drugbank_target|P03303 Genome polyprotein (DB03203; DB05102; DB08017; DB08509; DB08540; DB08543; DB08719; DB08720; DB08721; DB08722; DB08723; DB08724; DB08725; DB08726; DB08727; DB08728)
 OpenBabel12092120313D

  0  0  0     0  0            999 V3000
M  V30 BEGIN CTAB
M  V30 COUNTS 34133 34534 0 0 0
M  V30 BEGIN ATOM
M  V30 1 H -0.908 1.98254 -0.117106 0
M  V30 2 N 0 1.576 0 0
M  V30 3 C 0.933 2.03868 1.02534 0
M  V30 4 C 1.911 0.928543 1.3348 0
M  V30 5 O 3.095 1.19667 1.45644 0
M  V30 6 C 0.222 2.43627 2.35294 0
M  V30 7 C -0.732 3.65373 2.2001 0
M  V30 8 S 0.101 5.13292 1.52614 0
M  V30 9 C 1.257 5.56322 2.86805 0
M  V30 10 H 1.49 2.90518 0.631377 0
M  V30 11 H -0.977 1.52953 0.210867 0
M  V30 12 H 0.981 2.67203 3.11629 0
M  V30 13 H -0.358 1.57376 2.7183 0
M  V30 14 H -1.165 3.90944 3.18086 0
M  V30 15 H -1.563 3.418 1.51819 0
M  V30 16 H 0.729 5.58782 3.83104 0
M  V30 17 H 1.672 6.56266 2.65933 0
M  V30 18 H 2.08 4.83886 2.90714 0
M  V30 19 N 1.4781 -0.272755 1.55222 0
M  V30 20 C 2.7261 -1.00234 1.75492 0
M  V30 21 C 3.0471 -1.8681 0.5592 0
M  V30 22 O 2.3171 -1.91215 -0.425882 0
M  V30 23 H 0.8971 -0.373076 0.647166 0
M  V30 24 H 3.5591 -0.296926 1.92625 0
M  V30 25 H 2.6551 -1.63913 2.65592 0
M  V30 26 N 2.9562 -1.48159 -0.537278 0
M  V30 27 C 3.9192 -1.61665 -1.62472 0
M  V30 28 C 4.9192 -0.490395 -1.5314 0
M  V30 29 O 6.1092 -0.755998 -1.5694 0
M  V30 30 C 3.2412 -1.57997 -3.02076 0
M  V30 31 H 4.4342 -2.58621 -1.51839 0
M  V30 32 H 1.9872 -1.36647 -0.758771 0
M  V30 33 H 2.7222 -0.624913 -3.18222 0
M  V30 34 H 2.5072 -2.39755 -3.10258 0
M  V30 35 H 3.9972 -1.70627 -3.81151 0
M  V30 36 N 4.4343 0.785586 -1.36625 0
M  V30 37 C 5.3663 1.90711 -1.2713 0
M  V30 38 C 6.3793 1.61688 -0.189986 0
M  V30 39 O 7.5683 1.72864 -0.445014 0
M  V30 40 C 4.6683 3.25611 -0.939713 0
M  V30 41 C 3.8413 3.82385 -2.12369 0
M  V30 42 C 2.9003 4.95732 -1.76456 0
M  V30 43 O 1.9263 5.12047 -2.48589 0
M  V30 44 N 3.1283 5.76258 -0.700492 0
M  V30 45 H 5.8933 1.99376 -2.23762 0
M  V30 46 H 3.4543 0.964041 -1.30069 0
M  V30 47 H 5.4463 3.98937 -0.680554 0
M  V30 48 H 4.0163 3.12538 -0.0624074 0
M  V30 49 H 3.2363 3.01001 -2.54543 0
M  V30 50 H 4.5243 4.17047 -2.9146 0
M  V30 51 H 3.9223 5.65609 -0.101624 0
M  V30 52 H 2.4793 6.4987 -0.501165 0
M  V30 53 N 5.9124 1.20967 1.01018 0
M  V30 54 C 7.1584 1.02526 1.74975 0
M  V30 55 C 7.4914 -0.4408 1.89131 0
M  V30 56 O 6.7664 -1.32718 1.42184 0
M  V30 57 C 7.0494 1.71699 3.1653 0
M  V30 58 C 6.9024 3.25791 3.10129 0
M  V30 59 C 8.2214 1.45531 4.15342 0
M  V30 60 H 5.3404 0.373863 0.635134 0
M  V30 61 H 7.9824 1.49071 1.17805 0
M  V30 62 H 6.1324 1.32128 3.65341 0
M  V30 63 H 7.8044 3.74697 2.69072 0
M  V30 64 H 6.0474 3.56363 2.47362 0
M  V30 65 H 6.7184 3.69353 4.10222 0
M  V30 66 H 9.1944 1.79872 3.75213 0
M  V30 67 H 8.0704 1.96453 5.1254 0
M  V30 68 H 8.3314 0.384237 4.40427 0
M  V30 69 N 7.3905 -1.2043 1.01659 0
M  V30 70 C 8.6155 -1.94318 0.724942 0
M  V30 71 C 9.0405 -1.74266 -0.708034 0
M  V30 72 O 8.3985 -1.03694 -1.48719 0
M  V30 73 C 8.4465 -3.44486 1.06591 0
M  V30 74 O 7.5505 -4.12017 0.177599 0
M  V30 75 H 6.8915 -0.60708 0.26898 0
M  V30 76 H 9.4215 -1.52861 1.35995 0
M  V30 77 H 9.4315 -3.95106 1.01762 0
M  V30 78 H 8.1065 -3.58404 2.10997 0
M  V30 79 H 6.6835 -3.71821 0.283421 0
M  V30 80 N 8.8686 -0.792821 -1.36206 0
M  V30 81 C 10.0966 -0.378825 -2.03402 0
M  V30 82 C 10.5116 1.00586 -1.59774 0
M  V30 83 O 9.8686 1.64574 -0.788764 0
M  V30 84 C 9.9196 -0.43683 -3.58851 0
M  V30 85 O 9.6406 -1.76691 -4.00889 0
M  V30 86 C 11.1416 -0.0138943 -4.43298 0
M  V30 87 H 8.3616 -0.155673 -0.652692 0
M  V30 88 H 10.9056 -1.07261 -1.74113 0
M  V30 89 H 9.0606 0.208575 -3.86838 0
M  V30 90 H 9.4746 -1.72011 -4.95492 0
M  V30 91 H 10.9486 -0.105615 -5.51899 0
M  V30 92 H 11.4256 1.03915 -4.2673 0
M  V30 93 H 12.0316 -0.63192 -4.20579 0
M  V30 94 N 10.3467 1.47872 -0.545128 0
M  V30 95 C 11.2787 2.27869 0.246621 0
M  V30 96 C 12.2917 1.36282 0.890561 0
M  V30 97 O 13.4807 1.61207 0.766449 0
M  V30 98 C 10.5807 3.10159 1.36582 0
M  V30 99 C 9.7537 4.29627 0.820954 0
M  V30 100 C 8.8127 4.93607 1.82314 0
M  V30 101 O 7.8387 5.52366 1.37406 0
M  V30 102 N 9.0407 4.87211 3.15603 0
M  V30 103 H 11.8057 2.96459 -0.439539 0
M  V30 104 H 9.3667 1.57367 -0.380421 0
M  V30 105 H 11.3587 3.49829 2.03474 0
M  V30 106 H 9.9287 2.43891 1.9554 0
M  V30 107 H 9.1487 3.94192 -0.0244032 0
M  V30 108 H 10.4367 5.06928 0.436063 0
M  V30 109 H 9.8347 4.40651 3.54744 0
M  V30 110 H 8.3917 5.30937 3.78087 0
M  V30 111 N 11.8248 0.280983 1.55075 0
M  V30 112 C 12.7718 -0.603937 2.22758 0
M  V30 113 C 13.7418 -1.1452 1.20309 0
M  V30 114 O 14.9268 -1.19343 1.48869 0
M  V30 115 C 12.0668 -1.77947 2.95684 0
M  V30 116 C 11.1798 -1.2715 4.12864 0
M  V30 117 C 10.3148 -2.4093 4.7342 0
M  V30 118 C 9.3538 -1.87165 5.82783 0
M  V30 119 N 8.4908 -2.94441 6.37377 0
M  V30 120 H 13.3308 -0.020124 2.97993 0
M  V30 121 H 10.8678 0.00183425 1.471 0
M  V30 122 H 12.8258 -2.47055 3.36184 0
M  V30 123 H 11.4558 -2.33522 2.22861 0
M  V30 124 H 10.5078 -0.473331 3.77444 0
M  V30 125 H 11.8198 -0.837751 4.91715 0
M  V30 126 H 10.9738 -3.18021 5.1667 0
M  V30 127 H 9.7128 -2.87623 3.93859 0
M  V30 128 H 8.7178 -1.08556 5.38976 0
M  V30 129 H 9.9428 -1.41401 6.64216 0
M  V30 130 H 7.8888 -3.40505 5.60707 0
M  V30 131 H 7.8058 -2.55501 7.11516 0
M  V30 132 H 9.0738 -3.71489 6.85285 0
M  V30 133 N 13.3029 -1.57598 0.00835791 0
M  V30 134 C 14.5279 -1.95617 -0.689103 0
M  V30 135 C 14.9529 -0.883753 -1.66046 0
M  V30 136 O 14.3109 0.157352 -1.80616 0
M  V30 137 C 14.3589 -3.32736 -1.38994 0
M  V30 138 O 13.4629 -3.27631 -2.50463 0
M  V30 139 H 12.8039 -0.638379 -0.182668 0
M  V30 140 H 15.3339 -2.045 0.064036 0
M  V30 141 H 15.3439 -3.68494 -1.75147 0
M  V30 142 H 14.0189 -4.1034 -0.677778 0
M  V30 143 H 12.5959 -3.03561 -2.16576 0
M  V30 144 N 14.781 0.264519 -1.55364 0
M  V30 145 C 16.029 0.993021 -1.76021 0
M  V30 146 C 16.35 1.86511 -0.569099 0
M  V30 147 O 15.62 1.91438 0.415735 0
M  V30 148 H 14.2 0.369639 -0.649135 0
M  V30 149 H 16.862 0.286707 -1.9278 0
M  V30 150 H 15.958 1.62502 -2.66457 0
M  V30 151 N 16.2591 1.48442 0.529413 0
M  V30 152 C 17.4841 1.60406 1.31471 0
M  V30 153 C 17.9091 0.264738 1.86228 0
M  V30 154 O 17.2671 -0.763668 1.64432 0
M  V30 155 C 17.3151 2.65419 2.44101 0
M  V30 156 O 16.4191 2.22618 3.47153 0
M  V30 157 H 15.7601 0.537863 0.389357 0
M  V30 158 H 18.2901 1.94432 0.636965 0
M  V30 159 H 18.3001 2.86709 2.90279 0
M  V30 160 H 16.9751 3.62652 2.03608 0
M  V30 161 H 15.5521 2.11543 3.0709 0
M  V30 162 N 17.7372 -0.778329 1.37039 0
M  V30 163 C 18.6872 -1.88142 1.28789 0
M  V30 164 C 19.6712 -1.59923 0.177063 0
M  V30 165 O 20.8632 -1.72165 0.410873 0
M  V30 166 C 17.9922 -3.25518 1.09055 0
M  V30 167 C 17.0782 -3.5971 2.24654 0
M  V30 168 N 17.4692 -3.65131 3.50018 0
M  V30 169 C 15.7672 -3.89837 2.16663 0
M  V30 170 C 16.4682 -3.95882 4.26207 0
M  V30 171 N 15.4442 -4.11441 3.55271 0
M  V30 172 H 19.2462 -1.90575 2.23737 0
M  V30 173 H 16.7602 -0.974435 1.29917 0
M  V30 174 H 18.7572 -4.04423 1.0123 0
M  V30 175 H 17.4172 -3.24353 0.15018 0
M  V30 176 H 18.4282 -3.475 3.84011 0
M  V30 177 H 15.1052 -3.96533 1.30645 0
M  V30 178 H 16.4952 -4.06907 5.34674 0
M  V30 179 N 19.2153 -1.21501 -1.00376 0
M  V30 180 C 20.1253 -0.991447 -2.12621 0
M  V30 181 C 21.1413 0.0568446 -1.73907 0
M  V30 182 O 22.3173 -0.13348 -2.00957 0
M  V30 183 C 19.3823 -0.560312 -3.42142 0
M  V30 184 C 18.4433 -1.68096 -3.95022 0
M  V30 185 C 17.6763 -1.2703 -5.18362 0
M  V30 186 O 17.8993 -0.144438 -5.70217 0
M  V30 187 O 16.8333 -2.08269 -5.64719 0
M  V30 188 H 20.6593 -1.93158 -2.34358 0
M  V30 189 H 18.2443 -0.999999 -1.10997 0
M  V30 190 H 20.1263 -0.329724 -4.20108 0
M  V30 191 H 18.8013 0.351089 -3.2179 0
M  V30 192 H 17.7083 -1.96597 -3.18278 0
M  V30 193 H 19.0413 -2.56983 -4.19786 0
M  V30 194 N 20.6934 1.19889 -1.02296 0
M  V30 195 C 21.6414 2.24938 -0.592081 0
M  V30 196 C 22.6354 1.65257 0.372357 0
M  V30 197 O 23.8414 1.78371 0.241583 0
M  V30 198 H 20.2164 0.731787 -0.173182 0
M  V30 199 H 22.1874 2.58603 -1.48885 0
M  V30 200 C 20.9364 3.47668 0.047351 0
M  V30 201 H 20.2594 3.93875 -0.685772 0
M  V30 202 H 21.6994 4.22852 0.311862 0
M  V30 203 C 20.1584 3.11136 1.29212 0
M  V30 204 O 20.6884 3.2325 2.38479 0
M  V30 205 N 18.8944 2.65625 1.17863 0
M  V30 206 H 18.4414 2.55968 0.289493 0
M  V30 207 H 18.3994 2.41553 2.01245 0
M  V30 208 N 22.1715 0.800033 1.35784 0
M  V30 209 C 23.1035 0.163596 2.28615 0
M  V30 210 C 24.1165 -0.633317 1.49976 0
M  V30 211 O 25.3055 -0.466754 1.72289 0
M  V30 212 C 22.4055 -0.790958 3.29541 0
M  V30 213 C 21.5785 -0.0418255 4.3738 0
M  V30 214 C 20.6375 -0.91389 5.18203 0
M  V30 215 O 19.6635 -0.367234 5.68014 0
M  V30 216 N 20.8655 -2.23682 5.35674 0
M  V30 217 H 23.6305 0.96105 2.83873 0
M  V30 218 H 21.1915 0.654894 1.48063 0
M  V30 219 H 23.1835 -1.37844 3.80501 0
M  V30 220 H 21.7535 -1.48925 2.74846 0
M  V30 221 H 20.9735 0.726813 3.87442 0
M  V30 222 H 22.2615 0.474719 5.06581 0
M  V30 223 H 21.6595 -2.70497 4.96838 0
M  V30 224 H 20.2165 -2.77369 5.89839 0
M  V30 225 N 23.6496 -1.47581 0.552962 0
M  V30 226 C 24.5976 -2.31648 -0.21023 0
M  V30 227 C 25.5916 -1.42663 -0.913432 0
M  V30 228 O 26.7976 -1.5945 -0.835201 0
M  V30 229 H 23.1726 -0.746989 -0.0866676 0
M  V30 230 H 25.1436 -2.93869 0.518051 0
M  V30 231 C 23.8926 -3.25226 -1.22976 0
M  V30 232 H 23.2156 -3.93658 -0.698077 0
M  V30 233 H 24.6556 -3.86889 -1.73473 0
M  V30 234 C 23.1146 -2.48448 -2.27542 0
M  V30 235 O 23.6446 -2.22585 -3.34393 0
M  V30 236 N 21.8506 -2.09532 -2.01357 0
M  V30 237 H 21.3976 -2.30765 -1.14478 0
M  V30 238 H 21.3556 -1.58476 -2.71538 0
M  V30 239 N 25.1277 -0.289203 -1.54924 0
M  V30 240 C 26.3767 0.324231 -1.99077 0
M  V30 241 C 26.6897 1.5591 -1.18117 0
M  V30 242 O 27.8957 2.24637 -1.52481 0
M  V30 243 C 26.3517 0.628209 -3.54375 0
M  V30 244 C 25.9597 -0.587647 -4.44129 0
M  V30 245 C 27.7037 1.20349 -4.07083 0
M  V30 246 C 25.6107 -0.257475 -5.90839 0
M  V30 247 H 24.5407 0.124924 -0.743579 0
M  V30 248 H 27.1917 -0.396063 -1.79175 0
M  V30 249 H 25.5737 1.40778 -3.70132 0
M  V30 250 H 26.7477 -1.36418 -4.40144 0
M  V30 251 H 25.0627 -1.08074 -4.0213 0
M  V30 252 H 27.6597 1.46456 -5.14252 0
M  V30 253 H 28.0027 2.14195 -3.56968 0
M  V30 254 H 28.5357 0.485889 -3.94821 0
M  V30 255 H 25.2747 -1.16419 -6.45079 0
M  V30 256 H 24.7947 0.482018 -5.9786 0
M  V30 257 H 26.4737 0.145238 -6.46837 0
M  V30 258 N 26.6058 1.57591 -0.0167156 0
M  V30 259 C 27.5358 2.12496 0.967858 0
M  V30 260 C 28.5168 1.03807 1.34752 0
M  V30 261 O 29.7018 1.31577 1.42833 0
M  V30 262 C 26.8318 2.64194 2.25431 0
M  V30 263 C 25.7858 3.77559 2.01576 0
M  V30 264 C 25.1118 4.15636 3.36379 0
M  V30 265 C 26.4118 5.04151 1.36489 0
M  V30 266 H 28.1058 2.95013 0.510643 0
M  V30 267 H 25.6518 1.41915 0.244181 0
M  V30 268 H 27.6048 3.01236 2.94678 0
M  V30 269 H 26.3288 1.78821 2.73296 0
M  V30 270 H 24.9878 3.40937 1.34751 0
M  V30 271 H 24.6358 3.27263 3.81979 0
M  V30 272 H 24.3358 4.92022 3.21229 0
M  V30 273 H 25.8598 4.5525 4.06915 0
M  V30 274 H 27.2738 5.38857 1.95718 0
M  V30 275 H 25.6708 5.85453 1.31776 0
M  V30 276 H 26.7408 4.83733 0.336219 0
M  V30 277 N 28.0839 -0.256276 1.55502 0
M  V30 278 C 29.3119 -1.00342 1.8094 0
M  V30 279 C 29.7269 -1.79307 0.59114 0
M  V30 280 O 29.0839 -1.77114 -0.440081 0
M  V30 281 C 29.1349 -1.94875 3.04476 0
M  V30 282 O 28.8559 -1.19107 4.21598 0
M  V30 283 C 30.3569 -2.81266 3.42644 0
M  V30 284 H 27.5769 -0.295685 0.602338 0
M  V30 285 H 30.1209 -0.281998 2.02546 0
M  V30 286 H 28.2759 -2.62457 2.84947 0
M  V30 287 H 28.6899 -1.82969 4.91551 0
M  V30 288 H 30.1639 -3.43362 4.32211 0
M  V30 289 H 30.6409 -3.51897 2.62802 0
M  V30 290 H 31.2469 -2.1915 3.64491 0
M  V30 291 N 29.562 -1.4872 -0.521534 0
M  V30 292 C 30.51 -1.64328 -1.64618 0
M  V30 293 C 31.504 -0.50953 -1.61555 0
M  V30 294 O 32.71 -0.688525 -1.66311 0
M  V30 295 H 29.085 -0.517805 -0.545328 0
M  V30 296 H 31.056 -2.58767 -1.48601 0
M  V30 297 C 29.805 -1.70805 -3.02855 0
M  V30 298 H 29.128 -2.5741 -3.05909 0
M  V30 299 H 30.568 -1.85766 -3.81139 0
M  V30 300 C 29.027 -0.448479 -3.33902 0
M  V30 301 O 29.557 0.434928 -3.99339 0
M  V30 302 N 27.763 -0.317616 -2.88859 0
M  V30 303 H 27.31 -1.03748 -2.35784 0
M  V30 304 H 27.268 0.524113 -3.10001 0
M  V30 305 N 31.0401 0.771051 -1.3745 0
M  V30 306 C 32.2881 1.52661 -1.32435 0
M  V30 307 C 32.6091 1.9479 0.0905024 0
M  V30 308 O 31.8791 1.66348 1.03466 0
M  V30 309 H 30.4591 0.566218 -0.487244 0
M  V30 310 H 33.1211 0.917636 -1.71946 0
M  V30 311 H 32.2171 2.42568 -1.96385 0
M  V30 312 N 32.5182 1.22032 0.997298 0
M  V30 313 C 33.7432 1.06921 1.77715 0
M  V30 314 C 34.1682 -0.376226 1.84299 0
M  V30 315 O 33.5262 -1.27165 1.29223 0
M  V30 316 C 33.5742 1.67996 3.19076 0
M  V30 317 O 32.6782 0.930653 4.01762 0
M  V30 318 H 32.0192 0.375814 0.547412 0
M  V30 319 H 34.5492 1.61737 1.25309 0
M  V30 320 H 34.5592 1.72538 3.69723 0
M  V30 321 H 33.2342 2.73182 3.13599 0
M  V30 322 H 31.8112 0.960917 3.60307 0
M  V30 323 N 33.9963 -1.19345 1.0293 0
M  V30 324 C 34.9443 -2.24621 0.604001 0
M  V30 325 C 35.9383 -1.65452 -0.363587 0
M  V30 326 O 37.1443 -1.78497 -0.23212 0
M  V30 327 H 33.5193 -0.730858 0.177061 0
M  V30 328 H 35.4903 -2.5781 1.50255 0
M  V30 329 C 34.2393 -3.47688 -0.0289127 0
M  V30 330 H 33.5623 -3.93505 0.706651 0
M  V30 331 H 35.0023 -4.23011 -0.289432 0
M  V30 332 C 33.4613 -3.11817 -1.2756 0
M  V30 333 O 33.9913 -3.2451 -2.36762 0
M  V30 334 N 32.1973 -2.66246 -1.16453 0
M  V30 335 H 31.7443 -2.56118 -0.275914 0
M  V30 336 H 31.7023 -2.42617 -1.99961 0
M  V30 337 N 35.4744 -0.807222 -1.35358 0
M  V30 338 C 36.4064 -0.175717 -2.28525 0
M  V30 339 C 37.4194 0.625354 -1.5031 0
M  V30 340 O 38.6084 0.457611 -1.72535 0
M  V30 341 C 35.7084 0.773471 -3.29956 0
M  V30 342 C 34.8814 0.0186296 -4.37396 0
M  V30 343 C 33.9404 0.886395 -5.18681 0
M  V30 344 O 32.9664 0.337106 -5.68201 0
M  V30 345 N 34.1684 2.20839 -5.36852 0
M  V30 346 H 36.9334 -0.976091 -2.83359 0
M  V30 347 H 34.4944 -0.662737 -1.47714 0
M  V30 348 H 36.4864 1.35824 -3.81227 0
M  V30 349 H 35.0564 1.47465 -2.75632 0
M  V30 350 H 34.2764 -0.747349 -3.87051 0
M  V30 351 H 35.5644 -0.501577 -5.06322 0
M  V30 352 H 34.9624 2.67858 -4.98265 0
M  V30 353 H 33.5194 2.74237 -5.91301 0
M  V30 354 N 36.9525 1.47285 -0.560781 0
M  V30 355 C 38.1805 2.06855 -0.0430262 0
M  V30 356 C 38.5955 1.41291 1.25229 0
M  V30 357 O 37.9525 0.510648 1.7521 0
M  V30 358 C 38.0035 3.61178 0.152518 0
M  V30 359 O 37.7245 4.24285 -1.0915 0
M  V30 360 C 39.2255 4.37624 0.707145 0
M  V30 361 H 36.4455 0.669319 -0.0474652 0
M  V30 362 H 38.9895 1.89237 -0.77521 0
M  V30 363 H 37.1445 3.78298 0.834843 0
M  V30 364 H 37.5585 5.16868 -0.891482 0
M  V30 365 H 39.0325 5.46271 0.793244 0
M  V30 366 H 39.5095 4.04152 1.71923 0
M  V30 367 H 40.1155 4.25257 0.0604027 0
M  V30 368 N 38.4306 0.297415 1.54768 0
M  V30 369 C 39.6776 -0.312913 2.00068 0
M  V30 370 C 40.0056 -1.54171 1.18582 0
M  V30 371 O 39.2606 -1.94108 0.249133 0
M  V30 372 C 39.5596 -0.717561 3.50123 0
M  V30 373 C 39.2256 0.409095 4.4904 0
M  V30 374 C 37.8876 0.718399 4.75807 0
M  V30 375 C 40.2396 1.16717 5.07963 0
M  V30 376 C 37.5676 1.78896 5.5876 0
M  V30 377 C 39.9196 2.22762 5.92081 0
M  V30 378 C 38.5836 2.54303 6.1716 0
M  V30 379 H 37.8536 -0.114503 0.7321 0
M  V30 380 H 40.5006 0.415767 1.86932 0
M  V30 381 H 38.8056 -1.52627 3.60849 0
M  V30 382 H 40.5026 -1.20091 3.82595 0
M  V30 383 H 37.0926 0.157918 4.28309 0
M  V30 384 H 41.2766 0.941466 4.87289 0
M  V30 385 H 36.5326 2.0381 5.7643 0
M  V30 386 H 40.7066 2.81962 6.36765 0
M  V30 387 H 38.3336 3.3739 6.81229 0
M  V30 388 N 39.9087 -1.5758 0.0250728 0
M  V30 389 C 41.1367 -1.9593 -0.664747 0
M  V30 390 C 41.5517 -0.901352 -1.65895 0
M  V30 391 O 40.9087 0.117255 -1.82123 0
M  V30 392 C 40.9597 -3.34342 -1.37468 0
M  V30 393 O 40.6807 -4.36079 -0.420324 0
M  V30 394 C 42.1817 -3.873 -2.1567 0
M  V30 395 H 39.4017 -0.645405 -0.183557 0
M  V30 396 H 41.9457 -2.04329 0.0836372 0
M  V30 397 H 40.1007 -3.27175 -2.0745 0
M  V30 398 H 40.5147 -5.16297 -0.923991 0
M  V30 399 H 41.9887 -4.86504 -2.60803 0
M  V30 400 H 42.4657 -3.21331 -2.99405 0
M  V30 401 H 43.0717 -3.97723 -1.50654 0
M  V30 402 N 41.3868 0.248026 -1.55636 0
M  V30 403 C 42.6328 0.97767 -1.77678 0
M  V30 404 C 42.9658 1.85016 -0.590135 0
M  V30 405 O 42.2408 1.90095 0.411611 0
M  V30 406 C 42.5238 1.83914 -3.09593 0
M  V30 407 C 42.3768 0.99491 -4.38659 0
M  V30 408 C 43.6958 2.82183 -3.37729 0
M  V30 409 H 40.8148 0.354005 -0.646413 0
M  V30 410 H 43.4568 0.248253 -1.88371 0
M  V30 411 H 41.6068 2.46104 -3.00608 0
M  V30 412 H 43.2788 0.391789 -4.59633 0
M  V30 413 H 41.5218 0.299231 -4.32767 0
M  V30 414 H 42.1928 1.63145 -5.2734 0
M  V30 415 H 44.6688 2.30129 -3.4667 0
M  V30 416 H 43.5448 3.39582 -4.31249 0
M  V30 417 H 43.8058 3.58588 -2.58586 0
M  V30 418 N 42.8649 1.48995 0.513639 0
M  V30 419 C 44.1139 1.57093 1.2651 0
M  V30 420 C 44.4269 0.257091 1.93903 0
M  V30 421 O 45.6329 0.216478 2.70636 0
M  V30 422 C 44.0889 2.77118 2.29638 0
M  V30 423 C 43.6969 4.15209 1.68241 0
M  V30 424 C 45.4409 2.94538 3.05692 0
M  V30 425 C 43.3479 5.26474 2.69406 0
M  V30 426 H 42.2779 0.584876 0.475854 0
M  V30 427 H 44.9289 1.7536 0.540487 0
M  V30 428 H 43.3109 2.52319 3.05207 0
M  V30 429 H 44.4849 4.50094 0.987505 0
M  V30 430 H 42.7999 4.03042 1.04623 0
M  V30 431 H 45.3969 3.74832 3.8132 0
M  V30 432 H 45.7399 2.04614 3.62545 0
M  V30 433 H 46.2729 3.19316 2.37238 0
M  V30 434 H 43.0119 6.18417 2.17351 0
M  V30 435 H 42.5319 4.96058 3.37175 0
M  V30 436 H 44.2109 5.55277 3.32078 0
M  V30 437 N 44.343 -0.763751 1.37857 0
M  V30 438 C 45.291 -1.89864 1.34367 0
M  V30 439 C 46.285 -1.67816 0.231143 0
M  V30 440 O 47.491 -1.75508 0.399617 0
M  V30 441 H 43.866 -0.624501 0.41893 0
M  V30 442 H 45.837 -1.89925 2.30155 0
M  V30 443 C 44.586 -3.27227 1.1755 0
M  V30 444 H 43.909 -3.44773 2.02414 0
M  V30 445 H 45.349 -4.06911 1.1916 0
M  V30 446 C 43.808 -3.36692 -0.118311 0
M  V30 447 O 44.338 -3.86374 -1.09902 0
M  V30 448 N 42.544 -2.90092 -0.171717 0
M  V30 449 H 42.091 -2.49853 0.627012 0
M  V30 450 H 42.049 -2.96806 -1.03699 0
M  V30 451 N 45.8211 -1.22559 -0.990812 0
M  V30 452 C 47.0511 -1.07623 -1.76355 0
M  V30 453 C 47.4591 0.37601 -1.85426 0
M  V30 454 O 46.8021 1.27228 -1.32509 0
M  V30 455 C 46.8641 -1.61507 -3.21179 0
M  V30 456 C 46.5281 -3.10146 -3.35646 0
M  V30 457 C 47.5251 -4.07553 -3.22796 0
M  V30 458 C 45.2101 -3.49644 -3.60631 0
M  V30 459 C 47.2041 -5.42442 -3.34716 0
M  V30 460 C 44.8911 -4.84682 -3.72192 0
M  V30 461 C 45.8891 -5.8089 -3.59243 0
M  V30 462 O 45.5771 -7.13476 -3.70415 0
M  V30 463 H 45.3091 -0.377745 -0.560611 0
M  V30 464 H 47.8631 -1.62658 -1.25425 0
M  V30 465 H 46.0931 -1.00881 -3.73309 0
M  V30 466 H 47.7821 -1.42202 -3.80175 0
M  V30 467 H 48.5481 -3.78381 -3.03403 0
M  V30 468 H 44.4271 -2.75282 -3.69785 0
M  V30 469 H 47.9711 -6.17518 -3.24526 0
M  V30 470 H 43.8681 -5.13534 -3.91092 0
M  V30 471 H 44.6361 -7.21083 -3.87275 0
M  V30 472 N 47.2992 1.18797 -1.03562 0
M  V30 473 C 48.5292 1.92319 -0.754773 0
M  V30 474 C 48.9372 1.7612 0.691248 0
M  V30 475 O 48.2802 1.08491 1.48241 0
M  V30 476 C 48.3422 3.44284 -1.03484 0
M  V30 477 C 48.0062 3.84258 -2.47376 0
M  V30 478 C 49.0032 3.88459 -3.45537 0
M  V30 479 C 46.6882 4.15701 -2.81954 0
M  V30 480 C 48.6822 4.23545 -4.76328 0
M  V30 481 C 46.3692 4.50458 -4.12954 0
M  V30 482 C 47.3672 4.54356 -5.09951 0
M  V30 483 O 47.0552 4.88305 -6.38603 0
M  V30 484 H 46.7872 0.617527 -0.275021 0
M  V30 485 H 49.3412 1.51683 -1.38497 0
M  V30 486 H 47.5712 3.85135 -0.347513 0
M  V30 487 H 49.2602 3.99049 -0.7426 0
M  V30 488 H 50.0262 3.6431 -3.20162 0
M  V30 489 H 45.9052 4.11847 -2.0713 0
M  V30 490 H 49.4492 4.26502 -5.52035 0
M  V30 491 H 45.3462 4.74067 -4.38099 0
M  V30 492 H 46.1142 5.06227 -6.43177 0
M  V30 493 N 48.7773 0.814389 1.34928 0
M  V30 494 C 49.7243 0.22822 2.29669 0
M  V30 495 C 50.6943 -0.642164 1.53184 0
M  V30 496 O 51.8793 -0.585605 1.81591 0
M  V30 497 C 49.0193 -0.61089 3.3965 0
M  V30 498 C 48.1323 0.280792 4.31086 0
M  V30 499 C 47.2673 -0.567067 5.28165 0
M  V30 500 C 46.3063 0.324531 6.11239 0
M  V30 501 N 45.4433 -0.483756 7.00431 0
M  V30 502 H 50.2833 1.04153 2.79206 0
M  V30 503 H 47.8203 0.525133 1.37407 0
M  V30 504 H 49.7783 -1.11263 4.0209 0
M  V30 505 H 48.4083 -1.38939 2.91369 0
M  V30 506 H 47.4603 0.900688 3.69583 0
M  V30 507 H 48.7723 0.966723 4.89342 0
M  V30 508 H 47.9263 -1.13363 5.96015 0
M  V30 509 H 46.6653 -1.28654 4.70425 0
M  V30 510 H 45.6703 0.903298 5.42329 0
M  V30 511 H 46.8953 1.04198 6.71059 0
M  V30 512 H 44.8413 -1.18706 6.45171 0
M  V30 513 H 44.7583 0.143965 7.55863 0
M  V30 514 H 46.0263 -1.03334 7.7262 0
M  V30 515 N 50.2554 -1.46986 0.568584 0
M  V30 516 C 51.5324 -1.95592 -0.0174074 0
M  V30 517 C 51.9124 -1.51124 -1.47393 0
M  V30 518 O 51.2604 -0.755329 -2.15655 0
M  V30 519 C 51.4704 -3.48719 0.139913 0
M  V30 520 C 52.8184 -4.246 0.000426376 0
M  V30 521 O 53.8424 -3.56135 0.0680316 0
M  V30 522 O 52.7014 -5.46302 -0.146988 0
M  V30 523 H 49.7954 -0.82498 -0.0577599 0
M  V30 524 H 52.3414 -1.57335 0.635909 0
M  V30 525 H 51.1134 -3.73927 1.15301 0
M  V30 526 H 50.7364 -3.93771 -0.550491 0
M  V30 527 N 51.7335 -0.305618 -1.54608 0
M  V30 528 C 52.6965 0.555591 -2.22364 0
M  V30 529 C 53.6965 1.05768 -1.21119 0
M  V30 530 O 54.8865 0.952972 -1.45822 0
M  V30 531 C 52.0185 1.76974 -2.91364 0
M  V30 532 H 53.2115 -0.0364572 -2.99878 0
M  V30 533 H 50.7645 -0.0565007 -1.56198 0
M  V30 534 H 51.4995 2.40151 -2.17941 0
M  V30 535 H 51.2845 1.41732 -3.65588 0
M  V30 536 H 52.7745 2.38148 -3.43038 0
M  V30 537 N 53.2116 1.57565 -0.0334293 0
M  V30 538 C 54.1746 2.09393 0.932048 0
M  V30 539 C 55.1746 1.00986 1.25134 0
M  V30 540 O 56.3646 1.27129 1.19096 0
M  V30 541 C 53.4966 2.56338 2.2473 0
M  V30 542 H 54.6896 2.95984 0.483085 0
M  V30 543 H 52.2426 1.54819 0.21468 0
M  V30 544 H 52.9776 1.7309 2.74245 0
M  V30 545 H 52.7626 3.35542 2.02865 0
M  V30 546 H 54.2526 2.96646 2.93923 0
M  V30 547 N 54.6897 -0.239769 1.55765 0
M  V30 548 C 55.9147 -0.988373 1.82335 0
M  V30 549 C 56.3397 -1.77886 0.611421 0
M  V30 550 O 55.6977 -1.75889 -0.439639 0
M  V30 551 C 55.7457 -1.89627 3.06715 0
M  V30 552 O 54.8497 -2.98904 2.84131 0
M  V30 553 H 54.1907 -0.280858 0.601677 0
M  V30 554 H 56.7207 -0.258597 2.02959 0
M  V30 555 H 56.7307 -2.30957 3.36338 0
M  V30 556 H 55.4057 -1.31511 3.9456 0
M  V30 557 H 53.9827 -2.61651 2.65694 0
M  V30 558 N 56.1678 -1.49265 -0.50573 0
M  V30 559 C 57.3958 -1.62215 -1.28429 0
M  V30 560 C 57.8108 -0.291697 -1.86533 0
M  V30 561 O 57.1678 0.722233 -1.67601 0
M  V30 562 C 57.2188 -2.68735 -2.41793 0
M  V30 563 O 56.9398 -3.96619 -1.86078 0
M  V30 564 C 58.4408 -2.92346 -3.3324 0
M  V30 565 H 55.6608 -0.546239 -0.389697 0
M  V30 566 H 58.2048 -1.95265 -0.607609 0
M  V30 567 H 56.3598 -2.38476 -3.053 0
M  V30 568 H 56.7738 -4.55256 -2.60465 0
M  V30 569 H 58.2478 -3.70623 -4.09075 0
M  V30 570 H 58.7248 -2.02081 -3.89948 0
M  V30 571 H 59.3308 -3.24003 -2.75503 0
M  V30 572 N 57.6459 0.756429 -1.3826 0
M  V30 573 C 58.8709 1.55077 -1.37717 0
M  V30 574 C 59.2959 1.88073 0.03164 0
M  V30 575 O 58.6539 1.50364 1.01293 0
M  V30 576 C 58.7019 2.8283 -2.23695 0
M  V30 577 O 57.8059 3.77862 -1.6521 0
M  V30 578 H 57.1469 0.469152 -0.469885 0
M  V30 579 H 59.6769 0.935019 -1.81985 0
M  V30 580 H 59.6869 3.31783 -2.37453 0
M  V30 581 H 58.3619 2.58144 -3.2609 0
M  V30 582 H 56.9389 3.36555 -1.60578 0
M  V30 583 N 59.124 1.23083 0.984299 0
M  V30 584 C 60.349 1.088 1.76571 0
M  V30 585 C 60.774 -0.356657 1.84688 0
M  V30 586 O 60.132 -1.25788 1.30565 0
M  V30 587 C 60.18 1.71371 3.17277 0
M  V30 588 O 59.284 0.973213 4.00752 0
M  V30 589 H 58.625 0.381599 0.543395 0
M  V30 590 H 61.155 1.63057 1.23587 0
M  V30 591 H 61.165 1.76449 3.67872 0
M  V30 592 H 59.84 2.76493 3.10684 0
M  V30 593 H 58.417 0.999078 3.59267 0
M  V30 594 N 60.6021 -1.18246 1.0419 0
M  V30 595 C 61.5651 -2.20128 0.638452 0
M  V30 596 C 62.5651 -1.57885 -0.304805 0
M  V30 597 O 63.7551 -1.73967 -0.0900369 0
M  V30 598 C 60.8871 -3.4084 -0.0637751 0
M  V30 599 H 62.0801 -2.57336 1.54007 0
M  V30 600 H 59.6331 -1.32152 0.834598 0
M  V30 601 H 60.3681 -3.09166 -0.979136 0
M  V30 602 H 60.1531 -3.8726 0.614198 0
M  V30 603 H 61.6431 -4.16274 -0.332512 0
M  V30 604 N 62.0802 -0.821533 -1.34494 0
M  V30 605 C 63.3282 -0.408139 -1.97936 0
M  V30 606 C 63.6492 1.03193 -1.65457 0
M  V30 607 O 62.9192 1.71622 -0.944595 0
M  V30 608 H 61.4992 -0.147928 -0.732206 0
M  V30 609 H 64.1612 -1.05067 -1.64155 0
M  V30 610 H 63.2572 -0.52601 -3.07635 0
M  V30 611 N 63.5583 1.46682 -0.576371 0
M  V30 612 C 64.4903 2.28341 0.198231 0
M  V30 613 C 65.5033 1.38141 0.861453 0
M  V30 614 O 66.6923 1.62797 0.732082 0
M  V30 615 C 63.7923 3.12986 1.29972 0
M  V30 616 C 62.9653 4.31271 0.729639 0
M  V30 617 C 62.0243 4.97363 1.71803 0
M  V30 618 O 61.0503 5.55156 1.25658 0
M  V30 619 N 62.2523 4.93796 3.05198 0
M  V30 620 H 65.0173 2.9546 -0.502324 0
M  V30 621 H 62.5783 1.56525 -0.413715 0
M  V30 622 H 64.5703 3.54066 1.96008 0
M  V30 623 H 63.1403 2.47984 1.90323 0
M  V30 624 H 62.3603 3.94052 -0.108012 0
M  V30 625 H 63.6483 5.07739 0.328438 0
M  V30 626 H 63.0463 4.48077 3.45317 0
M  V30 627 H 61.6033 5.38837 3.6674 0
M  V30 628 N 65.0364 0.313813 1.54444 0
M  V30 629 C 66.2614 -0.296681 2.05267 0
M  V30 630 C 66.6864 -1.45757 1.18897 0
M  V30 631 O 66.0444 -1.80239 0.195886 0
M  V30 632 C 66.0924 -0.71831 3.53373 0
M  V30 633 O 65.1964 -1.82175 3.69981 0
M  V30 634 H 64.5374 -0.0554061 0.661684 0
M  V30 635 H 67.0674 0.459387 1.99376 0
M  V30 636 H 67.0774 -1.00364 3.95463 0
M  V30 637 H 65.7524 0.130821 4.15694 0
M  V30 638 H 64.3294 -1.53598 3.39797 0
M  V30 639 N 66.5145 -1.57545 0.0417849 0
M  V30 640 C 67.4445 -2.14009 -0.933929 0
M  V30 641 C 68.4255 -1.05938 -1.33083 0
M  V30 642 O 69.6105 -1.33833 -1.40721 0
M  V30 643 C 66.7405 -2.67747 -2.21199 0
M  V30 644 C 65.6945 -3.80718 -1.95544 0
M  V30 645 C 65.0205 -4.20935 -3.29724 0
M  V30 646 C 66.3205 -5.06258 -1.28452 0
M  V30 647 H 68.0145 -2.95788 -0.463645 0
M  V30 648 H 65.5605 -1.42285 -0.221573 0
M  V30 649 H 67.5135 -3.05886 -2.89848 0
M  V30 650 H 66.2375 -1.83147 -2.70416 0
M  V30 651 H 64.8965 -3.43037 -1.2931 0
M  V30 652 H 64.5445 -3.33298 -3.76724 0
M  V30 653 H 64.2445 -4.9707 -3.13361 0
M  V30 654 H 65.7685 -4.61666 -3.9962 0
M  V30 655 H 67.1825 -5.41903 -1.8712 0
M  V30 656 H 65.5795 -5.87475 -1.22445 0
M  V30 657 H 66.6495 -4.84207 -0.259219 0
M  V30 658 N 67.9926 0.231505 -1.5589 0
M  V30 659 C 69.2176 0.978689 -1.82856 0
M  V30 660 C 69.6426 1.77559 -0.620846 0
M  V30 661 O 69.0006 1.76119 0.430305 0
M  V30 662 C 69.0486 1.87997 -3.07716 0
M  V30 663 O 68.1526 2.97393 -2.85712 0
M  V30 664 H 67.4936 0.277663 -0.603158 0
M  V30 665 H 70.0236 0.24783 -2.03093 0
M  V30 666 H 70.0336 2.2917 -3.37558 0
M  V30 667 H 68.7086 1.29417 -3.95252 0
M  V30 668 H 67.2856 2.60238 -2.67078 0
M  V30 669 N 69.4707 1.49531 0.497807 0
M  V30 670 C 70.4037 1.61043 1.6168 0
M  V30 671 C 71.3817 0.459386 1.55976 0
M  V30 672 O 72.5657 0.675358 1.75986 0
M  V30 673 C 69.6927 1.56833 3.00202 0
M  V30 674 C 68.7387 2.77173 3.24156 0
M  V30 675 S 69.5717 4.38808 3.06933 0
M  V30 676 C 70.7277 4.37248 4.47845 0
M  V30 677 H 70.9607 2.55702 1.51671 0
M  V30 678 H 68.4937 1.38462 0.683201 0
M  V30 679 H 70.4517 1.55089 3.80076 0
M  V30 680 H 69.1127 0.634561 3.07623 0
M  V30 681 H 68.3057 2.70456 4.25288 0
M  V30 682 H 67.9077 2.76346 2.5201 0
M  V30 683 H 70.1997 4.09164 5.39992 0
M  V30 684 H 71.1427 5.38668 4.59612 0
M  V30 685 H 71.5507 3.67286 4.28674 0
M  V30 686 N 70.9488 -0.749086 1.3866 0
M  V30 687 C 72.2258 -1.4992 1.25632 0
M  V30 688 C 72.6058 -2.10633 -0.140317 0
M  V30 689 O 71.9538 -1.97437 -1.15025 0
M  V30 690 C 72.1638 -2.56195 2.36992 0
M  V30 691 C 73.5118 -3.22972 2.75634 0
M  V30 692 O 74.5358 -2.66502 2.36337 0
M  V30 693 O 73.3948 -4.25122 3.43415 0
M  V30 694 H 70.4888 -0.665067 0.491544 0
M  V30 695 H 73.0348 -0.784113 1.50498 0
M  V30 696 H 71.8068 -2.09612 3.30422 0
M  V30 697 H 71.4298 -3.35279 2.13714 0
M  V30 698 N 72.4269 -1.23603 -0.977757 0
M  V30 699 C 73.8379 -1.06424 -1.53398 0
M  V30 700 C 74.1889 0.367578 -1.92726 0
M  V30 701 O 73.3139 1.25465 -1.76316 0
M  V30 702 C 73.9089 -1.92568 -2.78753 0
M  V30 703 C 72.4679 -1.79642 -3.30765 0
M  V30 704 C 71.6149 -1.88111 -2.03739 0
M  V30 705 H 74.5659 -1.37227 -0.797152 0
M  V30 706 H 74.5869 -1.45203 -3.51705 0
M  V30 707 H 74.0989 -2.96771 -2.50098 0
M  V30 708 H 72.1999 -0.782325 -3.64294 0
M  V30 709 H 72.3129 -2.63174 -4.00345 0
M  V30 710 H 70.6769 -1.31723 -2.17994 0
M  V30 711 H 71.4599 -2.93875 -1.77461 0
M  V30 712 N 73.905 1.17692 -1.04816 0
M  V30 713 C 75.13 1.92327 -0.776207 0
M  V30 714 C 75.555 1.76082 0.661581 0
M  V30 715 O 74.913 1.076 1.45917 0
M  V30 716 C 74.961 3.41539 -1.15687 0
M  V30 717 O 74.065 4.11402 -0.286775 0
M  V30 718 H 73.406 0.599735 -0.284981 0
M  V30 719 H 75.936 1.49201 -1.4 0
M  V30 720 H 75.946 3.92269 -1.12202 0
M  V30 721 H 74.621 3.52684 -2.20425 0
M  V30 722 H 73.198 3.70939 -0.381903 0
M  V30 723 N 75.3831 0.828654 1.34056 0
M  V30 724 C 76.3301 0.252567 2.29414 0
M  V30 725 C 77.3001 -0.62588 1.53857 0
M  V30 726 O 78.4851 -0.566312 1.82202 0
M  V30 727 C 75.6251 -0.574831 3.40279 0
M  V30 728 C 74.7381 0.326499 4.30764 0
M  V30 729 C 73.8731 -0.511016 5.28736 0
M  V30 730 C 72.9121 0.389342 6.1086 0
M  V30 731 N 72.0491 -0.409439 7.00905 0
M  V30 732 H 76.8891 1.07108 2.78086 0
M  V30 733 H 74.4261 0.539677 1.36843 0
M  V30 734 H 76.3841 -1.06992 4.03248 0
M  V30 735 H 75.0141 -1.35841 2.92826 0
M  V30 736 H 74.0661 0.939837 3.68607 0
M  V30 737 H 75.3781 1.01857 4.88289 0
M  V30 738 H 74.5321 -1.07035 5.97184 0
M  V30 739 H 73.2711 -1.23657 4.71763 0
M  V30 740 H 72.2761 0.960769 5.4134 0
M  V30 741 H 73.5011 1.1131 6.69916 0
M  V30 742 H 71.4471 -1.11856 6.46393 0
M  V30 743 H 71.3641 0.224126 7.55668 0
M  V30 744 H 72.6321 -0.951336 7.73673 0
M  V30 745 N 76.8612 -1.46375 0.584142 0
M  V30 746 C 78.1082 -2.02378 0.0702675 0
M  V30 747 C 78.4362 -1.45545 -1.29023 0
M  V30 748 O 77.6912 -0.610967 -1.85918 0
M  V30 749 C 77.9902 -3.57373 -0.0439342 0
M  V30 750 C 77.6562 -4.33252 1.24915 0
M  V30 751 C 76.3182 -4.53701 1.60341 0
M  V30 752 C 78.6702 -4.7681 2.1048 0
M  V30 753 C 75.9982 -5.1496 2.81128 0
M  V30 754 C 78.3502 -5.39404 3.30494 0
M  V30 755 C 77.0142 -5.5808 3.66201 0
M  V30 756 H 76.2842 -0.740554 0.0257127 0
M  V30 757 H 78.9312 -1.75727 0.761065 0
M  V30 758 H 77.2362 -3.83169 -0.817869 0
M  V30 759 H 78.9332 -3.98384 -0.457318 0
M  V30 760 H 75.5232 -4.17633 0.963364 0
M  V30 761 H 79.7072 -4.60766 1.84414 0
M  V30 762 H 74.9632 -5.27611 3.08928 0
M  V30 763 H 79.1372 -5.72114 3.97063 0
M  V30 764 H 76.7642 -6.05318 4.59885 0
M  V30 765 N 78.3393 -0.321999 -1.54275 0
M  V30 766 C 79.5673 0.283052 -2.04955 0
M  V30 767 C 79.9823 1.45904 -1.19823 0
M  V30 768 O 79.3393 1.81063 -0.228545 0
M  V30 769 C 79.3903 0.719028 -3.54277 0
M  V30 770 O 79.1113 -0.410175 -4.36176 0
M  V30 771 C 80.6123 1.38705 -4.21041 0
M  V30 772 H 77.8323 0.0584616 -0.668448 0
M  V30 773 H 80.3763 -0.467734 -1.99079 0
M  V30 774 H 78.5313 1.41979 -3.60445 0
M  V30 775 H 78.9453 -0.0669416 -5.24457 0
M  V30 776 H 80.4193 1.64306 -5.2698 0
M  V30 777 H 80.8963 2.33385 -3.72059 0
M  V30 778 H 81.5023 0.728906 -4.19007 0
M  V30 779 N 79.8174 1.5752 -0.0501392 0
M  V30 780 C 80.7274 2.14952 0.939827 0
M  V30 781 C 81.7434 1.10706 1.34239 0
M  V30 782 O 82.9194 1.42869 1.41952 0
M  V30 783 C 79.9844 2.68232 2.19665 0
M  V30 784 C 79.0454 3.87272 1.85253 0
M  V30 785 C 78.2784 4.38002 3.04943 0
M  V30 786 O 78.5014 3.87811 4.18281 0
M  V30 787 O 77.4354 5.29602 2.86017 0
M  V30 788 H 81.2614 2.9986 0.481392 0
M  V30 789 H 78.8464 1.4841 0.171699 0
M  V30 790 H 80.7284 3.02475 2.93406 0
M  V30 791 H 79.4034 1.86395 2.64648 0
M  V30 792 H 78.3104 3.5792 1.0883 0
M  V30 793 H 79.6434 4.70336 1.4507 0
M  V30 794 N 81.2955 -0.223234 1.56011 0
M  V30 795 C 82.7065 -0.790368 1.69145 0
M  V30 796 C 83.0575 -1.85055 0.651845 0
M  V30 797 O 82.1825 -2.15498 -0.197359 0
M  V30 798 C 82.7775 -1.4404 3.06656 0
M  V30 799 C 81.3365 -1.95494 3.2165 0
M  V30 800 C 80.4835 -0.814506 2.65068 0
M  V30 801 H 83.4345 0.00139011 1.587 0
M  V30 802 H 83.4555 -2.30916 3.0242 0
M  V30 803 H 82.9675 -0.668543 3.82298 0
M  V30 804 H 81.0685 -2.75487 2.50874 0
M  V30 805 H 81.1815 -2.13607 4.28846 0
M  V30 806 H 79.5455 -1.22137 2.23505 0
M  V30 807 H 80.3285 -0.0553515 3.43255 0
M  V30 808 N 82.7736 -1.49793 -0.48987 0
M  V30 809 C 84.0196 -1.60078 -1.24511 0
M  V30 810 C 84.3526 -0.291608 -1.91998 0
M  V30 811 O 83.6276 0.705647 -1.81248 0
M  V30 812 C 83.9106 -2.76791 -2.30345 0
M  V30 813 C 83.7636 -4.17535 -1.67286 0
M  V30 814 C 85.0826 -2.89111 -3.31817 0
M  V30 815 H 82.2016 -0.582645 -0.451324 0
M  V30 816 H 84.8436 -1.82117 -0.541612 0
M  V30 817 H 82.9936 -2.5813 -2.90346 0
M  V30 818 H 84.6656 -4.4774 -1.11026 0
M  V30 819 H 82.9086 -4.22665 -0.976577 0
M  V30 820 H 83.5796 -4.95094 -2.44103 0
M  V30 821 H 86.0556 -3.06133 -2.81819 0
M  V30 822 H 84.9316 -3.72433 -4.03219 0
M  V30 823 H 85.1926 -1.9893 -3.94815 0
M  V30 824 N 84.2517 0.741722 -1.39055 0
M  V30 825 C 85.1987 1.85566 -1.37237 0
M  V30 826 C 86.1687 1.64457 -0.233072 0
M  V30 827 O 87.3537 1.85957 -0.427147 0
M  V30 828 C 84.4937 3.23004 -1.215 0
M  V30 829 C 83.6067 3.55864 -2.44918 0
M  V30 830 C 82.7417 4.82669 -2.21821 0
M  V30 831 C 81.7807 5.08351 -3.40948 0
M  V30 832 N 80.9177 6.26356 -3.17211 0
M  V30 833 H 85.7577 1.86455 -2.32462 0
M  V30 834 H 83.2947 0.911176 -1.15482 0
M  V30 835 H 85.2527 4.02331 -1.10389 0
M  V30 836 H 83.8827 3.21411 -0.29908 0
M  V30 837 H 82.9347 2.7129 -2.66657 0
M  V30 838 H 84.2467 3.70765 -3.33668 0
M  V30 839 H 83.4007 5.69962 -2.07914 0
M  V30 840 H 82.1397 4.69929 -1.30454 0
M  V30 841 H 81.1447 4.19522 -3.55361 0
M  V30 842 H 82.3697 5.22981 -4.33207 0
M  V30 843 H 80.3157 6.14917 -2.28502 0
M  V30 844 H 80.2327 6.41813 -3.99515 0
M  V30 845 H 81.5007 7.16506 -3.06984 0
M  V30 846 N 85.7298 1.2412 0.971189 0
M  V30 847 C 87.0068 0.986867 1.6888 0
M  V30 848 C 87.3868 -0.491857 2.0529 0
M  V30 849 O 86.7348 -1.46531 1.75331 0
M  V30 850 C 86.9448 1.9063 2.92338 0
M  V30 851 C 88.2928 2.17515 3.64654 0
M  V30 852 O 89.3168 1.88254 3.02388 0
M  V30 853 O 88.1758 2.6719 4.7673 0
M  V30 854 H 85.2698 0.372944 0.738134 0
M  V30 855 H 87.8158 1.35203 1.02559 0
M  V30 856 H 86.5878 2.90552 2.62097 0
M  V30 857 H 86.2108 1.54408 3.66393 0
M  V30 858 N 87.2079 -1.17134 1.05439 0
M  V30 859 C 88.1379 -2.2342 0.678649 0
M  V30 860 C 89.1189 -1.66971 -0.32476 0
M  V30 861 O 90.3039 -1.93149 -0.201802 0
M  V30 862 C 87.4339 -3.47256 0.0552099 0
M  V30 863 C 86.3879 -4.16543 0.98365 0
M  V30 864 C 85.7139 -5.34231 0.223961 0
M  V30 865 C 87.0139 -4.68495 2.3089 0
M  V30 866 H 88.7079 -2.55105 1.56722 0
M  V30 867 H 86.2539 -1.2262 0.754998 0
M  V30 868 H 88.2069 -4.20828 -0.21946 0
M  V30 869 H 86.9309 -3.14846 -0.868319 0
M  V30 870 H 85.5899 -3.44887 1.24293 0
M  V30 871 H 85.2379 -4.98071 -0.702412 0
M  V30 872 H 84.9379 -5.81527 0.842627 0
M  V30 873 H 86.4619 -6.10585 -0.0433671 0
M  V30 874 H 87.8759 -5.33691 2.09396 0
M  V30 875 H 86.2729 -5.26379 2.88176 0
M  V30 876 H 87.3429 -3.85169 2.94572 0
M  V30 877 N 88.686 -0.835752 -1.33615 0
M  V30 878 C 89.619 -0.211815 -2.27215 0
M  V30 879 C 90.597 0.639249 -1.49507 0
M  V30 880 O 91.781 0.600193 -1.78689 0
M  V30 881 C 88.908 0.702893 -3.31326 0
M  V30 882 C 87.954 -0.0723049 -4.26439 0
M  V30 883 S 88.787 -1.42811 -5.16106 0
M  V30 884 C 89.943 -0.518613 -6.23748 0
M  V30 885 H 90.176 -1.00533 -2.79786 0
M  V30 886 H 87.709 -0.632336 -1.40858 0
M  V30 887 H 89.667 1.22505 -3.91794 0
M  V30 888 H 88.328 1.47004 -2.77576 0
M  V30 889 H 87.521 0.62359 -5.00127 0
M  V30 890 H 87.123 -0.525424 -3.70291 0
M  V30 891 H 89.415 0.284778 -6.76901 0
M  V30 892 H 90.358 -1.22556 -6.97413 0
M  V30 893 H 90.766 -0.101344 -5.64409 0
M  V30 894 N 90.1641 1.46063 -0.591896 0
M  V30 895 C 91.0941 2.33172 0.123673 0
M  V30 896 C 92.0751 1.45897 0.87453 0
M  V30 897 O 93.2601 1.74698 0.848181 0
M  V30 898 C 90.3901 3.28336 1.13194 0
M  V30 899 C 89.3441 4.25124 0.495324 0
M  V30 900 C 88.6701 5.09863 1.61071 0
M  V30 901 C 89.9701 5.19143 -0.573425 0
M  V30 902 H 91.6641 2.93252 -0.603646 0
M  V30 903 H 89.2101 1.41014 -0.291741 0
M  V30 904 H 91.1631 3.88137 1.64097 0
M  V30 905 H 89.8871 2.66383 1.88965 0
M  V30 906 H 88.5461 3.66599 0.00729452 0
M  V30 907 H 88.1941 4.44288 2.35832 0
M  V30 908 H 87.8941 5.75417 1.19035 0
M  V30 909 H 89.4181 5.72529 2.12233 0
M  V30 910 H 90.8321 5.73106 -0.1491 0
M  V30 911 H 89.2291 5.93089 -0.914636 0
M  V30 912 H 90.2991 4.62519 -1.45617 0
M  V30 913 N 91.6422 0.330177 1.54103 0
M  V30 914 C 92.5892 -0.532762 2.24567 0
M  V30 915 C 93.5592 -1.10635 1.23892 0
M  V30 916 O 94.7442 -1.14546 1.5259 0
M  V30 917 C 91.8842 -1.6845 3.01195 0
M  V30 918 C 90.9972 -1.13951 4.167 0
M  V30 919 C 90.1322 -2.25746 4.80845 0
M  V30 920 C 89.1712 -1.6853 5.88442 0
M  V30 921 N 88.3082 -2.74014 6.46421 0
M  V30 922 H 93.1482 0.0746905 2.97906 0
M  V30 923 H 90.6852 0.048632 1.4702 0
M  V30 924 H 92.6432 -2.36234 3.43874 0
M  V30 925 H 91.2732 -2.26314 2.30178 0
M  V30 926 H 90.3252 -0.35301 3.78758 0
M  V30 927 H 91.6372 -0.680892 4.94131 0
M  V30 928 H 90.7912 -3.01422 5.26526 0
M  V30 929 H 89.5302 -2.74947 4.0281 0
M  V30 930 H 88.5352 -0.913543 5.42157 0
M  V30 931 H 89.7602 -1.20198 6.68378 0
M  V30 932 H 87.7062 -3.22494 5.71256 0
M  V30 933 H 87.6232 -2.32735 7.19285 0
M  V30 934 H 88.8912 -3.49499 6.96757 0
M  V30 935 N 93.1203 -1.57491 0.0584922 0
M  V30 936 C 94.3683 -1.92597 -0.612436 0
M  V30 937 C 94.6893 -0.938162 -1.70949 0
M  V30 938 O 93.9593 0.0158301 -1.95894 0
M  V30 939 H 92.5393 -0.710964 -0.229214 0
M  V30 940 H 95.2013 -1.94571 0.113218 0
M  V30 941 H 94.2973 -2.94038 -1.04633 0
M  V30 942 N 94.5984 0.214957 -1.56127 0
M  V30 943 C 95.5614 1.24997 -1.92116 0
M  V30 944 C 96.5614 1.39467 -0.800344 0
M  V30 945 O 97.7514 1.37619 -1.06802 0
M  V30 946 C 94.8834 2.62271 -2.17777 0
M  V30 947 H 96.0764 0.942875 -2.84693 0
M  V30 948 H 93.6294 0.455654 -1.49511 0
M  V30 949 H 94.3644 2.98068 -1.27773 0
M  V30 950 H 94.1494 2.53143 -2.99434 0
M  V30 951 H 95.6394 3.36946 -2.46693 0
M  V30 952 N 96.0765 1.50051 0.48192 0
M  V30 953 C 97.4875 1.5348 1.06305 0
M  V30 954 C 97.8385 0.331997 1.93371 0
M  V30 955 O 96.9635 -0.556256 2.09129 0
M  V30 956 C 97.5585 2.7813 1.93466 0
M  V30 957 C 96.1175 2.84275 2.46707 0
M  V30 958 C 95.2645 2.47637 1.24785 0
M  V30 959 H 98.2155 1.56472 0.264995 0
M  V30 960 H 98.2365 2.59372 2.78399 0
M  V30 961 H 97.7485 3.65654 1.30072 0
M  V30 962 H 95.8495 2.01077 3.13686 0
M  V30 963 H 95.9625 3.8691 2.82555 0
M  V30 964 H 94.3265 1.99835 1.57918 0
M  V30 965 H 95.1095 3.37457 0.630694 0
M  V30 966 N 97.5546 -0.734337 1.39446 0
M  V30 967 C 98.5176 -1.83004 1.37994 0
M  V30 968 C 99.5176 -1.58397 0.276938 0
M  V30 969 O 100.708 -1.65785 0.534875 0
M  V30 970 C 97.8396 -3.20802 1.1532 0
M  V30 971 H 99.0326 -1.85694 2.35494 0
M  V30 972 H 96.5856 -0.938059 1.25021 0
M  V30 973 H 97.3206 -3.23772 0.185036 0
M  V30 974 H 97.1056 -3.4006 1.95197 0
M  V30 975 H 98.5956 -4.00862 1.17046 0
M  V30 976 N 99.0327 -1.24633 -0.964593 0
M  V30 977 C 99.9627 -1.06611 -2.07741 0
M  V30 978 C 100.944 0.0218666 -1.70086 0
M  V30 979 O 102.129 -0.145793 -1.93652 0
M  V30 980 C 99.2587 -0.673444 -3.40708 0
M  V30 981 C 98.2127 -1.71054 -3.92332 0
M  V30 982 C 97.5387 -1.17285 -5.21678 0
M  V30 983 C 98.8387 -3.10718 -4.19824 0
M  V30 984 H 100.533 -1.99693 -2.23076 0
M  V30 985 H 98.0787 -0.96152 -1.07195 0
M  V30 986 H 100.032 -0.534345 -4.17998 0
M  V30 987 H 98.7557 0.293073 -3.25282 0
M  V30 988 H 97.4147 -1.83791 -3.17201 0
M  V30 989 H 97.0627 -0.196847 -5.02615 0
M  V30 990 H 96.7627 -1.86592 -5.57187 0
M  V30 991 H 98.2867 -1.04593 -6.01575 0
M  V30 992 H 99.7007 -3.01192 -4.87808 0
M  V30 993 H 98.0977 -3.77406 -4.66567 0
M  V30 994 H 99.1677 -3.58524 -3.26479 0
M  V30 995 N 100.511 1.16574 -1.06058 0
M  V30 996 C 101.459 2.22941 -0.663343 0
M  V30 997 C 102.453 1.66358 0.319593 0
M  V30 998 O 103.659 1.7905 0.184713 0
M  V30 999 H 100.034 0.725907 -0.196376 0
M  V30 1000 H 102.005 2.53736 -1.57037 0
M  V30 1001 C 100.754 3.47642 -0.0632808 0
M  V30 1002 H 100.077 3.91493 -0.810733 0
M  V30 1003 H 101.517 4.2363 0.177177 0
M  V30 1004 C 99.9758 3.1509 1.19248 0
M  V30 1005 O 100.506 3.30673 2.28075 0
M  V30 1006 N 98.7118 2.6924 1.09353 0
M  V30 1007 H 98.2588 2.5676 0.207912 0
M  V30 1008 H 98.2168 2.47833 1.93458 0
M  V30 1009 N 101.989 0.842826 1.3317 0
M  V30 1010 C 103.214 0.453129 2.02389 0
M  V30 1011 C 103.639 -0.939105 1.6298 0
M  V30 1012 O 102.997 -1.61472 0.8244 0
M  V30 1013 C 103.045 0.586094 3.55805 0
M  V30 1014 O 102.149 -0.386029 4.10589 0
M  V30 1015 H 101.49 0.183664 0.638094 0
M  V30 1016 H 104.02 1.13875 1.69981 0
M  V30 1017 H 104.03 0.469209 4.05293 0
M  V30 1018 H 102.705 1.6014 3.83833 0
M  V30 1019 H 101.282 -0.226371 3.72212 0
M  V30 1020 N 103.467 -1.45747 0.599634 0
M  V30 1021 C 104.878 -1.85853 0.177681 0
M  V30 1022 C 105.229 -1.50102 -1.26348 0
M  V30 1023 O 104.354 -0.923905 -1.95686 0
M  V30 1024 C 104.949 -3.37326 0.315688 0
M  V30 1025 C 103.508 -3.76365 -0.0515144 0
M  V30 1026 C 102.655 -2.69722 0.643822 0
M  V30 1027 H 105.606 -1.36661 0.806814 0
M  V30 1028 H 105.627 -3.77778 -0.454321 0
M  V30 1029 H 105.139 -3.63315 1.36468 0
M  V30 1030 H 103.24 -3.55993 -1.09999 0
M  V30 1031 H 103.353 -4.77916 0.336594 0
M  V30 1032 H 101.717 -2.54567 0.0822881 0
M  V30 1033 H 102.5 -2.98549 1.6948 0
M  V30 1034 N 104.945 -0.338344 -1.53925 0
M  V30 1035 C 105.893 0.536231 -2.26335 0
M  V30 1036 C 106.887 1.1063 -1.28286 0
M  V30 1037 O 108.093 1.05264 -1.46012 0
M  V30 1038 H 104.468 0.191602 -0.727181 0
M  V30 1039 H 106.439 -0.0965747 -2.98244 0
M  V30 1040 C 105.188 1.67803 -3.04528 0
M  V30 1041 H 104.511 1.24864 -3.79801 0
M  V30 1042 H 105.951 2.26526 -3.58416 0
M  V30 1043 C 104.41 2.60439 -2.13712 0
M  V30 1044 O 104.94 3.6255 -1.72975 0
M  V30 1045 N 103.146 2.29006 -1.78898 0
M  V30 1046 H 102.693 1.46011 -2.12223 0
M  V30 1047 H 102.651 2.91248 -1.18416 0
M  V30 1048 N 106.423 1.57458 -0.0668435 0
M  V30 1049 C 107.669 1.93587 0.6043 0
M  V30 1050 C 108.002 0.946722 1.69561 0
M  V30 1051 O 107.277 -0.0248516 1.94484 0
M  V30 1052 C 107.56 3.40014 1.18585 0
M  V30 1053 C 107.413 4.49685 0.101529 0
M  V30 1054 C 108.732 3.87154 2.09284 0
M  V30 1055 H 105.851 0.703958 0.218202 0
M  V30 1056 H 108.493 1.89542 -0.131804 0
M  V30 1057 H 106.643 3.43592 1.81319 0
M  V30 1058 H 108.315 4.5823 -0.531279 0
M  V30 1059 H 106.558 4.30059 -0.568487 0
M  V30 1060 H 107.229 5.49266 0.54874 0
M  V30 1061 H 109.705 3.85551 1.56491 0
M  V30 1062 H 108.581 4.90231 2.46911 0
M  V30 1063 H 108.842 3.2481 2.99918 0
M  V30 1064 N 107.901 -0.206675 1.56239 0
M  V30 1065 C 108.811 -1.27686 1.96808 0
M  V30 1066 C 109.827 -1.50455 0.874035 0
M  V30 1067 O 111.003 -1.63295 1.17884 0
M  V30 1068 C 108.068 -2.60358 2.28942 0
M  V30 1069 C 107.129 -2.45762 3.51994 0
M  V30 1070 C 106.362 -3.72108 3.82585 0
M  V30 1071 O 106.585 -4.75776 3.14631 0
M  V30 1072 O 105.519 -3.6833 4.76043 0
M  V30 1073 H 109.345 -0.962593 2.88041 0
M  V30 1074 H 106.93 -0.410746 1.43643 0
M  V30 1075 H 108.812 -3.38687 2.50737 0
M  V30 1076 H 107.487 -2.91435 1.4088 0
M  V30 1077 H 106.394 -1.65584 3.35459 0
M  V30 1078 H 107.727 -2.19621 4.40486 0
M  V30 1079 N 109.379 -1.50304 -0.473955 0
M  V30 1080 C 110.342 -1.6841 -1.55469 0
M  V30 1081 C 111.342 -0.554905 -1.50922 0
M  V30 1082 O 112.532 -0.821882 -1.53593 0
M  V30 1083 C 109.664 -1.70667 -2.95102 0
M  V30 1084 H 110.857 -2.64828 -1.40733 0
M  V30 1085 H 108.41 -1.39742 -0.700132 0
M  V30 1086 H 109.145 -0.75932 -3.15285 0
M  V30 1087 H 108.93 -2.52698 -2.9981 0
M  V30 1088 H 110.42 -1.8664 -3.73571 0
M  V30 1089 N 110.857 0.726932 -1.39834 0
M  V30 1090 C 112.097 1.4992 -1.38936 0
M  V30 1091 C 112.461 1.91996 0.0126883 0
M  V30 1092 O 113.662 2.68399 0.146715 0
M  V30 1093 C 111.933 2.70013 -2.34153 0
M  V30 1094 S 113.492 3.59563 -2.51515 0
M  V30 1095 H 110.31 0.51271 -0.492595 0
M  V30 1096 H 112.912 0.85107 -1.76003 0
M  V30 1097 H 111.616 2.37254 -3.34871 0
M  V30 1098 H 111.147 3.39748 -1.98331 0
M  V30 1099 H 113.162 4.63973 -1.75909 0
M  V30 1100 N 112.336 1.25143 0.95797 0
M  V30 1101 C 113.584 1.09476 1.69881 0
M  V30 1102 C 113.905 -0.365502 1.91544 0
M  V30 1103 O 113.175 -1.25985 1.50015 0
M  V30 1104 H 111.755 0.402128 0.629525 0
M  V30 1105 H 114.417 1.57214 1.15194 0
M  V30 1106 H 113.513 1.60046 2.6794 0
M  V30 1107 N 113.814 -1.1601 1.06675 0
M  V30 1108 C 115.044 -1.90251 0.805497 0
M  V30 1109 C 115.452 -1.77891 -0.64431 0
M  V30 1110 O 114.795 -1.12383 -1.45313 0
M  V30 1111 C 114.857 -3.41419 1.12576 0
M  V30 1112 C 114.521 -3.77564 2.57477 0
M  V30 1113 C 115.518 -3.79161 3.55715 0
M  V30 1114 C 113.203 -4.08079 2.92877 0
M  V30 1115 C 115.197 -4.10767 4.8739 0
M  V30 1116 C 112.884 -4.39351 4.24751 0
M  V30 1117 C 113.882 -4.40675 5.21818 0
M  V30 1118 O 113.57 -4.71202 6.51325 0
M  V30 1119 H 113.302 -0.610018 0.291297 0
M  V30 1120 H 115.856 -1.47958 1.4247 0
M  V30 1121 H 114.086 -3.84079 0.449503 0
M  V30 1122 H 115.775 -3.9694 0.84814 0
M  V30 1123 H 116.541 -3.55693 3.29708 0
M  V30 1124 H 112.42 -4.06211 2.17976 0
M  V30 1125 H 115.964 -4.11715 5.63148 0
M  V30 1126 H 111.861 -4.62285 4.50514 0
M  V30 1127 H 112.629 -4.88996 6.56373 0
M  V30 1128 N 115.292 -0.849877 -1.32721 0
M  V30 1129 C 116.517 -0.463856 -2.02146 0
M  V30 1130 C 116.942 0.930449 -1.63476 0
M  V30 1131 O 116.3 1.61033 -0.832952 0
M  V30 1132 C 116.348 -0.604955 -3.55489 0
M  V30 1133 O 115.452 0.36425 -4.10788 0
M  V30 1134 H 114.793 -0.187046 -0.637111 0
M  V30 1135 H 117.323 -1.14775 -1.69375 0
M  V30 1136 H 117.333 -0.490696 -4.05038 0
M  V30 1137 H 116.008 -1.62174 -3.82978 0
M  V30 1138 H 114.585 0.206628 -3.72327 0
M  V30 1139 N 116.77 1.45427 -0.607355 0
M  V30 1140 C 118.047 1.9557 -0.0344566 0
M  V30 1141 C 118.427 1.54979 1.43334 0
M  V30 1142 O 117.775 0.812241 2.13576 0
M  V30 1143 C 117.985 3.48226 -0.232321 0
M  V30 1144 C 119.333 4.2445 -0.113001 0
M  V30 1145 O 120.357 3.55829 -0.162431 0
M  V30 1146 O 119.216 5.465 0.00209442 0
M  V30 1147 H 116.31 0.826222 0.0358667 0
M  V30 1148 H 118.856 1.55594 -0.6774 0
M  V30 1149 H 117.628 3.70739 -1.25174 0
M  V30 1150 H 117.251 3.95092 0.445896 0
M  V30 1151 N 118.248 0.346503 1.53744 0
M  V30 1152 C 119.664 -0.00530975 1.59599 0
M  V30 1153 C 119.864 -1.48465 1.36236 0
M  V30 1154 O 118.92 -2.24376 1.15808 0
M  V30 1155 C 120.233 0.433516 2.97559 0
M  V30 1156 C 121.781 0.386111 3.10609 0
M  V30 1157 C 122.256 0.800451 4.50951 0
M  V30 1158 N 123.747 0.754753 4.5701 0
M  V30 1159 C 124.482 1.04727 5.63755 0
M  V30 1160 N 123.978 1.4081 6.7834 0
M  V30 1161 N 125.771 0.971316 5.53644 0
M  V30 1162 H 117.922 1.31009 1.67184 0
M  V30 1163 H 120.185 0.534242 0.783128 0
M  V30 1164 H 119.891 1.46509 3.19731 0
M  V30 1165 H 119.765 -0.189753 3.76722 0
M  V30 1166 H 122.152 -0.636295 2.88158 0
M  V30 1167 H 122.233 1.04462 2.33498 0
M  V30 1168 H 121.877 1.82088 4.74137 0
M  V30 1169 H 121.807 0.119386 5.26465 0
M  V30 1170 H 124.298 0.488662 3.74727 0
M  V30 1171 H 124.611 1.61607 7.55714 0
M  V30 1172 H 122.956 1.44657 6.79779 0
M  V30 1173 H 126.147 0.688748 4.63005 0
M  V30 1174 H 126.32 1.20263 6.36742 0
M  V30 1175 N 119.726 -1.57421 0.075193 0
M  V30 1176 C 120.972 -1.93905 -0.594025 0
M  V30 1177 C 121.305 -0.955701 -1.69056 0
M  V30 1178 O 120.58 0.0145373 -1.94495 0
M  V30 1179 C 120.863 -3.40638 -1.1678 0
M  V30 1180 C 120.716 -4.49733 -0.0776792 0
M  V30 1181 C 122.035 -3.88259 -2.07228 0
M  V30 1182 H 119.154 -0.705105 -0.214466 0
M  V30 1183 H 121.796 -1.8947 0.141854 0
M  V30 1184 H 119.946 -3.44549 -1.79494 0
M  V30 1185 H 121.618 -4.57942 0.555573 0
M  V30 1186 H 119.861 -4.29751 0.591286 0
M  V30 1187 H 120.532 -5.49549 -0.519603 0
M  V30 1188 H 123.008 -3.86376 -1.54445 0
M  V30 1189 H 121.884 -4.91533 -2.44308 0
M  V30 1190 H 122.145 -3.26396 -2.98191 0
M  V30 1191 N 121.204 0.198386 -1.56346 0
M  V30 1192 C 122.136 1.26987 -1.90806 0
M  V30 1193 C 123.149 1.41877 -0.798419 0
M  V30 1194 O 124.338 1.42362 -1.07682 0
M  V30 1195 C 121.438 2.64246 -2.12196 0
M  V30 1196 C 120.611 2.71007 -3.43328 0
M  V30 1197 C 119.67 3.89439 -3.5387 0
M  V30 1198 O 118.696 3.76695 -4.26719 0
M  V30 1199 N 119.898 5.04752 -2.86715 0
M  V30 1200 H 122.663 0.977433 -2.83313 0
M  V30 1201 H 120.224 0.388322 -1.57174 0
M  V30 1202 H 122.216 3.41896 -2.1654 0
M  V30 1203 H 120.786 2.85992 -1.26204 0
M  V30 1204 H 120.006 1.79657 -3.50881 0
M  V30 1205 H 121.294 2.72512 -4.29668 0
M  V30 1206 H 120.692 5.18004 -2.2735 0
M  V30 1207 H 119.249 5.8036 -2.96691 0
M  V30 1208 N 122.682 1.50554 0.465978 0
M  V30 1209 C 123.614 1.65949 1.58093 0
M  V30 1210 C 124.627 0.540827 1.53554 0
M  V30 1211 O 125.816 0.814187 1.5885 0
M  V30 1212 C 122.916 1.63261 2.96983 0
M  V30 1213 C 122.089 2.91245 3.26336 0
M  V30 1214 C 121.148 2.8113 4.44806 0
M  V30 1215 O 120.174 3.55086 4.44862 0
M  V30 1216 N 121.376 1.95032 5.46756 0
M  V30 1217 H 124.141 2.62122 1.45301 0
M  V30 1218 H 121.702 1.48082 0.65448 0
M  V30 1219 H 123.694 1.54101 3.74212 0
M  V30 1220 H 122.264 0.748032 3.03518 0
M  V30 1221 H 121.484 3.14493 2.37672 0
M  V30 1222 H 122.772 3.76022 3.42761 0
M  V30 1223 H 122.17 1.3427 5.49534 0
M  V30 1224 H 120.727 1.91772 6.2295 0
M  V30 1225 N 124.16 -0.719506 1.40217 0
M  V30 1226 C 125.409 -1.47486 1.37589 0
M  V30 1227 C 125.722 -1.9559 -0.0201568 0
M  V30 1228 O 126.928 -2.70973 -0.169049 0
M  V30 1229 C 125.384 -2.66575 2.41796 0
M  V30 1230 C 124.992 -2.25358 3.87192 0
M  V30 1231 C 126.736 -3.4433 2.48269 0
M  V30 1232 C 124.643 -3.41262 4.83005 0
M  V30 1233 H 123.573 -0.553901 0.511576 0
M  V30 1234 H 126.224 -0.783427 1.65936 0
M  V30 1235 H 124.606 -3.3787 2.06543 0
M  V30 1236 H 125.78 -1.61509 4.31569 0
M  V30 1237 H 124.095 -1.60657 3.84159 0
M  V30 1238 H 126.692 -4.30569 3.17041 0
M  V30 1239 H 127.035 -3.87872 1.51198 0
M  V30 1240 H 127.568 -2.80076 2.82493 0
M  V30 1241 H 124.307 -3.02755 5.81394 0
M  V30 1242 H 123.827 -4.0404 4.43297 0
M  V30 1243 H 125.506 -4.07383 5.02641 0
M  V30 1244 N 125.638 -1.25649 -0.95132 0
M  V30 1245 C 126.866 -1.13343 -1.73092 0
M  V30 1246 C 127.281 0.312434 -1.86197 0
M  V30 1247 O 126.638 1.21465 -1.36207 0
M  V30 1248 C 126.689 -1.78602 -3.14299 0
M  V30 1249 O 126.41 -3.17537 -3.01831 0
M  V30 1250 C 127.911 -1.72119 -4.08522 0
M  V30 1251 H 125.131 -0.395181 -0.542285 0
M  V30 1252 H 127.675 -1.66076 -1.19328 0
M  V30 1253 H 125.83 -1.29832 -3.64996 0
M  V30 1254 H 126.244 -3.49676 -3.90931 0
M  V30 1255 H 127.718 -2.22435 -5.052 0
M  V30 1256 H 128.195 -0.685635 -4.33815 0
M  V30 1257 H 128.801 -2.20393 -3.63741 0
M  V30 1258 N 127.117 1.15442 -1.07289 0
M  V30 1259 C 128.047 2.22312 -0.714107 0
M  V30 1260 C 129.028 1.67467 0.298155 0
M  V30 1261 O 130.213 1.93445 0.171048 0
M  V30 1262 C 127.343 3.47124 -0.110448 0
M  V30 1263 C 126.297 4.14926 -1.04979 0
M  V30 1264 C 125.623 5.33807 -0.308924 0
M  V30 1265 C 126.923 4.64762 -2.38314 0
M  V30 1266 H 128.617 2.5258 -1.6076 0
M  V30 1267 H 126.163 1.21404 -0.77441 0
M  V30 1268 H 128.116 4.21124 0.152482 0
M  V30 1269 H 126.84 3.16187 0.81812 0
M  V30 1270 H 125.499 3.42866 -1.29764 0
M  V30 1271 H 125.147 4.99126 0.623084 0
M  V30 1272 H 124.847 5.80113 -0.935036 0
M  V30 1273 H 126.371 6.10576 -0.0537771 0
M  V30 1274 H 127.785 5.30292 -2.1786 0
M  V30 1275 H 126.182 5.21728 -2.96514 0
M  V30 1276 H 127.252 3.80434 -3.00663 0
M  V30 1277 N 128.595 0.856903 1.32268 0
M  V30 1278 C 129.843 0.460474 1.96784 0
M  V30 1279 C 130.164 -0.987701 1.68135 0
M  V30 1280 O 129.434 -1.69058 0.989765 0
M  V30 1281 H 128.014 0.167289 0.728027 0
M  V30 1282 H 130.676 1.09383 1.61312 0
M  V30 1283 H 129.772 0.60739 3.06133 0
M  V30 1284 N 130.073 -1.45103 0.615059 0
M  V30 1285 C 131.021 -2.32331 -0.111791 0
M  V30 1286 C 132.015 -1.46409 -0.852102 0
M  V30 1287 O 133.221 -1.62849 -0.766821 0
M  V30 1288 H 129.596 -0.749993 -0.0549072 0
M  V30 1289 H 131.567 -2.91407 0.642225 0
M  V30 1290 C 130.316 -3.3015 -1.09071 0
M  V30 1291 H 129.639 -3.96265 -0.530485 0
M  V30 1292 H 131.079 -3.93898 -1.56908 0
M  V30 1293 C 129.538 -2.57875 -2.168 0
M  V30 1294 O 130.068 -2.36567 -3.24652 0
M  V30 1295 N 128.274 -2.17884 -1.92289 0
M  V30 1296 H 127.821 -2.35413 -1.04587 0
M  V30 1297 H 127.779 -1.6985 -2.64572 0
M  V30 1298 N 131.551 -0.354651 -1.53558 0
M  V30 1299 C 132.776 0.242153 -2.05981 0
M  V30 1300 C 133.201 1.42553 -1.2272 0
M  V30 1301 O 132.559 1.79656 -0.243604 0
M  V30 1302 C 132.607 0.624367 -3.55154 0
M  V30 1303 O 131.711 1.72301 -3.74681 0
M  V30 1304 H 131.052 0.0378432 -0.662921 0
M  V30 1305 H 133.582 -0.512087 -1.98088 0
M  V30 1306 H 133.592 0.898433 -3.97985 0
M  V30 1307 H 132.267 -0.240989 -4.15201 0
M  V30 1308 H 130.844 1.44535 -3.4375 0
M  V30 1309 N 133.029 1.57378 -0.0835403 0
M  V30 1310 C 134.257 1.98263 0.59157 0
M  V30 1311 C 134.672 0.962302 1.62435 0
M  V30 1312 O 134.029 -0.049581 1.82433 0
M  V30 1313 C 134.08 3.39214 1.24965 0
M  V30 1314 O 133.801 4.37339 0.258186 0
M  V30 1315 C 135.302 3.95038 2.01147 0
M  V30 1316 H 132.522 0.651773 0.159477 0
M  V30 1317 H 135.066 2.03878 -0.159415 0
M  V30 1318 H 133.221 3.34649 1.95164 0
M  V30 1319 H 133.635 5.19371 0.731734 0
M  V30 1320 H 135.109 4.95848 2.42567 0
M  V30 1321 H 135.586 3.32222 2.87272 0
M  V30 1322 H 136.192 4.0304 1.35789 0
M  V30 1323 N 134.507 -0.190092 1.56449 0
M  V30 1324 C 135.756 -0.907912 1.80111 0
M  V30 1325 C 136.069 -1.84214 0.657619 0
M  V30 1326 O 137.275 -2.60094 0.778663 0
M  V30 1327 C 135.731 -1.66485 3.19078 0
M  V30 1328 C 135.339 -0.7752 4.41242 0
M  V30 1329 C 137.083 -2.37201 3.52045 0
M  V30 1330 C 134.99 -1.53129 5.71231 0
M  V30 1331 H 133.92 -0.34276 0.671589 0
M  V30 1332 H 136.571 -0.161109 1.82791 0
M  V30 1333 H 134.953 -2.45572 3.10661 0
M  V30 1334 H 136.127 -0.0226298 4.60794 0
M  V30 1335 H 134.442 -0.178627 4.16017 0
M  V30 1336 H 137.039 -2.94329 4.46402 0
M  V30 1337 H 137.382 -3.11632 2.76028 0
M  V30 1338 H 137.915 -1.65075 3.61932 0
M  V30 1339 H 134.654 -0.82967 6.50228 0
M  V30 1340 H 134.174 -2.25767 5.55688 0
M  V30 1341 H 135.853 -2.08377 6.12526 0
M  V30 1342 N 135.985 -1.50799 -0.457987 0
M  V30 1343 C 137.213 -1.66218 -1.23203 0
M  V30 1344 C 137.628 -0.350894 -1.85511 0
M  V30 1345 O 136.985 0.668546 -1.69814 0
M  V30 1346 C 137.036 -2.76291 -2.33121 0
M  V30 1347 O 136.757 -4.02338 -1.73366 0
M  V30 1348 C 138.258 -3.028 -3.2377 0
M  V30 1349 H 135.478 -0.558361 -0.372121 0
M  V30 1350 H 138.022 -1.97099 -0.545179 0
M  V30 1351 H 136.177 -2.48068 -2.97558 0
M  V30 1352 H 136.591 -4.63312 -2.4585 0
M  V30 1353 H 138.065 -3.8345 -3.97077 0
M  V30 1354 H 138.542 -2.14385 -3.83322 0
M  V30 1355 H 139.148 -3.32604 -2.65056 0
M  V30 1356 N 137.463 0.71206 -1.40597 0
M  V30 1357 C 138.691 1.50111 -1.42388 0
M  V30 1358 C 139.106 1.88784 -0.0245395 0
M  V30 1359 O 138.463 1.55681 0.952351 0
M  V30 1360 C 138.514 2.7742 -2.31776 0
M  V30 1361 O 138.235 2.40382 -3.66262 0
M  V30 1362 C 139.736 3.7129 -2.42196 0
M  V30 1363 H 136.956 0.46314 -0.485533 0
M  V30 1364 H 139.5 0.878068 -1.8469 0
M  V30 1365 H 137.655 3.36001 -1.92827 0
M  V30 1366 H 138.069 3.22324 -4.13772 0
M  V30 1367 H 139.543 4.57448 -3.08943 0
M  V30 1368 H 140.02 4.14641 -1.44809 0
M  V30 1369 H 140.626 3.18619 -2.81712 0
M  V30 1370 N 138.941 1.26152 0.944643 0
M  V30 1371 C 139.873 1.03199 2.04652 0
M  V30 1372 C 140.886 -0.00642356 1.62799 0
M  V30 1373 O 142.075 0.233263 1.76969 0
M  V30 1374 C 139.175 0.540111 3.34568 0
M  V30 1375 C 138.348 1.64697 4.05208 0
M  V30 1376 C 137.407 1.15374 5.13396 0
M  V30 1377 O 136.433 1.85013 5.38293 0
M  V30 1378 N 137.635 0.00031529 5.805 0
M  V30 1379 H 140.4 1.9808 2.2491 0
M  V30 1380 H 137.961 1.17491 1.11389 0
M  V30 1381 H 139.953 0.194401 4.04233 0
M  V30 1382 H 138.523 -0.315021 3.11009 0
M  V30 1383 H 137.743 2.16379 3.29506 0
M  V30 1384 H 139.031 2.3903 4.49157 0
M  V30 1385 H 138.429 -0.581336 5.62705 0
M  V30 1386 H 136.986 -0.286346 6.51171 0
M  V30 1387 N 140.419 -1.14872 1.07899 0
M  V30 1388 C 141.329 -2.2341 0.715915 0
M  V30 1389 C 142.345 -1.71808 -0.275306 0
M  V30 1390 O 143.521 -2.01039 -0.120545 0
M  V30 1391 C 140.586 -3.46474 0.125168 0
M  V30 1392 C 139.647 -4.13039 1.17034 0
M  V30 1393 C 138.88 -5.30229 0.607688 0
M  V30 1394 O 139.103 -5.675 -0.574497 0
M  V30 1395 O 138.037 -5.86444 1.35526 0
M  V30 1396 H 141.863 -2.56808 1.62121 0
M  V30 1397 H 139.448 -1.22702 0.852322 0
M  V30 1398 H 141.33 -4.20917 -0.201729 0
M  V30 1399 H 140.005 -3.14811 -0.753364 0
M  V30 1400 H 138.912 -3.40493 1.54968 0
M  V30 1401 H 140.245 -4.48796 2.02097 0
M  V30 1402 N 141.898 -0.863906 -1.31812 0
M  V30 1403 C 142.861 -0.320212 -2.26952 0
M  V30 1404 C 143.861 0.525369 -1.51975 0
M  V30 1405 O 145.051 0.335547 -1.70938 0
M  V30 1406 C 142.183 0.545919 -3.365 0
M  V30 1407 H 143.376 -1.16004 -2.76556 0
M  V30 1408 H 140.929 -0.638995 -1.42641 0
M  V30 1409 H 141.664 1.40718 -2.92179 0
M  V30 1410 H 141.449 -0.0594674 -3.92055 0
M  V30 1411 H 142.939 0.918796 -4.07367 0
M  V30 1412 N 143.376 1.44774 -0.622745 0
M  V30 1413 C 144.339 2.29069 0.0774015 0
M  V30 1414 C 145.339 1.4059 0.780461 0
M  V30 1415 O 146.529 1.62551 0.626322 0
M  V30 1416 C 143.661 3.21974 1.12006 0
M  V30 1417 H 144.854 2.92459 -0.663901 0
M  V30 1418 H 142.407 1.51548 -0.382486 0
M  V30 1419 H 143.142 2.63417 1.89162 0
M  V30 1420 H 142.927 3.87168 0.619951 0
M  V30 1421 H 144.417 3.85318 1.60995 0
M  V30 1422 N 144.854 0.36279 1.53368 0
M  V30 1423 C 145.802 -0.500155 2.27159 0
M  V30 1424 C 146.796 -1.08575 1.3003 0
M  V30 1425 O 148.002 -1.02927 1.47668 0
M  V30 1426 H 144.377 -0.180009 0.730138 0
M  V30 1427 H 146.348 0.14401 2.98052 0
M  V30 1428 C 145.097 -1.62937 3.07159 0
M  V30 1429 H 144.42 -1.18806 3.8174 0
M  V30 1430 H 145.86 -2.20795 3.61975 0
M  V30 1431 C 144.319 -2.57007 2.17829 0
M  V30 1432 O 144.849 -3.59752 1.78721 0
M  V30 1433 N 143.055 -2.26131 1.82518 0
M  V30 1434 H 142.602 -1.42616 2.14519 0
M  V30 1435 H 142.56 -2.89327 1.23034 0
M  V30 1436 N 146.332 -1.57332 0.0918853 0
M  V30 1437 C 147.295 -2.12708 -0.85369 0
M  V30 1438 C 148.295 -1.05561 -1.213 0
M  V30 1439 O 149.485 -1.31461 -1.14296 0
M  V30 1440 C 146.617 -2.64503 -2.15061 0
M  V30 1441 H 147.81 -2.97573 -0.3729 0
M  V30 1442 H 145.363 -1.55509 -0.157072 0
M  V30 1443 H 146.098 -1.83149 -2.67632 0
M  V30 1444 H 145.883 -3.4284 -1.90272 0
M  V30 1445 H 147.373 -3.07351 -2.82711 0
M  V30 1446 N 147.81 0.181792 -1.56548 0
M  V30 1447 C 149.056 0.901431 -1.81665 0
M  V30 1448 C 149.389 1.82347 -0.668075 0
M  V30 1449 O 148.664 1.91669 0.330615 0
M  V30 1450 C 148.947 1.70618 -3.17115 0
M  V30 1451 C 148.8 0.807964 -4.42484 0
M  V30 1452 C 150.119 2.67605 -3.49393 0
M  V30 1453 H 147.238 0.32627 -0.660846 0
M  V30 1454 H 149.88 0.168134 -1.89255 0
M  V30 1455 H 148.03 2.33133 -3.10775 0
M  V30 1456 H 149.702 0.19649 -4.60881 0
M  V30 1457 H 147.945 0.115411 -4.33646 0
M  V30 1458 H 148.616 1.40632 -5.33785 0
M  V30 1459 H 151.092 2.15218 -3.56118 0
M  V30 1460 H 149.968 3.20985 -4.45264 0
M  V30 1461 H 150.229 3.47298 -2.73563 0
M  V30 1462 N 149.288 1.51039 0.449983 0
M  V30 1463 C 150.534 1.63322 1.20223 0
M  V30 1464 C 150.867 0.34241 1.91158 0
M  V30 1465 O 150.142 -0.657344 1.83055 0
M  V30 1466 C 150.425 2.82801 2.22925 0
M  V30 1467 C 150.278 4.21823 1.56157 0
M  V30 1468 C 151.597 2.97807 3.24035 0
M  V30 1469 H 148.716 0.594407 0.435718 0
M  V30 1470 H 151.358 1.83489 0.493136 0
M  V30 1471 H 149.508 2.65738 2.834 0
M  V30 1472 H 151.18 4.50526 0.991162 0
M  V30 1473 H 149.423 4.25105 0.864172 0
M  V30 1474 H 150.094 5.01391 2.30891 0
M  V30 1475 H 152.57 3.13497 2.73603 0
M  V30 1476 H 151.446 3.82992 3.93202 0
M  V30 1477 H 151.707 2.09328 3.89402 0
M  V30 1478 N 150.766 -0.704594 1.40972 0
M  V30 1479 C 152.006 -1.47691 1.41304 0
M  V30 1480 C 152.37 -1.91992 0.0178582 0
M  V30 1481 O 153.571 -2.68599 -0.103996 0
M  V30 1482 C 151.842 -2.66254 2.38419 0
M  V30 1483 S 153.401 -3.55516 2.57204 0
M  V30 1484 H 150.219 -0.504808 0.500689 0
M  V30 1485 H 152.821 -0.822962 1.77335 0
M  V30 1486 H 151.525 -2.31897 3.38603 0
M  V30 1487 H 151.056 -3.3655 2.03711 0
M  V30 1488 H 153.071 -4.61115 1.83268 0
M  V30 1489 N 152.244 -1.26651 -0.937939 0
M  V30 1490 C 153.474 -1.15006 -1.71631 0
M  V30 1491 C 153.882 0.297026 -1.86854 0
M  V30 1492 O 153.225 1.21493 -1.37786 0
M  V30 1493 C 153.287 -1.74984 -3.14039 0
M  V30 1494 C 152.951 -3.24103 -3.2219 0
M  V30 1495 C 153.948 -4.20877 -3.05219 0
M  V30 1496 C 151.633 -3.64625 -3.45476 0
M  V30 1497 C 153.627 -5.56151 -3.11408 0
M  V30 1498 C 151.314 -5.00032 -3.513 0
M  V30 1499 C 152.312 -5.95604 -3.34282 0
M  V30 1500 O 152 -7.28545 -3.3982 0
M  V30 1501 H 151.732 -0.401183 -0.544085 0
M  V30 1502 H 154.286 -1.67832 -1.18413 0
M  V30 1503 H 152.516 -1.16624 -3.68695 0
M  V30 1504 H 154.205 -1.58199 -3.73802 0
M  V30 1505 H 154.971 -3.90908 -2.87081 0
M  V30 1506 H 150.85 -2.90718 -3.57777 0
M  V30 1507 H 154.394 -6.30727 -2.98043 0
M  V30 1508 H 150.291 -5.29659 -3.68959 0
M  V30 1509 H 151.059 -7.3686 -3.56343 0
M  V30 1510 N 153.722 1.14298 -1.08507 0
M  V30 1511 C 154.685 2.17607 -0.719711 0
M  V30 1512 C 155.685 1.58907 0.245997 0
M  V30 1513 O 156.875 1.74181 0.0254081 0
M  V30 1514 C 154.007 3.40842 -0.0627695 0
M  V30 1515 H 155.2 2.51443 -1.63452 0
M  V30 1516 H 152.753 1.28963 -0.88307 0
M  V30 1517 H 153.488 3.12587 0.863716 0
M  V30 1518 H 153.273 3.84713 -0.757504 0
M  V30 1519 H 154.763 4.17221 0.177786 0
M  V30 1520 N 155.201 0.870884 1.31352 0
M  V30 1521 C 156.111 0.330783 2.32256 0
M  V30 1522 C 157.127 -0.559767 1.6475 0
M  V30 1523 O 158.303 -0.456263 1.96164 0
M  V30 1524 C 155.368 -0.458137 3.4366 0
M  V30 1525 C 154.429 0.460482 4.26823 0
M  V30 1526 C 153.662 -0.290881 5.32907 0
M  V30 1527 O 153.885 -1.51885 5.49806 0
M  V30 1528 O 152.819 0.351732 6.00871 0
M  V30 1529 H 156.645 1.16718 2.80376 0
M  V30 1530 H 154.23 0.634285 1.35267 0
M  V30 1531 H 156.112 -0.905343 4.1156 0
M  V30 1532 H 154.787 -1.27106 2.97701 0
M  V30 1533 H 153.694 0.956207 3.61673 0
M  V30 1534 H 155.027 1.23903 4.7635 0
M  V30 1535 N 156.679 -1.44442 0.630414 0
M  V30 1536 C 157.925 -2.02894 0.143332 0
M  V30 1537 C 158.28 -1.48697 -1.22094 0
M  V30 1538 O 157.573 -0.661171 -1.79831 0
M  V30 1539 C 157.767 -3.57332 0.0697835 0
M  V30 1540 C 157.596 -4.26512 1.42539 0
M  V30 1541 C 156.366 -4.63516 2.01198 0
M  V30 1542 C 158.564 -4.57004 2.35907 0
M  V30 1543 N 156.546 -5.17661 3.30001 0
M  V30 1544 C 157.917 -5.12223 3.49324 0
M  V30 1545 C 159.972 -4.38955 2.34995 0
M  V30 1546 C 158.675 -5.51295 4.62024 0
M  V30 1547 C 160.701 -4.79075 3.46758 0
M  V30 1548 C 160.063 -5.34407 4.58899 0
M  V30 1549 H 156.162 -0.776041 0.0963523 0
M  V30 1550 H 158.746 -1.75945 0.833752 0
M  V30 1551 H 156.917 -3.83894 -0.589915 0
M  V30 1552 H 158.649 -4.02451 -0.42606 0
M  V30 1553 H 155.404 -4.47811 1.54151 0
M  V30 1554 H 155.828 -5.4921 3.95851 0
M  V30 1555 H 160.47 -3.95469 1.49545 0
M  V30 1556 H 158.188 -5.93736 5.48182 0
M  V30 1557 H 161.774 -4.66824 3.47227 0
M  V30 1558 H 160.654 -5.64878 5.4395 0
M  V30 1559 N 158.157 -0.370918 -1.53173 0
M  V30 1560 C 159.568 0.107139 -1.86392 0
M  V30 1561 C 159.919 1.47714 -1.29132 0
M  V30 1562 O 159.044 2.07464 -0.615439 0
M  V30 1563 C 159.639 0.201187 -3.38202 0
M  V30 1564 C 158.198 0.623507 -3.712 0
M  V30 1565 C 157.345 -0.225978 -2.76378 0
M  V30 1566 H 160.296 -0.58951 -1.47345 0
M  V30 1567 H 160.317 1.02377 -3.66468 0
M  V30 1568 H 159.829 -0.796058 -3.79848 0
M  V30 1569 H 157.93 1.62879 -3.35114 0
M  V30 1570 H 158.043 0.394414 -4.77474 0
M  V30 1571 H 156.407 0.305962 -2.52856 0
M  V30 1572 H 157.19 -1.22086 -3.20858 0
M  V30 1573 N 159.635 1.57281 -0.100228 0
M  V30 1574 C 160.545 2.17833 0.870965 0
M  V30 1575 C 161.561 1.14921 1.30649 0
M  V30 1576 O 162.737 1.47313 1.37335 0
M  V30 1577 C 159.802 2.75085 2.1102 0
M  V30 1578 C 158.863 3.9297 1.72838 0
M  V30 1579 C 158.096 4.47482 2.90854 0
M  V30 1580 O 158.319 4.00922 4.05731 0
M  V30 1581 O 157.253 5.38433 2.69023 0
M  V30 1582 H 161.079 3.0124 0.38575 0
M  V30 1583 H 158.664 1.48881 0.124397 0
M  V30 1584 H 160.546 3.11656 2.83634 0
M  V30 1585 H 159.221 1.94721 2.58584 0
M  V30 1586 H 158.128 3.61201 0.973883 0
M  V30 1587 H 159.461 4.74713 1.30033 0
M  V30 1588 N 161.113 -0.173488 1.56642 0
M  V30 1589 C 162.343 -0.904781 1.85734 0
M  V30 1590 C 162.751 -1.76431 0.68328 0
M  V30 1591 O 162.094 -1.802 -0.356865 0
M  V30 1592 C 162.156 -1.83382 3.09211 0
M  V30 1593 C 161.82 -1.15411 4.42187 0
M  V30 1594 C 162.817 -0.520609 5.17287 0
M  V30 1595 C 160.502 -1.15151 4.88923 0
M  V30 1596 C 162.496 0.106412 6.37311 0
M  V30 1597 C 160.183 -0.520664 6.08878 0
M  V30 1598 C 161.181 0.107196 6.82916 0
M  V30 1599 O 160.869 0.728102 8.00596 0
M  V30 1600 H 160.601 -0.268408 0.62043 0
M  V30 1601 H 163.155 -0.179096 2.04618 0
M  V30 1602 H 161.385 -2.59976 2.86268 0
M  V30 1603 H 163.074 -2.43476 3.24768 0
M  V30 1604 H 163.84 -0.514606 4.82262 0
M  V30 1605 H 159.719 -1.62961 4.31236 0
M  V30 1606 H 163.263 0.597081 6.9504 0
M  V30 1607 H 159.16 -0.524242 6.43368 0
M  V30 1608 H 159.928 0.627138 8.16094 0
M  V30 1609 N 162.591 -1.51276 -0.441967 0
M  V30 1610 C 163.521 -1.752 -1.54361 0
M  V30 1611 C 164.502 -0.601682 -1.59103 0
M  V30 1612 O 165.687 -0.843913 -1.74905 0
M  V30 1613 C 162.817 -1.87282 -2.92477 0
M  V30 1614 C 161.771 -3.02687 -3.02596 0
M  V30 1615 C 161.097 -2.99947 -4.42647 0
M  V30 1616 C 162.397 -4.4273 -2.77106 0
M  V30 1617 H 164.091 -2.67442 -1.34592 0
M  V30 1618 H 161.637 -1.28694 -0.646048 0
M  V30 1619 H 163.59 -2.02602 -3.695 0
M  V30 1620 H 162.314 -0.916844 -3.13467 0
M  V30 1621 H 160.973 -2.87065 -2.28012 0
M  V30 1622 H 160.621 -2.02136 -4.60597 0
M  V30 1623 H 160.321 -3.77439 -4.50348 0
M  V30 1624 H 161.845 -3.17354 -5.2165 0
M  V30 1625 H 163.259 -4.58727 -3.43864 0
M  V30 1626 H 161.656 -5.21893 -2.96222 0
M  V30 1627 H 162.726 -4.53087 -1.72744 0
M  V30 1628 N 164.069 0.697108 -1.41344 0
M  V30 1629 C 165.48 1.27697 -1.36199 0
M  V30 1630 C 165.831 1.9615 -0.0443463 0
M  V30 1631 O 164.956 1.98689 0.857419 0
M  V30 1632 C 165.551 2.32223 -2.46694 0
M  V30 1633 C 164.11 2.8579 -2.44952 0
M  V30 1634 C 163.257 1.59807 -2.26621 0
M  V30 1635 H 166.208 0.491968 -1.50882 0
M  V30 1636 H 166.229 3.1348 -2.15664 0
M  V30 1637 H 165.741 1.82373 -3.42581 0
M  V30 1638 H 163.842 3.3982 -1.52817 0
M  V30 1639 H 163.955 3.36325 -3.41207 0
M  V30 1640 H 162.319 1.8556 -1.7447 0
M  V30 1641 H 163.102 1.11956 -3.24532 0
M  V30 1642 N 165.547 1.27147 0.931209 0
M  V30 1643 C 166.824 1.0401 1.65654 0
M  V30 1644 C 167.204 -0.426297 2.06751 0
M  V30 1645 O 166.552 -1.40879 1.79904 0
M  V30 1646 C 166.762 1.99834 2.86125 0
M  V30 1647 C 168.11 2.29007 3.57549 0
M  V30 1648 O 169.134 1.97779 2.96246 0
M  V30 1649 O 167.993 2.82222 4.67989 0
M  V30 1650 H 165.087 0.396239 0.725895 0
M  V30 1651 H 167.633 1.38397 0.982056 0
M  V30 1652 H 166.405 2.98744 2.52721 0
M  V30 1653 H 166.028 1.65987 3.61295 0
M  V30 1654 N 167.025 -1.13721 1.09112 0
M  V30 1655 C 168.271 -1.85198 0.826414 0
M  V30 1656 C 168.604 -1.83129 -0.646319 0
M  V30 1657 O 167.879 -1.2671 -1.47563 0
M  V30 1658 C 168.162 -3.33507 1.35812 0
M  V30 1659 C 168.015 -3.44108 2.89672 0
M  V30 1660 C 169.334 -4.28838 0.989256 0
M  V30 1661 H 166.453 -0.67243 0.301675 0
M  V30 1662 H 169.095 -1.33499 1.35197 0
M  V30 1663 H 167.245 -3.77666 0.911082 0
M  V30 1664 H 168.917 -3.08684 3.428 0
M  V30 1665 H 167.16 -2.85087 3.26967 0
M  V30 1666 H 167.831 -4.48388 3.21951 0
M  V30 1667 H 170.307 -3.92734 1.37475 0
M  V30 1668 H 169.183 -5.31051 1.38838 0
M  V30 1669 H 169.444 -4.4198 -0.102924 0
M  V30 1670 N 168.503 -0.877838 -1.30888 0
M  V30 1671 C 169.78 -0.413052 -1.91189 0
M  V30 1672 C 170.16 1.1056 -1.79832 0
M  V30 1673 O 169.508 1.93771 -1.21099 0
M  V30 1674 C 169.718 -0.903191 -3.3711 0
M  V30 1675 C 171.066 -0.93395 -4.14201 0
M  V30 1676 O 172.09 -0.849373 -3.45925 0
M  V30 1677 O 170.949 -1.05772 -5.36167 0
M  V30 1678 H 168.043 -0.125035 -0.817493 0
M  V30 1679 H 170.589 -0.966269 -1.39504 0
M  V30 1680 H 169.361 -1.94692 -3.39427 0
M  V30 1681 H 168.984 -0.328732 -3.96239 0
M  V30 1682 N 169.982 1.44106 -0.638065 0
M  V30 1683 C 170.945 2.29138 0.0531013 0
M  V30 1684 C 171.945 1.41409 0.765506 0
M  V30 1685 O 173.135 1.63206 0.609046 0
M  V30 1686 C 170.267 3.23144 1.08584 0
M  V30 1687 H 171.46 2.91739 -0.694883 0
M  V30 1688 H 169.013 1.51134 -0.398538 0
M  V30 1689 H 169.748 2.65408 1.86357 0
M  V30 1690 H 169.533 3.87804 0.578852 0
M  V30 1691 H 171.023 3.87004 1.56899 0
M  V30 1692 N 171.46 0.379036 1.52974 0
M  V30 1693 C 172.685 -0.209353 2.06341 0
M  V30 1694 C 173.11 -1.40583 1.24972 0
M  V30 1695 O 172.468 -1.79246 0.272155 0
M  V30 1696 C 172.516 -0.567786 3.56102 0
M  V30 1697 O 171.62 -1.66318 3.77375 0
M  V30 1698 H 170.961 -0.0272919 0.663439 0
M  V30 1699 H 173.491 0.543536 1.97248 0
M  V30 1700 H 173.501 -0.835003 3.99364 0
M  V30 1701 H 172.176 0.307013 4.14765 0
M  V30 1702 H 170.753 -1.39048 3.46006 0
M  V30 1703 N 172.938 -1.57226 0.108567 0
M  V30 1704 C 174.215 -1.86333 -0.594939 0
M  V30 1705 C 174.595 -1.00788 -1.85486 0
M  V30 1706 O 173.943 -0.0839293 -2.28346 0
M  V30 1707 C 174.153 -3.37265 -0.897405 0
M  V30 1708 C 175.501 -4.05629 -1.25501 0
M  V30 1709 O 176.525 -3.42224 -0.987998 0
M  V30 1710 O 175.384 -5.17531 -1.75567 0
M  V30 1711 H 172.478 -0.771018 -0.2991 0
M  V30 1712 H 175.024 -1.69102 0.142283 0
M  V30 1713 H 173.796 -3.913 -0.00413806 0
M  V30 1714 H 173.419 -3.59889 -1.69014 0
M  V30 1715 N 174.416 0.165178 -1.56732 0
M  V30 1716 C 175.662 0.882112 -1.82611 0
M  V30 1717 C 175.995 1.81628 -0.687378 0
M  V30 1718 O 175.27 1.92009 0.310267 0
M  V30 1719 C 175.553 1.67245 -3.18906 0
M  V30 1720 C 175.406 0.760987 -4.43316 0
M  V30 1721 C 176.725 2.63884 -3.52212 0
M  V30 1722 H 173.844 0.319242 -0.664269 0
M  V30 1723 H 176.486 0.148052 -1.89422 0
M  V30 1724 H 174.636 2.29824 -3.1323 0
M  V30 1725 H 176.308 0.147596 -4.61064 0
M  V30 1726 H 174.551 0.0694102 -4.33744 0
M  V30 1727 H 175.222 1.34962 -5.35247 0
M  V30 1728 H 177.698 2.11429 -3.58381 0
M  V30 1729 H 176.574 3.16245 -4.48643 0
M  V30 1730 H 176.835 3.44377 -2.77231 0
M  V30 1731 N 175.894 1.51508 0.433938 0
M  V30 1732 C 176.842 1.73646 1.54757 0
M  V30 1733 C 177.836 0.602854 1.5831 0
M  V30 1734 O 179.042 0.784318 1.62014 0
M  V30 1735 H 175.417 0.548718 0.51421 0
M  V30 1736 H 177.388 2.66991 1.33261 0
M  V30 1737 C 176.137 1.88172 2.92381 0
M  V30 1738 H 175.46 2.74808 2.90381 0
M  V30 1739 H 176.9 2.07672 3.6966 0
M  V30 1740 C 175.359 0.64239 3.30719 0
M  V30 1741 O 175.889 -0.201362 4.01195 0
M  V30 1742 N 174.095 0.485489 2.86516 0
M  V30 1743 H 173.642 1.17318 2.29334 0
M  V30 1744 H 173.6 -0.342482 3.12529 0
M  V30 1745 N 177.372 -0.689602 1.41712 0
M  V30 1746 C 178.319 -1.80345 1.44029 0
M  V30 1747 C 179.289 -1.63478 0.293948 0
M  V30 1748 O 180.474 -1.84244 0.495869 0
M  V30 1749 C 177.614 -3.18272 1.33405 0
M  V30 1750 C 176.727 -3.46529 2.57956 0
M  V30 1751 C 175.862 -4.74103 2.39582 0
M  V30 1752 C 174.901 -4.95347 3.5958 0
M  V30 1753 N 174.038 -6.14151 3.40239 0
M  V30 1754 H 178.878 -1.77698 2.39222 0
M  V30 1755 H 176.415 -0.867688 1.18784 0
M  V30 1756 H 178.373 -3.97956 1.25246 0
M  V30 1757 H 177.003 -3.2008 0.418164 0
M  V30 1758 H 176.055 -2.61207 2.76542 0
M  V30 1759 H 177.367 -3.58126 3.47199 0
M  V30 1760 H 176.521 -5.61853 2.28924 0
M  V30 1761 H 175.26 -4.64763 1.47805 0
M  V30 1762 H 174.265 -4.06044 3.70686 0
M  V30 1763 H 175.49 -5.06542 4.52318 0
M  V30 1764 H 173.436 -6.06013 2.51167 0
M  V30 1765 H 173.353 -6.26543 4.23061 0
M  V30 1766 H 174.621 -7.04619 3.33365 0
M  V30 1767 N 178.85 -1.27639 -0.924453 0
M  V30 1768 C 180.078 -1.16989 -1.70649 0
M  V30 1769 C 180.493 0.272869 -1.86818 0
M  V30 1770 O 179.85 1.18549 -1.38753 0
M  V30 1771 C 179.901 -1.85229 -3.10439 0
M  V30 1772 O 179.622 -3.23868 -2.95028 0
M  V30 1773 C 181.123 -1.80746 -4.04779 0
M  V30 1774 H 178.343 -0.406595 -0.53378 0
M  V30 1775 H 180.887 -1.68569 -1.15778 0
M  V30 1776 H 179.042 -1.37545 -3.6216 0
M  V30 1777 H 179.456 -3.57889 -3.83426 0
M  V30 1778 H 180.93 -2.33101 -5.00368 0
M  V30 1779 H 181.407 -0.777499 -4.32263 0
M  V30 1780 H 182.013 -2.28059 -3.58984 0
M  V30 1781 N 180.328 1.1314 -1.09713 0
M  V30 1782 C 181.553 1.88862 -0.857081 0
M  V30 1783 C 181.978 1.78729 0.586304 0
M  V30 1784 O 181.336 1.13692 1.41222 0
M  V30 1785 C 181.384 3.36325 -1.30069 0
M  V30 1786 O 180.488 4.09815 -0.461007 0
M  V30 1787 H 179.829 0.587108 -0.310162 0
M  V30 1788 H 182.359 1.43129 -1.46203 0
M  V30 1789 H 182.369 3.87157 -1.28738 0
M  V30 1790 H 181.044 3.43017 -2.35185 0
M  V30 1791 H 179.621 3.68986 -0.538888 0
M  V30 1792 N 181.806 0.884767 1.30421 0
M  V30 1793 C 182.753 0.349642 2.28136 0
M  V30 1794 C 183.723 -0.560061 1.56373 0
M  V30 1795 O 184.908 -0.488524 1.8444 0
M  V30 1796 C 182.048 -0.42999 3.42411 0
M  V30 1797 C 181.161 0.508907 4.28992 0
M  V30 1798 C 180.296 -0.286301 5.30428 0
M  V30 1799 C 179.335 0.648079 6.08659 0
M  V30 1800 N 178.472 -0.111792 7.02011 0
M  V30 1801 H 183.312 1.18807 2.73293 0
M  V30 1802 H 180.849 0.597231 1.3443 0
M  V30 1803 H 182.807 -0.897923 4.07423 0
M  V30 1804 H 181.437 -1.23299 2.98324 0
M  V30 1805 H 180.489 1.09533 3.64289 0
M  V30 1806 H 181.801 1.22475 4.8353 0
M  V30 1807 H 180.955 -0.816098 6.01186 0
M  V30 1808 H 179.694 -1.03536 4.76583 0
M  V30 1809 H 178.699 1.18951 5.36778 0
M  V30 1810 H 179.924 1.39623 6.64592 0
M  V30 1811 H 177.87 -0.843395 6.50556 0
M  V30 1812 H 177.787 0.544429 7.54037 0
M  V30 1813 H 179.055 -0.622339 7.77012 0
M  V30 1814 N 183.284 -1.43765 0.645699 0
M  V30 1815 C 184.695 -1.85193 0.236719 0
M  V30 1816 C 185.046 -1.54045 -1.21509 0
M  V30 1817 O 184.171 -0.985694 -1.92647 0
M  V30 1818 C 184.766 -3.36151 0.422845 0
M  V30 1819 C 183.325 -3.76338 0.0682492 0
M  V30 1820 C 182.472 -2.67538 0.729306 0
M  V30 1821 H 185.423 -1.34025 0.849883 0
M  V30 1822 H 185.444 -3.79032 -0.333904 0
M  V30 1823 H 184.956 -3.5879 1.47958 0
M  V30 1824 H 183.057 -3.59312 -0.986179 0
M  V30 1825 H 183.17 -4.76603 0.488469 0
M  V30 1826 H 181.534 -2.54176 0.163235 0
M  V30 1827 H 182.317 -2.93006 1.78892 0
M  V30 1828 N 184.763 -0.387143 -1.52771 0
M  V30 1829 C 186.04 0.253197 -1.93954 0
M  V30 1830 C 186.42 1.64545 -1.32243 0
M  V30 1831 O 185.768 2.23191 -0.489699 0
M  V30 1832 C 185.978 0.281722 -3.47861 0
M  V30 1833 C 187.326 0.511715 -4.21505 0
M  V30 1834 O 188.35 0.362023 -3.54356 0
M  V30 1835 O 187.209 0.804847 -5.40541 0
M  V30 1836 H 184.303 0.156845 -0.811991 0
M  V30 1837 H 186.849 -0.441494 -1.63856 0
M  V30 1838 H 185.621 -0.693571 -3.85104 0
M  V30 1839 H 185.244 1.02142 -3.84256 0
M  V30 1840 N 186.241 1.57166 -0.116904 0
M  V30 1841 C 187.469 1.99473 0.549383 0
M  V30 1842 C 187.884 0.996541 1.60357 0
M  V30 1843 O 187.241 -0.0108731 1.82497 0
M  V30 1844 C 187.292 3.41788 1.17741 0
M  V30 1845 O 187.013 4.37788 0.165362 0
M  V30 1846 C 188.514 3.99216 1.92722 0
M  V30 1847 H 185.734 0.655009 0.145616 0
M  V30 1848 H 188.278 2.03494 -0.202625 0
M  V30 1849 H 186.433 3.38713 1.88021 0
M  V30 1850 H 186.847 5.20806 0.621403 0
M  V30 1851 H 188.321 5.00882 2.31995 0
M  V30 1852 H 188.798 3.3824 2.80161 0
M  V30 1853 H 189.404 4.0583 1.27209 0
M  V30 1854 N 187.719 -0.156864 1.56817 0
M  V30 1855 C 188.944 -0.890331 1.87318 0
M  V30 1856 C 189.369 -1.74394 0.704855 0
M  V30 1857 O 188.727 -1.77972 -0.345786 0
M  V30 1858 C 188.775 -1.73102 3.16336 0
M  V30 1859 O 187.879 -2.83422 2.99576 0
M  V30 1860 H 187.22 -0.24857 0.615718 0
M  V30 1861 H 189.75 -0.150649 2.04045 0
M  V30 1862 H 189.76 -2.12803 3.48107 0
M  V30 1863 H 188.435 -1.10412 4.00976 0
M  V30 1864 H 187.012 -2.47199 2.7919 0
M  V30 1865 N 189.197 -1.51736 -0.425897 0
M  V30 1866 C 190.443 -1.65214 -1.1761 0
M  V30 1867 C 190.776 -0.372778 -1.90589 0
M  V30 1868 O 190.051 0.628139 -1.84078 0
M  V30 1869 C 190.334 -2.86312 -2.18398 0
M  V30 1870 C 190.187 -4.24254 -1.49426 0
M  V30 1871 C 191.506 -3.02925 -3.19256 0
M  V30 1872 H 188.625 -0.601263 -0.426206 0
M  V30 1873 H 191.267 -1.8425 -0.463882 0
M  V30 1874 H 189.417 -2.70213 -2.79137 0
M  V30 1875 H 191.089 -4.52046 -0.919362 0
M  V30 1876 H 189.332 -4.26426 -0.796432 0
M  V30 1877 H 190.003 -5.05001 -2.22885 0
M  V30 1878 H 192.479 -3.1781 -2.68581 0
M  V30 1879 H 191.355 -3.89199 -3.8706 0
M  V30 1880 H 191.616 -2.15497 -3.86023 0
M  V30 1881 N 190.675 0.682077 -1.42076 0
M  V30 1882 C 191.915 1.45424 -1.43636 0
M  V30 1883 C 192.279 1.91939 -0.0484001 0
M  V30 1884 O 193.48 2.6873 0.0612514 0
M  V30 1885 C 191.751 2.62427 -2.42625 0
M  V30 1886 S 193.31 3.51379 -2.62827 0
M  V30 1887 H 190.128 0.496779 -0.508657 0
M  V30 1888 H 192.73 0.794645 -1.78621 0
M  V30 1889 H 191.434 2.26481 -3.42249 0
M  V30 1890 H 190.965 3.33266 -2.09039 0
M  V30 1891 H 192.98 4.58141 -1.9058 0
M  V30 1892 N 192.153 1.28127 0.917671 0
M  V30 1893 C 193.569 1.05749 1.19538 0
M  V30 1894 C 193.769 -0.202633 2.00479 0
M  V30 1895 O 192.825 -0.905382 2.3571 0
M  V30 1896 C 194.138 2.30273 1.93378 0
M  V30 1897 C 195.686 2.35412 2.06277 0
M  V30 1898 C 196.161 3.59692 2.83524 0
M  V30 1899 N 197.652 3.60309 2.91087 0
M  V30 1900 C 198.387 4.53147 3.51348 0
M  V30 1901 N 197.883 5.563 4.12919 0
M  V30 1902 N 199.676 4.40751 3.48849 0
M  V30 1903 H 191.827 2.09024 0.377184 0
M  V30 1904 H 194.09 0.919798 0.22951 0
M  V30 1905 H 193.796 3.22055 1.41328 0
M  V30 1906 H 193.67 2.36378 2.93947 0
M  V30 1907 H 196.057 1.4413 2.57508 0
M  V30 1908 H 196.138 2.33304 1.04895 0
M  V30 1909 H 195.782 4.51316 2.32973 0
M  V30 1910 H 195.712 3.59054 3.85211 0
M  V30 1911 H 198.203 2.85714 2.47338 0
M  V30 1912 H 198.516 6.2329 4.56869 0
M  V30 1913 H 196.861 5.60131 4.11435 0
M  V30 1914 H 200.052 3.59367 2.99955 0
M  V30 1915 H 200.225 5.13291 3.9552 0
M  V30 1916 N 193.631 -1.12557 1.10312 0
M  V30 1917 C 194.878 -1.84038 0.844759 0
M  V30 1918 C 195.206 -1.84026 -0.629668 0
M  V30 1919 O 194.461 -1.28026 -1.48013 0
M  V30 1920 C 194.76 -3.31462 1.33669 0
M  V30 1921 C 194.426 -3.51647 2.82232 0
M  V30 1922 C 193.088 -3.56864 3.22802 0
M  V30 1923 C 195.44 -3.58867 3.77974 0
M  V30 1924 C 192.768 -3.66844 4.57867 0
M  V30 1925 C 195.12 -3.70375 5.1284 0
M  V30 1926 C 193.784 -3.73848 5.52986 0
M  V30 1927 H 193.054 -0.673444 0.309119 0
M  V30 1928 H 195.701 -1.32824 1.37949 0
M  V30 1929 H 194.006 -3.85091 0.721949 0
M  V30 1930 H 195.703 -3.85236 1.11329 0
M  V30 1931 H 192.293 -3.48249 2.49842 0
M  V30 1932 H 196.477 -3.54107 3.47738 0
M  V30 1933 H 191.733 -3.67804 4.88396 0
M  V30 1934 H 195.907 -3.74904 5.86873 0
M  V30 1935 H 193.534 -3.81333 6.57639 0
M  V30 1936 N 195.109 -0.891671 -1.2995 0
M  V30 1937 C 196.339 -0.527893 -1.99742 0
M  V30 1938 C 196.747 0.88979 -1.66971 0
M  V30 1939 O 196.09 1.59766 -0.906667 0
M  V30 1940 C 196.152 -0.630804 -3.53922 0
M  V30 1941 C 195.816 -2.01401 -4.10228 0
M  V30 1942 C 196.813 -2.98422 -4.25724 0
M  V30 1943 C 194.498 -2.32121 -4.45449 0
M  V30 1944 C 196.492 -4.24293 -4.75662 0
M  V30 1945 C 194.179 -3.58237 -4.95086 0
M  V30 1946 C 195.177 -4.54137 -5.10146 0
M  V30 1947 O 194.865 -5.78014 -5.58708 0
M  V30 1948 H 194.597 -0.201953 -0.645129 0
M  V30 1949 H 197.151 -1.20076 -1.66646 0
M  V30 1950 H 195.381 0.0990616 -3.86573 0
M  V30 1951 H 197.07 -0.277338 -4.04951 0
M  V30 1952 H 197.836 -2.76001 -3.98809 0
M  V30 1953 H 193.715 -1.5824 -4.32991 0
M  V30 1954 H 197.259 -4.99153 -4.87332 0
M  V30 1955 H 193.156 -3.80491 -5.21437 0
M  V30 1956 H 193.924 -5.8049 -5.77039 0
M  V30 1957 N 196.587 1.43421 -0.653314 0
M  V30 1958 C 197.815 2.06163 -0.174491 0
M  V30 1959 C 198.23 1.48969 1.1599 0
M  V30 1960 O 197.587 0.621042 1.71608 0
M  V30 1961 C 197.638 3.61417 -0.0774865 0
M  V30 1962 O 197.359 4.16485 -1.35912 0
M  V30 1963 C 198.86 4.41235 0.427402 0
M  V30 1964 H 196.08 0.664946 -0.0899353 0
M  V30 1965 H 198.624 1.83924 -0.893988 0
M  V30 1966 H 196.779 3.82841 0.59257 0
M  V30 1967 H 197.193 5.10153 -1.21839 0
M  V30 1968 H 198.667 5.5021 0.44423 0
M  V30 1969 H 199.144 4.14268 1.45873 0
M  V30 1970 H 199.75 4.2478 -0.210167 0
M  V30 1971 N 198.065 0.39524 1.52563 0
M  V30 1972 C 198.995 -0.428384 2.29537 0
M  V30 1973 C 199.976 -1.05831 1.33169 0
M  V30 1974 O 201.161 -1.06995 1.62067 0
M  V30 1975 C 198.291 -1.55274 3.10656 0
M  V30 1976 C 197.245 -1.04855 4.14957 0
M  V30 1977 C 196.571 -2.26543 4.84337 0
M  V30 1978 C 197.871 -0.112324 5.22179 0
M  V30 1979 H 199.565 0.213867 2.98635 0
M  V30 1980 H 197.111 0.104298 1.43622 0
M  V30 1981 H 199.064 -2.1358 3.63265 0
M  V30 1982 H 197.788 -2.22266 2.39302 0
M  V30 1983 H 196.447 -0.487985 3.63338 0
M  V30 1984 H 196.095 -2.92059 4.09525 0
M  V30 1985 H 195.795 -1.93466 5.54837 0
M  V30 1986 H 197.319 -2.85481 5.39753 0
M  V30 1987 H 198.733 -0.603752 5.70112 0
M  V30 1988 H 197.13 0.128968 5.99961 0
M  V30 1989 H 198.2 0.837052 4.77621 0
M  V30 1990 N 199.544 -1.57102 0.125237 0
M  V30 1991 C 200.821 -1.86953 -0.575142 0
M  V30 1992 C 201.201 -1.02749 -1.84407 0
M  V30 1993 O 200.549 -0.108144 -2.28244 0
M  V30 1994 C 200.759 -3.38198 -0.861583 0
M  V30 1995 C 202.107 -4.06937 -1.21192 0
M  V30 1996 O 203.131 -3.43252 -0.951645 0
M  V30 1997 O 201.99 -5.19364 -1.70068 0
M  V30 1998 H 199.084 -0.774147 -0.290906 0
M  V30 1999 H 201.63 -1.68942 0.160211 0
M  V30 2000 H 200.402 -3.91282 0.0373647 0
M  V30 2001 H 200.025 -3.61661 -1.65188 0
M  V30 2002 N 201.022 0.148545 -1.56898 0
M  V30 2003 C 202.247 0.880385 -1.87787 0
M  V30 2004 C 202.672 1.74018 -0.714093 0
M  V30 2005 O 202.03 1.78153 0.336343 0
M  V30 2006 C 202.078 1.71422 -3.17249 0
M  V30 2007 O 201.182 2.8183 -3.01074 0
M  V30 2008 H 200.523 0.245301 -0.617028 0
M  V30 2009 H 203.053 0.139826 -2.04122 0
M  V30 2010 H 203.063 2.10954 -3.49231 0
M  V30 2011 H 201.738 1.08284 -4.01556 0
M  V30 2012 H 200.315 2.45715 -2.80497 0
M  V30 2013 N 202.5 1.5196 0.417844 0
M  V30 2014 C 203.447 1.74678 1.50852 0
M  V30 2015 C 204.417 0.588947 1.55308 0
M  V30 2016 O 205.602 0.825544 1.72016 0
M  V30 2017 C 202.742 1.89544 2.88387 0
M  V30 2018 C 201.855 3.17166 2.93309 0
M  V30 2019 C 200.99 3.22513 4.22088 0
M  V30 2020 C 200.029 4.44372 4.20951 0
M  V30 2021 N 199.166 4.47161 5.41287 0
M  V30 2022 H 204.006 2.67768 1.30783 0
M  V30 2023 H 201.543 1.32689 0.63498 0
M  V30 2024 H 203.501 1.96146 3.68216 0
M  V30 2025 H 202.131 0.998424 3.06971 0
M  V30 2026 H 201.183 3.19778 2.06024 0
M  V30 2027 H 202.495 4.07021 2.88332 0
M  V30 2028 H 201.649 3.28139 5.10303 0
M  V30 2029 H 200.388 2.30581 4.29748 0
M  V30 2030 H 199.393 4.38902 3.31127 0
M  V30 2031 H 200.618 5.3759 4.14938 0
M  V30 2032 H 198.564 3.58108 5.49632 0
M  V30 2033 H 198.481 5.3085 5.3827 0
M  V30 2034 H 199.749 4.57005 6.3148 0
M  V30 2035 N 203.978 -0.674533 1.42435 0
M  V30 2036 C 205.206 -1.46283 1.46317 0
M  V30 2037 C 205.621 -1.88653 0.0745836 0
M  V30 2038 O 204.978 -1.58151 -0.91074 0
M  V30 2039 C 205.029 -2.71178 2.3905 0
M  V30 2040 O 204.75 -2.30586 3.72507 0
M  V30 2041 C 206.251 -3.64738 2.51955 0
M  V30 2042 H 203.471 -0.450104 0.497642 0
M  V30 2043 H 206.015 -0.828792 1.86953 0
M  V30 2044 H 204.17 -3.3077 2.01667 0
M  V30 2045 H 204.584 -3.11241 4.22172 0
M  V30 2046 H 206.058 -4.49096 3.20962 0
M  V30 2047 H 206.535 -4.10656 1.55752 0
M  V30 2048 H 207.141 -3.11038 2.90061 0
M  V30 2049 N 205.456 -1.28612 -0.910864 0
M  V30 2050 C 206.702 -1.17116 -1.66299 0
M  V30 2051 C 207.057 0.276917 -1.90397 0
M  V30 2052 O 206.35 1.19795 -1.49532 0
M  V30 2053 C 206.544 -1.90624 -3.0232 0
M  V30 2054 C 206.373 -3.42431 -2.91498 0
M  V30 2055 C 205.143 -4.11773 -2.92867 0
M  V30 2056 C 207.341 -4.38124 -2.69355 0
M  V30 2057 N 205.323 -5.50025 -2.72664 0
M  V30 2058 C 206.694 -5.63759 -2.58023 0
M  V30 2059 C 208.749 -4.28016 -2.54375 0
M  V30 2060 C 207.452 -6.80436 -2.33238 0
M  V30 2061 C 209.478 -5.44433 -2.30969 0
M  V30 2062 C 208.84 -6.69034 -2.20394 0
M  V30 2063 H 204.939 -0.483506 -0.61461 0
M  V30 2064 H 207.523 -1.62299 -1.0755 0
M  V30 2065 H 205.694 -1.4787 -3.5915 0
M  V30 2066 H 207.426 -1.71488 -3.66571 0
M  V30 2067 H 204.181 -3.63378 -3.03732 0
M  V30 2068 H 204.605 -6.22705 -2.65646 0
M  V30 2069 H 209.247 -3.32388 -2.613 0
M  V30 2070 H 206.965 -7.7613 -2.25051 0
M  V30 2071 H 210.551 -5.38504 -2.20238 0
M  V30 2072 H 209.431 -7.57595 -2.02531 0
M  V30 2073 N 206.934 1.1197 -1.10907 0
M  V30 2074 C 208.162 1.87402 -0.876824 0
M  V30 2075 C 208.577 1.79894 0.573025 0
M  V30 2076 O 207.934 1.17629 1.39534 0
M  V30 2077 C 207.985 3.36428 -1.32282 0
M  V30 2078 O 207.706 3.43765 -2.71582 0
M  V30 2079 C 209.207 4.28783 -1.12518 0
M  V30 2080 H 206.427 0.592793 -0.314384 0
M  V30 2081 H 208.971 1.41649 -1.47499 0
M  V30 2082 H 207.126 3.79706 -0.768229 0
M  V30 2083 H 207.54 4.3652 -2.90776 0
M  V30 2084 H 209.014 5.31613 -1.48633 0
M  V30 2085 H 209.491 4.39153 -0.0642394 0
M  V30 2086 H 210.097 3.91291 -1.66648 0
M  V30 2087 N 208.412 0.89855 1.29475 0
M  V30 2088 C 209.64 0.539261 1.99749 0
M  V30 2089 C 210.055 -0.875716 1.67262 0
M  V30 2090 O 209.412 -1.57786 0.917049 0
M  V30 2091 C 209.463 0.72061 3.54245 0
M  V30 2092 O 209.184 2.07989 3.8558 0
M  V30 2093 C 210.685 0.366118 4.41786 0
M  V30 2094 H 207.905 0.207047 0.638258 0
M  V30 2095 H 210.449 1.20758 1.65039 0
M  V30 2096 H 208.604 0.0994862 3.87272 0
M  V30 2097 H 209.018 2.10841 4.80257 0
M  V30 2098 H 210.492 0.543848 5.49314 0
M  V30 2099 H 210.969 -0.696763 4.33638 0
M  V30 2100 H 211.575 0.964135 4.14228 0
M  V30 2101 N 209.89 -1.43072 0.660911 0
M  V30 2102 C 211.138 -2.01323 0.177094 0
M  V30 2103 C 211.459 -1.5245 -1.2159 0
M  V30 2104 O 210.729 -0.740322 -1.81373 0
M  V30 2105 H 209.309 -0.744382 0.0624804 0
M  V30 2106 H 211.971 -1.75179 0.854305 0
M  V30 2107 H 211.067 -3.11649 0.167641 0
M  V30 2108 N 211.368 -0.403325 -1.52352 0
M  V30 2109 C 212.593 0.176499 -2.06648 0
M  V30 2110 C 213.018 1.38577 -1.27193 0
M  V30 2111 O 212.376 1.7879 -0.300637 0
M  V30 2112 C 212.424 0.511061 -3.5696 0
M  V30 2113 O 211.528 1.60294 -3.79973 0
M  V30 2114 H 210.869 0.0167337 -0.663789 0
M  V30 2115 H 213.399 -0.574848 -1.96359 0
M  V30 2116 H 213.409 0.771362 -4.00642 0
M  V30 2117 H 212.084 -0.37296 -4.14224 0
M  V30 2118 H 210.661 1.33526 -3.48174 0
M  V30 2119 N 212.846 1.57033 -0.133567 0
M  V30 2120 C 213.793 2.16074 0.811208 0
M  V30 2121 C 214.763 1.08979 1.2535 0
M  V30 2122 O 215.948 1.36958 1.32843 0
M  V30 2123 C 213.088 2.77595 2.05024 0
M  V30 2124 C 212.201 3.99042 1.65498 0
M  V30 2125 C 211.336 4.48603 2.84479 0
M  V30 2126 C 210.375 5.62547 2.41262 0
M  V30 2127 N 209.512 6.06787 3.53206 0
M  V30 2128 H 214.352 2.96477 0.300906 0
M  V30 2129 H 211.889 1.46462 0.136822 0
M  V30 2130 H 213.847 3.11402 2.77642 0
M  V30 2131 H 212.477 1.99859 2.53488 0
M  V30 2132 H 211.529 3.71302 0.826981 0
M  V30 2133 H 212.841 4.81629 1.29748 0
M  V30 2134 H 211.995 4.84395 3.65303 0
M  V30 2135 H 210.734 3.64995 3.23465 0
M  V30 2136 H 209.739 5.26345 1.58874 0
M  V30 2137 H 210.964 6.47931 2.03377 0
M  V30 2138 H 208.91 5.26117 3.91838 0
M  V30 2139 H 208.827 6.84266 3.21427 0
M  V30 2140 H 210.095 6.4722 4.34427 0
M  V30 2141 N 214.325 -0.140222 1.56975 0
M  V30 2142 C 215.573 -0.850005 1.83356 0
M  V30 2143 C 215.894 -1.81399 0.71551 0
M  V30 2144 O 215.164 -1.94136 -0.262294 0
M  V30 2145 H 213.744 -0.316886 0.676456 0
M  V30 2146 H 216.406 -0.132608 1.94448 0
M  V30 2147 H 215.502 -1.40814 2.78528 0
M  V30 2148 N 215.803 -1.52179 -0.40978 0
M  V30 2149 C 217.049 -1.67408 -1.15525 0
M  V30 2150 C 217.404 -0.398746 -1.88223 0
M  V30 2151 O 216.697 0.60678 -1.81738 0
M  V30 2152 C 216.891 -2.83428 -2.17723 0
M  V30 2153 C 216.72 -4.22121 -1.55061 0
M  V30 2154 C 215.49 -4.87657 -1.3236 0
M  V30 2155 C 217.688 -5.04248 -1.01185 0
M  V30 2156 N 215.67 -6.10387 -0.655834 0
M  V30 2157 C 217.041 -6.18209 -0.470963 0
M  V30 2158 C 219.096 -4.89583 -0.906252 0
M  V30 2159 C 217.799 -7.1911 0.165172 0
M  V30 2160 C 219.825 -5.90718 -0.28397 0
M  V30 2161 C 219.187 -7.03969 0.246243 0
M  V30 2162 H 215.286 -0.666251 -0.409431 0
M  V30 2163 H 217.87 -1.89482 -0.447729 0
M  V30 2164 H 216.041 -2.6297 -2.85834 0
M  V30 2165 H 217.773 -2.87697 -2.84627 0
M  V30 2166 H 214.528 -4.46007 -1.59294 0
M  V30 2167 H 214.952 -6.76153 -0.338596 0
M  V30 2168 H 219.594 -4.02253 -1.302 0
M  V30 2169 H 217.312 -8.06066 0.572986 0
M  V30 2170 H 220.898 -5.81443 -0.203792 0
M  V30 2171 H 219.778 -7.80886 0.720173 0
M  V30 2172 N 217.281 0.66697 -1.42791 0
M  V30 2173 C 218.521 1.43892 -1.4517 0
M  V30 2174 C 218.885 1.91877 -0.0687551 0
M  V30 2175 O 220.086 2.6878 0.0327455 0
M  V30 2176 C 218.357 2.59839 -2.45395 0
M  V30 2177 S 219.916 3.48572 -2.66539 0
M  V30 2178 H 216.734 0.491356 -0.513897 0
M  V30 2179 H 219.336 0.775656 -1.79454 0
M  V30 2180 H 218.04 2.22838 -3.44632 0
M  V30 2181 H 217.571 3.3103 -2.12562 0
M  V30 2182 H 219.586 4.56094 -1.95429 0
M  V30 2183 N 218.759 1.29093 0.90403 0
M  V30 2184 C 220.005 1.17996 1.65676 0
M  V30 2185 C 220.36 -0.266816 1.90541 0
M  V30 2186 O 219.653 -1.19 1.50165 0
M  V30 2187 C 219.847 1.92224 3.01305 0
M  V30 2188 C 219.676 3.43972 2.89678 0
M  V30 2189 C 218.446 4.1332 2.90679 0
M  V30 2190 C 220.644 4.39546 2.67028 0
M  V30 2191 N 218.626 5.51463 2.69743 0
M  V30 2192 C 219.997 5.65119 2.5503 0
M  V30 2193 C 222.052 4.29359 2.52101 0
M  V30 2194 C 220.755 6.81663 2.29626 0
M  V30 2195 C 222.781 5.4565 2.28079 0
M  V30 2196 C 222.143 6.70193 2.16843 0
M  V30 2197 H 218.242 0.486759 0.612037 0
M  V30 2198 H 220.826 1.62868 1.06688 0
M  V30 2199 H 218.997 1.49773 3.58361 0
M  V30 2200 H 220.729 1.73429 3.65656 0
M  V30 2201 H 217.484 3.64984 3.01801 0
M  V30 2202 H 217.908 6.24105 2.6234 0
M  V30 2203 H 222.55 3.33769 2.59534 0
M  V30 2204 H 220.268 7.77313 2.20932 0
M  V30 2205 H 223.854 5.39664 2.1738 0
M  V30 2206 H 222.734 7.58659 1.98511 0
M  V30 2207 N 220.237 -1.11381 1.11499 0
M  V30 2208 C 221.184 -2.17439 0.773887 0
M  V30 2209 C 222.154 -1.64132 -0.254899 0
M  V30 2210 O 223.339 -1.90345 -0.13168 0
M  V30 2211 C 220.479 -3.44373 0.223917 0
M  V30 2212 C 219.592 -4.1168 1.30934 0
M  V30 2213 C 218.727 -5.263 0.71984 0
M  V30 2214 C 217.766 -5.85493 1.78507 0
M  V30 2215 N 216.903 -6.91507 1.21502 0
M  V30 2216 H 221.743 -2.45962 1.68246 0
M  V30 2217 H 219.28 -1.20744 0.840191 0
M  V30 2218 H 221.238 -4.17047 -0.112921 0
M  V30 2219 H 219.868 -3.16232 -0.647851 0
M  V30 2220 H 218.92 -3.37073 1.76312 0
M  V30 2221 H 220.232 -4.51729 2.11524 0
M  V30 2222 H 219.386 -6.05785 0.333094 0
M  V30 2223 H 218.125 -4.87559 -0.117377 0
M  V30 2224 H 217.13 -5.04686 2.18111 0
M  V30 2225 H 218.355 -6.26301 2.62533 0
M  V30 2226 H 216.301 -6.54783 0.399455 0
M  V30 2227 H 216.218 -7.30214 1.95763 0
M  V30 2228 H 217.486 -7.74795 0.855181 0
M  V30 2229 N 221.715 -0.905404 -1.28997 0
M  V30 2230 C 222.645 -0.404212 -2.29975 0
M  V30 2231 C 223.626 0.523784 -1.61835 0
M  V30 2232 O 224.811 0.433298 -1.89304 0
M  V30 2233 C 221.941 0.364042 -3.45387 0
M  V30 2234 C 220.895 -0.474048 -4.25367 0
M  V30 2235 C 220.221 0.422045 -5.33032 0
M  V30 2236 C 221.521 -1.72696 -4.92923 0
M  V30 2237 H 223.215 -1.24807 -2.72146 0
M  V30 2238 H 220.761 -0.601585 -1.30832 0
M  V30 2239 H 222.714 0.725447 -4.15109 0
M  V30 2240 H 221.438 1.24174 -3.02074 0
M  V30 2241 H 220.097 -0.81786 -3.57361 0
M  V30 2242 H 219.745 1.29804 -4.85963 0
M  V30 2243 H 219.445 -0.135057 -5.87445 0
M  V30 2244 H 220.969 0.779517 -6.05604 0
M  V30 2245 H 222.383 -1.43495 -5.55051 0
M  V30 2246 H 220.78 -2.22582 -5.57295 0
M  V30 2247 H 221.85 -2.45964 -4.17887 0
M  V30 2248 N 223.193 1.4272 -0.668489 0
M  V30 2249 C 224.604 1.84793 -0.266151 0
M  V30 2250 C 224.955 1.55959 1.19043 0
M  V30 2251 O 224.08 1.01622 1.91055 0
M  V30 2252 C 224.675 3.35436 -0.476271 0
M  V30 2253 C 223.234 3.76182 -0.128113 0
M  V30 2254 C 222.381 2.66344 -0.771777 0
M  V30 2255 H 225.332 1.32656 -0.871098 0
M  V30 2256 H 225.353 3.79515 0.273561 0
M  V30 2257 H 224.865 3.5639 -1.53647 0
M  V30 2258 H 222.966 3.60836 0.928891 0
M  V30 2259 H 223.079 4.75766 -0.564231 0
M  V30 2260 H 221.443 2.53885 -0.203652 0
M  V30 2261 H 222.226 2.90123 -1.83531 0
M  V30 2262 N 224.671 0.411399 1.52136 0
M  V30 2263 C 225.948 -0.222308 1.94333 0
M  V30 2264 C 226.328 -1.6242 1.34844 0
M  V30 2265 O 225.676 -2.22384 0.525145 0
M  V30 2266 C 225.886 -0.226345 3.48265 0
M  V30 2267 C 227.234 -0.444592 4.22266 0
M  V30 2268 O 228.258 -0.305602 3.54887 0
M  V30 2269 O 227.117 -0.718749 5.41753 0
M  V30 2270 H 224.211 -0.143907 0.814383 0
M  V30 2271 H 226.757 0.467506 1.63133 0
M  V30 2272 H 225.529 0.75475 3.83952 0
M  V30 2273 H 225.152 -0.960163 3.85832 0
M  V30 2274 N 226.149 -1.5696 0.141893 0
M  V30 2275 C 227.112 -2.15316 -0.785587 0
M  V30 2276 C 228.112 -1.09366 -1.1788 0
M  V30 2277 O 229.302 -1.35031 -1.10056 0
M  V30 2278 C 226.434 -2.71211 -2.06537 0
M  V30 2279 H 227.627 -2.98608 -0.278041 0
M  V30 2280 H 225.18 -1.5593 -0.107519 0
M  V30 2281 H 225.915 -1.91571 -2.6167 0
M  V30 2282 H 225.7 -3.4872 -1.79268 0
M  V30 2283 H 227.19 -3.16189 -2.72789 0
M  V30 2284 N 227.627 0.131896 -1.57047 0
M  V30 2285 C 228.557 1.16384 -2.02428 0
M  V30 2286 C 229.538 1.43936 -0.90644 0
M  V30 2287 O 230.723 1.54599 -1.17528 0
M  V30 2288 C 227.853 2.49328 -2.4177 0
M  V30 2289 C 226.807 2.36266 -3.56879 0
M  V30 2290 C 226.133 3.74057 -3.8208 0
M  V30 2291 C 227.433 1.834 -4.89042 0
M  V30 2292 H 229.127 0.786433 -2.88887 0
M  V30 2293 H 226.673 0.376855 -1.38981 0
M  V30 2294 H 228.626 3.21759 -2.7212 0
M  V30 2295 H 227.35 2.88934 -1.52266 0
M  V30 2296 H 226.009 1.66286 -3.26718 0
M  V30 2297 H 225.657 4.11125 -2.89803 0
M  V30 2298 H 225.357 3.66174 -4.59554 0
M  V30 2299 H 226.881 4.48012 -4.1487 0
M  V30 2300 H 228.295 2.45636 -5.18011 0
M  V30 2301 H 226.692 1.8637 -5.70426 0
M  V30 2302 H 227.762 0.790662 -4.7841 0
M  V30 2303 N 229.106 1.52395 0.401703 0
M  V30 2304 C 230.053 1.76268 1.48991 0
M  V30 2305 C 231.023 0.605386 1.54675 0
M  V30 2306 O 232.208 0.843742 1.7113 0
M  V30 2307 C 229.348 1.92592 2.86361 0
M  V30 2308 C 228.461 3.20259 2.89928 0
M  V30 2309 C 227.596 3.26972 4.18644 0
M  V30 2310 C 226.635 4.48812 4.16214 0
M  V30 2311 N 225.772 4.52877 5.36514 0
M  V30 2312 H 230.612 2.6914 1.27935 0
M  V30 2313 H 228.149 1.33355 0.620871 0
M  V30 2314 H 230.107 2.0004 3.66115 0
M  V30 2315 H 228.737 1.03093 3.05895 0
M  V30 2316 H 227.789 3.21945 2.02621 0
M  V30 2317 H 229.101 4.10056 2.83999 0
M  V30 2318 H 228.255 3.33533 5.06794 0
M  V30 2319 H 226.994 2.35126 4.27278 0
M  V30 2320 H 225.999 4.4239 3.26453 0
M  V30 2321 H 227.224 5.41961 4.09213 0
M  V30 2322 H 225.17 3.63917 5.45802 0
M  V30 2323 H 225.087 5.36529 5.32609 0
M  V30 2324 H 226.355 4.63676 6.26597 0
M  V30 2325 N 230.584 -0.659388 1.43143 0
M  V30 2326 C 231.861 -1.41627 1.34912 0
M  V30 2327 C 232.241 -2.11099 -0.00607785 0
M  V30 2328 O 231.589 -2.04353 -1.02236 0
M  V30 2329 C 231.799 -2.40604 2.52805 0
M  V30 2330 C 233.147 -3.04789 2.95616 0
M  V30 2331 O 234.171 -2.50932 2.52807 0
M  V30 2332 O 233.03 -4.02421 3.69756 0
M  V30 2333 H 230.124 -0.63246 0.532844 0
M  V30 2334 H 232.67 -0.686814 1.5518 0
M  V30 2335 H 231.442 -1.88174 3.43083 0
M  V30 2336 H 231.065 -3.21009 2.34604 0
M  V30 2337 N 232.062 -1.29571 -0.897171 0
M  V30 2338 C 232.995 -1.0924 -2.00354 0
M  V30 2339 C 233.973 -0.00354011 -1.626 0
M  V30 2340 O 235.157 -0.15473 -1.87864 0
M  V30 2341 C 232.284 -0.66352 -3.32137 0
M  V30 2342 C 231.33 -1.75146 -3.88878 0
M  V30 2343 S 232.163 -3.35124 -4.17674 0
M  V30 2344 C 233.319 -2.9411 -5.52494 0
M  V30 2345 H 233.552 -2.02907 -2.17292 0
M  V30 2346 H 231.085 -1.13746 -1.04408 0
M  V30 2347 H 233.043 -0.422791 -4.08317 0
M  V30 2348 H 231.704 0.253588 -3.13075 0
M  V30 2349 H 230.897 -1.40337 -4.84068 0
M  V30 2350 H 230.499 -1.94584 -3.19395 0
M  V30 2351 H 232.791 -2.41312 -6.33068 0
M  V30 2352 H 233.734 -3.88161 -5.9223 0
M  V30 2353 H 234.142 -2.32332 -5.14473 0
M  V30 2354 N 233.54 1.10788 -1.12088 0
M  V30 2355 C 234.788 1.8231 -0.872205 0
M  V30 2356 C 235.109 1.85419 0.603709 0
M  V30 2357 O 234.379 1.32963 1.43867 0
M  V30 2358 H 232.959 0.675137 -0.319686 0
M  V30 2359 H 235.621 1.34068 -1.41463 0
M  V30 2360 H 234.717 2.85955 -1.25045 0
M  V30 2361 N 235.018 0.912232 1.28515 0
M  V30 2362 C 236.264 0.545405 1.95328 0
M  V30 2363 C 236.597 -0.908313 1.71649 0
M  V30 2364 O 235.872 -1.64575 1.03659 0
M  V30 2365 C 236.155 0.853483 3.4984 0
M  V30 2366 C 236.008 2.35982 3.82926 0
M  V30 2367 C 237.327 0.348589 4.38717 0
M  V30 2368 H 234.446 0.199626 0.709449 0
M  V30 2369 H 237.088 1.1412 1.5191 0
M  V30 2370 H 235.238 0.34643 3.86952 0
M  V30 2371 H 236.91 2.93738 3.55691 0
M  V30 2372 H 235.153 2.81543 3.30024 0
M  V30 2373 H 235.824 2.52593 4.90816 0
M  V30 2374 H 238.3 0.78294 4.08668 0
M  V30 2375 H 237.176 0.593242 5.45685 0
M  V30 2376 H 237.437 -0.751049 4.35674 0
M  V30 2377 N 236.496 -1.42363 0.676048 0
M  V30 2378 C 237.743 -2.01522 0.19883 0
M  V30 2379 C 238.071 -1.53456 -1.19505 0
M  V30 2380 O 237.326 -0.727967 -1.81657 0
M  V30 2381 C 237.625 -3.56929 0.183431 0
M  V30 2382 C 237.291 -4.24431 1.52215 0
M  V30 2383 C 235.953 -4.42585 1.8887 0
M  V30 2384 C 238.305 -4.62459 2.40377 0
M  V30 2385 C 235.633 -4.96039 3.13309 0
M  V30 2386 C 237.985 -5.17294 3.64129 0
M  V30 2387 C 236.649 -5.33661 4.00951 0
M  V30 2388 H 235.919 -0.737419 0.0727571 0
M  V30 2389 H 238.566 -1.70531 0.871281 0
M  V30 2390 H 236.871 -3.87594 -0.572532 0
M  V30 2391 H 238.568 -4.00486 -0.203035 0
M  V30 2392 H 235.158 -4.10661 1.22701 0
M  V30 2393 H 239.342 -4.48105 2.13343 0
M  V30 2394 H 234.598 -5.06896 3.41857 0
M  V30 2395 H 238.772 -5.45704 4.32644 0
M  V30 2396 H 236.399 -5.74845 4.9745 0
M  V30 2397 N 237.974 -0.419461 -1.51915 0
M  V30 2398 C 239.222 0.152637 -2.01523 0
M  V30 2399 C 239.543 1.44762 -1.30649 0
M  V30 2400 O 238.813 1.90997 -0.435535 0
M  V30 2401 H 237.393 0.0593966 -0.744635 0
M  V30 2402 H 240.055 -0.558073 -1.86739 0
M  V30 2403 H 239.151 0.341369 -3.10227 0
M  V30 2404 N 239.452 1.56882 -0.150215 0
M  V30 2405 C 240.384 2.14057 0.819286 0
M  V30 2406 C 241.397 1.09082 1.20851 0
M  V30 2407 O 242.586 1.36347 1.15203 0
M  V30 2408 C 239.686 2.65102 2.11127 0
M  V30 2409 C 238.859 3.94511 1.88891 0
M  V30 2410 C 237.918 4.30834 3.02107 0
M  V30 2411 O 236.944 4.99099 2.73659 0
M  V30 2412 N 238.146 3.90676 4.29363 0
M  V30 2413 H 240.911 2.97871 0.330618 0
M  V30 2414 H 238.472 1.61866 0.0332538 0
M  V30 2415 H 240.464 2.86411 2.85921 0
M  V30 2416 H 239.034 1.85994 2.51247 0
M  V30 2417 H 238.254 3.81795 0.981152 0
M  V30 2418 H 239.542 4.7907 1.71376 0
M  V30 2419 H 238.94 3.35677 4.55343 0
M  V30 2420 H 237.497 4.1703 5.00928 0
M  V30 2421 N 240.93 -0.123565 1.57115 0
M  V30 2422 C 241.878 -1.17082 2.00984 0
M  V30 2423 C 242.872 -1.43136 0.906009 0
M  V30 2424 O 244.078 -1.43152 1.09121 0
M  V30 2425 H 240.453 -0.394653 0.64012 0
M  V30 2426 H 242.424 -0.774292 2.88179 0
M  V30 2427 C 241.173 -2.49057 2.42623 0
M  V30 2428 H 240.496 -2.29846 3.27125 0
M  V30 2429 H 241.936 -3.20906 2.7712 0
M  V30 2430 C 240.395 -3.11305 1.28805 0
M  V30 2431 O 240.925 -3.97171 0.60153 0
M  V30 2432 N 239.131 -2.71111 1.04628 0
M  V30 2433 H 238.678 -2.01382 1.60634 0
M  V30 2434 H 238.636 -3.1309 0.286685 0
M  V30 2435 N 242.408 -1.52605 -0.393616 0
M  V30 2436 C 243.341 -1.71798 -1.50202 0
M  V30 2437 C 244.319 -0.565743 -1.52441 0
M  V30 2438 O 245.503 -0.794987 -1.70916 0
M  V30 2439 C 242.63 -1.7714 -2.88685 0
M  V30 2440 C 241.676 -2.98845 -3.04292 0
M  V30 2441 S 242.509 -4.58909 -2.75976 0
M  V30 2442 C 243.665 -4.6706 -4.1666 0
M  V30 2443 H 243.898 -2.65542 -1.33696 0
M  V30 2444 H 241.431 -1.42839 -0.586195 0
M  V30 2445 H 243.389 -1.80903 -3.68489 0
M  V30 2446 H 242.05 -0.844969 -3.02521 0
M  V30 2447 H 241.243 -2.99111 -4.05646 0
M  V30 2448 H 240.845 -2.9305 -2.32374 0
M  V30 2449 H 243.137 -4.45391 -5.10523 0
M  V30 2450 H 244.08 -5.6905 -4.21412 0
M  V30 2451 H 244.488 -3.95944 -4.02354 0
M  V30 2452 N 243.887 0.651787 -1.4349 0
M  V30 2453 C 245.134 1.41167 -1.45183 0
M  V30 2454 C 245.462 1.94349 -0.0766601 0
M  V30 2455 O 244.717 1.72804 0.918555 0
M  V30 2456 C 245.016 2.60914 -2.44251 0
M  V30 2457 C 244.682 2.26142 -3.9009 0
M  V30 2458 C 243.344 2.16371 -4.2981 0
M  V30 2459 C 245.696 1.98334 -4.81989 0
M  V30 2460 C 243.024 1.7695 -5.5938 0
M  V30 2461 C 245.376 1.6041 -6.11924 0
M  V30 2462 C 244.04 1.49166 -6.5062 0
M  V30 2463 H 243.31 0.516566 -0.531263 0
M  V30 2464 H 245.957 0.741099 -1.76579 0
M  V30 2465 H 244.262 3.3311 -2.06265 0
M  V30 2466 H 245.959 3.19127 -2.42815 0
M  V30 2467 H 242.549 2.34658 -3.58655 0
M  V30 2468 H 246.733 2.04803 -4.52072 0
M  V30 2469 H 241.989 1.66831 -5.88198 0
M  V30 2470 H 246.163 1.37925 -6.82605 0
M  V30 2471 H 243.79 1.1839 -7.50925 0
M  V30 2472 N 245.365 1.30045 0.890287 0
M  V30 2473 C 246.612 1.18561 1.64163 0
M  V30 2474 C 246.94 -0.260852 1.92743 0
M  V30 2475 O 246.195 -1.20376 1.54299 0
M  V30 2476 C 246.494 1.95409 2.99249 0
M  V30 2477 C 246.16 3.45066 2.90242 0
M  V30 2478 C 244.822 3.85878 2.87492 0
M  V30 2479 C 247.174 4.4039 2.78758 0
M  V30 2480 C 244.502 5.20314 2.7109 0
M  V30 2481 C 246.854 5.74928 2.63894 0
M  V30 2482 C 245.518 6.14986 2.59516 0
M  V30 2483 H 244.788 0.433846 0.600715 0
M  V30 2484 H 247.435 1.61088 1.03552 0
M  V30 2485 H 245.74 1.45501 3.63781 0
M  V30 2486 H 247.437 1.8392 3.56334 0
M  V30 2487 H 244.027 3.12631 2.93189 0
M  V30 2488 H 248.211 4.09806 2.79952 0
M  V30 2489 H 243.467 5.50449 2.66112 0
M  V30 2490 H 247.641 6.48434 2.53981 0
M  V30 2491 H 245.268 7.19104 2.46565 0
M  V30 2492 N 246.843 -1.10192 1.12674 0
M  V30 2493 C 247.793 -2.14754 0.765801 0
M  V30 2494 C 248.777 -1.59154 -0.236409 0
M  V30 2495 O 249.969 -1.76951 -0.0415261 0
M  V30 2496 C 247.098 -3.42563 0.224827 0
M  V30 2497 C 246.184 -4.05091 1.25548 0
M  V30 2498 N 246.575 -4.42287 2.4539 0
M  V30 2499 C 244.873 -4.32186 1.10142 0
M  V30 2500 C 245.574 -4.91441 3.11224 0
M  V30 2501 N 244.55 -4.88405 2.38666 0
M  V30 2502 H 248.352 -2.41309 1.67772 0
M  V30 2503 H 245.866 -1.27339 1.00789 0
M  V30 2504 H 247.863 -4.16868 -0.0519578 0
M  V30 2505 H 246.523 -3.17467 -0.681515 0
M  V30 2506 H 247.534 -4.33902 2.82754 0
M  V30 2507 H 244.211 -4.16735 0.252587 0
M  V30 2508 H 245.601 -5.29749 4.13298 0
M  V30 2509 N 248.321 -0.919034 -1.28029 0
M  V30 2510 C 249.546 -0.570357 -1.99403 0
M  V30 2511 C 249.971 0.842486 -1.68178 0
M  V30 2512 O 249.329 1.56391 -0.917141 0
M  V30 2513 C 249.377 -0.792541 -3.51783 0
M  V30 2514 O 248.481 0.145988 -4.12142 0
M  V30 2515 H 247.822 -0.220555 -0.6263 0
M  V30 2516 H 250.352 -1.23592 -1.63053 0
M  V30 2517 H 250.362 -0.704708 -4.01868 0
M  V30 2518 H 249.037 -1.82247 -3.73844 0
M  V30 2519 H 247.614 0.00897528 -3.72899 0
M  V30 2520 N 249.799 1.42003 -0.683588 0
M  V30 2521 C 250.729 2.33487 -0.024866 0
M  V30 2522 C 251.71 1.51163 0.779975 0
M  V30 2523 O 252.895 1.79739 0.735362 0
M  V30 2524 C 250.025 3.3487 0.920836 0
M  V30 2525 C 248.979 4.27414 0.223958 0
M  V30 2526 C 248.305 5.19074 1.2832 0
M  V30 2527 C 249.605 5.14445 -0.90242 0
M  V30 2528 H 251.299 2.88819 -0.788921 0
M  V30 2529 H 248.845 1.38873 -0.38083 0
M  V30 2530 H 250.798 3.97787 1.39081 0
M  V30 2531 H 249.522 2.77861 1.71642 0
M  V30 2532 H 248.181 3.65904 -0.225864 0
M  V30 2533 H 247.829 4.58387 2.071 0
M  V30 2534 H 247.529 5.81822 0.821995 0
M  V30 2535 H 249.053 5.84867 1.75392 0
M  V30 2536 H 250.467 5.70998 -0.513272 0
M  V30 2537 H 248.864 5.86072 -1.28997 0
M  V30 2538 H 249.934 4.52322 -1.74737 0
M  V30 2539 N 251.277 0.427512 1.51691 0
M  V30 2540 C 252.525 -0.141948 2.01601 0
M  V30 2541 C 252.846 -1.44067 1.31414 0
M  V30 2542 O 252.116 -1.90763 0.445658 0
M  V30 2543 H 250.696 -0.0554468 0.744939 0
M  V30 2544 H 253.358 0.567968 1.86441 0
M  V30 2545 H 252.454 -0.324913 3.10404 0
M  V30 2546 N 252.755 -1.56801 0.158532 0
M  V30 2547 C 254.171 -1.5837 -0.197774 0
M  V30 2548 C 254.371 -1.17334 -1.63814 0
M  V30 2549 O 253.427 -0.878988 -2.36707 0
M  V30 2550 C 254.74 -3.00615 0.0714459 0
M  V30 2551 C 256.288 -3.12999 0.00864533 0
M  V30 2552 C 256.763 -4.57313 0.250685 0
M  V30 2553 N 258.254 -4.62777 0.198014 0
M  V30 2554 C 258.989 -5.72271 0.359642 0
M  V30 2555 N 258.485 -6.90371 0.579625 0
M  V30 2556 N 260.278 -5.61318 0.296438 0
M  V30 2557 H 252.429 -1.81765 1.09887 0
M  V30 2558 H 254.692 -0.841849 0.435884 0
M  V30 2559 H 254.398 -3.35068 1.06874 0
M  V30 2560 H 254.272 -3.71683 -0.642757 0
M  V30 2561 H 256.659 -2.7838 -0.979217 0
M  V30 2562 H 256.74 -2.44393 0.755359 0
M  V30 2563 H 256.384 -4.92639 1.2357 0
M  V30 2564 H 256.314 -5.24061 -0.516489 0
M  V30 2565 H 258.805 -3.77885 0.0331115 0
M  V30 2566 H 259.118 -7.69689 0.69275 0
M  V30 2567 H 257.463 -6.92264 0.616087 0
M  V30 2568 H 260.654 -4.67932 0.125258 0
M  V30 2569 H 260.827 -6.46599 0.425831 0
M  V30 2570 N 254.233 0.115231 -1.57178 0
M  V30 2571 C 255.458 0.840354 -1.89612 0
M  V30 2572 C 255.883 1.72464 -0.750845 0
M  V30 2573 O 255.241 1.78826 0.298478 0
M  V30 2574 C 255.289 1.64654 -3.20814 0
M  V30 2575 O 254.393 2.7538 -3.06985 0
M  V30 2576 H 253.734 0.232158 -0.622092 0
M  V30 2577 H 256.264 0.0964977 -2.04372 0
M  V30 2578 H 256.274 2.03499 -3.53627 0
M  V30 2579 H 254.949 0.997416 -4.03763 0
M  V30 2580 H 253.526 2.3971 -2.85646 0
M  V30 2581 N 255.711 1.52812 0.385517 0
M  V30 2582 C 256.959 1.67694 1.12797 0
M  V30 2583 C 257.28 0.421115 1.90399 0
M  V30 2584 O 256.55 -0.564551 1.87589 0
M  V30 2585 H 255.13 0.618155 0.419396 0
M  V30 2586 H 257.792 1.89938 0.436972 0
M  V30 2587 H 256.888 2.52896 1.82894 0
M  V30 2588 N 257.189 -0.644168 1.43834 0
M  V30 2589 C 258.419 -1.42939 1.49171 0
M  V30 2590 C 258.827 -1.88874 0.111048 0
M  V30 2591 O 258.17 -1.60656 -0.8908 0
M  V30 2592 C 258.232 -2.69151 2.38324 0
M  V30 2593 C 257.896 -2.45097 3.85715 0
M  V30 2594 C 258.893 -2.07747 4.76589 0
M  V30 2595 C 256.578 -2.59141 4.30292 0
M  V30 2596 C 258.572 -1.8475 6.10038 0
M  V30 2597 C 256.259 -2.35759 5.63792 0
M  V30 2598 C 257.257 -1.9862 6.53482 0
M  V30 2599 O 256.945 -1.75489 7.84512 0
M  V30 2600 H 256.677 -0.445271 0.508635 0
M  V30 2601 H 259.231 -0.79621 1.8934 0
M  V30 2602 H 257.461 -3.3506 1.93058 0
M  V30 2603 H 259.15 -3.31123 2.3476 0
M  V30 2604 H 259.916 -1.96465 4.43426 0
M  V30 2605 H 255.795 -2.87022 3.60749 0
M  V30 2606 H 259.339 -1.55686 6.80006 0
M  V30 2607 H 255.236 -2.46646 5.9652 0
M  V30 2608 H 256.004 -1.89841 7.9618 0
M  V30 2609 N 258.668 -1.30515 -0.883378 0
M  V30 2610 C 259.896 -1.22359 -1.66841 0
M  V30 2611 C 260.311 0.213296 -1.87591 0
M  V30 2612 O 259.668 1.14075 -1.42454 0
M  V30 2613 C 259.719 -1.95011 -3.04389 0
M  V30 2614 O 259.44 -3.3309 -2.84575 0
M  V30 2615 C 260.941 -1.93532 -3.98824 0
M  V30 2616 H 258.161 -0.423371 -0.520575 0
M  V30 2617 H 260.705 -1.72167 -1.10357 0
M  V30 2618 H 258.86 -1.48997 -3.57601 0
M  V30 2619 H 259.274 -3.69907 -3.71846 0
M  V30 2620 H 260.748 -2.48902 -4.92699 0
M  V30 2621 H 261.225 -0.914627 -4.29571 0
M  V30 2622 H 261.831 -2.39364 -3.51547 0
M  V30 2623 N 260.146 1.09593 -1.13257 0
M  V30 2624 C 261.392 1.82003 -0.89458 0
M  V30 2625 C 261.725 1.85402 0.577906 0
M  V30 2626 O 261 1.32099 1.42759 0
M  V30 2627 C 261.283 3.28237 -1.48096 0
M  V30 2628 C 261.136 3.3312 -3.02244 0
M  V30 2629 C 262.455 4.24871 -1.14774 0
M  V30 2630 H 259.574 0.66077 -0.326424 0
M  V30 2631 H 262.216 1.28389 -1.40058 0
M  V30 2632 H 260.366 3.74024 -1.05062 0
M  V30 2633 H 262.038 2.95748 -3.54021 0
M  V30 2634 H 260.281 2.72756 -3.37323 0
M  V30 2635 H 260.952 4.3613 -3.38371 0
M  V30 2636 H 263.428 3.87361 -1.51957 0
M  V30 2637 H 262.304 5.25532 -1.58452 0
M  V30 2638 H 262.565 4.42058 -0.0611849 0
M  V30 2639 N 261.624 0.925811 1.2754 0
M  V30 2640 C 262.574 0.394488 2.24561 0
M  V30 2641 C 263.558 -0.500183 1.52928 0
M  V30 2642 O 264.75 -0.337936 1.73744 0
M  V30 2643 C 261.879 -0.353328 3.41477 0
M  V30 2644 C 260.965 0.557752 4.20416 0
M  V30 2645 N 261.356 1.67674 4.77199 0
M  V30 2646 C 259.654 0.360404 4.44541 0
M  V30 2647 C 260.355 2.24324 5.36706 0
M  V30 2648 N 259.331 1.53305 5.21535 0
M  V30 2649 H 263.133 1.2489 2.66045 0
M  V30 2650 H 260.647 0.779864 1.4245 0
M  V30 2651 H 262.644 -0.7509 4.10082 0
M  V30 2652 H 261.304 -1.20469 3.01525 0
M  V30 2653 H 262.315 2.05915 4.75204 0
M  V30 2654 H 258.992 -0.450454 4.15063 0
M  V30 2655 H 260.382 3.18521 5.91603 0
M  V30 2656 N 263.102 -1.41638 0.69111 0
M  V30 2657 C 264.348 -2.01598 0.220519 0
M  V30 2658 C 264.681 -1.54594 -1.17535 0
M  V30 2659 O 263.956 -0.755177 -1.79241 0
M  V30 2660 C 264.239 -3.59062 0.273243 0
M  V30 2661 C 264.092 -4.16203 1.70573 0
M  V30 2662 C 265.411 -4.38546 -0.369457 0
M  V30 2663 H 262.53 -0.732468 0.0816045 0
M  V30 2664 H 265.172 -1.68445 0.878986 0
M  V30 2665 H 263.322 -3.87435 -0.287411 0
M  V30 2666 H 264.994 -3.98722 2.31989 0
M  V30 2667 H 263.237 -3.71414 2.2413 0
M  V30 2668 H 263.908 -5.25358 1.69419 0
M  V30 2669 H 266.384 -4.1596 0.107977 0
M  V30 2670 H 265.26 -5.48069 -0.302002 0
M  V30 2671 H 265.521 -4.17662 -1.44951 0
M  V30 2672 N 264.58 -0.43555 -1.51462 0
M  V30 2673 C 265.512 0.41257 -2.25456 0
M  V30 2674 C 266.525 0.987822 -1.29406 0
M  V30 2675 O 267.714 0.882266 -1.55172 0
M  V30 2676 C 264.814 1.58894 -2.99342 0
M  V30 2677 C 263.987 1.13288 -4.22474 0
M  V30 2678 C 263.046 2.17917 -4.78956 0
M  V30 2679 O 262.072 1.77425 -5.40841 0
M  V30 2680 N 263.274 3.50382 -4.62832 0
M  V30 2681 H 266.039 -0.221603 -2.9888 0
M  V30 2682 H 263.6 -0.264342 -1.59727 0
M  V30 2683 H 265.592 2.28508 -3.34015 0
M  V30 2684 H 264.162 2.12849 -2.28941 0
M  V30 2685 H 263.382 0.263881 -3.93316 0
M  V30 2686 H 264.67 0.805542 -5.02383 0
M  V30 2687 H 264.068 3.86013 -4.13534 0
M  V30 2688 H 262.625 4.15895 -5.01871 0
M  V30 2689 N 266.058 1.56714 -0.166846 0
M  V30 2690 C 267.298 1.98641 0.481763 0
M  V30 2691 C 267.662 1.05038 1.6072 0
M  V30 2692 O 268.863 1.36087 2.31805 0
M  V30 2693 C 267.134 3.44362 0.956517 0
M  V30 2694 S 268.693 4.08317 1.60694 0
M  V30 2695 H 265.511 0.693873 0.155116 0
M  V30 2696 H 268.113 1.93719 -0.263251 0
M  V30 2697 H 266.817 4.10204 0.126936 0
M  V30 2698 H 266.348 3.53041 1.73568 0
M  V30 2699 H 268.363 4.02999 2.89494 0
M  V30 2700 N 267.536 -0.106894 1.57237 0
M  V30 2701 C 268.484 -1.14944 2.02215 0
M  V30 2702 C 269.478 -1.42167 0.92114 0
M  V30 2703 O 270.684 -1.41987 1.10634 0
M  V30 2704 H 267.059 -0.387841 0.64427 0
M  V30 2705 H 269.03 -0.743683 2.88984 0
M  V30 2706 C 267.779 -2.4647 2.4525 0
M  V30 2707 H 267.102 -2.26363 3.29545 0
M  V30 2708 H 268.542 -3.17948 2.80508 0
M  V30 2709 C 267.001 -3.09921 1.321 0
M  V30 2710 O 267.531 -3.9651 0.643622 0
M  V30 2711 N 265.737 -2.69986 1.07497 0
M  V30 2712 H 265.284 -1.99667 1.62761 0
M  V30 2713 H 265.242 -3.12769 0.319876 0
M  V30 2714 N 269.014 -1.53014 -0.377408 0
M  V30 2715 C 269.977 -1.77957 -1.44444 0
M  V30 2716 C 270.977 -0.649763 -1.47087 0
M  V30 2717 O 272.167 -0.917897 -1.48055 0
M  V30 2718 C 269.299 -1.89089 -2.83651 0
M  V30 2719 H 270.492 -2.73243 -1.23606 0
M  V30 2720 H 268.045 -1.43912 -0.609844 0
M  V30 2721 H 268.78 -0.958293 -3.09818 0
M  V30 2722 H 268.565 -2.71254 -2.83132 0
M  V30 2723 H 270.055 -2.1002 -3.60945 0
M  V30 2724 N 270.492 0.636531 -1.44174 0
M  V30 2725 C 271.72 1.42353 -1.50144 0
M  V30 2726 C 272.135 1.88389 -0.124575 0
M  V30 2727 O 271.492 1.6051 0.868489 0
M  V30 2728 C 271.543 2.64744 -2.46156 0
M  V30 2729 O 271.264 2.20629 -3.7849 0
M  V30 2730 C 272.765 3.57929 -2.61537 0
M  V30 2731 H 269.985 0.436752 -0.5094 0
M  V30 2732 H 272.529 0.778933 -1.89084 0
M  V30 2733 H 270.684 3.25307 -2.10366 0
M  V30 2734 H 271.098 2.99938 -4.30276 0
M  V30 2735 H 272.572 4.40428 -3.32757 0
M  V30 2736 H 273.049 4.06382 -1.66585 0
M  V30 2737 H 273.655 3.03238 -2.98206 0
M  V30 2738 N 271.97 1.30982 0.876444 0
M  V30 2739 C 272.917 1.18085 1.98304 0
M  V30 2740 C 273.887 0.0682263 1.6596 0
M  V30 2741 O 275.072 0.239937 1.89285 0
M  V30 2742 C 272.212 0.887475 3.33493 0
M  V30 2743 C 271.325 2.08281 3.78475 0
M  V30 2744 C 270.46 1.72678 5.0235 0
M  V30 2745 C 269.499 2.88657 5.39762 0
M  V30 2746 N 268.636 2.53292 6.54819 0
M  V30 2747 H 273.476 2.1275 2.08666 0
M  V30 2748 H 271.013 1.05839 1.02159 0
M  V30 2749 H 272.971 0.697961 4.1132 0
M  V30 2750 H 271.601 -0.022315 3.22792 0
M  V30 2751 H 270.653 2.3833 2.96484 0
M  V30 2752 H 271.965 2.95108 4.02135 0
M  V30 2753 H 271.119 1.50151 5.87826 0
M  V30 2754 H 269.858 0.830327 4.8058 0
M  V30 2755 H 268.863 3.1184 4.52809 0
M  V30 2756 H 270.088 3.79002 5.63502 0
M  V30 2757 H 268.034 1.66163 6.34607 0
M  V30 2758 H 267.951 3.3365 6.7839 0
M  V30 2759 H 269.219 2.34143 7.43503 0
M  V30 2760 N 273.449 -1.08991 1.13837 0
M  V30 2761 C 274.696 -1.81258 0.902882 0
M  V30 2762 C 275.024 -1.85936 -0.570803 0
M  V30 2763 O 274.279 -1.3267 -1.43865 0
M  V30 2764 C 274.578 -3.27042 1.44147 0
M  V30 2765 C 274.244 -3.4249 2.93276 0
M  V30 2766 C 272.906 -3.46414 3.33992 0
M  V30 2767 C 275.258 -3.4666 3.892 0
M  V30 2768 C 272.586 -3.52091 4.69307 0
M  V30 2769 C 274.938 -3.53872 5.24364 0
M  V30 2770 C 273.602 -3.56066 5.646 0
M  V30 2771 H 272.872 -0.663268 0.330388 0
M  V30 2772 H 275.519 -1.28368 1.42105 0
M  V30 2773 H 273.824 -3.82599 0.844097 0
M  V30 2774 H 275.521 -3.81499 1.23528 0
M  V30 2775 H 272.111 -3.40124 2.60794 0
M  V30 2776 H 276.295 -3.42865 3.58828 0
M  V30 2777 H 271.551 -3.52079 4.9985 0
M  V30 2778 H 275.725 -3.56043 5.98503 0
M  V30 2779 H 273.352 -3.60218 6.69438 0
M  V30 2780 N 274.927 -0.932562 -1.27047 0
M  V30 2781 C 275.877 -0.406392 -2.24349 0
M  V30 2782 C 276.861 0.492066 -1.53191 0
M  V30 2783 O 278.053 0.328717 -1.73921 0
M  V30 2784 C 275.182 0.335214 -3.41659 0
M  V30 2785 C 274.268 -0.58004 -4.20115 0
M  V30 2786 N 274.659 -1.70203 -4.76303 0
M  V30 2787 C 272.957 -0.383974 -4.44344 0
M  V30 2788 C 273.658 -2.27167 -5.35509 0
M  V30 2789 N 272.634 -1.56068 -5.20715 0
M  V30 2790 H 276.436 -1.26299 -2.65378 0
M  V30 2791 H 273.95 -0.787408 -1.42034 0
M  V30 2792 H 275.947 0.729142 -4.10474 0
M  V30 2793 H 274.607 1.18868 -3.0216 0
M  V30 2794 H 275.618 -2.08433 -4.74106 0
M  V30 2795 H 272.295 0.428436 -4.15296 0
M  V30 2796 H 273.685 -3.21654 -5.89905 0
M  V30 2797 N 276.405 1.4127 -0.698611 0
M  V30 2798 C 277.63 2.06024 -0.238512 0
M  V30 2799 C 278.055 1.5224 1.10475 0
M  V30 2800 O 277.413 0.650623 1.69223 0
M  V30 2801 C 277.461 3.59988 -0.209952 0
M  V30 2802 O 276.565 4.04282 0.814235 0
M  V30 2803 H 275.906 0.653829 -0.115775 0
M  V30 2804 H 278.436 1.8098 -0.954326 0
M  V30 2805 H 278.446 4.07979 -0.0418436 0
M  V30 2806 H 277.121 3.98503 -1.1903 0
M  V30 2807 H 275.698 3.6779 0.615234 0
M  V30 2808 N 277.883 0.443576 1.51229 0
M  V30 2809 C 279.131 -0.120557 2.0174 0
M  V30 2810 C 279.452 -1.42665 1.32935 0
M  V30 2811 O 278.722 -1.9028 0.465866 0
M  V30 2812 H 277.302 -0.0475426 0.745486 0
M  V30 2813 H 279.964 0.587711 1.85828 0
M  V30 2814 H 279.06 -0.291972 3.10731 0
M  V30 2815 N 279.361 -1.56624 0.175154 0
M  V30 2816 C 280.601 -1.98894 -0.471221 0
M  V30 2817 C 280.965 -1.05889 -1.60161 0
M  V30 2818 O 282.166 -1.37315 -2.3108 0
M  V30 2819 C 280.437 -3.44865 -0.938241 0
M  V30 2820 S 281.996 -4.09164 -1.58526 0
M  V30 2821 H 278.814 -0.694686 -0.151434 0
M  V30 2822 H 281.416 -1.93577 0.27352 0
M  V30 2823 H 280.12 -4.10265 -0.10518 0
M  V30 2824 H 279.651 -3.53956 -1.71693 0
M  V30 2825 H 281.666 -4.04528 -2.87352 0
M  V30 2826 N 280.839 0.0985539 -1.57292 0
M  V30 2827 C 281.769 1.12064 -2.04851 0
M  V30 2828 C 282.75 1.41981 -0.936767 0
M  V30 2829 O 283.935 1.52071 -1.20781 0
M  V30 2830 C 281.065 2.44144 -2.47004 0
M  V30 2831 C 280.019 2.28643 -3.6181 0
M  V30 2832 C 279.345 3.65869 -3.89929 0
M  V30 2833 C 280.645 1.72986 -4.92822 0
M  V30 2834 H 282.339 0.724979 -2.9049 0
M  V30 2835 H 279.885 0.34729 -1.39749 0
M  V30 2836 H 281.838 3.15914 -2.78884 0
M  V30 2837 H 280.562 2.85639 -1.5836 0
M  V30 2838 H 279.221 1.59318 -3.30172 0
M  V30 2839 H 278.869 4.04885 -2.98458 0
M  V30 2840 H 278.569 3.56344 -4.67218 0
M  V30 2841 H 280.093 4.39112 -4.2428 0
M  V30 2842 H 281.507 2.34593 -5.23105 0
M  V30 2843 H 279.904 1.74229 -5.74251 0
M  V30 2844 H 280.974 0.689007 -4.7998 0
M  V30 2845 N 282.317 1.53212 0.369288 0
M  V30 2846 C 283.247 1.82365 1.45826 0
M  V30 2847 C 284.228 0.676907 1.56051 0
M  V30 2848 O 285.413 0.926401 1.70679 0
M  V30 2849 C 282.543 2.01023 2.83208 0
M  V30 2850 C 281.497 3.1678 2.8781 0
M  V30 2851 C 280.823 3.20724 4.27832 0
M  V30 2852 C 282.123 4.55447 2.55667 0
M  V30 2853 H 283.817 2.73559 1.21678 0
M  V30 2854 H 281.363 1.3163 0.583911 0
M  V30 2855 H 283.316 2.20001 3.59413 0
M  V30 2856 H 282.04 1.06536 3.08736 0
M  V30 2857 H 280.699 2.97616 2.14056 0
M  V30 2858 H 280.347 2.23882 4.50429 0
M  V30 2859 H 280.047 3.98496 4.31827 0
M  V30 2860 H 281.571 3.41881 5.05915 0
M  V30 2861 H 282.985 4.74611 3.21586 0
M  V30 2862 H 281.382 5.35432 2.70984 0
M  V30 2863 H 282.452 4.60812 1.5093 0
M  V30 2864 N 283.795 -0.628877 1.44509 0
M  V30 2865 C 285.041 -1.39045 1.47629 0
M  V30 2866 C 285.374 -1.93892 0.109343 0
M  V30 2867 O 284.649 -1.7379 -0.87334 0
M  V30 2868 C 284.932 -2.55408 2.53848 0
M  V30 2869 C 284.785 -2.05896 3.99909 0
M  V30 2870 C 286.104 -3.5759 2.56549 0
M  V30 2871 H 283.223 -0.504232 0.537512 0
M  V30 2872 H 285.865 -0.710854 1.76201 0
M  V30 2873 H 284.015 -3.13384 2.29615 0
M  V30 2874 H 285.687 -1.52734 4.35282 0
M  V30 2875 H 283.93 -1.37061 4.11578 0
M  V30 2876 H 284.601 -2.89681 4.69882 0
M  V30 2877 H 287.077 -3.09419 2.78207 0
M  V30 2878 H 285.953 -4.36527 3.32769 0
M  V30 2879 H 286.214 -4.11808 1.60832 0
M  V30 2880 N 285.273 -1.31445 -0.869486 0
M  V30 2881 C 286.519 -1.21337 -1.62496 0
M  V30 2882 C 286.852 0.227872 -1.92858 0
M  V30 2883 O 286.127 1.16094 -1.56053 0
M  V30 2884 C 286.41 -2.05814 -2.95487 0
M  V30 2885 C 286.263 -3.5824 -2.72 0
M  V30 2886 C 287.582 -1.9079 -3.96594 0
M  V30 2887 H 284.701 -0.442135 -0.589649 0
M  V30 2888 H 287.343 -1.6124 -1.00507 0
M  V30 2889 H 285.493 -1.71913 -3.48394 0
M  V30 2890 H 287.165 -4.0228 -2.25762 0
M  V30 2891 H 285.408 -3.81647 -2.06224 0
M  V30 2892 H 286.079 -4.12657 -3.66631 0
M  V30 2893 H 288.555 -2.20459 -3.52898 0
M  V30 2894 H 287.431 -2.52199 -4.87531 0
M  V30 2895 H 287.692 -0.871341 -4.33428 0
M  V30 2896 N 286.751 1.08385 -1.14413 0
M  V30 2897 C 287.997 1.81044 -0.913834 0
M  V30 2898 C 288.33 1.86004 0.558209 0
M  V30 2899 O 287.605 1.33606 1.4135 0
M  V30 2900 C 287.888 3.26648 -1.51569 0
M  V30 2901 C 287.741 3.29895 -3.0576 0
M  V30 2902 C 289.06 4.23629 -1.19273 0
M  V30 2903 H 286.179 0.65727 -0.333414 0
M  V30 2904 H 288.821 1.26896 -1.41412 0
M  V30 2905 H 286.971 3.72889 -1.09023 0
M  V30 2906 H 288.643 2.91977 -3.57137 0
M  V30 2907 H 286.886 2.69163 -3.40197 0
M  V30 2908 H 287.557 4.32516 -3.42977 0
M  V30 2909 H 290.033 3.85727 -1.56057 0
M  V30 2910 H 288.909 5.23822 -1.64017 0
M  V30 2911 H 289.17 4.41968 -0.108068 0
M  V30 2912 N 288.23 0.939286 1.26551 0
M  V30 2913 C 289.479 0.581601 1.93133 0
M  V30 2914 C 289.792 -0.883224 1.74524 0
M  V30 2915 O 290.998 -1.3502 2.35546 0
M  V30 2916 C 289.454 0.989425 3.46032 0
M  V30 2917 C 289.062 2.47573 3.73379 0
M  V30 2918 C 290.806 0.703544 4.18629 0
M  V30 2919 C 288.713 2.82235 5.19709 0
M  V30 2920 H 287.643 0.213803 0.723052 0
M  V30 2921 H 290.294 1.14167 1.4366 0
M  V30 2922 H 288.676 0.357902 3.94379 0
M  V30 2923 H 289.85 3.15614 3.35744 0
M  V30 2924 H 288.165 2.73471 3.1401 0
M  V30 2925 H 290.762 0.938869 5.26393 0
M  V30 2926 H 291.105 -0.359639 4.14744 0
M  V30 2927 H 291.638 1.2947 3.76141 0
M  V30 2928 H 288.377 3.87509 5.28694 0
M  V30 2929 H 287.897 2.18854 5.58447 0
M  V30 2930 H 289.576 2.70599 5.87695 0
M  V30 2931 N 289.708 -1.40897 0.706093 0
M  V30 2932 C 291.119 -1.84023 0.315052 0
M  V30 2933 C 291.47 -1.5906 -1.14866 0
M  V30 2934 O 290.595 -1.06651 -1.88293 0
M  V30 2935 C 291.19 -3.34055 0.565038 0
M  V30 2936 C 289.749 -3.7571 0.227806 0
M  V30 2937 C 288.896 -2.64204 0.842122 0
M  V30 2938 H 291.847 -1.303 0.905963 0
M  V30 2939 H 291.868 -3.80107 -0.172843 0
M  V30 2940 H 291.38 -3.52192 1.63042 0
M  V30 2941 H 289.481 -3.63172 -0.832895 0
M  V30 2942 H 289.594 -4.74103 0.690174 0
M  V30 2943 H 287.958 -2.53255 0.270893 0
M  V30 2944 H 288.741 -2.85155 1.91158 0
M  V30 2945 N 291.186 -0.45159 -1.50991 0
M  V30 2946 C 292.096 0.358431 -2.31846 0
M  V30 2947 C 293.112 1.01438 -1.41373 0
M  V30 2948 O 294.288 1.00663 -1.74439 0
M  V30 2949 C 291.353 1.43704 -3.15515 0
M  V30 2950 C 290.414 0.799742 -4.21785 0
M  V30 2951 C 289.647 1.82696 -5.01456 0
M  V30 2952 O 289.87 3.05105 -4.81941 0
M  V30 2953 O 288.804 1.40958 -5.85162 0
M  V30 2954 H 292.63 -0.302032 -3.02194 0
M  V30 2955 H 290.215 -0.213825 -1.47862 0
M  V30 2956 H 292.097 2.06227 -3.67489 0
M  V30 2957 H 290.772 2.08133 -2.47916 0
M  V30 2958 H 289.679 0.136084 -3.73852 0
M  V30 2959 H 291.012 0.198718 -4.91799 0
M  V30 2960 N 292.664 1.56529 -0.183458 0
M  V30 2961 C 293.614 2.1515 0.754605 0
M  V30 2962 C 294.598 1.08904 1.18443 0
M  V30 2963 O 295.79 1.34997 1.14476 0
M  V30 2964 C 292.919 2.80531 1.97881 0
M  V30 2965 C 292.005 3.93952 1.57043 0
M  V30 2966 N 292.396 4.98221 0.87231 0
M  V30 2967 C 290.694 4.05338 1.86057 0
M  V30 2968 C 291.395 5.77836 0.669377 0
M  V30 2969 N 290.371 5.29858 1.21454 0
M  V30 2970 H 294.173 2.93132 0.212387 0
M  V30 2971 H 291.687 1.62391 0.0167725 0
M  V30 2972 H 293.684 3.20914 2.6612 0
M  V30 2973 H 292.344 2.04035 2.52586 0
M  V30 2974 H 293.355 5.15191 0.529033 0
M  V30 2975 H 290.032 3.39957 2.42354 0
M  V30 2976 H 291.422 6.71799 0.116422 0
M  V30 2977 N 294.142 -0.090211 1.57342 0
M  V30 2978 C 295.074 -1.13541 1.99101 0
M  V30 2979 C 296.087 -1.3604 0.894258 0
M  V30 2980 O 297.276 -1.34606 1.17233 0
M  V30 2981 C 294.376 -2.49001 2.29895 0
M  V30 2982 C 293.549 -2.46712 3.61182 0
M  V30 2983 C 292.608 -3.64136 3.79857 0
M  V30 2984 O 291.634 -3.46405 4.51655 0
M  V30 2985 N 292.836 -4.83802 3.20806 0
M  V30 2986 H 295.601 -0.779942 2.89373 0
M  V30 2987 H 293.162 -0.279125 1.59476 0
M  V30 2988 H 295.154 -3.26166 2.39578 0
M  V30 2989 H 293.724 -2.76619 1.45605 0
M  V30 2990 H 292.944 -1.55058 3.62423 0
M  V30 2991 H 294.232 -2.42265 4.4742 0
M  V30 2992 H 293.63 -5.01112 2.62494 0
M  V30 2993 H 292.187 -5.58543 3.35966 0
M  V30 2994 N 295.62 -1.53406 -0.361157 0
M  V30 2995 C 296.55 -1.83136 -1.44857 0
M  V30 2996 C 297.531 -0.685174 -1.5569 0
M  V30 2997 O 298.716 -0.93544 -1.70186 0
M  V30 2998 C 295.846 -2.02522 -2.82138 0
M  V30 2999 C 294.8 -3.18302 -2.86126 0
M  V30 3000 C 294.126 -3.22989 -4.26125 0
M  V30 3001 C 295.426 -4.56796 -2.53248 0
M  V30 3002 H 297.12 -2.74201 -1.20226 0
M  V30 3003 H 294.666 -1.31938 -0.576922 0
M  V30 3004 H 296.619 -2.21904 -3.58241 0
M  V30 3005 H 295.343 -1.08172 -3.08166 0
M  V30 3006 H 294.002 -2.98747 -2.12475 0
M  V30 3007 H 293.65 -2.26267 -4.49235 0
M  V30 3008 H 293.35 -4.00781 -4.29708 0
M  V30 3009 H 294.874 -3.44559 -5.04094 0
M  V30 3010 H 296.288 -4.7631 -3.19064 0
M  V30 3011 H 294.685 -5.36862 -2.68141 0
M  V30 3012 H 295.755 -4.61606 -1.48484 0
M  V30 3013 N 297.098 0.621204 -1.44841 0
M  V30 3014 C 298.061 1.71459 -1.521 0
M  V30 3015 C 299.061 1.55696 -0.401933 0
M  V30 3016 O 300.251 1.61011 -0.664925 0
M  V30 3017 C 297.383 3.10624 -1.40447 0
M  V30 3018 H 298.576 1.66394 -2.49506 0
M  V30 3019 H 296.129 0.835745 -1.3208 0
M  V30 3020 H 296.864 3.21277 -0.441737 0
M  V30 3021 H 296.649 3.23473 -2.21602 0
M  V30 3022 H 298.139 3.90293 -1.4853 0
M  V30 3023 N 298.576 1.31904 0.862503 0
M  V30 3024 C 299.801 1.25135 1.65397 0
M  V30 3025 C 300.226 -0.179 1.87246 0
M  V30 3026 O 299.584 -1.1277 1.4196 0
M  V30 3027 C 299.632 2.00832 2.99498 0
M  V30 3028 O 298.736 1.35075 3.89652 0
M  V30 3029 H 298.077 0.431655 0.504549 0
M  V30 3030 H 300.607 1.74094 1.07483 0
M  V30 3031 H 300.617 2.10709 3.49379 0
M  V30 3032 H 299.292 3.04847 2.82916 0
M  V30 3033 H 297.869 1.33696 3.48109 0
M  V30 3034 N 300.054 -1.07777 1.14986 0
M  V30 3035 C 301.004 -2.13082 0.811181 0
M  V30 3036 C 301.988 -1.59619 -0.202597 0
M  V30 3037 O 303.18 -1.77 -0.00398275 0
M  V30 3038 C 300.309 -3.42009 0.297439 0
M  V30 3039 C 299.395 -4.02337 1.34112 0
M  V30 3040 N 299.786 -4.36982 2.54716 0
M  V30 3041 C 298.084 -4.29752 1.19285 0
M  V30 3042 C 298.785 -4.84729 3.21578 0
M  V30 3043 N 297.761 -4.83233 2.48972 0
M  V30 3044 H 301.563 -2.37696 1.72853 0
M  V30 3045 H 299.077 -1.25173 1.03468 0
M  V30 3046 H 301.074 -4.16884 0.0364777 0
M  V30 3047 H 299.734 -3.18841 -0.614022 0
M  V30 3048 H 300.745 -4.27807 2.91894 0
M  V30 3049 H 297.422 -4.16106 0.340926 0
M  V30 3050 H 298.812 -5.20863 4.24442 0
M  V30 3051 N 301.532 -0.945985 -1.26051 0
M  V30 3052 C 302.442 -0.465633 -2.29933 0
M  V30 3053 C 303.458 0.462761 -1.67733 0
M  V30 3054 O 304.634 0.341118 -1.9849 0
M  V30 3055 C 301.699 0.256994 -3.45746 0
M  V30 3056 C 300.76 -0.708549 -4.23412 0
M  V30 3057 C 299.993 -0.0203135 -5.33696 0
M  V30 3058 O 300.216 1.19571 -5.57726 0
M  V30 3059 O 299.15 -0.701459 -5.97799 0
M  V30 3060 H 302.976 -1.32866 -2.73094 0
M  V30 3061 H 300.561 -0.712071 -1.31339 0
M  V30 3062 H 302.443 0.663852 -4.16138 0
M  V30 3063 H 301.118 1.09533 -3.04605 0
M  V30 3064 H 300.025 -1.16545 -3.55483 0
M  V30 3065 H 301.358 -1.51465 -4.68315 0
M  V30 3066 N 303.011 1.40521 -0.713556 0
M  V30 3067 C 304.259 2.00527 -0.251692 0
M  V30 3068 C 304.58 1.56857 1.15848 0
M  V30 3069 O 303.85 0.807127 1.785 0
M  V30 3070 H 302.43 0.741551 -0.0900646 0
M  V30 3071 H 305.092 1.71887 -0.918733 0
M  V30 3072 H 304.188 3.10813 -0.283192 0
M  V30 3073 N 304.489 0.459591 1.5075 0
M  V30 3074 C 305.737 -0.0991532 2.01857 0
M  V30 3075 C 306.058 -1.41247 1.34441 0
M  V30 3076 O 305.328 -1.89775 0.486022 0
M  V30 3077 H 303.908 -0.039633 0.745948 0
M  V30 3078 H 306.57 0.607387 1.85194 0
M  V30 3079 H 305.666 -0.258998 3.11023 0
M  V30 3080 N 305.967 -1.56429 0.191757 0
M  V30 3081 C 306.915 -2.20273 -0.747174 0
M  V30 3082 C 307.909 -1.17288 -1.22229 0
M  V30 3083 O 309.115 -1.35441 -1.18557 0
M  V30 3084 H 305.49 -0.705885 -0.259289 0
M  V30 3085 H 307.461 -2.97826 -0.184963 0
M  V30 3086 C 306.21 -2.87356 -1.95759 0
M  V30 3087 H 305.533 -3.66341 -1.60106 0
M  V30 3088 H 306.973 -3.3547 -2.59299 0
M  V30 3089 C 305.432 -1.88213 -2.79423 0
M  V30 3090 O 305.962 -1.38033 -3.7724 0
M  V30 3091 N 304.168 -1.56516 -2.44849 0
M  V30 3092 H 303.715 -1.97516 -1.65364 0
M  V30 3093 H 303.673 -0.904369 -3.01112 0
M  V30 3094 N 307.445 0.0818655 -1.57387 0
M  V30 3095 C 308.691 0.784074 -1.8703 0
M  V30 3096 C 309.024 1.77729 -0.782689 0
M  V30 3097 O 308.299 1.93384 0.208051 0
M  V30 3098 C 308.582 1.50105 -3.27323 0
M  V30 3099 C 308.435 0.524925 -4.46727 0
M  V30 3100 C 309.754 2.44843 -3.65705 0
M  V30 3101 H 306.873 0.283582 -0.680257 0
M  V30 3102 H 309.515 0.0474352 -1.89941 0
M  V30 3103 H 307.665 2.12897 -3.24972 0
M  V30 3104 H 309.337 -0.0970111 -4.61198 0
M  V30 3105 H 307.58 -0.160606 -4.33503 0
M  V30 3106 H 308.251 1.064 -5.41648 0
M  V30 3107 H 310.727 1.92135 -3.69085 0
M  V30 3108 H 309.603 2.92018 -4.64776 0
M  V30 3109 H 309.864 3.29197 -2.95096 0
M  V30 3110 N 308.923 1.53595 0.353017 0
M  V30 3111 C 310.148 1.7462 1.11904 0
M  V30 3112 C 310.573 0.479721 1.8188 0
M  V30 3113 O 309.931 -0.567066 1.72204 0
M  V30 3114 C 309.979 2.92029 2.11545 0
M  V30 3115 O 309.083 2.61516 3.18878 0
M  V30 3116 H 308.424 0.579531 0.324099 0
M  V30 3117 H 310.954 2.00525 0.406301 0
M  V30 3118 H 310.964 3.18551 2.5493 0
M  V30 3119 H 309.639 3.83888 1.60008 0
M  V30 3120 H 308.216 2.45852 2.80377 0
M  V30 3121 N 310.401 -0.613514 1.45168 0
M  V30 3122 C 311.647 -1.37471 1.49096 0
M  V30 3123 C 311.98 -1.93765 0.129901 0
M  V30 3124 O 311.255 -1.74707 -0.854858 0
M  V30 3125 C 311.538 -2.52701 2.56542 0
M  V30 3126 C 311.391 -2.01643 4.0207 0
M  V30 3127 C 312.71 -3.54849 2.60327 0
M  V30 3128 H 309.829 -0.498502 0.54283 0
M  V30 3129 H 312.471 -0.692125 1.76945 0
M  V30 3130 H 310.621 -3.10931 2.32926 0
M  V30 3131 H 312.293 -1.48108 4.36877 0
M  V30 3132 H 310.536 -1.32688 4.13009 0
M  V30 3133 H 311.207 -2.84681 4.72928 0
M  V30 3134 H 313.683 -3.0645 2.81474 0
M  V30 3135 H 312.559 -4.32973 3.37381 0
M  V30 3136 H 312.82 -4.10079 1.6519 0
M  V30 3137 N 311.879 -1.3236 -0.855495 0
M  V30 3138 C 312.826 -1.21225 -1.964 0
M  V30 3139 C 313.796 -0.0946204 -1.6583 0
M  V30 3140 O 314.981 -0.27002 -1.8888 0
M  V30 3141 C 312.121 -0.940419 -3.32039 0
M  V30 3142 C 311.234 -2.14276 -3.75113 0
M  V30 3143 C 310.369 -1.80648 -4.9954 0
M  V30 3144 C 309.408 -2.97208 -5.35102 0
M  V30 3145 N 308.545 -2.63678 -6.50706 0
M  V30 3146 H 313.385 -2.16042 -2.05255 0
M  V30 3147 H 310.922 -1.07451 -1.00463 0
M  V30 3148 H 312.88 -0.763311 -4.10158 0
M  V30 3149 H 311.51 -0.0290413 -3.22787 0
M  V30 3150 H 310.562 -2.43017 -2.92655 0
M  V30 3151 H 311.874 -3.01468 -3.97389 0
M  V30 3152 H 311.028 -1.59484 -5.85363 0
M  V30 3153 H 309.767 -0.906678 -4.79198 0
M  V30 3154 H 308.772 -3.19004 -4.47791 0
M  V30 3155 H 309.997 -3.87918 -5.57401 0
M  V30 3156 H 307.943 -1.76238 -6.31883 0
M  V30 3157 H 307.86 -3.444 -6.72997 0
M  V30 3158 H 309.128 -2.45942 -7.39684 0
M  V30 3159 N 313.357 1.07166 -1.15556 0
M  V30 3160 C 314.587 1.83248 -0.954133 0
M  V30 3161 C 314.995 1.82449 0.500911 0
M  V30 3162 O 314.338 1.23575 1.35923 0
M  V30 3163 C 314.4 3.31393 -1.39351 0
M  V30 3164 C 314.064 3.5591 -2.86666 0
M  V30 3165 C 315.061 3.49695 -3.8472 0
M  V30 3166 C 312.746 3.83515 -3.24379 0
M  V30 3167 C 314.74 3.70737 -5.18491 0
M  V30 3168 C 312.427 4.04209 -4.58321 0
M  V30 3169 C 313.425 3.97815 -5.55186 0
M  V30 3170 O 313.113 4.17954 -6.86709 0
M  V30 3171 H 312.845 0.584941 -0.338851 0
M  V30 3172 H 315.399 1.36169 -1.53777 0
M  V30 3173 H 313.629 3.79292 -0.75329 0
M  V30 3174 H 315.318 3.88945 -1.16089 0
M  V30 3175 H 316.084 3.28368 -3.56931 0
M  V30 3176 H 311.963 3.87605 -2.49567 0
M  V30 3177 H 315.507 3.65663 -5.94085 0
M  V30 3178 H 311.404 4.25023 -4.85825 0
M  V30 3179 H 312.172 4.35291 -6.93155 0
M  V30 3180 N 314.835 0.952656 1.25548 0
M  V30 3181 C 316.063 0.623496 1.97282 0
M  V30 3182 C 316.478 -0.803987 1.70826 0
M  V30 3183 O 315.835 -1.53755 0.983147 0
M  V30 3184 C 315.886 0.870209 3.5087 0
M  V30 3185 O 315.607 2.24156 3.76412 0
M  V30 3186 C 317.108 0.553164 4.39835 0
M  V30 3187 H 314.328 0.233931 0.628902 0
M  V30 3188 H 316.872 1.27649 1.59768 0
M  V30 3189 H 315.027 0.263652 3.86502 0
M  V30 3190 H 315.441 2.31021 4.70882 0
M  V30 3191 H 316.915 0.776342 5.46513 0
M  V30 3192 H 317.392 -0.512215 4.36203 0
M  V30 3193 H 317.998 1.13896 4.09766 0
M  V30 3194 N 316.313 -1.40141 0.720998 0
M  V30 3195 C 317.56 -2.00787 0.262842 0
M  V30 3196 C 317.888 -1.5718 -1.14563 0
M  V30 3197 O 317.143 -0.785391 -1.79249 0
M  V30 3198 C 317.442 -3.56165 0.296892 0
M  V30 3199 C 317.108 -4.19373 1.65641 0
M  V30 3200 C 315.77 -4.36352 2.02855 0
M  V30 3201 C 318.122 -4.54578 2.54968 0
M  V30 3202 C 315.45 -4.8582 3.28931 0
M  V30 3203 C 317.802 -5.05447 3.80402 0
M  V30 3204 C 316.466 -5.20635 4.17726 0
M  V30 3205 H 315.736 -0.734731 0.0961807 0
M  V30 3206 H 318.383 -1.67673 0.925093 0
M  V30 3207 H 316.688 -3.8922 -0.448932 0
M  V30 3208 H 318.385 -4.00929 -0.0755208 0
M  V30 3209 H 314.975 -4.06549 1.35704 0
M  V30 3210 H 319.159 -4.41091 2.27491 0
M  V30 3211 H 314.415 -4.95764 3.57811 0
M  V30 3212 H 318.589 -5.31663 4.49786 0
M  V30 3213 H 316.216 -5.58728 5.15487 0
M  V30 3214 N 317.792 -0.46758 -1.50504 0
M  V30 3215 C 319.02 0.0864133 -2.06719 0
M  V30 3216 C 319.435 1.33819 -1.33184 0
M  V30 3217 O 318.792 1.78061 -0.400083 0
M  V30 3218 C 318.843 0.378079 -3.59517 0
M  V30 3219 O 318.564 -0.824044 -4.3028 0
M  V30 3220 C 320.065 0.979426 -4.32345 0
M  V30 3221 H 317.285 -0.00551697 -0.670977 0
M  V30 3222 H 319.829 -0.655354 -1.93715 0
M  V30 3223 H 317.984 1.06977 -3.72337 0
M  V30 3224 H 318.398 -0.566518 -5.21432 0
M  V30 3225 H 319.872 1.1333 -5.40241 0
M  V30 3226 H 320.349 1.9686 -3.9261 0
M  V30 3227 H 320.955 0.326216 -4.24047 0
M  V30 3228 N 319.27 1.56325 -0.20005 0
M  V30 3229 C 320.22 2.15939 0.731743 0
M  V30 3230 C 321.204 1.10154 1.17281 0
M  V30 3231 O 322.396 1.36203 1.13038 0
M  V30 3232 C 319.525 2.82614 1.94895 0
M  V30 3233 C 318.611 3.95596 1.52855 0
M  V30 3234 N 319.002 4.99118 0.819418 0
M  V30 3235 C 317.3 4.07288 1.81748 0
M  V30 3236 C 318.001 5.78513 0.608053 0
M  V30 3237 N 316.977 5.31117 1.15828 0
M  V30 3238 H 320.779 2.9334 0.181285 0
M  V30 3239 H 318.293 1.624 -0.000452172 0
M  V30 3240 H 320.29 3.23718 2.62702 0
M  V30 3241 H 318.95 2.06702 2.50408 0
M  V30 3242 H 319.961 5.15723 0.47436 0
M  V30 3243 H 316.638 3.42509 2.38734 0
M  V30 3244 H 318.028 6.71885 0.0451619 0
M  V30 3245 N 320.748 -0.0735177 1.57428 0
M  V30 3246 C 322.159 -0.625551 1.75908 0
M  V30 3247 C 322.51 -1.78 0.825261 0
M  V30 3248 O 321.635 -2.16398 0.00893964 0
M  V30 3249 C 322.23 -1.14155 3.18989 0
M  V30 3250 C 320.789 -1.63946 3.38819 0
M  V30 3251 C 319.936 -0.558151 2.71625 0
M  V30 3252 H 322.887 0.152647 1.57964 0
M  V30 3253 H 322.908 -2.0104 3.23053 0
M  V30 3254 H 322.42 -0.301116 3.8693 0
M  V30 3255 H 320.521 -2.50321 2.7599 0
M  V30 3256 H 320.634 -1.71759 4.47253 0
M  V30 3257 H 318.998 -1.00278 2.34129 0
M  V30 3258 H 319.781 0.272071 3.4222 0
M  V30 3259 N 322.226 -1.5378 -0.344866 0
M  V30 3260 C 323.474 -1.70625 -1.08311 0
M  V30 3261 C 323.795 -0.471447 -1.89215 0
M  V30 3262 O 323.065 0.514616 -1.8902 0
M  V30 3263 H 321.645 -0.629058 -0.402859 0
M  V30 3264 H 324.307 -1.9103 -0.386459 0
M  V30 3265 H 323.403 -2.57656 -1.76124 0
M  V30 3266 N 323.704 0.605807 -1.45491 0
M  V30 3267 C 324.614 1.74466 -1.56839 0
M  V30 3268 C 325.63 1.68006 -0.452772 0
M  V30 3269 O 326.806 1.8833 -0.713708 0
M  V30 3270 C 323.871 3.10931 -1.53371 0
M  V30 3271 C 322.932 3.28832 -2.75986 0
M  V30 3272 C 322.165 4.58787 -2.72673 0
M  V30 3273 O 322.388 5.4122 -1.80102 0
M  V30 3274 O 321.322 4.79438 -3.63899 0
M  V30 3275 H 325.148 1.67843 -2.53106 0
M  V30 3276 H 322.733 0.770108 -1.28022 0
M  V30 3277 H 324.615 3.92233 -1.54051 0
M  V30 3278 H 323.29 3.18042 -0.602572 0
M  V30 3279 H 322.197 2.47112 -2.80867 0
M  V30 3280 H 323.53 3.26599 -3.68231 0
M  V30 3281 N 325.182 1.32811 0.848464 0
M  V30 3282 C 326.598 1.11937 1.13764 0
M  V30 3283 C 326.798 -0.0960789 2.01271 0
M  V30 3284 O 325.854 -0.779165 2.40178 0
M  V30 3285 C 327.167 2.402 1.809 0
M  V30 3286 C 328.715 2.46016 1.93508 0
M  V30 3287 C 329.19 3.74215 2.64059 0
M  V30 3288 N 330.681 3.75232 2.71579 0
M  V30 3289 C 331.416 4.71134 3.26833 0
M  V30 3290 N 330.912 5.77406 3.8285 0
M  V30 3291 N 332.705 4.58623 3.24995 0
M  V30 3292 H 324.856 2.1073 0.265855 0
M  V30 3293 H 327.119 0.930671 0.180431 0
M  V30 3294 H 326.825 3.29093 1.24058 0
M  V30 3295 H 326.699 2.51628 2.81004 0
M  V30 3296 H 329.086 1.57577 2.49506 0
M  V30 3297 H 329.167 2.38536 0.923811 0
M  V30 3298 H 328.811 4.63031 2.08722 0
M  V30 3299 H 328.741 3.78968 3.65637 0
M  V30 3300 H 331.232 2.98423 2.31845 0
M  V30 3301 H 331.545 6.46632 4.23187 0
M  V30 3302 H 329.89 5.81152 3.81165 0
M  V30 3303 H 333.081 3.74762 2.80484 0
M  V30 3304 H 333.254 5.33535 3.67756 0
M  V30 3305 N 326.66 -1.06551 1.16123 0
M  V30 3306 C 327.908 -1.78947 0.939267 0
M  V30 3307 C 328.229 -1.87532 -0.534476 0
M  V30 3308 O 327.499 -1.38211 -1.38833 0
M  V30 3309 H 326.079 -0.662807 0.344523 0
M  V30 3310 H 328.741 -1.28725 1.46342 0
M  V30 3311 H 327.837 -2.81117 1.35572 0
M  V30 3312 N 328.138 -0.959301 -1.25041 0
M  V30 3313 C 329.387 -0.612254 -1.92183 0
M  V30 3314 C 329.7 0.855347 -1.75907 0
M  V30 3315 O 330.906 1.31256 -2.37664 0
M  V30 3316 C 329.362 -1.04435 -3.44414 0
M  V30 3317 C 328.97 -2.53482 -3.69393 0
M  V30 3318 C 330.714 -0.770055 -4.17457 0
M  V30 3319 C 328.621 -2.90468 -5.15153 0
M  V30 3320 H 327.551 -0.225279 -0.719559 0
M  V30 3321 H 330.202 -1.16438 -1.41825 0
M  V30 3322 H 328.584 -0.4206 -3.9376 0
M  V30 3323 H 329.758 -3.20916 -3.30681 0
M  V30 3324 H 328.073 -2.78432 -3.0962 0
M  V30 3325 H 330.67 -1.02249 -5.24832 0
M  V30 3326 H 331.013 0.293611 -4.15263 0
M  V30 3327 H 331.546 -1.35437 -3.74034 0
M  V30 3328 H 328.285 -3.95871 -5.22462 0
M  V30 3329 H 327.805 -2.27711 -5.54894 0
M  V30 3330 H 329.484 -2.79914 -5.83315 0
M  V30 3331 N 329.616 1.39756 -0.72842 0
M  V30 3332 C 330.893 1.94574 -0.200079 0
M  V30 3333 C 331.273 1.66569 1.29684 0
M  V30 3334 O 330.621 0.990326 2.05924 0
M  V30 3335 C 330.831 3.45004 -0.526608 0
M  V30 3336 C 332.179 4.21965 -0.472318 0
M  V30 3337 O 333.203 3.53173 -0.463413 0
M  V30 3338 O 332.062 5.44552 -0.461075 0
M  V30 3339 H 329.156 0.826289 -0.0342851 0
M  V30 3340 H 331.702 1.49293 -0.806829 0
M  V30 3341 H 330.474 3.58796 -1.56144 0
M  V30 3342 H 330.097 3.97449 0.109449 0
M  V30 3343 N 331.094 0.475555 1.50254 0
M  V30 3344 C 332.024 -0.30611 2.31485 0
M  V30 3345 C 333.005 -0.986228 1.38591 0
M  V30 3346 O 334.19 -0.982541 1.67511 0
M  V30 3347 C 331.32 -1.38588 3.1845 0
M  V30 3348 C 330.274 -0.827115 4.19932 0
M  V30 3349 C 329.6 -2.00551 4.95665 0
M  V30 3350 C 330.9 0.16463 5.2204 0
M  V30 3351 H 332.594 0.371866 2.97082 0
M  V30 3352 H 330.14 0.180282 1.42867 0
M  V30 3353 H 332.093 -1.94023 3.74076 0
M  V30 3354 H 330.817 -2.09269 2.50747 0
M  V30 3355 H 329.476 -0.294702 3.65414 0
M  V30 3356 H 329.124 -2.6994 4.2443 0
M  V30 3357 H 328.824 -1.63784 5.64313 0
M  V30 3358 H 330.348 -2.56468 5.54127 0
M  V30 3359 H 331.762 -0.300699 5.72511 0
M  V30 3360 H 330.159 0.446813 5.98434 0
M  V30 3361 H 331.229 1.08905 4.72512 0
M  V30 3362 N 332.573 -1.56217 0.208337 0
M  V30 3363 C 333.798 -2.02782 -0.435222 0
M  V30 3364 C 334.223 -1.08738 -1.53485 0
M  V30 3365 O 333.581 -0.0731855 -1.81152 0
M  V30 3366 C 333.629 -3.47687 -0.956335 0
M  V30 3367 O 332.733 -3.56773 -2.06849 0
M  V30 3368 H 332.074 -0.656403 -0.100158 0
M  V30 3369 H 334.604 -2.02033 0.3231 0
M  V30 3370 H 334.614 -3.87745 -1.26955 0
M  V30 3371 H 333.289 -4.15624 -0.15143 0
M  V30 3372 H 331.866 -3.28597 -1.76292 0
M  V30 3373 N 334.051 0.0651679 -1.57465 0
M  V30 3374 C 335.276 0.779605 -1.9219 0
M  V30 3375 C 335.701 1.69988 -0.805333 0
M  V30 3376 O 335.059 1.79685 0.241435 0
M  V30 3377 C 335.107 1.54364 -3.2589 0
M  V30 3378 O 334.211 2.65474 -3.1559 0
M  V30 3379 H 333.552 0.212249 -0.629163 0
M  V30 3380 H 336.082 0.0314294 -2.04576 0
M  V30 3381 H 336.092 1.92146 -3.59922 0
M  V30 3382 H 334.767 0.868457 -4.06732 0
M  V30 3383 H 333.344 2.30501 -2.93128 0
M  V30 3384 N 335.529 1.53961 0.336706 0
M  V30 3385 C 336.492 1.81724 1.39675 0
M  V30 3386 C 337.492 0.688532 1.45313 0
M  V30 3387 O 338.682 0.956829 1.45569 0
M  V30 3388 C 335.814 1.96543 2.78538 0
M  V30 3389 H 337.007 2.76424 1.16318 0
M  V30 3390 H 334.56 1.45478 0.571474 0
M  V30 3391 H 335.295 1.0401 3.07168 0
M  V30 3392 H 335.08 2.78665 2.75841 0
M  V30 3393 H 336.57 2.19516 3.5525 0
M  V30 3394 N 337.007 -0.598083 1.45811 0
M  V30 3395 C 337.955 -1.72932 1.55555 0
M  V30 3396 C 338.949 -1.63984 0.424921 0
M  V30 3397 O 340.155 -1.69663 0.601205 0
M  V30 3398 H 336.53 -0.571489 0.488779 0
M  V30 3399 H 338.501 -1.61842 2.50699 0
M  V30 3400 C 337.25 -3.11318 1.54843 0
M  V30 3401 H 336.573 -3.18867 2.41172 0
M  V30 3402 H 338.013 -3.90274 1.65717 0
M  V30 3403 C 336.472 -3.3578 0.274427 0
M  V30 3404 O 337.002 -3.9654 -0.641778 0
M  V30 3405 N 335.208 -2.90119 0.167139 0
M  V30 3406 H 334.755 -2.40855 0.913596 0
M  V30 3407 H 334.713 -3.0686 -0.684435 0
M  V30 3408 N 338.485 -1.33259 -0.841409 0
M  V30 3409 C 339.395 -1.25332 -1.98316 0
M  V30 3410 C 340.411 -0.164364 -1.73222 0
M  V30 3411 O 341.587 -0.387486 -1.97637 0
M  V30 3412 C 338.652 -0.990078 -3.32262 0
M  V30 3413 C 337.713 -2.16879 -3.70489 0
M  V30 3414 C 336.946 -1.91801 -4.98044 0
M  V30 3415 O 337.169 -0.867075 -5.63771 0
M  V30 3416 O 336.103 -2.78267 -5.33714 0
M  V30 3417 H 339.929 -2.21344 -2.07944 0
M  V30 3418 H 337.514 -1.1328 -0.974058 0
M  V30 3419 H 339.396 -0.860321 -4.12524 0
M  V30 3420 H 338.071 -0.0602155 -3.23644 0
M  V30 3421 H 336.978 -2.35407 -2.90748 0
M  V30 3422 H 338.311 -3.0819 -3.8377 0
M  V30 3423 N 339.963 1.05934 -1.16686 0
M  V30 3424 C 341.209 1.79065 -0.95203 0
M  V30 3425 C 341.542 1.87147 0.518629 0
M  V30 3426 O 340.817 1.36574 1.38484 0
M  V30 3427 C 341.1 3.23359 -1.58464 0
M  V30 3428 C 340.953 3.23336 -3.12689 0
M  V30 3429 C 342.272 4.21004 -1.28232 0
M  V30 3430 H 339.391 0.65005 -0.34728 0
M  V30 3431 H 342.033 1.23868 -1.44072 0
M  V30 3432 H 340.183 3.70493 -1.16908 0
M  V30 3433 H 341.855 2.84336 -3.6325 0
M  V30 3434 H 340.098 2.61886 -3.4583 0
M  V30 3435 H 340.769 4.25144 -3.52075 0
M  V30 3436 H 343.245 3.8233 -1.64203 0
M  V30 3437 H 342.121 5.20225 -1.75092 0
M  V30 3438 H 342.382 4.41639 -0.201791 0
M  V30 3439 N 341.441 0.965919 1.2453 0
M  V30 3440 C 342.689 0.625593 1.92174 0
M  V30 3441 C 343.01 -0.841652 1.75901 0
M  V30 3442 O 342.28 -1.60061 1.12948 0
M  V30 3443 H 340.86 0.228388 0.71123 0
M  V30 3444 H 343.522 1.2266 1.51461 0
M  V30 3445 H 342.618 0.864653 2.99884 0
M  V30 3446 N 342.919 -1.39368 0.735821 0
M  V30 3447 C 344.167 -2.00101 0.283562 0
M  V30 3448 C 344.488 -1.5868 -1.13338 0
M  V30 3449 O 343.758 -0.835423 -1.77193 0
M  V30 3450 H 342.338 -0.740024 0.101851 0
M  V30 3451 H 345 -1.70404 0.945962 0
M  V30 3452 H 344.096 -3.10323 0.332604 0
M  V30 3453 N 344.397 -0.483516 -1.5 0
M  V30 3454 C 345.808 -0.0314176 -1.86674 0
M  V30 3455 C 346.159 1.37728 -1.39733 0
M  V30 3456 O 345.284 2.02327 -0.767635 0
M  V30 3457 C 345.879 -0.0502376 -3.38763 0
M  V30 3458 C 344.438 0.346442 -3.74802 0
M  V30 3459 C 343.585 -0.430366 -2.7394 0
M  V30 3460 H 346.536 -0.697182 -1.42566 0
M  V30 3461 H 346.557 0.749116 -3.73053 0
M  V30 3462 H 346.069 -1.07563 -3.72897 0
M  V30 3463 H 344.17 1.37572 -3.46273 0
M  V30 3464 H 344.283 0.0391486 -4.79084 0
M  V30 3465 H 342.647 0.117557 -2.54429 0
M  V30 3466 H 343.43 -1.4555 -3.10918 0
M  V30 3467 N 345.875 1.56104 -0.216619 0
M  V30 3468 C 347.121 1.98466 0.417033 0
M  V30 3469 C 347.454 1.10403 1.59765 0
M  V30 3470 O 346.729 0.160632 1.93836 0
M  V30 3471 C 347.012 3.49769 0.85637 0
M  V30 3472 C 346.865 4.48606 -0.327546 0
M  V30 3473 C 348.184 4.05339 1.7143 0
M  V30 3474 H 345.303 0.721551 0.150112 0
M  V30 3475 H 347.945 1.87423 -0.311864 0
M  V30 3476 H 346.095 3.5931 1.47745 0
M  V30 3477 H 347.767 4.5108 -0.965618 0
M  V30 3478 H 346.01 4.22682 -0.975805 0
M  V30 3479 H 346.681 5.51995 0.0227149 0
M  V30 3480 H 349.157 3.98712 1.19031 0
M  V30 3481 H 348.033 5.11533 1.99061 0
M  V30 3482 H 348.294 3.51918 2.67593 0
M  V30 3483 N 347.353 -0.0568162 1.57498 0
M  V30 3484 C 348.3 -1.06591 2.04712 0
M  V30 3485 C 349.27 -1.3758 0.930644 0
M  V30 3486 O 350.455 -1.48392 1.19935 0
M  V30 3487 C 347.595 -2.3701 2.50839 0
M  V30 3488 C 346.708 -2.12421 3.76167 0
M  V30 3489 C 345.843 -3.36511 4.11015 0
M  V30 3490 C 344.882 -3.07353 5.2934 0
M  V30 3491 N 344.019 -4.23816 5.59754 0
M  V30 3492 H 348.859 -0.65631 2.90683 0
M  V30 3493 H 346.396 -0.312481 1.43743 0
M  V30 3494 H 348.354 -3.13175 2.7564 0
M  V30 3495 H 346.984 -2.75744 1.67825 0
M  V30 3496 H 346.036 -1.2688 3.58616 0
M  V30 3497 H 347.348 -1.86894 4.62463 0
M  V30 3498 H 346.502 -4.21062 4.36797 0
M  V30 3499 H 345.241 -3.65128 3.23315 0
M  V30 3500 H 344.246 -2.212 5.03339 0
M  V30 3501 H 345.471 -2.80043 6.1867 0
M  V30 3502 H 343.417 -4.52436 4.75014 0
M  V30 3503 H 343.334 -4.01614 6.40501 0
M  V30 3504 H 344.602 -5.0932 5.90096 0
M  V30 3505 N 348.832 -1.54138 -0.328536 0
M  V30 3506 C 350.109 -1.62749 -1.08499 0
M  V30 3507 C 350.489 -0.458198 -2.06067 0
M  V30 3508 O 349.837 0.548046 -2.2183 0
M  V30 3509 C 350.047 -2.99519 -1.79135 0
M  V30 3510 C 351.395 -3.55394 -2.32337 0
M  V30 3511 O 352.419 -3.01792 -1.89209 0
M  V30 3512 O 351.278 -4.49186 -3.11279 0
M  V30 3513 H 348.372 -0.65886 -0.499832 0
M  V30 3514 H 350.918 -1.66484 -0.328826 0
M  V30 3515 H 349.69 -3.76061 -1.08139 0
M  V30 3516 H 349.313 -2.99441 -2.61574 0
M  V30 3517 N 350.31 0.590341 -1.46126 0
M  V30 3518 C 351.556 1.35082 -1.51264 0
M  V30 3519 C 351.889 1.93534 -0.160711 0
M  V30 3520 O 351.164 1.76045 0.826956 0
M  V30 3521 C 351.447 2.48588 -2.6053 0
M  V30 3522 C 351.3 1.95221 -4.05227 0
M  V30 3523 C 352.619 3.50662 -2.6594 0
M  V30 3524 H 349.738 0.489803 -0.550692 0
M  V30 3525 H 352.38 0.663887 -1.78024 0
M  V30 3526 H 350.53 3.07186 -2.37843 0
M  V30 3527 H 352.202 1.41139 -4.39178 0
M  V30 3528 H 350.445 1.26101 -4.15068 0
M  V30 3529 H 351.116 2.77121 -4.77397 0
M  V30 3530 H 353.592 3.01934 -2.86313 0
M  V30 3531 H 352.468 4.27551 -3.44226 0
M  V30 3532 H 352.729 4.07399 -1.71694 0
M  V30 3533 N 351.788 1.33704 0.83433 0
M  V30 3534 C 353.037 1.24763 1.58484 0
M  V30 3535 C 353.35 -0.183775 1.94735 0
M  V30 3536 O 354.556 -0.395234 2.68608 0
M  V30 3537 C 353.012 2.18638 2.85876 0
M  V30 3538 C 352.62 3.66974 2.56971 0
M  V30 3539 C 354.364 2.18581 3.63899 0
M  V30 3540 C 352.271 4.5275 3.80488 0
M  V30 3541 H 351.201 0.463425 0.594772 0
M  V30 3542 H 353.852 1.58797 0.919551 0
M  V30 3543 H 352.234 1.77542 3.5397 0
M  V30 3544 H 353.408 4.16538 1.9706 0
M  V30 3545 H 351.723 3.69366 1.92244 0
M  V30 3546 H 354.32 2.79894 4.55591 0
M  V30 3547 H 354.663 1.18207 3.99165 0
M  V30 3548 H 355.196 2.58062 3.02735 0
M  V30 3549 H 351.935 5.54017 3.5035 0
M  V30 3550 H 351.455 4.07927 4.39722 0
M  V30 3551 H 353.134 4.66784 4.4802 0
M  V30 3552 N 353.266 -1.05314 1.17247 0
M  V30 3553 C 354.496 -1.81707 0.983166 0
M  V30 3554 C 354.904 -1.83222 -0.471822 0
M  V30 3555 O 354.247 -1.25721 -1.3394 0
M  V30 3556 C 354.309 -3.29134 1.44606 0
M  V30 3557 C 353.973 -3.51304 2.92292 0
M  V30 3558 C 354.97 -3.4353 3.90235 0
M  V30 3559 C 352.655 -3.78306 3.30439 0
M  V30 3560 C 354.649 -3.62442 5.24323 0
M  V30 3561 C 352.336 -3.96866 4.64694 0
M  V30 3562 C 353.334 -3.88933 5.61445 0
M  V30 3563 O 353.022 -4.06976 6.93272 0
M  V30 3564 H 352.754 -0.579476 0.348114 0
M  V30 3565 H 355.308 -1.33705 1.55924 0
M  V30 3566 H 353.538 -3.78046 0.813537 0
M  V30 3567 H 355.227 -3.87049 1.22262 0
M  V30 3568 H 355.993 -3.22648 3.62109 0
M  V30 3569 H 351.872 -3.83585 2.55702 0
M  V30 3570 H 355.416 -3.56165 5.99827 0
M  V30 3571 H 351.313 -4.1724 4.92525 0
M  V30 3572 H 352.081 -4.24209 6.99992 0
M  V30 3573 N 354.744 -0.972509 -1.24016 0
M  V30 3574 C 355.692 -0.498562 -2.27194 0
M  V30 3575 C 356.686 0.440372 -1.63576 0
M  V30 3576 O 357.892 0.315133 -1.7722 0
M  V30 3577 H 354.267 -0.142775 -0.738322 0
M  V30 3578 H 356.238 -1.38065 -2.64539 0
M  V30 3579 C 354.987 0.191072 -3.47175 0
M  V30 3580 H 354.31 -0.522318 -3.96373 0
M  V30 3581 H 355.75 0.486445 -4.212 0
M  V30 3582 C 354.209 1.41967 -3.05527 0
M  V30 3583 O 354.739 2.51642 -3.13112 0
M  V30 3584 N 352.945 1.28746 -2.60524 0
M  V30 3585 H 352.492 0.395089 -2.54552 0
M  V30 3586 H 352.45 2.11061 -2.33025 0
M  V30 3587 N 356.222 1.38976 -0.743202 0
M  V30 3588 C 357.155 2.28128 -0.0572165 0
M  V30 3589 C 358.133 1.44827 0.739182 0
M  V30 3590 O 359.317 1.74207 0.720009 0
M  V30 3591 C 356.444 3.25796 0.926001 0
M  V30 3592 C 355.49 4.25947 0.217099 0
M  V30 3593 S 356.323 5.24604 -1.07477 0
M  V30 3594 C 357.479 6.25829 -0.0943545 0
M  V30 3595 H 357.712 2.85961 -0.813246 0
M  V30 3596 H 355.245 1.44822 -0.535341 0
M  V30 3597 H 357.203 3.82583 1.48797 0
M  V30 3598 H 355.864 2.66966 1.65493 0
M  V30 3599 H 355.057 4.94746 0.961372 0
M  V30 3600 H 354.659 3.73002 -0.273059 0
M  V30 3601 H 356.951 6.73411 0.743239 0
M  V30 3602 H 357.894 7.0412 -0.749713 0
M  V30 3603 H 358.302 5.63797 0.281706 0
M  V30 3604 N 357.7 0.491464 1.49741 0
M  V30 3605 C 358.648 -0.305837 2.30581 0
M  V30 3606 C 359.642 -0.971642 1.38764 0
M  V30 3607 O 360.848 -0.90042 1.5586 0
M  V30 3608 H 357.223 -0.117482 0.742767 0
M  V30 3609 H 359.194 0.396093 2.95759 0
M  V30 3610 C 357.943 -1.36319 3.19863 0
M  V30 3611 H 357.266 -0.860258 3.90435 0
M  V30 3612 H 358.706 -1.89323 3.79385 0
M  V30 3613 C 357.165 -2.37621 2.38826 0
M  V30 3614 O 357.695 -3.43311 2.08567 0
M  V30 3615 N 355.901 -2.09849 2.01026 0
M  V30 3616 H 355.448 -1.23922 2.25834 0
M  V30 3617 H 355.406 -2.77859 1.47112 0
M  V30 3618 N 359.178 -1.55987 0.224894 0
M  V30 3619 C 360.426 -1.97998 -0.405099 0
M  V30 3620 C 360.747 -1.11387 -1.60056 0
M  V30 3621 O 360.017 -0.191645 -1.9496 0
M  V30 3622 H 358.597 -0.731235 -0.152658 0
M  V30 3623 H 361.259 -1.92279 0.318567 0
M  V30 3624 H 360.355 -3.03463 -0.729167 0
M  V30 3625 N 360.656 0.0484629 -1.57525 0
M  V30 3626 C 361.884 0.755421 -1.92616 0
M  V30 3627 C 362.299 1.69919 -0.822984 0
M  V30 3628 O 361.656 1.81378 0.202085 0
M  V30 3629 C 361.707 1.52915 -3.27566 0
M  V30 3630 O 361.428 0.62329 -4.33644 0
M  V30 3631 C 362.929 2.33502 -3.76818 0
M  V30 3632 H 360.149 0.213465 -0.63614 0
M  V30 3633 H 362.693 0.0117698 -2.04497 0
M  V30 3634 H 360.848 2.22486 -3.17142 0
M  V30 3635 H 361.262 1.16383 -5.11425 0
M  V30 3636 H 362.736 2.83214 -4.73808 0
M  V30 3637 H 363.213 3.14068 -3.07014 0
M  V30 3638 H 363.819 1.69043 -3.90262 0
M  V30 3639 N 362.134 1.5431 0.320358 0
M  V30 3640 C 363.064 1.86912 1.3995 0
M  V30 3641 C 364.045 0.726211 1.53819 0
M  V30 3642 O 365.23 0.980233 1.67646 0
M  V30 3643 C 362.36 2.09932 2.7667 0
M  V30 3644 C 361.314 3.25776 2.77586 0
M  V30 3645 C 360.64 3.34173 4.17412 0
M  V30 3646 C 361.94 4.6335 2.41048 0
M  V30 3647 H 363.634 2.77292 1.12914 0
M  V30 3648 H 361.18 1.33421 0.541738 0
M  V30 3649 H 363.133 2.31324 3.52232 0
M  V30 3650 H 361.857 1.16304 3.0519 0
M  V30 3651 H 360.516 3.04276 2.04479 0
M  V30 3652 H 360.164 2.38098 4.43078 0
M  V30 3653 H 359.864 4.12033 4.18931 0
M  V30 3654 H 361.388 3.57803 4.94782 0
M  V30 3655 H 362.802 4.84602 3.06324 0
M  V30 3656 H 361.199 5.43782 2.53813 0
M  V30 3657 H 362.269 4.65381 1.36193 0
M  V30 3658 N 363.613 -0.582584 1.46437 0
M  V30 3659 C 364.543 -1.70187 1.59871 0
M  V30 3660 C 365.524 -1.64066 0.449042 0
M  V30 3661 O 366.709 -1.82081 0.6753 0
M  V30 3662 C 363.839 -3.08827 1.58881 0
M  V30 3663 C 362.793 -3.29779 2.72819 0
M  V30 3664 C 362.119 -4.68947 2.5689 0
M  V30 3665 C 363.419 -3.17601 4.1464 0
M  V30 3666 H 365.113 -1.592 2.53566 0
M  V30 3667 H 362.659 -0.764472 1.22032 0
M  V30 3668 H 364.612 -3.86951 1.66873 0
M  V30 3669 H 363.336 -3.20713 0.617306 0
M  V30 3670 H 361.995 -2.54054 2.64296 0
M  V30 3671 H 361.643 -4.77599 1.57823 0
M  V30 3672 H 361.343 -4.83919 3.33312 0
M  V30 3673 H 362.867 -5.4924 2.66773 0
M  V30 3674 H 364.281 -3.8557 4.24274 0
M  V30 3675 H 362.678 -3.44094 4.9165 0
M  V30 3676 H 363.748 -2.14681 4.34788 0
M  V30 3677 N 365.091 -1.34144 -0.827227 0
M  V30 3678 C 366.339 -1.26009 -1.58007 0
M  V30 3679 C 366.66 0.170971 -1.94249 0
M  V30 3680 O 365.93 1.10256 -1.61927 0
M  V30 3681 H 364.51 -0.463414 -0.585881 0
M  V30 3682 H 367.172 -1.68005 -0.987951 0
M  V30 3683 H 366.268 -1.86187 -2.50481 0
M  V30 3684 N 366.569 1.04691 -1.17803 0
M  V30 3685 C 367.517 2.14665 -0.895635 0
M  V30 3686 C 368.511 1.68806 0.141679 0
M  V30 3687 O 369.717 1.79999 -0.00587914 0
M  V30 3688 H 366.092 0.701038 -0.272121 0
M  V30 3689 H 368.063 2.35685 -1.83017 0
M  V30 3690 C 366.812 3.45019 -0.430962 0
M  V30 3691 H 366.135 3.8071 -1.22064 0
M  V30 3692 H 367.575 4.23125 -0.272301 0
M  V30 3693 C 366.034 3.25943 0.852207 0
M  V30 3694 O 366.564 3.5296 1.91786 0
M  V30 3695 N 364.77 2.79304 0.802346 0
M  V30 3696 H 364.317 2.57518 -0.0650788 0
M  V30 3697 H 364.275 2.66921 1.66134 0
M  V30 3698 N 368.047 0.979072 1.23499 0
M  V30 3699 C 368.977 0.537606 2.27227 0
M  V30 3700 C 369.958 -0.428539 1.64613 0
M  V30 3701 O 371.143 -0.322191 1.91509 0
M  V30 3702 C 368.273 -0.162052 3.46922 0
M  V30 3703 C 367.227 0.721242 4.21879 0
M  V30 3704 C 366.553 -0.110555 5.34586 0
M  V30 3705 C 367.853 2.01141 4.82016 0
M  V30 3706 H 369.547 1.40462 2.64406 0
M  V30 3707 H 367.093 0.67684 1.27102 0
M  V30 3708 H 369.046 -0.482192 4.18632 0
M  V30 3709 H 367.77 -1.06351 3.08799 0
M  V30 3710 H 366.429 1.02482 3.51984 0
M  V30 3711 H 366.077 -1.0125 4.92704 0
M  V30 3712 H 365.777 0.477325 5.85658 0
M  V30 3713 H 367.301 -0.425107 6.09118 0
M  V30 3714 H 368.715 1.75612 5.45741 0
M  V30 3715 H 367.112 2.54695 5.43369 0
M  V30 3716 H 368.182 2.69909 4.02836 0
M  V30 3717 N 369.525 -1.3858 0.750561 0
M  V30 3718 C 370.455 -2.33102 0.136237 0
M  V30 3719 C 371.436 -1.54713 -0.706965 0
M  V30 3720 O 372.621 -1.83043 -0.648769 0
M  V30 3721 C 369.751 -3.38882 -0.760017 0
M  V30 3722 C 368.705 -4.27995 -0.0197785 0
M  V30 3723 C 368.031 -5.24605 -1.03408 0
M  V30 3724 C 369.331 -5.09554 1.14684 0
M  V30 3725 H 371.025 -2.84726 0.925822 0
M  V30 3726 H 368.571 -1.36898 0.446654 0
M  V30 3727 H 370.524 -4.0397 -1.19943 0
M  V30 3728 H 369.248 -2.85734 -1.58189 0
M  V30 3729 H 367.907 -3.64409 0.400184 0
M  V30 3730 H 367.555 -4.67746 -1.84994 0
M  V30 3731 H 367.255 -5.85081 -0.543464 0
M  V30 3732 H 368.779 -5.9257 -1.47288 0
M  V30 3733 H 370.193 -5.67899 0.785118 0
M  V30 3734 H 368.59 -5.7925 1.56812 0
M  V30 3735 H 369.66 -4.4347 1.96118 0
M  V30 3736 N 371.003 -0.499398 -1.49478 0
M  V30 3737 C 372.252 0.0475259 -2.01644 0
M  V30 3738 C 372.565 1.38195 -1.38425 0
M  V30 3739 O 373.771 2.01547 -1.8191 0
M  V30 3740 C 372.227 0.135164 -3.59646 0
M  V30 3741 C 371.835 -1.19252 -4.31837 0
M  V30 3742 C 373.579 0.632538 -4.19761 0
M  V30 3743 C 371.486 -1.06713 -5.81693 0
M  V30 3744 H 370.416 0.0215349 -0.753692 0
M  V30 3745 H 373.067 -0.638577 -1.7203 0
M  V30 3746 H 371.449 0.885681 -3.85969 0
M  V30 3747 H 372.623 -1.9562 -4.17216 0
M  V30 3748 H 370.938 -1.62321 -3.83459 0
M  V30 3749 H 373.535 0.743833 -5.29501 0
M  V30 3750 H 373.878 1.63098 -3.83021 0
M  V30 3751 H 374.411 -0.0613987 -3.97753 0
M  V30 3752 H 371.15 -2.03979 -6.22955 0
M  V30 3753 H 370.67 -0.344307 -5.98811 0
M  V30 3754 H 372.349 -0.745208 -6.42694 0
M  V30 3755 N 372.481 1.55866 -0.233164 0
M  V30 3756 C 373.728 1.98603 0.395374 0
M  V30 3757 C 374.056 1.12105 1.58942 0
M  V30 3758 O 373.311 0.168656 1.94972 0
M  V30 3759 C 373.61 3.46856 0.861724 0
M  V30 3760 C 373.276 4.50348 -0.223066 0
M  V30 3761 C 371.938 4.78371 -0.521038 0
M  V30 3762 C 374.29 5.12355 -0.956124 0
M  V30 3763 C 371.618 5.6568 -1.55638 0
M  V30 3764 C 373.97 6.00786 -1.98089 0
M  V30 3765 C 372.634 6.27148 -2.28565 0
M  V30 3766 H 371.904 0.726739 0.144677 0
M  V30 3767 H 374.551 1.88491 -0.338114 0
M  V30 3768 H 372.856 3.5423 1.67418 0
M  V30 3769 H 374.553 3.77302 1.35809 0
M  V30 3770 H 371.143 4.28596 0.0193234 0
M  V30 3771 H 375.327 4.90765 -0.739166 0
M  V30 3772 H 370.583 5.84365 -1.798 0
M  V30 3773 H 374.757 6.4788 -2.55391 0
M  V30 3774 H 372.384 6.94597 -3.08932 0
M  V30 3775 N 373.959 -0.0401083 1.57549 0
M  V30 3776 C 375.37 -0.588097 1.77196 0
M  V30 3777 C 375.721 -1.76209 0.862832 0
M  V30 3778 O 374.846 -2.16331 0.0548389 0
M  V30 3779 C 375.441 -1.07363 3.21339 0
M  V30 3780 C 374 -1.56723 3.42221 0
M  V30 3781 C 373.147 -0.50041 2.72747 0
M  V30 3782 H 376.098 0.186119 1.57605 0
M  V30 3783 H 376.119 -1.94143 3.27244 0
M  V30 3784 H 375.631 -0.218975 3.87482 0
M  V30 3785 H 373.732 -2.4441 2.81237 0
M  V30 3786 H 373.845 -1.62234 4.50796 0
M  V30 3787 H 372.209 -0.952894 2.36203 0
M  V30 3788 H 372.992 0.344599 3.41566 0
M  V30 3789 N 375.437 -1.54477 -0.31217 0
M  V30 3790 C 376.387 -1.81037 -1.38598 0
M  V30 3791 C 377.371 -0.666941 -1.46426 0
M  V30 3792 O 378.563 -0.927269 -1.50767 0
M  V30 3793 C 375.692 -2.05127 -2.75277 0
M  V30 3794 C 374.778 -3.25624 -2.71716 0
M  V30 3795 N 375.169 -4.46428 -2.37773 0
M  V30 3796 C 373.467 -3.27427 -3.02833 0
M  V30 3797 C 374.168 -5.28406 -2.43232 0
M  V30 3798 N 373.144 -4.6586 -2.80135 0
M  V30 3799 H 376.946 -2.7201 -1.11301 0
M  V30 3800 H 374.46 -1.53826 -0.520705 0
M  V30 3801 H 376.457 -2.22299 -3.52688 0
M  V30 3802 H 375.117 -1.15416 -3.03495 0
M  V30 3803 H 376.128 -4.73227 -2.1042 0
M  V30 3804 H 372.805 -2.47786 -3.36018 0
M  V30 3805 H 374.195 -6.34903 -2.19882 0
M  V30 3806 N 376.915 0.57481 -1.46744 0
M  V30 3807 C 377.847 1.69804 -1.53946 0
M  V30 3808 C 378.86 1.57098 -0.427106 0
M  V30 3809 O 380.049 1.64378 -0.695863 0
M  V30 3810 C 377.149 3.08125 -1.4111 0
M  V30 3811 C 376.322 3.46757 -2.66605 0
M  V30 3812 C 375.381 4.6417 -2.47855 0
M  V30 3813 O 374.407 4.69634 -3.21609 0
M  V30 3814 N 375.609 5.59553 -1.54534 0
M  V30 3815 H 378.374 1.64077 -2.50796 0
M  V30 3816 H 375.935 0.761 -1.429 0
M  V30 3817 H 377.927 3.84478 -1.26328 0
M  V30 3818 H 376.497 3.08175 -0.524109 0
M  V30 3819 H 375.717 2.6003 -2.96274 0
M  V30 3820 H 377.005 3.69337 -3.49954 0
M  V30 3821 H 376.403 5.57881 -0.937304 0
M  V30 3822 H 374.96 6.35304 -1.45711 0
M  V30 3823 N 378.394 1.34581 0.820102 0
M  V30 3824 C 379.641 1.27096 1.57648 0
M  V30 3825 C 379.969 -0.158317 1.93855 0
M  V30 3826 O 379.224 -1.12028 1.60463 0
M  V30 3827 C 379.523 2.10997 2.8847 0
M  V30 3828 C 379.189 3.59966 2.71543 0
M  V30 3829 C 377.851 4.00575 2.66634 0
M  V30 3830 C 380.203 4.54548 2.55021 0
M  V30 3831 C 377.531 5.33953 2.43128 0
M  V30 3832 C 379.883 5.88109 2.33047 0
M  V30 3833 C 378.547 6.27878 2.26552 0
M  V30 3834 H 377.817 0.465078 0.576874 0
M  V30 3835 H 380.464 1.6635 0.948671 0
M  V30 3836 H 378.769 1.6458 3.55557 0
M  V30 3837 H 380.466 2.0255 3.46084 0
M  V30 3838 H 377.056 3.27733 2.76205 0
M  V30 3839 H 381.24 4.24069 2.57835 0
M  V30 3840 H 376.496 5.63781 2.3656 0
M  V30 3841 H 380.67 6.60985 2.19251 0
M  V30 3842 H 378.297 7.31162 2.081 0
M  V30 3843 N 379.872 -1.04064 1.18357 0
M  V30 3844 C 381.121 -1.76662 0.973313 0
M  V30 3845 C 381.434 -1.89154 -0.497991 0
M  V30 3846 O 382.64 -2.58606 -0.826762 0
M  V30 3847 C 381.096 -3.17624 1.69242 0
M  V30 3848 C 380.704 -3.13225 3.20303 0
M  V30 3849 C 382.448 -3.946 1.56497 0
M  V30 3850 C 380.355 -4.49046 3.84853 0
M  V30 3851 H 379.285 -0.662214 0.36054 0
M  V30 3852 H 381.936 -1.16553 1.41731 0
M  V30 3853 H 380.318 -3.78129 1.1762 0
M  V30 3854 H 381.492 -2.62172 3.78949 0
M  V30 3855 H 379.807 -2.49749 3.33189 0
M  V30 3856 H 382.404 -4.95042 2.02084 0
M  V30 3857 H 382.747 -4.13074 0.517243 0
M  V30 3858 H 383.28 -3.4067 2.05399 0
M  V30 3859 H 380.019 -4.35777 4.89672 0
M  V30 3860 H 379.539 -5.00203 3.30994 0
M  V30 3861 H 381.218 -5.17961 3.87718 0
M  V30 3862 N 381.35 -0.985608 -1.22978 0
M  V30 3863 C 382.298 -0.522631 -2.26652 0
M  V30 3864 C 383.292 0.422998 -1.64034 0
M  V30 3865 O 384.498 0.296319 -1.77544 0
M  V30 3866 H 380.873 -0.150597 -0.736766 0
M  V30 3867 H 382.844 -1.40863 -2.63059 0
M  V30 3868 C 381.593 0.154238 -3.47358 0
M  V30 3869 H 380.916 -0.564329 -3.95797 0
M  V30 3870 H 382.356 0.441744 -4.21693 0
M  V30 3871 C 380.815 1.38719 -3.07016 0
M  V30 3872 O 381.345 2.48307 -3.15764 0
M  V30 3873 N 379.551 1.25975 -2.61875 0
M  V30 3874 H 379.098 0.368068 -2.54957 0
M  V30 3875 H 379.056 2.08578 -2.3525 0
M  V30 3876 N 382.828 1.3818 -0.7579 0
M  V30 3877 C 383.758 2.33027 -0.148597 0
M  V30 3878 C 384.739 1.55085 0.69875 0
M  V30 3879 O 385.924 1.83384 0.639053 0
M  V30 3880 C 383.054 3.3928 0.742034 0
M  V30 3881 C 382.008 4.28 -0.00291946 0
M  V30 3882 C 381.334 5.25146 1.00625 0
M  V30 3883 C 382.634 5.08938 -1.17385 0
M  V30 3884 H 384.328 2.84231 -0.940909 0
M  V30 3885 H 381.874 1.36659 -0.453908 0
M  V30 3886 H 383.827 4.046 1.17799 0
M  V30 3887 H 382.551 2.86569 1.56671 0
M  V30 3888 H 381.21 3.64192 -0.419504 0
M  V30 3889 H 380.858 4.68721 1.8251 0
M  V30 3890 H 380.558 5.85361 0.512428 0
M  V30 3891 H 382.082 5.93342 1.44143 0
M  V30 3892 H 383.496 5.67474 -0.815224 0
M  V30 3893 H 381.893 5.7841 -1.59882 0
M  V30 3894 H 382.963 4.42424 -1.98468 0
M  V30 3895 N 384.306 0.507319 1.49211 0
M  V30 3896 C 385.722 0.163682 1.58758 0
M  V30 3897 C 385.922 -1.33208 1.51188 0
M  V30 3898 O 384.978 -2.10855 1.38911 0
M  V30 3899 C 386.291 0.746095 2.91297 0
M  V30 3900 C 387.839 0.712773 3.04776 0
M  V30 3901 C 388.314 1.27336 4.39943 0
M  V30 3902 N 389.805 1.23433 4.46451 0
M  V30 3903 C 390.54 1.63821 5.495 0
M  V30 3904 N 390.036 2.11832 6.5962 0
M  V30 3905 N 391.829 1.55198 5.4025 0
M  V30 3906 H 383.98 1.47972 1.52375 0
M  V30 3907 H 386.243 0.614147 0.722168 0
M  V30 3908 H 385.949 1.79534 3.02424 0
M  V30 3909 H 385.823 0.210137 3.76614 0
M  V30 3910 H 388.21 -0.327656 2.93275 0
M  V30 3911 H 388.291 1.28595 2.21127 0
M  V30 3912 H 387.935 2.3126 4.52196 0
M  V30 3913 H 387.865 0.676066 5.22242 0
M  V30 3914 H 390.356 0.882627 3.67448 0
M  V30 3915 H 390.669 2.40703 7.34358 0
M  V30 3916 H 389.014 2.1581 6.60644 0
M  V30 3917 H 392.205 1.17505 4.53112 0
M  V30 3918 H 392.378 1.86997 6.20432 0
M  V30 3919 N 385.784 -1.5574 0.241426 0
M  V30 3920 C 387.012 -2.03208 -0.389134 0
M  V30 3921 C 387.427 -1.12082 -1.51931 0
M  V30 3922 O 386.784 -0.134183 -1.82006 0
M  V30 3923 C 386.835 -3.50064 -0.902087 0
M  V30 3924 O 386.556 -4.37717 0.18305 0
M  V30 3925 C 388.057 -4.13268 -1.60389 0
M  V30 3926 H 385.277 -0.664509 -0.0931053 0
M  V30 3927 H 387.821 -2.0124 0.36369 0
M  V30 3928 H 385.976 -3.52583 -1.60511 0
M  V30 3929 H 386.39 -5.24097 -0.205579 0
M  V30 3930 H 387.864 -5.17733 -1.91458 0
M  V30 3931 H 388.341 -3.59434 -2.52397 0
M  V30 3932 H 388.947 -4.14655 -0.945576 0
M  V30 3933 N 387.262 0.0317525 -1.57568 0
M  V30 3934 C 388.21 1.05165 -2.07468 0
M  V30 3935 C 389.204 1.3761 -0.98792 0
M  V30 3936 O 390.41 1.36546 -1.17282 0
M  V30 3937 H 386.785 0.35666 -0.66204 0
M  V30 3938 H 388.756 0.604958 -2.92203 0
M  V30 3939 C 387.505 2.34488 -2.56731 0
M  V30 3940 H 386.828 2.10383 -3.39969 0
M  V30 3941 H 388.268 3.04203 -2.95358 0
M  V30 3942 C 386.727 3.03266 -1.46736 0
M  V30 3943 O 387.257 3.92988 -0.832069 0
M  V30 3944 N 385.463 2.6455 -1.20256 0
M  V30 3945 H 385.01 1.91674 -1.72102 0
M  V30 3946 H 384.968 3.10886 -0.468737 0
M  V30 3947 N 388.74 1.54641 0.303973 0
M  V30 3948 C 389.688 1.86137 1.39484 0
M  V30 3949 C 390.682 0.734854 1.52631 0
M  V30 3950 O 391.888 0.918803 1.54784 0
M  V30 3951 H 388.263 0.590324 0.465856 0
M  V30 3952 H 390.234 2.77324 1.10154 0
M  V30 3953 C 388.983 2.12274 2.75382 0
M  V30 3954 H 388.306 2.98429 2.66046 0
M  V30 3955 H 389.746 2.38254 3.5073 0
M  V30 3956 C 388.205 0.920365 3.24085 0
M  V30 3957 O 388.735 0.139377 4.01458 0
M  V30 3958 N 386.941 0.726566 2.81371 0
M  V30 3959 H 386.488 1.36332 2.18567 0
M  V30 3960 H 386.446 -0.0763799 3.14307 0
M  V30 3961 N 390.218 -0.567019 1.47046 0
M  V30 3962 C 391.446 -1.35027 1.56765 0
M  V30 3963 C 391.861 -1.8758 0.214316 0
M  V30 3964 O 391.218 -1.64471 -0.790919 0
M  V30 3965 C 391.269 -2.52698 2.58507 0
M  V30 3966 O 390.99 -2.0232 3.88585 0
M  V30 3967 C 392.491 -3.45043 2.78316 0
M  V30 3968 H 389.711 -0.41195 0.529658 0
M  V30 3969 H 392.255 -0.687832 1.92585 0
M  V30 3970 H 390.41 -3.149 2.25648 0
M  V30 3971 H 390.824 -2.79068 4.44096 0
M  V30 3972 H 392.298 -4.2405 3.53391 0
M  V30 3973 H 392.775 -3.97971 1.85784 0
M  V30 3974 H 393.381 -2.88665 3.12334 0
M  V30 3975 N 391.696 -1.35014 -0.812953 0
M  V30 3976 C 392.659 -1.27292 -1.90602 0
M  V30 3977 C 393.659 -0.185817 -1.59723 0
M  V30 3978 O 394.849 -0.439102 -1.68575 0
M  V30 3979 C 391.981 -0.967676 -3.26877 0
M  V30 3980 H 393.174 -2.24479 -1.9887 0
M  V30 3981 H 390.727 -1.19446 -1.00808 0
M  V30 3982 H 391.462 0.0005954 -3.243 0
M  V30 3983 H 391.247 -1.75412 -3.50675 0
M  V30 3984 H 392.737 -0.939085 -4.06904 0
M  V30 3985 N 393.175 1.03435 -1.18907 0
M  V30 3986 C 394.403 1.80381 -1.01342 0
M  V30 3987 C 394.818 1.83649 0.438005 0
M  V30 3988 O 394.175 1.27655 1.30424 0
M  V30 3989 C 394.226 3.25689 -1.56873 0
M  V30 3990 O 393.947 3.22673 -2.96334 0
M  V30 3991 C 395.448 4.19255 -1.44014 0
M  V30 3992 H 392.668 0.56784 -0.35749 0
M  V30 3993 H 395.212 1.30317 -1.576 0
M  V30 3994 H 393.367 3.72962 -1.04777 0
M  V30 3995 H 393.781 4.13748 -3.22355 0
M  V30 3996 H 395.255 5.19123 -1.87657 0
M  V30 3997 H 395.732 4.37467 -0.389815 0
M  V30 3998 H 396.338 3.77851 -1.95214 0
M  V30 3999 N 394.653 0.992116 1.22453 0
M  V30 4000 C 395.902 0.662992 1.90492 0
M  V30 4001 C 396.215 -0.808407 1.78113 0
M  V30 4002 O 397.421 -1.24908 2.41061 0
M  V30 4003 C 395.877 1.1353 3.41524 0
M  V30 4004 C 395.485 2.63187 3.62542 0
M  V30 4005 C 397.229 0.880465 4.15269 0
M  V30 4006 C 395.136 3.04024 5.0727 0
M  V30 4007 H 394.066 0.244278 0.713333 0
M  V30 4008 H 396.717 1.20157 1.38688 0
M  V30 4009 H 395.099 0.52485 3.92506 0
M  V30 4010 H 396.273 3.2957 3.22056 0
M  V30 4011 H 394.588 2.86543 3.02129 0
M  V30 4012 H 397.185 1.16128 5.21937 0
M  V30 4013 H 397.528 -0.183408 4.15896 0
M  V30 4014 H 398.061 1.45307 3.70312 0
M  V30 4015 H 394.8 4.09584 5.11782 0
M  V30 4016 H 394.32 2.42343 5.48662 0
M  V30 4017 H 395.999 2.95282 5.75689 0
M  V30 4018 N 396.131 -1.37776 0.765217 0
M  V30 4019 C 397.377 -2.00145 0.327072 0
M  V30 4020 C 397.71 -1.60607 -1.09175 0
M  V30 4021 O 396.985 -0.849127 -1.74986 0
M  V30 4022 C 397.268 -3.57109 0.46319 0
M  V30 4023 C 397.121 -4.06576 1.92395 0
M  V30 4024 C 398.44 -4.39888 -0.136473 0
M  V30 4025 H 395.559 -0.727113 0.120316 0
M  V30 4026 H 398.201 -1.63549 0.967039 0
M  V30 4027 H 396.351 -3.88414 -0.0816358 0
M  V30 4028 H 398.023 -3.85864 2.52798 0
M  V30 4029 H 396.266 -3.59011 2.43503 0
M  V30 4030 H 396.937 -5.15639 1.97028 0
M  V30 4031 H 399.413 -4.14803 0.328317 0
M  V30 4032 H 398.289 -5.48899 -0.0110582 0
M  V30 4033 H 398.55 -4.24758 -1.22608 0
M  V30 4034 N 397.609 -0.515225 -1.4894 0
M  V30 4035 C 398.858 0.0261361 -2.01683 0
M  V30 4036 C 399.171 1.36719 -1.39883 0
M  V30 4037 O 400.377 1.99606 -1.84037 0
M  V30 4038 C 398.833 0.0970111 -3.59769 0
M  V30 4039 C 398.441 -1.23825 -4.30548 0
M  V30 4040 C 400.185 0.587981 -4.20408 0
M  V30 4041 C 398.092 -1.12877 -5.80528 0
M  V30 4042 H 397.022 0.0135398 -0.753878 0
M  V30 4043 H 399.673 -0.656787 -1.71343 0
M  V30 4044 H 398.055 0.844694 -3.86886 0
M  V30 4045 H 399.229 -2.00034 -4.15118 0
M  V30 4046 H 397.544 -1.66379 -3.81716 0
M  V30 4047 H 400.141 0.68763 -5.3026 0
M  V30 4048 H 400.484 1.59026 -3.84729 0
M  V30 4049 H 401.017 -0.103582 -3.97665 0
M  V30 4050 H 397.756 -2.10575 -6.20756 0
M  V30 4051 H 397.276 -0.407799 -5.98412 0
M  V30 4052 H 398.955 -0.813332 -6.41868 0
M  V30 4053 N 399.087 1.5561 -0.249682 0
M  V30 4054 C 400.498 1.84979 0.252949 0
M  V30 4055 C 400.849 1.17153 1.57384 0
M  V30 4056 O 399.974 0.450884 2.11651 0
M  V30 4057 C 400.569 3.35584 0.465732 0
M  V30 4058 C 399.128 3.65169 0.912624 0
M  V30 4059 C 398.275 2.77299 -0.00859085 0
M  V30 4060 H 401.226 1.51513 -0.47217 0
M  V30 4061 H 401.247 3.57313 1.30795 0
M  V30 4062 H 400.759 3.8492 -0.49579 0
M  V30 4063 H 398.86 3.21312 1.88652 0
M  V30 4064 H 398.973 4.72912 0.767559 0
M  V30 4065 H 397.337 2.49678 0.50327 0
M  V30 4066 H 398.12 3.29442 -0.965537 0
M  V30 4067 N 400.565 -0.0233959 1.57583 0
M  V30 4068 C 401.795 -0.723631 1.93513 0
M  V30 4069 C 402.203 -1.69115 0.848333 0
M  V30 4070 O 401.546 -1.82781 -0.183484 0
M  V30 4071 C 401.608 -1.53075 3.25282 0
M  V30 4072 C 401.272 -0.727388 4.51174 0
M  V30 4073 C 402.269 -0.0251924 5.19894 0
M  V30 4074 C 399.954 -0.680256 4.97672 0
M  V30 4075 C 401.948 0.713374 6.33395 0
M  V30 4076 C 399.635 0.0620523 6.11068 0
M  V30 4077 C 400.633 0.757622 6.78785 0
M  V30 4078 O 400.321 1.48787 7.90011 0
M  V30 4079 H 400.053 -0.208051 0.643188 0
M  V30 4080 H 402.607 0.0167489 2.05393 0
M  V30 4081 H 400.837 -2.31508 3.09744 0
M  V30 4082 H 402.526 -2.11413 3.46496 0
M  V30 4083 H 403.292 -0.0526003 4.84971 0
M  V30 4084 H 399.171 -1.21116 4.44805 0
M  V30 4085 H 402.715 1.25683 6.86185 0
M  V30 4086 H 398.612 0.0913634 6.45435 0
M  V30 4087 H 399.38 1.40213 8.06401 0
M  V30 4088 N 402.043 -1.548 -0.295768 0
M  V30 4089 C 403.292 -1.73538 -1.02798 0
M  V30 4090 C 403.605 -0.531159 -1.8825 0
M  V30 4091 O 404.811 -0.600458 -2.64777 0
M  V30 4092 C 403.267 -3.07051 -1.87744 0
M  V30 4093 C 402.875 -4.34968 -1.07269 0
M  V30 4094 C 404.619 -3.35146 -2.60533 0
M  V30 4095 C 402.526 -5.5953 -1.91521 0
M  V30 4096 H 401.456 -0.646794 -0.387522 0
M  V30 4097 H 404.107 -1.81278 -0.284718 0
M  V30 4098 H 402.489 -2.93289 -2.66078 0
M  V30 4099 H 403.663 -4.5958 -0.335117 0
M  V30 4100 H 401.978 -4.13847 -0.460384 0
M  V30 4101 H 404.575 -4.2541 -3.23929 0
M  V30 4102 H 404.918 -2.54255 -3.29636 0
M  V30 4103 H 405.451 -3.49902 -1.89244 0
M  V30 4104 H 402.19 -6.43103 -1.26878 0
M  V30 4105 H 401.71 -5.39096 -2.62937 0
M  V30 4106 H 403.389 -5.96982 -2.49442 0
M  V30 4107 N 403.521 0.559213 -1.47345 0
M  V30 4108 C 404.469 1.68747 -1.60085 0
M  V30 4109 C 405.463 1.628 -0.46825 0
M  V30 4110 O 406.669 1.68009 -0.645977 0
M  V30 4111 H 403.044 0.558329 -0.503759 0
M  V30 4112 H 405.015 1.55138 -2.54902 0
M  V30 4113 C 403.764 3.07103 -1.63042 0
M  V30 4114 H 403.087 3.12361 -2.49541 0
M  V30 4115 H 404.527 3.85743 -1.76006 0
M  V30 4116 C 402.986 3.34935 -0.363357 0
M  V30 4117 O 403.516 3.98102 0.536416 0
M  V30 4118 N 401.722 2.89574 -0.244 0
M  V30 4119 H 401.269 2.38348 -0.977133 0
M  V30 4120 H 401.227 3.08566 0.602836 0
M  V30 4121 N 404.999 1.35443 0.805782 0
M  V30 4122 C 406.224 1.32037 1.59941 0
M  V30 4123 C 406.649 -0.0994215 1.87837 0
M  V30 4124 O 406.007 -1.06648 1.46615 0
M  V30 4125 C 406.055 2.13354 2.90711 0
M  V30 4126 O 405.159 1.5148 3.83572 0
M  V30 4127 H 404.5 0.452666 0.485787 0
M  V30 4128 H 407.03 1.78496 1.00002 0
M  V30 4129 H 407.04 2.25338 3.40128 0
M  V30 4130 H 405.715 3.16572 2.69732 0
M  V30 4131 H 404.292 1.4834 3.42125 0
M  V30 4132 N 406.477 -1.02803 1.19454 0
M  V30 4133 C 407.723 -1.76478 0.999171 0
M  V30 4134 C 408.056 -1.88456 -0.468828 0
M  V30 4135 O 407.331 -1.40198 -1.34814 0
M  V30 4136 C 407.614 -3.19044 1.66981 0
M  V30 4137 C 407.467 -3.14932 3.21151 0
M  V30 4138 C 408.786 -4.17456 1.39349 0
M  V30 4139 H 405.905 -0.640614 0.364393 0
M  V30 4140 H 408.547 -1.20005 1.47305 0
M  V30 4141 H 406.697 -3.67263 1.2669 0
M  V30 4142 H 408.369 -2.74605 3.70661 0
M  V30 4143 H 406.612 -2.52625 3.52652 0
M  V30 4144 H 407.283 -4.1566 3.63223 0
M  V30 4145 H 409.759 -3.77842 1.74283 0
M  V30 4146 H 408.635 -5.154 1.88823 0
M  V30 4147 H 408.896 -4.40949 0.318813 0
M  V30 4148 N 407.956 -0.998596 -1.21925 0
M  V30 4149 C 409.367 -0.711939 -1.72593 0
M  V30 4150 C 409.718 0.770842 -1.80423 0
M  V30 4151 O 408.843 1.60237 -1.4544 0
M  V30 4152 C 409.438 -1.28567 -3.13458 0
M  V30 4153 C 407.997 -1.04828 -3.61508 0
M  V30 4154 C 407.144 -1.4024 -2.39224 0
M  V30 4155 H 410.095 -1.17027 -1.07193 0
M  V30 4156 H 410.116 -0.667098 -3.74607 0
M  V30 4157 H 409.628 -2.36486 -3.07727 0
M  V30 4158 H 407.729 0.0140383 -3.72597 0
M  V30 4159 H 407.842 -1.71566 -4.47328 0
M  V30 4160 H 406.206 -0.821077 -2.41103 0
M  V30 4161 H 406.989 -2.49176 -2.36149 0
M  V30 4162 N 409.434 1.37368 -0.772513 0
M  V30 4163 C 410.683 1.98918 -0.333861 0
M  V30 4164 C 410.996 1.62017 1.09589 0
M  V30 4165 O 412.202 2.16676 1.63596 0
M  V30 4166 C 410.658 3.55735 -0.545971 0
M  V30 4167 C 410.266 4.01573 -1.98603 0
M  V30 4168 C 412.01 4.24156 -0.170979 0
M  V30 4169 C 409.917 5.51102 -2.1457 0
M  V30 4170 H 408.847 0.744214 -0.121085 0
M  V30 4171 H 411.498 1.56888 -0.95175 0
M  V30 4172 H 409.88 3.95748 0.141387 0
M  V30 4173 H 411.054 3.72803 -2.7084 0
M  V30 4174 H 409.369 3.45937 -2.31769 0
M  V30 4175 H 411.966 5.34024 -0.26878 0
M  V30 4176 H 412.309 4.06917 0.878855 0
M  V30 4177 H 412.842 3.89447 -0.810914 0
M  V30 4178 H 409.581 5.73268 -3.17875 0
M  V30 4179 H 409.101 5.81554 -1.46817 0
M  V30 4180 H 410.78 6.17083 -1.94468 0
M  V30 4181 N 410.912 0.523116 1.48665 0
M  V30 4182 C 412.189 -0.0775449 1.95446 0
M  V30 4183 C 412.569 -1.5197 1.4652 0
M  V30 4184 O 411.917 -2.17876 0.688657 0
M  V30 4185 C 412.127 0.0326135 3.48985 0
M  V30 4186 C 413.475 -0.130141 4.24401 0
M  V30 4187 O 414.499 -0.0415142 3.56176 0
M  V30 4188 O 413.358 -0.31491 5.45592 0
M  V30 4189 H 410.452 -0.0831012 0.822814 0
M  V30 4190 H 412.998 0.587227 1.59216 0
M  V30 4191 H 411.77 1.03748 3.77296 0
M  V30 4192 H 411.393 -0.671317 3.91892 0
M  V30 4193 N 412.39 -1.55475 0.257931 0
M  V30 4194 C 413.615 -2.04064 -0.370488 0
M  V30 4195 C 414.04 -1.13565 -1.49948 0
M  V30 4196 O 413.398 -0.130781 -1.80828 0
M  V30 4197 C 413.446 -3.50554 -0.845237 0
M  V30 4198 O 412.55 -3.63173 -1.95394 0
M  V30 4199 H 411.891 -0.659257 -0.0792243 0
M  V30 4200 H 414.421 -2.00903 0.387212 0
M  V30 4201 H 414.431 -3.91588 -1.14555 0
M  V30 4202 H 413.106 -4.15896 -0.0191259 0
M  V30 4203 H 411.683 -3.34039 -1.65748 0
M  V30 4204 N 413.868 0.0150385 -1.57593 0
M  V30 4205 C 414.801 1.04475 -2.0288 0
M  V30 4206 C 415.779 1.3436 -0.915764 0
M  V30 4207 O 416.963 1.46779 -1.18271 0
M  V30 4208 C 414.09 2.37608 -2.41371 0
M  V30 4209 C 413.136 2.23487 -3.63257 0
M  V30 4210 S 413.969 1.57505 -5.11813 0
M  V30 4211 C 415.125 2.921 -5.5356 0
M  V30 4212 H 415.358 0.65907 -2.89903 0
M  V30 4213 H 412.891 0.225452 -1.52745 0
M  V30 4214 H 414.849 3.14165 -2.64217 0
M  V30 4215 H 413.51 2.7332 -1.54775 0
M  V30 4216 H 412.703 3.21802 -3.87891 0
M  V30 4217 H 412.305 1.55074 -3.40335 0
M  V30 4218 H 414.597 3.88419 -5.55101 0
M  V30 4219 H 415.54 2.72184 -6.53698 0
M  V30 4220 H 415.948 2.95318 -4.8109 0
M  V30 4221 N 415.346 1.54954 0.287554 0
M  V30 4222 C 416.574 1.78881 1.03967 0
M  V30 4223 C 416.989 0.554894 1.80462 0
M  V30 4224 O 416.346 -0.475676 1.76192 0
M  V30 4225 C 416.397 3.00488 2.0097 0
M  V30 4226 O 416.118 4.19113 1.27577 0
M  V30 4227 C 417.619 3.36907 2.88112 0
M  V30 4228 H 414.839 0.596259 0.307761 0
M  V30 4229 H 417.383 2.01937 0.322749 0
M  V30 4230 H 415.538 2.79601 2.68145 0
M  V30 4231 H 415.952 4.87765 1.92835 0
M  V30 4232 H 417.426 4.25205 3.52001 0
M  V30 4233 H 417.903 2.55659 3.57121 0
M  V30 4234 H 418.509 3.60001 2.26449 0
M  V30 4235 N 416.824 -0.551391 1.4764 0
M  V30 4236 C 418.24 -0.877887 1.33287 0
M  V30 4237 C 418.44 -1.98817 0.327721 0
M  V30 4238 O 417.496 -2.51171 -0.258695 0
M  V30 4239 C 418.809 -1.26563 2.72768 0
M  V30 4240 C 420.357 -1.37673 2.81097 0
M  V30 4241 C 420.832 -1.79799 4.21232 0
M  V30 4242 N 422.323 -1.8694 4.23802 0
M  V30 4243 C 423.058 -2.20876 5.29151 0
M  V30 4244 N 422.554 -2.53386 6.448 0
M  V30 4245 N 424.347 -2.217 5.16532 0
M  V30 4246 H 416.498 0.18153 2.11623 0
M  V30 4247 H 418.761 0.0185514 0.947818 0
M  V30 4248 H 418.467 -0.523591 3.47781 0
M  V30 4249 H 418.341 -2.22052 3.04915 0
M  V30 4250 H 420.728 -2.10956 2.06353 0
M  V30 4251 H 420.809 -0.40357 2.52596 0
M  V30 4252 H 420.453 -1.07083 4.96483 0
M  V30 4253 H 420.383 -2.78128 4.4716 0
M  V30 4254 H 422.874 -1.64179 3.40373 0
M  V30 4255 H 423.187 -2.78325 7.20941 0
M  V30 4256 H 421.532 -2.50953 6.48111 0
M  V30 4257 H 424.723 -1.95745 4.25207 0
M  V30 4258 H 424.896 -2.47818 5.98741 0
M  V30 4259 N 418.302 -1.35869 -0.798587 0
M  V30 4260 C 419.252 -1.25982 -1.90033 0
M  V30 4261 C 420.236 -0.153303 -1.60168 0
M  V30 4262 O 421.428 -0.38527 -1.72756 0
M  V30 4263 C 418.557 -1.04211 -3.27101 0
M  V30 4264 C 417.643 -2.19289 -3.63006 0
M  V30 4265 N 418.034 -3.44559 -3.70287 0
M  V30 4266 C 416.332 -2.10852 -3.93011 0
M  V30 4267 C 417.033 -4.20283 -4.02166 0
M  V30 4268 N 416.009 -3.49124 -4.16669 0
M  V30 4269 H 419.811 -2.20883 -1.93876 0
M  V30 4270 H 417.325 -1.28457 -0.993614 0
M  V30 4271 H 419.322 -0.952155 -4.05881 0
M  V30 4272 H 417.982 -0.102013 -3.2454 0
M  V30 4273 H 418.993 -3.7881 -3.53162 0
M  V30 4274 H 415.67 -1.24744 -3.98428 0
M  V30 4275 H 417.06 -5.28575 -4.14799 0
M  V30 4276 N 419.78 1.02168 -1.19998 0
M  V30 4277 C 420.728 2.12717 -0.940967 0
M  V30 4278 C 421.722 1.69069 0.105841 0
M  V30 4279 O 422.928 1.79946 -0.0440583 0
M  V30 4280 H 419.303 0.695108 -0.28693 0
M  V30 4281 H 421.274 2.3175 -1.87975 0
M  V30 4282 C 420.023 3.44027 -0.504049 0
M  V30 4283 H 419.346 3.78036 -1.30112 0
M  V30 4284 H 420.786 4.22452 -0.361991 0
M  V30 4285 C 419.245 3.27678 0.782878 0
M  V30 4286 O 419.775 3.56949 1.84256 0
M  V30 4287 N 417.981 2.80943 0.742921 0
M  V30 4288 H 417.528 2.57322 -0.119687 0
M  V30 4289 H 417.486 2.70385 1.60435 0
M  V30 4290 N 421.258 1.00505 1.21394 0
M  V30 4291 C 422.206 0.558623 2.25792 0
M  V30 4292 C 423.2 -0.396848 1.64686 0
M  V30 4293 O 424.406 -0.268035 1.77993 0
M  V30 4294 H 420.781 0.1623 0.734277 0
M  V30 4295 H 422.752 1.4503 2.60785 0
M  V30 4296 C 421.501 -0.0989574 3.47559 0
M  V30 4297 H 420.824 0.627225 3.94849 0
M  V30 4298 H 422.264 -0.3746 4.22342 0
M  V30 4299 C 420.723 -1.33817 3.09184 0
M  V30 4300 O 421.253 -2.43252 3.19674 0
M  V30 4301 N 419.459 -1.21793 2.63846 0
M  V30 4302 H 419.006 -0.32746 2.5551 0
M  V30 4303 H 418.964 -2.04809 2.38539 0
M  V30 4304 N 422.737 -1.36956 0.779787 0
M  V30 4305 C 423.983 -1.99787 0.348281 0
M  V30 4306 C 424.316 -1.61756 -1.07465 0
M  V30 4307 O 423.591 -0.867639 -1.74075 0
M  V30 4308 C 423.874 -3.56597 0.50104 0
M  V30 4309 C 423.727 -4.04513 1.96697 0
M  V30 4310 C 425.046 -4.40008 -0.0898097 0
M  V30 4311 H 422.165 -0.725796 0.128022 0
M  V30 4312 H 424.807 -1.62514 0.984331 0
M  V30 4313 H 422.957 -3.88479 -0.0404347 0
M  V30 4314 H 424.629 -3.83161 2.56876 0
M  V30 4315 H 422.872 -3.56408 2.47297 0
M  V30 4316 H 423.543 -5.1352 2.02486 0
M  V30 4317 H 426.019 -4.14431 0.372293 0
M  V30 4318 H 424.895 -5.4888 0.0471605 0
M  V30 4319 H 425.156 -4.26035 -1.18096 0
M  V30 4320 N 424.215 -0.530993 -1.48385 0
M  V30 4321 C 425.44 0.000729535 -2.074 0
M  V30 4322 C 425.865 1.27298 -1.3848 0
M  V30 4323 O 425.223 1.75599 -0.451081 0
M  V30 4324 C 425.271 0.206697 -3.60007 0
M  V30 4325 O 424.375 1.27514 -3.92191 0
M  V30 4326 H 423.716 -0.039583 -0.662819 0
M  V30 4327 H 426.246 -0.739194 -1.9078 0
M  V30 4328 H 426.256 0.42904 -4.05738 0
M  V30 4329 H 424.931 -0.722675 -4.09573 0
M  V30 4330 H 423.508 1.03537 -3.58238 0
M  V30 4331 N 425.693 1.55336 -0.266172 0
M  V30 4332 C 426.623 2.25146 0.618981 0
M  V30 4333 C 427.604 1.23845 1.16604 0
M  V30 4334 O 428.789 1.52544 1.20183 0
M  V30 4335 C 425.919 2.96572 1.80728 0
M  V30 4336 C 424.873 4.04726 1.39215 0
M  V30 4337 C 424.199 4.63678 2.66283 0
M  V30 4338 C 425.499 5.19407 0.548942 0
M  V30 4339 H 427.193 2.99377 0.0368116 0
M  V30 4340 H 424.739 1.43991 0.0162651 0
M  V30 4341 H 426.692 3.44116 2.43232 0
M  V30 4342 H 425.416 2.19861 2.41514 0
M  V30 4343 H 424.075 3.57979 0.790351 0
M  V30 4344 H 423.723 3.83646 3.25308 0
M  V30 4345 H 423.423 5.367 2.39222 0
M  V30 4346 H 424.947 5.13967 3.29651 0
M  V30 4347 H 426.361 5.63059 1.07876 0
M  V30 4348 H 424.758 5.98936 0.373593 0
M  V30 4349 H 425.828 4.8295 -0.434394 0
M  V30 4350 N 427.171 -0.0066808 1.57599 0
M  V30 4351 C 428.104 -1.03397 2.03431 0
M  V30 4352 C 429.082 -1.33872 0.922877 0
M  V30 4353 O 430.266 -1.4615 1.19048 0
M  V30 4354 C 427.393 -2.36325 2.42628 0
M  V30 4355 C 426.439 -2.21557 3.64438 0
M  V30 4356 S 427.272 -1.54789 5.12641 0
M  V30 4357 C 428.428 -2.8916 5.55101 0
M  V30 4358 H 428.661 -0.643687 2.90248 0
M  V30 4359 H 426.194 -0.217349 1.52863 0
M  V30 4360 H 428.152 -3.12759 2.65879 0
M  V30 4361 H 426.813 -2.72495 1.56222 0
M  V30 4362 H 426.006 -3.1974 3.89592 0
M  V30 4363 H 425.608 -1.53267 3.41153 0
M  V30 4364 H 427.9 -3.8547 5.57153 0
M  V30 4365 H 428.843 -2.68713 6.55133 0
M  V30 4366 H 429.251 -2.92762 4.82649 0
M  V30 4367 N 428.649 -1.55105 -0.279332 0
M  V30 4368 C 429.895 -1.75672 -1.01327 0
M  V30 4369 C 430.228 -0.552739 -1.86168 0
M  V30 4370 O 429.503 0.449827 -1.89227 0
M  V30 4371 C 429.786 -3.05825 -1.90114 0
M  V30 4372 C 429.639 -4.36565 -1.08309 0
M  V30 4373 C 430.958 -3.31975 -2.8893 0
M  V30 4374 H 428.077 -0.639149 -0.366957 0
M  V30 4375 H 430.719 -1.87833 -0.286154 0
M  V30 4376 H 428.869 -2.95588 -2.52111 0
M  V30 4377 H 430.541 -4.58751 -0.484314 0
M  V30 4378 H 428.784 -4.32076 -0.386362 0
M  V30 4379 H 429.455 -5.23946 -1.73737 0
M  V30 4380 H 431.931 -3.41963 -2.37067 0
M  V30 4381 H 430.807 -4.2432 -3.48201 0
M  V30 4382 H 431.068 -2.51309 -3.63725 0
M  V30 4383 N 430.127 0.543554 -1.4793 0
M  V30 4384 C 431.376 1.29649 -1.54512 0
M  V30 4385 C 431.689 1.94382 -0.217973 0
M  V30 4386 O 432.895 2.71017 -0.161908 0
M  V30 4387 C 431.351 2.35175 -2.72435 0
M  V30 4388 C 430.959 1.76572 -4.11736 0
M  V30 4389 C 432.703 3.11564 -2.8832 0
M  V30 4390 C 430.61 2.79958 -5.20939 0
M  V30 4391 H 429.54 0.487541 -0.57517 0
M  V30 4392 H 432.191 0.575708 -1.74235 0
M  V30 4393 H 430.573 3.10229 -2.46118 0
M  V30 4394 H 431.747 1.07799 -4.48013 0
M  V30 4395 H 430.062 1.12722 -4.00852 0
M  V30 4396 H 432.659 3.88794 -3.67074 0
M  V30 4397 H 433.002 3.66594 -1.97268 0
M  V30 4398 H 433.535 2.43623 -3.14472 0
M  V30 4399 H 430.274 2.29766 -6.13912 0
M  V30 4400 H 429.794 3.47101 -4.89164 0
M  V30 4401 H 431.473 3.43198 -5.48474 0
M  V30 4402 N 431.605 1.3629 0.791371 0
M  V30 4403 C 433.016 1.27225 1.36641 0
M  V30 4404 C 433.367 -0.0887968 1.95999 0
M  V30 4405 O 432.492 -0.990207 1.92416 0
M  V30 4406 C 433.087 2.30375 2.48421 0
M  V30 4407 C 431.646 2.25004 3.01746 0
M  V30 4408 C 430.793 2.15259 1.7481 0
M  V30 4409 H 433.744 1.47198 0.593173 0
M  V30 4410 H 433.765 1.93905 3.27385 0
M  V30 4411 H 433.277 3.29422 2.05189 0
M  V30 4412 H 431.378 1.29417 3.49403 0
M  V30 4413 H 431.491 3.1761 3.58693 0
M  V30 4414 H 429.855 1.61482 1.96966 0
M  V30 4415 H 430.638 3.16191 1.33709 0
M  V30 4416 N 433.083 -1.0153 1.20538 0
M  V30 4417 C 434.332 -1.74558 1.01057 0
M  V30 4418 C 434.645 -1.90168 -0.457756 0
M  V30 4419 O 435.851 -2.60301 -0.771722 0
M  V30 4420 C 434.307 -3.13963 1.75941 0
M  V30 4421 C 433.915 -3.06361 3.26875 0
M  V30 4422 C 435.659 -3.91191 1.64832 0
M  V30 4423 C 433.566 -4.40782 3.94291 0
M  V30 4424 H 432.496 -0.654417 0.374505 0
M  V30 4425 H 435.147 -1.13521 1.44171 0
M  V30 4426 H 433.529 -3.75549 1.25614 0
M  V30 4427 H 434.703 -2.54074 3.84425 0
M  V30 4428 H 433.018 -2.42625 3.38411 0
M  V30 4429 H 435.615 -4.90644 2.12539 0
M  V30 4430 H 435.958 -4.11884 0.604745 0
M  V30 4431 H 436.491 -3.36236 2.12579 0
M  V30 4432 H 433.23 -4.25292 4.98805 0
M  V30 4433 H 432.75 -4.9307 3.41529 0
M  V30 4434 H 434.429 -5.09621 3.98617 0
M  V30 4435 N 434.561 -1.01147 -1.20859 0
M  V30 4436 C 435.524 -0.582224 -2.21682 0
M  V30 4437 C 436.524 0.344887 -1.57058 0
M  V30 4438 O 437.714 0.134281 -1.73682 0
M  V30 4439 C 434.846 0.150496 -3.40568 0
M  V30 4440 H 436.039 -1.47408 -2.61172 0
M  V30 4441 H 433.592 -0.800695 -1.34233 0
M  V30 4442 H 434.327 1.0575 -3.06574 0
M  V30 4443 H 434.112 -0.515444 -3.88697 0
M  V30 4444 H 435.602 0.438344 -4.15293 0
M  V30 4445 N 436.039 1.36541 -0.78704 0
M  V30 4446 C 437.45 1.81873 -0.421807 0
M  V30 4447 C 437.801 1.65487 1.05397 0
M  V30 4448 O 436.926 1.17448 1.81755 0
M  V30 4449 C 437.521 3.30192 -0.758841 0
M  V30 4450 C 436.08 3.73743 -0.446468 0
M  V30 4451 C 435.227 2.58844 -0.994728 0
M  V30 4452 H 438.178 1.24796 -0.98039 0
M  V30 4453 H 438.199 3.80468 -0.0490648 0
M  V30 4454 H 437.711 3.42087 -1.83299 0
M  V30 4455 H 435.812 3.6741 0.619739 0
M  V30 4456 H 435.925 4.69272 -0.965415 0
M  V30 4457 H 434.289 2.51245 -0.418087 0
M  V30 4458 H 435.072 2.73525 -2.07458 0
M  V30 4459 N 437.518 0.538854 1.48102 0
M  V30 4460 C 438.448 -0.207654 2.32575 0
M  V30 4461 C 439.429 -0.926559 1.4265 0
M  V30 4462 O 440.614 -0.91061 1.71527 0
M  V30 4463 C 437.744 -1.24957 3.24042 0
M  V30 4464 C 436.698 -0.648263 4.23062 0
M  V30 4465 C 436.024 -1.79348 5.03725 0
M  V30 4466 C 437.324 0.385897 5.20872 0
M  V30 4467 H 439.018 0.497534 2.95237 0
M  V30 4468 H 436.564 0.240715 1.41974 0
M  V30 4469 H 438.517 -1.77983 3.81969 0
M  V30 4470 H 437.241 -1.98446 2.59397 0
M  V30 4471 H 435.9 -0.139452 3.66335 0
M  V30 4472 H 435.548 -2.51696 4.35498 0
M  V30 4473 H 435.248 -1.39702 5.70751 0
M  V30 4474 H 436.772 -2.32735 5.64506 0
M  V30 4475 H 438.186 -0.057607 5.73271 0
M  V30 4476 H 436.583 0.700227 5.96001 0
M  V30 4477 H 437.653 1.28848 4.67468 0
M  V30 4478 N 438.996 -1.55193 0.274407 0
M  V30 4479 C 440.224 -2.03987 -0.345943 0
M  V30 4480 C 440.639 -1.15279 -1.4952 0
M  V30 4481 O 439.996 -0.172759 -1.8168 0
M  V30 4482 C 440.047 -3.51898 -0.827631 0
M  V30 4483 O 439.768 -4.37231 0.275855 0
M  V30 4484 C 441.269 -4.16577 -1.51587 0
M  V30 4485 H 438.489 -0.666335 -0.0789892 0
M  V30 4486 H 441.033 -2.00423 0.406294 0
M  V30 4487 H 439.188 -3.55909 -1.52996 0
M  V30 4488 H 439.602 -5.24415 -0.0943638 0
M  V30 4489 H 441.076 -5.21678 -1.80433 0
M  V30 4490 H 441.553 -3.64707 -2.44716 0
M  V30 4491 H 442.159 -4.16568 -0.857409 0
M  V30 4492 N 440.474 -0.00167713 -1.576 0
M  V30 4493 C 441.72 0.683832 -1.90923 0
M  V30 4494 C 442.053 1.7333 -0.875799 0
M  V30 4495 O 441.328 1.94215 0.10525 0
M  V30 4496 C 441.611 1.32543 -3.3482 0
M  V30 4497 C 441.464 0.287387 -4.48881 0
M  V30 4498 C 442.783 2.25114 -3.78169 0
M  V30 4499 H 439.902 0.247125 -0.694333 0
M  V30 4500 H 442.544 -0.0533149 -1.89925 0
M  V30 4501 H 440.694 1.95372 -3.35801 0
M  V30 4502 H 442.366 -0.341346 -4.60035 0
M  V30 4503 H 440.609 -0.39017 -4.32042 0
M  V30 4504 H 441.28 0.775393 -5.46527 0
M  V30 4505 H 443.756 1.723 -3.7875 0
M  V30 4506 H 442.632 2.66971 -4.79602 0
M  V30 4507 H 442.893 3.13092 -3.12131 0
M  V30 4508 N 441.952 1.55251 0.271103 0
M  V30 4509 C 443.363 1.66635 0.842007 0
M  V30 4510 C 443.714 0.594631 1.86972 0
M  V30 4511 O 442.839 -0.263532 2.14789 0
M  V30 4512 C 443.434 3.02082 1.53401 0
M  V30 4513 C 441.993 3.15487 2.05293 0
M  V30 4514 C 441.14 2.62438 0.895631 0
M  V30 4515 H 444.091 1.58629 0.0474117 0
M  V30 4516 H 444.112 2.95176 2.40107 0
M  V30 4517 H 443.624 3.80062 0.785786 0
M  V30 4518 H 441.725 2.42284 2.83071 0
M  V30 4519 H 441.838 4.22075 2.26693 0
M  V30 4520 H 440.202 2.19644 1.28953 0
M  V30 4521 H 440.985 3.42923 0.160878 0
M  V30 4522 N 443.43 -0.535701 1.48216 0
M  V30 4523 C 444.658 -1.31671 1.59594 0
M  V30 4524 C 445.073 -1.87083 0.254056 0
M  V30 4525 O 444.43 -1.66112 -0.755854 0
M  V30 4526 C 444.481 -2.47158 2.63809 0
M  V30 4527 O 444.202 -1.94032 3.92789 0
M  V30 4528 C 445.703 -3.39062 2.85573 0
M  V30 4529 H 442.923 -0.400623 0.538277 0
M  V30 4530 H 445.467 -0.646827 1.94001 0
M  V30 4531 H 443.622 -3.10043 2.32276 0
M  V30 4532 H 444.036 -2.69585 4.49916 0
M  V30 4533 H 445.51 -4.16459 3.62306 0
M  V30 4534 H 445.987 -3.93941 1.94184 0
M  V30 4535 H 446.593 -2.81975 3.18387 0
M  V30 4536 N 444.908 -1.36708 -0.784132 0
M  V30 4537 C 446.156 -1.30972 -1.53918 0
M  V30 4538 C 446.477 0.109086 -1.94695 0
M  V30 4539 O 445.747 1.05048 -1.65353 0
M  V30 4540 H 444.327 -0.481819 -0.570841 0
M  V30 4541 H 446.989 -1.71063 -0.934002 0
M  V30 4542 H 446.085 -1.94061 -2.44431 0
M  V30 4543 N 446.386 1.0089 -1.21074 0
M  V30 4544 C 447.349 2.0775 -0.968129 0
M  V30 4545 C 448.349 1.6069 0.0593445 0
M  V30 4546 O 449.539 1.73293 -0.177525 0
M  V30 4547 C 446.671 3.37794 -0.459108 0
M  V30 4548 H 447.864 2.30707 -1.9161 0
M  V30 4549 H 445.417 1.17807 -1.02719 0
M  V30 4550 H 446.152 3.20516 0.49397 0
M  V30 4551 H 445.937 3.7328 -1.20019 0
M  V30 4552 H 447.427 4.16454 -0.309099 0
M  V30 4553 N 447.864 1.01787 1.20321 0
M  V30 4554 C 449.092 0.727194 1.937 0
M  V30 4555 C 449.507 -0.712305 1.74848 0
M  V30 4556 O 448.864 -1.48327 1.06327 0
M  V30 4557 C 448.915 1.05497 3.45764 0
M  V30 4558 O 448.636 2.43794 3.64 0
M  V30 4559 C 450.137 0.785534 4.36285 0
M  V30 4560 H 447.357 0.266939 0.615617 0
M  V30 4561 H 449.901 1.35939 1.52777 0
M  V30 4562 H 448.056 0.468158 3.84561 0
M  V30 4563 H 448.47 2.55656 4.57974 0
M  V30 4564 H 449.944 1.06495 5.4163 0
M  V30 4565 H 450.421 -0.280273 4.38305 0
M  V30 4566 H 451.027 1.35456 4.03152 0
M  V30 4567 N 449.342 -1.36122 0.79427 0
M  V30 4568 C 450.753 -1.81646 0.431446 0
M  V30 4569 C 451.104 -1.66043 -1.04518 0
M  V30 4570 O 450.229 -1.1841 -1.8113 0
M  V30 4571 C 450.824 -3.29785 0.776341 0
M  V30 4572 C 449.383 -3.73501 0.466282 0
M  V30 4573 C 448.53 -2.58313 1.00844 0
M  V30 4574 H 451.481 -1.24274 0.986995 0
M  V30 4575 H 451.502 -3.80437 0.0692413 0
M  V30 4576 H 451.014 -3.4111 1.8511 0
M  V30 4577 H 449.115 -3.67733 -0.600245 0
M  V30 4578 H 449.228 -4.68754 0.990288 0
M  V30 4579 H 447.592 -2.5102 0.431406 0
M  V30 4580 H 448.375 -2.72421 2.08906 0
M  V30 4581 N 450.82 -0.546701 -1.47814 0
M  V30 4582 C 452.045 -0.021268 -2.07389 0
M  V30 4583 C 452.47 1.25822 -1.39822 0
M  V30 4584 O 451.828 1.75111 -0.46968 0
M  V30 4585 C 451.876 0.168502 -3.60206 0
M  V30 4586 O 450.98 1.23347 -3.93522 0
M  V30 4587 H 450.321 -0.0466108 -0.662362 0
M  V30 4588 H 452.851 -0.759387 -1.89985 0
M  V30 4589 H 452.861 0.385982 -4.0617 0
M  V30 4590 H 451.536 -0.766075 -4.08784 0
M  V30 4591 H 450.113 0.997319 -3.59316 0
M  V30 4592 N 452.299 1.55045 -0.282633 0
M  V30 4593 C 453.229 2.2579 0.595066 0
M  V30 4594 C 454.21 1.25074 1.15284 0
M  V30 4595 O 455.395 1.5381 1.18559 0
M  V30 4596 C 452.525 2.98472 1.77572 0
M  V30 4597 C 451.479 4.0618 1.34914 0
M  V30 4598 C 450.805 4.66477 2.6135 0
M  V30 4599 C 452.105 5.1996 0.493821 0
M  V30 4600 H 453.799 2.994 0.00505653 0
M  V30 4601 H 451.345 1.44 0.000992001 0
M  V30 4602 H 453.298 3.46677 2.39568 0
M  V30 4603 H 452.022 2.2241 2.39168 0
M  V30 4604 H 450.681 3.58797 0.752338 0
M  V30 4605 H 450.329 3.87074 3.2122 0
M  V30 4606 H 450.029 5.39207 2.33516 0
M  V30 4607 H 451.553 5.17435 3.24181 0
M  V30 4608 H 452.967 5.64172 1.01898 0
M  V30 4609 H 451.364 5.99299 0.310047 0
M  V30 4610 H 452.434 4.82462 -0.485593 0
M  V30 4611 N 453.777 0.010035 1.57597 0
M  V30 4612 C 455.188 -0.531426 1.78977 0
M  V30 4613 C 455.539 -1.73375 0.918454 0
M  V30 4614 O 454.664 -2.16047 0.123635 0
M  V30 4615 C 455.259 -0.97086 3.24592 0
M  V30 4616 C 453.818 -1.45756 3.47033 0
M  V30 4617 C 452.965 -0.413384 2.74201 0
M  V30 4618 H 455.916 0.236166 1.56933 0
M  V30 4619 H 455.937 -1.83633 3.33255 0
M  V30 4620 H 455.449 -0.0955893 3.87982 0
M  V30 4621 H 453.55 -2.35339 2.88871 0
M  V30 4622 H 453.663 -1.4781 4.55729 0
M  V30 4623 H 452.027 -0.877266 2.39115 0
M  V30 4624 H 452.81 0.453092 3.40297 0
M  V30 4625 N 455.255 -1.55392 -0.262866 0
M  V30 4626 C 456.504 -1.75679 -0.990943 0
M  V30 4627 C 456.817 -0.57097 -1.87081 0
M  V30 4628 O 458.023 -0.656486 -2.63444 0
M  V30 4629 C 456.479 -3.10964 -1.81188 0
M  V30 4630 C 456.087 -4.37146 -0.980188 0
M  V30 4631 C 457.831 -3.40597 -2.53365 0
M  V30 4632 C 455.738 -5.63466 -1.7961 0
M  V30 4633 H 454.668 -0.654868 -0.373716 0
M  V30 4634 H 457.319 -1.81841 -0.246203 0
M  V30 4635 H 455.701 -2.98867 -2.59797 0
M  V30 4636 H 456.875 -4.60187 -0.237558 0
M  V30 4637 H 455.19 -4.14731 -0.372497 0
M  V30 4638 H 457.787 -4.32186 -3.14833 0
M  V30 4639 H 458.13 -2.6119 -3.24169 0
M  V30 4640 H 458.663 -3.53838 -1.81779 0
M  V30 4641 H 455.402 -6.4565 -1.13209 0
M  V30 4642 H 454.922 -5.44552 -2.51443 0
M  V30 4643 H 456.601 -6.02139 -2.36723 0
M  V30 4644 N 456.733 0.527833 -1.48498 0
M  V30 4645 C 457.961 1.30823 -1.6029 0
M  V30 4646 C 458.376 1.86945 -0.263974 0
M  V30 4647 O 457.733 1.6651 0.747034 0
M  V30 4648 C 457.784 2.45756 -2.65116 0
M  V30 4649 O 457.505 1.91946 -3.93813 0
M  V30 4650 C 459.006 3.37543 -2.87367 0
M  V30 4651 H 456.226 0.397763 -0.540394 0
M  V30 4652 H 458.77 0.636529 -1.94341 0
M  V30 4653 H 456.925 3.08806 -2.33917 0
M  V30 4654 H 457.339 2.67195 -4.51339 0
M  V30 4655 H 458.813 4.14532 -3.6451 0
M  V30 4656 H 459.29 3.92905 -1.9627 0
M  V30 4657 H 459.896 2.80283 -3.19878 0
M  V30 4658 N 458.211 1.37122 0.776871 0
M  V30 4659 C 459.457 1.32243 1.53752 0
M  V30 4660 C 459.79 -0.0944745 1.9397 0
M  V30 4661 O 459.065 -1.05068 1.6368 0
M  V30 4662 C 459.348 2.25681 2.80607 0
M  V30 4663 C 459.201 3.76127 2.46676 0
M  V30 4664 C 460.52 2.17657 3.82509 0
M  V30 4665 H 457.639 0.481704 0.557791 0
M  V30 4666 H 460.281 1.6778 0.891612 0
M  V30 4667 H 458.431 1.95505 3.35723 0
M  V30 4668 H 460.103 4.16877 1.97513 0
M  V30 4669 H 458.346 3.94946 1.79443 0
M  V30 4670 H 459.017 4.36933 3.37333 0
M  V30 4671 H 461.493 2.44245 3.36873 0
M  V30 4672 H 460.369 2.85185 4.69 0
M  V30 4673 H 460.63 1.16785 4.26396 0
M  V30 4674 N 459.689 -1.00246 1.21608 0
M  V30 4675 C 460.917 -1.77631 1.06089 0
M  V30 4676 C 461.332 -1.84746 -0.38916 0
M  V30 4677 O 460.689 -1.31068 -1.26994 0
M  V30 4678 C 460.74 -3.21415 1.65453 0
M  V30 4679 O 460.461 -3.14703 3.04785 0
M  V30 4680 C 461.962 -4.15289 1.55079 0
M  V30 4681 H 459.182 -0.558162 0.37242 0
M  V30 4682 H 461.726 -1.26093 1.60999 0
M  V30 4683 H 459.881 -3.70053 1.14629 0
M  V30 4684 H 460.295 -4.05056 3.33212 0
M  V30 4685 H 461.769 -5.13965 2.01355 0
M  V30 4686 H 462.246 -4.36279 0.505665 0
M  V30 4687 H 462.852 -3.72543 2.05163 0
M  V30 4688 N 461.167 -1.02423 -1.1978 0
M  V30 4689 C 462.416 -0.713265 -1.88667 0
M  V30 4690 C 462.729 0.7609 -1.80193 0
M  V30 4691 O 463.935 1.18473 -2.44288 0
M  V30 4692 C 462.391 -1.22545 -3.38394 0
M  V30 4693 C 461.999 -2.72706 -3.55437 0
M  V30 4694 C 463.743 -0.990257 -4.12788 0
M  V30 4695 C 461.65 -3.17367 -4.99031 0
M  V30 4696 H 460.58 -0.263105 -0.706606 0
M  V30 4697 H 463.231 -1.23792 -1.35454 0
M  V30 4698 H 461.613 -0.628732 -3.90977 0
M  V30 4699 H 462.787 -3.37993 -3.13205 0
M  V30 4700 H 461.102 -2.94453 -2.94425 0
M  V30 4701 H 463.699 -1.29926 -5.18675 0
M  V30 4702 H 464.042 0.0730761 -4.16236 0
M  V30 4703 H 464.575 -1.55074 -3.66329 0
M  V30 4704 H 461.314 -4.23009 -5.00743 0
M  V30 4705 H 460.834 -2.56805 -5.42044 0
M  V30 4706 H 462.513 -3.10441 -5.67658 0
M  V30 4707 N 462.645 1.35699 -0.801477 0
M  V30 4708 C 463.608 2.28199 -0.213994 0
M  V30 4709 C 464.608 1.49359 0.595691 0
M  V30 4710 O 465.798 1.69186 0.414921 0
M  V30 4711 C 462.93 3.33587 0.702297 0
M  V30 4712 H 464.123 2.81666 -1.02976 0
M  V30 4713 H 461.676 1.45467 -0.571759 0
M  V30 4714 H 462.411 2.85297 1.54195 0
M  V30 4715 H 462.196 3.91906 0.123484 0
M  V30 4716 H 463.686 4.02638 1.10783 0
M  V30 4717 N 464.123 0.554532 1.47522 0
M  V30 4718 C 465.534 0.120446 1.86311 0
M  V30 4719 C 465.885 -1.30904 1.46145 0
M  V30 4720 O 465.01 -1.98434 0.863294 0
M  V30 4721 C 465.605 0.211808 3.38137 0
M  V30 4722 C 464.164 -0.167224 3.76028 0
M  V30 4723 C 463.311 0.560576 2.71575 0
M  V30 4724 H 466.262 0.764408 1.39077 0
M  V30 4725 H 466.283 -0.570275 3.76202 0
M  V30 4726 H 465.795 1.25232 3.6734 0
M  V30 4727 H 463.896 -1.20894 3.52442 0
M  V30 4728 H 464.009 0.189473 4.78725 0
M  V30 4729 H 462.373 0.00396836 2.547 0
M  V30 4730 H 463.156 1.60219 3.0362 0
M  V30 4731 N 465.601 -1.54893 0.290851 0
M  V30 4732 C 466.534 -2.19289 -0.631489 0
M  V30 4733 C 467.512 -1.15893 -1.14051 0
M  V30 4734 O 468.696 -1.4449 -1.21058 0
M  V30 4735 C 465.823 -2.82866 -1.86291 0
M  V30 4736 C 464.869 -3.997 -1.48801 0
M  V30 4737 S 465.702 -5.32641 -0.552644 0
M  V30 4738 C 466.858 -5.99696 -1.79209 0
M  V30 4739 H 467.091 -2.9718 -0.0843791 0
M  V30 4740 H 464.624 -1.54218 0.075031 0
M  V30 4741 H 466.582 -3.20124 -2.56964 0
M  V30 4742 H 465.243 -2.04839 -2.38117 0
M  V30 4743 H 464.436 -4.42932 -2.40473 0
M  V30 4744 H 464.038 -3.63947 -0.861321 0
M  V30 4745 H 466.33 -6.19886 -2.734 0
M  V30 4746 H 467.273 -6.94071 -1.40251 0
M  V30 4747 H 467.681 -5.29226 -1.96419 0
M  V30 4748 N 467.08 -0.0183926 -1.57589 0
M  V30 4749 C 468.32 0.666846 -1.93216 0
M  V30 4750 C 468.684 1.69905 -0.894215 0
M  V30 4751 O 469.885 2.436 -1.13633 0
M  V30 4752 C 468.156 1.27684 -3.33814 0
M  V30 4753 S 469.715 1.98464 -3.91353 0
M  V30 4754 H 466.533 0.219826 -0.676164 0
M  V30 4755 H 469.135 -0.0794893 -1.95338 0
M  V30 4756 H 467.839 0.513006 -4.07181 0
M  V30 4757 H 467.37 2.06071 -3.3511 0
M  V30 4758 H 469.385 3.26189 -3.73918 0
M  V30 4759 N 468.558 1.5553 0.254621 0
M  V30 4760 C 469.786 1.81046 1.00149 0
M  V30 4761 C 470.201 0.593047 1.79244 0
M  V30 4762 O 469.558 -0.438196 1.77161 0
M  V30 4763 C 469.609 3.04684 1.94551 0
M  V30 4764 O 469.33 4.21725 1.18658 0
M  V30 4765 C 470.831 3.42943 2.80901 0
M  V30 4766 H 468.051 0.602653 0.295044 0
M  V30 4767 H 470.595 2.02576 0.279842 0
M  V30 4768 H 468.75 2.85226 2.62154 0
M  V30 4769 H 469.164 4.91746 1.82445 0
M  V30 4770 H 470.638 4.32576 3.42902 0
M  V30 4771 H 471.115 2.63176 3.51617 0
M  V30 4772 H 471.721 3.64724 2.18762 0
M  V30 4773 N 470.036 -0.519951 1.48776 0
M  V30 4774 C 470.946 -1.65025 1.66745 0
M  V30 4775 C 471.962 -1.6508 0.549954 0
M  V30 4776 O 473.138 -1.83848 0.822295 0
M  V30 4777 C 470.203 -3.0146 1.71238 0
M  V30 4778 C 469.264 -3.12182 2.94688 0
M  V30 4779 C 468.497 -4.42109 2.98958 0
M  V30 4780 O 468.72 -5.29799 2.1135 0
M  V30 4781 O 467.654 -4.57406 3.91233 0
M  V30 4782 H 471.48 -1.52801 2.62461 0
M  V30 4783 H 469.065 -0.694157 1.32294 0
M  V30 4784 H 470.947 -3.82584 1.76657 0
M  V30 4785 H 469.622 -3.13988 0.786975 0
M  V30 4786 H 468.529 -2.30316 2.94797 0
M  V30 4787 H 469.862 -3.04574 3.86646 0
M  V30 4788 N 471.514 -1.37532 -0.769588 0
M  V30 4789 C 472.761 -1.3286 -1.52822 0
M  V30 4790 C 473.089 0.0862597 -1.94309 0
M  V30 4791 O 472.344 1.05995 -1.6451 0
M  V30 4792 C 472.643 -2.21558 -2.8044 0
M  V30 4793 C 472.309 -3.69796 -2.57996 0
M  V30 4794 C 470.971 -4.10194 -2.51583 0
M  V30 4795 C 473.323 -4.63699 -2.37976 0
M  V30 4796 C 470.651 -5.42608 -2.23144 0
M  V30 4797 C 473.003 -5.96353 -2.1106 0
M  V30 4798 C 471.667 -6.35853 -2.03093 0
M  V30 4799 H 470.937 -0.486168 -0.559215 0
M  V30 4800 H 473.584 -1.69757 -0.886277 0
M  V30 4801 H 471.889 -1.77663 -3.49204 0
M  V30 4802 H 473.586 -2.15256 -3.38328 0
M  V30 4803 H 470.176 -3.37759 -2.63851 0
M  V30 4804 H 474.36 -4.33346 -2.41919 0
M  V30 4805 H 469.616 -5.72173 -2.15472 0
M  V30 4806 H 473.79 -6.68667 -1.94568 0
M  V30 4807 H 471.417 -7.38382 -1.8082 0
M  V30 4808 N 472.992 0.995999 -1.22138 0
M  V30 4809 C 474.217 1.77601 -1.0711 0
M  V30 4810 C 474.642 1.84339 0.374264 0
M  V30 4811 O 474 1.29359 1.27028 0
M  V30 4812 C 474.048 3.18897 -1.68336 0
M  V30 4813 O 473.152 4.01663 -0.934928 0
M  V30 4814 H 472.493 0.547011 -0.376397 0
M  V30 4815 H 475.023 1.25137 -1.6187 0
M  V30 4816 H 475.033 3.69539 -1.72931 0
M  V30 4817 H 473.708 3.13308 -2.73516 0
M  V30 4818 H 472.285 3.60204 -0.964751 0
M  V30 4819 N 474.47 1.03057 1.19235 0
M  V30 4820 C 475.718 0.726581 1.88587 0
M  V30 4821 C 476.039 -0.747227 1.80115 0
M  V30 4822 O 475.309 -1.53849 1.21274 0
M  V30 4823 H 473.889 0.265768 0.698124 0
M  V30 4824 H 476.551 1.30516 1.44746 0
M  V30 4825 H 475.647 1.0224 2.94879 0
M  V30 4826 N 475.948 -1.35272 0.808662 0
M  V30 4827 C 477.197 -1.97963 0.386483 0
M  V30 4828 C 477.51 -1.64866 -1.05255 0
M  V30 4829 O 478.716 -2.20937 -1.57794 0
M  V30 4830 C 477.172 -3.54162 0.640096 0
M  V30 4831 C 476.78 -3.96166 2.0918 0
M  V30 4832 C 478.524 -4.23553 0.283376 0
M  V30 4833 C 476.431 -5.4522 2.29106 0
M  V30 4834 H 475.361 -0.740742 0.140774 0
M  V30 4835 H 478.012 -1.5431 0.993012 0
M  V30 4836 H 476.394 -3.95983 -0.0364117 0
M  V30 4837 H 477.568 -3.65491 2.80629 0
M  V30 4838 H 475.883 -3.3967 2.40859 0
M  V30 4839 H 478.48 -5.33124 0.410273 0
M  V30 4840 H 478.823 -4.09105 -0.770659 0
M  V30 4841 H 479.356 -3.8716 0.913884 0
M  V30 4842 H 476.095 -5.64638 3.32962 0
M  V30 4843 H 475.615 -5.77457 1.62184 0
M  V30 4844 H 477.294 -6.1171 2.1076 0
M  V30 4845 N 477.426 -0.562348 -1.47226 0
M  V30 4846 C 478.842 -0.222492 -1.58042 0
M  V30 4847 C 479.042 1.27505 -1.56028 0
M  V30 4848 O 478.098 2.05555 -1.46641 0
M  V30 4849 C 479.411 -0.853694 -2.88327 0
M  V30 4850 C 480.959 -0.825397 -3.01921 0
M  V30 4851 C 481.434 -1.43576 -4.34914 0
M  V30 4852 N 482.925 -1.39918 -4.41562 0
M  V30 4853 C 483.66 -1.84103 -5.43041 0
M  V30 4854 N 483.156 -2.36167 -6.51304 0
M  V30 4855 N 484.949 -1.75142 -5.34118 0
M  V30 4856 H 477.1 -1.53525 -1.46778 0
M  V30 4857 H 479.363 -0.640527 -0.698877 0
M  V30 4858 H 479.069 -1.90635 -2.95552 0
M  V30 4859 H 478.943 -0.34977 -3.75575 0
M  V30 4860 H 481.33 0.218583 -2.94289 0
M  V30 4861 H 481.411 -1.36713 -2.16202 0
M  V30 4862 H 481.055 -2.47884 -4.43301 0
M  V30 4863 H 480.985 -0.869427 -5.19373 0
M  V30 4864 H 483.476 -1.0184 -3.63919 0
M  V30 4865 H 483.789 -2.67793 -7.24919 0
M  V30 4866 H 482.134 -2.40181 -6.52179 0
M  V30 4867 H 485.325 -1.34241 -4.48439 0
M  V30 4868 H 485.498 -2.09895 -6.13065 0
M  V30 4869 N 478.904 1.54736 -0.299062 0
M  V30 4870 C 480.129 2.04975 0.316254 0
M  V30 4871 C 480.554 1.17501 1.46885 0
M  V30 4872 O 479.912 0.178678 1.80417 0
M  V30 4873 C 479.96 3.52672 0.751997 0
M  V30 4874 O 479.064 3.68226 1.85697 0
M  V30 4875 H 478.405 0.661126 0.0617175 0
M  V30 4876 H 480.935 1.99805 -0.440341 0
M  V30 4877 H 480.945 3.94488 1.04133 0
M  V30 4878 H 479.62 4.158 -0.0911482 0
M  V30 4879 H 478.197 3.38316 1.56834 0
M  V30 4880 N 480.382 0.0267497 1.57577 0
M  V30 4881 C 481.329 -0.955894 2.10075 0
M  V30 4882 C 482.299 -1.32453 1.00226 0
M  V30 4883 O 483.484 -1.41826 1.27632 0
M  V30 4884 C 480.624 -2.2338 2.6305 0
M  V30 4885 C 479.737 -1.92183 3.86898 0
M  V30 4886 C 478.872 -3.14251 4.28275 0
M  V30 4887 C 477.911 -2.78862 5.44888 0
M  V30 4888 N 477.048 -3.93548 5.81433 0
M  V30 4889 H 481.888 -0.501303 2.93753 0
M  V30 4890 H 479.425 -0.235847 1.45197 0
M  V30 4891 H 481.383 -2.98124 2.91853 0
M  V30 4892 H 480.013 -2.6646 1.82205 0
M  V30 4893 H 479.065 -1.07692 3.64838 0
M  V30 4894 H 480.377 -1.62117 4.7172 0
M  V30 4895 H 479.531 -3.97317 4.58502 0
M  V30 4896 H 478.27 -3.47476 3.42215 0
M  V30 4897 H 477.275 -1.94208 5.14357 0
M  V30 4898 H 478.5 -2.46855 6.32645 0
M  V30 4899 H 476.446 -4.2662 4.98328 0
M  V30 4900 H 476.363 -3.67098 6.6089 0
M  V30 4901 H 477.631 -4.77325 6.16264 0
M  V30 4902 N 481.861 -1.55662 -0.24637 0
M  V30 4903 C 483.086 -1.81914 -0.996093 0
M  V30 4904 C 483.511 -0.603875 -1.78143 0
M  V30 4905 O 482.869 0.447091 -1.75701 0
M  V30 4906 C 482.917 -3.05908 -1.90925 0
M  V30 4907 O 482.021 -2.82861 -3.00105 0
M  V30 4908 H 481.362 -0.600481 -0.283406 0
M  V30 4909 H 483.892 -2.02848 -0.267199 0
M  V30 4910 H 483.902 -3.35356 -2.3238 0
M  V30 4911 H 482.577 -3.93999 -1.33183 0
M  V30 4912 H 481.154 -2.64583 -2.62775 0
M  V30 4913 N 483.339 0.512053 -1.4905 0
M  V30 4914 C 484.588 1.26343 -1.57227 0
M  V30 4915 C 484.901 1.93876 -0.259155 0
M  V30 4916 O 486.107 2.70612 -0.219358 0
M  V30 4917 C 484.563 2.29343 -2.77362 0
M  V30 4918 C 484.171 1.67799 -4.15388 0
M  V30 4919 C 485.915 3.05378 -2.94864 0
M  V30 4920 C 483.822 2.68845 -5.2676 0
M  V30 4921 H 482.752 0.475231 -0.585382 0
M  V30 4922 H 485.403 0.53862 -1.75417 0
M  V30 4923 H 483.785 3.04938 -2.52643 0
M  V30 4924 H 484.959 0.982715 -4.50199 0
M  V30 4925 H 483.274 1.04194 -4.03153 0
M  V30 4926 H 485.871 3.80921 -3.75238 0
M  V30 4927 H 486.214 3.62327 -2.05 0
M  V30 4928 H 486.747 2.36898 -3.19569 0
M  V30 4929 H 483.486 2.16692 -6.18647 0
M  V30 4930 H 483.006 3.36647 -4.96416 0
M  V30 4931 H 484.685 3.31487 -5.5563 0
M  V30 4932 N 484.817 1.37938 0.762283 0
M  V30 4933 C 486.063 1.33866 1.52341 0
M  V30 4934 C 486.396 -0.0738961 1.94059 0
M  V30 4935 O 485.671 -1.03326 1.64785 0
M  V30 4936 C 485.954 2.28644 2.78197 0
M  V30 4937 C 485.807 3.78722 2.42672 0
M  V30 4938 C 487.126 2.21702 3.80179 0
M  V30 4939 H 484.245 0.487593 0.55265 0
M  V30 4940 H 486.887 1.68717 0.873767 0
M  V30 4941 H 485.037 1.99055 3.33631 0
M  V30 4942 H 486.709 4.18948 1.93081 0
M  V30 4943 H 484.952 3.96827 1.75244 0
M  V30 4944 H 485.623 4.40486 3.3268 0
M  V30 4945 H 488.099 2.47805 3.34263 0
M  V30 4946 H 486.975 2.90143 4.65949 0
M  V30 4947 H 487.236 1.21301 4.25133 0
M  V30 4948 N 486.295 -0.989507 1.22664 0
M  V30 4949 C 487.706 -1.54406 1.04955 0
M  V30 4950 C 488.057 -1.92366 -0.385951 0
M  V30 4951 O 487.182 -1.75111 -1.27142 0
M  V30 4952 C 487.777 -2.80578 1.89899 0
M  V30 4953 C 486.336 -3.32464 1.76478 0
M  V30 4954 C 485.483 -2.05524 1.86159 0
M  V30 4955 H 488.434 -0.810211 1.3646 0
M  V30 4956 H 488.455 -3.53075 1.4184 0
M  V30 4957 H 487.967 -2.52918 2.94371 0
M  V30 4958 H 486.068 -3.65024 0.747528 0
M  V30 4959 H 486.181 -4.02838 2.59342 0
M  V30 4960 H 484.545 -2.19241 1.29636 0
M  V30 4961 H 485.328 -1.80258 2.92168 0
M  V30 4962 N 487.773 -1.03688 -1.18687 0
M  V30 4963 C 488.705 -0.582696 -2.21669 0
M  V30 4964 C 489.718 0.345656 -1.59088 0
M  V30 4965 O 490.907 0.140776 -1.77944 0
M  V30 4966 C 488.007 0.169204 -3.38477 0
M  V30 4967 C 487.18 -0.766079 -4.30639 0
M  V30 4968 C 486.239 -0.0581541 -5.26168 0
M  V30 4969 O 485.265 -0.687346 -5.65035 0
M  V30 4970 N 486.467 1.20981 -5.67753 0
M  V30 4971 H 489.232 -1.46843 -2.61261 0
M  V30 4972 H 486.793 -0.916896 -1.33434 0
M  V30 4973 H 488.785 0.652543 -3.99405 0
M  V30 4974 H 487.355 0.956435 -2.97609 0
M  V30 4975 H 486.575 -1.42935 -3.67373 0
M  V30 4976 H 487.863 -1.40146 -4.89118 0
M  V30 4977 H 487.261 1.74159 -5.38224 0
M  V30 4978 H 485.818 1.6375 -6.30896 0
M  V30 4979 N 489.251 1.34841 -0.815825 0
M  V30 4980 C 490.499 1.98107 -0.399744 0
M  V30 4981 C 490.82 1.65019 1.03894 0
M  V30 4982 O 490.09 0.937311 1.72021 0
M  V30 4983 H 488.67 0.732827 -0.144823 0
M  V30 4984 H 491.332 1.64599 -1.0437 0
M  V30 4985 H 490.428 3.07856 -0.512965 0
M  V30 4986 N 490.729 0.570148 1.46925 0
M  V30 4987 C 491.659 -0.158274 2.32963 0
M  V30 4988 C 492.64 -0.896093 1.44583 0
M  V30 4989 O 493.825 -0.874022 1.7342 0
M  V30 4990 C 490.955 -1.18055 3.26619 0
M  V30 4991 C 489.909 -0.558379 4.24342 0
M  V30 4992 C 489.235 -1.68623 5.07415 0
M  V30 4993 C 490.535 0.496295 5.19937 0
M  V30 4994 H 492.229 0.560046 2.94115 0
M  V30 4995 H 489.775 0.270775 1.41431 0
M  V30 4996 H 491.728 -1.69841 3.85658 0
M  V30 4997 H 490.452 -1.92899 2.63548 0
M  V30 4998 H 489.111 -0.0617157 3.66548 0
M  V30 4999 H 488.759 -2.42402 4.40738 0
M  V30 5000 H 488.459 -1.27564 5.73586 0
M  V30 5001 H 489.983 -2.20709 5.69315 0
M  V30 5002 H 491.397 0.0640052 5.73264 0
M  V30 5003 H 489.794 0.82649 5.94381 0
M  V30 5004 H 490.864 1.38735 4.6463 0
M  V30 5005 N 492.207 -1.54576 0.307264 0
M  V30 5006 C 493.618 -1.8579 -0.184121 0
M  V30 5007 C 493.969 -1.22914 -1.52927 0
M  V30 5008 O 493.094 -0.529126 -2.09831 0
M  V30 5009 C 493.689 -3.37081 -0.340862 0
M  V30 5010 C 492.248 -3.68304 -0.776465 0
M  V30 5011 C 491.395 -2.77076 0.111503 0
M  V30 5012 H 494.346 -1.49656 0.528078 0
M  V30 5013 H 494.367 -3.61922 -1.17443 0
M  V30 5014 H 493.879 -3.82815 0.638309 0
M  V30 5015 H 491.98 -3.28092 -1.76596 0
M  V30 5016 H 492.093 -4.75434 -0.591512 0
M  V30 5017 H 490.457 -2.51374 -0.410256 0
M  V30 5018 H 491.24 -3.25632 1.08714 0
M  V30 5019 N 493.685 -0.035106 -1.57561 0
M  V30 5020 C 494.913 0.652258 -1.9635 0
M  V30 5021 C 495.328 1.65317 -0.911897 0
M  V30 5022 O 494.685 1.82194 0.105657 0
M  V30 5023 C 494.736 1.35337 -3.35211 0
M  V30 5024 O 494.457 0.392548 -4.36338 0
M  V30 5025 C 495.958 2.13199 -3.88666 0
M  V30 5026 H 493.178 0.179444 -0.646561 0
M  V30 5027 H 495.722 -0.0966459 -2.04271 0
M  V30 5028 H 493.877 2.05362 -3.28489 0
M  V30 5029 H 494.291 0.891097 -5.16875 0
M  V30 5030 H 495.765 2.577 -4.88154 0
M  V30 5031 H 496.242 2.97353 -3.23231 0
M  V30 5032 H 496.848 1.48118 -3.98674 0
M  V30 5033 N 495.163 1.55791 0.238111 0
M  V30 5034 C 496.391 1.82098 0.982233 0
M  V30 5035 C 496.806 0.612025 1.78605 0
M  V30 5036 O 496.163 -0.419381 1.77616 0
M  V30 5037 C 496.214 3.0673 1.91309 0
M  V30 5038 O 495.935 4.2296 1.14179 0
M  V30 5039 C 497.436 3.45903 2.77248 0
M  V30 5040 H 494.656 0.605748 0.288635 0
M  V30 5041 H 497.2 2.02862 0.258341 0
M  V30 5042 H 495.355 2.87991 2.59114 0
M  V30 5043 H 495.769 4.93653 1.7722 0
M  V30 5044 H 497.243 4.36189 3.38295 0
M  V30 5045 H 497.72 2.66891 3.48806 0
M  V30 5046 H 498.326 3.67024 2.14881 0
M  V30 5047 N 496.642 -0.504142 1.49319 0
M  V30 5048 C 497.87 -1.28256 1.62351 0
M  V30 5049 C 498.285 -1.86502 0.293682 0
M  V30 5050 O 497.642 -1.67678 -0.720449 0
M  V30 5051 C 497.693 -2.41507 2.68992 0
M  V30 5052 O 497.414 -1.85656 3.96817 0
M  V30 5053 C 498.915 -3.32929 2.927 0
M  V30 5054 H 496.135 -0.389115 0.546654 0
M  V30 5055 H 498.679 -0.605531 1.95329 0
M  V30 5056 H 496.834 -3.05046 2.38801 0
M  V30 5057 H 497.248 -2.59981 4.55533 0
M  V30 5058 H 498.722 -4.0868 3.71058 0
M  V30 5059 H 499.199 -3.89733 2.02496 0
M  V30 5060 H 499.805 -2.75158 3.24296 0
M  V30 5061 N 498.12 -1.38341 -0.754957 0
M  V30 5062 C 499.05 -1.38176 -1.88227 0
M  V30 5063 C 500.031 -0.247873 -1.68284 0
M  V30 5064 O 501.216 -0.45075 -1.88896 0
M  V30 5065 C 498.346 -1.20471 -3.25736 0
M  V30 5066 C 497.3 -2.3105 -3.60278 0
M  V30 5067 C 496.626 -1.98452 -4.96509 0
M  V30 5068 C 497.926 -3.73305 -3.65295 0
M  V30 5069 H 499.62 -2.32512 -1.88622 0
M  V30 5070 H 497.166 -1.1192 -0.906082 0
M  V30 5071 H 499.119 -1.18982 -4.04254 0
M  V30 5072 H 497.843 -0.225965 -3.25817 0
M  V30 5073 H 496.502 -2.31723 -2.84078 0
M  V30 5074 H 496.15 -0.990641 -4.93148 0
M  V30 5075 H 495.85 -2.7251 -5.20588 0
M  V30 5076 H 497.374 -1.98578 -5.77407 0
M  V30 5077 H 498.788 -3.7467 -4.3393 0
M  V30 5078 H 497.185 -4.46557 -4.00883 0
M  V30 5079 H 498.255 -4.05719 -2.65556 0
M  V30 5080 N 499.598 0.982988 -1.23187 0
M  V30 5081 C 501.009 1.53847 -1.05773 0
M  V30 5082 C 501.36 1.92568 0.375744 0
M  V30 5083 O 500.485 1.75783 1.26211 0
M  V30 5084 C 501.08 2.79567 -1.91384 0
M  V30 5085 C 499.639 3.31524 -1.78238 0
M  V30 5086 C 498.786 2.04534 -1.87246 0
M  V30 5087 H 501.737 0.802962 -1.36888 0
M  V30 5088 H 501.758 3.52317 -1.43711 0
M  V30 5089 H 501.27 2.51353 -2.95708 0
M  V30 5090 H 499.371 3.64623 -0.766875 0
M  V30 5091 H 499.484 4.01457 -2.61475 0
M  V30 5092 H 497.848 2.1855 -1.30797 0
M  V30 5093 H 498.631 1.78706 -2.9312 0
M  V30 5094 N 501.076 1.04316 1.18135 0
M  V30 5095 C 502.324 0.746542 1.87806 0
M  V30 5096 C 502.645 -0.728082 1.80898 0
M  V30 5097 O 501.915 -1.52554 1.22899 0
M  V30 5098 H 500.495 0.273157 0.695265 0
M  V30 5099 H 503.157 1.32044 1.43354 0
M  V30 5100 H 502.253 1.05362 2.93778 0
M  V30 5101 N 502.554 -1.34406 0.822964 0
M  V30 5102 C 503.779 -2.0304 0.423034 0
M  V30 5103 C 504.204 -1.61568 -0.963196 0
M  V30 5104 O 503.562 -0.800339 -1.62678 0
M  V30 5105 C 503.61 -3.56636 0.53321 0
M  V30 5106 O 502.714 -4.09971 -0.446939 0
M  V30 5107 H 502.055 -0.64075 0.174171 0
M  V30 5108 H 504.585 -1.71653 1.11339 0
M  V30 5109 H 504.595 -4.05945 0.408991 0
M  V30 5110 H 503.27 -3.86168 1.54425 0
M  V30 5111 H 501.847 -3.71835 -0.281601 0
M  V30 5112 N 504.032 -0.577932 -1.46621 0
M  V30 5113 C 505.28 -0.061566 -2.02006 0
M  V30 5114 C 505.601 1.30117 -1.4524 0
M  V30 5115 O 504.871 1.85313 -0.63529 0
M  V30 5116 H 503.451 -0.0197692 -0.746738 0
M  V30 5117 H 506.113 -0.752631 -1.79782 0
M  V30 5118 H 505.209 0.0110238 -3.12098 0
M  V30 5119 N 505.51 1.54411 -0.315457 0
M  V30 5120 C 506.442 2.21527 0.588067 0
M  V30 5121 C 507.455 1.21263 1.08624 0
M  V30 5122 O 508.644 1.47777 1.00121 0
M  V30 5123 C 505.744 2.85963 1.81875 0
M  V30 5124 C 504.917 4.12291 1.46063 0
M  V30 5125 C 503.976 4.60396 2.54799 0
M  V30 5126 O 503.002 5.25265 2.19283 0
M  V30 5127 N 504.204 4.33935 3.85591 0
M  V30 5128 H 506.969 2.99697 0.013414 0
M  V30 5129 H 504.53 1.61308 -0.138295 0
M  V30 5130 H 506.522 3.15071 2.53993 0
M  V30 5131 H 505.092 2.11548 2.30144 0
M  V30 5132 H 504.312 3.90036 0.571445 0
M  V30 5133 H 505.6 4.9452 1.19695 0
M  V30 5134 H 504.998 3.81996 4.17248 0
M  V30 5135 H 503.555 4.67718 4.53964 0
M  V30 5136 N 506.988 0.0434614 1.5754 0
M  V30 5137 C 508.235 -0.632035 1.92384 0
M  V30 5138 C 508.563 -1.71304 0.921157 0
M  V30 5139 O 507.818 -1.95583 -0.067744 0
M  V30 5140 C 508.117 -1.2738 3.3393 0
M  V30 5141 C 507.783 -0.321757 4.49751 0
M  V30 5142 C 506.445 -0.0597611 4.81163 0
M  V30 5143 C 508.797 0.331158 5.20147 0
M  V30 5144 C 506.125 0.862715 5.80322 0
M  V30 5145 C 508.477 1.24178 6.20292 0
M  V30 5146 C 507.141 1.51252 6.50138 0
M  V30 5147 H 506.411 -0.231278 0.703983 0
M  V30 5148 H 509.058 0.108294 1.91194 0
M  V30 5149 H 507.363 -2.08921 3.3145 0
M  V30 5150 H 509.06 -1.80326 3.58167 0
M  V30 5151 H 505.65 -0.53614 4.25233 0
M  V30 5152 H 509.834 0.141826 4.96097 0
M  V30 5153 H 505.09 1.08003 6.01785 0
M  V30 5154 H 509.264 1.75381 6.73954 0
M  V30 5155 H 506.891 2.22897 7.26788 0
M  V30 5156 N 508.466 -1.55915 -0.229846 0
M  V30 5157 C 509.396 -1.94754 -1.28815 0
M  V30 5158 C 510.377 -0.814657 -1.49323 0
M  V30 5159 O 511.562 -1.07631 -1.61645 0
M  V30 5160 C 508.692 -2.25705 -2.63959 0
M  V30 5161 C 507.646 -3.41406 -2.5812 0
M  V30 5162 C 506.972 -3.57941 -3.97218 0
M  V30 5163 C 508.272 -4.76616 -2.13623 0
M  V30 5164 H 509.966 -2.83404 -0.965547 0
M  V30 5165 H 507.512 -1.36353 -0.463028 0
M  V30 5166 H 509.465 -2.51467 -3.38146 0
M  V30 5167 H 508.189 -1.339 -2.9789 0
M  V30 5168 H 506.848 -3.1568 -1.86391 0
M  V30 5169 H 506.496 -2.63526 -4.28443 0
M  V30 5170 H 506.196 -4.35757 -3.94195 0
M  V30 5171 H 507.72 -3.86042 -4.73079 0
M  V30 5172 H 509.134 -5.01637 -2.77549 0
M  V30 5173 H 507.531 -5.57655 -2.21677 0
M  V30 5174 H 508.601 -4.7253 -1.08829 0
M  V30 5175 N 509.944 0.496216 -1.49584 0
M  V30 5176 C 511.172 1.27394 -1.63029 0
M  V30 5177 C 511.587 1.86344 -0.303569 0
M  V30 5178 O 510.944 1.68057 0.711547 0
M  V30 5179 C 510.995 2.40077 -2.70269 0
M  V30 5180 O 510.716 1.83549 -3.97796 0
M  V30 5181 C 512.217 3.31372 -2.94462 0
M  V30 5182 H 509.437 0.386211 -0.54871 0
M  V30 5183 H 511.981 0.595163 -1.95648 0
M  V30 5184 H 510.136 3.03775 -2.40415 0
M  V30 5185 H 510.55 2.57561 -4.56905 0
M  V30 5186 H 512.024 4.06707 -3.73221 0
M  V30 5187 H 512.501 3.88654 -2.0456 0
M  V30 5188 H 513.107 2.73435 -3.25751 0
M  V30 5189 N 511.423 1.38739 0.74761 0
M  V30 5190 C 512.651 1.38521 1.53686 0
M  V30 5191 C 513.066 -0.0235129 1.88785 0
M  V30 5192 O 512.423 -0.991662 1.53207 0
M  V30 5193 C 512.474 2.24641 2.83229 0
M  V30 5194 O 512.195 3.60026 2.49625 0
M  V30 5195 C 513.696 2.32669 3.77333 0
M  V30 5196 H 510.916 0.473589 0.475347 0
M  V30 5197 H 513.46 1.82395 0.924786 0
M  V30 5198 H 511.615 1.84213 3.40799 0
M  V30 5199 H 512.029 4.05435 3.3275 0
M  V30 5200 H 513.503 2.97201 4.65162 0
M  V30 5201 H 513.98 1.3421 4.18192 0
M  V30 5202 H 514.586 2.73512 3.25685 0
M  V30 5203 N 512.901 -0.976442 1.23707 0
M  V30 5204 C 514.178 -1.69296 0.979699 0
M  V30 5205 C 514.558 -2.0508 -0.500555 0
M  V30 5206 O 513.906 -1.74708 -1.47273 0
M  V30 5207 C 514.116 -2.93143 1.89389 0
M  V30 5208 C 515.464 -3.65572 2.15968 0
M  V30 5209 O 516.488 -3.03184 1.86971 0
M  V30 5210 O 515.347 -4.77859 2.65167 0
M  V30 5211 H 512.441 -0.739708 0.369812 0
M  V30 5212 H 514.987 -1.03131 1.34767 0
M  V30 5213 H 513.759 -2.63327 2.89439 0
M  V30 5214 H 513.382 -3.67044 1.52854 0
M  V30 5215 N 514.379 -1.04941 -1.1758 0
M  V30 5216 C 515.656 -0.671918 -1.83697 0
M  V30 5217 C 516.036 0.847929 -1.93322 0
M  V30 5218 O 515.384 1.75287 -1.46583 0
M  V30 5219 C 515.594 -1.35797 -3.21497 0
M  V30 5220 C 516.942 -1.4944 -3.97433 0
M  V30 5221 O 517.966 -1.31678 -3.30967 0
M  V30 5222 O 516.825 -1.78463 -5.1654 0
M  V30 5223 H 513.919 -0.236212 -0.792548 0
M  V30 5224 H 516.465 -1.14884 -1.24899 0
M  V30 5225 H 515.237 -2.39498 -3.09446 0
M  V30 5226 H 514.86 -0.870236 -3.8796 0
M  V30 5227 N 515.857 1.33968 -0.830081 0
M  V30 5228 C 517.273 1.51003 -0.516742 0
M  V30 5229 C 517.473 1.77286 0.957694 0
M  V30 5230 O 516.529 1.82797 1.74188 0
M  V30 5231 C 517.842 2.67036 -1.38247 0
M  V30 5232 C 519.39 2.80919 -1.38034 0
M  V30 5233 C 519.865 4.00004 -2.23071 0
M  V30 5234 N 521.356 4.07224 -2.20733 0
M  V30 5235 C 522.091 4.98541 -2.83275 0
M  V30 5236 N 521.587 5.95033 -3.54835 0
M  V30 5237 N 523.38 4.91469 -2.72791 0
M  V30 5238 H 515.531 1.15168 -1.78466 0
M  V30 5239 H 517.794 0.565443 -0.760906 0
M  V30 5240 H 517.5 2.54266 -2.42985 0
M  V30 5241 H 517.374 3.62226 -1.05225 0
M  V30 5242 H 519.761 2.93127 -0.340713 0
M  V30 5243 H 519.842 1.86517 -1.75057 0
M  V30 5244 H 519.486 3.88557 -3.27087 0
M  V30 5245 H 519.416 4.93634 -1.83394 0
M  V30 5246 H 521.907 3.38162 -1.68687 0
M  V30 5247 H 522.22 6.61357 -3.99784 0
M  V30 5248 H 520.565 5.95135 -3.58942 0
M  V30 5249 H 523.756 4.15048 -2.16456 0
M  V30 5250 H 523.929 5.62439 -3.21818 0
M  V30 5251 N 517.335 0.585699 1.46312 0
M  V30 5252 C 518.267 -0.183687 2.28463 0
M  V30 5253 C 519.28 -0.85264 1.38686 0
M  V30 5254 O 520.469 -0.721701 1.6326 0
M  V30 5255 C 517.569 -1.27977 3.13808 0
M  V30 5256 C 516.742 -0.702164 4.31727 0
M  V30 5257 C 515.801 -1.68633 4.98447 0
M  V30 5258 O 514.827 -1.22121 5.55945 0
M  V30 5259 N 516.029 -3.02047 4.95729 0
M  V30 5260 H 518.794 0.521127 2.95134 0
M  V30 5261 H 516.355 0.423673 1.56258 0
M  V30 5262 H 518.347 -1.9375 3.55307 0
M  V30 5263 H 516.917 -1.8874 2.4919 0
M  V30 5264 H 516.137 0.1331 3.93975 0
M  V30 5265 H 517.425 -0.296101 5.07938 0
M  V30 5266 H 516.823 -3.42457 4.50266 0
M  V30 5267 H 515.38 -3.63301 5.41161 0
M  V30 5268 N 518.813 -1.54241 0.323641 0
M  V30 5269 C 520.038 -2.05452 -0.283605 0
M  V30 5270 C 520.463 -1.19823 -1.44997 0
M  V30 5271 O 519.821 -0.207358 -1.8011 0
M  V30 5272 C 519.869 -3.53823 -0.695795 0
M  V30 5273 O 518.973 -3.71134 -1.79815 0
M  V30 5274 H 518.314 -0.662024 -0.0511917 0
M  V30 5275 H 520.844 -1.99079 0.472073 0
M  V30 5276 H 520.854 -3.96094 -0.978434 0
M  V30 5277 H 519.529 -4.15602 0.157287 0
M  V30 5278 H 518.106 -3.40768 -1.51431 0
M  V30 5279 N 520.291 -0.0518155 -1.57515 0
M  V30 5280 C 521.702 0.483787 -1.80323 0
M  V30 5281 C 522.053 1.70879 -0.964099 0
M  V30 5282 O 521.178 2.15643 -0.180872 0
M  V30 5283 C 521.773 0.884459 -3.27052 0
M  V30 5284 C 520.332 1.36504 -3.50776 0
M  V30 5285 C 519.479 0.340539 -2.75201 0
M  V30 5286 H 522.43 -0.277691 -1.56252 0
M  V30 5287 H 522.451 1.74733 -3.38007 0
M  V30 5288 H 521.963 -0.00731093 -3.88099 0
M  V30 5289 H 520.064 2.27598 -2.95009 0
M  V30 5290 H 520.177 1.35675 -4.59488 0
M  V30 5291 H 518.541 0.81356 -2.41357 0
M  V30 5292 H 519.324 -0.543156 -3.38976 0
M  V30 5293 N 521.769 1.56035 0.221574 0
M  V30 5294 C 522.994 1.83476 0.967026 0
M  V30 5295 C 523.419 0.632139 1.7716 0
M  V30 5296 O 522.777 -0.419082 1.7639 0
M  V30 5297 C 522.825 3.08907 1.86034 0
M  V30 5298 O 521.929 2.876 2.95567 0
M  V30 5299 H 521.27 0.604913 0.273817 0
M  V30 5300 H 523.8 2.03247 0.234893 0
M  V30 5301 H 523.81 3.3901 2.27016 0
M  V30 5302 H 522.485 3.96068 1.26898 0
M  V30 5303 H 521.062 2.6873 2.58532 0
M  V30 5304 N 523.247 -0.488276 1.49845 0
M  V30 5305 C 524.21 -1.57069 1.66919 0
M  V30 5306 C 525.21 -1.51445 0.540479 0
M  V30 5307 O 526.4 -1.5437 0.807188 0
M  V30 5308 C 523.532 -2.96718 1.67844 0
M  V30 5309 H 524.725 -1.43254 2.63474 0
M  V30 5310 H 522.278 -0.713435 1.39068 0
M  V30 5311 H 523.013 -3.15996 0.7292 0
M  V30 5312 H 522.798 -3.02208 2.49826 0
M  V30 5313 H 524.288 -3.75335 1.83066 0
M  V30 5314 N 524.725 -1.39134 -0.740242 0
M  V30 5315 C 525.655 -1.40165 -1.86751 0
M  V30 5316 C 526.636 -0.265708 -1.68012 0
M  V30 5317 O 527.821 -0.47076 -1.88408 0
M  V30 5318 C 524.951 -1.2392 -3.2444 0
M  V30 5319 C 523.905 -2.34858 -3.57807 0
M  V30 5320 C 523.231 -2.03707 -4.94376 0
M  V30 5321 C 524.531 -3.77159 -3.61315 0
M  V30 5322 H 526.225 -2.345 -1.86145 0
M  V30 5323 H 523.771 -1.12875 -0.89416 0
M  V30 5324 H 525.724 -1.23263 -4.02969 0
M  V30 5325 H 524.448 -0.26051 -3.25559 0
M  V30 5326 H 523.107 -2.34723 -2.81604 0
M  V30 5327 H 522.755 -1.04289 -4.9207 0
M  V30 5328 H 522.455 -2.78016 -5.17669 0
M  V30 5329 H 523.979 -2.04691 -5.75268 0
M  V30 5330 H 525.393 -3.79252 -4.29931 0
M  V30 5331 H 523.79 -4.50784 -3.96124 0
M  V30 5332 H 524.86 -4.08513 -2.61238 0
M  V30 5333 N 526.204 0.969867 -1.24223 0
M  V30 5334 C 527.615 1.52717 -1.07399 0
M  V30 5335 C 527.966 1.92956 0.355298 0
M  V30 5336 O 527.091 1.77112 1.2434 0
M  V30 5337 C 527.686 2.77521 -1.94339 0
M  V30 5338 C 526.245 3.29615 -1.81744 0
M  V30 5339 C 525.392 2.02537 -1.89405 0
M  V30 5340 H 528.343 0.788399 -1.37732 0
M  V30 5341 H 528.364 3.50773 -1.47439 0
M  V30 5342 H 527.876 2.48203 -2.98357 0
M  V30 5343 H 525.977 3.63789 -0.805505 0
M  V30 5344 H 526.09 3.98661 -2.65718 0
M  V30 5345 H 524.454 2.17151 -1.33108 0
M  V30 5346 H 525.237 1.75587 -2.94999 0
M  V30 5347 N 527.682 1.05563 1.17022 0
M  V30 5348 C 528.63 0.653887 2.2322 0
M  V30 5349 C 529.624 -0.326642 1.66221 0
M  V30 5350 O 530.83 -0.192301 1.7897 0
M  V30 5351 H 527.205 0.193297 0.726733 0
M  V30 5352 H 529.176 1.5596 2.54399 0
M  V30 5353 C 527.925 0.0485434 3.47666 0
M  V30 5354 H 527.248 0.79413 3.91834 0
M  V30 5355 H 528.688 -0.195133 4.23551 0
M  V30 5356 C 527.147 -1.20583 3.14581 0
M  V30 5357 O 527.677 -2.29475 3.29703 0
M  V30 5358 N 525.883 -1.10493 2.68774 0
M  V30 5359 H 525.43 -0.218795 2.56669 0
M  V30 5360 H 525.388 -1.94507 2.47011 0
M  V30 5361 N 529.16 -1.33526 0.837174 0
M  V30 5362 C 530.39 -2.01754 0.444848 0
M  V30 5363 C 530.798 -1.63149 -0.958072 0
M  V30 5364 O 530.141 -0.839827 -1.63379 0
M  V30 5365 C 530.203 -3.56228 0.483917 0
M  V30 5366 C 529.867 -4.18205 1.84265 0
M  V30 5367 C 530.864 -4.37699 2.80563 0
M  V30 5368 C 528.549 -4.54667 2.13503 0
M  V30 5369 C 530.543 -4.928 4.04261 0
M  V30 5370 C 528.23 -5.09475 3.37458 0
M  V30 5371 C 529.228 -5.28488 4.32654 0
M  V30 5372 O 528.916 -5.82132 5.54417 0
M  V30 5373 H 528.648 -0.652928 0.175104 0
M  V30 5374 H 531.202 -1.71469 1.13082 0
M  V30 5375 H 529.432 -3.85833 -0.258826 0
M  V30 5376 H 531.121 -4.05752 0.109653 0
M  V30 5377 H 531.887 -4.0988 2.59274 0
M  V30 5378 H 527.766 -4.39164 1.40201 0
M  V30 5379 H 531.31 -5.07555 4.78574 0
M  V30 5380 H 527.207 -5.36725 3.58604 0
M  V30 5381 H 527.975 -6.00548 5.56133 0
M  V30 5382 N 530.638 -0.59345 -1.46 0
M  V30 5383 C 531.548 0.135817 -2.34207 0
M  V30 5384 C 532.564 0.875008 -1.50398 0
M  V30 5385 O 533.74 0.835778 -1.83239 0
M  V30 5386 C 530.805 1.12977 -3.27776 0
M  V30 5387 C 529.866 0.394081 -4.27487 0
M  V30 5388 C 529.099 1.34068 -5.16586 0
M  V30 5389 O 529.322 2.5778 -5.08828 0
M  V30 5390 O 528.256 0.845426 -5.95933 0
M  V30 5391 H 532.082 -0.588691 -2.9794 0
M  V30 5392 H 529.667 -0.353784 -1.45151 0
M  V30 5393 H 531.549 1.70261 -3.85473 0
M  V30 5394 H 530.224 1.83556 -2.66625 0
M  V30 5395 H 529.131 -0.220869 -3.73447 0
M  V30 5396 H 530.464 -0.270939 -4.91454 0
M  V30 5397 N 532.116 1.54067 -0.331816 0
M  V30 5398 C 533.527 1.86059 0.15454 0
M  V30 5399 C 533.878 1.25331 1.50952 0
M  V30 5400 O 533.003 0.562441 2.08963 0
M  V30 5401 C 533.598 3.37581 0.287192 0
M  V30 5402 C 532.157 3.69493 0.717773 0
M  V30 5403 C 531.304 2.76863 -0.155569 0
M  V30 5404 H 534.255 1.48797 -0.55182 0
M  V30 5405 H 534.276 3.63744 1.11671 0
M  V30 5406 H 533.788 3.81751 -0.699131 0
M  V30 5407 H 531.889 3.3086 1.71354 0
M  V30 5408 H 532.002 4.76315 0.5158 0
M  V30 5409 H 530.366 2.51995 0.370213 0
M  V30 5410 H 531.149 3.23861 -1.13881 0
M  V30 5411 N 533.594 0.0601682 1.57485 0
M  V30 5412 C 534.822 -0.620937 1.97363 0
M  V30 5413 C 535.237 -1.63846 0.938082 0
M  V30 5414 O 534.594 -1.82339 -0.0766578 0
M  V30 5415 C 534.645 -1.29987 3.37321 0
M  V30 5416 O 534.366 -0.323081 4.36907 0
M  V30 5417 C 535.867 -2.06989 3.92008 0
M  V30 5418 H 533.087 -0.169135 0.649334 0
M  V30 5419 H 535.631 0.129132 2.04092 0
M  V30 5420 H 533.786 -2.0011 3.31715 0
M  V30 5421 H 534.2 -0.808754 5.18227 0
M  V30 5422 H 535.674 -2.49901 4.92192 0
M  V30 5423 H 536.151 -2.92173 3.2792 0
M  V30 5424 H 536.757 -1.41757 4.0098 0
M  V30 5425 N 535.072 -1.5615 -0.213296 0
M  V30 5426 C 536.483 -1.69645 -0.779582 0
M  V30 5427 C 536.834 -0.663615 -1.84636 0
M  V30 5428 O 535.959 0.183633 -2.15619 0
M  V30 5429 C 536.554 -3.07567 -1.42084 0
M  V30 5430 C 535.113 -3.22889 -1.93442 0
M  V30 5431 C 534.26 -2.65581 -0.797612 0
M  V30 5432 H 537.211 -1.58696 0.0114951 0
M  V30 5433 H 537.232 -3.03884 -2.28986 0
M  V30 5434 H 536.744 -3.82716 -0.644187 0
M  V30 5435 H 534.845 -2.52623 -2.73884 0
M  V30 5436 H 534.958 -4.30197 -2.10872 0
M  V30 5437 H 533.322 -2.24278 -1.20712 0
M  V30 5438 H 534.105 -3.43284 -0.033494 0
M  V30 5439 N 536.55 0.480323 -1.50102 0
M  V30 5440 C 537.966 0.813295 -1.37323 0
M  V30 5441 C 538.166 1.97027 -0.422206 0
M  V30 5442 O 537.222 2.5212 0.138563 0
M  V30 5443 C 538.535 1.13404 -2.78496 0
M  V30 5444 C 540.083 1.24104 -2.87345 0
M  V30 5445 C 540.558 1.59497 -4.29331 0
M  V30 5446 N 542.049 1.66507 -4.32238 0
M  V30 5447 C 542.784 1.95378 -5.39087 0
M  V30 5448 N 542.28 2.22333 -6.56155 0
M  V30 5449 N 544.073 1.96803 -5.26522 0
M  V30 5450 H 536.224 -0.282291 -2.10516 0
M  V30 5451 H 538.487 -0.063752 -0.945854 0
M  V30 5452 H 538.193 0.357064 -3.49883 0
M  V30 5453 H 538.067 2.07251 -3.15162 0
M  V30 5454 H 540.454 2.00871 -2.16183 0
M  V30 5455 H 540.535 0.282593 -2.54234 0
M  V30 5456 H 540.179 0.832736 -5.01027 0
M  V30 5457 H 540.109 2.56477 -4.59921 0
M  V30 5458 H 542.6 1.47753 -3.47818 0
M  V30 5459 H 542.913 2.43611 -7.33399 0
M  V30 5460 H 541.258 2.19745 -6.59346 0
M  V30 5461 H 544.449 1.75235 -4.34062 0
M  V30 5462 H 544.622 2.18969 -6.09883 0
M  V30 5463 N 538.028 1.39524 0.732853 0
M  V30 5464 C 539.277 1.36175 1.48792 0
M  V30 5465 C 539.59 -0.0388195 1.95561 0
M  V30 5466 O 540.796 -0.194899 2.708 0
M  V30 5467 C 539.252 2.39242 2.68871 0
M  V30 5468 C 538.86 3.85024 2.29042 0
M  V30 5469 C 540.604 2.44972 3.46683 0
M  V30 5470 C 538.511 4.79727 3.45856 0
M  V30 5471 H 537.441 0.506267 0.558757 0
M  V30 5472 H 540.092 1.65181 0.799226 0
M  V30 5473 H 538.474 2.0331 3.39825 0
M  V30 5474 H 539.648 4.30008 1.6562 0
M  V30 5475 H 537.963 3.82609 1.64316 0
M  V30 5476 H 540.56 3.12918 4.33574 0
M  V30 5477 H 540.903 1.4749 3.89297 0
M  V30 5478 H 541.436 2.79808 2.82759 0
M  V30 5479 H 538.175 5.78479 3.08289 0
M  V30 5480 H 537.695 4.39421 4.08251 0
M  V30 5481 H 539.374 4.98731 4.12161 0
M  V30 5482 N 539.506 -0.963266 1.24736 0
M  V30 5483 C 540.456 -2.0438 1.01058 0
M  V30 5484 C 541.44 -1.60824 -0.0495354 0
M  V30 5485 O 542.632 -1.76232 0.164741 0
M  V30 5486 C 539.761 -3.37617 0.622067 0
M  V30 5487 C 538.847 -3.87722 1.7185 0
M  V30 5488 N 539.238 -4.10715 2.95207 0
M  V30 5489 C 537.536 -4.16426 1.59703 0
M  V30 5490 C 538.237 -4.51872 3.66315 0
M  V30 5491 N 537.213 -4.57302 2.93897 0
M  V30 5492 H 541.015 -2.20138 1.94721 0
M  V30 5493 H 538.529 -1.14741 1.14927 0
M  V30 5494 H 540.526 -4.14638 0.43366 0
M  V30 5495 H 539.186 -3.23242 -0.307327 0
M  V30 5496 H 540.197 -3.98037 3.31341 0
M  V30 5497 H 536.874 -4.10962 0.73598 0
M  V30 5498 H 538.264 -4.78037 4.72155 0
M  V30 5499 N 540.985 -1.06182 -1.16461 0
M  V30 5500 C 542.234 -0.772927 -1.86303 0
M  V30 5501 C 542.547 0.703187 -1.82523 0
M  V30 5502 O 543.753 1.10641 -2.47933 0
M  V30 5503 C 542.209 -1.33249 -3.34324 0
M  V30 5504 C 541.817 -2.83876 -3.46581 0
M  V30 5505 C 543.561 -1.12108 -4.09429 0
M  V30 5506 C 541.468 -3.33082 -4.88682 0
M  V30 5507 H 540.398 -0.285452 -0.697878 0
M  V30 5508 H 543.049 -1.28039 -1.31447 0
M  V30 5509 H 541.431 -0.7528 -3.88779 0
M  V30 5510 H 542.605 -3.47786 -3.02293 0
M  V30 5511 H 540.92 -3.03671 -2.84909 0
M  V30 5512 H 543.517 -1.46361 -5.14279 0
M  V30 5513 H 543.86 -0.0593832 -4.16258 0
M  V30 5514 H 544.393 -1.6665 -3.6121 0
M  V30 5515 H 541.132 -4.38726 -4.87032 0
M  V30 5516 H 540.652 -2.73919 -5.33599 0
M  V30 5517 H 542.331 -3.28344 -5.57494 0
M  V30 5518 N 542.463 1.3308 -0.844243 0
M  V30 5519 C 543.874 1.7992 -0.498566 0
M  V30 5520 C 544.225 1.69808 0.982834 0
M  V30 5521 O 543.35 1.25051 1.7661 0
M  V30 5522 C 543.945 3.26677 -0.898204 0
M  V30 5523 C 542.504 3.71513 -0.604583 0
M  V30 5524 C 541.651 2.54393 -1.10362 0
M  V30 5525 H 544.602 1.20526 -1.03244 0
M  V30 5526 H 544.623 3.79918 -0.21039 0
M  V30 5527 H 544.135 3.34004 -1.97643 0
M  V30 5528 H 542.236 3.69708 0.46335 0
M  V30 5529 H 542.349 4.64755 -1.16358 0
M  V30 5530 H 540.713 2.49246 -0.524273 0
M  V30 5531 H 541.496 2.6448 -2.18873 0
M  V30 5532 N 543.941 0.601185 1.45683 0
M  V30 5533 C 545.189 0.0936957 2.01883 0
M  V30 5534 C 545.51 -1.2779 1.47291 0
M  V30 5535 O 544.78 -1.84279 0.664691 0
M  V30 5536 H 543.36 0.0316466 0.746329 0
M  V30 5537 H 546.022 0.781137 1.78562 0
M  V30 5538 H 545.118 0.0386297 3.12076 0
M  V30 5539 N 545.419 -1.53889 0.339982 0
M  V30 5540 C 546.366 -2.24902 -0.518452 0
M  V30 5541 C 547.336 -1.24593 -1.09844 0
M  V30 5542 O 548.521 -1.53317 -1.13572 0
M  V30 5543 C 545.661 -3.02262 -1.66529 0
M  V30 5544 C 544.774 -4.17418 -1.11295 0
M  V30 5545 C 543.909 -4.82273 -2.2268 0
M  V30 5546 C 542.948 -5.89503 -1.6478 0
M  V30 5547 N 542.085 -6.48153 -2.69893 0
M  V30 5548 H 546.925 -2.97853 0.0936579 0
M  V30 5549 H 544.462 -1.46986 0.0579924 0
M  V30 5550 H 546.42 -3.45371 -2.3404 0
M  V30 5551 H 545.05 -2.31614 -2.24844 0
M  V30 5552 H 544.102 -3.78976 -0.328886 0
M  V30 5553 H 545.414 -4.94554 -0.649414 0
M  V30 5554 H 544.568 -5.28435 -2.98063 0
M  V30 5555 H 543.307 -4.04552 -2.72376 0
M  V30 5556 H 542.312 -5.42728 -0.879004 0
M  V30 5557 H 543.537 -6.6913 -1.1594 0
M  V30 5558 H 541.483 -5.73298 -3.1885 0
M  V30 5559 H 541.4 -7.20752 -2.28151 0
M  V30 5560 H 542.668 -6.98968 -3.45056 0
M  V30 5561 N 546.897 -0.0685191 -1.57451 0
M  V30 5562 C 548.143 0.602239 -1.93652 0
M  V30 5563 C 548.476 1.6946 -0.948526 0
M  V30 5564 O 547.751 1.94487 0.022782 0
M  V30 5565 C 548.034 1.18223 -3.4014 0
M  V30 5566 C 547.887 0.0967431 -4.49696 0
M  V30 5567 C 549.206 2.08872 -3.87377 0
M  V30 5568 H 546.325 0.217453 -0.70419 0
M  V30 5569 H 548.967 -0.133821 -1.89528 0
M  V30 5570 H 547.117 1.80953 -3.43785 0
M  V30 5571 H 548.789 -0.536155 -4.58174 0
M  V30 5572 H 547.032 -0.573063 -4.29998 0
M  V30 5573 H 547.703 0.542894 -5.49324 0
M  V30 5574 H 550.179 1.56081 -3.85717 0
M  V30 5575 H 549.055 2.46389 -4.90493 0
M  V30 5576 H 549.316 2.99572 -3.25129 0
M  V30 5577 N 548.375 1.56261 0.205012 0
M  V30 5578 C 549.325 1.90155 1.25798 0
M  V30 5579 C 550.309 0.766227 1.41484 0
M  V30 5580 O 551.501 1.02893 1.44021 0
M  V30 5581 C 548.63 2.23603 2.60493 0
M  V30 5582 C 547.716 3.43568 2.48639 0
M  V30 5583 N 548.107 4.61747 2.06455 0
M  V30 5584 C 546.405 3.4751 2.79558 0
M  V30 5585 C 547.106 5.43907 2.06253 0
M  V30 5586 N 546.082 4.84051 2.47377 0
M  V30 5587 H 549.884 2.79031 0.922986 0
M  V30 5588 H 547.398 1.57048 0.413501 0
M  V30 5589 H 549.395 2.46067 3.36537 0
M  V30 5590 H 548.055 1.36049 2.94823 0
M  V30 5591 H 549.066 4.86598 1.77321 0
M  V30 5592 H 545.743 2.70345 3.18151 0
M  V30 5593 H 547.133 6.48542 1.75622 0
M  V30 5594 N 549.853 -0.472356 1.50355 0
M  V30 5595 C 550.801 -1.59126 1.69651 0
M  V30 5596 C 551.795 -1.59793 0.56237 0
M  V30 5597 O 553.001 -1.63957 0.742832 0
M  V30 5598 H 549.376 -0.528008 0.535454 0
M  V30 5599 H 551.347 -1.40013 2.63513 0
M  V30 5600 C 550.096 -2.97075 1.8067 0
M  V30 5601 H 549.419 -2.9728 2.67329 0
M  V30 5602 H 550.859 -3.74825 1.98197 0
M  V30 5603 C 549.318 -3.32247 0.558016 0
M  V30 5604 O 549.848 -4.00553 -0.303399 0
M  V30 5605 N 548.054 -2.87659 0.412415 0
M  V30 5606 H 547.601 -2.32246 1.11443 0
M  V30 5607 H 547.559 -3.11556 -0.421908 0
M  V30 5608 N 551.331 -1.39911 -0.725443 0
M  V30 5609 C 552.261 -1.42138 -1.85254 0
M  V30 5610 C 553.242 -0.283513 -1.67721 0
M  V30 5611 O 554.427 -0.490717 -1.87898 0
M  V30 5612 C 551.557 -1.27354 -3.23107 0
M  V30 5613 C 550.511 -2.3864 -3.55296 0
M  V30 5614 C 549.837 -2.08939 -4.92188 0
M  V30 5615 C 551.137 -3.8097 -3.57295 0
M  V30 5616 H 552.831 -2.36461 -1.83648 0
M  V30 5617 H 550.377 -1.13817 -0.882138 0
M  V30 5618 H 552.33 -1.2753 -4.01639 0
M  V30 5619 H 551.054 -0.295025 -3.25265 0
M  V30 5620 H 549.713 -2.37696 -2.79099 0
M  V30 5621 H 549.361 -1.09502 -4.90936 0
M  V30 5622 H 549.061 -2.83491 -5.14691 0
M  V30 5623 H 550.585 -2.10781 -5.73065 0
M  V30 5624 H 551.999 -3.8379 -4.25885 0
M  V30 5625 H 550.396 -4.5496 -3.9132 0
M  V30 5626 H 551.466 -4.11261 -2.5689 0
M  V30 5627 N 552.809 0.956637 -1.25245 0
M  V30 5628 C 553.739 2.07058 -1.07931 0
M  V30 5629 C 554.72 1.70096 0.0110361 0
M  V30 5630 O 555.905 1.93555 -0.158121 0
M  V30 5631 C 553.035 3.40272 -0.695124 0
M  V30 5632 C 551.989 3.91235 -1.73549 0
M  V30 5633 C 551.315 5.20921 -1.20604 0
M  V30 5634 C 552.615 4.17837 -3.13385 0
M  V30 5635 H 554.309 2.218 -2.01109 0
M  V30 5636 H 551.855 1.06581 -0.968326 0
M  V30 5637 H 553.808 4.1765 -0.560949 0
M  V30 5638 H 552.532 3.25462 0.272355 0
M  V30 5639 H 551.191 3.16025 -1.85807 0
M  V30 5640 H 550.839 5.02479 -0.228846 0
M  V30 5641 H 550.539 5.55987 -1.90136 0
M  V30 5642 H 552.063 6.00897 -1.08421 0
M  V30 5643 H 553.477 4.8588 -3.04292 0
M  V30 5644 H 551.874 4.64154 -3.80369 0
M  V30 5645 H 552.944 3.2419 -3.60595 0
M  V30 5646 N 554.287 1.06798 1.15896 0
M  V30 5647 C 555.197 0.694564 2.24083 0
M  V30 5648 C 556.213 -0.291687 1.71538 0
M  V30 5649 O 557.389 -0.139723 2.00915 0
M  V30 5650 C 554.454 0.0921014 3.46578 0
M  V30 5651 C 553.515 1.13087 4.14137 0
M  V30 5652 C 552.748 0.557064 5.30785 0
M  V30 5653 O 552.971 -0.628623 5.66925 0
M  V30 5654 O 551.905 1.29924 5.8771 0
M  V30 5655 H 555.731 1.59663 2.58344 0
M  V30 5656 H 553.316 0.840575 1.2351 0
M  V30 5657 H 555.198 -0.241884 4.20705 0
M  V30 5658 H 553.873 -0.78337 3.14078 0
M  V30 5659 H 552.78 1.51712 3.41957 0
M  V30 5660 H 554.113 1.97805 4.50704 0
M  V30 5661 N 555.766 -1.3263 0.851289 0
M  V30 5662 C 557.015 -1.96633 0.449267 0
M  V30 5663 C 557.328 -1.68131 -0.999562 0
M  V30 5664 O 558.534 -2.25845 -1.50685 0
M  V30 5665 C 556.99 -3.51946 0.752446 0
M  V30 5666 C 556.598 -3.89311 2.21678 0
M  V30 5667 C 558.342 -4.22437 0.417983 0
M  V30 5668 C 556.249 -5.37655 2.46336 0
M  V30 5669 H 555.179 -0.735888 0.164269 0
M  V30 5670 H 557.83 -1.51073 1.0416 0
M  V30 5671 H 556.212 -3.95899 0.0895858 0
M  V30 5672 H 557.386 -3.56378 2.92115 0
M  V30 5673 H 555.701 -3.31836 2.51543 0
M  V30 5674 H 558.298 -5.31549 0.579674 0
M  V30 5675 H 558.641 -4.11349 -0.640115 0
M  V30 5676 H 559.174 -3.84057 1.03659 0
M  V30 5677 H 555.913 -5.5376 3.50757 0
M  V30 5678 H 555.433 -5.72005 1.80473 0
M  V30 5679 H 557.112 -6.04695 2.30115 0
M  V30 5680 N 557.244 -0.608902 -1.45362 0
M  V30 5681 C 558.493 -0.10218 -2.01441 0
M  V30 5682 C 558.806 1.27546 -1.48295 0
M  V30 5683 O 560.012 1.87498 -1.96359 0
M  V30 5684 C 558.468 -0.131985 -3.59658 0
M  V30 5685 C 558.076 -1.50956 -4.21801 0
M  V30 5686 C 559.82 0.319427 -4.23296 0
M  V30 5687 C 557.727 -1.49568 -5.72174 0
M  V30 5688 H 556.657 -0.0344314 -0.753213 0
M  V30 5689 H 559.308 -0.764426 -1.6682 0
M  V30 5690 H 557.69 0.596939 -3.91475 0
M  V30 5691 H 558.864 -2.26029 -4.01556 0
M  V30 5692 H 557.179 -1.90318 -3.70362 0
M  V30 5693 H 559.776 0.349013 -5.3356 0
M  V30 5694 H 560.119 1.34237 -3.94064 0
M  V30 5695 H 560.652 -0.356273 -3.96201 0
M  V30 5696 H 557.391 -2.49626 -6.06108 0
M  V30 5697 H 556.911 -0.787542 -5.94607 0
M  V30 5698 H 558.59 -1.21989 -6.35396 0
M  V30 5699 N 558.722 1.53707 -0.348139 0
M  V30 5700 C 559.654 2.22725 0.540946 0
M  V30 5701 C 560.667 1.2354 1.06027 0
M  V30 5702 O 561.856 1.49867 0.96964 0
M  V30 5703 C 558.956 2.89756 1.75768 0
M  V30 5704 C 558.129 4.15297 1.37285 0
M  V30 5705 C 557.188 4.65697 2.44976 0
M  V30 5706 O 556.214 5.29798 2.08092 0
M  V30 5707 N 557.416 4.42017 3.763 0
M  V30 5708 H 560.181 2.99658 -0.0501592 0
M  V30 5709 H 557.742 1.60979 -0.17248 0
M  V30 5710 H 559.734 3.20388 2.47252 0
M  V30 5711 H 558.304 2.16382 2.25605 0
M  V30 5712 H 557.524 3.9116 0.488584 0
M  V30 5713 H 558.812 4.96948 1.09179 0
M  V30 5714 H 558.21 3.9076 4.09051 0
M  V30 5715 H 556.767 4.77242 4.4394 0
M  V30 5716 N 560.2 0.0768682 1.57412 0
M  V30 5717 C 561.446 -0.591961 1.93968 0
M  V30 5718 C 561.779 -1.68954 0.9575 0
M  V30 5719 O 561.054 -1.94496 -0.0124675 0
M  V30 5720 C 561.337 -1.16418 3.40762 0
M  V30 5721 C 561.19 -0.0728933 4.49741 0
M  V30 5722 C 562.509 -2.06814 3.88479 0
M  V30 5723 H 559.628 -0.213716 0.705333 0
M  V30 5724 H 562.27 0.14387 1.89455 0
M  V30 5725 H 560.42 -1.79128 3.4474 0
M  V30 5726 H 562.092 0.560446 4.57883 0
M  V30 5727 H 560.335 0.595859 4.29688 0
M  V30 5728 H 561.006 -0.513755 5.49604 0
M  V30 5729 H 563.482 -1.54033 3.8654 0
M  V30 5730 H 562.358 -2.43785 4.91793 0
M  V30 5731 H 562.619 -2.97844 3.26713 0
M  V30 5732 N 561.678 -1.56367 -0.196722 0
M  V30 5733 C 562.955 -1.71359 -0.943159 0
M  V30 5734 C 563.335 -0.631192 -2.01443 0
M  V30 5735 O 562.683 0.358071 -2.25677 0
M  V30 5736 C 562.893 -3.13623 -1.53106 0
M  V30 5737 C 564.241 -3.73806 -2.01381 0
M  V30 5738 O 565.265 -3.16742 -1.62951 0
M  V30 5739 O 564.124 -4.73951 -2.7209 0
M  V30 5740 H 561.218 -0.698851 -0.442195 0
M  V30 5741 H 563.764 -1.68672 -0.186547 0
M  V30 5742 H 562.536 -3.83873 -0.758785 0
M  V30 5743 H 562.159 -3.20532 -2.35255 0
M  V30 5744 N 563.156 0.464375 -1.50603 0
M  V30 5745 C 564.384 1.23907 -1.65695 0
M  V30 5746 C 564.799 1.85658 -0.343027 0
M  V30 5747 O 564.156 1.69529 0.675739 0
M  V30 5748 C 564.207 2.3429 -2.75301 0
M  V30 5749 O 563.928 1.7507 -4.01599 0
M  V30 5750 C 565.429 3.25051 -3.01424 0
M  V30 5751 H 562.649 0.374485 -0.556778 0
M  V30 5752 H 565.193 0.55353 -1.96866 0
M  V30 5753 H 563.348 2.98607 -2.46804 0
M  V30 5754 H 563.762 2.47812 -4.62266 0
M  V30 5755 H 565.236 3.98699 -3.81763 0
M  V30 5756 H 565.713 3.84227 -2.12758 0
M  V30 5757 H 566.319 2.66463 -3.31477 0
M  V30 5758 N 564.634 1.40294 0.718013 0
M  V30 5759 C 565.564 1.43118 1.84498 0
M  V30 5760 C 566.545 0.292403 1.67568 0
M  V30 5761 O 567.73 0.500675 1.87635 0
M  V30 5762 C 564.86 1.29065 3.22427 0
M  V30 5763 C 563.814 2.40521 3.54025 0
M  V30 5764 C 563.14 2.11546 4.91073 0
M  V30 5765 C 564.44 3.82859 3.55269 0
M  V30 5766 H 566.134 2.37432 1.82391 0
M  V30 5767 H 563.68 1.14283 0.87609 0
M  V30 5768 H 565.633 1.29658 4.00957 0
M  V30 5769 H 564.357 0.312271 3.25104 0
M  V30 5770 H 563.016 2.39173 2.77834 0
M  V30 5771 H 562.664 1.12104 4.90348 0
M  V30 5772 H 562.364 2.86216 5.1318 0
M  V30 5773 H 563.888 2.13817 5.71939 0
M  V30 5774 H 565.302 3.86044 4.23843 0
M  V30 5775 H 563.699 4.57029 3.88902 0
M  V30 5776 H 564.769 4.12617 2.54706 0
M  V30 5777 N 566.112 -0.949982 1.2575 0
M  V30 5778 C 567.361 -1.68956 1.10168 0
M  V30 5779 C 567.674 -1.92327 -0.356309 0
M  V30 5780 O 568.88 -2.64026 -0.632657 0
M  V30 5781 C 567.336 -3.04196 1.92336 0
M  V30 5782 C 566.944 -2.88603 3.42655 0
M  V30 5783 C 568.688 -3.81904 1.85336 0
M  V30 5784 C 566.595 -4.19262 4.17101 0
M  V30 5785 H 565.525 -0.633645 0.408668 0
M  V30 5786 H 568.176 -1.05719 1.49986 0
M  V30 5787 H 566.558 -3.68363 1.45344 0
M  V30 5788 H 567.732 -2.3334 3.97353 0
M  V30 5789 H 566.047 -2.24345 3.50796 0
M  V30 5790 H 568.644 -4.78688 2.38248 0
M  V30 5791 H 568.987 -4.08099 0.822226 0
M  V30 5792 H 569.52 -3.24495 2.30104 0
M  V30 5793 H 566.259 -3.98254 5.20648 0
M  V30 5794 H 565.779 -4.74273 3.67186 0
M  V30 5795 H 567.458 -4.87775 4.25071 0
M  V30 5796 N 567.59 -1.07411 -1.15328 0
M  V30 5797 C 569.001 -0.820261 -1.67716 0
M  V30 5798 C 569.352 0.654539 -1.8496 0
M  V30 5799 O 568.477 1.50664 -1.55337 0
M  V30 5800 C 569.072 -1.48242 -3.04647 0
M  V30 5801 C 567.631 -1.27606 -3.5411 0
M  V30 5802 C 566.778 -1.5517 -2.29821 0
M  V30 5803 H 569.729 -1.23608 -0.995332 0
M  V30 5804 H 569.75 -0.903984 -3.69606 0
M  V30 5805 H 569.262 -2.55578 -2.92064 0
M  V30 5806 H 567.363 -0.222948 -3.71932 0
M  V30 5807 H 567.476 -1.99667 -4.35511 0
M  V30 5808 H 565.84 -0.972747 -2.35393 0
M  V30 5809 H 566.623 -2.63689 -2.19824 0
M  V30 5810 N 569.068 1.32177 -0.85831 0
M  V30 5811 C 570.001 2.26823 -0.25035 0
M  V30 5812 C 570.979 1.50571 0.61378 0
M  V30 5813 O 572.163 1.79682 0.569777 0
M  V30 5814 C 569.29 3.32472 0.646556 0
M  V30 5815 C 568.336 4.26255 -0.144675 0
M  V30 5816 S 569.169 5.13608 -1.5155 0
M  V30 5817 C 570.325 6.22778 -0.624408 0
M  V30 5818 H 570.558 2.7804 -1.05267 0
M  V30 5819 H 568.091 1.39764 -0.656152 0
M  V30 5820 H 570.049 3.93817 1.15837 0
M  V30 5821 H 568.71 2.80031 1.42272 0
M  V30 5822 H 567.903 5.01114 0.538613 0
M  V30 5823 H 567.505 3.69346 -0.588198 0
M  V30 5824 H 569.797 6.77287 0.169846 0
M  V30 5825 H 570.74 6.95233 -1.34376 0
M  V30 5826 H 571.148 5.64156 -0.197128 0
M  V30 5827 N 570.547 0.616602 1.45037 0
M  V30 5828 C 571.495 -0.109318 2.32343 0
M  V30 5829 C 572.489 -0.850543 1.465 0
M  V30 5830 O 573.695 -0.765088 1.62931 0
M  V30 5831 H 570.07 -0.0541091 0.750051 0
M  V30 5832 H 572.041 0.645326 2.91338 0
M  V30 5833 C 570.79 -1.0872 3.30266 0
M  V30 5834 H 570.113 -0.526267 3.96321 0
M  V30 5835 H 571.553 -1.56489 3.94065 0
M  V30 5836 C 570.012 -2.16525 2.58105 0
M  V30 5837 O 570.542 -3.244 2.36913 0
M  V30 5838 N 568.748 -1.92057 2.18088 0
M  V30 5839 H 568.295 -1.04337 2.35524 0
M  V30 5840 H 568.253 -2.64391 1.70131 0
M  V30 5841 N 572.025 -1.5352 0.356285 0
M  V30 5842 C 572.973 -2.26945 -0.50978 0
M  V30 5843 C 573.967 -1.29569 -1.09125 0
M  V30 5844 O 575.173 -1.47231 -1.03552 0
M  V30 5845 H 571.548 -0.729368 -0.183102 0
M  V30 5846 H 573.519 -2.98111 0.131374 0
M  V30 5847 C 572.268 -3.06466 -1.64237 0
M  V30 5848 H 571.591 -3.81233 -1.20423 0
M  V30 5849 H 573.031 -3.61035 -2.22327 0
M  V30 5850 C 571.49 -2.16737 -2.57928 0
M  V30 5851 O 572.02 -1.77195 -3.60507 0
M  V30 5852 N 570.226 -1.81558 -2.26903 0
M  V30 5853 H 569.773 -2.13913 -1.43524 0
M  V30 5854 H 569.731 -1.21806 -2.89846 0
M  V30 5855 N 573.503 -0.0852151 -1.57369 0
M  V30 5856 C 574.731 0.58946 -1.98325 0
M  V30 5857 C 575.146 1.62333 -0.96403 0
M  V30 5858 O 574.503 1.82438 0.0476395 0
M  V30 5859 C 574.554 1.24604 -3.39347 0
M  V30 5860 O 574.275 0.253532 -4.37366 0
M  V30 5861 C 575.776 2.00726 -3.95252 0
M  V30 5862 H 572.996 0.158783 -0.651942 0
M  V30 5863 H 575.54 -0.161584 -2.03861 0
M  V30 5864 H 573.695 1.94808 -3.34856 0
M  V30 5865 H 574.109 0.726207 -5.19448 0
M  V30 5866 H 575.583 2.42039 -4.96106 0
M  V30 5867 H 576.06 2.86919 -3.32527 0
M  V30 5868 H 576.666 1.3536 -4.03185 0
M  V30 5869 N 574.981 1.5647 0.188427 0
M  V30 5870 C 575.931 1.91479 1.23774 0
M  V30 5871 C 576.915 0.78119 1.40664 0
M  V30 5872 O 578.107 1.04414 1.42922 0
M  V30 5873 C 575.236 2.26354 2.58106 0
M  V30 5874 C 574.322 3.46186 2.44981 0
M  V30 5875 N 574.713 4.63911 2.01546 0
M  V30 5876 C 573.011 3.50456 2.75856 0
M  V30 5877 C 573.712 5.46064 2.00472 0
M  V30 5878 N 572.688 4.86648 2.42229 0
M  V30 5879 H 576.49 2.79994 0.893339 0
M  V30 5880 H 574.004 1.57477 0.39682 0
M  V30 5881 H 576.001 2.49622 3.33908 0
M  V30 5882 H 574.661 1.39168 2.93364 0
M  V30 5883 H 575.672 4.88451 1.7215 0
M  V30 5884 H 572.349 2.73704 3.15265 0
M  V30 5885 H 573.739 6.50368 1.68734 0
M  V30 5886 N 576.459 -0.456382 1.50847 0
M  V30 5887 C 577.687 -1.23026 1.66349 0
M  V30 5888 C 578.102 -1.85473 0.352868 0
M  V30 5889 O 577.459 -1.69885 -0.666739 0
M  V30 5890 C 577.51 -2.32827 2.76539 0
M  V30 5891 O 577.231 -1.72938 4.02522 0
M  V30 5892 C 578.732 -3.23448 3.03144 0
M  V30 5893 H 575.952 -0.371527 0.558756 0
M  V30 5894 H 578.496 -0.543082 1.97157 0
M  V30 5895 H 576.651 -2.97294 2.48384 0
M  V30 5896 H 577.065 -2.45357 4.63573 0
M  V30 5897 H 578.539 -3.96669 3.83872 0
M  V30 5898 H 579.016 -3.83094 2.14793 0
M  V30 5899 H 579.622 -2.64702 3.32886 0
M  V30 5900 N 577.937 -1.40673 -0.710563 0
M  V30 5901 C 578.884 -1.41336 -1.82463 0
M  V30 5902 C 579.854 -0.269648 -1.63897 0
M  V30 5903 O 581.039 -0.468463 -1.8496 0
M  V30 5904 C 578.179 -1.28665 -3.20218 0
M  V30 5905 C 577.292 -2.52784 -3.5032 0
M  V30 5906 C 576.427 -2.32517 -4.77608 0
M  V30 5907 C 575.466 -3.52187 -5.0063 0
M  V30 5908 N 574.603 -3.31084 -6.19135 0
M  V30 5909 H 579.443 -2.36558 -1.8123 0
M  V30 5910 H 576.98 -1.17483 -0.885226 0
M  V30 5911 H 578.938 -1.19324 -3.99772 0
M  V30 5912 H 577.568 -0.370602 -3.20666 0
M  V30 5913 H 576.62 -2.72634 -2.65283 0
M  V30 5914 H 577.932 -3.41845 -3.63241 0
M  V30 5915 H 577.086 -2.20558 -5.65189 0
M  V30 5916 H 575.825 -1.40889 -4.66906 0
M  V30 5917 H 574.83 -3.64617 -4.11502 0
M  V30 5918 H 576.055 -4.44749 -5.13201 0
M  V30 5919 H 574.001 -2.42143 -6.09674 0
M  V30 5920 H 573.918 -4.13713 -6.32754 0
M  V30 5921 H 575.186 -3.22868 -7.0949 0
M  V30 5922 N 579.415 0.9433 -1.26252 0
M  V30 5923 C 580.692 1.66639 -1.02424 0
M  V30 5924 C 581.072 2.06335 0.446006 0
M  V30 5925 O 580.42 1.78551 1.42589 0
M  V30 5926 C 580.63 2.88019 -1.97094 0
M  V30 5927 C 581.978 3.59718 -2.25584 0
M  V30 5928 O 583.002 2.9812 -1.94943 0
M  V30 5929 O 581.861 4.7066 -2.77743 0
M  V30 5930 H 578.955 0.729643 -0.389294 0
M  V30 5931 H 581.501 0.995218 -1.37454 0
M  V30 5932 H 580.273 2.5556 -2.96319 0
M  V30 5933 H 579.896 3.62863 -1.62532 0
M  V30 5934 N 580.893 1.08022 1.14757 0
M  V30 5935 C 581.803 0.718292 2.23333 0
M  V30 5936 C 582.819 -0.273477 1.71837 0
M  V30 5937 O 583.995 -0.118406 2.01052 0
M  V30 5938 C 581.06 0.128855 3.4646 0
M  V30 5939 C 580.121 1.17473 4.12915 0
M  V30 5940 C 579.354 0.61333 5.30164 0
M  V30 5941 O 579.577 -0.568458 5.6756 0
M  V30 5942 O 578.511 1.3615 5.86299 0
M  V30 5943 H 582.337 1.62394 2.56636 0
M  V30 5944 H 579.922 0.853628 1.22611 0
M  V30 5945 H 581.804 -0.197249 4.20938 0
M  V30 5946 H 580.479 -0.750014 3.14891 0
M  V30 5947 H 579.386 1.5533 3.40328 0
M  V30 5948 H 580.719 2.02574 4.48581 0
M  V30 5949 N 582.371 -1.3172 0.865308 0
M  V30 5950 C 583.617 -1.97168 0.474633 0
M  V30 5951 C 583.95 -1.68263 -0.969604 0
M  V30 5952 O 583.225 -0.976588 -1.68205 0
M  V30 5953 C 583.508 -3.52689 0.726808 0
M  V30 5954 C 583.361 -3.91185 2.22024 0
M  V30 5955 C 584.68 -4.39689 0.190201 0
M  V30 5956 H 581.799 -0.716185 0.17392 0
M  V30 5957 H 584.441 -1.55925 1.08569 0
M  V30 5958 H 582.591 -3.8795 0.206705 0
M  V30 5959 H 584.263 -3.66049 2.80724 0
M  V30 5960 H 582.506 -3.3996 2.69462 0
M  V30 5961 H 583.177 -4.99604 2.34735 0
M  V30 5962 H 585.653 -4.11225 0.635103 0
M  V30 5963 H 584.529 -5.47469 0.396132 0
M  V30 5964 H 584.79 -4.32683 -0.907625 0
M  V30 5965 N 583.85 -0.624285 -1.44708 0
M  V30 5966 C 584.798 0.0969952 -2.32398 0
M  V30 5967 C 585.792 0.842762 -1.46949 0
M  V30 5968 O 586.998 0.756436 -1.63334 0
M  V30 5969 H 583.373 0.0501306 -0.750327 0
M  V30 5970 H 585.344 -0.660767 -2.90992 0
M  V30 5971 C 584.093 1.06967 -3.30837 0
M  V30 5972 H 583.416 0.505242 -3.96595 0
M  V30 5973 H 584.856 1.54397 -3.94889 0
M  V30 5974 C 583.315 2.15153 -2.5925 0
M  V30 5975 O 583.845 3.23139 -2.3863 0
M  V30 5976 N 582.051 1.90898 -2.19103 0
M  V30 5977 H 581.598 1.03086 -2.36074 0
M  V30 5978 H 581.556 2.63485 -1.71531 0
M  V30 5979 N 585.328 1.53329 -0.364422 0
M  V30 5980 C 586.553 2.06132 0.229033 0
M  V30 5981 C 586.978 1.23625 1.41769 0
M  V30 5982 O 586.336 0.255038 1.79497 0
M  V30 5983 C 586.384 3.55544 0.60174 0
M  V30 5984 O 585.488 3.75771 1.69912 0
M  V30 5985 H 584.829 0.663148 0.0336213 0
M  V30 5986 H 587.359 1.97758 -0.524689 0
M  V30 5987 H 587.369 3.98549 0.873073 0
M  V30 5988 H 586.044 4.15039 -0.267421 0
M  V30 5989 H 584.621 3.44663 1.42343 0
M  V30 5990 N 586.806 0.0935595 1.57322 0
M  V30 5991 C 588.036 -0.578095 1.98347 0
M  V30 5992 C 588.444 -1.62357 0.971441 0
M  V30 5993 O 587.787 -1.83639 -0.0473959 0
M  V30 5994 C 587.849 -1.28525 3.3574 0
M  V30 5995 C 587.513 -0.390714 4.55327 0
M  V30 5996 C 588.51 0.360522 5.18648 0
M  V30 5997 C 586.195 -0.309221 5.01347 0
M  V30 5998 C 588.189 1.18125 6.26359 0
M  V30 5999 C 585.876 0.515157 6.08925 0
M  V30 6000 C 586.874 1.25904 6.71295 0
M  V30 6001 O 586.562 2.06978 7.76798 0
M  V30 6002 H 586.294 -0.159767 0.656849 0
M  V30 6003 H 588.848 0.169058 2.04703 0
M  V30 6004 H 587.078 -2.07894 3.26063 0
M  V30 6005 H 588.767 -1.85128 3.61223 0
M  V30 6006 H 589.533 0.307285 4.84026 0
M  V30 6007 H 585.412 -0.877881 4.52564 0
M  V30 6008 H 588.956 1.76236 6.74971 0
M  V30 6009 H 584.853 0.56988 6.42979 0
M  V30 6010 H 585.621 1.99644 7.93779 0
M  V30 6011 N 588.284 -1.56567 -0.180126 0
M  V30 6012 C 589.214 -1.98753 -1.22553 0
M  V30 6013 C 590.195 -0.86175 -1.46656 0
M  V30 6014 O 591.38 -1.12719 -1.58139 0
M  V30 6015 C 588.51 -2.33988 -2.56645 0
M  V30 6016 C 587.464 -3.49445 -2.47128 0
M  V30 6017 C 586.79 -3.70397 -3.8563 0
M  V30 6018 C 588.09 -4.83171 -1.98352 0
M  V30 6019 H 589.784 -2.86332 -0.874896 0
M  V30 6020 H 587.33 -1.37757 -0.419414 0
M  V30 6021 H 589.283 -2.62097 -3.29974 0
M  V30 6022 H 588.007 -1.43309 -2.93479 0
M  V30 6023 H 586.666 -3.2145 -1.76254 0
M  V30 6024 H 586.314 -2.77023 -4.19842 0
M  V30 6025 H 586.014 -4.48077 -3.80132 0
M  V30 6026 H 587.538 -4.00897 -4.60558 0
M  V30 6027 H 588.952 -5.10213 -2.61449 0
M  V30 6028 H 587.349 -5.64425 -2.03823 0
M  V30 6029 H 588.419 -4.75753 -0.937402 0
M  V30 6030 N 589.762 0.448376 -1.51087 0
M  V30 6031 C 591.011 1.19561 -1.62444 0
M  V30 6032 C 591.324 1.92602 -0.341151 0
M  V30 6033 O 592.53 2.69439 -0.333936 0
M  V30 6034 C 590.986 2.17373 -2.8684 0
M  V30 6035 C 590.594 1.5003 -4.22131 0
M  V30 6036 C 592.338 2.92597 -3.0755 0
M  V30 6037 C 590.245 2.46262 -5.37689 0
M  V30 6038 H 589.175 0.449975 -0.605011 0
M  V30 6039 H 591.826 0.463735 -1.77544 0
M  V30 6040 H 590.208 2.93948 -2.65349 0
M  V30 6041 H 591.382 0.790886 -4.53962 0
M  V30 6042 H 589.697 0.870011 -4.0721 0
M  V30 6043 H 592.294 3.64663 -3.91056 0
M  V30 6044 H 592.637 3.53306 -2.20183 0
M  V30 6045 H 593.17 2.23131 -3.29329 0
M  V30 6046 H 589.909 1.90258 -6.27281 0
M  V30 6047 H 589.429 3.15289 -5.10248 0
M  V30 6048 H 591.108 3.07623 -5.6919 0
M  V30 6049 N 591.24 1.41047 0.703093 0
M  V30 6050 C 592.651 1.35657 1.28274 0
M  V30 6051 C 593.002 0.0360309 1.96167 0
M  V30 6052 O 592.127 -0.865833 1.98324 0
M  V30 6053 C 592.722 2.45707 2.33267 0
M  V30 6054 C 591.281 2.43738 2.86825 0
M  V30 6055 C 590.428 2.25941 1.60767 0
M  V30 6056 H 593.379 1.50672 0.49836 0
M  V30 6057 H 593.4 2.14333 3.14391 0
M  V30 6058 H 592.912 3.41805 1.83824 0
M  V30 6059 H 591.013 1.51375 3.40465 0
M  V30 6060 H 591.126 3.39779 3.37768 0
M  V30 6061 H 589.49 1.73681 1.86298 0
M  V30 6062 H 590.273 3.24054 1.1333 0
M  V30 6063 N 592.718 -0.936591 1.26751 0
M  V30 6064 C 593.648 -2.05315 1.11212 0
M  V30 6065 C 594.629 -1.70092 0.0160262 0
M  V30 6066 O 595.814 -1.93279 0.188894 0
M  V30 6067 C 592.944 -3.39123 0.749171 0
M  V30 6068 C 591.898 -3.88425 1.79751 0
M  V30 6069 C 591.224 -5.18936 1.28876 0
M  V30 6070 C 592.524 -4.12798 3.19992 0
M  V30 6071 H 594.218 -2.18573 2.04613 0
M  V30 6072 H 591.764 -1.05027 0.985159 0
M  V30 6073 H 593.717 -4.16704 0.627323 0
M  V30 6074 H 592.441 -3.25855 -0.220543 0
M  V30 6075 H 591.1 -3.13028 1.90811 0
M  V30 6076 H 590.748 -5.02051 0.308757 0
M  V30 6077 H 590.448 -5.52892 1.98958 0
M  V30 6078 H 591.972 -5.99096 1.17967 0
M  V30 6079 H 593.386 -4.80977 3.11983 0
M  V30 6080 H 591.783 -4.58044 3.87705 0
M  V30 6081 H 592.853 -3.18412 3.65707 0
M  V30 6082 N 594.196 -1.08629 -1.14182 0
M  V30 6083 C 595.144 -0.71284 -2.21408 0
M  V30 6084 C 596.138 0.282457 -1.67029 0
M  V30 6085 O 597.344 0.144783 -1.79417 0
M  V30 6086 H 593.719 -0.212497 -0.721352 0
M  V30 6087 H 595.69 -1.6265 -2.50175 0
M  V30 6088 C 594.439 -0.140704 -3.47415 0
M  V30 6089 H 593.762 -0.897739 -3.8959 0
M  V30 6090 H 595.202 0.0827677 -4.23919 0
M  V30 6091 C 593.661 1.122 -3.17668 0
M  V30 6092 O 594.191 2.20652 -3.35672 0
M  V30 6093 N 592.397 1.03328 -2.71609 0
M  V30 6094 H 591.944 0.150666 -2.57159 0
M  V30 6095 H 591.902 1.8789 -2.52081 0
M  V30 6096 N 595.674 1.31259 -0.872281 0
M  V30 6097 C 596.637 2.26744 -0.334656 0
M  V30 6098 C 597.637 1.52307 0.515681 0
M  V30 6099 O 598.827 1.71148 0.324656 0
M  V30 6100 C 595.959 3.36841 0.524482 0
M  V30 6101 H 597.152 2.75812 -1.17762 0
M  V30 6102 H 594.705 1.42232 -0.648064 0
M  V30 6103 H 595.44 2.93069 1.38855 0
M  V30 6104 H 595.225 3.92009 -0.0844299 0
M  V30 6105 H 596.715 4.07944 0.892838 0
M  V30 6106 N 597.152 0.631951 1.44375 0
M  V30 6107 C 598.1 -0.0846693 2.32446 0
M  V30 6108 C 599.094 -0.834957 1.47393 0
M  V30 6109 O 600.3 -0.747764 1.63733 0
M  V30 6110 H 596.675 -0.0461508 0.750583 0
M  V30 6111 H 598.646 0.67619 2.90638 0
M  V30 6112 C 597.395 -1.05211 3.314 0
M  V30 6113 H 596.718 -0.484203 3.96857 0
M  V30 6114 H 598.158 -1.523 3.95703 0
M  V30 6115 C 596.617 -2.13776 2.60387 0
M  V30 6116 O 597.147 -3.21869 2.4034 0
M  V30 6117 N 595.353 -1.89733 2.20113 0
M  V30 6118 H 594.9 -1.01833 2.36618 0
M  V30 6119 H 594.858 -2.62572 1.72926 0
M  V30 6120 N 598.631 -1.53133 0.372548 0
M  V30 6121 C 600.047 -1.59585 0.02178 0
M  V30 6122 C 600.247 -1.38736 -1.46132 0
M  V30 6123 O 599.303 -1.19599 -2.22379 0
M  V30 6124 C 600.616 -2.9678 0.483959 0
M  V30 6125 C 602.164 -3.09909 0.438775 0
M  V30 6126 C 602.639 -4.49527 0.876876 0
M  V30 6127 N 604.13 -4.55663 0.832214 0
M  V30 6128 C 604.865 -5.61896 1.14281 0
M  V30 6129 N 604.361 -6.75852 1.52303 0
M  V30 6130 N 606.154 -5.51916 1.06515 0
M  V30 6131 H 598.305 -1.64936 1.33827 0
M  V30 6132 H 600.568 -0.773947 0.547458 0
M  V30 6133 H 600.274 -3.17198 1.51915 0
M  V30 6134 H 600.148 -3.7699 -0.125784 0
M  V30 6135 H 602.535 -2.89197 -0.587294 0
M  V30 6136 H 602.616 -2.31691 1.0841 0
M  V30 6137 H 602.26 -4.70979 1.90109 0
M  V30 6138 H 602.19 -5.26186 0.208727 0
M  V30 6139 H 604.681 -3.73844 0.552195 0
M  V30 6140 H 604.994 -7.52862 1.7441 0
M  V30 6141 H 603.339 -6.77226 1.56175 0
M  V30 6142 H 606.53 -4.6177 0.767235 0
M  V30 6143 H 606.703 -6.34609 1.31053 0
M  V30 6144 N 600.109 -0.101901 -1.5727 0
M  V30 6145 C 601.041 0.884723 -2.11436 0
M  V30 6146 C 602.054 1.24149 -1.05314 0
M  V30 6147 O 603.243 1.19341 -1.3274 0
M  V30 6148 C 600.343 2.19179 -2.58484 0
M  V30 6149 C 599.516 2.00933 -3.88516 0
M  V30 6150 C 598.575 3.15213 -4.2134 0
M  V30 6151 O 597.601 2.88877 -4.90448 0
M  V30 6152 N 598.803 4.41174 -3.77288 0
M  V30 6153 H 601.568 0.422058 -2.96713 0
M  V30 6154 H 599.129 0.0830128 -1.61687 0
M  V30 6155 H 601.121 2.94593 -2.77484 0
M  V30 6156 H 599.691 2.56847 -1.7818 0
M  V30 6157 H 598.911 1.09809 -3.78597 0
M  V30 6158 H 600.199 1.86026 -4.73573 0
M  V30 6159 H 599.597 4.6545 -3.21516 0
M  V30 6160 H 598.154 5.13515 -4.01429 0
M  V30 6161 N 601.587 1.56661 0.17182 0
M  V30 6162 C 602.535 1.97289 1.23207 0
M  V30 6163 C 603.529 0.861566 1.45854 0
M  V30 6164 O 604.735 1.04668 1.4644 0
M  V30 6165 H 601.11 0.627681 0.41415 0
M  V30 6166 H 603.081 2.85662 0.862542 0
M  V30 6167 C 601.83 2.34849 2.564 0
M  V30 6168 H 601.153 3.19903 2.39797 0
M  V30 6169 H 602.593 2.67121 3.29276 0
M  V30 6170 C 601.052 1.19172 3.15119 0
M  V30 6171 O 601.582 0.479113 3.98833 0
M  V30 6172 N 599.788 0.962415 2.74201 0
M  V30 6173 H 599.335 1.54365 2.06226 0
M  V30 6174 H 599.293 0.190272 3.13824 0
M  V30 6175 N 603.065 -0.440357 1.51323 0
M  V30 6176 C 603.975 -1.55955 1.75258 0
M  V30 6177 C 604.991 -1.61933 0.636687 0
M  V30 6178 O 606.167 -1.79231 0.918593 0
M  V30 6179 C 603.232 -2.9196 1.86977 0
M  V30 6180 C 602.293 -2.96122 3.10822 0
M  V30 6181 C 601.526 -4.2564 3.21973 0
M  V30 6182 O 601.749 -5.17851 2.39137 0
M  V30 6183 O 600.683 -4.36025 4.14929 0
M  V30 6184 H 604.509 -1.38673 2.70191 0
M  V30 6185 H 602.094 -0.623055 1.35788 0
M  V30 6186 H 603.976 -3.72682 1.96688 0
M  V30 6187 H 602.651 -3.09375 0.952307 0
M  V30 6188 H 601.558 -2.14366 3.06591 0
M  V30 6189 H 602.891 -2.83651 4.02247 0
M  V30 6190 N 604.543 -1.41418 -0.695603 0
M  V30 6191 C 605.475 -1.39195 -1.82092 0
M  V30 6192 C 606.488 -0.294132 -1.60121 0
M  V30 6193 O 607.677 -0.555854 -1.69625 0
M  V30 6194 C 604.777 -1.14828 -3.18854 0
M  V30 6195 C 603.95 -2.36649 -3.67853 0
M  V30 6196 C 603.009 -2.08139 -4.83285 0
M  V30 6197 O 602.035 -2.81177 -4.94902 0
M  V30 6198 N 603.237 -1.07162 -5.70523 0
M  V30 6199 H 606.002 -2.36185 -1.84491 0
M  V30 6200 H 603.563 -1.3603 -0.877923 0
M  V30 6201 H 605.555 -0.937075 -3.93702 0
M  V30 6202 H 604.125 -0.264358 -3.1148 0
M  V30 6203 H 603.345 -2.73472 -2.83913 0
M  V30 6204 H 604.633 -3.17816 -3.97329 0
M  V30 6205 H 604.031 -0.467124 -5.63768 0
M  V30 6206 H 602.588 -0.920311 -6.4527 0
M  V30 6207 N 606.021 0.929856 -1.27246 0
M  V30 6208 C 607.267 1.6798 -1.13625 0
M  V30 6209 C 607.6 1.91586 0.317589 0
M  V30 6210 O 606.875 1.50467 1.23247 0
M  V30 6211 C 607.158 3.04766 -1.91806 0
M  V30 6212 C 607.011 2.88415 -3.45162 0
M  V30 6213 C 608.33 4.05063 -1.72082 0
M  V30 6214 H 605.449 0.609632 -0.414147 0
M  V30 6215 H 608.091 1.0792 -1.56376 0
M  V30 6216 H 606.241 3.56034 -1.55474 0
M  V30 6217 H 607.913 2.44282 -3.91311 0
M  V30 6218 H 606.156 2.23802 -3.71611 0
M  V30 6219 H 606.827 3.85482 -3.95105 0
M  V30 6220 H 609.303 3.62798 -2.03757 0
M  V30 6221 H 608.179 4.98765 -2.29182 0
M  V30 6222 H 608.44 4.37021 -0.668206 0
M  V30 6223 N 607.499 1.09233 1.13605 0
M  V30 6224 C 608.746 0.827159 1.84836 0
M  V30 6225 C 609.074 -0.647199 1.83416 0
M  V30 6226 O 608.329 -1.49228 1.26608 0
M  V30 6227 C 608.628 1.305 3.32723 0
M  V30 6228 C 608.294 2.78864 3.54325 0
M  V30 6229 C 606.956 3.19382 3.59928 0
M  V30 6230 C 609.308 3.74532 3.62457 0
M  V30 6231 C 606.636 4.54346 3.71196 0
M  V30 6232 C 608.988 5.09283 3.75252 0
M  V30 6233 C 607.652 5.49394 3.79108 0
M  V30 6234 H 606.922 0.302679 0.676363 0
M  V30 6235 H 609.569 1.36676 1.34134 0
M  V30 6236 H 607.874 0.68517 3.85762 0
M  V30 6237 H 609.571 1.07648 3.86281 0
M  V30 6238 H 606.161 2.46507 3.50617 0
M  V30 6239 H 610.345 3.44343 3.57409 0
M  V30 6240 H 605.601 4.84864 3.72447 0
M  V30 6241 H 609.775 5.83269 3.80487 0
M  V30 6242 H 607.402 6.5397 3.87591 0
M  V30 6243 N 608.977 -1.30795 0.87923 0
M  V30 6244 C 610.225 -1.95974 0.493809 0
M  V30 6245 C 610.546 -1.69787 -0.959021 0
M  V30 6246 O 609.816 -1.01832 -1.67353 0
M  V30 6247 H 608.396 -0.725083 0.179622 0
M  V30 6248 H 611.058 -1.59432 1.12105 0
M  V30 6249 H 610.154 -3.05058 0.659263 0
M  V30 6250 N 610.455 -0.639598 -1.44038 0
M  V30 6251 C 611.683 -0.154811 -2.0632 0
M  V30 6252 C 612.098 1.17406 -1.47856 0
M  V30 6253 O 611.455 1.72193 -0.604638 0
M  V30 6254 C 611.506 -0.0429958 -3.61474 0
M  V30 6255 O 611.227 -1.31932 -4.17763 0
M  V30 6256 C 612.728 0.469486 -4.40807 0
M  V30 6257 H 609.948 -0.0835862 -0.665773 0
M  V30 6258 H 612.492 -0.876397 -1.84769 0
M  V30 6259 H 610.647 0.629075 -3.82258 0
M  V30 6260 H 611.061 -1.16965 -5.11292 0
M  V30 6261 H 612.535 0.496712 -5.49761 0
M  V30 6262 H 613.012 1.49819 -4.12857 0
M  V30 6263 H 613.618 -0.169624 -4.24962 0
M  V30 6264 N 611.933 1.52934 -0.380664 0
M  V30 6265 C 612.881 2.27727 0.47361 0
M  V30 6266 C 613.875 1.31288 1.0705 0
M  V30 6267 O 615.081 1.4886 1.01197 0
M  V30 6268 H 611.456 0.732189 0.171475 0
M  V30 6269 H 613.427 2.97864 -0.178785 0
M  V30 6270 C 612.176 3.0904 1.59341 0
M  V30 6271 H 611.499 3.831 1.14343 0
M  V30 6272 H 612.939 3.64527 2.16555 0
M  V30 6273 C 611.398 2.20813 2.54447 0
M  V30 6274 O 611.928 1.82907 3.57642 0
M  V30 6275 N 610.134 1.85145 2.23986 0
M  V30 6276 H 609.681 2.16169 1.40103 0
M  V30 6277 H 609.639 1.26402 2.87871 0
M  V30 6278 N 613.412 0.11024 1.57214 0
M  V30 6279 C 614.342 -0.840002 2.17867 0
M  V30 6280 C 615.323 -1.28352 1.11624 0
M  V30 6281 O 616.508 -1.3477 1.39824 0
M  V30 6282 C 613.638 -2.09349 2.77111 0
M  V30 6283 C 612.592 -1.78807 3.8886 0
M  V30 6284 C 611.918 -3.11112 4.34872 0
M  V30 6285 C 613.218 -1.0632 5.11364 0
M  V30 6286 H 614.912 -0.334608 2.97524 0
M  V30 6287 H 612.458 -0.159502 1.43114 0
M  V30 6288 H 614.411 -2.76275 3.18198 0
M  V30 6289 H 613.135 -2.62198 1.9473 0
M  V30 6290 H 611.794 -1.14273 3.48335 0
M  V30 6291 H 611.442 -3.61877 3.49362 0
M  V30 6292 H 611.142 -2.91453 5.10224 0
M  V30 6293 H 612.666 -3.79171 4.78604 0
M  V30 6294 H 614.08 -1.63383 5.49526 0
M  V30 6295 H 612.477 -0.967876 5.92243 0
M  V30 6296 H 613.547 -0.0484569 4.84876 0
M  V30 6297 N 614.89 -1.56749 -0.16351 0
M  V30 6298 C 616.137 -1.82434 -0.878866 0
M  V30 6299 C 616.465 -0.688557 -1.81904 0
M  V30 6300 O 615.72 0.323644 -1.93005 0
M  V30 6301 C 616.019 -3.14342 -1.70071 0
M  V30 6302 C 615.685 -4.41647 -0.908775 0
M  V30 6303 C 614.347 -4.76224 -0.690236 0
M  V30 6304 C 616.699 -5.19998 -0.353815 0
M  V30 6305 C 614.027 -5.86624 0.0942374 0
M  V30 6306 C 616.379 -6.3122 0.41761 0
M  V30 6307 C 615.043 -6.64358 0.646879 0
M  V30 6308 H 614.313 -0.667574 -0.3216 0
M  V30 6309 H 616.96 -1.90963 -0.14337 0
M  V30 6310 H 615.265 -3.0119 -2.50583 0
M  V30 6311 H 616.962 -3.31426 -2.25738 0
M  V30 6312 H 613.552 -4.1453 -1.08916 0
M  V30 6313 H 617.736 -4.93673 -0.509975 0
M  V30 6314 H 612.992 -6.10751 0.281529 0
M  V30 6315 H 617.166 -6.91133 0.854849 0
M  V30 6316 H 614.793 -7.49742 1.25662 0
M  V30 6317 N 616.368 0.432326 -1.51554 0
M  V30 6318 C 617.617 1.17831 -1.63703 0
M  V30 6319 C 617.93 1.92229 -0.36156 0
M  V30 6320 O 619.136 2.69069 -0.362495 0
M  V30 6321 C 617.592 2.14318 -2.89129 0
M  V30 6322 C 617.2 1.45544 -4.23699 0
M  V30 6323 C 618.944 2.89319 -3.10636 0
M  V30 6324 C 616.851 2.40545 -5.4027 0
M  V30 6325 H 615.781 0.443533 -0.60975 0
M  V30 6326 H 618.432 0.444878 -1.78026 0
M  V30 6327 H 616.814 2.91117 -2.68452 0
M  V30 6328 H 617.988 0.742693 -4.54775 0
M  V30 6329 H 616.303 0.826772 -4.0811 0
M  V30 6330 H 618.9 3.60495 -3.94902 0
M  V30 6331 H 619.243 3.50951 -2.23918 0
M  V30 6332 H 619.776 2.19625 -3.31677 0
M  V30 6333 H 616.515 1.83594 -6.29264 0
M  V30 6334 H 616.035 3.09859 -5.13563 0
M  V30 6335 H 617.714 3.01569 -5.72421 0
M  V30 6336 N 617.846 1.41785 0.688094 0
M  V30 6337 C 619.094 1.41264 1.4453 0
M  V30 6338 C 619.415 0.0252946 1.94984 0
M  V30 6339 O 618.685 -0.934081 1.72197 0
M  V30 6340 H 617.265 0.519998 0.536294 0
M  V30 6341 H 619.927 1.7709 0.813941 0
M  V30 6342 H 619.023 2.10439 2.30482 0
M  V30 6343 N 619.324 -0.923095 1.27737 0
M  V30 6344 C 620.601 -1.64989 1.05062 0
M  V30 6345 C 620.981 -2.07018 -0.413124 0
M  V30 6346 O 620.329 -1.80797 -1.39731 0
M  V30 6347 C 620.539 -2.84847 2.01652 0
M  V30 6348 C 621.887 -3.56083 2.31279 0
M  V30 6349 O 622.911 -2.94981 1.99662 0
M  V30 6350 O 621.77 -4.66182 2.85196 0
M  V30 6351 H 618.864 -0.723357 0.400853 0
M  V30 6352 H 621.41 -0.973224 1.3902 0
M  V30 6353 H 620.182 -2.50814 3.00347 0
M  V30 6354 H 619.805 -3.60231 1.68284 0
M  V30 6355 N 620.802 -1.09834 -1.13024 0
M  V30 6356 C 622.05 -0.835297 -1.8403 0
M  V30 6357 C 622.371 0.640944 -1.84165 0
M  V30 6358 O 621.641 1.46517 -1.30037 0
M  V30 6359 H 620.221 -0.306018 -0.681441 0
M  V30 6360 H 622.883 -1.38734 -1.36891 0
M  V30 6361 H 621.979 -1.19258 -2.88416 0
M  V30 6362 N 622.28 1.30327 -0.886154 0
M  V30 6363 C 623.526 1.96388 -0.505941 0
M  V30 6364 C 623.859 1.69784 0.942712 0
M  V30 6365 O 623.134 1.00322 1.6663 0
M  V30 6366 C 623.417 3.51488 -0.782826 0
M  V30 6367 C 623.27 3.87603 -2.28219 0
M  V30 6368 C 624.589 4.39331 -0.260128 0
M  V30 6369 H 621.708 0.713327 -0.185292 0
M  V30 6370 H 624.35 1.54178 -1.11036 0
M  V30 6371 H 622.5 3.87572 -0.268399 0
M  V30 6372 H 624.172 3.61537 -2.86512 0
M  V30 6373 H 622.415 3.3563 -2.74837 0
M  V30 6374 H 623.086 4.95806 -2.42653 0
M  V30 6375 H 625.562 4.10162 -0.700444 0
M  V30 6376 H 624.438 5.46769 -0.483179 0
M  V30 6377 H 624.699 4.34072 0.838674 0
M  V30 6378 N 623.758 0.647228 1.43697 0
M  V30 6379 C 625.005 0.158188 2.01881 0
M  V30 6380 C 625.333 -1.22573 1.51017 0
M  V30 6381 O 624.588 -1.83086 0.69122 0
M  V30 6382 C 624.887 0.111481 3.57226 0
M  V30 6383 C 624.553 1.43633 4.27411 0
M  V30 6384 C 623.215 1.79915 4.463 0
M  V30 6385 C 625.567 2.31011 4.67208 0
M  V30 6386 C 622.895 3.03251 5.02251 0
M  V30 6387 C 625.247 3.53633 5.24525 0
M  V30 6388 C 623.911 3.90118 5.41631 0
M  V30 6389 H 623.181 0.0578851 0.738736 0
M  V30 6390 H 625.828 0.836746 1.72252 0
M  V30 6391 H 624.133 -0.650507 3.86362 0
M  V30 6392 H 625.83 -0.283682 3.99995 0
M  V30 6393 H 622.42 1.14403 4.1305 0
M  V30 6394 H 626.604 2.04272 4.52313 0
M  V30 6395 H 621.86 3.31575 5.13681 0
M  V30 6396 H 626.034 4.21561 5.5431 0
M  V30 6397 H 623.661 4.85768 5.84751 0
M  V30 6398 N 625.236 -1.5273 0.388769 0
M  V30 6399 C 626.183 -2.26437 -0.446639 0
M  V30 6400 C 627.153 -1.28025 -1.05824 0
M  V30 6401 O 628.338 -1.56852 -1.08637 0
M  V30 6402 C 625.478 -3.07407 -1.56828 0
M  V30 6403 C 624.591 -4.20747 -0.979589 0
M  V30 6404 C 623.726 -4.89113 -2.07224 0
M  V30 6405 C 622.765 -5.94447 -1.45942 0
M  V30 6406 N 621.902 -6.56411 -2.49135 0
M  V30 6407 H 626.742 -2.97404 0.18837 0
M  V30 6408 H 624.279 -1.46727 0.104725 0
M  V30 6409 H 626.237 -3.52642 -2.22934 0
M  V30 6410 H 624.867 -2.3865 -2.17361 0
M  V30 6411 H 623.919 -3.7983 -0.208151 0
M  V30 6412 H 625.231 -4.9637 -0.491747 0
M  V30 6413 H 624.385 -5.3765 -2.81101 0
M  V30 6414 H 623.124 -4.13013 -2.59368 0
M  V30 6415 H 622.129 -5.4525 -0.705894 0
M  V30 6416 H 623.354 -6.7248 -0.945932 0
M  V30 6417 H 621.3 -5.83152 -3.00449 0
M  V30 6418 H 621.217 -7.27645 -2.05105 0
M  V30 6419 H 622.485 -7.09592 -3.22644 0
M  V30 6420 N 626.714 -0.118576 -1.57153 0
M  V30 6421 C 627.942 0.54726 -1.99531 0
M  V30 6422 C 628.357 1.60251 -0.998246 0
M  V30 6423 O 627.714 1.82498 0.00893106 0
M  V30 6424 C 627.765 1.17378 -3.41913 0
M  V30 6425 O 627.486 0.160703 -4.37805 0
M  V30 6426 C 628.987 1.92297 -3.9942 0
M  V30 6427 H 626.207 0.144919 -0.655164 0
M  V30 6428 H 628.751 -0.20479 -2.03472 0
M  V30 6429 H 626.906 1.87661 -3.38913 0
M  V30 6430 H 627.32 0.61586 -5.20872 0
M  V30 6431 H 628.794 2.31462 -5.01128 0
M  V30 6432 H 629.271 2.79801 -3.38538 0
M  V30 6433 H 629.877 1.26777 -4.05965 0
M  V30 6434 N 628.193 1.56834 0.155195 0
M  V30 6435 C 629.421 1.87049 0.884326 0
M  V30 6436 C 629.836 0.705839 1.7511 0
M  V30 6437 O 629.193 -0.324641 1.79589 0
M  V30 6438 C 629.244 3.1644 1.74781 0
M  V30 6439 O 628.965 4.28417 0.915978 0
M  V30 6440 C 630.466 3.60113 2.58522 0
M  V30 6441 H 627.686 0.620196 0.25612 0
M  V30 6442 H 630.23 2.03946 0.150445 0
M  V30 6443 H 628.385 3.01321 2.43484 0
M  V30 6444 H 628.799 5.02353 1.50803 0
M  V30 6445 H 630.273 4.53508 3.14698 0
M  V30 6446 H 630.75 2.85005 3.34169 0
M  V30 6447 H 631.356 3.77898 1.95124 0
M  V30 6448 N 629.671 -0.424282 1.51781 0
M  V30 6449 C 630.601 -1.52305 1.7699 0
M  V30 6450 C 631.582 -1.5839 0.620209 0
M  V30 6451 O 632.767 -1.73908 0.864268 0
M  V30 6452 C 629.897 -2.90271 1.90683 0
M  V30 6453 C 628.851 -2.99043 3.06198 0
M  V30 6454 C 628.177 -4.39116 3.05092 0
M  V30 6455 C 629.477 -2.7192 4.45934 0
M  V30 6456 H 631.171 -1.31461 2.68995 0
M  V30 6457 H 628.717 -0.630985 1.29439 0
M  V30 6458 H 630.67 -3.6711 2.06901 0
M  V30 6459 H 629.394 -3.12376 0.953365 0
M  V30 6460 H 628.053 -2.24646 2.89706 0
M  V30 6461 H 627.701 -4.58207 2.07498 0
M  V30 6462 H 627.401 -4.45912 3.82669 0
M  V30 6463 H 628.925 -5.17911 3.2342 0
M  V30 6464 H 630.339 -3.38487 4.62709 0
M  V30 6465 H 628.736 -2.90111 5.25315 0
M  V30 6466 H 629.806 -1.67445 4.55072 0
M  V30 6467 N 631.149 -1.42148 -0.680565 0
M  V30 6468 C 632.079 -1.4796 -1.80638 0
M  V30 6469 C 633.06 -0.336728 -1.66734 0
M  V30 6470 O 634.245 -0.550247 -1.86242 0
M  V30 6471 C 631.375 -1.37569 -3.18892 0
M  V30 6472 C 630.329 -2.49823 -3.47524 0
M  V30 6473 C 629.655 -2.24491 -4.85291 0
M  V30 6474 C 630.955 -3.92144 -3.44994 0
M  V30 6475 H 632.649 -2.42184 -1.76032 0
M  V30 6476 H 630.195 -1.16566 -0.845481 0
M  V30 6477 H 632.148 -1.40243 -3.97379 0
M  V30 6478 H 630.872 -0.398357 -3.24162 0
M  V30 6479 H 629.531 -2.46455 -2.71395 0
M  V30 6480 H 629.179 -1.25066 -4.87204 0
M  V30 6481 H 628.879 -2.99722 -5.05411 0
M  V30 6482 H 630.403 -2.28906 -5.66069 0
M  V30 6483 H 631.817 -3.97145 -4.13459 0
M  V30 6484 H 630.214 -4.67179 -3.76648 0
M  V30 6485 H 631.284 -4.19225 -2.43676 0
M  V30 6486 N 632.627 0.916307 -1.28225 0
M  V30 6487 C 633.875 1.6619 -1.15002 0
M  V30 6488 C 634.196 1.92642 0.302329 0
M  V30 6489 O 633.466 1.54076 1.20985 0
M  V30 6490 H 632.046 0.615964 -0.422608 0
M  V30 6491 H 634.708 1.09963 -1.60917 0
M  V30 6492 H 633.804 2.62533 -1.68769 0
M  V30 6493 N 634.105 1.10431 1.1244 0
M  V30 6494 C 635.015 0.765502 2.21759 0
M  V30 6495 C 636.031 -0.236966 1.72379 0
M  V30 6496 O 637.207 -0.0757329 2.01258 0
M  V30 6497 C 634.272 0.202316 3.46109 0
M  V30 6498 C 633.333 1.26205 4.1033 0
M  V30 6499 C 632.566 0.725648 5.28744 0
M  V30 6500 O 632.789 -0.447942 5.68638 0
M  V30 6501 O 631.723 1.48555 5.83279 0
M  V30 6502 H 635.549 1.67801 2.53133 0
M  V30 6503 H 633.134 0.879443 1.20773 0
M  V30 6504 H 635.016 -0.107918 4.21262 0
M  V30 6505 H 633.691 -0.683052 3.16411 0
M  V30 6506 H 632.598 1.62514 3.36957 0
M  V30 6507 H 633.931 2.12044 4.44183 0
M  V30 6508 N 635.583 -1.29855 0.893053 0
M  V30 6509 C 636.832 -1.95104 0.511597 0
M  V30 6510 C 637.145 -1.71226 -0.945567 0
M  V30 6511 O 638.351 -2.30525 -1.43424 0
M  V30 6512 C 636.807 -3.49374 0.864034 0
M  V30 6513 C 636.415 -3.82061 2.33952 0
M  V30 6514 C 638.159 -4.20894 0.552167 0
M  V30 6515 C 636.066 -5.29546 2.63316 0
M  V30 6516 H 634.996 -0.73029 0.187597 0
M  V30 6517 H 637.647 -1.47682 1.08914 0
M  V30 6518 H 636.029 -3.95413 0.215493 0
M  V30 6519 H 637.203 -3.46904 3.03305 0
M  V30 6520 H 635.518 -3.23665 2.61973 0
M  V30 6521 H 638.115 -5.29435 0.748489 0
M  V30 6522 H 638.458 -4.13178 -0.508924 0
M  V30 6523 H 638.991 -3.80564 1.15825 0
M  V30 6524 H 635.73 -5.4232 3.68197 0
M  V30 6525 H 635.25 -5.65974 1.9858 0
M  V30 6526 H 636.929 -5.97068 2.49236 0
M  V30 6527 N 637.061 -0.65484 -1.43351 0
M  V30 6528 C 638.307 -0.169142 -2.02093 0
M  V30 6529 C 638.64 1.21431 -1.51553 0
M  V30 6530 O 637.915 1.81105 -0.709317 0
M  V30 6531 C 638.198 -0.181775 -3.59641 0
M  V30 6532 C 638.051 -1.59926 -4.20409 0
M  V30 6533 C 639.37 0.480945 -4.37464 0
M  V30 6534 H 636.489 -0.0629371 -0.734308 0
M  V30 6535 H 639.131 -0.835833 -1.70628 0
M  V30 6536 H 637.281 0.385918 -3.86578 0
M  V30 6537 H 638.953 -2.21766 -4.04497 0
M  V30 6538 H 637.196 -2.14605 -3.76998 0
M  V30 6539 H 637.867 -1.55994 -5.295 0
M  V30 6540 H 640.343 -0.00208273 -4.161 0
M  V30 6541 H 639.219 0.441384 -5.47122 0
M  V30 6542 H 639.48 1.55533 -4.13838 0
M  V30 6543 N 638.539 1.52521 -0.396863 0
M  V30 6544 C 639.471 2.24333 0.469814 0
M  V30 6545 C 640.484 1.2685 1.02043 0
M  V30 6546 O 641.673 1.52876 0.92147 0
M  V30 6547 C 638.773 2.95202 1.66461 0
M  V30 6548 C 637.946 4.19454 1.24003 0
M  V30 6549 C 637.005 4.73255 2.30036 0
M  V30 6550 O 636.031 5.36151 1.91131 0
M  V30 6551 N 637.233 4.53765 3.62047 0
M  V30 6552 H 639.998 2.99347 -0.145468 0
M  V30 6553 H 637.559 1.60348 -0.223606 0
M  V30 6554 H 639.551 3.28092 2.36934 0
M  V30 6555 H 638.121 2.2345 2.18607 0
M  V30 6556 H 637.341 3.92517 0.363892 0
M  V30 6557 H 638.629 5.0017 0.933135 0
M  V30 6558 H 638.027 4.03576 3.96412 0
M  V30 6559 H 636.584 4.91124 4.28533 0
M  V30 6560 N 640.017 0.126909 1.57088 0
M  V30 6561 C 641.247 -0.535892 1.99529 0
M  V30 6562 C 641.655 -1.60259 1.00566 0
M  V30 6563 O 640.998 -1.83698 -0.00843269 0
M  V30 6564 C 641.06 -1.21374 3.38391 0
M  V30 6565 C 640.724 -0.294044 4.56053 0
M  V30 6566 C 641.721 0.470454 5.17767 0
M  V30 6567 C 639.406 -0.202808 5.0189 0
M  V30 6568 C 641.4 1.31384 6.23712 0
M  V30 6569 C 639.087 0.644203 6.07695 0
M  V30 6570 C 640.085 1.40115 6.68473 0
M  V30 6571 O 639.773 2.23408 7.72233 0
M  V30 6572 H 639.505 -0.145799 0.66009 0
M  V30 6573 H 642.059 0.212441 2.04298 0
M  V30 6574 H 640.289 -2.00931 3.30399 0
M  V30 6575 H 641.978 -1.77424 3.65069 0
M  V30 6576 H 642.744 0.409884 4.83265 0
M  V30 6577 H 638.623 -0.781688 4.54324 0
M  V30 6578 H 642.167 1.90514 6.71081 0
M  V30 6579 H 638.064 0.706137 6.41626 0
M  V30 6580 H 638.832 2.16436 7.89365 0
M  V30 6581 N 641.495 -1.56914 -0.146875 0
M  V30 6582 C 642.725 -1.87243 -0.873126 0
M  V30 6583 C 643.133 -0.713127 -1.75246 0
M  V30 6584 O 642.476 0.326228 -1.8078 0
M  V30 6585 C 642.538 -3.12279 -1.78107 0
M  V30 6586 C 642.202 -4.44082 -1.07889 0
M  V30 6587 C 643.199 -5.18096 -0.432734 0
M  V30 6588 C 640.884 -4.90807 -1.06836 0
M  V30 6589 C 642.878 -6.37039 0.214569 0
M  V30 6590 C 640.565 -6.09674 -0.417243 0
M  V30 6591 C 641.563 -6.82636 0.223093 0
M  V30 6592 O 641.251 -7.99245 0.863884 0
M  V30 6593 H 640.983 -0.624896 -0.257839 0
M  V30 6594 H 643.537 -2.04892 -0.14434 0
M  V30 6595 H 641.767 -2.90639 -2.5508 0
M  V30 6596 H 643.456 -3.28854 -2.37929 0
M  V30 6597 H 644.222 -4.83066 -0.432677 0
M  V30 6598 H 640.101 -4.3394 -1.55618 0
M  V30 6599 H 643.645 -6.93927 0.714965 0
M  V30 6600 H 639.542 -6.44165 -0.414967 0
M  V30 6601 H 640.31 -8.14912 0.765564 0
M  V30 6602 N 642.974 0.416227 -1.52004 0
M  V30 6603 C 644.202 1.18573 -1.69553 0
M  V30 6604 C 644.617 1.84472 -0.401919 0
M  V30 6605 O 643.974 1.71593 0.621463 0
M  V30 6606 C 644.025 2.25413 -2.82615 0
M  V30 6607 O 643.746 1.62205 -4.06966 0
M  V30 6608 C 645.247 3.15297 -3.11613 0
M  V30 6609 H 642.467 0.356582 -0.56841 0
M  V30 6610 H 645.011 0.490618 -1.98528 0
M  V30 6611 H 643.166 2.90604 -2.56179 0
M  V30 6612 H 643.58 2.3298 -4.69916 0
M  V30 6613 H 645.054 3.86351 -3.94255 0
M  V30 6614 H 645.531 3.77264 -2.24874 0
M  V30 6615 H 646.137 2.55783 -3.39787 0
M  V30 6616 N 644.452 1.42507 0.673017 0
M  V30 6617 C 645.402 1.4258 1.77919 0
M  V30 6618 C 646.386 0.296885 1.58137 0
M  V30 6619 O 647.578 0.539243 1.68586 0
M  V30 6620 C 644.707 1.33238 3.1639 0
M  V30 6621 C 643.793 2.51081 3.41788 0
M  V30 6622 N 644.184 3.76498 3.37761 0
M  V30 6623 C 642.482 2.4538 3.72431 0
M  V30 6624 C 643.183 4.54784 3.62693 0
M  V30 6625 N 642.159 3.8522 3.83544 0
M  V30 6626 H 645.961 2.37442 1.73201 0
M  V30 6627 H 643.475 1.36881 0.873924 0
M  V30 6628 H 645.472 1.31372 3.9566 0
M  V30 6629 H 644.132 0.393794 3.22303 0
M  V30 6630 H 645.143 4.09068 3.17622 0
M  V30 6631 H 641.82 1.60109 3.85579 0
M  V30 6632 H 643.21 5.63774 3.65525 0
M  V30 6633 N 645.93 -0.909495 1.28709 0
M  V30 6634 C 647.176 -1.66175 1.17293 0
M  V30 6635 C 647.531 -1.90426 -0.274891 0
M  V30 6636 O 646.824 -1.49659 -1.19635 0
M  V30 6637 C 647.018 -3.02117 1.90945 0
M  V30 6638 C 646.847 -2.91134 3.42741 0
M  V30 6639 C 645.617 -2.92429 4.12085 0
M  V30 6640 C 647.815 -2.68889 4.3841 0
M  V30 6641 N 645.797 -2.72078 5.50315 0
M  V30 6642 C 647.168 -2.57423 5.64033 0
M  V30 6643 C 649.223 -2.53919 4.28287 0
M  V30 6644 C 647.926 -2.32513 6.80683 0
M  V30 6645 C 649.952 -2.3039 5.44678 0
M  V30 6646 C 649.314 -2.19682 6.69268 0
M  V30 6647 H 645.413 -0.614095 0.48416 0
M  V30 6648 H 647.997 -1.07377 1.62414 0
M  V30 6649 H 646.168 -3.58993 1.48252 0
M  V30 6650 H 647.9 -3.66388 1.71878 0
M  V30 6651 H 644.655 -3.03345 3.63701 0
M  V30 6652 H 645.079 -2.64983 6.22987 0
M  V30 6653 H 649.721 -2.60946 3.32666 0
M  V30 6654 H 647.439 -2.24225 7.76369 0
M  V30 6655 H 651.025 -2.19665 5.38738 0
M  V30 6656 H 649.905 -2.01725 7.5781 0
M  V30 6657 N 647.408 -1.11026 -1.11852 0
M  V30 6658 C 648.633 -0.879064 -1.87849 0
M  V30 6659 C 649.058 0.565406 -1.79401 0
M  V30 6660 O 648.416 1.39886 -1.15333 0
M  V30 6661 C 648.464 -1.33985 -3.34784 0
M  V30 6662 O 647.568 -0.508803 -4.09249 0
M  V30 6663 H 646.909 -0.316992 -0.583448 0
M  V30 6664 H 649.439 -1.47863 -1.41413 0
M  V30 6665 H 649.449 -1.33248 -3.85628 0
M  V30 6666 H 648.124 -2.39172 -3.40249 0
M  V30 6667 H 646.701 -0.581913 -3.68332 0
M  V30 6668 N 648.886 1.2938 -0.899927 0
M  V30 6669 C 650.134 1.95164 -0.524924 0
M  V30 6670 C 650.455 1.71292 0.931888 0
M  V30 6671 O 649.725 1.04481 1.65712 0
M  V30 6672 H 648.305 0.722133 -0.191135 0
M  V30 6673 H 650.967 1.57628 -1.14627 0
M  V30 6674 H 650.063 3.0397 -0.707711 0
M  V30 6675 N 650.364 0.662433 1.43002 0
M  V30 6676 C 651.589 0.186003 2.06564 0
M  V30 6677 C 652.014 -1.14314 1.49379 0
M  V30 6678 O 651.372 -1.70824 0.607346 0
M  V30 6679 C 651.42 0.118269 3.60406 0
M  V30 6680 O 650.524 -0.916859 4.02079 0
M  V30 6681 H 649.865 0.0990981 0.656563 0
M  V30 6682 H 652.395 0.907958 1.8335 0
M  V30 6683 H 652.405 -0.0619981 4.07953 0
M  V30 6684 H 651.08 1.08849 4.01403 0
M  V30 6685 H 649.657 -0.708635 3.66105 0
M  V30 6686 N 651.842 -1.52309 0.404946 0
M  V30 6687 C 652.772 -2.29805 -0.41376 0
M  V30 6688 C 653.753 -1.3384 -1.0498 0
M  V30 6689 O 654.938 -1.62745 -1.05961 0
M  V30 6690 C 652.068 -3.11639 -1.53292 0
M  V30 6691 C 651.022 -4.15616 -1.02211 0
M  V30 6692 C 650.348 -4.8577 -2.23455 0
M  V30 6693 C 651.648 -5.2224 -0.0790725 0
M  V30 6694 H 653.342 -2.98493 0.232878 0
M  V30 6695 H 650.888 -1.43552 0.113441 0
M  V30 6696 H 652.841 -3.64618 -2.11262 0
M  V30 6697 H 651.565 -2.40712 -2.20738 0
M  V30 6698 H 650.224 -3.63641 -0.46484 0
M  V30 6699 H 649.872 -4.11376 -2.89445 0
M  V30 6700 H 649.572 -5.56058 -1.89929 0
M  V30 6701 H 651.096 -5.4156 -2.82038 0
M  V30 6702 H 652.51 -5.70485 -0.567438 0
M  V30 6703 H 650.907 -5.99867 0.167167 0
M  V30 6704 H 651.977 -4.77078 0.867447 0
M  V30 6705 N 653.32 -0.135238 -1.57019 0
M  V30 6706 C 654.736 0.221262 -1.58059 0
M  V30 6707 C 654.936 1.65538 -1.14889 0
M  V30 6708 O 653.992 2.37985 -0.843751 0
M  V30 6709 C 655.305 -0.0268114 -3.00688 0
M  V30 6710 C 656.853 0.0378206 -3.12977 0
M  V30 6711 C 657.328 -0.182769 -4.57635 0
M  V30 6712 N 658.819 -0.129292 -4.6302 0
M  V30 6713 C 659.554 -0.274648 -5.72742 0
M  V30 6714 N 659.05 -0.477075 -6.91155 0
M  V30 6715 N 660.843 -0.213077 -5.61696 0
M  V30 6716 H 652.994 -1.07177 -1.83376 0
M  V30 6717 H 655.257 -0.423338 -0.848227 0
M  V30 6718 H 654.963 -1.01889 -3.36618 0
M  V30 6719 H 654.837 0.697863 -3.70688 0
M  V30 6720 H 657.224 1.02043 -2.76896 0
M  V30 6721 H 657.305 -0.718996 -2.45487 0
M  V30 6722 H 656.949 -1.16243 -4.94419 0
M  V30 6723 H 656.879 0.59423 -5.23237 0
M  V30 6724 H 659.37 0.0229896 -3.77893 0
M  V30 6725 H 659.683 -0.578413 -7.70632 0
M  V30 6726 H 658.028 -0.513252 -6.93102 0
M  V30 6727 H 661.219 -0.0557796 -4.68067 0
M  V30 6728 H 661.392 -0.329796 -6.4716 0
M  V30 6729 N 654.798 1.5699 0.138552 0
M  V30 6730 C 656.045 1.83809 0.849732 0
M  V30 6731 C 656.373 0.717409 1.80786 0
M  V30 6732 O 655.628 -0.292897 1.93496 0
M  V30 6733 C 655.927 3.17007 1.65049 0
M  V30 6734 C 655.593 4.43037 0.838398 0
M  V30 6735 C 654.255 4.77262 0.614385 0
M  V30 6736 C 656.607 5.20495 0.271044 0
M  V30 6737 C 653.935 5.864 -0.187552 0
M  V30 6738 C 656.287 6.30476 -0.517979 0
M  V30 6739 C 654.951 6.63245 -0.75249 0
M  V30 6740 H 654.221 0.672605 0.310939 0
M  V30 6741 H 656.868 1.91166 0.112971 0
M  V30 6742 H 655.173 3.05138 2.4576 0
M  V30 6743 H 656.87 3.34975 2.20437 0
M  V30 6744 H 653.46 4.16211 1.02307 0
M  V30 6745 H 657.644 4.94422 0.431371 0
M  V30 6746 H 652.9 6.10226 -0.378659 0
M  V30 6747 H 657.074 6.89686 -0.964694 0
M  V30 6748 H 654.701 7.47648 -1.37573 0
M  V30 6749 N 656.276 -0.40816 1.52223 0
M  V30 6750 C 657.501 -1.18127 1.70472 0
M  V30 6751 C 657.926 -1.83491 0.41384 0
M  V30 6752 O 657.284 -1.70047 -0.628778 0
M  V30 6753 C 657.332 -2.21935 2.84213 0
M  V30 6754 O 656.436 -3.28099 2.4985 0
M  V30 6755 H 655.777 -0.344781 0.56747 0
M  V30 6756 H 658.307 -0.478328 1.9893 0
M  V30 6757 H 658.317 -2.66248 3.09153 0
M  V30 6758 H 656.992 -1.73744 3.7787 0
M  V30 6759 H 655.569 -2.89058 2.35584 0
M  V30 6760 N 657.755 -1.42862 -0.66545 0
M  V30 6761 C 658.685 -1.49867 -1.79059 0
M  V30 6762 C 659.666 -0.354394 -1.66367 0
M  V30 6763 O 660.851 -0.569969 -1.85647 0
M  V30 6764 C 657.981 -1.40943 -3.17415 0
M  V30 6765 C 656.935 -2.53495 -3.44854 0
M  V30 6766 C 656.261 -2.29626 -4.82883 0
M  V30 6767 C 657.561 -3.95781 -3.40815 0
M  V30 6768 H 659.255 -2.44037 -1.73453 0
M  V30 6769 H 656.801 -1.17456 -0.833071 0
M  V30 6770 H 658.754 -1.4445 -3.95869 0
M  V30 6771 H 657.478 -0.432716 -3.23721 0
M  V30 6772 H 656.137 -2.4932 -2.68766 0
M  V30 6773 H 655.785 -1.30226 -4.8585 0
M  V30 6774 H 655.485 -3.05065 -5.02204 0
M  V30 6775 H 657.009 -2.34897 -5.63609 0
M  V30 6776 H 658.423 -4.01508 -4.09224 0
M  V30 6777 H 656.82 -4.71148 -3.71672 0
M  V30 6778 H 657.89 -4.21786 -2.39216 0
M  V30 6779 N 659.233 0.902656 -1.29189 0
M  V30 6780 C 660.166 2.00816 -1.0839 0
M  V30 6781 C 661.144 1.626 0.00335266 0
M  V30 6782 O 662.328 1.87928 -0.146765 0
M  V30 6783 C 659.455 3.32415 -0.649435 0
M  V30 6784 C 658.501 3.89617 -1.73496 0
M  V30 6785 S 659.334 4.19091 -3.33351 0
M  V30 6786 C 660.49 5.53736 -2.91766 0
M  V30 6787 H 660.723 2.18151 -2.01984 0
M  V30 6788 H 658.256 1.0489 -1.13303 0
M  V30 6789 H 660.214 4.08492 -0.405479 0
M  V30 6790 H 658.875 3.12964 0.266857 0
M  V30 6791 H 658.068 4.84658 -1.38284 0
M  V30 6792 H 657.67 3.20217 -1.93229 0
M  V30 6793 H 659.962 6.34085 -2.38627 0
M  V30 6794 H 660.905 5.93871 -3.85647 0
M  V30 6795 H 661.313 5.15453 -2.30149 0
M  V30 6796 N 660.711 1.11618 1.11262 0
M  V30 6797 C 661.941 0.88745 1.86569 0
M  V30 6798 C 662.349 -0.56636 1.80524 0
M  V30 6799 O 661.692 -1.40289 1.18594 0
M  V30 6800 C 661.754 1.27313 3.36202 0
M  V30 6801 C 661.418 2.73649 3.66013 0
M  V30 6802 C 662.415 3.71863 3.63337 0
M  V30 6803 C 660.1 3.10342 3.9496 0
M  V30 6804 C 662.094 5.04788 3.89188 0
M  V30 6805 C 659.781 4.43451 4.20469 0
M  V30 6806 C 660.779 5.40484 4.17572 0
M  V30 6807 O 660.467 6.71195 4.42439 0
M  V30 6808 H 660.199 0.317543 0.596777 0
M  V30 6809 H 662.753 1.48768 1.41624 0
M  V30 6810 H 660.983 0.616062 3.81761 0
M  V30 6811 H 662.672 1.01991 3.92877 0
M  V30 6812 H 663.438 3.44861 3.41022 0
M  V30 6813 H 659.317 2.35431 3.9635 0
M  V30 6814 H 662.861 5.80516 3.86842 0
M  V30 6815 H 658.758 4.70187 4.42261 0
M  V30 6816 H 659.526 6.77012 4.59997 0
M  V30 6817 N 662.189 -1.289 0.906776 0
M  V30 6818 C 663.417 -1.99401 0.551969 0
M  V30 6819 C 663.832 -1.67816 -0.865048 0
M  V30 6820 O 663.189 -0.927078 -1.57199 0
M  V30 6821 C 663.24 -3.53779 0.743152 0
M  V30 6822 O 662.961 -3.84248 2.1044 0
M  V30 6823 C 664.462 -4.41543 0.39424 0
M  V30 6824 H 661.682 -0.636926 0.211106 0
M  V30 6825 H 664.226 -1.64266 1.21807 0
M  V30 6826 H 662.381 -3.87201 0.124143 0
M  V30 6827 H 662.795 -4.78904 2.13895 0
M  V30 6828 H 664.269 -5.48957 0.578814 0
M  V30 6829 H 664.746 -4.34073 -0.669137 0
M  V30 6830 H 665.352 -4.13605 0.990491 0
M  V30 6831 N 663.667 -0.670007 -1.42649 0
M  V30 6832 C 664.915 -0.18991 -2.01206 0
M  V30 6833 C 665.236 1.20617 -1.53221 0
M  V30 6834 O 664.506 1.80898 -0.751856 0
M  V30 6835 H 663.086 -0.0672189 -0.743969 0
M  V30 6836 H 665.748 -0.865442 -1.74631 0
M  V30 6837 H 664.844 -0.187481 -3.11536 0
M  V30 6838 N 665.145 1.52092 -0.413018 0
M  V30 6839 C 666.556 1.86617 0.0556967 0
M  V30 6840 C 666.907 1.33156 1.44097 0
M  V30 6841 O 666.032 0.672417 2.05688 0
M  V30 6842 C 666.627 3.38628 0.107844 0
M  V30 6843 C 665.186 3.72778 0.520904 0
M  V30 6844 C 664.333 2.75649 -0.302109 0
M  V30 6845 H 667.284 1.45663 -0.629919 0
M  V30 6846 H 667.305 3.69152 0.922324 0
M  V30 6847 H 666.817 3.77508 -0.900506 0
M  V30 6848 H 664.918 3.39478 1.53575 0
M  V30 6849 H 665.031 4.7838 0.262591 0
M  V30 6850 H 663.395 2.53603 0.236115 0
M  V30 6851 H 664.178 3.17369 -1.30888 0
M  V30 6852 N 666.623 0.143563 1.56945 0
M  V30 6853 C 667.586 -0.783295 2.154 0
M  V30 6854 C 668.586 -1.17763 1.09492 0
M  V30 6855 O 669.776 -1.09912 1.35148 0
M  V30 6856 C 666.908 -2.06248 2.7143 0
M  V30 6857 H 668.101 -0.274863 2.98638 0
M  V30 6858 H 665.654 -0.105859 1.55941 0
M  V30 6859 H 666.389 -2.61466 1.91849 0
M  V30 6860 H 666.174 -1.78897 3.4891 0
M  V30 6861 H 667.664 -2.72453 3.16479 0
M  V30 6862 N 668.101 -1.57061 -0.130224 0
M  V30 6863 C 669.031 -2.02552 -1.16168 0
M  V30 6864 C 670.012 -0.907971 -1.4384 0
M  V30 6865 O 671.197 -1.17693 -1.54473 0
M  V30 6866 C 668.327 -2.42035 -2.49071 0
M  V30 6867 C 667.281 -3.5713 -2.35886 0
M  V30 6868 C 666.607 -3.82478 -3.7365 0
M  V30 6869 C 667.907 -4.89236 -1.8288 0
M  V30 6870 H 669.601 -2.8897 -0.783359 0
M  V30 6871 H 667.147 -1.39021 -0.375376 0
M  V30 6872 H 669.1 -2.72462 -3.21469 0
M  V30 6873 H 667.824 -1.52573 -2.88771 0
M  V30 6874 H 666.483 -3.26895 -1.65938 0
M  V30 6875 H 666.131 -2.9024 -4.10816 0
M  V30 6876 H 665.831 -4.59944 -3.65685 0
M  V30 6877 H 667.355 -4.15347 -4.47571 0
M  V30 6878 H 668.769 -5.18272 -2.45085 0
M  V30 6879 H 667.166 -5.70624 -1.85763 0
M  V30 6880 H 668.236 -4.78494 -0.785571 0
M  V30 6881 N 669.579 0.400081 -1.52437 0
M  V30 6882 C 670.804 1.17221 -1.71096 0
M  V30 6883 C 671.229 1.83269 -0.423565 0
M  V30 6884 O 670.587 1.70378 0.619751 0
M  V30 6885 C 670.635 2.20425 -2.85386 0
M  V30 6886 O 669.739 3.26769 -2.51586 0
M  V30 6887 H 669.08 0.341766 -0.569291 0
M  V30 6888 H 671.61 0.467772 -1.99181 0
M  V30 6889 H 671.62 2.64605 -3.10561 0
M  V30 6890 H 670.295 1.71737 -3.78786 0
M  V30 6891 H 668.872 2.87804 -2.37114 0
M  V30 6892 N 671.057 1.43213 0.657864 0
M  V30 6893 C 672.282 1.48227 1.45064 0
M  V30 6894 C 672.707 0.0999939 1.87834 0
M  V30 6895 O 672.065 -0.905269 1.57081 0
M  V30 6896 C 672.113 2.42931 2.6649 0
M  V30 6897 O 671.217 1.91237 3.6538 0
M  V30 6898 H 670.558 0.501551 0.435135 0
M  V30 6899 H 673.088 1.8808 0.805431 0
M  V30 6900 H 673.098 2.6008 3.1436 0
M  V30 6901 H 671.773 3.43348 2.34701 0
M  V30 6902 H 670.35 1.83726 3.24498 0
M  V30 6903 N 672.536 -0.895792 1.29666 0
M  V30 6904 C 673.499 -1.98189 1.15124 0
M  V30 6905 C 674.499 -1.60572 0.0855717 0
M  V30 6906 O 675.689 -1.70991 0.332826 0
M  V30 6907 C 672.821 -3.32289 0.761372 0
M  V30 6908 H 674.014 -2.12518 2.11603 0
M  V30 6909 H 671.567 -1.0808 1.12908 0
M  V30 6910 H 672.302 -3.23662 -0.203393 0
M  V30 6911 H 672.087 -3.60958 1.53139 0
M  V30 6912 H 673.577 -4.1198 0.682792 0
M  V30 6913 N 674.014 -1.12206 -1.10668 0
M  V30 6914 C 674.961 -0.787716 -2.16942 0
M  V30 6915 C 675.931 0.244442 -1.64291 0
M  V30 6916 O 677.116 0.119558 -1.90425 0
M  V30 6917 C 674.256 -0.24584 -3.44223 0
M  V30 6918 C 673.369 -1.33552 -4.10838 0
M  V30 6919 C 672.504 -0.753337 -5.25831 0
M  V30 6920 C 671.543 -1.82231 -5.84344 0
M  V30 6921 N 670.68 -1.25902 -6.90719 0
M  V30 6922 H 675.52 -1.69809 -2.44885 0
M  V30 6923 H 673.057 -0.847862 -1.20207 0
M  V30 6924 H 675.015 0.0863639 -4.17111 0
M  V30 6925 H 673.645 0.627702 -3.16638 0
M  V30 6926 H 672.697 -1.78454 -3.35944 0
M  V30 6927 H 674.009 -2.14396 -4.50373 0
M  V30 6928 H 673.163 -0.37166 -6.05561 0
M  V30 6929 H 671.902 0.0863297 -4.87624 0
M  V30 6930 H 670.907 -2.2132 -5.03287 0
M  V30 6931 H 672.132 -2.66515 -6.24617 0
M  V30 6932 H 670.078 -0.44114 -6.54515 0
M  V30 6933 H 669.995 -2.00408 -7.28953 0
M  V30 6934 H 671.263 -0.904498 -7.74235 0
M  V30 6935 N 675.492 1.28418 -0.913599 0
M  V30 6936 C 676.422 2.29713 -0.418847 0
M  V30 6937 C 677.403 1.62165 0.513469 0
M  V30 6938 O 678.588 1.89576 0.421235 0
M  V30 6939 C 675.718 3.45612 0.342042 0
M  V30 6940 C 674.672 4.25056 -0.501123 0
M  V30 6941 C 673.998 5.3329 0.388097 0
M  V30 6942 C 675.298 4.91814 -1.75831 0
M  V30 6943 H 676.992 2.71346 -1.26538 0
M  V30 6944 H 674.538 1.30446 -0.609903 0
M  V30 6945 H 676.491 4.15562 0.699 0
M  V30 6946 H 675.215 3.02858 1.22248 0
M  V30 6947 H 673.874 3.56833 -0.840598 0
M  V30 6948 H 673.522 4.8678 1.26707 0
M  V30 6949 H 673.222 5.87347 -0.172459 0
M  V30 6950 H 674.746 6.06088 0.74094 0
M  V30 6951 H 676.16 5.54126 -1.47026 0
M  V30 6952 H 674.557 5.55866 -2.26126 0
M  V30 6953 H 675.627 4.16313 -2.4862 0
M  V30 6954 N 676.97 0.677563 1.42291 0
M  V30 6955 C 678.219 0.198173 2.00724 0
M  V30 6956 C 678.532 -1.20325 1.54211 0
M  V30 6957 O 679.738 -1.77916 2.05081 0
M  V30 6958 C 678.194 0.303432 3.58619 0
M  V30 6959 C 677.802 1.70909 4.14119 0
M  V30 6960 C 679.546 -0.117103 4.24338 0
M  V30 6961 C 677.453 1.76696 5.64387 0
M  V30 6962 H 676.383 0.070329 0.750713 0
M  V30 6963 H 679.034 0.843147 1.62982 0
M  V30 6964 H 677.416 -0.409482 3.93877 0
M  V30 6965 H 678.59 2.44931 3.90315 0
M  V30 6966 H 676.905 2.07771 3.6086 0
M  V30 6967 H 679.502 -0.0940471 5.34617 0
M  V30 6968 H 679.845 -1.15283 4.00019 0
M  V30 6969 H 680.378 0.5449 3.9405 0
M  V30 6970 H 677.117 2.7826 5.93508 0
M  V30 6971 H 676.637 1.07034 5.90173 0
M  V30 6972 H 678.316 1.52166 6.28852 0
M  V30 6973 N 678.448 -1.51871 0.421078 0
M  V30 6974 C 679.378 -2.30231 -0.389363 0
M  V30 6975 C 680.359 -1.34946 -1.03555 0
M  V30 6976 O 681.544 -1.63859 -1.04229 0
M  V30 6977 C 678.674 -3.13247 -1.49979 0
M  V30 6978 C 677.628 -4.16677 -0.977966 0
M  V30 6979 C 676.954 -4.88112 -2.1829 0
M  V30 6980 C 678.254 -5.22295 -0.0236775 0
M  V30 6981 H 679.948 -2.98229 0.264524 0
M  V30 6982 H 677.494 -1.43424 0.12866 0
M  V30 6983 H 679.447 -3.66838 -2.07383 0
M  V30 6984 H 678.171 -2.4304 -2.18173 0
M  V30 6985 H 676.83 -3.64114 -0.426245 0
M  V30 6986 H 676.478 -4.14423 -2.85066 0
M  V30 6987 H 676.178 -5.58041 -1.84021 0
M  V30 6988 H 677.702 -5.44521 -2.76278 0
M  V30 6989 H 679.116 -5.71055 -0.506899 0
M  V30 6990 H 677.513 -5.99656 0.230782 0
M  V30 6991 H 678.583 -4.76131 0.917999 0
M  V30 6992 N 679.926 -0.151884 -1.56866 0
M  V30 6993 C 680.889 0.771861 -2.15812 0
M  V30 6994 C 681.889 1.17181 -1.10115 0
M  V30 6995 O 683.079 1.09194 -1.35729 0
M  V30 6996 C 680.211 2.04806 -2.7252 0
M  V30 6997 H 681.404 0.259021 -2.98779 0
M  V30 6998 H 678.957 0.097588 -1.55995 0
M  V30 6999 H 679.692 2.60445 -1.93233 0
M  V30 7000 H 679.477 1.77044 -3.49854 0
M  V30 7001 H 680.967 2.70771 -3.1792 0
M  V30 7002 N 681.404 1.57128 0.121893 0
M  V30 7003 C 682.634 1.88609 0.843227 0
M  V30 7004 C 683.042 0.740917 1.74089 0
M  V30 7005 O 682.385 -0.297426 1.81276 0
M  V30 7006 C 682.447 3.15073 1.73117 0
M  V30 7007 C 682.111 4.45742 1.0081 0
M  V30 7008 C 683.108 5.18719 0.350255 0
M  V30 7009 C 680.793 4.92444 0.99014 0
M  V30 7010 C 682.787 6.36617 -0.315889 0
M  V30 7011 C 680.474 6.10261 0.320196 0
M  V30 7012 C 681.472 6.82194 -0.331666 0
M  V30 7013 O 681.16 7.97769 -0.990927 0
M  V30 7014 H 680.892 0.628919 0.247865 0
M  V30 7015 H 683.446 2.05096 0.111725 0
M  V30 7016 H 681.676 2.9466 2.50424 0
M  V30 7017 H 683.365 3.32597 2.32667 0
M  V30 7018 H 684.131 4.83693 0.35577 0
M  V30 7019 H 680.01 4.36361 1.48695 0
M  V30 7020 H 683.554 6.92701 -0.825272 0
M  V30 7021 H 679.451 6.44743 0.312433 0
M  V30 7022 H 680.219 8.13591 -0.895113 0
M  V30 7023 N 682.882 -0.391992 1.52647 0
M  V30 7024 C 684.11 -1.1586 1.71418 0
M  V30 7025 C 684.525 -1.8381 0.431216 0
M  V30 7026 O 683.882 -1.7256 -0.594085 0
M  V30 7027 C 683.933 -2.20888 2.86165 0
M  V30 7028 O 683.654 -1.5571 4.09495 0
M  V30 7029 C 685.155 -3.103 3.1659 0
M  V30 7030 H 682.375 -0.347494 0.574011 0
M  V30 7031 H 684.919 -0.458972 1.99283 0
M  V30 7032 H 683.074 -2.86492 2.6077 0
M  V30 7033 H 683.488 -2.25474 4.73563 0
M  V30 7034 H 684.962 -3.8003 4.00351 0
M  V30 7035 H 685.439 -3.73639 2.30848 0
M  V30 7036 H 686.045 -2.50345 3.43813 0
M  V30 7037 N 684.36 -1.4356 -0.65026 0
M  V30 7038 C 685.771 -1.40324 -1.2315 0
M  V30 7039 C 686.122 -0.108812 -1.95898 0
M  V30 7040 O 685.247 0.79163 -2.01401 0
M  V30 7041 C 685.842 -2.54195 -2.23987 0
M  V30 7042 C 684.401 -2.54215 -2.77582 0
M  V30 7043 C 683.548 -2.31752 -1.5227 0
M  V30 7044 H 686.499 -1.52418 -0.442095 0
M  V30 7045 H 686.52 -2.25854 -3.0622 0
M  V30 7046 H 686.032 -3.48392 -1.71011 0
M  V30 7047 H 684.133 -1.63907 -3.34612 0
M  V30 7048 H 684.246 -3.52081 -3.24925 0
M  V30 7049 H 682.61 -1.80476 -1.79723 0
M  V30 7050 H 683.393 -3.28037 -1.01225 0
M  V30 7051 N 685.838 0.888903 -1.30139 0
M  V30 7052 C 687.249 1.45578 -1.16893 0
M  V30 7053 C 687.6 1.94825 0.231866 0
M  V30 7054 O 686.725 1.84661 1.12824 0
M  V30 7055 C 687.32 2.646 -2.11595 0
M  V30 7056 C 685.879 3.17389 -2.02339 0
M  V30 7057 C 685.026 1.90081 -2.01902 0
M  V30 7058 H 687.977 0.69921 -1.42467 0
M  V30 7059 H 687.998 3.40687 -1.69449 0
M  V30 7060 H 687.51 2.28726 -3.13538 0
M  V30 7061 H 685.611 3.5793 -1.03523 0
M  V30 7062 H 685.724 3.80955 -2.90534 0
M  V30 7063 H 684.088 2.08246 -1.46648 0
M  V30 7064 H 684.871 1.5647 -3.05568 0
M  V30 7065 N 687.317 1.12792 1.10072 0
M  V30 7066 C 688.565 0.883796 1.81751 0
M  V30 7067 C 688.886 -0.591891 1.858 0
M  V30 7068 O 688.156 -1.43017 1.33876 0
M  V30 7069 H 686.736 0.323978 0.673088 0
M  V30 7070 H 689.398 1.42314 1.33164 0
M  V30 7071 H 688.494 1.26863 2.85153 0
M  V30 7072 N 688.795 -1.27931 0.920396 0
M  V30 7073 C 689.758 -2.25345 0.41858 0
M  V30 7074 C 690.758 -1.54116 -0.458798 0
M  V30 7075 O 691.948 -1.72235 -0.260912 0
M  V30 7076 C 689.08 -3.38556 -0.399104 0
M  V30 7077 H 690.273 -2.71251 1.27918 0
M  V30 7078 H 687.826 -1.39728 0.700406 0
M  V30 7079 H 688.561 -2.98021 -1.27882 0
M  V30 7080 H 688.346 -3.91426 0.229863 0
M  V30 7081 H 689.836 -4.10976 -0.740817 0
M  V30 7082 N 690.273 -0.685099 -1.4193 0
M  V30 7083 C 691.689 -0.355632 -1.55587 0
M  V30 7084 C 691.889 1.13823 -1.66273 0
M  V30 7085 O 690.945 1.92387 -1.63534 0
M  V30 7086 C 692.258 -1.09498 -2.80055 0
M  V30 7087 C 693.806 -1.07831 -2.93839 0
M  V30 7088 C 694.281 -1.79919 -4.21181 0
M  V30 7089 N 695.772 -1.76837 -4.28115 0
M  V30 7090 C 696.507 -2.29463 -5.25485 0
M  V30 7091 N 696.003 -2.90516 -6.28945 0
M  V30 7092 N 697.796 -2.19779 -5.17353 0
M  V30 7093 H 689.947 -1.65412 -1.33239 0
M  V30 7094 H 692.21 -0.697453 -0.642078 0
M  V30 7095 H 691.916 -2.14997 -2.78333 0
M  V30 7096 H 691.79 -0.666813 -3.71259 0
M  V30 7097 H 694.177 -0.0316152 -2.95083 0
M  V30 7098 H 694.258 -1.54545 -2.03837 0
M  V30 7099 H 693.902 -2.84562 -4.20698 0
M  V30 7100 H 693.832 -1.30647 -5.10136 0
M  V30 7101 H 696.323 -1.32315 -3.53979 0
M  V30 7102 H 696.636 -3.28266 -6.99615 0
M  V30 7103 H 694.981 -2.94589 -6.29478 0
M  V30 7104 H 698.172 -1.71763 -4.35448 0
M  V30 7105 H 698.345 -2.61097 -5.9307 0
M  V30 7106 N 691.751 1.51645 -0.429126 0
M  V30 7107 C 692.999 2.01616 0.139802 0
M  V30 7108 C 693.32 1.31568 1.43927 0
M  V30 7109 O 692.59 0.447688 1.90716 0
M  V30 7110 H 691.17 0.744998 0.054654 0
M  V30 7111 H 693.832 1.8638 -0.569952 0
M  V30 7112 H 692.928 3.10439 0.321609 0
M  V30 7113 N 693.229 0.160201 1.56784 0
M  V30 7114 C 694.64 -0.358417 1.83227 0
M  V30 7115 C 694.991 -1.63831 1.07952 0
M  V30 7116 O 694.116 -2.13885 0.328995 0
M  V30 7117 C 694.711 -0.657058 3.32368 0
M  V30 7118 C 693.27 -1.12015 3.59346 0
M  V30 7119 C 692.417 -0.15015 2.76893 0
M  V30 7120 H 695.368 0.384669 1.53967 0
M  V30 7121 H 695.389 -1.51033 3.49241 0
M  V30 7122 H 694.901 0.274647 3.87127 0
M  V30 7123 H 693.002 -2.06734 3.09987 0
M  V30 7124 H 693.115 -1.037 4.67743 0
M  V30 7125 H 691.479 -0.645361 2.46388 0
M  V30 7126 H 692.262 0.775379 3.34429 0
M  V30 7127 N 694.707 -1.5719 -0.113559 0
M  V30 7128 C 695.639 -1.97393 -1.16484 0
M  V30 7129 C 696.652 -0.873964 -1.37352 0
M  V30 7130 O 697.841 -1.15222 -1.36331 0
M  V30 7131 C 694.941 -2.26174 -2.52386 0
M  V30 7132 C 694.114 -3.57479 -2.52046 0
M  V30 7133 C 693.173 -3.74409 -3.69735 0
M  V30 7134 O 692.199 -4.46463 -3.53071 0
M  V30 7135 N 693.401 -3.13588 -4.88511 0
M  V30 7136 H 696.166 -2.88184 -0.822814 0
M  V30 7137 H 693.727 -1.59044 -0.302769 0
M  V30 7138 H 695.719 -2.3471 -3.29687 0
M  V30 7139 H 694.289 -1.41483 -2.7875 0
M  V30 7140 H 693.509 -3.60081 -1.60421 0
M  V30 7141 H 694.797 -4.43775 -2.48881 0
M  V30 7142 H 694.195 -2.55026 -5.04953 0
M  V30 7143 H 692.752 -3.27637 -5.63469 0
M  V30 7144 N 696.185 0.383891 -1.52853 0
M  V30 7145 C 697.462 1.14296 -1.58732 0
M  V30 7146 C 697.842 2.07585 -0.383611 0
M  V30 7147 O 697.19 2.1971 0.627661 0
M  V30 7148 C 697.4 1.89816 -2.92867 0
M  V30 7149 C 698.748 2.44998 -3.46787 0
M  V30 7150 O 699.772 1.99966 -2.94774 0
M  V30 7151 O 698.631 3.2727 -4.37672 0
M  V30 7152 H 695.725 0.52326 -0.640413 0
M  V30 7153 H 698.271 0.388631 -1.6519 0
M  V30 7154 H 697.043 1.21626 -3.71918 0
M  V30 7155 H 696.666 2.72199 -2.89816 0
M  V30 7156 N 697.663 1.43903 0.642637 0
M  V30 7157 C 699.079 1.27536 0.959519 0
M  V30 7158 C 699.279 0.202751 2.00477 0
M  V30 7159 O 698.335 -0.415256 2.49062 0
M  V30 7160 C 699.648 2.6432 1.43372 0
M  V30 7161 C 701.196 2.71937 1.54981 0
M  V30 7162 C 701.671 4.09164 2.05789 0
M  V30 7163 N 703.162 4.11282 2.13076 0
M  V30 7164 C 703.897 5.14303 2.53534 0
M  V30 7165 N 703.393 6.27693 2.93212 0
M  V30 7166 N 705.186 5.01657 2.53567 0
M  V30 7167 H 697.337 2.12344 -0.0488376 0
M  V30 7168 H 699.6 0.947124 0.0407559 0
M  V30 7169 H 699.306 3.43826 0.740048 0
M  V30 7170 H 699.18 2.90432 2.40685 0
M  V30 7171 H 701.567 1.92757 2.23448 0
M  V30 7172 H 701.648 2.49578 0.560739 0
M  V30 7173 H 701.292 4.88815 1.37921 0
M  V30 7174 H 701.222 4.28893 3.05546 0
M  V30 7175 H 703.713 3.2944 1.85143 0
M  V30 7176 H 704.026 7.02125 3.22863 0
M  V30 7177 H 702.371 6.31149 2.90991 0
M  V30 7178 H 705.562 4.12134 2.21952 0
M  V30 7179 H 705.735 5.82072 2.84774 0
M  V30 7180 N 699.141 -0.881989 1.30609 0
M  V30 7181 C 700.557 -1.16576 1.09005 0
M  V30 7182 C 700.757 -2.00961 -0.14727 0
M  V30 7183 O 699.813 -2.38117 -0.840036 0
M  V30 7184 C 701.126 -1.86954 2.35518 0
M  V30 7185 C 702.674 -1.99706 2.41011 0
M  V30 7186 C 703.149 -2.73497 3.67374 0
M  V30 7187 N 704.64 -2.8104 3.68199 0
M  V30 7188 C 705.375 -3.38718 4.62664 0
M  V30 7189 N 704.871 -3.97421 5.67475 0
M  V30 7190 N 706.664 -3.36561 4.50203 0
M  V30 7191 H 698.815 -0.319398 2.09985 0
M  V30 7192 H 701.078 -0.204058 0.925778 0
M  V30 7193 H 700.784 -1.32393 3.2583 0
M  V30 7194 H 700.658 -2.87317 2.44395 0
M  V30 7195 H 703.045 -2.53436 1.51176 0
M  V30 7196 H 703.126 -0.984218 2.36108 0
M  V30 7197 H 702.77 -2.20438 4.57569 0
M  V30 7198 H 702.7 -3.75163 3.6954 0
M  V30 7199 H 705.191 -2.39365 2.92426 0
M  V30 7200 H 705.504 -4.39507 6.35652 0
M  V30 7201 H 703.849 -3.95832 5.71264 0
M  V30 7202 H 707.04 -2.8993 3.67503 0
M  V30 7203 H 707.213 -3.81215 5.24003 0
M  V30 7204 N 700.619 -1.13374 -1.09472 0
M  V30 7205 C 701.529 -0.824029 -2.19652 0
M  V30 7206 C 702.545 0.19118 -1.72947 0
M  V30 7207 O 703.721 0.0223464 -2.01388 0
M  V30 7208 C 700.786 -0.294009 -3.45451 0
M  V30 7209 C 699.847 -1.3704 -4.0684 0
M  V30 7210 C 699.08 -0.86558 -5.26634 0
M  V30 7211 O 699.303 0.29702 -5.69626 0
M  V30 7212 O 698.237 -1.63968 -5.79136 0
M  V30 7213 H 702.063 -1.74454 -2.48595 0
M  V30 7214 H 699.648 -0.911155 -1.18399 0
M  V30 7215 H 701.53 -0.00381039 -4.214 0
M  V30 7216 H 700.205 0.598921 -3.18111 0
M  V30 7217 H 699.112 -1.71391 -3.3253 0
M  V30 7218 H 700.445 -2.23746 -4.38405 0
M  V30 7219 N 702.098 1.27442 -0.927168 0
M  V30 7220 C 703.061 2.2512 -0.430525 0
M  V30 7221 C 704.061 1.54357 0.450619 0
M  V30 7222 O 705.251 1.72371 0.251774 0
M  V30 7223 C 702.383 3.38763 0.381144 0
M  V30 7224 H 703.576 2.70569 -1.29354 0
M  V30 7225 H 701.129 1.39355 -0.707806 0
M  V30 7226 H 701.864 2.98695 1.263 0
M  V30 7227 H 701.649 3.91298 -0.250618 0
M  V30 7228 H 703.139 4.11364 0.719012 0
M  V30 7229 N 703.576 0.692616 1.41565 0
M  V30 7230 C 704.509 -0.025063 2.28186 0
M  V30 7231 C 705.487 -0.790912 1.42068 0
M  V30 7232 O 706.671 -0.782344 1.71498 0
M  V30 7233 C 703.798 -1.04285 3.22246 0
M  V30 7234 C 702.844 -0.370515 4.24888 0
M  V30 7235 S 703.677 0.884942 5.28137 0
M  V30 7236 C 704.833 -0.131324 6.25762 0
M  V30 7237 H 705.066 0.709626 2.88707 0
M  V30 7238 H 702.599 0.482783 1.46658 0
M  V30 7239 H 704.557 -1.62493 3.7697 0
M  V30 7240 H 703.218 -1.7501 2.60827 0
M  V30 7241 H 702.411 -1.13911 4.90959 0
M  V30 7242 H 702.013 0.138411 3.73744 0
M  V30 7243 H 704.305 -0.985527 6.70294 0
M  V30 7244 H 705.248 0.495384 7.06365 0
M  V30 7245 H 705.656 -0.484777 5.62415 0
M  V30 7246 N 705.054 -1.51416 0.437162 0
M  V30 7247 C 705.984 -2.30631 -0.364922 0
M  V30 7248 C 706.965 -1.36037 -1.02118 0
M  V30 7249 O 708.15 -1.64956 -1.02485 0
M  V30 7250 C 705.28 -3.1482 -1.46648 0
M  V30 7251 C 704.234 -4.17691 -0.933717 0
M  V30 7252 C 703.56 -4.904 -2.13101 0
M  V30 7253 C 704.86 -5.2229 0.0317201 0
M  V30 7254 H 706.554 -2.97932 0.29614 0
M  V30 7255 H 704.1 -1.4328 0.143865 0
M  V30 7256 H 706.053 -3.69017 -2.03481 0
M  V30 7257 H 704.777 -2.4534 -2.15583 0
M  V30 7258 H 703.436 -3.64545 -0.387602 0
M  V30 7259 H 703.084 -4.17423 -2.80654 0
M  V30 7260 H 702.784 -5.59962 -1.78092 0
M  V30 7261 H 704.308 -5.4742 -2.70487 0
M  V30 7262 H 705.722 -5.7156 -0.446302 0
M  V30 7263 H 704.119 -5.99378 0.29437 0
M  V30 7264 H 705.189 -4.75131 0.968447 0
M  V30 7265 N 706.532 -0.168513 -1.56696 0
M  V30 7266 C 707.78 0.476216 -1.96409 0
M  V30 7267 C 708.101 1.63968 -1.05544 0
M  V30 7268 O 707.371 1.95525 -0.121235 0
M  V30 7269 H 705.951 0.178921 -0.725256 0
M  V30 7270 H 708.613 -0.249042 -1.93302 0
M  V30 7271 H 707.709 0.838094 -3.00637 0
M  V30 7272 N 708.01 1.57248 0.105221 0
M  V30 7273 C 709.238 1.89768 0.82437 0
M  V30 7274 C 709.653 0.761192 1.72775 0
M  V30 7275 O 709.01 -0.267342 1.80531 0
M  V30 7276 C 709.061 3.2184 1.64625 0
M  V30 7277 O 708.782 4.31115 0.779217 0
M  V30 7278 C 710.283 3.68155 2.46935 0
M  V30 7279 H 707.503 0.628031 0.236259 0
M  V30 7280 H 710.047 2.04321 0.085485 0
M  V30 7281 H 708.202 3.08915 2.33775 0
M  V30 7282 H 708.616 5.06897 1.34745 0
M  V30 7283 H 710.09 4.6329 3.00111 0
M  V30 7284 H 710.567 2.95492 3.24932 0
M  V30 7285 H 711.173 3.83914 1.83002 0
M  V30 7286 N 709.488 -0.375779 1.53054 0
M  V30 7287 C 710.438 -1.45965 1.75152 0
M  V30 7288 C 711.422 -1.49059 0.605823 0
M  V30 7289 O 712.614 -1.54472 0.864133 0
M  V30 7290 C 709.743 -2.83524 1.93569 0
M  V30 7291 C 708.829 -2.84949 3.1411 0
M  V30 7292 N 709.22 -2.56029 4.36214 0
M  V30 7293 C 707.518 -3.16113 3.14625 0
M  V30 7294 C 708.219 -2.64873 5.17897 0
M  V30 7295 N 707.195 -2.99159 4.53878 0
M  V30 7296 H 710.997 -1.22454 2.67175 0
M  V30 7297 H 708.511 -0.583867 1.51541 0
M  V30 7298 H 710.508 -3.61578 2.07525 0
M  V30 7299 H 709.168 -3.08008 1.02768 0
M  V30 7300 H 710.179 -2.29808 4.64121 0
M  V30 7301 H 706.856 -3.45977 2.3368 0
M  V30 7302 H 708.246 -2.45947 6.25268 0
M  V30 7303 N 710.966 -1.44241 -0.634997 0
M  V30 7304 C 712.212 -1.47038 -1.39669 0
M  V30 7305 C 712.545 -0.101122 -1.93937 0
M  V30 7306 O 711.82 0.880699 -1.73418 0
M  V30 7307 C 712.103 -2.52763 -2.56482 0
M  V30 7308 C 711.956 -3.99032 -2.07589 0
M  V30 7309 C 713.275 -2.55031 -3.58674 0
M  V30 7310 H 710.394 -0.53537 -0.506506 0
M  V30 7311 H 713.036 -1.75898 -0.718317 0
M  V30 7312 H 711.186 -2.28284 -3.14354 0
M  V30 7313 H 712.858 -4.3463 -1.54577 0
M  V30 7314 H 711.101 -4.10994 -1.38804 0
M  V30 7315 H 711.772 -4.68649 -2.91671 0
M  V30 7316 H 714.248 -2.76893 -3.10595 0
M  V30 7317 H 713.124 -3.30916 -4.37934 0
M  V30 7318 H 713.385 -1.59085 -4.12486 0
M  V30 7319 N 712.444 0.87505 -1.31075 0
M  V30 7320 C 713.69 1.63009 -1.20647 0
M  V30 7321 C 714.023 1.9276 0.236045 0
M  V30 7322 O 713.298 1.55559 1.16754 0
M  V30 7323 C 713.581 2.96357 -2.0456 0
M  V30 7324 C 713.434 2.73516 -3.57084 0
M  V30 7325 C 714.753 3.974 -1.89107 0
M  V30 7326 H 711.872 0.591518 -0.439631 0
M  V30 7327 H 714.514 1.0119 -1.60812 0
M  V30 7328 H 712.664 3.49119 -1.70435 0
M  V30 7329 H 714.336 2.27465 -4.01319 0
M  V30 7330 H 712.579 2.0784 -3.80769 0
M  V30 7331 H 713.25 3.68377 -4.11099 0
M  V30 7332 H 715.726 3.5383 -2.18961 0
M  V30 7333 H 714.602 4.88596 -2.5013 0
M  V30 7334 H 714.863 4.33794 -0.85296 0
M  V30 7335 N 713.922 1.13953 1.08869 0
M  V30 7336 C 715.168 0.916103 1.81602 0
M  V30 7337 C 715.523 -0.551633 1.84322 0
M  V30 7338 O 714.816 -1.40322 1.30462 0
M  V30 7339 C 715.01 1.44495 3.26888 0
M  V30 7340 C 714.839 2.96257 3.38322 0
M  V30 7341 C 713.609 3.64658 3.49789 0
M  V30 7342 C 715.807 3.94156 3.30372 0
M  V30 7343 N 713.789 5.04379 3.49965 0
M  V30 7344 C 715.16 5.20101 3.37484 0
M  V30 7345 C 717.215 3.86342 3.14077 0
M  V30 7346 C 715.918 6.39145 3.29979 0
M  V30 7347 C 717.944 5.04927 3.07901 0
M  V30 7348 C 717.306 6.29738 3.1561 0
M  V30 7349 H 713.405 0.388701 0.678554 0
M  V30 7350 H 715.989 1.44879 1.3007 0
M  V30 7351 H 714.16 0.939102 3.76876 0
M  V30 7352 H 715.892 1.16193 3.87661 0
M  V30 7353 H 712.647 3.15196 3.5348 0
M  V30 7354 H 713.071 5.77305 3.53622 0
M  V30 7355 H 717.713 2.90726 3.06982 0
M  V30 7356 H 715.431 7.3501 3.35836 0
M  V30 7357 H 719.017 5.00626 2.9642 0
M  V30 7358 H 717.897 7.19958 3.10854 0
M  V30 7359 N 715.4 -1.26948 0.933913 0
M  V30 7360 C 716.677 -1.89212 0.495784 0
M  V30 7361 C 717.057 -1.84469 -1.02637 0
M  V30 7362 O 716.405 -1.29409 -1.88323 0
M  V30 7363 C 716.615 -3.32865 1.0489 0
M  V30 7364 C 717.963 -4.09749 1.11315 0
M  V30 7365 O 718.987 -3.41905 0.998966 0
M  V30 7366 O 717.846 -5.31061 1.28983 0
M  V30 7367 H 714.94 -0.811284 0.160459 0
M  V30 7368 H 717.486 -1.35171 1.02601 0
M  V30 7369 H 716.258 -3.30642 2.09265 0
M  V30 7370 H 715.881 -3.94435 0.500692 0
M  V30 7371 N 716.879 -0.700114 -1.41195 0
M  V30 7372 C 718.128 -0.230082 -2.00383 0
M  V30 7373 C 718.441 1.17857 -1.56106 0
M  V30 7374 O 719.647 1.74631 -2.07885 0
M  V30 7375 C 718.103 -0.360447 -3.5809 0
M  V30 7376 C 717.711 -1.77475 -4.11347 0
M  V30 7377 C 719.455 0.0495799 -4.24471 0
M  V30 7378 C 717.362 -1.85653 -5.61504 0
M  V30 7379 H 716.292 -0.0822633 -0.749499 0
M  V30 7380 H 718.943 -0.868969 -1.6162 0
M  V30 7381 H 717.325 0.346768 -3.94479 0
M  V30 7382 H 718.499 -2.51109 -3.86369 0
M  V30 7383 H 716.814 -2.13486 -3.57509 0
M  V30 7384 H 719.411 0.00898219 -5.34699 0
M  V30 7385 H 719.754 1.08904 -4.01803 0
M  V30 7386 H 720.287 -0.607521 -3.93134 0
M  V30 7387 H 717.026 -2.87667 -5.89006 0
M  V30 7388 H 716.546 -1.1641 -5.88395 0
M  V30 7389 H 718.225 -1.62151 -6.26351 0
M  V30 7390 N 718.357 1.51182 -0.445186 0
M  V30 7391 C 719.605 2.01753 0.11841 0
M  V30 7392 C 719.926 1.33087 1.42523 0
M  V30 7393 O 719.196 0.467891 1.9023 0
M  V30 7394 H 717.776 0.745536 0.0467492 0
M  V30 7395 H 720.438 1.85765 -0.589688 0
M  V30 7396 H 719.534 3.10762 0.288665 0
M  V30 7397 N 719.835 0.176821 1.56605 0
M  V30 7398 C 720.765 -0.746841 2.21234 0
M  V30 7399 C 721.746 -1.23502 1.16967 0
M  V30 7400 O 722.931 -1.28718 1.45414 0
M  V30 7401 C 720.061 -1.97407 2.8574 0
M  V30 7402 C 719.015 -1.62153 3.96094 0
M  V30 7403 C 718.341 -2.92387 4.47676 0
M  V30 7404 C 719.641 -0.845353 5.15413 0
M  V30 7405 H 721.335 -0.208116 2.98676 0
M  V30 7406 H 718.881 -0.0986594 1.43662 0
M  V30 7407 H 720.834 -2.62531 3.2963 0
M  V30 7408 H 719.558 -2.53703 2.05676 0
M  V30 7409 H 718.217 -0.993964 3.52868 0
M  V30 7410 H 717.865 -3.46734 3.64396 0
M  V30 7411 H 717.565 -2.69551 5.22127 0
M  V30 7412 H 719.089 -3.5853 4.94255 0
M  V30 7413 H 720.503 -1.39929 5.55961 0
M  V30 7414 H 718.9 -0.715814 5.95815 0
M  V30 7415 H 719.97 0.157239 4.84645 0
M  V30 7416 N 721.313 -1.57302 -0.09688 0
M  V30 7417 C 722.245 -1.98618 -1.14384 0
M  V30 7418 C 723.258 -0.888483 -1.36418 0
M  V30 7419 O 724.447 -1.16661 -1.35101 0
M  V30 7420 C 721.547 -2.28838 -2.49973 0
M  V30 7421 C 720.72 -3.60132 -2.48241 0
M  V30 7422 C 719.779 -3.7831 -3.65743 0
M  V30 7423 O 718.805 -4.50183 -3.48316 0
M  V30 7424 N 720.007 -3.18752 -4.85157 0
M  V30 7425 H 722.772 -2.8904 -0.792202 0
M  V30 7426 H 720.333 -1.59356 -0.285883 0
M  V30 7427 H 722.325 -2.38193 -3.27179 0
M  V30 7428 H 720.895 -1.44431 -2.77233 0
M  V30 7429 H 720.115 -3.61763 -1.56593 0
M  V30 7430 H 721.403 -4.46389 -2.4416 0
M  V30 7431 H 720.801 -2.60368 -5.0222 0
M  V30 7432 H 719.358 -3.33595 -5.59962 0
M  V30 7433 N 722.791 0.367657 -1.53252 0
M  V30 7434 C 724.016 1.13566 -1.73544 0
M  V30 7435 C 724.441 1.82329 -0.462344 0
M  V30 7436 O 723.799 1.71655 0.583472 0
M  V30 7437 C 723.847 2.14322 -2.89997 0
M  V30 7438 O 722.951 3.21359 -2.58461 0
M  V30 7439 H 722.292 0.329614 -0.576412 0
M  V30 7440 H 724.822 0.425417 -2.00128 0
M  V30 7441 H 724.832 2.57958 -3.16104 0
M  V30 7442 H 723.507 1.63664 -3.82344 0
M  V30 7443 H 722.084 2.8271 -2.43165 0
M  V30 7444 N 724.269 1.44576 0.627338 0
M  V30 7445 C 725.497 1.51048 1.41394 0
M  V30 7446 C 725.912 0.136568 1.88305 0
M  V30 7447 O 725.269 -0.858251 1.6106 0
M  V30 7448 C 725.32 2.47837 2.63172 0
M  V30 7449 O 725.041 3.79887 2.18215 0
M  V30 7450 C 726.542 2.63811 3.56257 0
M  V30 7451 H 723.762 0.512171 0.4335 0
M  V30 7452 H 726.306 1.89576 0.766878 0
M  V30 7453 H 724.461 2.12433 3.23961 0
M  V30 7454 H 724.875 4.32177 2.97192 0
M  V30 7455 H 726.349 3.35554 4.38301 0
M  V30 7456 H 726.826 1.69169 4.05313 0
M  V30 7457 H 727.432 3.0013 3.01333 0
M  V30 7458 N 725.747 -0.868086 1.31537 0
M  V30 7459 C 726.996 -1.61607 1.20689 0
M  V30 7460 C 727.309 -1.94204 -0.233275 0
M  V30 7461 O 728.515 -2.67515 -0.463465 0
M  V30 7462 C 726.971 -2.91348 2.11292 0
M  V30 7463 C 726.579 -2.66227 3.60315 0
M  V30 7464 C 728.323 -3.69344 2.09249 0
M  V30 7465 C 726.23 -3.91887 4.42921 0
M  V30 7466 H 725.16 -0.606373 0.448138 0
M  V30 7467 H 727.811 -0.959666 1.56405 0
M  V30 7468 H 726.193 -3.58374 1.68477 0
M  V30 7469 H 727.367 -2.07597 4.11388 0
M  V30 7470 H 725.682 -2.01582 3.64354 0
M  V30 7471 H 728.279 -4.62567 2.68209 0
M  V30 7472 H 728.622 -4.02044 1.0801 0
M  V30 7473 H 729.155 -3.09205 2.50274 0
M  V30 7474 H 725.894 -3.64336 5.44922 0
M  V30 7475 H 725.414 -4.49961 3.96605 0
M  V30 7476 H 727.093 -4.59754 4.55231 0
M  V30 7477 N 727.225 -1.14528 -1.08264 0
M  V30 7478 C 728.471 -0.91576 -1.80947 0
M  V30 7479 C 728.804 0.55623 -1.86064 0
M  V30 7480 O 728.079 1.41207 -1.33756 0
M  V30 7481 C 728.362 -1.51917 -3.26486 0
M  V30 7482 C 728.215 -3.06111 -3.2957 0
M  V30 7483 C 729.534 -1.19724 -4.23502 0
M  V30 7484 H 726.653 -0.334113 -0.656915 0
M  V30 7485 H 729.295 -1.41547 -1.26746 0
M  V30 7486 H 727.445 -1.0942 -3.72773 0
M  V30 7487 H 729.117 -3.57448 -2.91597 0
M  V30 7488 H 727.36 -3.40483 -2.688 0
M  V30 7489 H 728.031 -3.43438 -4.32151 0
M  V30 7490 H 730.507 -1.56467 -3.85561 0
M  V30 7491 H 729.383 -1.64575 -5.23647 0
M  V30 7492 H 729.644 -0.112771 -4.41956 0
M  V30 7493 N 728.703 1.26451 -0.940633 0
M  V30 7494 C 729.636 2.24771 -0.394094 0
M  V30 7495 C 730.614 1.54169 0.516781 0
M  V30 7496 O 731.798 1.82942 0.454352 0
M  V30 7497 C 728.925 3.3591 0.433807 0
M  V30 7498 C 727.971 4.24472 -0.415464 0
M  V30 7499 S 728.804 5.0293 -1.83907 0
M  V30 7500 C 729.96 6.17546 -1.01921 0
M  V30 7501 H 730.193 2.70782 -1.22737 0
M  V30 7502 H 727.726 1.35308 -0.743709 0
M  V30 7503 H 729.684 4.00387 0.905576 0
M  V30 7504 H 728.345 2.88512 1.24175 0
M  V30 7505 H 727.538 5.03525 0.218833 0
M  V30 7506 H 727.14 3.64857 -0.821897 0
M  V30 7507 H 729.432 6.76996 -0.261227 0
M  V30 7508 H 730.375 6.8528 -1.78318 0
M  V30 7509 H 730.783 5.6176 -0.555511 0
M  V30 7510 N 730.181 0.707592 1.40822 0
M  V30 7511 C 731.409 0.253073 2.05346 0
M  V30 7512 C 731.824 -1.10218 1.53289 0
M  V30 7513 O 731.181 -1.69112 0.686105 0
M  V30 7514 C 731.232 0.215411 3.60858 0
M  V30 7515 O 730.953 1.51714 4.10992 0
M  V30 7516 C 732.454 -0.258636 4.42545 0
M  V30 7517 H 729.674 0.115256 0.661027 0
M  V30 7518 H 732.218 0.963555 1.80377 0
M  V30 7519 H 730.373 -0.445978 3.84824 0
M  V30 7520 H 730.787 1.41226 5.05129 0
M  V30 7521 H 732.261 -0.233849 5.51504 0
M  V30 7522 H 732.738 -1.2995 4.19535 0
M  V30 7523 H 733.344 0.372186 4.23668 0
M  V30 7524 N 731.66 -1.50943 0.453197 0
M  V30 7525 C 732.909 -2.01402 -0.10951 0
M  V30 7526 C 733.222 -1.3411 -1.42386 0
M  V30 7527 O 734.428 -1.75626 -2.07045 0
M  V30 7528 C 732.884 -3.5906 -0.245693 0
M  V30 7529 C 732.492 -4.353 1.05916 0
M  V30 7530 C 734.236 -4.17617 -0.761318 0
M  V30 7531 C 732.143 -5.84699 0.887752 0
M  V30 7532 H 731.073 -0.752674 -0.0447013 0
M  V30 7533 H 733.724 -1.73913 0.585375 0
M  V30 7534 H 732.106 -3.83062 -1.00395 0
M  V30 7535 H 733.28 -4.23034 1.82698 0
M  V30 7536 H 731.595 -3.88269 1.50452 0
M  V30 7537 H 734.192 -5.26963 -0.906306 0
M  V30 7538 H 734.535 -3.77824 -1.74799 0
M  V30 7539 H 735.068 -3.97753 -0.0609416 0
M  V30 7540 H 731.807 -6.28933 1.84726 0
M  V30 7541 H 731.327 -5.99587 0.160006 0
M  V30 7542 H 733.006 -6.44682 0.547223 0
M  V30 7543 N 733.138 -0.185124 -1.56509 0
M  V30 7544 C 734.549 0.329221 -1.83774 0
M  V30 7545 C 734.9 1.62093 -1.10545 0
M  V30 7546 O 734.025 2.13334 -0.36298 0
M  V30 7547 C 734.62 0.604099 -3.33371 0
M  V30 7548 C 733.179 1.06284 -3.61083 0
M  V30 7549 C 732.326 0.10608 -2.77097 0
M  V30 7550 H 735.277 -0.409116 -1.53336 0
M  V30 7551 H 735.298 1.45458 -3.51599 0
M  V30 7552 H 734.81 -0.336201 -3.86641 0
M  V30 7553 H 732.911 2.01777 -3.13236 0
M  V30 7554 H 733.024 0.962453 -4.69333 0
M  V30 7555 H 731.388 0.606082 -2.47384 0
M  V30 7556 H 732.171 -0.828486 -3.33153 0
M  V30 7557 N 734.616 1.57351 0.0885366 0
M  V30 7558 C 735.862 1.87564 0.786842 0
M  V30 7559 C 736.217 0.776774 1.76023 0
M  V30 7560 O 735.51 -0.220637 1.90325 0
M  V30 7561 C 735.704 3.22098 1.5488 0
M  V30 7562 C 735.533 4.44967 0.650706 0
M  V30 7563 C 734.303 5.04444 0.293957 0
M  V30 7564 C 736.501 5.1428 -0.0452187 0
M  V30 7565 N 734.483 6.10846 -0.611609 0
M  V30 7566 C 735.854 6.14704 -0.808603 0
M  V30 7567 C 737.909 4.97759 -0.118451 0
M  V30 7568 C 736.612 7.00392 -1.63839 0
M  V30 7569 C 738.638 5.8396 -0.935157 0
M  V30 7570 C 738 6.83909 -1.68664 0
M  V30 7571 H 734.099 0.73613 0.263887 0
M  V30 7572 H 736.683 1.94638 0.049074 0
M  V30 7573 H 734.854 3.16064 2.2574 0
M  V30 7574 H 736.586 3.40015 2.19481 0
M  V30 7575 H 733.341 4.69214 0.643086 0
M  V30 7576 H 733.765 6.68695 -1.05714 0
M  V30 7577 H 738.407 4.20418 0.448202 0
M  V30 7578 H 736.125 7.7712 -2.21608 0
M  V30 7579 H 739.711 5.73236 -0.994579 0
M  V30 7580 H 738.591 7.49454 -2.30842 0
M  V30 7581 N 736.094 -0.359525 1.53444 0
M  V30 7582 C 737.322 -1.12198 1.73837 0
M  V30 7583 C 737.737 -1.82854 0.470107 0
M  V30 7584 O 737.094 -1.73781 -0.557349 0
M  V30 7585 C 737.145 -2.14769 2.90786 0
M  V30 7586 O 736.866 -1.46989 4.12706 0
M  V30 7587 C 738.367 -3.03514 3.231 0
M  V30 7588 H 735.587 -0.33524 0.581253 0
M  V30 7589 H 738.131 -0.416598 2.00212 0
M  V30 7590 H 736.286 -2.80896 2.66788 0
M  V30 7591 H 736.7 -2.15378 4.78239 0
M  V30 7592 H 738.174 -3.71453 4.08322 0
M  V30 7593 H 738.651 -3.68658 2.38721 0
M  V30 7594 H 739.257 -2.42996 3.49046 0
M  V30 7595 N 737.572 -1.44907 -0.619662 0
M  V30 7596 C 738.797 -1.52021 -1.41083 0
M  V30 7597 C 739.222 -0.14976 -1.87503 0
M  V30 7598 O 738.58 0.863303 -1.59426 0
M  V30 7599 C 738.628 -2.49911 -2.59955 0
M  V30 7600 O 737.732 -2.00857 -3.60181 0
M  V30 7601 H 737.073 -0.512912 -0.421684 0
M  V30 7602 H 739.603 -1.90149 -0.755282 0
M  V30 7603 H 739.613 -2.68323 -3.07354 0
M  V30 7604 H 738.288 -3.4945 -2.25516 0
M  V30 7605 H 736.865 -1.92265 -3.19513 0
M  V30 7606 N 739.05 0.861098 -1.31996 0
M  V30 7607 C 740.298 1.61162 -1.21947 0
M  V30 7608 C 740.619 1.93751 0.220351 0
M  V30 7609 O 739.889 1.59069 1.14341 0
M  V30 7610 H 738.469 0.597485 -0.448353 0
M  V30 7611 H 741.131 1.03039 -1.65436 0
M  V30 7612 H 740.227 2.55138 -1.79752 0
M  V30 7613 N 740.528 1.15101 1.07655 0
M  V30 7614 C 741.774 0.925343 1.80458 0
M  V30 7615 C 742.107 -0.546354 1.86356 0
M  V30 7616 O 741.382 -1.40496 1.34503 0
M  V30 7617 C 741.665 1.53646 3.25676 0
M  V30 7618 C 741.518 3.07854 3.27942 0
M  V30 7619 C 742.837 1.21968 4.22861 0
M  V30 7620 H 739.956 0.337592 0.655134 0
M  V30 7621 H 742.598 1.42217 1.25993 0
M  V30 7622 H 740.748 1.11395 3.72187 0
M  V30 7623 H 742.42 3.58989 2.89697 0
M  V30 7624 H 740.663 3.41904 2.66991 0
M  V30 7625 H 741.334 3.45725 4.30324 0
M  V30 7626 H 743.81 1.5851 3.84726 0
M  V30 7627 H 742.686 1.67349 5.22767 0
M  V30 7628 H 742.947 0.136207 4.4189 0
M  V30 7629 N 742.006 -1.2595 0.947325 0
M  V30 7630 C 742.938 -2.25336 0.41906 0
M  V30 7631 C 743.951 -1.56135 -0.461051 0
M  V30 7632 O 745.14 -1.76438 -0.270505 0
M  V30 7633 C 742.24 -3.36334 -0.416233 0
M  V30 7634 C 741.413 -4.35088 0.449162 0
M  V30 7635 C 740.472 -5.25185 -0.326716 0
M  V30 7636 O 739.498 -5.68548 0.272374 0
M  V30 7637 N 740.7 -5.57388 -1.6217 0
M  V30 7638 H 743.465 -2.71298 1.27348 0
M  V30 7639 H 741.026 -1.39781 0.81688 0
M  V30 7640 H 743.018 -3.93564 -0.942826 0
M  V30 7641 H 741.588 -2.89819 -1.17148 0
M  V30 7642 H 740.808 -3.76841 1.15692 0
M  V30 7643 H 742.096 -4.98056 1.04008 0
M  V30 7644 H 741.494 -5.2405 -2.13046 0
M  V30 7645 H 740.051 -6.17234 -2.0944 0
M  V30 7646 N 743.484 -0.715051 -1.40445 0
M  V30 7647 C 744.731 -0.254328 -2.00897 0
M  V30 7648 C 745.059 1.15228 -1.56693 0
M  V30 7649 O 744.314 1.7958 -0.777786 0
M  V30 7650 C 744.613 -0.281791 -3.56287 0
M  V30 7651 C 744.279 -1.63862 -4.20071 0
M  V30 7652 C 742.941 -2.01003 -4.37208 0
M  V30 7653 C 745.293 -2.53039 -4.55654 0
M  V30 7654 C 742.621 -3.26869 -4.8721 0
M  V30 7655 C 744.973 -3.78256 -5.07055 0
M  V30 7656 C 743.637 -4.15515 -5.22401 0
M  V30 7657 H 742.907 -0.0930652 -0.735133 0
M  V30 7658 H 745.554 -0.917977 -1.68064 0
M  V30 7659 H 743.859 0.465428 -3.89026 0
M  V30 7660 H 745.556 0.0925158 -4.00893 0
M  V30 7661 H 742.146 -1.33979 -4.07121 0
M  V30 7662 H 746.33 -2.2562 -4.42051 0
M  V30 7663 H 741.586 -3.55706 -4.97276 0
M  V30 7664 H 745.76 -4.47528 -5.33565 0
M  V30 7665 H 743.387 -5.13114 -5.60909 0
M  V30 7666 N 744.962 1.50701 -0.461195 0
M  V30 7667 C 746.378 1.59187 -0.114786 0
M  V30 7668 C 746.578 1.4702 1.37794 0
M  V30 7669 O 745.634 1.32361 2.15027 0
M  V30 7670 C 746.947 2.93453 -0.656167 0
M  V30 7671 C 748.495 3.06824 -0.618715 0
M  V30 7672 C 748.97 4.4365 -1.13747 0
M  V30 7673 N 750.461 4.50035 -1.09646 0
M  V30 7674 C 751.196 5.54278 -1.46846 0
M  V30 7675 N 750.692 6.65822 -1.91448 0
M  V30 7676 N 752.485 5.44767 -1.38512 0
M  V30 7677 H 744.636 1.56853 -1.43216 0
M  V30 7678 H 746.899 0.740712 -0.59165 0
M  V30 7679 H 746.605 3.07802 -1.7015 0
M  V30 7680 H 746.479 3.77082 -0.0942261 0
M  V30 7681 H 748.866 2.92129 0.417685 0
M  V30 7682 H 748.947 2.24976 -1.21734 0
M  V30 7683 H 748.591 4.59093 -2.17245 0
M  V30 7684 H 748.521 5.24074 -0.515153 0
M  V30 7685 H 751.012 3.69988 -0.769217 0
M  V30 7686 H 751.325 7.41413 -2.18007 0
M  V30 7687 H 749.67 6.66968 -1.95393 0
M  V30 7688 H 752.861 4.56511 -1.03516 0
M  V30 7689 H 753.034 6.25889 -1.6783 0
M  V30 7690 N 746.441 0.193421 1.56409 0
M  V30 7691 C 747.671 -0.450783 2.01622 0
M  V30 7692 C 748.079 -1.5585 1.07273 0
M  V30 7693 O 747.422 -1.83569 0.0694875 0
M  V30 7694 C 747.484 -1.06913 3.43235 0
M  V30 7695 C 747.148 -0.100352 4.5689 0
M  V30 7696 C 748.145 0.689633 5.15306 0
M  V30 7697 C 745.83 0.0102436 5.02299 0
M  V30 7698 C 747.824 1.5772 6.17579 0
M  V30 7699 C 745.511 0.901368 6.04416 0
M  V30 7700 C 746.509 1.68341 6.61929 0
M  V30 7701 O 746.197 2.5596 7.62063 0
M  V30 7702 H 745.929 -0.117671 0.66568 0
M  V30 7703 H 748.483 0.2989 2.03214 0
M  V30 7704 H 746.713 -1.86736 3.38624 0
M  V30 7705 H 748.402 -1.61781 3.72266 0
M  V30 7706 H 749.168 0.614485 4.81092 0
M  V30 7707 H 745.047 -0.58829 4.57231 0
M  V30 7708 H 748.591 2.18805 6.62397 0
M  V30 7709 H 744.488 0.977637 6.38054 0
M  V30 7710 H 745.256 2.49721 7.79475 0
M  V30 7711 N 747.919 -1.57396 -0.0801906 0
M  V30 7712 C 749.147 -1.91055 -0.794075 0
M  V30 7713 C 749.562 -0.788583 -1.71542 0
M  V30 7714 O 748.919 0.238587 -1.80934 0
M  V30 7715 C 748.97 -3.24418 -1.59484 0
M  V30 7716 O 748.691 -4.323 -0.710532 0
M  V30 7717 C 750.192 -3.72037 -2.41046 0
M  V30 7718 H 747.412 -0.63171 -0.226238 0
M  V30 7719 H 749.956 -2.04431 -0.0529685 0
M  V30 7720 H 748.111 -3.12595 -2.2883 0
M  V30 7721 H 748.525 -5.08976 -1.26663 0
M  V30 7722 H 749.999 -4.68006 -2.92702 0
M  V30 7723 H 750.476 -3.00624 -3.2019 0
M  V30 7724 H 751.082 -3.86777 -1.76871 0
M  V30 7725 N 749.397 0.351382 -1.53633 0
M  V30 7726 C 750.674 1.10903 -1.6112 0
M  V30 7727 C 751.054 2.06725 -0.427556 0
M  V30 7728 O 750.402 2.20992 0.580916 0
M  V30 7729 C 750.612 1.83561 -2.96827 0
M  V30 7730 C 751.96 2.37587 -3.51906 0
M  V30 7731 O 752.984 1.93669 -2.9895 0
M  V30 7732 O 751.843 3.17913 -4.44515 0
M  V30 7733 H 748.937 0.509558 -0.651368 0
M  V30 7734 H 751.483 0.353504 -1.65977 0
M  V30 7735 H 750.255 1.1371 -3.74414 0
M  V30 7736 H 749.878 2.6599 -2.95525 0
M  V30 7737 N 750.875 1.45233 0.611969 0
M  V30 7738 C 752.286 1.4354 1.19387 0
M  V30 7739 C 752.637 0.160713 1.95541 0
M  V30 7740 O 751.762 -0.737954 2.03429 0
M  V30 7741 C 752.357 2.60045 2.17169 0
M  V30 7742 C 750.916 2.61486 2.70744 0
M  V30 7743 C 750.063 2.35708 1.46072 0
M  V30 7744 H 753.014 1.53536 0.401529 0
M  V30 7745 H 753.035 2.33893 3.00124 0
M  V30 7746 H 752.547 3.52803 1.61714 0
M  V30 7747 H 750.648 1.72721 3.30149 0
M  V30 7748 H 750.761 3.60572 3.15476 0
M  V30 7749 H 749.125 1.85178 1.74875 0
M  V30 7750 H 749.908 3.30606 0.924922 0
M  V30 7751 N 752.353 -0.854086 1.3245 0
M  V30 7752 C 753.63 -1.59188 1.1366 0
M  V30 7753 C 754.01 -2.08917 -0.302807 0
M  V30 7754 O 753.358 -1.8795 -1.29951 0
M  V30 7755 C 753.568 -2.73757 2.16467 0
M  V30 7756 C 754.916 -3.43323 2.49829 0
M  V30 7757 O 755.94 -2.83983 2.15017 0
M  V30 7758 O 754.799 -4.50409 3.09506 0
M  V30 7759 H 751.893 -0.701092 0.438633 0
M  V30 7760 H 754.439 -0.898165 1.43983 0
M  V30 7761 H 753.211 -2.3454 3.1322 0
M  V30 7762 H 752.834 -3.50804 1.87142 0
M  V30 7763 N 753.831 -1.1567 -1.07043 0
M  V30 7764 C 755.059 -0.957471 -1.83412 0
M  V30 7765 C 755.474 0.494271 -1.82215 0
M  V30 7766 O 754.831 1.34288 -1.23584 0
M  V30 7767 C 754.882 -1.46784 -3.30359 0
M  V30 7768 O 754.603 -2.86271 -3.31633 0
M  V30 7769 C 756.104 -1.31054 -4.23485 0
M  V30 7770 H 753.324 -0.33986 -0.578564 0
M  V30 7771 H 755.868 -1.53518 -1.35102 0
M  V30 7772 H 754.023 -0.932586 -3.76007 0
M  V30 7773 H 754.437 -3.0948 -4.23465 0
M  V30 7774 H 755.911 -1.71605 -5.24648 0
M  V30 7775 H 756.388 -0.255107 -4.38458 0
M  V30 7776 H 756.994 -1.83503 -3.83676 0
M  V30 7777 N 755.309 1.25446 -0.953992 0
M  V30 7778 C 756.539 1.96929 -0.624688 0
M  V30 7779 C 756.947 1.71112 0.807292 0
M  V30 7780 O 756.29 0.983512 1.55154 0
M  V30 7781 C 756.352 3.50425 -0.802676 0
M  V30 7782 C 756.016 3.99916 -2.21169 0
M  V30 7783 C 757.013 4.10662 -3.18831 0
M  V30 7784 C 754.698 4.33598 -2.53571 0
M  V30 7785 C 756.692 4.54401 -4.46988 0
M  V30 7786 C 754.379 4.77024 -3.81958 0
M  V30 7787 C 755.377 4.87388 -4.78478 0
M  V30 7788 O 755.065 5.29851 -6.04577 0
M  V30 7789 H 754.797 0.634511 -0.233179 0
M  V30 7790 H 757.351 1.60591 -1.28061 0
M  V30 7791 H 755.581 3.86596 -0.0896044 0
M  V30 7792 H 757.27 4.03117 -0.47452 0
M  V30 7793 H 758.036 3.84872 -2.95124 0
M  V30 7794 H 753.915 4.24757 -1.79171 0
M  V30 7795 H 757.459 4.62406 -5.22328 0
M  V30 7796 H 753.356 5.02258 -4.05471 0
M  V30 7797 H 754.124 5.48039 -6.07944 0
M  V30 7798 N 756.787 0.722489 1.40064 0
M  V30 7799 C 758.015 0.274838 2.05066 0
M  V30 7800 C 758.43 -1.08586 1.54449 0
M  V30 7801 O 757.787 -1.68375 0.704003 0
M  V30 7802 C 757.838 0.253673 3.60609 0
M  V30 7803 O 757.559 1.56064 4.0936 0
M  V30 7804 C 759.06 -0.211684 4.42794 0
M  V30 7805 H 756.28 0.12226 0.659768 0
M  V30 7806 H 758.824 0.982632 1.79345 0
M  V30 7807 H 756.979 -0.405137 3.85276 0
M  V30 7808 H 757.393 1.46576 5.03603 0
M  V30 7809 H 758.867 -0.175341 5.51721 0
M  V30 7810 H 759.344 -1.25493 4.2089 0
M  V30 7811 H 759.95 0.4171 4.2325 0
M  V30 7812 N 758.265 -1.50454 0.469181 0
M  V30 7813 C 759.49 -2.0722 -0.0864892 0
M  V30 7814 C 759.915 -1.33098 -1.32916 0
M  V30 7815 O 759.273 -0.378084 -1.77314 0
M  V30 7816 C 759.321 -3.58845 -0.355384 0
M  V30 7817 O 758.425 -3.86583 -1.43622 0
M  V30 7818 H 757.766 -0.663889 0.0121414 0
M  V30 7819 H 760.296 -1.93674 0.659674 0
M  V30 7820 H 760.306 -4.03617 -0.596447 0
M  V30 7821 H 758.981 -4.12211 0.552698 0
M  V30 7822 H 757.558 -3.5365 -1.18262 0
M  V30 7823 N 759.743 -0.201713 -1.56304 0
M  V30 7824 C 760.706 0.702811 -2.18159 0
M  V30 7825 C 761.706 1.13619 -1.13787 0
M  V30 7826 O 762.896 1.0482 -1.39134 0
M  V30 7827 C 760.028 1.96032 -2.78898 0
M  V30 7828 H 761.221 0.163836 -2.99452 0
M  V30 7829 H 758.774 0.04791 -1.56227 0
M  V30 7830 H 759.509 2.54165 -2.01421 0
M  V30 7831 H 759.294 1.65824 -3.55309 0
M  V30 7832 H 760.784 2.60519 -3.26373 0
M  V30 7833 N 761.222 1.57436 0.0718424 0
M  V30 7834 C 762.47 1.86878 0.769484 0
M  V30 7835 C 762.791 0.7937 1.78116 0
M  V30 7836 O 762.061 -0.177642 1.95093 0
M  V30 7837 H 760.641 0.689593 0.287177 0
M  V30 7838 H 763.303 1.94841 0.0479427 0
M  V30 7839 H 762.399 2.84387 1.28572 0
M  V30 7840 N 762.7 -0.34323 1.53817 0
M  V30 7841 C 763.947 -1.08344 1.71079 0
M  V30 7842 C 764.275 -1.88633 0.474133 0
M  V30 7843 O 763.53 -1.87984 -0.544116 0
M  V30 7844 C 763.829 -2.05195 2.92626 0
M  V30 7845 C 763.495 -1.41215 4.28216 0
M  V30 7846 C 762.157 -1.23495 4.65083 0
M  V30 7847 C 764.509 -0.951273 5.12445 0
M  V30 7848 C 761.837 -0.583065 5.83796 0
M  V30 7849 C 764.189 -0.313292 6.31824 0
M  V30 7850 C 762.853 -0.123779 6.67385 0
M  V30 7851 H 762.123 -0.396458 0.626021 0
M  V30 7852 H 764.77 -0.362689 1.88034 0
M  V30 7853 H 763.075 -2.83653 2.70275 0
M  V30 7854 H 764.772 -2.62462 3.03175 0
M  V30 7855 H 761.362 -1.56005 3.992 0
M  V30 7856 H 765.546 -1.07602 4.84495 0
M  V30 7857 H 760.802 -0.424854 6.09922 0
M  V30 7858 H 764.976 0.0519179 6.96381 0
M  V30 7859 H 762.603 0.383398 7.59233 0
M  V30 7860 N 764.178 -1.45556 -0.604258 0
M  V30 7861 C 765.108 -1.57327 -1.72541 0
M  V30 7862 C 766.089 -0.424637 -1.64714 0
M  V30 7863 O 767.274 -0.648196 -1.83063 0
M  V30 7864 C 764.404 -1.54279 -3.11152 0
M  V30 7865 C 763.358 -2.67893 -3.33792 0
M  V30 7866 C 762.684 -2.499 -4.72709 0
M  V30 7867 C 763.984 -4.0988 -3.23722 0
M  V30 7868 H 765.678 -2.51175 -1.62947 0
M  V30 7869 H 763.224 -1.20884 -0.782504 0
M  V30 7870 H 765.177 -1.6111 -3.89386 0
M  V30 7871 H 763.901 -0.569627 -3.21594 0
M  V30 7872 H 762.56 -2.60495 -2.57949 0
M  V30 7873 H 762.208 -1.50715 -4.79889 0
M  V30 7874 H 761.908 -3.26091 -4.88813 0
M  V30 7875 H 763.432 -2.5859 -5.5314 0
M  V30 7876 H 764.846 -4.18503 -3.91826 0
M  V30 7877 H 763.243 -4.86487 -3.51355 0
M  V30 7878 H 764.313 -4.31553 -2.21111 0
M  V30 7879 N 765.656 0.84705 -1.32902 0
M  V30 7880 C 766.881 1.63925 -1.27056 0
M  V30 7881 C 767.306 1.87443 0.157136 0
M  V30 7882 O 766.664 1.43266 1.11106 0
M  V30 7883 C 766.712 2.97134 -2.04313 0
M  V30 7884 O 765.816 3.88049 -1.39614 0
M  V30 7885 H 765.157 0.499477 -0.437514 0
M  V30 7886 H 767.687 1.05443 -1.75336 0
M  V30 7887 H 767.697 3.46896 -2.14772 0
M  V30 7888 H 766.372 2.79339 -3.08128 0
M  V30 7889 H 764.949 3.46525 -1.3775 0
M  V30 7890 N 767.134 1.16236 1.06428 0
M  V30 7891 C 768.374 0.95369 1.80787 0
M  V30 7892 C 768.738 -0.509495 1.85117 0
M  V30 7893 O 769.939 -0.836822 2.55442 0
M  V30 7894 C 768.21 1.56235 3.21443 0
M  V30 7895 S 769.769 1.49812 4.12434 0
M  V30 7896 H 766.587 0.343004 0.622792 0
M  V30 7897 H 769.189 1.47957 1.27785 0
M  V30 7898 H 767.893 2.62 3.15886 0
M  V30 7899 H 767.424 1.03574 3.79521 0
M  V30 7900 H 769.439 0.49745 4.937 0
M  V30 7901 N 768.612 -1.24939 0.960631 0
M  V30 7902 C 769.858 -1.93425 0.629155 0
M  V30 7903 C 770.213 -1.73784 -0.825635 0
M  V30 7904 O 769.506 -1.07595 -1.58536 0
M  V30 7905 C 769.7 -3.45066 0.930809 0
M  V30 7906 C 769.529 -3.79455 2.41337 0
M  V30 7907 C 768.299 -4.01195 3.07197 0
M  V30 7908 C 770.497 -3.86492 3.39306 0
M  V30 7909 N 768.479 -4.22626 4.45265 0
M  V30 7910 C 769.85 -4.12682 4.62702 0
M  V30 7911 C 771.905 -3.69198 3.34061 0
M  V30 7912 C 770.608 -4.23376 5.81502 0
M  V30 7913 C 772.634 -3.81135 4.52206 0
M  V30 7914 C 771.996 -4.07743 5.74391 0
M  V30 7915 H 768.095 -0.729791 0.280943 0
M  V30 7916 H 770.679 -1.50597 1.23404 0
M  V30 7917 H 768.85 -3.86776 0.354801 0
M  V30 7918 H 770.582 -4.00826 0.558627 0
M  V30 7919 H 767.337 -3.97319 2.5775 0
M  V30 7920 H 767.761 -4.37335 5.16785 0
M  V30 7921 H 772.403 -3.47639 2.40638 0
M  V30 7922 H 770.121 -4.4375 6.75361 0
M  V30 7923 H 773.707 -3.69133 4.49702 0
M  V30 7924 H 772.587 -4.16768 6.64284 0
M  V30 7925 N 770.09 -0.729906 -1.39679 0
M  V30 7926 C 771.32 -0.285295 -2.04621 0
M  V30 7927 C 771.728 1.08304 -1.55135 0
M  V30 7928 O 771.071 1.6946 -0.709146 0
M  V30 7929 C 771.133 -0.203129 -3.58926 0
M  V30 7930 C 770.797 -1.50909 -4.31365 0
M  V30 7931 C 771.794 -2.45381 -4.58349 0
M  V30 7932 C 769.479 -1.77198 -4.70007 0
M  V30 7933 C 771.473 -3.64379 -5.22979 0
M  V30 7934 C 769.16 -2.96474 -5.34365 0
M  V30 7935 C 770.158 -3.89886 -5.60783 0
M  V30 7936 O 769.846 -5.07069 -6.23808 0
M  V30 7937 H 769.578 -0.123373 -0.664647 0
M  V30 7938 H 772.132 -0.992901 -1.79807 0
M  V30 7939 H 770.362 0.560538 -3.82616 0
M  V30 7940 H 772.051 0.208811 -4.05363 0
M  V30 7941 H 772.817 -2.2634 -4.28947 0
M  V30 7942 H 768.696 -1.05337 -4.48804 0
M  V30 7943 H 772.24 -4.37307 -5.43515 0
M  V30 7944 H 768.137 -3.15419 -5.63188 0
M  V30 7945 H 768.905 -5.07335 -6.42303 0
M  V30 7946 N 771.568 1.50203 -0.477153 0
M  V30 7947 C 772.5 2.26508 0.350239 0
M  V30 7948 C 773.513 1.32081 0.95176 0
M  V30 7949 O 774.702 1.57546 0.839139 0
M  V30 7950 C 771.802 3.0361 1.50579 0
M  V30 7951 C 770.975 4.25438 1.01595 0
M  V30 7952 C 770.034 4.84783 2.04626 0
M  V30 7953 O 769.06 5.45528 1.62442 0
M  V30 7954 N 770.262 4.72318 3.37485 0
M  V30 7955 H 773.027 2.98155 -0.30394 0
M  V30 7956 H 770.588 1.58938 -0.308289 0
M  V30 7957 H 772.58 3.4019 2.1921 0
M  V30 7958 H 771.15 2.34724 2.06455 0
M  V30 7959 H 770.37 3.93894 0.155316 0
M  V30 7960 H 771.658 5.04413 0.666694 0
M  V30 7961 H 771.056 4.24022 3.74462 0
M  V30 7962 H 769.613 5.13149 4.01897 0
M  V30 7963 N 773.046 0.209999 1.56195 0
M  V30 7964 C 774.274 -0.429996 2.02382 0
M  V30 7965 C 774.689 -1.54159 1.08998 0
M  V30 7966 O 774.046 -1.82239 0.0974856 0
M  V30 7967 C 774.097 -0.972433 3.48175 0
M  V30 7968 O 773.818 0.0948231 4.37997 0
M  V30 7969 C 775.319 -1.68683 4.09952 0
M  V30 7970 H 772.539 -0.106475 0.662498 0
M  V30 7971 H 775.083 0.323072 2.01932 0
M  V30 7972 H 773.238 -1.67582 3.49278 0
M  V30 7973 H 773.652 -0.31113 5.23576 0
M  V30 7974 H 775.126 -2.01851 5.13771 0
M  V30 7975 H 775.603 -2.59587 3.54276 0
M  V30 7976 H 776.209 -1.02893 4.12666 0
M  V30 7977 N 774.524 -1.57472 -0.0634922 0
M  V30 7978 C 775.749 -1.92273 -0.77756 0
M  V30 7979 C 776.174 -0.807141 -1.69902 0
M  V30 7980 O 775.532 0.239523 -1.79711 0
M  V30 7981 C 775.58 -3.26054 -1.54017 0
M  V30 7982 O 774.684 -3.15873 -2.65138 0
M  V30 7983 H 774.025 -0.629389 -0.211579 0
M  V30 7984 H 776.555 -2.04579 -0.0292523 0
M  V30 7985 H 776.565 -3.60127 -1.91763 0
M  V30 7986 H 775.24 -4.06824 -0.864128 0
M  V30 7987 H 773.817 -2.93373 -2.30189 0
M  V30 7988 N 776.003 0.335068 -1.53997 0
M  V30 7989 C 776.933 1.41727 -1.85568 0
M  V30 7990 C 777.914 1.54505 -0.7115 0
M  V30 7991 O 779.099 1.68573 -0.964191 0
M  V30 7992 C 776.229 2.7866 -2.07282 0
M  V30 7993 C 775.183 2.80682 -3.23112 0
M  V30 7994 C 774.509 4.20581 -3.30175 0
M  V30 7995 C 775.809 2.45458 -4.61029 0
M  V30 7996 H 777.503 1.15555 -2.76202 0
M  V30 7997 H 775.049 0.554445 -1.32898 0
M  V30 7998 H 777.002 3.54423 -2.27952 0
M  V30 7999 H 775.726 3.06286 -1.13387 0
M  V30 8000 H 774.385 2.07373 -3.02311 0
M  V30 8001 H 774.033 4.4533 -2.33859 0
M  V30 8002 H 773.733 4.22843 -4.08016 0
M  V30 8003 H 775.257 4.98174 -3.53066 0
M  V30 8004 H 776.671 3.10934 -4.81656 0
M  V30 8005 H 775.068 2.5899 -5.41336 0
M  V30 8006 H 776.138 1.40628 -4.6406 0
M  V30 8007 N 777.481 1.45874 0.596531 0
M  V30 8008 C 778.73 1.49737 1.35135 0
M  V30 8009 C 779.043 0.147755 1.95041 0
M  V30 8010 O 780.249 0.0640984 2.71424 0
M  V30 8011 C 778.705 2.6378 2.44843 0
M  V30 8012 C 778.313 4.05102 1.91301 0
M  V30 8013 C 780.057 2.769 3.21755 0
M  V30 8014 C 777.964 5.10508 2.98557 0
M  V30 8015 H 776.894 0.557219 0.507959 0
M  V30 8016 H 779.545 1.72046 0.638147 0
M  V30 8017 H 777.927 2.34774 3.189 0
M  V30 8018 H 779.101 4.43836 1.2388 0
M  V30 8019 H 777.416 3.96528 1.271 0
M  V30 8020 H 780.013 3.52819 4.01775 0
M  V30 8021 H 780.356 1.83924 3.73467 0
M  V30 8022 H 780.889 3.05485 2.54802 0
M  V30 8023 H 777.628 6.0523 2.51749 0
M  V30 8024 H 777.148 4.76332 3.6451 0
M  V30 8025 H 778.827 5.35745 3.62748 0
M  V30 8026 N 778.959 -0.83999 1.33349 0
M  V30 8027 C 779.889 -1.965 1.26135 0
M  V30 8028 C 780.87 -1.69505 0.142152 0
M  V30 8029 O 782.055 -1.91346 0.331743 0
M  V30 8030 C 779.185 -3.32632 0.99866 0
M  V30 8031 C 778.139 -3.74021 2.08068 0
M  V30 8032 C 777.465 -5.07947 1.67014 0
M  V30 8033 C 778.765 -3.87925 3.49731 0
M  V30 8034 H 780.459 -2.02793 2.20262 0
M  V30 8035 H 778.005 -0.974297 1.06035 0
M  V30 8036 H 779.958 -4.10903 0.934696 0
M  V30 8037 H 778.682 -3.26593 0.0217759 0
M  V30 8038 H 777.341 -2.98012 2.13505 0
M  V30 8039 H 776.989 -4.98378 0.680316 0
M  V30 8040 H 776.689 -5.36611 2.39422 0
M  V30 8041 H 778.213 -5.88695 1.62082 0
M  V30 8042 H 779.627 -4.5651 3.46802 0
M  V30 8043 H 778.024 -4.28023 4.20614 0
M  V30 8044 H 779.094 -2.90407 3.88319 0
M  V30 8045 N 780.437 -1.16799 -1.0581 0
M  V30 8046 C 781.848 -0.95945 -1.60161 0
M  V30 8047 C 782.199 0.49543 -1.89842 0
M  V30 8048 O 781.324 1.36957 -1.67546 0
M  V30 8049 C 781.919 -1.73527 -2.90987 0
M  V30 8050 C 780.478 -1.57158 -3.42021 0
M  V30 8051 C 779.625 -1.74089 -2.15843 0
M  V30 8052 H 782.576 -1.31598 -0.886992 0
M  V30 8053 H 782.597 -1.21397 -3.60615 0
M  V30 8054 H 782.109 -2.79411 -2.69353 0
M  V30 8055 H 780.21 -0.537361 -3.68705 0
M  V30 8056 H 780.323 -2.35858 -4.17022 0
M  V30 8057 H 778.687 -1.16874 -2.26302 0
M  V30 8058 H 779.47 -2.81371 -1.96686 0
M  V30 8059 N 781.915 1.24427 -0.967243 0
M  V30 8060 C 783.326 1.74349 -0.667785 0
M  V30 8061 C 783.677 1.78403 0.816509 0
M  V30 8062 O 782.802 1.41315 1.63887 0
M  V30 8063 C 783.397 3.16628 -1.20548 0
M  V30 8064 C 781.956 3.64059 -0.955934 0
M  V30 8065 C 781.103 2.42715 -1.34106 0
M  V30 8066 H 784.054 1.10136 -1.14262 0
M  V30 8067 H 784.075 3.76183 -0.571547 0
M  V30 8068 H 783.587 3.13646 -2.28578 0
M  V30 8069 H 781.688 3.72441 0.108858 0
M  V30 8070 H 781.801 4.51549 -1.60126 0
M  V30 8071 H 780.165 2.43114 -0.759452 0
M  V30 8072 H 780.948 2.42414 -2.43085 0
M  V30 8073 N 783.393 0.737304 1.3929 0
M  V30 8074 C 784.303 0.100464 2.34385 0
M  V30 8075 C 785.319 -0.719282 1.58437 0
M  V30 8076 O 786.495 -0.647216 1.90717 0
M  V30 8077 C 783.56 -0.794325 3.37478 0
M  V30 8078 C 782.621 0.0379345 4.29283 0
M  V30 8079 C 781.854 -0.814241 5.27452 0
M  V30 8080 O 782.077 -2.05288 5.32177 0
M  V30 8081 O 781.011 -0.241679 6.01415 0
M  V30 8082 H 784.837 0.885407 2.90507 0
M  V30 8083 H 782.422 0.497999 1.40856 0
M  V30 8084 H 784.304 -1.30622 4.00644 0
M  V30 8085 H 782.979 -1.55804 2.83737 0
M  V30 8086 H 781.886 0.595405 3.69331 0
M  V30 8087 H 783.219 0.763926 4.86236 0
M  V30 8088 N 784.871 -1.49948 0.485112 0
M  V30 8089 C 786.099 -2.06806 -0.0622824 0
M  V30 8090 C 786.514 -1.34736 -1.32256 0
M  V30 8091 O 785.871 -0.420836 -1.77582 0
M  V30 8092 C 785.922 -3.59934 -0.336096 0
M  V30 8093 O 785.643 -4.29289 0.874203 0
M  V30 8094 C 787.144 -4.33459 -0.928903 0
M  V30 8095 H 784.364 -0.670867 0.0133472 0
M  V30 8096 H 786.908 -1.92937 0.677917 0
M  V30 8097 H 785.063 -3.7356 -1.02625 0
M  V30 8098 H 785.477 -5.20735 0.627332 0
M  V30 8099 H 786.951 -5.41527 -1.07017 0
M  V30 8100 H 787.428 -3.94881 -1.92265 0
M  V30 8101 H 788.034 -4.24399 -0.276705 0
M  V30 8102 N 786.349 -0.21828 -1.56081 0
M  V30 8103 C 787.577 0.419258 -2.02608 0
M  V30 8104 C 787.992 1.53578 -1.09814 0
M  V30 8105 O 787.349 1.82185 -0.107149 0
M  V30 8106 C 787.4 0.953955 -3.48686 0
M  V30 8107 O 787.121 -0.11805 -4.37941 0
M  V30 8108 C 788.622 1.66506 -4.10841 0
M  V30 8109 H 785.842 0.10296 -0.663054 0
M  V30 8110 H 788.386 -0.333776 -2.01758 0
M  V30 8111 H 786.541 1.65727 -3.50162 0
M  V30 8112 H 786.955 0.283359 -5.23734 0
M  V30 8113 H 788.429 1.99123 -5.14834 0
M  V30 8114 H 788.906 2.57705 -3.55647 0
M  V30 8115 H 789.512 1.00703 -4.13206 0
M  V30 8116 N 787.827 1.57504 0.0551401 0
M  V30 8117 C 789.075 1.87684 0.74962 0
M  V30 8118 C 789.396 0.812547 1.77264 0
M  V30 8119 O 788.666 -0.15694 1.9527 0
M  V30 8120 H 787.246 0.6926 0.279846 0
M  V30 8121 H 789.908 1.94881 0.0272745 0
M  V30 8122 H 789.004 2.85734 1.25548 0
M  V30 8123 N 789.305 -0.326896 1.54172 0
M  V30 8124 C 790.237 -1.42319 1.79661 0
M  V30 8125 C 791.25 -1.47989 0.678456 0
M  V30 8126 O 792.439 -1.50773 0.955503 0
M  V30 8127 C 789.539 -2.80876 1.89636 0
M  V30 8128 C 788.712 -2.98449 3.19761 0
M  V30 8129 C 787.771 -4.17347 3.2048 0
M  V30 8130 O 786.797 -4.10667 3.94134 0
M  V30 8131 N 787.999 -5.26717 2.44027 0
M  V30 8132 H 790.764 -1.20819 2.74268 0
M  V30 8133 H 788.325 -0.516866 1.53428 0
M  V30 8134 H 790.317 -3.58619 1.87549 0
M  V30 8135 H 788.887 -2.95442 1.02141 0
M  V30 8136 H 788.107 -2.08035 3.34836 0
M  V30 8137 H 789.395 -3.07083 4.05681 0
M  V30 8138 H 788.793 -5.35019 1.8377 0
M  V30 8139 H 787.35 -6.02891 2.47721 0
M  V30 8140 N 790.784 -1.46188 -0.588786 0
M  V30 8141 C 792.03 -1.51407 -1.34921 0
M  V30 8142 C 792.363 -0.162771 -1.93517 0
M  V30 8143 O 791.638 0.825082 -1.76132 0
M  V30 8144 C 791.921 -2.60795 -2.48311 0
M  V30 8145 C 791.774 -4.05435 -1.94789 0
M  V30 8146 C 793.093 -2.66313 -3.50379 0
M  V30 8147 H 790.212 -0.551213 -0.489217 0
M  V30 8148 H 792.854 -1.78095 -0.661993 0
M  V30 8149 H 791.004 -2.3817 -3.06932 0
M  V30 8150 H 792.676 -4.39328 -1.40672 0
M  V30 8151 H 790.919 -4.15202 -1.25659 0
M  V30 8152 H 791.59 -4.77691 -2.76613 0
M  V30 8153 H 794.066 -2.86634 -3.01629 0
M  V30 8154 H 792.942 -3.44681 -4.27184 0
M  V30 8155 H 793.203 -1.72127 -4.07216 0
M  V30 8156 N 792.262 0.832906 -1.33792 0
M  V30 8157 C 793.492 1.61813 -1.28453 0
M  V30 8158 C 793.9 1.88639 0.145595 0
M  V30 8159 O 793.243 1.47122 1.10004 0
M  V30 8160 C 793.305 2.98929 -1.99704 0
M  V30 8161 C 792.969 2.95045 -3.48995 0
M  V30 8162 C 793.966 2.70337 -4.44088 0
M  V30 8163 C 791.651 3.14993 -3.91261 0
M  V30 8164 C 793.645 2.65612 -5.79421 0
M  V30 8165 C 791.332 3.09893 -5.26697 0
M  V30 8166 C 792.33 2.85235 -6.20588 0
M  V30 8167 O 792.018 2.8005 -7.53543 0
M  V30 8168 H 791.75 0.510013 -0.443693 0
M  V30 8169 H 794.304 1.04514 -1.76822 0
M  V30 8170 H 792.534 3.58106 -1.45935 0
M  V30 8171 H 794.223 3.59849 -1.87786 0
M  V30 8172 H 794.989 2.54671 -4.12756 0
M  V30 8173 H 790.868 3.33204 -3.18584 0
M  V30 8174 H 794.412 2.46285 -6.52679 0
M  V30 8175 H 790.309 3.2511 -5.5765 0
M  V30 8176 H 791.077 2.95849 -7.63162 0
M  V30 8177 N 793.74 1.17359 1.05189 0
M  V30 8178 C 794.67 0.91365 2.14883 0
M  V30 8179 C 795.651 -0.144365 1.69486 0
M  V30 8180 O 796.836 0.00587861 1.94199 0
M  V30 8181 C 793.966 0.426196 3.44675 0
M  V30 8182 C 792.92 1.4234 4.03638 0
M  V30 8183 C 792.246 0.793902 5.28773 0
M  V30 8184 C 793.546 2.7966 4.41121 0
M  V30 8185 H 795.24 1.831 2.36885 0
M  V30 8186 H 792.786 0.881781 1.13845 0
M  V30 8187 H 794.739 0.231767 4.20762 0
M  V30 8188 H 793.463 -0.526693 3.22325 0
M  V30 8189 H 792.122 1.60457 3.2962 0
M  V30 8190 H 791.77 -0.165824 5.02727 0
M  V30 8191 H 791.47 1.45959 5.69183 0
M  V30 8192 H 792.994 0.609747 6.07548 0
M  V30 8193 H 794.408 2.6526 5.08242 0
M  V30 8194 H 792.805 3.42807 4.92548 0
M  V30 8195 H 793.875 3.34068 3.51464 0
M  V30 8196 N 795.218 -1.23913 0.973828 0
M  V30 8197 C 796.148 -2.27453 0.527969 0
M  V30 8198 C 797.129 -1.6443 -0.435513 0
M  V30 8199 O 798.314 -1.9137 -0.330306 0
M  V30 8200 C 795.444 -3.4685 -0.176757 0
M  V30 8201 C 794.398 -4.22181 0.703352 0
M  V30 8202 C 793.724 -5.34534 -0.133215 0
M  V30 8203 C 795.024 -4.82865 1.99096 0
M  V30 8204 H 796.718 -2.65 1.3934 0
M  V30 8205 H 794.264 -1.27388 0.671446 0
M  V30 8206 H 796.217 -4.18424 -0.499934 0
M  V30 8207 H 794.941 -3.08346 -1.07659 0
M  V30 8208 H 793.6 -3.52416 1.00989 0
M  V30 8209 H 793.248 -4.92271 -1.03338 0
M  V30 8210 H 792.948 -5.85855 0.452494 0
M  V30 8211 H 794.472 -6.08933 -0.450924 0
M  V30 8212 H 795.886 -5.46481 1.73297 0
M  V30 8213 H 794.283 -5.44444 2.52389 0
M  V30 8214 H 795.353 -4.03977 2.68199 0
M  V30 8215 N 796.696 -0.74468 -1.38897 0
M  V30 8216 C 797.921 -0.306119 -2.05128 0
M  V30 8217 C 798.346 1.0541 -1.55789 0
M  V30 8218 O 797.704 1.66993 -0.705909 0
M  V30 8219 C 797.752 -0.328195 -3.59103 0
M  V30 8220 O 796.856 0.680876 -4.06741 0
M  V30 8221 H 796.197 -0.137209 -0.649669 0
M  V30 8222 H 798.727 -1.01331 -1.77745 0
M  V30 8223 H 798.737 -0.175956 -4.0762 0
M  V30 8224 H 797.412 -1.32067 -3.94374 0
M  V30 8225 H 795.989 0.49398 -3.69614 0
M  V30 8226 N 798.174 1.49689 -0.493057 0
M  V30 8227 C 799.421 2.02427 0.0542714 0
M  V30 8228 C 799.749 1.37339 1.37725 0
M  V30 8229 O 799.004 0.495523 1.89323 0
M  V30 8230 C 799.303 3.56427 0.263536 0
M  V30 8231 C 798.969 4.40111 -0.98046 0
M  V30 8232 C 797.631 4.62699 -1.32148 0
M  V30 8233 C 799.983 4.88847 -1.80771 0
M  V30 8234 C 797.311 5.31268 -2.48941 0
M  V30 8235 C 799.663 5.587 -2.96711 0
M  V30 8236 C 798.327 5.79536 -3.31202 0
M  V30 8237 H 797.597 0.740734 0.0198593 0
M  V30 8238 H 800.244 1.80073 -0.651603 0
M  V30 8239 H 798.549 3.77416 1.05186 0
M  V30 8240 H 800.246 3.94819 0.701348 0
M  V30 8241 H 796.836 4.22765 -0.704814 0
M  V30 8242 H 801.02 4.71231 -1.55741 0
M  V30 8243 H 796.276 5.45603 -2.75911 0
M  V30 8244 H 800.45 5.9544 -3.61143 0
M  V30 8245 H 798.077 6.32443 -4.21805 0
M  V30 8246 N 799.652 0.226554 1.55963 0
M  V30 8247 C 800.901 -0.40417 1.97609 0
M  V30 8248 C 801.214 -1.60541 1.1174 0
M  V30 8249 O 802.42 -2.30598 1.43307 0
M  V30 8250 C 800.876 -0.770466 3.51556 0
M  V30 8251 C 800.484 0.408244 4.46136 0
M  V30 8252 C 802.228 -1.36651 4.01904 0
M  V30 8253 C 800.135 0.0192347 5.91397 0
M  V30 8254 H 799.065 -0.15478 0.737943 0
M  V30 8255 H 801.716 0.323558 1.80625 0
M  V30 8256 H 800.098 -1.55575 3.6416 0
M  V30 8257 H 801.272 1.18575 4.45283 0
M  V30 8258 H 799.587 0.917859 4.06158 0
M  V30 8259 H 802.184 -1.67055 5.07934 0
M  V30 8260 H 802.527 -2.28403 3.48049 0
M  V30 8261 H 803.06 -0.644556 3.92543 0
M  V30 8262 H 799.799 0.90336 6.49245 0
M  V30 8263 H 799.319 -0.722485 5.95433 0
M  V30 8264 H 800.998 -0.405711 6.45727 0
M  V30 8265 N 801.13 -1.57531 -0.0467866 0
M  V30 8266 C 802.355 -1.93087 -0.757123 0
M  V30 8267 C 802.78 -0.825116 -1.69037 0
M  V30 8268 O 802.138 0.220449 -1.79955 0
M  V30 8269 C 802.186 -3.27669 -1.5055 0
M  V30 8270 O 801.29 -3.18667 -2.61773 0
M  V30 8271 H 800.631 -0.631597 -0.204892 0
M  V30 8272 H 803.161 -2.04599 -0.00755232 0
M  V30 8273 H 803.171 -3.6214 -1.87932 0
M  V30 8274 H 801.846 -4.07717 -0.820931 0
M  V30 8275 H 800.423 -2.95798 -2.27064 0
M  V30 8276 N 802.608 0.318715 -1.54344 0
M  V30 8277 C 803.571 1.37545 -1.83342 0
M  V30 8278 C 804.571 1.445 -0.705444 0
M  V30 8279 O 805.761 1.44443 -0.973752 0
M  V30 8280 C 802.893 2.76225 -1.99781 0
M  V30 8281 H 804.086 1.13084 -2.77762 0
M  V30 8282 H 801.639 0.554457 -1.46135 0
M  V30 8283 H 802.374 3.05934 -1.07588 0
M  V30 8284 H 802.159 2.7257 -2.81865 0
M  V30 8285 H 803.649 3.52664 -2.23647 0
M  V30 8286 N 804.086 1.46499 0.581025 0
M  V30 8287 C 805.326 1.53456 1.35021 0
M  V30 8288 C 805.69 0.182542 1.9113 0
M  V30 8289 O 806.891 0.126874 2.685 0
M  V30 8290 C 805.162 2.60387 2.44812 0
M  V30 8291 S 806.721 2.86762 3.32134 0
M  V30 8292 H 803.539 0.54216 0.459982 0
M  V30 8293 H 806.141 1.83742 0.667754 0
M  V30 8294 H 804.845 3.57253 2.01986 0
M  V30 8295 H 804.376 2.31839 3.17828 0
M  V30 8296 H 806.391 2.2216 4.43688 0
M  V30 8297 N 805.565 -0.825799 1.34232 0
M  V30 8298 C 806.976 -1.39835 1.23706 0
M  V30 8299 C 807.327 -1.95709 -0.138649 0
M  V30 8300 O 806.452 -1.89833 -1.03886 0
M  V30 8301 C 807.047 -2.54203 2.23978 0
M  V30 8302 C 805.606 -3.07374 2.17251 0
M  V30 8303 C 804.753 -1.80232 2.10741 0
M  V30 8304 H 807.704 -0.630442 1.4564 0
M  V30 8305 H 807.725 -3.32214 1.8551 0
M  V30 8306 H 807.237 -2.13506 3.24094 0
M  V30 8307 H 805.338 -3.52583 1.20483 0
M  V30 8308 H 805.451 -3.6666 3.08379 0
M  V30 8309 H 803.815 -2.01012 1.56417 0
M  V30 8310 H 804.598 -1.41713 3.12686 0
M  V30 8311 N 807.043 -1.17915 -1.04565 0
M  V30 8312 C 808.32 -0.881187 -1.74627 0
M  V30 8313 C 808.7 0.617123 -2.01878 0
M  V30 8314 O 808.048 1.57032 -1.65991 0
M  V30 8315 C 808.258 -1.72299 -3.03503 0
M  V30 8316 C 809.606 -1.94688 -3.77335 0
M  V30 8317 O 810.63 -1.6931 -3.13389 0
M  V30 8318 O 809.489 -2.37379 -4.92253 0
M  V30 8319 H 806.583 -0.326864 -0.759664 0
M  V30 8320 H 809.129 -1.28642 -1.10676 0
M  V30 8321 H 807.901 -2.73891 -2.79462 0
M  V30 8322 H 807.524 -1.31593 -3.75192 0
M  V30 8323 N 808.521 1.23394 -0.980386 0
M  V30 8324 C 809.768 1.91809 -0.649261 0
M  V30 8325 C 810.096 1.765 0.817197 0
M  V30 8326 O 809.351 1.11979 1.60497 0
M  V30 8327 C 809.65 3.43542 -0.985588 0
M  V30 8328 C 809.316 3.79031 -2.44225 0
M  V30 8329 C 807.978 3.88429 -2.84035 0
M  V30 8330 C 810.33 3.96145 -3.38702 0
M  V30 8331 C 807.658 4.12368 -4.17336 0
M  V30 8332 C 810.01 4.21583 -4.71646 0
M  V30 8333 C 808.674 4.29203 -5.11215 0
M  V30 8334 H 807.944 0.70188 -0.237581 0
M  V30 8335 H 810.591 1.4642 -1.23424 0
M  V30 8336 H 808.896 3.90503 -0.318521 0
M  V30 8337 H 810.593 3.94708 -0.707596 0
M  V30 8338 H 807.183 3.7229 -2.12362 0
M  V30 8339 H 811.367 3.88274 -3.09123 0
M  V30 8340 H 806.623 4.1649 -4.47601 0
M  V30 8341 H 810.797 4.33769 -5.4481 0
M  V30 8342 H 808.424 4.47505 -6.14527 0
M  V30 8343 N 809.999 0.752036 1.385 0
M  V30 8344 C 810.946 0.123288 2.3047 0
M  V30 8345 C 811.916 -0.711326 1.50098 0
M  V30 8346 O 813.101 -0.667775 1.78733 0
M  V30 8347 C 810.241 -0.765085 3.36512 0
M  V30 8348 C 809.354 0.0839885 4.31918 0
M  V30 8349 C 808.489 -0.807243 5.25031 0
M  V30 8350 C 807.528 0.0455583 6.12083 0
M  V30 8351 N 806.665 -0.802547 6.97498 0
M  V30 8352 H 811.505 0.913169 2.83664 0
M  V30 8353 H 809.042 0.46195 1.39658 0
M  V30 8354 H 811 -1.29476 3.966 0
M  V30 8355 H 809.63 -1.52077 2.84732 0
M  V30 8356 H 808.682 0.731276 3.73305 0
M  V30 8357 H 809.994 0.74265 4.9324 0
M  V30 8358 H 809.148 -1.40414 5.90228 0
M  V30 8359 H 807.887 -1.49964 4.64071 0
M  V30 8360 H 806.892 0.655137 5.45883 0
M  V30 8361 H 808.117 0.734994 6.75111 0
M  V30 8362 H 806.063 -1.47992 6.39089 0
M  V30 8363 H 805.98 -0.200747 7.55733 0
M  V30 8364 H 807.248 -1.38447 7.67107 0
M  V30 8365 N 811.477 -1.49425 0.500989 0
M  V30 8366 C 812.407 -2.31971 -0.266775 0
M  V30 8367 C 813.388 -1.40245 -0.962563 0
M  V30 8368 O 814.573 -1.69154 -0.953968 0
M  V30 8369 C 811.703 -3.20757 -1.33163 0
M  V30 8370 C 810.657 -4.21275 -0.75572 0
M  V30 8371 C 809.983 -4.98997 -1.92109 0
M  V30 8372 C 811.283 -5.21686 0.253213 0
M  V30 8373 H 812.977 -2.96408 0.422237 0
M  V30 8374 H 810.523 -1.4254 0.204505 0
M  V30 8375 H 812.476 -3.77315 -1.87646 0
M  V30 8376 H 811.2 -2.54263 -2.04983 0
M  V30 8377 H 809.859 -3.65861 -0.232637 0
M  V30 8378 H 809.507 -4.28951 -2.62698 0
M  V30 8379 H 809.207 -5.67011 -1.54182 0
M  V30 8380 H 810.731 -5.584 -2.47026 0
M  V30 8381 H 812.145 -5.72939 -0.203483 0
M  V30 8382 H 810.542 -5.9759 0.548322 0
M  V30 8383 H 811.612 -4.70596 1.16909 0
M  V30 8384 N 812.955 -0.234822 -1.55841 0
M  V30 8385 C 814.371 0.120295 -1.59146 0
M  V30 8386 C 814.571 1.57896 -1.25184 0
M  V30 8387 O 813.627 2.32138 -0.993393 0
M  V30 8388 C 814.94 -0.217984 -2.99909 0
M  V30 8389 C 816.488 -0.161298 -3.12584 0
M  V30 8390 C 816.963 -0.473438 -4.55546 0
M  V30 8391 N 818.454 -0.423494 -4.6126 0
M  V30 8392 C 819.189 -0.638334 -5.69836 0
M  V30 8393 N 818.685 -0.915659 -6.86722 0
M  V30 8394 N 820.478 -0.569864 -5.59204 0
M  V30 8395 H 812.629 -1.18622 -1.76189 0
M  V30 8396 H 814.892 -0.476426 -0.819587 0
M  V30 8397 H 814.598 -1.2309 -3.29457 0
M  V30 8398 H 814.472 0.460707 -3.74376 0
M  V30 8399 H 816.859 0.842274 -2.82825 0
M  V30 8400 H 816.94 -0.873661 -2.40418 0
M  V30 8401 H 816.584 -1.47451 -4.86025 0
M  V30 8402 H 816.514 0.260268 -5.25956 0
M  V30 8403 H 819.005 -0.217383 -3.77274 0
M  V30 8404 H 819.318 -1.06734 -7.65394 0
M  V30 8405 H 817.663 -0.953 -6.88435 0
M  V30 8406 H 820.854 -0.35334 -4.66765 0
M  V30 8407 H 821.027 -0.740698 -6.43753 0
M  V30 8408 N 814.433 1.57553 0.0384317 0
M  V30 8409 C 815.363 2.0898 1.04161 0
M  V30 8410 C 816.344 0.99029 1.38301 0
M  V30 8411 O 817.529 1.26499 1.47349 0
M  V30 8412 C 814.659 2.56145 2.34536 0
M  V30 8413 C 813.613 3.70275 2.14663 0
M  V30 8414 C 812.939 4.03612 3.50715 0
M  V30 8415 C 814.239 4.99067 1.54045 0
M  V30 8416 H 815.933 2.93046 0.613548 0
M  V30 8417 H 813.479 1.40973 0.293684 0
M  V30 8418 H 815.432 2.90741 3.05037 0
M  V30 8419 H 814.156 1.6915 2.79385 0
M  V30 8420 H 812.815 3.36013 1.46597 0
M  V30 8421 H 812.463 3.13698 3.93195 0
M  V30 8422 H 812.163 4.80482 3.38247 0
M  V30 8423 H 813.687 4.40735 4.22593 0
M  V30 8424 H 815.101 5.3168 2.14451 0
M  V30 8425 H 813.498 5.80484 1.52178 0
M  V30 8426 H 814.568 4.8226 0.505259 0
M  V30 8427 N 815.911 -0.310526 1.54511 0
M  V30 8428 C 816.844 -1.40693 1.79668 0
M  V30 8429 C 817.822 -1.49159 0.64734 0
M  V30 8430 O 819.006 -1.66367 0.886239 0
M  V30 8431 C 816.133 -2.78685 1.92491 0
M  V30 8432 C 815.179 -2.87688 3.14861 0
M  V30 8433 S 816.012 -2.50759 4.7316 0
M  V30 8434 C 817.168 -3.90797 4.88906 0
M  V30 8435 H 817.401 -1.19142 2.72383 0
M  V30 8436 H 814.934 -0.508103 1.458 0
M  V30 8437 H 816.892 -3.58168 2.00563 0
M  V30 8438 H 815.553 -2.9751 1.00731 0
M  V30 8439 H 814.746 -3.8888 3.20607 0
M  V30 8440 H 814.348 -2.16189 3.05186 0
M  V30 8441 H 816.64 -4.85693 4.72344 0
M  V30 8442 H 817.583 -3.90027 5.91003 0
M  V30 8443 H 817.991 -3.80357 4.1712 0
M  V30 8444 N 817.389 -1.46805 -0.573248 0
M  V30 8445 C 818.336 -1.58084 -1.68161 0
M  V30 8446 C 819.306 -0.424636 -1.6058 0
M  V30 8447 O 820.491 -0.642623 -1.79652 0
M  V30 8448 C 817.631 -1.58601 -3.06496 0
M  V30 8449 C 816.744 -2.85023 -3.24632 0
M  V30 8450 C 815.879 -2.76981 -4.53271 0
M  V30 8451 C 814.918 -3.983 -4.64783 0
M  V30 8452 N 814.055 -3.88589 -5.84759 0
M  V30 8453 H 818.895 -2.52755 -1.57858 0
M  V30 8454 H 816.432 -1.25385 -0.769218 0
M  V30 8455 H 818.39 -1.56885 -3.86579 0
M  V30 8456 H 817.02 -0.674553 -3.15673 0
M  V30 8457 H 816.072 -2.96678 -2.38089 0
M  V30 8458 H 817.384 -3.7491 -3.29004 0
M  V30 8459 H 816.538 -2.73424 -5.41594 0
M  V30 8460 H 815.277 -1.84751 -4.51352 0
M  V30 8461 H 814.282 -4.02179 -3.74876 0
M  V30 8462 H 815.507 -4.91639 -4.68474 0
M  V30 8463 H 813.453 -2.99151 -5.83819 0
M  V30 8464 H 813.37 -4.7214 -5.90441 0
M  V30 8465 H 814.638 -3.89022 -6.75486 0
M  V30 8466 N 818.867 0.818669 -1.34668 0
M  V30 8467 C 820.144 1.56118 -1.17841 0
M  V30 8468 C 820.524 2.09646 0.24731 0
M  V30 8469 O 819.872 1.91329 1.24922 0
M  V30 8470 C 820.082 2.67922 -2.23649 0
M  V30 8471 C 821.43 3.36579 -2.58843 0
M  V30 8472 O 822.454 2.78182 -2.22471 0
M  V30 8473 O 821.313 4.42045 -3.21339 0
M  V30 8474 H 818.407 0.689216 -0.457067 0
M  V30 8475 H 820.953 0.859674 -1.46314 0
M  V30 8476 H 819.725 2.26153 -3.19328 0
M  V30 8477 H 819.348 3.45719 -1.96377 0
M  V30 8478 N 820.346 1.18468 1.03938 0
M  V30 8479 C 821.574 1.00576 1.80809 0
M  V30 8480 C 821.989 -0.445786 1.83462 0
M  V30 8481 O 821.346 -1.30964 1.27101 0
M  V30 8482 C 821.397 1.55491 3.26351 0
M  V30 8483 O 821.118 2.94963 3.23926 0
M  V30 8484 C 822.619 1.42236 4.19862 0
M  V30 8485 H 819.839 0.35508 0.56935 0
M  V30 8486 H 822.383 1.57046 1.30984 0
M  V30 8487 H 820.538 1.03195 3.73403 0
M  V30 8488 H 820.952 3.20598 4.15111 0
M  V30 8489 H 822.426 1.85455 5.19914 0
M  V30 8490 H 822.903 0.371267 4.37628 0
M  V30 8491 H 823.509 1.9361 3.78675 0
M  V30 8492 N 821.824 -1.22873 0.986916 0
M  V30 8493 C 822.756 -2.23889 0.490537 0
M  V30 8494 C 823.769 -1.57523 -0.411144 0
M  V30 8495 O 824.958 -1.7721 -0.214236 0
M  V30 8496 C 822.058 -3.37488 -0.30902 0
M  V30 8497 C 821.231 -4.33438 0.587354 0
M  V30 8498 C 820.29 -5.25958 -0.159467 0
M  V30 8499 O 819.316 -5.67394 0.453115 0
M  V30 8500 N 820.518 -5.62265 -1.44355 0
M  V30 8501 H 823.283 -2.67109 1.35914 0
M  V30 8502 H 820.844 -1.37111 0.860937 0
M  V30 8503 H 822.836 -3.96365 -0.817139 0
M  V30 8504 H 821.406 -2.934 -1.07868 0
M  V30 8505 H 820.626 -3.72969 1.27622 0
M  V30 8506 H 821.914 -4.94495 1.19801 0
M  V30 8507 H 821.312 -5.30562 -1.96266 0
M  V30 8508 H 819.869 -6.23585 -1.89698 0
M  V30 8509 N 823.302 -0.75937 -1.38099 0
M  V30 8510 C 824.53 -0.329111 -2.04266 0
M  V30 8511 C 824.945 1.04453 -1.57274 0
M  V30 8512 O 824.302 1.66449 -0.748397 0
M  V30 8513 C 824.353 -0.349192 -3.5981 0
M  V30 8514 O 824.074 -1.66863 -4.05078 0
M  V30 8515 C 825.575 0.0942106 -4.432 0
M  V30 8516 H 822.795 -0.13971 -0.656294 0
M  V30 8517 H 825.339 -1.02984 -1.76677 0
M  V30 8518 H 823.494 0.302846 -3.86214 0
M  V30 8519 H 823.908 -1.59877 -4.9954 0
M  V30 8520 H 825.382 0.0290004 -5.51992 0
M  V30 8521 H 825.859 1.1429 -4.24069 0
M  V30 8522 H 826.465 -0.529171 -4.21995 0
M  V30 8523 N 824.78 1.49157 -0.508906 0
M  V30 8524 C 826.029 2.0167 0.0346854 0
M  V30 8525 C 826.342 1.39302 1.37311 0
M  V30 8526 O 827.548 1.83189 2.00385 0
M  V30 8527 C 826.004 3.59725 0.112261 0
M  V30 8528 C 825.612 4.31069 -1.21999 0
M  V30 8529 C 827.356 4.20155 0.605798 0
M  V30 8530 C 825.263 5.81001 -1.10415 0
M  V30 8531 H 824.193 0.753814 0.0167355 0
M  V30 8532 H 826.844 1.7162 -0.649518 0
M  V30 8533 H 825.226 3.86525 0.861087 0
M  V30 8534 H 826.4 4.15962 -1.98273 0
M  V30 8535 H 824.715 3.82418 -1.64759 0
M  V30 8536 H 827.312 5.29964 0.710102 0
M  V30 8537 H 827.655 3.84051 1.60656 0
M  V30 8538 H 828.188 3.97705 -0.0867239 0
M  V30 8539 H 824.927 6.21643 -2.07941 0
M  V30 8540 H 824.447 5.9858 -0.382428 0
M  V30 8541 H 826.126 6.42207 -0.786116 0
M  V30 8542 N 826.258 0.243083 1.55714 0
M  V30 8543 C 827.483 -0.389944 2.03701 0
M  V30 8544 C 827.908 -1.51025 1.12129 0
M  V30 8545 O 827.266 -1.80944 0.11352 0
M  V30 8546 C 827.314 -0.878649 3.49731 0
M  V30 8547 O 826.418 -1.98851 3.61292 0
M  V30 8548 H 825.759 -0.0855115 0.658471 0
M  V30 8549 H 828.289 0.368023 2.01263 0
M  V30 8550 H 828.299 -1.18287 3.90477 0
M  V30 8551 H 826.974 -0.0588107 4.15858 0
M  V30 8552 H 825.551 -1.68928 3.32442 0
M  V30 8553 N 827.736 -1.57571 -0.0300757 0
M  V30 8554 C 828.668 -2.0329 -1.05857 0
M  V30 8555 C 829.681 -0.945543 -1.32527 0
M  V30 8556 O 830.87 -1.22287 -1.30032 0
M  V30 8557 C 827.97 -2.39234 -2.40042 0
M  V30 8558 C 827.143 -3.70337 -2.32743 0
M  V30 8559 C 826.202 -3.93482 -3.49369 0
M  V30 8560 O 825.228 -4.64551 -3.28909 0
M  V30 8561 N 826.43 -3.39042 -4.71201 0
M  V30 8562 H 829.195 -2.9214 -0.668897 0
M  V30 8563 H 826.756 -1.60425 -0.218038 0
M  V30 8564 H 828.748 -2.51856 -3.16782 0
M  V30 8565 H 827.318 -1.5606 -2.70858 0
M  V30 8566 H 826.538 -3.68079 -1.41109 0
M  V30 8567 H 827.826 -4.56343 -2.25007 0
M  V30 8568 H 827.224 -2.81434 -4.90725 0
M  V30 8569 H 825.781 -3.57045 -5.45309 0
M  V30 8570 N 829.214 0.302327 -1.54673 0
M  V30 8571 C 830.442 1.05669 -1.77881 0
M  V30 8572 C 830.857 1.80983 -0.537648 0
M  V30 8573 O 830.214 1.7573 0.492467 0
M  V30 8574 C 830.265 2.03828 -2.98557 0
M  V30 8575 O 829.986 1.3157 -4.17877 0
M  V30 8576 C 831.487 2.91314 -3.34143 0
M  V30 8577 H 828.707 0.313436 -0.593295 0
M  V30 8578 H 831.251 0.342003 -2.0162 0
M  V30 8579 H 829.406 2.70801 -2.7703 0
M  V30 8580 H 829.82 1.97481 -4.85903 0
M  V30 8581 H 831.294 3.56042 -4.21827 0
M  V30 8582 H 831.771 3.59544 -2.52239 0
M  V30 8583 H 832.377 2.29874 -3.57824 0
M  V30 8584 N 830.692 1.47107 0.565454 0
M  V30 8585 C 831.938 1.53535 1.32495 0
M  V30 8586 C 832.271 0.193537 1.93233 0
M  V30 8587 O 831.546 -0.796956 1.77423 0
M  V30 8588 C 831.829 2.64712 2.4413 0
M  V30 8589 C 831.682 4.08482 1.88314 0
M  V30 8590 C 833.001 2.71853 3.46098 0
M  V30 8591 H 830.12 0.558926 0.480386 0
M  V30 8592 H 832.762 1.79125 0.633575 0
M  V30 8593 H 830.912 2.43023 3.03104 0
M  V30 8594 H 832.584 4.4151 1.33665 0
M  V30 8595 H 830.827 4.17148 1.19037 0
M  V30 8596 H 831.498 4.82032 2.68978 0
M  V30 8597 H 833.974 2.91397 2.97031 0
M  V30 8598 H 832.85 3.51433 4.21646 0
M  V30 8599 H 833.111 1.78584 4.04426 0
M  V30 8600 N 832.17 -0.811516 1.35101 0
M  V30 8601 C 833.133 -1.90467 1.27495 0
M  V30 8602 C 834.133 -1.59703 0.187516 0
M  V30 8603 O 835.323 -1.68528 0.440896 0
M  V30 8604 C 832.455 -3.26774 0.971154 0
M  V30 8605 H 833.648 -1.98631 2.2469 0
M  V30 8606 H 831.201 -1.00681 1.19553 0
M  V30 8607 H 831.936 -3.243 0.0028557 0
M  V30 8608 H 831.721 -3.50488 1.75785 0
M  V30 8609 H 833.211 -4.06804 0.943414 0
M  V30 8610 N 833.648 -1.19017 -1.03309 0
M  V30 8611 C 834.578 -0.94772 -2.13402 0
M  V30 8612 C 835.559 0.117383 -1.69694 0
M  V30 8613 O 836.744 -0.0367733 -1.94165 0
M  V30 8614 C 833.874 -0.480977 -3.43953 0
M  V30 8615 C 832.828 -1.48743 -4.01322 0
M  V30 8616 C 832.154 -0.877924 -5.27443 0
M  V30 8617 C 833.454 -2.86642 -4.36616 0
M  V30 8618 H 835.148 -1.86846 -2.33942 0
M  V30 8619 H 832.694 -0.899781 -1.12427 0
M  V30 8620 H 834.647 -0.298677 -4.2034 0
M  V30 8621 H 833.371 0.475348 -3.23122 0
M  V30 8622 H 832.03 -1.65681 -3.27025 0
M  V30 8623 H 831.678 0.0858232 -5.02927 0
M  V30 8624 H 831.378 -1.54996 -5.66789 0
M  V30 8625 H 832.902 -0.706326 -6.06501 0
M  V30 8626 H 834.316 -2.73312 -5.03958 0
M  V30 8627 H 832.713 -3.50599 -4.87032 0
M  V30 8628 H 833.783 -3.39617 -3.46105 0
M  V30 8629 N 835.127 1.22348 -0.993418 0
M  V30 8630 C 836.355 1.95125 -0.688021 0
M  V30 8631 C 836.77 1.73377 0.747388 0
M  V30 8632 O 836.127 1.03317 1.50439 0
M  V30 8633 C 836.178 3.47819 -0.985097 0
M  V30 8634 O 835.899 3.68838 -2.3641 0
M  V30 8635 C 837.4 4.37779 -0.697474 0
M  V30 8636 H 834.62 0.62087 -0.254481 0
M  V30 8637 H 837.164 1.55485 -1.32833 0
M  V30 8638 H 835.319 3.85426 -0.390583 0
M  V30 8639 H 835.733 4.63032 -2.46377 0
M  V30 8640 H 837.207 5.43666 -0.955604 0
M  V30 8641 H 837.684 4.37651 0.368524 0
M  V30 8642 H 838.29 4.05799 -1.27306 0
M  V30 8643 N 836.605 0.766683 1.37694 0
M  V30 8644 C 837.515 0.150158 2.34119 0
M  V30 8645 C 838.531 -0.685513 1.59927 0
M  V30 8646 O 839.707 -0.606616 1.92047 0
M  V30 8647 C 836.772 -0.722562 3.39087 0
M  V30 8648 C 835.833 0.128983 4.29106 0
M  V30 8649 C 835.066 -0.702178 5.29061 0
M  V30 8650 O 835.289 -1.93954 5.36412 0
M  V30 8651 O 834.223 -0.114056 6.01792 0
M  V30 8652 H 838.049 0.946829 2.88563 0
M  V30 8653 H 835.634 0.527765 1.39768 0
M  V30 8654 H 837.516 -1.22095 4.03325 0
M  V30 8655 H 836.191 -1.49751 2.86978 0
M  V30 8656 H 835.098 0.673612 3.67985 0
M  V30 8657 H 836.431 0.866892 4.84506 0
M  V30 8658 N 838.083 -1.48885 0.516809 0
M  V30 8659 C 839.331 -2.02088 -0.0220166 0
M  V30 8660 C 839.652 -1.39735 -1.36011 0
M  V30 8661 O 838.922 -0.558119 -1.87781 0
M  V30 8662 H 837.502 -0.746917 -0.0111255 0
M  V30 8663 H 840.164 -1.8274 0.677647 0
M  V30 8664 H 839.26 -3.11786 -0.140067 0
M  V30 8665 N 839.561 -0.251338 -1.55583 0
M  V30 8666 C 840.491 0.640437 -2.24545 0
M  V30 8667 C 841.472 1.17781 -1.22726 0
M  V30 8668 O 842.657 1.21633 -1.5139 0
M  V30 8669 C 839.787 1.8355 -2.94834 0
M  V30 8670 C 838.741 1.4307 -4.03379 0
M  V30 8671 C 838.067 2.70695 -4.61116 0
M  V30 8672 C 839.367 0.59848 -5.1886 0
M  V30 8673 H 841.061 0.0653772 -2.99329 0
M  V30 8674 H 838.607 0.0300042 -1.43969 0
M  V30 8675 H 840.56 2.46505 -3.4178 0
M  V30 8676 H 839.284 2.43601 -2.17546 0
M  V30 8677 H 837.943 0.824474 -3.57209 0
M  V30 8678 H 837.591 3.28954 -3.80524 0
M  V30 8679 H 837.291 2.44332 -5.34393 0
M  V30 8680 H 838.815 3.34541 -5.10798 0
M  V30 8681 H 840.229 1.13244 -5.62004 0
M  V30 8682 H 838.626 0.430728 -5.98552 0
M  V30 8683 H 839.696 -0.38829 -4.83343 0
M  V30 8684 N 841.039 1.57585 0.0217189 0
M  V30 8685 C 842.287 1.89231 0.709641 0
M  V30 8686 C 842.608 0.849964 1.75501 0
M  V30 8687 O 841.878 -0.115485 1.95559 0
M  V30 8688 H 840.458 0.69838 0.265092 0
M  V30 8689 H 843.12 1.94895 -0.0140688 0
M  V30 8690 H 842.216 2.88333 1.19459 0
M  V30 8691 N 842.517 -0.29412 1.54831 0
M  V30 8692 C 843.794 -1.04847 1.65126 0
M  V30 8693 C 844.174 -2.04996 0.503986 0
M  V30 8694 O 843.522 -2.22996 -0.498496 0
M  V30 8695 C 843.732 -1.72418 3.03435 0
M  V30 8696 C 845.08 -2.24362 3.60481 0
M  V30 8697 O 846.104 -1.8244 3.05932 0
M  V30 8698 O 844.963 -3.01196 4.56008 0
M  V30 8699 H 842.057 -0.485032 0.669831 0
M  V30 8700 H 844.603 -0.291659 1.67175 0
M  V30 8701 H 843.375 -0.997351 3.78376 0
M  V30 8702 H 842.998 -2.54839 3.05193 0
M  V30 8703 N 843.995 -1.47404 -0.557645 0
M  V30 8704 C 844.905 -1.62491 -1.69216 0
M  V30 8705 C 845.921 -0.507764 -1.66426 0
M  V30 8706 O 847.097 -0.775241 -1.85882 0
M  V30 8707 C 844.162 -1.63511 -3.05721 0
M  V30 8708 C 843.223 -2.86648 -3.1958 0
M  V30 8709 C 842.456 -2.87609 -4.49574 0
M  V30 8710 O 842.679 -1.97799 -5.35006 0
M  V30 8711 O 841.613 -3.79465 -4.67215 0
M  V30 8712 H 845.439 -2.58487 -1.59431 0
M  V30 8713 H 843.024 -1.30485 -0.7276 0
M  V30 8714 H 844.906 -1.66863 -3.86956 0
M  V30 8715 H 843.581 -0.706812 -3.15889 0
M  V30 8716 H 842.488 -2.8884 -2.37744 0
M  V30 8717 H 843.821 -3.7877 -3.14316 0
M  V30 8718 N 845.473 0.80434 -1.35529 0
M  V30 8719 C 846.403 1.93086 -1.31301 0
M  V30 8720 C 847.384 1.69068 -0.187044 0
M  V30 8721 O 848.569 1.90399 -0.382359 0
M  V30 8722 C 845.699 3.29867 -1.0865 0
M  V30 8723 C 844.653 3.68373 -2.17911 0
M  V30 8724 C 843.979 5.0334 -1.80423 0
M  V30 8725 C 845.279 3.78516 -3.59893 0
M  V30 8726 H 846.973 1.96882 -2.25561 0
M  V30 8727 H 844.519 0.945841 -1.08581 0
M  V30 8728 H 846.472 4.08281 -1.04331 0
M  V30 8729 H 845.196 3.2642 -0.108359 0
M  V30 8730 H 843.855 2.92247 -2.21331 0
M  V30 8731 H 843.503 4.96399 -0.812213 0
M  V30 8732 H 843.203 5.30074 -2.53565 0
M  V30 8733 H 844.727 5.84191 -1.77633 0
M  V30 8734 H 846.141 4.47155 -3.58783 0
M  V30 8735 H 844.538 4.16721 -4.31814 0
M  V30 8736 H 845.608 2.8001 -3.95882 0
M  V30 8737 N 846.951 1.19563 1.02676 0
M  V30 8738 C 847.861 0.950691 2.14474 0
M  V30 8739 C 848.877 -0.0900219 1.73767 0
M  V30 8740 O 850.053 0.0951063 2.01175 0
M  V30 8741 C 847.118 0.494917 3.43149 0
M  V30 8742 C 846.179 1.60527 3.98158 0
M  V30 8743 C 845.412 1.17115 5.20692 0
M  V30 8744 O 845.635 0.0355937 5.70389 0
M  V30 8745 O 844.569 1.97454 5.68591 0
M  V30 8746 H 848.395 1.88651 2.38001 0
M  V30 8747 H 845.98 0.978635 1.12885 0
M  V30 8748 H 847.862 0.249492 4.20661 0
M  V30 8749 H 846.537 -0.412434 3.21062 0
M  V30 8750 H 845.444 1.90487 3.21971 0
M  V30 8751 H 846.777 2.48925 4.24614 0
M  V30 8752 N 848.429 -1.21819 0.999893 0
M  V30 8753 C 849.339 -2.27691 0.565159 0
M  V30 8754 C 850.355 -1.69587 -0.389398 0
M  V30 8755 O 851.531 -1.99786 -0.254499 0
M  V30 8756 C 848.596 -3.46537 -0.106432 0
M  V30 8757 C 847.657 -4.19932 0.891964 0
M  V30 8758 C 846.89 -5.33103 0.252327 0
M  V30 8759 O 847.113 -5.62398 -0.952103 0
M  V30 8760 O 846.047 -5.94184 0.960698 0
M  V30 8761 H 849.873 -2.67059 1.44613 0
M  V30 8762 H 847.458 -1.28119 0.768499 0
M  V30 8763 H 849.34 -4.18631 -0.482301 0
M  V30 8764 H 848.015 -3.09079 -0.961865 0
M  V30 8765 H 846.922 -3.5008 1.3189 0
M  V30 8766 H 848.255 -4.61287 1.71682 0
M  V30 8767 N 849.908 -0.773975 -1.37286 0
M  V30 8768 C 851.154 -0.339809 -1.99933 0
M  V30 8769 C 851.487 1.0815 -1.61299 0
M  V30 8770 O 850.762 1.74442 -0.860252 0
M  V30 8771 C 851.045 -0.485919 -3.56806 0
M  V30 8772 C 850.898 -1.9498 -4.05343 0
M  V30 8773 C 852.217 0.108461 -4.39966 0
M  V30 8774 H 849.336 -0.124944 -0.726332 0
M  V30 8775 H 851.978 -0.977433 -1.6293 0
M  V30 8776 H 850.128 0.0569023 -3.88458 0
M  V30 8777 H 851.8 -2.5525 -3.84246 0
M  V30 8778 H 850.043 -2.45784 -3.57453 0
M  V30 8779 H 850.714 -2.00308 -5.14374 0
M  V30 8780 H 853.19 -0.354722 -4.14585 0
M  V30 8781 H 852.066 -0.0238926 -5.48895 0
M  V30 8782 H 852.327 1.19901 -4.25531 0
M  V30 8783 N 851.386 1.48609 -0.524698 0
M  V30 8784 C 852.635 2.01696 0.0132937 0
M  V30 8785 C 852.948 1.40751 1.35825 0
M  V30 8786 O 854.154 1.85304 1.9843 0
M  V30 8787 C 852.61 3.59824 0.0741012 0
M  V30 8788 C 852.218 4.2975 -1.26564 0
M  V30 8789 C 853.962 4.20774 0.5612 0
M  V30 8790 C 851.869 5.79798 -1.16571 0
M  V30 8791 H 850.799 0.753949 0.00873931 0
M  V30 8792 H 853.45 1.70922 -0.667684 0
M  V30 8793 H 851.832 3.87416 0.820043 0
M  V30 8794 H 853.006 4.13836 -2.02674 0
M  V30 8795 H 851.321 3.80649 -1.68806 0
M  V30 8796 H 853.918 5.30687 0.653853 0
M  V30 8797 H 854.261 3.85734 1.56573 0
M  V30 8798 H 854.794 3.97591 -0.128901 0
M  V30 8799 H 851.533 6.19403 -2.14523 0
M  V30 8800 H 851.053 5.9814 -0.445894 0
M  V30 8801 H 852.732 6.41337 -0.854186 0
M  V30 8802 N 852.864 0.259585 1.55447 0
M  V30 8803 C 854.11 -0.362143 1.9954 0
M  V30 8804 C 854.443 -1.5666 1.14767 0
M  V30 8805 O 853.718 -1.93319 0.214025 0
M  V30 8806 C 854.001 -0.759588 3.51998 0
M  V30 8807 C 853.854 0.451134 4.47532 0
M  V30 8808 C 855.173 -1.60186 4.09913 0
M  V30 8809 H 852.292 -0.130157 0.725416 0
M  V30 8810 H 854.934 0.363431 1.86492 0
M  V30 8811 H 853.084 -1.3778 3.63248 0
M  V30 8812 H 854.756 1.08965 4.48246 0
M  V30 8813 H 852.999 1.092 4.19831 0
M  V30 8814 H 853.67 0.129518 5.51848 0
M  V30 8815 H 856.146 -1.0799 4.01842 0
M  V30 8816 H 855.022 -1.84879 5.16828 0
M  V30 8817 H 855.283 -2.57787 3.59163 0
M  V30 8818 N 854.342 -1.57594 -0.0133615 0
M  V30 8819 C 855.252 -2.10991 -1.02566 0
M  V30 8820 C 856.268 -1.05208 -1.3859 0
M  V30 8821 O 857.444 -1.37034 -1.47593 0
M  V30 8822 C 854.509 -2.59165 -2.30292 0
M  V30 8823 C 853.57 -3.79495 -2.00704 0
M  V30 8824 C 852.803 -4.25361 -3.22341 0
M  V30 8825 O 853.026 -3.70645 -4.33565 0
M  V30 8826 O 851.96 -5.17649 -3.07121 0
M  V30 8827 H 855.786 -2.97678 -0.601806 0
M  V30 8828 H 853.371 -1.47598 -0.23135 0
M  V30 8829 H 855.253 -2.90409 -3.05354 0
M  V30 8830 H 853.928 -1.75582 -2.71942 0
M  V30 8831 H 852.835 -3.53245 -1.23161 0
M  V30 8832 H 854.168 -4.64109 -1.639 0
M  V30 8833 N 855.82 0.285905 -1.54985 0
M  V30 8834 C 856.767 1.35306 -1.86978 0
M  V30 8835 C 857.737 1.49682 -0.720046 0
M  V30 8836 O 858.922 1.64297 -0.970107 0
M  V30 8837 C 856.062 2.71059 -2.13591 0
M  V30 8838 C 855.175 2.6501 -3.41165 0
M  V30 8839 C 854.31 3.92856 -3.57544 0
M  V30 8840 C 853.349 3.81266 -4.78855 0
M  V30 8841 N 852.486 5.00919 -4.9196 0
M  V30 8842 H 857.326 1.07323 -2.78003 0
M  V30 8843 H 854.863 0.518776 -1.37649 0
M  V30 8844 H 856.821 3.50026 -2.27019 0
M  V30 8845 H 855.451 2.97271 -1.25816 0
M  V30 8846 H 854.503 1.77824 -3.36278 0
M  V30 8847 H 855.815 2.52342 -4.30262 0
M  V30 8848 H 854.969 4.80263 -3.70718 0
M  V30 8849 H 853.708 4.08377 -2.66608 0
M  V30 8850 H 852.713 2.92243 -4.65698 0
M  V30 8851 H 853.938 3.67277 -5.71213 0
M  V30 8852 H 851.884 5.16875 -4.03951 0
M  V30 8853 H 851.801 4.90732 -5.75081 0
M  V30 8854 H 853.069 5.89935 -5.09507 0
M  V30 8855 N 857.298 1.47698 0.54982 0
M  V30 8856 C 858.526 1.5833 1.33188 0
M  V30 8857 C 858.941 0.236193 1.87317 0
M  V30 8858 O 858.298 -0.77167 1.65383 0
M  V30 8859 C 858.349 2.61438 2.49664 0
M  V30 8860 O 858.07 3.9092 1.97771 0
M  V30 8861 C 859.571 2.82324 3.41772 0
M  V30 8862 H 856.791 0.53443 0.405741 0
M  V30 8863 H 859.335 1.93375 0.665309 0
M  V30 8864 H 857.49 2.29307 3.12245 0
M  V30 8865 H 857.904 4.47323 2.73866 0
M  V30 8866 H 859.378 3.58316 4.19897 0
M  V30 8867 H 859.855 1.90416 3.95776 0
M  V30 8868 H 860.461 3.15682 2.85 0
M  V30 8869 N 858.776 -0.797141 1.35954 0
M  V30 8870 C 859.723 -1.90944 1.2965 0
M  V30 8871 C 860.693 -1.65262 0.166628 0
M  V30 8872 O 861.878 -1.87527 0.351883 0
M  V30 8873 C 859.018 -3.27637 1.08389 0
M  V30 8874 C 858.131 -3.65442 2.30382 0
M  V30 8875 C 857.266 -4.91213 2.02195 0
M  V30 8876 C 856.305 -5.21674 3.20191 0
M  V30 8877 N 855.442 -6.38627 2.91719 0
M  V30 8878 H 860.282 -1.95668 2.24762 0
M  V30 8879 H 857.819 -0.95696 1.11717 0
M  V30 8880 H 859.777 -4.06451 0.940912 0
M  V30 8881 H 858.407 -3.22355 0.169351 0
M  V30 8882 H 857.459 -2.81813 2.55511 0
M  V30 8883 H 858.771 -3.83907 3.18461 0
M  V30 8884 H 857.925 -5.77876 1.84783 0
M  V30 8885 H 856.664 -4.74803 1.11416 0
M  V30 8886 H 855.669 -4.33498 3.38171 0
M  V30 8887 H 856.894 -5.40009 4.11786 0
M  V30 8888 H 854.84 -6.23623 2.03543 0
M  V30 8889 H 854.757 -6.57387 3.73334 0
M  V30 8890 H 856.025 -7.28292 2.77868 0
M  V30 8891 N 860.254 -1.20106 -1.0204 0
M  V30 8892 C 861.186 -0.904236 -2.10609 0
M  V30 8893 C 862.199 0.106487 -1.62451 0
M  V30 8894 O 863.388 -0.124035 -1.78069 0
M  V30 8895 C 860.488 -0.333423 -3.37256 0
M  V30 8896 C 859.661 -1.39476 -4.14566 0
M  V30 8897 C 858.72 -0.835961 -5.19517 0
M  V30 8898 O 857.746 -1.51573 -5.48648 0
M  V30 8899 N 858.948 0.356531 -5.79404 0
M  V30 8900 H 861.713 -1.8388 -2.36661 0
M  V30 8901 H 859.274 -1.10422 -1.184 0
M  V30 8902 H 861.266 0.0544571 -4.04663 0
M  V30 8903 H 859.836 0.505608 -3.08484 0
M  V30 8904 H 859.056 -1.95714 -3.42184 0
M  V30 8905 H 860.344 -2.10967 -4.63001 0
M  V30 8906 H 859.742 0.926143 -5.58067 0
M  V30 8907 H 858.299 0.686093 -6.48179 0
M  V30 8908 N 861.732 1.21287 -1.00634 0
M  V30 8909 C 862.96 1.94385 -0.708678 0
M  V30 8910 C 863.375 1.7416 0.728957 0
M  V30 8911 O 862.732 1.04906 1.49335 0
M  V30 8912 C 862.783 3.46755 -1.02193 0
M  V30 8913 O 862.504 3.6631 -2.40309 0
M  V30 8914 C 864.005 4.37014 -0.743867 0
M  V30 8915 H 861.225 0.618136 -0.261052 0
M  V30 8916 H 863.769 1.54067 -1.34475 0
M  V30 8917 H 861.924 3.8499 -0.431441 0
M  V30 8918 H 862.338 4.60393 -2.51274 0
M  V30 8919 H 863.812 5.42621 -1.01321 0
M  V30 8920 H 864.289 4.38017 0.322084 0
M  V30 8921 H 864.895 4.04426 -1.31603 0
M  V30 8922 N 863.21 0.781244 1.36873 0
M  V30 8923 C 864.456 0.350407 1.9975 0
M  V30 8924 C 864.789 -1.07293 1.6187 0
M  V30 8925 O 864.064 -1.73983 0.869491 0
M  V30 8926 C 864.347 0.504834 3.56544 0
M  V30 8927 C 864.2 1.97127 4.04303 0
M  V30 8928 C 865.519 -0.0851272 4.40018 0
M  V30 8929 H 862.638 0.128794 0.725659 0
M  V30 8930 H 865.28 0.98606 1.6241 0
M  V30 8931 H 863.43 -0.0363006 3.88483 0
M  V30 8932 H 865.102 2.57284 3.82887 0
M  V30 8933 H 863.345 2.47676 3.56145 0
M  V30 8934 H 864.016 2.03033 5.13305 0
M  V30 8935 H 866.492 0.376704 4.14391 0
M  V30 8936 H 865.368 0.0530015 5.48874 0
M  V30 8937 H 865.629 -1.17642 4.2616 0
M  V30 8938 N 864.689 -1.48329 0.532571 0
M  V30 8939 C 865.652 -2.2816 -0.218069 0
M  V30 8940 C 866.652 -1.35526 -0.865409 0
M  V30 8941 O 867.842 -1.58394 -0.725061 0
M  V30 8942 C 864.974 -3.1448 -1.31586 0
M  V30 8943 H 866.167 -2.95987 0.482865 0
M  V30 8944 H 863.72 -1.53612 0.288603 0
M  V30 8945 H 864.455 -2.5129 -2.04997 0
M  V30 8946 H 864.24 -3.82625 -0.856779 0
M  V30 8947 H 865.73 -3.74693 -1.84377 0
M  V30 8948 N 866.167 -0.267825 -1.55308 0
M  V30 8949 C 867.392 0.357487 -2.04296 0
M  V30 8950 C 867.817 1.49222 -1.14518 0
M  V30 8951 O 867.175 1.80741 -0.142292 0
M  V30 8952 C 867.223 0.822899 -3.51085 0
M  V30 8953 O 866.327 1.93078 -3.6441 0
M  V30 8954 H 865.668 0.075025 -0.659748 0
M  V30 8955 H 868.198 -0.399996 -2.00652 0
M  V30 8956 H 868.208 1.12059 -3.92309 0
M  V30 8957 H 866.883 -0.0073562 -4.15899 0
M  V30 8958 H 865.46 1.63618 -3.35087 0
M  V30 8959 N 867.645 1.57599 0.00500368 0
M  V30 8960 C 868.894 1.89528 0.690061 0
M  V30 8961 C 869.207 0.869451 1.75214 0
M  V30 8962 O 870.413 1.07879 2.49147 0
M  V30 8963 C 868.869 3.36425 1.27852 0
M  V30 8964 C 868.477 4.47293 0.251531 0
M  V30 8965 C 870.221 3.77471 1.94206 0
M  V30 8966 C 868.128 5.85264 0.8497 0
M  V30 8967 H 867.058 0.707201 0.2615 0
M  V30 8968 H 869.709 1.83418 -0.0547209 0
M  V30 8969 H 868.091 3.37356 2.07381 0
M  V30 8970 H 869.265 4.5787 -0.518796 0
M  V30 8971 H 867.58 4.15235 -0.311281 0
M  V30 8972 H 870.177 4.77884 2.39855 0
M  V30 8973 H 870.52 3.10722 2.77051 0
M  V30 8974 H 871.053 3.78817 1.21419 0
M  V30 8975 H 867.792 6.55472 0.0601408 0
M  V30 8976 H 867.312 5.78361 1.5893 0
M  V30 8977 H 868.991 6.32762 1.34984 0
M  V30 8978 N 869.123 -0.277682 1.55134 0
M  V30 8979 C 870.348 -1.03254 1.7987 0
M  V30 8980 C 870.773 -1.79324 0.567861 0
M  V30 8981 O 870.131 -1.74764 -0.4824 0
M  V30 8982 C 870.179 -1.9705 3.02 0
M  V30 8983 O 869.283 -3.05744 2.76757 0
M  V30 8984 H 868.624 -0.295447 0.594649 0
M  V30 8985 H 871.154 -0.308013 2.02268 0
M  V30 8986 H 871.164 -2.3909 3.30606 0
M  V30 8987 H 869.839 -1.41094 3.91236 0
M  V30 8988 H 868.416 -2.68052 2.59235 0
M  V30 8989 N 870.601 -1.47988 -0.541979 0
M  V30 8990 C 871.826 -1.59286 -1.32826 0
M  V30 8991 C 872.251 -0.24894 -1.86445 0
M  V30 8992 O 871.609 0.777581 -1.63778 0
M  V30 8993 C 871.657 -2.6334 -2.46343 0
M  V30 8994 O 870.761 -2.19667 -3.49028 0
M  V30 8995 H 870.102 -0.534543 -0.393903 0
M  V30 8996 H 872.632 -1.93885 -0.653427 0
M  V30 8997 H 872.642 -2.84238 -2.92699 0
M  V30 8998 H 871.317 -3.60913 -2.06675 0
M  V30 8999 H 869.894 -2.08932 -3.08872 0
M  V30 9000 N 872.079 0.78992 -1.36375 0
M  V30 9001 C 873.327 1.54472 -1.30319 0
M  V30 9002 C 873.648 1.94647 0.117338 0
M  V30 9003 O 872.918 1.64906 1.05748 0
M  V30 9004 H 871.498 0.572879 -0.479394 0
M  V30 9005 H 874.16 0.941245 -1.70665 0
M  V30 9006 H 873.256 2.45252 -1.93024 0
M  V30 9007 N 873.557 1.20646 1.01402 0
M  V30 9008 C 874.968 1.01823 1.56489 0
M  V30 9009 C 875.319 -0.42463 1.9155 0
M  V30 9010 O 874.444 -1.30644 1.72514 0
M  V30 9011 C 875.039 1.84208 2.84347 0
M  V30 9012 C 873.598 1.69743 3.35953 0
M  V30 9013 C 872.745 1.8198 2.09233 0
M  V30 9014 H 875.696 1.348 0.837539 0
M  V30 9015 H 875.717 1.34698 3.55861 0
M  V30 9016 H 875.229 2.89215 2.58798 0
M  V30 9017 H 873.33 0.673833 3.66456 0
M  V30 9018 H 873.443 2.51173 4.07981 0
M  V30 9019 H 871.807 1.25193 2.21808 0
M  V30 9020 H 872.59 2.88477 1.86107 0
M  V30 9021 N 875.035 -1.20752 1.01276 0
M  V30 9022 C 875.982 -2.234 0.579732 0
M  V30 9023 C 876.952 -1.61256 -0.398206 0
M  V30 9024 O 878.137 -1.8845 -0.29851 0
M  V30 9025 C 875.277 -3.45008 -0.0797006 0
M  V30 9026 C 874.39 -4.21597 0.942343 0
M  V30 9027 C 873.525 -5.30591 0.254364 0
M  V30 9028 C 872.564 -5.98919 1.26343 0
M  V30 9029 N 871.701 -6.99511 0.602384 0
M  V30 9030 H 876.541 -2.59801 1.45971 0
M  V30 9031 H 874.078 -1.27663 0.730787 0
M  V30 9032 H 876.036 -4.1444 -0.479125 0
M  V30 9033 H 874.666 -3.09312 -0.923354 0
M  V30 9034 H 873.718 -3.51268 1.45996 0
M  V30 9035 H 875.03 -4.68576 1.70992 0
M  V30 9036 H 874.184 -6.06368 -0.200763 0
M  V30 9037 H 872.923 -4.84639 -0.545553 0
M  V30 9038 H 871.928 -5.21906 1.72898 0
M  V30 9039 H 873.153 -6.46957 2.06456 0
M  V30 9040 H 871.099 -6.55759 -0.177734 0
M  V30 9041 H 871.016 -7.44597 1.30809 0
M  V30 9042 H 872.284 -7.79313 0.17072 0
M  V30 9043 N 876.513 -0.788492 -1.36457 0
M  V30 9044 C 877.463 -0.159377 -2.27442 0
M  V30 9045 C 878.447 0.656146 -1.46913 0
M  V30 9046 O 879.639 0.516372 -1.693 0
M  V30 9047 C 876.768 0.705703 -3.35968 0
M  V30 9048 C 875.854 -0.11856 -4.23934 0
M  V30 9049 N 876.245 -1.1726 -4.9202 0
M  V30 9050 C 874.543 0.102752 -4.45882 0
M  V30 9051 C 875.244 -1.6743 -5.57083 0
M  V30 9052 N 874.22 -0.983682 -5.34626 0
M  V30 9053 H 878.022 -0.96614 -2.77566 0
M  V30 9054 H 875.536 -0.627864 -1.49772 0
M  V30 9055 H 877.533 1.17231 -4.00078 0
M  V30 9056 H 876.193 1.51102 -2.87399 0
M  V30 9057 H 877.204 -1.55502 -4.94004 0
M  V30 9058 H 873.881 0.878651 -4.08149 0
M  V30 9059 H 875.271 -2.55423 -6.21457 0
M  V30 9060 N 877.991 1.48044 -0.54043 0
M  V30 9061 C 879.219 2.06895 -0.0145153 0
M  V30 9062 C 879.634 1.39552 1.27164 0
M  V30 9063 O 878.991 0.486454 1.75897 0
M  V30 9064 C 879.042 3.60934 0.202278 0
M  V30 9065 O 878.763 4.25749 -1.03293 0
M  V30 9066 C 880.264 4.36607 0.767387 0
M  V30 9067 H 877.484 0.66991 -0.0382368 0
M  V30 9068 H 880.028 1.90288 -0.749057 0
M  V30 9069 H 878.183 3.77111 0.886897 0
M  V30 9070 H 878.597 5.18048 -0.820167 0
M  V30 9071 H 880.071 5.45126 0.86845 0
M  V30 9072 H 880.548 4.01745 1.77477 0
M  V30 9073 H 881.154 4.25133 0.119002 0
M  V30 9074 N 879.47 0.276058 1.55163 0
M  V30 9075 C 880.402 -0.644254 2.19959 0
M  V30 9076 C 881.415 -1.11675 1.18459 0
M  V30 9077 O 882.604 -1.0385 1.45181 0
M  V30 9078 C 879.704 -1.89093 2.81242 0
M  V30 9079 C 878.877 -1.56509 4.08441 0
M  V30 9080 C 877.936 -2.66433 4.53762 0
M  V30 9081 O 876.962 -2.32579 5.19515 0
M  V30 9082 N 878.164 -3.96509 4.23982 0
M  V30 9083 H 880.929 -0.0896808 2.99566 0
M  V30 9084 H 878.49 0.0971981 1.61608 0
M  V30 9085 H 880.482 -2.61929 3.08505 0
M  V30 9086 H 879.052 -2.35453 2.05622 0
M  V30 9087 H 878.272 -0.670522 3.88455 0
M  V30 9088 H 879.56 -1.32242 4.91314 0
M  V30 9089 H 878.958 -4.26834 3.71254 0
M  V30 9090 H 877.515 -4.6572 4.56014 0
M  V30 9091 N 880.948 -1.576 0.00335426 0
M  V30 9092 C 881.895 -2.08632 -0.986975 0
M  V30 9093 C 882.865 -0.982491 -1.33927 0
M  V30 9094 O 884.05 -1.25513 -1.43705 0
M  V30 9095 C 881.19 -2.59705 -2.27261 0
M  V30 9096 C 880.303 -3.84002 -1.97905 0
M  V30 9097 C 879.438 -4.23563 -3.20574 0
M  V30 9098 C 878.477 -5.40688 -2.8692 0
M  V30 9099 N 877.614 -5.75526 -4.02136 0
M  V30 9100 H 882.454 -2.92977 -0.544855 0
M  V30 9101 H 879.991 -1.44831 -0.257376 0
M  V30 9102 H 881.949 -2.87395 -3.02423 0
M  V30 9103 H 880.579 -1.7823 -2.69136 0
M  V30 9104 H 879.631 -3.63199 -1.13096 0
M  V30 9105 H 880.943 -4.69261 -1.69102 0
M  V30 9106 H 880.097 -4.52554 -4.04079 0
M  V30 9107 H 878.836 -3.37019 -3.52518 0
M  V30 9108 H 877.841 -5.11417 -2.01822 0
M  V30 9109 H 879.066 -6.2891 -2.5622 0
M  V30 9110 H 877.012 -4.9194 -4.33971 0
M  V30 9111 H 876.929 -6.55367 -3.76869 0
M  V30 9112 H 878.197 -6.0911 -4.8642 0
M  V30 9113 N 882.426 0.269451 -1.5528 0
M  V30 9114 C 883.672 1.00206 -1.76314 0
M  V30 9115 C 884.005 1.85812 -0.564581 0
M  V30 9116 O 883.28 1.89509 0.437769 0
M  V30 9117 C 883.563 1.88163 -3.07029 0
M  V30 9118 C 883.416 1.05527 -4.37246 0
M  V30 9119 C 884.735 2.8681 -3.33808 0
M  V30 9120 H 881.854 0.36288 -0.641473 0
M  V30 9121 H 884.496 0.274188 -1.88011 0
M  V30 9122 H 882.646 2.50224 -2.97187 0
M  V30 9123 H 884.318 0.455094 -4.5905 0
M  V30 9124 H 882.561 0.358842 -4.32313 0
M  V30 9125 H 883.232 1.70397 -5.25042 0
M  V30 9126 H 885.708 2.34884 -3.43466 0
M  V30 9127 H 884.584 3.45492 -4.26528 0
M  V30 9128 H 884.845 3.62118 -2.5362 0
M  V30 9129 N 883.904 1.48273 0.534124 0
M  V30 9130 C 885.315 1.49667 1.1161 0
M  V30 9131 C 885.666 0.264139 1.94414 0
M  V30 9132 O 884.791 -0.629084 2.07054 0
M  V30 9133 C 885.386 2.71191 2.03079 0
M  V30 9134 C 883.945 2.7547 2.56502 0
M  V30 9135 C 883.092 2.43119 1.33373 0
M  V30 9136 H 886.043 1.55449 0.319578 0
M  V30 9137 H 886.064 2.49473 2.87304 0
M  V30 9138 H 885.576 3.60879 1.42785 0
M  V30 9139 H 883.677 1.89979 3.20529 0
M  V30 9140 H 883.79 3.76787 2.95919 0
M  V30 9141 H 882.154 1.94187 1.64813 0
M  V30 9142 H 882.937 3.35044 0.748375 0
M  V30 9143 N 885.382 -0.782676 1.36792 0
M  V30 9144 C 886.631 -1.53605 1.30723 0
M  V30 9145 C 886.944 -1.95294 -0.109296 0
M  V30 9146 O 888.15 -2.69921 -0.292398 0
M  V30 9147 C 886.606 -2.77321 2.29393 0
M  V30 9148 C 886.214 -2.42774 3.76517 0
M  V30 9149 C 887.958 -3.55289 2.32314 0
M  V30 9150 C 885.865 -3.62926 4.66947 0
M  V30 9151 H 884.795 -0.576646 0.485794 0
M  V30 9152 H 887.446 -0.858255 1.62192 0
M  V30 9153 H 885.828 -3.46934 1.90927 0
M  V30 9154 H 887.002 -1.81014 4.23758 0
M  V30 9155 H 885.317 -1.78002 3.76436 0
M  V30 9156 H 887.914 -4.44573 2.97083 0
M  V30 9157 H 888.257 -3.94361 1.3336 0
M  V30 9158 H 888.79 -2.92662 2.69432 0
M  V30 9159 H 885.529 -3.28944 5.66989 0
M  V30 9160 H 885.049 -4.23828 4.24418 0
M  V30 9161 H 886.728 -4.29873 4.83548 0
M  V30 9162 N 886.86 -1.21182 -1.00761 0
M  V30 9163 C 887.79 -0.992773 -2.11344 0
M  V30 9164 C 888.771 0.0813618 -1.69905 0
M  V30 9165 O 889.956 -0.0779503 -1.94043 0
M  V30 9166 C 887.086 -0.553826 -3.42856 0
M  V30 9167 C 886.04 -1.57223 -3.98077 0
M  V30 9168 C 885.366 -0.989605 -5.25463 0
M  V30 9169 C 886.666 -2.95839 -4.30438 0
M  V30 9170 H 888.36 -1.91766 -2.29927 0
M  V30 9171 H 885.906 -0.923426 -1.10494 0
M  V30 9172 H 887.859 -0.387771 -4.19612 0
M  V30 9173 H 886.583 0.406702 -3.24058 0
M  V30 9174 H 885.242 -1.7258 -3.23437 0
M  V30 9175 H 884.89 -0.0208743 -5.02996 0
M  V30 9176 H 884.59 -1.66984 -5.63374 0
M  V30 9177 H 886.114 -0.834815 -6.04866 0
M  V30 9178 H 887.528 -2.8394 -4.98047 0
M  V30 9179 H 885.925 -3.60851 -4.79486 0
M  V30 9180 H 886.995 -3.46882 -3.38823 0
M  V30 9181 N 888.338 1.20213 -1.01915 0
M  V30 9182 C 889.566 1.93622 -0.729255 0
M  V30 9183 C 889.981 1.74923 0.710444 0
M  V30 9184 O 889.338 1.06484 1.48214 0
M  V30 9185 C 889.389 3.45651 -1.05865 0
M  V30 9186 O 889.11 3.63741 -2.44181 0
M  V30 9187 C 890.611 4.36201 -0.790176 0
M  V30 9188 H 887.831 0.615333 -0.267594 0
M  V30 9189 H 890.375 1.52633 -1.36101 0
M  V30 9190 H 888.53 3.84511 -0.47225 0
M  V30 9191 H 888.944 4.57702 -2.56143 0
M  V30 9192 H 890.418 5.41516 -1.07071 0
M  V30 9193 H 890.895 4.38334 0.275609 0
M  V30 9194 H 891.501 4.03008 -1.35885 0
M  V30 9195 N 889.816 0.795718 1.36037 0
M  V30 9196 C 890.779 0.204318 2.28287 0
M  V30 9197 C 891.779 -0.602017 1.49105 0
M  V30 9198 O 892.969 -0.422089 1.69009 0
M  V30 9199 C 890.101 -0.716431 3.33287 0
M  V30 9200 H 891.294 1.01781 2.821 0
M  V30 9201 H 888.847 0.565588 1.45708 0
M  V30 9202 H 889.582 -1.55403 2.84641 0
M  V30 9203 H 889.367 -0.140096 3.9185 0
M  V30 9204 H 890.857 -1.12488 4.02164 0
M  V30 9205 N 891.294 -1.47756 0.548274 0
M  V30 9206 C 892.242 -2.3158 -0.217584 0
M  V30 9207 C 893.236 -1.42372 -0.917957 0
M  V30 9208 O 894.442 -1.59184 -0.840259 0
M  V30 9209 H 890.817 -0.74671 -0.0890388 0
M  V30 9210 H 892.788 -2.94032 0.508719 0
M  V30 9211 C 891.537 -3.24834 -1.24008 0
M  V30 9212 H 890.86 -3.93435 -0.710572 0
M  V30 9213 H 892.3 -3.86336 -1.74701 0
M  V30 9214 C 890.759 -2.47724 -2.2833 0
M  V30 9215 O 891.289 -2.21522 -3.35098 0
M  V30 9216 N 889.495 -2.08891 -2.02022 0
M  V30 9217 H 889.042 -2.30401 -1.1521 0
M  V30 9218 H 889 -1.57613 -2.7204 0
M  V30 9219 N 892.772 -0.284283 -1.55015 0
M  V30 9220 C 893.682 0.60906 -2.26556 0
M  V30 9221 C 894.698 1.16246 -1.29472 0
M  V30 9222 O 895.874 1.1908 -1.62425 0
M  V30 9223 C 892.939 1.77246 -2.97968 0
M  V30 9224 C 892 1.25482 -4.10552 0
M  V30 9225 C 891.233 2.36277 -4.78549 0
M  V30 9226 O 891.456 3.55829 -4.45805 0
M  V30 9227 O 890.39 2.03914 -5.66306 0
M  V30 9228 H 894.216 0.0292298 -3.03686 0
M  V30 9229 H 891.801 -0.0513466 -1.49312 0
M  V30 9230 H 893.683 2.45062 -3.42815 0
M  V30 9231 H 892.358 2.33921 -2.23747 0
M  V30 9232 H 891.265 0.542859 -3.7014 0
M  V30 9233 H 892.598 0.733708 -4.86701 0
M  V30 9234 N 894.251 1.57596 -0.0117121 0
M  V30 9235 C 895.479 1.9536 0.681334 0
M  V30 9236 C 895.894 0.887255 1.66653 0
M  V30 9237 O 895.251 -0.132692 1.82017 0
M  V30 9238 C 895.302 3.33165 1.40298 0
M  V30 9239 O 895.023 4.35707 0.45728 0
M  V30 9240 C 896.524 3.85458 2.18946 0
M  V30 9241 H 893.744 0.643826 0.189023 0
M  V30 9242 H 896.288 2.04392 -0.066311 0
M  V30 9243 H 894.443 3.25404 2.10216 0
M  V30 9244 H 894.857 5.15495 0.96773 0
M  V30 9245 H 896.331 4.84275 2.64918 0
M  V30 9246 H 896.808 3.18781 3.02118 0
M  V30 9247 H 897.414 3.96431 1.5402 0
M  V30 9248 N 895.729 -0.261212 1.5542 0
M  V30 9249 C 896.977 -0.989272 1.76232 0
M  V30 9250 C 897.298 -1.86389 0.573067 0
M  V30 9251 O 896.568 -1.91526 -0.41166 0
M  V30 9252 H 895.148 -0.368256 0.64992 0
M  V30 9253 H 897.81 -0.282603 1.9284 0
M  V30 9254 H 896.906 -1.61935 2.66802 0
M  V30 9255 N 897.207 -1.48554 -0.526253 0
M  V30 9256 C 898.17 -1.62868 -1.61266 0
M  V30 9257 C 899.17 -0.501762 -1.52771 0
M  V30 9258 O 900.36 -0.76764 -1.56374 0
M  V30 9259 C 897.492 -1.60238 -3.00893 0
M  V30 9260 H 898.685 -2.59742 -1.49913 0
M  V30 9261 H 896.238 -1.37207 -0.748595 0
M  V30 9262 H 896.973 -0.648545 -3.17749 0
M  V30 9263 H 896.758 -2.42054 -3.08468 0
M  V30 9264 H 898.248 -1.73455 -3.79872 0
M  V30 9265 N 898.685 0.775411 -1.37205 0
M  V30 9266 C 899.913 1.56446 -1.35397 0
M  V30 9267 C 900.328 1.887 0.0615437 0
M  V30 9268 O 899.685 1.51178 1.02233 0
M  V30 9269 C 899.736 2.87697 -2.18889 0
M  V30 9270 O 899.457 2.56828 -3.54924 0
M  V30 9271 C 900.958 3.81944 -2.25019 0
M  V30 9272 H 898.178 0.484792 -0.463916 0
M  V30 9273 H 900.722 0.961346 -1.80495 0
M  V30 9274 H 898.877 3.44442 -1.7731 0
M  V30 9275 H 899.291 3.40851 -3.98649 0
M  V30 9276 H 900.765 4.71055 -2.87769 0
M  V30 9277 H 901.242 4.20811 -1.25757 0
M  V30 9278 H 901.848 3.3113 -2.66895 0
M  V30 9279 N 900.163 1.21714 1.00117 0
M  V30 9280 C 901.096 0.923113 2.08696 0
M  V30 9281 C 902.074 -0.130827 1.62073 0
M  V30 9282 O 903.258 -0.00103064 1.885 0
M  V30 9283 C 900.385 0.386807 3.36484 0
M  V30 9284 C 899.431 1.42414 4.0202 0
M  V30 9285 S 900.264 2.99466 4.43937 0
M  V30 9286 C 901.42 2.47452 5.74907 0
M  V30 9287 H 901.653 1.84258 2.33315 0
M  V30 9288 H 899.186 1.0473 1.1345 0
M  V30 9289 H 901.144 0.0839547 4.10414 0
M  V30 9290 H 899.805 -0.511413 3.09909 0
M  V30 9291 H 898.998 0.998593 4.94008 0
M  V30 9292 H 898.6 1.67527 3.34381 0
M  V30 9293 H 900.892 1.88177 6.50842 0
M  V30 9294 H 901.835 3.37898 6.22279 0
M  V30 9295 H 902.243 1.89027 5.31911 0
M  V30 9296 N 901.641 -1.19671 1.02551 0
M  V30 9297 C 903.052 -1.70964 0.750208 0
M  V30 9298 C 903.403 -1.82095 -0.730461 0
M  V30 9299 O 902.528 -1.48974 -1.56958 0
M  V30 9300 C 903.123 -3.10516 1.35518 0
M  V30 9301 C 901.682 -3.59083 1.12854 0
M  V30 9302 C 900.829 -2.36041 1.45534 0
M  V30 9303 H 903.78 -1.04559 1.19386 0
M  V30 9304 H 903.801 -3.73028 0.750378 0
M  V30 9305 H 903.313 -3.02383 2.43282 0
M  V30 9306 H 901.414 -3.72536 0.0689627 0
M  V30 9307 H 901.527 -4.43395 1.81488 0
M  V30 9308 H 899.891 -2.39214 0.87458 0
M  V30 9309 H 900.674 -2.3054 2.54374 0
M  V30 9310 N 903.119 -0.802921 -1.35613 0
M  V30 9311 C 904.365 -0.382141 -1.99167 0
M  V30 9312 C 904.698 1.04704 -1.63556 0
M  V30 9313 O 903.973 1.72578 -0.89706 0
M  V30 9314 C 904.256 -0.561493 -3.55695 0
M  V30 9315 C 904.109 -2.03534 -4.01116 0
M  V30 9316 C 905.428 0.0151135 -4.40097 0
M  V30 9317 H 902.547 -0.140322 -0.723518 0
M  V30 9318 H 905.189 -1.01177 -1.6082 0
M  V30 9319 H 903.339 -0.0255083 -3.88492 0
M  V30 9320 H 905.011 -2.63343 -3.78746 0
M  V30 9321 H 903.254 -2.5331 -3.52159 0
M  V30 9322 H 903.925 -2.11173 -5.1001 0
M  V30 9323 H 906.401 -0.442582 -4.1374 0
M  V30 9324 H 905.277 -0.140316 -5.48721 0
M  V30 9325 H 905.538 1.10848 -4.27978 0
M  V30 9326 N 904.597 1.47463 -0.556102 0
M  V30 9327 C 905.527 2.32801 0.180497 0
M  V30 9328 C 906.508 1.43721 0.909848 0
M  V30 9329 O 907.693 1.72578 0.89053 0
M  V30 9330 C 904.823 3.25478 1.21167 0
M  V30 9331 C 903.777 4.2379 0.598846 0
M  V30 9332 C 903.103 5.05783 1.73457 0
M  V30 9333 C 904.403 5.20387 -0.446659 0
M  V30 9334 H 906.097 2.94636 -0.531956 0
M  V30 9335 H 903.643 1.41683 -0.257267 0
M  V30 9336 H 905.596 3.8402 1.73513 0
M  V30 9337 H 904.32 2.61695 1.95405 0
M  V30 9338 H 902.979 3.66472 0.0966897 0
M  V30 9339 H 902.627 4.38405 2.46596 0
M  V30 9340 H 902.327 5.72343 1.33031 0
M  V30 9341 H 903.851 5.67183 2.26131 0
M  V30 9342 H 905.265 5.73299 -0.00930019 0
M  V30 9343 H 903.662 5.95143 -0.769735 0
M  V30 9344 H 904.732 4.65932 -1.34295 0
M  V30 9345 N 906.075 0.2925 1.54862 0
M  V30 9346 C 907.486 -0.201841 1.85606 0
M  V30 9347 C 907.837 -1.54093 1.21449 0
M  V30 9348 O 906.962 -2.10327 0.509079 0
M  V30 9349 C 907.557 -0.373011 3.3674 0
M  V30 9350 C 906.116 -0.811574 3.67547 0
M  V30 9351 C 905.263 0.0850583 2.7717 0
M  V30 9352 H 908.214 0.513774 1.50153 0
M  V30 9353 H 908.235 -1.20892 3.60785 0
M  V30 9354 H 907.747 0.601751 3.83407 0
M  V30 9355 H 905.848 -1.79719 3.26392 0
M  V30 9356 H 905.961 -0.636853 4.74848 0
M  V30 9357 H 904.325 -0.434224 2.50971 0
M  V30 9358 H 905.108 1.05602 3.26654 0
M  V30 9359 N 907.553 -1.57587 0.0200696 0
M  V30 9360 C 908.778 -1.96124 -0.674547 0
M  V30 9361 C 909.203 -0.896068 -1.65385 0
M  V30 9362 O 908.561 0.143925 -1.80728 0
M  V30 9363 C 908.609 -3.3376 -1.36517 0
M  V30 9364 O 907.713 -3.29483 -2.48022 0
M  V30 9365 H 907.054 -0.639719 -0.177919 0
M  V30 9366 H 909.584 -2.04447 0.0792317 0
M  V30 9367 H 909.594 -3.69785 -1.72403 0
M  V30 9368 H 908.269 -4.10832 -0.647265 0
M  V30 9369 H 906.846 -3.05162 -2.14314 0
M  V30 9370 N 909.032 0.252966 -1.55557 0
M  V30 9371 C 910.309 1.00432 -1.67847 0
M  V30 9372 C 910.689 2.03587 -0.55816 0
M  V30 9373 O 910.037 2.24239 0.439197 0
M  V30 9374 C 910.247 1.64313 -3.079 0
M  V30 9375 C 911.595 2.14726 -3.66303 0
M  V30 9376 O 912.619 1.74264 -3.10661 0
M  V30 9377 O 911.478 2.89 -4.63833 0
M  V30 9378 H 908.572 0.467102 -0.682455 0
M  V30 9379 H 911.118 0.247233 -1.67889 0
M  V30 9380 H 909.89 0.896681 -3.80888 0
M  V30 9381 H 909.513 2.46657 -3.11843 0
M  V30 9382 N 910.51 1.48831 0.518367 0
M  V30 9383 C 911.735 1.61379 1.30275 0
M  V30 9384 C 912.16 0.278571 1.86026 0
M  V30 9385 O 911.518 -0.751427 1.64995 0
M  V30 9386 C 911.566 2.67225 2.42122 0
M  V30 9387 O 910.67 2.25192 3.45489 0
M  V30 9388 H 910.011 0.540742 0.385349 0
M  V30 9389 H 912.541 1.949 0.622498 0
M  V30 9390 H 912.551 2.88859 2.8814 0
M  V30 9391 H 911.226 3.64155 2.00907 0
M  V30 9392 H 909.803 2.13819 3.05509 0
M  V30 9393 N 911.988 -0.768124 1.37614 0
M  V30 9394 C 913.237 -1.5221 1.32345 0
M  V30 9395 C 913.55 -1.95399 -0.0885761 0
M  V30 9396 O 914.756 -2.70216 -0.263752 0
M  V30 9397 C 913.212 -2.74872 2.32322 0
M  V30 9398 C 912.82 -2.38767 3.79071 0
M  V30 9399 C 914.564 -3.52805 2.36069 0
M  V30 9400 C 912.471 -3.57953 4.7077 0
M  V30 9401 H 911.401 -0.571461 0.491883 0
M  V30 9402 H 914.052 -0.841004 1.63093 0
M  V30 9403 H 912.434 -3.44889 1.94596 0
M  V30 9404 H 913.608 -1.7651 4.25654 0
M  V30 9405 H 911.923 -1.74 3.78303 0
M  V30 9406 H 914.52 -4.41397 3.01782 0
M  V30 9407 H 914.863 -3.92925 1.37535 0
M  V30 9408 H 915.396 -2.89788 2.72521 0
M  V30 9409 H 912.135 -3.22911 5.70446 0
M  V30 9410 H 911.655 -4.19302 4.28889 0
M  V30 9411 H 913.334 -4.2472 4.8808 0
M  V30 9412 N 913.466 -1.22244 -0.994698 0
M  V30 9413 C 914.376 -1.00722 -2.11878 0
M  V30 9414 C 915.392 0.043919 -1.73945 0
M  V30 9415 O 916.568 -0.148411 -2.00852 0
M  V30 9416 C 913.633 -0.585723 -3.41717 0
M  V30 9417 C 912.694 -1.71027 -3.93762 0
M  V30 9418 C 911.927 -1.30879 -5.17403 0
M  V30 9419 O 912.15 -0.18681 -5.70094 0
M  V30 9420 O 911.084 -2.1246 -5.63156 0
M  V30 9421 H 914.91 -1.94894 -2.32916 0
M  V30 9422 H 912.495 -1.00822 -1.10251 0
M  V30 9423 H 914.377 -0.360935 -4.19851 0
M  V30 9424 H 913.052 0.327166 -3.22042 0
M  V30 9425 H 911.959 -1.98956 -3.16808 0
M  V30 9426 H 913.292 -2.60096 -4.17865 0
M  V30 9427 N 914.944 1.19125 -1.03184 0
M  V30 9428 C 916.172 1.92838 -0.74975 0
M  V30 9429 C 916.587 1.75667 0.691851 0
M  V30 9430 O 915.944 1.0805 1.47076 0
M  V30 9431 C 915.995 3.44509 -1.09525 0
M  V30 9432 O 915.716 3.6113 -2.48025 0
M  V30 9433 C 917.217 4.35338 -0.836397 0
M  V30 9434 H 914.437 0.61246 -0.274105 0
M  V30 9435 H 916.981 1.5118 -1.37712 0
M  V30 9436 H 915.136 3.83988 -0.513006 0
M  V30 9437 H 915.55 4.54959 -2.60984 0
M  V30 9438 H 917.024 5.4035 -1.12808 0
M  V30 9439 H 917.501 4.38602 0.229102 0
M  V30 9440 H 918.107 4.01544 -1.40152 0
M  V30 9441 N 916.422 0.810101 1.35185 0
M  V30 9442 C 917.838 0.494269 1.51754 0
M  V30 9443 C 918.038 -0.983907 1.75845 0
M  V30 9444 O 917.094 -1.76882 1.80191 0
M  V30 9445 C 918.407 1.34268 2.69059 0
M  V30 9446 C 919.955 1.33848 2.82938 0
M  V30 9447 C 920.43 2.17109 4.03271 0
M  V30 9448 N 921.921 2.14664 4.10456 0
M  V30 9449 C 922.656 2.75843 5.02691 0
M  V30 9450 N 922.152 3.45962 6.00235 0
M  V30 9451 N 923.945 2.65465 4.95464 0
M  V30 9452 H 916.096 1.76736 1.17805 0
M  V30 9453 H 918.359 0.752429 0.576676 0
M  V30 9454 H 918.065 2.39183 2.57845 0
M  V30 9455 H 917.939 0.998362 3.63748 0
M  V30 9456 H 920.326 0.29716 2.936 0
M  V30 9457 H 920.407 1.72269 1.89095 0
M  V30 9458 H 920.051 3.21283 3.93369 0
M  V30 9459 H 919.981 1.76046 4.96302 0
M  V30 9460 H 922.472 1.63648 3.40628 0
M  V30 9461 H 922.785 3.89922 6.67219 0
M  V30 9462 H 921.13 3.50067 6.00398 0
M  V30 9463 H 924.321 2.1027 4.18215 0
M  V30 9464 H 924.494 3.13433 5.67154 0
M  V30 9465 N 917.9 -1.47166 0.563914 0
M  V30 9466 C 919.128 -2.06846 0.0474287 0
M  V30 9467 C 919.543 -1.41557 -1.24928 0
M  V30 9468 O 918.9 -0.514376 -1.75101 0
M  V30 9469 C 918.951 -3.6121 -0.144831 0
M  V30 9470 O 918.672 -4.24052 1.10053 0
M  V30 9471 C 920.173 -4.37773 -0.69783 0
M  V30 9472 H 917.393 -0.669217 0.0488896 0
M  V30 9473 H 919.937 -1.89072 0.779235 0
M  V30 9474 H 918.092 -3.78474 -0.82679 0
M  V30 9475 H 918.506 -5.16677 0.902481 0
M  V30 9476 H 919.98 -5.46438 -0.781616 0
M  V30 9477 H 920.457 -4.04517 -1.71063 0
M  V30 9478 H 921.063 -4.25269 -0.0513516 0
M  V30 9479 N 919.378 -0.300708 -1.54705 0
M  V30 9480 C 920.606 0.31127 -2.04545 0
M  V30 9481 C 921.021 1.47542 -1.178 0
M  V30 9482 O 920.378 1.81361 -0.203571 0
M  V30 9483 C 920.429 0.767783 -3.53253 0
M  V30 9484 O 920.15 -0.350027 -4.36699 0
M  V30 9485 C 921.651 1.44494 -4.1909 0
M  V30 9486 H 918.871 0.067668 -0.667579 0
M  V30 9487 H 921.415 -0.440254 -1.99705 0
M  V30 9488 H 919.57 1.46933 -3.58454 0
M  V30 9489 H 919.984 0.00534038 -5.245 0
M  V30 9490 H 921.458 1.71553 -5.24665 0
M  V30 9491 H 921.935 2.3849 -3.68808 0
M  V30 9492 H 922.541 0.786581 -4.17963 0
M  V30 9493 N 920.856 1.57574 -0.0284266 0
M  V30 9494 C 922.086 1.95787 0.659617 0
M  V30 9495 C 922.494 0.903475 1.66235 0
M  V30 9496 O 921.837 -0.12329 1.83286 0
M  V30 9497 C 921.899 3.30139 1.42298 0
M  V30 9498 C 921.563 4.53322 0.578658 0
M  V30 9499 C 922.56 5.19696 -0.145751 0
M  V30 9500 C 920.245 4.9964 0.516264 0
M  V30 9501 C 922.239 6.30708 -0.921235 0
M  V30 9502 C 919.926 6.10534 -0.262925 0
M  V30 9503 C 920.924 6.75927 -0.980382 0
M  V30 9504 O 920.612 7.84692 -1.7468 0
M  V30 9505 H 920.344 0.649681 0.186792 0
M  V30 9506 H 922.898 2.05227 -0.0842687 0
M  V30 9507 H 921.128 3.17188 2.21199 0
M  V30 9508 H 922.817 3.53259 1.99906 0
M  V30 9509 H 923.583 4.84882 -0.106876 0
M  V30 9510 H 919.462 4.48547 1.06427 0
M  V30 9511 H 923.006 6.81682 -1.48176 0
M  V30 9512 H 918.903 6.44786 -0.303519 0
M  V30 9513 H 919.671 8.01355 -1.6665 0
M  V30 9514 N 922.334 -0.244713 1.55689 0
M  V30 9515 C 923.267 -1.32946 1.85474 0
M  V30 9516 C 924.245 -1.46279 0.710021 0
M  V30 9517 O 925.429 -1.62459 0.956004 0
M  V30 9518 C 922.556 -2.7027 2.04137 0
M  V30 9519 C 921.602 -2.74075 3.2678 0
M  V30 9520 S 922.435 -2.30465 4.8337 0
M  V30 9521 C 923.591 -3.69709 5.05041 0
M  V30 9522 H 923.824 -1.07482 2.77191 0
M  V30 9523 H 921.357 -0.445807 1.47824 0
M  V30 9524 H 923.315 -3.4934 2.15574 0
M  V30 9525 H 921.976 -2.9297 1.13259 0
M  V30 9526 H 921.169 -3.74932 3.36812 0
M  V30 9527 H 920.771 -2.03051 3.1408 0
M  V30 9528 H 923.063 -4.65222 4.92518 0
M  V30 9529 H 924.006 -3.6461 6.07014 0
M  V30 9530 H 924.414 -3.62323 4.32877 0
M  V30 9531 N 923.813 -1.49104 -0.510467 0
M  V30 9532 C 924.763 -1.6147 -1.6097 0
M  V30 9533 C 925.747 -0.470797 -1.53858 0
M  V30 9534 O 926.939 -0.723266 -1.61548 0
M  V30 9535 C 924.068 -1.67575 -2.99622 0
M  V30 9536 C 923.154 -2.87511 -3.11766 0
M  V30 9537 N 923.545 -4.11704 -2.93826 0
M  V30 9538 C 921.843 -2.85251 -3.42852 0
M  V30 9539 C 922.544 -4.92276 -3.09902 0
M  V30 9540 N 921.52 -4.2546 -3.38355 0
M  V30 9541 H 925.322 -2.5522 -1.45739 0
M  V30 9542 H 922.836 -1.45745 -0.716383 0
M  V30 9543 H 924.833 -1.74531 -3.78609 0
M  V30 9544 H 923.493 -0.749557 -3.1593 0
M  V30 9545 H 924.504 -4.41834 -2.70191 0
M  V30 9546 H 921.181 -2.0197 -3.65396 0
M  V30 9547 H 922.571 -6.00905 -3.00604 0
M  V30 9548 N 925.291 0.760815 -1.38019 0
M  V30 9549 C 926.538 1.51973 -1.3383 0
M  V30 9550 C 926.866 1.9436 0.0738855 0
M  V30 9551 O 926.121 1.65181 1.04946 0
M  V30 9552 C 926.42 2.79024 -2.23339 0
M  V30 9553 C 926.086 2.55636 -3.71431 0
M  V30 9554 C 924.748 2.48966 -4.11788 0
M  V30 9555 C 927.1 2.35018 -4.65205 0
M  V30 9556 C 924.428 2.19684 -5.44018 0
M  V30 9557 C 926.78 2.07258 -5.97685 0
M  V30 9558 C 925.444 1.9904 -6.37134 0
M  V30 9559 H 924.714 0.556108 -0.489719 0
M  V30 9560 H 927.361 0.87545 -1.70318 0
M  V30 9561 H 925.666 3.48065 -1.79883 0
M  V30 9562 H 927.363 3.36951 -2.17405 0
M  V30 9563 H 923.953 2.61695 -3.39432 0
M  V30 9564 H 928.137 2.39154 -4.34878 0
M  V30 9565 H 923.393 2.11825 -5.73533 0
M  V30 9566 H 927.567 1.90307 -6.69893 0
M  V30 9567 H 925.194 1.76115 -7.39519 0
M  V30 9568 N 926.769 1.22769 0.988202 0
M  V30 9569 C 927.717 0.999271 2.10041 0
M  V30 9570 C 928.711 -0.0591767 1.69297 0
M  V30 9571 O 929.917 0.0936653 1.79756 0
M  V30 9572 H 926.292 0.30599 0.686931 0
M  V30 9573 H 928.263 1.94294 2.26478 0
M  V30 9574 C 927.012 0.59873 3.42506 0
M  V30 9575 H 926.335 1.40487 3.74304 0
M  V30 9576 H 927.775 0.478353 4.21293 0
M  V30 9577 C 926.234 -0.692216 3.29712 0
M  V30 9578 O 926.764 -1.74342 3.61895 0
M  V30 9579 N 924.97 -0.665163 2.82885 0
M  V30 9580 H 924.517 0.190604 2.56894 0
M  V30 9581 H 924.475 -1.52917 2.74706 0
M  V30 9582 N 928.247 -1.18576 1.03814 0
M  V30 9583 C 929.495 -1.88121 0.738574 0
M  V30 9584 C 929.816 -1.80587 -0.735744 0
M  V30 9585 O 929.086 -1.22251 -1.53074 0
M  V30 9586 H 927.666 -0.696417 0.270208 0
M  V30 9587 H 930.328 -1.43912 1.31435 0
M  V30 9588 H 929.424 -2.94222 1.04115 0
M  V30 9589 N 929.725 -0.817259 -1.34754 0
M  V30 9590 C 930.95 -0.414423 -2.03217 0
M  V30 9591 C 931.375 0.970037 -1.61158 0
M  V30 9592 O 930.733 1.63016 -0.793436 0
M  V30 9593 C 930.781 -0.518087 -3.56859 0
M  V30 9594 O 929.885 0.464314 -4.09778 0
M  V30 9595 H 929.226 -0.171454 -0.641482 0
M  V30 9596 H 931.756 -1.10611 -1.72123 0
M  V30 9597 H 931.766 -0.391779 -4.06115 0
M  V30 9598 H 930.441 -1.52786 -3.86819 0
M  V30 9599 H 929.018 0.297361 -3.71712 0
M  V30 9600 N 931.203 1.46865 -0.571711 0
M  V30 9601 C 932.113 2.33979 0.170571 0
M  V30 9602 C 933.129 1.49083 0.897239 0
M  V30 9603 O 934.305 1.81979 0.862888 0
M  V30 9604 C 931.37 3.26063 1.17831 0
M  V30 9605 C 930.431 4.26855 0.457499 0
M  V30 9606 C 929.664 5.14539 1.41722 0
M  V30 9607 O 929.887 5.04945 2.65305 0
M  V30 9608 O 928.821 5.94612 0.9338 0
M  V30 9609 H 932.647 2.98781 -0.544396 0
M  V30 9610 H 930.232 1.4566 -0.332198 0
M  V30 9611 H 932.114 3.82903 1.75965 0
M  V30 9612 H 930.789 2.63871 1.87493 0
M  V30 9613 H 929.696 3.73734 -0.165406 0
M  V30 9614 H 931.029 4.91802 -0.197953 0
M  V30 9615 N 932.681 0.308908 1.54543 0
M  V30 9616 C 933.909 -0.300418 2.04707 0
M  V30 9617 C 934.324 -1.46915 1.18581 0
M  V30 9618 O 933.681 -1.81251 0.213186 0
M  V30 9619 C 933.732 -0.749038 3.53655 0
M  V30 9620 O 933.453 0.373181 4.36508 0
M  V30 9621 C 934.954 -1.4227 4.1985 0
M  V30 9622 H 932.174 -0.0641267 0.667929 0
M  V30 9623 H 934.718 0.450839 1.99469 0
M  V30 9624 H 932.873 -1.4503 3.59228 0
M  V30 9625 H 933.287 0.0224752 5.24495 0
M  V30 9626 H 934.761 -1.68768 5.25568 0
M  V30 9627 H 935.238 -2.36531 3.70067 0
M  V30 9628 H 935.844 -0.764404 4.18374 0
M  V30 9629 N 934.159 -1.57557 0.0367827 0
M  V30 9630 C 935.436 -1.83427 -0.679261 0
M  V30 9631 C 935.816 -0.922274 -1.89888 0
M  V30 9632 O 935.164 0.02025 -2.28491 0
M  V30 9633 C 935.374 -3.32823 -1.05022 0
M  V30 9634 C 936.722 -3.99486 -1.43861 0
M  V30 9635 O 937.746 -3.37364 -1.14297 0
M  V30 9636 O 936.605 -5.0899 -1.98977 0
M  V30 9637 H 933.699 -0.756581 -0.333936 0
M  V30 9638 H 936.245 -1.69575 0.0650494 0
M  V30 9639 H 935.017 -3.90874 -0.182509 0
M  V30 9640 H 934.64 -3.5181 -1.85244 0
M  V30 9641 N 935.637 0.236453 -1.55816 0
M  V30 9642 C 936.883 0.964439 -1.784 0
M  V30 9643 C 937.216 1.84573 -0.603868 0
M  V30 9644 O 936.491 1.90395 0.397473 0
M  V30 9645 C 936.774 1.81608 -3.10951 0
M  V30 9646 C 936.627 0.962283 -4.39386 0
M  V30 9647 C 937.946 2.79665 -3.39817 0
M  V30 9648 H 935.065 0.349192 -0.649026 0
M  V30 9649 H 937.707 0.234247 -1.8855 0
M  V30 9650 H 935.857 2.43864 -3.02428 0
M  V30 9651 H 937.529 0.35762 -4.59912 0
M  V30 9652 H 935.772 0.267062 -4.32977 0
M  V30 9653 H 936.443 1.59222 -5.28538 0
M  V30 9654 H 938.919 2.27546 -3.4837 0
M  V30 9655 H 937.795 3.36367 -4.33761 0
M  V30 9656 H 938.056 3.56657 -2.61244 0
M  V30 9657 N 937.115 1.49373 0.502552 0
M  V30 9658 C 938.025 1.68659 1.63068 0
M  V30 9659 C 939.041 0.569182 1.64427 0
M  V30 9660 O 940.217 0.843695 1.82876 0
M  V30 9661 C 937.282 1.74745 2.99441 0
M  V30 9662 C 936.343 2.98311 3.08721 0
M  V30 9663 C 935.576 3.04097 4.38589 0
M  V30 9664 O 935.799 2.17519 5.27297 0
M  V30 9665 O 934.733 3.96544 4.52809 0
M  V30 9666 H 938.559 2.64226 1.49727 0
M  V30 9667 H 936.144 1.33096 0.67867 0
M  V30 9668 H 938.026 1.8111 3.80496 0
M  V30 9669 H 936.701 0.823565 3.13048 0
M  V30 9670 H 935.608 2.97465 2.2686 0
M  V30 9671 H 936.941 3.90174 3.00041 0
M  V30 9672 N 938.594 -0.753485 1.38421 0
M  V30 9673 C 939.834 -1.52544 1.3605 0
M  V30 9674 C 940.198 -1.91937 -0.0493257 0
M  V30 9675 O 941.399 -2.6807 -0.197908 0
M  V30 9676 C 939.67 -2.74432 2.28958 0
M  V30 9677 S 941.229 -3.64297 2.44607 0
M  V30 9678 H 938.047 -0.522017 0.48272 0
M  V30 9679 H 940.649 -0.884503 1.74347 0
M  V30 9680 H 939.353 -2.43602 3.30282 0
M  V30 9681 H 938.884 -3.43471 1.91811 0
M  V30 9682 H 940.899 -4.67245 1.67022 0
M  V30 9683 N 940.072 -1.23292 -0.981677 0
M  V30 9684 C 941.319 -1.06424 -1.72279 0
M  V30 9685 C 941.647 0.399055 -1.90362 0
M  V30 9686 O 940.902 1.31181 -1.45224 0
M  V30 9687 C 941.201 -1.73339 -3.12551 0
M  V30 9688 C 940.867 -3.23256 -3.14351 0
M  V30 9689 C 939.529 -3.64159 -3.14549 0
M  V30 9690 C 941.881 -4.1916 -3.09765 0
M  V30 9691 C 939.209 -4.99428 -3.07877 0
M  V30 9692 C 941.561 -5.54419 -3.04635 0
M  V30 9693 C 940.225 -5.94688 -3.03154 0
M  V30 9694 H 939.495 -0.389434 -0.630415 0
M  V30 9695 H 942.142 -1.53208 -1.1489 0
M  V30 9696 H 940.447 -1.18911 -3.73319 0
M  V30 9697 H 942.144 -1.57767 -3.68661 0
M  V30 9698 H 938.734 -2.90693 -3.14953 0
M  V30 9699 H 942.918 -3.88569 -3.08753 0
M  V30 9700 H 938.174 -5.29844 -3.05083 0
M  V30 9701 H 942.348 -6.28448 -3.00043 0
M  V30 9702 H 939.975 -6.99468 -2.97739 0
M  V30 9703 N 941.55 1.18024 -1.04442 0
M  V30 9704 C 942.48 2.23988 -0.659683 0
M  V30 9705 C 943.461 1.6669 0.338904 0
M  V30 9706 O 944.646 1.92971 0.21817 0
M  V30 9707 C 941.776 3.4729 -0.0257672 0
M  V30 9708 C 940.73 4.17362 -0.948299 0
M  V30 9709 C 940.056 5.34401 -0.17866 0
M  V30 9710 C 941.356 4.70435 -2.26909 0
M  V30 9711 H 943.05 2.56425 -1.54553 0
M  V30 9712 H 940.596 1.23256 -0.744575 0
M  V30 9713 H 942.549 4.20627 0.255131 0
M  V30 9714 H 941.273 3.14098 0.894981 0
M  V30 9715 H 939.932 3.45928 -1.21364 0
M  V30 9716 H 939.58 4.97458 0.744614 0
M  V30 9717 H 939.28 5.8222 -0.793294 0
M  V30 9718 H 940.804 6.10526 0.0951315 0
M  V30 9719 H 942.218 5.35447 -2.04864 0
M  V30 9720 H 940.615 5.28803 -2.83703 0
M  V30 9721 H 941.685 3.87653 -2.91296 0
M  V30 9722 N 943.028 0.824394 1.34319 0
M  V30 9723 C 944.276 0.41235 1.97849 0
M  V30 9724 C 944.597 -1.02841 1.65677 0
M  V30 9725 O 943.867 -1.71421 0.948245 0
M  V30 9726 H 942.447 0.149486 0.73189 0
M  V30 9727 H 945.109 1.05416 1.63931 0
M  V30 9728 H 944.205 0.532557 3.07523 0
M  V30 9729 N 944.506 -1.46559 0.579492 0
M  V30 9730 C 945.922 -1.57771 0.240921 0
M  V30 9731 C 946.122 -1.57505 -1.25676 0
M  V30 9732 O 945.178 -1.4903 -2.03829 0
M  V30 9733 C 946.491 -2.87311 0.887285 0
M  V30 9734 C 948.039 -3.00937 0.860576 0
M  V30 9735 C 948.514 -4.33208 1.48642 0
M  V30 9736 N 950.005 -4.39899 1.45062 0
M  V30 9737 C 950.74 -5.40856 1.90428 0
M  V30 9738 N 950.236 -6.48503 2.43752 0
M  V30 9739 N 952.029 -5.32037 1.81364 0
M  V30 9740 H 944.18 -1.44976 1.55228 0
M  V30 9741 H 946.443 -0.691354 0.648639 0
M  V30 9742 H 946.149 -2.93307 1.94071 0
M  V30 9743 H 946.023 -3.75141 0.393577 0
M  V30 9744 H 948.41 -2.94524 -0.184223 0
M  V30 9745 H 948.491 -2.14591 1.39227 0
M  V30 9746 H 948.135 -4.40378 2.5304 0
M  V30 9747 H 948.065 -5.18323 0.92998 0
M  V30 9748 H 950.556 -3.62706 1.0608 0
M  V30 9749 H 950.869 -7.21744 2.76234 0
M  V30 9750 H 949.214 -6.49332 2.47776 0
M  V30 9751 H 952.405 -4.46841 1.39465 0
M  V30 9752 H 952.578 -6.10573 2.17035 0
M  V30 9753 N 945.984 -0.3171 -1.54377 0
M  V30 9754 C 946.947 0.53905 -2.22771 0
M  V30 9755 C 947.947 1.04865 -1.21901 0
M  V30 9756 O 949.137 0.942108 -1.46526 0
M  V30 9757 C 946.269 1.74804 -2.92671 0
M  V30 9758 H 947.462 -0.0587417 -2.99842 0
M  V30 9759 H 945.015 -0.068107 -1.56152 0
M  V30 9760 H 945.75 2.38524 -2.1972 0
M  V30 9761 H 945.535 1.39011 -3.66631 0
M  V30 9762 H 947.025 2.35592 -3.44799 0
M  V30 9763 N 947.462 1.57535 -0.0451378 0
M  V30 9764 C 948.425 2.1008 0.916461 0
M  V30 9765 C 949.425 1.01913 1.2438 0
M  V30 9766 O 950.615 1.2801 1.18148 0
M  V30 9767 C 947.747 2.58001 2.22818 0
M  V30 9768 H 948.94 2.96334 0.461076 0
M  V30 9769 H 946.493 1.54974 0.203169 0
M  V30 9770 H 947.228 1.75123 2.72951 0
M  V30 9771 H 947.013 3.3704 2.00366 0
M  V30 9772 H 948.503 2.98822 2.9171 0
M  V30 9773 N 948.94 -0.228186 1.55939 0
M  V30 9774 C 950.18 -0.960695 1.80416 0
M  V30 9775 C 950.544 -1.81795 0.617615 0
M  V30 9776 O 951.745 -2.58369 0.741545 0
M  V30 9777 C 950.016 -1.78298 3.09749 0
M  V30 9778 S 951.575 -2.57203 3.55517 0
M  V30 9779 H 948.393 -0.322825 0.633486 0
M  V30 9780 H 950.995 -0.226852 1.94179 0
M  V30 9781 H 949.699 -1.14323 3.94155 0
M  V30 9782 H 949.23 -2.55924 2.98775 0
M  V30 9783 H 951.245 -3.80632 3.1833 0
M  V30 9784 N 950.418 -1.49637 -0.494624 0
M  V30 9785 C 951.664 -1.59681 -1.25019 0
M  V30 9786 C 951.997 -0.285511 -1.9209 0
M  V30 9787 O 951.272 0.711398 -1.81023 0
M  V30 9788 C 951.555 -2.76058 -2.31222 0
M  V30 9789 C 951.408 -4.17002 -1.68611 0
M  V30 9790 C 952.727 -2.88056 -3.32734 0
M  V30 9791 H 949.846 -0.581209 -0.453172 0
M  V30 9792 H 952.488 -1.81944 -0.547391 0
M  V30 9793 H 950.638 -2.57207 -2.91164 0
M  V30 9794 H 952.31 -4.47385 -1.12447 0
M  V30 9795 H 950.553 -4.22352 -0.989991 0
M  V30 9796 H 951.224 -4.94316 -2.45674 0
M  V30 9797 H 953.7 -3.05237 -2.82789 0
M  V30 9798 H 952.576 -3.71151 -4.04399 0
M  V30 9799 H 952.837 -1.97676 -3.95445 0
M  V30 9800 N 951.896 0.746133 -1.38819 0
M  V30 9801 C 952.846 1.85085 -1.33145 0
M  V30 9802 C 953.83 1.59466 -0.214339 0
M  V30 9803 O 955.022 1.71159 -0.450943 0
M  V30 9804 C 952.151 3.22884 -1.16623 0
M  V30 9805 C 951.237 3.54369 -2.32988 0
M  V30 9806 N 951.628 3.56863 -3.58445 0
M  V30 9807 C 949.926 3.84674 -2.25703 0
M  V30 9808 C 950.627 3.85827 -4.3533 0
M  V30 9809 N 949.603 4.03037 -3.64777 0
M  V30 9810 H 953.405 1.85301 -2.28124 0
M  V30 9811 H 950.919 0.943847 -1.32156 0
M  V30 9812 H 952.916 4.0195 -1.10642 0
M  V30 9813 H 951.576 3.23914 -0.225841 0
M  V30 9814 H 952.587 3.38443 -3.92017 0
M  V30 9815 H 949.264 3.93375 -1.39864 0
M  V30 9816 H 950.654 3.94317 -5.44025 0
M  V30 9817 N 953.375 1.23811 0.975125 0
M  V30 9818 C 954.621 1.07495 1.71967 0
M  V30 9819 C 954.954 -0.386451 1.90316 0
M  V30 9820 O 954.229 -1.28591 1.45927 0
M  V30 9821 C 954.512 1.80694 3.11483 0
M  V30 9822 C 954.365 3.3454 3.00671 0
M  V30 9823 C 955.684 1.57367 4.11003 0
M  V30 9824 H 952.803 0.3919 0.624166 0
M  V30 9825 H 955.445 1.52383 1.13487 0
M  V30 9826 H 953.595 1.42538 3.61407 0
M  V30 9827 H 955.267 3.8225 2.5823 0
M  V30 9828 H 953.51 3.63301 2.37054 0
M  V30 9829 H 954.181 3.80951 3.99475 0
M  V30 9830 H 956.657 1.90545 3.69908 0
M  V30 9831 H 955.533 2.11052 5.06703 0
M  V30 9832 H 955.794 0.510221 4.39146 0
M  V30 9833 N 954.853 -1.17469 1.05066 0
M  V30 9834 C 956.081 -1.9162 0.780334 0
M  V30 9835 C 956.496 -1.76745 -0.663817 0
M  V30 9836 O 955.853 -1.10377 -1.45338 0
M  V30 9837 C 955.904 -3.42723 1.14992 0
M  V30 9838 O 955.625 -3.57139 2.53739 0
M  V30 9839 C 957.126 -4.33952 0.905549 0
M  V30 9840 H 954.346 -0.608022 0.283814 0
M  V30 9841 H 956.89 -1.4897 1.401 0
M  V30 9842 H 955.045 -3.83124 0.57403 0
M  V30 9843 H 955.459 -4.5075 2.68189 0
M  V30 9844 H 956.933 -5.38487 1.21391 0
M  V30 9845 H 957.41 -4.38911 -0.159295 0
M  V30 9846 H 958.016 -3.99263 1.46522 0
M  V30 9847 N 956.331 -0.831506 -1.3388 0
M  V30 9848 C 957.241 -0.261688 -2.33136 0
M  V30 9849 C 958.257 0.608429 -1.63016 0
M  V30 9850 O 959.433 0.514297 -1.94723 0
M  V30 9851 C 956.498 0.559957 -3.42148 0
M  V30 9852 C 955.559 -0.333569 -4.28002 0
M  V30 9853 C 954.792 0.448956 -5.31808 0
M  V30 9854 O 955.015 1.6814 -5.45055 0
M  V30 9855 O 953.949 -0.173197 -6.01651 0
M  V30 9856 H 957.775 -1.08343 -2.83717 0
M  V30 9857 H 955.36 -0.593849 -1.3709 0
M  V30 9858 H 957.242 1.02712 -4.08691 0
M  V30 9859 H 955.917 1.35888 -2.93796 0
M  V30 9860 H 954.824 -0.848416 -3.64352 0
M  V30 9861 H 956.157 -1.09707 -4.79818 0
M  V30 9862 N 957.809 1.4625 -0.587256 0
M  V30 9863 C 959.058 2.01571 -0.0722643 0
M  V30 9864 C 959.371 1.46385 1.29733 0
M  V30 9865 O 960.577 1.93554 1.90392 0
M  V30 9866 C 959.033 3.59814 -0.078579 0
M  V30 9867 C 958.641 4.23996 -1.44678 0
M  V30 9868 C 960.385 4.22776 0.382231 0
M  V30 9869 C 958.292 5.74332 -1.41057 0
M  V30 9870 H 957.222 0.753642 -0.0232461 0
M  V30 9871 H 959.873 1.67936 -0.739577 0
M  V30 9872 H 958.255 3.90546 0.654988 0
M  V30 9873 H 959.429 4.04867 -2.20043 0
M  V30 9874 H 957.744 3.73147 -1.84799 0
M  V30 9875 H 960.341 5.32983 0.428182 0
M  V30 9876 H 960.684 3.92027 1.40072 0
M  V30 9877 H 961.217 3.96687 -0.297417 0
M  V30 9878 H 957.956 6.09747 -2.40601 0
M  V30 9879 H 957.476 5.95711 -0.699185 0
M  V30 9880 H 959.155 6.37137 -1.12543 0
M  V30 9881 N 959.287 0.325282 1.54207 0
M  V30 9882 C 960.219 -0.57395 2.21897 0
M  V30 9883 C 961.232 -1.0785 1.21952 0
M  V30 9884 O 962.421 -0.991782 1.48411 0
M  V30 9885 C 959.521 -1.8005 2.87115 0
M  V30 9886 C 958.694 -1.43435 4.13213 0
M  V30 9887 C 957.753 -2.51862 4.62009 0
M  V30 9888 O 956.779 -2.15934 5.26651 0
M  V30 9889 N 957.981 -3.8282 4.36382 0
M  V30 9890 H 960.746 0.00566918 2.99699 0
M  V30 9891 H 958.307 0.148563 1.61217 0
M  V30 9892 H 960.299 -2.51981 3.16682 0
M  V30 9893 H 958.869 -2.28792 2.13009 0
M  V30 9894 H 958.089 -0.546598 3.90392 0
M  V30 9895 H 959.377 -1.16544 4.95273 0
M  V30 9896 H 958.775 -4.14807 3.84645 0
M  V30 9897 H 957.332 -4.50976 4.70599 0
M  V30 9898 N 960.765 -1.57509 0.0534917 0
M  V30 9899 C 961.713 -2.12851 -0.937931 0
M  V30 9900 C 962.707 -1.06088 -1.32067 0
M  V30 9901 O 963.913 -1.24494 -1.30005 0
M  V30 9902 H 960.288 -0.680357 -0.320342 0
M  V30 9903 H 962.259 -2.95047 -0.446077 0
M  V30 9904 C 961.008 -2.69034 -2.20264 0
M  V30 9905 H 960.331 -3.50848 -1.91693 0
M  V30 9906 H 961.771 -3.11375 -2.87788 0
M  V30 9907 C 960.23 -1.62919 -2.94888 0
M  V30 9908 O 960.76 -1.04334 -3.87914 0
M  V30 9909 N 958.966 -1.34385 -2.57661 0
M  V30 9910 H 958.513 -1.82214 -1.82088 0
M  V30 9911 H 958.471 -0.636149 -3.07897 0
M  V30 9912 N 962.243 0.219913 -1.56058 0
M  V30 9913 C 963.19 1.27254 -1.92549 0
M  V30 9914 C 964.16 1.46493 -0.782883 0
M  V30 9915 O 965.345 1.60035 -1.03892 0
M  V30 9916 C 962.485 2.61756 -2.24896 0
M  V30 9917 C 961.598 2.50302 -3.52098 0
M  V30 9918 C 960.733 3.77338 -3.73884 0
M  V30 9919 C 959.772 3.60613 -4.94595 0
M  V30 9920 N 958.909 4.79603 -5.12763 0
M  V30 9921 H 963.749 0.954352 -2.82305 0
M  V30 9922 H 961.286 0.459928 -1.39725 0
M  V30 9923 H 963.244 3.40082 -2.4166 0
M  V30 9924 H 961.874 2.91668 -1.38311 0
M  V30 9925 H 960.926 1.63401 -3.43517 0
M  V30 9926 H 962.238 2.33866 -4.40577 0
M  V30 9927 H 961.392 4.64108 -3.90754 0
M  V30 9928 H 960.131 3.96702 -2.83689 0
M  V30 9929 H 959.136 2.72228 -4.77674 0
M  V30 9930 H 960.361 3.42719 -5.86277 0
M  V30 9931 H 958.307 4.99277 -4.2551 0
M  V30 9932 H 958.224 4.65899 -5.95377 0
M  V30 9933 H 959.492 5.67794 -5.34069 0
M  V30 9934 N 963.721 1.49897 0.486681 0
M  V30 9935 C 964.998 1.50614 1.24799 0
M  V30 9936 C 965.378 0.24193 2.09709 0
M  V30 9937 O 964.726 -0.775237 2.14947 0
M  V30 9938 C 964.936 2.79318 2.09243 0
M  V30 9939 C 966.284 3.29371 2.67955 0
M  V30 9940 O 967.308 2.80533 2.19499 0
M  V30 9941 O 966.167 4.14466 3.56202 0
M  V30 9942 H 963.261 0.603447 0.565491 0
M  V30 9943 H 965.807 1.62174 0.499778 0
M  V30 9944 H 964.579 3.62812 1.46572 0
M  V30 9945 H 964.202 2.70687 2.91229 0
M  V30 9946 N 965.199 -0.738761 1.39212 0
M  V30 9947 C 966.162 -1.83441 1.37412 0
M  V30 9948 C 967.162 -1.58484 0.271908 0
M  V30 9949 O 968.352 -1.65954 0.529609 0
M  V30 9950 C 965.484 -3.21167 1.143 0
M  V30 9951 H 966.677 -1.86441 2.34904 0
M  V30 9952 H 964.23 -0.942023 1.24722 0
M  V30 9953 H 964.965 -3.23829 0.174756 0
M  V30 9954 H 964.75 -3.40678 1.94116 0
M  V30 9955 H 966.24 -4.01231 1.15773 0
M  V30 9956 N 966.677 -1.24326 -0.968545 0
M  V30 9957 C 967.905 -1.10947 -1.74638 0
M  V30 9958 C 968.32 0.338064 -1.85749 0
M  V30 9959 O 967.677 1.23331 -1.3452 0
M  V30 9960 C 967.728 -1.74254 -3.1673 0
M  V30 9961 O 967.449 -3.13347 -3.06178 0
M  V30 9962 C 968.95 -1.66473 -4.10855 0
M  V30 9963 H 966.17 -0.38767 -0.547679 0
M  V30 9964 H 968.714 -1.64415 -1.21605 0
M  V30 9965 H 966.869 -1.2479 -3.66751 0
M  V30 9966 H 967.283 -3.44255 -3.95713 0
M  V30 9967 H 968.757 -2.15452 -5.08217 0
M  V30 9968 H 969.234 -0.625785 -4.34719 0
M  V30 9969 H 969.84 -2.15359 -3.66743 0
M  V30 9970 N 968.156 1.1691 -1.05688 0
M  V30 9971 C 969.404 1.86922 -0.768409 0
M  V30 9972 C 969.725 1.81735 0.706921 0
M  V30 9973 O 968.995 1.24671 1.51109 0
M  V30 9974 H 967.575 0.69203 -0.281253 0
M  V30 9975 H 970.237 1.41803 -1.33708 0
M  V30 9976 H 969.333 2.92528 -1.08783 0
M  V30 9977 N 969.634 0.838594 1.33437 0
M  V30 9978 C 970.883 0.430484 1.97053 0
M  V30 9979 C 971.196 -1.01556 1.6717 0
M  V30 9980 O 972.402 -1.52834 2.24397 0
M  V30 9981 C 970.858 0.718828 3.52648 0
M  V30 9982 C 970.466 2.17953 3.91408 0
M  V30 9983 C 972.21 0.377654 4.22817 0
M  V30 9984 C 970.117 2.41194 5.39981 0
M  V30 9985 H 969.047 0.157239 0.737422 0
M  V30 9986 H 971.698 1.02714 1.5206 0
M  V30 9987 H 970.08 0.0518042 3.95966 0
M  V30 9988 H 971.254 2.88701 3.59149 0
M  V30 9989 H 969.569 2.48366 3.34221 0
M  V30 9990 H 972.166 0.528926 5.32077 0
M  V30 9991 H 972.509 -0.679338 4.1072 0
M  V30 9992 H 973.042 0.999899 3.85028 0
M  V30 9993 H 969.781 3.45457 5.57081 0
M  V30 9994 H 969.301 1.75007 5.73701 0
M  V30 9995 H 970.98 2.24334 6.06863 0
M  V30 9996 N 971.112 -1.45937 0.595003 0
M  V30 9997 C 972.389 -1.95592 0.0178748 0
M  V30 9998 C 972.769 -1.53758 -1.44643 0
M  V30 9999 O 972.117 -0.794104 -2.14257 0
M  V30 10000 C 972.327 -3.4841 0.202789 0
M  V30 10001 C 973.675 -4.2453 0.0770121 0
M  V30 10002 O 974.699 -3.55954 0.132257 0
M  V30 10003 O 973.558 -5.46479 -0.0484271 0
M  V30 10004 H 970.652 -0.825888 -0.0428702 0
M  V30 10005 H 973.198 -1.56162 0.664184 0
M  V30 10006 H 971.97 -3.71787 1.22027 0
M  V30 10007 H 971.593 -3.947 -0.479376 0
M  V30 10008 N 972.59 -0.333456 -1.54032 0
M  V30 10009 C 973.538 0.543414 -2.26163 0
M  V30 10010 C 974.532 1.11037 -1.27934 0
M  V30 10011 O 975.738 1.05727 -1.45677 0
M  V30 10012 H 972.113 0.19391 -0.726569 0
M  V30 10013 H 974.084 -0.0871052 -2.98273 0
M  V30 10014 C 972.833 1.68769 -3.03994 0
M  V30 10015 H 972.156 1.26069 -3.79403 0
M  V30 10016 H 973.596 2.27662 -3.57695 0
M  V30 10017 C 972.055 2.61117 -2.12884 0
M  V30 10018 O 972.585 3.63097 -1.71823 0
M  V30 10019 N 970.791 2.29573 -1.7817 0
M  V30 10020 H 970.338 1.46684 -2.11759 0
M  V30 10021 H 970.296 2.91622 -1.1749 0
M  V30 10022 N 974.068 1.57479 -0.061844 0
M  V30 10023 C 975.018 2.0867 0.918749 0
M  V30 10024 C 976.002 0.994174 1.26511 0
M  V30 10025 O 977.194 1.25738 1.24575 0
M  V30 10026 C 974.323 2.64386 2.18986 0
M  V30 10027 C 973.409 3.80626 1.87042 0
M  V30 10028 N 973.8 4.89982 1.25504 0
M  V30 10029 C 972.098 3.89733 2.1685 0
M  V30 10030 C 972.799 5.70928 1.11429 0
M  V30 10031 N 971.775 5.18877 1.62072 0
M  V30 10032 H 975.577 2.90611 0.438469 0
M  V30 10033 H 973.091 1.61775 0.142321 0
M  V30 10034 H 975.088 2.9937 2.90144 0
M  V30 10035 H 973.748 1.83888 2.67611 0
M  V30 10036 H 974.759 5.09556 0.925914 0
M  V30 10037 H 971.436 3.20194 2.67921 0
M  V30 10038 H 972.826 6.68886 0.635665 0
M  V30 10039 N 975.546 -0.211634 1.56173 0
M  V30 10040 C 976.962 -0.56177 1.49386 0
M  V30 10041 C 977.162 -1.86666 0.758813 0
M  V30 10042 O 976.218 -2.50681 0.302534 0
M  V30 10043 C 977.531 -0.631815 2.93987 0
M  V30 10044 C 979.079 -0.721773 3.04564 0
M  V30 10045 C 979.554 -0.823075 4.50544 0
M  V30 10046 N 981.045 -0.887038 4.54627 0
M  V30 10047 C 981.78 -0.985304 5.64871 0
M  V30 10048 N 981.276 -1.0469 6.84844 0
M  V30 10049 N 983.069 -1.02121 5.52746 0
M  V30 10050 H 975.22 0.64452 2.02385 0
M  V30 10051 H 977.483 0.227466 0.920306 0
M  V30 10052 H 977.189 0.257592 3.50755 0
M  V30 10053 H 977.063 -1.4921 3.46433 0
M  V30 10054 H 979.45 -1.60162 2.47855 0
M  V30 10055 H 979.531 0.164385 2.55271 0
M  V30 10056 H 979.175 0.0523511 5.07873 0
M  V30 10057 H 979.105 -1.72479 4.97552 0
M  V30 10058 H 981.596 -0.849352 3.68231 0
M  V30 10059 H 981.909 -1.12193 7.64613 0
M  V30 10060 H 980.254 -1.01586 6.87536 0
M  V30 10061 H 983.445 -0.969814 4.57943 0
M  V30 10062 H 983.618 -1.09434 6.38693 0
M  V30 10063 N 977.024 -1.50153 -0.478725 0
M  V30 10064 C 977.934 -1.71232 -1.60364 0
M  V30 10065 C 978.95 -0.595269 -1.63501 0
M  V30 10066 O 980.126 -0.872683 -1.81511 0
M  V30 10067 C 977.191 -1.79487 -2.96623 0
M  V30 10068 C 976.252 -3.03185 -3.03937 0
M  V30 10069 C 975.485 -3.11036 -4.33696 0
M  V30 10070 O 975.708 -2.2588 -5.23769 0
M  V30 10071 O 974.642 -4.03698 -4.46443 0
M  V30 10072 H 978.468 -2.66575 -1.45505 0
M  V30 10073 H 976.053 -1.34158 -0.65741 0
M  V30 10074 H 977.935 -1.8714 -3.77567 0
M  V30 10075 H 976.61 -0.873264 -3.11698 0
M  V30 10076 H 975.517 -3.01036 -2.22099 0
M  V30 10077 H 976.85 -3.94898 -2.93796 0
M  V30 10078 N 978.502 0.731368 -1.39602 0
M  V30 10079 C 979.465 1.8271 -1.38383 0
M  V30 10080 C 980.465 1.58338 -0.280309 0
M  V30 10081 O 981.655 1.65671 -0.538402 0
M  V30 10082 C 978.787 3.20556 -1.16002 0
M  V30 10083 H 979.98 1.85193 -2.35889 0
M  V30 10084 H 977.533 0.935396 -1.2522 0
M  V30 10085 H 978.268 3.23732 -0.191927 0
M  V30 10086 H 978.053 3.39643 -1.9592 0
M  V30 10087 H 979.543 4.00612 -1.17899 0
M  V30 10088 N 979.98 1.24838 0.961938 0
M  V30 10089 C 980.927 1.04582 2.05745 0
M  V30 10090 C 981.897 -0.0427281 1.66045 0
M  V30 10091 O 983.082 0.113026 1.90465 0
M  V30 10092 C 980.222 0.66284 3.38675 0
M  V30 10093 C 979.335 1.82548 3.91536 0
M  V30 10094 C 978.47 1.38753 5.12758 0
M  V30 10095 C 977.509 2.51976 5.5783 0
M  V30 10096 N 976.646 2.09009 6.70268 0
M  V30 10097 H 981.486 1.98343 2.22405 0
M  V30 10098 H 979.023 0.987822 1.08998 0
M  V30 10099 H 980.981 0.421788 4.15062 0
M  V30 10100 H 979.611 -0.237776 3.21923 0
M  V30 10101 H 978.663 2.18004 3.11735 0
M  V30 10102 H 979.975 2.67601 4.20941 0
M  V30 10103 H 979.129 1.1057 5.96539 0
M  V30 10104 H 977.868 0.507618 4.85051 0
M  V30 10105 H 976.873 2.80912 4.72619 0
M  V30 10106 H 978.098 3.40534 5.87549 0
M  V30 10107 H 976.044 1.23423 6.44285 0
M  V30 10108 H 975.961 2.87613 6.99153 0
M  V30 10109 H 977.229 1.83981 7.57477 0
M  V30 10110 N 981.458 -1.16348 1.06306 0
M  V30 10111 C 982.388 -2.2291 0.695234 0
M  V30 10112 C 983.369 -1.67208 -0.312343 0
M  V30 10113 O 984.554 -1.93293 -0.187442 0
M  V30 10114 C 981.684 -3.47205 0.0810149 0
M  V30 10115 C 980.638 -4.15801 1.01458 0
M  V30 10116 C 979.964 -5.3405 0.263656 0
M  V30 10117 C 981.264 -4.66766 2.34365 0
M  V30 10118 H 982.958 -2.53934 1.58613 0
M  V30 10119 H 980.504 -1.22056 0.76409 0
M  V30 10120 H 982.457 -4.2098 -0.18818 0
M  V30 10121 H 981.181 -3.15482 -0.844897 0
M  V30 10122 H 979.84 -3.43954 1.26852 0
M  V30 10123 H 979.488 -4.9858 -0.665378 0
M  V30 10124 H 979.188 -5.80885 0.88582 0
M  V30 10125 H 980.712 -6.106 0.00200994 0
M  V30 10126 H 982.126 -5.3212 2.13356 0
M  V30 10127 H 980.523 -5.24223 2.9208 0
M  V30 10128 H 981.593 -3.82969 2.97426 0
M  V30 10129 N 982.937 -0.845659 -1.3299 0
M  V30 10130 C 984.184 -0.444653 -1.97558 0
M  V30 10131 C 984.512 0.997682 -1.66963 0
M  V30 10132 O 983.767 1.71349 -0.94541 0
M  V30 10133 C 984.066 -0.6201 -3.51979 0
M  V30 10134 C 983.732 -2.03155 -4.02541 0
M  V30 10135 C 982.394 -2.4176 -4.16059 0
M  V30 10136 C 984.746 -2.95317 -4.29462 0
M  V30 10137 C 982.074 -3.71818 -4.53837 0
M  V30 10138 C 984.426 -4.24863 -4.68694 0
M  V30 10139 C 983.09 -4.63416 -4.80419 0
M  V30 10140 H 982.36 -0.16271 -0.722915 0
M  V30 10141 H 985.007 -1.07399 -1.58549 0
M  V30 10142 H 983.312 0.092513 -3.91691 0
M  V30 10143 H 985.009 -0.290012 -3.9995 0
M  V30 10144 H 981.599 -1.72174 -3.92497 0
M  V30 10145 H 985.783 -2.66726 -4.18534 0
M  V30 10146 H 981.039 -4.01484 -4.61108 0
M  V30 10147 H 985.213 -4.96347 -4.8848 0
M  V30 10148 H 982.84 -5.6424 -5.09448 0
M  V30 10149 N 984.415 1.45619 -0.602734 0
M  V30 10150 C 985.363 2.32228 0.131484 0
M  V30 10151 C 986.357 1.45681 0.864484 0
M  V30 10152 O 987.563 1.62193 0.7806 0
M  V30 10153 H 983.938 0.7495 0.0612638 0
M  V30 10154 H 985.909 2.91941 -0.617496 0
M  V30 10155 C 984.658 3.29213 1.11866 0
M  V30 10156 H 983.981 3.95801 0.564061 0
M  V30 10157 H 985.421 3.92554 1.60242 0
M  V30 10158 C 983.88 2.56028 2.18978 0
M  V30 10159 O 984.41 2.33806 3.26646 0
M  V30 10160 N 982.616 2.16245 1.94129 0
M  V30 10161 H 982.163 2.34518 1.06579 0
M  V30 10162 H 982.121 1.67601 2.66003 0
M  V30 10163 N 985.893 0.34162 1.53853 0
M  V30 10164 C 987.17 -0.310664 1.93117 0
M  V30 10165 C 987.55 -1.68398 1.273 0
M  V30 10166 O 986.898 -2.24546 0.423225 0
M  V30 10167 C 987.108 -0.384867 3.46871 0
M  V30 10168 C 988.456 -0.636621 4.198 0
M  V30 10169 O 989.48 -0.467061 3.53125 0
M  V30 10170 O 988.339 -0.964962 5.37913 0
M  V30 10171 H 985.433 -0.180881 0.806977 0
M  V30 10172 H 987.979 0.392656 1.65095 0
M  V30 10173 H 986.751 0.57894 3.86994 0
M  V30 10174 H 986.374 -1.13505 3.81054 0
M  V30 10175 N 987.371 -1.57444 0.0701946 0
M  V30 10176 C 988.617 -1.94528 -0.594177 0
M  V30 10177 C 988.972 -0.949898 -1.67316 0
M  V30 10178 O 988.265 0.0280668 -1.91579 0
M  V30 10179 C 988.459 -3.36044 -1.21694 0
M  V30 10180 C 988.288 -4.49256 -0.199806 0
M  V30 10181 C 987.058 -5.04843 0.214963 0
M  V30 10182 C 989.256 -5.11217 0.562312 0
M  V30 10183 N 987.238 -6.01595 1.22297 0
M  V30 10184 C 988.609 -6.03453 1.42284 0
M  V30 10185 C 990.664 -4.94043 0.618555 0
M  V30 10186 C 989.367 -6.80359 2.33461 0
M  V30 10187 C 991.393 -5.71591 1.51783 0
M  V30 10188 C 990.755 -6.63474 2.36604 0
M  V30 10189 H 986.854 -0.758941 -0.1885 0
M  V30 10190 H 989.438 -1.94145 0.146965 0
M  V30 10191 H 987.609 -3.37168 -1.92801 0
M  V30 10192 H 989.341 -3.60368 -1.84165 0
M  V30 10193 H 986.096 -4.73303 -0.167835 0
M  V30 10194 H 986.52 -6.5467 1.72443 0
M  V30 10195 H 991.162 -4.22794 -0.0230235 0
M  V30 10196 H 988.88 -7.50886 2.98656 0
M  V30 10197 H 992.466 -5.60324 1.56616 0
M  V30 10198 H 991.346 -7.22432 3.0506 0
M  V30 10199 N 988.849 0.203349 -1.56283 0
M  V30 10200 C 989.796 1.25205 -1.93888 0
M  V30 10201 C 990.766 1.45654 -0.798376 0
M  V30 10202 O 991.951 1.58924 -1.05583 0
M  V30 10203 C 989.091 2.59355 -2.27659 0
M  V30 10204 C 988.204 2.46553 -3.54733 0
M  V30 10205 C 987.339 3.73351 -3.77865 0
M  V30 10206 C 986.378 3.55347 -4.98392 0
M  V30 10207 N 985.515 4.74137 -5.17821 0
M  V30 10208 H 990.355 0.924356 -2.83301 0
M  V30 10209 H 987.892 0.445082 -1.40205 0
M  V30 10210 H 989.85 3.375 -2.45254 0
M  V30 10211 H 988.48 2.90184 -1.41396 0
M  V30 10212 H 987.532 1.59749 -3.45231 0
M  V30 10213 H 988.844 2.2918 -4.43033 0
M  V30 10214 H 987.998 4.59937 -3.95655 0
M  V30 10215 H 986.737 3.9367 -2.8788 0
M  V30 10216 H 985.742 2.67146 -4.80534 0
M  V30 10217 H 986.967 3.36482 -5.89879 0
M  V30 10218 H 984.913 4.94735 -4.30782 0
M  V30 10219 H 984.83 4.59558 -6.00285 0
M  V30 10220 H 986.098 5.62098 -5.40061 0
M  V30 10221 N 990.327 1.50405 0.470755 0
M  V30 10222 C 991.576 1.60652 1.21959 0
M  V30 10223 C 991.889 0.312521 1.93087 0
M  V30 10224 O 993.095 0.293901 2.69905 0
M  V30 10225 C 991.551 2.83581 2.21607 0
M  V30 10226 C 991.159 4.19858 1.5628 0
M  V30 10227 C 992.903 3.03173 2.9713 0
M  V30 10228 C 990.81 5.33974 2.54217 0
M  V30 10229 H 989.74 0.598264 0.458907 0
M  V30 10230 H 992.391 1.76836 0.490041 0
M  V30 10231 H 990.773 2.60957 2.97855 0
M  V30 10232 H 991.947 4.52738 0.85819 0
M  V30 10233 H 990.262 4.05873 0.930366 0
M  V30 10234 H 992.859 3.856 3.70428 0
M  V30 10235 H 993.202 2.14914 3.56536 0
M  V30 10236 H 993.735 3.2598 2.27995 0
M  V30 10237 H 990.474 6.24388 1.99549 0
M  V30 10238 H 989.994 5.05511 3.22829 0
M  V30 10239 H 991.673 5.64561 3.16039 0
M  V30 10240 N 991.805 -0.723954 1.39988 0
M  V30 10241 C 992.753 -1.85938 1.39749 0
M  V30 10242 C 993.747 -1.67085 0.279112 0
M  V30 10243 O 994.953 -1.74291 0.44972 0
M  V30 10244 H 991.328 -0.612246 0.436644 0
M  V30 10245 H 993.299 -1.83255 2.355 0
M  V30 10246 C 992.048 -3.23726 1.26874 0
M  V30 10247 H 991.371 -3.38835 2.12206 0
M  V30 10248 H 992.811 -4.03332 1.30765 0
M  V30 10249 C 991.27 -3.36893 -0.0218317 0
M  V30 10250 O 991.8 -3.89363 -0.987905 0
M  V30 10251 N 990.006 -2.90465 -0.0885618 0
M  V30 10252 H 989.553 -2.47954 0.698314 0
M  V30 10253 H 989.511 -2.99654 -0.951557 0
M  V30 10254 N 993.283 -1.25346 -0.955304 0
M  V30 10255 C 994.213 -1.08152 -2.06943 0
M  V30 10256 C 995.194 0.00922598 -1.70097 0
M  V30 10257 O 996.379 -0.160181 -1.93538 0
M  V30 10258 C 993.509 -0.698745 -3.40198 0
M  V30 10259 C 992.463 -1.73965 -3.9105 0
M  V30 10260 C 991.789 -1.21158 -5.20792 0
M  V30 10261 C 993.089 -3.13829 -4.17503 0
M  V30 10262 H 994.783 -2.01345 -2.21586 0
M  V30 10263 H 992.329 -0.969459 -1.06478 0
M  V30 10264 H 994.282 -0.565394 -4.1759 0
M  V30 10265 H 993.006 0.268892 -3.25491 0
M  V30 10266 H 991.665 -1.86143 -3.15827 0
M  V30 10267 H 991.313 -0.234193 -5.02455 0
M  V30 10268 H 991.013 -1.90728 -5.55785 0
M  V30 10269 H 992.537 -1.09061 -6.00781 0
M  V30 10270 H 993.951 -3.04809 -4.85556 0
M  V30 10271 H 992.348 -3.80863 -4.63749 0
M  V30 10272 H 993.418 -3.6094 -3.23806 0
M  V30 10273 N 994.761 1.15782 -1.06922 0
M  V30 10274 C 995.986 1.90896 -0.810771 0
M  V30 10275 C 996.411 1.77246 0.629714 0
M  V30 10276 O 995.769 1.10215 1.43953 0
M  V30 10277 C 995.817 3.39397 -1.21829 0
M  V30 10278 O 994.921 4.10818 -0.360934 0
M  V30 10279 H 994.262 0.594497 -0.295752 0
M  V30 10280 H 996.792 1.46652 -1.42669 0
M  V30 10281 H 996.802 3.90181 -1.19259 0
M  V30 10282 H 995.477 3.4865 -2.2675 0
M  V30 10283 H 994.054 3.7019 -0.448748 0
M  V30 10284 N 996.239 0.8527 1.3254 0
M  V30 10285 C 997.464 0.468157 2.02047 0
M  V30 10286 C 997.889 -0.926967 1.63673 0
M  V30 10287 O 997.247 -1.60855 0.836378 0
M  V30 10288 C 997.295 0.612519 3.5536 0
M  V30 10289 O 996.399 -0.355506 4.10865 0
M  V30 10290 H 995.74 0.188401 0.636711 0
M  V30 10291 H 998.27 1.15135 1.6913 0
M  V30 10292 H 998.28 0.499315 4.04933 0
M  V30 10293 H 996.955 1.62988 3.82632 0
M  V30 10294 H 995.532 -0.198703 3.7237 0
M  V30 10295 N 997.718 -1.45297 0.610449 0
M  V30 10296 C 998.648 -2.33311 -0.0939698 0
M  V30 10297 C 999.629 -1.46999 -0.85588 0
M  V30 10298 O 1000.81 -1.75764 -0.825865 0
M  V30 10299 C 997.944 -3.29751 -1.09003 0
M  V30 10300 C 996.898 -4.2572 -0.441146 0
M  V30 10301 C 996.224 -5.11873 -1.54566 0
M  V30 10302 C 997.524 -5.1837 0.639489 0
M  V30 10303 H 999.218 -2.92459 0.640941 0
M  V30 10304 H 996.764 -1.40631 0.309675 0
M  V30 10305 H 998.717 -3.90195 -1.59141 0
M  V30 10306 H 997.441 -2.68768 -1.85557 0
M  V30 10307 H 996.1 -3.66579 0.0393908 0
M  V30 10308 H 995.748 -4.47256 -2.30155 0
M  V30 10309 H 995.448 -5.76886 -1.11698 0
M  V30 10310 H 996.972 -5.75185 -2.04925 0
M  V30 10311 H 998.386 -5.7287 0.22207 0
M  V30 10312 H 996.783 -5.91876 0.990089 0
M  V30 10313 H 997.853 -4.60627 1.51495 0
M  V30 10314 N 999.196 -0.349774 -1.5367 0
M  V30 10315 C 1000.44 0.245189 -2.01312 0
M  V30 10316 C 1000.77 1.49702 -1.23705 0
M  V30 10317 O 1000.05 1.91742 -0.326371 0
M  V30 10318 C 1000.33 0.553071 -3.55827 0
M  V30 10319 C 1000.19 -0.71129 -4.4414 0
M  V30 10320 C 1001.5 1.36015 -4.18555 0
M  V30 10321 H 998.624 0.0876415 -0.73177 0
M  V30 10322 H 1001.27 -0.471543 -1.84056 0
M  V30 10323 H 999.416 1.16367 -3.70663 0
M  V30 10324 H 1001.09 -1.34913 -4.41131 0
M  V30 10325 H 999.331 -1.33491 -4.1275 0
M  V30 10326 H 1000 -0.45104 -5.50154 0
M  V30 10327 H 1002.48 0.843778 -4.07455 0
M  V30 10328 H 1001.35 1.54432 -5.26728 0
M  V30 10329 H 1001.61 2.36408 -3.73582 0
M  V30 10330 N 1000.67 1.57404 -0.0785433 0
M  V30 10331 C 1001.61 2.101 0.916013 0
M  V30 10332 C 1002.62 1.03459 1.25698 0
M  V30 10333 O 1003.81 1.30954 1.21299 0
M  V30 10334 C 1000.91 2.55202 2.22992 0
M  V30 10335 C 1000.08 3.85491 2.06678 0
M  V30 10336 C 999.14 4.16614 3.21433 0
M  V30 10337 O 998.166 4.86105 2.96126 0
M  V30 10338 N 999.368 3.70697 4.46726 0
M  V30 10339 H 1002.13 2.96054 0.466059 0
M  V30 10340 H 999.694 1.61546 0.107006 0
M  V30 10341 H 1001.69 2.7308 2.9868 0
M  V30 10342 H 1000.26 1.74348 2.59464 0
M  V30 10343 H 999.476 3.76925 1.15417 0
M  V30 10344 H 1000.76 4.70759 1.93036 0
M  V30 10345 H 1000.16 3.14571 4.70172 0
M  V30 10346 H 998.719 3.93762 5.19418 0
M  V30 10347 N 1002.15 -0.195058 1.56388 0
M  V30 10348 C 1003.08 -1.24444 1.97575 0
M  V30 10349 C 1004.06 -1.47471 0.847717 0
M  V30 10350 O 1005.25 -1.59208 1.11205 0
M  V30 10351 C 1002.38 -2.58866 2.31529 0
M  V30 10352 C 1001.33 -2.50451 3.47071 0
M  V30 10353 C 1000.66 -3.89146 3.667 0
M  V30 10354 C 1001.96 -2.02953 4.81256 0
M  V30 10355 H 1003.65 -0.902178 2.85484 0
M  V30 10356 H 1001.2 -0.43254 1.3735 0
M  V30 10357 H 1003.15 -3.3246 2.58936 0
M  V30 10358 H 1001.87 -2.94833 1.40502 0
M  V30 10359 H 1000.53 -1.79313 3.19754 0
M  V30 10360 H 1000.18 -4.22466 2.73004 0
M  V30 10361 H 999.882 -3.84391 4.44429 0
M  V30 10362 H 1001.41 -4.64363 3.96484 0
M  V30 10363 H 1002.82 -2.66306 5.07695 0
M  V30 10364 H 1001.22 -2.092 5.62455 0
M  V30 10365 H 1002.29 -0.982757 4.74837 0
M  V30 10366 N 1003.63 -1.50653 -0.462772 0
M  V30 10367 C 1005.05 -1.38263 -0.797213 0
M  V30 10368 C 1005.25 -0.445172 -1.96521 0
M  V30 10369 O 1004.3 0.10913 -2.52264 0
M  V30 10370 C 1005.61 -2.798 -1.10146 0
M  V30 10371 C 1007.16 -2.88774 -1.20742 0
M  V30 10372 C 1007.64 -4.31163 -1.54476 0
M  V30 10373 N 1009.13 -4.34152 -1.61451 0
M  V30 10374 C 1009.86 -5.4133 -1.89074 0
M  V30 10375 N 1009.36 -6.58705 -2.1466 0
M  V30 10376 N 1011.15 -5.28783 -1.90645 0
M  V30 10377 H 1003.3 -2.10172 0.30684 0
M  V30 10378 H 1005.57 -0.945046 0.0747862 0
M  V30 10379 H 1005.27 -3.50276 -0.316207 0
M  V30 10380 H 1005.15 -3.17559 -2.03559 0
M  V30 10381 H 1007.53 -2.18512 -1.98334 0
M  V30 10382 H 1007.61 -2.54547 -0.252904 0
M  V30 10383 H 1007.26 -5.01965 -0.774207 0
M  V30 10384 H 1007.19 -4.62883 -2.51092 0
M  V30 10385 H 1009.68 -3.49519 -1.43684 0
M  V30 10386 H 1009.99 -7.36192 -2.35035 0
M  V30 10387 H 1008.34 -6.61866 -2.12035 0
M  V30 10388 H 1011.53 -4.36078 -1.70158 0
M  V30 10389 H 1011.7 -6.12396 -2.11836 0
M  V30 10390 N 1005.11 0.71652 -1.4037 0
M  V30 10391 C 1006.06 1.8306 -1.40562 0
M  V30 10392 C 1007.03 1.64009 -0.262697 0
M  V30 10393 O 1008.21 1.85157 -0.460619 0
M  V30 10394 C 1005.35 3.2076 -1.27307 0
M  V30 10395 C 1004.46 3.51389 -2.51296 0
M  V30 10396 C 1003.6 4.78589 -2.30491 0
M  V30 10397 C 1002.64 5.02119 -3.50061 0
M  V30 10398 N 1001.77 6.20533 -3.28457 0
M  V30 10399 H 1006.61 1.82231 -2.35788 0
M  V30 10400 H 1004.15 0.890198 -1.17106 0
M  V30 10401 H 1006.11 4.00274 -1.17628 0
M  V30 10402 H 1004.74 3.2082 -0.357005 0
M  V30 10403 H 1003.79 2.66436 -2.71507 0
M  V30 10404 H 1005.1 3.64686 -3.40302 0
M  V30 10405 H 1004.26 5.66119 -2.1816 0
M  V30 10406 H 1003 4.67499 -1.38909 0
M  V30 10407 H 1002 4.13044 -3.6287 0
M  V30 10408 H 1003.23 5.15082 -4.42569 0
M  V30 10409 H 1001.17 6.10695 -2.39556 0
M  V30 10410 H 1001.09 6.34502 -4.11027 0
M  V30 10411 H 1002.36 7.10853 -3.19857 0
M  V30 10412 N 1006.59 1.25851 0.948643 0
M  V30 10413 C 1007.53 1.06759 2.04625 0
M  V30 10414 C 1008.5 -0.0251144 1.66081 0
M  V30 10415 O 1009.69 0.133221 1.90334 0
M  V30 10416 C 1006.83 0.698724 3.37952 0
M  V30 10417 C 1005.94 1.8669 3.89578 0
M  V30 10418 C 1005.08 1.44184 5.11258 0
M  V30 10419 C 1004.12 2.57878 5.55126 0
M  V30 10420 N 1003.25 2.16106 6.68014 0
M  V30 10421 H 1008.09 2.00691 2.20289 0
M  V30 10422 H 1005.63 0.999327 1.07944 0
M  V30 10423 H 1007.59 0.465788 4.14592 0
M  V30 10424 H 1006.22 -0.203618 3.22157 0
M  V30 10425 H 1005.27 2.21298 3.09405 0
M  V30 10426 H 1006.58 2.72051 4.18079 0
M  V30 10427 H 1005.74 1.16891 5.95333 0
M  V30 10428 H 1004.47 0.559035 4.84485 0
M  V30 10429 H 1003.48 2.85909 4.69612 0
M  V30 10430 H 1004.7 3.46747 5.83904 0
M  V30 10431 H 1002.65 1.3025 6.42939 0
M  V30 10432 H 1002.57 2.95012 6.96063 0
M  V30 10433 H 1003.84 1.92005 7.55483 0
M  V30 10434 N 1008.06 -1.15214 1.07534 0
M  V30 10435 C 1008.99 -2.2216 0.718837 0
M  V30 10436 C 1009.98 -1.6753 -0.29459 0
M  V30 10437 O 1011.16 -1.93481 -0.166931 0
M  V30 10438 C 1008.29 -3.471 0.117836 0
M  V30 10439 C 1007.24 -4.14701 1.05862 0
M  V30 10440 C 1006.57 -5.3374 0.320284 0
M  V30 10441 C 1007.87 -4.64254 2.39302 0
M  V30 10442 H 1009.56 -2.52237 1.61297 0
M  V30 10443 H 1007.11 -1.21239 0.776992 0
M  V30 10444 H 1009.06 -4.21156 -0.143519 0
M  V30 10445 H 1007.79 -3.16361 -0.811389 0
M  V30 10446 H 1006.45 -3.42589 1.30493 0
M  V30 10447 H 1006.09 -4.99257 -0.61246 0
M  V30 10448 H 1005.79 -5.79912 0.947381 0
M  V30 10449 H 1007.32 -6.10563 0.0667721 0
M  V30 10450 H 1008.73 -5.29827 2.18988 0
M  V30 10451 H 1007.13 -5.21095 2.97623 0
M  V30 10452 H 1008.2 -3.79793 3.01472 0
M  V30 10453 N 1009.54 -0.859717 -1.32086 0
M  V30 10454 C 1010.45 -0.31108 -2.32528 0
M  V30 10455 C 1011.47 0.573714 -1.6427 0
M  V30 10456 O 1012.64 0.472878 -1.9577 0
M  V30 10457 C 1009.71 0.487256 -3.43259 0
M  V30 10458 C 1008.77 -0.424279 -4.27198 0
M  V30 10459 C 1008 0.336051 -5.32641 0
M  V30 10460 O 1008.23 1.56541 -5.48499 0
M  V30 10461 O 1007.16 -0.300777 -6.01148 0
M  V30 10462 H 1010.99 -1.14336 -2.81355 0
M  V30 10463 H 1008.57 -0.622794 -1.358 0
M  V30 10464 H 1010.45 0.940203 -4.10777 0
M  V30 10465 H 1009.13 1.29626 -2.96612 0
M  V30 10466 H 1008.04 -0.925509 -3.62471 0
M  V30 10467 H 1009.37 -1.1986 -4.77383 0
M  V30 10468 N 1011.02 1.44971 -0.618145 0
M  V30 10469 C 1011.95 2.33357 0.0815955 0
M  V30 10470 C 1012.93 1.47451 0.848072 0
M  V30 10471 O 1014.12 1.762 0.816532 0
M  V30 10472 C 1011.25 3.30324 1.07253 0
M  V30 10473 C 1010.2 4.25948 0.418563 0
M  V30 10474 C 1009.53 5.12685 1.51849 0
M  V30 10475 C 1010.83 5.18024 -0.66697 0
M  V30 10476 H 1012.52 2.92115 -0.656442 0
M  V30 10477 H 1010.07 1.40465 -0.317129 0
M  V30 10478 H 1012.02 3.91033 1.57069 0
M  V30 10479 H 1010.74 2.69748 1.8413 0
M  V30 10480 H 1009.4 3.66553 -0.0588308 0
M  V30 10481 H 1009.05 4.4847 2.2778 0
M  V30 10482 H 1008.75 5.7747 1.08637 0
M  V30 10483 H 1010.27 5.76264 2.01871 0
M  V30 10484 H 1011.69 5.72744 -0.252448 0
M  V30 10485 H 1010.09 5.91343 -1.02146 0
M  V30 10486 H 1011.16 4.59817 -1.53936 0
M  V30 10487 N 1012.5 0.357919 1.53482 0
M  V30 10488 C 1013.75 -0.234163 2.01142 0
M  V30 10489 C 1014.07 -1.49399 1.2454 0
M  V30 10490 O 1013.33 -1.92981 0.325111 0
M  V30 10491 C 1013.63 -0.579617 3.52669 0
M  V30 10492 C 1013.29 0.584988 4.47089 0
M  V30 10493 C 1011.96 0.904558 4.72622 0
M  V30 10494 C 1014.31 1.3656 5.02992 0
M  V30 10495 C 1011.64 2.00685 5.5131 0
M  V30 10496 C 1013.99 2.45824 5.82884 0
M  V30 10497 C 1012.65 2.78325 6.06706 0
M  V30 10498 H 1011.92 -0.0856863 0.736029 0
M  V30 10499 H 1014.57 0.488801 1.85157 0
M  V30 10500 H 1012.87 -1.38349 3.66561 0
M  V30 10501 H 1014.57 -1.04985 3.87013 0
M  V30 10502 H 1011.16 0.32587 4.27359 0
M  V30 10503 H 1015.34 1.13196 4.83219 0
M  V30 10504 H 1010.6 2.26272 5.67988 0
M  V30 10505 H 1014.77 3.06732 6.25211 0
M  V30 10506 H 1012.4 3.63862 6.67464 0
M  V30 10507 N 1013.98 -1.5736 0.0868897 0
M  V30 10508 C 1015.2 -1.98388 -0.587349 0
M  V30 10509 C 1015.62 -0.965757 -1.6223 0
M  V30 10510 O 1014.98 0.0456981 -1.82443 0
M  V30 10511 C 1015.03 -3.39479 -1.24242 0
M  V30 10512 O 1014.75 -4.37393 -0.248878 0
M  V30 10513 C 1016.25 -3.95465 -2.00305 0
M  V30 10514 H 1013.47 -0.652111 -0.15809 0
M  V30 10515 H 1016.01 -2.03843 0.163754 0
M  V30 10516 H 1014.17 -3.35063 -1.94451 0
M  V30 10517 H 1014.58 -5.19525 -0.720678 0
M  V30 10518 H 1016.06 -4.96363 -2.41511 0
M  V30 10519 H 1016.53 -3.32832 -2.86565 0
M  V30 10520 H 1017.14 -4.03328 -1.34931 0
M  V30 10521 N 1015.45 0.186762 -1.56489 0
M  V30 10522 C 1016.68 0.920495 -1.84961 0
M  V30 10523 C 1017.09 1.77004 -0.668297 0
M  V30 10524 O 1016.44 1.79891 0.37213 0
M  V30 10525 C 1016.5 1.85997 -3.07645 0
M  V30 10526 C 1016.16 1.19156 -4.41193 0
M  V30 10527 C 1017.16 0.564446 -5.16827 0
M  V30 10528 C 1014.84 1.19292 -4.87929 0
M  V30 10529 C 1016.84 -0.0523768 -6.37378 0
M  V30 10530 C 1014.52 0.572266 -6.08415 0
M  V30 10531 C 1015.52 -0.049294 -6.82982 0
M  V30 10532 O 1015.21 -0.660201 -8.01184 0
M  V30 10533 H 1014.94 0.273659 -0.618132 0
M  V30 10534 H 1017.5 0.196437 -2.04459 0
M  V30 10535 H 1015.73 2.62394 -2.84053 0
M  V30 10536 H 1017.42 2.46221 -3.22692 0
M  V30 10537 H 1018.18 0.555474 -4.81809 0
M  V30 10538 H 1014.06 1.66611 -4.29839 0
M  V30 10539 H 1017.6 -0.538133 -6.95521 0
M  V30 10540 H 1013.5 0.578769 -6.429 0
M  V30 10541 H 1014.27 -0.557926 -8.16596 0
M  V30 10542 N 1016.93 1.50896 0.454776 0
M  V30 10543 C 1018.18 1.6294 1.20741 0
M  V30 10544 C 1018.51 0.336339 1.91265 0
M  V30 10545 O 1017.79 -0.663153 1.82846 0
M  V30 10546 C 1018.07 2.82092 2.23822 0
M  V30 10547 C 1017.92 4.21326 1.57495 0
M  V30 10548 C 1019.24 2.96777 3.24979 0
M  V30 10549 H 1016.36 0.59302 0.437603 0
M  V30 10550 H 1019 1.83331 0.498959 0
M  V30 10551 H 1017.15 2.64837 2.84243 0
M  V30 10552 H 1018.82 4.50209 1.00546 0
M  V30 10553 H 1017.07 4.24829 0.877664 0
M  V30 10554 H 1017.74 5.00656 2.32482 0
M  V30 10555 H 1020.21 3.12627 2.74597 0
M  V30 10556 H 1019.09 3.81742 3.94416 0
M  V30 10557 H 1019.35 2.08091 3.90065 0
M  V30 10558 N 1018.41 -0.709066 1.40748 0
M  V30 10559 C 1019.83 -1.01797 1.22921 0
M  V30 10560 C 1020.03 -2.01205 0.109011 0
M  V30 10561 O 1019.08 -2.46854 -0.530987 0
M  V30 10562 C 1020.4 -1.55546 2.57344 0
M  V30 10563 C 1021.94 -1.67498 2.64412 0
M  V30 10564 C 1022.42 -2.24652 3.99119 0
M  V30 10565 N 1023.91 -2.3203 4.00895 0
M  V30 10566 C 1024.64 -2.7725 5.01917 0
M  V30 10567 N 1024.14 -3.22174 6.13332 0
M  V30 10568 N 1025.93 -2.76692 4.89283 0
M  V30 10569 H 1018.08 -0.0502704 2.12341 0
M  V30 10570 H 1020.35 -0.0848933 0.944191 0
M  V30 10571 H 1020.05 -0.899631 3.39999 0
M  V30 10572 H 1019.93 -2.53971 2.78888 0
M  V30 10573 H 1022.31 -2.32196 1.82123 0
M  V30 10574 H 1022.4 -0.676553 2.46691 0
M  V30 10575 H 1022.04 -1.60573 4.81849 0
M  V30 10576 H 1021.97 -3.25221 4.14173 0
M  V30 10577 H 1024.46 -2.00309 3.20444 0
M  V30 10578 H 1024.77 -3.55265 6.86299 0
M  V30 10579 H 1023.12 -3.20116 6.16888 0
M  V30 10580 H 1026.31 -2.40936 4.01332 0
M  V30 10581 H 1026.48 -3.11617 5.68154 0
M  V30 10582 N 1019.89 -1.26353 -0.941956 0
M  V30 10583 C 1021.14 -1.11851 -1.68806 0
M  V30 10584 C 1021.46 0.33829 -1.91535 0
M  V30 10585 O 1020.72 1.26495 -1.49324 0
M  V30 10586 C 1021.02 -1.83195 -3.06879 0
M  V30 10587 C 1020.68 -3.33093 -3.03908 0
M  V30 10588 C 1019.35 -3.73982 -3.02805 0
M  V30 10589 C 1021.7 -4.28803 -2.96273 0
M  V30 10590 C 1019.03 -5.08971 -2.91832 0
M  V30 10591 C 1021.38 -5.6383 -2.86842 0
M  V30 10592 C 1020.04 -6.04032 -2.84081 0
M  V30 10593 H 1019.31 -0.409293 -0.617706 0
M  V30 10594 H 1021.96 -1.56785 -1.09957 0
M  V30 10595 H 1020.26 -1.30728 -3.69347 0
M  V30 10596 H 1021.96 -1.69416 -3.63455 0
M  V30 10597 H 1018.55 -3.00566 -3.05546 0
M  V30 10598 H 1022.74 -3.98195 -2.96234 0
M  V30 10599 H 1017.99 -5.39282 -2.88072 0
M  V30 10600 H 1022.17 -6.37676 -2.79898 0
M  V30 10601 H 1019.79 -7.08586 -2.75335 0
M  V30 10602 N 1021.37 1.14642 -1.08144 0
M  V30 10603 C 1022.64 1.81774 -0.72232 0
M  V30 10604 C 1023.02 1.95587 0.794294 0
M  V30 10605 O 1022.37 1.51361 1.71178 0
M  V30 10606 C 1022.58 3.1763 -1.44611 0
M  V30 10607 C 1023.93 3.93161 -1.60343 0
M  V30 10608 O 1024.95 3.2721 -1.40755 0
M  V30 10609 O 1023.81 5.11422 -1.9264 0
M  V30 10610 H 1020.91 0.785733 -0.257978 0
M  V30 10611 H 1023.45 1.21683 -1.18285 0
M  V30 10612 H 1022.23 3.02723 -2.4794 0
M  V30 10613 H 1021.85 3.85412 -0.976892 0
M  V30 10614 N 1022.85 0.866709 1.31628 0
M  V30 10615 C 1024.07 0.48956 2.01539 0
M  V30 10616 C 1024.5 -0.909556 1.64647 0
M  V30 10617 O 1023.85 -1.59959 0.853391 0
M  V30 10618 C 1023.9 0.650176 3.5469 0
M  V30 10619 O 1023.01 -0.311908 4.11219 0
M  V30 10620 H 1022.35 0.195144 0.634677 0
M  V30 10621 H 1024.88 1.16923 1.679 0
M  V30 10622 H 1024.89 0.542236 4.04381 0
M  V30 10623 H 1023.56 1.67038 3.80882 0
M  V30 10624 H 1022.14 -0.159197 3.7256 0
M  V30 10625 N 1024.32 -1.44642 0.625825 0
M  V30 10626 C 1025.23 -2.34451 -0.0836134 0
M  V30 10627 C 1026.25 -1.5231 -0.841289 0
M  V30 10628 O 1027.43 -1.85056 -0.794754 0
M  V30 10629 C 1024.49 -3.30211 -1.05648 0
M  V30 10630 C 1023.55 -4.28259 -0.298759 0
M  V30 10631 C 1022.78 -5.19444 -1.22528 0
M  V30 10632 O 1023.01 -5.14444 -2.46382 0
M  V30 10633 O 1021.94 -5.97668 -0.71247 0
M  V30 10634 H 1025.77 -2.96555 0.654912 0
M  V30 10635 H 1023.35 -1.44327 0.386029 0
M  V30 10636 H 1025.23 -3.8917 -1.61632 0
M  V30 10637 H 1023.91 -2.70648 -1.77571 0
M  V30 10638 H 1022.82 -3.72863 0.304001 0
M  V30 10639 H 1024.15 -4.90728 0.380345 0
M  V30 10640 N 1025.8 -0.366053 -1.5329 0
M  V30 10641 C 1027.03 0.22391 -2.05383 0
M  V30 10642 C 1027.44 1.42962 -1.23929 0
M  V30 10643 O 1026.78 1.81659 -0.273072 0
M  V30 10644 C 1026.84 0.681038 -3.5299 0
M  V30 10645 C 1026.51 -0.40805 -4.55175 0
M  V30 10646 C 1027.51 -1.25806 -5.04449 0
M  V30 10647 C 1025.19 -0.568428 -4.99073 0
M  V30 10648 C 1027.18 -2.25379 -5.96224 0
M  V30 10649 C 1024.87 -1.56752 -5.90654 0
M  V30 10650 C 1025.87 -2.40864 -6.39119 0
M  V30 10651 O 1025.56 -3.39069 -7.28895 0
M  V30 10652 H 1025.29 0.0429593 -0.674634 0
M  V30 10653 H 1027.84 -0.522897 -1.98633 0
M  V30 10654 H 1026.07 1.47945 -3.5728 0
M  V30 10655 H 1027.76 1.19406 -3.8794 0
M  V30 10656 H 1028.53 -1.14536 -4.71282 0
M  V30 10657 H 1024.41 0.0764858 -4.60937 0
M  V30 10658 H 1027.95 -2.91068 -6.33976 0
M  V30 10659 H 1023.85 -1.6807 -6.23236 0
M  V30 10660 H 1024.62 -3.34804 -7.46893 0
M  V30 10661 N 1027.28 1.57312 -0.0952337 0
M  V30 10662 C 1028.51 1.98697 0.57682 0
M  V30 10663 C 1028.92 0.974347 1.61716 0
M  V30 10664 O 1028.28 -0.036022 1.82464 0
M  V30 10665 C 1028.33 3.40133 1.2244 0
M  V30 10666 O 1028.05 4.37518 0.225678 0
M  V30 10667 C 1029.55 3.96522 1.98205 0
M  V30 10668 H 1026.77 0.65294 0.154629 0
M  V30 10669 H 1029.32 2.03754 -0.174562 0
M  V30 10670 H 1027.47 3.3609 1.92671 0
M  V30 10671 H 1027.89 5.199 0.693116 0
M  V30 10672 H 1029.36 4.97637 2.38875 0
M  V30 10673 H 1029.84 3.34347 2.84796 0
M  V30 10674 H 1030.44 4.04038 1.3279 0
M  V30 10675 N 1028.76 -0.17846 1.56586 0
M  V30 10676 C 1030.01 -0.894502 1.8078 0
M  V30 10677 C 1030.32 -1.8372 0.67129 0
M  V30 10678 O 1031.53 -2.59509 0.797971 0
M  V30 10679 C 1029.98 -1.64109 3.20306 0
M  V30 10680 C 1029.59 -0.742387 4.41806 0
M  V30 10681 C 1031.33 -2.34578 3.53798 0
M  V30 10682 C 1029.24 -1.4888 5.72354 0
M  V30 10683 H 1028.17 -0.33776 0.674117 0
M  V30 10684 H 1030.82 -0.14752 1.82906 0
M  V30 10685 H 1029.2 -2.43257 3.12477 0
M  V30 10686 H 1030.38 0.011615 4.60799 0
M  V30 10687 H 1028.69 -0.147705 4.16138 0
M  V30 10688 H 1031.29 -2.91004 4.48577 0
M  V30 10689 H 1031.63 -3.09572 2.78336 0
M  V30 10690 H 1032.17 -1.62381 3.63149 0
M  V30 10691 H 1028.9 -0.781325 6.50827 0
M  V30 10692 H 1028.42 -2.21631 5.57351 0
M  V30 10693 H 1030.1 -2.03819 6.14058 0
M  V30 10694 N 1030.24 -1.51135 -0.446768 0
M  V30 10695 C 1031.17 -1.74709 -1.54916 0
M  V30 10696 C 1032.15 -0.596628 -1.59293 0
M  V30 10697 O 1033.33 -0.838356 -1.75172 0
M  V30 10698 C 1030.46 -1.86353 -2.9307 0
M  V30 10699 C 1029.42 -3.01725 -3.03556 0
M  V30 10700 C 1028.74 -2.9854 -4.43597 0
M  V30 10701 C 1030.04 -4.41848 -2.7851 0
M  V30 10702 H 1031.74 -2.67014 -1.3544 0
M  V30 10703 H 1029.28 -1.28489 -0.650131 0
M  V30 10704 H 1031.23 -2.01428 -3.70141 0
M  V30 10705 H 1029.96 -0.906887 -3.13756 0
M  V30 10706 H 1028.62 -2.86339 -2.28922 0
M  V30 10707 H 1028.27 -2.00673 -4.61237 0
M  V30 10708 H 1027.97 -3.76008 -4.51544 0
M  V30 10709 H 1029.49 -3.15696 -5.22655 0
M  V30 10710 H 1030.9 -4.57633 -3.45319 0
M  V30 10711 H 1029.3 -5.2095 -2.97877 0
M  V30 10712 H 1030.37 -4.52536 -1.74182 0
M  V30 10713 N 1031.71 0.701592 -1.41122 0
M  V30 10714 C 1032.68 1.79733 -1.42227 0
M  V30 10715 C 1033.68 1.57708 -0.313831 0
M  V30 10716 O 1034.87 1.64492 -0.573423 0
M  V30 10717 C 1032 3.18024 -1.22775 0
M  V30 10718 H 1033.19 1.80148 -2.39764 0
M  V30 10719 H 1030.74 0.908624 -1.27176 0
M  V30 10720 H 1031.48 3.23252 -0.260552 0
M  V30 10721 H 1031.26 3.35411 -2.0308 0
M  V30 10722 H 1032.75 3.98021 -1.2637 0
M  V30 10723 N 1033.19 1.2685 0.935242 0
M  V30 10724 C 1034.42 1.15538 1.71635 0
M  V30 10725 C 1034.83 -0.288698 1.8658 0
M  V30 10726 O 1034.19 -1.19721 1.37743 0
M  V30 10727 C 1034.24 1.8259 3.11999 0
M  V30 10728 O 1033.96 3.21355 2.97763 0
M  V30 10729 C 1035.46 1.77307 4.06297 0
M  V30 10730 H 1032.68 0.402055 0.537208 0
M  V30 10731 H 1035.23 1.67582 1.17203 0
M  V30 10732 H 1033.38 1.3447 3.63313 0
M  V30 10733 H 1033.8 3.54626 3.86446 0
M  V30 10734 H 1035.27 2.28851 5.02326 0
M  V30 10735 H 1035.75 0.740823 4.32907 0
M  V30 10736 H 1036.35 2.25007 3.60904 0
M  V30 10737 N 1034.67 -1.14067 1.0875 0
M  V30 10738 C 1035.63 -2.17453 0.724341 0
M  V30 10739 C 1036.63 -1.58959 -0.242614 0
M  V30 10740 O 1037.82 -1.74186 -0.0217008 0
M  V30 10741 C 1034.96 -3.40828 0.0700236 0
M  V30 10742 H 1036.15 -2.51094 1.63987 0
M  V30 10743 H 1033.7 -1.28775 0.885813 0
M  V30 10744 H 1034.44 -3.1277 -0.857061 0
M  V30 10745 H 1034.22 -3.84551 0.76569 0
M  V30 10746 H 1035.71 -4.17258 -0.168905 0
M  V30 10747 N 1036.15 -0.873678 -1.31166 0
M  V30 10748 C 1037.37 -0.500242 -2.01277 0
M  V30 10749 C 1037.8 0.900811 -1.65127 0
M  V30 10750 O 1037.16 1.59504 -0.861862 0
M  V30 10751 C 1037.2 -0.668976 -3.5434 0
M  V30 10752 O 1036.31 0.290096 -4.11378 0
M  V30 10753 H 1035.65 -0.198507 -0.633633 0
M  V30 10754 H 1038.18 -1.17811 -1.67277 0
M  V30 10755 H 1038.19 -0.563673 -4.04088 0
M  V30 10756 H 1036.86 -1.69055 -3.79991 0
M  V30 10757 H 1035.44 0.139437 -3.72639 0
M  V30 10758 N 1037.63 1.44308 -0.633487 0
M  V30 10759 C 1038.56 2.28943 0.108474 0
M  V30 10760 C 1039.57 1.41415 0.806582 0
M  V30 10761 O 1040.76 1.65544 0.667634 0
M  V30 10762 C 1037.86 3.17845 1.1759 0
M  V30 10763 C 1037.03 4.33802 0.559842 0
M  V30 10764 C 1036.09 5.03722 1.52154 0
M  V30 10765 O 1035.12 5.5966 1.03776 0
M  V30 10766 N 1036.32 5.05392 2.85586 0
M  V30 10767 H 1039.09 2.93262 -0.617879 0
M  V30 10768 H 1036.65 1.54781 -0.474819 0
M  V30 10769 H 1038.64 3.61485 1.81963 0
M  V30 10770 H 1037.21 2.55261 1.80445 0
M  V30 10771 H 1036.43 3.93325 -0.262559 0
M  V30 10772 H 1037.72 5.08637 0.128942 0
M  V30 10773 H 1037.11 4.61282 3.27468 0
M  V30 10774 H 1035.67 5.52813 3.45313 0
M  V30 10775 N 1039.1 0.374177 1.53094 0
M  V30 10776 C 1040.52 -0.103172 1.86415 0
M  V30 10777 C 1040.87 -1.47439 1.29446 0
M  V30 10778 O 1039.99 -2.07333 0.619853 0
M  V30 10779 C 1040.59 -0.193988 3.38244 0
M  V30 10780 C 1039.15 -0.615605 3.71332 0
M  V30 10781 C 1038.29 0.23186 2.76329 0
M  V30 10782 H 1041.24 0.592644 1.47219 0
M  V30 10783 H 1041.26 -1.01597 3.66686 0
M  V30 10784 H 1040.78 0.80414 3.79678 0
M  V30 10785 H 1038.88 -1.62165 3.3546 0
M  V30 10786 H 1038.99 -0.38425 4.77557 0
M  V30 10787 H 1037.35 -0.300579 2.5292 0
M  V30 10788 H 1038.14 1.22769 3.20597 0
M  V30 10789 N 1040.58 -1.57259 0.103575 0
M  V30 10790 C 1041.86 -1.86143 -0.600852 0
M  V30 10791 C 1042.24 -1.00198 -1.85805 0
M  V30 10792 O 1041.59 -0.0766791 -2.28371 0
M  V30 10793 C 1041.8 -3.36978 -0.908108 0
M  V30 10794 C 1043.15 -4.05228 -1.26788 0
M  V30 10795 O 1044.17 -3.41908 -0.998859 0
M  V30 10796 O 1043.03 -5.16971 -1.7721 0
M  V30 10797 H 1040.12 -0.770064 -0.301547 0
M  V30 10798 H 1042.67 -1.69147 0.136914 0
M  V30 10799 H 1041.44 -3.91296 -0.0165615 0
M  V30 10800 H 1041.06 -3.5935 -1.70156 0
M  V30 10801 N 1042.06 0.170153 -1.56679 0
M  V30 10802 C 1043.29 0.90618 -1.86556 0
M  V30 10803 C 1043.71 1.74986 -0.690044 0
M  V30 10804 O 1043.07 1.77672 0.360862 0
M  V30 10805 C 1043.12 1.75777 -3.14857 0
M  V30 10806 O 1042.22 2.85952 -2.97162 0
M  V30 10807 H 1041.56 0.253781 -0.613589 0
M  V30 10808 H 1044.09 0.167943 -2.0391 0
M  V30 10809 H 1044.1 2.15747 -3.46291 0
M  V30 10810 H 1042.78 1.13807 -4.00026 0
M  V30 10811 H 1041.35 2.49557 -2.77084 0
M  V30 10812 N 1043.54 1.5137 0.438746 0
M  V30 10813 C 1044.5 1.71993 1.51496 0
M  V30 10814 C 1045.5 0.589978 1.49586 0
M  V30 10815 O 1046.69 0.857505 1.51633 0
M  V30 10816 C 1043.82 1.77508 2.91039 0
M  V30 10817 H 1045.02 2.68041 1.34514 0
M  V30 10818 H 1042.57 1.41338 0.667326 0
M  V30 10819 H 1043.3 0.832698 3.13427 0
M  V30 10820 H 1043.09 2.59627 2.9383 0
M  V30 10821 H 1044.58 1.95308 3.69113 0
M  V30 10822 N 1045.02 -0.694098 1.41492 0
M  V30 10823 C 1045.96 -1.82932 1.43662 0
M  V30 10824 C 1046.96 -1.66455 0.31449 0
M  V30 10825 O 1048.16 -1.73298 0.486589 0
M  V30 10826 H 1044.54 -0.602847 0.449533 0
M  V30 10827 H 1046.51 -1.78218 2.39334 0
M  V30 10828 C 1045.26 -3.20962 1.33712 0
M  V30 10829 H 1044.58 -3.34257 2.19345 0
M  V30 10830 H 1046.02 -4.00467 1.39291 0
M  V30 10831 C 1044.48 -3.36863 0.0496332 0
M  V30 10832 O 1045.01 -3.91371 -0.905093 0
M  V30 10833 N 1043.22 -2.90588 -0.0269299 0
M  V30 10834 H 1042.76 -2.46417 0.750752 0
M  V30 10835 H 1042.72 -3.01605 -0.887781 0
M  V30 10836 N 1046.49 -1.27344 -0.928501 0
M  V30 10837 C 1047.72 -1.16278 -1.70772 0
M  V30 10838 C 1048.13 0.283131 -1.8707 0
M  V30 10839 O 1047.48 1.20466 -1.38685 0
M  V30 10840 C 1047.54 -1.77313 -3.1273 0
M  V30 10841 C 1047.2 -3.26488 -3.19773 0
M  V30 10842 C 1048.2 -4.23133 -3.02083 0
M  V30 10843 C 1045.88 -3.67182 -3.42757 0
M  V30 10844 C 1047.88 -5.5845 -3.07267 0
M  V30 10845 C 1045.56 -5.02629 -3.47574 0
M  V30 10846 C 1046.56 -5.98072 -3.29847 0
M  V30 10847 O 1046.25 -7.3105 -3.34397 0
M  V30 10848 H 1045.98 -0.405215 -0.541089 0
M  V30 10849 H 1048.54 -1.68707 -1.17163 0
M  V30 10850 H 1046.77 -1.19361 -3.67818 0
M  V30 10851 H 1048.46 -1.60972 -3.72616 0
M  V30 10852 H 1049.22 -3.93031 -2.84168 0
M  V30 10853 H 1045.1 -2.93369 -3.55606 0
M  V30 10854 H 1048.64 -6.32924 -2.93348 0
M  V30 10855 H 1044.54 -5.32387 -3.65013 0
M  V30 10856 H 1045.31 -7.39488 -3.50857 0
M  V30 10857 N 1047.97 1.13488 -1.09353 0
M  V30 10858 C 1049.2 1.89133 -0.85108 0
M  V30 10859 C 1049.62 1.78542 0.591976 0
M  V30 10860 O 1048.98 1.13243 1.41583 0
M  V30 10861 C 1049.03 3.36736 -1.29001 0
M  V30 10862 O 1048.13 4.09959 -0.447993 0
M  V30 10863 H 1047.47 0.58809 -0.308296 0
M  V30 10864 H 1050 1.43593 -1.45747 0
M  V30 10865 H 1050.01 3.87564 -1.27508 0
M  V30 10866 H 1048.69 3.43762 -2.34095 0
M  V30 10867 H 1047.27 3.69155 -0.52717 0
M  V30 10868 N 1049.45 0.880621 1.30701 0
M  V30 10869 C 1050.68 0.510909 2.01009 0
M  V30 10870 C 1051.1 -0.892041 1.65603 0
M  V30 10871 O 1050.46 -1.59045 0.870309 0
M  V30 10872 C 1050.51 0.687759 3.53981 0
M  V30 10873 O 1049.61 -0.268275 4.11526 0
M  V30 10874 H 1048.95 0.201864 0.632572 0
M  V30 10875 H 1051.48 1.18697 1.6665 0
M  V30 10876 H 1051.49 0.585095 4.03783 0
M  V30 10877 H 1050.17 1.71068 3.79089 0
M  V30 10878 H 1048.74 -0.119673 3.72708 0
M  V30 10879 N 1050.93 -1.4397 0.641131 0
M  V30 10880 C 1051.88 -2.32495 -0.0698668 0
M  V30 10881 C 1052.87 -1.47922 -0.825555 0
M  V30 10882 O 1054.08 -1.64206 -0.737323 0
M  V30 10883 H 1050.45 -0.750861 -0.0413706 0
M  V30 10884 H 1052.42 -2.90201 0.694682 0
M  V30 10885 C 1051.17 -3.32063 -1.03098 0
M  V30 10886 H 1050.5 -3.97157 -0.458923 0
M  V30 10887 H 1051.94 -3.96664 -1.49778 0
M  V30 10888 C 1050.39 -2.61743 -2.12113 0
M  V30 10889 O 1050.92 -2.42385 -3.20332 0
M  V30 10890 N 1049.13 -2.21316 -1.88328 0
M  V30 10891 H 1048.68 -2.37261 -1.00324 0
M  V30 10892 H 1048.64 -1.74594 -2.61465 0
M  V30 10893 N 1052.41 -0.382291 -1.52893 0
M  V30 10894 C 1053.34 0.447829 -2.29165 0
M  V30 10895 C 1054.32 1.06956 -1.32267 0
M  V30 10896 O 1055.5 1.08365 -1.61154 0
M  V30 10897 C 1052.63 1.57902 -3.09329 0
M  V30 10898 C 1051.59 1.08369 -4.14053 0
M  V30 10899 C 1050.91 2.30641 -4.82399 0
M  V30 10900 C 1052.21 0.156591 -5.22065 0
M  V30 10901 H 1053.91 -0.188541 -2.98806 0
M  V30 10902 H 1051.45 -0.0921179 -1.43705 0
M  V30 10903 H 1053.41 2.16652 -3.61442 0
M  V30 10904 H 1052.13 2.24287 -2.37409 0
M  V30 10905 H 1050.79 0.518772 -3.62911 0
M  V30 10906 H 1050.44 2.9552 -4.07034 0
M  V30 10907 H 1050.14 1.98163 -5.53177 0
M  V30 10908 H 1051.66 2.90047 -5.37313 0
M  V30 10909 H 1053.08 0.652065 -5.6958 0
M  V30 10910 H 1051.47 -0.0780978 -6.00049 0
M  V30 10911 H 1052.54 -0.796529 -4.78313 0
M  V30 10912 N 1053.89 1.57202 -0.111913 0
M  V30 10913 C 1055.13 1.95239 0.548607 0
M  V30 10914 C 1055.46 0.994897 1.6678 0
M  V30 10915 O 1054.74 0.0308603 1.94476 0
M  V30 10916 C 1055.02 3.43271 1.08798 0
M  V30 10917 C 1054.88 4.49792 -0.0273064 0
M  V30 10918 C 1056.19 3.92989 1.98109 0
M  V30 10919 H 1053.31 0.709919 0.197951 0
M  V30 10920 H 1055.96 1.89087 -0.186036 0
M  V30 10921 H 1054.11 3.48644 1.71404 0
M  V30 10922 H 1055.78 4.56521 -0.662302 0
M  V30 10923 H 1054.02 4.28254 -0.691426 0
M  V30 10924 H 1054.69 5.50612 0.391201 0
M  V30 10925 H 1057.17 3.89875 1.45385 0
M  V30 10926 H 1056.04 4.97101 2.32769 0
M  V30 10927 H 1056.3 3.33267 2.90492 0
M  V30 10928 N 1055.36 -0.161842 1.56767 0
M  V30 10929 C 1056.61 -0.878224 1.82798 0
M  V30 10930 C 1056.94 -1.81481 0.691242 0
M  V30 10931 O 1056.22 -1.92075 -0.30618 0
M  V30 10932 C 1056.5 -1.66565 3.19262 0
M  V30 10933 C 1056.35 -0.751551 4.43477 0
M  V30 10934 C 1057.67 -2.63134 3.52773 0
M  V30 10935 H 1054.79 -0.317828 0.664947 0
M  V30 10936 H 1057.43 -0.14402 1.89453 0
M  V30 10937 H 1055.58 -2.29157 3.13719 0
M  V30 10938 H 1057.26 -0.137783 4.61094 0
M  V30 10939 H 1055.5 -0.0601785 4.33758 0
M  V30 10940 H 1056.17 -1.33823 5.35533 0
M  V30 10941 H 1058.65 -2.10666 3.5883 0
M  V30 10942 H 1057.52 -3.15289 4.49315 0
M  V30 10943 H 1057.78 -3.43786 2.77963 0
M  V30 10944 N 1056.84 -1.516 -0.430713 0
M  V30 10945 C 1057.77 -1.69594 -1.54177 0
M  V30 10946 C 1058.79 -0.576518 -1.5225 0
M  V30 10947 O 1059.98 -0.85104 -1.56906 0
M  V30 10948 C 1057.08 -1.70148 -2.93092 0
M  V30 10949 C 1056.25 -2.98782 -3.1945 0
M  V30 10950 C 1055.31 -2.91435 -4.38123 0
M  V30 10951 O 1054.33 -3.65372 -4.36454 0
M  V30 10952 N 1055.54 -2.0774 -5.42056 0
M  V30 10953 H 1058.3 -2.65442 -1.39143 0
M  V30 10954 H 1055.86 -1.49569 -0.61974 0
M  V30 10955 H 1057.85 -1.62793 -3.70514 0
M  V30 10956 H 1056.42 -0.818667 -3.0169 0
M  V30 10957 H 1055.64 -3.19954 -2.30267 0
M  V30 10958 H 1056.93 -3.83919 -3.33892 0
M  V30 10959 H 1056.33 -1.47059 -5.46251 0
M  V30 10960 H 1054.89 -2.06259 -6.18305 0
M  V30 10961 N 1058.32 0.686584 -1.41858 0
M  V30 10962 C 1059.28 1.78214 -1.44126 0
M  V30 10963 C 1060.28 1.57366 -0.330541 0
M  V30 10964 O 1061.47 1.63874 -0.590837 0
M  V30 10965 C 1058.6 3.16704 -1.26142 0
M  V30 10966 H 1059.8 1.77594 -2.41661 0
M  V30 10967 H 1057.35 0.895085 -1.28132 0
M  V30 10968 H 1058.09 3.22957 -0.294823 0
M  V30 10969 H 1057.87 3.33238 -2.06627 0
M  V30 10970 H 1059.36 3.96658 -1.30584 0
M  V30 10971 N 1059.8 1.27835 0.921735 0
M  V30 10972 C 1060.73 1.05397 2.02402 0
M  V30 10973 C 1061.71 -0.0274904 1.62577 0
M  V30 10974 O 1062.89 0.11885 1.88125 0
M  V30 10975 C 1060.02 0.600016 3.33343 0
M  V30 10976 C 1059.07 1.67693 3.9215 0
M  V30 10977 S 1059.9 3.27093 4.23994 0
M  V30 10978 C 1061.05 2.83513 5.58006 0
M  V30 10979 H 1061.29 1.98723 2.21125 0
M  V30 10980 H 1058.82 1.11733 1.0656 0
M  V30 10981 H 1060.78 0.344793 4.09049 0
M  V30 10982 H 1059.44 -0.313288 3.12534 0
M  V30 10983 H 1058.63 1.31074 4.86658 0
M  V30 10984 H 1058.23 1.88454 3.2305 0
M  V30 10985 H 1060.53 2.29187 6.37557 0
M  V30 10986 H 1061.47 3.76788 5.9953 0
M  V30 10987 H 1061.88 2.22472 5.18813 0
M  V30 10988 N 1061.28 -1.12907 1.09954 0
M  V30 10989 C 1062.51 -1.87866 0.859656 0
M  V30 10990 C 1062.91 -1.79664 -0.593096 0
M  V30 10991 O 1062.26 -1.16499 -1.42034 0
M  V30 10992 C 1062.32 -3.38055 1.22308 0
M  V30 10993 C 1061.98 -3.70035 2.68185 0
M  V30 10994 C 1062.98 -3.68817 3.66428 0
M  V30 10995 C 1060.66 -3.99523 3.04444 0
M  V30 10996 C 1062.66 -3.96639 4.98955 0
M  V30 10997 C 1060.35 -4.27006 4.37161 0
M  V30 10998 C 1061.34 -4.25549 5.34225 0
M  V30 10999 O 1061.03 -4.52354 6.64553 0
M  V30 11000 H 1060.76 -0.601425 0.308649 0
M  V30 11001 H 1063.32 -1.43817 1.46649 0
M  V30 11002 H 1061.55 -3.82634 0.559322 0
M  V30 11003 H 1063.24 -3.94348 0.961479 0
M  V30 11004 H 1064 -3.46104 3.3976 0
M  V30 11005 H 1059.88 -3.99801 2.29521 0
M  V30 11006 H 1063.43 -3.95418 5.74709 0
M  V30 11007 H 1059.32 -4.49192 4.6357 0
M  V30 11008 H 1060.09 -4.69997 6.70108 0
M  V30 11009 N 1062.75 -0.88754 -1.30232 0
M  V30 11010 C 1064 -0.508031 -1.96334 0
M  V30 11011 C 1064.33 0.940905 -1.69884 0
M  V30 11012 O 1063.61 1.66523 -1.005 0
M  V30 11013 C 1063.89 -0.786566 -3.51405 0
M  V30 11014 C 1063.74 -2.28632 -3.8736 0
M  V30 11015 C 1065.06 -0.264803 -4.39303 0
M  V30 11016 H 1062.18 -0.186051 -0.71313 0
M  V30 11017 H 1064.82 -1.112 -1.5406 0
M  V30 11018 H 1062.97 -0.272523 -3.87543 0
M  V30 11019 H 1064.65 -2.86896 -3.61231 0
M  V30 11020 H 1062.89 -2.75194 -3.35337 0
M  V30 11021 H 1063.56 -2.43181 -4.95547 0
M  V30 11022 H 1066.04 -0.704809 -4.10087 0
M  V30 11023 H 1064.91 -0.488998 -5.46717 0
M  V30 11024 H 1065.17 0.834055 -4.34161 0
M  V30 11025 N 1064.23 1.43628 -0.648757 0
M  V30 11026 C 1065.64 1.85142 -0.24066 0
M  V30 11027 C 1065.99 1.54304 1.21181 0
M  V30 11028 O 1065.12 0.989792 1.92437 0
M  V30 11029 C 1065.71 3.3606 -0.429999 0
M  V30 11030 C 1064.27 3.76323 -0.0762588 0
M  V30 11031 C 1063.42 2.67382 -0.734999 0
M  V30 11032 H 1066.37 1.33844 -0.852734 0
M  V30 11033 H 1066.39 3.79102 0.325836 0
M  V30 11034 H 1065.9 3.58474 -1.48721 0
M  V30 11035 H 1064.01 3.59521 0.978529 0
M  V30 11036 H 1064.12 4.76498 -0.498612 0
M  V30 11037 H 1062.48 2.54141 -0.168644 0
M  V30 11038 H 1063.27 2.92625 -1.79515 0
M  V30 11039 N 1065.71 0.390394 1.52688 0
M  V30 11040 C 1067.12 -0.083394 1.86514 0
M  V30 11041 C 1067.47 -1.46057 1.31003 0
M  V30 11042 O 1066.6 -2.06663 0.641809 0
M  V30 11043 C 1067.19 -0.158102 3.38431 0
M  V30 11044 C 1065.75 -0.576186 3.71964 0
M  V30 11045 C 1064.9 0.261156 2.76068 0
M  V30 11046 H 1067.85 0.608226 1.46582 0
M  V30 11047 H 1067.87 -0.977023 3.67742 0
M  V30 11048 H 1067.38 0.844365 3.78803 0
M  V30 11049 H 1065.48 -1.58598 3.37161 0
M  V30 11050 H 1065.6 -0.333577 4.77937 0
M  V30 11051 H 1063.96 -0.273737 2.53225 0
M  V30 11052 H 1064.74 1.26162 3.19277 0
M  V30 11053 N 1067.19 -1.57141 0.120249 0
M  V30 11054 C 1068.44 -1.94852 -0.536387 0
M  V30 11055 C 1068.76 -1.00452 -1.67136 0
M  V30 11056 O 1068.03 -0.061053 -1.95805 0
M  V30 11057 H 1066.61 -0.719411 -0.201138 0
M  V30 11058 H 1069.27 -1.93977 0.189482 0
M  V30 11059 H 1068.37 -2.97917 -0.930145 0
M  V30 11060 N 1068.67 0.153526 -1.5685 0
M  V30 11061 C 1069.63 1.17362 -1.96873 0
M  V30 11062 C 1070.63 1.36219 -0.854456 0
M  V30 11063 O 1071.82 1.33322 -1.1212 0
M  V30 11064 C 1068.95 2.53523 -2.27901 0
M  V30 11065 H 1070.14 0.830432 -2.88173 0
M  V30 11066 H 1067.7 0.396633 -1.51184 0
M  V30 11067 H 1068.43 2.92824 -1.39371 0
M  V30 11068 H 1068.22 2.41198 -3.09137 0
M  V30 11069 H 1069.71 3.27006 -2.59725 0
M  V30 11070 N 1070.14 1.51827 0.422667 0
M  V30 11071 C 1071.56 1.57533 1.00201 0
M  V30 11072 C 1071.91 0.407623 1.91919 0
M  V30 11073 O 1071.03 -0.473763 2.1115 0
M  V30 11074 C 1071.63 2.85508 1.82403 0
M  V30 11075 C 1070.19 2.93737 2.35362 0
M  V30 11076 C 1069.33 2.52343 1.14971 0
M  V30 11077 H 1072.28 1.57391 0.20339 0
M  V30 11078 H 1072.3 2.70097 2.68007 0
M  V30 11079 H 1071.82 3.70477 1.15623 0
M  V30 11080 H 1069.92 2.13231 3.05554 0
M  V30 11081 H 1070.03 3.977 2.67155 0
M  V30 11082 H 1068.39 2.05878 1.49955 0
M  V30 11083 H 1069.18 3.39672 0.497786 0
M  V30 11084 N 1071.62 -0.679052 1.4222 0
M  V30 11085 C 1072.57 -1.81398 1.45594 0
M  V30 11086 C 1073.56 -1.66112 0.332127 0
M  V30 11087 O 1074.77 -1.72772 0.504942 0
M  V30 11088 H 1071.15 -0.598045 0.455902 0
M  V30 11089 H 1073.12 -1.7567 2.41211 0
M  V30 11090 C 1071.87 -3.19525 1.37109 0
M  V30 11091 H 1071.19 -3.31912 2.22878 0
M  V30 11092 H 1072.63 -3.98967 1.43531 0
M  V30 11093 C 1071.09 -3.36792 0.0853593 0
M  V30 11094 O 1071.62 -3.92309 -0.863532 0
M  V30 11095 N 1069.82 -2.906 0.00389229 0
M  V30 11096 H 1069.37 -2.45607 0.776846 0
M  V30 11097 H 1069.33 -3.0253 -0.855742 0
M  V30 11098 N 1073.1 -1.28322 -0.914942 0
M  V30 11099 C 1074.51 -1.13937 -1.47903 0
M  V30 11100 C 1074.86 0.271072 -1.94318 0
M  V30 11101 O 1073.99 1.16522 -1.8235 0
M  V30 11102 C 1074.58 -2.06221 -2.68809 0
M  V30 11103 C 1073.14 -1.95903 -3.21402 0
M  V30 11104 C 1072.29 -1.98031 -1.94111 0
M  V30 11105 H 1075.24 -1.41029 -0.727772 0
M  V30 11106 H 1075.26 -1.6255 -3.44031 0
M  V30 11107 H 1074.77 -3.08866 -2.34997 0
M  V30 11108 H 1072.87 -0.962907 -3.59943 0
M  V30 11109 H 1072.99 -2.82799 -3.86732 0
M  V30 11110 H 1071.35 -1.42423 -2.11158 0
M  V30 11111 H 1072.13 -3.02354 -1.62595 0
M  V30 11112 N 1074.58 1.12322 -1.10551 0
M  V30 11113 C 1075.53 2.18087 -0.755424 0
M  V30 11114 C 1076.5 1.6391 0.268805 0
M  V30 11115 O 1077.68 1.90227 0.147813 0
M  V30 11116 C 1074.82 3.4455 -0.194713 0
M  V30 11117 C 1073.93 4.12775 -1.27439 0
M  V30 11118 C 1073.07 5.26891 -0.675194 0
M  V30 11119 C 1072.11 5.86985 -1.73536 0
M  V30 11120 N 1071.24 6.92512 -1.15635 0
M  V30 11121 H 1076.08 2.47379 -1.66155 0
M  V30 11122 H 1073.62 1.21452 -0.829924 0
M  V30 11123 H 1075.58 4.16936 0.148275 0
M  V30 11124 H 1074.21 3.15671 0.674638 0
M  V30 11125 H 1073.26 3.38556 -1.73448 0
M  V30 11126 H 1074.57 4.53506 -2.07687 0
M  V30 11127 H 1073.73 6.06046 -0.281723 0
M  V30 11128 H 1072.47 4.87442 0.158708 0
M  V30 11129 H 1071.47 5.06517 -2.13825 0
M  V30 11130 H 1072.7 6.28505 -2.57213 0
M  V30 11131 H 1070.64 6.55098 -0.343928 0
M  V30 11132 H 1070.56 7.31848 -1.89565 0
M  V30 11133 H 1071.83 7.75492 -0.789463 0
M  V30 11134 N 1076.06 0.894434 1.2976 0
M  V30 11135 C 1076.97 0.372622 2.31622 0
M  V30 11136 C 1077.98 -0.52996 1.65733 0
M  V30 11137 O 1079.16 -0.420807 1.96955 0
M  V30 11138 C 1076.22 -0.396076 3.4443 0
M  V30 11139 C 1075.28 0.537394 4.25923 0
M  V30 11140 C 1074.52 -0.194713 5.33345 0
M  V30 11141 O 1074.74 -1.41943 5.52457 0
M  V30 11142 O 1073.67 0.460055 6.00139 0
M  V30 11143 H 1077.5 1.21756 2.78225 0
M  V30 11144 H 1075.09 0.65858 1.34101 0
M  V30 11145 H 1076.97 -0.830962 4.13126 0
M  V30 11146 H 1075.64 -1.21716 2.99945 0
M  V30 11147 H 1074.55 1.02129 3.5989 0
M  V30 11148 H 1075.88 1.32475 4.74037 0
M  V30 11149 N 1077.53 -1.43282 0.656365 0
M  V30 11150 C 1078.78 -2.02603 0.179905 0
M  V30 11151 C 1079.14 -1.50875 -1.19393 0
M  V30 11152 O 1078.43 -0.6935 -1.78609 0
M  V30 11153 C 1078.62 -3.57148 0.134225 0
M  V30 11154 C 1078.45 -4.23872 1.50209 0
M  V30 11155 C 1077.22 -4.59812 2.09526 0
M  V30 11156 C 1079.42 -4.52674 2.44112 0
M  V30 11157 N 1077.4 -5.11624 3.39284 0
M  V30 11158 C 1078.77 -5.05839 3.58506 0
M  V30 11159 C 1080.83 -4.34645 2.42874 0
M  V30 11160 C 1079.53 -5.42872 4.71892 0
M  V30 11161 C 1081.56 -4.72742 3.55343 0
M  V30 11162 C 1080.92 -5.26043 4.68463 0
M  V30 11163 H 1077.02 -0.774177 0.110334 0
M  V30 11164 H 1079.6 -1.74413 0.865352 0
M  V30 11165 H 1077.77 -3.84896 -0.520575 0
M  V30 11166 H 1079.5 -4.03154 -0.3534 0
M  V30 11167 H 1076.26 -4.44958 1.62203 0
M  V30 11168 H 1076.68 -5.4198 4.05693 0
M  V30 11169 H 1081.33 -3.92708 1.56654 0
M  V30 11170 H 1079.04 -5.83752 5.58802 0
M  V30 11171 H 1082.63 -4.60485 3.55591 0
M  V30 11172 H 1081.51 -5.54975 5.54051 0
M  V30 11173 N 1079.01 -0.398486 -1.52479 0
M  V30 11174 C 1080.29 0.238776 -1.94137 0
M  V30 11175 C 1080.67 1.63558 -1.33462 0
M  V30 11176 O 1080.02 2.22821 -0.506272 0
M  V30 11177 C 1080.23 0.255863 -3.48061 0
M  V30 11178 C 1081.58 0.480376 -4.21874 0
M  V30 11179 O 1082.6 0.335679 -3.54615 0
M  V30 11180 O 1081.46 0.764654 -5.41124 0
M  V30 11181 H 1078.55 0.150806 -0.813134 0
M  V30 11182 H 1081.1 -0.453659 -1.63524 0
M  V30 11183 H 1079.87 -0.722171 -3.84578 0
M  V30 11184 H 1079.49 0.99284 -3.85004 0
M  V30 11185 N 1080.49 1.57075 -0.12858 0
M  V30 11186 C 1081.77 1.87075 0.571162 0
M  V30 11187 C 1082.15 1.03141 1.84188 0
M  V30 11188 O 1081.5 0.113001 2.2822 0
M  V30 11189 C 1081.71 3.3838 0.854383 0
M  V30 11190 C 1083.05 4.07194 1.20326 0
M  V30 11191 O 1084.08 3.43454 0.944338 0
M  V30 11192 O 1082.94 5.19725 1.68963 0
M  V30 11193 H 1080.03 0.774764 0.289258 0
M  V30 11194 H 1082.58 1.68908 -0.163806 0
M  V30 11195 H 1081.35 3.91273 -0.0456925 0
M  V30 11196 H 1080.97 3.62012 1.64418 0
M  V30 11197 N 1081.97 -0.145205 1.5693 0
M  V30 11198 C 1083.2 -0.871133 1.87336 0
M  V30 11199 C 1083.61 -1.7517 0.714992 0
M  V30 11200 O 1082.95 -1.80815 -0.324304 0
M  V30 11201 C 1083.01 -1.77775 3.12468 0
M  V30 11202 C 1082.68 -1.07416 4.44197 0
M  V30 11203 C 1083.67 -0.42722 5.18142 0
M  V30 11204 C 1081.36 -1.06313 4.9092 0
M  V30 11205 C 1083.35 0.221348 6.37016 0
M  V30 11206 C 1081.04 -0.410755 6.09718 0
M  V30 11207 C 1082.04 0.230357 6.82611 0
M  V30 11208 O 1081.73 0.872389 7.99152 0
M  V30 11209 H 1081.46 -0.257174 0.62517 0
M  V30 11210 H 1084.01 -0.142159 2.04907 0
M  V30 11211 H 1082.24 -2.54771 2.9091 0
M  V30 11212 H 1083.93 -2.37579 3.29107 0
M  V30 11213 H 1084.7 -0.427536 4.83112 0
M  V30 11214 H 1080.58 -1.55156 4.34105 0
M  V30 11215 H 1084.12 0.722349 6.9385 0
M  V30 11216 H 1080.02 -0.408112 6.44209 0
M  V30 11217 H 1080.78 0.774236 8.1483 0
M  V30 11218 N 1083.45 -1.52049 -0.414609 0
M  V30 11219 C 1084.68 -1.69679 -1.18392 0
M  V30 11220 C 1085.09 -0.403881 -1.84429 0
M  V30 11221 O 1084.45 0.619636 -1.71659 0
M  V30 11222 C 1084.5 -2.82855 -2.25112 0
M  V30 11223 O 1084.22 -4.07138 -1.61772 0
M  V30 11224 C 1085.72 -3.11948 -3.14965 0
M  V30 11225 H 1082.94 -0.56879 -0.355977 0
M  V30 11226 H 1085.48 -1.9858 -0.488505 0
M  V30 11227 H 1083.64 -2.56488 -2.90332 0
M  V30 11228 H 1084.05 -4.70163 -2.32479 0
M  V30 11229 H 1085.53 -3.94665 -3.85932 0
M  V30 11230 H 1086 -2.25276 -3.77024 0
M  V30 11231 H 1086.61 -3.40059 -2.55421 0
M  V30 11232 N 1084.93 0.6715 -1.42579 0
M  V30 11233 C 1086.17 1.43214 -1.44435 0
M  V30 11234 C 1086.53 1.92304 -0.0608703 0
M  V30 11235 O 1085.82 1.68204 0.917499 0
M  V30 11236 C 1086.01 2.64256 -2.40632 0
M  V30 11237 C 1085.84 2.2701 -3.88197 0
M  V30 11238 C 1084.61 2.16211 -4.56706 0
M  V30 11239 C 1086.81 1.88447 -4.78531 0
M  V30 11240 N 1084.79 1.72104 -5.89282 0
M  V30 11241 C 1086.16 1.55284 -6.00239 0
M  V30 11242 C 1088.22 1.75469 -4.65956 0
M  V30 11243 C 1086.92 1.10444 -7.1077 0
M  V30 11244 C 1088.95 1.32034 -5.76473 0
M  V30 11245 C 1088.31 0.997961 -6.97295 0
M  V30 11246 H 1084.41 0.520415 -0.583688 0
M  V30 11247 H 1086.99 0.774581 -1.78629 0
M  V30 11248 H 1085.16 3.27696 -2.08494 0
M  V30 11249 H 1086.9 3.30865 -2.33046 0
M  V30 11250 H 1083.65 2.35386 -4.10963 0
M  V30 11251 H 1084.07 1.52464 -6.59609 0
M  V30 11252 H 1088.72 1.99038 -3.7302 0
M  V30 11253 H 1086.43 0.856218 -8.03551 0
M  V30 11254 H 1090.02 1.22507 -5.68756 0
M  V30 11255 H 1088.9 0.666968 -7.81359 0
M  V30 11256 N 1086.4 1.28806 0.908124 0
M  V30 11257 C 1087.34 1.09018 2.01613 0
M  V30 11258 C 1088.35 0.0402059 1.6275 0
M  V30 11259 O 1089.54 0.283853 1.76229 0
M  V30 11260 C 1086.64 0.635712 3.32884 0
M  V30 11261 C 1085.81 1.76235 4.00325 0
M  V30 11262 C 1084.87 1.3003 5.09881 0
M  V30 11263 O 1083.9 2.00354 5.32773 0
M  V30 11264 N 1085.1 0.166575 5.80261 0
M  V30 11265 H 1087.86 2.0444 2.19144 0
M  V30 11266 H 1085.42 1.20633 1.07978 0
M  V30 11267 H 1087.42 0.310097 4.0351 0
M  V30 11268 H 1085.99 -0.225816 3.11783 0
M  V30 11269 H 1085.21 2.25727 3.23173 0
M  V30 11270 H 1086.49 2.51796 4.42127 0
M  V30 11271 H 1085.89 -0.419934 5.64139 0
M  V30 11272 H 1084.45 -0.0997281 6.51724 0
M  V30 11273 N 1087.88 -1.11734 1.11145 0
M  V30 11274 C 1089.11 -1.87755 0.881062 0
M  V30 11275 C 1089.53 -1.79461 -0.563496 0
M  V30 11276 O 1088.89 -1.15481 -1.39763 0
M  V30 11277 C 1088.94 -3.34641 1.34342 0
M  V30 11278 O 1088.04 -4.09195 0.513157 0
M  V30 11279 H 1087.38 -0.583111 0.317613 0
M  V30 11280 H 1089.91 -1.41256 1.48013 0
M  V30 11281 H 1089.92 -3.85486 1.33658 0
M  V30 11282 H 1088.6 -3.39994 2.39534 0
M  V30 11283 H 1087.17 -3.68269 0.585833 0
M  V30 11284 N 1089.36 -0.901303 -1.29284 0
M  V30 11285 C 1090.32 -0.385081 -2.25942 0
M  V30 11286 C 1091.32 0.481626 -1.53418 0
M  V30 11287 O 1092.51 0.286451 -1.71829 0
M  V30 11288 C 1089.64 0.449319 -3.37926 0
M  V30 11289 H 1090.84 -1.23877 -2.7312 0
M  V30 11290 H 1088.39 -0.679586 -1.40753 0
M  V30 11291 H 1089.13 1.32292 -2.9609 0
M  V30 11292 H 1088.91 -0.171731 -3.91724 0
M  V30 11293 H 1090.4 0.801746 -4.09831 0
M  V30 11294 N 1090.84 1.42931 -0.663954 0
M  V30 11295 C 1092.06 2.06544 -0.188201 0
M  V30 11296 C 1092.49 1.495 1.14155 0
M  V30 11297 O 1091.85 0.609164 1.7076 0
M  V30 11298 C 1091.89 3.60393 -0.122105 0
M  V30 11299 O 1091 4.02176 0.91258 0
M  V30 11300 H 1090.34 0.656458 -0.0997967 0
M  V30 11301 H 1092.87 1.83253 -0.909909 0
M  V30 11302 H 1092.88 4.07959 0.0576568 0
M  V30 11303 H 1091.55 4.01287 -1.09276 0
M  V30 11304 H 1090.13 3.6618 0.704738 0
M  V30 11305 N 1092.32 0.406567 1.52266 0
M  V30 11306 C 1093.26 -0.43489 2.28498 0
M  V30 11307 C 1094.26 -1.04806 1.33086 0
M  V30 11308 O 1095.46 -0.986557 1.50556 0
M  V30 11309 H 1091.84 -0.159023 0.734994 0
M  V30 11310 H 1093.81 0.229316 2.97518 0
M  V30 11311 C 1092.56 -1.54073 3.117 0
M  V30 11312 H 1091.88 -1.07824 3.84986 0
M  V30 11313 H 1093.32 -2.10337 3.6815 0
M  V30 11314 C 1091.78 -2.50662 2.251 0
M  V30 11315 O 1092.31 -3.54486 1.88951 0
M  V30 11316 N 1090.52 -2.20811 1.8892 0
M  V30 11317 H 1090.06 -1.36413 2.18516 0
M  V30 11318 H 1090.02 -2.85684 1.3127 0
M  V30 11319 N 1093.79 -1.57004 0.136909 0
M  V30 11320 C 1095.21 -1.82675 -0.385577 0
M  V30 11321 C 1095.56 -1.05508 -1.65416 0
M  V30 11322 O 1094.68 -0.297207 -2.14349 0
M  V30 11323 C 1095.28 -3.31356 -0.706326 0
M  V30 11324 C 1093.84 -3.57644 -1.17337 0
M  V30 11325 C 1092.98 -2.7664 -0.191239 0
M  V30 11326 H 1095.93 -1.54522 0.36177 0
M  V30 11327 H 1095.95 -3.4696 -1.56201 0
M  V30 11328 H 1095.47 -3.87492 0.217147 0
M  V30 11329 H 1093.57 -3.06883 -2.11313 0
M  V30 11330 H 1093.68 -4.66152 -1.10632 0
M  V30 11331 H 1092.04 -2.45403 -0.681867 0
M  V30 11332 H 1092.83 -3.35543 0.725647 0
M  V30 11333 N 1095.27 0.136881 -1.57004 0
M  V30 11334 C 1096.5 0.866405 -1.88436 0
M  V30 11335 C 1096.92 1.73483 -0.727006 0
M  V30 11336 O 1096.28 1.78398 0.323094 0
M  V30 11337 C 1096.33 1.69059 -3.18514 0
M  V30 11338 O 1095.43 2.79584 -3.03161 0
M  V30 11339 H 1094.77 0.240709 -0.618834 0
M  V30 11340 H 1097.3 0.124653 -2.0422 0
M  V30 11341 H 1097.31 2.08353 -3.50789 0
M  V30 11342 H 1095.99 1.05296 -4.0235 0
M  V30 11343 H 1094.57 2.43623 -2.82315 0
M  V30 11344 N 1096.75 1.52266 0.40654 0
M  V30 11345 C 1098 1.66699 1.15496 0
M  V30 11346 C 1098.33 0.397019 1.90098 0
M  V30 11347 O 1097.6 -0.604646 1.84863 0
M  V30 11348 C 1097.89 2.8907 2.14734 0
M  V30 11349 C 1097.74 4.26123 1.44012 0
M  V30 11350 C 1099.06 3.06966 3.15373 0
M  V30 11351 H 1096.18 0.606642 0.418515 0
M  V30 11352 H 1098.82 1.84826 0.440381 0
M  V30 11353 H 1096.97 2.73745 2.75673 0
M  V30 11354 H 1098.64 4.5318 0.861722 0
M  V30 11355 H 1096.89 4.27406 0.742064 0
M  V30 11356 H 1097.56 5.07799 2.16436 0
M  V30 11357 H 1100.03 3.21205 2.64512 0
M  V30 11358 H 1098.91 3.94097 3.82072 0
M  V30 11359 H 1099.17 2.20395 3.83247 0
M  V30 11360 N 1098.23 -0.663929 1.42933 0
M  V30 11361 C 1099.48 -1.42393 1.43981 0
M  V30 11362 C 1099.8 -1.94407 0.0601802 0
M  V30 11363 O 1099.06 -1.72019 -0.933172 0
M  V30 11364 C 1099.36 -2.62976 2.4203 0
M  V30 11365 C 1099.02 -2.29441 3.88159 0
M  V30 11366 C 1097.69 -2.20007 4.27961 0
M  V30 11367 C 1100.04 -2.02413 4.8029 0
M  V30 11368 C 1097.37 -1.81686 5.57859 0
M  V30 11369 C 1099.72 -1.65592 6.10542 0
M  V30 11370 C 1098.38 -1.54676 6.49332 0
M  V30 11371 H 1097.65 -0.521051 0.526865 0
M  V30 11372 H 1100.3 -0.756042 1.75944 0
M  V30 11373 H 1098.6 -3.34847 2.03433 0
M  V30 11374 H 1100.3 -3.21174 2.40101 0
M  V30 11375 H 1096.89 -2.3769 3.56653 0
M  V30 11376 H 1101.07 -2.08628 4.5032 0
M  V30 11377 H 1096.33 -1.71812 5.86763 0
M  V30 11378 H 1100.5 -1.43707 6.81411 0
M  V30 11379 H 1098.13 -1.24752 7.49894 0
M  V30 11380 N 1099.71 -1.29285 -0.901281 0
M  V30 11381 C 1100.95 -1.17165 -1.65162 0
M  V30 11382 C 1101.28 0.277184 -1.92515 0
M  V30 11383 O 1100.54 1.2168 -1.53273 0
M  V30 11384 C 1100.84 -1.92865 -3.00895 0
M  V30 11385 C 1100.5 -3.42593 -2.93157 0
M  V30 11386 C 1099.16 -3.83426 -2.90754 0
M  V30 11387 C 1101.52 -4.38011 -2.82481 0
M  V30 11388 C 1098.84 -5.17997 -2.75492 0
M  V30 11389 C 1101.2 -5.7267 -2.68759 0
M  V30 11390 C 1099.86 -6.12764 -2.64721 0
M  V30 11391 H 1099.13 -0.428737 -0.604372 0
M  V30 11392 H 1101.78 -1.60204 -1.04914 0
M  V30 11393 H 1100.08 -1.42412 -3.65001 0
M  V30 11394 H 1101.78 -1.80893 -3.57881 0
M  V30 11395 H 1098.37 -3.10134 -2.95829 0
M  V30 11396 H 1102.55 -4.07417 -2.83416 0
M  V30 11397 H 1097.81 -5.48173 -2.70769 0
M  V30 11398 H 1101.98 -6.46258 -2.59469 0
M  V30 11399 H 1099.61 -7.16987 -2.52652 0
M  V30 11400 N 1101.18 1.11143 -1.11736 0
M  V30 11401 C 1102.13 2.17274 -0.778513 0
M  V30 11402 C 1103.1 1.64186 0.251405 0
M  V30 11403 O 1104.29 1.90373 0.127629 0
M  V30 11404 C 1101.43 3.44324 -0.231246 0
M  V30 11405 C 1100.54 4.114 -1.31809 0
M  V30 11406 C 1099.67 5.26146 -0.73104 0
M  V30 11407 C 1098.71 5.85112 -1.79752 0
M  V30 11408 N 1097.85 6.91247 -1.22973 0
M  V30 11409 H 1102.69 2.45603 -1.68769 0
M  V30 11410 H 1100.23 1.20565 -0.842759 0
M  V30 11411 H 1102.19 4.1707 0.104045 0
M  V30 11412 H 1100.82 3.16369 0.641119 0
M  V30 11413 H 1099.87 3.36697 -1.77029 0
M  V30 11414 H 1101.18 4.51278 -2.12485 0
M  V30 11415 H 1100.33 6.05713 -0.345987 0
M  V30 11416 H 1099.07 4.87583 0.107 0
M  V30 11417 H 1098.08 5.0422 -2.19185 0
M  V30 11418 H 1099.3 6.25741 -2.63865 0
M  V30 11419 H 1097.25 6.54696 -0.41339 0
M  V30 11420 H 1097.17 7.29796 -1.97316 0
M  V30 11421 H 1098.43 7.74611 -0.87167 0
M  V30 11422 N 1102.66 0.908147 1.28804 0
M  V30 11423 C 1103.91 0.539201 1.95501 0
M  V30 11424 C 1104.24 -0.913759 1.7136 0
M  V30 11425 O 1103.52 -1.64904 1.03136 0
M  V30 11426 C 1103.8 0.842372 3.50109 0
M  V30 11427 C 1103.65 2.34765 3.83673 0
M  V30 11428 C 1104.97 0.334658 4.38826 0
M  V30 11429 H 1102.09 0.197373 0.71008 0
M  V30 11430 H 1104.73 1.13637 1.52272 0
M  V30 11431 H 1102.88 0.334143 3.8706 0
M  V30 11432 H 1104.55 2.92607 3.56621 0
M  V30 11433 H 1102.8 2.80494 3.30916 0
M  V30 11434 H 1103.47 2.51034 4.91616 0
M  V30 11435 H 1105.94 0.769961 4.08914 0
M  V30 11436 H 1104.82 0.575914 5.4587 0
M  V30 11437 H 1105.08 -0.764878 4.35433 0
M  V30 11438 N 1104.14 -1.42577 0.671525 0
M  V30 11439 C 1105.39 -2.01185 0.192051 0
M  V30 11440 C 1105.71 -1.53349 -1.20454 0
M  V30 11441 O 1104.98 -0.753781 -1.80817 0
M  V30 11442 H 1103.56 -0.743898 0.0680106 0
M  V30 11443 H 1106.22 -1.74539 0.8673 0
M  V30 11444 H 1105.32 -3.11516 0.190796 0
M  V30 11445 N 1105.62 -0.414636 -1.52048 0
M  V30 11446 C 1106.9 0.218172 -1.94379 0
M  V30 11447 C 1107.28 1.62133 -1.35189 0
M  V30 11448 O 1106.62 2.22271 -0.529877 0
M  V30 11449 C 1106.83 0.218932 -3.48313 0
M  V30 11450 C 1108.18 0.435604 -4.2236 0
M  V30 11451 O 1109.21 0.298049 -3.54951 0
M  V30 11452 O 1108.06 0.707217 -5.41905 0
M  V30 11453 H 1105.16 0.142173 -0.814688 0
M  V30 11454 H 1107.7 -0.470977 -1.63033 0
M  V30 11455 H 1106.48 -0.76292 -3.83791 0
M  V30 11456 H 1106.1 0.951949 -3.86036 0
M  V30 11457 N 1107.1 1.56929 -0.145233 0
M  V30 11458 C 1108.32 2.00431 0.513314 0
M  V30 11459 C 1108.74 1.0253 1.58534 0
M  V30 11460 O 1108.1 0.0220459 1.82487 0
M  V30 11461 C 1108.15 3.43856 1.11557 0
M  V30 11462 O 1107.87 4.38015 0.0863707 0
M  V30 11463 C 1109.37 4.02627 1.8549 0
M  V30 11464 H 1106.59 0.657529 0.133778 0
M  V30 11465 H 1109.13 2.03095 -0.239296 0
M  V30 11466 H 1107.29 3.4205 1.81881 0
M  V30 11467 H 1107.7 5.21842 0.527363 0
M  V30 11468 H 1109.18 5.04985 2.22923 0
M  V30 11469 H 1109.65 3.43239 2.74014 0
M  V30 11470 H 1110.26 4.08058 1.19869 0
M  V30 11471 N 1108.58 -0.128553 1.57075 0
M  V30 11472 C 1109.8 -0.8564 1.88893 0
M  V30 11473 C 1110.23 -1.73095 0.736196 0
M  V30 11474 O 1109.58 -1.78567 -0.313629 0
M  V30 11475 C 1109.63 -1.67368 3.19406 0
M  V30 11476 O 1108.74 -2.77973 3.04639 0
M  V30 11477 H 1108.08 -0.237424 0.620102 0
M  V30 11478 H 1110.61 -0.113821 2.04283 0
M  V30 11479 H 1110.62 -2.0649 3.51889 0
M  V30 11480 H 1109.29 -1.03161 4.02903 0
M  V30 11481 H 1107.87 -2.42123 2.83603 0
M  V30 11482 N 1110.05 -1.5248 -0.398459 0
M  V30 11483 C 1111.47 -1.4152 -0.737854 0
M  V30 11484 C 1111.67 -0.528122 -1.94456 0
M  V30 11485 O 1110.73 0.00203799 -2.525 0
M  V30 11486 C 1112.04 -2.8422 -0.9818 0
M  V30 11487 C 1113.59 -2.93635 -1.08386 0
M  V30 11488 C 1114.06 -4.37327 -1.3605 0
M  V30 11489 N 1115.55 -4.40609 -1.42892 0
M  V30 11490 C 1116.29 -5.48863 -1.65944 0
M  V30 11491 N 1115.78 -6.67217 -1.86529 0
M  V30 11492 N 1117.58 -5.36393 -1.68046 0
M  V30 11493 H 1109.73 -2.08681 0.395705 0
M  V30 11494 H 1111.99 -0.941023 0.114801 0
M  V30 11495 H 1111.7 -3.51302 -0.167358 0
M  V30 11496 H 1111.57 -3.25907 -1.89907 0
M  V30 11497 H 1113.96 -2.26728 -1.88888 0
M  V30 11498 H 1114.04 -2.5539 -0.144714 0
M  V30 11499 H 1113.68 -5.04797 -0.56061 0
M  V30 11500 H 1113.61 -4.73116 -2.31233 0
M  V30 11501 H 1116.1 -3.55298 -1.2873 0
M  V30 11502 H 1116.42 -7.45498 -2.03599 0
M  V30 11503 H 1114.76 -6.70263 -1.83773 0
M  V30 11504 H 1117.95 -4.42903 -1.51509 0
M  V30 11505 H 1118.13 -6.2083 -1.85672 0
M  V30 11506 N 1111.53 0.65634 -1.43283 0
M  V30 11507 C 1112.78 1.41627 -1.44734 0
M  V30 11508 C 1113.11 1.94372 -0.0704893 0
M  V30 11509 O 1112.36 1.72511 0.924037 0
M  V30 11510 C 1112.66 2.61688 -2.43421 0
M  V30 11511 C 1112.33 2.2738 -3.8937 0
M  V30 11512 C 1110.99 2.17735 -4.29121 0
M  V30 11513 C 1113.34 1.99863 -4.81357 0
M  V30 11514 C 1110.67 1.78725 -5.58815 0
M  V30 11515 C 1113.02 1.62352 -6.11412 0
M  V30 11516 C 1111.68 1.51231 -6.50143 0
M  V30 11517 H 1110.95 0.51825 -0.529621 0
M  V30 11518 H 1113.6 0.746701 -1.76342 0
M  V30 11519 H 1111.91 3.33763 -2.05206 0
M  V30 11520 H 1113.6 3.19896 -2.41801 0
M  V30 11521 H 1110.19 2.35795 -3.57908 0
M  V30 11522 H 1114.38 2.06237 -4.5142 0
M  V30 11523 H 1109.63 1.68698 -5.87666 0
M  V30 11524 H 1113.81 1.40091 -6.82164 0
M  V30 11525 H 1111.43 1.20774 -7.50545 0
M  V30 11526 N 1113.01 1.29761 0.894412 0
M  V30 11527 C 1114.23 1.21064 1.68399 0
M  V30 11528 C 1114.66 -0.224608 1.86754 0
M  V30 11529 O 1114.02 -1.16199 1.39167 0
M  V30 11530 C 1114.07 1.93468 3.04306 0
M  V30 11531 O 1113.17 1.25533 3.9283 0
M  V30 11532 H 1112.51 0.419223 0.514925 0
M  V30 11533 H 1115.04 1.71421 1.11696 0
M  V30 11534 H 1115.05 2.02127 3.54413 0
M  V30 11535 H 1113.73 2.97857 2.90265 0
M  V30 11536 H 1112.3 1.25168 3.51266 0
M  V30 11537 N 1114.49 -1.10549 1.12324 0
M  V30 11538 C 1115.73 -1.82755 0.879117 0
M  V30 11539 C 1116.07 -1.84905 -0.593604 0
M  V30 11540 O 1115.34 -1.30884 -1.43873 0
M  V30 11541 C 1115.62 -3.29481 1.45308 0
M  V30 11542 C 1115.48 -3.3567 2.99408 0
M  V30 11543 C 1116.8 -4.25828 1.11167 0
M  V30 11544 H 1113.92 -0.663513 0.32081 0
M  V30 11545 H 1116.56 -1.29572 1.38965 0
M  V30 11546 H 1114.71 -3.74902 1.01887 0
M  V30 11547 H 1116.38 -2.98739 3.515 0
M  V30 11548 H 1114.62 -2.75606 3.34998 0
M  V30 11549 H 1115.29 -4.38983 3.34661 0
M  V30 11550 H 1117.77 -3.88635 1.48667 0
M  V30 11551 H 1116.65 -5.26857 1.53991 0
M  V30 11552 H 1116.91 -4.42094 0.0237046 0
M  V30 11553 N 1115.97 -0.914965 -1.28321 0
M  V30 11554 C 1117.38 -0.59512 -1.76961 0
M  V30 11555 C 1117.73 0.88958 -1.74874 0
M  V30 11556 O 1116.85 1.6959 -1.34418 0
M  V30 11557 C 1117.45 -1.07353 -3.21342 0
M  V30 11558 C 1116.01 -0.804577 -3.677 0
M  V30 11559 C 1115.15 -1.23955 -2.48053 0
M  V30 11560 H 1118.1 -1.0961 -1.14767 0
M  V30 11561 H 1118.13 -0.415506 -3.78225 0
M  V30 11562 H 1117.64 -2.15413 -3.22829 0
M  V30 11563 H 1115.74 0.26277 -3.71672 0
M  V30 11564 H 1115.85 -1.41317 -4.57784 0
M  V30 11565 H 1114.22 -0.658274 -2.46046 0
M  V30 11566 H 1115 -2.32853 -2.52258 0
M  V30 11567 N 1117.44 1.42219 -0.679077 0
M  V30 11568 C 1118.67 2.05516 -0.211342 0
M  V30 11569 C 1119.08 1.5113 1.13826 0
M  V30 11570 O 1118.42 0.647593 1.71907 0
M  V30 11571 C 1118.49 3.59425 -0.0736007 0
M  V30 11572 C 1118.15 4.36525 -1.3526 0
M  V30 11573 C 1119.15 4.66897 -2.28698 0
M  V30 11574 C 1116.83 4.76089 -1.60139 0
M  V30 11575 C 1118.83 5.35775 -3.45288 0
M  V30 11576 C 1116.51 5.44706 -2.77017 0
M  V30 11577 C 1117.51 5.74474 -3.69416 0
M  V30 11578 O 1117.2 6.41683 -4.8425 0
M  V30 11579 H 1116.93 0.668662 -0.0993318 0
M  V30 11580 H 1119.49 1.8327 -0.927434 0
M  V30 11581 H 1117.72 3.80346 0.69811 0
M  V30 11582 H 1119.4 4.04346 0.354813 0
M  V30 11583 H 1120.17 4.36828 -2.10729 0
M  V30 11584 H 1116.05 4.5231 -0.890887 0
M  V30 11585 H 1119.59 5.58927 -4.17428 0
M  V30 11586 H 1115.49 5.74194 -2.9491 0
M  V30 11587 H 1116.26 6.60175 -4.8385 0
M  V30 11588 N 1118.92 0.422693 1.51826 0
M  V30 11589 C 1120.17 -0.148861 2.02253 0
M  V30 11590 C 1120.5 -1.43629 1.30707 0
M  V30 11591 O 1119.78 -1.89967 0.417482 0
M  V30 11592 C 1120.06 -0.382672 3.58061 0
M  V30 11593 C 1119.91 0.922386 4.40241 0
M  V30 11594 C 1121.23 -1.1589 4.24567 0
M  V30 11595 H 1118.35 -0.0526279 0.735119 0
M  V30 11596 H 1120.99 0.558821 1.81596 0
M  V30 11597 H 1119.14 -0.985495 3.75793 0
M  V30 11598 H 1120.81 1.55806 4.34191 0
M  V30 11599 H 1119.06 1.53032 4.05911 0
M  V30 11600 H 1119.73 0.713012 5.47376 0
M  V30 11601 H 1122.2 -0.648415 4.11017 0
M  V30 11602 H 1121.08 -1.29125 5.33496 0
M  V30 11603 H 1121.34 -2.18315 3.84436 0
M  V30 11604 N 1120.4 -1.5685 0.153553 0
M  V30 11605 C 1121.65 -1.95946 -0.494936 0
M  V30 11606 C 1121.97 -1.03975 -1.64967 0
M  V30 11607 O 1121.24 -0.102572 -1.95631 0
M  V30 11608 H 1119.82 -0.723516 -0.185833 0
M  V30 11609 H 1122.48 -1.93531 0.230585 0
M  V30 11610 H 1121.58 -2.99823 -0.866743 0
M  V30 11611 N 1121.88 0.120221 -1.57141 0
M  V30 11612 C 1122.81 1.14876 -2.03287 0
M  V30 11613 C 1123.79 1.43259 -0.917112 0
M  V30 11614 O 1124.97 1.53721 -1.18674 0
M  V30 11615 C 1122.1 2.47525 -2.43616 0
M  V30 11616 C 1121.06 2.33607 -3.58625 0
M  V30 11617 C 1120.38 3.71207 -3.84849 0
M  V30 11618 C 1121.68 1.79761 -4.90391 0
M  V30 11619 H 1123.38 0.764943 -2.89463 0
M  V30 11620 H 1120.92 0.366516 -1.39258 0
M  V30 11621 H 1122.88 3.19728 -2.74504 0
M  V30 11622 H 1121.6 2.87794 -1.54409 0
M  V30 11623 H 1120.26 1.63853 -3.27945 0
M  V30 11624 H 1119.91 4.0896 -2.9285 0
M  V30 11625 H 1119.61 3.62749 -4.62263 0
M  V30 11626 H 1121.13 4.44917 -4.18188 0
M  V30 11627 H 1122.55 2.4178 -5.19822 0
M  V30 11628 H 1120.94 1.82126 -5.71795 0
M  V30 11629 H 1122.01 0.755087 -4.78985 0
M  V30 11630 N 1123.36 1.52689 0.390367 0
M  V30 11631 C 1124.32 1.76726 1.45947 0
M  V30 11632 C 1125.32 0.637269 1.47633 0
M  V30 11633 O 1126.51 0.905312 1.48828 0
M  V30 11634 C 1123.64 1.86678 2.85244 0
M  V30 11635 H 1124.83 2.72185 1.25918 0
M  V30 11636 H 1122.39 1.4339 0.622023 0
M  V30 11637 H 1123.12 0.931991 3.10619 0
M  V30 11638 H 1122.91 2.68843 2.85422 0
M  V30 11639 H 1124.4 2.06952 3.62713 0
M  V30 11640 N 1124.83 -0.648732 1.43629 0
M  V30 11641 C 1126.06 -1.44117 1.49148 0
M  V30 11642 C 1126.48 -1.87767 0.111952 0
M  V30 11643 O 1125.84 -1.57655 -0.895249 0
M  V30 11644 C 1125.89 -2.64938 2.44623 0
M  V30 11645 O 1124.99 -3.64155 1.93559 0
M  V30 11646 H 1124.34 -0.431933 0.504312 0
M  V30 11647 H 1126.87 -0.793439 1.88589 0
M  V30 11648 H 1126.88 -3.12698 2.62076 0
M  V30 11649 H 1125.55 -2.3251 3.44836 0
M  V30 11650 H 1124.13 -3.23322 1.85789 0
M  V30 11651 N 1126.31 -1.30234 -0.887518 0
M  V30 11652 C 1127.28 -1.16384 -1.97452 0
M  V30 11653 C 1128.28 -0.0957942 -1.60514 0
M  V30 11654 O 1129.47 -0.343706 -1.70776 0
M  V30 11655 C 1126.6 -0.782514 -3.31797 0
M  V30 11656 H 1127.79 -2.12952 -2.11167 0
M  V30 11657 H 1125.34 -1.13594 -1.07359 0
M  V30 11658 H 1126.08 0.18278 -3.23785 0
M  V30 11659 H 1125.86 -1.55434 -3.59976 0
M  V30 11660 H 1127.35 -0.709011 -4.11537 0
M  V30 11661 N 1127.79 1.09952 -1.12909 0
M  V30 11662 C 1129.02 1.8552 -0.909163 0
M  V30 11663 C 1129.43 1.81173 0.545253 0
M  V30 11664 O 1128.77 1.20223 1.38896 0
M  V30 11665 C 1128.83 3.34693 -1.31228 0
M  V30 11666 C 1128.5 3.62794 -2.77902 0
M  V30 11667 C 1129.49 3.58973 -3.76078 0
M  V30 11668 C 1127.18 3.91311 -3.1493 0
M  V30 11669 C 1129.17 3.83271 -5.09296 0
M  V30 11670 C 1126.86 4.15265 -4.48328 0
M  V30 11671 C 1127.86 4.11236 -5.4532 0
M  V30 11672 O 1127.55 4.34576 -6.76313 0
M  V30 11673 H 1127.28 0.59303 -0.324486 0
M  V30 11674 H 1129.83 1.39878 -1.5041 0
M  V30 11675 H 1128.06 3.81016 -0.660573 0
M  V30 11676 H 1129.75 3.9166 -1.06569 0
M  V30 11677 H 1130.52 3.36974 -3.48817 0
M  V30 11678 H 1126.4 3.93575 -2.40041 0
M  V30 11679 H 1129.94 3.80041 -5.84991 0
M  V30 11680 H 1125.84 4.36743 -4.75316 0
M  V30 11681 H 1126.61 4.52065 -6.82334 0
M  V30 11682 N 1129.27 0.921757 1.27833 0
M  V30 11683 C 1130.22 0.406628 2.29018 0
M  V30 11684 C 1131.21 -0.505914 1.61669 0
M  V30 11685 O 1132.42 -0.386273 1.75807 0
M  V30 11686 H 1128.79 0.112914 0.743475 0
M  V30 11687 H 1130.76 1.27295 2.69886 0
M  V30 11688 C 1129.51 -0.330783 3.46123 0
M  V30 11689 H 1128.83 0.362207 3.98156 0
M  V30 11690 H 1130.27 -0.655738 4.18899 0
M  V30 11691 C 1128.73 -1.54161 2.9956 0
M  V30 11692 O 1129.26 -2.64052 3.0272 0
M  V30 11693 N 1127.47 -1.39137 2.55126 0
M  V30 11694 H 1127.02 -0.497319 2.52754 0
M  V30 11695 H 1126.97 -2.20278 2.24333 0
M  V30 11696 N 1130.75 -1.41857 0.686609 0
M  V30 11697 C 1131.99 -2.03236 0.217839 0
M  V30 11698 C 1132.35 -1.5317 -1.15771 0
M  V30 11699 O 1133.55 -2.06415 -1.72181 0
M  V30 11700 C 1131.82 -3.56428 0.263443 0
M  V30 11701 S 1133.38 -4.386 -0.132595 0
M  V30 11702 H 1130.2 -0.705472 0.088487 0
M  V30 11703 H 1132.8 -1.73428 0.902393 0
M  V30 11704 H 1131.51 -3.90362 1.26672 0
M  V30 11705 H 1131.04 -3.90925 -0.440556 0
M  V30 11706 H 1133.05 -4.77119 -1.3628 0
M  V30 11707 N 1132.22 -0.430739 -1.51599 0
M  V30 11708 C 1133.47 0.137929 -2.0203 0
M  V30 11709 C 1133.8 1.43287 -1.31526 0
M  V30 11710 O 1133.05 1.9121 -0.416814 0
M  V30 11711 C 1133.35 0.410694 -3.55032 0
M  V30 11712 C 1133.02 -0.797634 -4.43789 0
M  V30 11713 C 1131.68 -1.12902 -4.67768 0
M  V30 11714 C 1134.03 -1.60403 -4.95904 0
M  V30 11715 C 1131.36 -2.2676 -5.41107 0
M  V30 11716 C 1133.71 -2.73354 -5.70491 0
M  V30 11717 C 1132.38 -3.06955 -5.92735 0
M  V30 11718 H 1131.65 0.0504718 -0.739279 0
M  V30 11719 H 1134.29 -0.576585 -1.82614 0
M  V30 11720 H 1132.6 1.20703 -3.72744 0
M  V30 11721 H 1134.3 0.864006 -3.91581 0
M  V30 11722 H 1130.89 -0.529397 -4.25318 0
M  V30 11723 H 1135.07 -1.36122 -4.77268 0
M  V30 11724 H 1130.33 -2.53114 -5.56546 0
M  V30 11725 H 1134.5 -3.36213 -6.09864 0
M  V30 11726 H 1132.13 -3.95293 -6.49344 0
M  V30 11727 N 1133.7 1.56767 -0.161869 0
M  V30 11728 C 1134.93 2.00673 0.491314 0
M  V30 11729 C 1135.34 1.04111 1.5798 0
M  V30 11730 O 1134.68 0.0324889 1.83671 0
M  V30 11731 C 1134.75 3.41011 1.13806 0
M  V30 11732 C 1134.41 4.56595 0.192384 0
M  V30 11733 C 1135.41 5.16591 -0.585671 0
M  V30 11734 C 1133.09 5.02218 0.0909594 0
M  V30 11735 C 1135.09 6.20631 -1.45245 0
M  V30 11736 C 1132.77 6.06109 -0.77941 0
M  V30 11737 C 1133.77 6.65187 -1.54971 0
M  V30 11738 O 1133.46 7.67065 -2.40555 0
M  V30 11739 H 1133.19 0.663174 0.131059 0
M  V30 11740 H 1135.74 2.03775 -0.257896 0
M  V30 11741 H 1133.97 3.34793 1.93521 0
M  V30 11742 H 1135.66 3.68931 1.69248 0
M  V30 11743 H 1136.43 4.82232 -0.517432 0
M  V30 11744 H 1132.31 4.55953 0.680292 0
M  V30 11745 H 1135.85 6.66671 -2.05415 0
M  V30 11746 H 1131.75 6.39894 -0.848887 0
M  V30 11747 H 1132.52 7.84348 -2.33966 0
M  V30 11748 N 1135.18 -0.111886 1.57202 0
M  V30 11749 C 1136.46 -0.849125 1.76208 0
M  V30 11750 C 1136.84 -1.97735 0.73919 0
M  V30 11751 O 1136.19 -2.27283 -0.235523 0
M  V30 11752 C 1136.4 -1.35924 3.21443 0
M  V30 11753 C 1137.74 -1.80874 3.84148 0
M  V30 11754 O 1138.77 -1.45587 3.25089 0
M  V30 11755 O 1137.63 -2.46065 4.87969 0
M  V30 11756 H 1134.72 -0.403761 0.721738 0
M  V30 11757 H 1137.27 -0.0950726 1.69433 0
M  V30 11758 H 1136.04 -0.550113 3.87414 0
M  V30 11759 H 1135.66 -2.17579 3.32784 0
M  V30 11760 N 1136.66 -1.52894 -0.382264 0
M  V30 11761 C 1137.91 -1.67933 -1.1244 0
M  V30 11762 C 1138.23 -0.425166 -1.90309 0
M  V30 11763 O 1137.5 0.560557 -1.87709 0
M  V30 11764 H 1136.08 -0.619047 -0.418079 0
M  V30 11765 H 1138.74 -1.90031 -0.432928 0
M  V30 11766 H 1137.84 -2.53285 -1.82355 0
M  V30 11767 N 1138.14 0.641106 -1.43971 0
M  V30 11768 C 1139.37 1.42622 -1.49475 0
M  V30 11769 C 1139.78 1.8885 -0.115068 0
M  V30 11770 O 1139.12 1.60846 0.887378 0
M  V30 11771 C 1139.18 2.68643 -2.38896 0
M  V30 11772 C 1138.84 2.44276 -3.86236 0
M  V30 11773 C 1139.84 2.06732 -4.7703 0
M  V30 11774 C 1137.53 2.58225 -4.30842 0
M  V30 11775 C 1139.52 1.83451 -6.1043 0
M  V30 11776 C 1137.21 2.34559 -5.64292 0
M  V30 11777 C 1138.21 1.97229 -6.53903 0
M  V30 11778 O 1137.89 1.73819 -7.84884 0
M  V30 11779 H 1137.63 0.444187 -0.509582 0
M  V30 11780 H 1140.18 0.792179 -1.89509 0
M  V30 11781 H 1138.41 3.34649 -1.93771 0
M  V30 11782 H 1140.1 3.30623 -2.35464 0
M  V30 11783 H 1140.86 1.95521 -4.43843 0
M  V30 11784 H 1136.74 2.86253 -3.61359 0
M  V30 11785 H 1140.29 1.54238 -6.80335 0
M  V30 11786 H 1136.18 2.45376 -5.97043 0
M  V30 11787 H 1136.95 1.88146 -7.96582 0
M  V30 11788 N 1139.62 1.30703 0.880598 0
M  V30 11789 C 1140.84 1.22843 1.67106 0
M  V30 11790 C 1141.27 -0.204788 1.86982 0
M  V30 11791 O 1140.62 -1.14716 1.40392 0
M  V30 11792 C 1140.67 1.96685 3.02237 0
M  V30 11793 O 1139.78 1.29693 3.91476 0
M  V30 11794 H 1139.12 0.424661 0.51045 0
M  V30 11795 H 1141.65 1.72596 1.09871 0
M  V30 11796 H 1141.66 2.05874 3.52249 0
M  V30 11797 H 1140.33 3.00919 2.8709 0
M  V30 11798 H 1138.91 1.28886 3.49918 0
M  V30 11799 N 1141.09 -1.09351 1.1349 0
M  V30 11800 C 1142.04 -2.14179 0.781739 0
M  V30 11801 C 1143.03 -1.59325 -0.224575 0
M  V30 11802 O 1144.22 -1.76977 -0.0283747 0
M  V30 11803 C 1141.35 -3.42386 0.250278 0
M  V30 11804 C 1140.43 -4.04147 1.28555 0
M  V30 11805 N 1140.83 -4.40451 2.4867 0
M  V30 11806 C 1139.12 -4.31356 1.13351 0
M  V30 11807 C 1139.82 -4.89115 3.14867 0
M  V30 11808 N 1138.8 -4.86618 2.42289 0
M  V30 11809 H 1142.6 -2.40055 1.69561 0
M  V30 11810 H 1140.12 -1.26587 1.01733 0
M  V30 11811 H 1142.11 -4.16895 -0.0209767 0
M  V30 11812 H 1140.77 -3.17965 -0.657904 0
M  V30 11813 H 1141.78 -4.31789 2.8597 0
M  V30 11814 H 1138.46 -4.16536 0.28355 0
M  V30 11815 H 1139.85 -5.26663 4.17224 0
M  V30 11816 N 1142.57 -0.928524 -1.27343 0
M  V30 11817 C 1143.85 -0.487758 -1.89421 0
M  V30 11818 C 1144.23 1.03418 -1.84032 0
M  V30 11819 O 1143.58 1.8887 -1.2861 0
M  V30 11820 C 1143.79 -1.03478 -3.33307 0
M  V30 11821 C 1145.13 -1.09577 -4.10217 0
M  V30 11822 O 1146.16 -0.984463 -3.42326 0
M  V30 11823 O 1145.02 -1.2673 -5.31603 0
M  V30 11824 H 1142.11 -0.157018 -0.811957 0
M  V30 11825 H 1144.66 -1.02027 -1.35605 0
M  V30 11826 H 1143.43 -2.07861 -3.31526 0
M  V30 11827 H 1143.05 -0.483967 -3.94644 0
M  V30 11828 N 1144.05 1.41491 -0.694123 0
M  V30 11829 C 1145.33 1.95004 -0.152571 0
M  V30 11830 C 1145.71 1.63357 1.33707 0
M  V30 11831 O 1145.05 0.939815 2.08278 0
M  V30 11832 C 1145.26 3.46186 -0.44232 0
M  V30 11833 C 1146.61 4.22991 -0.369279 0
M  V30 11834 O 1147.64 3.54198 -0.377152 0
M  V30 11835 O 1146.5 5.45514 -0.328145 0
M  V30 11836 H 1143.59 0.826879 -0.0141253 0
M  V30 11837 H 1146.14 1.51216 -0.770183 0
M  V30 11838 H 1144.91 3.62497 -1.47348 0
M  V30 11839 H 1144.53 3.97064 0.206337 0
M  V30 11840 N 1145.53 0.438773 1.51369 0
M  V30 11841 C 1146.49 -0.36032 2.2635 0
M  V30 11842 C 1147.49 -0.948465 1.29849 0
M  V30 11843 O 1148.68 -0.822692 1.53549 0
M  V30 11844 C 1145.81 -1.50994 3.05636 0
M  V30 11845 H 1147.01 0.296826 2.98427 0
M  V30 11846 H 1144.56 0.191978 1.55117 0
M  V30 11847 H 1145.29 -2.2031 2.37979 0
M  V30 11848 H 1145.08 -1.09437 3.76518 0
M  V30 11849 H 1146.57 -2.07447 3.6243 0
M  V30 11850 N 1147.01 -1.56678 0.170181 0
M  V30 11851 C 1147.92 -2.21496 -0.773079 0
M  V30 11852 C 1148.93 -1.20626 -1.25401 0
M  V30 11853 O 1150.11 -1.53283 -1.30638 0
M  V30 11854 C 1147.17 -2.8421 -1.98558 0
M  V30 11855 C 1146.23 -4.00278 -1.55164 0
M  V30 11856 C 1145.47 -4.59992 -2.70634 0
M  V30 11857 O 1145.69 -4.18595 -3.87472 0
M  V30 11858 O 1144.62 -5.49881 -2.44775 0
M  V30 11859 H 1148.45 -3.02659 -0.251195 0
M  V30 11860 H 1146.03 -1.49288 -0.0579621 0
M  V30 11861 H 1147.92 -3.2398 -2.69472 0
M  V30 11862 H 1146.59 -2.06045 -2.49654 0
M  V30 11863 H 1145.5 -3.6518 -0.812038 0
M  V30 11864 H 1146.83 -4.80033 -1.0876 0
M  V30 11865 N 1148.48 0.103547 -1.57259 0
M  V30 11866 C 1149.71 0.82235 -1.89855 0
M  V30 11867 C 1150.13 1.72694 -0.76303 0
M  V30 11868 O 1149.48 1.8056 0.265421 0
M  V30 11869 C 1149.53 1.64282 -3.22015 0
M  V30 11870 O 1149.26 0.774628 -4.31197 0
M  V30 11871 C 1150.76 2.46543 -3.68418 0
M  V30 11872 H 1147.98 0.235591 -0.628282 0
M  V30 11873 H 1150.52 0.0833106 -2.0433 0
M  V30 11874 H 1148.68 2.33446 -3.09163 0
M  V30 11875 H 1149.09 1.34205 -5.0704 0
M  V30 11876 H 1150.56 2.99618 -4.63609 0
M  V30 11877 H 1151.04 3.24618 -2.95838 0
M  V30 11878 H 1151.65 1.82594 -3.84109 0
M  V30 11879 N 1149.96 1.53094 0.37415 0
M  V30 11880 C 1150.89 1.75199 1.47776 0
M  V30 11881 C 1151.91 0.632627 1.50006 0
M  V30 11882 O 1153.1 0.908688 1.5364 0
M  V30 11883 C 1150.2 1.80909 2.86575 0
M  V30 11884 C 1149.37 3.10432 3.08141 0
M  V30 11885 C 1148.43 3.07495 4.27005 0
M  V30 11886 O 1147.45 3.81319 4.22592 0
M  V30 11887 N 1148.66 2.27715 5.33972 0
M  V30 11888 H 1151.42 2.70423 1.29196 0
M  V30 11889 H 1148.98 1.51766 0.563802 0
M  V30 11890 H 1150.97 1.76432 3.64217 0
M  V30 11891 H 1149.54 0.930074 2.98443 0
M  V30 11892 H 1148.76 3.2828 2.18233 0
M  V30 11893 H 1150.05 3.96047 3.19413 0
M  V30 11894 H 1149.45 1.67231 5.40417 0
M  V30 11895 H 1148.01 2.29065 6.10223 0
M  V30 11896 N 1151.44 -0.633461 1.44309 0
M  V30 11897 C 1152.67 -1.41827 1.50229 0
M  V30 11898 C 1153.08 -1.88786 0.125082 0
M  V30 11899 O 1152.42 -1.61314 -0.878836 0
M  V30 11900 C 1152.48 -2.67372 2.40317 0
M  V30 11901 C 1152.15 -2.42224 3.87526 0
M  V30 11902 C 1153.14 -2.04199 4.7812 0
M  V30 11903 C 1150.83 -2.55936 4.32206 0
M  V30 11904 C 1152.82 -1.80211 6.11394 0
M  V30 11905 C 1150.51 -2.31563 5.65528 0
M  V30 11906 C 1151.51 -1.93758 6.5494 0
M  V30 11907 O 1151.2 -1.69654 7.85794 0
M  V30 11908 H 1150.93 -0.441478 0.51193 0
M  V30 11909 H 1153.48 -0.782118 1.89927 0
M  V30 11910 H 1151.71 -3.33616 1.95543 0
M  V30 11911 H 1153.4 -3.2937 2.37214 0
M  V30 11912 H 1154.17 -1.93164 4.44874 0
M  V30 11913 H 1150.05 -2.84333 3.62872 0
M  V30 11914 H 1153.59 -1.50628 6.81144 0
M  V30 11915 H 1149.49 -2.42206 5.98336 0
M  V30 11916 H 1150.25 -1.83919 7.97569 0
M  V30 11917 N 1152.92 -1.31168 -0.873655 0
M  V30 11918 C 1154.17 -1.20404 -1.62319 0
M  V30 11919 C 1154.49 0.238829 -1.93532 0
M  V30 11920 O 1153.76 1.15854 -1.57971 0
M  V30 11921 H 1152.34 -0.442632 -0.601736 0
M  V30 11922 H 1155 -1.64445 -1.04613 0
M  V30 11923 H 1154.1 -1.77309 -2.56842 0
M  V30 11924 N 1154.4 1.08748 -1.14068 0
M  V30 11925 C 1155.65 1.8044 -0.901352 0
M  V30 11926 C 1155.96 1.86995 0.573791 0
M  V30 11927 O 1157.16 2.55065 0.930275 0
M  V30 11928 C 1155.62 3.24185 -1.56308 0
M  V30 11929 C 1155.23 3.25875 -3.07424 0
M  V30 11930 C 1156.97 4.00584 -1.40473 0
M  V30 11931 C 1154.88 4.64186 -3.66449 0
M  V30 11932 H 1153.81 0.676201 -0.333569 0
M  V30 11933 H 1156.46 1.22169 -1.3692 0
M  V30 11934 H 1154.84 3.82561 -1.0229 0
M  V30 11935 H 1156.02 2.77225 -3.6808 0
M  V30 11936 H 1154.33 2.62969 -3.22856 0
M  V30 11937 H 1156.93 5.02781 -1.81976 0
M  V30 11938 H 1157.27 4.14823 -0.350408 0
M  V30 11939 H 1157.8 3.48668 -1.91508 0
M  V30 11940 H 1154.54 4.5515 -4.71719 0
M  V30 11941 H 1154.06 5.13132 -3.10574 0
M  V30 11942 H 1155.74 5.33161 -3.66536 0
M  V30 11943 N 1155.87 0.935264 1.26849 0
M  V30 11944 C 1157.1 0.596249 1.98122 0
M  V30 11945 C 1157.52 -0.827452 1.69702 0
M  V30 11946 O 1156.87 -1.55095 0.961864 0
M  V30 11947 C 1156.93 0.821773 3.52036 0
M  V30 11948 O 1156.65 2.18947 3.79465 0
M  V30 11949 C 1158.15 0.492498 4.40556 0
M  V30 11950 H 1155.37 0.225242 0.632066 0
M  V30 11951 H 1157.91 1.25435 1.61512 0
M  V30 11952 H 1156.07 0.210363 3.86828 0
M  V30 11953 H 1156.48 2.24509 4.74021 0
M  V30 11954 H 1157.95 0.700953 5.47531 0
M  V30 11955 H 1158.43 -0.57228 4.35456 0
M  V30 11956 H 1159.04 1.08238 4.11296 0
M  V30 11957 N 1157.35 -1.41121 0.701616 0
M  V30 11958 C 1158.6 -2.01428 0.235495 0
M  V30 11959 C 1158.93 -1.55463 -1.16382 0
M  V30 11960 O 1158.21 -0.768477 -1.78675 0
M  V30 11961 C 1158.49 -3.58849 0.299919 0
M  V30 11962 C 1158.34 -4.14924 1.73661 0
M  V30 11963 C 1159.66 -4.38809 -0.336856 0
M  V30 11964 H 1156.78 -0.731842 0.0870456 0
M  V30 11965 H 1159.42 -1.67787 0.891479 0
M  V30 11966 H 1157.57 -3.87638 -0.258611 0
M  V30 11967 H 1159.24 -3.96987 2.34945 0
M  V30 11968 H 1157.49 -3.69738 2.26884 0
M  V30 11969 H 1158.16 -5.24085 1.73318 0
M  V30 11970 H 1160.63 -4.15868 0.138886 0
M  V30 11971 H 1159.51 -5.48278 -0.261264 0
M  V30 11972 H 1159.77 -4.18728 -1.41843 0
M  V30 11973 N 1158.83 -0.446794 -1.51134 0
M  V30 11974 C 1159.76 0.350229 -2.30858 0
M  V30 11975 C 1160.74 1.0125 -1.36684 0
M  V30 11976 O 1161.93 1.01433 -1.65605 0
M  V30 11977 C 1159.06 1.4464 -3.15748 0
M  V30 11978 C 1158.01 0.907102 -4.18277 0
M  V30 11979 C 1157.34 2.09974 -4.91747 0
M  V30 11980 C 1158.64 -0.0649758 -5.2226 0
M  V30 11981 H 1160.33 -0.315105 -2.97737 0
M  V30 11982 H 1157.88 -0.152985 -1.43185 0
M  V30 11983 H 1159.83 2.01127 -3.70305 0
M  V30 11984 H 1158.55 2.14016 -2.46708 0
M  V30 11985 H 1157.21 0.364382 -3.64785 0
M  V30 11986 H 1156.86 2.77991 -4.19202 0
M  V30 11987 H 1156.56 1.74523 -5.61084 0
M  V30 11988 H 1158.08 2.66996 -5.49131 0
M  V30 11989 H 1159.5 0.4099 -5.71833 0
M  V30 11990 H 1157.9 -0.332529 -5.99178 0
M  V30 11991 H 1158.97 -0.998681 -4.74504 0
M  V30 11992 N 1160.31 1.56586 -0.178487 0
M  V30 11993 C 1161.26 2.19631 0.765822 0
M  V30 11994 C 1162.25 1.16247 1.23219 0
M  V30 11995 O 1163.46 1.34431 1.19701 0
M  V30 11996 H 1159.83 0.703661 0.265264 0
M  V30 11997 H 1161.8 2.97659 0.210207 0
M  V30 11998 C 1160.55 2.85686 1.98188 0
M  V30 11999 H 1159.87 3.64971 1.63206 0
M  V30 12000 H 1161.31 3.33259 2.62134 0
M  V30 12001 C 1159.77 1.85837 2.81009 0
M  V30 12002 O 1160.3 1.3483 3.78396 0
M  V30 12003 N 1158.51 1.54435 2.46167 0
M  V30 12004 H 1158.06 1.96107 1.67032 0
M  V30 12005 H 1158.01 0.878808 3.01868 0
M  V30 12006 N 1161.79 -0.095206 1.57312 0
M  V30 12007 C 1162.74 -1.12188 1.98489 0
M  V30 12008 C 1163.72 -1.35778 0.863317 0
M  V30 12009 O 1164.91 -1.36471 1.12715 0
M  V30 12010 C 1162.04 -2.44214 2.41277 0
M  V30 12011 C 1161.13 -2.23998 3.60119 0
M  V30 12012 N 1161.52 -1.7365 4.75057 0
M  V30 12013 C 1159.82 -2.54565 3.66214 0
M  V30 12014 C 1160.52 -1.67702 5.57002 0
M  V30 12015 N 1159.49 -2.12912 5.00169 0
M  V30 12016 H 1163.3 -0.725545 2.84804 0
M  V30 12017 H 1160.81 -0.302634 1.59555 0
M  V30 12018 H 1162.81 -3.185 2.69004 0
M  V30 12019 H 1161.47 -2.84585 1.56339 0
M  V30 12020 H 1162.48 -1.42849 4.9781 0
M  V30 12021 H 1159.15 -2.98461 2.91937 0
M  V30 12022 H 1160.54 -1.29827 6.59238 0
M  V30 12023 N 1163.26 -1.53291 -0.366026 0
M  V30 12024 C 1164.2 -1.7448 -1.47079 0
M  V30 12025 C 1165.18 -0.593147 -1.51395 0
M  V30 12026 O 1166.36 -0.825686 -1.69454 0
M  V30 12027 C 1163.49 -1.82319 -2.85443 0
M  V30 12028 C 1162.53 -3.04285 -2.98852 0
M  V30 12029 S 1163.37 -4.63812 -2.67653 0
M  V30 12030 C 1164.52 -4.74499 -4.08168 0
M  V30 12031 H 1164.75 -2.67911 -1.28884 0
M  V30 12032 H 1162.29 -1.43874 -0.560335 0
M  V30 12033 H 1164.25 -1.87521 -3.65166 0
M  V30 12034 H 1162.91 -0.899398 -3.00948 0
M  V30 12035 H 1162.1 -3.06379 -4.00185 0
M  V30 12036 H 1161.7 -2.97193 -2.27051 0
M  V30 12037 H 1163.99 -4.54527 -5.02406 0
M  V30 12038 H 1164.94 -5.76558 -4.1108 0
M  V30 12039 H 1165.34 -4.03136 -3.95147 0
M  V30 12040 N 1164.74 0.6258 -1.44643 0
M  V30 12041 C 1165.99 1.38251 -1.47414 0
M  V30 12042 C 1166.31 1.94689 -0.110043 0
M  V30 12043 O 1165.58 1.76095 0.858333 0
M  V30 12044 H 1164.16 0.513179 -0.542823 0
M  V30 12045 H 1166.82 0.736179 -1.80462 0
M  V30 12046 H 1165.92 2.21115 -2.2026 0
M  V30 12047 N 1166.22 1.31629 0.866686 0
M  V30 12048 C 1167.45 1.24609 1.65793 0
M  V30 12049 C 1167.87 -0.184944 1.87189 0
M  V30 12050 O 1167.23 -1.1322 1.41601 0
M  V30 12051 C 1167.28 1.9988 3.00134 0
M  V30 12052 O 1166.38 1.33838 3.90079 0
M  V30 12053 H 1165.72 0.430051 0.505917 0
M  V30 12054 H 1168.25 1.73752 1.08035 0
M  V30 12055 H 1168.26 2.09599 3.50046 0
M  V30 12056 H 1166.94 3.03947 2.83882 0
M  V30 12057 H 1165.51 1.3259 3.48532 0
M  V30 12058 N 1167.7 -1.08142 1.14644 0
M  V30 12059 C 1168.63 -2.14476 0.779437 0
M  V30 12060 C 1169.61 -1.60812 -0.240454 0
M  V30 12061 O 1170.79 -1.88059 -0.128881 0
M  V30 12062 C 1167.92 -3.38333 0.157692 0
M  V30 12063 C 1166.97 -4.10754 1.14819 0
M  V30 12064 S 1167.8 -4.63227 2.68666 0
M  V30 12065 C 1168.96 -5.90367 2.07888 0
M  V30 12066 H 1169.19 -2.45276 1.68009 0
M  V30 12067 H 1166.72 -1.20292 0.967942 0
M  V30 12068 H 1168.68 -4.10038 -0.194607 0
M  V30 12069 H 1167.34 -3.05726 -0.720435 0
M  V30 12070 H 1166.53 -4.99644 0.661226 0
M  V30 12071 H 1166.14 -3.44974 1.44462 0
M  V30 12072 H 1168.43 -6.62107 1.43599 0
M  V30 12073 H 1169.37 -6.43764 2.94913 0
M  V30 12074 H 1169.78 -5.43507 1.52514 0
M  V30 12075 N 1169.18 -0.941978 -1.26351 0
M  V30 12076 C 1170.14 -0.456768 -2.24602 0
M  V30 12077 C 1171.14 0.432574 -1.54872 0
M  V30 12078 O 1172.33 0.23164 -1.72653 0
M  V30 12079 C 1169.46 0.341583 -3.39184 0
M  V30 12080 H 1170.66 -1.32503 -2.69041 0
M  V30 12081 H 1168.21 -0.724021 -1.38519 0
M  V30 12082 H 1168.94 1.22806 -3.00149 0
M  V30 12083 H 1168.73 -0.296268 -3.90979 0
M  V30 12084 H 1170.22 0.670955 -4.12175 0
M  V30 12085 N 1170.66 1.40747 -0.709091 0
M  V30 12086 C 1171.9 2.01003 -0.24581 0
M  V30 12087 C 1172.23 1.56203 1.15891 0
M  V30 12088 O 1171.49 0.770166 1.79908 0
M  V30 12089 C 1171.78 3.56404 -0.266685 0
M  V30 12090 C 1171.45 4.20762 -1.6208 0
M  V30 12091 C 1170.11 4.38056 -1.99148 0
M  V30 12092 C 1172.46 4.56723 -2.51105 0
M  V30 12093 C 1169.79 4.88591 -3.248 0
M  V30 12094 C 1172.14 5.08654 -3.76103 0
M  V30 12095 C 1170.81 5.24158 -4.13297 0
M  V30 12096 H 1170.08 0.73552 -0.0899481 0
M  V30 12097 H 1172.73 1.68451 -0.910844 0
M  V30 12098 H 1171.03 3.88825 0.481915 0
M  V30 12099 H 1172.73 4.0085 0.109509 0
M  V30 12100 H 1169.32 4.07685 -1.32252 0
M  V30 12101 H 1173.5 4.43004 -2.23744 0
M  V30 12102 H 1168.76 4.98779 -3.53595 0
M  V30 12103 H 1172.93 5.35457 -4.45262 0
M  V30 12104 H 1170.56 5.63079 -5.10731 0
M  V30 12105 N 1172.13 0.454803 1.50895 0
M  V30 12106 C 1173.55 0.108037 1.59234 0
M  V30 12107 C 1173.75 -1.38416 1.46435 0
M  V30 12108 O 1172.81 -2.15586 1.31449 0
M  V30 12109 C 1174.12 0.643721 2.93729 0
M  V30 12110 C 1175.67 0.605703 3.07083 0
M  V30 12111 C 1176.14 1.11865 4.44128 0
M  V30 12112 N 1177.63 1.07738 4.50496 0
M  V30 12113 C 1178.37 1.44495 5.54895 0
M  V30 12114 N 1177.86 1.88624 6.66628 0
M  V30 12115 N 1179.66 1.36201 5.45349 0
M  V30 12116 H 1171.81 1.4255 1.57459 0
M  V30 12117 H 1174.07 0.588504 0.743214 0
M  V30 12118 H 1173.78 1.68844 3.0852 0
M  V30 12119 H 1173.65 0.0782404 3.77119 0
M  V30 12120 H 1176.04 -0.430065 2.91949 0
M  V30 12121 H 1176.12 1.2078 2.2549 0
M  V30 12122 H 1175.76 2.15297 4.6001 0
M  V30 12123 H 1175.69 0.492933 5.24288 0
M  V30 12124 H 1178.18 0.753526 3.70311 0
M  V30 12125 H 1178.5 2.14863 7.4233 0
M  V30 12126 H 1176.84 1.92564 6.6779 0
M  V30 12127 H 1180.03 1.01579 4.56946 0
M  V30 12128 H 1180.21 1.65175 6.26595 0
M  V30 12129 N 1173.61 -1.56489 0.186789 0
M  V30 12130 C 1174.86 -1.96517 -0.45433 0
M  V30 12131 C 1175.17 -1.07618 -1.63333 0
M  V30 12132 O 1176.38 -1.37392 -2.3417 0
M  V30 12133 C 1174.84 -3.49482 -0.859685 0
M  V30 12134 C 1174.44 -4.47031 0.294572 0
M  V30 12135 C 1176.19 -3.98296 -1.46835 0
M  V30 12136 C 1174.09 -5.91254 -0.131279 0
M  V30 12137 H 1173.02 -0.733765 -0.17351 0
M  V30 12138 H 1175.68 -1.8139 0.277485 0
M  V30 12139 H 1174.06 -3.60082 -1.64793 0
M  V30 12140 H 1175.23 -4.48156 1.07205 0
M  V30 12141 H 1173.55 -4.08362 0.814197 0
M  V30 12142 H 1176.14 -5.03518 -1.79928 0
M  V30 12143 H 1176.49 -3.42123 -2.37186 0
M  V30 12144 H 1177.02 -3.90776 -0.744247 0
M  V30 12145 H 1173.76 -6.51334 0.737839 0
M  V30 12146 H 1173.28 -5.93401 -0.873786 0
M  V30 12147 H 1174.96 -6.44485 -0.569913 0
M  V30 12148 N 1175.09 0.086862 -1.5736 0
M  V30 12149 C 1176.34 0.790008 -1.8678 0
M  V30 12150 C 1176.67 1.77977 -0.777042 0
M  V30 12151 O 1175.94 1.93317 0.21419 0
M  V30 12152 C 1176.23 1.51143 -3.26845 0
M  V30 12153 C 1176.08 0.539106 -4.46558 0
M  V30 12154 C 1177.4 2.46003 -3.64926 0
M  V30 12155 H 1174.52 0.285741 -0.679354 0
M  V30 12156 H 1177.16 0.0534655 -1.89925 0
M  V30 12157 H 1175.31 2.13928 -3.24295 0
M  V30 12158 H 1176.98 -0.0823679 -4.61226 0
M  V30 12159 H 1175.22 -0.146842 -4.33551 0
M  V30 12160 H 1175.9 1.0812 -5.41308 0
M  V30 12161 H 1178.37 1.93306 -3.68473 0
M  V30 12162 H 1177.25 2.93493 -4.63846 0
M  V30 12163 H 1177.51 3.30133 -2.94049 0
M  V30 12164 N 1176.57 1.53483 0.357892 0
M  V30 12165 C 1177.52 1.81143 1.45911 0
M  V30 12166 C 1178.51 0.681002 1.55109 0
M  V30 12167 O 1179.72 0.864086 1.57904 0
M  V30 12168 H 1176.09 0.573663 0.486225 0
M  V30 12169 H 1178.06 2.733 1.19789 0
M  V30 12170 C 1176.81 2.02509 2.8264 0
M  V30 12171 H 1176.13 2.88938 2.76324 0
M  V30 12172 H 1177.57 2.25837 3.58851 0
M  V30 12173 C 1176.03 0.806412 3.27106 0
M  V30 12174 O 1176.56 -0.00116809 4.017 0
M  V30 12175 N 1174.77 0.627677 2.8374 0
M  V30 12176 H 1174.32 1.28601 2.23203 0
M  V30 12177 H 1174.27 -0.186301 3.13848 0
M  V30 12178 N 1178.05 -0.61812 1.44973 0
M  V30 12179 C 1178.96 -1.7579 1.55355 0
M  V30 12180 C 1179.97 -1.68384 0.438512 0
M  V30 12181 O 1181.15 -1.88928 0.697715 0
M  V30 12182 C 1178.21 -3.1222 1.50729 0
M  V30 12183 C 1177.27 -3.3116 2.73188 0
M  V30 12184 C 1176.51 -4.61082 2.68774 0
M  V30 12185 O 1176.73 -5.42728 1.75507 0
M  V30 12186 O 1175.66 -4.82506 3.59821 0
M  V30 12187 H 1179.49 -1.69983 2.51674 0
M  V30 12188 H 1177.07 -0.780934 1.27365 0
M  V30 12189 H 1178.96 -3.93524 1.5072 0
M  V30 12190 H 1177.63 -3.18541 0.575587 0
M  V30 12191 H 1176.54 -2.49485 2.78762 0
M  V30 12192 H 1177.87 -3.29709 3.65449 0
M  V30 12193 N 1179.52 -1.32087 -0.859693 0
M  V30 12194 C 1180.47 -1.17188 -1.95578 0
M  V30 12195 C 1181.46 -0.0801302 -1.607 0
M  V30 12196 O 1182.65 -0.306118 -1.74333 0
M  V30 12197 C 1179.78 -0.891916 -3.31511 0
M  V30 12198 C 1178.86 -2.02513 -3.72625 0
M  V30 12199 N 1179.26 -3.27321 -3.85609 0
M  V30 12200 C 1177.55 -1.92717 -4.02214 0
M  V30 12201 C 1178.25 -4.01513 -4.20906 0
M  V30 12202 N 1177.23 -3.29767 -4.32151 0
M  V30 12203 H 1181.03 -2.11816 -2.03743 0
M  V30 12204 H 1178.55 -1.23794 -1.05114 0
M  V30 12205 H 1180.54 -0.766143 -4.098 0
M  V30 12206 H 1179.2 0.0460349 -3.24667 0
M  V30 12207 H 1180.21 -3.62317 -3.70063 0
M  V30 12208 H 1176.89 -1.06452 -4.03701 0
M  V30 12209 H 1178.28 -5.09116 -4.38463 0
M  V30 12210 N 1181 1.07532 -1.15215 0
M  V30 12211 C 1182.28 1.76813 -0.83646 0
M  V30 12212 C 1182.66 2.00242 0.6683 0
M  V30 12213 O 1182.01 1.61941 1.61206 0
M  V30 12214 C 1182.22 3.0779 -1.64519 0
M  V30 12215 C 1183.56 3.82168 -1.85022 0
M  V30 12216 O 1184.59 3.17596 -1.61279 0
M  V30 12217 O 1183.45 4.98135 -2.24775 0
M  V30 12218 H 1180.54 0.767736 -0.307426 0
M  V30 12219 H 1183.09 1.13914 -1.25784 0
M  V30 12220 H 1181.86 2.86342 -2.6669 0
M  V30 12221 H 1181.48 3.78419 -1.22002 0
M  V30 12222 N 1182.48 0.948665 1.2585 0
M  V30 12223 C 1183.39 0.470525 2.29833 0
M  V30 12224 C 1184.41 -0.45919 1.67832 0
M  V30 12225 O 1185.58 -0.336893 1.98562 0
M  V30 12226 C 1182.65 -0.249635 3.458 0
M  V30 12227 C 1181.71 0.717559 4.23261 0
M  V30 12228 C 1180.94 0.0316724 5.33691 0
M  V30 12229 O 1181.16 -1.18384 5.5798 0
M  V30 12230 O 1180.1 0.71418 5.97648 0
M  V30 12231 H 1183.92 1.33447 2.72811 0
M  V30 12232 H 1181.51 0.714864 1.31187 0
M  V30 12233 H 1183.39 -0.654993 4.16279 0
M  V30 12234 H 1182.07 -1.08885 3.04837 0
M  V30 12235 H 1180.97 1.17301 3.55234 0
M  V30 12236 H 1182.31 1.52461 4.67992 0
M  V30 12237 N 1183.96 -1.40369 0.716545 0
M  V30 12238 C 1184.91 -2.27963 0.0410169 0
M  V30 12239 C 1185.89 -1.43307 -0.731575 0
M  V30 12240 O 1187.08 -1.66389 -0.603618 0
M  V30 12241 C 1184.21 -3.31849 -0.87927 0
M  V30 12242 C 1183.3 -4.23978 -0.101813 0
M  V30 12243 N 1183.69 -4.97447 0.915437 0
M  V30 12244 C 1181.99 -4.44746 -0.334227 0
M  V30 12245 C 1182.69 -5.65029 1.38266 0
M  V30 12246 N 1181.67 -5.39014 0.704642 0
M  V30 12247 H 1185.47 -2.8221 0.820653 0
M  V30 12248 H 1182.98 -1.52831 0.549217 0
M  V30 12249 H 1184.98 -3.93448 -1.37855 0
M  V30 12250 H 1183.64 -2.79162 -1.65827 0
M  V30 12251 H 1184.65 -5.01414 1.29631 0
M  V30 12252 H 1181.33 -4.03034 -1.08948 0
M  V30 12253 H 1182.72 -6.33886 2.22797 0
M  V30 12254 N 1185.44 -0.462799 -1.50652 0
M  V30 12255 C 1186.38 0.335664 -2.28346 0
M  V30 12256 C 1187.35 0.994541 -1.33034 0
M  V30 12257 O 1188.54 1.00857 -1.61964 0
M  V30 12258 C 1185.68 1.41648 -3.1469 0
M  V30 12259 C 1184.79 0.773207 -4.25024 0
M  V30 12260 C 1183.93 1.83121 -4.98638 0
M  V30 12261 C 1182.97 1.16774 -6.00858 0
M  V30 12262 N 1182.1 2.16823 -6.67782 0
M  V30 12263 H 1186.94 -0.333202 -2.96131 0
M  V30 12264 H 1184.48 -0.176166 -1.46041 0
M  V30 12265 H 1186.44 2.05468 -3.63096 0
M  V30 12266 H 1185.07 2.05462 -2.48968 0
M  V30 12267 H 1184.12 0.0226444 -3.80393 0
M  V30 12268 H 1185.43 0.249061 -4.98178 0
M  V30 12269 H 1184.59 2.54543 -5.5072 0
M  V30 12270 H 1183.32 2.38915 -4.25172 0
M  V30 12271 H 1182.33 0.439112 -5.48044 0
M  V30 12272 H 1183.55 0.616809 -6.76293 0
M  V30 12273 H 1181.5 2.71649 -5.97112 0
M  V30 12274 H 1181.42 1.69371 -7.36783 0
M  V30 12275 H 1182.69 2.8765 -7.24484 0
M  V30 12276 N 1186.91 1.56388 -0.195085 0
M  V30 12277 C 1188.14 2.01963 0.449289 0
M  V30 12278 C 1188.56 1.07522 1.55192 0
M  V30 12279 O 1187.91 0.0800915 1.82324 0
M  V30 12280 C 1187.97 3.47231 1.00561 0
M  V30 12281 O 1187.69 4.38068 -0.0530241 0
M  V30 12282 C 1189.19 4.08324 1.72587 0
M  V30 12283 H 1186.41 0.661452 0.112792 0
M  V30 12284 H 1188.95 2.02231 -0.303788 0
M  V30 12285 H 1187.11 3.47663 1.70907 0
M  V30 12286 H 1187.52 5.23256 0.361076 0
M  V30 12287 H 1188.99 5.11821 2.06744 0
M  V30 12288 H 1189.47 3.51782 2.62956 0
M  V30 12289 H 1190.08 4.11665 1.06826 0
M  V30 12290 N 1188.39 -0.0785156 1.57404 0
M  V30 12291 C 1189.32 -1.09446 2.06262 0
M  V30 12292 C 1190.3 -1.40777 0.954772 0
M  V30 12293 O 1191.49 -1.5052 1.22708 0
M  V30 12294 C 1188.62 -2.40979 2.50093 0
M  V30 12295 C 1187.57 -2.24017 3.64692 0
M  V30 12296 C 1186.9 -3.60873 3.94556 0
M  V30 12297 C 1188.2 -1.66696 4.94985 0
M  V30 12298 H 1189.89 -0.687928 2.9139 0
M  V30 12299 H 1187.44 -0.329466 1.4018 0
M  V30 12300 H 1189.39 -3.12337 2.82884 0
M  V30 12301 H 1188.12 -2.83599 1.61985 0
M  V30 12302 H 1186.77 -1.55101 3.32174 0
M  V30 12303 H 1186.42 -4.01051 3.0359 0
M  V30 12304 H 1186.12 -3.50365 4.71718 0
M  V30 12305 H 1187.65 -4.33673 4.29837 0
M  V30 12306 H 1189.06 -2.27913 5.2605 0
M  V30 12307 H 1187.46 -1.66902 5.76423 0
M  V30 12308 H 1188.53 -0.627827 4.80818 0
M  V30 12309 N 1189.87 -1.5367 -0.349747 0
M  V30 12310 C 1191.12 -1.7087 -1.0923 0
M  V30 12311 C 1191.45 -0.467299 -1.88494 0
M  V30 12312 O 1190.72 0.535619 -1.8698 0
M  V30 12313 C 1191.01 -2.9684 -2.03858 0
M  V30 12314 C 1190.86 -4.31174 -1.28097 0
M  V30 12315 C 1192.18 -3.18459 -3.03763 0
M  V30 12316 H 1189.3 -0.621757 -0.395711 0
M  V30 12317 H 1191.94 -1.86333 -0.371481 0
M  V30 12318 H 1190.09 -2.83788 -2.65323 0
M  V30 12319 H 1191.76 -4.56066 -0.692933 0
M  V30 12320 H 1190.01 -4.29866 -0.582924 0
M  V30 12321 H 1190.68 -5.15482 -1.9744 0
M  V30 12322 H 1193.15 -3.30801 -2.52409 0
M  V30 12323 H 1192.03 -4.08006 -3.67182 0
M  V30 12324 H 1192.29 -2.34467 -3.74803 0
M  V30 12325 N 1191.35 0.610423 -1.45298 0
M  V30 12326 C 1192.3 1.7213 -1.53753 0
M  V30 12327 C 1193.27 1.61609 -0.383632 0
M  V30 12328 O 1194.45 1.8123 -0.596694 0
M  V30 12329 C 1191.59 3.10433 -1.50749 0
M  V30 12330 C 1190.7 3.3178 -2.76669 0
M  V30 12331 C 1189.84 4.60173 -2.65356 0
M  V30 12332 C 1188.88 4.74769 -3.86343 0
M  V30 12333 N 1188.01 5.94459 -3.73581 0
M  V30 12334 H 1192.85 1.64239 -2.48655 0
M  V30 12335 H 1190.39 0.800879 -1.23387 0
M  V30 12336 H 1192.35 3.90446 -1.46996 0
M  V30 12337 H 1190.98 3.17288 -0.593998 0
M  V30 12338 H 1190.03 2.45563 -2.90522 0
M  V30 12339 H 1191.34 3.38439 -3.66416 0
M  V30 12340 H 1190.5 5.48377 -2.59553 0
M  V30 12341 H 1189.24 4.55907 -1.73204 0
M  V30 12342 H 1188.24 3.8499 -3.92509 0
M  V30 12343 H 1189.47 4.80834 -4.79557 0
M  V30 12344 H 1187.41 5.91243 -2.84196 0
M  V30 12345 H 1187.33 6.02265 -4.5696 0
M  V30 12346 H 1188.6 6.85168 -3.71705 0
M  V30 12347 N 1192.83 1.32541 0.852676 0
M  V30 12348 C 1194.08 1.22567 1.60188 0
M  V30 12349 C 1194.39 -0.210594 1.94463 0
M  V30 12350 O 1195.59 -0.432214 2.68038 0
M  V30 12351 C 1194.05 2.14678 2.88862 0
M  V30 12352 C 1193.66 3.63398 2.62004 0
M  V30 12353 C 1195.4 2.13545 3.66877 0
M  V30 12354 C 1193.31 4.47464 3.86691 0
M  V30 12355 H 1192.24 0.455184 0.601102 0
M  V30 12356 H 1194.89 1.57515 0.941347 0
M  V30 12357 H 1193.27 1.72647 3.56383 0
M  V30 12358 H 1194.45 4.13783 2.02782 0
M  V30 12359 H 1192.76 3.66681 1.97316 0
M  V30 12360 H 1195.36 2.73589 4.59405 0
M  V30 12361 H 1195.7 1.12694 4.00756 0
M  V30 12362 H 1196.23 2.53866 3.06263 0
M  V30 12363 H 1192.97 5.49136 3.57952 0
M  V30 12364 H 1192.49 4.01829 4.45302 0
M  V30 12365 H 1194.17 4.60565 4.5441 0
M  V30 12366 N 1194.3 -1.0692 1.15784 0
M  V30 12367 C 1195.72 -1.31707 0.901408 0
M  V30 12368 C 1195.92 -1.96429 -0.449203 0
M  V30 12369 O 1194.98 -2.22692 -1.19015 0
M  V30 12370 C 1196.29 -2.20391 2.04568 0
M  V30 12371 C 1197.84 -2.33827 2.08072 0
M  V30 12372 C 1198.31 -3.25862 3.21835 0
M  V30 12373 N 1199.8 -3.33444 3.21511 0
M  V30 12374 C 1200.54 -4.04731 4.06177 0
M  V30 12375 N 1200.03 -4.78596 5.00917 0
M  V30 12376 N 1201.83 -4.00717 3.94185 0
M  V30 12377 H 1193.98 -0.632989 2.02749 0
M  V30 12378 H 1196.24 -0.341587 0.88432 0
M  V30 12379 H 1195.95 -1.80102 3.02087 0
M  V30 12380 H 1195.82 -3.20943 1.9818 0
M  V30 12381 H 1198.21 -2.73367 1.11151 0
M  V30 12382 H 1198.29 -1.32964 2.18527 0
M  V30 12383 H 1197.93 -2.8704 4.19012 0
M  V30 12384 H 1197.86 -4.26689 3.08617 0
M  V30 12385 H 1200.35 -2.80798 2.52905 0
M  V30 12386 H 1200.67 -5.30499 5.61952 0
M  V30 12387 H 1199.01 -4.77598 5.04902 0
M  V30 12388 H 1202.2 -3.42126 3.1948 0
M  V30 12389 H 1202.38 -4.56008 4.60392 0
M  V30 12390 N 1195.78 -0.955326 -1.25345 0
M  V30 12391 C 1197.03 -0.611388 -1.93365 0
M  V30 12392 C 1197.36 0.84953 -1.74633 0
M  V30 12393 O 1196.64 1.60962 -1.09185 0
M  V30 12394 C 1196.92 -0.971732 -3.46741 0
M  V30 12395 C 1196.77 -2.48843 -3.74696 0
M  V30 12396 C 1198.09 -0.497295 -4.37281 0
M  V30 12397 H 1195.21 -0.223591 -0.702265 0
M  V30 12398 H 1197.85 -1.1921 -1.47949 0
M  V30 12399 H 1196 -0.477568 -3.85554 0
M  V30 12400 H 1197.67 -3.05641 -3.45516 0
M  V30 12401 H 1195.92 -2.92582 -3.20278 0
M  V30 12402 H 1196.59 -2.69107 -4.8196 0
M  V30 12403 H 1199.06 -0.921196 -4.05775 0
M  V30 12404 H 1197.94 -0.778113 -5.43357 0
M  V30 12405 H 1198.2 0.602743 -4.37972 0
M  V30 12406 N 1197.26 1.39987 -0.723979 0
M  V30 12407 C 1198.49 2.0474 -0.276618 0
M  V30 12408 C 1198.9 1.54675 1.0896 0
M  V30 12409 O 1198.24 0.701956 1.69759 0
M  V30 12410 C 1198.3 3.59009 -0.187912 0
M  V30 12411 C 1197.97 4.32 -1.49079 0
M  V30 12412 C 1198.97 4.59385 -2.43436 0
M  V30 12413 C 1196.65 4.70753 -1.75204 0
M  V30 12414 C 1198.64 5.24519 -3.62159 0
M  V30 12415 C 1196.33 5.35617 -2.94206 0
M  V30 12416 C 1197.33 5.62431 -3.87506 0
M  V30 12417 O 1197.02 6.25952 -5.0442 0
M  V30 12418 H 1196.75 0.665164 -0.120554 0
M  V30 12419 H 1199.3 1.80226 -0.98527 0
M  V30 12420 H 1197.53 3.82375 0.576753 0
M  V30 12421 H 1199.22 4.0527 0.225993 0
M  V30 12422 H 1199.99 4.29902 -2.24519 0
M  V30 12423 H 1195.87 4.49247 -1.03433 0
M  V30 12424 H 1199.41 5.45364 -4.34999 0
M  V30 12425 H 1195.31 5.64521 -3.13029 0
M  V30 12426 H 1196.08 6.44448 -5.04608 0
M  V30 12427 N 1198.74 0.470782 1.50404 0
M  V30 12428 C 1199.69 -0.342183 2.25418 0
M  V30 12429 C 1200.67 -0.961726 1.28995 0
M  V30 12430 O 1201.87 -0.874327 1.53898 0
M  V30 12431 C 1198.99 -1.42378 3.12383 0
M  V30 12432 C 1198.08 -0.811982 4.16254 0
M  V30 12433 N 1198.47 0.0675245 5.05755 0
M  V30 12434 C 1196.77 -1.07596 4.32827 0
M  V30 12435 C 1197.47 0.414693 5.8022 0
M  V30 12436 N 1196.45 -0.210047 5.43194 0
M  V30 12437 H 1200.25 0.335344 2.91981 0
M  V30 12438 H 1197.76 0.284911 1.59881 0
M  V30 12439 H 1199.76 -2.01936 3.64729 0
M  V30 12440 H 1198.42 -2.1033 2.47369 0
M  V30 12441 H 1199.43 0.436333 5.16059 0
M  V30 12442 H 1196.11 -1.75048 3.79031 0
M  V30 12443 H 1197.5 1.13243 6.62288 0
M  V30 12444 N 1200.22 -1.56282 0.203376 0
M  V30 12445 C 1201.63 -1.58871 -0.152335 0
M  V30 12446 C 1201.83 -1.21978 -1.60386 0
M  V30 12447 O 1200.89 -0.946422 -2.34092 0
M  V30 12448 C 1202.2 -3.00287 0.157515 0
M  V30 12449 C 1203.75 -3.12846 0.098287 0
M  V30 12450 C 1204.23 -4.56408 0.38156 0
M  V30 12451 N 1205.72 -4.6202 0.330475 0
M  V30 12452 C 1206.45 -5.71006 0.523397 0
M  V30 12453 N 1205.95 -6.88428 0.777115 0
M  V30 12454 N 1207.74 -5.60238 0.457082 0
M  V30 12455 H 1199.89 -1.78543 1.15048 0
M  V30 12456 H 1202.15 -0.829019 0.459816 0
M  V30 12457 H 1201.86 -3.3187 1.16427 0
M  V30 12458 H 1201.73 -3.73372 -0.536041 0
M  V30 12459 H 1204.12 -2.8107 -0.899085 0
M  V30 12460 H 1204.2 -2.42129 0.825045 0
M  V30 12461 H 1203.85 -4.88897 1.37629 0
M  V30 12462 H 1203.78 -5.25325 -0.366182 0
M  V30 12463 H 1206.27 -3.77636 0.141327 0
M  V30 12464 H 1206.58 -7.67389 0.912911 0
M  V30 12465 H 1204.93 -6.90215 0.814104 0
M  V30 12466 H 1208.12 -4.67382 0.259226 0
M  V30 12467 H 1208.29 -6.45114 0.610848 0
M  V30 12468 N 1201.7 0.070167 -1.57444 0
M  V30 12469 C 1202.66 1.06761 -2.02817 0
M  V30 12470 C 1203.66 1.31498 -0.925462 0
M  V30 12471 O 1204.85 1.27192 -1.19029 0
M  V30 12472 C 1201.98 2.41086 -2.41019 0
M  V30 12473 H 1203.17 0.67651 -2.9217 0
M  V30 12474 H 1200.73 0.315936 -1.53074 0
M  V30 12475 H 1201.46 2.85025 -1.54697 0
M  V30 12476 H 1201.25 2.24472 -3.21488 0
M  V30 12477 H 1202.74 3.12778 -2.76694 0
M  V30 12478 N 1203.17 1.53854 0.341593 0
M  V30 12479 C 1204.12 1.81979 1.41959 0
M  V30 12480 C 1205.09 0.665616 1.5218 0
M  V30 12481 O 1206.28 0.910246 1.67688 0
M  V30 12482 C 1203.42 2.03681 2.78583 0
M  V30 12483 C 1202.53 3.31389 2.77137 0
M  V30 12484 C 1201.66 3.43148 4.05491 0
M  V30 12485 C 1200.7 4.64799 3.98282 0
M  V30 12486 N 1199.84 4.73581 5.18329 0
M  V30 12487 H 1204.68 2.73953 1.17275 0
M  V30 12488 H 1202.22 1.35689 0.568062 0
M  V30 12489 H 1204.17 2.14253 3.57983 0
M  V30 12490 H 1202.8 1.15017 3.01614 0
M  V30 12491 H 1201.86 3.29649 1.89832 0
M  V30 12492 H 1203.17 4.20885 2.67689 0
M  V30 12493 H 1202.32 3.53163 4.93316 0
M  V30 12494 H 1201.06 2.51712 4.17723 0
M  V30 12495 H 1200.07 4.54859 3.08842 0
M  V30 12496 H 1201.29 5.57601 3.87631 0
M  V30 12497 H 1199.24 3.85055 5.31102 0
M  V30 12498 H 1199.15 5.57016 5.11145 0
M  V30 12499 H 1200.42 4.87908 6.0792 0
M  V30 12500 N 1204.65 -0.602709 1.4562 0
M  V30 12501 C 1205.6 -1.70753 1.51088 0
M  V30 12502 C 1206.59 -1.56501 0.373662 0
M  V30 12503 O 1207.78 -1.65755 0.620828 0
M  V30 12504 C 1204.91 -3.09515 1.48511 0
M  V30 12505 C 1203.99 -3.29135 2.67453 0
M  V30 12506 N 1204.38 -3.18996 3.92524 0
M  V30 12507 C 1202.68 -3.60019 2.63253 0
M  V30 12508 C 1203.38 -3.40079 4.71933 0
M  V30 12509 N 1202.36 -3.64299 4.03469 0
M  V30 12510 H 1206.16 -1.61414 2.45607 0
M  V30 12511 H 1203.67 -0.806122 1.4098 0
M  V30 12512 H 1205.67 -3.88782 1.50513 0
M  V30 12513 H 1204.33 -3.19999 0.550526 0
M  V30 12514 H 1205.34 -2.97292 4.24073 0
M  V30 12515 H 1202.02 -3.77311 1.78725 0
M  V30 12516 H 1203.41 -3.37593 5.80931 0
M  V30 12517 N 1206.13 -1.32992 -0.845635 0
M  V30 12518 C 1207.38 -1.24249 -1.60281 0
M  V30 12519 C 1207.71 0.193049 -1.93238 0
M  V30 12520 O 1206.98 1.1326 -1.58122 0
M  V30 12521 C 1207.27 -2.1111 -2.91727 0
M  V30 12522 C 1207.12 -3.63088 -2.65494 0
M  V30 12523 C 1208.44 -1.97913 -3.93089 0
M  V30 12524 H 1205.56 -0.452698 -0.581578 0
M  V30 12525 H 1208.2 -1.63026 -0.975828 0
M  V30 12526 H 1206.35 -1.78169 -3.45236 0
M  V30 12527 H 1208.02 -4.06287 -2.18469 0
M  V30 12528 H 1206.26 -3.85304 -1.99306 0
M  V30 12529 H 1206.94 -4.19202 -3.59129 0
M  V30 12530 H 1209.41 -2.26788 -3.48864 0
M  V30 12531 H 1208.29 -2.60952 -4.82903 0
M  V30 12532 H 1208.55 -0.949378 -4.31786 0
M  V30 12533 N 1207.61 1.06304 -1.1635 0
M  V30 12534 C 1208.52 2.17296 -0.884289 0
M  V30 12535 C 1209.53 1.73408 0.143414 0
M  V30 12536 O 1210.71 2.01373 -0.0331987 0
M  V30 12537 C 1207.77 3.44509 -0.389163 0
M  V30 12538 C 1206.84 4.02906 -1.48208 0
M  V30 12539 C 1206.07 5.24047 -1.01048 0
M  V30 12540 O 1206.29 5.70229 0.139821 0
M  V30 12541 O 1205.23 5.74394 -1.79876 0
M  V30 12542 H 1209.05 2.4369 -1.81243 0
M  V30 12543 H 1206.64 1.15841 -0.943459 0
M  V30 12544 H 1208.52 4.21229 -0.120018 0
M  V30 12545 H 1207.19 3.19642 0.510968 0
M  V30 12546 H 1206.1 3.27677 -1.80496 0
M  V30 12547 H 1207.43 4.32068 -2.35751 0
M  V30 12548 N 1209.09 0.96196 1.24836 0
M  V30 12549 C 1210.05 0.492443 2.23847 0
M  V30 12550 C 1211.05 -0.40788 1.55541 0
M  V30 12551 O 1212.24 -0.204143 1.73 0
M  V30 12552 C 1209.37 -0.287578 3.39685 0
M  V30 12553 H 1210.56 1.36767 2.66899 0
M  V30 12554 H 1208.12 0.745967 1.3735 0
M  V30 12555 H 1208.85 -1.18015 3.02064 0
M  V30 12556 H 1208.64 0.358431 3.90458 0
M  V30 12557 H 1210.13 -0.605297 4.1319 0
M  V30 12558 N 1210.56 -1.39601 0.731392 0
M  V30 12559 C 1211.81 -2.01364 0.287048 0
M  V30 12560 C 1212.16 -1.56991 -1.11227 0
M  V30 12561 O 1211.46 -0.787202 -1.74682 0
M  V30 12562 C 1211.65 -3.55934 0.323352 0
M  V30 12563 C 1211.48 -4.15314 1.72466 0
M  V30 12564 C 1210.25 -4.48059 2.33605 0
M  V30 12565 C 1212.45 -4.39098 2.67764 0
M  V30 12566 N 1210.43 -4.9292 3.65927 0
M  V30 12567 C 1211.8 -4.86124 3.84816 0
M  V30 12568 C 1213.86 -4.2116 2.65572 0
M  V30 12569 C 1212.56 -5.17095 5.00005 0
M  V30 12570 C 1214.59 -4.53242 3.79902 0
M  V30 12571 C 1213.95 -5.00471 4.95689 0
M  V30 12572 H 1210.05 -0.76724 0.151217 0
M  V30 12573 H 1212.63 -1.6958 0.956588 0
M  V30 12574 H 1210.8 -3.87114 -0.315819 0
M  V30 12575 H 1212.53 -4.04461 -0.1392 0
M  V30 12576 H 1209.29 -4.35734 1.85561 0
M  V30 12577 H 1209.71 -5.19713 4.33851 0
M  V30 12578 H 1214.35 -3.83852 1.77251 0
M  V30 12579 H 1212.07 -5.5331 5.8896 0
M  V30 12580 H 1215.66 -4.40988 3.795 0
M  V30 12581 H 1214.54 -5.24826 5.8269 0
M  V30 12582 N 1212.04 -0.478751 -1.50152 0
M  V30 12583 C 1213.29 0.07531 -2.01559 0
M  V30 12584 C 1213.6 1.40089 -1.36508 0
M  V30 12585 O 1214.81 2.04035 -1.79115 0
M  V30 12586 C 1213.27 0.184714 -3.59426 0
M  V30 12587 C 1212.87 -1.13289 -4.33439 0
M  V30 12588 C 1214.62 0.690326 -4.18849 0
M  V30 12589 C 1212.53 -0.986866 -5.83108 0
M  V30 12590 H 1211.46 0.0319196 -0.753324 0
M  V30 12591 H 1214.11 -0.614809 -1.72894 0
M  V30 12592 H 1212.49 0.938788 -3.84711 0
M  V30 12593 H 1213.66 -1.89852 -4.19872 0
M  V30 12594 H 1211.98 -1.57021 -3.8566 0
M  V30 12595 H 1214.57 0.816733 -5.28426 0
M  V30 12596 H 1214.92 1.68361 -3.80737 0
M  V30 12597 H 1215.45 -0.00657846 -3.97799 0
M  V30 12598 H 1212.19 -1.95375 -6.25707 0
M  V30 12599 H 1211.71 -0.261752 -5.99229 0
M  V30 12600 H 1213.39 -0.656567 -6.4366 0
M  V30 12601 N 1213.52 1.56172 -0.211661 0
M  V30 12602 C 1214.93 1.84307 0.297982 0
M  V30 12603 C 1215.28 1.1328 1.60194 0
M  V30 12604 O 1214.41 0.399137 2.12687 0
M  V30 12605 C 1215 3.34348 0.547428 0
M  V30 12606 C 1213.56 3.62835 1.0014 0
M  V30 12607 C 1212.71 2.77237 0.0590326 0
M  V30 12608 H 1215.66 1.5262 -0.435083 0
M  V30 12609 H 1215.68 3.54018 1.39469 0
M  V30 12610 H 1215.19 3.86015 -0.401778 0
M  V30 12611 H 1213.29 3.16616 1.96431 0
M  V30 12612 H 1213.41 4.70899 0.882653 0
M  V30 12613 H 1211.77 2.48377 0.564005 0
M  V30 12614 H 1212.55 3.31699 -0.884913 0
M  V30 12615 N 1215 -0.0618163 1.57479 0
M  V30 12616 C 1216.41 -0.416827 1.54061 0
M  V30 12617 C 1216.61 -1.78584 0.933277 0
M  V30 12618 O 1215.67 -2.46656 0.54009 0
M  V30 12619 C 1216.98 -0.348728 2.98671 0
M  V30 12620 C 1218.53 -0.428194 3.10057 0
M  V30 12621 C 1219.01 -0.389898 4.56337 0
M  V30 12622 N 1220.5 -0.449677 4.61012 0
M  V30 12623 C 1221.23 -0.442418 5.71691 0
M  V30 12624 N 1220.73 -0.389381 6.91705 0
M  V30 12625 N 1222.52 -0.489719 5.59963 0
M  V30 12626 H 1214.67 0.834487 1.9532 0
M  V30 12627 H 1216.94 0.314149 0.894435 0
M  V30 12628 H 1216.64 0.590738 3.46703 0
M  V30 12629 H 1216.52 -1.15511 3.59078 0
M  V30 12630 H 1218.9 -1.35808 2.61992 0
M  V30 12631 H 1218.98 0.406946 2.52542 0
M  V30 12632 H 1218.63 0.536186 5.05062 0
M  V30 12633 H 1218.56 -1.24271 5.11727 0
M  V30 12634 H 1221.05 -0.49451 3.74651 0
M  V30 12635 H 1221.36 -0.388042 7.71825 0
M  V30 12636 H 1219.71 -0.355918 6.94088 0
M  V30 12637 H 1222.9 -0.528915 4.65102 0
M  V30 12638 H 1223.07 -0.480592 6.46215 0
M  V30 12639 N 1216.48 -1.54033 -0.333429 0
M  V30 12640 C 1217.44 -1.82021 -1.39288 0
M  V30 12641 C 1218.44 -0.691623 -1.45166 0
M  V30 12642 O 1219.63 -0.959925 -1.45365 0
M  V30 12643 C 1216.76 -1.97136 -2.78119 0
M  V30 12644 H 1217.95 -2.76671 -1.1573 0
M  V30 12645 H 1215.51 -1.45599 -0.568376 0
M  V30 12646 H 1216.24 -1.04663 -3.06946 0
M  V30 12647 H 1216.03 -2.79251 -2.75247 0
M  V30 12648 H 1217.52 -2.20271 -3.54782 0
M  V30 12649 N 1217.95 0.594978 -1.45938 0
M  V30 12650 C 1219.37 1.17703 -1.44924 0
M  V30 12651 C 1219.72 1.9534 -0.183522 0
M  V30 12652 O 1218.84 2.04276 0.714163 0
M  V30 12653 C 1219.44 2.14119 -2.62561 0
M  V30 12654 C 1218 2.67674 -2.64627 0
M  V30 12655 C 1217.14 1.43312 -2.37397 0
M  V30 12656 H 1220.09 0.383583 -1.53995 0
M  V30 12657 H 1220.11 2.97374 -2.3738 0
M  V30 12658 H 1219.63 1.57586 -3.54667 0
M  V30 12659 H 1217.73 3.28111 -1.76562 0
M  V30 12660 H 1217.84 3.11246 -3.64229 0
M  V30 12661 H 1216.2 1.72702 -1.87206 0
M  V30 12662 H 1216.99 0.886276 -3.31663 0
M  V30 12663 N 1219.43 1.33438 0.838571 0
M  V30 12664 C 1220.85 1.12779 1.12929 0
M  V30 12665 C 1221.05 -0.0811188 2.01337 0
M  V30 12666 O 1220.1 -0.761294 2.4075 0
M  V30 12667 C 1221.42 2.41537 1.7911 0
M  V30 12668 C 1222.97 2.47447 1.91674 0
M  V30 12669 C 1223.44 3.76167 2.6127 0
M  V30 12670 N 1224.93 3.7724 2.68783 0
M  V30 12671 C 1225.67 4.7355 3.23323 0
M  V30 12672 N 1225.16 5.80235 3.78549 0
M  V30 12673 N 1226.96 4.61025 3.21578 0
M  V30 12674 H 1219.11 2.10921 0.250187 0
M  V30 12675 H 1221.37 0.931986 0.17351 0
M  V30 12676 H 1221.08 3.30006 1.21609 0
M  V30 12677 H 1220.95 2.53709 2.79127 0
M  V30 12678 H 1223.34 1.59427 2.48328 0
M  V30 12679 H 1223.42 2.39216 0.906058 0
M  V30 12680 H 1223.06 4.64569 2.05275 0
M  V30 12681 H 1222.99 3.81675 3.62811 0
M  V30 12682 H 1225.48 3.00138 2.29621 0
M  V30 12683 H 1225.8 6.49759 4.1837 0
M  V30 12684 H 1224.14 5.83969 3.76836 0
M  V30 12685 H 1227.33 3.76836 2.77691 0
M  V30 12686 H 1227.5 5.36253 3.63781 0
M  V30 12687 N 1220.91 -1.05686 1.16912 0
M  V30 12688 C 1221.87 -2.11481 0.883647 0
M  V30 12689 C 1222.87 -1.60321 -0.124034 0
M  V30 12690 O 1224.06 -1.73868 0.107566 0
M  V30 12691 C 1221.2 -3.3937 0.322649 0
M  V30 12692 H 1222.39 -2.38239 1.8216 0
M  V30 12693 H 1219.94 -1.2185 0.978895 0
M  V30 12694 H 1220.68 -3.18266 -0.622695 0
M  V30 12695 H 1220.46 -3.77812 1.04883 0
M  V30 12696 H 1221.95 -4.17362 0.141072 0
M  V30 12697 N 1222.39 -0.968567 -1.24324 0
M  V30 12698 C 1223.32 -0.518323 -2.27674 0
M  V30 12699 C 1224.3 0.442479 -1.64244 0
M  V30 12700 O 1225.48 0.338416 -1.91229 0
M  V30 12701 C 1222.61 0.191459 -3.46772 0
M  V30 12702 C 1221.57 -0.685449 -4.22476 0
M  V30 12703 C 1220.89 0.155873 -5.34473 0
M  V30 12704 C 1222.19 -1.97047 -4.83704 0
M  V30 12705 H 1223.89 -1.38215 -2.65588 0
M  V30 12706 H 1221.43 -0.66604 -1.27671 0
M  V30 12707 H 1223.39 0.517667 -4.18208 0
M  V30 12708 H 1222.11 1.08965 -3.07887 0
M  V30 12709 H 1220.77 -0.994942 -3.52841 0
M  V30 12710 H 1220.42 1.05424 -4.91828 0
M  V30 12711 H 1220.12 -0.427655 -5.86042 0
M  V30 12712 H 1221.64 0.476733 -6.08736 0
M  V30 12713 H 1223.06 -1.70979 -5.4721 0
M  V30 12714 H 1221.45 -2.50079 -5.45509 0
M  V30 12715 H 1222.52 -2.66484 -4.0511 0
M  V30 12716 N 1223.87 1.39211 -0.738786 0
M  V30 12717 C 1225.28 1.83237 -0.357916 0
M  V30 12718 C 1225.63 1.61698 1.11123 0
M  V30 12719 O 1224.75 1.11017 1.85753 0
M  V30 12720 C 1225.35 3.32645 -0.64285 0
M  V30 12721 C 1223.91 3.75076 -0.315432 0
M  V30 12722 C 1223.05 2.62166 -0.903556 0
M  V30 12723 H 1226.01 1.2815 -0.936127 0
M  V30 12724 H 1226.03 3.80407 0.0840812 0
M  V30 12725 H 1225.54 3.4829 -1.71218 0
M  V30 12726 H 1223.64 3.65017 0.747907 0
M  V30 12727 H 1223.75 4.72363 -0.800638 0
M  V30 12728 H 1222.12 2.52554 -0.329927 0
M  V30 12729 H 1222.9 2.80616 -1.97761 0
M  V30 12730 N 1225.34 0.486708 1.49896 0
M  V30 12731 C 1226.57 -0.0599944 2.06513 0
M  V30 12732 C 1226.98 -1.32662 1.34898 0
M  V30 12733 O 1226.33 -1.78915 0.416565 0
M  V30 12734 C 1226.39 -0.39838 3.57286 0
M  V30 12735 C 1226.05 0.768465 4.50493 0
M  V30 12736 C 1227.05 1.65495 4.92856 0
M  V30 12737 C 1224.73 0.96322 4.92978 0
M  V30 12738 C 1226.73 2.72046 5.76429 0
M  V30 12739 C 1224.41 2.03193 5.7633 0
M  V30 12740 C 1225.41 2.9089 6.17958 0
M  V30 12741 O 1225.1 3.95919 6.99645 0
M  V30 12742 H 1224.83 0.0107865 0.675914 0
M  V30 12743 H 1227.39 0.679087 1.93849 0
M  V30 12744 H 1225.62 -1.19086 3.67907 0
M  V30 12745 H 1227.31 -0.882003 3.96201 0
M  V30 12746 H 1228.07 1.51624 4.6069 0
M  V30 12747 H 1223.95 0.29004 4.60087 0
M  V30 12748 H 1227.49 3.40526 6.08841 0
M  V30 12749 H 1223.39 2.17064 6.07909 0
M  V30 12750 H 1224.16 3.93097 7.17925 0
M  V30 12751 N 1226.82 -1.56058 0.219941 0
M  V30 12752 C 1228.05 -2.02652 -0.417101 0
M  V30 12753 C 1228.47 -1.09977 -1.53461 0
M  V30 12754 O 1227.82 -0.109088 -1.82174 0
M  V30 12755 C 1227.87 -3.48787 -0.950244 0
M  V30 12756 O 1227.6 -4.37928 0.12271 0
M  V30 12757 C 1229.1 -4.11018 -1.66069 0
M  V30 12758 H 1226.32 -0.663163 -0.102254 0
M  V30 12759 H 1228.86 -2.01722 0.335923 0
M  V30 12760 H 1227.02 -3.50338 -1.65355 0
M  V30 12761 H 1227.43 -5.23764 -0.277785 0
M  V30 12762 H 1228.9 -5.15046 -1.98575 0
M  V30 12763 H 1229.38 -3.55921 -2.57326 0
M  V30 12764 H 1229.99 -4.13313 -1.00263 0
M  V30 12765 N 1228.3 0.053464 -1.57509 0
M  V30 12766 C 1229.53 0.765301 -1.92764 0
M  V30 12767 C 1229.95 1.69385 -0.817943 0
M  V30 12768 O 1229.31 1.7986 0.228075 0
M  V30 12769 C 1229.36 1.51938 -3.27028 0
M  V30 12770 O 1228.46 2.63121 -3.17555 0
M  V30 12771 H 1227.8 0.207567 -0.630723 0
M  V30 12772 H 1230.33 0.0162254 -2.04594 0
M  V30 12773 H 1230.34 1.89466 -3.6134 0
M  V30 12774 H 1229.02 0.838207 -4.07366 0
M  V30 12775 H 1227.59 2.28316 -2.94832 0
M  V30 12776 N 1229.78 1.54207 0.325255 0
M  V30 12777 C 1231.03 1.71544 1.06091 0
M  V30 12778 C 1231.34 0.495137 1.89229 0
M  V30 12779 O 1232.55 0.54982 2.65874 0
M  V30 12780 C 1231 3.03412 1.93569 0
M  V30 12781 C 1230.61 4.32842 1.1555 0
M  V30 12782 C 1232.36 3.30113 2.66881 0
M  V30 12783 C 1230.26 5.55773 2.02164 0
M  V30 12784 H 1229.19 0.639281 0.399795 0
M  V30 12785 H 1231.84 1.80701 0.319261 0
M  V30 12786 H 1230.23 2.88158 2.71626 0
M  V30 12787 H 1231.4 4.58857 0.42276 0
M  V30 12788 H 1229.71 4.12893 0.539277 0
M  V30 12789 H 1232.31 4.19151 3.31988 0
M  V30 12790 H 1232.65 2.47918 3.34428 0
M  V30 12791 H 1233.19 3.46227 1.95887 0
M  V30 12792 H 1229.93 6.40565 1.39128 0
M  V30 12793 H 1229.45 5.3398 2.73177 0
M  V30 12794 H 1231.13 5.92113 2.60789 0
M  V30 12795 N 1231.26 -0.58723 1.46251 0
M  V30 12796 C 1232.51 -1.34294 1.51028 0
M  V30 12797 C 1232.83 -1.94329 0.161623 0
M  V30 12798 O 1232.1 -1.78309 -0.811342 0
M  V30 12799 H 1230.68 -0.498607 0.556238 0
M  V30 12800 H 1233.34 -0.688074 1.8235 0
M  V30 12801 H 1232.43 -2.15197 2.26045 0
M  V30 12802 N 1232.74 -1.33881 -0.831482 0
M  V30 12803 C 1234.15 -1.13376 -1.1233 0
M  V30 12804 C 1234.35 0.0704402 -2.01377 0
M  V30 12805 O 1233.41 0.748516 -2.4115 0
M  V30 12806 C 1234.72 -2.42484 -1.77826 0
M  V30 12807 C 1236.27 -2.4846 -1.90359 0
M  V30 12808 C 1236.74 -3.77548 -2.59272 0
M  V30 12809 N 1238.23 -3.7866 -2.66778 0
M  V30 12810 C 1238.97 -4.75258 -3.20807 0
M  V30 12811 N 1238.47 -5.82234 -3.75466 0
M  V30 12812 N 1240.26 -4.62724 -3.19128 0
M  V30 12813 H 1232.41 -2.11051 -0.238998 0
M  V30 12814 H 1234.67 -0.932893 -0.168565 0
M  V30 12815 H 1234.38 -3.30647 -1.19857 0
M  V30 12816 H 1234.25 -2.55186 -2.77777 0
M  V30 12817 H 1236.64 -1.60742 -2.47479 0
M  V30 12818 H 1236.72 -2.39693 -0.893359 0
M  V30 12819 H 1236.36 -4.65651 -2.02808 0
M  V30 12820 H 1236.29 -3.83594 -3.60781 0
M  V30 12821 H 1238.79 -3.01351 -2.28026 0
M  V30 12822 H 1239.1 -6.51968 -4.14918 0
M  V30 12823 H 1237.44 -5.85959 -3.73733 0
M  V30 12824 H 1240.63 -3.78303 -2.75688 0
M  V30 12825 H 1240.81 -5.38175 -3.60932 0
M  V30 12826 N 1234.21 1.05064 -1.1747 0
M  V30 12827 C 1235.44 1.81761 -0.988464 0
M  V30 12828 C 1235.86 1.83028 0.463272 0
M  V30 12829 O 1235.21 1.25846 1.32171 0
M  V30 12830 C 1235.26 3.2782 -1.5237 0
M  V30 12831 O 1234.99 3.26726 -2.91859 0
M  V30 12832 C 1236.49 4.212 -1.38223 0
M  V30 12833 H 1233.71 0.572712 -0.349631 0
M  V30 12834 H 1236.25 1.32477 -1.55789 0
M  V30 12835 H 1234.41 3.7437 -0.996272 0
M  V30 12836 H 1234.82 4.18151 -3.16623 0
M  V30 12837 H 1236.29 5.2166 -1.80485 0
M  V30 12838 H 1236.77 4.37962 -0.329491 0
M  V30 12839 H 1237.38 3.80506 -1.89988 0
M  V30 12840 N 1235.69 0.975146 1.23809 0
M  V30 12841 C 1236.64 0.503396 2.27087 0
M  V30 12842 C 1237.63 -0.43689 1.63669 0
M  V30 12843 O 1238.84 -0.31136 1.77287 0
M  V30 12844 H 1235.21 0.144346 0.738017 0
M  V30 12845 H 1237.19 1.38627 2.64244 0
M  V30 12846 C 1235.93 -0.183682 3.47214 0
M  V30 12847 H 1235.26 0.530753 3.96261 0
M  V30 12848 H 1236.7 -0.477479 4.21303 0
M  V30 12849 C 1235.16 -1.41317 3.05829 0
M  V30 12850 O 1235.69 -2.50975 3.13647 0
M  V30 12851 N 1233.89 -1.28191 2.60798 0
M  V30 12852 H 1233.44 -0.38967 2.54636 0
M  V30 12853 H 1233.4 -2.10565 2.33473 0
M  V30 12854 N 1237.17 -1.38817 0.746158 0
M  V30 12855 C 1238.4 -2.04274 0.309156 0
M  V30 12856 C 1238.81 -1.56389 -1.06486 0
M  V30 12857 O 1238.15 -0.728875 -1.68621 0
M  V30 12858 C 1238.21 -3.58664 0.245003 0
M  V30 12859 C 1237.88 -4.29574 1.55933 0
M  V30 12860 C 1238.87 -4.55454 2.50714 0
M  V30 12861 C 1236.56 -4.67907 1.82671 0
M  V30 12862 C 1238.55 -5.18691 3.70458 0
M  V30 12863 C 1236.24 -5.30869 3.0269 0
M  V30 12864 C 1237.24 -5.56195 3.96404 0
M  V30 12865 O 1236.93 -6.17848 5.14314 0
M  V30 12866 H 1236.66 -0.663162 0.131121 0
M  V30 12867 H 1239.21 -1.78636 1.01382 0
M  V30 12868 H 1237.44 -3.83244 -0.515847 0
M  V30 12869 H 1239.13 -4.05579 -0.16149 0
M  V30 12870 H 1239.9 -4.26276 2.3133 0
M  V30 12871 H 1235.78 -4.47544 1.10568 0
M  V30 12872 H 1239.32 -5.38375 4.4362 0
M  V30 12873 H 1235.22 -5.59469 3.2197 0
M  V30 12874 H 1235.98 -6.36338 5.14797 0
M  V30 12875 N 1238.65 -0.49465 -1.49636 0
M  V30 12876 C 1240.06 -0.0452894 -1.86645 0
M  V30 12877 C 1240.41 1.36686 -1.40753 0
M  V30 12878 O 1239.53 2.01751 -0.78265 0
M  V30 12879 C 1240.13 -0.0754115 -3.38716 0
M  V30 12880 C 1238.69 0.318579 -3.75049 0
M  V30 12881 C 1237.84 -0.450712 -2.73613 0
M  V30 12882 H 1240.79 -0.707758 -1.42044 0
M  V30 12883 H 1240.81 0.721372 -3.73599 0
M  V30 12884 H 1240.32 -1.10331 -3.72087 0
M  V30 12885 H 1238.42 1.34995 -3.47285 0
M  V30 12886 H 1238.53 0.00354416 -4.791 0
M  V30 12887 H 1236.9 0.0986455 -2.54509 0
M  V30 12888 H 1237.68 -1.47857 -3.09828 0
M  V30 12889 N 1240.13 1.55939 -0.228214 0
M  V30 12890 C 1241.07 2.20581 0.679157 0
M  V30 12891 C 1242.04 1.16355 1.18536 0
M  V30 12892 O 1243.23 1.44735 1.24324 0
M  V30 12893 C 1240.37 2.89477 1.87875 0
M  V30 12894 C 1239.48 4.08313 1.41083 0
M  V30 12895 C 1238.62 4.64974 2.56851 0
M  V30 12896 C 1237.65 5.76098 2.06828 0
M  V30 12897 N 1236.79 6.27021 3.15894 0
M  V30 12898 H 1241.63 2.97753 0.121203 0
M  V30 12899 H 1239.17 1.47021 0.0480688 0
M  V30 12900 H 1241.13 3.2761 2.58317 0
M  V30 12901 H 1239.76 2.14811 2.40948 0
M  V30 12902 H 1238.81 3.75621 0.601102 0
M  V30 12903 H 1240.12 4.8859 1.00408 0
M  V30 12904 H 1239.27 5.05584 3.35365 0
M  V30 12905 H 1238.01 3.83875 3.00818 0
M  V30 12906 H 1237.02 5.34984 1.26778 0
M  V30 12907 H 1238.24 6.59037 1.63852 0
M  V30 12908 H 1236.19 5.48833 3.5933 0
M  V30 12909 H 1236.11 7.02439 2.79491 0
M  V30 12910 H 1237.37 6.72289 3.94523 0
M  V30 12911 N 1241.6 -0.0451101 1.57535 0
M  V30 12912 C 1242.55 -1.0692 2.06569 0
M  V30 12913 C 1243.55 -1.38443 0.976218 0
M  V30 12914 O 1244.75 -1.37536 1.1612 0
M  V30 12915 H 1241.13 -0.36226 0.658993 0
M  V30 12916 H 1243.1 -0.629709 2.9168 0
M  V30 12917 C 1241.85 -2.36656 2.54733 0
M  V30 12918 H 1241.17 -2.13257 3.38174 0
M  V30 12919 H 1242.61 -3.06696 2.92769 0
M  V30 12920 C 1241.07 -3.04499 1.4416 0
M  V30 12921 O 1241.6 -3.93679 0.798721 0
M  V30 12922 N 1239.81 -2.6556 1.18009 0
M  V30 12923 H 1239.35 -1.93126 1.7047 0
M  V30 12924 H 1239.31 -3.11272 0.442363 0
M  V30 12925 N 1243.08 -1.54377 -0.317073 0
M  V30 12926 C 1244.31 -1.76865 -1.07362 0
M  V30 12927 C 1244.73 -0.520354 -1.81488 0
M  V30 12928 O 1244.08 0.509213 -1.75252 0
M  V30 12929 C 1244.13 -2.96598 -2.06668 0
M  V30 12930 O 1243.85 -4.16602 -1.35552 0
M  V30 12931 C 1245.36 -3.31348 -2.94489 0
M  V30 12932 H 1242.58 -0.590277 -0.319083 0
M  V30 12933 H 1245.12 -2.01284 -0.361227 0
M  V30 12934 H 1243.27 -2.74433 -2.73432 0
M  V30 12935 H 1243.69 -4.83996 -2.02108 0
M  V30 12936 H 1245.16 -4.1841 -3.60051 0
M  V30 12937 H 1245.64 -2.48797 -3.61935 0
M  V30 12938 H 1246.25 -3.55614 -2.33278 0
M  V30 12939 N 1244.56 0.579466 -1.4656 0
M  V30 12940 C 1245.47 1.71609 -1.59961 0
M  V30 12941 C 1246.49 1.67162 -0.483002 0
M  V30 12942 O 1247.66 1.87012 -0.747561 0
M  V30 12943 C 1244.73 3.08114 -1.58954 0
M  V30 12944 C 1243.79 3.238 -2.81872 0
M  V30 12945 C 1243.02 4.53794 -2.80904 0
M  V30 12946 O 1243.24 5.37884 -1.89835 0
M  V30 12947 O 1242.18 4.72796 -3.72488 0
M  V30 12948 H 1246 1.6325 -2.56092 0
M  V30 12949 H 1243.59 0.746891 -1.2939 0
M  V30 12950 H 1245.47 3.8939 -1.611 0
M  V30 12951 H 1244.15 3.16903 -0.65984 0
M  V30 12952 H 1243.05 2.42006 -2.85279 0
M  V30 12953 H 1244.39 3.19904 -3.74062 0
M  V30 12954 N 1246.04 1.3432 0.824371 0
M  V30 12955 C 1247.45 1.23855 1.39703 0
M  V30 12956 C 1247.8 -0.136566 1.95724 0
M  V30 12957 O 1246.93 -1.03683 1.89944 0
M  V30 12958 C 1247.52 2.24249 2.53965 0
M  V30 12959 C 1246.08 2.17578 3.07143 0
M  V30 12960 C 1245.23 2.10933 1.80008 0
M  V30 12961 H 1248.18 1.45707 0.628891 0
M  V30 12962 H 1248.2 1.85864 3.32016 0
M  V30 12963 H 1247.71 3.24321 2.13161 0
M  V30 12964 H 1245.81 1.20858 3.52455 0
M  V30 12965 H 1245.92 3.08769 3.66331 0
M  V30 12966 H 1244.29 1.56631 2.00845 0
M  V30 12967 H 1245.07 3.12836 1.4138 0
M  V30 12968 N 1247.52 -1.0444 1.18026 0
M  V30 12969 C 1248.76 -1.77838 0.974756 0
M  V30 12970 C 1249.1 -1.87792 -0.494755 0
M  V30 12971 O 1248.37 -1.38327 -1.36733 0
M  V30 12972 C 1248.65 -3.21315 1.62569 0
M  V30 12973 C 1248.51 -3.19327 3.16781 0
M  V30 12974 C 1249.83 -4.19337 1.33583 0
M  V30 12975 H 1246.94 -0.645575 0.35553 0
M  V30 12976 H 1249.59 -1.22023 1.45638 0
M  V30 12977 H 1247.74 -3.68974 1.21617 0
M  V30 12978 H 1249.41 -2.79687 3.66842 0
M  V30 12979 H 1247.65 -2.57461 3.49137 0
M  V30 12980 H 1248.32 -4.20626 3.5746 0
M  V30 12981 H 1250.8 -3.80208 1.69059 0
M  V30 12982 H 1249.67 -5.17953 1.81702 0
M  V30 12983 H 1249.94 -4.41346 0.258016 0
M  V30 12984 N 1248.99 -0.981699 -1.2329 0
M  V30 12985 C 1250.24 -0.646818 -1.91048 0
M  V30 12986 C 1250.56 0.823479 -1.77421 0
M  V30 12987 O 1251.76 1.26948 -2.39993 0
M  V30 12988 C 1250.22 -1.1063 -3.42475 0
M  V30 12989 C 1249.83 -2.60103 -3.6476 0
M  V30 12990 C 1251.57 -0.845227 -4.16 0
M  V30 12991 C 1249.48 -2.99712 -5.0983 0
M  V30 12992 H 1248.41 -0.238221 -0.715379 0
M  V30 12993 H 1251.06 -1.18977 -1.39702 0
M  V30 12994 H 1249.44 -0.491554 -3.92937 0
M  V30 12995 H 1250.61 -3.26828 -3.24839 0
M  V30 12996 H 1248.93 -2.83972 -3.04547 0
M  V30 12997 H 1251.53 -1.11699 -5.22903 0
M  V30 12998 H 1251.87 0.218661 -4.15725 0
M  V30 12999 H 1252.4 -1.42162 -3.7153 0
M  V30 13000 H 1249.14 -4.0523 -5.15237 0
M  V30 13001 H 1248.66 -2.37683 -5.50697 0
M  V30 13002 H 1250.34 -2.9039 -5.78172 0
M  V30 13003 N 1250.47 1.3842 -0.753509 0
M  V30 13004 C 1251.42 2.30457 -0.12574 0
M  V30 13005 C 1252.39 1.50173 0.709728 0
M  V30 13006 O 1253.57 1.78804 0.665872 0
M  V30 13007 C 1250.71 3.36593 0.761503 0
M  V30 13008 C 1249.83 4.31909 -0.0885848 0
M  V30 13009 C 1248.96 5.25116 0.801655 0
M  V30 13010 C 1248 6.12078 -0.0520719 0
M  V30 13011 N 1247.14 6.97583 0.795124 0
M  V30 13012 H 1251.98 2.83567 -0.916187 0
M  V30 13013 H 1249.52 1.39609 -0.463436 0
M  V30 13014 H 1251.47 3.96738 1.29054 0
M  V30 13015 H 1250.1 2.84894 1.51774 0
M  V30 13016 H 1249.16 3.73227 -0.735249 0
M  V30 13017 H 1250.47 4.93161 -0.747899 0
M  V30 13018 H 1249.62 5.90377 1.39786 0
M  V30 13019 H 1248.36 4.6423 1.4947 0
M  V30 13020 H 1247.37 5.45813 -0.660946 0
M  V30 13021 H 1248.59 6.75032 -0.742178 0
M  V30 13022 H 1246.54 6.39246 1.47312 0
M  V30 13023 H 1246.45 7.55754 0.192705 0
M  V30 13024 H 1247.72 7.67254 1.3763 0
M  V30 13025 N 1251.95 0.502579 1.49372 0
M  V30 13026 C 1252.9 -0.275004 2.29156 0
M  V30 13027 C 1253.87 -0.95892 1.35624 0
M  V30 13028 O 1255.05 -0.965276 1.64581 0
M  V30 13029 C 1252.19 -1.33255 3.18335 0
M  V30 13030 C 1251.31 -0.660248 4.26925 0
M  V30 13031 C 1250.44 -1.69837 5.03318 0
M  V30 13032 C 1249.48 -1.00802 6.03743 0
M  V30 13033 N 1248.62 -1.99042 6.73295 0
M  V30 13034 H 1253.46 0.411599 2.95144 0
M  V30 13035 H 1250.99 0.214824 1.45523 0
M  V30 13036 H 1252.95 -1.95769 3.68416 0
M  V30 13037 H 1251.58 -1.98789 2.54328 0
M  V30 13038 H 1250.63 0.0782181 3.8032 0
M  V30 13039 H 1251.95 -0.11689 4.98663 0
M  V30 13040 H 1251.1 -2.39852 5.57275 0
M  V30 13041 H 1249.84 -2.27558 4.31357 0
M  V30 13042 H 1248.84 -0.293654 5.49015 0
M  V30 13043 H 1250.07 -0.437285 6.77691 0
M  V30 13044 H 1248.01 -2.55722 6.04104 0
M  V30 13045 H 1247.93 -1.49776 7.41015 0
M  V30 13046 H 1249.2 -2.6834 7.31856 0
M  V30 13047 N 1253.43 -1.55816 0.23648 0
M  V30 13048 C 1254.84 -1.59159 -0.118601 0
M  V30 13049 C 1255.04 -1.25352 -1.57763 0
M  V30 13050 O 1254.1 -0.995863 -2.32032 0
M  V30 13051 C 1255.41 -2.99885 0.221175 0
M  V30 13052 C 1256.96 -3.12567 0.164624 0
M  V30 13053 C 1257.44 -4.55496 0.478285 0
M  V30 13054 N 1258.93 -4.61215 0.428402 0
M  V30 13055 C 1259.66 -5.69768 0.644398 0
M  V30 13056 N 1259.16 -6.86624 0.922966 0
M  V30 13057 N 1260.95 -5.59143 0.575814 0
M  V30 13058 H 1253.1 -1.76063 1.18809 0
M  V30 13059 H 1255.37 -0.819079 0.477297 0
M  V30 13060 H 1255.07 -3.29326 1.2344 0
M  V30 13061 H 1254.95 -3.74425 -0.456723 0
M  V30 13062 H 1257.33 -2.82914 -0.839263 0
M  V30 13063 H 1257.41 -2.40325 0.876219 0
M  V30 13064 H 1257.06 -4.85868 1.47968 0
M  V30 13065 H 1256.99 -5.25984 -0.254671 0
M  V30 13066 H 1259.48 -3.77251 0.221398 0
M  V30 13067 H 1259.79 -7.6528 1.07548 0
M  V30 13068 H 1258.14 -6.88333 0.960325 0
M  V30 13069 H 1261.33 -4.66727 0.358307 0
M  V30 13070 H 1261.5 -6.43674 0.747548 0
M  V30 13071 N 1254.91 0.036755 -1.57557 0
M  V30 13072 C 1255.85 1.03975 -2.06053 0
M  V30 13073 C 1256.82 1.36384 -0.948089 0
M  V30 13074 O 1258.01 1.46853 -1.21815 0
M  V30 13075 C 1255.15 2.33796 -2.53837 0
M  V30 13076 C 1254.26 2.07614 -3.78841 0
M  V30 13077 C 1253.4 3.3125 -4.15267 0
M  V30 13078 C 1252.44 3.00587 -5.33211 0
M  V30 13079 N 1251.57 4.16653 -5.65106 0
M  V30 13080 H 1256.41 0.61924 -2.91495 0
M  V30 13081 H 1253.95 0.294151 -1.44129 0
M  V30 13082 H 1255.91 3.09639 -2.79606 0
M  V30 13083 H 1254.54 2.73584 -1.71323 0
M  V30 13084 H 1253.59 1.22302 -3.60203 0
M  V30 13085 H 1254.9 1.80989 -4.64806 0
M  V30 13086 H 1254.06 4.15466 -4.42123 0
M  V30 13087 H 1252.79 3.60981 -3.27939 0
M  V30 13088 H 1251.8 2.14772 -5.06115 0
M  V30 13089 H 1253.02 2.72142 -6.22186 0
M  V30 13090 H 1250.97 4.4635 -4.80737 0
M  V30 13091 H 1250.89 3.93425 -6.45564 0
M  V30 13092 H 1252.16 5.01764 -5.96534 0
M  V30 13093 N 1256.39 1.54543 0.308881 0
M  V30 13094 C 1257.63 1.73107 1.043 0
M  V30 13095 C 1257.95 0.515481 1.88063 0
M  V30 13096 O 1257.22 -0.47036 1.90169 0
M  V30 13097 H 1255.8 0.638289 0.388068 0
M  V30 13098 H 1258.47 1.9188 0.341769 0
M  V30 13099 H 1257.56 2.61697 1.70063 0
M  V30 13100 N 1257.86 -0.571685 1.46866 0
M  V30 13101 C 1259.14 -1.33216 1.43223 0
M  V30 13102 C 1259.52 -2.1075 0.121495 0
M  V30 13103 O 1258.87 -2.10157 -0.897003 0
M  V30 13104 C 1259.08 -2.24888 2.66882 0
M  V30 13105 C 1260.43 -2.86369 3.13493 0
M  V30 13106 O 1261.45 -2.35197 2.67509 0
M  V30 13107 O 1260.31 -3.79342 3.93398 0
M  V30 13108 H 1257.4 -0.599106 0.570089 0
M  V30 13109 H 1259.95 -0.591788 1.59047 0
M  V30 13110 H 1258.72 -1.67099 3.53827 0
M  V30 13111 H 1258.34 -3.06246 2.53573 0
M  V30 13112 N 1259.34 -1.34755 -0.817236 0
M  V30 13113 C 1260.59 -1.26771 -1.56882 0
M  V30 13114 C 1260.9 0.158962 -1.94953 0
M  V30 13115 O 1262.11 0.360996 -2.69089 0
M  V30 13116 C 1260.57 -2.22261 -2.83069 0
M  V30 13117 C 1260.17 -3.70216 -2.52277 0
M  V30 13118 C 1261.92 -2.23197 -3.61086 0
M  V30 13119 C 1259.82 -4.57559 -3.74691 0
M  V30 13120 H 1258.75 -0.470961 -0.588822 0
M  V30 13121 H 1261.41 -1.59955 -0.899254 0
M  V30 13122 H 1259.79 -1.82036 -3.5168 0
M  V30 13123 H 1260.96 -4.19014 -1.9174 0
M  V30 13124 H 1259.28 -3.71784 -1.87525 0
M  V30 13125 H 1261.87 -2.85673 -4.5199 0
M  V30 13126 H 1262.22 -1.2328 -3.97628 0
M  V30 13127 H 1262.75 -2.61897 -2.99424 0
M  V30 13128 H 1259.49 -5.58434 -3.43267 0
M  V30 13129 H 1259.01 -4.13494 -4.34491 0
M  V30 13130 H 1260.69 -4.72451 -4.42039 0
M  V30 13131 N 1260.82 1.03812 -1.18578 0
M  V30 13132 C 1261.77 2.11883 -0.915115 0
M  V30 13133 C 1262.74 1.65453 0.146479 0
M  V30 13134 O 1263.92 1.90799 0.00630058 0
M  V30 13135 C 1261.06 3.42157 -0.449755 0
M  V30 13136 C 1260.17 4.02185 -1.57706 0
M  V30 13137 C 1259.31 5.20431 -1.06417 0
M  V30 13138 C 1258.35 5.72496 -2.16599 0
M  V30 13139 N 1257.49 6.82027 -1.66685 0
M  V30 13140 H 1262.33 2.34373 -1.84047 0
M  V30 13141 H 1259.86 1.14962 -0.917728 0
M  V30 13142 H 1261.82 4.16888 -0.161407 0
M  V30 13143 H 1260.45 3.19806 0.438622 0
M  V30 13144 H 1259.5 3.24757 -1.98083 0
M  V30 13145 H 1260.81 4.36851 -2.40754 0
M  V30 13146 H 1259.97 6.02286 -0.730497 0
M  V30 13147 H 1258.71 4.87276 -0.203301 0
M  V30 13148 H 1257.71 4.8926 -2.50808 0
M  V30 13149 H 1258.94 6.07694 -3.03126 0
M  V30 13150 H 1256.88 6.50742 -0.828916 0
M  V30 13151 H 1256.8 7.1577 -2.43329 0
M  V30 13152 H 1258.07 7.67499 -1.36253 0
M  V30 13153 N 1262.3 0.988223 1.22768 0
M  V30 13154 C 1263.52 0.679426 1.95955 0
M  V30 13155 C 1263.95 -0.748483 1.72567 0
M  V30 13156 O 1263.31 -1.51097 1.00197 0
M  V30 13157 C 1263.35 0.985284 3.46878 0
M  V30 13158 O 1262.46 0.0814607 4.1232 0
M  V30 13159 H 1261.8 0.254749 0.613188 0
M  V30 13160 H 1264.33 1.32393 1.55991 0
M  V30 13161 H 1264.34 0.925198 3.97371 0
M  V30 13162 H 1263.01 2.02581 3.63227 0
M  V30 13163 H 1261.59 0.196629 3.72381 0
M  V30 13164 N 1263.78 -1.38018 0.760839 0
M  V30 13165 C 1265.01 -2.03934 0.330804 0
M  V30 13166 C 1265.41 -1.57509 -1.04821 0
M  V30 13167 O 1264.76 -0.746718 -1.67839 0
M  V30 13168 C 1264.82 -3.58384 0.28303 0
M  V30 13169 C 1264.48 -4.27896 1.6048 0
M  V30 13170 C 1265.48 -4.52769 2.5553 0
M  V30 13171 C 1263.16 -4.65943 1.87624 0
M  V30 13172 C 1265.16 -5.14732 3.75938 0
M  V30 13173 C 1262.85 -5.27629 3.08304 0
M  V30 13174 C 1263.84 -5.51959 4.02281 0
M  V30 13175 O 1263.53 -6.12358 5.20838 0
M  V30 13176 H 1263.26 -0.661733 0.138148 0
M  V30 13177 H 1265.82 -1.77551 1.03271 0
M  V30 13178 H 1264.05 -3.83769 -0.47517 0
M  V30 13179 H 1265.74 -4.05727 -0.118464 0
M  V30 13180 H 1266.5 -4.23798 2.35839 0
M  V30 13181 H 1262.38 -4.46346 1.15308 0
M  V30 13182 H 1265.93 -5.33639 4.49305 0
M  V30 13183 H 1261.82 -5.56023 3.27886 0
M  V30 13184 H 1262.59 -6.30842 5.21517 0
M  V30 13185 N 1265.25 -0.510493 -1.49103 0
M  V30 13186 C 1266.5 0.0305831 -2.02077 0
M  V30 13187 C 1266.82 1.36602 -1.39157 0
M  V30 13188 O 1266.09 1.88016 -0.550154 0
M  V30 13189 H 1264.67 0.0142916 -0.746863 0
M  V30 13190 H 1267.33 -0.669895 -1.83026 0
M  V30 13191 H 1266.43 0.153283 -3.11723 0
M  V30 13192 N 1266.73 1.55688 -0.24474 0
M  V30 13193 C 1267.66 2.24272 0.64995 0
M  V30 13194 C 1268.64 1.22226 1.183 0
M  V30 13195 O 1269.83 1.50873 1.22274 0
M  V30 13196 C 1266.96 2.94053 1.84798 0
M  V30 13197 C 1265.91 4.02769 1.44779 0
M  V30 13198 C 1265.24 4.59965 2.72647 0
M  V30 13199 C 1266.54 5.18601 0.62047 0
M  V30 13200 H 1268.23 2.99298 0.0780654 0
M  V30 13201 H 1265.78 1.43955 0.0361069 0
M  V30 13202 H 1267.73 3.40732 2.47951 0
M  V30 13203 H 1266.45 2.16511 2.44521 0
M  V30 13204 H 1265.11 3.56856 0.839609 0
M  V30 13205 H 1264.76 3.79126 3.30564 0
M  V30 13206 H 1264.46 5.33352 2.46596 0
M  V30 13207 H 1265.99 5.09376 3.36703 0
M  V30 13208 H 1267.4 5.61519 1.15625 0
M  V30 13209 H 1265.8 5.98364 0.456097 0
M  V30 13210 H 1266.87 4.83503 -0.367798 0
M  V30 13211 N 1268.21 -0.0283989 1.57574 0
M  V30 13212 C 1269.46 -0.717656 1.88929 0
M  V30 13213 C 1269.78 -1.7586 0.842517 0
M  V30 13214 O 1269.05 -1.95509 -0.123774 0
M  V30 13215 H 1267.63 -0.268051 0.69725 0
M  V30 13216 H 1270.29 0.00580691 1.94899 0
M  V30 13217 H 1269.39 -1.2068 2.87824 0
M  V30 13218 N 1269.69 -1.54705 -0.300681 0
M  V30 13219 C 1271.1 -1.64998 -0.873654 0
M  V30 13220 C 1271.45 -0.558842 -1.88073 0
M  V30 13221 O 1270.57 0.304474 -2.14247 0
M  V30 13222 C 1271.17 -2.99099 -1.59138 0
M  V30 13223 C 1269.73 -3.11512 -2.11276 0
M  V30 13224 C 1268.88 -2.60681 -0.945551 0
M  V30 13225 H 1271.83 -1.5851 -0.0776752 0
M  V30 13226 H 1271.85 -2.9054 -2.45696 0
M  V30 13227 H 1271.36 -3.78493 -0.858172 0
M  V30 13228 H 1269.46 -2.36838 -2.87643 0
M  V30 13229 H 1269.57 -4.17672 -2.34707 0
M  V30 13230 H 1267.94 -2.17143 -1.33121 0
M  V30 13231 H 1268.72 -3.42553 -0.226291 0
M  V30 13232 N 1271.17 0.563888 -1.47167 0
M  V30 13233 C 1272.58 0.889156 -1.32537 0
M  V30 13234 C 1272.78 1.99088 -0.310854 0
M  V30 13235 O 1271.84 2.50943 0.27998 0
M  V30 13236 C 1273.15 1.28871 -2.71685 0
M  V30 13237 C 1274.7 1.40051 -2.79919 0
M  V30 13238 C 1275.17 1.83364 -4.19692 0
M  V30 13239 N 1276.67 1.90526 -4.22201 0
M  V30 13240 C 1277.4 2.25355 -5.2726 0
M  V30 13241 N 1276.9 2.58844 -6.42629 0
M  V30 13242 N 1278.69 2.26071 -5.14634 0
M  V30 13243 H 1270.84 -0.163581 -2.11769 0
M  V30 13244 H 1273.1 -0.0105151 -0.947942 0
M  V30 13245 H 1272.81 0.553057 -3.47324 0
M  V30 13246 H 1272.68 2.24629 -3.03021 0
M  V30 13247 H 1275.07 2.12698 -2.04557 0
M  V30 13248 H 1275.15 0.424971 -2.52245 0
M  V30 13249 H 1274.8 1.11289 -4.95557 0
M  V30 13250 H 1274.73 2.81909 -4.44786 0
M  V30 13251 H 1277.22 1.67059 -3.38968 0
M  V30 13252 H 1277.53 2.84427 -7.18555 0
M  V30 13253 H 1275.87 2.56439 -6.4596 0
M  V30 13254 H 1279.07 1.99343 -4.23533 0
M  V30 13255 H 1279.24 2.52885 -5.96618 0
M  V30 13256 N 1272.64 1.35187 0.810078 0
M  V30 13257 C 1273.87 1.31181 1.59609 0
M  V30 13258 C 1274.28 -0.113556 1.88859 0
M  V30 13259 O 1273.63 -1.07491 1.48968 0
M  V30 13260 C 1273.69 2.04749 2.95496 0
M  V30 13261 C 1273.35 3.53952 2.89079 0
M  V30 13262 C 1274.35 4.48612 2.6276 0
M  V30 13263 C 1272.03 3.96551 3.08306 0
M  V30 13264 C 1274.03 5.83846 2.5574 0
M  V30 13265 C 1271.71 5.31881 3.00909 0
M  V30 13266 C 1272.71 6.2534 2.74661 0
M  V30 13267 O 1272.4 7.58188 2.6722 0
M  V30 13268 H 1272.13 0.452285 0.502408 0
M  V30 13269 H 1274.69 1.78571 1.01497 0
M  V30 13270 H 1272.92 1.51992 3.55577 0
M  V30 13271 H 1274.61 1.93866 3.5661 0
M  V30 13272 H 1275.37 4.1702 2.47628 0
M  V30 13273 H 1271.25 3.24194 3.27749 0
M  V30 13274 H 1274.79 6.56765 2.35172 0
M  V30 13275 H 1270.69 5.63088 3.15598 0
M  V30 13276 H 1271.46 7.68073 2.82853 0
M  V30 13277 N 1274.12 -1.03182 1.19127 0
M  V30 13278 C 1275.37 -1.76184 0.990134 0
M  V30 13279 C 1275.69 -1.88986 -0.480546 0
M  V30 13280 O 1274.96 -1.4213 -1.34817 0
M  V30 13281 H 1273.54 -0.652668 0.363364 0
M  V30 13282 H 1276.2 -1.24481 1.49968 0
M  V30 13283 H 1275.3 -2.77119 1.43568 0
M  V30 13284 N 1275.6 -0.99472 -1.22242 0
M  V30 13285 C 1276.85 -0.670275 -1.90661 0
M  V30 13286 C 1277.17 0.800369 -1.77818 0
M  V30 13287 O 1276.44 1.57381 -1.16653 0
M  V30 13288 H 1275.02 -0.244925 -0.705706 0
M  V30 13289 H 1277.68 -1.26162 -1.48557 0
M  V30 13290 H 1276.78 -0.934408 -2.97784 0
M  V30 13291 N 1277.08 1.37613 -0.768148 0
M  V30 13292 C 1278.33 1.99023 -0.327543 0
M  V30 13293 C 1278.64 1.61669 1.10103 0
M  V30 13294 O 1279.85 2.16155 1.64284 0
M  V30 13295 C 1278.3 3.55906 -0.534674 0
M  V30 13296 C 1277.91 4.02201 -1.97327 0
M  V30 13297 C 1279.65 4.24208 -0.157512 0
M  V30 13298 C 1277.56 5.51781 -2.12819 0
M  V30 13299 H 1276.49 0.744595 -0.118722 0
M  V30 13300 H 1279.14 1.5719 -0.946764 0
M  V30 13301 H 1277.52 3.95701 0.153951 0
M  V30 13302 H 1278.7 3.73661 -2.69655 0
M  V30 13303 H 1277.01 3.46671 -2.30669 0
M  V30 13304 H 1279.61 5.34107 -0.251824 0
M  V30 13305 H 1279.95 4.06636 0.89177 0
M  V30 13306 H 1280.49 3.89703 -0.798546 0
M  V30 13307 H 1277.23 5.74274 -3.16053 0
M  V30 13308 H 1276.75 5.82017 -1.4497 0
M  V30 13309 H 1278.42 6.17697 -1.92508 0
M  V30 13310 N 1278.56 0.518393 1.4883 0
M  V30 13311 C 1279.79 -0.0161765 2.06594 0
M  V30 13312 C 1280.19 -1.29771 1.37681 0
M  V30 13313 O 1279.54 -1.77991 0.454421 0
M  V30 13314 C 1279.6 -0.322505 3.5805 0
M  V30 13315 C 1279.26 0.863848 4.48761 0
M  V30 13316 C 1280.26 1.75912 4.89235 0
M  V30 13317 C 1277.95 1.06757 4.90824 0
M  V30 13318 C 1279.94 2.84211 5.70528 0
M  V30 13319 C 1277.63 2.15372 5.7189 0
M  V30 13320 C 1278.62 3.03932 6.11649 0
M  V30 13321 O 1278.31 4.1067 6.9109 0
M  V30 13322 H 1278.04 0.0251212 0.675533 0
M  V30 13323 H 1280.6 0.720052 1.92365 0
M  V30 13324 H 1278.83 -1.11256 3.7035 0
M  V30 13325 H 1280.52 -0.797764 3.97983 0
M  V30 13326 H 1281.28 1.61362 4.5737 0
M  V30 13327 H 1277.16 0.387566 4.59368 0
M  V30 13328 H 1280.71 3.53364 6.01481 0
M  V30 13329 H 1276.6 2.2991 6.03168 0
M  V30 13330 H 1277.37 4.08237 7.09426 0
M  V30 13331 N 1280.03 -1.55556 0.252993 0
M  V30 13332 C 1281.26 -2.03491 -0.374022 0
M  V30 13333 C 1281.68 -1.13208 -1.51094 0
M  V30 13334 O 1281.03 -0.147705 -1.81901 0
M  V30 13335 C 1281.09 -3.50724 -0.876047 0
M  V30 13336 O 1280.81 -4.37569 0.215574 0
M  V30 13337 C 1282.31 -4.14448 -1.57313 0
M  V30 13338 H 1279.53 -0.665183 -0.0881644 0
M  V30 13339 H 1282.07 -2.00964 0.378636 0
M  V30 13340 H 1280.23 -3.53766 -1.57886 0
M  V30 13341 H 1280.64 -5.24235 -0.166625 0
M  V30 13342 H 1282.11 -5.19142 -1.87606 0
M  V30 13343 H 1282.59 -3.61299 -2.49719 0
M  V30 13344 H 1283.2 -4.15346 -0.914735 0
M  V30 13345 N 1281.51 0.0200419 -1.57587 0
M  V30 13346 C 1282.74 0.724241 -1.94344 0
M  V30 13347 C 1283.16 1.67612 -0.853688 0
M  V30 13348 O 1282.52 1.80303 0.189873 0
M  V30 13349 C 1282.57 1.44967 -3.30177 0
M  V30 13350 O 1281.67 2.56326 -3.23064 0
M  V30 13351 H 1281.01 0.194142 -0.634984 0
M  V30 13352 H 1283.54 -0.0271756 -2.04582 0
M  V30 13353 H 1283.55 1.81758 -3.65278 0
M  V30 13354 H 1282.23 0.75161 -4.09052 0
M  V30 13355 H 1280.81 2.22011 -2.99609 0
M  V30 13356 N 1282.99 1.54862 0.292472 0
M  V30 13357 C 1283.94 1.87168 1.38097 0
M  V30 13358 C 1284.93 0.746176 1.52081 0
M  V30 13359 O 1286.14 0.930281 1.54097 0
M  V30 13360 H 1282.51 0.593769 0.461456 0
M  V30 13361 H 1284.48 2.78135 1.0809 0
M  V30 13362 C 1283.23 2.14315 2.73796 0
M  V30 13363 H 1282.56 3.00398 2.63821 0
M  V30 13364 H 1284 2.40853 3.48949 0
M  V30 13365 C 1282.46 0.944424 3.23392 0
M  V30 13366 O 1282.99 0.169208 4.01343 0
M  V30 13367 N 1281.19 0.747456 2.80823 0
M  V30 13368 H 1280.74 1.37953 2.17547 0
M  V30 13369 H 1280.7 -0.0530199 3.14355 0
M  V30 13370 N 1284.47 -0.556076 1.47464 0
M  V30 13371 C 1285.71 -1.31515 1.54375 0
M  V30 13372 C 1286.05 -1.93106 0.205837 0
M  V30 13373 O 1285.32 -1.77927 -0.785643 0
M  V30 13374 C 1285.61 -2.4244 2.66261 0
M  V30 13375 C 1285.46 -1.8571 4.09673 0
M  V30 13376 C 1286.78 -3.4436 2.74051 0
M  V30 13377 H 1283.9 -0.476817 0.561974 0
M  V30 13378 H 1286.54 -0.622157 1.79525 0
M  V30 13379 H 1284.69 -3.01551 2.44948 0
M  V30 13380 H 1286.36 -1.30851 4.42353 0
M  V30 13381 H 1284.6 -1.16379 4.17898 0
M  V30 13382 H 1285.27 -2.65904 4.83735 0
M  V30 13383 H 1287.75 -2.95169 2.93282 0
M  V30 13384 H 1286.63 -4.194 3.54111 0
M  V30 13385 H 1286.89 -4.03281 1.81155 0
M  V30 13386 N 1285.95 -1.35615 -0.802897 0
M  V30 13387 C 1286.89 -1.28839 -1.91492 0
M  V30 13388 C 1287.86 -0.159621 -1.65331 0
M  V30 13389 O 1289.05 -0.343931 -1.87675 0
M  V30 13390 C 1286.19 -1.06999 -3.28093 0
M  V30 13391 C 1285.3 -2.28831 -3.66416 0
M  V30 13392 C 1284.44 -2.00111 -4.92066 0
M  V30 13393 C 1283.48 -3.17977 -5.23027 0
M  V30 13394 N 1282.61 -2.89009 -6.39858 0
M  V30 13395 H 1287.45 -2.2393 -1.96619 0
M  V30 13396 H 1284.99 -1.1131 -0.961687 0
M  V30 13397 H 1286.95 -0.923673 -4.06847 0
M  V30 13398 H 1285.58 -0.155684 -3.22424 0
M  V30 13399 H 1284.63 -2.54314 -2.82893 0
M  V30 13400 H 1285.94 -3.1683 -3.85253 0
M  V30 13401 H 1285.1 -1.82331 -5.78654 0
M  V30 13402 H 1283.84 -1.09402 -4.75271 0
M  V30 13403 H 1282.84 -3.3633 -4.34928 0
M  V30 13404 H 1284.07 -4.09493 -5.41749 0
M  V30 13405 H 1282.01 -2.00898 -6.24481 0
M  V30 13406 H 1281.93 -3.70544 -6.58964 0
M  V30 13407 H 1283.2 -2.74779 -7.29463 0
M  V30 13408 N 1287.43 1.02549 -1.19673 0
M  V30 13409 C 1288.67 1.75408 -0.995732 0
M  V30 13410 C 1288.99 1.89773 0.473863 0
M  V30 13411 O 1290.19 2.59638 0.793762 0
M  V30 13412 C 1288.65 3.15444 -1.73273 0
M  V30 13413 C 1288.26 3.09121 -3.24266 0
M  V30 13414 C 1290 3.92575 -1.61509 0
M  V30 13415 C 1287.91 4.44109 -3.9054 0
M  V30 13416 H 1286.84 0.657569 -0.368944 0
M  V30 13417 H 1289.49 1.14739 -1.43203 0
M  V30 13418 H 1287.87 3.76601 -1.22425 0
M  V30 13419 H 1289.05 2.57325 -3.82257 0
M  V30 13420 H 1287.36 2.45485 -3.36342 0
M  V30 13421 H 1289.96 4.92428 -2.08372 0
M  V30 13422 H 1290.3 4.12382 -0.569804 0
M  V30 13423 H 1290.83 3.38027 -2.09721 0
M  V30 13424 H 1287.57 4.29506 -4.95182 0
M  V30 13425 H 1287.09 4.95947 -3.37337 0
M  V30 13426 H 1288.77 5.12982 -3.94282 0
M  V30 13427 N 1288.9 1.00119 1.21713 0
M  V30 13428 C 1289.84 0.503256 2.22582 0
M  V30 13429 C 1290.81 -0.440971 1.56506 0
M  V30 13430 O 1292 -0.364583 1.84941 0
M  V30 13431 C 1289.13 -0.269453 3.37626 0
M  V30 13432 C 1288.17 0.622002 4.2194 0
M  V30 13433 S 1289 2.08218 4.93361 0
M  V30 13434 C 1290.16 1.3192 6.1184 0
M  V30 13435 H 1290.39 1.35798 2.64474 0
M  V30 13436 H 1287.93 0.808819 1.3152 0
M  V30 13437 H 1289.88 -0.709213 4.04327 0
M  V30 13438 H 1288.55 -1.09955 2.94226 0
M  V30 13439 H 1287.74 0.0270176 5.03993 0
M  V30 13440 H 1287.34 0.998876 3.60414 0
M  V30 13441 H 1289.63 0.591116 6.74916 0
M  V30 13442 H 1290.58 2.1153 6.75767 0
M  V30 13443 H 1290.98 0.828844 5.58382 0
M  V30 13444 N 1290.38 -1.37203 0.775435 0
M  V30 13445 C 1291.33 -2.32102 0.152051 0
M  V30 13446 C 1292.32 -1.55117 -0.680806 0
M  V30 13447 O 1293.53 -1.70486 -0.577455 0
M  V30 13448 H 1289.9 -0.751386 0.0303853 0
M  V30 13449 H 1291.88 -2.82259 0.968121 0
M  V30 13450 C 1290.62 -3.40378 -0.709788 0
M  V30 13451 H 1289.95 -3.99723 -0.0782879 0
M  V30 13452 H 1291.39 -4.09134 -1.11288 0
M  V30 13453 C 1289.85 -2.80769 -1.862 0
M  V30 13454 O 1290.38 -2.71813 -2.95771 0
M  V30 13455 N 1288.58 -2.38259 -1.66376 0
M  V30 13456 H 1288.13 -2.45743 -0.772531 0
M  V30 13457 H 1288.09 -1.98721 -2.43634 0
M  V30 13458 N 1291.86 -0.526279 -1.48553 0
M  V30 13459 C 1293.09 0.00522012 -2.06599 0
M  V30 13460 C 1293.5 1.29039 -1.38368 0
M  V30 13461 O 1292.84 1.77747 -0.463854 0
M  V30 13462 C 1292.9 0.303512 -3.58216 0
M  V30 13463 C 1292.57 -0.887635 -4.48297 0
M  V30 13464 C 1293.56 -1.78504 -4.88295 0
M  V30 13465 C 1291.25 -1.09359 -4.90251 0
M  V30 13466 C 1293.24 -2.87233 -5.69013 0
M  V30 13467 C 1290.93 -2.18402 -5.7074 0
M  V30 13468 C 1291.93 -3.07172 -6.10028 0
M  V30 13469 O 1291.62 -4.14329 -6.88902 0
M  V30 13470 H 1291.35 -0.0287033 -0.67539 0
M  V30 13471 H 1293.9 -0.730244 -1.91981 0
M  V30 13472 H 1292.13 1.0929 -3.70935 0
M  V30 13473 H 1293.82 0.776647 -3.98401 0
M  V30 13474 H 1294.59 -1.63785 -4.56508 0
M  V30 13475 H 1290.47 -0.411922 -4.59156 0
M  V30 13476 H 1294.01 -3.56549 -5.99599 0
M  V30 13477 H 1289.91 -2.33106 -6.0194 0
M  V30 13478 H 1290.67 -4.11993 -7.07251 0
M  V30 13479 N 1293.34 1.5542 -0.261239 0
M  V30 13480 C 1294.29 2.18644 0.646442 0
M  V30 13481 C 1295.27 1.14672 1.12868 0
M  V30 13482 O 1296.46 1.40534 1.07606 0
M  V30 13483 C 1293.59 2.90045 1.83655 0
M  V30 13484 C 1292.68 4.01289 1.37214 0
M  V30 13485 N 1293.07 5.01949 0.622927 0
M  V30 13486 C 1291.37 4.14107 1.65625 0
M  V30 13487 C 1292.07 5.80454 0.380569 0
M  V30 13488 N 1291.04 5.35253 0.94897 0
M  V30 13489 H 1294.85 2.93826 0.0660348 0
M  V30 13490 H 1292.36 1.62273 -0.0641794 0
M  V30 13491 H 1294.36 3.33778 2.49796 0
M  V30 13492 H 1293.02 2.16369 2.42104 0
M  V30 13493 H 1294.03 5.17187 0.271619 0
M  V30 13494 H 1290.71 3.51613 2.2511 0
M  V30 13495 H 1292.1 6.71545 -0.218528 0
M  V30 13496 N 1294.82 -0.0116844 1.57596 0
M  V30 13497 C 1295.75 -1.00599 2.10718 0
M  V30 13498 C 1296.73 -1.36601 1.01362 0
M  V30 13499 O 1297.91 -1.4518 1.28982 0
M  V30 13500 C 1295.04 -2.30155 2.60089 0
M  V30 13501 C 1294 -2.08347 3.73866 0
M  V30 13502 C 1293.32 -3.43814 4.09507 0
M  V30 13503 C 1294.62 -1.45552 5.01609 0
M  V30 13504 H 1296.32 -0.563721 2.94045 0
M  V30 13505 H 1293.86 -0.269714 1.41452 0
M  V30 13506 H 1295.81 -3.00058 2.95877 0
M  V30 13507 H 1294.54 -2.76473 1.73868 0
M  V30 13508 H 1293.2 -1.40872 3.38453 0
M  V30 13509 H 1292.85 -3.87814 3.20326 0
M  V30 13510 H 1292.55 -3.30043 4.86154 0
M  V30 13511 H 1294.07 -4.15052 4.47844 0
M  V30 13512 H 1295.48 -2.05396 5.35243 0
M  V30 13513 H 1293.88 -1.42304 5.82983 0
M  V30 13514 H 1294.95 -0.423331 4.83049 0
M  V30 13515 N 1296.29 -1.55015 -0.284256 0
M  V30 13516 C 1297.23 -1.82031 -1.37623 0
M  V30 13517 C 1298.2 -0.672564 -1.48038 0
M  V30 13518 O 1299.39 -0.914349 -1.64839 0
M  V30 13519 C 1296.52 -1.97193 -2.75377 0
M  V30 13520 C 1295.56 -3.19699 -2.82303 0
M  V30 13521 S 1296.39 -4.77348 -2.42691 0
M  V30 13522 C 1297.55 -4.95468 -3.82442 0
M  V30 13523 H 1297.78 -2.74366 -1.14502 0
M  V30 13524 H 1295.32 -1.46642 -0.483283 0
M  V30 13525 H 1297.27 -2.06614 -3.54713 0
M  V30 13526 H 1295.94 -1.05766 -2.95757 0
M  V30 13527 H 1295.13 -3.27161 -3.83382 0
M  V30 13528 H 1294.73 -3.08811 -2.10978 0
M  V30 13529 H 1297.02 -4.80519 -4.77606 0
M  V30 13530 H 1297.97 -5.97538 -3.7994 0
M  V30 13531 H 1298.37 -4.23516 -3.73222 0
M  V30 13532 N 1297.77 0.548248 -1.47757 0
M  V30 13533 C 1299 1.3302 -1.58472 0
M  V30 13534 C 1299.41 1.87292 -0.238186 0
M  V30 13535 O 1298.77 1.65465 0.76991 0
M  V30 13536 C 1298.82 2.49386 -2.61704 0
M  V30 13537 O 1298.54 1.97355 -3.9113 0
M  V30 13538 C 1300.04 3.41471 -2.82688 0
M  V30 13539 H 1297.26 0.405172 -0.534861 0
M  V30 13540 H 1299.81 0.663251 -1.93446 0
M  V30 13541 H 1297.96 3.12001 -2.29639 0
M  V30 13542 H 1298.38 2.7339 -4.47614 0
M  V30 13543 H 1299.85 4.19516 -3.58762 0
M  V30 13544 H 1300.33 3.95573 -1.90837 0
M  V30 13545 H 1300.93 2.84664 -3.15985 0
M  V30 13546 N 1299.25 1.36039 0.795694 0
M  V30 13547 C 1300.66 1.2679 1.37044 0
M  V30 13548 C 1301.01 -0.0950192 1.9597 0
M  V30 13549 O 1300.14 -0.996311 1.921 0
M  V30 13550 C 1300.73 2.29585 2.49151 0
M  V30 13551 C 1299.29 2.24044 3.02458 0
M  V30 13552 C 1298.44 2.14703 1.75493 0
M  V30 13553 H 1301.39 1.47009 0.597843 0
M  V30 13554 H 1301.41 1.92864 3.27999 0
M  V30 13555 H 1300.92 3.28769 2.06234 0
M  V30 13556 H 1299.02 1.28307 3.49812 0
M  V30 13557 H 1299.14 3.1647 3.597 0
M  V30 13558 H 1297.5 1.60856 1.97478 0
M  V30 13559 H 1298.28 3.15765 1.34713 0
M  V30 13560 N 1300.73 -1.01913 1.20215 0
M  V30 13561 C 1301.64 -2.13864 0.964328 0
M  V30 13562 C 1302.65 -1.73821 -0.0789556 0
M  V30 13563 O 1303.83 -2.01111 0.107914 0
M  V30 13564 C 1300.9 -3.42827 0.516757 0
M  V30 13565 C 1299.96 -3.97127 1.63059 0
M  V30 13566 C 1299.19 -5.19935 1.20428 0
M  V30 13567 O 1299.41 -5.70355 0.0719119 0
M  V30 13568 O 1298.35 -5.67322 2.01071 0
M  V30 13569 H 1302.17 -2.36795 1.90162 0
M  V30 13570 H 1299.76 -1.1226 0.985803 0
M  V30 13571 H 1301.64 -4.20493 0.276272 0
M  V30 13572 H 1300.31 -3.21318 -0.391983 0
M  V30 13573 H 1299.22 -3.20752 1.92533 0
M  V30 13574 H 1300.55 -4.2302 2.51624 0
M  V30 13575 N 1302.21 -1.00763 -1.2118 0
M  V30 13576 C 1303.48 -0.607236 -1.85935 0
M  V30 13577 C 1303.86 0.915048 -1.90237 0
M  V30 13578 O 1303.21 1.80308 -1.40361 0
M  V30 13579 C 1303.42 -1.24466 -3.26051 0
M  V30 13580 C 1304.77 -1.35443 -4.02418 0
M  V30 13581 O 1305.79 -1.20018 -3.35372 0
M  V30 13582 O 1304.65 -1.60282 -5.22467 0
M  V30 13583 H 1301.75 -0.208338 -0.800328 0
M  V30 13584 H 1304.29 -1.10444 -1.28842 0
M  V30 13585 H 1303.06 -2.28524 -3.17635 0
M  V30 13586 H 1302.69 -0.733966 -3.90767 0
M  V30 13587 N 1303.68 1.3679 -0.7827 0
M  V30 13588 C 1304.63 2.27508 -0.149734 0
M  V30 13589 C 1305.62 1.46634 0.662368 0
M  V30 13590 O 1306.81 1.6908 0.523544 0
M  V30 13591 C 1303.94 3.35666 0.719939 0
M  V30 13592 C 1303.03 4.23981 -0.100588 0
M  V30 13593 N 1303.42 4.92513 -1.15173 0
M  V30 13594 C 1301.71 4.45834 0.121653 0
M  V30 13595 C 1302.42 5.57788 -1.65067 0
M  V30 13596 N 1301.39 5.35038 -0.96101 0
M  V30 13597 H 1305.19 2.77973 -0.954365 0
M  V30 13598 H 1302.71 1.50037 -0.62151 0
M  V30 13599 H 1304.7 3.99578 1.18926 0
M  V30 13600 H 1303.36 2.86756 1.52319 0
M  V30 13601 H 1304.38 4.94658 -1.53406 0
M  V30 13602 H 1301.05 4.07773 0.895945 0
M  V30 13603 H 1302.44 6.22534 -2.52787 0
M  V30 13604 N 1305.16 0.53415 1.48272 0
M  V30 13605 C 1306.11 -0.246268 2.26666 0
M  V30 13606 C 1307.1 -0.906149 1.32958 0
M  V30 13607 O 1308.29 -0.808266 1.57468 0
M  V30 13608 C 1305.42 -1.29001 3.18141 0
M  V30 13609 C 1304.5 -0.634704 4.19324 0
M  V30 13610 N 1304.89 0.281972 5.05013 0
M  V30 13611 C 1303.19 -0.891412 4.37001 0
M  V30 13612 C 1303.89 0.660411 5.77939 0
M  V30 13613 N 1302.87 0.0205295 5.43596 0
M  V30 13614 H 1306.67 0.458881 2.90296 0
M  V30 13615 H 1304.19 0.352466 1.58529 0
M  V30 13616 H 1306.18 -1.86285 3.72966 0
M  V30 13617 H 1304.84 -1.99649 2.56067 0
M  V30 13618 H 1305.85 0.654819 5.13744 0
M  V30 13619 H 1302.53 -1.58815 3.86114 0
M  V30 13620 H 1303.92 1.41231 6.56889 0
M  V30 13621 N 1306.64 -1.55279 0.269478 0
M  V30 13622 C 1307.59 -2.23723 -0.636468 0
M  V30 13623 C 1308.58 -1.23234 -1.16232 0
M  V30 13624 O 1309.79 -1.41181 -1.1166 0
M  V30 13625 H 1306.16 -0.71793 -0.223788 0
M  V30 13626 H 1308.13 -2.98378 -0.0363057 0
M  V30 13627 C 1306.88 -2.96755 -1.81195 0
M  V30 13628 H 1306.21 -3.73865 -1.4165 0
M  V30 13629 H 1307.65 -3.47975 -2.42258 0
M  V30 13630 C 1306.11 -2.01905 -2.69696 0
M  V30 13631 O 1306.64 -1.56662 -3.69892 0
M  V30 13632 N 1304.84 -1.68524 -2.36744 0
M  V30 13633 H 1304.39 -2.05512 -1.55314 0
M  V30 13634 H 1304.35 -1.05331 -2.96231 0
M  V30 13635 N 1308.12 0.00332656 -1.576 0
M  V30 13636 C 1309.05 0.994803 -2.11248 0
M  V30 13637 C 1310.03 1.36061 -1.02085 0
M  V30 13638 O 1311.21 1.44494 -1.2975 0
M  V30 13639 C 1308.34 2.28772 -2.61306 0
M  V30 13640 C 1307.3 2.06362 -3.74965 0
M  V30 13641 C 1306.62 3.41638 -4.11324 0
M  V30 13642 C 1307.92 1.4289 -5.02374 0
M  V30 13643 H 1309.62 0.548119 -2.9434 0
M  V30 13644 H 1307.16 0.262208 -1.41593 0
M  V30 13645 H 1309.12 2.98485 -2.97464 0
M  V30 13646 H 1307.84 2.75547 -1.75332 0
M  V30 13647 H 1306.5 1.39076 -3.39195 0
M  V30 13648 H 1306.15 3.8611 -3.22379 0
M  V30 13649 H 1305.85 3.2746 -4.87897 0
M  V30 13650 H 1307.37 4.12671 -4.50039 0
M  V30 13651 H 1308.79 2.02555 -5.36325 0
M  V30 13652 H 1307.18 1.3921 -5.8373 0
M  V30 13653 H 1308.25 0.397708 -4.83266 0
M  V30 13654 N 1309.6 1.55164 0.276031 0
M  V30 13655 C 1310.85 1.74833 1.0058 0
M  V30 13656 C 1311.16 0.555089 1.87558 0
M  V30 13657 O 1312.36 0.634127 2.63991 0
M  V30 13658 C 1310.82 3.09417 1.83818 0
M  V30 13659 C 1310.43 4.36299 1.01721 0
M  V30 13660 C 1312.17 3.38437 2.56244 0
M  V30 13661 C 1310.08 5.61923 1.8438 0
M  V30 13662 H 1309.01 0.651676 0.379254 0
M  V30 13663 H 1311.66 1.81626 0.26161 0
M  V30 13664 H 1310.04 2.96654 2.62321 0
M  V30 13665 H 1311.22 4.59969 0.276565 0
M  V30 13666 H 1309.53 4.144 0.407645 0
M  V30 13667 H 1312.13 4.29501 3.18485 0
M  V30 13668 H 1312.47 2.58432 3.26372 0
M  V30 13669 H 1313 3.52284 1.84773 0
M  V30 13670 H 1309.74 6.44667 1.18679 0
M  V30 13671 H 1309.26 5.424 2.56051 0
M  V30 13672 H 1310.94 6.0011 2.4182 0
M  V30 13673 N 1311.07 -0.540404 1.48045 0
M  V30 13674 C 1312.04 -1.62813 1.61322 0
M  V30 13675 C 1313.04 -1.53243 0.487161 0
M  V30 13676 O 1314.23 -1.571 0.752684 0
M  V30 13677 C 1311.36 -3.02408 1.5736 0
M  V30 13678 H 1312.55 -1.52385 2.583 0
M  V30 13679 H 1310.11 -0.761654 1.36486 0
M  V30 13680 H 1310.84 -3.18353 0.618195 0
M  V30 13681 H 1310.63 -3.10763 2.39099 0
M  V30 13682 H 1312.12 -3.8151 1.69822 0
M  V30 13683 N 1312.55 -1.36459 -0.788468 0
M  V30 13684 C 1313.96 -1.27515 -1.3637 0
M  V30 13685 C 1314.31 0.0846251 -1.96017 0
M  V30 13686 O 1313.44 0.98611 -1.92626 0
M  V30 13687 C 1314.03 -2.30903 -2.4793 0
M  V30 13688 C 1312.59 -2.25645 -3.01266 0
M  V30 13689 C 1311.74 -2.15631 -1.74352 0
M  V30 13690 H 1314.69 -1.47324 -0.590039 0
M  V30 13691 H 1314.71 -1.94601 -3.26972 0
M  V30 13692 H 1314.22 -3.29858 -2.04487 0
M  V30 13693 H 1312.33 -1.3016 -3.49126 0
M  V30 13694 H 1312.44 -3.18373 -3.58016 0
M  V30 13695 H 1310.8 -1.61901 -1.96622 0
M  V30 13696 H 1311.59 -3.16475 -1.33036 0
M  V30 13697 N 1314.03 1.01274 -1.20754 0
M  V30 13698 C 1315.26 1.78265 -1.04427 0
M  V30 13699 C 1315.67 1.84718 0.409361 0
M  V30 13700 O 1315.01 1.30195 1.29595 0
M  V30 13701 C 1315.07 3.24037 -1.55693 0
M  V30 13702 C 1314.74 3.41181 -3.04047 0
M  V30 13703 C 1315.73 3.30087 -4.0167 0
M  V30 13704 C 1313.42 3.66872 -3.43089 0
M  V30 13705 C 1315.41 3.44436 -5.36323 0
M  V30 13706 C 1313.1 3.80865 -4.77896 0
M  V30 13707 C 1314.1 3.69652 -5.74322 0
M  V30 13708 O 1313.79 3.83211 -7.06686 0
M  V30 13709 H 1313.52 0.567327 -0.367582 0
M  V30 13710 H 1316.07 1.28336 -1.60372 0
M  V30 13711 H 1314.3 3.75067 -0.941382 0
M  V30 13712 H 1315.99 3.82676 -1.35328 0
M  V30 13713 H 1316.76 3.10172 -3.72852 0
M  V30 13714 H 1312.64 3.74685 -2.68574 0
M  V30 13715 H 1316.18 3.35601 -6.1157 0
M  V30 13716 H 1312.08 4.00282 -5.06403 0
M  V30 13717 H 1312.85 4.00205 -7.13987 0
M  V30 13718 N 1315.51 1.01404 1.20644 0
M  V30 13719 C 1316.92 0.73386 1.71672 0
M  V30 13720 C 1317.27 -0.747803 1.8139 0
M  V30 13721 O 1316.4 -1.58372 1.47469 0
M  V30 13722 C 1316.99 1.32549 3.11795 0
M  V30 13723 C 1315.55 1.09423 3.60144 0
M  V30 13724 C 1314.7 1.43275 2.37419 0
M  V30 13725 H 1317.65 1.18383 1.05694 0
M  V30 13726 H 1317.67 0.714749 3.73727 0
M  V30 13727 H 1317.18 2.40386 3.0469 0
M  V30 13728 H 1315.28 0.0334113 3.72585 0
M  V30 13729 H 1315.4 1.77248 4.45107 0
M  V30 13730 H 1313.76 0.851714 2.40037 0
M  V30 13731 H 1314.54 2.52163 2.32957 0
M  V30 13732 N 1316.99 -1.36373 0.789944 0
M  V30 13733 C 1317.94 -2.31928 0.17666 0
M  V30 13734 C 1318.93 -1.55831 -0.664316 0
M  V30 13735 O 1320.14 -1.71089 -0.559341 0
M  V30 13736 H 1316.51 -0.751021 0.038353 0
M  V30 13737 H 1318.48 -2.81216 0.998004 0
M  V30 13738 C 1317.23 -3.41112 -0.673646 0
M  V30 13739 H 1316.55 -3.99784 -0.0358875 0
M  V30 13740 H 1317.99 -4.10292 -1.06942 0
M  V30 13741 C 1316.45 -2.82728 -1.83211 0
M  V30 13742 O 1316.98 -2.74935 -2.92871 0
M  V30 13743 N 1315.19 -2.4001 -1.6384 0
M  V30 13744 H 1314.74 -2.46549 -0.746423 0
M  V30 13745 H 1314.69 -2.01294 -2.41512 0
M  V30 13746 N 1318.47 -0.542005 -1.47987 0
M  V30 13747 C 1319.88 -0.200691 -1.58333 0
M  V30 13748 C 1320.08 1.29643 -1.54256 0
M  V30 13749 O 1319.14 2.07556 -1.43794 0
M  V30 13750 C 1320.45 -0.813878 -2.89476 0
M  V30 13751 C 1322 -0.783711 -3.0303 0
M  V30 13752 C 1322.47 -1.37569 -4.36851 0
M  V30 13753 N 1323.96 -1.33819 -4.43449 0
M  V30 13754 C 1324.7 -1.76602 -5.45527 0
M  V30 13755 N 1324.2 -2.27169 -6.54497 0
M  V30 13756 N 1325.99 -1.67765 -5.3648 0
M  V30 13757 H 1318.14 -1.51488 -1.4888 0
M  V30 13758 H 1320.4 -0.630835 -0.707638 0
M  V30 13759 H 1320.11 -1.86544 -2.98151 0
M  V30 13760 H 1319.98 -0.297978 -3.76021 0
M  V30 13761 H 1322.37 0.259118 -2.9396 0
M  V30 13762 H 1322.45 -1.33721 -2.18065 0
M  V30 13763 H 1322.09 -2.41751 -4.46675 0
M  V30 13764 H 1322.02 -0.797769 -5.20522 0
M  V30 13765 H 1324.52 -0.968147 -3.65288 0
M  V30 13766 H 1324.83 -2.57777 -7.2854 0
M  V30 13767 H 1323.17 -2.31171 -6.55427 0
M  V30 13768 H 1326.36 -1.28048 -4.50246 0
M  V30 13769 H 1326.54 -2.01426 -6.15899 0
M  V30 13770 N 1319.94 1.55134 -0.277709 0
M  V30 13771 C 1321.22 1.91667 0.390253 0
M  V30 13772 C 1321.6 1.20228 1.73518 0
M  V30 13773 O 1320.95 0.330013 2.26104 0
M  V30 13774 C 1321.16 3.44983 0.52797 0
M  V30 13775 C 1322.51 4.16809 0.809665 0
M  V30 13776 O 1323.53 3.50891 0.612679 0
M  V30 13777 O 1322.39 5.33463 1.18656 0
M  V30 13778 H 1319.48 0.798807 0.214095 0
M  V30 13779 H 1322.03 1.66577 -0.324053 0
M  V30 13780 H 1320.8 3.89056 -0.418422 0
M  V30 13781 H 1320.42 3.76035 1.29164 0
M  V30 13782 N 1321.42 0.00503138 1.57599 0
M  V30 13783 C 1322.35 -0.983586 2.11773 0
M  V30 13784 C 1323.33 -1.35518 1.02805 0
M  V30 13785 O 1324.52 -1.43804 1.30514 0
M  V30 13786 C 1321.65 -2.27383 2.62515 0
M  V30 13787 C 1320.6 -2.0437 3.76054 0
M  V30 13788 C 1319.93 -3.39451 4.1313 0
M  V30 13789 C 1321.23 -1.40223 5.03125 0
M  V30 13790 H 1322.92 -0.532501 2.94627 0
M  V30 13791 H 1320.47 -0.254696 1.4173 0
M  V30 13792 H 1322.42 -2.96903 2.99043 0
M  V30 13793 H 1321.14 -2.74614 1.7679 0
M  V30 13794 H 1319.8 -1.37275 3.39928 0
M  V30 13795 H 1319.45 -3.84395 3.24422 0
M  V30 13796 H 1319.15 -3.24868 4.89627 0
M  V30 13797 H 1320.68 -4.10279 4.52221 0
M  V30 13798 H 1322.09 -1.99708 5.37392 0
M  V30 13799 H 1320.49 -1.36112 5.8446 0
M  V30 13800 H 1321.56 -0.372073 4.8347 0
M  V30 13801 N 1322.9 -1.55308 -0.267798 0
M  V30 13802 C 1323.86 -1.87765 -1.31442 0
M  V30 13803 C 1324.86 -0.752571 -1.42102 0
M  V30 13804 O 1326.05 -1.02072 -1.41163 0
M  V30 13805 C 1323.18 -2.08754 -2.69508 0
M  V30 13806 H 1324.38 -2.8133 -1.03891 0
M  V30 13807 H 1321.93 -1.47879 -0.506111 0
M  V30 13808 H 1322.67 -1.17588 -3.02231 0
M  V30 13809 H 1322.45 -2.90674 -2.63156 0
M  V30 13810 H 1323.94 -2.3512 -3.4512 0
M  V30 13811 N 1324.38 0.532545 -1.4833 0
M  V30 13812 C 1325.63 1.28498 -1.55471 0
M  V30 13813 C 1325.94 1.94214 -0.232412 0
M  V30 13814 O 1327.15 2.70889 -0.182044 0
M  V30 13815 C 1325.6 2.33144 -2.74175 0
M  V30 13816 C 1325.21 1.73508 -4.13036 0
M  V30 13817 C 1326.95 3.09413 -2.90627 0
M  V30 13818 C 1324.86 2.76079 -5.23005 0
M  V30 13819 H 1323.79 0.483253 -0.578777 0
M  V30 13820 H 1326.44 0.562744 -1.74658 0
M  V30 13821 H 1324.82 3.08391 -2.48417 0
M  V30 13822 H 1326 1.04466 -4.48802 0
M  V30 13823 H 1324.31 1.0974 -4.01679 0
M  V30 13824 H 1326.91 3.86056 -3.69953 0
M  V30 13825 H 1327.25 3.65118 -1.99987 0
M  V30 13826 H 1327.79 2.4128 -3.16274 0
M  V30 13827 H 1324.52 2.25197 -6.15602 0
M  V30 13828 H 1324.04 3.43456 -4.9173 0
M  V30 13829 H 1325.72 3.39113 -5.51009 0
M  V30 13830 N 1325.86 1.36875 0.78122 0
M  V30 13831 C 1327.1 1.31754 1.54171 0
M  V30 13832 C 1327.43 -0.100632 1.93939 0
M  V30 13833 O 1326.71 -1.05587 1.63345 0
M  V30 13834 C 1326.99 2.24789 2.81322 0
M  V30 13835 C 1326.85 3.75342 2.47868 0
M  V30 13836 C 1328.16 2.16442 3.83198 0
M  V30 13837 H 1325.28 0.479931 0.559317 0
M  V30 13838 H 1327.93 1.67497 0.896935 0
M  V30 13839 H 1326.08 1.94438 3.36342 0
M  V30 13840 H 1327.75 4.16247 1.98836 0
M  V30 13841 H 1325.99 3.94375 1.80696 0
M  V30 13842 H 1326.66 4.3586 3.38719 0
M  V30 13843 H 1329.14 2.43175 3.37647 0
M  V30 13844 H 1328.01 2.83695 4.69903 0
M  V30 13845 H 1328.27 1.15431 4.26765 0
M  V30 13846 N 1327.33 -1.00632 1.21289 0
M  V30 13847 C 1328.56 -1.78503 1.05601 0
M  V30 13848 C 1328.98 -1.84015 -0.389879 0
M  V30 13849 O 1328.34 -1.28277 -1.2812 0
M  V30 13850 C 1328.39 -3.20313 1.65626 0
M  V30 13851 O 1327.49 -4.02441 0.900841 0
M  V30 13852 H 1326.83 -0.550183 0.371746 0
M  V30 13853 H 1329.36 -1.26505 1.60803 0
M  V30 13854 H 1329.37 -3.70992 1.69792 0
M  V30 13855 H 1328.05 -3.15616 2.7085 0
M  V30 13856 H 1326.63 -3.61009 0.934178 0
M  V30 13857 N 1328.81 -1.02043 -1.20104 0
M  V30 13858 C 1330.04 -0.731315 -1.93544 0
M  V30 13859 C 1330.45 0.708582 -1.74999 0
M  V30 13860 O 1329.81 1.481 -1.06642 0
M  V30 13861 C 1329.86 -1.06233 -3.45538 0
M  V30 13862 O 1329.58 -2.44568 -3.63481 0
M  V30 13863 C 1331.08 -0.794818 -4.36116 0
M  V30 13864 H 1328.3 -0.268248 -0.615048 0
M  V30 13865 H 1330.85 -1.36264 -1.52488 0
M  V30 13866 H 1329 -0.476341 -3.8446 0
M  V30 13867 H 1329.42 -2.5663 -4.57429 0
M  V30 13868 H 1330.89 -1.07647 -5.41402 0
M  V30 13869 H 1331.37 0.270944 -4.38363 0
M  V30 13870 H 1331.97 -1.36314 -4.02863 0
M  V30 13871 N 1330.29 1.35952 -0.797165 0
M  V30 13872 C 1331.54 1.98639 -0.372405 0
M  V30 13873 C 1331.86 1.63571 1.06158 0
M  V30 13874 O 1331.13 0.913516 1.73297 0
M  V30 13875 H 1329.71 0.734753 -0.13471 0
M  V30 13876 H 1332.37 1.66022 -1.02092 0
M  V30 13877 H 1331.47 3.08533 -0.47049 0
M  V30 13878 N 1331.77 0.549846 1.47697 0
M  V30 13879 C 1333.02 0.0230048 2.02087 0
M  V30 13880 C 1333.34 -1.32865 1.4273 0
M  V30 13881 O 1332.61 -1.86492 0.59981 0
M  V30 13882 H 1331.19 0.00551514 0.74698 0
M  V30 13883 H 1333.85 0.718185 1.81185 0
M  V30 13884 H 1332.95 -0.0705813 3.1202 0
M  V30 13885 N 1333.25 -1.54984 0.285932 0
M  V30 13886 C 1334.2 -2.19645 -0.611576 0
M  V30 13887 C 1335.18 -1.16453 -1.11029 0
M  V30 13888 O 1336.37 -1.42228 -1.05357 0
M  V30 13889 C 1333.5 -2.9293 -1.79017 0
M  V30 13890 C 1332.59 -4.03421 -1.30813 0
M  V30 13891 N 1332.98 -5.02877 -0.542993 0
M  V30 13892 C 1331.28 -4.16689 -1.59016 0
M  V30 13893 C 1331.98 -5.80986 -0.288176 0
M  V30 13894 N 1330.95 -5.36695 -0.863695 0
M  V30 13895 H 1334.76 -2.93894 -0.0192813 0
M  V30 13896 H 1332.27 -1.6215 0.0899876 0
M  V30 13897 H 1334.27 -3.37709 -2.44454 0
M  V30 13898 H 1332.93 -2.20194 -2.38631 0
M  V30 13899 H 1333.94 -5.17554 -0.189305 0
M  V30 13900 H 1330.61 -3.5515 -2.19488 0
M  V30 13901 H 1332 -6.71112 0.325337 0
M  V30 13902 N 1334.72 -0.0133892 -1.57594 0
M  V30 13903 C 1335.97 0.667313 -1.90765 0
M  V30 13904 C 1336.29 1.73564 -0.888847 0
M  V30 13905 O 1335.56 1.95768 0.0718946 0
M  V30 13906 H 1334.14 0.24947 -0.704112 0
M  V30 13907 H 1336.81 -0.0574789 -1.94815 0
M  V30 13908 H 1335.9 1.13007 -2.90922 0
M  V30 13909 N 1336.2 1.55448 0.259558 0
M  V30 13910 C 1337.17 1.88459 1.30445 0
M  V30 13911 C 1338.17 0.760096 1.41701 0
M  V30 13912 O 1339.36 1.02819 1.4062 0
M  V30 13913 C 1336.49 2.10181 2.68397 0
M  V30 13914 H 1337.68 2.81877 1.02398 0
M  V30 13915 H 1335.23 1.48145 0.498262 0
M  V30 13916 H 1335.97 1.19189 3.01603 0
M  V30 13917 H 1335.75 2.92066 2.6161 0
M  V30 13918 H 1337.24 2.36947 3.43869 0
M  V30 13919 N 1337.68 -0.524672 1.4861 0
M  V30 13920 C 1338.59 -1.65554 1.6622 0
M  V30 13921 C 1339.61 -1.65254 0.54471 0
M  V30 13922 O 1340.78 -1.84109 0.816454 0
M  V30 13923 C 1337.85 -3.02003 1.7028 0
M  V30 13924 C 1336.91 -3.13116 2.93695 0
M  V30 13925 C 1336.14 -4.43055 2.97553 0
M  V30 13926 O 1336.36 -5.30468 2.09667 0
M  V30 13927 O 1335.3 -4.58646 3.89779 0
M  V30 13928 H 1339.12 -1.53633 2.61974 0
M  V30 13929 H 1336.71 -0.698354 1.32073 0
M  V30 13930 H 1338.59 -3.83143 1.75441 0
M  V30 13931 H 1337.27 -3.14236 0.777002 0
M  V30 13932 H 1336.17 -2.31251 2.94064 0
M  V30 13933 H 1337.51 -3.058 3.85677 0
M  V30 13934 N 1339.16 -1.37287 -0.77395 0
M  V30 13935 C 1340.39 -1.35563 -1.56302 0
M  V30 13936 C 1340.8 0.0595356 -1.88706 0
M  V30 13937 O 1340.16 1.02072 -1.51286 0
M  V30 13938 C 1340.21 -2.19195 -2.87464 0
M  V30 13939 O 1339.93 -3.55197 -2.5645 0
M  V30 13940 C 1341.43 -2.25425 -3.81704 0
M  V30 13941 H 1338.65 -0.464431 -0.484298 0
M  V30 13942 H 1341.2 -1.80597 -0.959425 0
M  V30 13943 H 1339.35 -1.77676 -3.44253 0
M  V30 13944 H 1339.76 -3.99011 -3.40427 0
M  V30 13945 H 1341.24 -2.8827 -4.70749 0
M  V30 13946 H 1341.72 -1.26205 -4.20677 0
M  V30 13947 H 1342.32 -2.67247 -3.30846 0
M  V30 13948 N 1340.64 0.999871 -1.21821 0
M  V30 13949 C 1341.89 1.73257 -1.03271 0
M  V30 13950 C 1342.2 1.90736 0.433502 0
M  V30 13951 O 1343.4 2.61263 0.738511 0
M  V30 13952 C 1341.86 3.11697 -1.79925 0
M  V30 13953 C 1341.47 3.02173 -3.3075 0
M  V30 13954 C 1343.21 3.89061 -1.698 0
M  V30 13955 C 1341.12 4.35725 -3.99872 0
M  V30 13956 H 1340.05 0.649595 -0.382809 0
M  V30 13957 H 1342.7 1.11676 -1.45605 0
M  V30 13958 H 1341.08 3.73919 -1.30386 0
M  V30 13959 H 1342.26 2.49158 -3.8763 0
M  V30 13960 H 1340.57 2.38296 -3.41473 0
M  V30 13961 H 1343.17 4.87897 -2.1877 0
M  V30 13962 H 1343.51 4.11081 -0.657148 0
M  V30 13963 H 1344.04 3.33502 -2.16844 0
M  V30 13964 H 1340.78 4.18906 -5.04181 0
M  V30 13965 H 1340.3 4.8868 -3.47781 0
M  V30 13966 H 1341.98 5.04503 -4.05075 0
M  V30 13967 N 1342.11 1.02678 1.19562 0
M  V30 13968 C 1343.53 0.752027 1.70884 0
M  V30 13969 C 1343.88 -0.728523 1.82173 0
M  V30 13970 O 1343 -1.56799 1.49141 0
M  V30 13971 C 1343.6 1.35848 3.10372 0
M  V30 13972 C 1342.16 1.13236 3.58963 0
M  V30 13973 C 1341.3 1.45785 2.35886 0
M  V30 13974 H 1344.25 1.19497 1.04432 0
M  V30 13975 H 1344.27 0.754347 3.72948 0
M  V30 13976 H 1343.79 2.43604 3.02124 0
M  V30 13977 H 1341.89 0.0729271 3.72529 0
M  V30 13978 H 1342 1.81959 4.43202 0
M  V30 13979 H 1340.36 0.877125 2.3912 0
M  V30 13980 H 1341.15 2.54619 2.30269 0
M  V30 13981 N 1343.59 -1.35528 0.804364 0
M  V30 13982 C 1344.54 -2.27241 0.18591 0
M  V30 13983 C 1345.53 -1.47669 -0.638956 0
M  V30 13984 O 1346.72 -1.69891 -0.496578 0
M  V30 13985 C 1343.85 -3.36769 -0.666446 0
M  V30 13986 C 1342.93 -4.23767 0.168027 0
M  V30 13987 N 1343.32 -4.90618 1.22994 0
M  V30 13988 C 1341.62 -4.45971 -0.0507088 0
M  V30 13989 C 1342.32 -5.55092 1.7392 0
M  V30 13990 N 1341.3 -5.33441 1.04601 0
M  V30 13991 H 1345.1 -2.7642 0.998467 0
M  V30 13992 H 1342.62 -1.49029 0.645301 0
M  V30 13993 H 1344.61 -4.01419 -1.12554 0
M  V30 13994 H 1343.27 -2.89143 -1.47738 0
M  V30 13995 H 1344.28 -4.92155 1.61256 0
M  V30 13996 H 1340.96 -4.09147 -0.830958 0
M  V30 13997 H 1342.35 -6.18434 2.62659 0
M  V30 13998 N 1345.07 -0.557671 -1.47404 0
M  V30 13999 C 1346.31 -0.0361491 -2.04368 0
M  V30 14000 C 1346.68 1.2894 -1.42262 0
M  V30 14001 O 1347.88 1.89864 -1.90276 0
M  V30 14002 C 1346.15 0.0547287 -3.57358 0
M  V30 14003 S 1347.71 0.522307 -4.3568 0
M  V30 14004 H 1344.52 -0.0253676 -0.710547 0
M  V30 14005 H 1347.13 -0.744509 -1.80769 0
M  V30 14006 H 1345.83 -0.914374 -4.00084 0
M  V30 14007 H 1345.36 0.786629 -3.85455 0
M  V30 14008 H 1347.38 1.7819 -4.63101 0
M  V30 14009 N 1346.55 1.54831 -0.294147 0
M  V30 14010 C 1347.5 2.24707 0.600795 0
M  V30 14011 C 1348.49 1.25067 1.14257 0
M  V30 14012 O 1349.7 1.42939 1.094 0
M  V30 14013 H 1346.07 0.721399 0.212338 0
M  V30 14014 H 1348.04 2.98398 -0.0111682 0
M  V30 14015 C 1346.79 2.996 1.76451 0
M  V30 14016 H 1346.12 3.76072 1.35684 0
M  V30 14017 H 1347.56 3.51785 2.36692 0
M  V30 14018 C 1346.01 2.0617 2.6645 0
M  V30 14019 O 1346.54 1.62527 3.67353 0
M  V30 14020 N 1344.75 1.7227 2.34033 0
M  V30 14021 H 1344.3 2.07957 1.52025 0
M  V30 14022 H 1344.26 1.10031 2.94518 0
M  V30 14023 N 1348.03 0.0217466 1.57585 0
M  V30 14024 C 1349.27 -0.662733 1.93358 0
M  V30 14025 C 1349.63 -1.69715 0.897829 0
M  V30 14026 O 1350.83 -2.43358 1.14151 0
M  V30 14027 C 1349.1 -1.26973 3.34085 0
M  V30 14028 S 1350.66 -1.97631 3.91775 0
M  V30 14029 H 1347.48 -0.218386 0.67663 0
M  V30 14030 H 1350.08 0.0836466 1.95321 0
M  V30 14031 H 1348.79 -0.504339 4.07289 0
M  V30 14032 H 1348.32 -2.05357 3.35547 0
M  V30 14033 H 1350.33 -3.25393 3.74612 0
M  V30 14034 N 1349.51 -1.55583 -0.251311 0
M  V30 14035 C 1350.73 -1.81259 -0.997636 0
M  V30 14036 C 1351.15 -0.596861 -1.79117 0
M  V30 14037 O 1350.51 0.434425 -1.77254 0
M  V30 14038 C 1350.56 -3.05097 -1.93902 0
M  V30 14039 O 1350.28 -4.21976 -1.1776 0
M  V30 14040 C 1351.78 -3.4354 -2.8017 0
M  V30 14041 H 1349 -0.603279 -0.29376 0
M  V30 14042 H 1351.54 -2.02635 -0.27553 0
M  V30 14043 H 1349.7 -2.85784 -2.61546 0
M  V30 14044 H 1350.11 -4.92133 -1.81398 0
M  V30 14045 H 1351.59 -4.33305 -3.41981 0
M  V30 14046 H 1352.06 -2.63924 -3.51057 0
M  V30 14047 H 1352.67 -3.65189 -2.17985 0
M  V30 14048 N 1350.98 0.516783 -1.48886 0
M  V30 14049 C 1352.21 1.30103 -1.61518 0
M  V30 14050 C 1352.63 1.85996 -0.28055 0
M  V30 14051 O 1351.99 1.65075 0.749671 0
M  V30 14052 C 1352.04 2.41837 -2.67483 0
M  V30 14053 O 1351.14 3.45249 -2.25559 0
M  V30 14054 H 1350.48 0.384774 -0.541152 0
M  V30 14055 H 1353.01 0.620424 -1.94966 0
M  V30 14056 H 1353.02 2.87832 -2.89165 0
M  V30 14057 H 1351.7 2.00519 -3.64369 0
M  V30 14058 H 1350.28 3.05281 -2.14144 0
M  V30 14059 N 1352.46 1.37696 0.766659 0
M  V30 14060 C 1353.71 1.32922 1.52237 0
M  V30 14061 C 1354.03 -0.0842833 1.94818 0
M  V30 14062 O 1353.3 -1.02934 1.66677 0
M  V30 14063 H 1351.88 0.489049 0.564659 0
M  V30 14064 H 1354.54 1.72238 0.912142 0
M  V30 14065 H 1353.64 1.97158 2.4194 0
M  V30 14066 N 1353.94 -0.993397 1.22349 0
M  V30 14067 C 1355.19 -1.73544 1.04931 0
M  V30 14068 C 1355.52 -1.89721 -0.414661 0
M  V30 14069 O 1354.79 -1.44001 -1.30743 0
M  V30 14070 C 1355.08 -3.14131 1.7605 0
M  V30 14071 C 1354.93 -3.05604 3.30039 0
M  V30 14072 C 1356.25 -4.13294 1.51249 0
M  V30 14073 H 1353.37 -0.629915 0.382591 0
M  V30 14074 H 1356.01 -1.15737 1.50682 0
M  V30 14075 H 1354.16 -3.63483 1.37157 0
M  V30 14076 H 1355.83 -2.63876 3.78374 0
M  V30 14077 H 1354.07 -2.42421 3.59742 0
M  V30 14078 H 1354.75 -4.05086 3.74979 0
M  V30 14079 H 1357.22 -3.72696 1.85033 0
M  V30 14080 H 1356.1 -5.09781 2.03507 0
M  V30 14081 H 1356.36 -4.39855 0.444973 0
M  V30 14082 N 1355.42 -1.03311 -1.19015 0
M  V30 14083 C 1356.65 -0.750712 -1.92478 0
M  V30 14084 C 1357.06 0.694964 -1.75974 0
M  V30 14085 O 1356.4 1.4847 -1.08177 0
M  V30 14086 C 1356.46 -1.02757 -3.44501 0
M  V30 14087 C 1356.12 -2.46565 -3.84779 0
M  V30 14088 C 1357.12 -3.44716 -3.89187 0
M  V30 14089 C 1354.81 -2.81076 -4.16295 0
M  V30 14090 C 1356.8 -4.75433 -4.24549 0
M  V30 14091 C 1354.49 -4.12002 -4.51329 0
M  V30 14092 C 1355.49 -5.08991 -4.55431 0
M  V30 14093 O 1355.17 -6.37571 -4.89652 0
M  V30 14094 H 1354.91 -0.273717 -0.618106 0
M  V30 14095 H 1357.46 -1.38176 -1.51975 0
M  V30 14096 H 1355.69 -0.339383 -3.85208 0
M  V30 14097 H 1357.38 -0.734175 -3.99205 0
M  V30 14098 H 1358.14 -3.19392 -3.64985 0
M  V30 14099 H 1354.02 -2.0626 -4.12284 0
M  V30 14100 H 1357.57 -5.51133 -4.27666 0
M  V30 14101 H 1353.46 -4.37098 -4.7499 0
M  V30 14102 H 1354.23 -6.42107 -5.07583 0
M  V30 14103 N 1356.9 1.35099 -0.81154 0
M  V30 14104 C 1358.13 2.02566 -0.406265 0
M  V30 14105 C 1358.53 1.61291 0.989032 0
M  V30 14106 O 1357.88 0.808496 1.64952 0
M  V30 14107 C 1357.94 3.57087 -0.415847 0
M  V30 14108 C 1357.6 4.21645 -1.76251 0
M  V30 14109 C 1358.6 4.42974 -2.72159 0
M  V30 14110 C 1356.28 4.58658 -2.04787 0
M  V30 14111 C 1358.28 5.00425 -3.94783 0
M  V30 14112 C 1355.97 5.15822 -3.27674 0
M  V30 14113 C 1356.96 5.36648 -4.2249 0
M  V30 14114 O 1356.65 5.92606 -5.43207 0
M  V30 14115 H 1356.38 0.65615 -0.162612 0
M  V30 14116 H 1358.94 1.73596 -1.09789 0
M  V30 14117 H 1357.17 3.85269 0.332409 0
M  V30 14118 H 1358.86 4.05887 -0.0322011 0
M  V30 14119 H 1359.62 4.14753 -2.51405 0
M  V30 14120 H 1355.5 4.41759 -1.31795 0
M  V30 14121 H 1359.05 5.16596 -4.68801 0
M  V30 14122 H 1354.94 5.4347 -3.48296 0
M  V30 14123 H 1355.71 6.11052 -5.44571 0
M  V30 14124 N 1358.37 0.56548 1.47106 0
M  V30 14125 C 1359.6 0.0476763 2.07345 0
M  V30 14126 C 1360.02 -1.24032 1.41413 0
M  V30 14127 O 1359.38 -1.74498 0.491941 0
M  V30 14128 C 1359.43 -0.122618 3.60391 0
M  V30 14129 O 1358.53 -1.18326 3.9506 0
M  V30 14130 H 1357.87 0.0550419 0.661715 0
M  V30 14131 H 1360.4 0.78352 1.89003 0
M  V30 14132 H 1360.41 -0.334227 4.06629 0
M  V30 14133 H 1359.09 0.81807 4.07775 0
M  V30 14134 H 1357.67 -0.951481 3.60557 0
M  V30 14135 N 1359.85 -1.54672 0.302354 0
M  V30 14136 C 1361.08 -2.04578 -0.309093 0
M  V30 14137 C 1361.5 -1.17957 -1.47416 0
M  V30 14138 O 1360.85 -0.2055 -1.81339 0
M  V30 14139 C 1360.9 -3.53334 -0.764023 0
M  V30 14140 O 1360.62 -4.36662 0.354674 0
M  V30 14141 C 1362.13 -4.19243 -1.44048 0
M  V30 14142 H 1359.35 -0.667651 -0.0669575 0
M  V30 14143 H 1361.89 -1.99658 0.442379 0
M  V30 14144 H 1360.04 -3.5861 -1.46552 0
M  V30 14145 H 1360.46 -5.245 0.000241188 0
M  V30 14146 H 1361.93 -5.24847 -1.70995 0
M  V30 14147 H 1362.41 -3.69061 -2.38098 0
M  V30 14148 H 1363.02 -4.18046 -0.782132 0
M  V30 14149 N 1361.33 -0.0301034 -1.57571 0
M  V30 14150 C 1362.56 0.657533 -1.95857 0
M  V30 14151 C 1362.97 1.66138 -0.905244 0
M  V30 14152 O 1362.31 1.83299 0.12134 0
M  V30 14153 C 1362.37 1.41946 -3.3029 0
M  V30 14154 C 1362.04 0.573834 -4.53383 0
M  V30 14155 C 1363.03 -0.151282 -5.1968 0
M  V30 14156 C 1360.72 0.510947 -4.99695 0
M  V30 14157 C 1362.71 -0.927947 -6.30609 0
M  V30 14158 C 1360.4 -0.269422 -6.10506 0
M  V30 14159 C 1361.4 -0.987575 -6.75822 0
M  V30 14160 O 1361.09 -1.75515 -7.84506 0
M  V30 14161 H 1360.82 0.1861 -0.649879 0
M  V30 14162 H 1363.37 -0.0864526 -2.05218 0
M  V30 14163 H 1361.6 2.20861 -3.17423 0
M  V30 14164 H 1363.29 1.9953 -3.53472 0
M  V30 14165 H 1364.06 -0.112036 -4.84871 0
M  V30 14166 H 1359.94 1.05949 -4.4866 0
M  V30 14167 H 1363.48 -1.48901 -6.81524 0
M  V30 14168 H 1359.38 -0.310381 -6.44753 0
M  V30 14169 H 1360.15 -1.67503 -8.01177 0
M  V30 14170 N 1362.81 1.55714 0.243056 0
M  V30 14171 C 1364.04 1.81522 0.986577 0
M  V30 14172 C 1364.45 0.604051 1.79298 0
M  V30 14173 O 1363.79 -0.43674 1.78433 0
M  V30 14174 C 1363.85 3.0074 1.96967 0
M  V30 14175 C 1363.52 4.3661 1.34983 0
M  V30 14176 C 1364.51 5.14456 0.7504 0
M  V30 14177 C 1362.2 4.83311 1.36805 0
M  V30 14178 C 1364.19 6.37153 0.177438 0
M  V30 14179 C 1361.88 6.05956 0.791233 0
M  V30 14180 C 1362.88 6.82716 0.196959 0
M  V30 14181 O 1362.56 8.03044 -0.370938 0
M  V30 14182 H 1362.3 0.607864 0.295765 0
M  V30 14183 H 1364.85 2.03617 0.270018 0
M  V30 14184 H 1363.08 2.74409 2.72464 0
M  V30 14185 H 1364.77 3.13606 2.57694 0
M  V30 14186 H 1365.54 4.79493 0.728809 0
M  V30 14187 H 1361.41 4.23553 1.81999 0
M  V30 14188 H 1364.96 6.97009 -0.287042 0
M  V30 14189 H 1360.86 6.40396 0.810164 0
M  V30 14190 H 1361.62 8.18077 -0.263173 0
M  V30 14191 N 1364.29 -0.50888 1.49158 0
M  V30 14192 C 1365.7 -0.839353 1.35746 0
M  V30 14193 C 1365.9 -1.97797 0.38453 0
M  V30 14194 O 1364.96 -2.51809 -0.186651 0
M  V30 14195 C 1366.27 -1.18698 2.76281 0
M  V30 14196 C 1367.82 -1.29565 2.84924 0
M  V30 14197 C 1368.29 -1.67661 4.26209 0
M  V30 14198 N 1369.79 -1.74725 4.28982 0
M  V30 14199 C 1370.52 -2.05631 5.3526 0
M  V30 14200 N 1370.02 -2.34814 6.51793 0
M  V30 14201 N 1371.81 -2.06815 5.2267 0
M  V30 14202 H 1363.96 0.242065 2.11016 0
M  V30 14203 H 1366.22 0.0456901 0.946898 0
M  V30 14204 H 1365.93 -0.423769 3.49138 0
M  V30 14205 H 1365.8 -2.13227 3.11149 0
M  V30 14206 H 1368.19 -2.0496 2.1231 0
M  V30 14207 H 1368.27 -0.331059 2.53649 0
M  V30 14208 H 1367.92 -0.928198 4.99346 0
M  V30 14209 H 1367.85 -2.65207 4.54943 0
M  V30 14210 H 1370.34 -1.54364 3.44935 0
M  V30 14211 H 1370.65 -2.57562 7.28616 0
M  V30 14212 H 1368.99 -2.32288 6.55032 0
M  V30 14213 H 1372.19 -1.83487 4.30639 0
M  V30 14214 H 1372.36 -2.30568 6.05593 0
M  V30 14215 N 1365.76 -1.381 -0.759346 0
M  V30 14216 C 1366.71 -1.34866 -1.87296 0
M  V30 14217 C 1367.68 -0.212139 -1.6474 0
M  V30 14218 O 1368.87 -0.403464 -1.86485 0
M  V30 14219 C 1366.01 -1.17383 -3.24523 0
M  V30 14220 C 1365.12 -2.40372 -3.5895 0
M  V30 14221 C 1364.25 -2.15665 -4.8545 0
M  V30 14222 C 1363.29 -3.34455 -5.12646 0
M  V30 14223 N 1362.43 -3.0922 -6.30339 0
M  V30 14224 H 1367.27 -2.30072 -1.89396 0
M  V30 14225 H 1364.81 -1.14314 -0.925788 0
M  V30 14226 H 1366.77 -1.05264 -4.03702 0
M  V30 14227 H 1365.4 -0.258182 -3.21766 0
M  V30 14228 H 1364.45 -2.63185 -2.74659 0
M  V30 14229 H 1365.76 -3.28926 -3.74978 0
M  V30 14230 H 1364.91 -2.00649 -5.7256 0
M  V30 14231 H 1363.65 -1.24467 -4.7155 0
M  V30 14232 H 1362.66 -3.49997 -4.24007 0
M  V30 14233 H 1363.88 -4.26521 -5.28448 0
M  V30 14234 H 1361.83 -2.20664 -6.17773 0
M  V30 14235 H 1361.75 -3.91321 -6.46841 0
M  V30 14236 H 1363.01 -2.97847 -7.20352 0
M  V30 14237 N 1367.24 0.986894 -1.22875 0
M  V30 14238 C 1368.47 1.7601 -1.08185 0
M  V30 14239 C 1368.88 1.85545 0.370088 0
M  V30 14240 O 1368.22 1.32915 1.26804 0
M  V30 14241 C 1368.29 3.20661 -1.62532 0
M  V30 14242 C 1367.95 3.34655 -3.11216 0
M  V30 14243 C 1368.95 3.21493 -4.08581 0
M  V30 14244 C 1366.63 3.59512 -3.50794 0
M  V30 14245 C 1368.63 3.32983 -5.43508 0
M  V30 14246 C 1366.31 3.70642 -4.85868 0
M  V30 14247 C 1367.31 3.57387 -5.82034 0
M  V30 14248 O 1367 3.68135 -7.14655 0
M  V30 14249 H 1366.73 0.559402 -0.379533 0
M  V30 14250 H 1369.28 1.24905 -1.63058 0
M  V30 14251 H 1367.51 3.72985 -1.02073 0
M  V30 14252 H 1369.2 3.7972 -1.43415 0
M  V30 14253 H 1369.97 3.02193 -3.79347 0
M  V30 14254 H 1365.85 3.68904 -2.76461 0
M  V30 14255 H 1369.39 3.22553 -6.18551 0
M  V30 14256 H 1365.29 3.89451 -5.1478 0
M  V30 14257 H 1366.06 3.84971 -7.22316 0
M  V30 14258 N 1368.72 1.0394 1.18466 0
M  V30 14259 C 1369.95 0.760909 1.92077 0
M  V30 14260 C 1370.36 -0.685622 1.7634 0
M  V30 14261 O 1369.7 -1.47894 1.08963 0
M  V30 14262 C 1369.76 1.04583 3.43952 0
M  V30 14263 C 1369.43 2.48602 3.83466 0
M  V30 14264 C 1370.42 3.46775 3.87354 0
M  V30 14265 C 1368.11 2.8328 4.14798 0
M  V30 14266 C 1370.1 4.77678 4.22022 0
M  V30 14267 C 1367.79 4.1439 4.49138 0
M  V30 14268 C 1368.79 5.11399 4.52725 0
M  V30 14269 O 1368.48 6.40159 4.86264 0
M  V30 14270 H 1368.21 0.276991 0.616646 0
M  V30 14271 H 1370.76 1.3898 1.5124 0
M  V30 14272 H 1368.99 0.359807 3.85022 0
M  V30 14273 H 1370.68 0.755336 3.9881 0
M  V30 14274 H 1371.45 3.21323 3.63286 0
M  V30 14275 H 1367.33 2.08444 4.11184 0
M  V30 14276 H 1370.87 5.53393 4.24737 0
M  V30 14277 H 1366.77 4.39611 4.72666 0
M  V30 14278 H 1367.54 6.4479 5.04171 0
M  V30 14279 N 1370.2 -1.34667 0.818693 0
M  V30 14280 C 1371.61 -1.80839 0.46414 0
M  V30 14281 C 1371.96 -1.67902 -1.01506 0
M  V30 14282 O 1371.09 -1.21658 -1.78964 0
M  V30 14283 C 1371.68 -3.28331 0.835698 0
M  V30 14284 C 1370.24 -3.72599 0.533575 0
M  V30 14285 C 1369.39 -2.56452 1.05487 0
M  V30 14286 H 1372.34 -1.22474 1.00925 0
M  V30 14287 H 1372.36 -3.8025 0.13785 0
M  V30 14288 H 1371.87 -3.37715 1.91233 0
M  V30 14289 H 1369.97 -3.68756 -0.533819 0
M  V30 14290 H 1370.08 -4.66891 1.07468 0
M  V30 14291 H 1368.45 -2.50201 0.476612 0
M  V30 14292 H 1369.23 -2.68608 2.13786 0
M  V30 14293 N 1371.68 -0.573274 -1.46804 0
M  V30 14294 C 1372.93 -0.0530267 -2.0163 0
M  V30 14295 C 1373.24 1.31124 -1.45141 0
M  V30 14296 O 1374.44 1.92231 -1.91728 0
M  V30 14297 C 1372.9 -0.0442411 -3.59873 0
M  V30 14298 C 1372.51 -1.40625 -4.25357 0
M  V30 14299 C 1374.25 0.422556 -4.22392 0
M  V30 14300 C 1372.16 -1.3557 -5.75652 0
M  V30 14301 H 1371.09 -0.0160537 -0.753829 0
M  V30 14302 H 1373.74 -0.723518 -1.68634 0
M  V30 14303 H 1372.12 0.692225 -3.89903 0
M  V30 14304 H 1373.3 -2.1617 -4.06949 0
M  V30 14305 H 1371.61 -1.81229 -3.74893 0
M  V30 14306 H 1374.21 0.479021 -5.3255 0
M  V30 14307 H 1374.55 1.43806 -3.90673 0
M  V30 14308 H 1375.08 -0.259551 -3.96952 0
M  V30 14309 H 1371.82 -2.34772 -6.12015 0
M  V30 14310 H 1371.34 -0.642309 -5.96351 0
M  V30 14311 H 1373.02 -1.06458 -6.38182 0
M  V30 14312 N 1373.15 1.5451 -0.310553 0
M  V30 14313 C 1374.4 1.99505 0.296731 0
M  V30 14314 C 1374.72 1.20257 1.54265 0
M  V30 14315 O 1375.92 1.55566 2.22512 0
M  V30 14316 C 1374.38 3.55208 0.579251 0
M  V30 14317 C 1373.99 4.43276 -0.648874 0
M  V30 14318 C 1375.73 4.08705 1.1472 0
M  V30 14319 C 1373.64 5.90428 -0.338978 0
M  V30 14320 H 1372.57 0.745232 0.114652 0
M  V30 14321 H 1375.22 1.78611 -0.420749 0
M  V30 14322 H 1373.6 3.72039 1.35658 0
M  V30 14323 H 1374.77 4.3822 -1.42478 0
M  V30 14324 H 1373.09 4.00601 -1.13613 0
M  V30 14325 H 1375.69 5.16223 1.39346 0
M  V30 14326 H 1376.03 3.59889 2.09249 0
M  V30 14327 H 1376.56 3.95454 0.431363 0
M  V30 14328 H 1373.3 6.43411 -1.25309 0
M  V30 14329 H 1372.82 5.98468 0.399475 0
M  V30 14330 H 1374.5 6.46976 0.0559696 0
M  V30 14331 N 1374.63 0.0384594 1.57553 0
M  V30 14332 C 1375.87 -0.642187 1.9405 0
M  V30 14333 C 1376.24 -1.68753 0.915779 0
M  V30 14334 O 1377.44 -2.42133 1.16726 0
M  V30 14335 C 1375.71 -1.23422 3.35413 0
M  V30 14336 S 1377.27 -1.93464 3.93849 0
M  V30 14337 H 1374.09 -0.211198 0.678908 0
M  V30 14338 H 1376.69 0.104358 1.95221 0
M  V30 14339 H 1375.39 -0.461112 4.07801 0
M  V30 14340 H 1374.92 -2.01787 3.37707 0
M  V30 14341 H 1376.94 -3.21401 3.78042 0
M  V30 14342 N 1376.11 -1.55841 -0.234795 0
M  V30 14343 C 1377.02 -1.94476 -1.31211 0
M  V30 14344 C 1378.04 -0.846782 -1.52005 0
M  V30 14345 O 1379.21 -1.14922 -1.65393 0
M  V30 14346 C 1376.28 -2.24213 -2.64442 0
M  V30 14347 C 1375.34 -3.47508 -2.52065 0
M  V30 14348 C 1374.57 -3.75817 -3.78942 0
M  V30 14349 O 1374.8 -3.06007 -4.81369 0
M  V30 14350 O 1373.73 -4.69328 -3.76848 0
M  V30 14351 H 1377.56 -2.8626 -1.01434 0
M  V30 14352 H 1375.14 -1.42879 -0.436563 0
M  V30 14353 H 1377.02 -2.44594 -3.4315 0
M  V30 14354 H 1375.7 -1.35605 -2.93927 0
M  V30 14355 H 1374.6 -3.32421 -1.71602 0
M  V30 14356 H 1375.94 -4.36457 -2.27523 0
M  V30 14357 N 1377.59 0.500963 -1.49426 0
M  V30 14358 C 1378.54 1.6025 -1.66098 0
M  V30 14359 C 1379.51 1.58318 -0.502453 0
M  V30 14360 O 1380.69 1.76304 -0.729482 0
M  V30 14361 C 1377.83 2.98396 -1.73361 0
M  V30 14362 C 1376.94 3.10343 -3.00518 0
M  V30 14363 C 1376.08 4.39222 -2.9876 0
M  V30 14364 C 1375.12 4.44803 -4.20496 0
M  V30 14365 N 1374.26 5.6511 -4.16648 0
M  V30 14366 H 1379.1 1.45342 -2.60153 0
M  V30 14367 H 1376.63 0.707147 -1.28988 0
M  V30 14368 H 1378.59 3.78467 -1.75553 0
M  V30 14369 H 1377.22 3.12007 -0.827718 0
M  V30 14370 H 1376.27 2.23336 -3.07937 0
M  V30 14371 H 1377.58 3.10327 -3.90511 0
M  V30 14372 H 1376.74 5.27613 -2.99515 0
M  V30 14373 H 1375.48 4.41804 -2.06545 0
M  V30 14374 H 1374.48 3.54814 -4.19985 0
M  V30 14375 H 1375.71 4.43937 -5.13903 0
M  V30 14376 H 1373.65 5.68533 -3.2727 0
M  V30 14377 H 1373.57 5.6671 -5.00376 0
M  V30 14378 H 1374.84 6.55708 -4.21506 0
M  V30 14379 N 1379.07 1.38501 0.752011 0
M  V30 14380 C 1380.48 1.31086 1.32941 0
M  V30 14381 C 1380.83 -0.0326248 1.96173 0
M  V30 14382 O 1379.95 -0.934692 1.95173 0
M  V30 14383 C 1380.55 2.37395 2.41721 0
M  V30 14384 C 1379.11 2.33553 2.95177 0
M  V30 14385 C 1378.26 2.20178 1.68573 0
M  V30 14386 H 1381.21 1.48836 0.550771 0
M  V30 14387 H 1381.23 2.03202 3.21697 0
M  V30 14388 H 1380.74 3.35164 1.9567 0
M  V30 14389 H 1378.84 1.39371 3.45553 0
M  V30 14390 H 1378.95 3.27753 3.49449 0
M  V30 14391 H 1377.32 1.67057 1.9226 0
M  V30 14392 H 1378.1 3.19891 1.24599 0
M  V30 14393 N 1380.55 -0.980364 1.23396 0
M  V30 14394 C 1381.77 -1.75689 1.09275 0
M  V30 14395 C 1382.19 -1.85418 -0.355773 0
M  V30 14396 O 1381.55 -1.33337 -1.24609 0
M  V30 14397 C 1381.6 -3.18378 1.71223 0
M  V30 14398 O 1381.32 -3.09154 3.10411 0
M  V30 14399 C 1382.82 -4.12425 1.62545 0
M  V30 14400 H 1380.04 -0.551354 0.382427 0
M  V30 14401 H 1382.58 -1.23169 1.63247 0
M  V30 14402 H 1380.74 -3.67925 1.21285 0
M  V30 14403 H 1381.15 -3.9898 3.40464 0
M  V30 14404 H 1382.63 -5.1025 2.10592 0
M  V30 14405 H 1383.1 -4.35296 0.584275 0
M  V30 14406 H 1383.71 -3.68782 2.1185 0
M  V30 14407 N 1382.02 -1.04567 -1.17913 0
M  V30 14408 C 1382.97 -0.634939 -2.23766 0
M  V30 14409 C 1383.97 0.340723 -1.65938 0
M  V30 14410 O 1385.17 0.207467 -1.788 0
M  V30 14411 H 1381.55 -0.187129 -0.728345 0
M  V30 14412 H 1383.52 -1.53798 -2.55712 0
M  V30 14413 C 1382.27 -0.0190662 -3.47695 0
M  V30 14414 H 1381.59 -0.760881 -3.92493 0
M  V30 14415 H 1383.03 0.231035 -4.2337 0
M  V30 14416 C 1381.49 1.23246 -3.13548 0
M  V30 14417 O 1382.02 2.32262 -3.27746 0
M  V30 14418 N 1380.22 1.12768 -2.67828 0
M  V30 14419 H 1379.77 0.240547 -2.56474 0
M  V30 14420 H 1379.73 1.96594 -2.45353 0
M  V30 14421 N 1383.5 1.34231 -0.825823 0
M  V30 14422 C 1384.75 1.97454 -0.411661 0
M  V30 14423 C 1385.06 1.66193 1.03147 0
M  V30 14424 O 1386.27 2.22929 1.54968 0
M  V30 14425 C 1384.73 3.53318 -0.685145 0
M  V30 14426 C 1384.33 3.9347 -2.14208 0
M  V30 14427 C 1386.08 4.23158 -0.337291 0
M  V30 14428 C 1383.98 5.42258 -2.3603 0
M  V30 14429 H 1382.91 0.738889 -0.150196 0
M  V30 14430 H 1385.57 1.53033 -1.01258 0
M  V30 14431 H 1383.95 3.95998 -0.0140178 0
M  V30 14432 H 1385.12 3.61888 -2.85261 0
M  V30 14433 H 1383.44 3.36575 -2.45165 0
M  V30 14434 H 1386.03 5.32558 -0.47813 0
M  V30 14435 H 1386.38 4.10053 0.718499 0
M  V30 14436 H 1386.91 3.85965 -0.963113 0
M  V30 14437 H 1383.65 5.60352 -3.40126 0
M  V30 14438 H 1383.17 5.75345 -1.69524 0
M  V30 14439 H 1384.85 6.08976 -2.18533 0
M  V30 14440 N 1384.98 0.581051 1.46498 0
M  V30 14441 C 1386.23 0.07442 2.03264 0
M  V30 14442 C 1386.58 -1.27069 1.44469 0
M  V30 14443 O 1385.87 -1.8197 0.599785 0
M  V30 14444 C 1386.07 -0.0514774 3.57363 0
M  V30 14445 C 1385.9 1.27988 4.31102 0
M  V30 14446 C 1384.67 1.85358 4.70075 0
M  V30 14447 C 1386.86 2.20268 4.64743 0
M  V30 14448 N 1384.85 3.1225 5.28558 0
M  V30 14449 C 1386.22 3.31746 5.23779 0
M  V30 14450 C 1388.27 2.19969 4.46675 0
M  V30 14451 C 1386.98 4.43056 5.66652 0
M  V30 14452 C 1389 3.30307 4.90562 0
M  V30 14453 C 1388.36 4.40505 5.49667 0
M  V30 14454 H 1384.46 0.0699705 0.778863 0
M  V30 14455 H 1387.05 0.773585 1.78672 0
M  V30 14456 H 1385.22 -0.719807 3.81672 0
M  V30 14457 H 1386.95 -0.562342 4.00774 0
M  V30 14458 H 1383.7 1.3887 4.52782 0
M  V30 14459 H 1384.13 3.76992 5.62322 0
M  V30 14460 H 1388.77 1.36044 4.00315 0
M  V30 14461 H 1386.49 5.27724 6.11991 0
M  V30 14462 H 1390.07 3.31191 4.78334 0
M  V30 14463 H 1388.95 5.24475 5.83006 0
M  V30 14464 N 1386.46 -1.54343 0.318742 0
M  V30 14465 C 1387.71 -1.9966 -0.286146 0
M  V30 14466 C 1388.02 -1.21073 -1.53625 0
M  V30 14467 O 1389.23 -1.56744 -2.21684 0
M  V30 14468 C 1387.68 -3.5551 -0.560405 0
M  V30 14469 C 1387.29 -4.42926 0.672373 0
M  V30 14470 C 1389.03 -4.09307 -1.12551 0
M  V30 14471 C 1386.94 -5.9024 0.370285 0
M  V30 14472 H 1385.87 -0.74583 -0.110698 0
M  V30 14473 H 1388.52 -1.78386 0.430215 0
M  V30 14474 H 1386.9 -3.72753 -1.33683 0
M  V30 14475 H 1388.08 -4.37458 1.448 0
M  V30 14476 H 1386.39 -3.99993 1.15736 0
M  V30 14477 H 1388.99 -5.16955 -1.36607 0
M  V30 14478 H 1389.33 -3.60994 -2.07338 0
M  V30 14479 H 1389.87 -3.95677 -0.410385 0
M  V30 14480 H 1386.6 -6.42738 1.28719 0
M  V30 14481 H 1386.12 -5.98672 -0.367731 0
M  V30 14482 H 1387.8 -6.46996 -0.0216582 0
M  V30 14483 N 1387.94 -0.0468143 -1.5753 0
M  V30 14484 C 1388.85 0.944362 -2.14753 0
M  V30 14485 C 1389.86 1.34473 -1.10422 0
M  V30 14486 O 1391.04 1.42254 -1.42569 0
M  V30 14487 C 1388.1 2.2023 -2.67768 0
M  V30 14488 C 1387.16 1.8607 -3.8688 0
M  V30 14489 C 1386.4 3.05867 -4.37357 0
M  V30 14490 O 1386.62 4.19099 -3.86927 0
M  V30 14491 O 1385.55 2.87134 -5.28997 0
M  V30 14492 H 1389.38 0.48772 -2.99758 0
M  V30 14493 H 1386.96 0.174831 -1.48374 0
M  V30 14494 H 1388.85 2.94044 -3.01855 0
M  V30 14495 H 1387.52 2.65041 -1.85836 0
M  V30 14496 H 1386.43 1.09586 -3.5769 0
M  V30 14497 H 1387.76 1.46062 -4.70028 0
M  V30 14498 N 1389.41 1.55964 0.226527 0
M  V30 14499 C 1390.66 1.78392 0.94977 0
M  V30 14500 C 1390.98 0.614444 1.85066 0
M  V30 14501 O 1390.25 -0.368894 1.92395 0
M  V30 14502 H 1388.83 0.657962 0.353688 0
M  V30 14503 H 1391.5 1.93422 0.239577 0
M  V30 14504 H 1390.59 2.70343 1.55952 0
M  V30 14505 N 1390.89 -0.493031 1.4969 0
M  V30 14506 C 1391.84 -1.61449 1.67442 0
M  V30 14507 C 1392.83 -1.60553 0.540296 0
M  V30 14508 O 1394.04 -1.64965 0.720167 0
M  V30 14509 H 1390.42 -0.535337 0.528127 0
M  V30 14510 H 1392.39 -1.43631 2.61558 0
M  V30 14511 C 1391.14 -2.99537 1.76559 0
M  V30 14512 H 1390.46 -3.00936 2.63206 0
M  V30 14513 H 1391.9 -3.77521 1.93013 0
M  V30 14514 C 1390.36 -3.32984 0.512176 0
M  V30 14515 O 1390.89 -4.00096 -0.35857 0
M  V30 14516 N 1389.09 -2.882 0.372734 0
M  V30 14517 H 1388.64 -2.3376 1.08232 0
M  V30 14518 H 1388.6 -3.10945 -0.464804 0
M  V30 14519 N 1392.37 -1.38898 -0.744656 0
M  V30 14520 C 1393.78 -1.31789 -1.32244 0
M  V30 14521 C 1394.13 0.0222208 -1.96187 0
M  V30 14522 O 1393.26 0.924328 -1.95666 0
M  V30 14523 C 1393.85 -2.38674 -2.40458 0
M  V30 14524 C 1392.41 -2.35116 -2.93935 0
M  V30 14525 C 1391.56 -2.21069 -1.67403 0
M  V30 14526 H 1394.51 -1.49126 -0.54287 0
M  V30 14527 H 1394.53 -2.04905 -3.20615 0
M  V30 14528 H 1394.04 -3.36197 -1.9389 0
M  V30 14529 H 1392.14 -1.41201 -3.44809 0
M  V30 14530 H 1392.26 -3.29602 -3.47706 0
M  V30 14531 H 1390.62 -1.68074 -1.91372 0
M  V30 14532 H 1391.4 -3.20547 -1.229 0
M  V30 14533 N 1393.85 0.973806 -1.23914 0
M  V30 14534 C 1395.08 1.74853 -1.10046 0
M  V30 14535 C 1395.49 1.85927 0.350388 0
M  V30 14536 O 1394.83 1.34252 1.25388 0
M  V30 14537 C 1394.89 3.18919 -1.65924 0
M  V30 14538 C 1394.56 3.31335 -3.14748 0
M  V30 14539 C 1395.55 3.17141 -4.11968 0
M  V30 14540 C 1393.24 3.55772 -3.54587 0
M  V30 14541 C 1395.23 3.27199 -5.47009 0
M  V30 14542 C 1392.92 3.65468 -4.89771 0
M  V30 14543 C 1393.92 3.51193 -5.85792 0
M  V30 14544 O 1393.6 3.60534 -7.18519 0
M  V30 14545 H 1393.34 0.555345 -0.385445 0
M  V30 14546 H 1395.89 1.23168 -1.64374 0
M  V30 14547 H 1394.12 3.71882 -1.06023 0
M  V30 14548 H 1395.81 3.78177 -1.47434 0
M  V30 14549 H 1396.58 2.98153 -3.82531 0
M  V30 14550 H 1392.45 3.65951 -2.80358 0
M  V30 14551 H 1396 3.15974 -6.21937 0
M  V30 14552 H 1391.9 3.83969 -5.18882 0
M  V30 14553 H 1392.66 3.77288 -7.26358 0
M  V30 14554 N 1395.33 1.05191 1.17357 0
M  V30 14555 C 1396.56 0.781238 1.9126 0
M  V30 14556 C 1396.96 -0.66688 1.77057 0
M  V30 14557 O 1396.31 -1.4673 1.10526 0
M  V30 14558 C 1396.37 1.08225 3.42823 0
M  V30 14559 C 1396.03 2.52655 3.80808 0
M  V30 14560 C 1397.03 3.50864 3.83654 0
M  V30 14561 C 1394.72 2.87664 4.11771 0
M  V30 14562 C 1396.71 4.82127 4.16932 0
M  V30 14563 C 1394.4 4.1913 4.44717 0
M  V30 14564 C 1395.39 5.16172 4.47276 0
M  V30 14565 O 1395.08 6.4528 4.79447 0
M  V30 14566 H 1394.81 0.283516 0.613673 0
M  V30 14567 H 1397.37 1.40577 1.49758 0
M  V30 14568 H 1395.6 0.400623 3.84619 0
M  V30 14569 H 1397.29 0.797593 3.97987 0
M  V30 14570 H 1398.05 3.25158 3.59857 0
M  V30 14571 H 1393.93 2.12793 4.0895 0
M  V30 14572 H 1397.48 5.57867 4.18844 0
M  V30 14573 H 1393.37 4.44599 4.67976 0
M  V30 14574 H 1394.14 6.50101 4.97304 0
M  V30 14575 N 1396.8 -1.33791 0.83293 0
M  V30 14576 C 1398.22 -1.80336 0.483294 0
M  V30 14577 C 1398.57 -1.68969 -0.997195 0
M  V30 14578 O 1397.69 -1.23549 -1.77664 0
M  V30 14579 C 1398.29 -3.27427 0.870475 0
M  V30 14580 C 1396.85 -3.72012 0.573064 0
M  V30 14581 C 1395.99 -2.55319 1.08201 0
M  V30 14582 H 1398.94 -1.21396 1.02218 0
M  V30 14583 H 1398.96 -3.80083 0.178173 0
M  V30 14584 H 1398.48 -3.35668 1.94804 0
M  V30 14585 H 1396.58 -3.69302 -0.494678 0
M  V30 14586 H 1396.69 -4.65725 1.12414 0
M  V30 14587 H 1395.05 -2.49681 0.503123 0
M  V30 14588 H 1395.84 -2.66326 2.16623 0
M  V30 14589 N 1398.28 -0.588812 -1.46187 0
M  V30 14590 C 1399.51 -0.0806571 -2.07243 0
M  V30 14591 C 1399.93 1.21766 -1.43369 0
M  V30 14592 O 1399.29 1.73694 -0.51964 0
M  V30 14593 C 1399.34 0.065267 -3.60541 0
M  V30 14594 O 1398.44 1.12026 -3.96893 0
M  V30 14595 H 1397.78 -0.0655622 -0.660755 0
M  V30 14596 H 1400.31 -0.813489 -1.87733 0
M  V30 14597 H 1400.32 0.269494 -4.07109 0
M  V30 14598 H 1399 -0.88284 -4.06422 0
M  V30 14599 H 1397.58 0.894 -3.62025 0
M  V30 14600 N 1399.76 1.54172 -0.326923 0
M  V30 14601 C 1401.18 1.59579 0.0256055 0
M  V30 14602 C 1401.38 1.34337 1.50186 0
M  V30 14603 O 1400.43 1.12945 2.25831 0
M  V30 14604 C 1401.75 2.98086 -0.395641 0
M  V30 14605 C 1403.29 3.11075 -0.346579 0
M  V30 14606 C 1403.77 4.51932 -0.743039 0
M  V30 14607 N 1405.26 4.57932 -0.696575 0
M  V30 14608 C 1405.99 5.65041 -0.975493 0
M  V30 14609 N 1405.49 6.80075 -1.32172 0
M  V30 14610 N 1407.28 5.54835 -0.900831 0
M  V30 14611 H 1399.43 1.68836 -1.28872 0
M  V30 14612 H 1401.7 0.789858 -0.52424 0
M  V30 14613 H 1401.4 3.21568 -1.42431 0
M  V30 14614 H 1401.28 3.76451 0.237645 0
M  V30 14615 H 1403.66 2.87326 0.672889 0
M  V30 14616 H 1403.75 2.34807 -1.01484 0
M  V30 14617 H 1403.39 4.76415 -1.76044 0
M  V30 14618 H 1403.32 5.26574 -0.0524263 0
M  V30 14619 H 1405.81 3.75318 -0.440969 0
M  V30 14620 H 1406.12 7.57708 -1.51983 0
M  V30 14621 H 1404.47 6.81563 -1.36001 0
M  V30 14622 H 1407.66 4.63844 -0.629812 0
M  V30 14623 H 1407.83 6.3822 -1.12156 0
M  V30 14624 N 1401.24 0.0551678 1.57503 0
M  V30 14625 C 1402.49 -0.61772 1.92848 0
M  V30 14626 C 1402.81 -1.70614 0.933862 0
M  V30 14627 O 1402.07 -1.95628 -0.0532073 0
M  V30 14628 C 1402.37 -1.24895 3.34867 0
M  V30 14629 C 1402.03 -0.288325 4.49977 0
M  V30 14630 C 1400.7 -0.0240016 4.81194 0
M  V30 14631 C 1403.05 0.369804 5.19886 0
M  V30 14632 C 1400.38 0.905818 5.79665 0
M  V30 14633 C 1402.73 1.28784 6.19352 0
M  V30 14634 C 1401.39 1.5608 6.48996 0
M  V30 14635 H 1400.66 -0.22604 0.705682 0
M  V30 14636 H 1403.31 0.1225 1.91108 0
M  V30 14637 H 1401.61 -2.06452 3.32993 0
M  V30 14638 H 1403.31 -1.77659 3.59497 0
M  V30 14639 H 1399.9 -0.504524 4.2562 0
M  V30 14640 H 1404.08 0.178689 4.95978 0
M  V30 14641 H 1399.34 1.12472 6.00966 0
M  V30 14642 H 1403.51 1.80385 6.72632 0
M  V30 14643 H 1401.14 2.28292 7.25112 0
M  V30 14644 N 1402.72 -1.56081 -0.218252 0
M  V30 14645 C 1403.65 -1.89176 -1.29403 0
M  V30 14646 C 1404.66 -0.780312 -1.42881 0
M  V30 14647 O 1405.85 -1.05863 -1.4372 0
M  V30 14648 C 1402.95 -2.08818 -2.66923 0
M  V30 14649 C 1402.12 -3.39854 -2.75351 0
M  V30 14650 C 1401.18 -3.48889 -3.93908 0
M  V30 14651 O 1400.21 -4.21894 -3.82091 0
M  V30 14652 N 1401.41 -2.80273 -5.08357 0
M  V30 14653 H 1404.18 -2.82047 -1.01338 0
M  V30 14654 H 1401.74 -1.56667 -0.408278 0
M  V30 14655 H 1403.73 -2.12175 -3.44622 0
M  V30 14656 H 1402.3 -1.22557 -2.87574 0
M  V30 14657 H 1401.52 -3.48568 -1.84104 0
M  V30 14658 H 1402.81 -4.26168 -2.77954 0
M  V30 14659 H 1402.2 -2.20744 -5.20854 0
M  V30 14660 H 1400.76 -2.89286 -5.84086 0
M  V30 14661 N 1404.2 0.485086 -1.49949 0
M  V30 14662 C 1405.16 1.56713 -1.67253 0
M  V30 14663 C 1406.16 1.51329 -0.543701 0
M  V30 14664 O 1407.35 1.54198 -0.810472 0
M  V30 14665 C 1404.48 2.9636 -1.68475 0
M  V30 14666 H 1405.67 1.42693 -2.63778 0
M  V30 14667 H 1403.23 0.710473 -1.39219 0
M  V30 14668 H 1403.96 3.1584 -0.735924 0
M  V30 14669 H 1403.75 3.01675 -2.50469 0
M  V30 14670 H 1405.24 3.74945 -1.83865 0
M  V30 14671 N 1405.67 1.39291 0.737279 0
M  V30 14672 C 1406.92 1.36121 1.49384 0
M  V30 14673 C 1407.24 -0.0429406 1.94953 0
M  V30 14674 O 1406.51 -0.993756 1.68823 0
M  V30 14675 H 1405.09 0.500916 0.554159 0
M  V30 14676 H 1407.75 1.74134 0.875402 0
M  V30 14677 H 1406.85 2.02246 2.37704 0
M  V30 14678 N 1407.15 -0.967221 1.24429 0
M  V30 14679 C 1408.4 -1.71279 1.08588 0
M  V30 14680 C 1408.73 -1.90558 -0.374325 0
M  V30 14681 O 1408.01 -1.46742 -1.27659 0
M  V30 14682 C 1408.29 -3.10326 1.82674 0
M  V30 14683 C 1408.14 -2.98535 3.36447 0
M  V30 14684 C 1409.46 -4.09993 1.59981 0
M  V30 14685 H 1406.58 -0.621658 0.395867 0
M  V30 14686 H 1409.22 -1.12514 1.53103 0
M  V30 14687 H 1407.37 -3.60492 1.44836 0
M  V30 14688 H 1409.04 -2.55791 3.83886 0
M  V30 14689 H 1407.29 -2.34736 3.64803 0
M  V30 14690 H 1407.96 -3.97041 3.83487 0
M  V30 14691 H 1410.43 -3.68687 1.92897 0
M  V30 14692 H 1409.31 -5.05349 2.14274 0
M  V30 14693 H 1409.57 -4.38812 0.538173 0
M  V30 14694 N 1408.63 -1.05812 -1.16797 0
M  V30 14695 C 1409.56 -0.608879 -2.19927 0
M  V30 14696 C 1410.54 0.365798 -1.58432 0
M  V30 14697 O 1411.72 0.27593 -1.8647 0
M  V30 14698 C 1408.85 0.108061 -3.38528 0
M  V30 14699 C 1407.9 -0.822607 -4.18492 0
M  V30 14700 S 1408.73 -2.3152 -4.82865 0
M  V30 14701 C 1409.89 -1.60961 -6.04849 0
M  V30 14702 H 1410.12 -1.48261 -2.57693 0
M  V30 14703 H 1407.65 -0.870648 -1.27511 0
M  V30 14704 H 1409.61 0.515496 -4.0725 0
M  V30 14705 H 1408.27 0.95792 -2.99137 0
M  V30 14706 H 1407.46 -0.267448 -5.0329 0
M  V30 14707 H 1407.07 -1.1697 -3.55238 0
M  V30 14708 H 1409.36 -0.912454 -6.71327 0
M  V30 14709 H 1410.3 -2.43531 -6.64905 0
M  V30 14710 H 1410.71 -1.09431 -5.53792 0
M  V30 14711 N 1410.11 1.33347 -0.840014 0
M  V30 14712 C 1411.05 2.29191 -0.272048 0
M  V30 14713 C 1412.02 1.54383 0.612787 0
M  V30 14714 O 1413.21 1.82676 0.550812 0
M  V30 14715 C 1410.35 3.40755 0.545901 0
M  V30 14716 C 1409.46 4.30471 -0.363084 0
M  V30 14717 C 1408.6 5.29151 0.466078 0
M  V30 14718 C 1407.64 6.10508 -0.441225 0
M  V30 14719 N 1406.77 7.01228 0.349877 0
M  V30 14720 H 1411.61 2.77166 -1.09467 0
M  V30 14721 H 1409.15 1.36379 -0.551284 0
M  V30 14722 H 1411.11 4.04142 1.03562 0
M  V30 14723 H 1409.74 2.9397 1.33348 0
M  V30 14724 H 1408.79 3.67795 -0.971119 0
M  V30 14725 H 1410.1 4.87406 -1.06002 0
M  V30 14726 H 1409.26 5.98072 1.01957 0
M  V30 14727 H 1408 4.72796 1.19644 0
M  V30 14728 H 1407 5.40504 -1.00672 0
M  V30 14729 H 1408.23 6.68946 -1.16997 0
M  V30 14730 H 1406.17 6.4732 1.0636 0
M  V30 14731 H 1406.09 7.5545 -0.288317 0
M  V30 14732 H 1407.36 7.74453 0.885573 0
M  V30 14733 N 1411.59 0.596556 1.45873 0
M  V30 14734 C 1412.83 0.0872856 2.01911 0
M  V30 14735 C 1413.15 -1.28257 1.46885 0
M  V30 14736 O 1412.42 -1.84489 0.658837 0
M  V30 14737 H 1411 0.0292769 0.746426 0
M  V30 14738 H 1413.67 0.775464 1.78809 0
M  V30 14739 H 1412.76 0.0287213 3.12087 0
M  V30 14740 N 1413.06 -1.53996 0.335095 0
M  V30 14741 C 1414.31 -2.01069 -0.264388 0
M  V30 14742 C 1414.64 -1.22271 -1.50876 0
M  V30 14743 O 1413.92 -0.30806 -1.92045 0
M  V30 14744 C 1414.2 -3.55283 -0.587 0
M  V30 14745 C 1414.05 -4.44799 0.668877 0
M  V30 14746 C 1415.37 -4.17238 -1.40003 0
M  V30 14747 H 1412.49 -0.730901 -0.0946202 0
M  V30 14748 H 1415.13 -1.84497 0.453958 0
M  V30 14749 H 1413.28 -3.69536 -1.19899 0
M  V30 14750 H 1414.96 -4.42398 1.30698 0
M  V30 14751 H 1413.2 -4.14005 1.29547 0
M  V30 14752 H 1413.87 -5.5056 0.398523 0
M  V30 14753 H 1416.35 -4.06631 -0.88262 0
M  V30 14754 H 1415.22 -5.2523 -1.59451 0
M  V30 14755 H 1415.48 -3.71309 -2.39962 0
M  V30 14756 N 1414.54 -0.0635198 -1.57472 0
M  V30 14757 C 1415.79 0.606285 -1.92792 0
M  V30 14758 C 1416.11 1.70648 -0.943615 0
M  V30 14759 O 1415.38 1.95898 0.00957612 0
M  V30 14760 H 1413.96 0.226943 -0.711692 0
M  V30 14761 H 1416.62 -0.119429 -1.94534 0
M  V30 14762 H 1415.72 1.03694 -2.9437 0
M  V30 14763 N 1416.02 1.56195 0.209972 0
M  V30 14764 C 1417.43 1.69811 0.775969 0
M  V30 14765 C 1417.78 0.667543 1.84495 0
M  V30 14766 O 1416.91 -0.179043 2.15658 0
M  V30 14767 C 1417.5 3.07869 1.41429 0
M  V30 14768 C 1416.06 3.233 1.92755 0
M  V30 14769 C 1415.21 2.6575 0.791958 0
M  V30 14770 H 1418.16 1.58693 -0.0148727 0
M  V30 14771 H 1418.18 3.04371 2.28339 0
M  V30 14772 H 1417.69 3.82853 0.63604 0
M  V30 14773 H 1415.79 2.53206 2.73345 0
M  V30 14774 H 1415.91 4.30645 2.09956 0
M  V30 14775 H 1414.27 2.24535 1.20234 0
M  V30 14776 H 1415.05 3.4329 0.0261877 0
M  V30 14777 N 1417.5 -0.477127 1.50204 0
M  V30 14778 C 1418.46 -1.55824 1.68082 0
M  V30 14779 C 1419.46 -1.51039 0.551719 0
M  V30 14780 O 1420.65 -1.53766 0.818638 0
M  V30 14781 C 1417.78 -2.95462 1.70044 0
M  V30 14782 H 1418.98 -1.41292 2.64531 0
M  V30 14783 H 1416.53 -0.70308 1.39594 0
M  V30 14784 H 1417.26 -3.15445 0.752663 0
M  V30 14785 H 1417.05 -3.00343 2.52065 0
M  V30 14786 H 1418.54 -3.73964 1.85851 0
M  V30 14787 N 1418.98 -1.3968 -0.729882 0
M  V30 14788 C 1419.89 -1.41094 -1.87429 0
M  V30 14789 C 1420.9 -0.305142 -1.71303 0
M  V30 14790 O 1422.08 -0.54744 -1.93817 0
M  V30 14791 C 1419.14 -1.25786 -3.23077 0
M  V30 14792 C 1418.2 -2.46382 -3.5156 0
M  V30 14793 C 1417.44 -2.31795 -4.80735 0
M  V30 14794 O 1417.66 -1.32415 -5.54818 0
M  V30 14795 O 1416.59 -3.20883 -5.09232 0
M  V30 14796 H 1420.42 -2.37571 -1.89192 0
M  V30 14797 H 1418.01 -1.2085 -0.878389 0
M  V30 14798 H 1419.89 -1.19402 -4.0413 0
M  V30 14799 H 1418.56 -0.324065 -3.22074 0
M  V30 14800 H 1417.47 -2.58343 -2.70573 0
M  V30 14801 H 1418.8 -3.38473 -3.57347 0
M  V30 14802 N 1420.45 0.960609 -1.2494 0
M  V30 14803 C 1421.87 1.51915 -1.0853 0
M  V30 14804 C 1422.22 1.93215 0.340949 0
M  V30 14805 O 1421.34 1.78031 1.2302 0
M  V30 14806 C 1421.94 2.76069 -1.96396 0
M  V30 14807 C 1420.5 3.28255 -1.84189 0
M  V30 14808 C 1419.64 2.01124 -1.90905 0
M  V30 14809 H 1422.59 0.778141 -1.38314 0
M  V30 14810 H 1422.61 3.49668 -1.50042 0
M  V30 14811 H 1422.13 2.45979 -3.00193 0
M  V30 14812 H 1420.23 3.6318 -0.832518 0
M  V30 14813 H 1420.34 3.96675 -2.68673 0
M  V30 14814 H 1418.7 2.16155 -1.34718 0
M  V30 14815 H 1419.49 1.73389 -2.96295 0
M  V30 14816 N 1421.93 1.0643 1.16234 0
M  V30 14817 C 1423.18 0.780296 1.86429 0
M  V30 14818 C 1423.5 -0.695335 1.82181 0
M  V30 14819 O 1422.77 -1.50312 1.2563 0
M  V30 14820 H 1421.35 0.285654 0.690225 0
M  V30 14821 H 1424.01 1.34609 1.40949 0
M  V30 14822 H 1423.11 1.10644 2.91829 0
M  V30 14823 N 1423.41 -1.329 0.847073 0
M  V30 14824 C 1424.69 -1.921 0.368351 0
M  V30 14825 C 1425.07 -1.77205 -1.14724 0
M  V30 14826 O 1424.42 -1.16547 -1.96543 0
M  V30 14827 C 1424.63 -3.39125 0.824326 0
M  V30 14828 C 1425.97 -4.16267 0.837097 0
M  V30 14829 O 1427 -3.47812 0.768466 0
M  V30 14830 O 1425.86 -5.38487 0.932389 0
M  V30 14831 H 1422.95 -0.820187 0.105936 0
M  V30 14832 H 1425.5 -1.41719 0.933471 0
M  V30 14833 H 1424.27 -3.43875 1.86723 0
M  V30 14834 H 1423.89 -3.96898 0.236233 0
M  V30 14835 N 1424.89 -0.604284 -1.45555 0
M  V30 14836 C 1426.13 -0.101149 -2.0415 0
M  V30 14837 C 1426.49 1.24348 -1.46292 0
M  V30 14838 O 1427.69 1.83714 -1.9622 0
M  V30 14839 C 1425.96 -0.0589898 -3.57351 0
M  V30 14840 S 1427.52 0.383434 -4.37122 0
M  V30 14841 H 1424.34 -0.0479603 -0.709381 0
M  V30 14842 H 1426.94 -0.801643 -1.78309 0
M  V30 14843 H 1425.65 -1.04119 -3.96973 0
M  V30 14844 H 1425.18 0.663601 -3.87763 0
M  V30 14845 H 1427.19 1.63367 -4.68536 0
M  V30 14846 N 1426.37 1.53816 -0.343257 0
M  V30 14847 C 1427.61 2.00512 0.252845 0
M  V30 14848 C 1427.94 1.23274 1.51091 0
M  V30 14849 O 1427.21 0.339841 1.9293 0
M  V30 14850 H 1425.79 0.740751 0.0964202 0
M  V30 14851 H 1428.45 1.89288 -0.464347 0
M  V30 14852 H 1427.54 3.08142 0.495499 0
M  V30 14853 N 1427.84 0.0718701 1.57436 0
M  V30 14854 C 1429.09 -0.596052 1.9311 0
M  V30 14855 C 1429.41 -1.70146 0.952652 0
M  V30 14856 O 1428.68 -1.959 0.000812941 0
M  V30 14857 H 1427.26 -0.223165 0.712886 0
M  V30 14858 H 1429.93 0.129744 1.94468 0
M  V30 14859 H 1429.02 -1.02132 2.94916 0
M  V30 14860 N 1429.32 -1.56304 -0.201686 0
M  V30 14861 C 1430.57 -1.79433 -0.921241 0
M  V30 14862 C 1430.88 -0.643943 -1.84696 0
M  V30 14863 O 1432.09 -0.759359 -2.60665 0
M  V30 14864 C 1430.55 -3.17835 -1.68846 0
M  V30 14865 C 1430.15 -4.40655 -0.807892 0
M  V30 14866 C 1431.9 -3.50277 -2.39805 0
M  V30 14867 C 1429.81 -5.7008 -1.5736 0
M  V30 14868 H 1428.74 -0.669029 -0.34773 0
M  V30 14869 H 1431.39 -1.82667 -0.174657 0
M  V30 14870 H 1429.77 -3.08832 -2.47869 0
M  V30 14871 H 1430.94 -4.60765 -0.0567923 0
M  V30 14872 H 1429.26 -4.15873 -0.209465 0
M  V30 14873 H 1431.85 -4.44207 -2.97631 0
M  V30 14874 H 1432.2 -2.7371 -3.1367 0
M  V30 14875 H 1432.73 -3.60698 -1.67754 0
M  V30 14876 H 1429.47 -6.49595 -0.877855 0
M  V30 14877 H 1428.99 -5.53999 -2.2988 0
M  V30 14878 H 1430.67 -6.10964 -2.12912 0
M  V30 14879 N 1430.8 0.469154 -1.50455 0
M  V30 14880 C 1431.73 1.57493 -1.7239 0
M  V30 14881 C 1432.71 1.60161 -0.572915 0
M  V30 14882 O 1433.9 1.76397 -0.812259 0
M  V30 14883 C 1431.03 2.95804 -1.81981 0
M  V30 14884 C 1429.98 3.08001 -2.97185 0
M  V30 14885 C 1429.31 4.4798 -2.91922 0
M  V30 14886 C 1430.61 2.85039 -4.37665 0
M  V30 14887 H 1432.3 1.39389 -2.64974 0
M  V30 14888 H 1429.85 0.669133 -1.27509 0
M  V30 14889 H 1431.8 3.73091 -1.95911 0
M  V30 14890 H 1430.52 3.15068 -0.86021 0
M  V30 14891 H 1429.18 2.33148 -2.82909 0
M  V30 14892 H 1428.83 4.64165 -1.93803 0
M  V30 14893 H 1428.53 4.57076 -3.69263 0
M  V30 14894 H 1430.05 5.27284 -3.07903 0
M  V30 14895 H 1431.47 3.52074 -4.52456 0
M  V30 14896 H 1429.87 3.05578 -5.16471 0
M  V30 14897 H 1430.94 1.8088 -4.499 0
M  V30 14898 N 1432.28 1.40065 0.722464 0
M  V30 14899 C 1433.69 1.21944 1.02965 0
M  V30 14900 C 1433.89 0.0898069 2.013 0
M  V30 14901 O 1432.95 -0.554519 2.46336 0
M  V30 14902 C 1434.26 2.55848 1.57995 0
M  V30 14903 C 1435.81 2.62801 1.70013 0
M  V30 14904 C 1436.29 3.96957 2.2845 0
M  V30 14905 N 1437.78 3.98662 2.35844 0
M  V30 14906 C 1438.51 4.99248 2.82026 0
M  V30 14907 N 1438.01 6.1023 3.28012 0
M  V30 14908 N 1439.8 4.8662 2.81349 0
M  V30 14909 H 1431.95 2.12283 0.0705301 0
M  V30 14910 H 1434.22 0.943338 0.0938991 0
M  V30 14911 H 1433.92 3.39125 0.932034 0
M  V30 14912 H 1433.8 2.76452 2.5662 0
M  V30 14913 H 1436.18 1.799 2.33923 0
M  V30 14914 H 1436.26 2.46034 0.700062 0
M  V30 14915 H 1435.91 4.80295 1.65164 0
M  V30 14916 H 1435.84 4.1105 3.29158 0
M  V30 14917 H 1438.33 3.18518 2.03358 0
M  V30 14918 H 1438.64 6.82878 3.61797 0
M  V30 14919 H 1436.99 6.13805 3.25988 0
M  V30 14920 H 1440.18 3.99015 2.44755 0
M  V30 14921 H 1440.35 5.65155 3.17024 0
M  V30 14922 N 1433.76 -0.95397 1.25448 0
M  V30 14923 C 1435 -1.71348 1.11441 0
M  V30 14924 C 1435.36 -1.88988 -0.338748 0
M  V30 14925 O 1436.56 -2.62003 -0.600652 0
M  V30 14926 C 1434.83 -3.05874 1.84867 0
M  V30 14927 S 1436.39 -3.97072 1.86759 0
M  V30 14928 H 1433.21 -0.588957 0.39831 0
M  V30 14929 H 1435.81 -1.13776 1.58982 0
M  V30 14930 H 1434.52 -2.90706 2.89686 0
M  V30 14931 H 1434.05 -3.68508 1.37715 0
M  V30 14932 H 1436.06 -4.87116 0.945109 0
M  V30 14933 N 1435.24 -1.07045 -1.15668 0
M  V30 14934 C 1436.48 -0.786751 -1.85723 0
M  V30 14935 C 1436.8 0.689604 -1.83041 0
M  V30 14936 O 1438 1.08796 -2.48748 0
M  V30 14937 C 1436.46 -1.35729 -3.33325 0
M  V30 14938 C 1436.07 -2.86444 -3.44462 0
M  V30 14939 C 1437.81 -1.15148 -4.08584 0
M  V30 14940 C 1435.72 -3.36705 -4.86193 0
M  V30 14941 H 1434.65 -0.29063 -0.695737 0
M  V30 14942 H 1437.3 -1.29012 -1.30492 0
M  V30 14943 H 1435.68 -0.781671 -3.88209 0
M  V30 14944 H 1436.86 -3.50023 -2.997 0
M  V30 14945 H 1435.17 -3.0578 -2.82644 0
M  V30 14946 H 1437.77 -1.50179 -5.13177 0
M  V30 14947 H 1438.11 -0.0903159 -4.16202 0
M  V30 14948 H 1438.64 -1.6933 -3.59962 0
M  V30 14949 H 1435.38 -4.42333 -4.83758 0
M  V30 14950 H 1434.9 -2.77877 -5.31549 0
M  V30 14951 H 1436.58 -3.32478 -5.55038 0
M  V30 14952 N 1436.71 1.32449 -0.85411 0
M  V30 14953 C 1437.66 2.26394 -0.270121 0
M  V30 14954 C 1438.65 1.49939 0.58371 0
M  V30 14955 O 1439.84 1.71617 0.433182 0
M  V30 14956 C 1436.97 3.3901 0.540998 0
M  V30 14957 C 1436.05 4.22851 -0.32519 0
M  V30 14958 N 1436.45 4.85715 -1.41118 0
M  V30 14959 C 1434.74 4.45852 -0.114845 0
M  V30 14960 C 1435.44 5.48254 -1.94402 0
M  V30 14961 N 1434.42 5.29192 -1.24327 0
M  V30 14962 H 1438.22 2.72523 -1.10037 0
M  V30 14963 H 1435.74 1.46531 -0.700167 0
M  V30 14964 H 1437.73 4.0532 0.975778 0
M  V30 14965 H 1436.39 2.94427 1.36905 0
M  V30 14966 H 1437.4 4.85831 -1.79411 0
M  V30 14967 H 1434.08 4.11949 0.678533 0
M  V30 14968 H 1435.47 6.08259 -2.8543 0
M  V30 14969 N 1438.19 0.611994 1.45232 0
M  V30 14970 C 1439.44 0.108696 2.01807 0
M  V30 14971 C 1439.76 -1.26692 1.48237 0
M  V30 14972 O 1439.03 -1.8378 0.678368 0
M  V30 14973 H 1437.61 0.0371921 0.746074 0
M  V30 14974 H 1440.27 0.794386 1.77976 0
M  V30 14975 H 1439.37 0.0618207 3.12039 0
M  V30 14976 N 1439.67 -1.53632 0.351409 0
M  V30 14977 C 1441.08 -1.86241 -0.130834 0
M  V30 14978 C 1441.43 -1.27243 -1.49344 0
M  V30 14979 O 1440.56 -0.589006 -2.0823 0
M  V30 14980 C 1441.15 -3.37919 -0.244179 0
M  V30 14981 C 1439.71 -3.70377 -0.670662 0
M  V30 14982 C 1438.86 -2.76643 0.190813 0
M  V30 14983 H 1441.81 -1.48083 0.570724 0
M  V30 14984 H 1441.83 -3.65137 -1.07029 0
M  V30 14985 H 1441.34 -3.8083 0.747688 0
M  V30 14986 H 1439.44 -3.33015 -1.67127 0
M  V30 14987 H 1439.56 -4.76934 -0.455102 0
M  V30 14988 H 1437.92 -2.52446 -0.338092 0
M  V30 14989 H 1438.7 -3.22385 1.17996 0
M  V30 14990 N 1441.15 -0.0802183 -1.57396 0
M  V30 14991 C 1442.4 0.586573 -1.92982 0
M  V30 14992 C 1442.71 1.70256 -0.962918 0
M  V30 14993 O 1443.92 2.4295 -1.21193 0
M  V30 14994 C 1442.37 1.09475 -3.42846 0
M  V30 14995 C 1441.98 0.0093098 -4.47999 0
M  V30 14996 C 1443.72 1.73512 -3.87419 0
M  V30 14997 C 1441.63 0.532002 -5.89002 0
M  V30 14998 H 1440.56 0.222878 -0.720306 0
M  V30 14999 H 1443.21 -0.153816 -1.82854 0
M  V30 15000 H 1441.59 1.88836 -3.48076 0
M  V30 15001 H 1442.77 -0.765609 -4.54395 0
M  V30 15002 H 1441.08 -0.535345 -4.12944 0
M  V30 15003 H 1443.68 2.13665 -4.90154 0
M  V30 15004 H 1444.02 2.59845 -3.25248 0
M  V30 15005 H 1444.56 1.00758 -3.84828 0
M  V30 15006 H 1441.29 -0.294364 -6.54839 0
M  V30 15007 H 1440.81 1.27425 -5.86108 0
M  V30 15008 H 1442.49 1.00573 -6.39135 0
M  V30 15009 N 1442.63 1.56409 0.193394 0
M  V30 15010 C 1443.87 1.80367 0.911717 0
M  V30 15011 C 1444.19 0.653561 1.83721 0
M  V30 15012 O 1443.46 -0.328001 1.93135 0
M  V30 15013 H 1442.04 0.665316 0.339652 0
M  V30 15014 H 1444.71 1.93887 0.198496 0
M  V30 15015 H 1443.8 2.7359 1.50182 0
M  V30 15016 N 1444.1 -0.461169 1.50702 0
M  V30 15017 C 1445.03 -1.56576 1.73223 0
M  V30 15018 C 1446.01 -1.59855 0.581401 0
M  V30 15019 O 1447.2 -1.75964 0.821602 0
M  V30 15020 C 1444.33 -2.94835 1.83548 0
M  V30 15021 C 1443.28 -3.06421 2.98815 0
M  V30 15022 C 1442.61 -4.46425 2.94293 0
M  V30 15023 C 1443.91 -2.82714 4.3917 0
M  V30 15024 H 1445.6 -1.37982 2.65709 0
M  V30 15025 H 1443.15 -0.662362 1.27862 0
M  V30 15026 H 1445.1 -3.72047 1.97887 0
M  V30 15027 H 1443.83 -3.14608 0.876906 0
M  V30 15028 H 1442.49 -2.31644 2.84142 0
M  V30 15029 H 1442.13 -4.63131 1.96262 0
M  V30 15030 H 1441.83 -4.55111 3.71682 0
M  V30 15031 H 1443.36 -5.25644 3.10695 0
M  V30 15032 H 1444.77 -3.4967 4.54317 0
M  V30 15033 H 1443.17 -3.02835 5.18084 0
M  V30 15034 H 1444.24 -1.78492 4.50853 0
M  V30 15035 N 1445.58 -1.40446 -0.715026 0
M  V30 15036 C 1446.51 -1.43511 -1.84193 0
M  V30 15037 C 1447.49 -0.295969 -1.67505 0
M  V30 15038 O 1448.68 -0.504667 -1.87528 0
M  V30 15039 C 1445.81 -1.29751 -3.22152 0
M  V30 15040 C 1444.76 -2.41274 -3.53512 0
M  V30 15041 C 1444.09 -2.12591 -4.90621 0
M  V30 15042 C 1445.39 -3.83614 -3.54454 0
M  V30 15043 H 1447.08 -2.37819 -1.81885 0
M  V30 15044 H 1444.63 -1.14469 -0.873655 0
M  V30 15045 H 1446.58 -1.30511 -4.0068 0
M  V30 15046 H 1445.3 -0.319189 -3.25037 0
M  V30 15047 H 1443.96 -2.39764 -2.77324 0
M  V30 15048 H 1443.61 -1.13148 -4.90109 0
M  V30 15049 H 1443.31 -2.87308 -5.1257 0
M  V30 15050 H 1444.84 -2.15034 -5.71483 0
M  V30 15051 H 1446.25 -3.86945 -4.23021 0
M  V30 15052 H 1444.65 -4.57855 -3.87929 0
M  V30 15053 H 1445.72 -4.13159 -2.53827 0
M  V30 15054 N 1447.06 0.947303 -1.25952 0
M  V30 15055 C 1448.29 1.7273 -1.13895 0
M  V30 15056 C 1448.7 1.86296 0.306488 0
M  V30 15057 O 1448.06 1.36594 1.2103 0
M  V30 15058 C 1448.11 3.13727 -1.79604 0
M  V30 15059 O 1447.83 3.00816 -3.18499 0
M  V30 15060 C 1449.33 4.0797 -1.73422 0
M  V30 15061 H 1446.55 0.54102 -0.39691 0
M  V30 15062 H 1449.1 1.18797 -1.66456 0
M  V30 15063 H 1447.25 3.6458 -1.30997 0
M  V30 15064 H 1447.67 3.89813 -3.50922 0
M  V30 15065 H 1449.14 5.04487 -2.24047 0
M  V30 15066 H 1449.62 4.33594 -0.699481 0
M  V30 15067 H 1450.22 3.63035 -2.21553 0
M  V30 15068 N 1448.54 1.07657 1.15099 0
M  V30 15069 C 1449.5 0.703558 2.18135 0
M  V30 15070 C 1450.5 -0.257771 1.5872 0
M  V30 15071 O 1451.69 -0.0383211 1.74158 0
M  V30 15072 C 1448.82 0.0374978 3.40879 0
M  V30 15073 H 1450.02 1.61583 2.52648 0
M  V30 15074 H 1447.57 0.873484 1.29615 0
M  V30 15075 H 1448.3 -0.886868 3.11938 0
M  V30 15076 H 1448.09 0.728961 3.85264 0
M  V30 15077 H 1449.58 -0.208714 4.17078 0
M  V30 15078 N 1450.02 -1.31994 0.861122 0
M  V30 15079 C 1451.26 -1.96636 0.466754 0
M  V30 15080 C 1451.59 -1.6845 -0.982328 0
M  V30 15081 O 1450.86 -0.995157 -1.68741 0
M  V30 15082 H 1449.44 -0.727489 0.169613 0
M  V30 15083 H 1452.1 -1.60962 1.09897 0
M  V30 15084 H 1451.19 -3.05937 0.61716 0
M  V30 15085 N 1451.49 -0.619688 -1.44906 0
M  V30 15086 C 1452.74 -0.119397 -2.01747 0
M  V30 15087 C 1453.06 1.25904 -1.48907 0
M  V30 15088 O 1452.33 1.83417 -0.688104 0
M  V30 15089 H 1450.91 -0.0411482 -0.745866 0
M  V30 15090 H 1453.58 -0.803813 -1.77552 0
M  V30 15091 H 1452.67 -0.078368 -3.12002 0
M  V30 15092 N 1452.97 1.53444 -0.359552 0
M  V30 15093 C 1454.2 2.06058 0.235576 0
M  V30 15094 C 1454.62 1.23175 1.42161 0
M  V30 15095 O 1453.98 0.249338 1.79577 0
M  V30 15096 C 1454.03 3.55351 0.613025 0
M  V30 15097 O 1453.13 3.75229 1.71104 0
M  V30 15098 H 1452.47 0.663038 0.0357266 0
M  V30 15099 H 1455 1.97923 -0.518408 0
M  V30 15100 H 1455.01 3.9827 0.885722 0
M  V30 15101 H 1453.69 4.15122 -0.254243 0
M  V30 15102 H 1452.27 3.4421 1.43437 0
M  V30 15103 N 1454.45 0.0885642 1.57351 0
M  V30 15104 C 1455.7 -0.575536 1.93732 0
M  V30 15105 C 1456.02 -1.69126 0.970644 0
M  V30 15106 O 1455.29 -1.95888 0.0215907 0
M  V30 15107 H 1453.87 -0.215592 0.715213 0
M  V30 15108 H 1456.53 0.150362 1.94319 0
M  V30 15109 H 1455.63 -0.989979 2.95983 0
M  V30 15110 N 1455.93 -1.56509 -0.185096 0
M  V30 15111 C 1457.16 -1.85058 -0.918527 0
M  V30 15112 C 1457.57 -0.670181 -1.76933 0
M  V30 15113 O 1456.91 0.370215 -1.79931 0
M  V30 15114 C 1456.97 -3.07843 -1.85669 0
M  V30 15115 C 1456.64 -4.41319 -1.18686 0
M  V30 15116 C 1457.63 -5.16887 -0.558946 0
M  V30 15117 C 1455.32 -4.88056 -1.18773 0
M  V30 15118 C 1457.31 -6.37373 0.0591595 0
M  V30 15119 C 1455 -6.08475 -0.565791 0
M  V30 15120 C 1456 -6.82977 0.0565621 0
M  V30 15121 O 1455.68 -8.01114 0.668726 0
M  V30 15122 H 1455.42 -0.618423 -0.273001 0
M  V30 15123 H 1457.97 -2.04479 -0.194261 0
M  V30 15124 H 1456.2 -2.84332 -2.62092 0
M  V30 15125 H 1457.89 -3.22954 -2.45877 0
M  V30 15126 H 1458.66 -4.81867 -0.550347 0
M  V30 15127 H 1454.53 -4.30016 -1.66154 0
M  V30 15128 H 1458.08 -6.95464 0.545534 0
M  V30 15129 H 1453.98 -6.42961 -0.571927 0
M  V30 15130 H 1454.74 -8.16536 0.566616 0
M  V30 15131 N 1457.41 0.45317 -1.50944 0
M  V30 15132 C 1458.65 1.20568 -1.63068 0
M  V30 15133 C 1458.99 1.91229 -0.338375 0
M  V30 15134 O 1458.26 1.82916 0.661207 0
M  V30 15135 C 1458.54 2.23522 -2.8233 0
M  V30 15136 C 1458.4 1.57047 -4.21493 0
M  V30 15137 C 1459.72 3.24663 -2.97123 0
M  V30 15138 H 1456.83 0.436971 -0.593486 0
M  V30 15139 H 1459.48 0.497008 -1.83384 0
M  V30 15140 H 1457.63 2.83961 -2.65139 0
M  V30 15141 H 1459.3 1.00067 -4.50316 0
M  V30 15142 H 1457.54 0.873143 -4.24922 0
M  V30 15143 H 1458.21 2.31949 -5.00903 0
M  V30 15144 H 1460.69 2.74264 -3.12919 0
M  V30 15145 H 1459.56 3.9401 -3.82161 0
M  V30 15146 H 1459.83 3.89843 -2.08506 0
M  V30 15147 N 1458.88 1.40823 0.707568 0
M  V30 15148 C 1460.12 1.40992 1.47989 0
M  V30 15149 C 1460.49 0.0138056 1.91995 0
M  V30 15150 O 1461.69 -0.109666 2.68576 0
M  V30 15151 C 1459.96 2.37857 2.66756 0
M  V30 15152 S 1461.52 2.56453 3.56058 0
M  V30 15153 H 1458.34 0.499622 0.505864 0
M  V30 15154 H 1460.94 1.77161 0.826703 0
M  V30 15155 H 1459.64 3.38113 2.32611 0
M  V30 15156 H 1459.17 2.03 3.36979 0
M  V30 15157 H 1461.19 1.82294 4.61501 0
M  V30 15158 N 1460.36 -0.94061 1.26453 0
M  V30 15159 C 1461.61 -1.68687 1.12031 0
M  V30 15160 C 1461.94 -1.91571 -0.336252 0
M  V30 15161 O 1461.19 -1.49458 -1.26336 0
M  V30 15162 C 1461.49 -3.06683 1.83521 0
M  V30 15163 C 1461.16 -3.03553 3.33416 0
M  V30 15164 C 1459.82 -3.02407 3.74304 0
M  V30 15165 C 1462.17 -2.95817 4.29118 0
M  V30 15166 C 1459.5 -2.9129 5.09281 0
M  V30 15167 C 1461.85 -2.86242 5.64135 0
M  V30 15168 C 1460.52 -2.83438 6.04333 0
M  V30 15169 H 1459.79 -0.61727 0.40995 0
M  V30 15170 H 1462.43 -1.0979 1.56902 0
M  V30 15171 H 1460.74 -3.69208 1.31121 0
M  V30 15172 H 1462.43 -3.63274 1.69802 0
M  V30 15173 H 1459.02 -3.05226 3.00891 0
M  V30 15174 H 1463.21 -2.9581 3.9851 0
M  V30 15175 H 1458.46 -2.87498 5.39588 0
M  V30 15176 H 1462.64 -2.79219 6.37973 0
M  V30 15177 H 1460.27 -2.74581 7.08879 0
M  V30 15178 N 1461.84 -1.08266 -1.14527 0
M  V30 15179 C 1462.8 -0.715117 -2.17758 0
M  V30 15180 C 1463.8 0.24935 -1.58855 0
M  V30 15181 O 1464.99 0.0290846 -1.74176 0
M  V30 15182 C 1462.13 -0.055575 -3.40855 0
M  V30 15183 H 1463.32 -1.62921 -2.51787 0
M  V30 15184 H 1460.87 -0.880346 -1.2915 0
M  V30 15185 H 1461.61 0.870312 -3.12404 0
M  V30 15186 H 1461.39 -0.749382 -3.84872 0
M  V30 15187 H 1462.88 0.186592 -4.17183 0
M  V30 15188 N 1463.32 1.31536 -0.86811 0
M  V30 15189 C 1464.6 1.9149 -0.398866 0
M  V30 15190 C 1464.98 1.79008 1.1189 0
M  V30 15191 O 1464.32 1.19659 1.94664 0
M  V30 15192 C 1464.53 3.37771 -0.878173 0
M  V30 15193 C 1465.88 4.14882 -0.903216 0
M  V30 15194 O 1466.91 3.46545 -0.823703 0
M  V30 15195 O 1465.77 5.36936 -1.01794 0
M  V30 15196 H 1462.86 0.818398 -0.118971 0
M  V30 15197 H 1465.41 1.40216 -0.955899 0
M  V30 15198 H 1464.18 3.40861 -1.9217 0
M  V30 15199 H 1463.8 3.96472 -0.299346 0
M  V30 15200 N 1464.8 0.627364 1.44575 0
M  V30 15201 C 1466.05 0.127824 2.01295 0
M  V30 15202 C 1466.36 -1.25647 1.49907 0
M  V30 15203 O 1467.57 -1.84982 1.9873 0
M  V30 15204 C 1466.02 0.177775 3.59461 0
M  V30 15205 C 1465.63 1.56315 4.19845 0
M  V30 15206 C 1467.37 -0.265497 4.23669 0
M  V30 15207 C 1465.28 1.56842 5.70223 0
M  V30 15208 H 1464.21 0.0440205 0.752714 0
M  V30 15209 H 1466.86 0.785607 1.65833 0
M  V30 15210 H 1465.24 -0.547038 3.92203 0
M  V30 15211 H 1466.42 2.31125 3.98645 0
M  V30 15212 H 1464.73 1.95019 3.67909 0
M  V30 15213 H 1467.33 -0.281038 5.33961 0
M  V30 15214 H 1467.67 -1.29208 3.95741 0
M  V30 15215 H 1468.21 0.406698 3.95716 0
M  V30 15216 H 1464.94 2.57325 6.0288 0
M  V30 15217 H 1464.46 0.863198 5.93556 0
M  V30 15218 H 1466.14 1.30071 6.33791 0
M  V30 15219 N 1466.28 -1.53251 0.367684 0
M  V30 15220 C 1467.69 -1.59591 0.0167132 0
M  V30 15221 C 1467.89 -1.38272 -1.46571 0
M  V30 15222 O 1466.95 -1.18893 -2.22757 0
M  V30 15223 C 1468.26 -2.96932 0.474534 0
M  V30 15224 C 1469.81 -3.10047 0.428934 0
M  V30 15225 C 1470.28 -4.49804 0.862599 0
M  V30 15226 N 1471.77 -4.55925 0.817742 0
M  V30 15227 C 1472.51 -5.62256 1.12496 0
M  V30 15228 N 1472.01 -6.76332 1.50156 0
M  V30 15229 N 1473.8 -5.52251 1.04762 0
M  V30 15230 H 1465.95 -1.6536 1.33303 0
M  V30 15231 H 1468.21 -0.775681 0.544998 0
M  V30 15232 H 1467.92 -3.17679 1.50907 0
M  V30 15233 H 1467.79 -3.76948 -0.137752 0
M  V30 15234 H 1470.18 -2.89009 -0.596473 0
M  V30 15235 H 1470.26 -2.32034 1.07674 0
M  V30 15236 H 1469.9 -4.7158 1.88613 0
M  V30 15237 H 1469.83 -5.2625 0.19202 0
M  V30 15238 H 1472.33 -3.74017 0.540323 0
M  V30 15239 H 1472.64 -7.53412 1.72019 0
M  V30 15240 H 1470.98 -6.77718 1.54024 0
M  V30 15241 H 1474.17 -4.62011 0.752571 0
M  V30 15242 H 1474.35 -6.35022 1.29038 0
M  V30 15243 N 1467.75 -0.0969077 -1.57302 0
M  V30 15244 C 1468.69 0.891431 -2.11154 0
M  V30 15245 C 1469.7 1.24482 -1.04919 0
M  V30 15246 O 1470.89 1.19762 -1.3236 0
M  V30 15247 C 1467.99 2.19998 -2.57787 0
M  V30 15248 C 1467.16 2.02165 -3.87876 0
M  V30 15249 C 1466.22 3.16549 -4.20337 0
M  V30 15250 O 1465.25 2.90432 -4.89528 0
M  V30 15251 N 1466.45 4.42369 -3.75885 0
M  V30 15252 H 1469.21 0.431477 -2.96578 0
M  V30 15253 H 1466.77 0.0881458 -1.6166 0
M  V30 15254 H 1468.77 2.95472 -2.76547 0
M  V30 15255 H 1467.34 2.57412 -1.77364 0
M  V30 15256 H 1466.56 1.11011 -3.78246 0
M  V30 15257 H 1467.84 1.87529 -4.7298 0
M  V30 15258 H 1467.24 4.66469 -3.20036 0
M  V30 15259 H 1465.8 5.14787 -3.99797 0
M  V30 15260 N 1469.23 1.56605 0.176793 0
M  V30 15261 C 1470.16 1.99014 1.2213 0
M  V30 15262 C 1471.14 0.86487 1.46472 0
M  V30 15263 O 1472.33 1.13055 1.57899 0
M  V30 15264 C 1469.46 2.34534 2.56146 0
M  V30 15265 C 1468.41 3.4997 2.46384 0
M  V30 15266 C 1467.74 3.71217 3.8484 0
M  V30 15267 C 1469.04 4.83592 1.97323 0
M  V30 15268 H 1470.73 2.86517 0.8688 0
M  V30 15269 H 1468.28 1.37846 0.416481 0
M  V30 15270 H 1470.23 2.62799 3.29416 0
M  V30 15271 H 1468.95 1.43933 2.93174 0
M  V30 15272 H 1467.61 3.21824 1.75569 0
M  V30 15273 H 1467.26 2.77916 4.19251 0
M  V30 15274 H 1466.96 4.48885 3.79178 0
M  V30 15275 H 1468.49 4.01877 4.59704 0
M  V30 15276 H 1469.9 5.10768 2.60363 0
M  V30 15277 H 1468.3 5.64858 2.02622 0
M  V30 15278 H 1469.37 4.75951 0.927275 0
M  V30 15279 N 1470.71 -0.445159 1.51182 0
M  V30 15280 C 1471.62 -1.5651 1.74762 0
M  V30 15281 C 1472.64 -1.62134 0.631542 0
M  V30 15282 O 1473.81 -1.79522 0.912898 0
M  V30 15283 C 1470.88 -2.92552 1.86049 0
M  V30 15284 C 1469.94 -2.97108 3.0988 0
M  V30 15285 C 1469.17 -4.2666 3.2062 0
M  V30 15286 O 1469.39 -5.18608 2.37491 0
M  V30 15287 O 1468.33 -4.3734 4.13542 0
M  V30 15288 H 1472.15 -1.3953 2.6975 0
M  V30 15289 H 1469.74 -0.627363 1.3559 0
M  V30 15290 H 1471.62 -3.73304 1.95504 0
M  V30 15291 H 1470.3 -3.09676 0.94248 0
M  V30 15292 H 1469.2 -2.15338 3.05909 0
M  V30 15293 H 1470.54 -2.84927 4.01345 0
M  V30 15294 N 1472.19 -1.41197 -0.700089 0
M  V30 15295 C 1473.43 -1.41775 -1.47239 0
M  V30 15296 C 1473.79 -0.0239874 -1.91985 0
M  V30 15297 O 1474.99 0.0954207 -2.68631 0
M  V30 15298 C 1473.26 -2.39268 -2.65491 0
M  V30 15299 S 1474.82 -2.58337 -3.54693 0
M  V30 15300 H 1471.64 -0.502298 -0.503207 0
M  V30 15301 H 1474.24 -1.77596 -0.817296 0
M  V30 15302 H 1472.95 -3.39342 -2.30815 0
M  V30 15303 H 1472.48 -2.04784 -3.35897 0
M  V30 15304 H 1474.49 -1.84739 -4.60528 0
M  V30 15305 N 1473.67 0.933891 -1.2695 0
M  V30 15306 C 1474.91 1.67539 -1.1231 0
M  V30 15307 C 1475.23 1.92765 0.331788 0
M  V30 15308 O 1476.43 2.6481 0.598983 0
M  V30 15309 C 1474.89 3.01722 -1.96194 0
M  V30 15310 C 1474.5 2.84216 -3.46302 0
M  V30 15311 C 1476.24 3.79513 -1.90185 0
M  V30 15312 C 1474.15 4.13916 -4.22407 0
M  V30 15313 H 1473.08 0.62839 -0.416704 0
M  V30 15314 H 1475.73 1.03801 -1.5132 0
M  V30 15315 H 1474.11 3.66482 -1.50023 0
M  V30 15316 H 1475.29 2.28261 -4.00292 0
M  V30 15317 H 1473.6 2.1986 -3.53625 0
M  V30 15318 H 1476.2 4.75615 -2.44325 0
M  V30 15319 H 1476.54 4.07019 -0.874129 0
M  V30 15320 H 1477.07 3.21539 -2.34217 0
M  V30 15321 H 1473.81 3.91591 -5.25677 0
M  V30 15322 H 1473.33 4.69558 -3.73196 0
M  V30 15323 H 1475.01 4.82322 -4.31248 0
M  V30 15324 N 1475.14 1.08871 1.13951 0
M  V30 15325 C 1476.11 0.726655 2.17376 0
M  V30 15326 C 1477.11 -0.240922 1.58985 0
M  V30 15327 O 1478.3 -0.0198472 1.74189 0
M  V30 15328 C 1475.43 0.0736505 3.4082 0
M  V30 15329 H 1476.62 1.64254 2.5092 0
M  V30 15330 H 1474.17 0.887183 1.28681 0
M  V30 15331 H 1474.91 -0.853733 3.12861 0
M  V30 15332 H 1474.69 0.769782 3.84469 0
M  V30 15333 H 1476.18 -0.164465 4.17276 0
M  V30 15334 N 1476.62 -1.31073 0.875073 0
M  V30 15335 C 1477.53 -2.3215 0.338196 0
M  V30 15336 C 1478.55 -1.64928 -0.554504 0
M  V30 15337 O 1479.72 -1.96308 -0.449998 0
M  V30 15338 C 1476.79 -3.43804 -0.447163 0
M  V30 15339 C 1475.85 -4.26674 0.474106 0
M  V30 15340 C 1475.08 -5.32997 -0.273867 0
M  V30 15341 O 1475.31 -5.50288 -1.50129 0
M  V30 15342 O 1474.24 -6.00756 0.370913 0
M  V30 15343 H 1478.07 -2.80002 1.17612 0
M  V30 15344 H 1475.65 -1.35064 0.6386 0
M  V30 15345 H 1477.53 -4.11847 -0.892199 0
M  V30 15346 H 1476.21 -2.98105 -1.26155 0
M  V30 15347 H 1475.11 -3.61366 0.967748 0
M  V30 15348 H 1476.45 -4.75952 1.25423 0
M  V30 15349 N 1478.1 -0.635022 -1.4424 0
M  V30 15350 C 1479.01 0.0686832 -2.34499 0
M  V30 15351 C 1480.03 0.831574 -1.52843 0
M  V30 15352 O 1481.2 0.782954 -1.85558 0
M  V30 15353 C 1478.27 1.03543 -3.30877 0
M  V30 15354 C 1477.33 0.271484 -4.28441 0
M  V30 15355 C 1476.56 1.19218 -5.20214 0
M  V30 15356 O 1476.78 2.43101 -5.16002 0
M  V30 15357 O 1475.72 0.6744 -5.9811 0
M  V30 15358 H 1479.54 -0.673781 -2.96132 0
M  V30 15359 H 1477.13 -0.395211 -1.44078 0
M  V30 15360 H 1479.01 1.59151 -3.90191 0
M  V30 15361 H 1477.69 1.75844 -2.71773 0
M  V30 15362 H 1476.59 -0.327736 -3.72662 0
M  V30 15363 H 1477.93 -0.411584 -4.90476 0
M  V30 15364 N 1479.58 1.53054 -0.375806 0
M  V30 15365 C 1480.51 2.23664 0.500685 0
M  V30 15366 C 1481.52 1.25432 1.03782 0
M  V30 15367 O 1482.71 1.51592 0.942451 0
M  V30 15368 C 1479.81 2.9288 1.70513 0
M  V30 15369 C 1478.99 4.17706 1.29772 0
M  V30 15370 C 1478.04 4.7004 2.36536 0
M  V30 15371 O 1477.07 5.33466 1.98502 0
M  V30 15372 N 1478.27 4.48732 3.68266 0
M  V30 15373 H 1481.04 2.99519 -0.104201 0
M  V30 15374 H 1478.6 1.60641 -0.201488 0
M  V30 15375 H 1480.59 3.24795 2.41433 0
M  V30 15376 H 1479.16 2.20416 2.21665 0
M  V30 15377 H 1478.38 3.91978 0.41795 0
M  V30 15378 H 1479.67 4.98837 1.00197 0
M  V30 15379 H 1479.07 3.98075 4.01936 0
M  V30 15380 H 1477.62 4.85172 4.3526 0
M  V30 15381 N 1481.06 0.105248 1.57248 0
M  V30 15382 C 1482.3 -0.554956 1.94331 0
M  V30 15383 C 1482.63 -1.68087 0.988528 0
M  V30 15384 O 1481.9 -1.95854 0.042366 0
M  V30 15385 H 1480.48 -0.207994 0.717459 0
M  V30 15386 H 1483.14 0.170964 1.94149 0
M  V30 15387 H 1482.23 -0.95853 2.97016 0
M  V30 15388 N 1482.53 -1.56697 -0.168486 0
M  V30 15389 C 1483.46 -1.99659 -1.21073 0
M  V30 15390 C 1484.45 -0.872625 -1.46011 0
M  V30 15391 O 1485.63 -1.13891 -1.57297 0
M  V30 15392 C 1482.76 -2.35889 -2.54899 0
M  V30 15393 C 1481.71 -3.51272 -2.44524 0
M  V30 15394 C 1481.04 -3.73253 -3.82866 0
M  V30 15395 C 1482.34 -4.84631 -1.94756 0
M  V30 15396 H 1484.03 -2.86974 -0.853593 0
M  V30 15397 H 1481.58 -1.38065 -0.409165 0
M  V30 15398 H 1483.53 -2.64542 -3.28017 0
M  V30 15399 H 1482.26 -1.45486 -2.92406 0
M  V30 15400 H 1480.92 -3.22751 -1.7386 0
M  V30 15401 H 1480.56 -2.80136 -4.17772 0
M  V30 15402 H 1480.26 -4.5089 -3.76792 0
M  V30 15403 H 1481.79 -4.04309 -4.57566 0
M  V30 15404 H 1483.2 -5.12142 -2.5765 0
M  V30 15405 H 1481.6 -5.65925 -1.99623 0
M  V30 15406 H 1482.67 -4.76436 -0.902021 0
M  V30 15407 N 1484.01 0.437135 -1.51416 0
M  V30 15408 C 1485.24 1.21359 -1.68187 0
M  V30 15409 C 1485.66 1.84247 -0.378748 0
M  V30 15410 O 1485.02 1.68816 0.661115 0
M  V30 15411 C 1485.07 2.27319 -2.79926 0
M  V30 15412 O 1484.17 3.32807 -2.43543 0
M  V30 15413 H 1483.51 0.355547 -0.560787 0
M  V30 15414 H 1486.04 0.516204 -1.97981 0
M  V30 15415 H 1486.05 2.721 -3.04016 0
M  V30 15416 H 1484.73 1.80923 -3.74486 0
M  V30 15417 H 1483.31 2.93501 -2.30025 0
M  V30 15418 N 1485.49 1.41566 0.692592 0
M  V30 15419 C 1486.77 1.31572 1.44735 0
M  V30 15420 C 1487.15 -0.0553081 2.11028 0
M  V30 15421 O 1486.5 -1.06974 2.01913 0
M  V30 15422 C 1486.71 2.47125 2.46435 0
M  V30 15423 C 1488.05 2.88427 3.11601 0
M  V30 15424 O 1489.08 2.46886 2.5676 0
M  V30 15425 O 1487.94 3.6027 4.10935 0
M  V30 15426 H 1485.03 0.517949 0.644715 0
M  V30 15427 H 1487.58 1.53536 0.722818 0
M  V30 15428 H 1486.35 3.38601 1.96124 0
M  V30 15429 H 1485.97 2.27054 3.26393 0
M  V30 15430 N 1486.97 -0.927146 1.27443 0
M  V30 15431 C 1488.2 -1.70648 1.1646 0
M  V30 15432 C 1488.61 -1.871 -0.28114 0
M  V30 15433 O 1487.95 -1.38813 -1.20319 0
M  V30 15434 C 1488.01 -3.12542 1.77646 0
M  V30 15435 C 1487.68 -3.19425 3.26828 0
M  V30 15436 C 1488.67 -3.01633 4.23454 0
M  V30 15437 C 1486.36 -3.42366 3.67547 0
M  V30 15438 C 1488.35 -3.06672 5.58776 0
M  V30 15439 C 1486.04 -3.47039 5.02998 0
M  V30 15440 C 1487.04 -3.2921 5.98423 0
M  V30 15441 O 1486.72 -3.33619 7.31405 0
M  V30 15442 H 1486.46 -0.540657 0.40579 0
M  V30 15443 H 1489.01 -1.16983 1.68832 0
M  V30 15444 H 1487.24 -3.67691 1.19752 0
M  V30 15445 H 1488.93 -3.72445 1.61369 0
M  V30 15446 H 1489.7 -2.8375 3.93333 0
M  V30 15447 H 1485.57 -3.55294 2.93747 0
M  V30 15448 H 1489.12 -2.92674 6.33236 0
M  V30 15449 H 1485.02 -3.64446 5.32775 0
M  V30 15450 H 1485.78 -3.5007 7.3986 0
M  V30 15451 N 1488.45 -1.09474 -1.13372 0
M  V30 15452 C 1489.7 -0.825968 -1.84013 0
M  V30 15453 C 1490.01 0.650623 -1.84462 0
M  V30 15454 O 1491.21 1.03495 -2.51 0
M  V30 15455 C 1489.67 -1.42769 -3.30371 0
M  V30 15456 C 1489.28 -2.93686 -3.38308 0
M  V30 15457 C 1491.02 -1.23788 -4.0605 0
M  V30 15458 C 1488.93 -3.46942 -4.78942 0
M  V30 15459 H 1487.86 -0.305322 -0.689416 0
M  V30 15460 H 1490.51 -1.31751 -1.27726 0
M  V30 15461 H 1488.89 -0.86384 -3.86463 0
M  V30 15462 H 1490.07 -3.56302 -2.92208 0
M  V30 15463 H 1488.38 -3.11706 -2.76094 0
M  V30 15464 H 1490.98 -1.61031 -5.09876 0
M  V30 15465 H 1491.32 -0.178578 -4.15917 0
M  V30 15466 H 1491.85 -1.76927 -3.56289 0
M  V30 15467 H 1488.59 -4.52495 -4.74267 0
M  V30 15468 H 1488.11 -2.8909 -5.25535 0
M  V30 15469 H 1489.79 -3.44176 -5.47861 0
M  V30 15470 N 1489.92 1.30607 -0.882012 0
M  V30 15471 C 1491.15 2.00418 -0.513815 0
M  V30 15472 C 1491.57 1.66135 0.896916 0
M  V30 15473 O 1490.92 0.89691 1.5894 0
M  V30 15474 C 1490.98 3.55133 -0.675503 0
M  V30 15475 O 1490.7 3.88194 -2.03069 0
M  V30 15476 C 1492.2 4.42215 -0.309906 0
M  V30 15477 H 1489.42 0.640839 -0.198913 0
M  V30 15478 H 1491.96 1.66561 -1.1865 0
M  V30 15479 H 1490.12 3.87367 -0.0502289 0
M  V30 15480 H 1490.53 4.82899 -2.04717 0
M  V30 15481 H 1492 5.49962 -0.473948 0
M  V30 15482 H 1492.48 4.32717 0.751852 0
M  V30 15483 H 1493.09 4.1542 -0.91138 0
M  V30 15484 N 1491.4 0.642663 1.43901 0
M  V30 15485 C 1492.65 0.151478 2.01532 0
M  V30 15486 C 1492.97 -1.23519 1.50891 0
M  V30 15487 O 1492.24 -1.82299 0.717197 0
M  V30 15488 H 1490.82 0.0530091 0.745117 0
M  V30 15489 H 1493.48 0.831958 1.76251 0
M  V30 15490 H 1492.58 0.127995 3.11837 0
M  V30 15491 N 1492.88 -1.52852 0.383918 0
M  V30 15492 C 1493.81 -2.29213 -0.44539 0
M  V30 15493 C 1494.79 -1.3238 -1.06815 0
M  V30 15494 O 1495.98 -1.61269 -1.08194 0
M  V30 15495 C 1493.11 -3.09497 -1.57573 0
M  V30 15496 C 1492.06 -4.14168 -1.07928 0
M  V30 15497 C 1491.39 -4.82644 -2.30128 0
M  V30 15498 C 1492.69 -5.22082 -0.151035 0
M  V30 15499 H 1494.38 -2.98786 0.19172 0
M  V30 15500 H 1491.93 -1.43695 0.0936471 0
M  V30 15501 H 1493.88 -3.61672 -2.16267 0
M  V30 15502 H 1492.6 -2.37647 -2.24034 0
M  V30 15503 H 1491.26 -3.62966 -0.514909 0
M  V30 15504 H 1490.91 -4.07348 -2.95087 0
M  V30 15505 H 1490.61 -5.53388 -1.97574 0
M  V30 15506 H 1492.14 -5.37621 -2.89475 0
M  V30 15507 H 1493.55 -5.69649 -0.646003 0
M  V30 15508 H 1491.95 -6.00041 0.0844833 0
M  V30 15509 H 1493.02 -4.78228 0.801618 0
M  V30 15510 N 1494.36 -0.113586 -1.5719 0
M  V30 15511 C 1495.61 0.544642 -1.94623 0
M  V30 15512 C 1495.93 1.6756 -0.997428 0
M  V30 15513 O 1495.2 1.95829 -0.0527521 0
M  V30 15514 H 1493.78 0.204186 -0.718552 0
M  V30 15515 H 1496.44 -0.181258 -1.94055 0
M  V30 15516 H 1495.54 0.942765 -2.9752 0
M  V30 15517 N 1495.84 1.56784 0.160173 0
M  V30 15518 C 1497.25 1.51153 0.512352 0
M  V30 15519 C 1497.45 0.819774 1.84071 0
M  V30 15520 O 1496.51 0.384789 2.49551 0
M  V30 15521 C 1497.82 2.95906 0.534817 0
M  V30 15522 C 1499.37 3.06773 0.621248 0
M  V30 15523 C 1499.85 4.53006 0.674501 0
M  V30 15524 N 1501.34 4.57298 0.737087 0
M  V30 15525 C 1502.07 5.67805 0.799054 0
M  V30 15526 N 1501.57 6.87916 0.821171 0
M  V30 15527 N 1503.36 5.55804 0.838928 0
M  V30 15528 H 1495.51 2.00157 -0.710712 0
M  V30 15529 H 1497.77 0.91233 -0.257601 0
M  V30 15530 H 1497.48 3.49719 -0.372773 0
M  V30 15531 H 1497.35 3.51152 1.3774 0
M  V30 15532 H 1499.74 2.52987 1.51926 0
M  V30 15533 H 1499.82 2.54593 -0.248224 0
M  V30 15534 H 1499.47 5.07426 -0.219301 0
M  V30 15535 H 1499.4 5.02954 1.56028 0
M  V30 15536 H 1501.89 3.70825 0.727827 0
M  V30 15537 H 1502.2 7.67888 0.869938 0
M  V30 15538 H 1500.55 6.90504 0.789264 0
M  V30 15539 H 1503.74 4.60884 0.818728 0
M  V30 15540 H 1503.91 6.41945 0.883757 0
M  V30 15541 N 1497.32 -0.429099 1.51646 0
M  V30 15542 C 1498.28 -1.50398 1.72954 0
M  V30 15543 C 1499.28 -1.49207 0.599491 0
M  V30 15544 O 1500.47 -1.51084 0.867143 0
M  V30 15545 C 1497.6 -2.89903 1.79358 0
M  V30 15546 H 1498.79 -1.32805 2.68892 0
M  V30 15547 H 1496.35 -0.658313 1.4176 0
M  V30 15548 H 1497.08 -3.12891 0.852639 0
M  V30 15549 H 1496.87 -2.92171 2.61492 0
M  V30 15550 H 1498.36 -3.67862 1.97654 0
M  V30 15551 N 1498.79 -1.41931 -0.685074 0
M  V30 15552 C 1500.04 -1.41852 -1.44514 0
M  V30 15553 C 1500.37 -0.0313137 -1.94475 0
M  V30 15554 O 1499.62 0.958606 -1.70614 0
M  V30 15555 C 1499.92 -2.38099 -2.6654 0
M  V30 15556 C 1499.59 -3.8471 -2.35178 0
M  V30 15557 C 1498.25 -4.24647 -2.26336 0
M  V30 15558 C 1500.6 -4.77232 -2.0952 0
M  V30 15559 C 1497.93 -5.55101 -1.89947 0
M  V30 15560 C 1500.28 -6.08017 -1.74638 0
M  V30 15561 C 1498.95 -6.46964 -1.64299 0
M  V30 15562 H 1498.22 -0.519072 -0.528815 0
M  V30 15563 H 1500.86 -1.74802 -0.782078 0
M  V30 15564 H 1499.17 -1.9844 -3.3783 0
M  V30 15565 H 1500.87 -2.35306 -3.24703 0
M  V30 15566 H 1497.46 -3.53085 -2.42959 0
M  V30 15567 H 1501.64 -4.47173 -2.1529 0
M  V30 15568 H 1496.9 -5.84148 -1.80503 0
M  V30 15569 H 1501.07 -6.79203 -1.53807 0
M  V30 15570 H 1498.7 -7.47959 -1.35871 0
M  V30 15571 N 1500.27 0.920374 -1.27933 0
M  V30 15572 C 1501.52 1.66554 -1.14474 0
M  V30 15573 C 1501.84 1.92545 0.308444 0
M  V30 15574 O 1501.11 1.53691 1.21473 0
M  V30 15575 H 1499.69 0.617302 -0.420651 0
M  V30 15576 H 1502.35 1.10473 -1.60567 0
M  V30 15577 H 1501.45 2.63067 -1.67935 0
M  V30 15578 N 1501.75 1.10074 1.1279 0
M  V30 15579 C 1503 0.842118 1.84489 0
M  V30 15580 C 1503.33 -0.630737 1.83672 0
M  V30 15581 O 1502.6 -1.46481 1.27959 0
M  V30 15582 C 1502.89 1.3864 3.32342 0
M  V30 15583 C 1502.74 2.92585 3.41635 0
M  V30 15584 C 1504.06 1.02565 4.27982 0
M  V30 15585 H 1501.18 0.307376 0.669842 0
M  V30 15586 H 1503.82 1.36326 1.32345 0
M  V30 15587 H 1501.97 0.943134 3.76878 0
M  V30 15588 H 1503.64 3.4541 3.0576 0
M  V30 15589 H 1501.88 3.29378 2.82299 0
M  V30 15590 H 1502.56 3.25749 4.45636 0
M  V30 15591 H 1505.03 1.40807 3.91552 0
M  V30 15592 H 1503.91 1.43345 5.29852 0
M  V30 15593 H 1504.17 -0.0653712 4.42052 0
M  V30 15594 N 1503.23 -1.30138 0.888926 0
M  V30 15595 C 1504.48 -1.95602 0.508359 0
M  V30 15596 C 1504.8 -1.70495 -0.946377 0
M  V30 15597 O 1504.07 -1.03073 -1.66592 0
M  V30 15598 H 1502.65 -0.723728 0.185006 0
M  V30 15599 H 1505.31 -1.58594 1.13286 0
M  V30 15600 H 1504.4 -3.04559 0.681915 0
M  V30 15601 N 1504.71 -0.650285 -1.43559 0
M  V30 15602 C 1505.95 -0.162484 -2.01847 0
M  V30 15603 C 1506.28 1.22251 -1.51278 0
M  V30 15604 O 1505.54 1.82939 -0.695115 0
M  V30 15605 C 1505.83 -0.119084 -3.57202 0
M  V30 15606 C 1505.5 -1.44543 -4.27104 0
M  V30 15607 C 1504.16 -1.80864 -4.45917 0
M  V30 15608 C 1506.51 -2.32005 -4.66715 0
M  V30 15609 C 1503.84 -3.04319 -5.01604 0
M  V30 15610 C 1506.19 -3.54748 -5.23771 0
M  V30 15611 C 1504.86 -3.9127 -5.408 0
M  V30 15612 H 1504.13 -0.0594573 -0.738611 0
M  V30 15613 H 1506.78 -0.84041 -1.72074 0
M  V30 15614 H 1505.08 0.642282 -3.865 0
M  V30 15615 H 1506.78 0.275168 -4.00055 0
M  V30 15616 H 1503.37 -1.15281 -4.12805 0
M  V30 15617 H 1507.55 -2.05234 -4.51877 0
M  V30 15618 H 1502.81 -3.32668 -5.12974 0
M  V30 15619 H 1506.98 -4.2274 -5.53411 0
M  V30 15620 H 1504.61 -4.87011 -5.83716 0
M  V30 15621 N 1506.18 1.52647 -0.392018 0
M  V30 15622 C 1507.41 2.06032 0.189293 0
M  V30 15623 C 1507.83 1.26351 1.40288 0
M  V30 15624 O 1507.18 0.310877 1.79833 0
M  V30 15625 C 1507.23 3.57187 0.55672 0
M  V30 15626 O 1506.96 4.33851 -0.608657 0
M  V30 15627 C 1508.46 4.26929 1.1936 0
M  V30 15628 H 1505.68 0.670419 0.0279177 0
M  V30 15629 H 1508.22 1.96739 -0.558033 0
M  V30 15630 H 1506.38 3.66545 1.25394 0
M  V30 15631 H 1506.79 5.23606 -0.306039 0
M  V30 15632 H 1508.26 5.33924 1.40104 0
M  V30 15633 H 1508.74 3.82315 2.16175 0
M  V30 15634 H 1509.35 4.21895 0.537069 0
M  V30 15635 N 1507.66 0.121921 1.57128 0
M  V30 15636 C 1508.94 -0.579087 1.86831 0
M  V30 15637 C 1509.32 -1.84623 1.0236 0
M  V30 15638 O 1508.67 -2.28266 0.103326 0
M  V30 15639 C 1508.88 -0.86872 3.38015 0
M  V30 15640 C 1510.23 -1.22051 4.0668 0
M  V30 15641 O 1511.25 -0.958889 3.43051 0
M  V30 15642 O 1510.11 -1.71164 5.19004 0
M  V30 15643 H 1507.2 -0.292539 0.773531 0
M  V30 15644 H 1509.75 0.156644 1.68975 0
M  V30 15645 H 1508.52 0.0291056 3.91289 0
M  V30 15646 H 1508.14 -1.65951 3.61312 0
M  V30 15647 N 1509.14 -1.56867 -0.151857 0
M  V30 15648 C 1510.07 -1.94494 -1.21263 0
M  V30 15649 C 1511.09 -0.84021 -1.39443 0
M  V30 15650 O 1512.27 -1.11863 -1.391 0
M  V30 15651 C 1509.37 -2.19952 -2.57826 0
M  V30 15652 C 1508.55 -3.51227 -2.60689 0
M  V30 15653 C 1507.61 -3.65282 -3.78756 0
M  V30 15654 O 1506.63 -4.3772 -3.63854 0
M  V30 15655 N 1507.83 -3.01582 -4.96012 0
M  V30 15656 H 1510.6 -2.86092 -0.892845 0
M  V30 15657 H 1508.16 -1.58258 -0.341463 0
M  V30 15658 H 1510.15 -2.266 -3.35312 0
M  V30 15659 H 1508.72 -1.34643 -2.82117 0
M  V30 15660 H 1507.94 -3.56062 -1.69155 0
M  V30 15661 H 1509.23 -4.37574 -2.59628 0
M  V30 15662 H 1508.63 -2.42637 -5.11022 0
M  V30 15663 H 1507.19 -3.13799 -5.71291 0
M  V30 15664 N 1510.62 0.421051 -1.51871 0
M  V30 15665 C 1511.87 1.16611 -1.64574 0
M  V30 15666 C 1512.18 1.91955 -0.375835 0
M  V30 15667 O 1513.39 2.68792 -0.382481 0
M  V30 15668 C 1511.84 2.12164 -2.90714 0
M  V30 15669 C 1511.45 1.42392 -4.24769 0
M  V30 15670 C 1513.19 2.87002 -3.12778 0
M  V30 15671 C 1511.1 2.36523 -5.42043 0
M  V30 15672 H 1510.03 0.438989 -0.613029 0
M  V30 15673 H 1512.68 0.431636 -1.78351 0
M  V30 15674 H 1511.06 2.89114 -2.70608 0
M  V30 15675 H 1512.24 0.708875 -4.55315 0
M  V30 15676 H 1510.55 0.796421 -4.08713 0
M  V30 15677 H 1513.15 3.5755 -3.9757 0
M  V30 15678 H 1513.49 3.49277 -2.2652 0
M  V30 15679 H 1514.03 2.17154 -3.333 0
M  V30 15680 H 1510.77 1.78913 -6.30611 0
M  V30 15681 H 1510.29 3.06034 -5.15852 0
M  V30 15682 H 1511.96 2.97306 -5.74646 0
M  V30 15683 N 1512.1 1.42293 0.677538 0
M  V30 15684 C 1513.32 1.46214 1.47092 0
M  V30 15685 C 1513.75 0.0740989 1.87954 0
M  V30 15686 O 1513.1 -0.926831 1.55819 0
M  V30 15687 C 1513.15 2.39236 2.69812 0
M  V30 15688 O 1512.26 1.86183 3.6798 0
M  V30 15689 H 1511.6 0.495507 0.442006 0
M  V30 15690 H 1514.13 1.86952 0.831274 0
M  V30 15691 H 1514.14 2.55723 3.17915 0
M  V30 15692 H 1512.81 3.40081 2.39411 0
M  V30 15693 H 1511.39 1.79237 3.26999 0
M  V30 15694 N 1513.57 -0.913576 1.28419 0
M  V30 15695 C 1514.8 -1.69649 1.18435 0
M  V30 15696 C 1515.22 -1.87043 -0.256987 0
M  V30 15697 O 1514.57 -1.39755 -1.17366 0
M  V30 15698 C 1514.63 -3.08855 1.87859 0
M  V30 15699 O 1514.35 -2.92265 3.26363 0
M  V30 15700 C 1515.85 -4.03229 1.84178 0
M  V30 15701 H 1513.07 -0.530307 0.411115 0
M  V30 15702 H 1515.61 -1.14342 1.69547 0
M  V30 15703 H 1513.77 -3.60979 1.40617 0
M  V30 15704 H 1514.18 -3.80372 3.61134 0
M  V30 15705 H 1515.65 -4.98369 2.37344 0
M  V30 15706 H 1516.13 -4.31587 0.814195 0
M  V30 15707 H 1516.74 -3.57033 2.311 0
M  V30 15708 N 1515.05 -1.1067 -1.12204 0
M  V30 15709 C 1516 -0.757745 -2.18007 0
M  V30 15710 C 1516.97 0.26706 -1.63939 0
M  V30 15711 O 1518.15 0.145789 -1.90242 0
M  V30 15712 C 1515.29 -0.198379 -3.44529 0
M  V30 15713 C 1514.41 -1.27878 -4.12639 0
M  V30 15714 C 1513.54 -0.6808 -5.26819 0
M  V30 15715 C 1512.58 -1.74161 -5.868 0
M  V30 15716 N 1511.72 -1.16372 -6.92389 0
M  V30 15717 H 1516.56 -1.66418 -2.47202 0
M  V30 15718 H 1514.1 -0.831216 -1.21364 0
M  V30 15719 H 1516.05 0.143838 -4.16952 0
M  V30 15720 H 1514.68 0.671279 -3.15743 0
M  V30 15721 H 1513.74 -1.73808 -3.38371 0
M  V30 15722 H 1515.05 -2.08169 -4.53285 0
M  V30 15723 H 1514.2 -0.288172 -6.06015 0
M  V30 15724 H 1512.94 0.153521 -4.87458 0
M  V30 15725 H 1511.95 -2.14364 -5.06289 0
M  V30 15726 H 1513.17 -2.57882 -6.28231 0
M  V30 15727 H 1511.12 -0.350899 -6.55061 0
M  V30 15728 H 1511.03 -1.90344 -7.31646 0
M  V30 15729 H 1512.3 -0.797715 -7.75407 0
M  V30 15730 N 1516.53 1.29665 -0.895815 0
M  V30 15731 C 1517.78 1.96006 -0.520522 0
M  V30 15732 C 1518.11 1.7048 0.930068 0
M  V30 15733 O 1517.38 1.01558 1.6588 0
M  V30 15734 C 1517.67 3.50897 -0.808925 0
M  V30 15735 C 1517.52 3.85896 -2.31093 0
M  V30 15736 C 1518.84 4.39125 -0.292769 0
M  V30 15737 H 1515.96 0.711931 -0.190588 0
M  V30 15738 H 1518.6 1.53349 -1.12179 0
M  V30 15739 H 1516.75 3.87362 -0.297194 0
M  V30 15740 H 1518.42 3.59397 -2.89191 0
M  V30 15741 H 1516.67 3.33578 -2.77323 0
M  V30 15742 H 1517.34 4.93989 -2.46331 0
M  V30 15743 H 1519.81 4.0963 -0.730906 0
M  V30 15744 H 1518.69 5.46395 -0.523799 0
M  V30 15745 H 1518.95 4.34683 0.806393 0
M  V30 15746 N 1518.01 0.657889 1.43212 0
M  V30 15747 C 1519.24 0.181072 2.06106 0
M  V30 15748 C 1519.65 -1.15513 1.49339 0
M  V30 15749 O 1519.01 -1.71409 0.626517 0
M  V30 15750 C 1519.06 0.0890244 3.6139 0
M  V30 15751 O 1518.78 1.37241 4.16049 0
M  V30 15752 C 1520.28 -0.413313 4.41369 0
M  V30 15753 H 1517.5 0.0920577 0.664655 0
M  V30 15754 H 1520.05 0.899855 1.83638 0
M  V30 15755 H 1518.2 -0.580345 3.83028 0
M  V30 15756 H 1518.61 1.23467 5.09761 0
M  V30 15757 H 1520.09 -0.426663 5.50349 0
M  V30 15758 H 1520.57 -1.44549 4.14731 0
M  V30 15759 H 1521.17 0.223727 4.24711 0
M  V30 15760 N 1519.49 -1.52437 0.400108 0
M  V30 15761 C 1520.4 -2.30496 -0.436875 0
M  V30 15762 C 1521.41 -1.37851 -1.06175 0
M  V30 15763 O 1522.59 -1.70924 -1.06522 0
M  V30 15764 C 1519.65 -3.10459 -1.54325 0
M  V30 15765 C 1518.71 -4.18829 -0.942367 0
M  V30 15766 C 1517.95 -4.94969 -1.99602 0
M  V30 15767 O 1518.17 -4.71314 -3.21278 0
M  V30 15768 O 1517.1 -5.80043 -1.60728 0
M  V30 15769 H 1520.93 -3.03045 0.199343 0
M  V30 15770 H 1518.52 -1.48502 0.163541 0
M  V30 15771 H 1520.4 -3.60282 -2.18575 0
M  V30 15772 H 1519.07 -2.40713 -2.16423 0
M  V30 15773 H 1517.98 -3.73176 -0.262831 0
M  V30 15774 H 1519.31 -4.90841 -0.365441 0
M  V30 15775 N 1520.96 -0.130252 -1.57061 0
M  V30 15776 C 1521.89 0.812189 -2.18919 0
M  V30 15777 C 1522.88 1.2692 -1.13249 0
M  V30 15778 O 1524.06 1.32978 -1.41529 0
M  V30 15779 C 1521.19 2.05803 -2.79754 0
M  V30 15780 C 1520.14 1.73841 -3.91105 0
M  V30 15781 C 1519.47 3.05549 -4.38799 0
M  V30 15782 C 1520.77 0.997991 -5.12677 0
M  V30 15783 H 1522.46 0.296692 -2.97926 0
M  V30 15784 H 1520.01 0.141265 -1.43305 0
M  V30 15785 H 1521.96 2.72201 -3.21691 0
M  V30 15786 H 1520.69 2.59697 -1.98053 0
M  V30 15787 H 1519.35 1.09828 -3.49762 0
M  V30 15788 H 1518.99 3.57399 -3.53942 0
M  V30 15789 H 1518.69 2.84932 -5.13894 0
M  V30 15790 H 1520.22 3.73045 -4.83394 0
M  V30 15791 H 1521.63 1.56372 -5.51562 0
M  V30 15792 H 1520.03 0.892378 -5.93428 0
M  V30 15793 H 1521.1 -0.0132936 -4.84898 0
M  V30 15794 N 1522.44 1.56945 0.143535 0
M  V30 15795 C 1523.38 1.95134 1.2023 0
M  V30 15796 C 1524.39 0.847593 1.38995 0
M  V30 15797 O 1525.58 1.12599 1.38505 0
M  V30 15798 C 1522.68 2.21316 2.56656 0
M  V30 15799 C 1521.85 3.52604 2.58822 0
M  V30 15800 C 1520.91 3.67285 3.76813 0
M  V30 15801 O 1519.94 4.39644 3.61527 0
M  V30 15802 N 1521.14 3.04208 4.94406 0
M  V30 15803 H 1523.9 2.86561 0.87766 0
M  V30 15804 H 1521.46 1.58437 0.333065 0
M  V30 15805 H 1523.46 2.28375 3.34106 0
M  V30 15806 H 1522.03 1.36137 2.81399 0
M  V30 15807 H 1521.25 3.56954 1.67264 0
M  V30 15808 H 1522.53 4.38944 2.57304 0
M  V30 15809 H 1521.93 2.45344 5.09728 0
M  V30 15810 H 1520.49 3.16824 5.69619 0
M  V30 15811 N 1523.92 -0.412991 1.52093 0
M  V30 15812 C 1524.83 -1.52768 1.78042 0
M  V30 15813 C 1525.85 -1.60758 0.665791 0
M  V30 15814 O 1527.02 -1.77545 0.950772 0
M  V30 15815 C 1524.09 -2.8854 1.92213 0
M  V30 15816 C 1523.15 -2.90468 3.16112 0
M  V30 15817 C 1522.38 -4.19763 3.29598 0
M  V30 15818 O 1522.61 -5.13454 2.48438 0
M  V30 15819 O 1521.54 -4.2847 4.22726 0
M  V30 15820 H 1525.37 -1.33777 2.72649 0
M  V30 15821 H 1522.95 -0.598461 1.3689 0
M  V30 15822 H 1524.83 -3.69073 2.03379 0
M  V30 15823 H 1523.51 -3.07607 1.00795 0
M  V30 15824 H 1522.41 -2.08801 3.10408 0
M  V30 15825 H 1523.75 -2.76349 4.07298 0
M  V30 15826 N 1525.4 -1.4265 -0.669982 0
M  V30 15827 C 1526.65 -1.43589 -1.43213 0
M  V30 15828 C 1526.98 -0.0537998 -1.94125 0
M  V30 15829 O 1526.25 0.922727 -1.71219 0
M  V30 15830 C 1526.54 -2.46433 -2.62569 0
M  V30 15831 C 1526.39 -3.93851 -2.17258 0
M  V30 15832 C 1527.71 -2.46208 -3.64787 0
M  V30 15833 H 1524.83 -0.522859 -0.519411 0
M  V30 15834 H 1527.47 -1.74094 -0.760997 0
M  V30 15835 H 1525.62 -2.20551 -3.19828 0
M  V30 15836 H 1527.29 -4.30732 -1.6513 0
M  V30 15837 H 1525.53 -4.07487 -1.48786 0
M  V30 15838 H 1526.21 -4.61398 -3.03012 0
M  V30 15839 H 1528.68 -2.69237 -3.17255 0
M  V30 15840 H 1527.56 -3.20138 -4.45873 0
M  V30 15841 H 1527.82 -1.48979 -4.16242 0
M  V30 15842 N 1526.88 0.906753 -1.28902 0
M  V30 15843 C 1527.84 1.99158 -1.1344 0
M  V30 15844 C 1528.84 1.60639 -0.0719551 0
M  V30 15845 O 1530.03 1.71267 -0.318317 0
M  V30 15846 C 1527.16 3.32923 -0.733172 0
M  V30 15847 H 1528.36 2.14305 -2.09794 0
M  V30 15848 H 1525.91 1.09034 -1.11988 0
M  V30 15849 H 1526.64 3.23477 0.230826 0
M  V30 15850 H 1526.43 3.62244 -1.50073 0
M  V30 15851 H 1527.92 4.12544 -0.64784 0
M  V30 15852 N 1528.36 1.11264 1.11616 0
M  V30 15853 C 1529.3 0.769295 2.17602 0
M  V30 15854 C 1530.27 -0.258362 1.64078 0
M  V30 15855 O 1531.46 -0.135698 1.90317 0
M  V30 15856 C 1528.6 0.216647 3.44419 0
M  V30 15857 C 1527.71 1.30064 4.11955 0
M  V30 15858 C 1526.85 0.708729 5.26451 0
M  V30 15859 C 1525.88 1.7727 5.85868 0
M  V30 15860 N 1525.02 1.20042 6.91762 0
M  V30 15861 H 1529.86 1.67727 2.46316 0
M  V30 15862 H 1527.4 0.83764 1.20921 0
M  V30 15863 H 1529.36 -0.121724 4.17022 0
M  V30 15864 H 1527.99 -0.654525 3.16095 0
M  V30 15865 H 1527.04 1.756 3.37445 0
M  V30 15866 H 1528.35 2.1057 4.52174 0
M  V30 15867 H 1527.5 0.320307 6.05854 0
M  V30 15868 H 1526.24 -0.127668 4.87533 0
M  V30 15869 H 1525.25 2.17046 5.05145 0
M  V30 15870 H 1526.47 2.6121 6.26854 0
M  V30 15871 H 1524.42 0.385633 6.54866 0
M  V30 15872 H 1524.34 1.94221 7.30626 0
M  V30 15873 H 1525.6 0.838825 7.74974 0
M  V30 15874 N 1529.83 -1.29188 0.902679 0
M  V30 15875 C 1531.11 -1.90365 0.449496 0
M  V30 15876 C 1531.49 -1.81911 -1.07105 0
M  V30 15877 O 1530.84 -1.24778 -1.91423 0
M  V30 15878 C 1531.05 -3.35324 0.967418 0
M  V30 15879 C 1532.4 -4.12342 1.0129 0
M  V30 15880 O 1533.42 -3.44239 0.915293 0
M  V30 15881 O 1532.28 -5.34048 1.15994 0
M  V30 15882 H 1529.37 -0.814956 0.140628 0
M  V30 15883 H 1531.92 -1.37633 0.992739 0
M  V30 15884 H 1530.69 -3.35646 2.0114 0
M  V30 15885 H 1530.31 -3.95539 0.404358 0
M  V30 15886 N 1531.31 -0.665475 -1.42861 0
M  V30 15887 C 1532.56 -0.183884 -2.01663 0
M  V30 15888 C 1532.89 1.2064 -1.52566 0
M  V30 15889 O 1532.14 1.82191 -0.714479 0
M  V30 15890 C 1532.44 -0.156963 -3.57055 0
M  V30 15891 C 1532.11 -1.49065 -4.25547 0
M  V30 15892 C 1530.77 -1.85584 -4.43973 0
M  V30 15893 C 1533.12 -2.36942 -4.64228 0
M  V30 15894 C 1530.45 -3.09622 -4.98348 0
M  V30 15895 C 1532.8 -3.60284 -5.19979 0
M  V30 15896 C 1531.46 -3.96984 -5.36619 0
M  V30 15897 H 1530.73 -0.0672879 -0.737939 0
M  V30 15898 H 1533.38 -0.858614 -1.71173 0
M  V30 15899 H 1531.69 0.601253 -3.87159 0
M  V30 15900 H 1533.38 0.232721 -4.00324 0
M  V30 15901 H 1529.97 -1.19653 -4.11559 0
M  V30 15902 H 1534.16 -2.10015 -4.49675 0
M  V30 15903 H 1529.41 -3.3809 -5.09417 0
M  V30 15904 H 1533.59 -4.28586 -5.48896 0
M  V30 15905 H 1531.21 -4.93175 -5.78518 0
M  V30 15906 N 1532.79 1.52222 -0.408187 0
M  V30 15907 C 1533.72 2.29892 0.408868 0
M  V30 15908 C 1534.7 1.34063 1.04695 0
M  V30 15909 O 1535.89 1.6297 1.05615 0
M  V30 15910 C 1533.02 3.11964 1.52629 0
M  V30 15911 C 1531.97 4.15833 1.01326 0
M  V30 15912 C 1531.3 4.86244 2.2242 0
M  V30 15913 C 1532.6 5.22256 0.0679573 0
M  V30 15914 H 1534.29 2.98443 -0.23923 0
M  V30 15915 H 1531.84 1.43528 -0.116496 0
M  V30 15916 H 1533.79 3.65067 2.10486 0
M  V30 15917 H 1532.51 2.41181 2.20225 0
M  V30 15918 H 1531.17 3.63739 0.4571 0
M  V30 15919 H 1530.82 4.11991 2.88569 0
M  V30 15920 H 1530.52 5.56461 1.88746 0
M  V30 15921 H 1532.04 5.42159 2.80885 0
M  V30 15922 H 1533.46 5.70604 0.555295 0
M  V30 15923 H 1531.85 5.9983 -0.179934 0
M  V30 15924 H 1532.92 4.76892 -0.877599 0
M  V30 15925 N 1534.27 0.138579 1.5699 0
M  V30 15926 C 1535.5 -0.521806 2.00212 0
M  V30 15927 C 1535.91 -1.58967 1.01857 0
M  V30 15928 O 1535.27 -1.82494 0.0143099 0
M  V30 15929 C 1535.32 -1.13014 3.4338 0
M  V30 15930 O 1535.04 -0.104938 4.37974 0
M  V30 15931 C 1536.54 -1.87195 4.01837 0
M  V30 15932 H 1533.76 -0.136564 0.656956 0
M  V30 15933 H 1536.3 0.230685 2.03195 0
M  V30 15934 H 1534.46 -1.8333 3.41275 0
M  V30 15935 H 1534.87 -0.54948 5.21614 0
M  V30 15936 H 1536.35 -2.25061 5.04035 0
M  V30 15937 H 1536.82 -2.75467 3.42074 0
M  V30 15938 H 1537.43 -1.21597 4.07547 0
M  V30 15939 N 1535.75 -1.57019 -0.13521 0
M  V30 15940 C 1536.97 -1.8816 -0.860434 0
M  V30 15941 C 1537.39 -0.728081 -1.74196 0
M  V30 15942 O 1536.75 0.301745 -1.79988 0
M  V30 15943 C 1536.8 -3.1864 -1.70737 0
M  V30 15944 O 1536.52 -4.29549 -0.861347 0
M  V30 15945 C 1538.02 -3.63376 -2.53915 0
M  V30 15946 H 1535.24 -0.623408 -0.248201 0
M  V30 15947 H 1537.78 -2.04121 -0.124461 0
M  V30 15948 H 1535.94 -3.04397 -2.39627 0
M  V30 15949 H 1536.35 -5.04233 -1.44393 0
M  V30 15950 H 1537.83 -4.57478 -3.08897 0
M  V30 15951 H 1538.3 -2.89238 -3.30512 0
M  V30 15952 H 1538.91 -3.80352 -1.90296 0
M  V30 15953 N 1537.22 0.404919 -1.52309 0
M  V30 15954 C 1538.17 1.49363 -1.75953 0
M  V30 15955 C 1539.14 1.54802 -0.60212 0
M  V30 15956 O 1540.33 1.71308 -0.840128 0
M  V30 15957 C 1537.47 2.86767 -1.91987 0
M  V30 15958 C 1536.58 2.90603 -3.19646 0
M  V30 15959 C 1535.71 4.19333 -3.26088 0
M  V30 15960 C 1534.75 4.17161 -4.47932 0
M  V30 15961 N 1533.89 5.37469 -4.51743 0
M  V30 15962 H 1538.73 1.28503 -2.6887 0
M  V30 15963 H 1536.27 0.623684 -1.33224 0
M  V30 15964 H 1538.23 3.66536 -1.99267 0
M  V30 15965 H 1536.86 3.06112 -1.02447 0
M  V30 15966 H 1535.91 2.033 -3.21517 0
M  V30 15967 H 1537.22 2.84864 -4.09456 0
M  V30 15968 H 1536.37 5.07497 -3.32463 0
M  V30 15969 H 1535.11 4.27774 -2.34224 0
M  V30 15970 H 1534.12 3.27386 -4.417 0
M  V30 15971 H 1535.34 4.10356 -5.41096 0
M  V30 15972 H 1533.29 5.46569 -3.62764 0
M  V30 15973 H 1533.21 5.3374 -5.35404 0
M  V30 15974 H 1534.47 6.27575 -4.62353 0
M  V30 15975 N 1538.7 1.43003 0.662408 0
M  V30 15976 C 1539.95 1.44346 1.4245 0
M  V30 15977 C 1540.28 0.064094 1.94094 0
M  V30 15978 O 1539.56 -0.913633 1.71706 0
M  V30 15979 C 1539.84 2.47822 2.61259 0
M  V30 15980 C 1539.69 3.94998 2.15166 0
M  V30 15981 C 1541.01 2.48139 3.63476 0
M  V30 15982 H 1538.13 0.525606 0.51663 0
M  V30 15983 H 1540.77 1.74495 0.751754 0
M  V30 15984 H 1538.92 2.22244 3.18653 0
M  V30 15985 H 1540.59 4.31601 1.62843 0
M  V30 15986 H 1538.84 4.0827 1.46622 0
M  V30 15987 H 1539.51 4.62998 3.00561 0
M  V30 15988 H 1541.98 2.70916 3.15823 0
M  V30 15989 H 1540.86 3.22498 4.44169 0
M  V30 15990 H 1541.12 1.51184 4.15447 0
M  V30 15991 N 1540.18 -0.899904 1.29381 0
M  V30 15992 C 1541.11 -2.02045 1.17047 0
M  V30 15993 C 1542.09 -1.69977 0.0647354 0
M  V30 15994 O 1543.28 -1.92659 0.244173 0
M  V30 15995 C 1540.41 -3.36839 0.845991 0
M  V30 15996 C 1539.36 -3.83117 1.90802 0
M  V30 15997 C 1538.69 -5.15032 1.43686 0
M  V30 15998 C 1539.99 -4.03464 3.31684 0
M  V30 15999 H 1541.68 -2.12623 2.10789 0
M  V30 16000 H 1539.23 -1.02162 1.01484 0
M  V30 16001 H 1541.18 -4.14737 0.746413 0
M  V30 16002 H 1539.9 -3.26352 -0.127125 0
M  V30 16003 H 1538.56 -3.07435 1.99698 0
M  V30 16004 H 1538.21 -5.00961 0.452422 0
M  V30 16005 H 1537.91 -5.46967 2.14711 0
M  V30 16006 H 1539.43 -5.95472 1.35078 0
M  V30 16007 H 1540.85 -4.71845 3.25631 0
M  V30 16008 H 1539.25 -4.46752 4.00665 0
M  V30 16009 H 1540.32 -3.07807 3.74677 0
M  V30 16010 N 1541.66 -1.11854 -1.11024 0
M  V30 16011 C 1542.88 -0.892999 -1.8719 0
M  V30 16012 C 1543.31 0.552058 -1.79816 0
M  V30 16013 O 1542.67 1.39025 -1.16369 0
M  V30 16014 C 1542.71 -1.3647 -3.33779 0
M  V30 16015 O 1541.82 -0.539202 -4.0886 0
M  V30 16016 H 1541.16 -0.321319 -0.581076 0
M  V30 16017 H 1543.69 -1.4891 -1.4031 0
M  V30 16018 H 1543.7 -1.3611 -3.84627 0
M  V30 16019 H 1542.37 -2.41694 -3.38462 0
M  V30 16020 H 1540.95 -0.60927 -3.67889 0
M  V30 16021 N 1543.14 1.28707 -0.909517 0
M  V30 16022 C 1544.08 2.27427 -0.393155 0
M  V30 16023 C 1545.05 1.57414 0.53009 0
M  V30 16024 O 1546.24 1.85339 0.453205 0
M  V30 16025 C 1543.38 3.4317 0.364507 0
M  V30 16026 C 1542.49 4.27942 -0.590757 0
M  V30 16027 C 1541.63 5.30878 0.184931 0
M  V30 16028 C 1540.67 6.07311 -0.764222 0
M  V30 16029 N 1539.8 7.02096 -0.0223203 0
M  V30 16030 H 1544.64 2.70974 -1.24005 0
M  V30 16031 H 1542.18 1.33265 -0.6228 0
M  V30 16032 H 1544.14 4.09063 0.819937 0
M  V30 16033 H 1542.77 3.00625 1.17578 0
M  V30 16034 H 1541.82 3.62131 -1.16471 0
M  V30 16035 H 1543.13 4.81102 -1.31689 0
M  V30 16036 H 1542.29 6.02635 0.701116 0
M  V30 16037 H 1541.02 4.78474 0.944143 0
M  V30 16038 H 1540.03 5.34408 -1.29182 0
M  V30 16039 H 1541.25 6.61804 -1.52292 0
M  V30 16040 H 1539.2 6.52048 0.718978 0
M  V30 16041 H 1539.12 7.5286 -0.688359 0
M  V30 16042 H 1540.39 7.78059 0.473807 0
M  V30 16043 N 1544.61 0.673042 1.42506 0
M  V30 16044 C 1545.86 0.194864 2.01862 0
M  V30 16045 C 1546.19 -1.19491 1.53087 0
M  V30 16046 O 1545.47 -1.80187 0.732322 0
M  V30 16047 C 1545.75 0.227559 3.5938 0
M  V30 16048 C 1545.6 1.65266 4.18338 0
M  V30 16049 C 1546.92 -0.425197 4.38041 0
M  V30 16050 H 1544.04 0.0722831 0.733447 0
M  V30 16051 H 1546.68 0.857493 1.6955 0
M  V30 16052 H 1544.83 -0.336658 3.87039 0
M  V30 16053 H 1546.51 2.26899 4.0164 0
M  V30 16054 H 1544.75 2.19388 3.74234 0
M  V30 16055 H 1545.42 1.62724 5.2747 0
M  V30 16056 H 1547.9 0.0550709 4.16064 0
M  V30 16057 H 1546.77 -0.371675 5.4764 0
M  V30 16058 H 1547.03 -1.50251 4.15785 0
M  V30 16059 N 1546.09 -1.52004 0.416254 0
M  V30 16060 C 1547.34 -2.02188 -0.157434 0
M  V30 16061 C 1547.67 -1.30097 -1.44182 0
M  V30 16062 O 1546.95 -0.409426 -1.90142 0
M  V30 16063 C 1547.23 -3.57896 -0.397847 0
M  V30 16064 C 1547.08 -4.40628 0.903715 0
M  V30 16065 C 1548.4 -4.24072 -1.17689 0
M  V30 16066 H 1545.52 -0.734889 -0.0557437 0
M  V30 16067 H 1548.16 -1.81831 0.551118 0
M  V30 16068 H 1546.31 -3.75372 -1.00142 0
M  V30 16069 H 1547.98 -4.34848 1.53964 0
M  V30 16070 H 1546.23 -4.06556 1.5131 0
M  V30 16071 H 1546.9 -5.47673 0.689802 0
M  V30 16072 H 1549.37 -4.10738 -0.665832 0
M  V30 16073 H 1548.25 -5.32944 -1.31386 0
M  V30 16074 H 1548.51 -3.83507 -2.19942 0
M  V30 16075 N 1547.57 -0.146903 -1.56914 0
M  V30 16076 C 1548.52 0.792821 -2.16756 0
M  V30 16077 C 1549.49 1.2442 -1.1004 0
M  V30 16078 O 1550.67 1.31674 -1.38081 0
M  V30 16079 C 1547.81 2.02659 -2.79327 0
M  V30 16080 C 1546.93 1.62102 -4.00433 0
M  V30 16081 C 1546.06 2.80658 -4.51004 0
M  V30 16082 C 1545.1 2.36474 -5.64576 0
M  V30 16083 N 1544.24 3.48038 -6.09766 0
M  V30 16084 H 1549.08 0.275708 -2.96722 0
M  V30 16085 H 1546.61 0.124374 -1.46573 0
M  V30 16086 H 1548.57 2.74986 -3.13749 0
M  V30 16087 H 1547.2 2.51781 -2.02005 0
M  V30 16088 H 1546.25 0.795407 -3.71991 0
M  V30 16089 H 1547.57 1.25652 -4.82714 0
M  V30 16090 H 1546.72 3.61175 -4.87481 0
M  V30 16091 H 1545.46 3.20353 -3.6773 0
M  V30 16092 H 1544.46 1.54397 -5.27676 0
M  V30 16093 H 1545.69 1.97865 -6.49635 0
M  V30 16094 H 1543.63 3.87354 -5.29427 0
M  V30 16095 H 1543.55 3.15602 -6.86972 0
M  V30 16096 H 1544.82 4.28912 -6.50887 0
M  V30 16097 N 1549.05 1.57088 0.126881 0
M  V30 16098 C 1549.98 1.94951 1.18614 0
M  V30 16099 C 1550.96 0.818067 1.40522 0
M  V30 16100 O 1552.14 1.07553 1.54805 0
M  V30 16101 C 1549.27 2.23893 2.54144 0
M  V30 16102 C 1548.32 3.46475 2.48712 0
M  V30 16103 S 1549.15 4.9934 1.93443 0
M  V30 16104 C 1550.31 5.31426 3.30662 0
M  V30 16105 H 1550.54 2.84492 0.863219 0
M  V30 16106 H 1548.07 1.50759 0.333323 0
M  V30 16107 H 1550.03 2.41247 3.3213 0
M  V30 16108 H 1548.69 1.3498 2.83618 0
M  V30 16109 H 1547.88 3.64067 3.48528 0
M  V30 16110 H 1547.49 3.28467 1.78844 0
M  V30 16111 H 1549.78 5.26125 4.26847 0
M  V30 16112 H 1550.72 6.32726 3.17905 0
M  V30 16113 H 1551.13 4.5891 3.28727 0
M  V30 16114 N 1550.53 -0.396836 1.52522 0
M  V30 16115 C 1551.77 -1.14432 1.67431 0
M  V30 16116 C 1552.11 -1.89842 0.409115 0
M  V30 16117 O 1551.38 -1.85244 -0.592863 0
M  V30 16118 C 1551.66 -2.12889 2.90431 0
M  V30 16119 C 1551.52 -1.41295 4.27031 0
M  V30 16120 C 1552.84 -3.13412 3.08967 0
M  V30 16121 H 1549.95 -0.414643 0.609295 0
M  V30 16122 H 1552.6 -0.428604 1.85103 0
M  V30 16123 H 1550.75 -2.73924 2.75495 0
M  V30 16124 H 1552.42 -0.832848 4.53719 0
M  V30 16125 H 1550.66 -0.714834 4.2787 0
M  V30 16126 H 1551.33 -2.13198 5.09167 0
M  V30 16127 H 1553.81 -2.62462 3.22883 0
M  V30 16128 H 1552.68 -3.79555 3.96522 0
M  V30 16129 H 1552.95 -3.81836 2.22831 0
M  V30 16130 N 1552.01 -1.43353 -0.654814 0
M  V30 16131 C 1553.23 -1.48536 -1.44748 0
M  V30 16132 C 1553.66 -0.103991 -1.87812 0
M  V30 16133 O 1553.01 0.901924 -1.57274 0
M  V30 16134 C 1553.06 -2.43498 -2.65972 0
M  V30 16135 O 1552.17 -1.92014 -3.64972 0
M  V30 16136 H 1551.51 -0.502476 -0.434067 0
M  V30 16137 H 1554.04 -1.88251 -0.801427 0
M  V30 16138 H 1554.05 -2.60748 -3.13806 0
M  V30 16139 H 1552.72 -3.43847 -2.3397 0
M  V30 16140 H 1551.3 -1.84417 -3.24106 0
M  V30 16141 N 1553.48 0.89303 -1.29857 0
M  V30 16142 C 1554.45 1.97944 -1.15546 0
M  V30 16143 C 1555.45 1.60554 -0.088989 0
M  V30 16144 O 1556.64 1.7092 -0.336464 0
M  V30 16145 C 1553.77 3.32126 -0.768442 0
M  V30 16146 H 1554.96 2.12067 -2.12055 0
M  V30 16147 H 1552.51 1.0784 -1.13138 0
M  V30 16148 H 1553.25 3.23704 0.196504 0
M  V30 16149 H 1553.03 3.60631 -1.53907 0
M  V30 16150 H 1554.52 4.11834 -0.691559 0
M  V30 16151 N 1554.96 1.12442 1.10429 0
M  V30 16152 C 1555.89 0.814745 2.18824 0
M  V30 16153 C 1556.87 -0.221476 1.68652 0
M  V30 16154 O 1558.06 -0.0826537 1.94024 0
M  V30 16155 C 1555.19 0.268632 3.4626 0
M  V30 16156 C 1554.14 1.23792 4.09707 0
M  V30 16157 C 1553.47 0.552034 5.31843 0
M  V30 16158 C 1554.77 2.5926 4.53411 0
M  V30 16159 H 1556.46 1.72111 2.44986 0
M  V30 16160 H 1554.01 0.828968 1.17746 0
M  V30 16161 H 1555.96 0.0397207 4.21381 0
M  V30 16162 H 1554.68 -0.673079 3.19589 0
M  V30 16163 H 1553.34 1.45264 3.36592 0
M  V30 16164 H 1552.99 -0.394821 5.01448 0
M  V30 16165 H 1552.69 1.19861 5.75245 0
M  V30 16166 H 1554.22 0.332161 6.09696 0
M  V30 16167 H 1555.63 2.41816 5.19806 0
M  V30 16168 H 1554.03 3.19997 5.07663 0
M  V30 16169 H 1555.1 3.17699 3.66327 0
M  V30 16170 N 1556.44 -1.28223 0.91633 0
M  V30 16171 C 1557.69 -1.95153 0.551639 0
M  V30 16172 C 1558.02 -1.71938 -0.902829 0
M  V30 16173 O 1557.29 -1.04184 -1.64243 0
M  V30 16174 C 1557.58 -3.49565 0.864647 0
M  V30 16175 C 1557.43 -3.82171 2.37203 0
M  V30 16176 C 1558.75 -4.38604 0.362593 0
M  V30 16177 H 1555.87 -0.708808 0.20189 0
M  V30 16178 H 1558.51 -1.51545 1.14604 0
M  V30 16179 H 1556.66 -3.8684 0.358782 0
M  V30 16180 H 1558.33 -3.54751 2.94872 0
M  V30 16181 H 1556.57 -3.29124 2.82595 0
M  V30 16182 H 1557.25 -4.90007 2.54159 0
M  V30 16183 H 1559.72 -4.08416 0.795983 0
M  V30 16184 H 1558.6 -5.45493 0.61066 0
M  V30 16185 H 1558.86 -4.35911 -0.737137 0
M  V30 16186 N 1557.92 -0.68059 -1.42147 0
M  V30 16187 C 1559.17 -0.202445 -2.00681 0
M  V30 16188 C 1559.48 1.19997 -1.54467 0
M  V30 16189 O 1560.69 1.77479 -2.05459 0
M  V30 16190 C 1559.14 -0.311064 -3.58553 0
M  V30 16191 C 1558.75 -1.7179 -4.13754 0
M  V30 16192 C 1560.49 0.108072 -4.24362 0
M  V30 16193 C 1558.4 -1.77897 -5.64009 0
M  V30 16194 H 1557.33 -0.0719266 -0.750561 0
M  V30 16195 H 1559.98 -0.846614 -1.62803 0
M  V30 16196 H 1558.36 0.401098 -3.93963 0
M  V30 16197 H 1559.54 -2.45761 -3.89793 0
M  V30 16198 H 1557.85 -2.08539 -3.60417 0
M  V30 16199 H 1560.45 0.0826684 -5.34636 0
M  V30 16200 H 1560.79 1.14431 -4.00264 0
M  V30 16201 H 1561.33 -0.553285 -3.93933 0
M  V30 16202 H 1558.06 -2.79523 -5.92914 0
M  V30 16203 H 1557.58 -1.0829 -5.89944 0
M  V30 16204 H 1559.26 -1.53504 -6.28527 0
M  V30 16205 N 1559.4 1.51781 -0.424309 0
M  V30 16206 C 1560.64 2.01157 0.147925 0
M  V30 16207 C 1560.96 1.31369 1.44919 0
M  V30 16208 O 1562.16 1.71643 2.10359 0
M  V30 16209 C 1560.62 3.58526 0.31417 0
M  V30 16210 C 1560.23 4.37242 -0.975898 0
M  V30 16211 C 1561.97 4.16088 0.840876 0
M  V30 16212 C 1559.88 5.86287 -0.776009 0
M  V30 16213 H 1558.81 0.751684 0.0590568 0
M  V30 16214 H 1561.46 1.74998 -0.552079 0
M  V30 16215 H 1559.84 3.81077 1.07687 0
M  V30 16216 H 1561.02 4.26444 -1.74592 0
M  V30 16217 H 1559.33 3.9107 -1.43015 0
M  V30 16218 H 1561.93 5.25138 1.0067 0
M  V30 16219 H 1562.27 3.7442 1.81977 0
M  V30 16220 H 1562.8 3.97565 0.136836 0
M  V30 16221 H 1559.54 6.32343 -1.7269 0
M  V30 16222 H 1559.06 5.99783 -0.0455544 0
M  V30 16223 H 1560.74 6.45609 -0.424095 0
M  V30 16224 N 1560.87 0.155222 1.56834 0
M  V30 16225 C 1562.11 -0.496476 1.98279 0
M  V30 16226 C 1562.48 -1.61495 1.03843 0
M  V30 16227 O 1563.68 -2.32808 1.34365 0
M  V30 16228 C 1561.95 -0.982022 3.43644 0
M  V30 16229 S 1563.51 -1.63717 4.07115 0
M  V30 16230 H 1560.33 -0.160256 0.692704 0
M  V30 16231 H 1562.93 0.248881 1.93909 0
M  V30 16232 H 1561.63 -0.157344 4.10098 0
M  V30 16233 H 1561.16 -1.7618 3.51744 0
M  V30 16234 H 1563.18 -2.92473 4.00841 0
M  V30 16235 N 1562.35 -1.57153 -0.118549 0
M  V30 16236 C 1563.77 -1.52458 -0.472096 0
M  V30 16237 C 1563.97 -0.868289 -1.81832 0
M  V30 16238 O 1563.02 -0.450817 -2.48443 0
M  V30 16239 C 1564.34 -2.9722 -0.456175 0
M  V30 16240 C 1565.88 -3.08312 -0.539694 0
M  V30 16241 C 1566.36 -4.54635 -0.554158 0
M  V30 16242 N 1567.85 -4.59091 -0.615584 0
M  V30 16243 C 1568.59 -5.69724 -0.64823 0
M  V30 16244 N 1568.08 -6.89852 -0.638494 0
M  V30 16245 N 1569.87 -5.57833 -0.691272 0
M  V30 16246 H 1562.03 -1.98202 0.76353 0
M  V30 16247 H 1564.29 -0.905179 0.281699 0
M  V30 16248 H 1563.99 -3.48608 0.465364 0
M  V30 16249 H 1563.87 -3.5468 -1.28381 0
M  V30 16250 H 1566.26 -2.56926 -1.45165 0
M  V30 16251 H 1566.34 -2.53845 0.315638 0
M  V30 16252 H 1565.98 -5.06667 0.353759 0
M  V30 16253 H 1565.91 -5.06914 -1.42638 0
M  V30 16254 H 1568.4 -3.72624 -0.629253 0
M  V30 16255 H 1568.71 -7.69925 -0.66604 0
M  V30 16256 H 1567.06 -6.92354 -0.605912 0
M  V30 16257 H 1570.25 -4.62893 -0.696244 0
M  V30 16258 H 1570.42 -6.44063 -0.713246 0
M  V30 16259 N 1563.83 0.388742 -1.5273 0
M  V30 16260 C 1564.78 1.49531 -1.78166 0
M  V30 16261 C 1565.77 1.56449 -0.649613 0
M  V30 16262 O 1566.98 1.59612 -0.832097 0
M  V30 16263 H 1563.35 0.497684 -0.56375 0
M  V30 16264 H 1565.32 1.25271 -2.70831 0
M  V30 16265 C 1564.07 2.86663 -1.96774 0
M  V30 16266 H 1563.4 2.82089 -2.83312 0
M  V30 16267 H 1564.84 3.63328 -2.18561 0
M  V30 16268 C 1563.29 3.28665 -0.740345 0
M  V30 16269 O 1563.82 4.01616 0.0821005 0
M  V30 16270 N 1562.03 2.84947 -0.570383 0
M  V30 16271 H 1561.58 2.25748 -1.24078 0
M  V30 16272 H 1561.54 3.13408 0.249496 0
M  V30 16273 N 1565.31 1.43698 0.647203 0
M  V30 16274 C 1566.26 1.45765 1.75318 0
M  V30 16275 C 1567.24 0.32536 1.57576 0
M  V30 16276 O 1568.43 0.569564 1.67586 0
M  V30 16277 C 1565.56 1.38923 3.13935 0
M  V30 16278 C 1564.65 2.57205 3.37204 0
M  V30 16279 N 1565.04 3.82529 3.30916 0
M  V30 16280 C 1563.34 2.52057 3.67944 0
M  V30 16281 C 1564.04 4.61252 3.54431 0
M  V30 16282 N 1563.01 3.92076 3.76534 0
M  V30 16283 H 1566.82 2.40527 1.6889 0
M  V30 16284 H 1564.33 1.38435 0.849093 0
M  V30 16285 H 1566.33 1.38487 3.93226 0
M  V30 16286 H 1564.99 0.451864 3.2154 0
M  V30 16287 H 1566 4.1473 3.10192 0
M  V30 16288 H 1562.68 1.67038 3.82628 0
M  V30 16289 H 1564.07 5.70275 3.55297 0
M  V30 16290 N 1566.79 -0.886131 1.30328 0
M  V30 16291 C 1568.06 -1.61912 1.09744 0
M  V30 16292 C 1568.44 -2.08116 -0.353663 0
M  V30 16293 O 1567.79 -1.84725 -1.34495 0
M  V30 16294 C 1568 -2.78954 2.09727 0
M  V30 16295 C 1569.35 -3.49313 2.41382 0
M  V30 16296 O 1570.37 -2.89141 2.08028 0
M  V30 16297 O 1569.23 -4.57823 2.98431 0
M  V30 16298 H 1566.33 -0.71158 0.421406 0
M  V30 16299 H 1568.87 -0.933009 1.4175 0
M  V30 16300 H 1567.64 -2.42109 3.07407 0
M  V30 16301 H 1567.27 -3.55263 1.78532 0
M  V30 16302 N 1568.26 -1.13026 -1.09832 0
M  V30 16303 C 1569.54 -0.800667 -1.78462 0
M  V30 16304 C 1569.92 0.708508 -1.98855 0
M  V30 16305 O 1569.27 1.64436 -1.58661 0
M  V30 16306 C 1569.48 -1.58284 -3.11042 0
M  V30 16307 C 1570.83 -1.77285 -3.85818 0
M  V30 16308 O 1571.85 -1.54848 -3.20781 0
M  V30 16309 O 1570.71 -2.14693 -5.02563 0
M  V30 16310 H 1567.8 -0.291895 -0.773774 0
M  V30 16311 H 1570.35 -1.23464 -1.16425 0
M  V30 16312 H 1569.12 -2.60867 -2.91657 0
M  V30 16313 H 1568.75 -1.14353 -3.80801 0
M  V30 16314 N 1569.74 1.27735 -0.923117 0
M  V30 16315 C 1570.67 2.29395 -0.435907 0
M  V30 16316 C 1571.65 1.62542 0.501403 0
M  V30 16317 O 1572.84 1.89884 0.407135 0
M  V30 16318 C 1569.97 3.45856 0.316348 0
M  V30 16319 C 1568.92 4.24672 -0.532697 0
M  V30 16320 C 1568.25 5.33563 0.348454 0
M  V30 16321 C 1569.55 4.90494 -1.79481 0
M  V30 16322 H 1571.24 2.70398 -1.28551 0
M  V30 16323 H 1568.79 1.29989 -0.619581 0
M  V30 16324 H 1570.74 4.1607 0.668098 0
M  V30 16325 H 1569.47 3.03758 1.19994 0
M  V30 16326 H 1568.12 3.56198 -0.867093 0
M  V30 16327 H 1567.77 4.87708 1.23086 0
M  V30 16328 H 1567.47 5.87202 -0.216104 0
M  V30 16329 H 1569 6.06622 0.695878 0
M  V30 16330 H 1570.41 5.53019 -1.5114 0
M  V30 16331 H 1568.81 5.5417 -2.30251 0
M  V30 16332 H 1569.88 4.14454 -2.51707 0
M  V30 16333 N 1571.22 0.688118 1.41784 0
M  V30 16334 C 1572.47 0.216263 2.01644 0
M  V30 16335 C 1572.8 -1.17861 1.54345 0
M  V30 16336 O 1572.07 -1.794 0.751392 0
M  V30 16337 C 1572.36 0.265663 3.59119 0
M  V30 16338 C 1572.21 1.69694 4.16562 0
M  V30 16339 C 1573.53 -0.378713 4.38468 0
M  V30 16340 H 1570.65 0.0800582 0.732639 0
M  V30 16341 H 1573.29 0.875428 1.68631 0
M  V30 16342 H 1571.44 -0.295588 3.87374 0
M  V30 16343 H 1573.11 2.31146 3.9921 0
M  V30 16344 H 1571.36 2.23345 3.71886 0
M  V30 16345 H 1572.03 1.68309 5.25715 0
M  V30 16346 H 1574.5 0.0991969 4.15982 0
M  V30 16347 H 1573.38 -0.31357 5.48004 0
M  V30 16348 H 1573.64 -1.45832 4.17355 0
M  V30 16349 N 1572.7 -1.51554 0.432352 0
M  V30 16350 C 1573.93 -2.06462 -0.1346 0
M  V30 16351 C 1574.34 -1.30027 -1.36889 0
M  V30 16352 O 1573.7 -0.358447 -1.78945 0
M  V30 16353 C 1573.75 -3.58538 -0.461822 0
M  V30 16354 O 1573.47 -4.32085 0.723471 0
M  V30 16355 C 1574.97 -4.29943 -1.07999 0
M  V30 16356 H 1572.19 -0.670923 -0.0101329 0
M  V30 16357 H 1574.74 -1.9519 0.609999 0
M  V30 16358 H 1572.89 -3.6974 -1.15632 0
M  V30 16359 H 1573.3 -5.22611 0.444757 0
M  V30 16360 H 1574.78 -5.37451 -1.25898 0
M  V30 16361 H 1575.26 -3.87912 -2.05963 0
M  V30 16362 H 1575.86 -4.23171 -0.425022 0
M  V30 16363 N 1574.18 -0.163538 -1.56749 0
M  V30 16364 C 1575.42 0.48412 -1.96937 0
M  V30 16365 C 1575.76 1.63418 -1.04919 0
M  V30 16366 O 1575.03 1.94269 -0.094783 0
M  V30 16367 C 1575.31 0.974532 -3.46663 0
M  V30 16368 C 1575.17 -0.175173 -4.49459 0
M  V30 16369 C 1576.49 1.85082 -3.9929 0
M  V30 16370 H 1573.6 0.174503 -0.716043 0
M  V30 16371 H 1576.25 -0.248103 -1.88373 0
M  V30 16372 H 1574.4 1.59849 -3.54091 0
M  V30 16373 H 1576.07 -0.812038 -4.54096 0
M  V30 16374 H 1574.31 -0.831853 -4.2575 0
M  V30 16375 H 1574.98 0.20996 -5.51601 0
M  V30 16376 H 1577.46 1.32488 -3.94444 0
M  V30 16377 H 1576.33 2.163 -5.04485 0
M  V30 16378 H 1576.6 2.79378 -3.42638 0
M  V30 16379 N 1575.65 1.57214 0.110213 0
M  V30 16380 C 1576.88 1.89505 0.830391 0
M  V30 16381 C 1577.3 0.755702 1.73016 0
M  V30 16382 O 1576.65 -0.273072 1.80445 0
M  V30 16383 C 1576.71 3.21316 1.65646 0
M  V30 16384 O 1576.43 4.30865 0.7929 0
M  V30 16385 C 1577.93 3.67369 2.48102 0
M  V30 16386 H 1575.15 0.627277 0.238252 0
M  V30 16387 H 1577.69 2.04293 0.0919716 0
M  V30 16388 H 1575.85 3.08171 2.34754 0
M  V30 16389 H 1576.26 5.06466 1.36353 0
M  V30 16390 H 1577.73 4.62335 3.0158 0
M  V30 16391 H 1578.21 2.94459 3.25869 0
M  V30 16392 H 1578.82 3.83331 1.8422 0
M  V30 16393 N 1577.13 -0.380637 1.52934 0
M  V30 16394 C 1578.1 -1.44819 1.77652 0
M  V30 16395 C 1579.1 -1.47224 0.646657 0
M  V30 16396 O 1580.29 -1.48248 0.91477 0
M  V30 16397 C 1577.42 -2.8405 1.8849 0
M  V30 16398 H 1578.61 -1.24183 2.72981 0
M  V30 16399 H 1576.16 -0.61288 1.43783 0
M  V30 16400 H 1576.9 -3.1002 0.951751 0
M  V30 16401 H 1576.68 -2.83704 2.70655 0
M  V30 16402 H 1578.17 -3.61388 2.09257 0
M  V30 16403 N 1578.61 -1.44039 -0.639573 0
M  V30 16404 C 1579.84 -1.49844 -1.42669 0
M  V30 16405 C 1580.25 -0.120599 -1.88414 0
M  V30 16406 O 1579.61 0.871875 -1.60327 0
M  V30 16407 C 1579.66 -2.45597 -2.65263 0
M  V30 16408 O 1579.38 -3.78023 -2.21427 0
M  V30 16409 C 1580.88 -2.60781 -3.5848 0
M  V30 16410 H 1578.1 -0.508477 -0.437826 0
M  V30 16411 H 1580.65 -1.88919 -0.782923 0
M  V30 16412 H 1578.8 -2.09679 -3.2575 0
M  V30 16413 H 1579.22 -4.29642 -3.00846 0
M  V30 16414 H 1580.69 -3.31826 -4.4113 0
M  V30 16415 H 1581.17 -1.65727 -4.06732 0
M  V30 16416 H 1581.77 -2.97565 -3.03867 0
M  V30 16417 N 1580.09 0.879207 -1.30796 0
M  V30 16418 C 1581.02 2.00158 -1.20246 0
M  V30 16419 C 1582 1.69852 -0.091769 0
M  V30 16420 O 1583.18 1.92246 -0.274792 0
M  V30 16421 C 1580.31 3.3545 -0.899472 0
M  V30 16422 C 1579.27 3.80033 -1.96873 0
M  V30 16423 C 1578.59 5.12681 -1.51861 0
M  V30 16424 C 1579.89 3.98136 -3.38061 0
M  V30 16425 H 1581.59 2.09242 -2.14145 0
M  V30 16426 H 1579.13 1.00535 -1.03096 0
M  V30 16427 H 1581.09 4.13497 -0.812299 0
M  V30 16428 H 1579.81 3.26513 0.075189 0
M  V30 16429 H 1578.47 3.04219 -2.04564 0
M  V30 16430 H 1578.12 5.00178 -0.532063 0
M  V30 16431 H 1577.82 5.43482 -2.23386 0
M  V30 16432 H 1579.34 5.93247 -1.44534 0
M  V30 16433 H 1580.76 4.66604 -3.33096 0
M  V30 16434 H 1579.15 4.40321 -4.07722 0
M  V30 16435 H 1580.22 3.01807 -3.79526 0
M  V30 16436 N 1581.57 1.13606 1.09231 0
M  V30 16437 C 1582.53 0.818197 2.14099 0
M  V30 16438 C 1583.53 -0.173275 1.59864 0
M  V30 16439 O 1584.72 0.05405 1.74116 0
M  V30 16440 C 1581.85 0.218138 3.40201 0
M  V30 16441 H 1583.05 1.74748 2.43727 0
M  V30 16442 H 1580.6 0.940962 1.24802 0
M  V30 16443 H 1581.33 -0.720269 3.162 0
M  V30 16444 H 1581.12 0.932156 3.80859 0
M  V30 16445 H 1582.61 0.0126639 4.17598 0
M  V30 16446 N 1583.05 -1.27244 0.929878 0
M  V30 16447 C 1583.98 -2.29161 0.448066 0
M  V30 16448 C 1584.96 -1.62806 -0.492776 0
M  V30 16449 O 1586.14 -1.90098 -0.39706 0
M  V30 16450 C 1583.27 -3.46019 -0.298002 0
M  V30 16451 C 1582.23 -4.24384 0.555211 0
M  V30 16452 C 1581.55 -5.33741 -0.320153 0
M  V30 16453 C 1582.85 -4.89535 1.8208 0
M  V30 16454 H 1584.55 -2.69712 1.29983 0
M  V30 16455 H 1582.09 -1.29659 0.626466 0
M  V30 16456 H 1584.04 -4.16419 -0.646024 0
M  V30 16457 H 1582.77 -3.0439 -1.18381 0
M  V30 16458 H 1581.43 -3.55733 0.885971 0
M  V30 16459 H 1581.08 -4.88354 -1.20498 0
M  V30 16460 H 1580.78 -5.8708 0.247241 0
M  V30 16461 H 1582.3 -6.06982 -0.663697 0
M  V30 16462 H 1583.71 -5.52209 1.54071 0
M  V30 16463 H 1582.11 -5.52941 2.33186 0
M  V30 16464 H 1583.18 -4.13113 2.53901 0
M  V30 16465 N 1584.52 -0.695628 -1.41417 0
M  V30 16466 C 1585.45 -0.0447013 -2.33457 0
M  V30 16467 C 1586.43 0.767104 -1.51821 0
M  V30 16468 O 1587.62 0.720066 -1.80357 0
M  V30 16469 C 1584.75 0.892353 -3.3564 0
M  V30 16470 C 1583.7 0.187638 -4.27588 0
M  V30 16471 C 1583.03 1.23906 -5.20146 0
M  V30 16472 C 1584.33 -0.946093 -5.1366 0
M  V30 16473 H 1586.02 -0.81343 -2.88138 0
M  V30 16474 H 1583.57 -0.392614 -1.38544 0
M  V30 16475 H 1585.52 1.35696 -3.98954 0
M  V30 16476 H 1584.25 1.69275 -2.79309 0
M  V30 16477 H 1582.91 -0.256942 -3.65698 0
M  V30 16478 H 1582.55 2.03198 -4.6013 0
M  V30 16479 H 1582.25 0.772536 -5.82499 0
M  V30 16480 H 1583.78 1.70417 -5.86336 0
M  V30 16481 H 1585.19 -0.561764 -5.70541 0
M  V30 16482 H 1583.59 -1.33971 -5.84954 0
M  V30 16483 H 1584.66 -1.78573 -4.50821 0
M  V30 16484 N 1586 1.51322 -0.440383 0
M  V30 16485 C 1587.25 2.01714 0.124815 0
M  V30 16486 C 1587.57 1.32634 1.42945 0
M  V30 16487 O 1586.84 0.461849 1.90378 0
M  V30 16488 H 1585.42 0.745384 0.049116 0
M  V30 16489 H 1588.08 1.85951 -0.583787 0
M  V30 16490 H 1587.18 3.10669 0.29853 0
M  V30 16491 N 1587.48 0.171848 1.5666 0
M  V30 16492 C 1588.72 -0.475418 1.98794 0
M  V30 16493 C 1589.08 -1.60384 1.0555 0
M  V30 16494 O 1590.28 -2.3137 1.36827 0
M  V30 16495 C 1588.56 -0.945518 3.44666 0
M  V30 16496 S 1590.11 -1.59389 4.08828 0
M  V30 16497 H 1586.93 -0.1529 0.694365 0
M  V30 16498 H 1589.53 0.269434 1.93634 0
M  V30 16499 H 1588.24 -0.113839 4.10242 0
M  V30 16500 H 1587.77 -1.7244 3.53593 0
M  V30 16501 H 1589.78 -2.88205 4.03921 0
M  V30 16502 N 1588.96 -1.5727 -0.101874 0
M  V30 16503 C 1590.23 -1.76745 -0.837888 0
M  V30 16504 C 1590.61 -0.751766 -1.9726 0
M  V30 16505 O 1589.96 0.221046 -2.27428 0
M  V30 16506 C 1590.17 -3.22302 -1.33875 0
M  V30 16507 C 1591.52 -3.85292 -1.78425 0
M  V30 16508 O 1592.54 -3.2601 -1.43514 0
M  V30 16509 O 1591.4 -4.89526 -2.42953 0
M  V30 16510 H 1588.5 -0.724294 -0.399157 0
M  V30 16511 H 1591.04 -1.69491 -0.0842821 0
M  V30 16512 H 1589.82 -3.87756 -0.525434 0
M  V30 16513 H 1589.44 -3.34162 -2.15456 0
M  V30 16514 N 1590.44 0.372521 -1.53134 0
M  V30 16515 C 1591.68 1.11368 -1.68646 0
M  V30 16516 C 1592 1.90034 -0.437275 0
M  V30 16517 O 1591.27 1.88062 0.548593 0
M  V30 16518 H 1589.85 0.414129 -0.621696 0
M  V30 16519 H 1592.52 0.42082 -1.90303 0
M  V30 16520 H 1591.61 1.80738 -2.54441 0
M  V30 16521 N 1591.91 1.44376 0.631925 0
M  V30 16522 C 1593.14 1.5082 1.42366 0
M  V30 16523 C 1593.56 0.133858 1.87623 0
M  V30 16524 O 1592.92 -0.876789 1.58689 0
M  V30 16525 C 1592.97 2.47698 2.62065 0
M  V30 16526 O 1592.07 1.97796 3.61871 0
M  V30 16527 H 1591.41 0.509318 0.426018 0
M  V30 16528 H 1593.94 1.89502 0.771376 0
M  V30 16529 H 1593.95 2.65708 3.09618 0
M  V30 16530 H 1592.63 3.47526 2.2847 0
M  V30 16531 H 1591.21 1.89549 3.21131 0
M  V30 16532 N 1593.39 -0.872258 1.31261 0
M  V30 16533 C 1594.8 -1.44077 1.18738 0
M  V30 16534 C 1595.15 -1.95105 -0.207037 0
M  V30 16535 O 1594.28 -1.86083 -1.10464 0
M  V30 16536 C 1594.87 -2.61884 2.14947 0
M  V30 16537 C 1593.43 -3.14787 2.06364 0
M  V30 16538 C 1592.58 -1.87495 2.04306 0
M  V30 16539 H 1595.53 -0.681011 1.43345 0
M  V30 16540 H 1595.55 -3.38501 1.73773 0
M  V30 16541 H 1595.06 -2.24715 3.16425 0
M  V30 16542 H 1593.16 -3.56582 1.08073 0
M  V30 16543 H 1593.28 -3.77225 2.95361 0
M  V30 16544 H 1591.64 -2.06361 1.49288 0
M  V30 16545 H 1592.42 -1.52566 3.07536 0
M  V30 16546 N 1594.87 -1.14184 -1.08627 0
M  V30 16547 C 1596.12 -0.919966 -1.81406 0
M  V30 16548 C 1596.47 0.547709 -1.84439 0
M  V30 16549 O 1595.76 1.40044 -1.30761 0
M  V30 16550 C 1595.96 -1.4519 -3.2658 0
M  V30 16551 C 1595.79 -2.96977 -3.37691 0
M  V30 16552 C 1594.56 -3.65402 -3.49012 0
M  V30 16553 C 1596.75 -3.94858 -3.29532 0
M  V30 16554 N 1594.74 -5.05122 -3.48891 0
M  V30 16555 C 1596.11 -5.20818 -3.36376 0
M  V30 16556 C 1598.16 -3.87009 -3.13254 0
M  V30 16557 C 1596.87 -6.39846 -3.28618 0
M  V30 16558 C 1598.89 -5.05581 -3.06825 0
M  V30 16559 C 1598.25 -6.30408 -3.14269 0
M  V30 16560 H 1594.35 -0.390144 -0.677725 0
M  V30 16561 H 1596.94 -1.45155 -1.29761 0
M  V30 16562 H 1595.11 -0.947121 -3.76675 0
M  V30 16563 H 1596.84 -1.17018 -3.87413 0
M  V30 16564 H 1593.59 -3.15948 -3.52809 0
M  V30 16565 H 1594.02 -5.78056 -3.52392 0
M  V30 16566 H 1598.66 -2.91379 -3.06363 0
M  V30 16567 H 1596.38 -7.35723 -3.34271 0
M  V30 16568 H 1599.96 -5.01256 -2.95354 0
M  V30 16569 H 1598.84 -7.20618 -3.09321 0
M  V30 16570 N 1596.35 1.26749 -0.936613 0
M  V30 16571 C 1597.76 1.46284 -0.638218 0
M  V30 16572 C 1597.96 1.84509 0.80986 0
M  V30 16573 O 1597.02 1.96399 1.58693 0
M  V30 16574 C 1598.33 2.54867 -1.59573 0
M  V30 16575 C 1599.88 2.68721 -1.60493 0
M  V30 16576 C 1600.36 3.80471 -2.54963 0
M  V30 16577 N 1601.85 3.87857 -2.53221 0
M  V30 16578 C 1602.58 4.73767 -3.23005 0
M  V30 16579 N 1602.08 5.641 -4.02198 0
M  V30 16580 N 1603.87 4.67574 -3.11979 0
M  V30 16581 H 1596.02 1.00224 -1.87267 0
M  V30 16582 H 1598.29 0.501478 -0.804502 0
M  V30 16583 H 1597.99 2.33594 -2.62919 0
M  V30 16584 H 1597.87 3.52433 -1.34427 0
M  V30 16585 H 1600.25 2.8937 -0.578729 0
M  V30 16586 H 1600.33 1.71613 -1.89691 0
M  V30 16587 H 1599.98 3.60575 -3.57698 0
M  V30 16588 H 1599.91 4.77026 -2.23056 0
M  V30 16589 H 1602.4 3.23272 -1.95714 0
M  V30 16590 H 1602.71 6.26535 -4.52409 0
M  V30 16591 H 1601.06 5.63866 -4.063 0
M  V30 16592 H 1604.25 3.96004 -2.49596 0
M  V30 16593 H 1604.42 5.34308 -3.66633 0
M  V30 16594 N 1597.83 0.703118 1.41046 0
M  V30 16595 C 1599.07 0.237287 2.01105 0
M  V30 16596 C 1599.4 -1.16552 1.55711 0
M  V30 16597 O 1598.66 -1.80233 0.762533 0
M  V30 16598 C 1598.96 0.251575 3.56513 0
M  V30 16599 C 1598.62 1.60295 4.21446 0
M  V30 16600 C 1597.28 1.9729 4.38897 0
M  V30 16601 C 1599.64 2.49167 4.57783 0
M  V30 16602 C 1596.96 3.22726 4.89964 0
M  V30 16603 C 1599.32 3.73943 5.10244 0
M  V30 16604 C 1597.98 4.11072 5.25905 0
M  V30 16605 H 1597.25 0.0868294 0.735895 0
M  V30 16606 H 1599.9 0.903695 1.68836 0
M  V30 16607 H 1598.2 -0.498393 3.88617 0
M  V30 16608 H 1599.9 -0.126501 4.008 0
M  V30 16609 H 1596.49 1.30523 4.08242 0
M  V30 16610 H 1600.67 2.21864 4.43948 0
M  V30 16611 H 1595.93 3.51477 5.00274 0
M  V30 16612 H 1600.1 4.42988 5.3734 0
M  V30 16613 H 1597.73 5.0834 5.65239 0
M  V30 16614 N 1599.3 -1.51086 0.448402 0
M  V30 16615 C 1600.23 -2.30896 -0.347773 0
M  V30 16616 C 1601.22 -1.36792 -1.01104 0
M  V30 16617 O 1602.4 -1.65713 -1.01257 0
M  V30 16618 C 1599.53 -3.15901 -1.44304 0
M  V30 16619 C 1598.48 -4.18373 -0.90265 0
M  V30 16620 C 1597.81 -4.9197 -2.0945 0
M  V30 16621 C 1599.11 -5.22252 0.0705335 0
M  V30 16622 H 1600.8 -2.97704 0.318273 0
M  V30 16623 H 1598.35 -1.43169 0.154509 0
M  V30 16624 H 1600.3 -3.70519 -2.00733 0
M  V30 16625 H 1599.03 -2.46935 -2.13753 0
M  V30 16626 H 1597.69 -3.64823 -0.3605 0
M  V30 16627 H 1597.33 -4.19497 -2.77545 0
M  V30 16628 H 1597.03 -5.6127 -1.73926 0
M  V30 16629 H 1598.56 -5.49415 -2.66412 0
M  V30 16630 H 1599.97 -5.71876 -0.403814 0
M  V30 16631 H 1598.37 -5.99142 0.338905 0
M  V30 16632 H 1599.44 -4.74398 1.00373 0
M  V30 16633 N 1600.78 -0.180154 -1.56567 0
M  V30 16634 C 1601.73 0.746666 -2.18389 0
M  V30 16635 C 1602.7 1.22058 -1.12655 0
M  V30 16636 O 1603.88 1.28716 -1.40843 0
M  V30 16637 C 1601.02 1.96688 -2.83563 0
M  V30 16638 C 1600.14 1.53572 -4.03782 0
M  V30 16639 C 1599.27 2.71028 -4.56856 0
M  V30 16640 C 1598.31 2.24445 -5.69465 0
M  V30 16641 N 1597.45 3.35026 -6.17011 0
M  V30 16642 H 1602.29 0.212707 -2.9724 0
M  V30 16643 H 1599.83 0.093256 -1.46804 0
M  V30 16644 H 1601.78 2.68269 -3.19511 0
M  V30 16645 H 1600.41 2.4744 -2.073 0
M  V30 16646 H 1599.47 0.716323 -3.73595 0
M  V30 16647 H 1600.78 1.15385 -4.85271 0
M  V30 16648 H 1599.93 3.50753 -4.95032 0
M  V30 16649 H 1598.67 3.1248 -3.74443 0
M  V30 16650 H 1597.68 1.43169 -5.30832 0
M  V30 16651 H 1598.9 1.84041 -6.53686 0
M  V30 16652 H 1596.85 3.76037 -5.37524 0
M  V30 16653 H 1596.76 3.0096 -6.93512 0
M  V30 16654 H 1598.03 4.15009 -6.59839 0
M  V30 16655 N 1602.26 1.57322 0.0935319 0
M  V30 16656 C 1603.19 1.97423 1.14452 0
M  V30 16657 C 1604.17 0.84769 1.38755 0
M  V30 16658 O 1605.36 1.10812 1.52489 0
M  V30 16659 C 1602.48 2.29234 2.49338 0
M  V30 16660 C 1601.53 3.51672 2.41306 0
M  V30 16661 S 1602.36 5.0333 1.82808 0
M  V30 16662 C 1603.52 5.3832 3.19315 0
M  V30 16663 H 1603.75 2.86259 0.80268 0
M  V30 16664 H 1601.28 1.51432 0.301269 0
M  V30 16665 H 1603.24 2.48237 3.26938 0
M  V30 16666 H 1601.9 1.40966 2.80691 0
M  V30 16667 H 1601.1 3.71377 3.40727 0
M  V30 16668 H 1600.7 3.32187 1.71837 0
M  V30 16669 H 1602.99 5.35061 4.15591 0
M  V30 16670 H 1603.93 6.39327 3.04413 0
M  V30 16671 H 1604.34 4.6578 3.18919 0
M  V30 16672 N 1603.74 -0.364395 1.53329 0
M  V30 16673 C 1604.97 -1.12586 1.73228 0
M  V30 16674 C 1605.38 -1.83482 0.461614 0
M  V30 16675 O 1604.72 -1.74459 -0.575295 0
M  V30 16676 C 1604.78 -2.1994 2.84371 0
M  V30 16677 C 1604.45 -1.688 4.24683 0
M  V30 16678 C 1605.44 -1.15145 5.06989 0
M  V30 16679 C 1603.13 -1.74277 4.71097 0
M  V30 16680 C 1605.12 -0.676447 6.338 0
M  V30 16681 C 1602.81 -1.26389 5.97887 0
M  V30 16682 C 1603.81 -0.731632 6.7907 0
M  V30 16683 O 1603.49 -0.259825 8.0348 0
M  V30 16684 H 1603.23 -0.342514 0.582804 0
M  V30 16685 H 1605.78 -0.428832 2.00874 0
M  V30 16686 H 1604.01 -2.9314 2.52202 0
M  V30 16687 H 1605.7 -2.81489 2.92436 0
M  V30 16688 H 1606.47 -1.10251 4.72303 0
M  V30 16689 H 1602.34 -2.14647 4.0798 0
M  V30 16690 H 1605.89 -0.260327 6.97114 0
M  V30 16691 H 1601.79 -1.30977 6.32072 0
M  V30 16692 H 1602.55 -0.379044 8.17622 0
M  V30 16693 N 1605.22 -1.44709 -0.62426 0
M  V30 16694 C 1606.47 -1.47131 -1.37968 0
M  V30 16695 C 1606.78 -0.110507 -1.95288 0
M  V30 16696 O 1607.98 -0.0122892 -2.71497 0
M  V30 16697 C 1606.44 -2.59059 -2.49833 0
M  V30 16698 C 1606.05 -4.01378 -1.98997 0
M  V30 16699 C 1607.79 -2.70709 -3.26981 0
M  V30 16700 C 1605.7 -5.04717 -3.08244 0
M  V30 16701 H 1604.63 -0.547424 -0.5185 0
M  V30 16702 H 1607.28 -1.70797 -0.670863 0
M  V30 16703 H 1605.66 -2.28646 -3.23322 0
M  V30 16704 H 1606.84 -4.41391 -1.32327 0
M  V30 16705 H 1605.15 -3.9403 -1.34644 0
M  V30 16706 H 1607.75 -3.45087 -4.08435 0
M  V30 16707 H 1608.09 -1.76763 -3.76909 0
M  V30 16708 H 1608.62 -3.00566 -2.60585 0
M  V30 16709 H 1605.36 -6.00315 -2.63253 0
M  V30 16710 H 1604.88 -4.6929 -3.73534 0
M  V30 16711 H 1606.56 -5.28725 -3.72906 0
M  V30 16712 N 1606.69 0.865285 -1.31722 0
M  V30 16713 C 1607.92 1.65661 -1.24785 0
M  V30 16714 C 1608.34 1.87208 0.182952 0
M  V30 16715 O 1607.7 1.41721 1.1307 0
M  V30 16716 C 1607.75 2.99921 -2.00199 0
M  V30 16717 O 1606.85 3.89936 -1.34253 0
M  V30 16718 H 1606.2 0.505459 -0.430589 0
M  V30 16719 H 1608.73 1.0785 -1.73867 0
M  V30 16720 H 1608.74 3.49823 -2.09971 0
M  V30 16721 H 1607.41 2.83559 -3.04249 0
M  V30 16722 H 1605.99 3.4839 -1.32961 0
M  V30 16723 N 1608.17 1.14759 1.0802 0
M  V30 16724 C 1609.12 0.838134 2.15044 0
M  V30 16725 C 1610.09 -0.206031 1.64817 0
M  V30 16726 O 1611.27 -0.0750812 1.90652 0
M  V30 16727 C 1608.41 0.326112 3.43556 0
M  V30 16728 C 1607.53 1.43104 4.07609 0
M  V30 16729 C 1606.66 0.875857 5.2393 0
M  V30 16730 C 1605.7 1.9582 5.79932 0
M  V30 16731 N 1604.84 1.41989 6.87593 0
M  V30 16732 H 1609.68 1.75478 2.40856 0
M  V30 16733 H 1607.22 0.875686 1.18195 0
M  V30 16734 H 1609.17 0.0110103 4.17199 0
M  V30 16735 H 1607.8 -0.55363 3.18017 0
M  V30 16736 H 1606.86 1.86247 3.31687 0
M  V30 16737 H 1608.17 2.24849 4.45246 0
M  V30 16738 H 1607.32 0.512893 6.04528 0
M  V30 16739 H 1606.06 0.0275017 4.87692 0
M  V30 16740 H 1605.07 2.33006 4.97984 0
M  V30 16741 H 1606.29 2.81021 6.18227 0
M  V30 16742 H 1604.24 0.593779 6.53307 0
M  V30 16743 H 1604.15 2.17367 7.24077 0
M  V30 16744 H 1605.42 1.08495 7.71913 0
M  V30 16745 N 1609.65 -1.26251 0.943322 0
M  V30 16746 C 1610.6 -2.23996 0.425437 0
M  V30 16747 C 1611.58 -1.53604 -0.479033 0
M  V30 16748 O 1612.78 -1.74194 -0.313929 0
M  V30 16749 C 1609.91 -3.41932 -0.306175 0
M  V30 16750 C 1608.99 -4.19607 0.615711 0
M  V30 16751 N 1609.38 -4.7484 1.74243 0
M  V30 16752 C 1607.68 -4.44002 0.421711 0
M  V30 16753 C 1608.38 -5.3356 2.31709 0
M  V30 16754 N 1607.36 -5.1937 1.60487 0
M  V30 16755 H 1611.16 -2.64296 1.28549 0
M  V30 16756 H 1608.67 -1.4136 0.799446 0
M  V30 16757 H 1610.67 -4.11079 -0.694243 0
M  V30 16758 H 1609.33 -3.03159 -1.16297 0
M  V30 16759 H 1610.34 -4.72318 2.12453 0
M  V30 16760 H 1607.02 -4.15645 -0.393138 0
M  V30 16761 H 1608.41 -5.87151 3.26654 0
M  V30 16762 N 1611.13 -0.710588 -1.40671 0
M  V30 16763 C 1612.38 -0.247949 -2.00976 0
M  V30 16764 C 1612.7 1.15725 -1.56327 0
M  V30 16765 O 1611.96 1.79826 -0.77208 0
M  V30 16766 C 1612.26 -0.270478 -3.56375 0
M  V30 16767 C 1611.92 -1.62528 -4.2059 0
M  V30 16768 C 1610.59 -1.99614 -4.37844 0
M  V30 16769 C 1612.94 -2.51591 -4.56455 0
M  V30 16770 C 1610.27 -3.2532 -4.88246 0
M  V30 16771 C 1612.62 -3.76644 -5.08254 0
M  V30 16772 C 1611.28 -4.13855 -5.23718 0
M  V30 16773 H 1610.55 -0.0907308 -0.735424 0
M  V30 16774 H 1613.2 -0.912636 -1.68354 0
M  V30 16775 H 1611.5 0.477777 -3.88876 0
M  V30 16776 H 1613.2 0.105243 -4.00862 0
M  V30 16777 H 1609.79 -1.32686 -4.07544 0
M  V30 16778 H 1613.98 -2.24215 -4.42766 0
M  V30 16779 H 1609.23 -3.54125 -4.98403 0
M  V30 16780 H 1613.41 -4.45832 -5.34983 0
M  V30 16781 H 1611.03 -5.1133 -5.62535 0
M  V30 16782 N 1612.61 1.50847 -0.456408 0
M  V30 16783 C 1613.54 2.26004 0.381421 0
M  V30 16784 C 1614.55 1.30757 0.969872 0
M  V30 16785 O 1615.74 1.56375 0.86077 0
M  V30 16786 C 1612.84 3.01506 1.54748 0
M  V30 16787 C 1612.01 4.23997 1.07448 0
M  V30 16788 C 1611.07 4.81917 2.11288 0
M  V30 16789 O 1610.1 5.43238 1.69945 0
M  V30 16790 N 1611.3 4.67622 3.43962 0
M  V30 16791 H 1614.07 2.98545 -0.262823 0
M  V30 16792 H 1611.63 1.59347 -0.286357 0
M  V30 16793 H 1613.62 3.37137 2.23877 0
M  V30 16794 H 1612.19 2.31856 2.0967 0
M  V30 16795 H 1611.41 3.93642 0.209584 0
M  V30 16796 H 1612.7 5.03446 0.736144 0
M  V30 16797 H 1612.1 4.18821 3.8027 0
M  V30 16798 H 1610.65 5.07562 4.0893 0
M  V30 16799 N 1614.09 0.188454 1.56469 0
M  V30 16800 C 1615.33 -0.452728 1.97682 0
M  V30 16801 C 1615.66 -1.61729 1.07506 0
M  V30 16802 O 1614.94 -1.94094 0.125677 0
M  V30 16803 C 1615.22 -0.919257 3.48169 0
M  V30 16804 C 1615.08 0.246656 4.49123 0
M  V30 16805 C 1616.39 -1.78706 4.02184 0
M  V30 16806 H 1613.51 -0.16309 0.718729 0
M  V30 16807 H 1616.16 0.27804 1.87955 0
M  V30 16808 H 1614.31 -1.54195 3.5659 0
M  V30 16809 H 1615.98 0.884178 4.52747 0
M  V30 16810 H 1614.22 0.89948 4.24372 0
M  V30 16811 H 1614.89 -0.122179 5.51865 0
M  V30 16812 H 1617.37 -1.26196 3.96502 0
M  V30 16813 H 1616.24 -2.08247 5.07863 0
M  V30 16814 H 1616.5 -2.73891 3.47039 0
M  V30 16815 N 1615.56 -1.5737 -0.0851874 0
M  V30 16816 C 1616.97 -1.7544 -0.638575 0
M  V30 16817 C 1617.33 -0.812041 -1.78607 0
M  V30 16818 O 1616.45 0.00710428 -2.16399 0
M  V30 16819 C 1617.05 -3.18134 -1.16517 0
M  V30 16820 C 1615.6 -3.37594 -1.66454 0
M  V30 16821 C 1614.75 -2.71203 -0.578274 0
M  V30 16822 H 1617.7 -1.58073 0.140931 0
M  V30 16823 H 1617.72 -3.21553 -2.0343 0
M  V30 16824 H 1617.24 -3.86696 -0.329794 0
M  V30 16825 H 1615.34 -2.74126 -2.5236 0
M  V30 16826 H 1615.45 -4.45968 -1.75071 0
M  V30 16827 H 1613.81 -2.33379 -1.02011 0
M  V30 16828 H 1614.6 -3.42413 0.246691 0
M  V30 16829 N 1617.04 0.356258 -1.53521 0
M  V30 16830 C 1618.27 1.11666 -1.73823 0
M  V30 16831 C 1618.68 1.83235 -0.471338 0
M  V30 16832 O 1618.02 1.74762 0.566035 0
M  V30 16833 C 1618.08 2.18429 -2.85533 0
M  V30 16834 C 1617.75 1.66545 -4.25572 0
M  V30 16835 C 1618.75 1.12454 -5.07592 0
M  V30 16836 C 1616.43 1.71776 -4.72015 0
M  V30 16837 C 1618.42 0.642826 -6.3415 0
M  V30 16838 C 1616.11 1.23217 -5.98549 0
M  V30 16839 C 1617.11 0.695609 -6.79449 0
M  V30 16840 O 1616.8 0.217211 -8.03606 0
M  V30 16841 H 1616.53 0.339418 -0.584612 0
M  V30 16842 H 1619.08 0.418173 -2.01098 0
M  V30 16843 H 1617.31 2.91798 -2.53753 0
M  V30 16844 H 1619 2.79934 -2.93925 0
M  V30 16845 H 1619.77 1.07745 -4.72881 0
M  V30 16846 H 1615.65 2.12481 -4.09112 0
M  V30 16847 H 1619.19 0.223354 -6.97242 0
M  V30 16848 H 1615.09 1.27623 -6.32758 0
M  V30 16849 H 1615.86 0.335679 -8.17811 0
M  V30 16850 N 1618.52 1.45038 0.616577 0
M  V30 16851 C 1619.77 1.47861 1.37186 0
M  V30 16852 C 1620.08 0.120862 1.95226 0
M  V30 16853 O 1621.29 0.0266872 2.71487 0
M  V30 16854 C 1619.74 2.6038 2.48455 0
M  V30 16855 C 1619.35 4.02428 1.96866 0
M  V30 16856 C 1621.1 2.7244 3.25541 0
M  V30 16857 C 1619 5.06345 3.05563 0
M  V30 16858 H 1617.93 0.550166 0.51559 0
M  V30 16859 H 1620.58 1.71151 0.661796 0
M  V30 16860 H 1618.97 2.30357 3.22105 0
M  V30 16861 H 1620.14 4.42087 1.29985 0
M  V30 16862 H 1618.45 3.94739 1.32552 0
M  V30 16863 H 1621.05 3.47248 4.06599 0
M  V30 16864 H 1621.39 1.7876 3.75966 0
M  V30 16865 H 1621.93 3.01944 2.58988 0
M  V30 16866 H 1618.67 6.01703 2.60065 0
M  V30 16867 H 1618.19 4.71264 3.7104 0
M  V30 16868 H 1619.87 5.30695 3.70097 0
M  V30 16869 N 1620 -0.858287 1.32179 0
M  V30 16870 C 1620.91 -1.99894 1.228 0
M  V30 16871 C 1621.92 -1.73417 0.142323 0
M  V30 16872 O 1623.1 -1.98114 0.362321 0
M  V30 16873 C 1620.16 -3.33495 0.947745 0
M  V30 16874 C 1619.23 -3.73217 2.12149 0
M  V30 16875 C 1618.46 -5.00443 1.85452 0
M  V30 16876 O 1618.68 -5.64828 0.79531 0
M  V30 16877 O 1617.62 -5.3721 2.71457 0
M  V30 16878 H 1621.44 -2.10742 2.18682 0
M  V30 16879 H 1619.03 -0.988385 1.12033 0
M  V30 16880 H 1620.91 -4.13585 0.807791 0
M  V30 16881 H 1619.58 -3.23694 0.019053 0
M  V30 16882 H 1618.49 -2.93718 2.3169 0
M  V30 16883 H 1619.82 -3.87659 3.03285 0
M  V30 16884 N 1621.48 -1.1533 -1.07409 0
M  V30 16885 C 1622.89 -0.895817 -1.32088 0
M  V30 16886 C 1623.09 0.457526 -1.96237 0
M  V30 16887 O 1622.15 1.19958 -2.22185 0
M  V30 16888 C 1623.46 -2.03632 -2.21256 0
M  V30 16889 C 1625.01 -2.07079 -2.34707 0
M  V30 16890 C 1625.48 -3.20451 -3.27223 0
M  V30 16891 N 1626.97 -3.20095 -3.34804 0
M  V30 16892 C 1627.71 -4.04458 -4.0645 0
M  V30 16893 N 1627.21 -4.98883 -4.80715 0
M  V30 16894 N 1629 -3.92483 -4.02385 0
M  V30 16895 H 1621.15 -2.02478 -0.641578 0
M  V30 16896 H 1623.41 -0.882864 -0.345332 0
M  V30 16897 H 1623.12 -3.0132 -1.81381 0
M  V30 16898 H 1622.99 -1.96817 -3.21781 0
M  V30 16899 H 1625.38 -1.09991 -2.73836 0
M  V30 16900 H 1625.46 -2.17962 -1.3389 0
M  V30 16901 H 1625.1 -4.17791 -2.88813 0
M  V30 16902 H 1625.03 -3.06805 -4.27993 0
M  V30 16903 H 1627.53 -2.51712 -2.81868 0
M  V30 16904 H 1627.84 -5.59698 -5.32877 0
M  V30 16905 H 1626.18 -5.02872 -4.79734 0
M  V30 16906 H 1629.37 -3.18026 -3.43478 0
M  V30 16907 H 1629.55 -4.58454 -4.57956 0
M  V30 16908 N 1622.95 1.25748 -0.950004 0
M  V30 16909 C 1623.89 2.25247 -0.423855 0
M  V30 16910 C 1624.9 1.56233 0.457726 0
M  V30 16911 O 1626.09 1.76496 0.266749 0
M  V30 16912 C 1623.19 3.36422 0.409074 0
M  V30 16913 C 1622.36 4.34991 -0.458421 0
M  V30 16914 C 1621.42 5.25253 0.315537 0
M  V30 16915 O 1620.45 5.68489 -0.284474 0
M  V30 16916 N 1621.65 5.57732 1.60983 0
M  V30 16917 H 1624.41 2.71026 -1.27925 0
M  V30 16918 H 1621.97 1.39607 -0.819853 0
M  V30 16919 H 1623.97 3.93764 0.934447 0
M  V30 16920 H 1622.54 2.90068 1.1653 0
M  V30 16921 H 1621.76 3.76594 -1.16494 0
M  V30 16922 H 1623.04 4.97833 -1.05068 0
M  V30 16923 H 1622.44 5.24502 2.1193 0
M  V30 16924 H 1621 6.17678 2.08126 0
M  V30 16925 N 1624.43 0.718038 1.40292 0
M  V30 16926 C 1625.39 0.0757483 2.29075 0
M  V30 16927 C 1626.39 -0.684831 1.45488 0
M  V30 16928 O 1627.58 -0.516369 1.66371 0
M  V30 16929 C 1624.72 -0.902534 3.28736 0
M  V30 16930 H 1625.91 0.857729 2.87373 0
M  V30 16931 H 1623.46 0.482839 1.48655 0
M  V30 16932 H 1624.2 -1.71148 2.75461 0
M  V30 16933 H 1623.98 -0.360009 3.90444 0
M  V30 16934 H 1625.47 -1.34903 3.9521 0
M  V30 16935 N 1625.91 -1.50602 0.464402 0
M  V30 16936 C 1626.86 -2.29992 -0.347337 0
M  V30 16937 C 1627.85 -1.36991 -0.996489 0
M  V30 16938 O 1629.06 -1.54213 -0.928359 0
M  V30 16939 H 1625.43 -0.740529 -0.130847 0
M  V30 16940 H 1627.4 -2.96425 0.342734 0
M  V30 16941 C 1626.15 -3.17355 -1.4206 0
M  V30 16942 H 1625.48 -3.88822 -0.930473 0
M  V30 16943 H 1626.92 -3.75912 -1.96129 0
M  V30 16944 C 1625.38 -2.34506 -2.41886 0
M  V30 16945 O 1625.91 -2.02347 -3.47014 0
M  V30 16946 N 1624.11 -1.97212 -2.13438 0
M  V30 16947 H 1623.66 -2.23564 -1.27971 0
M  V30 16948 H 1623.62 -1.42081 -2.80464 0
M  V30 16949 N 1627.39 -0.19675 -1.56367 0
M  V30 16950 C 1628.67 0.489288 -1.89381 0
M  V30 16951 C 1629.05 1.79529 -1.11052 0
M  V30 16952 O 1628.39 2.27513 -0.212117 0
M  V30 16953 C 1628.6 0.706459 -3.41775 0
M  V30 16954 C 1629.95 1.02508 -4.1204 0
M  V30 16955 O 1630.98 0.794123 -3.47235 0
M  V30 16956 O 1629.83 1.46207 -5.26579 0
M  V30 16957 H 1626.93 0.2553 -0.786607 0
M  V30 16958 H 1629.47 -0.237086 -1.68036 0
M  V30 16959 H 1628.25 -0.215762 -3.90705 0
M  V30 16960 H 1627.87 1.48523 -3.68818 0
M  V30 16961 N 1628.87 1.57413 0.0768405 0
M  V30 16962 C 1630.11 1.86633 0.775414 0
M  V30 16963 C 1630.44 0.788041 1.78367 0
M  V30 16964 O 1629.71 -0.183835 1.95036 0
M  V30 16965 H 1628.29 0.688678 0.289365 0
M  V30 16966 H 1630.95 1.94825 0.0541285 0
M  V30 16967 H 1630.04 2.83977 1.29474 0
M  V30 16968 N 1630.34 -0.348112 1.53707 0
M  V30 16969 C 1631.59 -1.08684 1.71929 0
M  V30 16970 C 1631.95 -1.86463 0.474284 0
M  V30 16971 O 1631.24 -1.84036 -0.533038 0
M  V30 16972 C 1631.43 -2.06123 2.91973 0
M  V30 16973 C 1631.26 -1.37921 4.28028 0
M  V30 16974 C 1630.03 -1.12598 4.92595 0
M  V30 16975 C 1632.23 -0.807794 5.07917 0
M  V30 16976 N 1630.21 -0.409288 6.12534 0
M  V30 16977 C 1631.58 -0.221415 6.19605 0
M  V30 16978 C 1633.64 -0.708191 4.92838 0
M  V30 16979 C 1632.34 0.454872 7.1786 0
M  V30 16980 C 1634.37 -0.0456537 5.91382 0
M  V30 16981 C 1633.73 0.529774 7.02405 0
M  V30 16982 H 1629.83 -0.382246 0.682211 0
M  V30 16983 H 1632.41 -0.370996 1.91133 0
M  V30 16984 H 1630.58 -2.75003 2.74277 0
M  V30 16985 H 1632.31 -2.72801 2.98935 0
M  V30 16986 H 1629.07 -1.41188 4.52065 0
M  V30 16987 H 1629.49 -0.0658012 6.76968 0
M  V30 16988 H 1634.14 -1.13882 4.07174 0
M  V30 16989 H 1631.85 0.897401 8.03102 0
M  V30 16990 H 1635.44 0.0307208 5.81792 0
M  V30 16991 H 1634.32 1.03432 7.77349 0
M  V30 16992 N 1631.82 -1.45363 -0.608876 0
M  V30 16993 C 1633.07 -1.49313 -1.36792 0
M  V30 16994 C 1633.4 -0.134357 -1.94035 0
M  V30 16995 O 1632.65 0.866819 -1.75456 0
M  V30 16996 C 1632.95 -2.51893 -2.53544 0
M  V30 16997 C 1632.62 -3.96636 -2.14455 0
M  V30 16998 C 1631.28 -4.36048 -2.03508 0
M  V30 16999 C 1633.63 -4.87668 -1.83929 0
M  V30 17000 C 1630.96 -5.64389 -1.60256 0
M  V30 17001 C 1633.31 -6.16419 -1.42163 0
M  V30 17002 C 1631.98 -6.54763 -1.29774 0
M  V30 17003 H 1631.25 -0.546373 -0.500557 0
M  V30 17004 H 1633.89 -1.78702 -0.68832 0
M  V30 17005 H 1632.2 -2.16068 -3.26836 0
M  V30 17006 H 1633.89 -2.52187 -3.11773 0
M  V30 17007 H 1630.48 -3.65467 -2.23901 0
M  V30 17008 H 1634.67 -4.57956 -1.91284 0
M  V30 17009 H 1629.92 -5.92894 -1.49285 0
M  V30 17010 H 1634.1 -6.86401 -1.17588 0
M  V30 17011 H 1631.73 -7.5411 -0.960322 0
M  V30 17012 N 1633.3 0.851265 -1.32632 0
M  V30 17013 C 1634.72 1.14 -1.11696 0
M  V30 17014 C 1634.92 2.0125 0.100327 0
M  V30 17015 O 1633.97 2.40013 0.784233 0
M  V30 17016 C 1635.29 1.81406 -2.39817 0
M  V30 17017 C 1636.83 1.94027 -2.45607 0
M  V30 17018 C 1637.31 2.64848 -3.73657 0
M  V30 17019 N 1638.8 2.7237 -3.74658 0
M  V30 17020 C 1639.53 3.27827 -4.70443 0
M  V30 17021 N 1639.03 3.84068 -5.76596 0
M  V30 17022 N 1640.82 3.25962 -4.57936 0
M  V30 17023 H 1632.97 0.270302 -2.10673 0
M  V30 17024 H 1635.24 0.182395 -0.930288 0
M  V30 17025 H 1634.94 1.24753 -3.28831 0
M  V30 17026 H 1634.82 2.81535 -2.51034 0
M  V30 17027 H 1637.2 2.49838 -1.5705 0
M  V30 17028 H 1637.29 0.928844 -2.3834 0
M  V30 17029 H 1636.93 2.09699 -4.62589 0
M  V30 17030 H 1636.86 3.66436 -3.78196 0
M  V30 17031 H 1639.35 2.32474 -2.97933 0
M  V30 17032 H 1639.66 4.24551 -6.45737 0
M  V30 17033 H 1638.01 3.82391 -5.80347 0
M  V30 17034 H 1641.2 2.81274 -3.74169 0
M  V30 17035 H 1641.37 3.68881 -5.32758 0
M  V30 17036 N 1634.78 1.15898 1.06796 0
M  V30 17037 C 1635.73 0.860895 2.14143 0
M  V30 17038 C 1636.7 -0.188539 1.65026 0
M  V30 17039 O 1637.88 -0.0548558 1.90721 0
M  V30 17040 C 1635.02 0.362533 3.4319 0
M  V30 17041 C 1634.13 1.4742 4.06068 0
M  V30 17042 C 1633.27 0.931377 5.22971 0
M  V30 17043 C 1632.31 2.0196 5.77822 0
M  V30 17044 N 1631.44 1.49274 6.86048 0
M  V30 17045 H 1636.28 1.78023 2.38981 0
M  V30 17046 H 1633.82 0.888173 1.1726 0
M  V30 17047 H 1635.78 0.0552592 4.17163 0
M  V30 17048 H 1634.41 -0.519869 3.18586 0
M  V30 17049 H 1633.46 1.89754 3.29693 0
M  V30 17050 H 1634.77 2.29559 4.42836 0
M  V30 17051 H 1633.93 0.576982 6.0395 0
M  V30 17052 H 1632.67 0.0792265 4.87636 0
M  V30 17053 H 1631.67 2.38275 4.95485 0
M  V30 17054 H 1632.9 2.87562 6.15211 0
M  V30 17055 H 1630.84 0.663037 6.52641 0
M  V30 17056 H 1630.76 2.25035 7.21731 0
M  V30 17057 H 1632.03 1.16676 7.70718 0
M  V30 17058 N 1636.26 -1.25243 0.956659 0
M  V30 17059 C 1637.5 -1.93014 0.612538 0
M  V30 17060 C 1637.83 -1.74908 -0.85073 0
M  V30 17061 O 1637.09 -1.08896 -1.62604 0
M  V30 17062 C 1637.39 -3.4536 0.919849 0
M  V30 17063 C 1637.05 -3.83623 2.36948 0
M  V30 17064 C 1635.71 -3.93779 2.76571 0
M  V30 17065 C 1638.07 -4.02536 3.3108 0
M  V30 17066 C 1635.39 -4.20257 4.09391 0
M  V30 17067 C 1637.75 -4.30507 4.63515 0
M  V30 17068 C 1636.41 -4.3888 5.02932 0
M  V30 17069 H 1635.68 -0.706286 0.224144 0
M  V30 17070 H 1638.33 -1.48748 1.20608 0
M  V30 17071 H 1636.63 -3.9104 0.243941 0
M  V30 17072 H 1638.33 -3.95986 0.632143 0
M  V30 17073 H 1634.92 -3.76275 2.05219 0
M  V30 17074 H 1639.1 -3.94102 3.01657 0
M  V30 17075 H 1634.36 -4.24956 4.39571 0
M  V30 17076 H 1638.53 -4.44087 5.36433 0
M  V30 17077 H 1636.16 -4.59151 6.05875 0
M  V30 17078 N 1637.73 -0.725468 -1.3991 0
M  V30 17079 C 1638.68 -0.0682776 -2.325 0
M  V30 17080 C 1639.68 0.736285 -1.52562 0
M  V30 17081 O 1640.88 0.638542 -1.68293 0
M  V30 17082 H 1637.26 -0.00327742 -0.751993 0
M  V30 17083 H 1639.23 -0.865735 -2.85565 0
M  V30 17084 C 1637.98 0.832036 -3.37598 0
M  V30 17085 H 1637.3 0.222341 -3.99181 0
M  V30 17086 H 1638.74 1.25965 -4.04856 0
M  V30 17087 C 1637.2 1.96201 -2.73874 0
M  V30 17088 O 1637.73 3.05378 -2.60974 0
M  V30 17089 N 1635.94 1.74857 -2.32106 0
M  V30 17090 H 1635.48 0.860621 -2.42798 0
M  V30 17091 H 1635.44 2.50639 -1.89808 0
M  V30 17092 N 1639.21 1.50354 -0.472382 0
M  V30 17093 C 1640.49 1.95071 0.143803 0
M  V30 17094 C 1640.87 1.41281 1.56853 0
M  V30 17095 O 1640.22 0.614349 2.20086 0
M  V30 17096 C 1640.43 3.48895 0.0857944 0
M  V30 17097 C 1641.78 4.23715 0.274039 0
M  V30 17098 O 1642.8 3.5583 0.162319 0
M  V30 17099 O 1641.66 5.4421 0.499815 0
M  V30 17100 H 1638.75 0.819521 0.110966 0
M  V30 17101 H 1641.3 1.61116 -0.532876 0
M  V30 17102 H 1640.07 3.80598 -0.908887 0
M  V30 17103 H 1639.69 3.89389 0.803875 0
M  V30 17104 N 1640.69 0.205039 1.56261 0
M  V30 17105 C 1641.65 -0.698166 2.18308 0
M  V30 17106 C 1642.65 -1.13376 1.14029 0
M  V30 17107 O 1643.84 -1.04524 1.39357 0
M  V30 17108 C 1640.98 -1.95438 2.79315 0
M  V30 17109 H 1642.17 -0.157462 2.99486 0
M  V30 17110 H 1639.72 -0.0445849 1.56236 0
M  V30 17111 H 1640.46 -2.53736 2.01962 0
M  V30 17112 H 1640.24 -1.65068 3.55662 0
M  V30 17113 H 1641.73 -2.59824 3.26927 0
M  V30 17114 N 1642.17 -1.57451 -0.0684915 0
M  V30 17115 C 1643.41 -1.89247 -0.772325 0
M  V30 17116 C 1643.77 -0.799211 -1.74576 0
M  V30 17117 O 1644.97 -1.00034 -2.49493 0
M  V30 17118 C 1643.25 -3.26269 -1.45888 0
M  V30 17119 S 1644.8 -3.7982 -2.19732 0
M  V30 17120 H 1641.62 -0.66302 -0.256759 0
M  V30 17121 H 1644.22 -1.9548 -0.0282932 0
M  V30 17122 H 1642.93 -4.03735 -0.736646 0
M  V30 17123 H 1642.46 -3.23242 -2.24227 0
M  V30 17124 H 1644.47 -3.55372 -3.46302 0
M  V30 17125 N 1643.65 0.339955 -1.5389 0
M  V30 17126 C 1644.6 1.43787 -1.82833 0
M  V30 17127 C 1645.59 1.54303 -0.699058 0
M  V30 17128 O 1646.8 1.56884 -0.882455 0
M  V30 17129 H 1643.17 0.479497 -0.579298 0
M  V30 17130 H 1645.14 1.16592 -2.7468 0
M  V30 17131 C 1643.89 2.80257 -2.05794 0
M  V30 17132 H 1643.21 2.72933 -2.92143 0
M  V30 17133 H 1644.65 3.56191 -2.30009 0
M  V30 17134 C 1643.11 3.26143 -0.844532 0
M  V30 17135 O 1643.64 4.01674 -0.0457121 0
M  V30 17136 N 1641.85 2.82988 -0.660748 0
M  V30 17137 H 1641.4 2.21687 -1.31198 0
M  V30 17138 H 1641.35 3.14044 0.149661 0
M  V30 17139 N 1645.13 1.45684 0.601159 0
M  V30 17140 C 1646.09 1.54451 1.69344 0
M  V30 17141 C 1647.09 0.423379 1.55126 0
M  V30 17142 O 1648.28 0.687079 1.60078 0
M  V30 17143 C 1645.41 1.4472 3.08657 0
M  V30 17144 H 1646.6 2.51778 1.62935 0
M  V30 17145 H 1644.16 1.3322 0.81744 0
M  V30 17146 H 1644.89 0.486027 3.20637 0
M  V30 17147 H 1644.68 2.26045 3.20384 0
M  V30 17148 H 1646.17 1.53902 3.88206 0
M  V30 17149 N 1646.6 -0.84422 1.33082 0
M  V30 17150 C 1647.57 -1.93519 1.22813 0
M  V30 17151 C 1648.57 -1.60113 0.148516 0
M  V30 17152 O 1649.76 -1.69553 0.399668 0
M  V30 17153 C 1646.89 -3.29045 0.891179 0
M  V30 17154 H 1648.08 -2.04051 2.1978 0
M  V30 17155 H 1645.63 -1.03567 1.17063 0
M  V30 17156 H 1646.37 -3.2421 -0.0762276 0
M  V30 17157 H 1646.15 -3.54671 1.67186 0
M  V30 17158 H 1647.64 -4.08984 0.843932 0
M  V30 17159 N 1648.08 -1.16463 -1.0618 0
M  V30 17160 C 1649.03 -0.87224 -2.13683 0
M  V30 17161 C 1650 0.179784 -1.65124 0
M  V30 17162 O 1651.18 0.0447406 -1.90748 0
M  V30 17163 C 1648.32 -0.380728 -3.42993 0
M  V30 17164 C 1647.44 -1.49571 -4.05281 0
M  V30 17165 C 1646.57 -0.959099 -5.2247 0
M  V30 17166 C 1645.61 -2.05021 -5.76743 0
M  V30 17167 N 1644.75 -1.5291 -6.85247 0
M  V30 17168 H 1649.59 -1.79288 -2.38033 0
M  V30 17169 H 1647.12 -0.894379 -1.16787 0
M  V30 17170 H 1649.08 -0.0773816 -4.17128 0
M  V30 17171 H 1647.71 0.502966 -3.18857 0
M  V30 17172 H 1646.76 -1.915 -3.28682 0
M  V30 17173 H 1648.08 -2.31904 -4.41613 0
M  V30 17174 H 1647.23 -0.609003 -6.03636 0
M  V30 17175 H 1645.97 -0.105086 -4.87587 0
M  V30 17176 H 1644.97 -2.40899 -4.94214 0
M  V30 17177 H 1646.2 -2.90821 -6.13678 0
M  V30 17178 H 1644.15 -0.697639 -6.5228 0
M  V30 17179 H 1644.06 -2.28859 -7.20527 0
M  V30 17180 H 1645.33 -1.20762 -7.70089 0
M  V30 17181 N 1649.56 1.24734 -0.963288 0
M  V30 17182 C 1650.81 1.92305 -0.621536 0
M  V30 17183 C 1651.13 1.75723 0.845363 0
M  V30 17184 O 1650.4 1.1261 1.60299 0
M  V30 17185 H 1648.98 0.71171 -0.226886 0
M  V30 17186 H 1651.64 1.5172 -1.2234 0
M  V30 17187 H 1650.74 3.00065 -0.858322 0
M  V30 17188 N 1651.04 0.732878 1.39523 0
M  V30 17189 C 1651.97 0.106583 2.33257 0
M  V30 17190 C 1652.95 -0.726582 1.53801 0
M  V30 17191 O 1654.13 -0.671994 1.82203 0
M  V30 17192 C 1651.26 -0.803051 3.37888 0
M  V30 17193 C 1650.22 -0.0742048 4.27936 0
M  V30 17194 C 1649.54 -1.10071 5.23248 0
M  V30 17195 C 1650.84 1.08195 5.10971 0
M  V30 17196 H 1652.54 0.889539 2.8588 0
M  V30 17197 H 1650.08 0.429209 1.37455 0
M  V30 17198 H 1652.04 -1.25071 4.02412 0
M  V30 17199 H 1650.76 -1.6181 2.83699 0
M  V30 17200 H 1649.42 0.35381 3.64889 0
M  V30 17201 H 1649.07 -1.90927 4.65356 0
M  V30 17202 H 1648.77 -0.617825 5.84343 0
M  V30 17203 H 1650.29 -1.54812 5.90649 0
M  V30 17204 H 1651.71 0.712835 5.68851 0
M  V30 17205 H 1650.1 1.49433 5.81197 0
M  V30 17206 H 1651.17 1.90463 4.45928 0
M  V30 17207 N 1652.52 -1.50101 0.480349 0
M  V30 17208 C 1653.43 -2.32488 -0.31408 0
M  V30 17209 C 1654.44 -1.43285 -0.987186 0
M  V30 17210 O 1655.62 -1.7633 -0.973123 0
M  V30 17211 C 1652.68 -3.18203 -1.37651 0
M  V30 17212 C 1651.74 -4.23236 -0.71903 0
M  V30 17213 C 1650.98 -5.04854 -1.73084 0
M  V30 17214 O 1651.2 -4.87681 -2.95843 0
M  V30 17215 O 1650.13 -5.87748 -1.29755 0
M  V30 17216 H 1653.96 -3.01562 0.3597 0
M  V30 17217 H 1651.54 -1.47427 0.242029 0
M  V30 17218 H 1653.43 -3.71362 -1.9917 0
M  V30 17219 H 1652.1 -2.51846 -2.0336 0
M  V30 17220 H 1651.01 -3.74044 -0.0646492 0
M  V30 17221 H 1652.34 -4.92089 -0.104743 0
M  V30 17222 N 1653.99 -0.213323 -1.5615 0
M  V30 17223 C 1655.24 0.414505 -1.99132 0
M  V30 17224 C 1655.59 1.57968 -1.09836 0
M  V30 17225 O 1654.89 1.91039 -0.146566 0
M  V30 17226 C 1655.08 0.905764 -3.45732 0
M  V30 17227 C 1654.91 -0.210267 -4.49208 0
M  V30 17228 C 1653.68 -0.673947 -5.00785 0
M  V30 17229 C 1655.88 -1.02566 -5.03969 0
M  V30 17230 N 1653.86 -1.76589 -5.87954 0
M  V30 17231 C 1655.23 -1.96663 -5.87983 0
M  V30 17232 C 1657.29 -1.06602 -4.86354 0
M  V30 17233 C 1655.99 -2.94467 -6.56263 0
M  V30 17234 C 1658.02 -2.0322 -5.55388 0
M  V30 17235 C 1657.38 -2.96058 -6.39163 0
M  V30 17236 H 1653.48 0.118581 -0.772957 0
M  V30 17237 H 1656.06 -0.323206 -1.91999 0
M  V30 17238 H 1654.23 1.61286 -3.53329 0
M  V30 17239 H 1655.96 1.50572 -3.75646 0
M  V30 17240 H 1652.72 -0.26401 -4.72864 0
M  V30 17241 H 1653.14 -2.31362 -6.36239 0
M  V30 17242 H 1657.78 -0.362209 -4.21246 0
M  V30 17243 H 1655.5 -3.65815 -7.20559 0
M  V30 17244 H 1659.09 -2.07007 -5.43727 0
M  V30 17245 H 1657.97 -3.696 -6.91639 0
M  V30 17246 N 1655.47 1.57485 0.0601405 0
M  V30 17247 C 1656.72 1.86998 0.75595 0
M  V30 17248 C 1657.03 0.807616 1.78149 0
M  V30 17249 O 1658.24 0.99096 2.52769 0
M  V30 17250 C 1656.7 3.31746 1.39545 0
M  V30 17251 C 1656.3 4.46139 0.407874 0
M  V30 17252 C 1658.05 3.70445 2.07294 0
M  V30 17253 C 1655.96 5.81933 1.05395 0
M  V30 17254 H 1654.89 0.697619 0.286083 0
M  V30 17255 H 1657.54 1.83498 0.00948593 0
M  V30 17256 H 1655.92 3.29894 2.19057 0
M  V30 17257 H 1657.09 4.59405 -0.358281 0
M  V30 17258 H 1655.41 4.1607 -0.16581 0
M  V30 17259 H 1658 4.692 2.56428 0
M  V30 17260 H 1658.35 3.00839 2.87753 0
M  V30 17261 H 1658.88 3.74337 1.34598 0
M  V30 17262 H 1655.62 6.54861 0.289437 0
M  V30 17263 H 1655.14 5.72446 1.79068 0
M  V30 17264 H 1656.82 6.27652 1.5704 0
M  V30 17265 N 1656.95 -0.331789 1.54068 0
M  V30 17266 C 1657.91 -1.39094 1.82169 0
M  V30 17267 C 1658.91 -1.45092 0.693168 0
M  V30 17268 O 1660.1 -1.45263 0.961471 0
M  V30 17269 C 1657.24 -2.77909 1.97432 0
M  V30 17270 H 1658.43 -1.15435 2.76794 0
M  V30 17271 H 1655.98 -0.566827 1.4566 0
M  V30 17272 H 1656.72 -3.06835 1.0499 0
M  V30 17273 H 1656.5 -2.7495 2.79544 0
M  V30 17274 H 1657.99 -3.54548 2.20649 0
M  V30 17275 N 1658.43 -1.46001 -0.593424 0
M  V30 17276 C 1659.38 -1.56106 -1.72434 0
M  V30 17277 C 1660.37 -0.430155 -1.63848 0
M  V30 17278 O 1661.58 -0.606618 -1.6947 0
M  V30 17279 H 1657.95 -0.490601 -0.569925 0
M  V30 17280 H 1659.92 -2.51214 -1.6104 0
M  V30 17281 C 1658.67 -1.55836 -3.10822 0
M  V30 17282 H 1657.99 -2.42189 -3.18095 0
M  V30 17283 H 1659.43 -1.66962 -3.89743 0
M  V30 17284 C 1657.89 -0.285146 -3.35691 0
M  V30 17285 O 1658.42 0.629115 -3.96743 0
M  V30 17286 N 1656.63 -0.176401 -2.90064 0
M  V30 17287 H 1656.18 -0.921281 -2.40562 0
M  V30 17288 H 1656.13 0.674636 -3.07077 0
M  V30 17289 N 1659.91 0.83715 -1.33527 0
M  V30 17290 C 1660.85 1.94709 -1.23924 0
M  V30 17291 C 1661.82 1.65684 -0.117494 0
M  V30 17292 O 1663.01 1.88489 -0.296057 0
M  V30 17293 C 1660.15 3.3071 -0.986146 0
M  V30 17294 C 1659.26 3.72121 -2.19432 0
M  V30 17295 C 1658.4 4.96999 -1.87524 0
M  V30 17296 C 1657.44 5.3095 -3.04563 0
M  V30 17297 N 1656.57 6.47006 -2.72632 0
M  V30 17298 H 1661.41 2.02255 -2.18854 0
M  V30 17299 H 1658.95 0.989703 -1.08827 0
M  V30 17300 H 1660.91 4.09065 -0.819834 0
M  V30 17301 H 1659.54 3.22716 -0.0735786 0
M  V30 17302 H 1658.59 2.89274 -2.47032 0
M  V30 17303 H 1659.9 3.93192 -3.06923 0
M  V30 17304 H 1659.06 5.83107 -1.67546 0
M  V30 17305 H 1657.79 4.77901 -0.972714 0
M  V30 17306 H 1656.8 4.43346 -3.25153 0
M  V30 17307 H 1658.02 5.51995 -3.95573 0
M  V30 17308 H 1655.97 6.29391 -1.8494 0
M  V30 17309 H 1655.89 6.6818 -3.53654 0
M  V30 17310 H 1657.16 7.3622 -2.56125 0
M  V30 17311 N 1661.38 1.17024 1.05561 0
M  V30 17312 C 1662.63 0.950769 1.77886 0
M  V30 17313 C 1662.95 -0.522005 1.88506 0
M  V30 17314 O 1664.15 -0.859582 2.57533 0
M  V30 17315 C 1662.61 1.65189 3.19751 0
M  V30 17316 C 1662.22 3.16294 3.17273 0
M  V30 17317 C 1663.96 1.51466 3.96558 0
M  V30 17318 C 1661.87 3.79111 4.53904 0
M  V30 17319 H 1660.8 0.352089 0.666745 0
M  V30 17320 H 1663.45 1.40237 1.18346 0
M  V30 17321 H 1661.83 1.12801 3.79594 0
M  V30 17322 H 1663 3.75585 2.66969 0
M  V30 17323 H 1661.32 3.29986 2.53966 0
M  V30 17324 H 1663.92 1.95772 4.97571 0
M  V30 17325 H 1664.26 0.46467 4.13699 0
M  V30 17326 H 1664.79 2.0105 3.43254 0
M  V30 17327 H 1661.53 4.84091 4.41969 0
M  V30 17328 H 1661.05 3.24606 5.04372 0
M  V30 17329 H 1662.73 3.81099 5.2285 0
M  V30 17330 N 1662.86 -1.24221 0.969889 0
M  V30 17331 C 1664.09 -1.96943 0.650262 0
M  V30 17332 C 1664.51 -1.71437 -0.774018 0
M  V30 17333 O 1663.87 -0.979428 -1.52568 0
M  V30 17334 C 1663.92 -3.48303 0.933682 0
M  V30 17335 O 1663.02 -4.12395 0.0202425 0
M  V30 17336 H 1662.36 -0.616902 0.245618 0
M  V30 17337 H 1664.89 -1.57939 1.30063 0
M  V30 17338 H 1664.9 -3.98701 0.866106 0
M  V30 17339 H 1663.58 -3.66194 1.97166 0
M  V30 17340 H 1662.16 -3.72632 0.141327 0
M  V30 17341 N 1664.34 -0.740267 -1.39132 0
M  V30 17342 C 1665.29 -0.103744 -2.30567 0
M  V30 17343 C 1666.26 0.724026 -1.49489 0
M  V30 17344 O 1667.44 0.682904 -1.7816 0
M  V30 17345 C 1664.58 0.793587 -3.35851 0
M  V30 17346 C 1663.7 -0.0473671 -4.31974 0
M  V30 17347 C 1662.83 0.851726 -5.24327 0
M  V30 17348 C 1661.87 0.00633633 -6.121 0
M  V30 17349 N 1661.01 0.861652 -6.96793 0
M  V30 17350 H 1665.85 -0.889087 -2.84428 0
M  V30 17351 H 1663.38 -0.450093 -1.40045 0
M  V30 17352 H 1665.34 1.32834 -3.95488 0
M  V30 17353 H 1663.97 1.54485 -2.83433 0
M  V30 17354 H 1663.02 -0.699601 -3.73911 0
M  V30 17355 H 1664.34 -0.700806 -4.93852 0
M  V30 17356 H 1663.49 1.45413 -5.89016 0
M  V30 17357 H 1662.23 1.53893 -4.62783 0
M  V30 17358 H 1661.23 -0.608833 -5.46419 0
M  V30 17359 H 1662.46 -0.677731 -6.7571 0
M  V30 17360 H 1660.4 1.53405 -6.37811 0
M  V30 17361 H 1660.32 0.264812 -7.55536 0
M  V30 17362 H 1661.59 1.44945 -7.65905 0
M  V30 17363 N 1665.82 1.49844 -0.488302 0
M  V30 17364 C 1666.75 2.31737 0.286432 0
M  V30 17365 C 1667.73 1.39424 0.974418 0
M  V30 17366 O 1668.91 1.68339 0.968274 0
M  V30 17367 C 1666.04 3.19616 1.35878 0
M  V30 17368 C 1665 4.20619 0.791409 0
M  V30 17369 C 1664.32 4.9735 1.96333 0
M  V30 17370 C 1665.62 5.21882 -0.208975 0
M  V30 17371 H 1667.32 2.96755 -0.397092 0
M  V30 17372 H 1664.86 1.42709 -0.192413 0
M  V30 17373 H 1666.82 3.75711 1.90838 0
M  V30 17374 H 1665.54 2.52516 2.07131 0
M  V30 17375 H 1664.2 3.65651 0.263647 0
M  V30 17376 H 1663.85 4.26708 2.66325 0
M  V30 17377 H 1663.55 5.65684 1.58983 0
M  V30 17378 H 1665.07 5.56286 2.51751 0
M  V30 17379 H 1666.49 5.72746 0.252049 0
M  V30 17380 H 1664.88 5.98033 -0.497638 0
M  V30 17381 H 1665.95 4.7157 -1.12916 0
M  V30 17382 N 1667.3 0.221601 1.56034 0
M  V30 17383 C 1668.55 -0.410442 1.9748 0
M  V30 17384 C 1668.86 -1.60895 1.1123 0
M  V30 17385 O 1670.06 -2.31052 1.42574 0
M  V30 17386 C 1668.52 -0.781624 3.5131 0
M  V30 17387 C 1668.13 0.394077 4.46263 0
M  V30 17388 C 1669.87 -1.37927 4.01468 0
M  V30 17389 C 1667.78 0.000458181 5.914 0
M  V30 17390 H 1666.71 -0.157122 0.737447 0
M  V30 17391 H 1669.36 0.317821 1.80727 0
M  V30 17392 H 1667.74 -1.56731 3.63664 0
M  V30 17393 H 1668.92 1.17161 4.45657 0
M  V30 17394 H 1667.23 0.904959 4.06447 0
M  V30 17395 H 1669.83 -1.68667 5.07401 0
M  V30 17396 H 1670.17 -2.29507 3.47322 0
M  V30 17397 H 1670.7 -0.657015 3.92337 0
M  V30 17398 H 1667.44 0.882743 6.49529 0
M  V30 17399 H 1666.96 -0.741386 5.952 0
M  V30 17400 H 1668.64 -0.42621 6.45595 0
M  V30 17401 N 1668.77 -1.57515 -0.0517878 0
M  V30 17402 C 1669.68 -2.08427 -1.07681 0
M  V30 17403 C 1670.7 -1.01797 -1.41115 0
M  V30 17404 O 1671.88 -1.33394 -1.50891 0
M  V30 17405 C 1668.94 -2.53472 -2.36544 0
M  V30 17406 C 1668 -3.74488 -2.09899 0
M  V30 17407 C 1667.24 -4.17374 -3.32618 0
M  V30 17408 O 1667.46 -3.59962 -4.42475 0
M  V30 17409 O 1666.39 -5.10006 -3.19653 0
M  V30 17410 H 1670.22 -2.96122 -0.674217 0
M  V30 17411 H 1667.8 -1.4699 -0.267274 0
M  V30 17412 H 1669.69 -2.82876 -3.12345 0
M  V30 17413 H 1668.36 -1.68899 -2.76143 0
M  V30 17414 H 1667.27 -3.50137 -1.31739 0
M  V30 17415 H 1668.6 -4.59975 -1.75169 0
M  V30 17416 N 1670.25 0.323614 -1.54242 0
M  V30 17417 C 1671.5 1.05935 -1.73636 0
M  V30 17418 C 1671.85 1.85684 -0.503888 0
M  V30 17419 O 1671.15 1.84861 0.503692 0
M  V30 17420 C 1671.34 2.01452 -2.95215 0
M  V30 17421 C 1671.17 1.31094 -4.30168 0
M  V30 17422 C 1669.94 1.04747 -4.94324 0
M  V30 17423 C 1672.14 0.726886 -5.09137 0
M  V30 17424 N 1670.12 0.311788 -6.13108 0
M  V30 17425 C 1671.49 0.122813 -6.19878 0
M  V30 17426 C 1673.55 0.629696 -4.93902 0
M  V30 17427 C 1672.25 -0.569019 -7.17046 0
M  V30 17428 C 1674.28 -0.0484359 -5.9138 0
M  V30 17429 C 1673.64 -0.641453 -7.01473 0
M  V30 17430 H 1669.74 0.371344 -0.688206 0
M  V30 17431 H 1672.32 0.340541 -1.91699 0
M  V30 17432 H 1670.49 2.70605 -2.78617 0
M  V30 17433 H 1672.22 2.6801 -3.03237 0
M  V30 17434 H 1668.98 1.33979 -4.54254 0
M  V30 17435 H 1669.4 -0.0419069 -6.76987 0
M  V30 17436 H 1674.04 1.0739 -4.08934 0
M  V30 17437 H 1671.76 -1.02505 -8.01572 0
M  V30 17438 H 1675.35 -0.123275 -5.81669 0
M  V30 17439 H 1674.23 -1.15786 -7.75605 0
M  V30 17440 N 1671.73 1.46313 0.585673 0
M  V30 17441 C 1672.98 1.50738 1.34019 0
M  V30 17442 C 1673.29 0.162245 1.94926 0
M  V30 17443 O 1674.5 0.0842676 2.71369 0
M  V30 17444 C 1672.96 2.65592 2.42876 0
M  V30 17445 C 1672.56 4.06513 1.88285 0
M  V30 17446 C 1674.31 2.79284 3.19689 0
M  V30 17447 C 1672.21 5.12712 2.94754 0
M  V30 17448 H 1671.14 0.560979 0.503804 0
M  V30 17449 H 1673.8 1.72516 0.625344 0
M  V30 17450 H 1672.18 2.37138 3.17146 0
M  V30 17451 H 1673.35 4.44744 1.20578 0
M  V30 17452 H 1671.67 3.97462 1.2415 0
M  V30 17453 H 1674.26 3.55795 3.99142 0
M  V30 17454 H 1674.61 1.86694 3.7209 0
M  V30 17455 H 1675.14 3.0737 2.52525 0
M  V30 17456 H 1671.88 6.07084 2.47244 0
M  V30 17457 H 1671.4 4.79028 3.6096 0
M  V30 17458 H 1673.08 5.38426 3.58757 0
M  V30 17459 N 1673.21 -0.830057 1.33969 0
M  V30 17460 C 1674.16 -1.94049 1.24955 0
M  V30 17461 C 1675.13 -1.65619 0.126279 0
M  V30 17462 O 1676.31 -1.88329 0.306049 0
M  V30 17463 C 1673.45 -3.30182 1.00367 0
M  V30 17464 C 1672.56 -3.70952 2.21402 0
M  V30 17465 C 1671.7 -4.95998 1.90157 0
M  V30 17466 C 1670.74 -5.29327 3.07374 0
M  V30 17467 N 1669.88 -6.45551 2.76059 0
M  V30 17468 H 1674.72 -2.01091 2.19923 0
M  V30 17469 H 1672.25 -0.983918 1.0935 0
M  V30 17470 H 1674.21 -4.08625 0.841516 0
M  V30 17471 H 1672.84 -3.22673 0.090692 0
M  V30 17472 H 1671.89 -2.8796 2.48563 0
M  V30 17473 H 1673.2 -3.91558 3.09004 0
M  V30 17474 H 1672.36 -5.8221 1.70636 0
M  V30 17475 H 1671.1 -4.77379 0.998045 0
M  V30 17476 H 1670.1 -4.41616 3.27499 0
M  V30 17477 H 1671.33 -5.4989 3.98495 0
M  V30 17478 H 1669.27 -6.28401 1.88275 0
M  V30 17479 H 1669.19 -6.66295 3.57193 0
M  V30 17480 H 1670.46 -7.34851 2.60026 0
M  V30 17481 N 1674.69 -1.17582 -1.04939 0
M  V30 17482 C 1675.64 -0.891102 -2.14854 0
M  V30 17483 C 1676.63 0.145242 -1.68776 0
M  V30 17484 O 1677.84 -0.00207978 -1.8 0
M  V30 17485 H 1674.21 -0.270641 -0.701611 0
M  V30 17486 H 1676.18 -1.82519 -2.36071 0
M  V30 17487 C 1674.93 -0.423679 -3.45109 0
M  V30 17488 H 1674.25 -1.2126 -3.80967 0
M  V30 17489 H 1675.69 -0.263369 -4.23181 0
M  V30 17490 C 1674.15 0.859085 -3.25763 0
M  V30 17491 O 1674.68 1.9253 -3.52555 0
M  V30 17492 N 1672.89 0.80824 -2.79134 0
M  V30 17493 H 1672.44 -0.0596431 -2.57531 0
M  V30 17494 H 1672.39 1.66697 -2.6657 0
M  V30 17495 N 1676.17 1.23705 -0.976463 0
M  V30 17496 C 1677.11 2.25023 -0.513156 0
M  V30 17497 C 1678.08 1.60003 0.445903 0
M  V30 17498 O 1679.27 1.87481 0.354323 0
M  V30 17499 C 1676.41 3.44619 0.182088 0
M  V30 17500 C 1675.52 4.24209 -0.816769 0
M  V30 17501 C 1674.66 5.31112 -0.0967355 0
M  V30 17502 C 1673.69 6.02406 -1.08507 0
M  V30 17503 N 1672.83 7.00991 -0.394455 0
M  V30 17504 H 1677.67 2.64019 -1.38194 0
M  V30 17505 H 1675.21 1.29777 -0.692566 0
M  V30 17506 H 1677.17 4.12835 0.601948 0
M  V30 17507 H 1675.8 3.06435 1.01477 0
M  V30 17508 H 1674.85 3.55448 -1.35503 0
M  V30 17509 H 1676.16 4.73445 -1.57006 0
M  V30 17510 H 1675.31 6.05504 0.380686 0
M  V30 17511 H 1674.05 4.82806 0.689187 0
M  V30 17512 H 1673.06 5.26809 -1.57328 0
M  V30 17513 H 1674.28 6.528 -1.87159 0
M  V30 17514 H 1672.23 6.54943 0.372331 0
M  V30 17515 H 1672.15 7.48152 -1.08647 0
M  V30 17516 H 1673.41 7.79476 0.0607087 0
M  V30 17517 N 1677.64 0.747635 1.38738 0
M  V30 17518 C 1678.89 0.301593 2.00545 0
M  V30 17519 C 1679.22 -1.11208 1.59205 0
M  V30 17520 O 1678.5 -1.76052 0.826806 0
M  V30 17521 C 1678.78 0.417739 3.57669 0
M  V30 17522 C 1678.63 1.87209 4.0899 0
M  V30 17523 C 1679.95 -0.192403 4.39679 0
M  V30 17524 H 1677.07 0.11106 0.728584 0
M  V30 17525 H 1679.71 0.946162 1.64766 0
M  V30 17526 H 1677.86 -0.131024 3.88279 0
M  V30 17527 H 1679.54 2.4787 3.89048 0
M  V30 17528 H 1677.78 2.38917 3.62079 0
M  V30 17529 H 1678.45 1.90455 5.18103 0
M  V30 17530 H 1680.93 0.27554 4.15187 0
M  V30 17531 H 1679.8 -0.0808605 5.4884 0
M  V30 17532 H 1680.06 -1.28 4.23165 0
M  V30 17533 N 1679.12 -1.49583 0.496242 0
M  V30 17534 C 1680.05 -2.31885 -0.274139 0
M  V30 17535 C 1681.03 -1.39939 -0.96701 0
M  V30 17536 O 1682.22 -1.6885 -0.959333 0
M  V30 17537 C 1679.35 -3.20332 -1.34181 0
M  V30 17538 C 1678.3 -4.21033 -0.769091 0
M  V30 17539 C 1677.63 -4.98385 -1.93693 0
M  V30 17540 C 1678.93 -5.21764 0.236648 0
M  V30 17541 H 1680.62 -2.9654 0.412824 0
M  V30 17542 H 1678.17 -1.42605 0.199979 0
M  V30 17543 H 1680.12 -3.76718 -1.88843 0
M  V30 17544 H 1678.84 -2.53611 -2.05789 0
M  V30 17545 H 1677.5 -3.65785 -0.244252 0
M  V30 17546 H 1677.15 -4.28115 -2.64058 0
M  V30 17547 H 1676.85 -5.66519 -1.55981 0
M  V30 17548 H 1678.38 -5.57613 -2.48798 0
M  V30 17549 H 1679.79 -5.72871 -0.221672 0
M  V30 17550 H 1678.19 -5.97761 0.529346 0
M  V30 17551 H 1679.26 -4.70964 1.15415 0
M  V30 17552 N 1680.6 -0.229873 -1.55915 0
M  V30 17553 C 1682.01 0.276452 -1.84642 0
M  V30 17554 C 1682.36 1.58861 -1.15142 0
M  V30 17555 O 1681.49 2.12207 -0.423932 0
M  V30 17556 C 1682.08 0.508371 -3.34964 0
M  V30 17557 C 1680.64 0.958989 -3.63979 0
M  V30 17558 C 1679.79 0.0266738 -2.77287 0
M  V30 17559 H 1682.74 -0.452864 -1.52101 0
M  V30 17560 H 1682.76 1.35328 -3.55621 0
M  V30 17561 H 1682.27 -0.4468 -3.8552 0
M  V30 17562 H 1680.37 1.92722 -3.18887 0
M  V30 17563 H 1680.49 0.827637 -4.71897 0
M  V30 17564 H 1678.85 0.53498 -2.49018 0
M  V30 17565 H 1679.63 -0.923563 -3.30644 0
M  V30 17566 N 1682.08 1.5754 0.0434337 0
M  V30 17567 C 1683.01 2.02385 1.07577 0
M  V30 17568 C 1684.02 0.934273 1.33324 0
M  V30 17569 O 1685.21 1.2118 1.31064 0
M  V30 17570 C 1682.31 2.3719 2.42062 0
M  V30 17571 C 1681.48 3.68351 2.35874 0
M  V30 17572 C 1680.54 3.90506 3.52692 0
M  V30 17573 O 1679.57 4.61746 3.32836 0
M  V30 17574 N 1680.77 3.35035 4.74059 0
M  V30 17575 H 1683.54 2.91563 0.693641 0
M  V30 17576 H 1681.1 1.60234 0.231631 0
M  V30 17577 H 1683.09 2.49161 3.18906 0
M  V30 17578 H 1681.66 1.53758 2.72171 0
M  V30 17579 H 1680.88 3.66869 1.44224 0
M  V30 17580 H 1682.17 4.54419 2.28868 0
M  V30 17581 H 1681.57 2.77264 4.93094 0
M  V30 17582 H 1680.12 3.52409 5.48317 0
M  V30 17583 N 1683.56 -0.31543 1.54411 0
M  V30 17584 C 1684.52 -1.37154 1.83634 0
M  V30 17585 C 1685.52 -1.44349 0.708518 0
M  V30 17586 O 1686.71 -1.44235 0.976824 0
M  V30 17587 C 1683.84 -2.758 2.00368 0
M  V30 17588 H 1685.03 -1.12493 2.78002 0
M  V30 17589 H 1682.59 -0.551346 1.46253 0
M  V30 17590 H 1683.32 -3.05704 1.08238 0
M  V30 17591 H 1683.11 -2.7197 2.82445 0
M  V30 17592 H 1684.6 -3.52187 2.24397 0
M  V30 17593 N 1685.03 -1.46622 -0.577906 0
M  V30 17594 C 1685.98 -1.57549 -1.68662 0
M  V30 17595 C 1686.95 -0.419536 -1.60714 0
M  V30 17596 O 1688.14 -0.636916 -1.79856 0
M  V30 17597 C 1685.28 -1.57627 -3.06998 0
M  V30 17598 C 1684.39 -2.83991 -3.25535 0
M  V30 17599 C 1683.52 -2.75541 -4.54148 0
M  V30 17600 C 1682.56 -3.96823 -4.66045 0
M  V30 17601 N 1681.7 -3.86731 -5.8599 0
M  V30 17602 H 1686.54 -2.52252 -1.58659 0
M  V30 17603 H 1684.08 -1.2514 -0.773195 0
M  V30 17604 H 1686.04 -1.55657 -3.87075 0
M  V30 17605 H 1684.67 -0.664527 -3.15886 0
M  V30 17606 H 1683.72 -2.9592 -2.3903 0
M  V30 17607 H 1685.03 -3.73864 -3.30193 0
M  V30 17608 H 1684.18 -2.71703 -5.42459 0
M  V30 17609 H 1682.92 -1.83317 -4.51936 0
M  V30 17610 H 1681.93 -4.00987 -3.76151 0
M  V30 17611 H 1683.15 -4.90149 -4.70033 0
M  V30 17612 H 1681.1 -2.97296 -5.84766 0
M  V30 17613 H 1681.02 -4.70263 -5.91937 0
M  V30 17614 H 1682.28 -3.86876 -6.76718 0
M  V30 17615 N 1686.51 0.822941 -1.34408 0
M  V30 17616 C 1687.42 1.96567 -1.28056 0
M  V30 17617 C 1688.44 1.72979 -0.188251 0
M  V30 17618 O 1689.61 1.97084 -0.41472 0
M  V30 17619 C 1686.68 3.30865 -1.03583 0
M  V30 17620 C 1685.74 3.67461 -2.2197 0
M  V30 17621 C 1684.97 4.9535 -1.98655 0
M  V30 17622 O 1685.2 5.62521 -0.944785 0
M  V30 17623 O 1684.13 5.29824 -2.85605 0
M  V30 17624 H 1687.96 2.0487 -2.24192 0
M  V30 17625 H 1685.54 0.958334 -1.14614 0
M  V30 17626 H 1687.42 4.11298 -0.917162 0
M  V30 17627 H 1686.1 3.2353 -0.104868 0
M  V30 17628 H 1685.01 2.87472 -2.39396 0
M  V30 17629 H 1686.34 3.79481 -3.13456 0
M  V30 17630 N 1687.99 1.18137 1.04314 0
M  V30 17631 C 1688.94 0.906125 2.12269 0
M  V30 17632 C 1689.91 -0.153492 1.65389 0
M  V30 17633 O 1691.09 -0.0143887 1.90795 0
M  V30 17634 C 1688.23 0.435247 3.42344 0
M  V30 17635 C 1687.35 1.56 4.0285 0
M  V30 17636 C 1686.48 1.0421 5.20878 0
M  V30 17637 C 1685.52 2.14171 5.73409 0
M  V30 17638 N 1684.66 1.63792 6.82727 0
M  V30 17639 H 1689.5 1.83052 2.35151 0
M  V30 17640 H 1687.03 0.912846 1.1535 0
M  V30 17641 H 1688.99 0.143733 4.16952 0
M  V30 17642 H 1687.62 -0.452175 3.19617 0
M  V30 17643 H 1686.67 1.96705 3.25594 0
M  V30 17644 H 1687.99 2.389 4.37868 0
M  V30 17645 H 1687.14 0.704959 6.0259 0
M  V30 17646 H 1685.88 0.182643 4.87358 0
M  V30 17647 H 1684.88 2.48732 4.90319 0
M  V30 17648 H 1686.11 3.00547 6.08973 0
M  V30 17649 H 1684.05 0.801323 6.51087 0
M  V30 17650 H 1683.97 2.40293 7.16795 0
M  V30 17651 H 1685.24 1.32998 7.6807 0
M  V30 17652 N 1689.47 -1.23186 0.98301 0
M  V30 17653 C 1690.4 -2.27054 0.544858 0
M  V30 17654 C 1691.38 -1.64749 -0.423281 0
M  V30 17655 O 1692.56 -1.91611 -0.316075 0
M  V30 17656 C 1689.69 -3.46972 -0.150976 0
M  V30 17657 C 1688.65 -4.21647 0.734707 0
M  V30 17658 C 1687.97 -5.34618 -0.0934874 0
M  V30 17659 C 1689.27 -4.81372 2.02679 0
M  V30 17660 H 1690.97 -2.63957 1.41305 0
M  V30 17661 H 1688.51 -1.26885 0.680895 0
M  V30 17662 H 1690.47 -4.18784 -0.468825 0
M  V30 17663 H 1689.19 -3.09137 -1.05364 0
M  V30 17664 H 1687.85 -3.51655 1.03605 0
M  V30 17665 H 1687.5 -4.93025 -0.996768 0
M  V30 17666 H 1687.2 -5.85503 0.496019 0
M  V30 17667 H 1688.72 -6.09251 -0.405658 0
M  V30 17668 H 1690.14 -5.45178 1.77353 0
M  V30 17669 H 1688.53 -5.42554 2.56429 0
M  V30 17670 H 1689.6 -4.01972 2.71194 0
M  V30 17671 N 1690.95 -0.754982 -1.38339 0
M  V30 17672 C 1691.86 -0.130303 -2.34238 0
M  V30 17673 C 1692.87 0.699048 -1.5934 0
M  V30 17674 O 1694.05 0.622876 -1.91526 0
M  V30 17675 C 1691.11 0.751285 -3.38462 0
M  V30 17676 C 1690.17 -0.0925987 -4.292 0
M  V30 17677 C 1689.41 0.747007 -5.28446 0
M  V30 17678 O 1689.63 1.98495 -5.34749 0
M  V30 17679 O 1688.56 0.165072 -6.01674 0
M  V30 17680 H 1692.39 -0.92233 -2.89356 0
M  V30 17681 H 1689.98 -0.515896 -1.4021 0
M  V30 17682 H 1691.86 1.2551 -4.02275 0
M  V30 17683 H 1690.53 1.52178 -2.85698 0
M  V30 17684 H 1689.44 -0.64239 -3.68543 0
M  V30 17685 H 1690.77 -0.825784 -4.85223 0
M  V30 17686 N 1692.42 1.49318 -0.504168 0
M  V30 17687 C 1693.67 2.02462 0.0392265 0
M  V30 17688 C 1694 1.38359 1.36701 0
M  V30 17689 O 1693.25 0.509579 1.88949 0
M  V30 17690 C 1693.55 3.56613 0.237041 0
M  V30 17691 C 1693.22 4.3937 -1.01314 0
M  V30 17692 C 1691.88 4.61704 -1.35583 0
M  V30 17693 C 1694.23 4.8749 -1.84399 0
M  V30 17694 C 1691.56 5.29403 -2.52882 0
M  V30 17695 C 1693.91 5.56479 -3.00854 0
M  V30 17696 C 1692.58 5.77058 -3.35499 0
M  V30 17697 H 1691.85 0.740861 0.014354 0
M  V30 17698 H 1694.49 1.79584 -0.664967 0
M  V30 17699 H 1692.8 3.78188 1.02379 0
M  V30 17700 H 1694.5 3.95329 0.671987 0
M  V30 17701 H 1691.09 4.2223 -0.736213 0
M  V30 17702 H 1695.27 4.7006 -1.59238 0
M  V30 17703 H 1690.53 5.43538 -2.79958 0
M  V30 17704 H 1694.7 5.9274 -3.65558 0
M  V30 17705 H 1692.33 6.29291 -4.26494 0
M  V30 17706 N 1693.9 0.238138 1.5579 0
M  V30 17707 C 1695.14 -0.390675 2.00632 0
M  V30 17708 C 1695.51 -1.55763 1.12258 0
M  V30 17709 O 1696.71 -2.25358 1.46517 0
M  V30 17710 C 1694.98 -0.798483 3.48366 0
M  V30 17711 S 1696.54 -1.41906 4.15221 0
M  V30 17712 H 1693.36 -0.123312 0.700225 0
M  V30 17713 H 1695.96 0.351318 1.92317 0
M  V30 17714 H 1694.66 0.060261 4.10356 0
M  V30 17715 H 1694.19 -1.57288 3.60589 0
M  V30 17716 H 1696.21 -2.70814 4.15781 0
M  V30 17717 N 1695.38 -1.57561 -0.0350783 0
M  V30 17718 C 1696.61 -1.93644 -0.742753 0
M  V30 17719 C 1697.03 -0.837655 -1.68419 0
M  V30 17720 O 1696.39 0.207069 -1.80114 0
M  V30 17721 C 1696.44 -3.28779 -1.48111 0
M  V30 17722 O 1695.54 -3.20604 -2.59398 0
M  V30 17723 H 1694.88 -0.633103 -0.200192 0
M  V30 17724 H 1697.41 -2.04599 0.00765271 0
M  V30 17725 H 1697.42 -3.63527 -1.85236 0
M  V30 17726 H 1696.1 -4.08316 -0.790608 0
M  V30 17727 H 1694.67 -2.97477 -2.2486 0
M  V30 17728 N 1696.86 0.307236 -1.54576 0
M  V30 17729 C 1697.81 1.3787 -1.85096 0
M  V30 17730 C 1698.78 1.5066 -0.69935 0
M  V30 17731 O 1699.96 1.65618 -0.947373 0
M  V30 17732 C 1697.1 2.73976 -2.09836 0
M  V30 17733 C 1696.21 2.69687 -3.3748 0
M  V30 17734 C 1695.35 3.97746 -3.52096 0
M  V30 17735 C 1694.39 3.87829 -4.73556 0
M  V30 17736 N 1693.52 5.07651 -4.8501 0
M  V30 17737 H 1698.36 1.11144 -2.76498 0
M  V30 17738 H 1695.9 0.537696 -1.36921 0
M  V30 17739 H 1697.86 3.53121 -2.22174 0
M  V30 17740 H 1696.49 2.98977 -1.21707 0
M  V30 17741 H 1695.54 1.82441 -3.33795 0
M  V30 17742 H 1696.85 2.58247 -4.26743 0
M  V30 17743 H 1696.01 4.85327 -3.64065 0
M  V30 17744 H 1694.75 4.12012 -2.60955 0
M  V30 17745 H 1693.75 2.98633 -4.61626 0
M  V30 17746 H 1694.98 3.75114 -5.66098 0
M  V30 17747 H 1692.92 5.22393 -3.9679 0
M  V30 17748 H 1692.84 4.9861 -5.68264 0
M  V30 17749 H 1694.11 5.969 -5.01328 0
M  V30 17750 N 1698.34 1.46926 0.570122 0
M  V30 17751 C 1699.27 1.61311 1.68822 0
M  V30 17752 C 1700.25 0.462964 1.63678 0
M  V30 17753 O 1701.43 0.690745 1.815 0
M  V30 17754 C 1698.56 1.61499 3.07466 0
M  V30 17755 C 1697.52 2.7561 3.27449 0
M  V30 17756 C 1696.84 2.60865 4.66748 0
M  V30 17757 C 1698.14 4.17324 3.14067 0
M  V30 17758 H 1699.84 2.54909 1.5704 0
M  V30 17759 H 1697.38 1.22677 0.754077 0
M  V30 17760 H 1699.34 1.70155 3.8552 0
M  V30 17761 H 1698.06 0.64453 3.20177 0
M  V30 17762 H 1696.72 2.66444 2.51799 0
M  V30 17763 H 1696.37 1.61875 4.76241 0
M  V30 17764 H 1696.07 3.37411 4.81069 0
M  V30 17765 H 1697.59 2.7143 5.46954 0
M  V30 17766 H 1699 4.27534 3.81952 0
M  V30 17767 H 1697.4 4.94555 3.39905 0
M  V30 17768 H 1698.47 4.36596 2.10979 0
M  V30 17769 N 1699.82 -0.815801 1.34842 0
M  V30 17770 C 1700.76 -1.92713 1.27006 0
M  V30 17771 C 1701.73 -1.65476 0.143838 0
M  V30 17772 O 1702.92 -1.87994 0.326007 0
M  V30 17773 C 1700.06 -3.29099 1.03863 0
M  V30 17774 C 1699.17 -3.68583 2.25324 0
M  V30 17775 C 1698.31 -4.93953 1.95407 0
M  V30 17776 C 1697.34 -5.26037 3.12971 0
M  V30 17777 N 1696.48 -6.42586 2.82891 0
M  V30 17778 H 1701.32 -1.98747 2.22044 0
M  V30 17779 H 1698.86 -0.972265 1.10388 0
M  V30 17780 H 1700.82 -4.07709 0.884809 0
M  V30 17781 H 1699.45 -3.22558 0.124911 0
M  V30 17782 H 1698.5 -2.85307 2.51603 0
M  V30 17783 H 1699.81 -3.88259 3.1314 0
M  V30 17784 H 1698.96 -5.80367 1.76801 0
M  V30 17785 H 1697.7 -4.76293 1.04862 0
M  V30 17786 H 1696.71 -4.38117 3.32165 0
M  V30 17787 H 1697.93 -5.45632 4.04305 0
M  V30 17788 H 1695.88 -6.26369 1.9493 0
M  V30 17789 H 1695.8 -6.62469 3.64239 0
M  V30 17790 H 1697.06 -7.32052 2.67805 0
M  V30 17791 N 1701.29 -1.18689 -1.03686 0
M  V30 17792 C 1702.23 -0.875126 -2.11835 0
M  V30 17793 C 1703.24 0.128865 -1.62289 0
M  V30 17794 O 1704.43 -0.0994835 -1.78223 0
M  V30 17795 C 1701.53 -0.286914 -3.37683 0
M  V30 17796 C 1700.7 -1.3375 -4.16449 0
M  V30 17797 C 1699.76 -0.764286 -5.2062 0
M  V30 17798 O 1698.79 -1.43998 -5.50684 0
M  V30 17799 N 1699.99 0.436345 -5.78858 0
M  V30 17800 H 1702.75 -1.80601 -2.39172 0
M  V30 17801 H 1700.31 -1.0878 -1.19911 0
M  V30 17802 H 1702.31 0.110219 -4.0455 0
M  V30 17803 H 1700.88 0.548073 -3.07758 0
M  V30 17804 H 1700.1 -1.9098 -3.44848 0
M  V30 17805 H 1701.38 -2.04566 -4.65865 0
M  V30 17806 H 1700.78 1.00296 -5.56738 0
M  V30 17807 H 1699.34 0.775353 -6.47172 0
M  V30 17808 N 1702.77 1.22662 -0.989529 0
M  V30 17809 C 1703.7 2.26762 -0.556891 0
M  V30 17810 C 1704.68 1.64971 0.414538 0
M  V30 17811 O 1705.87 1.91775 0.305909 0
M  V30 17812 C 1703 3.47047 0.132573 0
M  V30 17813 C 1701.95 4.21251 -0.757058 0
M  V30 17814 C 1701.28 5.3466 0.065134 0
M  V30 17815 C 1702.58 4.8029 -2.05229 0
M  V30 17816 H 1704.27 2.63204 -1.42703 0
M  V30 17817 H 1701.82 1.26522 -0.687614 0
M  V30 17818 H 1703.77 4.19027 0.446609 0
M  V30 17819 H 1702.49 3.09692 1.03723 0
M  V30 17820 H 1701.15 3.51101 -1.05469 0
M  V30 17821 H 1700.8 4.93547 0.970607 0
M  V30 17822 H 1700.5 5.85231 -0.527063 0
M  V30 17823 H 1702.03 6.09458 0.373342 0
M  V30 17824 H 1703.44 5.44229 -1.80242 0
M  V30 17825 H 1701.84 5.41186 -2.59302 0
M  V30 17826 H 1702.91 4.00529 -2.73322 0
M  V30 17827 N 1704.25 0.762308 1.37937 0
M  V30 17828 C 1705.53 0.247502 1.94028 0
M  V30 17829 C 1705.91 -1.25581 1.69684 0
M  V30 17830 O 1705.25 -2.03446 1.04028 0
M  V30 17831 C 1705.46 0.610643 3.43616 0
M  V30 17832 C 1706.81 0.57515 4.20687 0
M  V30 17833 O 1707.84 0.549461 3.51937 0
M  V30 17834 O 1706.7 0.593825 5.43264 0
M  V30 17835 H 1703.79 0.0544389 0.825206 0
M  V30 17836 H 1706.34 0.843021 1.47279 0
M  V30 17837 H 1705.11 1.64853 3.54879 0
M  V30 17838 H 1704.73 -0.0124265 3.97598 0
M  V30 17839 N 1705.73 -1.49049 0.51208 0
M  V30 17840 C 1706.98 -2.01677 -0.0303931 0
M  V30 17841 C 1707.29 -1.39594 -1.37014 0
M  V30 17842 O 1708.5 -1.83615 -1.99994 0
M  V30 17843 C 1706.95 -3.59748 -0.104605 0
M  V30 17844 C 1706.56 -4.30808 1.22916 0
M  V30 17845 C 1708.3 -4.20283 -0.596854 0
M  V30 17846 C 1706.21 -5.80765 1.11651 0
M  V30 17847 H 1705.14 -0.753848 -0.015131 0
M  V30 17848 H 1707.79 -1.71482 0.653169 0
M  V30 17849 H 1706.17 -3.86707 -0.852859 0
M  V30 17850 H 1707.35 -4.15539 1.99158 0
M  V30 17851 H 1705.66 -3.82066 1.65573 0
M  V30 17852 H 1708.26 -5.30114 -0.698821 0
M  V30 17853 H 1708.6 -3.84392 -1.59838 0
M  V30 17854 H 1709.14 -3.97686 0.0951882 0
M  V30 17855 H 1705.87 -6.212 2.09264 0
M  V30 17856 H 1705.39 -5.98497 0.395167 0
M  V30 17857 H 1707.07 -6.42038 0.799782 0
M  V30 17858 N 1707.21 -0.246397 -1.55662 0
M  V30 17859 C 1708.14 0.647563 -2.24341 0
M  V30 17860 C 1709.12 1.1817 -1.22352 0
M  V30 17861 O 1710.3 1.22114 -1.51003 0
M  V30 17862 C 1707.43 1.84485 -2.94249 0
M  V30 17863 C 1706.39 1.4435 -4.02923 0
M  V30 17864 C 1705.71 2.72158 -4.60255 0
M  V30 17865 C 1707.01 0.614951 -5.18667 0
M  V30 17866 H 1708.71 0.0748803 -2.99306 0
M  V30 17867 H 1706.25 0.034575 -1.43958 0
M  V30 17868 H 1708.2 2.47588 -3.40995 0
M  V30 17869 H 1706.93 2.4429 -2.16772 0
M  V30 17870 H 1705.59 0.835811 -3.56945 0
M  V30 17871 H 1705.24 3.3016 -3.79478 0
M  V30 17872 H 1704.94 2.46028 -5.33614 0
M  V30 17873 H 1706.46 3.36161 -5.09734 0
M  V30 17874 H 1707.87 1.15028 -5.61642 0
M  V30 17875 H 1706.27 0.449729 -5.98412 0
M  V30 17876 H 1707.34 -0.372943 -4.83464 0
M  V30 17877 N 1708.68 1.57577 0.026722 0
M  V30 17878 C 1709.59 2.10114 1.04351 0
M  V30 17879 C 1710.61 1.04029 1.39477 0
M  V30 17880 O 1711.79 1.35778 1.48749 0
M  V30 17881 C 1708.85 2.57203 2.32481 0
M  V30 17882 C 1707.91 3.77779 2.03915 0
M  V30 17883 C 1707.14 4.22613 3.25936 0
M  V30 17884 O 1707.37 3.66955 4.36692 0
M  V30 17885 O 1706.3 5.15026 3.11499 0
M  V30 17886 H 1710.13 2.97157 0.627021 0
M  V30 17887 H 1707.71 1.47396 0.243855 0
M  V30 17888 H 1709.59 2.87809 3.07805 0
M  V30 17889 H 1708.27 1.7327 2.73421 0
M  V30 17890 H 1707.18 3.52188 1.26152 0
M  V30 17891 H 1708.51 4.62703 1.67829 0
M  V30 17892 N 1710.16 -0.299034 1.54737 0
M  V30 17893 C 1711.58 -0.644805 1.45995 0
M  V30 17894 C 1711.78 -1.90634 0.652749 0
M  V30 17895 O 1710.83 -2.51985 0.161228 0
M  V30 17896 C 1712.15 -0.795974 2.89974 0
M  V30 17897 C 1713.69 -0.891731 3.00029 0
M  V30 17898 C 1714.17 -1.07488 4.45208 0
M  V30 17899 N 1715.66 -1.14104 4.48926 0
M  V30 17900 C 1716.4 -1.30108 5.58444 0
M  V30 17901 N 1715.89 -1.42998 6.77882 0
M  V30 17902 N 1717.68 -1.33012 5.46136 0
M  V30 17903 H 1709.84 0.529806 2.05686 0
M  V30 17904 H 1712.1 0.175406 0.931631 0
M  V30 17905 H 1711.8 0.0601375 3.51649 0
M  V30 17906 H 1711.68 -1.68437 3.37504 0
M  V30 17907 H 1714.07 -1.73833 2.38466 0
M  V30 17908 H 1714.15 0.0207194 2.55792 0
M  V30 17909 H 1713.79 -0.233045 5.07365 0
M  V30 17910 H 1713.72 -2.00159 4.87077 0
M  V30 17911 H 1716.21 -1.05488 3.62878 0
M  V30 17912 H 1716.52 -1.5497 7.57102 0
M  V30 17913 H 1714.87 -1.4005 6.80743 0
M  V30 17914 H 1718.06 -1.22555 4.51772 0
M  V30 17915 H 1718.23 -1.45141 6.31536 0
M  V30 17916 N 1711.64 -1.47227 -0.562322 0
M  V30 17917 C 1712.57 -1.55383 -1.6849 0
M  V30 17918 C 1713.58 -0.440437 -1.56729 0
M  V30 17919 O 1714.77 -0.709803 -1.63781 0
M  V30 17920 C 1711.87 -1.43723 -3.06915 0
M  V30 17921 C 1711.05 -2.69541 -3.4448 0
M  V30 17922 C 1710.11 -2.5179 -4.62048 0
M  V30 17923 O 1709.13 -3.25587 -4.66885 0
M  V30 17924 N 1710.33 -1.59282 -5.5822 0
M  V30 17925 H 1713.1 -2.52181 -1.61941 0
M  V30 17926 H 1710.66 -1.43541 -0.748832 0
M  V30 17927 H 1712.65 -1.2959 -3.83391 0
M  V30 17928 H 1711.22 -0.550272 -3.07719 0
M  V30 17929 H 1710.44 -2.98472 -2.57504 0
M  V30 17930 H 1711.73 -3.53079 -3.66351 0
M  V30 17931 H 1711.13 -0.984666 -5.57064 0
M  V30 17932 H 1709.68 -1.51103 -6.34043 0
M  V30 17933 N 1713.12 0.808639 -1.35273 0
M  V30 17934 C 1714.37 1.56071 -1.27768 0
M  V30 17935 C 1714.68 1.9505 0.146545 0
M  V30 17936 O 1715.89 2.69314 0.343855 0
M  V30 17937 C 1714.34 2.81648 -2.24059 0
M  V30 17938 C 1713.95 2.49915 -3.71815 0
M  V30 17939 C 1715.69 3.59658 -2.25492 0
M  V30 17940 C 1713.6 3.7177 -4.59936 0
M  V30 17941 H 1712.53 0.585811 -0.474701 0
M  V30 17942 H 1715.18 0.889051 -1.60525 0
M  V30 17943 H 1713.56 3.50514 -1.84271 0
M  V30 17944 H 1714.74 1.89068 -4.20226 0
M  V30 17945 H 1713.05 1.85154 -3.72971 0
M  V30 17946 H 1715.65 4.50162 -2.88545 0
M  V30 17947 H 1715.99 3.96835 -1.2581 0
M  V30 17948 H 1716.53 2.97751 -2.63798 0
M  V30 17949 H 1713.26 3.39704 -5.60608 0
M  V30 17950 H 1712.78 4.3185 -4.16252 0
M  V30 17951 H 1714.46 4.39022 -4.75256 0
M  V30 17952 N 1714.6 1.19237 1.03055 0
M  V30 17953 C 1715.82 1.01917 1.80057 0
M  V30 17954 C 1716.24 -0.43214 1.83788 0
M  V30 17955 O 1715.6 -1.30016 1.28071 0
M  V30 17956 C 1715.65 1.57912 3.25186 0
M  V30 17957 O 1715.37 2.97362 3.21725 0
M  V30 17958 C 1716.87 1.45352 4.18793 0
M  V30 17959 H 1714.09 0.359301 0.566696 0
M  V30 17960 H 1716.63 1.58015 1.29814 0
M  V30 17961 H 1714.79 1.05967 3.72625 0
M  V30 17962 H 1715.2 3.23674 4.12717 0
M  V30 17963 H 1716.68 1.89313 5.18521 0
M  V30 17964 H 1717.15 0.40378 4.3734 0
M  V30 17965 H 1717.76 1.96419 3.77226 0
M  V30 17966 N 1716.07 -1.22136 0.99602 0
M  V30 17967 C 1717.3 -1.94978 0.692172 0
M  V30 17968 C 1717.72 -1.73536 -0.743696 0
M  V30 17969 O 1717.07 -1.03637 -1.50219 0
M  V30 17970 C 1717.13 -3.47609 0.992498 0
M  V30 17971 O 1716.85 -3.68334 2.37195 0
M  V30 17972 C 1718.35 -4.37629 0.70679 0
M  V30 17973 H 1715.57 -0.620327 0.255802 0
M  V30 17974 H 1718.11 -1.55202 1.33164 0
M  V30 17975 H 1716.27 -3.85342 0.398785 0
M  V30 17976 H 1716.68 -4.62506 2.47362 0
M  V30 17977 H 1718.15 -5.43461 0.967173 0
M  V30 17978 H 1718.63 -4.37729 -0.359208 0
M  V30 17979 H 1719.24 -4.05528 1.2817 0
M  V30 17980 N 1717.55 -0.769612 -1.37531 0
M  V30 17981 C 1718.49 -0.100781 -2.27977 0
M  V30 17982 C 1719.46 0.711383 -1.46213 0
M  V30 17983 O 1720.65 0.686602 -1.75551 0
M  V30 17984 C 1717.77 0.863601 -3.27505 0
M  V30 17985 C 1716.82 0.135698 -4.26284 0
M  V30 17986 S 1717.65 -1.17477 -5.22455 0
M  V30 17987 C 1718.81 -0.213878 -6.25534 0
M  V30 17988 H 1719.04 -0.86772 -2.84355 0
M  V30 17989 H 1716.58 -0.562906 -1.43773 0
M  V30 17990 H 1718.53 1.41462 -3.85355 0
M  V30 17991 H 1717.19 1.60363 -2.70079 0
M  V30 17992 H 1716.39 0.866694 -4.96492 0
M  V30 17993 H 1715.99 -0.344257 -3.72412 0
M  V30 17994 H 1718.28 0.614474 -6.74708 0
M  V30 17995 H 1719.22 -0.884072 -7.02559 0
M  V30 17996 H 1719.63 0.173963 -5.64232 0
M  V30 17997 N 1719.03 1.48775 -0.519977 0
M  V30 17998 C 1719.98 2.26421 0.267886 0
M  V30 17999 C 1720.96 1.32087 0.918795 0
M  V30 18000 O 1722.16 1.56689 0.823256 0
M  V30 18001 C 1719.29 3.16896 1.3203 0
M  V30 18002 C 1718.37 4.18699 0.674688 0
M  V30 18003 N 1718.76 5.05259 -0.233769 0
M  V30 18004 C 1717.06 4.3613 0.933071 0
M  V30 18005 C 1717.76 5.78543 -0.605233 0
M  V30 18006 N 1716.74 5.43591 0.0313426 0
M  V30 18007 H 1720.54 2.9072 -0.43116 0
M  V30 18008 H 1718.05 1.58858 -0.337322 0
M  V30 18009 H 1720.05 3.71171 1.89836 0
M  V30 18010 H 1718.71 2.5415 2.02083 0
M  V30 18011 H 1719.72 5.14345 -0.605766 0
M  V30 18012 H 1716.4 3.84581 1.62492 0
M  V30 18013 H 1717.79 6.58207 -1.34957 0
M  V30 18014 N 1720.51 0.254649 1.55529 0
M  V30 18015 C 1721.76 -0.368461 1.98306 0
M  V30 18016 C 1722.07 -1.585 1.14617 0
M  V30 18017 O 1723.28 -2.27975 1.47443 0
M  V30 18018 C 1721.73 -0.70693 3.52889 0
M  V30 18019 C 1721.34 0.488648 4.45327 0
M  V30 18020 C 1723.08 -1.2938 4.04303 0
M  V30 18021 C 1720.99 0.125903 5.91266 0
M  V30 18022 H 1719.92 -0.141444 0.740614 0
M  V30 18023 H 1722.57 0.356085 1.80012 0
M  V30 18024 H 1720.95 -1.48982 3.66907 0
M  V30 18025 H 1722.13 1.26587 4.43071 0
M  V30 18026 H 1720.44 0.990969 4.04436 0
M  V30 18027 H 1723.04 -1.57866 5.10864 0
M  V30 18028 H 1723.38 -2.22088 3.52112 0
M  V30 18029 H 1723.92 -0.573647 3.93642 0
M  V30 18030 H 1720.66 1.02032 6.4751 0
M  V30 18031 H 1720.18 -0.614969 5.96639 0
M  V30 18032 H 1721.85 -0.289174 6.46353 0
M  V30 18033 N 1721.99 -1.57589 -0.0183649 0
M  V30 18034 C 1723.21 -1.94421 -0.722172 0
M  V30 18035 C 1723.64 -0.855471 -1.67521 0
M  V30 18036 O 1722.99 0.187954 -1.80323 0
M  V30 18037 C 1723.04 -3.30331 -1.44615 0
M  V30 18038 O 1722.15 -3.23337 -2.55982 0
M  V30 18039 H 1721.49 -0.63519 -0.193466 0
M  V30 18040 H 1724.02 -2.04579 0.0293527 0
M  V30 18041 H 1724.03 -3.65471 -1.8137 0
M  V30 18042 H 1722.7 -4.09132 -0.747256 0
M  V30 18043 H 1721.28 -2.99845 -2.21692 0
M  V30 18044 N 1723.46 0.290824 -1.54893 0
M  V30 18045 C 1724.41 1.37898 -1.87315 0
M  V30 18046 C 1725.41 1.52001 -0.747794 0
M  V30 18047 O 1726.61 1.53998 -0.93192 0
M  V30 18048 H 1722.99 0.460824 -0.59426 0
M  V30 18049 H 1724.96 1.07794 -2.7825 0
M  V30 18050 C 1723.71 2.73568 -2.14606 0
M  V30 18051 H 1723.03 2.63501 -3.00678 0
M  V30 18052 H 1724.47 3.48693 -2.41225 0
M  V30 18053 C 1722.93 3.23291 -0.947865 0
M  V30 18054 O 1723.46 4.01325 -0.173479 0
M  V30 18055 N 1721.67 2.80743 -0.750444 0
M  V30 18056 H 1721.21 2.174 -1.38184 0
M  V30 18057 H 1721.17 3.14361 0.0496746 0
M  V30 18058 N 1724.94 1.47523 0.554506 0
M  V30 18059 C 1726.35 1.48114 1.13662 0
M  V30 18060 C 1726.7 0.237321 1.94759 0
M  V30 18061 O 1725.83 -0.657558 2.06168 0
M  V30 18062 C 1726.42 2.68366 2.06797 0
M  V30 18063 C 1724.98 2.71908 2.60274 0
M  V30 18064 C 1724.13 2.41258 1.3671 0
M  V30 18065 H 1727.08 1.54994 0.34097 0
M  V30 18066 H 1727.1 2.4549 2.90714 0
M  V30 18067 H 1726.61 3.58877 1.47745 0
M  V30 18068 H 1724.72 1.85543 3.23117 0
M  V30 18069 H 1724.83 3.72673 3.01084 0
M  V30 18070 H 1723.19 1.91897 1.67474 0
M  V30 18071 H 1723.98 3.3398 0.794476 0
M  V30 18072 N 1726.42 -0.801453 1.357 0
M  V30 18073 C 1727.65 -1.59001 1.32386 0
M  V30 18074 C 1728.06 -1.88548 -0.0975432 0
M  V30 18075 O 1727.42 -1.49199 -1.05099 0
M  V30 18076 C 1727.47 -2.91822 2.13359 0
M  V30 18077 O 1727.19 -2.63554 3.49958 0
M  V30 18078 C 1728.69 -3.86169 2.17689 0
M  V30 18079 H 1725.91 -0.493557 0.45458 0
M  V30 18080 H 1728.46 -0.995616 1.78627 0
M  V30 18081 H 1726.61 -3.47763 1.70704 0
M  V30 18082 H 1727.03 -3.48397 3.92071 0
M  V30 18083 H 1728.5 -4.76461 2.78727 0
M  V30 18084 H 1728.98 -4.23134 1.17704 0
M  V30 18085 H 1729.58 -3.36163 2.60527 0
M  V30 18086 N 1727.9 -1.19782 -1.02421 0
M  V30 18087 C 1728.83 -0.897544 -2.10895 0
M  V30 18088 C 1729.84 0.111644 -1.62417 0
M  V30 18089 O 1731.03 -0.118381 -1.78107 0
M  V30 18090 C 1728.13 -0.322714 -3.3736 0
M  V30 18091 C 1727.31 -1.38159 -4.15007 0
M  V30 18092 C 1726.36 -0.819462 -5.1978 0
M  V30 18093 O 1725.39 -1.4983 -5.49126 0
M  V30 18094 N 1726.59 0.374925 -5.79288 0
M  V30 18095 H 1729.36 -1.83127 -2.37243 0
M  V30 18096 H 1726.92 -1.10045 -1.1875 0
M  V30 18097 H 1728.91 0.0673046 -4.04644 0
M  V30 18098 H 1727.48 0.5154 -3.08322 0
M  V30 18099 H 1726.7 -1.94627 -3.42803 0
M  V30 18100 H 1727.99 -2.09496 -4.63669 0
M  V30 18101 H 1727.39 0.943856 -5.5777 0
M  V30 18102 H 1725.94 0.706668 -6.47958 0
M  V30 18103 N 1729.38 1.21606 -1.00248 0
M  V30 18104 C 1730.29 2.2757 -0.570004 0
M  V30 18105 C 1731.3 1.69669 0.385788 0
M  V30 18106 O 1732.48 1.99839 0.250246 0
M  V30 18107 C 1729.54 3.46558 0.0990566 0
M  V30 18108 C 1728.61 4.19741 -0.9009 0
M  V30 18109 C 1727.84 5.33048 -0.263673 0
M  V30 18110 O 1728.06 5.62599 0.940131 0
M  V30 18111 O 1727 5.93978 -0.973342 0
M  V30 18112 H 1730.82 2.66751 -1.45182 0
M  V30 18113 H 1728.41 1.27955 -0.771224 0
M  V30 18114 H 1730.29 4.18733 0.47339 0
M  V30 18115 H 1728.96 3.09283 0.955285 0
M  V30 18116 H 1727.87 3.49798 -1.32634 0
M  V30 18117 H 1729.2 4.60921 -1.72664 0
M  V30 18118 N 1730.86 0.776895 1.37121 0
M  V30 18119 C 1731.8 0.164838 2.30211 0
M  V30 18120 C 1732.77 -0.684137 1.51356 0
M  V30 18121 O 1733.96 -0.635428 1.79908 0
M  V30 18122 C 1731.1 -0.704263 3.37837 0
M  V30 18123 C 1730.21 0.161881 4.31697 0
M  V30 18124 C 1729.35 -0.712411 5.26401 0
M  V30 18125 C 1728.38 0.155953 6.11901 0
M  V30 18126 N 1727.52 -0.676607 6.98832 0
M  V30 18127 H 1732.36 0.964185 2.81971 0
M  V30 18128 H 1729.9 0.487065 1.38802 0
M  V30 18129 H 1731.86 -1.22302 3.98871 0
M  V30 18130 H 1730.49 -1.46916 2.87429 0
M  V30 18131 H 1729.54 0.798491 3.71925 0
M  V30 18132 H 1730.85 0.831496 4.91821 0
M  V30 18133 H 1730 -1.29745 5.92664 0
M  V30 18134 H 1728.74 -1.41569 4.66701 0
M  V30 18135 H 1727.75 0.753493 5.44612 0
M  V30 18136 H 1728.97 0.856645 6.73675 0
M  V30 18137 H 1726.92 -1.36441 6.41654 0
M  V30 18138 H 1726.84 -0.0644017 7.55973 0
M  V30 18139 H 1728.1 -1.24588 7.69479 0
M  V30 18140 N 1732.33 -1.48497 0.527859 0
M  V30 18141 C 1733.75 -1.58517 0.185573 0
M  V30 18142 C 1733.95 -1.53012 -1.31109 0
M  V30 18143 O 1733.01 -1.41807 -2.08919 0
M  V30 18144 C 1734.32 -2.9024 0.786219 0
M  V30 18145 C 1735.87 -3.03764 0.75476 0
M  V30 18146 C 1736.34 -4.38144 1.33394 0
M  V30 18147 N 1737.83 -4.44705 1.29582 0
M  V30 18148 C 1738.57 -5.47187 1.71388 0
M  V30 18149 N 1738.06 -6.56635 2.20913 0
M  V30 18150 N 1739.86 -5.38057 1.62638 0
M  V30 18151 H 1732.01 -1.50319 1.5006 0
M  V30 18152 H 1734.27 -0.713625 0.624054 0
M  V30 18153 H 1733.98 -2.99918 1.8369 0
M  V30 18154 H 1733.85 -3.76288 0.262084 0
M  V30 18155 H 1736.24 -2.937 -0.287157 0
M  V30 18156 H 1736.32 -2.19331 1.31634 0
M  V30 18157 H 1735.96 -4.48962 2.37478 0
M  V30 18158 H 1735.89 -5.2126 0.748063 0
M  V30 18159 H 1738.38 -3.66195 0.933246 0
M  V30 18160 H 1738.7 -7.30967 2.50813 0
M  V30 18161 H 1737.04 -6.57604 2.24906 0
M  V30 18162 H 1740.23 -4.51447 1.23746 0
M  V30 18163 H 1740.41 -6.17793 1.9554 0
M  V30 18164 N 1733.81 -0.262893 -1.55392 0
M  V30 18165 C 1734.72 0.640223 -2.25695 0
M  V30 18166 C 1735.74 1.18019 -1.27857 0
M  V30 18167 O 1736.91 1.21308 -1.60768 0
M  V30 18168 C 1733.98 1.81336 -2.95497 0
M  V30 18169 C 1733.04 1.31128 -4.08784 0
M  V30 18170 C 1732.27 2.4285 -4.75247 0
M  V30 18171 O 1732.5 3.61939 -4.40859 0
M  V30 18172 O 1731.43 2.11699 -5.63442 0
M  V30 18173 H 1735.26 0.0710781 -3.03617 0
M  V30 18174 H 1732.84 -0.030765 -1.49368 0
M  V30 18175 H 1734.72 2.49764 -3.39406 0
M  V30 18176 H 1733.4 2.36982 -2.20502 0
M  V30 18177 H 1732.3 0.593816 -3.69357 0
M  V30 18178 H 1733.64 0.800711 -4.85643 0
M  V30 18179 N 1735.29 1.57597 0.0100073 0
M  V30 18180 C 1736.22 2.04622 1.0326 0
M  V30 18181 C 1737.23 0.962343 1.31312 0
M  V30 18182 O 1738.42 1.23933 1.28464 0
M  V30 18183 C 1735.52 2.42271 2.36976 0
M  V30 18184 C 1734.7 3.73271 2.28008 0
M  V30 18185 C 1733.76 3.97899 3.4433 0
M  V30 18186 O 1732.78 4.68702 3.22966 0
M  V30 18187 N 1733.98 3.45015 4.66846 0
M  V30 18188 H 1736.75 2.92968 0.63164 0
M  V30 18189 H 1734.31 1.6069 0.197591 0
M  V30 18190 H 1736.3 2.55869 3.13549 0
M  V30 18191 H 1734.87 1.59496 2.68849 0
M  V30 18192 H 1734.09 3.69846 1.3641 0
M  V30 18193 H 1735.38 4.59172 2.19178 0
M  V30 18194 H 1734.78 2.87661 4.87101 0
M  V30 18195 H 1733.33 3.6396 5.40718 0
M  V30 18196 N 1736.77 -0.282606 1.55045 0
M  V30 18197 C 1737.7 -1.35347 1.90272 0
M  V30 18198 C 1738.68 -1.52001 0.763532 0
M  V30 18199 O 1739.86 -1.65204 1.02085 0
M  V30 18200 C 1736.99 -2.71464 2.16621 0
M  V30 18201 C 1735.95 -2.69554 3.32453 0
M  V30 18202 C 1735.27 -4.09132 3.4426 0
M  V30 18203 C 1736.57 -2.29669 4.69094 0
M  V30 18204 H 1738.27 -1.06113 2.79965 0
M  V30 18205 H 1735.81 -0.509018 1.34703 0
M  V30 18206 H 1737.77 -3.46482 2.39851 0
M  V30 18207 H 1736.49 -3.02261 1.23717 0
M  V30 18208 H 1735.15 -1.96993 3.09175 0
M  V30 18209 H 1734.8 -4.37136 2.4884 0
M  V30 18210 H 1734.5 -4.08751 4.22133 0
M  V30 18211 H 1736.02 -4.85903 3.69771 0
M  V30 18212 H 1737.44 -2.94407 4.91932 0
M  V30 18213 H 1735.83 -2.40467 5.49814 0
M  V30 18214 H 1736.9 -1.24796 4.68566 0
M  V30 18215 N 1738.25 -1.47815 -0.546675 0
M  V30 18216 C 1739.49 -1.5498 -1.30336 0
M  V30 18217 C 1739.82 -0.216533 -1.93291 0
M  V30 18218 O 1739.08 0.791622 -1.78974 0
M  V30 18219 C 1739.37 -2.6242 -2.42632 0
M  V30 18220 C 1739.04 -4.05375 -1.97439 0
M  V30 18221 C 1737.7 -4.44287 -1.84831 0
M  V30 18222 C 1740.05 -4.9503 -1.6308 0
M  V30 18223 C 1737.38 -5.70678 -1.36174 0
M  V30 18224 C 1739.73 -6.21894 -1.1589 0
M  V30 18225 C 1738.4 -6.59678 -1.01886 0
M  V30 18226 H 1737.67 -0.567112 -0.476933 0
M  V30 18227 H 1740.32 -1.81461 -0.611907 0
M  V30 18228 H 1738.62 -2.29736 -3.17378 0
M  V30 18229 H 1740.32 -2.65184 -3.00796 0
M  V30 18230 H 1736.91 -3.74635 -2.08199 0
M  V30 18231 H 1741.09 -4.65657 -1.71689 0
M  V30 18232 H 1736.35 -5.98693 -1.24004 0
M  V30 18233 H 1740.52 -6.9077 -0.883691 0
M  V30 18234 H 1738.15 -7.57504 -0.639614 0
M  V30 18235 N 1739.72 0.794246 -1.36123 0
M  V30 18236 C 1740.67 1.92808 -1.30108 0
M  V30 18237 C 1741.67 1.68289 -0.193734 0
M  V30 18238 O 1742.87 1.76354 -0.360454 0
M  V30 18239 H 1739.25 0.633671 -0.404926 0
M  V30 18240 H 1741.22 1.95 -2.2587 0
M  V30 18241 C 1739.97 3.29762 -1.10238 0
M  V30 18242 H 1739.29 3.49193 -1.9469 0
M  V30 18243 H 1740.73 4.09463 -1.10073 0
M  V30 18244 C 1739.19 3.36345 0.193222 0
M  V30 18245 O 1739.72 3.83832 1.18474 0
M  V30 18246 N 1737.92 2.89638 0.236243 0
M  V30 18247 H 1737.47 2.51186 -0.571245 0
M  V30 18248 H 1737.43 2.94424 1.1028 0
M  V30 18249 N 1741.2 1.20323 1.01785 0
M  V30 18250 C 1742.15 0.947754 2.12416 0
M  V30 18251 C 1743.14 -0.100443 1.69102 0
M  V30 18252 O 1744.35 0.0498028 1.79931 0
M  V30 18253 H 1740.72 0.289148 0.694188 0
M  V30 18254 H 1742.7 1.88714 2.31149 0
M  V30 18255 C 1741.44 0.51503 3.43864 0
M  V30 18256 H 1740.77 1.31318 3.77618 0
M  V30 18257 H 1742.21 0.375476 4.22334 0
M  V30 18258 C 1740.67 -0.772413 3.27926 0
M  V30 18259 O 1741.2 -1.83115 3.57536 0
M  V30 18260 N 1739.4 -0.733948 2.81179 0
M  V30 18261 H 1738.95 0.127902 2.57282 0
M  V30 18262 H 1738.91 -1.59571 2.70896 0
M  V30 18263 N 1742.68 -1.21073 1.00892 0
M  V30 18264 C 1743.93 -1.90524 0.694879 0
M  V30 18265 C 1744.26 -1.78161 -0.772802 0
M  V30 18266 O 1743.53 -1.1608 -1.56063 0
M  V30 18267 C 1743.82 -3.42188 1.12156 0
M  V30 18268 C 1743.67 -3.63523 2.64898 0
M  V30 18269 C 1744.99 -4.34706 0.68694 0
M  V30 18270 H 1742.11 -0.69188 0.253912 0
M  V30 18271 H 1744.75 -1.42626 1.2553 0
M  V30 18272 H 1742.9 -3.83113 0.644742 0
M  V30 18273 H 1744.57 -3.31901 3.20374 0
M  V30 18274 H 1742.81 -3.07255 3.0623 0
M  V30 18275 H 1743.49 -4.69805 2.89806 0
M  V30 18276 H 1745.96 -4.01386 1.09674 0
M  V30 18277 H 1744.84 -5.3946 1.01361 0
M  V30 18278 H 1745.1 -4.40178 -0.411757 0
M  V30 18279 N 1744.16 -0.784156 -1.36707 0
M  V30 18280 C 1745.09 -0.193081 -2.327 0
M  V30 18281 C 1746.07 0.668999 -1.56392 0
M  V30 18282 O 1747.25 0.603908 -1.84571 0
M  V30 18283 C 1744.38 0.677092 -3.40636 0
M  V30 18284 C 1743.34 -0.0846718 -4.27916 0
M  V30 18285 C 1742.66 0.905754 -5.26973 0
M  V30 18286 C 1743.96 -1.27085 -5.06603 0
M  V30 18287 H 1745.66 -0.995029 -2.82382 0
M  V30 18288 H 1743.2 -0.479929 -1.35767 0
M  V30 18289 H 1745.16 1.1005 -4.06776 0
M  V30 18290 H 1743.88 1.51169 -2.89509 0
M  V30 18291 H 1742.54 -0.488992 -3.63324 0
M  V30 18292 H 1742.19 1.73524 -4.72121 0
M  V30 18293 H 1741.89 0.400524 -5.86233 0
M  V30 18294 H 1743.41 1.32784 -5.95987 0
M  V30 18295 H 1744.83 -0.923469 -5.65814 0
M  V30 18296 H 1743.22 -1.70901 -5.7525 0
M  V30 18297 H 1744.29 -2.06882 -4.38552 0
M  V30 18298 N 1745.64 1.48215 -0.535727 0
M  V30 18299 C 1746.88 2.03397 -0.01188 0
M  V30 18300 C 1747.24 1.40493 1.31451 0
M  V30 18301 O 1746.53 0.543545 1.83728 0
M  V30 18302 C 1746.72 3.57036 0.161344 0
M  V30 18303 C 1746.55 4.34834 -1.1467 0
M  V30 18304 C 1745.32 4.75553 -1.70815 0
M  V30 18305 C 1747.52 4.71297 -2.05873 0
M  V30 18306 N 1745.5 5.3791 -2.95849 0
M  V30 18307 C 1746.87 5.33733 -3.15483 0
M  V30 18308 C 1748.93 4.53228 -2.06129 0
M  V30 18309 C 1747.63 5.80008 -4.25421 0
M  V30 18310 C 1749.66 5.00488 -3.15065 0
M  V30 18311 C 1749.02 5.62953 -4.23395 0
M  V30 18312 H 1745.12 0.780647 -0.0459869 0
M  V30 18313 H 1747.7 1.80967 -0.718276 0
M  V30 18314 H 1745.87 3.79278 0.836833 0
M  V30 18315 H 1747.61 3.98855 0.685316 0
M  V30 18316 H 1744.36 4.56839 -1.24881 0
M  V30 18317 H 1744.79 5.73649 -3.59522 0
M  V30 18318 H 1749.43 4.04309 -1.23669 0
M  V30 18319 H 1747.15 6.27929 -5.08656 0
M  V30 18320 H 1750.73 4.88292 -3.16325 0
M  V30 18321 H 1749.61 5.98858 -5.06299 0
M  V30 18322 N 1747.11 0.27113 1.5525 0
M  V30 18323 C 1748.04 -0.61179 2.25343 0
M  V30 18324 C 1749.03 -1.16208 1.24216 0
M  V30 18325 O 1750.21 -1.19696 1.52927 0
M  V30 18326 C 1747.34 -1.7978 2.97147 0
M  V30 18327 C 1746.29 -1.37922 4.05169 0
M  V30 18328 C 1745.62 -2.64801 4.64526 0
M  V30 18329 C 1746.92 -0.532357 5.1958 0
M  V30 18330 H 1748.61 -0.0272538 2.99388 0
M  V30 18331 H 1746.16 -0.0116681 1.43995 0
M  V30 18332 H 1748.11 -2.42132 3.44891 0
M  V30 18333 H 1746.84 -2.40811 2.20631 0
M  V30 18334 H 1745.5 -0.778918 3.5823 0
M  V30 18335 H 1745.14 -3.24081 3.84682 0
M  V30 18336 H 1744.84 -2.37507 5.37461 0
M  V30 18337 H 1746.37 -3.28009 5.15017 0
M  V30 18338 H 1747.78 -1.06078 5.63401 0
M  V30 18339 H 1746.18 -0.35447 5.99052 0
M  V30 18340 H 1747.25 0.44981 4.82809 0
M  V30 18341 N 1748.59 -1.576 -0.00164943 0
M  V30 18342 C 1749.5 -2.11748 -1.00995 0
M  V30 18343 C 1750.52 -1.06235 -1.37805 0
M  V30 18344 O 1751.69 -1.38127 -1.4657 0
M  V30 18345 C 1748.76 -2.60869 -2.2836 0
M  V30 18346 C 1747.82 -3.80976 -1.97879 0
M  V30 18347 C 1747.05 -4.27745 -3.19171 0
M  V30 18348 O 1747.28 -3.73856 -4.30799 0
M  V30 18349 O 1746.21 -5.19917 -3.03265 0
M  V30 18350 H 1750.04 -2.98117 -0.579667 0
M  V30 18351 H 1747.62 -1.47766 -0.220375 0
M  V30 18352 H 1749.5 -2.9267 -3.03187 0
M  V30 18353 H 1748.18 -1.77598 -2.7063 0
M  V30 18354 H 1747.09 -3.54151 -1.20533 0
M  V30 18355 H 1748.42 -4.65315 -1.60447 0
M  V30 18356 N 1750.07 0.274379 -1.55193 0
M  V30 18357 C 1751 1.36139 -1.84388 0
M  V30 18358 C 1752.02 1.45601 -0.728294 0
M  V30 18359 O 1753.2 1.47443 -1.00613 0
M  V30 18360 C 1750.3 2.74278 -1.9906 0
M  V30 18361 C 1749.48 2.87424 -3.29706 0
M  V30 18362 C 1748.54 4.06229 -3.34461 0
M  V30 18363 O 1747.56 3.97053 -4.07845 0
M  V30 18364 N 1748.76 5.18131 -2.61764 0
M  V30 18365 H 1751.53 1.1144 -2.78211 0
M  V30 18366 H 1749.09 0.464493 -1.55094 0
M  V30 18367 H 1751.08 3.52047 -1.99613 0
M  V30 18368 H 1749.65 2.91805 -1.1211 0
M  V30 18369 H 1748.87 1.96551 -3.41704 0
M  V30 18370 H 1750.16 2.93137 -4.15871 0
M  V30 18371 H 1749.56 5.28473 -2.01824 0
M  V30 18372 H 1748.12 5.94135 -2.68042 0
M  V30 18373 N 1751.55 1.48103 0.538828 0
M  V30 18374 C 1752.48 1.56526 1.66057 0
M  V30 18375 C 1753.46 0.416225 1.57182 0
M  V30 18376 O 1754.64 0.626601 1.77781 0
M  V30 18377 C 1751.77 1.485 3.0441 0
M  V30 18378 C 1750.82 2.68135 3.31672 0
M  V30 18379 S 1751.65 4.30182 3.1891 0
M  V30 18380 C 1752.81 4.24739 4.59725 0
M  V30 18381 H 1753.04 2.51425 1.5866 0
M  V30 18382 H 1750.57 1.36527 0.721101 0
M  V30 18383 H 1752.53 1.44556 3.84206 0
M  V30 18384 H 1751.19 0.549541 3.09255 0
M  V30 18385 H 1750.38 2.58633 4.3258 0
M  V30 18386 H 1749.99 2.69296 2.5953 0
M  V30 18387 H 1752.28 3.94127 5.51063 0
M  V30 18388 H 1753.22 5.25796 4.74283 0
M  V30 18389 H 1753.63 3.55332 4.38634 0
M  V30 18390 N 1753.03 -0.787016 1.36542 0
M  V30 18391 C 1754.25 -1.58103 1.34231 0
M  V30 18392 C 1754.68 -1.87956 -0.0734932 0
M  V30 18393 O 1754.03 -1.48073 -1.04615 0
M  V30 18394 C 1754.08 -2.87739 2.17345 0
M  V30 18395 O 1753.19 -3.81445 1.56759 0
M  V30 18396 H 1752.53 -0.479495 0.459326 0
M  V30 18397 H 1755.06 -0.975294 1.79859 0
M  V30 18398 H 1755.07 -3.36986 2.3001 0
M  V30 18399 H 1753.74 -2.65338 3.20264 0
M  V30 18400 H 1752.32 -3.40046 1.53047 0
M  V30 18401 N 1754.5 -1.20861 -1.01145 0
M  V30 18402 C 1755.44 -0.919862 -2.09931 0
M  V30 18403 C 1756.45 0.0944116 -1.62526 0
M  V30 18404 O 1757.64 -0.137265 -1.77971 0
M  V30 18405 C 1754.74 -0.358478 -3.36999 0
M  V30 18406 C 1753.91 -1.42553 -4.13518 0
M  V30 18407 C 1752.97 -0.874546 -5.18882 0
M  V30 18408 O 1752 -1.55646 -5.47506 0
M  V30 18409 N 1753.2 0.313462 -5.79653 0
M  V30 18410 H 1755.96 -1.85633 -2.35288 0
M  V30 18411 H 1753.52 -1.11299 -1.17577 0
M  V30 18412 H 1755.52 0.0243829 -4.04693 0
M  V30 18413 H 1754.09 0.482669 -3.08851 0
M  V30 18414 H 1753.31 -1.98251 -3.4072 0
M  V30 18415 H 1754.59 -2.14402 -4.61421 0
M  V30 18416 H 1753.99 0.884644 -5.5874 0
M  V30 18417 H 1752.55 0.637904 -6.48671 0
M  V30 18418 N 1755.98 1.20536 -1.01532 0
M  V30 18419 C 1756.93 2.23277 -0.584486 0
M  V30 18420 C 1757.9 1.6134 0.394773 0
M  V30 18421 O 1759.08 1.88514 0.294498 0
M  V30 18422 C 1756.22 3.45024 0.0723574 0
M  V30 18423 C 1755.34 4.21395 -0.951314 0
M  V30 18424 C 1754.47 5.30535 -0.265656 0
M  V30 18425 C 1753.51 5.98649 -1.27617 0
M  V30 18426 N 1752.65 6.99381 -0.61727 0
M  V30 18427 H 1757.49 2.59489 -1.46524 0
M  V30 18428 H 1755.03 1.27507 -0.733502 0
M  V30 18429 H 1756.98 4.14541 0.470303 0
M  V30 18430 H 1755.61 3.09508 0.916768 0
M  V30 18431 H 1754.67 3.50957 -1.46743 0
M  V30 18432 H 1755.98 4.68211 -1.71989 0
M  V30 18433 H 1755.13 6.06409 0.187857 0
M  V30 18434 H 1753.87 4.84754 0.535237 0
M  V30 18435 H 1752.88 5.21537 -1.74008 0
M  V30 18436 H 1754.1 6.46516 -2.07832 0
M  V30 18437 H 1752.05 6.55796 0.163777 0
M  V30 18438 H 1751.96 7.44317 -1.32393 0
M  V30 18439 H 1753.23 7.79275 -0.187306 0
M  V30 18440 N 1757.46 0.791395 1.36289 0
M  V30 18441 C 1758.71 0.364702 1.99189 0
M  V30 18442 C 1759.04 -1.06414 1.62808 0
M  V30 18443 O 1758.29 -1.75019 0.875611 0
M  V30 18444 C 1758.59 0.477795 3.54192 0
M  V30 18445 C 1758.26 1.86773 4.10398 0
M  V30 18446 C 1756.92 2.24802 4.25461 0
M  V30 18447 C 1759.27 2.77776 4.4101 0
M  V30 18448 C 1756.6 3.53233 4.68448 0
M  V30 18449 C 1758.95 4.05636 4.8543 0
M  V30 18450 C 1757.61 4.43685 4.98698 0
M  V30 18451 H 1756.88 0.133454 0.728883 0
M  V30 18452 H 1759.53 1.00924 1.62747 0
M  V30 18453 H 1757.84 -0.250238 3.91 0
M  V30 18454 H 1759.53 0.12865 4.00794 0
M  V30 18455 H 1756.12 1.56221 3.99115 0
M  V30 18456 H 1760.31 2.49648 4.2894 0
M  V30 18457 H 1755.56 3.82581 4.76908 0
M  V30 18458 H 1759.74 4.76264 5.0808 0
M  V30 18459 H 1757.36 5.43258 5.31766 0
M  V30 18460 N 1758.94 -1.47929 0.54358 0
M  V30 18461 C 1759.9 -2.28316 -0.201107 0
M  V30 18462 C 1760.9 -1.36165 -0.855313 0
M  V30 18463 O 1762.09 -1.58928 -0.71327 0
M  V30 18464 C 1759.22 -3.1545 -1.29245 0
M  V30 18465 H 1760.42 -2.9562 0.504848 0
M  V30 18466 H 1757.97 -1.53394 0.300011 0
M  V30 18467 H 1758.71 -2.52807 -2.03124 0
M  V30 18468 H 1758.49 -3.83251 -0.82832 0
M  V30 18469 H 1759.98 -3.76053 -1.81587 0
M  V30 18470 N 1760.42 -0.27936 -1.55104 0
M  V30 18471 C 1761.83 0.217569 -1.85428 0
M  V30 18472 C 1762.18 1.55117 -1.20138 0
M  V30 18473 O 1761.3 2.10751 -0.491229 0
M  V30 18474 C 1761.9 0.401547 -3.36412 0
M  V30 18475 C 1760.46 0.842706 -3.66845 0
M  V30 18476 C 1759.61 -0.0615565 -2.77232 0
M  V30 18477 H 1762.56 -0.501025 -1.50584 0
M  V30 18478 H 1762.58 1.23946 -3.59747 0
M  V30 18479 H 1762.09 -0.569224 -3.83903 0
M  V30 18480 H 1760.19 1.8248 -3.24857 0
M  V30 18481 H 1760.3 0.677088 -4.74291 0
M  V30 18482 H 1758.67 0.455486 -2.50594 0
M  V30 18483 H 1759.45 -1.02829 -3.27538 0
M  V30 18484 N 1761.9 1.57599 -0.0067085 0
M  V30 18485 C 1762.83 2.11878 0.981331 0
M  V30 18486 C 1763.81 1.02949 1.35408 0
M  V30 18487 O 1764.99 1.30667 1.43665 0
M  V30 18488 C 1762.12 2.62757 2.27104 0
M  V30 18489 C 1761.08 3.76272 2.0397 0
M  V30 18490 C 1760.4 4.13491 3.39012 0
M  V30 18491 C 1761.7 5.03274 1.39688 0
M  V30 18492 H 1763.4 2.94683 0.529366 0
M  V30 18493 H 1760.94 1.41757 0.253187 0
M  V30 18494 H 1762.89 2.99359 2.96585 0
M  V30 18495 H 1761.62 1.77082 2.74426 0
M  V30 18496 H 1760.28 3.40074 1.36913 0
M  V30 18497 H 1759.93 3.24831 3.8405 0
M  V30 18498 H 1759.63 4.89972 3.24347 0
M  V30 18499 H 1761.15 4.52657 4.09797 0
M  V30 18500 H 1762.56 5.37604 1.99136 0
M  V30 18501 H 1760.96 5.84604 1.3549 0
M  V30 18502 H 1762.03 4.8351 0.366928 0
M  V30 18503 N 1763.37 -0.266145 1.55336 0
M  V30 18504 C 1764.6 -1.01342 1.80037 0
M  V30 18505 C 1765.01 -1.80175 0.577368 0
M  V30 18506 O 1764.35 -1.77765 -0.46318 0
M  V30 18507 C 1764.42 -2.0141 2.97782 0
M  V30 18508 C 1764.08 -1.4145 4.34558 0
M  V30 18509 C 1765.08 -0.826689 5.13285 0
M  V30 18510 C 1762.76 -1.43964 4.81227 0
M  V30 18511 C 1764.76 -0.272004 6.36819 0
M  V30 18512 C 1762.44 -0.881101 6.04715 0
M  V30 18513 C 1763.44 -0.298287 6.82348 0
M  V30 18514 O 1763.13 0.251684 8.03506 0
M  V30 18515 H 1762.86 -0.304756 0.603407 0
M  V30 18516 H 1765.42 -0.300216 2.03194 0
M  V30 18517 H 1763.65 -2.76508 2.70334 0
M  V30 18518 H 1765.33 -2.62321 3.09746 0
M  V30 18519 H 1766.1 -0.79991 4.78358 0
M  V30 18520 H 1761.98 -1.88267 4.20805 0
M  V30 18521 H 1765.52 0.183538 6.97359 0
M  V30 18522 H 1761.42 -0.905142 6.39122 0
M  V30 18523 H 1762.19 0.1417 8.18377 0
M  V30 18524 N 1764.85 -1.48386 -0.530967 0
M  V30 18525 C 1765.81 -1.62355 -1.61782 0
M  V30 18526 C 1766.81 -0.496909 -1.5293 0
M  V30 18527 O 1768 -0.762672 -1.56617 0
M  V30 18528 C 1765.14 -1.59282 -3.014 0
M  V30 18529 H 1766.33 -2.59265 -1.50737 0
M  V30 18530 H 1763.88 -1.36969 -0.752948 0
M  V30 18531 H 1764.62 -0.638453 -3.17953 0
M  V30 18532 H 1764.4 -2.41073 -3.09235 0
M  V30 18533 H 1765.89 -1.72248 -3.80421 0
M  V30 18534 N 1766.33 0.779763 -1.36958 0
M  V30 18535 C 1767.58 1.54031 -1.31918 0
M  V30 18536 C 1767.91 1.9395 0.0985685 0
M  V30 18537 O 1767.18 1.63458 1.05413 0
M  V30 18538 C 1767.47 2.81083 -2.25088 0
M  V30 18539 C 1767.32 2.47469 -3.75605 0
M  V30 18540 C 1768.64 3.82968 -2.1685 0
M  V30 18541 H 1765.76 0.558806 -0.480526 0
M  V30 18542 H 1768.4 0.895152 -1.67592 0
M  V30 18543 H 1766.55 3.36135 -1.94796 0
M  V30 18544 H 1768.22 1.98393 -4.16459 0
M  V30 18545 H 1766.46 1.80276 -3.94567 0
M  V30 18546 H 1767.14 3.38255 -4.3622 0
M  V30 18547 H 1769.61 3.37388 -2.43534 0
M  V30 18548 H 1768.49 4.69601 -2.84194 0
M  V30 18549 H 1768.75 4.26642 -1.15885 0
M  V30 18550 N 1767.81 1.21396 1.00503 0
M  V30 18551 C 1768.72 0.989221 2.12724 0
M  V30 18552 C 1769.73 -0.0586646 1.73901 0
M  V30 18553 O 1770.91 0.131377 2.00971 0
M  V30 18554 C 1767.97 0.556731 3.42201 0
M  V30 18555 C 1767.04 1.67683 3.95197 0
M  V30 18556 C 1766.27 1.26488 5.18494 0
M  V30 18557 O 1766.49 0.13847 5.70232 0
M  V30 18558 O 1765.43 2.07678 5.64937 0
M  V30 18559 H 1769.25 1.92913 2.3456 0
M  V30 18560 H 1766.84 0.998837 1.11102 0
M  V30 18561 H 1768.72 0.325327 4.20142 0
M  V30 18562 H 1767.39 -0.354457 3.21753 0
M  V30 18563 H 1766.3 1.96263 3.18483 0
M  V30 18564 H 1767.63 2.56544 4.20055 0
M  V30 18565 N 1769.29 -1.19996 1.0217 0
M  V30 18566 C 1770.51 -1.94007 0.733207 0
M  V30 18567 C 1770.94 -1.74565 -0.70061 0
M  V30 18568 O 1770.29 -1.04326 -1.48276 0
M  V30 18569 C 1770.34 -3.44029 1.08057 0
M  V30 18570 O 1769.45 -4.11938 0.195135 0
M  V30 18571 H 1768.79 -0.605929 0.271562 0
M  V30 18572 H 1771.32 -1.5228 1.36645 0
M  V30 18573 H 1771.33 -3.94669 1.03443 0
M  V30 18574 H 1770 -3.57502 2.1252 0
M  V30 18575 H 1768.58 -3.71697 0.299246 0
M  V30 18576 N 1770.76 -0.798611 -1.35867 0
M  V30 18577 C 1771.71 -0.201442 -2.29919 0
M  V30 18578 C 1772.68 0.659971 -1.52426 0
M  V30 18579 O 1773.87 0.606726 -1.80896 0
M  V30 18580 C 1771.01 0.650427 -3.38915 0
M  V30 18581 C 1770.12 -0.230539 -4.31384 0
M  V30 18582 C 1769.25 0.628575 -5.27468 0
M  V30 18583 C 1768.29 -0.253282 -6.11576 0
M  V30 18584 N 1767.43 0.565343 -6.9982 0
M  V30 18585 H 1772.27 -1.00892 -2.80401 0
M  V30 18586 H 1769.81 -0.509085 -1.3801 0
M  V30 18587 H 1771.76 1.15941 -4.00766 0
M  V30 18588 H 1770.39 1.42325 -2.8973 0
M  V30 18589 H 1769.45 -0.85756 -3.70608 0
M  V30 18590 H 1770.76 -0.909635 -4.90436 0
M  V30 18591 H 1769.91 1.203 -5.94653 0
M  V30 18592 H 1768.65 1.34127 -4.68894 0
M  V30 18593 H 1767.66 -0.84004 -5.43345 0
M  V30 18594 H 1768.88 -0.963713 -6.72227 0
M  V30 18595 H 1766.83 1.26216 -6.43743 0
M  V30 18596 H 1766.74 -0.0558752 -7.55979 0
M  V30 18597 H 1768.01 1.1233 -7.71364 0
M  V30 18598 N 1772.24 1.47639 -0.551417 0
M  V30 18599 C 1773.66 1.58202 -0.210768 0
M  V30 18600 C 1773.86 1.55078 1.28659 0
M  V30 18601 O 1772.91 1.45113 2.06636 0
M  V30 18602 C 1774.23 2.88952 -0.832294 0
M  V30 18603 C 1775.77 3.02524 -0.80299 0
M  V30 18604 C 1776.25 4.35966 -1.40348 0
M  V30 18605 N 1777.74 4.42587 -1.3664 0
M  V30 18606 C 1778.48 5.44391 -1.80072 0
M  V30 18607 N 1777.97 6.53037 -2.31332 0
M  V30 18608 N 1779.76 5.35401 -1.71178 0
M  V30 18609 H 1771.92 1.47912 -1.52433 0
M  V30 18610 H 1774.18 0.703607 -0.635328 0
M  V30 18611 H 1773.88 2.96958 -1.88439 0
M  V30 18612 H 1773.76 3.75824 -0.321915 0
M  V30 18613 H 1776.15 2.94119 0.240395 0
M  V30 18614 H 1776.23 2.17209 -1.35107 0
M  V30 18615 H 1775.87 4.45127 -2.4459 0
M  V30 18616 H 1775.8 5.20004 -0.830897 0
M  V30 18617 H 1778.29 3.64664 -0.991386 0
M  V30 18618 H 1778.6 7.26884 -2.62411 0
M  V30 18619 H 1776.95 6.53942 -2.35339 0
M  V30 18620 H 1780.14 4.49421 -1.30912 0
M  V30 18621 H 1780.31 6.14604 -2.05344 0
M  V30 18622 N 1773.72 0.287581 1.54954 0
M  V30 18623 C 1774.97 -0.326315 1.99043 0
M  V30 18624 C 1775.28 -1.56033 1.17954 0
M  V30 18625 O 1776.49 -2.24797 1.52246 0
M  V30 18626 C 1774.94 -0.631918 3.54309 0
M  V30 18627 C 1774.55 0.582998 4.4419 0
M  V30 18628 C 1776.3 -1.20775 4.06957 0
M  V30 18629 C 1774.2 0.251291 5.90866 0
M  V30 18630 H 1773.13 -0.125703 0.743448 0
M  V30 18631 H 1775.78 0.394188 1.79216 0
M  V30 18632 H 1774.17 -1.41166 3.69984 0
M  V30 18633 H 1775.34 1.35957 4.40287 0
M  V30 18634 H 1773.66 1.07653 4.02243 0
M  V30 18635 H 1776.25 -1.46995 5.14098 0
M  V30 18636 H 1776.6 -2.14569 3.56743 0
M  V30 18637 H 1777.13 -0.490021 3.9477 0
M  V30 18638 H 1773.87 1.15744 6.452 0
M  V30 18639 H 1773.39 -0.488274 5.97809 0
M  V30 18640 H 1775.07 -0.152008 6.46821 0
M  V30 18641 N 1775.2 -1.57593 0.0150662 0
M  V30 18642 C 1776.61 -1.5591 -0.341189 0
M  V30 18643 C 1776.81 -1.01927 -1.73819 0
M  V30 18644 O 1775.87 -0.659752 -2.43728 0
M  V30 18645 C 1777.18 -3.00016 -0.202639 0
M  V30 18646 C 1778.73 -3.11777 -0.276457 0
M  V30 18647 C 1779.21 -4.57696 -0.166859 0
M  V30 18648 N 1780.7 -4.62657 -0.224287 0
M  V30 18649 C 1781.43 -5.73168 -0.163053 0
M  V30 18650 N 1780.93 -6.92781 -0.0515442 0
M  V30 18651 N 1782.72 -5.61685 -0.216018 0
M  V30 18652 H 1774.87 -1.91018 0.92876 0
M  V30 18653 H 1777.14 -0.878048 0.3574 0
M  V30 18654 H 1776.84 -3.43409 0.759136 0
M  V30 18655 H 1776.72 -3.64285 -0.978599 0
M  V30 18656 H 1779.1 -2.68305 -1.22868 0
M  V30 18657 H 1779.18 -2.50257 0.529637 0
M  V30 18658 H 1778.83 -5.01846 0.781888 0
M  V30 18659 H 1778.76 -5.17179 -0.991635 0
M  V30 18660 H 1781.25 -3.76617 -0.311188 0
M  V30 18661 H 1781.56 -7.72799 -0.0111287 0
M  V30 18662 H 1779.91 -6.94998 -0.0169584 0
M  V30 18663 H 1783.1 -4.67128 -0.301435 0
M  V30 18664 H 1783.27 -6.4779 -0.164834 0
M  V30 18665 N 1776.68 0.257904 -1.55475 0
M  V30 18666 C 1777.59 1.34084 -1.92506 0
M  V30 18667 C 1778.6 1.53246 -0.824123 0
M  V30 18668 O 1779.78 1.67081 -1.12455 0
M  V30 18669 C 1776.84 2.67741 -2.20263 0
M  V30 18670 C 1775.9 2.57196 -3.43728 0
M  V30 18671 C 1775.14 3.84479 -3.7015 0
M  V30 18672 O 1775.36 4.85858 -2.98827 0
M  V30 18673 O 1774.29 3.83774 -4.63682 0
M  V30 18674 H 1778.12 1.05672 -2.84723 0
M  V30 18675 H 1775.71 0.457726 -1.42215 0
M  V30 18676 H 1777.59 3.46743 -2.39473 0
M  V30 18677 H 1776.26 2.95907 -1.31227 0
M  V30 18678 H 1775.17 1.76518 -3.29837 0
M  V30 18679 H 1776.5 2.33977 -4.33031 0
M  V30 18680 N 1778.15 1.48666 0.52309 0
M  V30 18681 C 1779.08 1.666 1.63605 0
M  V30 18682 C 1780.07 0.514803 1.62123 0
M  V30 18683 O 1781.25 0.748138 1.79211 0
M  V30 18684 C 1778.38 1.71199 3.02172 0
M  V30 18685 C 1777.33 2.85888 3.18515 0
M  V30 18686 C 1776.66 2.75582 4.58213 0
M  V30 18687 C 1777.96 4.27104 3.00631 0
M  V30 18688 H 1779.65 2.59776 1.48851 0
M  V30 18689 H 1777.2 1.25014 0.714667 0
M  V30 18690 H 1779.15 1.82333 3.79911 0
M  V30 18691 H 1777.88 0.746066 3.17964 0
M  V30 18692 H 1776.54 2.7432 2.43195 0
M  V30 18693 H 1776.18 1.76944 4.7085 0
M  V30 18694 H 1775.88 3.52545 4.70091 0
M  V30 18695 H 1777.41 2.88693 5.38041 0
M  V30 18696 H 1778.82 4.3947 3.68157 0
M  V30 18697 H 1777.22 5.05119 3.23999 0
M  V30 18698 H 1778.29 4.43087 1.96982 0
M  V30 18699 N 1779.63 -0.772489 1.37369 0
M  V30 18700 C 1780.58 -1.88575 1.33073 0
M  V30 18701 C 1781.55 -1.64935 0.19641 0
M  V30 18702 O 1782.73 -1.86862 0.385651 0
M  V30 18703 C 1779.87 -3.25628 1.14281 0
M  V30 18704 C 1778.99 -3.61227 2.36936 0
M  V30 18705 C 1778.12 -4.87486 2.11023 0
M  V30 18706 C 1777.16 -5.15814 3.29548 0
M  V30 18707 N 1776.3 -6.33261 3.03191 0
M  V30 18708 H 1781.14 -1.91583 2.28255 0
M  V30 18709 H 1778.68 -0.936654 1.13425 0
M  V30 18710 H 1780.63 -4.04688 1.01407 0
M  V30 18711 H 1779.26 -3.21998 0.227467 0
M  V30 18712 H 1778.32 -2.77158 2.60552 0
M  V30 18713 H 1779.63 -3.781 3.25333 0
M  V30 18714 H 1778.78 -5.74449 1.95176 0
M  V30 18715 H 1777.52 -4.72716 1.19962 0
M  V30 18716 H 1776.53 -4.27328 3.45935 0
M  V30 18717 H 1777.75 -5.32493 4.21459 0
M  V30 18718 H 1775.7 -6.19851 2.14759 0
M  V30 18719 H 1775.61 -6.50546 3.85131 0
M  V30 18720 H 1776.88 -7.23162 2.9096 0
M  V30 18721 N 1781.11 -1.21927 -0.998575 0
M  V30 18722 C 1782.06 -0.981427 -2.10881 0
M  V30 18723 C 1783.05 0.0735277 -1.6924 0
M  V30 18724 O 1784.26 -0.078422 -1.79829 0
M  V30 18725 H 1780.63 -0.300155 -0.6895 0
M  V30 18726 H 1782.6 -1.92367 -2.28117 0
M  V30 18727 C 1781.35 -0.56967 -3.43002 0
M  V30 18728 H 1780.68 -1.37309 -3.75481 0
M  V30 18729 H 1782.12 -0.442618 -4.21683 0
M  V30 18730 C 1780.58 0.720145 -3.29113 0
M  V30 18731 O 1781.11 1.77404 -3.60403 0
M  V30 18732 N 1779.31 0.689122 -2.82311 0
M  V30 18733 H 1778.86 -0.168817 -2.57046 0
M  V30 18734 H 1778.82 1.55241 -2.734 0
M  V30 18735 N 1782.59 1.19452 -1.02805 0
M  V30 18736 C 1783.54 2.22644 -0.608134 0
M  V30 18737 C 1784.51 1.6175 0.377639 0
M  V30 18738 O 1785.69 1.88815 0.274487 0
M  V30 18739 C 1782.83 3.45081 0.0357589 0
M  V30 18740 C 1781.94 4.20363 -0.995955 0
M  V30 18741 C 1781.08 5.30224 -0.321911 0
M  V30 18742 C 1780.12 5.97261 -1.33959 0
M  V30 18743 N 1779.25 6.98687 -0.691414 0
M  V30 18744 H 1784.09 2.57921 -1.49268 0
M  V30 18745 H 1781.63 1.26722 -0.746985 0
M  V30 18746 H 1783.59 4.15016 0.426309 0
M  V30 18747 H 1782.22 3.10463 0.883889 0
M  V30 18748 H 1781.27 3.49381 -1.50457 0
M  V30 18749 H 1782.58 4.6636 -1.76945 0
M  V30 18750 H 1781.74 6.06574 0.123528 0
M  V30 18751 H 1780.48 4.85294 0.483792 0
M  V30 18752 H 1779.48 5.19662 -1.7953 0
M  V30 18753 H 1780.71 6.44275 -2.14678 0
M  V30 18754 H 1778.65 6.55932 0.0942121 0
M  V30 18755 H 1778.57 7.42871 -1.40281 0
M  V30 18756 H 1779.84 7.79032 -0.269948 0
M  V30 18757 N 1784.07 0.805805 1.35442 0
M  V30 18758 C 1785 0.16119 2.2763 0
M  V30 18759 C 1785.98 -0.672367 1.48047 0
M  V30 18760 O 1787.16 -0.639817 1.77309 0
M  V30 18761 C 1784.29 -0.776465 3.2968 0
M  V30 18762 C 1783.33 -0.022629 4.26494 0
M  V30 18763 S 1784.17 1.31288 5.19157 0
M  V30 18764 C 1785.32 0.379652 6.24748 0
M  V30 18765 H 1785.56 0.942806 2.81955 0
M  V30 18766 H 1783.09 0.600827 1.4223 0
M  V30 18767 H 1785.05 -1.31195 3.88971 0
M  V30 18768 H 1783.71 -1.53146 2.74235 0
M  V30 18769 H 1782.9 -0.734753 4.98615 0
M  V30 18770 H 1782.5 0.442875 3.71369 0
M  V30 18771 H 1784.8 -0.435371 6.761 0
M  V30 18772 H 1785.74 1.07003 6.99969 0
M  V30 18773 H 1786.15 -0.024306 5.64495 0
M  V30 18774 N 1785.54 -1.47344 0.559239 0
M  V30 18775 C 1786.79 -2.02768 0.0359962 0
M  V30 18776 C 1787.12 -1.43247 -1.31126 0
M  V30 18777 O 1786.4 -0.588793 -1.85374 0
M  V30 18778 C 1786.68 -3.60058 -0.0549111 0
M  V30 18779 C 1786.53 -4.30008 1.31958 0
M  V30 18780 C 1787.85 -4.33359 -0.767331 0
M  V30 18781 H 1784.97 -0.736856 0.0145552 0
M  V30 18782 H 1787.61 -1.75751 0.72192 0
M  V30 18783 H 1785.76 -3.83208 -0.639076 0
M  V30 18784 H 1787.44 -4.18193 1.94711 0
M  V30 18785 H 1785.68 -3.90283 1.89372 0
M  V30 18786 H 1786.35 -5.38605 1.20867 0
M  V30 18787 H 1788.83 -4.15215 -0.27131 0
M  V30 18788 H 1787.7 -5.4304 -0.799905 0
M  V30 18789 H 1787.96 -4.02725 -1.82387 0
M  V30 18790 N 1787.02 -0.295795 -1.54799 0
M  V30 18791 C 1787.97 0.598403 -2.24771 0
M  V30 18792 C 1788.96 1.14123 -1.25189 0
M  V30 18793 O 1790.17 1.09248 -1.43056 0
M  V30 18794 H 1786.55 0.21157 -0.721625 0
M  V30 18795 H 1788.52 -0.0143437 -2.98397 0
M  V30 18796 C 1787.27 1.76132 -2.99788 0
M  V30 18797 H 1786.59 1.35284 -3.76216 0
M  V30 18798 H 1788.03 2.36317 -3.52037 0
M  V30 18799 C 1786.49 2.6623 -2.06453 0
M  V30 18800 O 1787.02 3.67179 -1.62918 0
M  V30 18801 N 1785.22 2.3385 -1.72518 0
M  V30 18802 H 1784.77 1.51804 -2.08119 0
M  V30 18803 H 1784.73 2.944 -1.10344 0
M  V30 18804 N 1788.5 1.57583 -0.0234236 0
M  V30 18805 C 1789.73 1.95577 0.66583 0
M  V30 18806 C 1790.14 0.898193 1.66521 0
M  V30 18807 O 1789.48 -0.129109 1.83246 0
M  V30 18808 C 1789.54 3.29685 1.43345 0
M  V30 18809 C 1789.21 4.53136 0.593048 0
M  V30 18810 C 1790.21 5.19739 -0.129251 0
M  V30 18811 C 1787.89 4.99473 0.532125 0
M  V30 18812 C 1789.88 6.30997 -0.901206 0
M  V30 18813 C 1787.57 6.10615 -0.24354 0
M  V30 18814 C 1788.57 6.76235 -0.958917 0
M  V30 18815 O 1788.26 7.85243 -1.72188 0
M  V30 18816 H 1787.99 0.649084 0.188853 0
M  V30 18817 H 1790.54 2.05253 -0.0777525 0
M  V30 18818 H 1788.77 3.16484 2.22205 0
M  V30 18819 H 1790.46 3.52623 2.01027 0
M  V30 18820 H 1791.23 4.84914 -0.0914812 0
M  V30 18821 H 1787.11 4.48207 1.0785 0
M  V30 18822 H 1790.65 6.82149 -1.46011 0
M  V30 18823 H 1786.55 6.44879 -0.283046 0
M  V30 18824 H 1787.32 8.0188 -1.64105 0
M  V30 18825 N 1789.98 -0.249655 1.5561 0
M  V30 18826 C 1790.91 -1.33534 1.85051 0
M  V30 18827 C 1791.89 -1.46503 0.705373 0
M  V30 18828 O 1793.07 -1.62761 0.950841 0
M  V30 18829 C 1790.2 -2.70916 2.03278 0
M  V30 18830 C 1789.25 -2.75111 3.25908 0
M  V30 18831 S 1790.08 -2.31998 4.82636 0
M  V30 18832 C 1791.24 -3.7131 5.03865 0
M  V30 18833 H 1791.47 -1.08362 2.76848 0
M  V30 18834 H 1789 -0.450498 1.47682 0
M  V30 18835 H 1790.96 -3.50022 2.14464 0
M  V30 18836 H 1789.62 -2.93328 1.12328 0
M  V30 18837 H 1788.81 -3.75999 3.3562 0
M  V30 18838 H 1788.42 -2.04047 3.13434 0
M  V30 18839 H 1790.71 -4.66784 4.91039 0
M  V30 18840 H 1791.65 -3.66535 6.05853 0
M  V30 18841 H 1792.06 -3.63696 4.31724 0
M  V30 18842 N 1791.46 -1.48941 -0.515198 0
M  V30 18843 C 1792.39 -1.60665 -1.63461 0
M  V30 18844 C 1793.4 -0.490076 -1.55248 0
M  V30 18845 O 1794.59 -0.761549 -1.61439 0
M  V30 18846 C 1791.69 -1.53414 -3.02187 0
M  V30 18847 C 1790.86 -2.80364 -3.3573 0
M  V30 18848 C 1789.92 -2.66362 -4.53804 0
M  V30 18849 O 1788.95 -3.40276 -4.5629 0
M  V30 18850 N 1790.15 -1.76961 -5.5287 0
M  V30 18851 H 1792.92 -2.57206 -1.53836 0
M  V30 18852 H 1790.48 -1.45851 -0.702786 0
M  V30 18853 H 1792.47 -1.41721 -3.79074 0
M  V30 18854 H 1791.04 -0.647891 -3.05812 0
M  V30 18855 H 1790.26 -3.06513 -2.47878 0
M  V30 18856 H 1791.55 -3.64555 -3.54932 0
M  V30 18857 H 1790.95 -1.16139 -5.5365 0
M  V30 18858 H 1789.5 -1.71198 -6.28915 0
M  V30 18859 N 1792.94 0.765193 -1.37777 0
M  V30 18860 C 1794.18 1.52397 -1.33347 0
M  V30 18861 C 1794.51 1.94335 0.0800559 0
M  V30 18862 O 1793.77 1.64847 1.05469 0
M  V30 18863 C 1794.06 2.79732 -2.22452 0
M  V30 18864 C 1793.73 2.56814 -3.70618 0
M  V30 18865 C 1792.39 2.50272 -4.10996 0
M  V30 18866 C 1794.74 2.36494 -4.64457 0
M  V30 18867 C 1792.07 2.2141 -5.43318 0
M  V30 18868 C 1794.42 2.09155 -5.97024 0
M  V30 18869 C 1793.09 2.01062 -6.36499 0
M  V30 18870 H 1792.36 0.55766 -0.487951 0
M  V30 18871 H 1795.01 0.880853 -1.70039 0
M  V30 18872 H 1793.31 3.48635 -1.78777 0
M  V30 18873 H 1795.01 3.37639 -2.16335 0
M  V30 18874 H 1791.6 2.62771 -3.38599 0
M  V30 18875 H 1795.78 2.40534 -4.34117 0
M  V30 18876 H 1791.04 2.13644 -5.72858 0
M  V30 18877 H 1795.21 1.92433 -6.69285 0
M  V30 18878 H 1792.84 1.78462 -7.38956 0
M  V30 18879 N 1794.41 1.22455 0.992094 0
M  V30 18880 C 1795.36 0.99534 2.08235 0
M  V30 18881 C 1796.33 -0.0832064 1.65891 0
M  V30 18882 O 1797.52 0.0665468 1.90684 0
M  V30 18883 C 1794.66 0.580055 3.4019 0
M  V30 18884 C 1793.77 1.72946 3.95871 0
M  V30 18885 C 1792.9 1.26208 5.15989 0
M  V30 18886 C 1791.94 2.38298 5.63809 0
M  V30 18887 N 1791.08 1.92602 6.75166 0
M  V30 18888 H 1795.92 1.92861 2.27175 0
M  V30 18889 H 1793.46 0.960948 1.11374 0
M  V30 18890 H 1795.41 0.320448 4.15968 0
M  V30 18891 H 1794.04 -0.316208 3.21248 0
M  V30 18892 H 1793.1 2.10337 3.16958 0
M  V30 18893 H 1794.41 2.57257 4.27341 0
M  V30 18894 H 1793.56 0.959904 5.99058 0
M  V30 18895 H 1792.3 0.389184 4.86145 0
M  V30 18896 H 1791.31 2.69304 4.79328 0
M  V30 18897 H 1792.53 3.26105 5.95678 0
M  V30 18898 H 1790.48 1.07675 6.47103 0
M  V30 18899 H 1790.39 2.70478 7.05959 0
M  V30 18900 H 1791.66 1.65455 7.61738 0
M  V30 18901 N 1795.89 -1.18905 1.03437 0
M  V30 18902 C 1797.12 -1.93219 0.753743 0
M  V30 18903 C 1797.54 -1.75299 -0.682055 0
M  V30 18904 O 1796.9 -1.05892 -1.47161 0
M  V30 18905 C 1796.95 -3.42864 1.117 0
M  V30 18906 O 1796.05 -4.11708 0.238816 0
M  V30 18907 H 1795.39 -0.603015 0.277973 0
M  V30 18908 H 1797.92 -1.50823 1.38252 0
M  V30 18909 H 1797.93 -3.9355 1.07623 0
M  V30 18910 H 1796.61 -3.55228 2.163 0
M  V30 18911 H 1795.18 -3.71359 0.338652 0
M  V30 18912 N 1797.37 -0.812977 -1.35013 0
M  V30 18913 C 1798.32 -0.225816 -2.29693 0
M  V30 18914 C 1799.29 0.643767 -1.53117 0
M  V30 18915 O 1800.47 0.587505 -1.8153 0
M  V30 18916 C 1797.61 0.614444 -3.39586 0
M  V30 18917 C 1796.72 -0.276281 -4.31116 0
M  V30 18918 C 1795.86 0.572595 -5.28105 0
M  V30 18919 C 1794.9 -0.318133 -6.11273 0
M  V30 18920 N 1794.04 0.491086 -7.0038 0
M  V30 18921 H 1798.88 -1.03861 -2.79315 0
M  V30 18922 H 1796.41 -0.523695 -1.37462 0
M  V30 18923 H 1798.37 1.11683 -4.01973 0
M  V30 18924 H 1797 1.39244 -2.91223 0
M  V30 18925 H 1796.05 -0.89682 -3.69677 0
M  V30 18926 H 1797.36 -0.961601 -4.89443 0
M  V30 18927 H 1796.52 1.13986 -5.95896 0
M  V30 18928 H 1795.26 1.29146 -4.7029 0
M  V30 18929 H 1794.26 -0.897622 -5.42423 0
M  V30 18930 H 1795.49 -1.03496 -6.71167 0
M  V30 18931 H 1793.43 1.19381 -6.45046 0
M  V30 18932 H 1793.35 -0.136054 -7.55878 0
M  V30 18933 H 1794.62 1.04143 -7.72512 0
M  V30 18934 N 1798.85 1.47045 -0.567045 0
M  V30 18935 C 1799.78 2.28211 0.212726 0
M  V30 18936 C 1800.79 1.37591 0.870207 0
M  V30 18937 O 1801.98 1.62329 0.742404 0
M  V30 18938 C 1799.08 3.12155 1.31957 0
M  V30 18939 C 1798.25 4.30799 0.75701 0
M  V30 18940 C 1797.31 4.96262 1.74958 0
M  V30 18941 O 1796.34 5.54347 1.29181 0
M  V30 18942 N 1797.54 4.91848 3.08327 0
M  V30 18943 H 1800.31 2.95773 -0.483552 0
M  V30 18944 H 1797.87 1.56784 -0.403768 0
M  V30 18945 H 1799.86 3.52815 1.98252 0
M  V30 18946 H 1798.43 2.4677 1.91894 0
M  V30 18947 H 1797.65 3.94113 -0.0829881 0
M  V30 18948 H 1798.94 5.0752 0.360671 0
M  V30 18949 H 1798.34 4.45875 3.48155 0
M  V30 18950 H 1796.89 5.36497 3.70154 0
M  V30 18951 N 1800.33 0.304 1.5464 0
M  V30 18952 C 1801.74 -0.0492924 1.59524 0
M  V30 18953 C 1801.94 -1.52164 1.32093 0
M  V30 18954 O 1801 -2.27483 1.0958 0
M  V30 18955 C 1802.31 0.351346 2.9864 0
M  V30 18956 C 1803.86 0.300362 3.11555 0
M  V30 18957 C 1804.33 0.675867 4.52986 0
M  V30 18958 N 1805.82 0.628517 4.58916 0
M  V30 18959 C 1806.56 0.891504 5.66427 0
M  V30 18960 N 1806.06 1.22061 6.81962 0
M  V30 18961 N 1807.85 0.818366 5.56111 0
M  V30 18962 H 1800 1.26351 1.70731 0
M  V30 18963 H 1802.26 0.512457 0.797554 0
M  V30 18964 H 1801.97 1.37642 3.23647 0
M  V30 18965 H 1801.84 -0.293504 3.76056 0
M  V30 18966 H 1804.23 -0.715468 2.86295 0
M  V30 18967 H 1804.31 0.979876 2.36288 0
M  V30 18968 H 1803.95 1.68952 4.78976 0
M  V30 18969 H 1803.88 -0.0257498 5.26594 0
M  V30 18970 H 1806.38 0.385204 3.75932 0
M  V30 18971 H 1806.69 1.40718 7.5988 0
M  V30 18972 H 1805.03 1.25868 6.83507 0
M  V30 18973 H 1808.22 0.560885 4.64728 0
M  V30 18974 H 1808.4 1.02669 6.39815 0
M  V30 18975 N 1801.8 -1.57568 0.0317802 0
M  V30 18976 C 1803.05 -1.91087 -0.645639 0
M  V30 18977 C 1803.37 -0.910108 -1.73137 0
M  V30 18978 O 1804.57 -1.13665 -2.46562 0
M  V30 18979 C 1803.03 -3.39317 -1.19966 0
M  V30 18980 C 1802.64 -4.47759 -0.147068 0
M  V30 18981 C 1804.38 -3.81901 -1.85343 0
M  V30 18982 C 1802.29 -5.87088 -0.712872 0
M  V30 18983 H 1801.22 -0.713112 -0.244923 0
M  V30 18984 H 1803.87 -1.83241 0.0975145 0
M  V30 18985 H 1802.25 -3.42105 -1.99451 0
M  V30 18986 H 1803.42 -4.56535 0.625518 0
M  V30 18987 H 1801.74 -4.14395 0.408109 0
M  V30 18988 H 1804.34 -4.83352 -2.28636 0
M  V30 18989 H 1804.68 -3.17104 -2.69724 0
M  V30 18990 H 1805.21 -3.81548 -1.12544 0
M  V30 18991 H 1801.95 -6.55434 0.0928582 0
M  V30 18992 H 1801.47 -5.81913 -1.45388 0
M  V30 18993 H 1803.15 -6.3574 -1.20179 0
M  V30 18994 N 1803.28 0.241399 -1.5574 0
M  V30 18995 C 1804.19 1.32034 -1.93918 0
M  V30 18996 C 1805.21 1.52363 -0.840331 0
M  V30 18997 O 1806.38 1.65879 -1.1422 0
M  V30 18998 C 1803.45 2.6539 -2.2309 0
M  V30 18999 C 1802.51 2.53536 -3.46436 0
M  V30 19000 C 1801.74 3.80532 -3.74208 0
M  V30 19001 O 1801.97 4.82662 -3.03964 0
M  V30 19002 O 1800.9 3.78834 -4.67727 0
M  V30 19003 H 1804.73 1.02647 -2.85827 0
M  V30 19004 H 1802.31 0.442616 -1.42693 0
M  V30 19005 H 1804.19 3.44184 -2.43137 0
M  V30 19006 H 1802.87 2.94499 -1.34358 0
M  V30 19007 H 1801.78 1.73009 -3.3169 0
M  V30 19008 H 1803.11 2.29371 -4.35488 0
M  V30 19009 N 1804.76 1.49212 0.507292 0
M  V30 19010 C 1806.17 1.51655 1.08892 0
M  V30 19011 C 1806.52 0.299163 1.93906 0
M  V30 19012 O 1805.65 -0.591635 2.08155 0
M  V30 19013 C 1806.24 2.7481 1.98154 0
M  V30 19014 C 1804.8 2.80051 2.51492 0
M  V30 19015 C 1803.95 2.45486 1.28966 0
M  V30 19016 H 1806.9 1.56 0.291488 0
M  V30 19017 H 1806.92 2.54615 2.82757 0
M  V30 19018 H 1806.43 3.63396 1.36253 0
M  V30 19019 H 1804.53 1.95729 3.1705 0
M  V30 19020 H 1804.65 3.82064 2.89075 0
M  V30 19021 H 1803.01 1.97128 1.61284 0
M  V30 19022 H 1803.79 3.36339 0.687821 0
M  V30 19023 N 1806.24 -0.757876 1.38181 0
M  V30 19024 C 1807.48 -1.51912 1.34352 0
M  V30 19025 C 1807.82 -1.94082 -0.0677003 0
M  V30 19026 O 1807.09 -1.65114 -1.02799 0
M  V30 19027 C 1807.38 -2.77466 2.29531 0
M  V30 19028 C 1807.23 -2.41462 3.79495 0
M  V30 19029 C 1808.55 -3.79469 2.22915 0
M  V30 19030 H 1805.67 -0.551091 0.489355 0
M  V30 19031 H 1808.31 -0.868376 1.68995 0
M  V30 19032 H 1806.46 -3.32994 2.00119 0
M  V30 19033 H 1808.13 -1.91742 4.19562 0
M  V30 19034 H 1806.37 -1.73976 3.97385 0
M  V30 19035 H 1807.04 -3.31272 4.41546 0
M  V30 19036 H 1809.52 -3.33471 2.48871 0
M  V30 19037 H 1808.4 -4.6502 2.91629 0
M  V30 19038 H 1808.66 -4.24744 1.22658 0
M  V30 19039 N 1807.72 -1.22979 -0.985586 0
M  V30 19040 C 1808.96 -1.07044 -1.74129 0
M  V30 19041 C 1809.32 0.386735 -1.88065 0
M  V30 19042 O 1810.52 0.667136 -2.6039 0
M  V30 19043 C 1808.79 -1.77023 -3.1048 0
M  V30 19044 S 1810.35 -1.76594 -4.01697 0
M  V30 19045 H 1807.17 -0.383192 -0.598903 0
M  V30 19046 H 1809.77 -1.56035 -1.17785 0
M  V30 19047 H 1808.48 -2.82194 -2.97984 0
M  V30 19048 H 1808.01 -1.28293 -3.71893 0
M  V30 19049 H 1810.02 -0.820835 -4.89364 0
M  V30 19050 N 1809.19 1.18355 -1.04066 0
M  V30 19051 C 1810.44 1.88614 -0.745148 0
M  V30 19052 C 1810.77 1.80147 0.725294 0
M  V30 19053 O 1810.05 1.20177 1.5293 0
M  V30 19054 C 1810.33 3.39095 -1.2119 0
M  V30 19055 C 1810.18 3.56372 -2.74444 0
M  V30 19056 C 1811.5 4.32732 -0.801953 0
M  V30 19057 H 1808.62 0.684905 -0.272166 0
M  V30 19058 H 1811.26 1.39248 -1.29267 0
M  V30 19059 H 1809.41 3.81269 -0.746091 0
M  V30 19060 H 1811.09 3.2329 -3.29061 0
M  V30 19061 H 1809.33 2.99028 -3.14269 0
M  V30 19062 H 1810 4.61956 -3.0216 0
M  V30 19063 H 1812.48 3.98337 -1.20278 0
M  V30 19064 H 1811.35 5.36583 -1.15628 0
M  V30 19065 H 1811.61 4.41115 0.294907 0
M  V30 19066 N 1810.67 0.820125 1.3458 0
M  V30 19067 C 1811.6 0.254709 2.32107 0
M  V30 19068 C 1812.58 -0.6273 1.58111 0
M  V30 19069 O 1813.77 -0.554759 1.86108 0
M  V30 19070 C 1810.9 -0.586541 3.42311 0
M  V30 19071 C 1809.85 0.198096 4.27541 0
M  V30 19072 C 1809.18 -0.765718 5.29189 0
M  V30 19073 C 1810.48 1.40472 5.03056 0
M  V30 19074 H 1812.17 1.06955 2.79644 0
M  V30 19075 H 1809.72 0.515756 1.34447 0
M  V30 19076 H 1811.67 -0.992259 4.09551 0
M  V30 19077 H 1810.4 -1.4344 2.93415 0
M  V30 19078 H 1809.05 0.585149 3.619 0
M  V30 19079 H 1808.7 -1.60946 4.76556 0
M  V30 19080 H 1808.4 -0.244954 5.87089 0
M  V30 19081 H 1809.93 -1.16935 5.99298 0
M  V30 19082 H 1811.34 1.07316 5.63166 0
M  V30 19083 H 1809.74 1.86092 5.70517 0
M  V30 19084 H 1810.81 2.18437 4.32913 0
M  V30 19085 N 1812.15 -1.46743 0.574835 0
M  V30 19086 C 1813.4 -2.01625 0.0551724 0
M  V30 19087 C 1813.71 -1.4528 -1.3097 0
M  V30 19088 O 1814.92 -1.91932 -1.92026 0
M  V30 19089 C 1813.37 -3.59868 0.0480708 0
M  V30 19090 C 1812.98 -4.25207 1.41078 0
M  V30 19091 C 1814.73 -4.22436 -0.41806 0
M  V30 19092 C 1812.63 -5.75507 1.36183 0
M  V30 19093 H 1811.56 -0.753812 0.0168558 0
M  V30 19094 H 1814.21 -1.68557 0.725313 0
M  V30 19095 H 1812.6 -3.89976 -0.688076 0
M  V30 19096 H 1813.77 -4.06718 2.16603 0
M  V30 19097 H 1812.09 -3.747 1.81628 0
M  V30 19098 H 1814.68 -5.32601 -0.473353 0
M  V30 19099 H 1815.03 -3.90826 -1.43391 0
M  V30 19100 H 1815.56 -3.96925 0.263775 0
M  V30 19101 H 1812.3 -6.11765 2.35423 0
M  V30 19102 H 1811.82 -5.96282 0.648655 0
M  V30 19103 H 1813.5 -6.38068 1.07137 0
M  V30 19104 N 1813.63 -0.312197 -1.54477 0
M  V30 19105 C 1814.58 0.574207 -2.20651 0
M  V30 19106 C 1815.56 1.09037 -1.18321 0
M  V30 19107 O 1816.75 1.02928 -1.43996 0
M  V30 19108 C 1813.88 1.74019 -2.95926 0
M  V30 19109 C 1812.97 1.23946 -4.05584 0
M  V30 19110 N 1813.36 0.457561 -5.03726 0
M  V30 19111 C 1811.66 1.51921 -4.19328 0
M  V30 19112 C 1812.36 0.189523 -5.81391 0
M  V30 19113 N 1811.34 0.772477 -5.38083 0
M  V30 19114 H 1815.14 -0.0306045 -2.93884 0
M  V30 19115 H 1812.65 -0.117497 -1.61974 0
M  V30 19116 H 1814.65 2.38687 -3.4181 0
M  V30 19117 H 1813.31 2.34859 -2.24212 0
M  V30 19118 H 1814.32 0.101432 -5.17801 0
M  V30 19119 H 1811 2.13428 -3.58824 0
M  V30 19120 H 1812.39 -0.439199 -6.70463 0
M  V30 19121 N 1815.11 1.57549 -0.040136 0
M  V30 19122 C 1816.35 1.9187 0.634838 0
M  V30 19123 C 1816.68 0.918178 1.7203 0
M  V30 19124 O 1815.95 -0.0386563 1.95862 0
M  V30 19125 H 1814.53 0.708245 0.237483 0
M  V30 19126 H 1817.19 1.9469 -0.0905369 0
M  V30 19127 H 1816.28 2.92799 1.08053 0
M  V30 19128 N 1816.58 -0.233136 1.55866 0
M  V30 19129 C 1817.81 -0.976415 1.82411 0
M  V30 19130 C 1818.23 -1.78409 0.617724 0
M  V30 19131 O 1817.58 -1.77749 -0.413709 0
M  V30 19132 C 1817.64 -1.90328 3.07339 0
M  V30 19133 O 1817.36 -1.12828 4.23322 0
M  V30 19134 C 1818.86 -2.76142 3.46786 0
M  V30 19135 H 1816.08 -0.2867 0.606666 0
M  V30 19136 H 1818.62 -0.251863 2.02943 0
M  V30 19137 H 1816.78 -2.58193 2.88816 0
M  V30 19138 H 1817.19 -1.75643 4.94216 0
M  V30 19139 H 1818.66 -3.36901 4.37266 0
M  V30 19140 H 1819.14 -3.47953 2.68003 0
M  V30 19141 H 1819.75 -2.13708 3.67708 0
M  V30 19142 N 1818.06 -1.49479 -0.499372 0
M  V30 19143 C 1819.47 -1.52231 -1.08087 0
M  V30 19144 C 1819.83 -0.309442 -1.93744 0
M  V30 19145 O 1818.95 0.580587 -2.08466 0
M  V30 19146 C 1819.55 -2.75857 -1.96694 0
M  V30 19147 C 1818.1 -2.81381 -2.50003 0
M  V30 19148 C 1817.25 -2.46166 -1.27662 0
M  V30 19149 H 1820.2 -1.56153 -0.283211 0
M  V30 19150 H 1820.22 -2.56111 -2.81403 0
M  V30 19151 H 1819.74 -3.64114 -1.34324 0
M  V30 19152 H 1817.84 -1.97408 -3.16008 0
M  V30 19153 H 1817.95 -3.83591 -2.87045 0
M  V30 19154 H 1816.31 -1.97981 -1.60236 0
M  V30 19155 H 1817.1 -3.36699 -0.669974 0
M  V30 19156 N 1819.54 0.750537 -1.38581 0
M  V30 19157 C 1820.79 1.50676 -1.34689 0
M  V30 19158 C 1821.11 1.94903 0.0615414 0
M  V30 19159 O 1820.38 1.67867 1.00982 0
M  V30 19160 H 1818.96 0.558914 -0.495605 0
M  V30 19161 H 1821.62 0.891979 -1.73291 0
M  V30 19162 H 1820.72 2.39623 -1.99969 0
M  V30 19163 N 1821.02 1.235 0.979051 0
M  V30 19164 C 1822.24 1.09551 1.76106 0
M  V30 19165 C 1822.67 -0.348792 1.84838 0
M  V30 19166 O 1822.03 -1.25231 1.31099 0
M  V30 19167 C 1822.08 1.7272 3.16544 0
M  V30 19168 O 1821.18 0.990263 4.00334 0
M  V30 19169 H 1820.52 0.383909 0.541766 0
M  V30 19170 H 1823.05 1.63581 1.22892 0
M  V30 19171 H 1823.06 1.78014 3.67117 0
M  V30 19172 H 1821.74 2.77813 3.09504 0
M  V30 19173 H 1820.31 1.01436 3.58839 0
M  V30 19174 N 1822.5 -1.17802 1.04693 0
M  V30 19175 C 1823.75 -1.87567 0.752534 0
M  V30 19176 C 1824.07 -1.81129 -0.722303 0
M  V30 19177 O 1823.34 -1.23385 -1.52161 0
M  V30 19178 H 1821.92 -0.69439 0.275376 0
M  V30 19179 H 1824.58 -1.42932 1.32501 0
M  V30 19180 H 1823.67 -2.9344 1.06299 0
M  V30 19181 N 1823.98 -0.827251 -1.34143 0
M  V30 19182 C 1824.92 -0.250166 -2.2944 0
M  V30 19183 C 1825.89 0.62749 -1.53791 0
M  V30 19184 O 1827.08 0.568218 -1.82143 0
M  V30 19185 C 1824.22 0.578392 -3.40219 0
M  V30 19186 C 1823.33 -0.321991 -4.30798 0
M  V30 19187 C 1822.47 0.51655 -5.28683 0
M  V30 19188 C 1821.5 -0.382949 -6.10901 0
M  V30 19189 N 1820.64 0.416774 -7.00862 0
M  V30 19190 H 1825.48 -1.06817 -2.78198 0
M  V30 19191 H 1823.02 -0.538245 -1.36899 0
M  V30 19192 H 1824.98 1.07414 -4.03135 0
M  V30 19193 H 1823.61 1.36147 -2.92684 0
M  V30 19194 H 1822.66 -0.935979 -3.68705 0
M  V30 19195 H 1823.97 -1.01346 -4.88396 0
M  V30 19196 H 1823.12 1.0766 -5.97071 0
M  V30 19197 H 1821.86 1.2415 -4.71633 0
M  V30 19198 H 1820.87 -0.955103 -5.41441 0
M  V30 19199 H 1822.09 -1.10609 -6.70032 0
M  V30 19200 H 1820.04 1.12532 -6.46276 0
M  V30 19201 H 1819.96 -0.216217 -7.55691 0
M  V30 19202 H 1821.22 0.959432 -7.73573 0
M  V30 19203 N 1825.45 1.46436 -0.582609 0
M  V30 19204 C 1826.68 2.07275 -0.0718712 0
M  V30 19205 C 1827.1 1.42851 1.22373 0
M  V30 19206 O 1826.46 0.512272 1.73912 0
M  V30 19207 C 1826.51 3.6051 0.08055 0
M  V30 19208 O 1825.61 3.96414 1.13707 0
M  V30 19209 H 1824.95 0.661027 -0.0627607 0
M  V30 19210 H 1827.48 1.88076 -0.805524 0
M  V30 19211 H 1827.49 4.06991 0.286749 0
M  V30 19212 H 1826.17 4.06792 -0.865603 0
M  V30 19213 H 1824.75 3.61643 0.909338 0
M  V30 19214 N 1826.93 0.320385 1.54309 0
M  V30 19215 C 1827.86 -0.539789 2.27175 0
M  V30 19216 C 1828.84 -1.12198 1.2785 0
M  V30 19217 O 1830.03 -1.1477 1.56657 0
M  V30 19218 C 1827.16 -1.70236 3.02716 0
M  V30 19219 C 1826.11 -1.24962 4.09351 0
M  V30 19220 C 1825.44 -2.49888 4.72715 0
M  V30 19221 C 1826.74 -0.366788 5.21011 0
M  V30 19222 H 1828.43 0.0680079 2.99323 0
M  V30 19223 H 1825.98 0.0341488 1.4396 0
M  V30 19224 H 1827.93 -2.31037 3.5242 0
M  V30 19225 H 1826.65 -2.33669 2.2818 0
M  V30 19226 H 1825.31 -0.664556 3.60526 0
M  V30 19227 H 1824.96 -3.11679 3.94798 0
M  V30 19228 H 1824.66 -2.20288 5.44745 0
M  V30 19229 H 1826.19 -3.11458 5.25192 0
M  V30 19230 H 1827.6 -0.881001 5.6649 0
M  V30 19231 H 1826 -0.163707 5.99877 0
M  V30 19232 H 1827.07 0.603185 4.81134 0
M  V30 19233 N 1828.41 -1.57525 0.0484906 0
M  V30 19234 C 1829.64 -1.96897 -0.635553 0
M  V30 19235 C 1830.05 -0.925909 -1.64537 0
M  V30 19236 O 1829.41 0.0901742 -1.82277 0
M  V30 19237 C 1829.46 -3.36348 -1.32484 0
M  V30 19238 O 1829.18 -4.36656 -0.355464 0
M  V30 19239 C 1830.68 -3.90463 -2.0989 0
M  V30 19240 H 1827.9 -0.648062 -0.173945 0
M  V30 19241 H 1830.45 -2.04182 0.113997 0
M  V30 19242 H 1828.6 -3.30222 -2.02564 0
M  V30 19243 H 1829.02 -5.17613 -0.847153 0
M  V30 19244 H 1830.49 -4.90326 -2.53543 0
M  V30 19245 H 1830.97 -3.25745 -2.94596 0
M  V30 19246 H 1831.57 -3.99918 -1.44726 0
M  V30 19247 N 1829.89 0.224867 -1.55988 0
M  V30 19248 C 1831.12 0.966727 -1.82926 0
M  V30 19249 C 1831.53 1.78078 -0.627177 0
M  V30 19250 O 1830.89 1.77966 0.404277 0
M  V30 19251 C 1830.94 1.88696 -3.08344 0
M  V30 19252 O 1830.66 1.10581 -4.23914 0
M  V30 19253 C 1832.16 2.74299 -3.48246 0
M  V30 19254 H 1829.38 0.283479 -0.608178 0
M  V30 19255 H 1831.92 0.241097 -2.03074 0
M  V30 19256 H 1830.08 2.56658 -2.90182 0
M  V30 19257 H 1830.49 1.73019 -4.95141 0
M  V30 19258 H 1831.97 3.34577 -4.39047 0
M  V30 19259 H 1832.44 3.46526 -2.69845 0
M  V30 19260 H 1833.05 2.11755 -3.68836 0
M  V30 19261 N 1831.37 1.49742 0.491438 0
M  V30 19262 C 1832.59 1.63703 1.27343 0
M  V30 19263 C 1833.02 0.312079 1.85493 0
M  V30 19264 O 1832.37 -0.721545 1.66323 0
M  V30 19265 C 1832.42 2.71549 2.37262 0
M  V30 19266 O 1831.53 2.31387 3.41371 0
M  V30 19267 H 1830.87 0.547605 0.375533 0
M  V30 19268 H 1833.4 1.95991 0.587243 0
M  V30 19269 H 1833.41 2.94009 2.82883 0
M  V30 19270 H 1832.08 3.6772 1.94306 0
M  V30 19271 H 1830.66 2.19295 3.01603 0
M  V30 19272 N 1832.84 -0.743177 1.38977 0
M  V30 19273 C 1834.09 -1.49798 1.35069 0
M  V30 19274 C 1834.41 -1.95527 -0.0533172 0
M  V30 19275 O 1835.61 -2.70648 -0.21497 0
M  V30 19276 C 1834.07 -2.70637 2.37242 0
M  V30 19277 C 1833.68 -2.3189 3.83316 0
M  V30 19278 C 1835.42 -3.4849 2.42395 0
M  V30 19279 C 1833.33 -3.49403 4.77149 0
M  V30 19280 H 1832.26 -0.562495 0.50211 0
M  V30 19281 H 1834.91 -0.81145 1.64584 0
M  V30 19282 H 1833.29 -3.41323 2.00785 0
M  V30 19283 H 1834.46 -1.68803 4.28768 0
M  V30 19284 H 1832.78 -1.67148 3.8138 0
M  V30 19285 H 1835.38 -4.35882 3.09694 0
M  V30 19286 H 1835.72 -3.9038 1.446 0
M  V30 19287 H 1836.25 -2.84825 2.77704 0
M  V30 19288 H 1832.99 -3.1257 5.76177 0
M  V30 19289 H 1832.51 -4.11498 4.36382 0
M  V30 19290 H 1834.19 -4.15847 4.95661 0
M  V30 19291 N 1834.32 -1.24018 -0.972487 0
M  V30 19292 C 1835.57 -1.07861 -1.71738 0
M  V30 19293 C 1835.9 0.382399 -1.90398 0
M  V30 19294 O 1835.18 1.2828 -1.462 0
M  V30 19295 C 1835.46 -1.81357 -3.11098 0
M  V30 19296 C 1835.31 -3.35179 -2.99959 0
M  V30 19297 C 1836.63 -1.58242 -4.10667 0
M  V30 19298 H 1833.75 -0.393228 -0.623331 0
M  V30 19299 H 1836.39 -1.52625 -1.13162 0
M  V30 19300 H 1834.54 -1.43307 -3.61103 0
M  V30 19301 H 1836.21 -3.82798 -2.57416 0
M  V30 19302 H 1834.46 -3.63805 -2.3628 0
M  V30 19303 H 1835.13 -3.818 -3.98664 0
M  V30 19304 H 1837.6 -1.91332 -3.69501 0
M  V30 19305 H 1836.48 -2.1213 -5.06253 0
M  V30 19306 H 1836.74 -0.519567 -4.39036 0
M  V30 19307 N 1835.8 1.17245 -1.05316 0
M  V30 19308 C 1837.05 1.87165 -0.762471 0
M  V30 19309 C 1837.37 1.8151 0.712687 0
M  V30 19310 O 1836.64 1.2419 1.51504 0
M  V30 19311 H 1835.22 0.69292 -0.279054 0
M  V30 19312 H 1837.88 1.42227 -1.33257 0
M  V30 19313 H 1836.98 2.92872 -1.07854 0
M  V30 19314 N 1837.28 0.834353 1.33702 0
M  V30 19315 C 1838.69 0.52156 1.50837 0
M  V30 19316 C 1838.89 -0.95203 1.77591 0
M  V30 19317 O 1837.95 -1.73603 1.83353 0
M  V30 19318 C 1839.26 1.39099 2.66593 0
M  V30 19319 C 1840.81 1.3893 2.80477 0
M  V30 19320 C 1841.29 2.24347 3.9929 0
M  V30 19321 N 1842.78 2.22032 4.06517 0
M  V30 19322 C 1843.51 2.84865 4.97634 0
M  V30 19323 N 1843.01 3.56732 5.93897 0
M  V30 19324 N 1844.8 2.74359 4.90595 0
M  V30 19325 H 1836.95 1.78832 1.14598 0
M  V30 19326 H 1839.22 0.762708 0.563011 0
M  V30 19327 H 1838.92 2.43795 2.53489 0
M  V30 19328 H 1838.8 1.06381 3.61888 0
M  V30 19329 H 1841.18 0.350069 2.93016 0
M  V30 19330 H 1841.26 1.75652 1.85957 0
M  V30 19331 H 1840.91 3.28326 3.8751 0
M  V30 19332 H 1840.84 1.84969 4.93046 0
M  V30 19333 H 1843.33 1.69765 3.37621 0
M  V30 19334 H 1843.64 4.01893 6.60077 0
M  V30 19335 H 1841.99 3.6084 5.93986 0
M  V30 19336 H 1845.18 2.17779 4.14355 0
M  V30 19337 H 1845.35 3.23612 5.61408 0
M  V30 19338 N 1838.76 -1.46125 0.590367 0
M  V30 19339 C 1839.72 -2.2884 -0.128368 0
M  V30 19340 C 1840.72 -1.38818 -0.81156 0
M  V30 19341 O 1841.91 -1.61117 -0.662347 0
M  V30 19342 C 1839.04 -3.19402 -1.19144 0
M  V30 19343 H 1840.23 -2.93864 0.598641 0
M  V30 19344 H 1837.79 -1.52362 0.34866 0
M  V30 19345 H 1838.52 -2.59141 -1.94978 0
M  V30 19346 H 1838.31 -3.85692 -0.705973 0
M  V30 19347 H 1839.8 -3.8164 -1.69532 0
M  V30 19348 N 1840.23 -0.328564 -1.54137 0
M  V30 19349 C 1841.48 0.273427 -1.99838 0
M  V30 19350 C 1841.8 1.52851 -1.22049 0
M  V30 19351 O 1843 2.20681 -1.58152 0
M  V30 19352 C 1841.46 0.537757 -3.5586 0
M  V30 19353 C 1841.07 -0.700562 -4.42489 0
M  V30 19354 C 1842.81 1.09943 -4.10016 0
M  V30 19355 C 1840.72 -0.40786 -5.89992 0
M  V30 19356 H 1839.65 0.105947 -0.746519 0
M  V30 19357 H 1842.3 -0.441565 -1.78108 0
M  V30 19358 H 1840.68 1.31307 -3.73597 0
M  V30 19359 H 1841.85 -1.47583 -4.36527 0
M  V30 19360 H 1840.17 -1.1828 -3.99248 0
M  V30 19361 H 1842.77 1.33312 -5.17815 0
M  V30 19362 H 1843.11 2.05035 -3.62307 0
M  V30 19363 H 1843.64 0.385182 -3.95931 0
M  V30 19364 H 1840.38 -1.32809 -6.41905 0
M  V30 19365 H 1839.9 0.329604 -5.98894 0
M  V30 19366 H 1841.58 -0.0195391 -6.46997 0
M  V30 19367 N 1841.71 1.57497 -0.0568439 0
M  V30 19368 C 1842.68 2.10755 0.900823 0
M  V30 19369 C 1843.68 1.02835 1.23619 0
M  V30 19370 O 1844.87 1.28885 1.17194 0
M  V30 19371 C 1842 2.5965 2.20895 0
M  V30 19372 H 1843.19 2.96669 0.439041 0
M  V30 19373 H 1840.74 1.55121 0.191646 0
M  V30 19374 H 1841.48 1.77147 2.71642 0
M  V30 19375 H 1841.26 3.3852 1.97855 0
M  V30 19376 H 1842.75 3.00982 2.89482 0
M  V30 19377 N 1843.19 -0.216591 1.56105 0
M  V30 19378 C 1844.1 -1.28933 1.95994 0
M  V30 19379 C 1845.12 -1.51007 0.864464 0
M  V30 19380 O 1846.29 -1.6404 1.16845 0
M  V30 19381 C 1843.36 -2.61807 2.27284 0
M  V30 19382 C 1842.42 -2.47992 3.50426 0
M  V30 19383 C 1841.65 -3.7453 3.80214 0
M  V30 19384 O 1841.87 -4.77765 3.11604 0
M  V30 19385 O 1840.81 -3.71345 4.73694 0
M  V30 19386 H 1844.63 -0.980864 2.87424 0
M  V30 19387 H 1842.22 -0.419859 1.43379 0
M  V30 19388 H 1844.1 -3.40272 2.48582 0
M  V30 19389 H 1842.78 -2.92324 1.39026 0
M  V30 19390 H 1841.68 -1.67711 3.34401 0
M  V30 19391 H 1843.02 -2.22413 4.39082 0
M  V30 19392 N 1844.67 -1.5 -0.48349 0
M  V30 19393 C 1845.62 -1.64347 -1.58032 0
M  V30 19394 C 1846.6 -0.498472 -1.52984 0
M  V30 19395 O 1847.79 -0.752287 -1.60217 0
M  V30 19396 C 1844.92 -1.72952 -2.96551 0
M  V30 19397 C 1844.01 -2.93088 -3.06529 0
M  V30 19398 N 1844.4 -4.16937 -2.86352 0
M  V30 19399 C 1842.7 -2.91389 -3.37652 0
M  V30 19400 C 1843.4 -4.97786 -3.00972 0
M  V30 19401 N 1842.38 -4.31494 -3.30626 0
M  V30 19402 H 1846.18 -2.57807 -1.41112 0
M  V30 19403 H 1843.69 -1.47014 -0.689978 0
M  V30 19404 H 1845.69 -1.81332 -3.75399 0
M  V30 19405 H 1844.35 -0.80642 -3.14527 0
M  V30 19406 H 1845.36 -4.46635 -2.62178 0
M  V30 19407 H 1842.04 -2.08528 -3.61694 0
M  V30 19408 H 1843.43 -6.06229 -2.89716 0
M  V30 19409 N 1846.15 0.735796 -1.39369 0
M  V30 19410 C 1847.39 1.49534 -1.3655 0
M  V30 19411 C 1847.72 1.94461 0.0388165 0
M  V30 19412 O 1846.98 1.67048 1.01949 0
M  V30 19413 C 1847.28 2.7495 -2.28336 0
M  V30 19414 C 1846.94 2.48894 -3.75982 0
M  V30 19415 C 1845.6 2.41498 -4.16212 0
M  V30 19416 C 1847.96 2.26589 -4.69369 0
M  V30 19417 C 1845.28 2.09836 -5.47892 0
M  V30 19418 C 1847.64 1.96444 -6.01326 0
M  V30 19419 C 1846.3 1.87515 -6.4062 0
M  V30 19420 H 1845.57 0.547184 -0.49967 0
M  V30 19421 H 1848.22 0.844587 -1.71869 0
M  V30 19422 H 1846.52 3.44764 -1.86132 0
M  V30 19423 H 1848.22 3.32975 -2.23448 0
M  V30 19424 H 1844.81 2.5553 -3.44097 0
M  V30 19425 H 1848.99 2.31272 -4.39121 0
M  V30 19426 H 1844.25 2.01445 -5.77261 0
M  V30 19427 H 1848.42 1.78193 -6.73216 0
M  V30 19428 H 1846.05 1.62747 -7.42575 0
M  V30 19429 N 1847.63 1.24532 0.965897 0
M  V30 19430 C 1848.57 1.03699 2.08205 0
M  V30 19431 C 1849.57 -0.0286308 1.69376 0
M  V30 19432 O 1850.77 0.126073 1.79558 0
M  V30 19433 H 1847.15 0.318331 0.6813 0
M  V30 19434 H 1849.12 1.98348 2.22937 0
M  V30 19435 C 1847.87 0.660411 3.41371 0
M  V30 19436 H 1847.19 1.47216 3.71709 0
M  V30 19437 H 1848.63 0.554264 4.20362 0
M  V30 19438 C 1847.09 -0.632633 3.30907 0
M  V30 19439 O 1847.62 -1.67786 3.6498 0
M  V30 19440 N 1845.83 -0.61403 2.84039 0
M  V30 19441 H 1845.37 0.236909 2.56508 0
M  V30 19442 H 1845.33 -1.47938 2.7742 0
M  V30 19443 N 1849.1 -1.16685 1.05936 0
M  V30 19444 C 1850.33 -1.91576 0.794558 0
M  V30 19445 C 1850.75 -1.76706 -0.644718 0
M  V30 19446 O 1850.11 -1.0899 -1.44882 0
M  V30 19447 C 1850.16 -3.40417 1.18947 0
M  V30 19448 O 1849.26 -4.11109 0.326091 0
M  V30 19449 H 1848.6 -0.596983 0.290702 0
M  V30 19450 H 1851.13 -1.47856 1.4142 0
M  V30 19451 H 1851.14 -3.91178 1.15947 0
M  V30 19452 H 1849.82 -3.5056 2.23786 0
M  V30 19453 H 1848.4 -3.70557 0.417347 0
M  V30 19454 N 1850.58 -0.841432 -1.33258 0
M  V30 19455 C 1851.54 -0.281685 -2.27462 0
M  V30 19456 C 1852.54 0.551062 -1.51063 0
M  V30 19457 O 1853.73 0.364482 -1.70344 0
M  V30 19458 C 1850.87 0.602896 -3.35526 0
M  V30 19459 H 1852.06 -1.11298 -2.78483 0
M  V30 19460 H 1849.61 -0.614717 -1.43704 0
M  V30 19461 H 1850.35 1.45652 -2.89751 0
M  V30 19462 H 1850.13 0.00701634 -3.92099 0
M  V30 19463 H 1851.62 0.987735 -4.05751 0
M  V30 19464 N 1852.06 1.4581 -0.598108 0
M  V30 19465 C 1853.31 2.02601 -0.089744 0
M  V30 19466 C 1853.64 1.46673 1.27282 0
M  V30 19467 O 1852.91 0.637735 1.83748 0
M  V30 19468 C 1853.2 3.60077 -0.0405712 0
M  V30 19469 C 1853.05 4.26358 -1.43313 0
M  V30 19470 C 1854.37 4.35241 0.652164 0
M  V30 19471 H 1851.49 0.736211 -0.0340865 0
M  V30 19472 H 1854.13 1.73775 -0.768263 0
M  V30 19473 H 1852.28 3.84767 0.537251 0
M  V30 19474 H 1853.95 4.12884 -2.0573 0
M  V30 19475 H 1852.19 3.85125 -1.99653 0
M  V30 19476 H 1852.87 5.35211 -1.35105 0
M  V30 19477 H 1855.34 4.15788 0.161128 0
M  V30 19478 H 1854.22 5.4497 0.655646 0
M  V30 19479 H 1854.48 4.07419 1.71646 0
M  V30 19480 N 1853.54 0.336733 1.53961 0
M  V30 19481 C 1854.77 -0.263064 2.04918 0
M  V30 19482 C 1855.18 -1.45301 1.21178 0
M  V30 19483 O 1854.52 -1.82147 0.238356 0
M  V30 19484 C 1854.58 -0.748277 3.51626 0
M  V30 19485 C 1854.24 0.321112 4.5587 0
M  V30 19486 C 1855.24 1.16157 5.06758 0
M  V30 19487 C 1852.93 0.473083 5.00067 0
M  V30 19488 C 1854.92 2.1396 6.00416 0
M  V30 19489 C 1852.61 1.45452 5.93538 0
M  V30 19490 C 1853.61 2.28624 6.43599 0
M  V30 19491 O 1853.29 3.25098 7.35232 0
M  V30 19492 H 1853.03 -0.0558258 0.673691 0
M  V30 19493 H 1855.58 0.484895 1.99594 0
M  V30 19494 H 1853.81 -1.54737 3.54392 0
M  V30 19495 H 1855.5 -1.26787 3.8559 0
M  V30 19496 H 1856.26 1.05521 4.73382 0
M  V30 19497 H 1852.14 -0.164435 4.60707 0
M  V30 19498 H 1855.69 2.78916 6.39415 0
M  V30 19499 H 1851.58 1.56146 6.26329 0
M  V30 19500 H 1852.35 3.2049 7.53146 0
M  V30 19501 N 1855.02 -1.57465 0.0651956 0
M  V30 19502 C 1856.24 -1.97975 -0.618099 0
M  V30 19503 C 1856.67 -0.943068 -1.62751 0
M  V30 19504 O 1856.02 0.0921045 -1.81066 0
M  V30 19505 C 1856.07 -3.37533 -1.26902 0
M  V30 19506 O 1855.18 -3.36451 -2.38483 0
M  V30 19507 H 1854.52 -0.644553 -0.159524 0
M  V30 19508 H 1857.05 -2.04136 0.137754 0
M  V30 19509 H 1857.06 -3.74571 -1.61742 0
M  V30 19510 H 1855.73 -4.12518 -0.529334 0
M  V30 19511 H 1854.31 -3.11175 -2.05486 0
M  V30 19512 N 1856.49 0.20831 -1.56217 0
M  V30 19513 C 1857.42 1.26115 -1.96513 0
M  V30 19514 C 1858.4 1.48185 -0.835183 0
M  V30 19515 O 1859.59 1.60145 -1.09851 0
M  V30 19516 C 1856.72 2.6082 -2.29326 0
M  V30 19517 C 1855.67 2.53385 -3.44935 0
M  V30 19518 C 1855 3.92241 -3.63388 0
M  V30 19519 C 1856.3 2.07026 -4.79518 0
M  V30 19520 H 1857.99 0.92635 -2.84709 0
M  V30 19521 H 1855.54 0.444169 -1.36979 0
M  V30 19522 H 1857.49 3.34644 -2.56109 0
M  V30 19523 H 1856.22 2.96014 -1.37997 0
M  V30 19524 H 1854.88 1.82018 -3.18222 0
M  V30 19525 H 1854.52 4.24766 -2.69413 0
M  V30 19526 H 1854.22 3.88145 -4.41154 0
M  V30 19527 H 1855.75 4.67707 -3.92533 0
M  V30 19528 H 1857.16 2.70601 -5.05419 0
M  V30 19529 H 1855.56 2.13961 -5.60661 0
M  V30 19530 H 1856.63 1.02298 -4.73986 0
M  V30 19531 N 1857.97 1.50255 0.475528 0
M  V30 19532 C 1859.38 1.53931 1.05651 0
M  V30 19533 C 1859.73 0.340226 1.93228 0
M  V30 19534 O 1858.86 -0.547349 2.09363 0
M  V30 19535 C 1859.45 2.78951 1.92281 0
M  V30 19536 C 1858.01 2.85323 2.45495 0
M  V30 19537 C 1857.16 2.48166 1.2373 0
M  V30 19538 H 1860.11 1.56583 0.258332 0
M  V30 19539 H 1860.13 2.60555 2.77293 0
M  V30 19540 H 1859.64 3.66205 1.28514 0
M  V30 19541 H 1857.74 2.0241 3.12827 0
M  V30 19542 H 1857.86 3.88109 2.80906 0
M  V30 19543 H 1856.22 2.00505 1.57066 0
M  V30 19544 H 1857 3.37722 0.616324 0
M  V30 19545 N 1859.45 -0.728395 1.39758 0
M  V30 19546 C 1860.86 -1.30697 1.33323 0
M  V30 19547 C 1861.21 -1.962 0.000676614 0
M  V30 19548 O 1860.34 -1.96731 -0.90143 0
M  V30 19549 C 1860.93 -2.37656 2.41464 0
M  V30 19550 C 1859.49 -2.91171 2.3853 0
M  V30 19551 C 1858.64 -1.64812 2.23007 0
M  V30 19552 H 1861.59 -0.525429 1.4975 0
M  V30 19553 H 1861.61 -3.18202 2.08633 0
M  V30 19554 H 1861.12 -1.89953 3.38437 0
M  V30 19555 H 1859.22 -3.43137 1.45216 0
M  V30 19556 H 1859.34 -3.43836 3.33637 0
M  V30 19557 H 1857.7 -1.89397 1.70296 0
M  V30 19558 H 1858.48 -1.19151 3.21959 0
M  V30 19559 N 1860.93 -1.25042 -0.959279 0
M  V30 19560 C 1862.2 -1.00297 -1.67928 0
M  V30 19561 C 1862.58 0.47221 -2.05751 0
M  V30 19562 O 1861.93 1.44849 -1.76723 0
M  V30 19563 C 1862.14 -1.93416 -2.90502 0
M  V30 19564 C 1863.49 -2.20992 -3.62557 0
M  V30 19565 O 1864.51 -1.91136 -3.00575 0
M  V30 19566 O 1863.37 -2.71735 -4.74154 0
M  V30 19567 H 1860.47 -0.379984 -0.734535 0
M  V30 19568 H 1863.01 -1.36177 -1.01262 0
M  V30 19569 H 1861.79 -2.93045 -2.59308 0
M  V30 19570 H 1861.41 -1.57904 -3.649 0
M  V30 19571 N 1862.41 1.16121 -1.06553 0
M  V30 19572 C 1863.82 1.68319 -0.807804 0
M  V30 19573 C 1864.17 1.8447 0.668234 0
M  V30 19574 O 1863.29 1.54215 1.51811 0
M  V30 19575 C 1863.89 3.05738 -1.45979 0
M  V30 19576 C 1862.45 3.55046 -1.24977 0
M  V30 19577 C 1861.59 2.30965 -1.53462 0
M  V30 19578 H 1864.55 1.00447 -1.22866 0
M  V30 19579 H 1864.57 3.70266 -0.876556 0
M  V30 19580 H 1864.08 2.93951 -2.53405 0
M  V30 19581 H 1862.18 3.72087 -0.195367 0
M  V30 19582 H 1862.29 4.36979 -1.96433 0
M  V30 19583 H 1860.66 2.36107 -0.955268 0
M  V30 19584 H 1861.44 2.21773 -2.62052 0
M  V30 19585 N 1863.88 0.848487 1.3281 0
M  V30 19586 C 1864.83 0.286636 2.29013 0
M  V30 19587 C 1865.8 -0.602944 1.5477 0
M  V30 19588 O 1866.99 -0.539169 1.83024 0
M  V30 19589 C 1864.13 -0.524193 3.41096 0
M  V30 19590 C 1863.24 0.390486 4.30232 0
M  V30 19591 C 1862.37 -0.432376 5.29437 0
M  V30 19592 C 1861.41 0.48009 6.10214 0
M  V30 19593 N 1860.55 -0.30522 7.01436 0
M  V30 19594 H 1865.39 1.1123 2.76463 0
M  V30 19595 H 1862.93 0.559956 1.36025 0
M  V30 19596 H 1864.89 -1.00987 4.04793 0
M  V30 19597 H 1863.52 -1.31474 2.94813 0
M  V30 19598 H 1862.57 0.994518 3.6717 0
M  V30 19599 H 1863.88 1.09103 4.86722 0
M  V30 19600 H 1863.03 -0.981471 5.98709 0
M  V30 19601 H 1861.77 -1.16631 4.73549 0
M  V30 19602 H 1860.78 1.04112 5.39853 0
M  V30 19603 H 1862 1.21254 6.68187 0
M  V30 19604 H 1859.95 -1.02236 6.47984 0
M  V30 19605 H 1859.87 0.336414 7.55251 0
M  V30 19606 H 1861.13 -0.836242 7.75001 0
M  V30 19607 N 1865.36 -1.4549 0.605832 0
M  V30 19608 C 1866.31 -2.27597 -0.13542 0
M  V30 19609 C 1867.3 -1.37219 -0.840222 0
M  V30 19610 O 1868.49 -1.61222 -0.730501 0
M  V30 19611 C 1865.62 -3.24054 -1.1333 0
M  V30 19612 C 1864.7 -4.2192 -0.429427 0
M  V30 19613 N 1865.09 -5.03037 0.527952 0
M  V30 19614 C 1863.39 -4.40829 -0.677207 0
M  V30 19615 C 1864.09 -5.7403 0.941511 0
M  V30 19616 N 1863.07 -5.42849 0.28564 0
M  V30 19617 H 1866.87 -2.87712 0.599924 0
M  V30 19618 H 1864.39 -1.56621 0.429367 0
M  V30 19619 H 1866.38 -3.81608 -1.67872 0
M  V30 19620 H 1865.04 -2.655 -1.86922 0
M  V30 19621 H 1866.05 -5.09938 0.904614 0
M  V30 19622 H 1862.73 -3.93401 -1.39794 0
M  V30 19623 H 1864.12 -6.49219 1.73103 0
M  V30 19624 N 1866.84 -0.344893 -1.5378 0
M  V30 19625 C 1868.09 0.251208 -2.00936 0
M  V30 19626 C 1868.42 1.50449 -1.23269 0
M  V30 19627 O 1867.67 1.93249 -0.308738 0
M  V30 19628 C 1867.97 0.609495 -3.52165 0
M  V30 19629 C 1867.64 -0.547063 -4.47569 0
M  V30 19630 C 1866.3 -0.864456 -4.73372 0
M  V30 19631 C 1868.65 -1.3229 -5.04132 0
M  V30 19632 C 1865.98 -1.96003 -5.52991 0
M  V30 19633 C 1868.33 -2.40874 -5.84947 0
M  V30 19634 C 1866.99 -2.73171 -6.09043 0
M  V30 19635 H 1866.26 0.0919233 -0.735276 0
M  V30 19636 H 1868.91 -0.473086 -1.85564 0
M  V30 19637 H 1867.22 1.41452 -3.65375 0
M  V30 19638 H 1868.91 1.08262 -3.86109 0
M  V30 19639 H 1865.5 -0.289626 -4.2762 0
M  V30 19640 H 1869.69 -1.09095 -4.84161 0
M  V30 19641 H 1864.94 -2.21449 -5.69886 0
M  V30 19642 H 1869.12 -3.01421 -6.27789 0
M  V30 19643 H 1866.74 -3.5819 -6.70525 0
M  V30 19644 N 1868.32 1.57428 -0.0735454 0
M  V30 19645 C 1869.6 1.84962 0.636265 0
M  V30 19646 C 1869.98 0.966341 1.87683 0
M  V30 19647 O 1869.32 0.0330837 2.28476 0
M  V30 19648 C 1869.53 3.35184 0.972251 0
M  V30 19649 C 1870.88 4.02735 1.34499 0
M  V30 19650 O 1871.91 3.3994 1.06393 0
M  V30 19651 O 1870.76 5.13495 1.87043 0
M  V30 19652 H 1867.86 0.764169 0.316187 0
M  V30 19653 H 1870.4 1.69377 -0.104609 0
M  V30 19654 H 1869.18 3.91194 0.0912319 0
M  V30 19655 H 1868.8 3.56038 1.76983 0
M  V30 19656 N 1869.8 -0.200022 1.56326 0
M  V30 19657 C 1871.04 -0.919355 1.79979 0
M  V30 19658 C 1871.37 -1.83997 0.645767 0
M  V30 19659 O 1870.64 -1.92994 -0.336186 0
M  V30 19660 H 1869.22 -0.342469 0.66387 0
M  V30 19661 H 1871.88 -0.206713 1.93801 0
M  V30 19662 H 1870.97 -1.51341 2.72951 0
M  V30 19663 N 1871.27 -1.50505 -0.467553 0
M  V30 19664 C 1872.5 -1.65193 -1.24076 0
M  V30 19665 C 1872.91 -0.336102 -1.86191 0
M  V30 19666 O 1872.26 0.692299 -1.70156 0
M  V30 19667 C 1872.32 -2.68798 -2.38721 0
M  V30 19668 C 1871.98 -4.12256 -1.97216 0
M  V30 19669 C 1872.98 -4.98012 -1.49267 0
M  V30 19670 C 1870.66 -4.58192 -2.05829 0
M  V30 19671 C 1872.66 -6.27753 -1.10477 0
M  V30 19672 C 1870.34 -5.87938 -1.66651 0
M  V30 19673 C 1871.34 -6.72544 -1.19053 0
M  V30 19674 O 1871.03 -7.99867 -0.804197 0
M  V30 19675 H 1870.76 -0.55823 -0.381254 0
M  V30 19676 H 1873.32 -1.97502 -0.564089 0
M  V30 19677 H 1871.55 -2.31739 -3.09571 0
M  V30 19678 H 1873.24 -2.7267 -3.00675 0
M  V30 19679 H 1874 -4.63737 -1.42031 0
M  V30 19680 H 1869.88 -3.92482 -2.41825 0
M  V30 19681 H 1873.42 -6.93743 -0.732554 0
M  V30 19682 H 1869.32 -6.21733 -1.73546 0
M  V30 19683 H 1870.09 -8.13168 -0.932733 0
M  V30 19684 N 1872.75 0.720973 -1.40142 0
M  V30 19685 C 1873.68 1.8457 -1.35891 0
M  V30 19686 C 1874.7 1.60625 -0.265232 0
M  V30 19687 O 1875.89 1.70599 -0.525198 0
M  V30 19688 C 1872.99 3.20871 -1.09064 0
M  V30 19689 C 1872.16 3.72058 -2.29982 0
M  V30 19690 C 1871.22 4.86957 -1.99397 0
M  V30 19691 O 1870.24 4.99888 -2.72213 0
M  V30 19692 N 1871.45 5.72361 -0.968645 0
M  V30 19693 H 1874.21 1.88717 -2.32822 0
M  V30 19694 H 1871.77 0.902293 -1.34426 0
M  V30 19695 H 1873.76 3.95326 -0.865979 0
M  V30 19696 H 1872.33 3.11906 -0.208188 0
M  V30 19697 H 1871.55 2.88795 -2.68312 0
M  V30 19698 H 1872.84 4.02991 -3.10605 0
M  V30 19699 H 1872.24 5.64518 -0.36546 0
M  V30 19700 H 1870.8 6.46824 -0.803886 0
M  V30 19701 N 1874.23 1.25549 0.952634 0
M  V30 19702 C 1875.16 1.01898 2.05304 0
M  V30 19703 C 1876.18 -0.0167609 1.62791 0
M  V30 19704 O 1877.36 0.222021 1.77114 0
M  V30 19705 C 1874.46 0.518856 3.34905 0
M  V30 19706 C 1873.64 1.62121 4.06246 0
M  V30 19707 C 1872.7 1.12111 5.14118 0
M  V30 19708 O 1871.72 1.81591 5.39456 0
M  V30 19709 N 1872.92 -0.0365454 5.80488 0
M  V30 19710 H 1875.69 1.96648 2.26163 0
M  V30 19711 H 1873.25 1.16782 1.12132 0
M  V30 19712 H 1875.24 0.168729 4.04348 0
M  V30 19713 H 1873.81 -0.334763 3.10802 0
M  V30 19714 H 1873.03 2.14282 3.30873 0
M  V30 19715 H 1874.32 2.36173 4.50666 0
M  V30 19716 H 1873.72 -0.617055 5.62325 0
M  V30 19717 H 1872.28 -0.327688 6.50976 0
M  V30 19718 N 1875.71 -1.15554 1.07168 0
M  V30 19719 C 1876.64 -2.19841 0.648285 0
M  V30 19720 C 1877.65 -1.60045 -0.298247 0
M  V30 19721 O 1878.84 -1.78284 -0.0878565 0
M  V30 19722 C 1875.94 -3.38831 -0.068586 0
M  V30 19723 C 1875.12 -4.28173 0.89366 0
M  V30 19724 C 1874.17 -5.25763 0.214424 0
M  V30 19725 O 1873.2 -5.62744 0.854883 0
M  V30 19726 N 1874.4 -5.71096 -1.04063 0
M  V30 19727 H 1877.17 -2.56784 1.54539 0
M  V30 19728 H 1874.73 -1.30652 0.956127 0
M  V30 19729 H 1876.72 -4.01167 -0.533614 0
M  V30 19730 H 1875.29 -3.00319 -0.86761 0
M  V30 19731 H 1874.51 -3.62965 1.53785 0
M  V30 19732 H 1875.8 -4.84739 1.54613 0
M  V30 19733 H 1875.2 -5.4316 -1.58095 0
M  V30 19734 H 1873.75 -6.35481 -1.44937 0
M  V30 19735 N 1877.19 -0.855519 -1.32358 0
M  V30 19736 C 1878.1 -0.303696 -2.32626 0
M  V30 19737 C 1879.11 0.578927 -1.64087 0
M  V30 19738 O 1880.29 0.479091 -1.95619 0
M  V30 19739 C 1877.35 0.498152 -3.43103 0
M  V30 19740 C 1876.42 -0.410714 -4.27331 0
M  V30 19741 C 1875.65 0.35296 -5.32532 0
M  V30 19742 O 1875.87 1.58282 -5.47999 0
M  V30 19743 O 1874.81 -0.281689 -6.0124 0
M  V30 19744 H 1878.63 -1.13443 -2.81717 0
M  V30 19745 H 1876.22 -0.618479 -1.35997 0
M  V30 19746 H 1878.1 0.95324 -4.10477 0
M  V30 19747 H 1876.77 1.30567 -2.96199 0
M  V30 19748 H 1875.68 -0.913997 -3.62763 0
M  V30 19749 H 1877.01 -1.18344 -4.77761 0
M  V30 19750 N 1878.67 1.45167 -0.61354 0
M  V30 19751 C 1879.91 2.02495 -0.111227 0
M  V30 19752 C 1880.24 1.48015 1.25719 0
M  V30 19753 O 1879.52 0.657188 1.83061 0
M  V30 19754 C 1879.8 3.60014 -0.07876 0
M  V30 19755 C 1879.66 4.24814 -1.47827 0
M  V30 19756 C 1880.97 4.35908 0.605964 0
M  V30 19757 H 1878.09 0.735808 -0.0418931 0
M  V30 19758 H 1880.74 1.7295 -0.786651 0
M  V30 19759 H 1878.89 3.85315 0.496411 0
M  V30 19760 H 1880.56 4.10678 -2.10097 0
M  V30 19761 H 1878.8 3.82986 -2.03726 0
M  V30 19762 H 1879.47 5.33748 -1.40774 0
M  V30 19763 H 1881.95 4.15935 0.117019 0
M  V30 19764 H 1880.82 5.45635 0.597808 0
M  V30 19765 H 1881.08 4.09216 1.67315 0
M  V30 19766 N 1880.14 0.353044 1.53595 0
M  V30 19767 C 1881.39 -0.240904 2.01364 0
M  V30 19768 C 1881.72 -1.49438 1.24023 0
M  V30 19769 O 1881 -1.91672 0.330451 0
M  V30 19770 C 1881.28 -0.545497 3.55944 0
M  V30 19771 C 1881.13 0.720742 4.43988 0
M  V30 19772 C 1882.45 -1.35124 4.18843 0
M  V30 19773 H 1879.57 -0.0860838 0.731955 0
M  V30 19774 H 1882.21 0.475459 1.83955 0
M  V30 19775 H 1880.36 -1.15578 3.7091 0
M  V30 19776 H 1882.04 1.35852 4.40842 0
M  V30 19777 H 1880.28 1.34369 4.12465 0
M  V30 19778 H 1880.95 0.462749 5.50057 0
M  V30 19779 H 1883.43 -0.835104 4.07634 0
M  V30 19780 H 1882.3 -1.53311 5.27055 0
M  V30 19781 H 1882.56 -2.35612 3.74085 0
M  V30 19782 N 1881.62 -1.57387 0.0818932 0
M  V30 19783 C 1882.87 -1.93045 -0.584519 0
M  V30 19784 C 1883.18 -0.96473 -1.70154 0
M  V30 19785 O 1884.39 -1.21451 -2.42821 0
M  V30 19786 C 1882.85 -3.42962 -1.0911 0
M  V30 19787 C 1882.45 -4.48 -0.00454233 0
M  V30 19788 C 1884.2 -3.87604 -1.731 0
M  V30 19789 C 1882.1 -5.89059 -0.525733 0
M  V30 19790 H 1881.03 -0.720543 -0.222112 0
M  V30 19791 H 1883.69 -1.82838 0.155762 0
M  V30 19792 H 1882.07 -3.48277 -1.88466 0
M  V30 19793 H 1883.24 -4.54314 0.770444 0
M  V30 19794 H 1881.56 -4.12887 0.539739 0
M  V30 19795 H 1884.15 -4.90382 -2.13143 0
M  V30 19796 H 1884.5 -3.25524 -2.59499 0
M  V30 19797 H 1885.03 -3.84935 -1.00349 0
M  V30 19798 H 1881.77 -6.54807 0.301333 0
M  V30 19799 H 1881.29 -5.86243 -1.26802 0
M  V30 19800 H 1882.97 -6.39242 -0.998928 0
M  V30 19801 N 1883.1 0.191729 -1.56429 0
M  V30 19802 C 1884.03 1.26574 -1.8988 0
M  V30 19803 C 1885.01 1.43785 -0.759261 0
M  V30 19804 O 1886.19 1.5912 -1.01059 0
M  V30 19805 C 1883.32 2.63185 -2.13193 0
M  V30 19806 C 1882.37 2.62826 -3.35894 0
M  V30 19807 S 1883.2 2.13925 -4.90914 0
M  V30 19808 C 1884.36 3.52354 -5.17298 0
M  V30 19809 H 1884.59 0.980119 -2.80679 0
M  V30 19810 H 1882.12 0.395377 -1.49252 0
M  V30 19811 H 1884.08 3.41821 -2.27307 0
M  V30 19812 H 1882.74 2.88957 -1.23137 0
M  V30 19813 H 1881.93 3.63284 -3.49343 0
M  V30 19814 H 1881.54 1.92273 -3.20791 0
M  V30 19815 H 1883.83 4.48238 -5.08025 0
M  V30 19816 H 1884.77 3.43797 -6.19039 0
M  V30 19817 H 1885.18 3.47422 -4.44925 0
M  V30 19818 N 1884.58 1.50751 0.459565 0
M  V30 19819 C 1885.85 1.5284 1.22062 0
M  V30 19820 C 1886.23 0.279716 2.09239 0
M  V30 19821 O 1885.58 -0.73634 2.16311 0
M  V30 19822 C 1885.79 2.83046 2.04171 0
M  V30 19823 C 1887.14 3.34151 2.6197 0
M  V30 19824 O 1888.16 2.84446 2.14403 0
M  V30 19825 O 1887.02 4.20824 3.48668 0
M  V30 19826 H 1884.12 0.613549 0.554515 0
M  V30 19827 H 1886.66 1.63049 0.470445 0
M  V30 19828 H 1885.44 3.65397 1.40004 0
M  V30 19829 H 1885.06 2.75896 2.86299 0
M  V30 19830 N 1886.06 -0.713531 1.40522 0
M  V30 19831 C 1887.33 -1.46672 1.29409 0
M  V30 19832 C 1887.71 -2.10922 -0.0866293 0
M  V30 19833 O 1887.06 -2.00303 -1.09959 0
M  V30 19834 C 1887.27 -2.50076 2.4344 0
M  V30 19835 C 1888.62 -3.15848 2.8377 0
M  V30 19836 O 1889.64 -2.60396 2.43048 0
M  V30 19837 O 1888.5 -4.16238 3.5413 0
M  V30 19838 H 1885.6 -0.652333 0.508322 0
M  V30 19839 H 1888.14 -0.745531 1.52446 0
M  V30 19840 H 1886.91 -2.01129 3.35653 0
M  V30 19841 H 1886.54 -3.29728 2.22183 0
M  V30 19842 N 1887.53 -1.26053 -0.945962 0
M  V30 19843 C 1888.46 -1.09687 -2.06134 0
M  V30 19844 C 1889.44 -0.00341513 -1.701 0
M  V30 19845 O 1890.63 -0.174559 -1.93414 0
M  V30 19846 C 1887.76 -0.724007 -3.3967 0
M  V30 19847 C 1886.71 -1.76866 -3.89747 0
M  V30 19848 C 1886.04 -1.25025 -5.19878 0
M  V30 19849 C 1887.34 -3.16923 -4.15159 0
M  V30 19850 H 1889.03 -2.02986 -2.20084 0
M  V30 19851 H 1886.58 -0.977346 -1.05754 0
M  V30 19852 H 1888.53 -0.596411 -4.17158 0
M  V30 19853 H 1887.26 0.244695 -3.25682 0
M  V30 19854 H 1885.92 -1.88485 -3.14435 0
M  V30 19855 H 1885.56 -0.271527 -5.02267 0
M  V30 19856 H 1885.26 -1.94853 -5.54352 0
M  V30 19857 H 1886.79 -1.13523 -5.99954 0
M  V30 19858 H 1888.2 -3.08409 -4.83277 0
M  V30 19859 H 1886.6 -3.84299 -4.60906 0
M  V30 19860 H 1887.67 -3.63337 -3.21114 0
M  V30 19861 N 1889.01 1.14984 -1.07779 0
M  V30 19862 C 1889.96 2.2193 -0.696405 0
M  V30 19863 C 1890.95 1.66815 0.294832 0
M  V30 19864 O 1892.16 1.79305 0.158081 0
M  V30 19865 H 1888.53 0.722908 -0.207143 0
M  V30 19866 H 1890.51 2.51374 -1.60791 0
M  V30 19867 C 1889.25 3.4751 -0.114943 0
M  V30 19868 H 1888.58 3.90245 -0.86883 0
M  V30 19869 H 1890.02 4.23846 0.114195 0
M  V30 19870 C 1888.48 3.16827 1.14552 0
M  V30 19871 O 1889.01 3.34026 2.23135 0
M  V30 19872 N 1887.21 2.70836 1.05339 0
M  V30 19873 H 1886.76 2.5704 0.169728 0
M  V30 19874 H 1886.72 2.50681 1.89754 0
M  V30 19875 N 1890.49 0.862526 1.31902 0
M  V30 19876 C 1891.42 0.270103 2.27603 0
M  V30 19877 C 1892.43 -0.562639 1.52768 0
M  V30 19878 O 1893.62 -0.385845 1.7428 0
M  V30 19879 C 1890.72 -0.636314 3.32873 0
M  V30 19880 C 1889.9 0.162327 4.37099 0
M  V30 19881 C 1888.96 -0.67107 5.21903 0
M  V30 19882 O 1887.98 -0.101765 5.69109 0
M  V30 19883 N 1889.18 -1.98441 5.45529 0
M  V30 19884 H 1891.95 1.09248 2.79079 0
M  V30 19885 H 1889.51 0.723275 1.44846 0
M  V30 19886 H 1891.5 -1.19937 3.86519 0
M  V30 19887 H 1890.07 -1.35936 2.81496 0
M  V30 19888 H 1889.29 0.906824 3.83628 0
M  V30 19889 H 1890.58 0.710602 5.03813 0
M  V30 19890 H 1889.98 -2.47017 5.0892 0
M  V30 19891 H 1888.53 -2.49542 6.0214 0
M  V30 19892 N 1891.97 -1.4484 0.62123 0
M  V30 19893 C 1892.92 -2.32377 -0.1019 0
M  V30 19894 C 1893.91 -1.4677 -0.845862 0
M  V30 19895 O 1895.12 -1.63174 -0.759882 0
M  V30 19896 H 1891.49 -0.75022 -0.0517143 0
M  V30 19897 H 1893.46 -2.91131 0.654623 0
M  V30 19898 C 1892.21 -3.30611 -1.07665 0
M  V30 19899 H 1891.53 -3.96487 -0.513612 0
M  V30 19900 H 1892.97 -3.94563 -1.5523 0
M  V30 19901 C 1891.43 -2.58795 -2.157 0
M  V30 19902 O 1891.96 -2.37947 -3.23642 0
M  V30 19903 N 1890.17 -2.187 -1.9136 0
M  V30 19904 H 1889.72 -2.35856 -1.03584 0
M  V30 19905 H 1889.67 -1.70975 -2.63847 0
M  V30 19906 N 1893.45 -0.361184 -1.53405 0
M  V30 19907 C 1894.86 0.118972 -1.86321 0
M  V30 19908 C 1895.21 1.48531 -1.28191 0
M  V30 19909 O 1894.33 2.07851 -0.602253 0
M  V30 19910 C 1894.93 0.222658 -3.38068 0
M  V30 19911 C 1893.49 0.647065 -3.70796 0
M  V30 19912 C 1892.63 -0.208424 -2.76516 0
M  V30 19913 H 1895.59 -0.580142 -1.47716 0
M  V30 19914 H 1895.61 1.04702 -3.65811 0
M  V30 19915 H 1895.12 -0.771922 -3.80346 0
M  V30 19916 H 1893.22 1.65003 -3.34073 0
M  V30 19917 H 1893.33 0.424724 -4.77214 0
M  V30 19918 H 1891.7 0.322011 -2.52656 0
M  V30 19919 H 1892.48 -1.20046 -3.21627 0
M  V30 19920 N 1894.92 1.57341 -0.0902386 0
M  V30 19921 C 1896.2 1.85627 0.616611 0
M  V30 19922 C 1896.58 0.986193 1.86648 0
M  V30 19923 O 1895.93 0.0573148 2.28428 0
M  V30 19924 C 1896.14 3.36196 0.936645 0
M  V30 19925 C 1897.49 4.04139 1.30219 0
M  V30 19926 O 1898.51 3.41049 1.02781 0
M  V30 19927 O 1897.37 5.1545 1.81586 0
M  V30 19928 H 1894.46 0.76748 0.308065 0
M  V30 19929 H 1897.01 1.69257 -0.122568 0
M  V30 19930 H 1895.78 3.91268 0.0497354 0
M  V30 19931 H 1895.41 3.57895 1.73197 0
M  V30 19932 N 1896.4 -0.183431 1.56529 0
M  V30 19933 C 1897.65 -0.900214 1.80944 0
M  V30 19934 C 1897.97 -1.83302 0.665246 0
M  V30 19935 O 1897.24 -1.9334 -0.315697 0
M  V30 19936 H 1895.82 -0.335409 0.667465 0
M  V30 19937 H 1898.48 -0.186146 1.94009 0
M  V30 19938 H 1897.58 -1.48437 2.74541 0
M  V30 19939 N 1897.88 -1.50992 -0.451564 0
M  V30 19940 C 1898.81 -1.67453 -1.56499 0
M  V30 19941 C 1899.83 -0.555481 -1.5303 0
M  V30 19942 O 1901.01 -0.829335 -1.58064 0
M  V30 19943 C 1898.11 -1.66093 -2.95409 0
M  V30 19944 C 1897.29 -2.94351 -3.23537 0
M  V30 19945 C 1896.35 -2.8537 -4.42098 0
M  V30 19946 O 1895.37 -3.59323 -4.41447 0
M  V30 19947 N 1896.57 -2.0025 -5.44867 0
M  V30 19948 H 1899.34 -2.63499 -1.42788 0
M  V30 19949 H 1896.9 -1.48701 -0.640293 0
M  V30 19950 H 1898.89 -1.57672 -3.72722 0
M  V30 19951 H 1897.46 -0.777014 -3.02789 0
M  V30 19952 H 1896.68 -3.16751 -2.34654 0
M  V30 19953 H 1897.97 -3.79281 -3.39151 0
M  V30 19954 H 1897.37 -1.39517 -5.48226 0
M  V30 19955 H 1895.93 -1.97719 -6.21088 0
M  V30 19956 N 1899.36 0.706069 -1.40899 0
M  V30 19957 C 1900.64 1.45984 -1.30185 0
M  V30 19958 C 1901.02 2.10965 0.0754423 0
M  V30 19959 O 1900.36 2.00883 1.08896 0
M  V30 19960 C 1900.57 2.48782 -2.44762 0
M  V30 19961 C 1901.92 3.14339 -2.85441 0
M  V30 19962 O 1902.95 2.59104 -2.44425 0
M  V30 19963 O 1901.8 4.14354 -3.56333 0
M  V30 19964 H 1898.9 0.649628 -0.511774 0
M  V30 19965 H 1901.44 0.737436 -1.5284 0
M  V30 19966 H 1900.22 1.99346 -3.36715 0
M  V30 19967 H 1899.84 3.28545 -2.23929 0
M  V30 19968 N 1900.84 1.26553 0.939264 0
M  V30 19969 C 1902.09 1.11599 1.68014 0
M  V30 19970 C 1902.4 -0.339956 1.92623 0
M  V30 19971 O 1903.6 -0.610203 2.64554 0
M  V30 19972 C 1902.06 1.94913 3.02551 0
M  V30 19973 C 1901.67 3.45094 2.85682 0
M  V30 19974 C 1903.41 1.88574 3.80316 0
M  V30 19975 C 1901.32 4.20648 4.15703 0
M  V30 19976 H 1900.25 0.414037 0.630151 0
M  V30 19977 H 1902.9 1.50878 1.04441 0
M  V30 19978 H 1901.28 1.48469 3.67115 0
M  V30 19979 H 1902.46 3.99321 2.29956 0
M  V30 19980 H 1900.77 3.5269 2.21357 0
M  V30 19981 H 1903.37 2.42307 4.76646 0
M  V30 19982 H 1903.71 0.856867 4.07386 0
M  V30 19983 H 1904.24 2.32852 3.22529 0
M  V30 19984 H 1900.98 5.24013 3.93816 0
M  V30 19985 H 1900.5 3.71202 4.71136 0
M  V30 19986 H 1902.18 4.29199 4.84146 0
M  V30 19987 N 1902.31 -1.14411 1.08387 0
M  V30 19988 C 1903.54 -1.89848 0.835015 0
M  V30 19989 C 1903.96 -1.78034 -0.607091 0
M  V30 19990 O 1903.32 -1.12039 -1.42538 0
M  V30 19991 C 1903.37 -3.37818 1.26141 0
M  V30 19992 O 1902.47 -4.10325 0.41322 0
M  V30 19993 H 1901.82 -0.590682 0.303299 0
M  V30 19994 H 1904.35 -1.44823 1.44525 0
M  V30 19995 H 1904.36 -3.88631 1.24218 0
M  V30 19996 H 1903.03 -3.45735 2.31172 0
M  V30 19997 H 1901.61 -3.69589 0.495854 0
M  V30 19998 N 1903.79 -0.869509 -1.31443 0
M  V30 19999 C 1904.73 -0.269612 -2.26602 0
M  V30 20000 C 1905.7 0.600966 -1.51087 0
M  V30 20001 O 1906.89 0.554491 -1.8016 0
M  V30 20002 C 1904.01 0.618287 -3.33009 0
M  V30 20003 C 1903.06 -0.180883 -4.26116 0
M  V30 20004 S 1903.89 -1.55908 -5.12302 0
M  V30 20005 C 1905.05 -0.677295 -6.22225 0
M  V30 20006 H 1905.28 -1.07626 -2.77135 0
M  V30 20007 H 1902.82 -0.668003 -1.39202 0
M  V30 20008 H 1904.77 1.12488 -3.94787 0
M  V30 20009 H 1903.43 1.39888 -2.8123 0
M  V30 20010 H 1902.63 0.496021 -5.01553 0
M  V30 20011 H 1902.23 -0.619555 -3.68833 0
M  V30 20012 H 1904.52 0.1123 -6.77407 0
M  V30 20013 H 1905.46 -1.40278 -6.94066 0
M  V30 20014 H 1905.87 -0.245049 -5.63968 0
M  V30 20015 N 1905.27 1.44508 -0.628902 0
M  V30 20016 C 1906.52 2.02066 -0.132502 0
M  V30 20017 C 1906.85 1.49446 1.24483 0
M  V30 20018 O 1906.1 0.667881 1.83951 0
M  V30 20019 C 1906.4 3.57339 -0.0660437 0
M  V30 20020 C 1906.07 4.29203 -1.38186 0
M  V30 20021 C 1904.73 4.48552 -1.74225 0
M  V30 20022 C 1907.08 4.70108 -2.25051 0
M  V30 20023 C 1904.41 5.06066 -2.96839 0
M  V30 20024 C 1906.76 5.2898 -3.46934 0
M  V30 20025 C 1905.42 5.46549 -3.83198 0
M  V30 20026 H 1904.69 0.739412 -0.048486 0
M  V30 20027 H 1907.34 1.73302 -0.814773 0
M  V30 20028 H 1905.65 3.85504 0.699588 0
M  V30 20029 H 1907.34 3.99602 0.334526 0
M  V30 20030 H 1903.93 4.14471 -1.09141 0
M  V30 20031 H 1908.12 4.54874 -1.98503 0
M  V30 20032 H 1903.37 5.17856 -3.25016 0
M  V30 20033 H 1907.55 5.59626 -4.14478 0
M  V30 20034 H 1905.17 5.90881 -4.78292 0
M  V30 20035 N 1906.75 0.369315 1.53212 0
M  V30 20036 C 1907.99 -0.219233 2.03221 0
M  V30 20037 C 1908.35 -1.45689 1.25055 0
M  V30 20038 O 1909.55 -2.1213 1.65089 0
M  V30 20039 C 1907.83 -0.500368 3.5388 0
M  V30 20040 S 1909.38 -1.06205 4.25753 0
M  V30 20041 H 1906.2 -0.0635239 0.708157 0
M  V30 20042 H 1908.8 0.513044 1.88648 0
M  V30 20043 H 1907.51 0.407823 4.08369 0
M  V30 20044 H 1907.04 -1.26162 3.72622 0
M  V30 20045 H 1909.05 -2.34602 4.37237 0
M  V30 20046 N 1908.23 -1.57291 0.0985816 0
M  V30 20047 C 1909.16 -2.11249 -0.889184 0
M  V30 20048 C 1910.17 -1.05051 -1.24371 0
M  V30 20049 O 1911.36 -1.32488 -1.19621 0
M  V30 20050 C 1908.46 -2.58021 -2.19724 0
M  V30 20051 C 1907.63 -3.88091 -2.01752 0
M  V30 20052 C 1906.69 -4.20674 -3.16101 0
M  V30 20053 O 1905.72 -4.89837 -2.89911 0
M  V30 20054 N 1906.92 -3.76356 -4.41969 0
M  V30 20055 H 1909.69 -2.96624 -0.42832 0
M  V30 20056 H 1907.25 -1.61669 -0.0864254 0
M  V30 20057 H 1909.24 -2.76861 -2.95178 0
M  V30 20058 H 1907.81 -1.77638 -2.57223 0
M  V30 20059 H 1907.03 -3.78364 -1.10608 0
M  V30 20060 H 1908.32 -4.7318 -1.87026 0
M  V30 20061 H 1907.72 -3.20533 -4.66128 0
M  V30 20062 H 1906.27 -4.00344 -5.14361 0
M  V30 20063 N 1909.71 0.175127 -1.56624 0
M  V30 20064 C 1910.64 1.24553 -1.91211 0
M  V30 20065 C 1911.62 1.42971 -0.774469 0
M  V30 20066 O 1912.8 1.58039 -1.02741 0
M  V30 20067 C 1909.93 2.60909 -2.15972 0
M  V30 20068 C 1908.97 2.59248 -3.38663 0
M  V30 20069 S 1909.81 2.08707 -4.93155 0
M  V30 20070 C 1910.96 3.46847 -5.21006 0
M  V30 20071 H 1911.2 0.950294 -2.81703 0
M  V30 20072 H 1908.73 0.379524 -1.49663 0
M  V30 20073 H 1910.69 3.39391 -2.30919 0
M  V30 20074 H 1909.35 2.87635 -1.26195 0
M  V30 20075 H 1908.54 3.59558 -3.53177 0
M  V30 20076 H 1908.14 1.8886 -3.22812 0
M  V30 20077 H 1910.43 4.42824 -5.1275 0
M  V30 20078 H 1911.38 3.37211 -6.22651 0
M  V30 20079 H 1911.79 3.42683 -4.48585 0
M  V30 20080 N 1911.18 1.5123 0.44355 0
M  V30 20081 C 1912.43 1.63833 1.19527 0
M  V30 20082 C 1912.76 0.350544 1.9101 0
M  V30 20083 O 1912.04 -0.649546 1.83333 0
M  V30 20084 C 1912.32 2.83747 2.21719 0
M  V30 20085 C 1912.17 4.22484 1.5436 0
M  V30 20086 C 1913.49 2.99184 3.22765 0
M  V30 20087 H 1910.61 0.596256 0.433184 0
M  V30 20088 H 1913.25 1.83697 0.485321 0
M  V30 20089 H 1911.4 2.66942 2.82267 0
M  V30 20090 H 1913.08 4.50944 0.971976 0
M  V30 20091 H 1911.32 4.25469 0.846069 0
M  V30 20092 H 1911.99 5.0237 2.28754 0
M  V30 20093 H 1914.47 3.14659 2.72266 0
M  V30 20094 H 1913.34 3.84663 3.91569 0
M  V30 20095 H 1913.6 2.10984 3.88508 0
M  V30 20096 N 1912.66 -0.698586 1.41271 0
M  V30 20097 C 1913.89 -1.49247 1.44014 0
M  V30 20098 C 1914.31 -1.88043 0.0461888 0
M  V30 20099 O 1913.67 -1.54426 -0.94986 0
M  V30 20100 C 1913.72 -2.73334 2.35204 0
M  V30 20101 O 1912.82 -3.70704 1.807 0
M  V30 20102 H 1912.16 -0.449313 0.488891 0
M  V30 20103 H 1914.69 -0.858936 1.85697 0
M  V30 20104 H 1914.7 -3.21676 2.50975 0
M  V30 20105 H 1913.38 -2.44433 3.3649 0
M  V30 20106 H 1911.95 -3.29624 1.74363 0
M  V30 20107 N 1914.14 -1.27049 -0.93254 0
M  V30 20108 C 1915.36 -1.16011 -1.71919 0
M  V30 20109 C 1915.79 0.279951 -1.86005 0
M  V30 20110 O 1915.15 1.20279 -1.35657 0
M  V30 20111 C 1915.2 -1.84349 -3.09916 0
M  V30 20112 O 1914.3 -1.13816 -3.96383 0
M  V30 20113 H 1913.64 -0.403752 -0.527144 0
M  V30 20114 H 1916.17 -1.6803 -1.16736 0
M  V30 20115 H 1916.18 -1.91516 -3.60258 0
M  V30 20116 H 1914.86 -2.89109 -2.9898 0
M  V30 20117 H 1913.43 -1.14684 -3.54827 0
M  V30 20118 N 1915.62 1.13835 -1.08993 0
M  V30 20119 C 1916.86 1.85284 -0.824476 0
M  V30 20120 C 1917.2 1.83062 0.648235 0
M  V30 20121 O 1916.47 1.26555 1.47696 0
M  V30 20122 C 1916.75 3.33649 -1.35463 0
M  V30 20123 C 1916.61 3.44411 -2.89312 0
M  V30 20124 C 1917.93 4.28941 -0.984768 0
M  V30 20125 H 1915.05 0.672745 -0.300971 0
M  V30 20126 H 1917.69 1.3364 -1.35057 0
M  V30 20127 H 1915.84 3.77761 -0.907128 0
M  V30 20128 H 1917.51 3.09043 -3.42477 0
M  V30 20129 H 1915.75 2.85429 -3.26669 0
M  V30 20130 H 1916.42 4.48724 -3.21481 0
M  V30 20131 H 1918.9 3.92877 -1.37064 0
M  V30 20132 H 1917.78 5.31196 -1.38283 0
M  V30 20133 H 1918.04 4.41969 0.10755 0
M  V30 20134 N 1917.1 0.876467 1.3098 0
M  V30 20135 C 1918.37 0.411051 1.91232 0
M  V30 20136 C 1918.75 -1.10748 1.79717 0
M  V30 20137 O 1918.1 -1.93898 1.20896 0
M  V30 20138 C 1918.31 0.899663 3.37205 0
M  V30 20139 C 1919.66 0.929615 4.14299 0
M  V30 20140 O 1920.68 0.845752 3.46014 0
M  V30 20141 O 1919.54 1.05211 5.36277 0
M  V30 20142 H 1916.64 0.12418 0.817624 0
M  V30 20143 H 1919.18 0.964808 1.39605 0
M  V30 20144 H 1917.95 1.94336 3.39631 0
M  V30 20145 H 1917.58 0.324585 3.96273 0
M  V30 20146 N 1918.57 -1.44173 0.636557 0
M  V30 20147 C 1919.82 -2.01993 0.143216 0
M  V30 20148 C 1920.15 -1.50104 -1.23689 0
M  V30 20149 O 1919.4 -0.677627 -1.83594 0
M  V30 20150 C 1919.7 -3.57299 0.0849933 0
M  V30 20151 C 1919.37 -4.28464 1.40461 0
M  V30 20152 C 1918.03 -4.47622 1.76601 0
M  V30 20153 C 1920.38 -4.68908 2.27541 0
M  V30 20154 C 1917.71 -5.04485 2.99519 0
M  V30 20155 C 1920.06 -5.27133 3.49734 0
M  V30 20156 C 1918.73 -5.44509 3.86091 0
M  V30 20157 H 1918 -0.739144 0.0524066 0
M  V30 20158 H 1920.64 -1.72868 0.823952 0
M  V30 20159 H 1918.95 -3.85869 -0.679134 0
M  V30 20160 H 1920.65 -3.99774 -0.31333 0
M  V30 20161 H 1917.24 -4.13886 1.11337 0
M  V30 20162 H 1921.42 -4.53815 2.00913 0
M  V30 20163 H 1916.68 -5.16125 3.27758 0
M  V30 20164 H 1920.85 -5.5742 4.1744 0
M  V30 20165 H 1918.48 -5.88336 4.81419 0
M  V30 20166 N 1920.05 -0.377435 -1.53014 0
M  V30 20167 C 1920.98 0.455103 -2.29022 0
M  V30 20168 C 1921.96 1.07375 -1.31926 0
M  V30 20169 O 1923.15 1.08877 -1.60809 0
M  V30 20170 C 1920.28 1.58883 -3.08826 0
M  V30 20171 C 1919.23 1.09683 -4.13707 0
M  V30 20172 C 1918.56 2.32172 -4.81664 0
M  V30 20173 C 1919.86 0.173165 -5.22013 0
M  V30 20174 H 1921.55 -0.179053 -2.98864 0
M  V30 20175 H 1919.1 -0.0875549 -1.43734 0
M  V30 20176 H 1921.05 2.17798 -3.60752 0
M  V30 20177 H 1919.77 2.2504 -2.36695 0
M  V30 20178 H 1918.43 0.530291 -3.62744 0
M  V30 20179 H 1918.08 2.96811 -4.06094 0
M  V30 20180 H 1917.78 1.99919 -5.52545 0
M  V30 20181 H 1919.31 2.91751 -5.3639 0
M  V30 20182 H 1920.72 0.670145 -5.6937 0
M  V30 20183 H 1919.12 -0.0590463 -6.00071 0
M  V30 20184 H 1920.19 -0.781339 -4.78564 0
M  V30 20185 N 1921.53 1.57237 -0.106922 0
M  V30 20186 C 1922.94 1.81906 0.420368 0
M  V30 20187 C 1923.29 1.02332 1.67399 0
M  V30 20188 O 1922.42 0.256247 2.14877 0
M  V30 20189 C 1923.01 3.29947 0.769432 0
M  V30 20190 C 1921.57 3.55339 1.24141 0
M  V30 20191 C 1920.72 2.76224 0.243997 0
M  V30 20192 H 1923.67 1.55184 -0.332216 0
M  V30 20193 H 1923.69 3.43916 1.62794 0
M  V30 20194 H 1923.2 3.87836 -0.14316 0
M  V30 20195 H 1921.3 3.02795 2.17131 0
M  V30 20196 H 1921.42 4.63956 1.19508 0
M  V30 20197 H 1919.78 2.44057 0.728574 0
M  V30 20198 H 1920.56 3.36867 -0.661482 0
M  V30 20199 N 1923.01 -0.166818 1.56715 0
M  V30 20200 C 1924.42 -0.728845 1.71886 0
M  V30 20201 C 1924.77 -1.82584 0.718168 0
M  V30 20202 O 1923.9 -2.1607 -0.119503 0
M  V30 20203 C 1924.49 -1.32885 3.11652 0
M  V30 20204 C 1923.05 -1.83766 3.28492 0
M  V30 20205 C 1922.2 -0.718371 2.67833 0
M  V30 20206 H 1925.15 0.0586298 1.58592 0
M  V30 20207 H 1925.17 -2.19858 3.10552 0
M  V30 20208 H 1924.68 -0.530219 3.84461 0
M  V30 20209 H 1922.78 -2.66259 2.60647 0
M  V30 20210 H 1922.89 -1.98 4.36271 0
M  V30 20211 H 1921.26 -1.13996 2.27765 0
M  V30 20212 H 1922.04 0.0684914 3.43232 0
M  V30 20213 N 1924.49 -1.51463 -0.435524 0
M  V30 20214 C 1925.42 -1.67594 -1.54879 0
M  V30 20215 C 1926.4 -0.523516 -1.53942 0
M  V30 20216 O 1927.58 -0.747582 -1.73042 0
M  V30 20217 C 1924.71 -1.69117 -2.93457 0
M  V30 20218 C 1923.75 -2.90346 -3.12413 0
M  V30 20219 S 1924.59 -4.51129 -2.88518 0
M  V30 20220 C 1925.74 -4.554 -4.29374 0
M  V30 20221 H 1925.98 -2.61757 -1.40963 0
M  V30 20222 H 1923.51 -1.4117 -0.625338 0
M  V30 20223 H 1925.47 -1.70679 -3.73335 0
M  V30 20224 H 1924.13 -0.761275 -3.04735 0
M  V30 20225 H 1923.32 -2.87818 -4.13735 0
M  V30 20226 H 1922.92 -2.86534 -2.40362 0
M  V30 20227 H 1925.22 -4.31152 -5.22603 0
M  V30 20228 H 1926.16 -5.5722 -4.36935 0
M  V30 20229 H 1926.57 -3.84704 -4.13113 0
M  V30 20230 N 1925.96 0.691085 -1.4164 0
M  V30 20231 C 1926.93 1.78671 -1.43559 0
M  V30 20232 C 1927.93 1.5747 -0.325543 0
M  V30 20233 O 1929.12 1.64061 -0.585631 0
M  V30 20234 C 1926.25 3.17102 -1.25135 0
M  V30 20235 H 1927.44 1.78361 -2.41096 0
M  V30 20236 H 1925 0.899148 -1.27848 0
M  V30 20237 H 1925.73 3.23049 -0.284567 0
M  V30 20238 H 1925.52 3.33893 -2.05567 0
M  V30 20239 H 1927.01 3.97071 -1.29324 0
M  V30 20240 N 1927.44 1.27542 0.925789 0
M  V30 20241 C 1928.67 1.16921 1.71301 0
M  V30 20242 C 1929.09 -0.270082 1.86151 0
M  V30 20243 O 1928.45 -1.19558 1.36293 0
M  V30 20244 C 1928.5 1.8599 3.08934 0
M  V30 20245 O 1927.6 1.15917 3.95774 0
M  V30 20246 H 1926.94 0.406542 0.524995 0
M  V30 20247 H 1929.47 1.68646 1.15843 0
M  V30 20248 H 1929.48 1.93424 3.59237 0
M  V30 20249 H 1928.16 2.9069 2.97443 0
M  V30 20250 H 1926.74 1.16564 3.54213 0
M  V30 20251 N 1928.92 -1.13255 1.09595 0
M  V30 20252 C 1929.85 -2.20827 0.758791 0
M  V30 20253 C 1930.83 -1.68034 -0.264325 0
M  V30 20254 O 1932.02 -1.93751 -0.132005 0
M  V30 20255 C 1929.15 -3.46831 0.180424 0
M  V30 20256 C 1928.1 -4.12724 1.13325 0
M  V30 20257 C 1927.43 -5.33075 0.416504 0
M  V30 20258 C 1928.73 -4.59862 2.47637 0
M  V30 20259 H 1930.42 -2.49287 1.65821 0
M  V30 20260 H 1927.97 -1.19818 0.798734 0
M  V30 20261 H 1929.92 -4.21346 -0.0675313 0
M  V30 20262 H 1928.64 -3.17773 -0.754194 0
M  V30 20263 H 1927.3 -3.40179 1.36651 0
M  V30 20264 H 1926.95 -5.00281 -0.522308 0
M  V30 20265 H 1926.65 -5.78109 1.05183 0
M  V30 20266 H 1928.17 -6.10344 0.17689 0
M  V30 20267 H 1929.59 -5.25791 2.28509 0
M  V30 20268 H 1927.99 -5.15642 3.06974 0
M  V30 20269 H 1929.06 -3.74294 3.08273 0
M  V30 20270 N 1930.4 -0.883401 -1.30514 0
M  V30 20271 C 1931.68 -0.421186 -1.91011 0
M  V30 20272 C 1932.06 1.09793 -1.80301 0
M  V30 20273 O 1931.4 1.93254 -1.21923 0
M  V30 20274 C 1931.61 -0.917533 -3.36723 0
M  V30 20275 C 1932.96 -0.951573 -4.138 0
M  V30 20276 O 1933.99 -0.86409 -3.4556 0
M  V30 20277 O 1932.84 -1.08053 -5.35711 0
M  V30 20278 H 1929.94 -0.128514 -0.816954 0
M  V30 20279 H 1932.48 -0.972198 -1.39091 0
M  V30 20280 H 1931.26 -1.96135 -3.38595 0
M  V30 20281 H 1930.88 -0.345595 -3.96095 0
M  V30 20282 N 1931.88 1.43833 -0.644194 0
M  V30 20283 C 1932.82 2.32509 0.0649184 0
M  V30 20284 C 1933.82 1.48097 0.822405 0
M  V30 20285 O 1935.02 1.64362 0.733827 0
M  V30 20286 H 1931.4 0.750948 0.0397724 0
M  V30 20287 H 1933.37 2.90053 -0.700857 0
M  V30 20288 C 1932.12 3.32282 1.02391 0
M  V30 20289 H 1931.44 3.97254 0.45047 0
M  V30 20290 H 1932.88 3.96982 1.48933 0
M  V30 20291 C 1931.34 2.62194 2.11556 0
M  V30 20292 O 1931.87 2.43066 3.19815 0
M  V30 20293 N 1930.08 2.21717 1.87856 0
M  V30 20294 H 1929.62 2.37474 0.998189 0
M  V30 20295 H 1929.58 1.7515 2.61093 0
M  V30 20296 N 1933.35 0.385544 1.52811 0
M  V30 20297 C 1934.3 -0.451417 2.26342 0
M  V30 20298 C 1935.27 -1.06094 1.27801 0
M  V30 20299 O 1936.46 -1.08968 1.56623 0
M  V30 20300 C 1933.6 -1.57477 3.07075 0
M  V30 20301 C 1932.71 -0.988468 4.20539 0
M  V30 20302 C 1931.84 -2.08256 4.88675 0
M  V30 20303 C 1930.88 -1.47196 5.94138 0
M  V30 20304 N 1930.02 -2.5052 6.55884 0
M  V30 20305 H 1934.86 0.182092 2.97443 0
M  V30 20306 H 1932.4 0.101628 1.46749 0
M  V30 20307 H 1934.36 -2.23677 3.52171 0
M  V30 20308 H 1932.99 -2.17864 2.38191 0
M  V30 20309 H 1932.04 -0.216168 3.79785 0
M  V30 20310 H 1933.35 -0.502223 4.96265 0
M  V30 20311 H 1932.5 -2.82235 5.37055 0
M  V30 20312 H 1931.24 -2.60239 4.12464 0
M  V30 20313 H 1930.25 -0.717401 5.45099 0
M  V30 20314 H 1931.47 -0.960124 6.72279 0
M  V30 20315 H 1929.42 -3.0168 5.82516 0
M  V30 20316 H 1929.34 -2.0664 7.27211 0
M  V30 20317 H 1930.6 -3.24141 7.0891 0
M  V30 20318 N 1934.83 -1.57178 0.115259 0
M  V30 20319 C 1936.08 -1.94681 -0.542571 0
M  V30 20320 C 1936.4 -0.999211 -1.67454 0
M  V30 20321 O 1935.67 -0.054836 -1.95823 0
M  V30 20322 H 1934.25 -0.718769 -0.203421 0
M  V30 20323 H 1936.91 -1.94036 0.183323 0
M  V30 20324 H 1936.01 -2.9762 -0.939599 0
M  V30 20325 N 1936.31 0.158505 -1.56801 0
M  V30 20326 C 1937.24 1.22518 -1.92522 0
M  V30 20327 C 1938.22 1.42142 -0.789589 0
M  V30 20328 O 1939.41 1.56941 -1.04412 0
M  V30 20329 C 1936.53 2.58604 -2.18728 0
M  V30 20330 C 1935.58 2.55642 -3.41394 0
M  V30 20331 S 1936.41 2.03464 -4.95341 0
M  V30 20332 C 1937.57 3.41302 -5.24656 0
M  V30 20333 H 1937.8 0.920362 -2.82695 0
M  V30 20334 H 1935.33 0.363629 -1.50057 0
M  V30 20335 H 1937.29 3.36923 -2.34506 0
M  V30 20336 H 1935.95 2.8628 -1.29239 0
M  V30 20337 H 1935.15 3.55792 -3.56971 0
M  V30 20338 H 1934.75 1.85426 -3.24797 0
M  V30 20339 H 1937.04 4.37361 -5.17418 0
M  V30 20340 H 1937.98 3.30588 -6.26192 0
M  V30 20341 H 1938.39 3.37906 -4.52194 0
M  V30 20342 N 1937.79 1.51692 0.427485 0
M  V30 20343 C 1938.72 1.76668 1.52679 0
M  V30 20344 C 1939.7 0.616865 1.58521 0
M  V30 20345 O 1940.89 0.860595 1.7409 0
M  V30 20346 C 1938.02 1.9007 2.90673 0
M  V30 20347 C 1936.97 3.05566 2.99689 0
M  V30 20348 C 1936.3 3.04165 4.39759 0
M  V30 20349 C 1937.6 4.45359 2.72861 0
M  V30 20350 H 1939.29 2.68717 1.32029 0
M  V30 20351 H 1936.84 1.29306 0.633716 0
M  V30 20352 H 1938.79 2.06125 3.67546 0
M  V30 20353 H 1937.51 0.946769 3.12576 0
M  V30 20354 H 1936.17 2.89231 2.25257 0
M  V30 20355 H 1935.82 2.0653 4.58644 0
M  V30 20356 H 1935.52 3.81727 4.46719 0
M  V30 20357 H 1937.04 3.22326 5.18592 0
M  V30 20358 H 1938.46 4.61993 3.39463 0
M  V30 20359 H 1936.85 5.24701 2.91219 0
M  V30 20360 H 1937.92 4.54717 1.68405 0
M  V30 20361 N 1939.27 -0.683564 1.42004 0
M  V30 20362 C 1940.51 -1.44363 1.42005 0
M  V30 20363 C 1940.84 -1.94471 0.0333832 0
M  V30 20364 O 1940.1 -1.70716 -0.95679 0
M  V30 20365 C 1940.4 -2.66286 2.38383 0
M  V30 20366 C 1940.06 -2.34769 3.8496 0
M  V30 20367 C 1938.72 -2.25884 4.24888 0
M  V30 20368 C 1941.08 -2.09012 4.77455 0
M  V30 20369 C 1938.4 -1.89356 5.55303 0
M  V30 20370 C 1940.76 -1.73991 6.08202 0
M  V30 20371 C 1939.42 -1.6361 6.47138 0
M  V30 20372 H 1938.69 -0.528262 0.519634 0
M  V30 20373 H 1941.34 -0.780217 1.74885 0
M  V30 20374 H 1939.64 -3.37618 1.98799 0
M  V30 20375 H 1941.34 -3.24452 2.35652 0
M  V30 20376 H 1937.93 -2.42583 3.53343 0
M  V30 20377 H 1942.11 -2.14814 4.47402 0
M  V30 20378 H 1937.37 -1.79882 5.84339 0
M  V30 20379 H 1941.54 -1.53084 6.79366 0
M  V30 20380 H 1939.17 -1.35075 7.48103 0
M  V30 20381 N 1940.75 -1.28031 -0.919012 0
M  V30 20382 C 1941.97 -1.17714 -1.7015 0
M  V30 20383 C 1942.39 0.264914 -1.86932 0
M  V30 20384 O 1941.75 1.17957 -1.39256 0
M  V30 20385 C 1941.8 -1.86548 -3.09648 0
M  V30 20386 O 1941.52 -3.25121 -2.93646 0
M  V30 20387 C 1943.02 -1.82467 -4.04006 0
M  V30 20388 H 1940.24 -0.408863 -0.532045 0
M  V30 20389 H 1942.78 -1.69061 -1.1506 0
M  V30 20390 H 1940.94 -1.39085 -3.61572 0
M  V30 20391 H 1941.35 -3.59518 -3.81899 0
M  V30 20392 H 1942.83 -2.35229 -4.99371 0
M  V30 20393 H 1943.3 -0.795892 -4.31928 0
M  V30 20394 H 1943.91 -2.29585 -3.5801 0
M  V30 20395 N 1942.22 1.12672 -1.10194 0
M  V30 20396 C 1943.45 1.88496 -0.865112 0
M  V30 20397 C 1943.87 1.78977 0.578691 0
M  V30 20398 O 1943.23 1.14292 1.40737 0
M  V30 20399 C 1943.28 3.35768 -1.315 0
M  V30 20400 O 1942.38 4.09615 -0.478447 0
M  V30 20401 H 1941.72 0.585782 -0.312658 0
M  V30 20402 H 1944.25 1.42506 -1.46811 0
M  V30 20403 H 1944.26 3.86605 -1.30385 0
M  V30 20404 H 1942.94 3.42013 -2.36643 0
M  V30 20405 H 1941.52 3.68753 -0.554589 0
M  V30 20406 N 1943.7 0.89031 1.30043 0
M  V30 20407 C 1944.65 0.35066 2.29942 0
M  V30 20408 C 1945.64 -0.545188 1.60387 0
M  V30 20409 O 1946.85 -0.42903 1.74812 0
M  V30 20410 H 1943.22 0.0947502 0.746007 0
M  V30 20411 H 1945.2 1.20676 2.7291 0
M  V30 20412 C 1943.94 -0.415088 3.45213 0
M  V30 20413 H 1943.27 0.265007 3.98921 0
M  V30 20414 H 1944.71 -0.757694 4.17175 0
M  V30 20415 C 1943.17 -1.6142 2.95711 0
M  V30 20416 O 1943.7 -2.71355 2.96191 0
M  V30 20417 N 1941.9 -1.45317 2.51657 0
M  V30 20418 H 1941.45 -0.558807 2.51466 0
M  V30 20419 H 1941.41 -2.25683 2.18894 0
M  V30 20420 N 1945.18 -1.43489 0.651812 0
M  V30 20421 C 1946.43 -2.0183 0.164632 0
M  V30 20422 C 1946.75 -1.51408 -1.2209 0
M  V30 20423 O 1946.01 -0.697062 -1.82865 0
M  V30 20424 C 1946.31 -3.57189 0.122885 0
M  V30 20425 C 1945.97 -4.2695 1.44997 0
M  V30 20426 C 1944.64 -4.45724 1.81339 0
M  V30 20427 C 1946.99 -4.66468 2.32501 0
M  V30 20428 C 1944.32 -5.0128 3.04853 0
M  V30 20429 C 1946.67 -5.23393 3.55306 0
M  V30 20430 C 1945.33 -5.40383 3.91845 0
M  V30 20431 H 1944.6 -0.738547 0.0602433 0
M  V30 20432 H 1947.25 -1.71984 0.842241 0
M  V30 20433 H 1945.55 -3.86568 -0.638169 0
M  V30 20434 H 1947.25 -4.00084 -0.270911 0
M  V30 20435 H 1943.84 -4.12682 1.15721 0
M  V30 20436 H 1948.03 -4.51658 2.05715 0
M  V30 20437 H 1943.28 -5.1262 3.33213 0
M  V30 20438 H 1947.46 -5.52961 4.23329 0
M  V30 20439 H 1945.08 -5.83197 4.87632 0
M  V30 20440 N 1946.66 -0.393643 -1.52605 0
M  V30 20441 C 1947.9 0.187431 -2.01932 0
M  V30 20442 C 1948.24 1.46098 -1.27942 0
M  V30 20443 O 1947.51 1.90729 -0.381154 0
M  V30 20444 C 1947.79 0.450933 -3.57265 0
M  V30 20445 C 1947.65 -0.838204 -4.41921 0
M  V30 20446 C 1948.97 1.23971 -4.22278 0
M  V30 20447 H 1946.09 0.0666471 -0.73398 0
M  V30 20448 H 1948.73 -0.524064 -1.8263 0
M  V30 20449 H 1946.88 1.05703 -3.73844 0
M  V30 20450 H 1948.55 -1.47492 -4.37086 0
M  V30 20451 H 1946.79 -1.45258 -4.08757 0
M  V30 20452 H 1947.46 -0.608424 -5.48637 0
M  V30 20453 H 1949.94 0.726733 -4.09705 0
M  V30 20454 H 1948.82 1.39283 -5.30935 0
M  V30 20455 H 1949.08 2.25611 -3.802 0
M  V30 20456 N 1948.14 1.57115 -0.123593 0
M  V30 20457 C 1949.07 2.18573 0.821462 0
M  V30 20458 C 1950.05 1.1271 1.27399 0
M  V30 20459 O 1951.23 1.40964 1.33577 0
M  V30 20460 C 1948.36 2.78879 2.06987 0
M  V30 20461 C 1947.32 3.90365 1.75497 0
M  V30 20462 C 1946.64 4.37499 3.07406 0
M  V30 20463 C 1947.94 5.12249 1.01972 0
M  V30 20464 H 1949.64 2.97798 0.309319 0
M  V30 20465 H 1947.18 1.43244 0.147338 0
M  V30 20466 H 1949.13 3.20534 2.73562 0
M  V30 20467 H 1947.86 1.96951 2.60534 0
M  V30 20468 H 1946.52 3.49293 1.1131 0
M  V30 20469 H 1946.17 3.52424 3.58896 0
M  V30 20470 H 1945.87 5.12682 2.87108 0
M  V30 20471 H 1947.39 4.81808 3.75091 0
M  V30 20472 H 1948.8 5.50894 1.58709 0
M  V30 20473 H 1947.2 5.93044 0.917526 0
M  V30 20474 H 1948.27 4.84899 0.00726173 0
M  V30 20475 N 1949.61 -0.150187 1.56883 0
M  V30 20476 C 1950.58 -1.16943 1.97122 0
M  V30 20477 C 1951.58 -1.36037 0.857354 0
M  V30 20478 O 1952.77 -1.33083 1.12403 0
M  V30 20479 C 1949.9 -2.53037 2.2844 0
M  V30 20480 H 1951.09 -0.824297 2.88349 0
M  V30 20481 H 1948.64 -0.393414 1.51268 0
M  V30 20482 H 1949.38 -2.92527 1.39994 0
M  V30 20483 H 1949.16 -2.4054 3.0965 0
M  V30 20484 H 1950.65 -3.26452 2.6042 0
M  V30 20485 N 1951.09 -1.51916 -0.419434 0
M  V30 20486 C 1952.32 -1.69592 -1.19387 0
M  V30 20487 C 1952.74 -0.400225 -1.83793 0
M  V30 20488 O 1952.1 0.641368 -1.69576 0
M  V30 20489 C 1952.15 -2.8256 -2.24036 0
M  V30 20490 O 1951.25 -2.4741 -3.29942 0
M  V30 20491 H 1950.59 -0.564898 -0.348978 0
M  V30 20492 H 1953.12 -1.9857 -0.493064 0
M  V30 20493 H 1953.13 -3.07171 -2.68533 0
M  V30 20494 H 1951.81 -3.76572 -1.7654 0
M  V30 20495 H 1950.39 -2.33435 -2.90796 0
M  V30 20496 N 1952.57 0.676023 -1.42365 0
M  V30 20497 C 1953.8 1.46436 -1.46164 0
M  V30 20498 C 1954.21 1.8866 -0.0726092 0
M  V30 20499 O 1953.57 1.58056 0.912395 0
M  V30 20500 C 1953.62 2.71428 -2.38766 0
M  V30 20501 O 1953.34 2.30976 -3.72266 0
M  V30 20502 C 1954.84 3.65001 -2.51573 0
M  V30 20503 H 1952.06 0.450625 -0.49717 0
M  V30 20504 H 1954.61 0.830748 -1.86866 0
M  V30 20505 H 1952.76 3.30981 -2.01321 0
M  V30 20506 H 1953.18 3.11682 -4.21846 0
M  V30 20507 H 1954.65 4.49432 -3.20492 0
M  V30 20508 H 1955.13 4.10818 -1.55322 0
M  V30 20509 H 1955.73 3.11342 -2.89735 0
M  V30 20510 N 1954.05 1.28517 0.912209 0
M  V30 20511 C 1955 1.12437 2.03619 0
M  V30 20512 C 1955.99 0.0432331 1.69345 0
M  V30 20513 O 1957.2 0.202116 1.78862 0
M  V30 20514 H 1953.57 0.34694 0.667185 0
M  V30 20515 H 1955.54 2.07625 2.14323 0
M  V30 20516 C 1954.29 0.804603 3.38262 0
M  V30 20517 H 1953.61 1.62849 3.65131 0
M  V30 20518 H 1955.05 0.732055 4.17633 0
M  V30 20519 C 1953.51 -0.491715 3.33292 0
M  V30 20520 O 1954.04 -1.52155 3.71768 0
M  V30 20521 N 1952.25 -0.493007 2.86388 0
M  V30 20522 H 1951.8 0.34549 2.55273 0
M  V30 20523 H 1951.75 -1.36038 2.83445 0
M  V30 20524 N 1955.53 -1.12086 1.1079 0
M  V30 20525 C 1956.75 -1.88034 0.875097 0
M  V30 20526 C 1957.18 -1.79281 -0.569191 0
M  V30 20527 O 1956.53 -1.15037 -1.40129 0
M  V30 20528 C 1956.58 -3.35066 1.33278 0
M  V30 20529 O 1955.69 -4.09356 0.500163 0
M  V30 20530 H 1955.03 -0.584116 0.31576 0
M  V30 20531 H 1957.56 -1.41725 1.47564 0
M  V30 20532 H 1957.57 -3.85908 1.32434 0
M  V30 20533 H 1956.24 -3.40753 2.38453 0
M  V30 20534 H 1954.82 -3.68454 0.574137 0
M  V30 20535 N 1957 -0.897194 -1.29569 0
M  V30 20536 C 1957.95 -0.362849 -2.29752 0
M  V30 20537 C 1958.95 0.536674 -1.60674 0
M  V30 20538 O 1960.15 0.419753 -1.75037 0
M  V30 20539 H 1956.53 -0.0987052 -0.745494 0
M  V30 20540 H 1958.5 -1.22122 -2.72266 0
M  V30 20541 C 1957.25 0.396775 -3.45429 0
M  V30 20542 H 1956.57 -0.286159 -3.98775 0
M  V30 20543 H 1958.01 0.73556 -4.17571 0
M  V30 20544 C 1956.47 1.59849 -2.96563 0
M  V30 20545 O 1957 2.69781 -2.97626 0
M  V30 20546 N 1955.21 1.4398 -2.52424 0
M  V30 20547 H 1954.75 0.545463 -2.51759 0
M  V30 20548 H 1954.71 2.24519 -2.20088 0
M  V30 20549 N 1958.48 1.43142 -0.659413 0
M  V30 20550 C 1959.71 2.06087 -0.183265 0
M  V30 20551 C 1960.13 1.49462 1.15354 0
M  V30 20552 O 1959.48 0.628341 1.71342 0
M  V30 20553 C 1959.53 3.61381 -0.0928701 0
M  V30 20554 O 1959.25 4.15902 -1.37684 0
M  V30 20555 C 1960.76 4.41413 0.408616 0
M  V30 20556 H 1957.98 0.664557 -0.092765 0
M  V30 20557 H 1960.52 1.83542 -0.901809 0
M  V30 20558 H 1958.67 3.8309 0.576268 0
M  V30 20559 H 1959.09 5.09629 -1.24009 0
M  V30 20560 H 1960.56 5.50394 0.420806 0
M  V30 20561 H 1961.04 4.14885 1.44108 0
M  V30 20562 H 1961.65 4.24687 -0.228247 0
M  V30 20563 N 1959.96 0.40173 1.52394 0
M  V30 20564 C 1960.89 -0.41861 2.29717 0
M  V30 20565 C 1961.87 -1.05263 1.33618 0
M  V30 20566 O 1963.06 -1.06304 1.62521 0
M  V30 20567 C 1960.19 -1.5395 3.11314 0
M  V30 20568 C 1959.14 -1.03088 4.154 0
M  V30 20569 C 1958.47 -2.2448 4.85297 0
M  V30 20570 C 1959.77 -0.0900956 5.22222 0
M  V30 20571 H 1961.46 0.226577 2.98541 0
M  V30 20572 H 1959.01 0.110411 1.43576 0
M  V30 20573 H 1960.96 -2.12031 3.64171 0
M  V30 20574 H 1959.68 -2.21246 2.40246 0
M  V30 20575 H 1958.34 -0.472515 3.63542 0
M  V30 20576 H 1957.99 -2.90313 4.10764 0
M  V30 20577 H 1957.69 -1.91103 5.55656 0
M  V30 20578 H 1959.21 -2.83181 5.40963 0
M  V30 20579 H 1960.63 -0.579479 5.70364 0
M  V30 20580 H 1959.03 0.154505 5.99901 0
M  V30 20581 H 1960.1 0.857375 4.7726 0
M  V30 20582 N 1961.44 -1.57047 0.131923 0
M  V30 20583 C 1962.66 -2.00419 -0.533574 0
M  V30 20584 C 1963.09 -1.01125 -1.58605 0
M  V30 20585 O 1962.45 0.0152254 -1.81294 0
M  V30 20586 C 1962.49 -3.42611 -1.12472 0
M  V30 20587 O 1961.6 -3.46263 -2.23999 0
M  V30 20588 H 1960.94 -0.650739 -0.132043 0
M  V30 20589 H 1963.47 -2.03368 0.224211 0
M  V30 20590 H 1963.48 -3.81094 -1.45709 0
M  V30 20591 H 1962.15 -4.14392 -0.353895 0
M  V30 20592 H 1960.73 -3.1961 -1.92103 0
M  V30 20593 N 1962.92 0.141865 -1.5696 0
M  V30 20594 C 1964.33 0.701408 -1.73024 0
M  V30 20595 C 1964.68 1.81418 -0.747124 0
M  V30 20596 O 1963.8 2.16233 0.0851134 0
M  V30 20597 C 1964.4 1.2791 -3.13727 0
M  V30 20598 C 1962.96 1.78516 -3.31374 0
M  V30 20599 C 1962.1 0.67567 -2.68942 0
M  V30 20600 H 1965.06 -0.083853 -1.58478 0
M  V30 20601 H 1965.08 2.1489 -3.14011 0
M  V30 20602 H 1964.59 0.468988 -3.85256 0
M  V30 20603 H 1962.69 2.62078 -2.6485 0
M  V30 20604 H 1962.8 1.91034 -4.39366 0
M  V30 20605 H 1961.17 1.10358 -2.2955 0
M  V30 20606 H 1961.95 -0.123088 -3.43079 0
M  V30 20607 N 1964.39 1.52136 0.411372 0
M  V30 20608 C 1965.81 1.58274 0.990272 0
M  V30 20609 C 1966.16 0.421874 1.91611 0
M  V30 20610 O 1965.28 -0.458058 2.11497 0
M  V30 20611 C 1965.88 2.86855 1.80276 0
M  V30 20612 C 1964.44 2.95478 2.33173 0
M  V30 20613 C 1963.58 2.5319 1.13093 0
M  V30 20614 H 1966.53 1.57538 0.191687 0
M  V30 20615 H 1966.55 2.72082 2.65992 0
M  V30 20616 H 1966.07 3.71326 1.12866 0
M  V30 20617 H 1964.17 2.15496 3.03961 0
M  V30 20618 H 1964.28 3.99674 2.64192 0
M  V30 20619 H 1962.64 2.06986 1.48421 0
M  V30 20620 H 1963.43 3.40032 0.472529 0
M  V30 20621 N 1965.87 -0.668464 1.42721 0
M  V30 20622 C 1967.1 -1.45659 1.46939 0
M  V30 20623 C 1967.52 -1.88619 0.0826133 0
M  V30 20624 O 1966.87 -1.58537 -0.904 0
M  V30 20625 C 1966.92 -2.70158 2.40202 0
M  V30 20626 O 1966.65 -2.28999 3.73485 0
M  V30 20627 C 1968.15 -3.63662 2.53505 0
M  V30 20628 H 1965.37 -0.447982 0.499553 0
M  V30 20629 H 1967.91 -0.820826 1.87304 0
M  V30 20630 H 1966.07 -3.29909 2.03074 0
M  V30 20631 H 1966.48 -3.09441 4.23493 0
M  V30 20632 H 1967.95 -4.47726 3.22871 0
M  V30 20633 H 1968.43 -4.09989 1.57498 0
M  V30 20634 H 1969.04 -3.09801 2.91382 0
M  V30 20635 N 1967.35 -1.28999 -0.905381 0
M  V30 20636 C 1968.6 -1.16014 -1.64996 0
M  V30 20637 C 1968.91 0.288766 -1.93457 0
M  V30 20638 O 1970.12 0.539847 -2.66079 0
M  V30 20639 C 1968.58 -2.02866 -2.97276 0
M  V30 20640 C 1968.18 -3.52547 -2.76432 0
M  V30 20641 C 1969.93 -1.98591 -3.75182 0
M  V30 20642 C 1967.83 -4.31522 -4.04404 0
M  V30 20643 H 1966.76 -0.430598 -0.618952 0
M  V30 20644 H 1969.42 -1.53594 -1.00404 0
M  V30 20645 H 1967.8 -1.5815 -3.63049 0
M  V30 20646 H 1968.97 -4.05277 -2.19287 0
M  V30 20647 H 1967.29 -3.58435 -2.11928 0
M  V30 20648 H 1969.88 -2.54859 -4.70054 0
M  V30 20649 H 1970.23 -0.964577 -4.04971 0
M  V30 20650 H 1970.76 -2.41321 -3.16242 0
M  V30 20651 H 1967.5 -5.3427 -3.79784 0
M  V30 20652 H 1967.02 -3.83563 -4.61129 0
M  V30 20653 H 1968.7 -4.41885 -4.72596 0
M  V30 20654 N 1968.83 1.11497 -1.11383 0
M  V30 20655 C 1969.76 2.19592 -0.793827 0
M  V30 20656 C 1970.74 1.68433 0.237559 0
M  V30 20657 O 1971.93 1.93936 0.101164 0
M  V30 20658 C 1969.06 3.465 -0.235579 0
M  V30 20659 C 1968.01 4.10869 -1.19877 0
M  V30 20660 C 1967.34 5.32345 -0.501259 0
M  V30 20661 C 1968.64 4.55864 -2.54922 0
M  V30 20662 H 1970.33 2.46617 -1.69766 0
M  V30 20663 H 1967.88 1.18532 -0.817695 0
M  V30 20664 H 1969.83 4.214 0.000490272 0
M  V30 20665 H 1968.55 3.18932 0.703544 0
M  V30 20666 H 1967.21 3.37962 -1.42046 0
M  V30 20667 H 1966.86 5.01048 0.442652 0
M  V30 20668 H 1966.56 5.76363 -1.14367 0
M  V30 20669 H 1968.08 6.09985 -0.273968 0
M  V30 20670 H 1969.5 5.22089 -2.36845 0
M  V30 20671 H 1967.89 5.10693 -3.15139 0
M  V30 20672 H 1968.96 3.69342 -3.14189 0
M  V30 20673 N 1970.31 0.904053 1.29092 0
M  V30 20674 C 1971.26 0.375028 2.29557 0
M  V30 20675 C 1972.25 -0.528146 1.60956 0
M  V30 20676 O 1973.46 -0.410465 1.75257 0
M  V30 20677 H 1969.83 0.102657 0.74496 0
M  V30 20678 H 1971.8 1.23564 2.71615 0
M  V30 20679 C 1970.55 -0.37845 3.45634 0
M  V30 20680 H 1969.87 0.307303 3.98617 0
M  V30 20681 H 1971.31 -0.713405 4.17955 0
M  V30 20682 C 1969.77 -1.58274 2.97407 0
M  V30 20683 O 1970.3 -2.68199 2.99052 0
M  V30 20684 N 1968.51 -1.4264 2.53184 0
M  V30 20685 H 1968.06 -0.532104 2.52044 0
M  V30 20686 H 1968.01 -2.23348 2.21276 0
M  V30 20687 N 1971.79 -1.4279 0.666995 0
M  V30 20688 C 1973.2 -1.84821 0.264217 0
M  V30 20689 C 1973.55 -1.55834 -1.19206 0
M  V30 20690 O 1972.67 -1.01422 -1.91161 0
M  V30 20691 C 1973.27 -3.35485 0.47276 0
M  V30 20692 C 1971.83 -3.76195 0.124176 0
M  V30 20693 C 1970.97 -2.66424 0.768989 0
M  V30 20694 H 1973.92 -1.32747 0.869709 0
M  V30 20695 H 1973.95 -3.79487 -0.277532 0
M  V30 20696 H 1973.46 -3.56551 1.53274 0
M  V30 20697 H 1971.56 -3.60738 -0.932667 0
M  V30 20698 H 1971.67 -4.75825 0.559251 0
M  V30 20699 H 1970.04 -2.53906 0.200994 0
M  V30 20700 H 1970.82 -2.90315 1.83227 0
M  V30 20701 N 1973.26 -0.409806 -1.52179 0
M  V30 20702 C 1974.17 0.42219 -2.3077 0
M  V30 20703 C 1975.19 1.05295 -1.38524 0
M  V30 20704 O 1976.37 1.05432 -1.71599 0
M  V30 20705 C 1973.43 1.52345 -3.11435 0
M  V30 20706 C 1972.49 0.91568 -4.19421 0
M  V30 20707 C 1971.72 1.96446 -4.9623 0
M  V30 20708 O 1971.95 3.18271 -4.7335 0
M  V30 20709 O 1970.88 1.57032 -5.81055 0
M  V30 20710 H 1974.71 -0.218635 -3.02912 0
M  V30 20711 H 1972.29 -0.172994 -1.48395 0
M  V30 20712 H 1974.17 2.16276 -3.61666 0
M  V30 20713 H 1972.85 2.14886 -2.42086 0
M  V30 20714 H 1971.76 0.239064 -3.73335 0
M  V30 20715 H 1973.09 0.33418 -4.91064 0
M  V30 20716 N 1974.74 1.56975 -0.14025 0
M  V30 20717 C 1975.7 2.15234 0.78784 0
M  V30 20718 C 1976.7 1.09243 1.17994 0
M  V30 20719 O 1977.89 1.34916 1.10197 0
M  V30 20720 C 1975.03 2.70994 2.06821 0
M  V30 20721 H 1976.22 2.98579 0.281166 0
M  V30 20722 H 1973.77 1.55918 0.109151 0
M  V30 20723 H 1974.51 1.91297 2.6187 0
M  V30 20724 H 1974.29 3.48532 1.79633 0
M  V30 20725 H 1975.78 3.15904 2.7312 0
M  V30 20726 N 1976.22 -0.133539 1.57033 0
M  V30 20727 C 1977.15 -1.16595 2.02306 0
M  V30 20728 C 1978.13 -1.44031 0.904933 0
M  V30 20729 O 1979.32 -1.54721 1.17367 0
M  V30 20730 C 1976.45 -2.49581 2.41509 0
M  V30 20731 C 1975.4 -2.36639 3.56631 0
M  V30 20732 C 1974.73 -3.74457 3.81688 0
M  V30 20733 C 1976.03 -1.83912 4.88849 0
M  V30 20734 H 1977.72 -0.789456 2.88804 0
M  V30 20735 H 1975.27 -0.378309 1.38942 0
M  V30 20736 H 1977.22 -3.22043 2.71783 0
M  V30 20737 H 1975.94 -2.89093 1.51964 0
M  V30 20738 H 1974.6 -1.66628 3.26544 0
M  V30 20739 H 1974.25 -4.11428 2.89372 0
M  V30 20740 H 1973.95 -3.66655 4.59171 0
M  V30 20741 H 1975.47 -4.48446 4.14401 0
M  V30 20742 H 1976.89 -2.46178 5.17754 0
M  V30 20743 H 1975.28 -1.86967 5.70231 0
M  V30 20744 H 1976.35 -0.795669 4.78327 0
M  V30 20745 N 1977.7 -1.52352 -0.403298 0
M  V30 20746 C 1978.94 -1.66944 -1.15141 0
M  V30 20747 C 1979.28 -0.401064 -1.90013 0
M  V30 20748 O 1978.55 0.60071 -1.84991 0
M  V30 20749 C 1978.83 -2.89526 -2.14118 0
M  V30 20750 C 1978.69 -4.26428 -1.43104 0
M  V30 20751 C 1980.01 -3.07636 -3.14719 0
M  V30 20752 H 1977.13 -0.607531 -0.417223 0
M  V30 20753 H 1979.77 -1.84919 -0.436447 0
M  V30 20754 H 1977.92 -2.74332 -2.7509 0
M  V30 20755 H 1979.59 -4.53362 -0.852075 0
M  V30 20756 H 1977.83 -4.27563 -0.732965 0
M  V30 20757 H 1978.5 -5.08258 -2.15355 0
M  V30 20758 H 1980.98 -3.21767 -2.63828 0
M  V30 20759 H 1979.86 -3.94909 -3.81232 0
M  V30 20760 H 1980.12 -2.2121 -3.82777 0
M  V30 20761 N 1979.18 0.660885 -1.43074 0
M  V30 20762 C 1980.59 0.97566 -1.26305 0
M  V30 20763 C 1980.79 2.00719 -0.17724 0
M  V30 20764 O 1979.85 2.48514 0.446896 0
M  V30 20765 C 1981.16 1.46722 -2.62475 0
M  V30 20766 C 1982.71 1.58427 -2.69944 0
M  V30 20767 C 1983.18 2.10976 -4.06514 0
M  V30 20768 N 1984.67 2.18289 -4.08539 0
M  V30 20769 C 1985.41 2.60054 -5.11038 0
M  V30 20770 N 1984.91 3.01171 -6.23913 0
M  V30 20771 N 1986.7 2.59926 -4.98392 0
M  V30 20772 H 1978.85 -0.02183 -2.12389 0
M  V30 20773 H 1981.11 0.0527972 -0.946529 0
M  V30 20774 H 1980.82 0.783712 -3.42857 0
M  V30 20775 H 1980.69 2.44359 -2.87348 0
M  V30 20776 H 1983.08 2.25881 -1.899 0
M  V30 20777 H 1983.16 0.592433 -2.48845 0
M  V30 20778 H 1982.8 1.44126 -4.87022 0
M  V30 20779 H 1982.73 3.10976 -4.24972 0
M  V30 20780 H 1985.23 1.89317 -3.27059 0
M  V30 20781 H 1985.54 3.31766 -6.97962 0
M  V30 20782 H 1983.88 2.98994 -6.27398 0
M  V30 20783 H 1987.07 2.27175 -4.09279 0
M  V30 20784 H 1987.25 2.92154 -5.78403 0
M  V30 20785 N 1980.65 1.29477 0.898527 0
M  V30 20786 C 1982.07 1.07514 1.17953 0
M  V30 20787 C 1982.27 -0.172814 2.00758 0
M  V30 20788 O 1981.33 -0.87025 2.37029 0
M  V30 20789 C 1982.64 2.33121 1.89934 0
M  V30 20790 C 1984.19 2.38452 2.02755 0
M  V30 20791 C 1984.66 3.63866 2.78146 0
M  V30 20792 N 1986.15 3.64595 2.857 0
M  V30 20793 C 1986.89 4.58319 3.44574 0
M  V30 20794 N 1986.38 5.62376 4.04605 0
M  V30 20795 N 1988.18 4.45887 3.42259 0
M  V30 20796 H 1980.33 2.09562 0.346076 0
M  V30 20797 H 1982.59 0.923108 0.215814 0
M  V30 20798 H 1982.3 3.2412 1.36526 0
M  V30 20799 H 1982.17 2.40721 2.90402 0
M  V30 20800 H 1984.56 1.47941 2.55338 0
M  V30 20801 H 1984.64 2.34837 1.01416 0
M  V30 20802 H 1984.28 4.54729 2.26239 0
M  V30 20803 H 1984.21 3.6474 3.79832 0
M  V30 20804 H 1986.7 2.89358 2.43064 0
M  V30 20805 H 1987.02 6.30012 4.47555 0
M  V30 20806 H 1985.36 5.66184 4.03064 0
M  V30 20807 H 1988.55 3.63786 2.9458 0
M  V30 20808 H 1988.73 5.19113 3.87848 0
M  V30 20809 N 1982.13 -1.10905 1.11972 0
M  V30 20810 C 1983.38 -1.82762 0.872019 0
M  V30 20811 C 1983.71 -1.84941 -0.602247 0
M  V30 20812 O 1982.96 -1.30212 -1.46094 0
M  V30 20813 C 1983.26 -3.29439 1.38581 0
M  V30 20814 C 1982.93 -3.47414 2.87427 0
M  V30 20815 C 1981.59 -3.52027 3.2807 0
M  V30 20816 C 1983.94 -3.53209 3.83266 0
M  V30 20817 C 1981.27 -3.59998 4.63269 0
M  V30 20818 C 1983.62 -3.62712 5.18288 0
M  V30 20819 C 1982.29 -3.65588 5.58482 0
M  V30 20820 H 1981.56 -0.668775 0.319094 0
M  V30 20821 H 1984.2 -1.30759 1.39908 0
M  V30 20822 H 1982.51 -3.83976 0.779104 0
M  V30 20823 H 1984.2 -3.83539 1.17042 0
M  V30 20824 H 1980.79 -3.44497 2.5499 0
M  V30 20825 H 1984.98 -3.489 3.52963 0
M  V30 20826 H 1980.23 -3.60504 4.93808 0
M  V30 20827 H 1984.41 -3.6614 5.9238 0
M  V30 20828 H 1982.04 -3.71517 6.63234 0
M  V30 20829 N 1983.61 -0.910886 -1.2861 0
M  V30 20830 C 1984.86 -0.541485 -1.94711 0
M  V30 20831 C 1985.18 0.917302 -1.72077 0
M  V30 20832 O 1984.45 1.64818 -1.05885 0
M  V30 20833 H 1983.03 -0.197263 -0.720483 0
M  V30 20834 H 1985.69 -1.15962 -1.56649 0
M  V30 20835 H 1984.79 -0.73351 -3.03358 0
M  V30 20836 N 1985.09 1.42434 -0.674558 0
M  V30 20837 C 1986.34 2.01542 -0.196721 0
M  V30 20838 C 1986.66 1.53331 1.19666 0
M  V30 20839 O 1985.92 0.726066 1.81733 0
M  V30 20840 C 1986.22 3.56948 -0.179695 0
M  V30 20841 C 1985.88 4.2459 -1.51771 0
M  V30 20842 C 1984.55 4.42782 -1.88407 0
M  V30 20843 C 1986.9 4.6271 -2.39893 0
M  V30 20844 C 1984.23 4.96367 -3.12789 0
M  V30 20845 C 1986.58 5.17675 -3.63587 0
M  V30 20846 C 1985.24 5.34081 -4.00392 0
M  V30 20847 H 1984.51 0.737495 -0.0719853 0
M  V30 20848 H 1987.16 1.70622 -0.869495 0
M  V30 20849 H 1985.46 3.87534 0.576588 0
M  V30 20850 H 1987.16 4.00464 0.207226 0
M  V30 20851 H 1983.75 4.10789 -1.22271 0
M  V30 20852 H 1987.93 4.48328 -2.12874 0
M  V30 20853 H 1983.19 5.07254 -3.41326 0
M  V30 20854 H 1987.36 5.46156 -4.32072 0
M  V30 20855 H 1984.99 5.75366 -4.96848 0
M  V30 20856 N 1986.57 0.417871 1.51959 0
M  V30 20857 C 1987.84 -0.214034 1.94425 0
M  V30 20858 C 1988.22 -1.61845 1.35534 0
M  V30 20859 O 1987.57 -2.22158 0.534606 0
M  V30 20860 C 1987.78 -0.211518 3.48358 0
M  V30 20861 C 1989.13 -0.426614 4.22451 0
M  V30 20862 O 1990.15 -0.290493 3.55013 0
M  V30 20863 O 1989.01 -0.695682 5.42054 0
M  V30 20864 H 1986.11 -0.140439 0.814988 0
M  V30 20865 H 1988.65 0.474446 1.62933 0
M  V30 20866 H 1987.42 0.771087 3.83627 0
M  V30 20867 H 1987.05 -0.943731 3.86238 0
M  V30 20868 N 1988.04 -1.56898 0.148573 0
M  V30 20869 C 1988.97 -2.19852 -0.786585 0
M  V30 20870 C 1989.96 -1.14723 -1.2559 0
M  V30 20871 O 1991.14 -1.43071 -1.31317 0
M  V30 20872 C 1988.27 -2.82137 -2.02524 0
M  V30 20873 C 1987.22 -3.93108 -1.69264 0
M  V30 20874 C 1986.55 -4.42335 -3.00407 0
M  V30 20875 C 1987.85 -5.13807 -0.938092 0
M  V30 20876 H 1989.54 -2.98252 -0.261903 0
M  V30 20877 H 1987.09 -1.43461 -0.124531 0
M  V30 20878 H 1989.04 -3.24845 -2.68428 0
M  V30 20879 H 1987.77 -2.01071 -2.57368 0
M  V30 20880 H 1986.43 -3.5102 -1.05739 0
M  V30 20881 H 1986.07 -3.58089 -3.53244 0
M  V30 20882 H 1985.77 -5.17185 -2.78915 0
M  V30 20883 H 1987.3 -4.87714 -3.67378 0
M  V30 20884 H 1988.71 -5.53349 -1.49924 0
M  V30 20885 H 1987.11 -5.94429 -0.823062 0
M  V30 20886 H 1988.18 -4.8485 0.0698825 0
M  V30 20887 N 1989.52 0.125209 -1.57102 0
M  V30 20888 C 1990.8 0.864033 -1.75482 0
M  V30 20889 C 1991.18 1.98355 -0.722399 0
M  V30 20890 O 1990.53 2.27075 0.254784 0
M  V30 20891 C 1990.74 1.38644 -3.20279 0
M  V30 20892 C 1992.09 1.84125 -3.82601 0
M  V30 20893 O 1993.11 1.48338 -3.23843 0
M  V30 20894 O 1991.97 2.50194 -4.85866 0
M  V30 20895 H 1989.06 0.409865 -0.718289 0
M  V30 20896 H 1991.61 0.109434 -1.69347 0
M  V30 20897 H 1990.38 0.582938 -3.86933 0
M  V30 20898 H 1990 2.20393 -3.30927 0
M  V30 20899 N 1991 1.52564 0.395213 0
M  V30 20900 C 1992.25 1.6653 1.13801 0
M  V30 20901 C 1992.56 0.408362 1.9129 0
M  V30 20902 O 1993.77 0.428049 2.68104 0
M  V30 20903 C 1992.22 2.94273 2.07199 0
M  V30 20904 C 1991.83 4.27125 1.35162 0
M  V30 20905 C 1993.58 3.17604 2.81652 0
M  V30 20906 C 1991.48 5.4598 2.27289 0
M  V30 20907 H 1990.41 0.620392 0.428521 0
M  V30 20908 H 1993.06 1.79058 0.401302 0
M  V30 20909 H 1991.45 2.75477 2.8448 0
M  V30 20910 H 1992.62 4.56452 0.631492 0
M  V30 20911 H 1990.94 4.10006 0.726934 0
M  V30 20912 H 1993.53 4.03582 3.5075 0
M  V30 20913 H 1993.88 2.32415 3.45382 0
M  V30 20914 H 1994.41 3.36938 2.11466 0
M  V30 20915 H 1991.15 6.33557 1.68184 0
M  V30 20916 H 1990.67 5.20972 2.97235 0
M  V30 20917 H 1992.35 5.79609 2.8751 0
M  V30 20918 N 1992.48 -0.653289 1.43422 0
M  V30 20919 C 1993.72 -1.42498 1.46539 0
M  V30 20920 C 1994.08 -1.91802 0.087095 0
M  V30 20921 O 1995.28 -2.68799 -0.00704917 0
M  V30 20922 C 1993.55 -2.57481 2.47868 0
M  V30 20923 S 1995.11 -3.46008 2.69859 0
M  V30 20924 H 1991.93 -0.486421 0.518571 0
M  V30 20925 H 1994.53 -0.758465 1.80188 0
M  V30 20926 H 1993.24 -2.19533 3.46747 0
M  V30 20927 H 1992.77 -3.28983 2.15717 0
M  V30 20928 H 1994.78 -4.54205 1.9978 0
M  V30 20929 N 1993.96 -1.29952 -0.891648 0
M  V30 20930 C 1994.89 -1.18331 -2.01296 0
M  V30 20931 C 1995.87 -0.0755571 -1.69932 0
M  V30 20932 O 1997.05 -0.256435 -1.92499 0
M  V30 20933 C 1994.18 -0.867421 -3.36293 0
M  V30 20934 C 1993.14 -1.93237 -3.81894 0
M  V30 20935 C 1992.46 -1.46962 -5.14107 0
M  V30 20936 C 1993.76 -3.34246 -4.01344 0
M  V30 20937 H 1995.46 -2.12138 -2.11276 0
M  V30 20938 H 1993 -1.02132 -1.01514 0
M  V30 20939 H 1994.96 -0.772806 -4.14253 0
M  V30 20940 H 1993.68 0.106342 -3.26427 0
M  V30 20941 H 1992.34 -2.01651 -3.06157 0
M  V30 20942 H 1991.99 -0.484311 -5.00663 0
M  V30 20943 H 1991.69 -2.1819 -5.45589 0
M  V30 20944 H 1993.21 -1.38866 -5.94599 0
M  V30 20945 H 1994.62 -3.28629 -4.69762 0
M  V30 20946 H 1993.02 -4.03502 -4.44192 0
M  V30 20947 H 1994.09 -3.76629 -3.05415 0
M  V30 20948 N 1995.44 1.1031 -1.12559 0
M  V30 20949 C 1996.39 2.14835 -0.763553 0
M  V30 20950 C 1997.37 1.59129 0.238075 0
M  V30 20951 O 1998.56 1.76947 0.043378 0
M  V30 20952 C 1995.69 3.42586 -0.221241 0
M  V30 20953 C 1994.78 4.05222 -1.25124 0
M  V30 20954 N 1995.17 4.42543 -2.44927 0
M  V30 20955 C 1993.47 4.32301 -1.0969 0
M  V30 20956 C 1994.17 4.91767 -3.10709 0
M  V30 20957 N 1993.14 4.88655 -2.38154 0
M  V30 20958 H 1996.94 2.41484 -1.67519 0
M  V30 20959 H 1994.46 1.27445 -1.00656 0
M  V30 20960 H 1996.46 4.16862 0.0563207 0
M  V30 20961 H 1995.12 3.17396 0.684837 0
M  V30 20962 H 1996.13 4.34197 -2.82299 0
M  V30 20963 H 1992.8 4.16761 -0.248225 0
M  V30 20964 H 1994.19 5.30181 -4.12744 0
M  V30 20965 N 1996.91 0.917694 1.28125 0
M  V30 20966 C 1998.14 0.568889 1.98925 0
M  V30 20967 C 1998.56 -0.85076 1.68545 0
M  V30 20968 O 1997.91 -1.56406 0.940399 0
M  V30 20969 C 1997.96 0.773181 3.53135 0
M  V30 20970 O 1997.69 2.13697 3.82446 0
M  V30 20971 C 1999.19 0.431738 4.41193 0
M  V30 20972 H 1996.41 0.21651 0.63511 0
M  V30 20973 H 1998.95 1.23198 1.63226 0
M  V30 20974 H 1997.11 0.157034 3.87082 0
M  V30 20975 H 1997.52 2.17956 4.7707 0
M  V30 20976 H 1998.99 0.625431 5.48445 0
M  V30 20977 H 1999.47 -0.632236 4.34626 0
M  V30 20978 H 2000.08 1.02559 4.12749 0
M  V30 20979 N 1998.39 -1.42074 0.682102 0
M  V30 20980 C 1999.62 -2.05769 0.216029 0
M  V30 20981 C 2000.03 -1.51278 -1.12962 0
M  V30 20982 O 1999.39 -0.655521 -1.70321 0
M  V30 20983 C 1999.44 -3.61187 0.150351 0
M  V30 20984 O 1999.16 -4.13659 1.44283 0
M  V30 20985 C 2000.66 -4.42007 -0.338339 0
M  V30 20986 H 1997.88 -0.662997 0.103326 0
M  V30 20987 H 2000.43 -1.82084 0.930895 0
M  V30 20988 H 1998.58 -3.83958 -0.515249 0
M  V30 20989 H 1999 -5.07592 1.32101 0
M  V30 20990 H 2000.47 -5.50994 -0.33319 0
M  V30 20991 H 2000.95 -4.17125 -1.37489 0
M  V30 20992 H 2001.55 -4.2427 0.295782 0
M  V30 20993 N 1999.87 -0.425924 -1.51735 0
M  V30 20994 C 2001.1 0.143143 -2.06104 0
M  V30 20995 C 2001.51 1.37989 -1.29444 0
M  V30 20996 O 2000.85 1.80448 -0.344147 0
M  V30 20997 C 2000.91 0.541996 -3.55391 0
M  V30 20998 C 2000.58 -0.586352 -4.53223 0
M  V30 20999 C 2001.57 -1.45505 -4.99124 0
M  V30 21000 C 1999.26 -0.763832 -4.96458 0
M  V30 21001 C 2001.25 -2.48602 -5.86921 0
M  V30 21002 C 1998.94 -1.79809 -5.84048 0
M  V30 21003 C 1999.94 -2.65758 -6.29175 0
M  V30 21004 O 1999.63 -3.67411 -7.15028 0
M  V30 21005 H 1999.36 0.0164528 -0.6758 0
M  V30 21006 H 2001.91 -0.60044 -1.96428 0
M  V30 21007 H 2000.14 1.33811 -3.6281 0
M  V30 21008 H 2001.83 1.0409 -3.92326 0
M  V30 21009 H 2002.6 -1.32941 -4.66424 0
M  V30 21010 H 1998.48 -0.10445 -4.60882 0
M  V30 21011 H 2002.02 -3.15721 -6.22066 0
M  V30 21012 H 1997.92 -1.92397 -6.1616 0
M  V30 21013 H 1998.68 -3.63855 -7.33179 0
M  V30 21014 N 2001.35 1.56817 -0.156891 0
M  V30 21015 C 2002.58 2.00807 0.498405 0
M  V30 21016 C 2002.99 1.03706 1.57768 0
M  V30 21017 O 2002.35 0.0356068 1.82465 0
M  V30 21018 C 2002.4 3.44676 1.08999 0
M  V30 21019 O 2002.12 4.38067 0.053817 0
M  V30 21020 C 2003.62 4.03994 1.82493 0
M  V30 21021 H 2000.84 0.658505 0.128888 0
M  V30 21022 H 2003.38 2.02912 -0.254383 0
M  V30 21023 H 2001.54 3.43392 1.79334 0
M  V30 21024 H 2001.95 5.2222 0.488568 0
M  V30 21025 H 2003.43 5.06627 2.19164 0
M  V30 21026 H 2003.9 3.45265 2.71456 0
M  V30 21027 H 2004.51 4.08938 1.16833 0
M  V30 21028 N 2002.83 -0.116876 1.57166 0
M  V30 21029 C 2003.77 -1.14325 2.00496 0
M  V30 21030 C 2004.74 -1.41031 0.877465 0
M  V30 21031 O 2005.93 -1.52861 1.14185 0
M  V30 21032 C 2003.07 -2.46409 2.41612 0
M  V30 21033 C 2002.18 -2.26621 3.67787 0
M  V30 21034 C 2001.32 -3.51951 3.97875 0
M  V30 21035 C 2000.35 -3.27329 5.17225 0
M  V30 21036 N 1999.49 -4.44867 5.43174 0
M  V30 21037 H 2004.33 -0.766757 2.87967 0
M  V30 21038 H 2001.87 -0.367106 1.42446 0
M  V30 21039 H 2003.83 -3.23465 2.63488 0
M  V30 21040 H 2002.46 -2.81947 1.5718 0
M  V30 21041 H 2001.51 -1.40472 3.53513 0
M  V30 21042 H 2002.82 -2.04405 4.54994 0
M  V30 21043 H 2001.97 -4.37424 4.20411 0
M  V30 21044 H 2000.71 -3.772 3.09147 0
M  V30 21045 H 1999.72 -2.40247 4.94532 0
M  V30 21046 H 2000.94 -3.03448 6.07533 0
M  V30 21047 H 1998.89 -4.70233 4.57403 0
M  V30 21048 H 1998.81 -4.25764 6.24709 0
M  V30 21049 H 2000.07 -5.31468 5.7023 0
M  V30 21050 N 2004.3 -1.52772 -0.387116 0
M  V30 21051 C 2005.25 -1.78325 -1.49341 0
M  V30 21052 C 2006.25 -0.651278 -1.5638 0
M  V30 21053 O 2007.45 -0.833795 -1.59524 0
M  V30 21054 H 2003.83 -0.56428 -0.497084 0
M  V30 21055 H 2005.8 -2.70965 -1.24983 0
M  V30 21056 C 2004.55 -1.97079 -2.86453 0
M  V30 21057 H 2003.87 -2.83612 -2.81788 0
M  V30 21058 H 2005.31 -2.18947 -3.63095 0
M  V30 21059 C 2003.77 -0.743842 -3.28586 0
M  V30 21060 O 2004.3 0.0778266 -4.01625 0
M  V30 21061 N 2002.5 -0.573415 -2.84886 0
M  V30 21062 H 2002.05 -1.24319 -2.25616 0
M  V30 21063 H 2002.01 0.24616 -3.13435 0
M  V30 21064 N 2005.78 0.645673 -1.43767 0
M  V30 21065 C 2007.03 1.4027 -1.45495 0
M  V30 21066 C 2007.35 1.94822 -0.0832023 0
M  V30 21067 O 2006.62 1.74895 0.882519 0
M  V30 21068 H 2005.2 0.520611 -0.535699 0
M  V30 21069 H 2007.86 0.760978 -1.7943 0
M  V30 21070 H 2006.96 2.24129 -2.17192 0
M  V30 21071 N 2007.26 1.30423 0.884744 0
M  V30 21072 C 2008.21 1.16824 1.9905 0
M  V30 21073 C 2009.18 0.0576868 1.66 0
M  V30 21074 O 2010.36 0.227913 1.89434 0
M  V30 21075 C 2007.5 0.866281 3.3405 0
M  V30 21076 C 2006.61 2.05874 3.79789 0
M  V30 21077 C 2005.75 1.69484 5.03437 0
M  V30 21078 C 2004.79 2.85224 5.41585 0
M  V30 21079 N 2003.93 2.49129 6.56414 0
M  V30 21080 H 2008.77 2.1142 2.10013 0
M  V30 21081 H 2006.3 1.05188 1.02829 0
M  V30 21082 H 2008.26 0.671829 4.11755 0
M  V30 21083 H 2006.89 -0.0428113 3.22772 0
M  V30 21084 H 2005.94 2.36443 2.97992 0
M  V30 21085 H 2007.25 2.92549 4.04001 0
M  V30 21086 H 2006.41 1.46416 5.88768 0
M  V30 21087 H 2005.15 0.799794 4.81097 0
M  V30 21088 H 2004.15 3.08958 4.5478 0
M  V30 21089 H 2005.38 3.75416 5.65897 0
M  V30 21090 H 2003.32 1.6213 6.35649 0
M  V30 21091 H 2003.24 3.29336 6.80495 0
M  V30 21092 H 2004.51 2.29417 7.44975 0
M  V30 21093 N 2008.74 -1.09711 1.13142 0
M  V30 21094 C 2009.67 -2.18301 0.828662 0
M  V30 21095 C 2010.65 -1.6879 -0.210733 0
M  V30 21096 O 2011.83 -1.94073 -0.0702977 0
M  V30 21097 C 2008.96 -3.46081 0.290674 0
M  V30 21098 C 2007.92 -4.0891 1.26398 0
M  V30 21099 C 2007.24 -5.3148 0.585887 0
M  V30 21100 C 2008.54 -4.51751 2.62142 0
M  V30 21101 H 2010.24 -2.43885 1.73668 0
M  V30 21102 H 2007.78 -1.17216 0.836449 0
M  V30 21103 H 2009.74 -4.21347 0.0665509 0
M  V30 21104 H 2008.46 -3.20011 -0.652716 0
M  V30 21105 H 2007.12 -3.3566 1.47405 0
M  V30 21106 H 2006.77 -5.01689 -0.362883 0
M  V30 21107 H 2006.47 -5.7447 1.23522 0
M  V30 21108 H 2007.99 -6.09472 0.370976 0
M  V30 21109 H 2009.41 -5.18255 2.45121 0
M  V30 21110 H 2007.8 -5.05615 3.23223 0
M  V30 21111 H 2008.87 -3.64297 3.20025 0
M  V30 21112 N 2010.22 -0.924476 -1.27637 0
M  V30 21113 C 2011.16 -0.411501 -2.28931 0
M  V30 21114 C 2012.16 0.502472 -1.61776 0
M  V30 21115 O 2013.36 0.382531 -1.75888 0
M  V30 21116 H 2009.74 -0.114496 -0.743233 0
M  V30 21117 H 2011.71 -1.27869 -2.69615 0
M  V30 21118 C 2010.46 0.323415 -3.46193 0
M  V30 21119 H 2009.78 -0.37068 -3.98078 0
M  V30 21120 H 2011.22 0.646821 -4.19037 0
M  V30 21121 C 2009.68 1.53523 -2.99887 0
M  V30 21122 O 2010.21 2.63407 -3.03281 0
M  V30 21123 N 2008.42 1.38594 -2.55421 0
M  V30 21124 H 2007.96 0.491939 -2.52859 0
M  V30 21125 H 2007.92 2.198 -2.24801 0
M  V30 21126 N 2011.69 1.41711 -0.689627 0
M  V30 21127 C 2012.66 2.29181 -0.02958 0
M  V30 21128 C 2013.66 1.44079 0.714004 0
M  V30 21129 O 2014.85 1.65297 0.549783 0
M  V30 21130 C 2011.98 3.26851 0.968583 0
M  V30 21131 H 2013.17 2.89042 -0.799656 0
M  V30 21132 H 2010.73 1.49598 -0.45279 0
M  V30 21133 H 2011.46 2.71957 1.76663 0
M  V30 21134 H 2011.25 3.89639 0.4386 0
M  V30 21135 H 2012.74 3.92412 1.42839 0
M  V30 21136 N 2013.17 0.433965 1.51507 0
M  V30 21137 C 2014.42 -0.133365 2.01659 0
M  V30 21138 C 2014.74 -1.43506 1.32026 0
M  V30 21139 O 2014.01 -1.90572 0.453774 0
M  V30 21140 H 2012.59 -0.0522753 0.745169 0
M  V30 21141 H 2015.25 0.575899 1.86197 0
M  V30 21142 H 2014.35 -0.311697 3.1054 0
M  V30 21143 N 2014.65 -1.56732 0.165206 0
M  V30 21144 C 2015.58 -2.13493 -0.805985 0
M  V30 21145 C 2016.56 -1.06335 -1.23011 0
M  V30 21146 O 2017.75 -1.34275 -1.32297 0
M  V30 21147 C 2014.87 -2.6695 -2.08459 0
M  V30 21148 C 2013.92 -3.86423 -1.80497 0
M  V30 21149 S 2014.75 -5.26462 -0.979671 0
M  V30 21150 C 2015.91 -5.83321 -2.26908 0
M  V30 21151 H 2016.14 -2.95536 -0.32336 0
M  V30 21152 H 2013.67 -1.54321 -0.0493706 0
M  V30 21153 H 2015.63 -2.98398 -2.81903 0
M  V30 21154 H 2014.29 -1.85003 -2.53836 0
M  V30 21155 H 2013.49 -4.22134 -2.75352 0
M  V30 21156 H 2013.09 -3.55831 -1.15153 0
M  V30 21157 H 2015.38 -5.95863 -3.22419 0
M  V30 21158 H 2016.32 -6.80527 -1.95675 0
M  V30 21159 H 2016.73 -5.11694 -2.38388 0
M  V30 21160 N 2016.13 0.10854 -1.57226 0
M  V30 21161 C 2017.35 0.832276 -1.89968 0
M  V30 21162 C 2017.78 1.72143 -0.758179 0
M  V30 21163 O 2017.14 1.78952 0.290864 0
M  V30 21164 C 2017.18 1.63287 -3.21512 0
M  V30 21165 O 2016.29 2.74071 -3.08154 0
M  V30 21166 H 2015.63 0.229508 -0.623075 0
M  V30 21167 H 2018.16 0.0877974 -2.04412 0
M  V30 21168 H 2018.17 2.01992 -3.5449 0
M  V30 21169 H 2016.84 0.98022 -4.04184 0
M  V30 21170 H 2015.42 2.38492 -2.86664 0
M  V30 21171 N 2017.61 1.52975 0.379009 0
M  V30 21172 C 2018.83 1.72396 1.144 0
M  V30 21173 C 2019.25 0.446816 1.83437 0
M  V30 21174 O 2018.61 -0.579403 1.73058 0
M  V30 21175 C 2018.66 2.88032 2.18449 0
M  V30 21176 O 2018.38 4.10803 1.52225 0
M  V30 21177 C 2019.88 3.19215 3.07599 0
M  V30 21178 H 2017.1 0.576943 0.342605 0
M  V30 21179 H 2019.64 1.99666 0.442025 0
M  V30 21180 H 2017.8 2.63195 2.84266 0
M  V30 21181 H 2018.21 4.75461 2.21443 0
M  V30 21182 H 2019.69 4.03565 3.76615 0
M  V30 21183 H 2020.16 2.34014 3.71664 0
M  V30 21184 H 2020.77 3.45928 2.47415 0
M  V30 21185 N 2019.08 -0.63804 1.44107 0
M  V30 21186 C 2020.03 -1.75032 1.5044 0
M  V30 21187 C 2021 -1.62312 0.352721 0
M  V30 21188 O 2022.19 -1.82335 0.562 0
M  V30 21189 C 2019.33 -3.13253 1.44798 0
M  V30 21190 C 2018.44 -3.37 2.70287 0
M  V30 21191 C 2017.57 -4.65154 2.56526 0
M  V30 21192 C 2016.61 -4.82055 3.77212 0
M  V30 21193 N 2015.75 -6.0148 3.62169 0
M  V30 21194 H 2020.59 -1.68954 2.45476 0
M  V30 21195 H 2018.13 -0.82428 1.21836 0
M  V30 21196 H 2020.09 -3.9318 1.39518 0
M  V30 21197 H 2018.72 -3.18364 0.53334 0
M  V30 21198 H 2017.77 -2.51062 2.85783 0
M  V30 21199 H 2019.08 -3.4537 3.5989 0
M  V30 21200 H 2018.23 -5.5323 2.4904 0
M  V30 21201 H 2016.97 -4.5913 1.64472 0
M  V30 21202 H 2015.98 -3.9241 3.8509 0
M  V30 21203 H 2017.2 -4.89898 4.70294 0
M  V30 21204 H 2015.15 -5.96559 2.72861 0
M  V30 21205 H 2015.07 -6.10876 4.45384 0
M  V30 21206 H 2016.33 -6.92137 3.58562 0
M  V30 21207 N 2020.56 -1.3089 -0.877815 0
M  V30 21208 C 2021.79 -1.23068 -1.66319 0
M  V30 21209 C 2022.21 0.205309 -1.8768 0
M  V30 21210 O 2021.56 1.13467 -1.42939 0
M  V30 21211 C 2021.61 -1.96305 -3.03557 0
M  V30 21212 O 2021.33 -3.34298 -2.83154 0
M  V30 21213 C 2022.84 -1.95228 -3.97996 0
M  V30 21214 H 2020.06 -0.425583 -0.518768 0
M  V30 21215 H 2022.6 -1.72636 -1.09623 0
M  V30 21216 H 2020.75 -1.50518 -3.56964 0
M  V30 21217 H 2021.17 -3.71486 -3.70268 0
M  V30 21218 H 2022.64 -2.50997 -4.91635 0
M  V30 21219 H 2023.12 -0.932904 -4.29178 0
M  V30 21220 H 2023.73 -2.40858 -3.50525 0
M  V30 21221 N 2022.04 1.0911 -1.13723 0
M  V30 21222 C 2023.28 1.82962 -0.911268 0
M  V30 21223 C 2023.64 1.83878 0.552529 0
M  V30 21224 O 2024.85 2.53421 0.896168 0
M  V30 21225 C 2023.12 3.24999 -1.48696 0
M  V30 21226 S 2024.68 4.15816 -1.40153 0
M  V30 21227 H 2021.49 0.630622 -0.328386 0
M  V30 21228 H 2024.1 1.31201 -1.44936 0
M  V30 21229 H 2022.8 3.2191 -2.54562 0
M  V30 21230 H 2022.33 3.81833 -0.946951 0
M  V30 21231 H 2024.35 4.94726 -0.382175 0
M  V30 21232 N 2023.52 0.931232 1.27145 0
M  V30 21233 C 2024.47 0.4317 2.26727 0
M  V30 21234 C 2025.44 -0.503295 1.58291 0
M  V30 21235 O 2026.62 -0.421681 1.86082 0
M  V30 21236 C 2023.76 -0.306208 3.43739 0
M  V30 21237 C 2022.87 0.663307 4.26877 0
M  V30 21238 C 2022.01 -0.0947979 5.31115 0
M  V30 21239 C 2021.05 0.867191 6.05926 0
M  V30 21240 N 2020.18 0.141485 7.01957 0
M  V30 21241 H 2025.02 1.28587 2.6883 0
M  V30 21242 H 2022.56 0.64533 1.32189 0
M  V30 21243 H 2024.52 -0.750387 4.10396 0
M  V30 21244 H 2023.15 -1.12458 3.02577 0
M  V30 21245 H 2022.2 1.22601 3.60102 0
M  V30 21246 H 2023.51 1.39836 4.78798 0
M  V30 21247 H 2022.67 -0.598728 6.03738 0
M  V30 21248 H 2021.41 -0.862794 4.80007 0
M  V30 21249 H 2020.41 1.38234 5.32139 0
M  V30 21250 H 2021.64 1.63503 6.59123 0
M  V30 21251 H 2019.58 -0.608201 6.53174 0
M  V30 21252 H 2019.5 0.816044 7.51583 0
M  V30 21253 H 2020.77 -0.341677 7.78751 0
M  V30 21254 N 2025 -1.41343 0.697132 0
M  V30 21255 C 2026.27 -1.94971 0.156721 0
M  V30 21256 C 2026.65 -1.63641 -1.33359 0
M  V30 21257 O 2026 -0.944246 -2.08077 0
M  V30 21258 C 2026.21 -3.46091 0.449687 0
M  V30 21259 C 2027.56 -4.22912 0.378281 0
M  V30 21260 O 2028.58 -3.54117 0.38469 0
M  V30 21261 O 2027.44 -5.45443 0.339755 0
M  V30 21262 H 2024.54 -0.826847 0.0158852 0
M  V30 21263 H 2027.08 -1.51052 0.7734 0
M  V30 21264 H 2025.86 -3.62183 1.48119 0
M  V30 21265 H 2025.48 -3.97107 -0.197886 0
M  V30 21266 N 2026.48 -0.441993 -1.51275 0
M  V30 21267 C 2027.72 0.122024 -2.04035 0
M  V30 21268 C 2028.08 1.39557 -1.31863 0
M  V30 21269 O 2029.28 2.04012 -1.75022 0
M  V30 21270 C 2027.55 0.330958 -3.55864 0
M  V30 21271 S 2029.11 0.857712 -4.30336 0
M  V30 21272 H 2025.93 0.0296645 -0.710381 0
M  V30 21273 H 2028.53 -0.602467 -1.85985 0
M  V30 21274 H 2027.23 -0.602196 -4.05958 0
M  V30 21275 H 2026.77 1.0824 -3.78217 0
M  V30 21276 H 2028.78 2.13474 -4.47932 0
M  V30 21277 N 2027.95 1.56642 -0.173515 0
M  V30 21278 C 2028.9 2.14667 0.768251 0
M  V30 21279 C 2029.89 1.0815 1.19132 0
M  V30 21280 O 2031.08 1.34267 1.15331 0
M  V30 21281 C 2028.21 2.79269 1.99659 0
M  V30 21282 C 2027.29 3.92947 1.59541 0
M  V30 21283 N 2027.69 4.97657 0.903929 0
M  V30 21284 C 2025.98 4.04148 1.88627 0
M  V30 21285 C 2026.68 5.77399 0.706055 0
M  V30 21286 N 2025.66 5.29076 1.24817 0
M  V30 21287 H 2029.46 2.92991 0.230996 0
M  V30 21288 H 2026.98 1.62377 0.0270838 0
M  V30 21289 H 2028.97 3.19217 2.68153 0
M  V30 21290 H 2027.63 2.02427 2.53877 0
M  V30 21291 H 2028.64 5.14845 0.561736 0
M  V30 21292 H 2025.32 3.38411 2.44508 0
M  V30 21293 H 2026.71 6.71712 0.159077 0
M  V30 21294 N 2029.43 -0.1002 1.57281 0
M  V30 21295 C 2030.36 -1.14803 1.98376 0
M  V30 21296 C 2031.38 -1.36605 0.885602 0
M  V30 21297 O 2032.57 -1.35347 1.16376 0
M  V30 21298 C 2029.67 -2.50456 2.2831 0
M  V30 21299 C 2028.84 -2.49 3.59608 0
M  V30 21300 C 2027.9 -3.66541 3.77537 0
M  V30 21301 O 2026.92 -3.49266 4.49447 0
M  V30 21302 N 2028.13 -4.85829 3.17727 0
M  V30 21303 H 2030.89 -0.798301 2.88872 0
M  V30 21304 H 2028.45 -0.289246 1.59295 0
M  V30 21305 H 2030.44 -3.27681 2.37502 0
M  V30 21306 H 2029.01 -2.77538 1.43846 0
M  V30 21307 H 2028.23 -1.57357 3.61431 0
M  V30 21308 H 2029.52 -2.45101 4.45873 0
M  V30 21309 H 2028.92 -5.02769 2.59307 0
M  V30 21310 H 2027.48 -5.60665 3.32412 0
M  V30 21311 N 2030.91 -1.53174 -0.370891 0
M  V30 21312 C 2032.32 -1.60843 -0.94796 0
M  V30 21313 C 2032.67 -0.472528 -1.90425 0
M  V30 21314 O 2031.8 0.401822 -2.12637 0
M  V30 21315 C 2032.39 -2.91534 -1.72607 0
M  V30 21316 C 2030.95 -3.01557 -2.25257 0
M  V30 21317 C 2030.1 -2.561 -1.0634 0
M  V30 21318 H 2033.05 -1.57991 -0.149852 0
M  V30 21319 H 2033.07 -2.79038 -2.58685 0
M  V30 21320 H 2032.58 -3.74188 -1.02982 0
M  V30 21321 H 2030.68 -2.23479 -2.9814 0
M  V30 21322 H 2030.8 -4.06538 -2.53502 0
M  V30 21323 H 2029.16 -2.10849 -1.42881 0
M  V30 21324 H 2029.94 -3.41166 -0.38221 0
M  V30 21325 N 2032.39 0.630389 -1.44443 0
M  V30 21326 C 2033.61 1.42206 -1.50971 0
M  V30 21327 C 2034.04 1.87609 -0.135854 0
M  V30 21328 O 2033.4 1.58782 0.8751 0
M  V30 21329 C 2033.44 2.61801 -2.47977 0
M  V30 21330 O 2032.55 3.6166 -1.98181 0
M  V30 21331 H 2031.89 0.425475 -0.509771 0
M  V30 21332 H 2034.42 0.769359 -1.89584 0
M  V30 21333 H 2034.43 3.09335 -2.66037 0
M  V30 21334 H 2033.1 2.281 -3.47769 0
M  V30 21335 H 2031.68 3.2093 -1.89891 0
M  V30 21336 N 2033.87 1.31354 0.870861 0
M  V30 21337 C 2034.81 1.18858 1.99939 0
M  V30 21338 C 2035.81 0.0970869 1.69122 0
M  V30 21339 O 2037.01 0.258917 1.78128 0
M  V30 21340 H 2033.39 0.367991 0.65581 0
M  V30 21341 H 2035.36 2.14338 2.07609 0
M  V30 21342 C 2034.11 0.911812 3.35531 0
M  V30 21343 H 2033.43 1.74383 3.59765 0
M  V30 21344 H 2034.87 0.864551 4.15092 0
M  V30 21345 C 2033.33 -0.385431 3.34688 0
M  V30 21346 O 2033.86 -1.40251 3.76421 0
M  V30 21347 N 2032.07 -0.401645 2.87811 0
M  V30 21348 H 2031.61 0.426528 2.54044 0
M  V30 21349 H 2031.57 -1.26952 2.87629 0
M  V30 21350 N 2035.34 -1.08505 1.143 0
M  V30 21351 C 2036.59 -1.80872 0.910589 0
M  V30 21352 C 2036.92 -1.86177 -0.562883 0
M  V30 21353 O 2036.17 -1.33282 -1.43299 0
M  V30 21354 C 2036.47 -3.26425 1.45538 0
M  V30 21355 C 2036.14 -3.41239 2.94732 0
M  V30 21356 C 2034.8 -3.44989 3.35464 0
M  V30 21357 C 2037.15 -3.45 3.90672 0
M  V30 21358 C 2034.48 -3.5009 4.70801 0
M  V30 21359 C 2036.83 -3.51637 5.25865 0
M  V30 21360 C 2035.5 -3.53659 5.66111 0
M  V30 21361 H 2034.77 -0.661856 0.333208 0
M  V30 21362 H 2037.41 -1.27762 1.4265 0
M  V30 21363 H 2035.72 -3.82237 0.860376 0
M  V30 21364 H 2037.42 -3.8097 1.25151 0
M  V30 21365 H 2034.01 -3.39011 2.6224 0
M  V30 21366 H 2038.19 -3.41334 3.60284 0
M  V30 21367 H 2033.45 -3.49949 5.01344 0
M  V30 21368 H 2037.62 -3.53492 6.00013 0
M  V30 21369 H 2035.25 -3.57365 6.70965 0
M  V30 21370 N 2036.82 -0.937962 -1.26649 0
M  V30 21371 C 2037.77 -0.443717 -2.26495 0
M  V30 21372 C 2038.74 0.494894 -1.58556 0
M  V30 21373 O 2039.92 0.411807 -1.86303 0
M  V30 21374 C 2037.06 0.287974 -3.43896 0
M  V30 21375 C 2036.18 -0.685936 -4.2652 0
M  V30 21376 C 2035.31 0.0666303 -5.31158 0
M  V30 21377 C 2034.35 -0.899313 -6.05457 0
M  V30 21378 N 2033.49 -0.17871 -7.01873 0
M  V30 21379 H 2038.33 -1.3001 -2.68144 0
M  V30 21380 H 2035.86 -0.652331 -1.31845 0
M  V30 21381 H 2037.82 0.728613 -4.10788 0
M  V30 21382 H 2036.45 1.10852 -3.03169 0
M  V30 21383 H 2035.5 -1.24509 -3.59446 0
M  V30 21384 H 2036.82 -1.42373 -4.7805 0
M  V30 21385 H 2035.97 0.566702 -6.04047 0
M  V30 21386 H 2034.71 0.837326 -4.80458 0
M  V30 21387 H 2033.71 -1.41054 -5.31398 0
M  V30 21388 H 2034.94 -1.66996 -6.58247 0
M  V30 21389 H 2032.89 0.573553 -6.53488 0
M  V30 21390 H 2032.8 -0.855891 -7.51139 0
M  V30 21391 H 2034.07 0.300374 -7.78921 0
M  V30 21392 N 2038.3 1.40971 -0.704618 0
M  V30 21393 C 2039.25 2.30756 -0.0450323 0
M  V30 21394 C 2040.22 1.47598 0.761835 0
M  V30 21395 O 2041.4 1.76365 0.728023 0
M  V30 21396 C 2038.54 3.33723 0.878802 0
M  V30 21397 C 2037.65 4.31955 0.0625832 0
M  V30 21398 C 2036.79 5.2199 0.984889 0
M  V30 21399 C 2035.83 6.11885 0.16211 0
M  V30 21400 N 2034.97 6.94374 1.0387 0
M  V30 21401 H 2039.81 2.86598 -0.816414 0
M  V30 21402 H 2037.34 1.41145 -0.414306 0
M  V30 21403 H 2039.3 3.9198 1.42856 0
M  V30 21404 H 2037.93 2.79409 1.61648 0
M  V30 21405 H 2036.98 3.75571 -0.604216 0
M  V30 21406 H 2038.29 4.95476 -0.574897 0
M  V30 21407 H 2037.45 5.85125 1.60356 0
M  V30 21408 H 2036.19 4.58717 1.65621 0
M  V30 21409 H 2035.19 5.47791 -0.469576 0
M  V30 21410 H 2036.42 6.77216 -0.505547 0
M  V30 21411 H 2034.36 6.337 1.69588 0
M  V30 21412 H 2034.28 7.54617 0.457006 0
M  V30 21413 H 2035.55 7.61969 1.6439 0
M  V30 21414 N 2039.78 0.45001 1.51039 0
M  V30 21415 C 2041.02 -0.111202 2.04097 0
M  V30 21416 C 2041.38 -1.38855 1.32602 0
M  V30 21417 O 2042.58 -2.03081 1.76101 0
M  V30 21418 C 2040.85 -0.312081 3.56035 0
M  V30 21419 S 2042.41 -0.834878 4.30784 0
M  V30 21420 H 2039.23 -0.0258967 0.710528 0
M  V30 21421 H 2041.83 0.612321 1.85663 0
M  V30 21422 H 2040.54 0.623717 4.05633 0
M  V30 21423 H 2040.07 -1.06232 3.78785 0
M  V30 21424 H 2042.08 -2.11096 4.49058 0
M  V30 21425 N 2041.26 -1.56548 0.18182 0
M  V30 21426 C 2042.5 -1.99093 -0.462751 0
M  V30 21427 C 2042.86 -1.06569 -1.59709 0
M  V30 21428 O 2044.06 -1.38297 -2.30494 0
M  V30 21429 C 2042.33 -3.45261 -0.923553 0
M  V30 21430 S 2043.89 -4.09835 -1.56783 0
M  V30 21431 H 2040.71 -0.695324 -0.148476 0
M  V30 21432 H 2043.31 -1.93459 0.281758 0
M  V30 21433 H 2042.02 -4.10306 -0.0877151 0
M  V30 21434 H 2041.55 -3.54684 -1.70185 0
M  V30 21435 H 2043.56 -4.05748 -2.85628 0
M  V30 21436 N 2042.73 0.0918577 -1.57332 0
M  V30 21437 C 2044.15 0.646006 -1.75167 0
M  V30 21438 C 2044.5 1.78949 -0.804463 0
M  V30 21439 O 2043.62 2.16394 0.0162775 0
M  V30 21440 C 2044.22 1.17865 -3.17637 0
M  V30 21441 C 2042.78 1.67884 -3.36886 0
M  V30 21442 C 2041.92 0.589766 -2.70956 0
M  V30 21443 H 2044.87 -0.134229 -1.58131 0
M  V30 21444 H 2044.89 2.04791 -3.20688 0
M  V30 21445 H 2044.41 0.346184 -3.86553 0
M  V30 21446 H 2042.51 2.5352 -2.73054 0
M  V30 21447 H 2042.62 1.7696 -4.45221 0
M  V30 21448 H 2040.98 1.03 -2.32945 0
M  V30 21449 H 2041.77 -0.232174 -3.42514 0
M  V30 21450 N 2044.21 1.53368 0.362763 0
M  V30 21451 C 2045.14 1.82984 1.45048 0
M  V30 21452 C 2046.12 0.683544 1.55762 0
M  V30 21453 O 2047.31 0.933658 1.70283 0
M  V30 21454 C 2044.44 2.02227 2.8235 0
M  V30 21455 C 2043.39 3.18002 2.86459 0
M  V30 21456 C 2042.72 3.22543 4.26463 0
M  V30 21457 C 2044.02 4.56531 2.53726 0
M  V30 21458 H 2045.71 2.74075 1.20513 0
M  V30 21459 H 2043.26 1.31877 0.578302 0
M  V30 21460 H 2045.21 2.21529 3.58473 0
M  V30 21461 H 2043.94 1.07849 3.08279 0
M  V30 21462 H 2042.59 2.98525 2.12787 0
M  V30 21463 H 2042.24 2.25797 4.49472 0
M  V30 21464 H 2041.94 4.00331 4.30127 0
M  V30 21465 H 2043.47 3.44032 5.04455 0
M  V30 21466 H 2044.88 4.75975 3.19563 0
M  V30 21467 H 2043.28 5.36581 2.68703 0
M  V30 21468 H 2044.35 4.61451 1.48967 0
M  V30 21469 N 2045.69 -0.62272 1.44776 0
M  V30 21470 C 2046.94 -1.38415 1.4822 0
M  V30 21471 C 2047.27 -1.93844 0.117595 0
M  V30 21472 O 2046.54 -1.7416 -0.865935 0
M  V30 21473 C 2046.83 -2.54325 2.54933 0
M  V30 21474 C 2046.68 -2.04192 4.00782 0
M  V30 21475 C 2048 -3.56495 2.58069 0
M  V30 21476 H 2045.12 -0.501939 0.539654 0
M  V30 21477 H 2047.76 -0.703347 1.76502 0
M  V30 21478 H 2045.91 -3.12403 2.30947 0
M  V30 21479 H 2047.58 -1.50879 4.35928 0
M  V30 21480 H 2045.83 -1.35308 4.12158 0
M  V30 21481 H 2046.5 -2.87679 4.7111 0
M  V30 21482 H 2048.97 -3.08232 2.79522 0
M  V30 21483 H 2047.85 -4.35106 3.34625 0
M  V30 21484 H 2048.11 -4.11119 1.62583 0
M  V30 21485 N 2047.17 -1.31814 -0.863883 0
M  V30 21486 C 2048.41 -1.23154 -1.63133 0
M  V30 21487 C 2048.77 0.205722 -1.90895 0
M  V30 21488 O 2049.97 0.415911 -2.65563 0
M  V30 21489 C 2048.24 -2.0581 -2.92194 0
M  V30 21490 S 2049.8 -2.14077 -3.83036 0
M  V30 21491 H 2046.62 -0.438531 -0.559653 0
M  V30 21492 H 2049.22 -1.66551 -1.02377 0
M  V30 21493 H 2047.93 -3.09311 -2.69731 0
M  V30 21494 H 2047.46 -1.63155 -3.57972 0
M  V30 21495 H 2049.47 -1.28353 -4.79312 0
M  V30 21496 N 2048.65 1.07897 -1.14873 0
M  V30 21497 C 2049.89 1.8003 -0.918351 0
M  V30 21498 C 2050.22 1.86897 0.556293 0
M  V30 21499 O 2049.49 1.36584 1.40434 0
M  V30 21500 H 2048.07 0.666777 -0.336776 0
M  V30 21501 H 2050.73 1.30421 -1.44832 0
M  V30 21502 H 2049.82 2.82678 -1.32287 0
M  V30 21503 N 2050.12 0.944665 1.2615 0
M  V30 21504 C 2051.07 0.455723 2.26256 0
M  V30 21505 C 2052.04 -0.486478 1.58816 0
M  V30 21506 O 2053.23 -0.401921 1.86519 0
M  V30 21507 C 2050.37 -0.269732 3.44044 0
M  V30 21508 C 2049.48 0.708546 4.2615 0
M  V30 21509 C 2048.61 -0.0384607 5.31186 0
M  V30 21510 C 2047.65 0.931409 6.04972 0
M  V30 21511 N 2046.79 0.215929 7.01768 0
M  V30 21512 H 2051.63 1.31431 2.67451 0
M  V30 21513 H 2049.17 0.659314 1.31497 0
M  V30 21514 H 2051.13 -0.706817 4.11169 0
M  V30 21515 H 2049.76 -1.09243 3.03753 0
M  V30 21516 H 2048.81 1.26414 3.58781 0
M  V30 21517 H 2050.12 1.44906 4.77288 0
M  V30 21518 H 2049.27 -0.53466 6.0434 0
M  V30 21519 H 2048.01 -0.811835 4.80896 0
M  V30 21520 H 2047.02 1.4387 5.30642 0
M  V30 21521 H 2048.24 1.70485 6.57352 0
M  V30 21522 H 2046.19 -0.538889 6.53783 0
M  V30 21523 H 2046.11 0.895714 7.50675 0
M  V30 21524 H 2047.37 -0.259061 7.79069 0
M  V30 21525 N 2051.6 -1.40596 0.712085 0
M  V30 21526 C 2052.57 -2.29105 0.0660369 0
M  V30 21527 C 2053.57 -1.45196 -0.690992 0
M  V30 21528 O 2054.76 -1.66151 -0.523417 0
M  V30 21529 C 2051.89 -3.2835 -0.916461 0
M  V30 21530 H 2053.08 -2.87734 0.845539 0
M  V30 21531 H 2050.63 -1.48859 0.476533 0
M  V30 21532 H 2051.37 -2.74733 -1.72314 0
M  V30 21533 H 2051.15 -3.90288 -0.376557 0
M  V30 21534 H 2052.64 -3.94634 -1.36578 0
M  V30 21535 N 2053.08 -0.458013 -1.50798 0
M  V30 21536 C 2054.33 0.10308 -2.01436 0
M  V30 21537 C 2054.64 1.41957 -1.34564 0
M  V30 21538 O 2055.85 2.06484 -1.76286 0
M  V30 21539 C 2054.3 0.234229 -3.59137 0
M  V30 21540 C 2053.91 -1.07305 -4.34959 0
M  V30 21541 C 2055.66 0.747982 -4.17858 0
M  V30 21542 C 2053.56 -0.906414 -5.84413 0
M  V30 21543 H 2052.49 0.0422981 -0.752813 0
M  V30 21544 H 2055.14 -0.590924 -1.73725 0
M  V30 21545 H 2053.53 0.991716 -3.83381 0
M  V30 21546 H 2054.7 -1.84048 -4.22449 0
M  V30 21547 H 2053.02 -1.51691 -3.87787 0
M  V30 21548 H 2055.61 0.889478 -5.2725 0
M  V30 21549 H 2055.96 1.73592 -3.7838 0
M  V30 21550 H 2056.49 0.048243 -3.97771 0
M  V30 21551 H 2053.23 -1.86733 -6.2834 0
M  V30 21552 H 2052.75 -0.179147 -5.99532 0
M  V30 21553 H 2054.43 -0.567802 -6.44504 0
M  V30 21554 N 2054.56 1.56449 -0.190119 0
M  V30 21555 C 2055.78 2.02261 0.458823 0
M  V30 21556 C 2056.21 1.06942 1.54742 0
M  V30 21557 O 2055.57 0.0520711 1.81225 0
M  V30 21558 C 2055.62 3.46549 0.996786 0
M  V30 21559 O 2054.72 3.54338 2.10993 0
M  V30 21560 H 2054.06 0.655191 0.1078 0
M  V30 21561 H 2056.59 2.02396 -0.299535 0
M  V30 21562 H 2056.6 3.8624 1.31465 0
M  V30 21563 H 2055.28 4.1542 0.199852 0
M  V30 21564 H 2053.85 3.2652 1.80109 0
M  V30 21565 N 2056.04 -0.0835127 1.57379 0
M  V30 21566 C 2056.97 -1.101 2.05913 0
M  V30 21567 C 2057.95 -1.41079 0.950298 0
M  V30 21568 O 2059.13 -1.50909 1.2223 0
M  V30 21569 C 2056.26 -2.41772 2.49327 0
M  V30 21570 C 2055.22 -2.25173 3.63979 0
M  V30 21571 C 2054.54 -3.62124 3.93408 0
M  V30 21572 C 2055.84 -1.68267 4.94453 0
M  V30 21573 H 2057.54 -0.697176 2.9117 0
M  V30 21574 H 2055.08 -0.333914 1.40075 0
M  V30 21575 H 2057.04 -3.13234 2.81891 0
M  V30 21576 H 2055.76 -2.84112 1.61084 0
M  V30 21577 H 2054.42 -1.56154 3.3168 0
M  V30 21578 H 2054.07 -4.02013 3.02315 0
M  V30 21579 H 2053.77 -3.51861 4.70603 0
M  V30 21580 H 2055.29 -4.35036 4.28458 0
M  V30 21581 H 2056.71 -2.29582 5.25324 0
M  V30 21582 H 2055.1 -1.68731 5.7589 0
M  V30 21583 H 2056.17 -0.64309 4.80617 0
M  V30 21584 N 2057.52 -1.53558 -0.354624 0
M  V30 21585 C 2058.76 -1.70523 -1.09772 0
M  V30 21586 C 2059.09 -0.461312 -1.88641 0
M  V30 21587 O 2058.37 0.541553 -1.86809 0
M  V30 21588 C 2058.65 -2.96191 -2.04799 0
M  V30 21589 C 2058.51 -4.30765 -1.29465 0
M  V30 21590 C 2059.82 -3.17493 -3.04772 0
M  V30 21591 H 2056.94 -0.620497 -0.397683 0
M  V30 21592 H 2059.59 -1.86214 -0.377395 0
M  V30 21593 H 2057.74 -2.82944 -2.66223 0
M  V30 21594 H 2059.41 -4.55844 -0.707409 0
M  V30 21595 H 2057.65 -4.29678 -0.596569 0
M  V30 21596 H 2058.32 -5.14852 -1.99076 0
M  V30 21597 H 2060.8 -3.29998 -2.53458 0
M  V30 21598 H 2059.67 -4.06838 -3.68476 0
M  V30 21599 H 2059.93 -2.33276 -3.75546 0
M  V30 21600 N 2058.99 0.615033 -1.45104 0
M  V30 21601 C 2060.27 1.37409 -1.39206 0
M  V30 21602 C 2060.65 2.11018 -0.0588763 0
M  V30 21603 O 2060 2.07402 0.958997 0
M  V30 21604 C 2060.21 2.32712 -2.60089 0
M  V30 21605 C 2061.56 2.95549 -3.04854 0
M  V30 21606 O 2062.58 2.43035 -2.60408 0
M  V30 21607 O 2061.44 3.90854 -3.81963 0
M  V30 21608 H 2058.53 0.615766 -0.552052 0
M  V30 21609 H 2061.08 0.638743 -1.5722 0
M  V30 21610 H 2059.85 1.77529 -3.48711 0
M  V30 21611 H 2059.47 3.13639 -2.4437 0
M  V30 21612 N 2060.47 1.3227 0.85688 0
M  V30 21613 C 2061.89 1.11212 1.14473 0
M  V30 21614 C 2062.09 -0.108857 2.01206 0
M  V30 21615 O 2061.14 -0.7944 2.39678 0
M  V30 21616 C 2062.46 2.39046 1.82421 0
M  V30 21617 C 2064 2.44782 1.95066 0
M  V30 21618 C 2064.48 3.72531 2.66429 0
M  V30 21619 N 2065.97 3.735 2.73956 0
M  V30 21620 C 2066.71 4.69049 3.29819 0
M  V30 21621 N 2066.2 5.74963 3.86509 0
M  V30 21622 N 2067.99 4.5655 3.27901 0
M  V30 21623 H 2060.15 2.10557 0.279231 0
M  V30 21624 H 2062.41 0.929507 0.186337 0
M  V30 21625 H 2062.11 3.28299 1.26145 0
M  V30 21626 H 2061.99 2.49838 2.82596 0
M  V30 21627 H 2064.38 1.5599 2.50502 0
M  V30 21628 H 2064.46 2.37944 0.938939 0
M  V30 21629 H 2064.1 4.61696 2.11658 0
M  V30 21630 H 2064.03 3.76639 3.68036 0
M  V30 21631 H 2066.52 2.96945 2.33735 0
M  V30 21632 H 2066.83 6.43931 4.27285 0
M  V30 21633 H 2065.18 5.7872 3.84848 0
M  V30 21634 H 2068.37 3.72973 2.82858 0
M  V30 21635 H 2068.54 5.31189 3.71136 0
M  V30 21636 N 2061.95 -1.07287 1.15444 0
M  V30 21637 C 2063.18 -1.83614 0.953597 0
M  V30 21638 C 2063.59 -1.82111 -0.498116 0
M  V30 21639 O 2062.95 -1.233 -1.34548 0
M  V30 21640 C 2063 -3.30668 1.46086 0
M  V30 21641 O 2062.72 -3.32236 2.85571 0
M  V30 21642 C 2064.22 -4.23761 1.3016 0
M  V30 21643 H 2061.44 -0.57928 0.338638 0
M  V30 21644 H 2063.99 -1.35426 1.53232 0
M  V30 21645 H 2062.14 -3.76203 0.924647 0
M  V30 21646 H 2062.56 -4.24117 3.08585 0
M  V30 21647 H 2064.03 -5.25009 1.70497 0
M  V30 21648 H 2064.51 -4.38511 0.245852 0
M  V30 21649 H 2065.11 -3.84062 1.82692 0
M  V30 21650 N 2063.43 -0.951342 -1.25647 0
M  V30 21651 C 2064.66 -0.621431 -1.97347 0
M  V30 21652 C 2065.07 0.805774 -1.70742 0
M  V30 21653 O 2064.43 1.53857 -0.981537 0
M  V30 21654 C 2064.48 -0.866537 -3.50961 0
M  V30 21655 O 2064.2 -2.23762 -3.76646 0
M  V30 21656 C 2065.7 -0.548561 -4.39893 0
M  V30 21657 H 2062.92 -0.233273 -0.629146 0
M  V30 21658 H 2065.46 -1.27482 -1.59902 0
M  V30 21659 H 2063.62 -0.259607 -3.86529 0
M  V30 21660 H 2064.03 -2.30528 -4.71123 0
M  V30 21661 H 2065.51 -0.770622 -5.46594 0
M  V30 21662 H 2065.98 0.51678 -4.36149 0
M  V30 21663 H 2066.59 -1.13467 -4.09885 0
M  V30 21664 N 2064.91 1.40216 -0.719531 0
M  V30 21665 C 2065.85 2.32527 -0.0584211 0
M  V30 21666 C 2066.85 1.52249 0.742746 0
M  V30 21667 O 2068.05 1.68021 0.64567 0
M  V30 21668 H 2064.43 0.752 -8.96276e-05 0
M  V30 21669 H 2066.4 2.8593 -0.853622 0
M  V30 21670 C 2065.15 3.37242 0.846339 0
M  V30 21671 H 2064.47 3.99083 0.23926 0
M  V30 21672 H 2065.91 4.04319 1.2768 0
M  V30 21673 C 2064.37 2.7304 1.9736 0
M  V30 21674 O 2064.9 2.59677 3.06481 0
M  V30 21675 N 2063.11 2.31363 1.7584 0
M  V30 21676 H 2062.65 2.42431 0.870906 0
M  V30 21677 H 2062.61 1.88744 2.51442 0
M  V30 21678 N 2066.38 0.466004 1.50553 0
M  V30 21679 C 2067.63 -0.0923956 2.01488 0
M  V30 21680 C 2067.95 -1.41242 1.35315 0
M  V30 21681 O 2069.15 -2.05546 1.77379 0
M  V30 21682 C 2067.61 -0.21518 3.59256 0
M  V30 21683 C 2067.22 1.09611 4.34384 0
M  V30 21684 C 2068.96 -0.725811 4.18249 0
M  V30 21685 C 2066.87 0.937394 5.83924 0
M  V30 21686 H 2065.8 -0.0383052 0.753026 0
M  V30 21687 H 2068.45 0.600129 1.73409 0
M  V30 21688 H 2066.83 -0.97137 3.83902 0
M  V30 21689 H 2068 1.86285 4.21467 0
M  V30 21690 H 2066.32 1.53746 3.86977 0
M  V30 21691 H 2068.92 -0.861504 5.27714 0
M  V30 21692 H 2069.26 -1.71583 3.79296 0
M  V30 21693 H 2069.79 -0.0271476 3.97791 0
M  V30 21694 H 2066.53 1.90063 6.27341 0
M  V30 21695 H 2066.05 0.210939 5.99429 0
M  V30 21696 H 2067.73 0.601974 6.44194 0
M  V30 21697 N 2067.86 -1.56346 0.198413 0
M  V30 21698 C 2069.28 -1.58822 -0.157378 0
M  V30 21699 C 2069.48 -1.21468 -1.60773 0
M  V30 21700 O 2068.53 -0.938985 -2.34391 0
M  V30 21701 C 2069.85 -3.00336 0.14798 0
M  V30 21702 C 2071.39 -3.12875 0.0883539 0
M  V30 21703 C 2071.87 -4.56527 0.367068 0
M  V30 21704 N 2073.36 -4.62122 0.315805 0
M  V30 21705 C 2074.1 -5.7117 0.505265 0
M  V30 21706 N 2073.59 -6.88671 0.755254 0
M  V30 21707 N 2075.38 -5.60381 0.439293 0
M  V30 21708 H 2067.54 -1.78908 1.1448 0
M  V30 21709 H 2069.8 -0.830475 0.457182 0
M  V30 21710 H 2069.5 -3.32238 1.15373 0
M  V30 21711 H 2069.38 -3.732 -0.547892 0
M  V30 21712 H 2071.77 -2.80783 -0.908004 0
M  V30 21713 H 2071.85 -2.4239 0.817354 0
M  V30 21714 H 2071.49 -4.89332 1.36076 0
M  V30 21715 H 2071.42 -5.25206 -0.382859 0
M  V30 21716 H 2073.91 -3.77679 0.129337 0
M  V30 21717 H 2074.22 -7.67675 0.888542 0
M  V30 21718 H 2072.57 -6.9047 0.792186 0
M  V30 21719 H 2075.76 -4.67462 0.244386 0
M  V30 21720 H 2075.93 -6.45305 0.590363 0
M  V30 21721 N 2069.34 0.0751653 -1.57421 0
M  V30 21722 C 2070.57 0.786829 -1.9103 0
M  V30 21723 C 2070.98 1.71812 -0.792303 0
M  V30 21724 O 2070.32 1.8208 0.243447 0
M  V30 21725 C 2070.38 1.63681 -3.20076 0
M  V30 21726 C 2070.05 0.875252 -4.4854 0
M  V30 21727 C 2071.04 0.196017 -5.1953 0
M  V30 21728 C 2068.73 0.843425 -4.95168 0
M  V30 21729 C 2070.72 -0.504853 -6.35398 0
M  V30 21730 C 2068.41 0.13878 -6.10942 0
M  V30 21731 C 2069.41 -0.534162 -6.80908 0
M  V30 21732 O 2069.1 -1.22746 -7.94474 0
M  V30 21733 H 2068.83 0.229074 -0.636004 0
M  V30 21734 H 2071.38 0.0507529 -2.05337 0
M  V30 21735 H 2069.61 2.41561 -3.01969 0
M  V30 21736 H 2071.3 2.22685 -3.39362 0
M  V30 21737 H 2072.07 0.211935 -4.84537 0
M  V30 21738 H 2067.95 1.35667 -4.40585 0
M  V30 21739 H 2071.49 -1.03067 -6.89944 0
M  V30 21740 H 2067.39 0.120778 -6.45387 0
M  V30 21741 H 2068.16 -1.13639 -8.10573 0
M  V30 21742 N 2070.82 1.53744 0.346476 0
M  V30 21743 C 2072.04 1.75095 1.1116 0
M  V30 21744 C 2072.47 0.487459 1.81674 0
M  V30 21745 O 2071.83 -0.55973 1.72443 0
M  V30 21746 C 2071.87 2.92927 2.103 0
M  V30 21747 O 2070.98 2.62871 3.17762 0
M  V30 21748 H 2070.32 0.580905 0.321629 0
M  V30 21749 H 2072.85 2.00696 0.397762 0
M  V30 21750 H 2072.86 3.19633 2.53572 0
M  V30 21751 H 2071.53 3.84566 1.58372 0
M  V30 21752 H 2070.11 2.47043 2.79328 0
M  V30 21753 N 2072.3 -0.607329 1.45428 0
M  V30 21754 C 2073.54 -1.36835 1.49679 0
M  V30 21755 C 2073.88 -1.93708 0.138148 0
M  V30 21756 O 2073.15 -1.75069 -0.847414 0
M  V30 21757 C 2073.43 -2.51607 2.57616 0
M  V30 21758 C 2073.29 -1.99929 4.02925 0
M  V30 21759 C 2074.61 -3.53738 2.61835 0
M  V30 21760 H 2071.72 -0.496187 0.544947 0
M  V30 21761 H 2074.37 -0.684587 1.77238 0
M  V30 21762 H 2072.52 -3.09936 2.34247 0
M  V30 21763 H 2074.19 -1.46247 4.37504 0
M  V30 21764 H 2072.43 -1.30929 4.1357 0
M  V30 21765 H 2073.1 -2.82666 4.74135 0
M  V30 21766 H 2075.58 -3.0525 2.82775 0
M  V30 21767 H 2074.45 -4.31533 3.39221 0
M  V30 21768 H 2074.72 -4.09372 1.66935 0
M  V30 21769 N 2073.77 -1.32722 -0.849853 0
M  V30 21770 C 2075.05 -1.14168 -1.58824 0
M  V30 21771 C 2075.43 0.296136 -2.09013 0
M  V30 21772 O 2074.78 1.2935 -1.88364 0
M  V30 21773 C 2074.99 -2.1734 -2.73065 0
M  V30 21774 C 2076.34 -2.50923 -3.42524 0
M  V30 21775 O 2077.36 -2.15923 -2.83295 0
M  V30 21776 O 2076.22 -3.10942 -4.49419 0
M  V30 21777 H 2073.31 -0.440869 -0.699688 0
M  V30 21778 H 2075.86 -1.44269 -0.893563 0
M  V30 21779 H 2074.63 -3.13967 -2.33539 0
M  V30 21780 H 2074.26 -1.88261 -3.50205 0
M  V30 21781 N 2075.25 1.06673 -1.16011 0
M  V30 21782 C 2076.18 2.13994 -0.820931 0
M  V30 21783 C 2077.2 1.61909 0.170124 0
M  V30 21784 O 2078.39 1.78418 -0.0540947 0
M  V30 21785 C 2075.49 3.38304 -0.200883 0
M  V30 21786 C 2074.66 4.19718 -1.23108 0
M  V30 21787 C 2073.72 5.22396 -0.631544 0
M  V30 21788 O 2072.74 5.54171 -1.29936 0
M  V30 21789 N 2073.95 5.7756 0.583519 0
M  V30 21790 H 2076.71 2.43691 -1.74456 0
M  V30 21791 H 2074.27 1.2264 -1.05693 0
M  V30 21792 H 2076.26 4.04138 0.213139 0
M  V30 21793 H 2074.83 3.06263 0.626218 0
M  V30 21794 H 2074.05 3.49597 -1.82142 0
M  V30 21795 H 2075.34 4.7092 -1.92644 0
M  V30 21796 H 2074.74 5.54005 1.14432 0
M  V30 21797 H 2073.3 6.44989 0.939804 0
M  V30 21798 N 2076.73 0.957992 1.25141 0
M  V30 21799 C 2077.66 0.499001 2.28106 0
M  V30 21800 C 2078.64 -0.456388 1.63863 0
M  V30 21801 O 2079.83 -0.354616 1.90935 0
M  V30 21802 C 2076.96 -0.220851 3.46597 0
M  V30 21803 C 2075.91 0.649607 4.23042 0
M  V30 21804 C 2075.24 -0.201181 5.34321 0
M  V30 21805 C 2076.54 1.92939 4.85357 0
M  V30 21806 H 2078.23 1.35959 2.6675 0
M  V30 21807 H 2075.78 0.655192 1.28231 0
M  V30 21808 H 2077.73 -0.553105 4.17754 0
M  V30 21809 H 2076.45 -1.11571 3.06952 0
M  V30 21810 H 2075.11 0.964992 3.53671 0
M  V30 21811 H 2074.76 -1.0959 4.90917 0
M  V30 21812 H 2074.46 0.377954 5.86383 0
M  V30 21813 H 2075.98 -0.528325 6.0831 0
M  V30 21814 H 2077.4 1.66333 5.4864 0
M  V30 21815 H 2075.8 2.45445 5.4761 0
M  V30 21816 H 2076.87 2.6304 4.07355 0
M  V30 21817 N 2078.21 -1.39832 0.726957 0
M  V30 21818 C 2079.45 -2.00971 0.271788 0
M  V30 21819 C 2079.79 -1.57537 -1.13559 0
M  V30 21820 O 2079.06 -0.800579 -1.7726 0
M  V30 21821 C 2079.35 -3.5825 0.364596 0
M  V30 21822 C 2079.2 -4.11724 1.81117 0
M  V30 21823 C 2080.52 -4.39345 -0.257652 0
M  V30 21824 H 2077.64 -0.730152 0.100232 0
M  V30 21825 H 2080.28 -1.66152 0.921599 0
M  V30 21826 H 2078.43 -3.88042 -0.18865 0
M  V30 21827 H 2080.1 -3.92684 2.42068 0
M  V30 21828 H 2078.34 -3.65585 2.33516 0
M  V30 21829 H 2079.01 -5.20873 1.82743 0
M  V30 21830 H 2081.49 -4.1555 0.213875 0
M  V30 21831 H 2080.37 -5.4866 -0.162327 0
M  V30 21832 H 2080.63 -4.21218 -1.34267 0
M  V30 21833 N 2079.69 -0.473982 -1.50304 0
M  V30 21834 C 2080.91 0.0776132 -2.06754 0
M  V30 21835 C 2081.33 1.33251 -1.33752 0
M  V30 21836 O 2080.69 1.77889 -0.407659 0
M  V30 21837 C 2080.74 0.362773 -3.59675 0
M  V30 21838 O 2080.46 -0.842352 -4.29926 0
M  V30 21839 C 2081.96 0.961013 -4.32758 0
M  V30 21840 H 2079.18 -0.00837304 -0.670948 0
M  V30 21841 H 2081.72 -0.663594 -1.93434 0
M  V30 21842 H 2079.88 1.05392 -3.72789 0
M  V30 21843 H 2080.29 -0.588708 -5.21186 0
M  V30 21844 H 2081.77 1.11029 -5.40719 0
M  V30 21845 H 2082.24 1.95187 -3.93445 0
M  V30 21846 H 2082.85 0.308162 -4.24182 0
M  V30 21847 N 2081.16 1.56239 -0.206702 0
M  V30 21848 C 2082.13 2.18382 0.695843 0
M  V30 21849 C 2083.13 1.14149 1.13255 0
M  V30 21850 O 2084.32 1.39468 1.04376 0
M  V30 21851 C 2081.45 2.79522 1.95141 0
M  V30 21852 H 2082.64 2.99503 0.154275 0
M  V30 21853 H 2080.2 1.56241 0.0429222 0
M  V30 21854 H 2080.93 2.02231 2.53521 0
M  V30 21855 H 2080.72 3.55837 1.64689 0
M  V30 21856 H 2082.21 3.27203 2.59476 0
M  V30 21857 N 2082.64 -0.0668159 1.57458 0
M  V30 21858 C 2083.89 -0.76387 1.86676 0
M  V30 21859 C 2084.2 -1.78489 0.800057 0
M  V30 21860 O 2085.41 -2.53187 0.980236 0
M  V30 21861 C 2083.87 -1.4095 3.31151 0
M  V30 21862 C 2083.47 -0.426782 4.45963 0
M  V30 21863 C 2085.22 -2.08863 3.69563 0
M  V30 21864 C 2083.13 -1.07861 5.81481 0
M  V30 21865 H 2082.06 -0.289037 0.6964 0
M  V30 21866 H 2084.71 -0.0172645 1.83492 0
M  V30 21867 H 2083.09 -2.20453 3.28962 0
M  V30 21868 H 2084.26 0.338803 4.59553 0
M  V30 21869 H 2082.58 0.148171 4.16136 0
M  V30 21870 H 2085.17 -2.58415 4.68109 0
M  V30 21871 H 2085.52 -2.89026 2.99616 0
M  V30 21872 H 2086.05 -1.36184 3.73763 0
M  V30 21873 H 2082.79 -0.317194 6.54732 0
M  V30 21874 H 2082.31 -1.81493 5.71682 0
M  V30 21875 H 2083.99 -1.597 6.26981 0
M  V30 21876 N 2084.12 -1.53926 -0.338317 0
M  V30 21877 C 2085.37 -1.70639 -1.07542 0
M  V30 21878 C 2085.68 -0.479077 -1.89642 0
M  V30 21879 O 2086.89 -0.527259 -2.66331 0
M  V30 21880 C 2085.35 -3.0176 -1.96134 0
M  V30 21881 C 2084.95 -4.31847 -1.19216 0
M  V30 21882 C 2086.7 -3.27839 -2.6967 0
M  V30 21883 C 2084.6 -5.54039 -2.06869 0
M  V30 21884 H 2083.53 -0.635868 -0.4052 0
M  V30 21885 H 2086.19 -1.80424 -0.334569 0
M  V30 21886 H 2084.57 -2.85845 -2.7406 0
M  V30 21887 H 2085.74 -4.58482 -0.461647 0
M  V30 21888 H 2084.06 -4.12421 -0.574263 0
M  V30 21889 H 2086.65 -4.16322 -3.3553 0
M  V30 21890 H 2087 -2.45074 -3.36518 0
M  V30 21891 H 2087.53 -3.44554 -1.98815 0
M  V30 21892 H 2084.27 -6.39363 -1.44554 0
M  V30 21893 H 2083.79 -5.31645 -2.77694 0
M  V30 21894 H 2085.47 -5.89881 -2.658 0
M  V30 21895 N 2085.6 0.599608 -1.45748 0
M  V30 21896 C 2086.82 1.38971 -1.53954 0
M  V30 21897 C 2087.25 1.87278 -0.175618 0
M  V30 21898 O 2086.61 1.60602 0.841223 0
M  V30 21899 C 2086.66 2.56482 -2.53474 0
M  V30 21900 O 2085.76 3.57375 -2.05808 0
M  V30 21901 H 2085.1 0.414567 -0.518681 0
M  V30 21902 H 2087.63 0.728972 -1.91173 0
M  V30 21903 H 2087.64 3.03623 -2.72539 0
M  V30 21904 H 2086.32 2.20672 -3.52529 0
M  V30 21905 H 2084.89 3.1683 -1.96656 0
M  V30 21906 N 2087.08 1.33171 0.842803 0
M  V30 21907 C 2088.35 1.15008 1.58216 0
M  V30 21908 C 2088.73 -0.285047 2.09167 0
M  V30 21909 O 2088.08 -1.28349 1.89047 0
M  V30 21910 C 2088.29 2.18785 2.71908 0
M  V30 21911 C 2089.64 2.52736 3.41188 0
M  V30 21912 O 2090.66 2.17422 2.82146 0
M  V30 21913 O 2089.52 3.13321 4.47763 0
M  V30 21914 H 2086.62 0.444573 0.69734 0
M  V30 21915 H 2089.16 1.44741 0.8859 0
M  V30 21916 H 2087.94 3.15201 2.31871 0
M  V30 21917 H 2087.56 1.90116 3.49202 0
M  V30 21918 N 2088.56 -1.06056 1.16576 0
M  V30 21919 C 2089.8 -1.78899 0.94875 0
M  V30 21920 C 2090.13 -1.87329 -0.523266 0
M  V30 21921 O 2089.39 -1.36291 -1.40439 0
M  V30 21922 C 2089.68 -3.23265 1.52429 0
M  V30 21923 C 2089.35 -3.34911 3.01904 0
M  V30 21924 C 2088.01 -3.37796 3.42706 0
M  V30 21925 C 2090.36 -3.36636 3.97902 0
M  V30 21926 C 2087.69 -3.40025 4.78121 0
M  V30 21927 C 2090.04 -3.40403 5.33206 0
M  V30 21928 C 2088.71 -3.41572 5.73485 0
M  V30 21929 H 2087.98 -0.654639 0.347172 0
M  V30 21930 H 2090.63 -1.24708 1.45328 0
M  V30 21931 H 2088.93 -3.80326 0.94126 0
M  V30 21932 H 2090.63 -3.7823 1.33204 0
M  V30 21933 H 2087.22 -3.33372 2.69372 0
M  V30 21934 H 2091.4 -3.33615 3.67443 0
M  V30 21935 H 2086.66 -3.39236 5.08654 0
M  V30 21936 H 2090.83 -3.40686 6.07377 0
M  V30 21937 H 2088.46 -3.43052 6.78395 0
M  V30 21938 N 2090.03 -0.964615 -1.24631 0
M  V30 21939 C 2090.98 -0.49166 -2.25502 0
M  V30 21940 C 2091.95 0.46115 -1.5957 0
M  V30 21941 O 2093.14 0.372197 -1.87135 0
M  V30 21942 C 2090.28 0.214964 -3.4443 0
M  V30 21943 C 2089.39 -0.776253 -4.24969 0
M  V30 21944 C 2088.52 -0.0460512 -5.3118 0
M  V30 21945 C 2087.56 -1.02754 -6.03414 0
M  V30 21946 N 2086.7 -0.327547 -7.01336 0
M  V30 21947 H 2091.54 -1.35669 -2.65326 0
M  V30 21948 H 2089.08 -0.68015 -1.30431 0
M  V30 21949 H 2091.03 0.641314 -4.12241 0
M  V30 21950 H 2089.66 1.04397 -3.05452 0
M  V30 21951 H 2088.72 -1.32105 -3.56724 0
M  V30 21952 H 2090.03 -1.52481 -4.74922 0
M  V30 21953 H 2089.18 0.438447 -6.05114 0
M  V30 21954 H 2087.92 0.735226 -4.82126 0
M  V30 21955 H 2086.93 -1.52294 -5.28286 0
M  V30 21956 H 2088.15 -1.80921 -6.54557 0
M  V30 21957 H 2086.1 0.43481 -6.54557 0
M  V30 21958 H 2086.01 -1.01503 -7.49155 0
M  V30 21959 H 2087.28 0.135085 -7.79383 0
M  V30 21960 N 2091.51 1.39445 -0.734362 0
M  V30 21961 C 2092.74 2.0535 -0.290903 0
M  V30 21962 C 2093.16 1.55004 1.06562 0
M  V30 21963 O 2092.52 0.693509 1.67512 0
M  V30 21964 C 2092.57 3.59337 -0.301562 0
M  V30 21965 O 2091.67 4.06225 0.711013 0
M  V30 21966 H 2091.01 0.650668 -0.132389 0
M  V30 21967 H 2093.54 1.78491 -1.00011 0
M  V30 21968 H 2093.55 4.0774 -0.14573 0
M  V30 21969 H 2092.23 3.95343 -1.2914 0
M  V30 21970 H 2090.8 3.69237 0.521369 0
M  V30 21971 N 2092.99 0.481946 1.5005 0
M  V30 21972 C 2093.94 -0.306558 2.28755 0
M  V30 21973 C 2094.91 -0.97752 1.3429 0
M  V30 21974 O 2096.09 -0.987865 1.63236 0
M  V30 21975 C 2093.23 -1.37629 3.16468 0
M  V30 21976 C 2092.34 -0.71902 4.25974 0
M  V30 21977 C 2091.48 -1.76757 5.0093 0
M  V30 21978 C 2090.52 -1.09113 6.02296 0
M  V30 21979 N 2089.66 -2.08302 6.70489 0
M  V30 21980 H 2094.5 0.370886 2.95683 0
M  V30 21981 H 2092.03 0.194749 1.45805 0
M  V30 21982 H 2093.99 -2.00828 3.65683 0
M  V30 21983 H 2092.62 -2.02275 2.51564 0
M  V30 21984 H 2091.67 0.0257987 3.80391 0
M  V30 21985 H 2092.98 -0.1856 4.98455 0
M  V30 21986 H 2092.14 -2.47509 5.53917 0
M  V30 21987 H 2090.88 -2.33481 4.2818 0
M  V30 21988 H 2089.88 -0.369286 5.48558 0
M  V30 21989 H 2091.11 -0.530637 6.77024 0
M  V30 21990 H 2089.05 -2.64023 6.00523 0
M  V30 21991 H 2088.97 -1.59974 7.3888 0
M  V30 21992 H 2090.24 -2.78401 7.28089 0
M  V30 21993 N 2094.47 -1.56127 0.214985 0
M  V30 21994 C 2095.4 -2.15949 -0.737656 0
M  V30 21995 C 2096.38 -1.10195 -1.19566 0
M  V30 21996 O 2097.56 -1.38416 -1.27959 0
M  V30 21997 C 2094.69 -2.73447 -1.99861 0
M  V30 21998 C 2093.74 -3.9197 -1.68112 0
M  V30 21999 S 2094.57 -5.29313 -0.811685 0
M  V30 22000 C 2095.72 -5.90245 -2.08235 0
M  V30 22001 H 2095.96 -2.96415 -0.229174 0
M  V30 22002 H 2093.49 -1.544 -0.000249549 0
M  V30 22003 H 2095.45 -3.07215 -2.72267 0
M  V30 22004 H 2094.11 -1.92985 -2.47821 0
M  V30 22005 H 2093.3 -4.3068 -2.61783 0
M  V30 22006 H 2092.9 -3.59314 -1.03774 0
M  V30 22007 H 2095.2 -6.05819 -3.03299 0
M  V30 22008 H 2096.14 -6.86408 -1.73925 0
M  V30 22009 H 2096.55 -5.1902 -2.21989 0
M  V30 22010 N 2095.95 0.0584645 -1.57492 0
M  V30 22011 C 2096.88 1.09503 -2.0135 0
M  V30 22012 C 2097.89 1.34209 -0.921509 0
M  V30 22013 O 2099.08 1.32214 -1.19924 0
M  V30 22014 C 2096.18 2.44314 -2.3487 0
M  V30 22015 C 2095.35 2.39378 -3.66083 0
M  V30 22016 C 2094.41 3.56403 -3.87122 0
M  V30 22017 O 2093.44 3.37227 -4.58549 0
M  V30 22018 N 2094.64 4.77234 -3.30496 0
M  V30 22019 H 2097.4 0.721431 -2.90887 0
M  V30 22020 H 2094.97 0.24691 -1.60006 0
M  V30 22021 H 2096.96 3.21269 -2.46106 0
M  V30 22022 H 2095.53 2.73626 -1.51154 0
M  V30 22023 H 2094.75 1.47718 -3.65476 0
M  V30 22024 H 2096.04 2.33194 -4.52215 0
M  V30 22025 H 2095.43 4.95717 -2.72546 0
M  V30 22026 H 2093.99 5.51655 -3.47161 0
M  V30 22027 N 2097.42 1.54103 0.330149 0
M  V30 22028 C 2098.67 1.71207 1.06635 0
M  V30 22029 C 2098.99 0.489127 1.89386 0
M  V30 22030 O 2100.19 0.541376 2.66048 0
M  V30 22031 C 2098.65 3.02796 1.94531 0
M  V30 22032 C 2098.26 4.32473 1.16924 0
M  V30 22033 C 2100 3.29264 2.67928 0
M  V30 22034 C 2097.91 5.55128 2.03928 0
M  V30 22035 H 2096.84 0.638008 0.401822 0
M  V30 22036 H 2099.49 1.80599 0.324996 0
M  V30 22037 H 2097.87 2.87294 2.7254 0
M  V30 22038 H 2099.04 4.5872 0.437326 0
M  V30 22039 H 2097.36 4.1272 0.552383 0
M  V30 22040 H 2099.96 4.18095 3.33318 0
M  V30 22041 H 2100.3 2.46855 3.35214 0
M  V30 22042 H 2100.83 3.45603 1.96985 0
M  V30 22043 H 2097.57 6.4012 1.41161 0
M  V30 22044 H 2097.09 5.3311 2.74871 0
M  V30 22045 H 2098.77 5.91282 2.62668 0
M  V30 22046 N 2098.9 -0.59187 1.46064 0
M  V30 22047 C 2100.13 -1.37666 1.54453 0
M  V30 22048 C 2100.55 -1.87916 0.18248 0
M  V30 22049 O 2099.9 -1.63106 -0.818692 0
M  V30 22050 C 2099.95 -2.57045 2.54185 0
M  V30 22051 O 2099.67 -2.08879 3.85099 0
M  V30 22052 C 2101.18 -3.49713 2.72426 0
M  V30 22053 H 2098.4 -0.420872 0.522597 0
M  V30 22054 H 2100.94 -0.720387 1.91391 0
M  V30 22055 H 2099.09 -3.18681 2.20276 0
M  V30 22056 H 2099.51 -2.86557 4.39301 0
M  V30 22057 H 2100.98 -4.29981 3.4615 0
M  V30 22058 H 2101.46 -4.01064 1.7901 0
M  V30 22059 H 2102.07 -2.9392 3.07395 0
M  V30 22060 N 2100.38 -1.33616 -0.835729 0
M  V30 22061 C 2101.66 -1.15846 -1.57604 0
M  V30 22062 C 2102.04 0.273951 -2.09315 0
M  V30 22063 O 2101.39 1.27345 -1.89725 0
M  V30 22064 C 2101.6 -2.20224 -2.70744 0
M  V30 22065 C 2102.94 -2.54542 -3.39843 0
M  V30 22066 O 2103.97 -2.18915 -2.80989 0
M  V30 22067 O 2102.83 -3.15692 -4.46095 0
M  V30 22068 H 2099.92 -0.448265 -0.694973 0
M  V30 22069 H 2102.47 -1.45209 -0.878211 0
M  V30 22070 H 2101.24 -3.16426 -2.30196 0
M  V30 22071 H 2100.86 -1.91965 -3.48188 0
M  V30 22072 N 2101.86 1.05436 -1.17136 0
M  V30 22073 C 2103.08 1.82612 -0.983237 0
M  V30 22074 C 2103.51 1.82295 0.463697 0
M  V30 22075 O 2102.87 1.23011 1.33184 0
M  V30 22076 C 2102.91 3.26726 -1.52587 0
M  V30 22077 O 2102.02 4.05743 -0.737979 0
M  V30 22078 H 2101.36 0.564713 -0.349279 0
M  V30 22079 H 2103.89 1.3288 -1.55576 0
M  V30 22080 H 2103.9 3.77531 -1.54708 0
M  V30 22081 H 2102.57 3.26271 -2.57915 0
M  V30 22082 H 2101.15 3.64479 -0.78798 0
M  V30 22083 N 2103.34 0.971211 1.24118 0
M  V30 22084 C 2104.27 0.523167 2.27564 0
M  V30 22085 C 2105.25 -0.438983 1.64338 0
M  V30 22086 O 2106.43 -0.334345 1.913 0
M  V30 22087 C 2103.56 -0.184078 3.46812 0
M  V30 22088 C 2102.52 0.694439 4.22329 0
M  V30 22089 C 2101.84 -0.144498 5.34505 0
M  V30 22090 C 2103.14 1.98076 4.83284 0
M  V30 22091 H 2104.84 1.3878 2.65293 0
M  V30 22092 H 2102.38 0.668756 1.27529 0
M  V30 22093 H 2104.34 -0.508765 4.18318 0
M  V30 22094 H 2103.06 -1.08309 3.08118 0
M  V30 22095 H 2101.72 1.00245 3.52628 0
M  V30 22096 H 2101.37 -1.04377 4.92051 0
M  V30 22097 H 2101.07 0.440127 5.85949 0
M  V30 22098 H 2102.59 -0.463776 6.08836 0
M  V30 22099 H 2104 1.72143 5.46845 0
M  V30 22100 H 2102.4 2.5124 5.44976 0
M  V30 22101 H 2103.47 2.67346 4.04542 0
M  V30 22102 N 2104.81 -1.39054 0.741747 0
M  V30 22103 C 2105.72 -2.34352 0.107946 0
M  V30 22104 C 2106.74 -1.58666 -0.71422 0
M  V30 22105 O 2107.92 -1.90923 -0.641124 0
M  V30 22106 C 2104.98 -3.3773 -0.783547 0
M  V30 22107 C 2104.04 -4.29269 0.0516392 0
M  V30 22108 C 2103.28 -5.27709 -0.797398 0
M  V30 22109 O 2103.5 -5.3283 -2.03588 0
M  V30 22110 O 2102.43 -6.01489 -0.222478 0
M  V30 22111 H 2106.26 -2.90223 0.894677 0
M  V30 22112 H 2103.84 -1.40696 0.502494 0
M  V30 22113 H 2105.73 -4.01059 -1.29342 0
M  V30 22114 H 2104.4 -2.84233 -1.54898 0
M  V30 22115 H 2103.31 -3.6914 0.607193 0
M  V30 22116 H 2104.64 -4.85989 0.779446 0
M  V30 22117 N 2106.29 -0.489897 -1.49792 0
M  V30 22118 C 2107.52 0.0556798 -2.06825 0
M  V30 22119 C 2107.94 1.31825 -1.35158 0
M  V30 22120 O 2107.29 1.77446 -0.426503 0
M  V30 22121 C 2107.34 0.324604 -3.6004 0
M  V30 22122 O 2107.06 -0.887904 -4.29008 0
M  V30 22123 C 2108.57 0.91506 -4.33753 0
M  V30 22124 H 2105.79 -0.0154889 -0.670821 0
M  V30 22125 H 2108.33 -0.684073 -1.92719 0
M  V30 22126 H 2106.48 1.01432 -3.73885 0
M  V30 22127 H 2106.9 -0.643954 -5.20532 0
M  V30 22128 H 2108.37 1.05288 -5.41866 0
M  V30 22129 H 2108.85 1.91003 -3.95493 0
M  V30 22130 H 2109.46 0.263155 -4.24485 0
M  V30 22131 N 2107.77 1.56011 -0.223262 0
M  V30 22132 C 2108.7 2.23355 0.680795 0
M  V30 22133 C 2109.68 1.20584 1.19973 0
M  V30 22134 O 2110.87 1.49174 1.24342 0
M  V30 22135 C 2108 2.91478 1.88833 0
M  V30 22136 C 2106.95 4.00736 1.50316 0
M  V30 22137 C 2106.28 4.56164 2.7896 0
M  V30 22138 C 2107.58 5.17697 0.69188 0
M  V30 22139 H 2109.27 2.99162 0.119304 0
M  V30 22140 H 2106.82 1.43891 0.055942 0
M  V30 22141 H 2108.77 3.37282 2.52623 0
M  V30 22142 H 2107.49 2.13121 2.47481 0
M  V30 22143 H 2106.15 3.55665 0.888708 0
M  V30 22144 H 2105.8 3.74535 3.35757 0
M  V30 22145 H 2105.5 5.29903 2.53922 0
M  V30 22146 H 2107.02 5.04687 3.43691 0
M  V30 22147 H 2108.44 5.59872 1.23353 0
M  V30 22148 H 2106.84 5.97679 0.538515 0
M  V30 22149 H 2107.91 4.83964 -0.301131 0
M  V30 22150 N 2109.25 -0.0501116 1.5752 0
M  V30 22151 C 2110.5 -0.745096 1.88294 0
M  V30 22152 C 2110.82 -1.76469 0.817869 0
M  V30 22153 O 2110.08 -1.94836 -0.183698 0
M  V30 22154 C 2110.38 -1.46973 3.25782 0
M  V30 22155 C 2110.04 -0.588106 4.47048 0
M  V30 22156 C 2108.71 -0.345215 4.7996 0
M  V30 22157 C 2111.06 0.0218798 5.21195 0
M  V30 22158 C 2108.39 0.516787 5.8442 0
M  V30 22159 C 2110.74 0.87146 6.26569 0
M  V30 22160 C 2109.4 1.12402 6.57968 0
M  V30 22161 H 2108.67 -0.27265 0.689016 0
M  V30 22162 H 2111.32 -0.00536588 1.91499 0
M  V30 22163 H 2109.62 -2.28224 3.18467 0
M  V30 22164 H 2111.32 -2.01265 3.46834 0
M  V30 22165 H 2107.91 -0.787561 4.21302 0
M  V30 22166 H 2112.09 -0.152846 4.96065 0
M  V30 22167 H 2107.35 0.720981 6.07134 0
M  V30 22168 H 2111.52 1.35074 6.83175 0
M  V30 22169 H 2109.15 1.79371 7.38736 0
M  V30 22170 N 2110.73 -1.54276 -0.321972 0
M  V30 22171 C 2111.66 -1.80114 -1.41745 0
M  V30 22172 C 2112.67 -0.683177 -1.47772 0
M  V30 22173 O 2113.86 -0.960312 -1.50467 0
M  V30 22174 C 2110.96 -1.90532 -2.80269 0
M  V30 22175 C 2110.13 -3.20712 -2.97427 0
M  V30 22176 C 2109.19 -3.21811 -4.16322 0
M  V30 22177 O 2108.22 -3.95443 -4.09406 0
M  V30 22178 N 2109.42 -2.45708 -5.25935 0
M  V30 22179 H 2112.19 -2.74652 -1.19943 0
M  V30 22180 H 2109.75 -1.53592 -0.511965 0
M  V30 22181 H 2111.74 -1.88693 -3.58018 0
M  V30 22182 H 2110.31 -1.03083 -2.95115 0
M  V30 22183 H 2109.53 -3.35498 -2.06965 0
M  V30 22184 H 2110.82 -4.0666 -3.05786 0
M  V30 22185 H 2110.21 -1.85477 -5.34429 0
M  V30 22186 H 2108.77 -2.49645 -6.02097 0
M  V30 22187 N 2112.2 0.584116 -1.46376 0
M  V30 22188 C 2113.45 1.33973 -1.51313 0
M  V30 22189 C 2113.77 1.94294 -0.165758 0
M  V30 22190 O 2113.04 1.78481 0.807546 0
M  V30 22191 H 2111.62 0.497422 -0.557298 0
M  V30 22192 H 2114.29 0.684191 -1.82496 0
M  V30 22193 H 2113.38 2.14716 -2.26503 0
M  V30 22194 N 2113.68 1.34058 0.828631 0
M  V30 22195 C 2115.09 1.2341 1.40095 0
M  V30 22196 C 2115.45 -0.142779 1.9568 0
M  V30 22197 O 2114.57 -1.04286 1.89614 0
M  V30 22198 C 2115.17 2.23441 2.54675 0
M  V30 22199 C 2113.72 2.16602 3.07832 0
M  V30 22200 C 2112.87 2.1036 1.80676 0
M  V30 22201 H 2115.82 1.45507 0.633514 0
M  V30 22202 H 2115.84 1.84809 3.32605 0
M  V30 22203 H 2115.36 3.23642 2.1419 0
M  V30 22204 H 2113.46 1.19738 3.52836 0
M  V30 22205 H 2113.57 3.07604 3.6731 0
M  V30 22206 H 2111.93 1.55992 2.01342 0
M  V30 22207 H 2112.72 3.12386 1.42373 0
M  V30 22208 N 2115.16 -1.04814 1.17694 0
M  V30 22209 C 2116.41 -1.78147 0.969105 0
M  V30 22210 C 2116.74 -1.87634 -0.500715 0
M  V30 22211 O 2116.02 -1.37892 -1.37172 0
M  V30 22212 C 2116.3 -3.2183 1.61548 0
M  V30 22213 C 2116.15 -3.20332 3.15765 0
M  V30 22214 C 2117.47 -4.19759 1.32251 0
M  V30 22215 H 2114.59 -0.646701 0.353479 0
M  V30 22216 H 2117.23 -1.22485 1.45249 0
M  V30 22217 H 2115.38 -3.69358 1.20445 0
M  V30 22218 H 2117.05 -2.8085 3.65952 0
M  V30 22219 H 2115.3 -2.58568 3.48318 0
M  V30 22220 H 2115.97 -4.21759 3.56123 0
M  V30 22221 H 2118.44 -3.80743 1.67851 0
M  V30 22222 H 2117.32 -5.18527 1.80057 0
M  V30 22223 H 2117.58 -4.41426 0.244002 0
M  V30 22224 N 2116.64 -0.977779 -1.23601 0
M  V30 22225 C 2117.87 -0.662189 -1.957 0
M  V30 22226 C 2118.28 0.77446 -1.72623 0
M  V30 22227 O 2117.62 1.53247 -1.01297 0
M  V30 22228 C 2117.68 -0.869464 -3.48827 0
M  V30 22229 C 2117.35 -2.28768 -3.95619 0
M  V30 22230 C 2118.34 -3.26617 -4.04497 0
M  V30 22231 C 2116.03 -2.61807 -4.28675 0
M  V30 22232 C 2118.02 -4.55586 -4.45781 0
M  V30 22233 C 2115.71 -3.91 -4.69641 0
M  V30 22234 C 2116.71 -4.87701 -4.7816 0
M  V30 22235 O 2116.4 -6.14587 -5.18206 0
M  V30 22236 H 2116.13 -0.245256 -0.629941 0
M  V30 22237 H 2118.68 -1.31105 -1.58116 0
M  V30 22238 H 2116.91 -0.163432 -3.86354 0
M  V30 22239 H 2118.6 -0.551434 -4.02137 0
M  V30 22240 H 2119.37 -3.02422 -3.79165 0
M  V30 22241 H 2115.25 -1.87252 -4.21257 0
M  V30 22242 H 2118.79 -5.31065 -4.52345 0
M  V30 22243 H 2114.69 -4.14991 -4.94422 0
M  V30 22244 H 2115.45 -6.18301 -5.36326 0
M  V30 22245 N 2118.12 1.38658 -0.749111 0
M  V30 22246 C 2119.06 2.30496 -0.118423 0
M  V30 22247 C 2120.03 1.49947 0.714492 0
M  V30 22248 O 2121.22 1.78591 0.671546 0
M  V30 22249 C 2118.36 3.3635 0.772186 0
M  V30 22250 C 2117.47 4.31935 -0.0748716 0
M  V30 22251 C 2116.61 5.24859 0.818323 0
M  V30 22252 C 2115.65 6.12091 -0.0326386 0
M  V30 22253 N 2114.78 6.97327 0.817267 0
M  V30 22254 H 2119.62 2.83856 -0.90718 0
M  V30 22255 H 2117.16 1.39755 -0.459001 0
M  V30 22256 H 2119.12 3.96326 1.30313 0
M  V30 22257 H 2117.75 2.84411 1.52677 0
M  V30 22258 H 2116.8 3.73458 -0.723395 0
M  V30 22259 H 2118.11 4.93396 -0.732237 0
M  V30 22260 H 2117.27 5.8993 1.4166 0
M  V30 22261 H 2116.01 4.63754 1.50943 0
M  V30 22262 H 2115.01 5.4602 -0.643614 0
M  V30 22263 H 2116.24 6.75264 -0.720742 0
M  V30 22264 H 2114.18 6.38775 1.49341 0
M  V30 22265 H 2114.1 7.55689 0.216698 0
M  V30 22266 H 2115.37 7.66813 1.40066 0
M  V30 22267 N 2119.6 0.497834 1.49531 0
M  V30 22268 C 2120.87 -0.110673 1.95287 0
M  V30 22269 C 2121.25 -1.54433 1.43923 0
M  V30 22270 O 2120.6 -2.19012 0.651616 0
M  V30 22271 C 2120.81 -0.0265636 3.4899 0
M  V30 22272 C 2122.16 -0.202082 4.24119 0
M  V30 22273 O 2123.18 -0.1019 3.56054 0
M  V30 22274 O 2122.04 -0.407373 5.4498 0
M  V30 22275 H 2119.14 -0.0970406 0.821287 0
M  V30 22276 H 2121.68 0.560146 1.60189 0
M  V30 22277 H 2120.45 0.973355 3.79001 0
M  V30 22278 H 2120.08 -0.737668 3.90697 0
M  V30 22279 N 2121.07 -1.5589 0.231532 0
M  V30 22280 C 2122 -2.23713 -0.66894 0
M  V30 22281 C 2122.98 -1.21219 -1.19332 0
M  V30 22282 O 2124.17 -1.49831 -1.23549 0
M  V30 22283 C 2121.3 -2.92476 -1.87284 0
M  V30 22284 C 2120.25 -4.01527 -1.48189 0
M  V30 22285 C 2119.58 -4.57637 -2.76537 0
M  V30 22286 C 2120.88 -5.18057 -0.664415 0
M  V30 22287 H 2122.57 -2.99221 -0.103437 0
M  V30 22288 H 2120.12 -1.43919 -0.0483103 0
M  V30 22289 H 2122.07 -3.38617 -2.50831 0
M  V30 22290 H 2120.8 -2.14431 -2.46347 0
M  V30 22291 H 2119.46 -3.56131 -0.869833 0
M  V30 22292 H 2119.1 -3.7631 -3.33766 0
M  V30 22293 H 2118.8 -5.31242 -2.51108 0
M  V30 22294 H 2120.33 -5.06503 -3.41009 0
M  V30 22295 H 2121.74 -5.60519 -1.20382 0
M  V30 22296 H 2120.14 -5.97956 -0.506811 0
M  V30 22297 H 2121.21 -4.83798 0.326792 0
M  V30 22298 N 2122.55 0.0417572 -1.57545 0
M  V30 22299 C 2123.46 1.06351 -2.09109 0
M  V30 22300 C 2124.48 1.40464 -1.02694 0
M  V30 22301 O 2125.65 1.50038 -1.34352 0
M  V30 22302 C 2122.72 2.34925 -2.54973 0
M  V30 22303 C 2121.78 2.0751 -3.75816 0
M  V30 22304 C 2121.01 3.29954 -4.19483 0
M  V30 22305 O 2121.24 4.40174 -3.62772 0
M  V30 22306 O 2120.17 3.16399 -5.12031 0
M  V30 22307 H 2124 0.655348 -2.96545 0
M  V30 22308 H 2121.58 0.257909 -1.47157 0
M  V30 22309 H 2123.46 3.10537 -2.84859 0
M  V30 22310 H 2122.14 2.75062 -1.70653 0
M  V30 22311 H 2121.04 1.29507 -3.50968 0
M  V30 22312 H 2122.38 1.72237 -4.61081 0
M  V30 22313 N 2124.03 1.54445 0.313786 0
M  V30 22314 C 2125.28 1.72328 1.04814 0
M  V30 22315 C 2125.59 0.509186 1.88856 0
M  V30 22316 O 2126.8 0.569563 2.65459 0
M  V30 22317 C 2125.25 3.04843 1.91309 0
M  V30 22318 C 2124.86 4.33689 1.12331 0
M  V30 22319 C 2126.61 3.32087 2.6442 0
M  V30 22320 C 2124.51 5.5726 1.98028 0
M  V30 22321 H 2123.44 0.642234 0.395033 0
M  V30 22322 H 2126.09 1.80934 0.305823 0
M  V30 22323 H 2124.48 2.90169 2.69477 0
M  V30 22324 H 2125.65 4.59158 0.388648 0
M  V30 22325 H 2123.96 4.13283 0.508577 0
M  V30 22326 H 2126.56 4.21607 3.28864 0
M  V30 22327 H 2126.9 2.50397 3.32577 0
M  V30 22328 H 2127.44 3.47673 1.93308 0
M  V30 22329 H 2124.18 6.41581 1.34364 0
M  V30 22330 H 2123.7 5.35995 2.69201 0
M  V30 22331 H 2125.38 5.94035 2.56382 0
M  V30 22332 N 2125.51 -0.576345 1.46683 0
M  V30 22333 C 2126.78 -1.3367 1.428 0
M  V30 22334 C 2127.16 -2.10788 0.114803 0
M  V30 22335 O 2126.51 -2.09871 -0.903671 0
M  V30 22336 C 2126.72 -2.25735 2.66167 0
M  V30 22337 C 2128.07 -2.87363 3.12583 0
M  V30 22338 O 2129.09 -2.36045 2.6676 0
M  V30 22339 O 2127.95 -3.80589 3.92191 0
M  V30 22340 H 2125.05 -0.600913 0.568184 0
M  V30 22341 H 2127.59 -0.596834 1.58858 0
M  V30 22342 H 2126.37 -1.68221 3.53295 0
M  V30 22343 H 2125.99 -3.07049 2.52599 0
M  V30 22344 N 2126.99 -1.34495 -0.82151 0
M  V30 22345 C 2128.23 -1.27119 -1.58014 0
M  V30 22346 C 2128.56 0.158163 -1.93555 0
M  V30 22347 O 2127.84 1.10389 -1.60139 0
M  V30 22348 C 2128.12 -2.16338 -2.87871 0
M  V30 22349 C 2127.98 -3.67818 -2.58902 0
M  V30 22350 C 2129.29 -2.04971 -3.89455 0
M  V30 22351 H 2126.41 -0.463115 -0.573318 0
M  V30 22352 H 2129.06 -1.6476 -0.946264 0
M  V30 22353 H 2127.21 -1.84367 -3.41966 0
M  V30 22354 H 2128.88 -4.10161 -2.11106 0
M  V30 22355 H 2127.12 -3.88837 -1.92324 0
M  V30 22356 H 2127.79 -4.25612 -3.51509 0
M  V30 22357 H 2130.27 -2.33044 -3.44717 0
M  V30 22358 H 2129.14 -2.6962 -4.78118 0
M  V30 22359 H 2129.4 -1.02711 -4.30003 0
M  V30 22360 N 2128.46 1.04188 -1.18248 0
M  V30 22361 C 2129.7 1.78933 -0.988049 0
M  V30 22362 C 2130.07 1.86056 0.474043 0
M  V30 22363 O 2131.27 2.56994 0.787877 0
M  V30 22364 C 2129.54 3.184 -1.62347 0
M  V30 22365 S 2131.1 4.09497 -1.57663 0
M  V30 22366 H 2127.92 0.616126 -0.354837 0
M  V30 22367 H 2130.52 1.24936 -1.5037 0
M  V30 22368 H 2129.22 3.10824 -2.67986 0
M  V30 22369 H 2128.75 3.77473 -1.10805 0
M  V30 22370 H 2130.77 4.9266 -0.591661 0
M  V30 22371 N 2129.94 0.98432 1.23081 0
M  V30 22372 C 2130.89 0.520259 2.26707 0
M  V30 22373 C 2131.88 -0.424715 1.63989 0
M  V30 22374 O 2133.09 -0.298177 1.77513 0
M  V30 22375 H 2129.47 0.149826 0.736923 0
M  V30 22376 H 2131.44 1.40587 2.63207 0
M  V30 22377 C 2130.19 -0.157874 3.47341 0
M  V30 22378 H 2129.51 0.560186 3.95856 0
M  V30 22379 H 2130.95 -0.446157 4.21646 0
M  V30 22380 C 2129.41 -1.3904 3.0687 0
M  V30 22381 O 2129.94 -2.48637 3.15503 0
M  V30 22382 N 2128.14 -1.26249 2.61743 0
M  V30 22383 H 2127.69 -0.370736 2.54918 0
M  V30 22384 H 2127.65 -2.08824 2.35032 0
M  V30 22385 N 2131.42 -1.38259 0.756453 0
M  V30 22386 C 2132.65 -2.04335 0.324799 0
M  V30 22387 C 2133.06 -1.57053 -1.04784 0
M  V30 22388 O 2132.42 -0.744882 -1.66607 0
M  V30 22389 C 2132.47 -3.59882 0.341597 0
M  V30 22390 O 2132.19 -4.0543 1.66008 0
M  V30 22391 C 2133.69 -4.43179 -0.103565 0
M  V30 22392 H 2130.91 -0.656588 0.138324 0
M  V30 22393 H 2133.46 -1.76894 1.02611 0
M  V30 22394 H 2131.61 -3.8615 -0.310997 0
M  V30 22395 H 2132.03 -4.99876 1.58822 0
M  V30 22396 H 2133.5 -5.51985 -0.0406515 0
M  V30 22397 H 2133.98 -4.23827 -1.15185 0
M  V30 22398 H 2134.58 -4.22106 0.520263 0
M  V30 22399 N 2132.9 -0.505757 -1.49264 0
M  V30 22400 C 2134.31 -0.0591588 -1.86606 0
M  V30 22401 C 2134.66 1.35636 -1.41765 0
M  V30 22402 O 2133.79 2.01164 -0.797622 0
M  V30 22403 C 2134.38 -0.100581 -3.38651 0
M  V30 22404 C 2132.94 0.290698 -3.75276 0
M  V30 22405 C 2132.09 -0.471033 -2.7327 0
M  V30 22406 H 2135.04 -0.718294 -1.41514 0
M  V30 22407 H 2135.06 0.693588 -3.74125 0
M  V30 22408 H 2134.57 -1.13093 -3.71257 0
M  V30 22409 H 2132.67 1.3241 -3.48279 0
M  V30 22410 H 2132.78 -0.0320604 -4.79089 0
M  V30 22411 H 2131.15 0.0797288 -2.54575 0
M  V30 22412 H 2131.93 -1.50155 -3.0872 0
M  V30 22413 N 2134.38 1.55765 -0.239796 0
M  V30 22414 C 2135.79 1.84814 0.264689 0
M  V30 22415 C 2136.14 1.16151 1.58124 0
M  V30 22416 O 2135.26 0.437435 2.11933 0
M  V30 22417 C 2135.86 3.35281 0.487032 0
M  V30 22418 C 2134.42 3.64582 0.935793 0
M  V30 22419 C 2133.56 2.77299 0.00901728 0
M  V30 22420 H 2136.52 1.5181 -0.46254 0
M  V30 22421 H 2136.54 3.56476 1.33061 0
M  V30 22422 H 2136.05 3.85227 -0.471338 0
M  V30 22423 H 2134.15 3.20108 1.90688 0
M  V30 22424 H 2134.26 4.72415 0.797573 0
M  V30 22425 H 2132.63 2.49354 0.519113 0
M  V30 22426 H 2133.41 3.30049 -0.944598 0
M  V30 22427 N 2135.85 -0.0334016 1.57565 0
M  V30 22428 C 2137.27 -0.580549 1.77444 0
M  V30 22429 C 2137.62 -1.7584 0.870324 0
M  V30 22430 O 2136.74 -2.16305 0.0640468 0
M  V30 22431 C 2137.34 -1.05995 3.21793 0
M  V30 22432 C 2135.9 -1.55265 3.42885 0
M  V30 22433 C 2135.04 -0.488796 2.72958 0
M  V30 22434 H 2137.99 0.192826 1.57524 0
M  V30 22435 H 2138.01 -1.92748 3.28068 0
M  V30 22436 H 2137.53 -0.202479 3.87571 0
M  V30 22437 H 2135.63 -2.43211 2.82275 0
M  V30 22438 H 2135.74 -1.60314 4.51482 0
M  V30 22439 H 2134.1 -0.942831 2.36607 0
M  V30 22440 H 2134.89 0.359136 3.41416 0
M  V30 22441 N 2137.33 -1.54609 -0.305591 0
M  V30 22442 C 2138.24 -1.88292 -1.3994 0
M  V30 22443 C 2139.26 -0.77661 -1.55707 0
M  V30 22444 O 2140.43 -1.07264 -1.7046 0
M  V30 22445 C 2137.5 -2.11925 -2.74388 0
M  V30 22446 C 2136.56 -3.35656 -2.67644 0
M  V30 22447 C 2135.79 -3.58152 -3.9568 0
M  V30 22448 O 2136.02 -2.83746 -4.94818 0
M  V30 22449 O 2134.95 -4.51662 -3.97851 0
M  V30 22450 H 2138.78 -2.81339 -1.14378 0
M  V30 22451 H 2136.36 -1.40741 -0.501242 0
M  V30 22452 H 2138.24 -2.28697 -3.53943 0
M  V30 22453 H 2136.92 -1.22065 -2.99803 0
M  V30 22454 H 2135.83 -3.24253 -1.86577 0
M  V30 22455 H 2137.16 -4.25631 -2.47182 0
M  V30 22456 N 2138.81 0.568558 -1.46987 0
M  V30 22457 C 2140.05 1.33712 -1.54598 0
M  V30 22458 C 2140.41 1.90968 -0.198773 0
M  V30 22459 O 2141.62 2.68383 -0.14968 0
M  V30 22460 C 2139.89 2.42591 -2.62458 0
M  V30 22461 S 2141.45 3.29686 -2.89573 0
M  V30 22462 H 2138.26 0.455359 -0.546048 0
M  V30 22463 H 2140.87 0.65212 -1.84303 0
M  V30 22464 H 2139.57 1.98943 -3.58956 0
M  V30 22465 H 2139.1 3.15846 -2.34531 0
M  V30 22466 H 2141.12 4.41785 -2.25922 0
M  V30 22467 N 2140.29 1.34929 0.814366 0
M  V30 22468 C 2141.54 1.27105 1.56612 0
M  V30 22469 C 2141.85 -0.154812 1.94986 0
M  V30 22470 O 2143.06 -0.355268 2.69166 0
M  V30 22471 C 2141.51 2.22863 2.82595 0
M  V30 22472 C 2141.12 3.70753 2.51489 0
M  V30 22473 C 2142.86 2.23965 3.6061 0
M  V30 22474 C 2140.77 4.58355 3.73717 0
M  V30 22475 H 2139.7 0.472214 0.587818 0
M  V30 22476 H 2142.35 1.60146 0.895848 0
M  V30 22477 H 2140.73 1.82784 3.51292 0
M  V30 22478 H 2141.91 4.19421 1.90848 0
M  V30 22479 H 2140.22 3.72182 1.86733 0
M  V30 22480 H 2142.82 2.86634 4.51381 0
M  V30 22481 H 2143.16 1.24126 3.97364 0
M  V30 22482 H 2143.7 2.62533 2.98866 0
M  V30 22483 H 2140.44 5.59163 3.42077 0
M  V30 22484 H 2139.96 4.14418 4.3361 0
M  V30 22485 H 2141.63 4.73391 4.41033 0
M  V30 22486 N 2141.77 -1.0356 1.18799 0
M  V30 22487 C 2142.71 -2.13799 0.916116 0
M  V30 22488 C 2143.71 -1.68934 -0.125535 0
M  V30 22489 O 2144.91 -1.79985 0.0230864 0
M  V30 22490 H 2141.29 -0.698404 0.278811 0
M  V30 22491 H 2143.26 -2.33925 1.85262 0
M  V30 22492 C 2142.01 -3.44591 0.463926 0
M  V30 22493 H 2141.33 -3.79526 1.25698 0
M  V30 22494 H 2142.77 -4.22845 0.312739 0
M  V30 22495 C 2141.23 -3.26743 -0.821008 0
M  V30 22496 O 2141.76 -3.54778 -1.88403 0
M  V30 22497 N 2139.97 -2.80058 -0.775608 0
M  V30 22498 H 2139.51 -2.57444 0.089694 0
M  V30 22499 H 2139.47 -2.68497 -1.63575 0
M  V30 22500 N 2143.25 -0.990834 -1.22557 0
M  V30 22501 C 2144.52 -0.581554 -1.86755 0
M  V30 22502 C 2144.9 0.941178 -1.88958 0
M  V30 22503 O 2144.25 1.82226 -1.37862 0
M  V30 22504 C 2144.46 -1.19961 -3.27735 0
M  V30 22505 C 2145.81 -1.29885 -4.04246 0
M  V30 22506 O 2146.83 -1.15385 -3.36994 0
M  V30 22507 O 2145.69 -1.53066 -5.24626 0
M  V30 22508 H 2142.79 -0.197289 -0.803123 0
M  V30 22509 H 2145.33 -1.08658 -1.30351 0
M  V30 22510 H 2144.1 -2.24125 -3.20755 0
M  V30 22511 H 2143.73 -0.680045 -3.91741 0
M  V30 22512 N 2144.72 1.37856 -0.763775 0
M  V30 22513 C 2145.65 2.32961 -0.158515 0
M  V30 22514 C 2146.63 1.55381 0.692142 0
M  V30 22515 O 2147.82 1.83655 0.631241 0
M  V30 22516 C 2144.95 3.39593 0.727585 0
M  V30 22517 C 2143.9 4.27995 -0.0211379 0
M  V30 22518 C 2143.23 5.2557 0.983884 0
M  V30 22519 C 2144.53 5.08434 -1.1955 0
M  V30 22520 H 2146.22 2.83828 -0.952999 0
M  V30 22521 H 2143.77 1.36465 -0.459721 0
M  V30 22522 H 2145.72 4.05098 1.16076 0
M  V30 22523 H 2144.45 2.87233 1.5545 0
M  V30 22524 H 2143.11 3.6401 -0.435002 0
M  V30 22525 H 2142.75 4.69493 1.80514 0
M  V30 22526 H 2142.45 5.85574 0.487507 0
M  V30 22527 H 2143.98 5.9395 1.41616 0
M  V30 22528 H 2145.39 5.67122 -0.839372 0
M  V30 22529 H 2143.79 5.77724 -1.62342 0
M  V30 22530 H 2144.86 4.41575 -2.00349 0
M  V30 22531 N 2146.2 0.513665 1.48994 0
M  V30 22532 C 2147.13 -0.247058 2.32189 0
M  V30 22533 C 2148.11 -0.950613 1.41058 0
M  V30 22534 O 2149.3 -0.939562 1.69958 0
M  V30 22535 C 2146.43 -1.30433 3.21876 0
M  V30 22536 C 2145.38 -0.719902 4.21902 0
M  V30 22537 C 2144.71 -1.87863 5.00611 0
M  V30 22538 C 2146.01 0.297524 5.21452 0
M  V30 22539 H 2147.7 0.447403 2.96038 0
M  V30 22540 H 2145.25 0.216608 1.42362 0
M  V30 22541 H 2147.2 -1.84434 3.78896 0
M  V30 22542 H 2145.92 -2.02815 2.55995 0
M  V30 22543 H 2144.58 -0.201546 3.66046 0
M  V30 22544 H 2144.23 -2.59044 4.31167 0
M  V30 22545 H 2143.93 -1.49359 5.68301 0
M  V30 22546 H 2145.46 -2.42273 5.60478 0
M  V30 22547 H 2146.87 -0.1548 5.73091 0
M  V30 22548 H 2145.27 0.599071 5.97102 0
M  V30 22549 H 2146.34 1.20903 4.69585 0
M  V30 22550 N 2147.68 -1.55636 0.248053 0
M  V30 22551 C 2148.63 -2.21428 -0.651012 0
M  V30 22552 C 2149.6 -1.17855 -1.17045 0
M  V30 22553 O 2150.78 -1.46306 -1.22471 0
M  V30 22554 C 2147.92 -2.91846 -1.84174 0
M  V30 22555 C 2147.03 -4.10077 -1.35872 0
M  V30 22556 C 2146.17 -4.68207 -2.50909 0
M  V30 22557 C 2145.21 -5.78685 -1.99475 0
M  V30 22558 N 2144.35 -6.30993 -3.07883 0
M  V30 22559 H 2149.19 -2.97884 -0.0832758 0
M  V30 22560 H 2146.72 -1.47071 -0.0293424 0
M  V30 22561 H 2148.68 -3.30873 -2.54124 0
M  V30 22562 H 2147.31 -2.17862 -2.38193 0
M  V30 22563 H 2146.36 -3.76356 -0.553219 0
M  V30 22564 H 2147.67 -4.89829 -0.941776 0
M  V30 22565 H 2146.83 -5.09814 -3.28899 0
M  V30 22566 H 2145.57 -3.87674 -2.95905 0
M  V30 22567 H 2144.57 -5.36555 -1.19955 0
M  V30 22568 H 2145.8 -6.6107 -1.55447 0
M  V30 22569 H 2143.74 -5.53365 -3.52312 0
M  V30 22570 H 2143.66 -7.05941 -2.70523 0
M  V30 22571 H 2144.93 -6.77258 -3.8593 0
M  V30 22572 N 2149.16 0.0250451 -1.5758 0
M  V30 22573 C 2150.38 0.730408 -1.94113 0
M  V30 22574 C 2150.81 1.67882 -0.848362 0
M  V30 22575 O 2150.17 1.80242 0.195596 0
M  V30 22576 C 2150.21 1.46014 -3.29715 0
M  V30 22577 O 2149.32 2.57351 -3.22249 0
M  V30 22578 H 2148.66 0.196157 -0.634365 0
M  V30 22579 H 2151.19 -0.0206802 -2.0459 0
M  V30 22580 H 2151.2 1.82917 -3.64699 0
M  V30 22581 H 2149.87 0.764593 -4.08811 0
M  V30 22582 H 2148.45 2.22961 -2.98903 0
M  V30 22583 N 2150.64 1.54769 0.297388 0
M  V30 22584 C 2151.88 1.74479 1.03367 0
M  V30 22585 C 2152.21 0.531007 1.86799 0
M  V30 22586 O 2151.49 -0.471847 1.8869 0
M  V30 22587 C 2151.77 3.03588 1.93665 0
M  V30 22588 C 2151.63 4.35274 1.13389 0
M  V30 22589 C 2152.94 3.28586 2.92779 0
M  V30 22590 H 2150.06 0.63483 0.37438 0
M  V30 22591 H 2152.71 1.87487 0.308023 0
M  V30 22592 H 2150.86 2.9263 2.55538 0
M  V30 22593 H 2152.53 4.58155 0.537739 0
M  V30 22594 H 2150.77 4.31596 0.436685 0
M  V30 22595 H 2151.44 5.21886 1.7983 0
M  V30 22596 H 2153.92 3.39177 2.41035 0
M  V30 22597 H 2152.79 4.20233 3.53122 0
M  V30 22598 H 2153.05 2.47054 3.66629 0
M  V30 22599 N 2152.11 -0.560755 1.47286 0
M  V30 22600 C 2153.39 -1.32148 1.4421 0
M  V30 22601 C 2153.77 -2.10654 0.137154 0
M  V30 22602 O 2153.12 -2.10818 -0.88136 0
M  V30 22603 C 2153.33 -2.22899 2.68546 0
M  V30 22604 C 2154.68 -2.84031 3.15613 0
M  V30 22605 O 2155.7 -2.33202 2.69249 0
M  V30 22606 O 2154.56 -3.76408 3.96206 0
M  V30 22607 H 2151.65 -0.594853 0.574525 0
M  V30 22608 H 2154.2 -0.579952 1.59482 0
M  V30 22609 H 2152.97 -1.64465 3.55059 0
M  V30 22610 H 2152.59 -3.04353 2.55842 0
M  V30 22611 N 2153.59 -1.35359 -0.807199 0
M  V30 22612 C 2154.82 -1.31869 -1.60079 0
M  V30 22613 C 2155.24 0.101387 -1.87827 0
M  V30 22614 O 2154.6 1.06801 -1.46503 0
M  V30 22615 C 2154.65 -2.13049 -2.90934 0
M  V30 22616 O 2153.75 -1.51079 -3.8373 0
M  V30 22617 H 2153.09 -0.452158 -0.486261 0
M  V30 22618 H 2155.62 -1.78391 -1.00189 0
M  V30 22619 H 2155.63 -2.24982 -3.40363 0
M  V30 22620 H 2154.31 -3.16289 -2.70063 0
M  V30 22621 H 2152.88 -1.47982 -3.4228 0
M  V30 22622 N 2155.07 1.02928 -1.19346 0
M  V30 22623 C 2155.98 2.14674 -0.946161 0
M  V30 22624 C 2157 1.73748 0.0936895 0
M  V30 22625 O 2158.17 2.01195 -0.0908598 0
M  V30 22626 C 2155.24 3.43253 -0.487673 0
M  V30 22627 C 2154.3 3.98496 -1.59686 0
M  V30 22628 C 2153.53 5.20938 -1.16016 0
M  V30 22629 O 2153.75 5.70395 -0.0235541 0
M  V30 22630 O 2152.69 5.69006 -1.96254 0
M  V30 22631 H 2156.51 2.38399 -1.88148 0
M  V30 22632 H 2154.1 1.13092 -0.97625 0
M  V30 22633 H 2155.98 4.20713 -0.240612 0
M  V30 22634 H 2154.66 3.20974 0.41921 0
M  V30 22635 H 2153.56 3.22373 -1.89807 0
M  V30 22636 H 2154.9 4.25138 -2.48029 0
M  V30 22637 N 2156.55 0.997319 1.2203 0
M  V30 22638 C 2157.46 0.560352 2.2781 0
M  V30 22639 C 2158.47 -0.392977 1.69504 0
M  V30 22640 O 2159.65 -0.258715 1.99731 0
M  V30 22641 C 2156.71 -0.113747 3.46513 0
M  V30 22642 C 2155.78 0.883099 4.20119 0
M  V30 22643 C 2155.01 0.241074 5.33155 0
M  V30 22644 O 2155.23 -0.963972 5.62195 0
M  V30 22645 O 2154.17 0.948154 5.94385 0
M  V30 22646 H 2157.99 1.44049 2.67364 0
M  V30 22647 H 2155.58 0.765793 1.28281 0
M  V30 22648 H 2157.46 -0.491137 4.18528 0
M  V30 22649 H 2156.13 -0.968387 3.08875 0
M  V30 22650 H 2155.04 1.3115 3.50358 0
M  V30 22651 H 2156.37 1.70708 4.61649 0
M  V30 22652 N 2158.03 -1.37449 0.771075 0
M  V30 22653 C 2159.28 -1.98953 0.331779 0
M  V30 22654 C 2159.59 -1.61903 -1.09758 0
M  V30 22655 O 2160.79 -2.16505 -1.63823 0
M  V30 22656 C 2159.25 -3.55792 0.542247 0
M  V30 22657 C 2158.86 -4.01781 1.98183 0
M  V30 22658 C 2160.6 -4.24173 0.16654 0
M  V30 22659 C 2158.51 -5.51327 2.13993 0
M  V30 22660 H 2157.44 -0.74434 0.120306 0
M  V30 22661 H 2160.09 -1.56988 0.950108 0
M  V30 22662 H 2158.47 -3.95733 -0.145529 0
M  V30 22663 H 2159.65 -3.73086 2.7045 0
M  V30 22664 H 2157.96 -3.46179 2.31406 0
M  V30 22665 H 2160.56 -5.34052 0.263191 0
M  V30 22666 H 2160.9 -4.06825 -0.883113 0
M  V30 22667 H 2161.43 -3.89532 0.806838 0
M  V30 22668 H 2158.17 -5.736 3.17275 0
M  V30 22669 H 2157.69 -5.81707 1.46208 0
M  V30 22670 H 2159.37 -6.17286 1.93822 0
M  V30 22671 N 2159.5 -0.52156 -1.4872 0
M  V30 22672 C 2160.92 -0.178852 -1.58595 0
M  V30 22673 C 2161.12 1.31757 -1.52455 0
M  V30 22674 O 2160.18 2.09518 -1.4092 0
M  V30 22675 C 2161.49 -0.773908 -2.9057 0
M  V30 22676 C 2163.04 -0.741876 -3.04081 0
M  V30 22677 C 2163.51 -1.31536 -4.38705 0
M  V30 22678 N 2165 -1.27696 -4.45251 0
M  V30 22679 C 2165.74 -1.69067 -5.47909 0
M  V30 22680 N 2165.23 -2.18128 -6.57565 0
M  V30 22681 N 2167.03 -1.60356 -5.38742 0
M  V30 22682 H 2159.18 -1.49422 -1.50953 0
M  V30 22683 H 2161.44 -0.621023 -0.716264 0
M  V30 22684 H 2161.15 -1.82417 -3.00694 0
M  V30 22685 H 2161.02 -0.246131 -3.76396 0
M  V30 22686 H 2163.41 0.299604 -2.93575 0
M  V30 22687 H 2163.49 -1.30703 -2.19887 0
M  V30 22688 H 2163.13 -2.35572 -4.49964 0
M  V30 22689 H 2163.06 -0.72596 -5.21572 0
M  V30 22690 H 2165.55 -0.917714 -3.66588 0
M  V30 22691 H 2165.87 -2.47712 -7.32023 0
M  V30 22692 H 2164.21 -2.22116 -6.58551 0
M  V30 22693 H 2167.4 -1.21831 -4.51968 0
M  V30 22694 H 2167.58 -1.92919 -6.18616 0
M  V30 22695 N 2160.98 1.55502 -0.256304 0
M  V30 22696 C 2161.89 2.25422 0.649785 0
M  V30 22697 C 2162.91 1.27356 1.1856 0
M  V30 22698 O 2164.08 1.60253 1.21988 0
M  V30 22699 C 2161.15 2.94725 1.82587 0
M  V30 22700 C 2160.21 4.08224 1.32859 0
M  V30 22701 C 2159.44 4.74213 2.44862 0
M  V30 22702 O 2159.67 4.39321 3.63804 0
M  V30 22703 O 2158.6 5.6254 2.14086 0
M  V30 22704 H 2162.43 3.03584 0.083948 0
M  V30 22705 H 2160.01 1.4938 -0.0244329 0
M  V30 22706 H 2161.89 3.38344 2.512 0
M  V30 22707 H 2160.57 2.19495 2.37915 0
M  V30 22708 H 2159.48 3.69102 0.609468 0
M  V30 22709 H 2160.81 4.853 0.82129 0
M  V30 22710 N 2162.46 -0.0166879 1.57591 0
M  V30 22711 C 2163.69 -0.715388 1.93819 0
M  V30 22712 C 2164.1 -1.68753 0.855524 0
M  V30 22713 O 2163.44 -1.82858 -0.175702 0
M  V30 22714 C 2163.5 -1.51689 3.2593 0
M  V30 22715 C 2163.17 -0.708176 4.5148 0
M  V30 22716 C 2164.16 -0.00306199 5.199 0
M  V30 22717 C 2161.85 -0.659065 4.97957 0
M  V30 22718 C 2163.84 0.740329 6.33086 0
M  V30 22719 C 2161.53 0.0880628 6.11037 0
M  V30 22720 C 2162.53 0.786509 6.78456 0
M  V30 22721 O 2162.22 1.52148 7.89371 0
M  V30 22722 H 2161.95 -0.205311 0.644068 0
M  V30 22723 H 2164.5 0.0254916 2.05384 0
M  V30 22724 H 2162.73 -2.30187 3.10726 0
M  V30 22725 H 2164.42 -2.09936 3.47393 0
M  V30 22726 H 2165.19 -0.0319562 4.84989 0
M  V30 22727 H 2161.07 -1.19222 4.45317 0
M  V30 22728 H 2164.61 1.28603 6.85644 0
M  V30 22729 H 2160.51 0.118837 6.45391 0
M  V30 22730 H 2161.28 1.43645 8.05797 0
M  V30 22731 N 2163.94 -1.54924 -0.289176 0
M  V30 22732 C 2165.18 -1.76509 -1.03072 0
M  V30 22733 C 2165.54 -0.545833 -1.84078 0
M  V30 22734 O 2166.74 -0.639633 -2.61079 0
M  V30 22735 C 2165.01 -3.02518 -1.9031 0
M  V30 22736 S 2166.57 -3.45155 -2.70949 0
M  V30 22737 H 2163.39 -0.620336 -0.347424 0
M  V30 22738 H 2165.99 -1.9314 -0.302842 0
M  V30 22739 H 2164.7 -3.89368 -1.29695 0
M  V30 22740 H 2164.23 -2.88507 -2.67446 0
M  V30 22741 H 2166.24 -3.03155 -3.92825 0
M  V30 22742 N 2165.42 0.552936 -1.47582 0
M  V30 22743 C 2166.36 1.65963 -1.60389 0
M  V30 22744 C 2167.33 1.59979 -0.446754 0
M  V30 22745 O 2168.52 1.78749 -0.667351 0
M  V30 22746 C 2165.66 3.04278 -1.62815 0
M  V30 22747 C 2164.77 3.20668 -2.89476 0
M  V30 22748 C 2163.91 4.49406 -2.8321 0
M  V30 22749 C 2162.95 4.59243 -4.04676 0
M  V30 22750 N 2162.08 5.79341 -3.96621 0
M  V30 22751 H 2166.92 1.54355 -2.54909 0
M  V30 22752 H 2164.46 0.751844 -1.26435 0
M  V30 22753 H 2166.42 3.84377 -1.62204 0
M  V30 22754 H 2165.05 3.14712 -0.718048 0
M  V30 22755 H 2164.1 2.33973 -2.99935 0
M  V30 22756 H 2165.41 3.238 -3.79414 0
M  V30 22757 H 2164.57 5.3777 -2.80872 0
M  V30 22758 H 2163.3 4.4876 -1.90961 0
M  V30 22759 H 2162.31 3.69291 -4.07314 0
M  V30 22760 H 2163.53 4.61645 -4.98057 0
M  V30 22761 H 2161.48 5.79636 -3.07178 0
M  V30 22762 H 2161.4 5.8387 -4.80242 0
M  V30 22763 H 2162.67 6.70054 -3.98306 0
M  V30 22764 N 2166.89 1.35785 0.800009 0
M  V30 22765 C 2167.84 1.29246 1.91217 0
M  V30 22766 C 2168.81 0.16314 1.65297 0
M  V30 22767 O 2170 0.347924 1.87601 0
M  V30 22768 C 2167.14 1.07697 3.27865 0
M  V30 22769 C 2166.25 2.2961 3.65928 0
M  V30 22770 C 2165.38 2.01158 4.91639 0
M  V30 22771 C 2164.42 3.19089 5.22349 0
M  V30 22772 N 2163.56 2.90371 6.39241 0
M  V30 22773 H 2168.4 2.24348 1.96142 0
M  V30 22774 H 2165.94 1.11515 0.959316 0
M  V30 22775 H 2167.9 0.93233 4.06649 0
M  V30 22776 H 2166.53 0.162546 3.2239 0
M  V30 22777 H 2165.58 2.54915 2.82351 0
M  V30 22778 H 2166.89 3.1765 3.84578 0
M  V30 22779 H 2166.04 1.83563 5.78264 0
M  V30 22780 H 2164.78 1.10413 4.75037 0
M  V30 22781 H 2163.79 3.37255 4.34211 0
M  V30 22782 H 2165.01 4.10645 5.40877 0
M  V30 22783 H 2162.96 2.02227 6.24052 0
M  V30 22784 H 2162.88 3.71946 6.58173 0
M  V30 22785 H 2164.14 2.76331 7.28877 0
M  V30 22786 N 2168.37 -1.02294 1.19891 0
M  V30 22787 C 2169.32 -2.107 0.942023 0
M  V30 22788 C 2170.29 -1.65626 -0.125398 0
M  V30 22789 O 2171.47 -1.90792 0.0179973 0
M  V30 22790 C 2168.61 -3.41556 0.493291 0
M  V30 22791 C 2167.73 -4.00144 1.62815 0
M  V30 22792 C 2166.86 -5.19034 1.13036 0
M  V30 22793 C 2165.9 -5.69691 2.23872 0
M  V30 22794 N 2165.04 -6.79849 1.75357 0
M  V30 22795 H 2169.88 -2.3201 1.87017 0
M  V30 22796 H 2167.42 -1.13784 0.932293 0
M  V30 22797 H 2169.37 -4.16648 0.214483 0
M  V30 22798 H 2168 -3.20339 -0.397861 0
M  V30 22799 H 2167.06 -3.22208 2.02203 0
M  V30 22800 H 2168.37 -4.3375 2.46298 0
M  V30 22801 H 2167.52 -6.01307 0.807136 0
M  V30 22802 H 2166.26 -4.86978 0.265337 0
M  V30 22803 H 2165.27 -4.86027 2.57018 0
M  V30 22804 H 2166.49 -6.03784 3.1084 0
M  V30 22805 H 2164.44 -6.49634 0.911717 0
M  V30 22806 H 2164.35 -7.12613 2.52425 0
M  V30 22807 H 2165.62 -7.65702 1.46016 0
M  V30 22808 N 2169.85 -1.00378 -1.21499 0
M  V30 22809 C 2170.8 -0.563153 -2.23824 0
M  V30 22810 C 2171.77 0.410151 -1.60956 0
M  V30 22811 O 2172.95 0.312473 -1.88224 0
M  V30 22812 C 2170.09 0.105277 -3.44939 0
M  V30 22813 C 2169.21 -0.91106 -4.22284 0
M  V30 22814 C 2168.34 -0.215019 -5.30765 0
M  V30 22815 C 2167.38 -1.21899 -5.99839 0
M  V30 22816 N 2166.52 -0.550506 -6.99938 0
M  V30 22817 H 2171.36 -1.44041 -2.60876 0
M  V30 22818 H 2168.89 -0.721302 -1.28202 0
M  V30 22819 H 2170.85 0.509838 -4.14073 0
M  V30 22820 H 2169.48 0.946261 -3.08619 0
M  V30 22821 H 2168.53 -1.43387 -3.52341 0
M  V30 22822 H 2169.85 -1.67513 -4.69831 0
M  V30 22823 H 2169 0.245713 -6.06202 0
M  V30 22824 H 2167.74 0.581469 -4.84221 0
M  V30 22825 H 2166.74 -1.69024 -5.23174 0
M  V30 22826 H 2167.97 -2.01654 -6.48469 0
M  V30 22827 H 2165.91 0.226347 -6.55609 0
M  V30 22828 H 2165.83 -1.25285 -7.45547 0
M  V30 22829 H 2167.1 -0.112938 -7.79418 0
M  V30 22830 N 2171.33 1.37038 -0.778354 0
M  V30 22831 C 2172.57 2.00274 -0.355228 0
M  V30 22832 C 2172.93 1.60676 1.05835 0
M  V30 22833 O 2172.22 0.846038 1.71909 0
M  V30 22834 C 2172.42 3.54632 -0.443975 0
M  V30 22835 C 2172.25 4.09221 -1.86463 0
M  V30 22836 C 2171.02 4.39872 -2.48678 0
M  V30 22837 C 2173.21 4.29757 -2.82513 0
M  V30 22838 N 2171.2 4.80216 -3.82447 0
M  V30 22839 C 2172.57 4.72783 -4.01094 0
M  V30 22840 C 2174.62 4.11903 -2.79714 0
M  V30 22841 C 2173.32 4.99826 -5.17268 0
M  V30 22842 C 2175.35 4.40086 -3.95067 0
M  V30 22843 C 2174.71 4.83359 -5.1239 0
M  V30 22844 H 2170.81 0.761666 -0.177171 0
M  V30 22845 H 2173.4 1.66236 -1.01359 0
M  V30 22846 H 2171.57 3.87963 0.184245 0
M  V30 22847 H 2173.3 4.047 0.00184005 0
M  V30 22848 H 2170.05 4.29185 -2.00243 0
M  V30 22849 H 2170.48 5.04688 -4.51241 0
M  V30 22850 H 2175.12 3.77614 -1.90177 0
M  V30 22851 H 2172.84 5.33001 -6.074 0
M  V30 22852 H 2176.42 4.27853 -3.9425 0
M  V30 22853 H 2175.3 5.04746 -6.00167 0
M  V30 22854 N 2172.81 0.529439 1.48441 0
M  V30 22855 C 2174.06 -0.00685445 2.01699 0
M  V30 22856 C 2174.37 -1.35375 1.41184 0
M  V30 22857 O 2175.58 -1.97838 1.85937 0
M  V30 22858 C 2174.03 -0.0626135 3.59846 0
M  V30 22859 C 2173.64 1.27936 4.29344 0
M  V30 22860 C 2175.38 -0.547764 4.20951 0
M  V30 22861 C 2173.29 1.18421 5.79422 0
M  V30 22862 H 2172.22 -0.00633228 0.753973 0
M  V30 22863 H 2174.87 0.673137 1.70708 0
M  V30 22864 H 2173.25 -0.80767 3.87676 0
M  V30 22865 H 2174.43 2.03994 4.13187 0
M  V30 22866 H 2172.74 1.7002 3.80108 0
M  V30 22867 H 2175.34 -0.636907 5.30893 0
M  V30 22868 H 2175.68 -1.55341 3.86232 0
M  V30 22869 H 2176.22 0.141593 3.97548 0
M  V30 22870 H 2172.95 2.16499 6.18715 0
M  V30 22871 H 2172.47 0.464988 5.97995 0
M  V30 22872 H 2174.15 0.874656 6.41061 0
M  V30 22873 N 2174.29 -1.55364 0.264547 0
M  V30 22874 C 2175.53 -1.98537 -0.355827 0
M  V30 22875 C 2175.85 -1.15624 -1.57767 0
M  V30 22876 O 2177.05 -1.48892 -2.27032 0
M  V30 22877 C 2175.51 -3.53332 -0.684446 0
M  V30 22878 C 2175.12 -4.45007 0.516993 0
M  V30 22879 C 2176.86 -4.05119 -1.26803 0
M  V30 22880 C 2174.77 -5.91174 0.163548 0
M  V30 22881 H 2173.7 -0.7415 -0.136725 0
M  V30 22882 H 2176.35 -1.79782 0.367539 0
M  V30 22883 H 2174.73 -3.67848 -1.46643 0
M  V30 22884 H 2175.91 -4.42256 1.29406 0
M  V30 22885 H 2174.22 -4.03797 1.0167 0
M  V30 22886 H 2176.82 -5.11859 -1.5461 0
M  V30 22887 H 2177.16 -3.53519 -2.19841 0
M  V30 22888 H 2177.69 -3.93999 -0.548571 0
M  V30 22889 H 2174.43 -6.46848 1.06153 0
M  V30 22890 H 2173.95 -5.97019 -0.576966 0
M  V30 22891 H 2175.63 -6.46524 -0.248012 0
M  V30 22892 N 2175.76 0.00833021 -1.57598 0
M  V30 22893 C 2177.17 0.552246 -1.78346 0
M  V30 22894 C 2177.53 1.74433 -0.898189 0
M  V30 22895 O 2176.65 2.16176 -0.098451 0
M  V30 22896 C 2177.25 1.00862 -3.23438 0
M  V30 22897 C 2175.8 1.4979 -3.45311 0
M  V30 22898 C 2174.95 0.445309 -2.73701 0
M  V30 22899 H 2177.9 -0.217862 -1.57197 0
M  V30 22900 H 2177.92 1.87504 -3.31093 0
M  V30 22901 H 2177.44 0.140794 -3.87845 0
M  V30 22902 H 2175.54 2.38689 -2.86109 0
M  V30 22903 H 2175.65 1.53111 -4.53976 0
M  V30 22904 H 2174.01 0.90507 -2.38077 0
M  V30 22905 H 2174.8 -0.413406 -3.40802 0
M  V30 22906 N 2177.24 1.55075 0.280956 0
M  V30 22907 C 2178.15 1.90495 1.36927 0
M  V30 22908 C 2179.17 0.801283 1.54452 0
M  V30 22909 O 2180.34 1.09962 1.68732 0
M  V30 22910 C 2177.41 2.16264 2.70981 0
M  V30 22911 C 2176.47 3.39872 2.6227 0
M  V30 22912 C 2175.7 3.64402 3.89932 0
M  V30 22913 O 2175.93 2.91582 4.90241 0
M  V30 22914 O 2174.86 4.57934 3.90615 0
M  V30 22915 H 2178.69 2.83123 1.09888 0
M  V30 22916 H 2176.27 1.4152 0.478787 0
M  V30 22917 H 2178.15 2.34299 3.5026 0
M  V30 22918 H 2176.83 1.2682 2.97823 0
M  V30 22919 H 2175.73 3.2718 1.81395 0
M  V30 22920 H 2177.07 4.2951 2.40379 0
M  V30 22921 N 2178.72 -0.545102 1.47873 0
M  V30 22922 C 2179.97 -1.29811 1.54376 0
M  V30 22923 C 2180.28 -1.94404 0.215938 0
M  V30 22924 O 2181.49 -2.71034 0.159071 0
M  V30 22925 C 2179.94 -2.3546 2.72189 0
M  V30 22926 C 2179.55 -1.77003 4.11551 0
M  V30 22927 C 2181.3 -3.11865 2.87993 0
M  V30 22928 C 2179.2 -2.80503 5.20646 0
M  V30 22929 H 2178.13 -0.488142 0.574659 0
M  V30 22930 H 2180.78 -0.577531 1.74175 0
M  V30 22931 H 2179.17 -3.10486 2.45794 0
M  V30 22932 H 2180.34 -1.08268 4.479 0
M  V30 22933 H 2178.65 -1.13141 4.00734 0
M  V30 22934 H 2181.25 -3.89178 3.66666 0
M  V30 22935 H 2181.59 -3.668 1.96884 0
M  V30 22936 H 2182.13 -2.43952 3.14217 0
M  V30 22937 H 2178.87 -2.30408 6.13671 0
M  V30 22938 H 2178.39 -3.47612 4.888 0
M  V30 22939 H 2180.07 -3.43772 5.48115 0
M  V30 22940 N 2180.2 -1.36208 -0.792797 0
M  V30 22941 C 2181.61 -1.27081 -1.36774 0
M  V30 22942 C 2181.96 0.0908481 -1.9599 0
M  V30 22943 O 2181.08 0.992221 -1.92312 0
M  V30 22944 C 2181.68 -2.30115 -2.48662 0
M  V30 22945 C 2180.24 -2.24688 -3.01981 0
M  V30 22946 C 2179.39 -2.15076 -1.75035 0
M  V30 22947 H 2182.34 -1.47135 -0.594713 0
M  V30 22948 H 2182.36 -1.93562 -3.27588 0
M  V30 22949 H 2181.87 -3.29207 -2.05534 0
M  V30 22950 H 2179.97 -1.29051 -3.49538 0
M  V30 22951 H 2180.08 -3.17234 -3.59025 0
M  V30 22952 H 2178.45 -1.61276 -1.97135 0
M  V30 22953 H 2179.23 -3.16051 -1.3404 0
M  V30 22954 N 2181.68 1.01656 -1.20431 0
M  V30 22955 C 2182.9 1.78855 -1.04012 0
M  V30 22956 C 2183.32 1.8428 0.410661 0
M  V30 22957 O 2182.68 1.29579 1.28512 0
M  V30 22958 C 2182.73 3.23321 -1.61696 0
M  V30 22959 O 2182.45 3.18233 -3.01097 0
M  V30 22960 C 2183.95 4.17068 -1.5023 0
M  V30 22961 H 2181.17 0.562464 -0.36589 0
M  V30 22962 H 2183.71 1.27961 -1.59519 0
M  V30 22963 H 2181.87 3.71363 -1.10309 0
M  V30 22964 H 2182.28 4.08911 -3.28469 0
M  V30 22965 H 2183.76 5.16277 -1.95352 0
M  V30 22966 H 2184.23 4.36839 -0.454792 0
M  V30 22967 H 2184.84 3.74908 -2.00808 0
M  V30 22968 N 2183.15 1.01021 1.20965 0
M  V30 22969 C 2184.1 0.568229 2.25552 0
M  V30 22970 C 2185.1 -0.389834 1.64853 0
M  V30 22971 O 2186.3 -0.260456 1.78106 0
M  V30 22972 H 2182.68 0.165424 0.73358 0
M  V30 22973 H 2184.65 1.46139 2.60165 0
M  V30 22974 C 2183.4 -0.0841621 3.47598 0
M  V30 22975 H 2182.72 0.644027 3.94579 0
M  V30 22976 H 2184.16 -0.356619 4.22498 0
M  V30 22977 C 2182.62 -1.325 3.09751 0
M  V30 22978 O 2183.15 -2.41889 3.20706 0
M  V30 22979 N 2181.35 -1.20669 2.64362 0
M  V30 22980 H 2180.9 -0.316581 2.55647 0
M  V30 22981 H 2180.86 -2.03792 2.39408 0
M  V30 22982 N 2184.63 -1.36623 0.78561 0
M  V30 22983 C 2185.88 -1.98589 0.352861 0
M  V30 22984 C 2186.19 -1.63058 -1.08035 0
M  V30 22985 O 2187.4 -2.1823 -1.61518 0
M  V30 22986 C 2185.86 -3.55196 0.579953 0
M  V30 22987 C 2185.46 -3.99656 2.02433 0
M  V30 22988 C 2187.21 -4.23973 0.21152 0
M  V30 22989 C 2185.11 -5.49026 2.19828 0
M  V30 22990 H 2184.04 -0.743022 0.128194 0
M  V30 22991 H 2186.7 -1.55971 0.966705 0
M  V30 22992 H 2185.08 -3.95865 -0.103548 0
M  V30 22993 H 2186.25 -3.70197 2.74392 0
M  V30 22994 H 2184.57 -3.43705 2.35065 0
M  V30 22995 H 2187.16 -5.33743 0.319819 0
M  V30 22996 H 2187.51 -4.07739 -0.839914 0
M  V30 22997 H 2188.04 -3.88654 0.848108 0
M  V30 22998 H 2184.78 -5.70203 3.23341 0
M  V30 22999 H 2184.3 -5.80124 1.52369 0
M  V30 23000 H 2185.98 -6.15196 2.00358 0
M  V30 23001 N 2186.11 -0.537304 -1.48158 0
M  V30 23002 C 2187.02 0.225092 -2.33518 0
M  V30 23003 C 2188.04 0.931763 -1.4695 0
M  V30 23004 O 2189.21 0.905094 -1.79917 0
M  V30 23005 C 2186.28 1.25403 -3.23226 0
M  V30 23006 C 2185.34 0.556924 -4.25672 0
M  V30 23007 C 2184.57 1.53684 -5.11094 0
M  V30 23008 O 2184.79 2.77009 -4.9862 0
M  V30 23009 O 2183.73 1.07222 -5.92273 0
M  V30 23010 H 2187.55 -0.474567 -2.99969 0
M  V30 23011 H 2185.14 -0.298137 -1.46395 0
M  V30 23012 H 2187.02 1.84847 -3.78695 0
M  V30 23013 H 2185.7 1.93596 -2.59427 0
M  V30 23014 H 2184.6 -0.0781996 -3.74018 0
M  V30 23015 H 2185.94 -0.0832021 -4.9213 0
M  V30 23016 N 2187.59 1.55221 -0.272782 0
M  V30 23017 C 2189 1.59392 0.0814225 0
M  V30 23018 C 2189.2 1.29 1.54794 0
M  V30 23019 O 2188.26 1.04975 2.29644 0
M  V30 23020 C 2189.57 2.99288 -0.291106 0
M  V30 23021 C 2191.12 3.12097 -0.23753 0
M  V30 23022 C 2191.6 4.54255 -0.584464 0
M  V30 23023 N 2193.09 4.60089 -0.53593 0
M  V30 23024 C 2193.82 5.68108 -0.777202 0
M  V30 23025 N 2193.32 6.84283 -1.08297 0
M  V30 23026 N 2195.11 5.57647 -0.706157 0
M  V30 23027 H 2187.26 1.73242 -1.22886 0
M  V30 23028 H 2189.53 0.807717 -0.496284 0
M  V30 23029 H 2189.23 3.26355 -1.31093 0
M  V30 23030 H 2189.11 3.75389 0.36921 0
M  V30 23031 H 2191.49 2.84796 0.773005 0
M  V30 23032 H 2191.57 2.38214 -0.93207 0
M  V30 23033 H 2191.22 4.82282 -1.59267 0
M  V30 23034 H 2191.15 5.26435 0.13184 0
M  V30 23035 H 2193.64 3.76631 -0.309385 0
M  V30 23036 H 2193.95 7.62561 -1.2538 0
M  V30 23037 H 2192.3 6.85904 -1.12072 0
M  V30 23038 H 2195.49 4.65763 -0.46714 0
M  V30 23039 H 2195.66 6.41754 -0.897574 0
M  V30 23040 N 2189.07 2.77022e-05 1.576 0
M  V30 23041 C 2190.03 -0.976217 2.07371 0
M  V30 23042 C 2191.03 -1.27246 0.983113 0
M  V30 23043 O 2192.22 -1.21764 1.24576 0
M  V30 23044 C 2189.35 -2.30112 2.51518 0
M  V30 23045 H 2190.54 -0.545707 2.94893 0
M  V30 23046 H 2188.1 -0.247444 1.54329 0
M  V30 23047 H 2188.83 -2.77852 1.67239 0
M  V30 23048 H 2188.62 -2.09931 3.31167 0
M  V30 23049 H 2190.11 -3.00144 2.9035 0
M  V30 23050 N 2190.54 -1.55222 -0.272728 0
M  V30 23051 C 2191.48 -1.83048 -1.36266 0
M  V30 23052 C 2192.46 -0.683547 -1.47534 0
M  V30 23053 O 2193.64 -0.926574 -1.64155 0
M  V30 23054 C 2190.77 -1.99234 -2.73904 0
M  V30 23055 C 2189.81 -3.21788 -2.79919 0
M  V30 23056 S 2190.65 -4.79138 -2.39137 0
M  V30 23057 C 2191.8 -4.98297 -3.78749 0
M  V30 23058 H 2192.03 -2.75209 -1.1246 0
M  V30 23059 H 2189.57 -1.46997 -0.472372 0
M  V30 23060 H 2191.53 -2.09244 -3.53167 0
M  V30 23061 H 2190.19 -1.07961 -2.94963 0
M  V30 23062 H 2189.38 -3.30001 -3.8094 0
M  V30 23063 H 2188.98 -3.1037 -2.08677 0
M  V30 23064 H 2191.27 -4.84055 -4.74022 0
M  V30 23065 H 2192.22 -6.00345 -3.75488 0
M  V30 23066 H 2192.62 -4.26277 -3.70065 0
M  V30 23067 N 2192.02 0.537252 -1.4816 0
M  V30 23068 C 2192.97 1.66349 -1.62575 0
M  V30 23069 C 2193.96 1.62086 -0.492394 0
M  V30 23070 O 2195.17 1.67031 -0.670876 0
M  V30 23071 H 2191.55 0.55078 -0.512001 0
M  V30 23072 H 2193.52 1.51332 -2.57179 0
M  V30 23073 C 2192.27 3.04646 -1.67589 0
M  V30 23074 H 2191.59 3.08617 -2.54156 0
M  V30 23075 H 2193.03 3.83085 -1.8172 0
M  V30 23076 C 2191.49 3.34358 -0.413097 0
M  V30 23077 O 2192.02 3.98856 0.477189 0
M  V30 23078 N 2190.22 2.89179 -0.287012 0
M  V30 23079 H 2189.77 2.3687 -1.01245 0
M  V30 23080 H 2189.73 3.09428 0.556909 0
M  V30 23081 N 2193.5 1.36626 0.785562 0
M  V30 23082 C 2194.43 1.27134 1.90708 0
M  V30 23083 C 2195.45 0.190014 1.61687 0
M  V30 23084 O 2196.63 0.445045 1.72863 0
M  V30 23085 C 2193.73 0.93977 3.25609 0
M  V30 23086 C 2192.91 2.12376 3.82381 0
M  V30 23087 C 2191.97 1.76464 4.95729 0
M  V30 23088 O 2190.99 2.48598 5.12043 0
M  V30 23089 N 2192.19 0.700594 5.76257 0
M  V30 23090 H 2194.96 2.23765 1.99372 0
M  V30 23091 H 2192.52 1.3007 0.964018 0
M  V30 23092 H 2194.51 0.680624 3.98936 0
M  V30 23093 H 2193.08 0.0624623 3.12538 0
M  V30 23094 H 2192.3 2.54548 3.00997 0
M  V30 23095 H 2193.59 2.91468 4.17042 0
M  V30 23096 H 2192.99 0.101724 5.65609 0
M  V30 23097 H 2191.55 0.501279 6.4987 0
M  V30 23098 N 2194.98 -1.01016 1.20969 0
M  V30 23099 C 2195.94 -2.07851 0.965954 0
M  V30 23100 C 2196.94 -1.60684 -0.0610263 0
M  V30 23101 O 2198.13 -1.73312 0.175711 0
M  V30 23102 C 2195.26 -3.37842 0.455573 0
M  V30 23103 H 2196.46 -2.30907 1.91369 0
M  V30 23104 H 2194.01 -1.17915 1.02596 0
M  V30 23105 H 2194.74 -3.20464 -0.497325 0
M  V30 23106 H 2194.53 -3.73405 1.19628 0
M  V30 23107 H 2196.02 -4.16487 0.304741 0
M  V30 23108 N 2196.46 -1.01661 -1.20428 0
M  V30 23109 C 2197.68 -0.724976 -1.94316 0
M  V30 23110 C 2198.11 0.708003 -1.74267 0
M  V30 23111 O 2197.46 1.48717 -1.03696 0
M  V30 23112 C 2197.51 -1.06597 -3.44484 0
M  V30 23113 O 2196.62 -0.177671 -4.12017 0
M  V30 23114 H 2195.96 -0.268991 -0.607075 0
M  V30 23115 H 2198.49 -1.35998 -1.52858 0
M  V30 23116 H 2198.5 -1.01769 -3.95104 0
M  V30 23117 H 2197.17 -2.11003 -3.584 0
M  V30 23118 H 2195.75 -0.283486 -3.71821 0
M  V30 23119 N 2197.93 1.36205 -0.792844 0
M  V30 23120 C 2198.87 2.27773 -0.139462 0
M  V30 23121 C 2199.85 1.47399 0.686464 0
M  V30 23122 O 2201.03 1.76691 0.656707 0
M  V30 23123 C 2198.16 3.28924 0.807889 0
M  V30 23124 C 2197.2 4.26453 0.063325 0
M  V30 23125 S 2198.04 5.20386 -1.26328 0
M  V30 23126 C 2199.19 6.25081 -0.32002 0
M  V30 23127 H 2199.42 2.82842 -0.915859 0
M  V30 23128 H 2196.96 1.42797 -0.587228 0
M  V30 23129 H 2198.92 3.87701 1.34901 0
M  V30 23130 H 2197.58 2.72762 1.55756 0
M  V30 23131 H 2196.77 4.97892 0.782299 0
M  V30 23132 H 2196.37 3.71774 -0.407418 0
M  V30 23133 H 2198.66 6.75653 0.499866 0
M  V30 23134 H 2199.61 7.00958 -1.00319 0
M  V30 23135 H 2200.01 5.64446 0.0781702 0
M  V30 23136 N 2199.41 0.545154 1.47871 0
M  V30 23137 C 2200.66 0.0145388 2.01695 0
M  V30 23138 C 2200.97 -1.3387 1.42612 0
M  V30 23139 O 2202.18 -1.95854 1.88025 0
M  V30 23140 C 2200.64 -0.0244435 3.59892 0
M  V30 23141 C 2200.24 1.32482 4.27963 0
M  V30 23142 C 2201.99 -0.503086 4.21508 0
M  V30 23143 C 2199.9 1.2456 5.78134 0
M  V30 23144 H 2198.83 0.00166498 0.753998 0
M  V30 23145 H 2201.48 0.691205 1.69984 0
M  V30 23146 H 2199.86 -0.766507 3.88511 0
M  V30 23147 H 2201.03 2.08365 4.11 0
M  V30 23148 H 2199.35 1.74042 3.78283 0
M  V30 23149 H 2201.94 -0.580563 5.31539 0
M  V30 23150 H 2202.29 -1.51236 3.87858 0
M  V30 23151 H 2202.82 0.183751 3.97375 0
M  V30 23152 H 2199.56 2.2305 6.16384 0
M  V30 23153 H 2199.08 0.528387 5.97468 0
M  V30 23154 H 2200.76 0.9426 6.40097 0
M  V30 23155 N 2200.89 -1.55074 0.28101 0
M  V30 23156 C 2202.14 -1.98903 -0.334749 0
M  V30 23157 C 2202.45 -1.17291 -1.56532 0
M  V30 23158 O 2203.66 -1.51291 -2.2544 0
M  V30 23159 C 2202.11 -3.54038 -0.646931 0
M  V30 23160 C 2201.72 -4.44434 0.564163 0
M  V30 23161 C 2203.47 -4.06441 -1.22499 0
M  V30 23162 C 2201.37 -5.90967 0.226241 0
M  V30 23163 H 2200.3 -0.742908 -0.128853 0
M  V30 23164 H 2202.95 -1.79382 0.386587 0
M  V30 23165 H 2201.34 -3.69382 -1.42733 0
M  V30 23166 H 2202.51 -4.40859 1.3409 0
M  V30 23167 H 2200.83 -4.02696 1.05947 0
M  V30 23168 H 2203.42 -5.1347 -1.49173 0
M  V30 23169 H 2203.77 -3.55831 -2.16079 0
M  V30 23170 H 2204.3 -3.94559 -0.506751 0
M  V30 23171 H 2201.04 -6.45685 1.13007 0
M  V30 23172 H 2200.56 -5.97597 -0.513612 0
M  V30 23173 H 2202.24 -6.46751 -0.179426 0
M  V30 23174 N 2202.37 -0.00838561 -1.57598 0
M  V30 23175 C 2203.32 0.998471 -2.10079 0
M  V30 23176 C 2204.31 1.35049 -1.02264 0
M  V30 23177 O 2205.52 1.33515 -1.20721 0
M  V30 23178 H 2201.89 0.339685 -0.670909 0
M  V30 23179 H 2203.86 0.530346 -2.93649 0
M  V30 23180 C 2202.61 2.27874 -2.62619 0
M  V30 23181 H 2201.94 2.01656 -3.45217 0
M  V30 23182 H 2203.38 2.96582 -3.0301 0
M  V30 23183 C 2201.83 2.9943 -1.54412 0
M  V30 23184 O 2202.36 3.90741 -0.931881 0
M  V30 23185 N 2200.57 2.61402 -1.26955 0
M  V30 23186 H 2200.12 1.87229 -1.76927 0
M  V30 23187 H 2200.08 3.09592 -0.547759 0
M  V30 23188 N 2203.85 1.55365 0.264492 0
M  V30 23189 C 2205.08 1.80407 1.01297 0
M  V30 23190 C 2205.49 0.581654 1.79617 0
M  V30 23191 O 2204.85 -0.449437 1.76879 0
M  V30 23192 C 2204.9 3.03442 1.96482 0
M  V30 23193 O 2204.62 4.20963 1.21334 0
M  V30 23194 C 2206.12 3.41152 2.83073 0
M  V30 23195 H 2203.34 0.600767 0.298865 0
M  V30 23196 H 2205.88 2.02394 0.2927 0
M  V30 23197 H 2204.04 2.83556 2.6396 0
M  V30 23198 H 2204.45 4.90577 1.85564 0
M  V30 23199 H 2205.93 4.3039 3.45642 0
M  V30 23200 H 2206.4 2.60938 3.53282 0
M  V30 23201 H 2207.01 3.63327 2.21073 0
M  V30 23202 N 2205.33 -0.529387 1.48443 0
M  V30 23203 C 2206.57 -1.28166 1.55744 0
M  V30 23204 C 2206.89 -1.94164 0.236545 0
M  V30 23205 O 2208.09 -2.7085 0.187809 0
M  V30 23206 C 2206.55 -2.3256 2.74671 0
M  V30 23207 C 2206.16 -1.72628 4.13405 0
M  V30 23208 C 2207.9 -3.08793 2.91285 0
M  V30 23209 C 2205.81 -2.74965 5.23591 0
M  V30 23210 H 2204.74 -0.48202 0.579804 0
M  V30 23211 H 2207.39 -0.559025 1.74777 0
M  V30 23212 H 2205.77 -3.07862 2.49073 0
M  V30 23213 H 2206.95 -1.03511 4.49024 0
M  V30 23214 H 2205.26 -1.08885 4.01912 0
M  V30 23215 H 2207.86 -3.85267 3.70774 0
M  V30 23216 H 2208.2 -3.64691 2.00764 0
M  V30 23217 H 2208.73 -2.40606 3.16786 0
M  V30 23218 H 2205.47 -2.23887 6.1608 0
M  V30 23219 H 2204.99 -3.42409 4.9246 0
M  V30 23220 H 2206.67 -3.37939 5.5173 0
M  V30 23221 N 2206.8 -1.37041 -0.778305 0
M  V30 23222 C 2207.73 -1.34965 -1.90543 0
M  V30 23223 C 2208.71 -0.219304 -1.6868 0
M  V30 23224 O 2209.9 -0.418657 -1.89634 0
M  V30 23225 C 2207.03 -1.14931 -3.27732 0
M  V30 23226 C 2205.98 -2.24908 -3.64143 0
M  V30 23227 C 2205.31 -1.90004 -4.99802 0
M  V30 23228 C 2206.61 -3.67058 -3.71572 0
M  V30 23229 H 2208.3 -2.29281 -1.92537 0
M  V30 23230 H 2205.85 -1.10368 -0.924928 0
M  V30 23231 H 2207.8 -1.12111 -4.06213 0
M  V30 23232 H 2206.53 -0.170689 -3.26154 0
M  V30 23233 H 2205.19 -2.26873 -2.87966 0
M  V30 23234 H 2204.83 -0.906883 -4.94757 0
M  V30 23235 H 2204.53 -2.63644 -5.25134 0
M  V30 23236 H 2206.06 -1.88759 -5.80691 0
M  V30 23237 H 2207.47 -3.67259 -4.4022 0
M  V30 23238 H 2205.87 -4.39695 -4.08397 0
M  V30 23239 H 2206.94 -4.01158 -2.72397 0
M  V30 23240 N 2208.28 1.00373 -1.21503 0
M  V30 23241 C 2209.21 2.0889 -0.918706 0
M  V30 23242 C 2210.19 1.62045 0.134248 0
M  V30 23243 O 2211.38 1.88499 0.00500942 0
M  V30 23244 C 2208.5 3.36565 -0.379704 0
M  V30 23245 C 2207.55 4.0232 -1.41566 0
M  V30 23246 S 2208.38 4.44568 -2.98528 0
M  V30 23247 C 2209.54 5.75428 -2.46238 0
M  V30 23248 H 2209.77 2.33704 -1.83766 0
M  V30 23249 H 2207.3 1.13671 -1.04491 0
M  V30 23250 H 2209.26 4.10431 -0.0752917 0
M  V30 23251 H 2207.92 3.098 0.517954 0
M  V30 23252 H 2207.12 4.94218 -0.988163 0
M  V30 23253 H 2206.72 3.34734 -1.66821 0
M  V30 23254 H 2209.01 6.51238 -1.86803 0
M  V30 23255 H 2209.95 6.22991 -3.36583 0
M  V30 23256 H 2210.36 5.32309 -1.87904 0
M  V30 23257 N 2209.76 1.02298 1.19887 0
M  V30 23258 C 2211.01 0.716006 1.89419 0
M  V30 23259 C 2211.33 -0.754912 1.79252 0
M  V30 23260 O 2210.59 -1.56478 1.17529 0
M  V30 23261 C 2210.89 1.10524 3.39881 0
M  V30 23262 C 2210.55 2.57344 3.7025 0
M  V30 23263 C 2209.22 2.97458 3.78249 0
M  V30 23264 C 2211.57 3.52361 3.84046 0
M  V30 23265 C 2208.9 4.31516 3.97506 0
M  V30 23266 C 2211.25 4.86115 4.04815 0
M  V30 23267 C 2209.91 5.25926 4.11045 0
M  V30 23268 H 2209.18 0.262005 0.693134 0
M  V30 23269 H 2211.83 1.28474 1.42009 0
M  V30 23270 H 2210.13 0.455021 3.89149 0
M  V30 23271 H 2211.83 0.84533 3.91989 0
M  V30 23272 H 2208.42 2.25264 3.64628 0
M  V30 23273 H 2212.61 3.22525 3.77215 0
M  V30 23274 H 2207.86 4.61905 4.00566 0
M  V30 23275 H 2212.04 5.5966 4.14432 0
M  V30 23276 H 2209.66 6.29815 4.25719 0
M  V30 23277 N 2211.24 -1.35782 0.800057 0
M  V30 23278 C 2212.48 -1.99247 0.377936 0
M  V30 23279 C 2212.82 -1.63335 -1.05049 0
M  V30 23280 O 2212.09 -0.893415 -1.72767 0
M  V30 23281 C 2212.37 -3.55813 0.553984 0
M  V30 23282 C 2212.23 -4.01545 2.02687 0
M  V30 23283 C 2213.55 -4.40093 -0.0244028 0
M  V30 23284 H 2210.67 -0.723813 0.138795 0
M  V30 23285 H 2213.31 -1.61033 1.00838 0
M  V30 23286 H 2211.46 -3.88496 0.0173081 0
M  V30 23287 H 2213.13 -3.79301 2.62543 0
M  V30 23288 H 2211.37 -3.52693 2.52567 0
M  V30 23289 H 2212.04 -5.10454 2.10096 0
M  V30 23290 H 2214.52 -4.13832 0.433848 0
M  V30 23291 H 2213.4 -5.48749 0.128733 0
M  V30 23292 H 2213.66 -4.27743 -1.11751 0
M  V30 23293 N 2212.72 -0.552988 -1.4758 0
M  V30 23294 C 2213.94 -0.0300957 -2.07378 0
M  V30 23295 C 2214.37 1.25226 -1.40357 0
M  V30 23296 O 2213.72 1.74909 -0.477129 0
M  V30 23297 C 2213.77 0.153168 -3.60275 0
M  V30 23298 O 2212.88 1.21671 -3.94043 0
M  V30 23299 H 2212.22 -0.0494298 -0.662158 0
M  V30 23300 H 2214.75 -0.767468 -1.8966 0
M  V30 23301 H 2214.76 0.36869 -4.06331 0
M  V30 23302 H 2213.43 -0.783469 -4.08454 0
M  V30 23303 H 2212.01 0.982016 -3.59737 0
M  V30 23304 N 2214.19 1.54923 -0.28923 0
M  V30 23305 C 2215.42 2.04309 0.326427 0
M  V30 23306 C 2215.84 1.16703 1.48411 0
M  V30 23307 O 2215.19 0.190119 1.81507 0
M  V30 23308 C 2215.24 3.52674 0.793952 0
M  V30 23309 O 2214.97 4.36947 -0.317641 0
M  V30 23310 C 2216.47 4.18007 1.47598 0
M  V30 23311 H 2213.69 0.667059 0.0726155 0
M  V30 23312 H 2216.23 2.00026 -0.425436 0
M  V30 23313 H 2214.39 3.57355 1.49587 0
M  V30 23314 H 2214.8 5.24481 0.0442264 0
M  V30 23315 H 2216.27 5.23379 1.75438 0
M  V30 23316 H 2216.75 3.67029 2.41218 0
M  V30 23317 H 2217.36 4.17368 0.817547 0
M  V30 23318 N 2215.67 0.0167433 1.57591 0
M  V30 23319 C 2216.6 -0.96782 2.12498 0
M  V30 23320 C 2217.58 -1.3475 1.03809 0
M  V30 23321 O 2218.77 -1.4283 1.31579 0
M  V30 23322 C 2215.9 -2.25426 2.64198 0
M  V30 23323 C 2214.85 -2.0157 3.77563 0
M  V30 23324 C 2214.18 -3.36372 4.15642 0
M  V30 23325 C 2215.48 -1.36481 5.04153 0
M  V30 23326 H 2217.17 -0.510591 2.95014 0
M  V30 23327 H 2214.72 -0.244156 1.41915 0
M  V30 23328 H 2216.67 -2.94672 3.01241 0
M  V30 23329 H 2215.39 -2.73292 1.78826 0
M  V30 23330 H 2214.05 -1.34745 3.40939 0
M  V30 23331 H 2213.7 -3.81973 3.27269 0
M  V30 23332 H 2213.4 -3.2122 4.92028 0
M  V30 23333 H 2214.93 -4.06907 4.55258 0
M  V30 23334 H 2216.34 -1.95708 5.38861 0
M  V30 23335 H 2214.74 -1.31765 5.85455 0
M  V30 23336 H 2215.81 -0.336134 4.83734 0
M  V30 23337 N 2217.15 -1.55503 -0.256249 0
M  V30 23338 C 2218.4 -1.76547 -0.983641 0
M  V30 23339 C 2218.72 -0.579015 -1.86205 0
M  V30 23340 O 2217.99 0.405543 -1.91656 0
M  V30 23341 H 2216.57 -0.651093 -0.36618 0
M  V30 23342 H 2219.23 -1.92929 -0.276445 0
M  V30 23343 H 2218.33 -2.67318 -1.61082 0
M  V30 23344 N 2218.63 0.521507 -1.48721 0
M  V30 23345 C 2219.88 1.27339 -1.56422 0
M  V30 23346 C 2220.19 1.94036 -0.246839 0
M  V30 23347 O 2221.4 2.70746 -0.20217 0
M  V30 23348 C 2219.85 2.311 -2.759 0
M  V30 23349 C 2219.46 1.70433 -4.14314 0
M  V30 23350 C 2221.2 3.07244 -2.92919 0
M  V30 23351 C 2219.11 2.72185 -5.25042 0
M  V30 23352 H 2218.04 0.478938 -0.582352 0
M  V30 23353 H 2220.69 0.549748 -1.75071 0
M  V30 23354 H 2219.07 3.06536 -2.50702 0
M  V30 23355 H 2220.25 1.01128 -4.49566 0
M  V30 23356 H 2218.56 1.06752 -4.02484 0
M  V30 23357 H 2221.16 3.83296 -3.72812 0
M  V30 23358 H 2221.5 3.63621 -2.02695 0
M  V30 23359 H 2222.04 2.38922 -3.18058 0
M  V30 23360 H 2218.78 2.20616 -6.17259 0
M  V30 23361 H 2218.3 3.39792 -4.94269 0
M  V30 23362 H 2219.97 3.35009 -5.53514 0
M  V30 23363 N 2220.11 1.37452 0.771027 0
M  V30 23364 C 2221.35 1.32896 1.53187 0
M  V30 23365 C 2221.69 -0.086217 1.94009 0
M  V30 23366 O 2220.96 -1.0437 1.64125 0
M  V30 23367 C 2221.24 2.26873 2.79644 0
M  V30 23368 C 2221.1 3.77173 2.45072 0
M  V30 23369 C 2222.42 2.19284 3.81579 0
M  V30 23370 H 2219.53 0.484074 0.555735 0
M  V30 23371 H 2222.18 1.68158 0.884463 0
M  V30 23372 H 2220.33 1.96932 3.34888 0
M  V30 23373 H 2222 4.17714 1.95737 0
M  V30 23374 H 2220.24 3.95707 1.7776 0
M  V30 23375 H 2220.91 4.38365 3.3547 0
M  V30 23376 H 2223.39 2.45677 3.3583 0
M  V30 23377 H 2222.26 2.87179 4.67782 0
M  V30 23378 H 2222.53 1.18599 4.25895 0
M  V30 23379 N 2221.58 -0.997276 1.22033 0
M  V30 23380 C 2222.81 -1.76921 1.06689 0
M  V30 23381 C 2223.22 -1.85225 -0.385805 0
M  V30 23382 O 2222.57 -1.31835 -1.27927 0
M  V30 23383 C 2222.63 -3.22028 1.59807 0
M  V30 23384 C 2222.29 -3.37281 3.08367 0
M  V30 23385 C 2223.29 -3.24945 4.05841 0
M  V30 23386 C 2220.97 -3.62474 3.47733 0
M  V30 23387 C 2222.97 -3.37579 5.40666 0
M  V30 23388 C 2220.65 -3.74748 4.82708 0
M  V30 23389 C 2221.65 -3.62309 5.78983 0
M  V30 23390 O 2221.34 -3.74181 7.11508 0
M  V30 23391 H 2221.07 -0.5626 0.374777 0
M  V30 23392 H 2223.63 -1.26283 1.61993 0
M  V30 23393 H 2221.86 -3.73837 0.989069 0
M  V30 23394 H 2223.55 -3.80922 1.40191 0
M  V30 23395 H 2224.31 -3.05398 3.76772 0
M  V30 23396 H 2220.19 -3.71235 2.73323 0
M  V30 23397 H 2223.73 -3.27786 6.15794 0
M  V30 23398 H 2219.63 -3.93801 5.1146 0
M  V30 23399 H 2220.4 -3.91081 7.19026 0
M  V30 23400 N 2223.06 -1.02932 -1.19343 0
M  V30 23401 C 2224.31 -0.727117 -1.89317 0
M  V30 23402 C 2224.64 0.742451 -1.79447 0
M  V30 23403 O 2223.92 1.5407 -1.18712 0
M  V30 23404 C 2224.2 -1.17948 -3.40236 0
M  V30 23405 C 2224.05 -2.7103 -3.58974 0
M  V30 23406 C 2225.37 -0.760624 -4.33477 0
M  V30 23407 H 2222.49 -0.265619 -0.687471 0
M  V30 23408 H 2225.13 -1.27932 -1.40475 0
M  V30 23409 H 2223.28 -0.709675 -3.81963 0
M  V30 23410 H 2224.95 -3.25961 -3.26415 0
M  V30 23411 H 2223.2 -3.11401 -3.02013 0
M  V30 23412 H 2223.87 -2.97738 -4.64818 0
M  V30 23413 H 2226.34 -1.16471 -3.99467 0
M  V30 23414 H 2225.22 -1.10503 -5.37662 0
M  V30 23415 H 2225.48 0.336986 -4.40814 0
M  V30 23416 N 2224.54 1.35356 -0.807246 0
M  V30 23417 C 2225.79 1.98003 -0.384411 0
M  V30 23418 C 2226.1 1.64756 1.05427 0
M  V30 23419 O 2227.31 2.20772 1.58025 0
M  V30 23420 C 2225.76 3.54229 -0.636389 0
M  V30 23421 C 2225.37 3.96385 -2.08766 0
M  V30 23422 C 2227.12 4.23583 -0.278943 0
M  V30 23423 C 2225.02 5.45459 -2.28535 0
M  V30 23424 H 2223.95 0.740889 -0.139999 0
M  V30 23425 H 2226.6 1.54414 -0.991396 0
M  V30 23426 H 2224.99 3.95979 0.040556 0
M  V30 23427 H 2226.16 3.65785 -2.80247 0
M  V30 23428 H 2224.48 3.39922 -2.40503 0
M  V30 23429 H 2227.07 5.33166 -0.404693 0
M  V30 23430 H 2227.42 4.09024 0.77494 0
M  V30 23431 H 2227.95 3.87256 -0.909832 0
M  V30 23432 H 2224.69 5.64986 -3.32371 0
M  V30 23433 H 2224.21 5.77626 -1.61579 0
M  V30 23434 H 2225.89 6.1193 -2.1012 0
M  V30 23435 N 2226.02 0.560807 1.47284 0
M  V30 23436 C 2227.25 0.0430001 2.06555 0
M  V30 23437 C 2227.66 -1.25774 1.41342 0
M  V30 23438 O 2227 -1.76616 0.505213 0
M  V30 23439 C 2227.06 -0.219824 3.58827 0
M  V30 23440 C 2226.73 0.992023 4.46103 0
M  V30 23441 C 2227.72 1.89852 4.83996 0
M  V30 23442 C 2225.41 1.20771 4.87565 0
M  V30 23443 C 2227.4 3.00435 5.62154 0
M  V30 23444 C 2225.09 2.31663 5.65487 0
M  V30 23445 C 2226.09 3.21326 6.02693 0
M  V30 23446 O 2225.77 4.30295 6.79045 0
M  V30 23447 H 2225.51 0.0444586 0.674536 0
M  V30 23448 H 2228.06 0.774852 1.90224 0
M  V30 23449 H 2226.29 -1.00603 3.73384 0
M  V30 23450 H 2227.98 -0.683452 4.00105 0
M  V30 23451 H 2228.75 1.74395 4.52561 0
M  V30 23452 H 2224.62 0.518973 4.58069 0
M  V30 23453 H 2228.17 3.70446 5.91114 0
M  V30 23454 H 2224.07 2.47091 5.96336 0
M  V30 23455 H 2224.83 4.28388 6.97443 0
M  V30 23456 N 2227.5 -1.54768 0.297442 0
M  V30 23457 C 2228.44 -2.23387 -0.580237 0
M  V30 23458 C 2229.41 -1.21519 -1.13236 0
M  V30 23459 O 2230.6 -1.50129 -1.17754 0
M  V30 23460 C 2227.74 -2.97558 -1.74796 0
M  V30 23461 C 2226.85 -4.14192 -1.22757 0
M  V30 23462 C 2225.99 -4.75953 -2.35887 0
M  V30 23463 C 2225.03 -5.84738 -1.80963 0
M  V30 23464 N 2224.16 -6.40469 -2.87653 0
M  V30 23465 H 2229 -2.97998 0.0115357 0
M  V30 23466 H 2226.54 -1.4709 0.0174619 0
M  V30 23467 H 2228.5 -3.3879 -2.43469 0
M  V30 23468 H 2227.13 -2.2533 -2.31141 0
M  V30 23469 H 2226.18 -3.77925 -0.433205 0
M  V30 23470 H 2227.49 -4.92577 -0.785464 0
M  V30 23471 H 2226.65 -5.20019 -3.12514 0
M  V30 23472 H 2225.38 -3.96892 -2.83422 0
M  V30 23473 H 2224.39 -5.40099 -1.02824 0
M  V30 23474 H 2225.61 -6.6568 -1.34337 0
M  V30 23475 H 2223.56 -5.64293 -3.34528 0
M  V30 23476 H 2223.48 -7.1419 -2.47927 0
M  V30 23477 H 2224.75 -6.89193 -3.64188 0
M  V30 23478 N 2228.97 -0.0251005 -1.5758 0
M  V30 23479 C 2229.9 0.956538 -2.13008 0
M  V30 23480 C 2230.89 1.34198 -1.04523 0
M  V30 23481 O 2232.07 1.42131 -1.32335 0
M  V30 23482 C 2229.2 2.24022 -2.6539 0
M  V30 23483 C 2228.15 1.99565 -3.78626 0
M  V30 23484 C 2227.48 3.34163 -4.1742 0
M  V30 23485 C 2228.78 1.33805 -5.0487 0
M  V30 23486 H 2230.47 0.494939 -2.95281 0
M  V30 23487 H 2228.02 0.236627 -1.42043 0
M  V30 23488 H 2229.97 2.93071 -3.02799 0
M  V30 23489 H 2228.7 2.7234 -1.80273 0
M  V30 23490 H 2227.36 1.32935 -3.41649 0
M  V30 23491 H 2227 3.80232 -3.29291 0
M  V30 23492 H 2226.7 3.18606 -4.93724 0
M  V30 23493 H 2228.23 4.04486 -4.57409 0
M  V30 23494 H 2229.64 1.92848 -5.39891 0
M  V30 23495 H 2228.04 1.28659 -5.86146 0
M  V30 23496 H 2229.11 0.310476 -4.83905 0
M  V30 23497 N 2230.45 1.55637 0.247999 0
M  V30 23498 C 2231.7 1.77417 0.976193 0
M  V30 23499 C 2232.03 0.589226 1.8536 0
M  V30 23500 O 2231.28 -0.427495 1.90974 0
M  V30 23501 C 2231.58 3.04689 1.86813 0
M  V30 23502 C 2231.25 4.36089 1.14617 0
M  V30 23503 C 2229.91 4.71797 0.94664 0
M  V30 23504 C 2232.26 5.17325 0.634372 0
M  V30 23505 C 2229.59 5.86276 0.222988 0
M  V30 23506 C 2231.94 6.32555 -0.0758071 0
M  V30 23507 C 2230.61 6.66883 -0.286828 0
M  V30 23508 H 2229.88 0.649214 0.357214 0
M  V30 23509 H 2232.52 1.89908 0.246381 0
M  V30 23510 H 2230.83 2.87205 2.66497 0
M  V30 23511 H 2232.52 3.1874 2.43323 0
M  V30 23512 H 2229.11 4.08037 1.31163 0
M  V30 23513 H 2233.3 4.90195 0.776074 0
M  V30 23514 H 2228.55 6.1138 0.0490111 0
M  V30 23515 H 2232.73 6.94744 -0.480022 0
M  V30 23516 H 2230.36 7.55438 -0.849522 0
M  V30 23517 N 2231.93 -0.513613 1.48996 0
M  V30 23518 C 2232.89 -1.59876 1.64232 0
M  V30 23519 C 2233.89 -1.52339 0.514723 0
M  V30 23520 O 2235.08 -1.55716 0.780898 0
M  V30 23521 C 2232.22 -2.99521 1.62788 0
M  V30 23522 H 2233.41 -1.47701 2.61007 0
M  V30 23523 H 2230.96 -0.736912 1.37838 0
M  V30 23524 H 2231.7 -3.17186 0.675516 0
M  V30 23525 H 2231.48 -3.064 2.44666 0
M  V30 23526 H 2232.97 -3.78385 1.76676 0
M  V30 23527 N 2233.41 -1.37859 -0.763727 0
M  V30 23528 C 2234.34 -1.30151 -1.88662 0
M  V30 23529 C 2235.35 -0.215713 -1.61365 0
M  V30 23530 O 2236.54 -0.472489 -1.72133 0
M  V30 23531 C 2233.64 -0.991453 -3.24073 0
M  V30 23532 C 2232.82 -2.18432 -3.78954 0
M  V30 23533 C 2231.88 -1.84329 -4.92858 0
M  V30 23534 O 2230.9 -2.56713 -5.08023 0
M  V30 23535 N 2232.1 -0.792182 -5.75069 0
M  V30 23536 H 2234.87 -2.26909 -1.95787 0
M  V30 23537 H 2232.43 -1.31588 -0.943203 0
M  V30 23538 H 2234.42 -0.744005 -3.97802 0
M  V30 23539 H 2232.99 -0.112176 -3.12399 0
M  V30 23540 H 2232.21 -2.59304 -2.96909 0
M  V30 23541 H 2233.5 -2.98066 -4.12352 0
M  V30 23542 H 2232.9 -0.191694 -5.65375 0
M  V30 23543 H 2231.45 -0.604604 -6.4899 0
M  V30 23544 N 2234.89 0.990791 -1.22561 0
M  V30 23545 C 2236.12 1.76609 -1.07782 0
M  V30 23546 C 2236.53 1.85109 0.371481 0
M  V30 23547 O 2235.89 1.32276 1.25735 0
M  V30 23548 C 2235.94 3.19819 -1.68518 0
M  V30 23549 O 2235.66 3.11775 -3.07779 0
M  V30 23550 C 2237.16 4.13788 -1.59042 0
M  V30 23551 H 2234.38 0.554576 -0.377738 0
M  V30 23552 H 2236.92 1.24548 -1.62197 0
M  V30 23553 H 2235.08 3.6894 -1.18161 0
M  V30 23554 H 2235.49 4.01852 -3.37069 0
M  V30 23555 H 2236.97 5.12017 -2.06259 0
M  V30 23556 H 2237.44 4.35776 -0.547349 0
M  V30 23557 H 2238.05 3.70564 -2.08715 0
M  V30 23558 N 2236.37 1.03564 1.18795 0
M  V30 23559 C 2237.3 0.580376 2.2173 0
M  V30 23560 C 2238.31 -0.347321 1.59052 0
M  V30 23561 O 2239.5 -0.142638 1.77929 0
M  V30 23562 C 2236.6 -0.172746 3.38459 0
M  V30 23563 C 2235.77 0.761572 4.30719 0
M  V30 23564 C 2234.83 0.0526472 5.26174 0
M  V30 23565 O 2233.86 0.681432 5.65106 0
M  V30 23566 N 2235.06 -1.21576 5.67626 0
M  V30 23567 H 2237.82 1.4657 2.61414 0
M  V30 23568 H 2235.39 0.915499 1.3353 0
M  V30 23569 H 2237.38 -0.656722 3.99336 0
M  V30 23570 H 2235.95 -0.959549 2.97509 0
M  V30 23571 H 2235.17 1.42551 3.67523 0
M  V30 23572 H 2236.46 1.39634 4.89265 0
M  V30 23573 H 2235.85 -1.74722 5.38041 0
M  V30 23574 H 2234.41 -1.6441 6.30724 0
M  V30 23575 N 2237.84 -1.34926 0.814413 0
M  V30 23576 C 2239.09 -1.98149 0.397671 0
M  V30 23577 C 2239.41 -1.6491 -1.04066 0
M  V30 23578 O 2238.68 -0.93551 -1.72119 0
M  V30 23579 H 2237.26 -0.732978 0.144056 0
M  V30 23580 H 2239.92 -1.64708 1.04198 0
M  V30 23581 H 2239.02 -3.07909 0.509743 0
M  V30 23582 N 2239.32 -0.56861 -1.46985 0
M  V30 23583 C 2240.73 -0.138252 -1.86187 0
M  V30 23584 C 2241.08 1.29501 -1.4739 0
M  V30 23585 O 2240.21 1.976 -0.882224 0
M  V30 23586 C 2240.8 -0.244124 -3.37919 0
M  V30 23587 C 2239.36 0.131269 -3.76171 0
M  V30 23588 C 2238.51 -0.586513 -2.71026 0
M  V30 23589 H 2241.46 -0.777669 -1.3834 0
M  V30 23590 H 2241.48 0.534285 -3.7673 0
M  V30 23591 H 2240.99 -1.28738 -3.66126 0
M  V30 23592 H 2239.09 1.17519 -3.53582 0
M  V30 23593 H 2239.21 -0.23523 -4.78522 0
M  V30 23594 H 2237.57 -0.028317 -2.54684 0
M  V30 23595 H 2238.35 -1.63114 -3.02074 0
M  V30 23596 N 2240.8 1.54608 -0.305646 0
M  V30 23597 C 2242.03 2.04347 0.304297 0
M  V30 23598 C 2242.44 1.18226 1.47713 0
M  V30 23599 O 2241.78 0.201609 1.8259 0
M  V30 23600 C 2241.84 3.50047 0.818969 0
M  V30 23601 C 2241.51 4.56425 -0.2292 0
M  V30 23602 C 2242.5 5.08995 -1.05923 0
M  V30 23603 C 2240.19 5.00919 -0.372236 0
M  V30 23604 C 2242.18 6.04605 -2.0182 0
M  V30 23605 C 2239.87 5.96348 -1.33464 0
M  V30 23606 C 2240.87 6.48075 -2.1561 0
M  V30 23607 O 2240.56 7.41633 -3.10218 0
M  V30 23608 H 2240.29 0.672429 0.0693877 0
M  V30 23609 H 2242.84 2.00531 -0.444583 0
M  V30 23610 H 2241.07 3.51202 1.61845 0
M  V30 23611 H 2242.76 3.82958 1.3453 0
M  V30 23612 H 2243.53 4.75412 -0.959621 0
M  V30 23613 H 2239.41 4.60282 0.257223 0
M  V30 23614 H 2242.95 6.44905 -2.65977 0
M  V30 23615 H 2238.85 6.29348 -1.43496 0
M  V30 23616 H 2239.61 7.5945 -3.0525 0
M  V30 23617 N 2242.28 0.033457 1.57564 0
M  V30 23618 C 2243.5 -0.657861 1.9669 0
M  V30 23619 C 2243.93 -1.64618 0.910086 0
M  V30 23620 O 2243.29 -1.80844 -0.128566 0
M  V30 23621 C 2243.33 -1.33677 3.34907 0
M  V30 23622 O 2242.44 -2.45213 3.31578 0
M  V30 23623 H 2241.78 -0.172478 0.641208 0
M  V30 23624 H 2244.31 0.096598 2.04372 0
M  V30 23625 H 2244.32 -1.69256 3.71236 0
M  V30 23626 H 2242.99 -0.612339 4.11368 0
M  V30 23627 H 2241.57 -2.11714 3.06972 0
M  V30 23628 N 2243.76 -1.55766 -0.239741 0
M  V30 23629 C 2245 -1.77581 -0.96486 0
M  V30 23630 C 2245.32 -0.598732 -1.85581 0
M  V30 23631 O 2244.59 0.385193 -1.92076 0
M  V30 23632 H 2243.17 -0.65494 -0.359253 0
M  V30 23633 H 2245.84 -1.93212 -0.255967 0
M  V30 23634 H 2244.93 -2.69011 -1.58238 0
M  V30 23635 N 2245.23 0.505704 -1.49266 0
M  V30 23636 C 2246.18 1.62863 -1.66067 0
M  V30 23637 C 2247.18 1.61005 -0.526664 0
M  V30 23638 O 2248.38 1.6557 -0.706155 0
M  V30 23639 H 2244.76 0.539796 -0.523569 0
M  V30 23640 H 2246.73 1.45843 -2.60331 0
M  V30 23641 C 2245.48 3.01023 -1.74013 0
M  V30 23642 H 2244.8 3.03157 -2.60645 0
M  V30 23643 H 2246.24 3.79144 -1.89805 0
M  V30 23644 C 2244.7 3.33406 -0.483927 0
M  V30 23645 O 2245.23 3.99778 0.392478 0
M  V30 23646 N 2243.43 2.88505 -0.348287 0
M  V30 23647 H 2242.98 2.34669 -1.06247 0
M  V30 23648 H 2242.94 3.1054 0.491149 0
M  V30 23649 N 2246.71 1.38262 0.756405 0
M  V30 23650 C 2248.12 1.30663 1.33357 0
M  V30 23651 C 2248.47 -0.038853 1.96162 0
M  V30 23652 O 2247.6 -0.940884 1.94875 0
M  V30 23653 C 2248.19 2.36627 2.42473 0
M  V30 23654 C 2246.75 2.32615 2.95917 0
M  V30 23655 C 2245.9 2.19642 1.69272 0
M  V30 23656 H 2248.85 1.48661 0.555494 0
M  V30 23657 H 2248.87 2.0218 3.22341 0
M  V30 23658 H 2248.38 3.34541 1.96733 0
M  V30 23659 H 2246.49 1.38273 3.45993 0
M  V30 23660 H 2246.6 3.26642 3.50488 0
M  V30 23661 H 2244.96 1.66446 1.9279 0
M  V30 23662 H 2245.75 3.19493 1.25614 0
M  V30 23663 N 2248.19 -0.984277 1.23084 0
M  V30 23664 C 2249.6 -1.53958 1.05612 0
M  V30 23665 C 2249.95 -1.92529 -0.377759 0
M  V30 23666 O 2249.08 -1.75651 -1.26395 0
M  V30 23667 C 2249.67 -2.79767 1.91092 0
M  V30 23668 C 2248.23 -3.3171 1.77891 0
M  V30 23669 C 2247.38 -2.0473 1.87032 0
M  V30 23670 H 2250.33 -0.804395 1.36803 0
M  V30 23671 H 2250.35 -3.52468 1.43342 0
M  V30 23672 H 2249.86 -2.51663 2.95445 0
M  V30 23673 H 2247.96 -3.64703 0.763059 0
M  V30 23674 H 2248.08 -4.0173 2.61055 0
M  V30 23675 H 2246.44 -2.18687 1.30568 0
M  V30 23676 H 2247.22 -1.79012 2.92933 0
M  V30 23677 N 2249.67 -1.04192 -1.18244 0
M  V30 23678 C 2250.62 -0.60443 -2.19842 0
M  V30 23679 C 2251.6 0.353787 -1.56962 0
M  V30 23680 O 2252.79 0.172639 -1.76156 0
M  V30 23681 C 2249.92 0.0298372 -3.43287 0
M  V30 23682 C 2249.01 -0.951603 -4.13286 0
M  V30 23683 N 2249.4 -2.11914 -4.59267 0
M  V30 23684 C 2247.7 -0.777878 -4.39164 0
M  V30 23685 C 2248.4 -2.73921 -5.13169 0
M  V30 23686 N 2247.38 -2.01788 -5.0476 0
M  V30 23687 H 2251.18 -1.49414 -2.53086 0
M  V30 23688 H 2248.69 -0.910681 -1.34463 0
M  V30 23689 H 2250.69 0.360964 -4.15334 0
M  V30 23690 H 2249.35 0.915072 -3.11539 0
M  V30 23691 H 2250.36 -2.49797 -4.53676 0
M  V30 23692 H 2247.04 0.0571598 -4.17461 0
M  V30 23693 H 2248.43 -3.72874 -5.58941 0
M  V30 23694 N 2251.15 1.34492 -0.821557 0
M  V30 23695 C 2252.09 2.31453 -0.230743 0
M  V30 23696 C 2253.09 1.57339 0.627765 0
M  V30 23697 O 2254.29 1.72348 0.519257 0
M  V30 23698 H 2250.67 0.749922 -0.0558709 0
M  V30 23699 H 2252.64 2.7881 -1.06337 0
M  V30 23700 C 2251.39 3.42591 0.593849 0
M  V30 23701 H 2250.71 3.99759 -0.057429 0
M  V30 23702 H 2252.15 4.12676 0.973374 0
M  V30 23703 C 2250.61 2.86927 1.76563 0
M  V30 23704 O 2251.14 2.81696 2.86375 0
M  V30 23705 N 2249.35 2.43769 1.58193 0
M  V30 23706 H 2248.89 2.48224 0.688677 0
M  V30 23707 H 2248.85 2.06876 2.36749 0
M  V30 23708 N 2252.62 0.576397 1.46681 0
M  V30 23709 C 2253.57 -0.160458 2.30242 0
M  V30 23710 C 2254.54 -0.890137 1.40235 0
M  V30 23711 O 2255.73 -0.882054 1.69188 0
M  V30 23712 C 2252.87 -1.17224 3.2458 0
M  V30 23713 C 2251.98 -0.44666 4.29685 0
M  V30 23714 C 2251.11 -1.44542 5.11157 0
M  V30 23715 C 2250.15 -0.705883 6.08016 0
M  V30 23716 N 2249.29 -1.65239 6.82378 0
M  V30 23717 H 2254.13 0.558179 2.92726 0
M  V30 23718 H 2251.67 0.287081 1.44271 0
M  V30 23719 H 2253.63 -1.77165 3.77715 0
M  V30 23720 H 2252.26 -1.85867 2.63919 0
M  V30 23721 H 2251.31 0.267661 3.79457 0
M  V30 23722 H 2252.62 0.131774 4.98626 0
M  V30 23723 H 2251.77 -2.11781 5.68536 0
M  V30 23724 H 2250.51 -2.05778 4.42162 0
M  V30 23725 H 2249.52 -0.0196759 5.49796 0
M  V30 23726 H 2250.74 -0.0990007 6.79028 0
M  V30 23727 H 2248.69 -2.25298 6.16098 0
M  V30 23728 H 2248.61 -1.1266 7.47558 0
M  V30 23729 H 2249.87 -2.31533 7.4432 0
M  V30 23730 N 2254.1 -1.54444 0.313841 0
M  V30 23731 C 2255.03 -2.26944 -0.549415 0
M  V30 23732 C 2256.01 -1.27374 -1.12739 0
M  V30 23733 O 2257.2 -1.56169 -1.15433 0
M  V30 23734 C 2254.33 -3.01992 -1.71517 0
M  V30 23735 C 2253.28 -4.08818 -1.26696 0
M  V30 23736 C 2252.61 -4.71652 -2.5189 0
M  V30 23737 C 2253.91 -5.2085 -0.38887 0
M  V30 23738 H 2255.6 -2.99349 0.0553188 0
M  V30 23739 H 2253.15 -1.43973 0.028046 0
M  V30 23740 H 2255.1 -3.51437 -2.32529 0
M  V30 23741 H 2253.83 -2.27187 -2.34635 0
M  V30 23742 H 2252.48 -3.60241 -0.679833 0
M  V30 23743 H 2252.13 -3.93473 -3.13349 0
M  V30 23744 H 2251.83 -5.43806 -2.22595 0
M  V30 23745 H 2253.36 -5.23867 -3.13681 0
M  V30 23746 H 2254.77 -5.66112 -0.905007 0
M  V30 23747 H 2253.17 -5.99802 -0.189135 0
M  V30 23748 H 2254.24 -4.81385 0.582784 0
M  V30 23749 N 2255.58 -0.0418125 -1.57545 0
M  V30 23750 C 2256.53 0.935768 -2.10979 0
M  V30 23751 C 2257.5 1.31489 -1.01488 0
M  V30 23752 O 2258.68 1.406 -1.28982 0
M  V30 23753 C 2255.82 2.20855 -2.65173 0
M  V30 23754 C 2254.94 1.88475 -3.88717 0
M  V30 23755 C 2254.07 3.10143 -4.3126 0
M  V30 23756 C 2253.11 2.7364 -5.47529 0
M  V30 23757 N 2252.25 3.87972 -5.85168 0
M  V30 23758 H 2257.09 0.473197 -2.94219 0
M  V30 23759 H 2254.62 0.221956 -1.45416 0
M  V30 23760 H 2256.58 2.9532 -2.9469 0
M  V30 23761 H 2255.21 2.64706 -1.84744 0
M  V30 23762 H 2254.26 1.04199 -3.65851 0
M  V30 23763 H 2255.58 1.576 -4.73248 0
M  V30 23764 H 2254.73 3.92915 -4.6228 0
M  V30 23765 H 2253.47 3.44189 -3.45522 0
M  V30 23766 H 2252.47 1.89282 -5.1619 0
M  V30 23767 H 2253.7 2.40796 -6.34976 0
M  V30 23768 H 2251.64 4.21837 -5.02384 0
M  V30 23769 H 2251.56 3.60763 -6.64369 0
M  V30 23770 H 2252.83 4.71411 -6.20799 0
M  V30 23771 N 2257.06 1.55891 0.231477 0
M  V30 23772 C 2258.02 1.90781 1.27024 0
M  V30 23773 C 2259.02 0.785531 1.40307 0
M  V30 23774 O 2260.21 1.05338 1.38742 0
M  V30 23775 C 2257.34 2.14988 2.64562 0
M  V30 23776 H 2258.54 2.83678 0.972968 0
M  V30 23777 H 2256.09 1.4902 0.47146 0
M  V30 23778 H 2256.82 1.2461 2.99404 0
M  V30 23779 H 2256.61 2.96737 2.563 0
M  V30 23780 H 2258.1 2.43111 3.39539 0
M  V30 23781 N 2258.54 -0.497781 1.49532 0
M  V30 23782 C 2259.95 -1.07924 1.52346 0
M  V30 23783 C 2260.3 -1.93711 0.311503 0
M  V30 23784 O 2259.42 -2.08528 -0.578369 0
M  V30 23785 C 2260.02 -1.964 2.76066 0
M  V30 23786 C 2258.58 -2.49704 2.81647 0
M  V30 23787 C 2257.72 -1.274 2.46302 0
M  V30 23788 H 2260.68 -0.281549 1.56183 0
M  V30 23789 H 2260.7 -2.8113 2.5641 0
M  V30 23790 H 2260.21 -1.33936 3.64256 0
M  V30 23791 H 2258.31 -3.15797 1.97744 0
M  V30 23792 H 2258.42 -2.86636 3.83896 0
M  V30 23793 H 2256.79 -1.60025 1.98151 0
M  V30 23794 H 2257.57 -0.666391 3.3677 0
M  V30 23795 N 2260.01 -1.38661 -0.749062 0
M  V30 23796 C 2261.24 -1.3836 -1.53831 0
M  V30 23797 C 2261.66 0.0254887 -1.88783 0
M  V30 23798 O 2261.01 0.993265 -1.53103 0
M  V30 23799 C 2261.07 -2.24345 -2.83464 0
M  V30 23800 O 2260.79 -3.59765 -2.50002 0
M  V30 23801 C 2262.29 -2.32274 -3.77576 0
M  V30 23802 H 2259.51 -0.473091 -0.475842 0
M  V30 23803 H 2262.05 -1.82298 -0.926694 0
M  V30 23804 H 2260.21 -1.83857 -3.40992 0
M  V30 23805 H 2260.62 -4.05086 -3.33174 0
M  V30 23806 H 2262.09 -2.96714 -4.65473 0
M  V30 23807 H 2262.57 -1.33772 -4.18332 0
M  V30 23808 H 2263.18 -2.73171 -3.25972 0
M  V30 23809 N 2261.49 0.977736 -1.23605 0
M  V30 23810 C 2262.42 2.08858 -1.04405 0
M  V30 23811 C 2263.4 1.70053 0.0398754 0
M  V30 23812 O 2264.59 1.93795 -0.12528 0
M  V30 23813 C 2261.72 3.41402 -0.637329 0
M  V30 23814 C 2260.67 3.94121 -1.6689 0
M  V30 23815 C 2260 5.22891 -1.11754 0
M  V30 23816 C 2261.3 4.2309 -3.06255 0
M  V30 23817 H 2262.99 2.25178 -1.9732 0
M  V30 23818 H 2260.54 1.08207 -0.950115 0
M  V30 23819 H 2262.49 4.18541 -0.490054 0
M  V30 23820 H 2261.22 3.24954 0.3275 0
M  V30 23821 H 2259.88 3.1913 -1.80421 0
M  V30 23822 H 2259.52 5.02795 -0.143615 0
M  V30 23823 H 2259.22 5.59131 -1.80682 0
M  V30 23824 H 2260.75 6.02649 -0.982173 0
M  V30 23825 H 2262.16 4.9097 -2.9601 0
M  V30 23826 H 2260.56 4.70537 -3.72445 0
M  V30 23827 H 2261.63 3.30257 -3.55047 0
M  V30 23828 N 2262.97 1.04818 1.1769 0
M  V30 23829 C 2264.39 0.768819 1.39862 0
M  V30 23830 C 2264.59 -0.638418 1.91119 0
M  V30 23831 O 2263.64 -1.40143 2.10039 0
M  V30 23832 C 2264.96 1.82126 2.39271 0
M  V30 23833 C 2266.5 1.84304 2.52984 0
M  V30 23834 C 2266.98 2.88561 3.55664 0
M  V30 23835 N 2268.47 2.875 3.63178 0
M  V30 23836 C 2269.21 3.64819 4.42374 0
M  V30 23837 N 2268.7 4.51912 5.25117 0
M  V30 23838 N 2270.49 3.53275 4.37211 0
M  V30 23839 H 2262.65 1.95618 0.827485 0
M  V30 23840 H 2264.91 0.846839 0.426108 0
M  V30 23841 H 2264.61 2.83105 2.08673 0
M  V30 23842 H 2264.49 1.65972 3.38723 0
M  V30 23843 H 2266.88 0.839919 2.82895 0
M  V30 23844 H 2266.96 2.04535 1.5362 0
M  V30 23845 H 2266.6 3.89057 3.26492 0
M  V30 23846 H 2266.53 2.65583 4.54723 0
M  V30 23847 H 2269.02 2.24348 3.04099 0
M  V30 23848 H 2269.33 5.07601 5.82719 0
M  V30 23849 H 2267.68 4.55975 5.24511 0
M  V30 23850 H 2270.87 2.84632 3.71621 0
M  V30 23851 H 2271.04 4.1378 4.98688 0
M  V30 23852 N 2264.45 -1.34055 0.828678 0
M  V30 23853 C 2265.86 -1.80489 0.477566 0
M  V30 23854 C 2266.21 -1.68651 -1.00256 0
M  V30 23855 O 2265.34 -1.22985 -1.78055 0
M  V30 23856 C 2265.93 -3.27701 0.860075 0
M  V30 23857 C 2264.49 -3.72192 0.56125 0
M  V30 23858 C 2263.64 -2.55661 1.0739 0
M  V30 23859 H 2266.59 -1.2172 1.01832 0
M  V30 23860 H 2266.61 -3.80137 0.166105 0
M  V30 23861 H 2266.12 -3.36285 1.93737 0
M  V30 23862 H 2264.22 -3.69143 -0.5064 0
M  V30 23863 H 2264.34 -4.6608 1.10934 0
M  V30 23864 H 2262.7 -2.4984 0.495193 0
M  V30 23865 H 2263.48 -2.67012 2.15776 0
M  V30 23866 N 2265.93 -0.584167 -1.46374 0
M  V30 23867 C 2267.17 -0.0704072 -2.02678 0
M  V30 23868 C 2267.51 1.28676 -1.45452 0
M  V30 23869 O 2266.78 1.84348 -0.620172 0
M  V30 23870 C 2267.06 -0.00621004 -3.60099 0
M  V30 23871 C 2266.92 -1.39238 -4.27707 0
M  V30 23872 C 2268.24 0.693666 -4.34599 0
M  V30 23873 H 2265.36 -0.0270599 -0.736503 0
M  V30 23874 H 2268 -0.751646 -1.745 0
M  V30 23875 H 2266.15 0.573942 -3.84237 0
M  V30 23876 H 2267.82 -2.01781 -4.14828 0
M  V30 23877 H 2266.06 -1.95969 -3.87013 0
M  V30 23878 H 2266.73 -1.29991 -5.36476 0
M  V30 23879 H 2269.21 0.200796 -4.15615 0
M  V30 23880 H 2268.09 0.707618 -5.4432 0
M  V30 23881 H 2268.35 1.75526 -4.05762 0
M  V30 23882 N 2267.41 1.54275 -0.322027 0
M  V30 23883 C 2268.65 2.00838 0.281425 0
M  V30 23884 C 2268.98 1.20987 1.51907 0
M  V30 23885 O 2268.26 0.291767 1.92299 0
M  V30 23886 C 2268.54 3.54773 0.6171 0
M  V30 23887 C 2268.4 4.4535 -0.631143 0
M  V30 23888 C 2269.71 4.16036 1.43535 0
M  V30 23889 H 2266.83 0.730072 0.100813 0
M  V30 23890 H 2269.48 1.84875 -0.4383 0
M  V30 23891 H 2267.63 3.68506 1.23027 0
M  V30 23892 H 2269.3 4.4349 -1.26942 0
M  V30 23893 H 2267.54 4.15088 -1.26032 0
M  V30 23894 H 2268.21 5.50878 -0.351832 0
M  V30 23895 H 2270.69 4.05868 0.917063 0
M  V30 23896 H 2269.56 5.23859 1.63898 0
M  V30 23897 H 2269.82 3.69262 2.43101 0
M  V30 23898 N 2268.88 0.0501669 1.5752 0
M  V30 23899 C 2270.13 -0.624764 1.92937 0
M  V30 23900 C 2270.46 -1.70554 0.928715 0
M  V30 23901 O 2269.74 -1.94447 -0.0454437 0
M  V30 23902 C 2270.02 -1.22179 3.38739 0
M  V30 23903 C 2269.87 -0.149139 4.49553 0
M  V30 23904 C 2271.19 -2.13371 3.84916 0
M  V30 23905 H 2268.31 -0.225644 0.701608 0
M  V30 23906 H 2270.95 0.111726 1.89671 0
M  V30 23907 H 2269.1 -1.84947 3.41653 0
M  V30 23908 H 2270.78 0.482729 4.58767 0
M  V30 23909 H 2269.02 0.522917 4.30637 0
M  V30 23910 H 2269.69 -0.60687 5.48654 0
M  V30 23911 H 2272.17 -1.60565 3.83872 0
M  V30 23912 H 2271.04 -2.52088 4.87589 0
M  V30 23913 H 2271.3 -3.0334 3.21616 0
M  V30 23914 N 2270.36 -1.56011 -0.223207 0
M  V30 23915 C 2271.29 -1.88764 -1.30003 0
M  V30 23916 C 2272.31 -0.775771 -1.43128 0
M  V30 23917 O 2273.5 -1.05406 -1.44055 0
M  V30 23918 C 2270.6 -2.0797 -2.67585 0
M  V30 23919 C 2269.77 -3.38978 -2.76428 0
M  V30 23920 C 2268.83 -3.47636 -3.95013 0
M  V30 23921 O 2267.85 -4.20679 -3.83429 0
M  V30 23922 N 2269.06 -2.78658 -5.09245 0
M  V30 23923 H 2271.82 -2.81724 -1.02233 0
M  V30 23924 H 2269.38 -1.56537 -0.41325 0
M  V30 23925 H 2271.37 -2.11079 -3.45294 0
M  V30 23926 H 2269.94 -1.21643 -2.87961 0
M  V30 23927 H 2269.16 -3.47981 -1.8521 0
M  V30 23928 H 2270.45 -4.25283 -2.79305 0
M  V30 23929 H 2269.85 -2.1909 -5.21552 0
M  V30 23930 H 2268.41 -2.87431 -5.85002 0
M  V30 23931 N 2271.84 0.489844 -1.49794 0
M  V30 23932 C 2273.09 1.24079 -1.59527 0
M  V30 23933 C 2273.41 1.92847 -0.288987 0
M  V30 23934 O 2272.68 1.83256 0.692403 0
M  V30 23935 H 2271.26 0.460973 -0.587804 0
M  V30 23936 H 2273.92 0.566746 -1.86478 0
M  V30 23937 H 2273.02 1.99876 -2.397 0
M  V30 23938 N 2273.32 1.39056 0.741698 0
M  V30 23939 C 2274.73 1.3207 1.31963 0
M  V30 23940 C 2275.08 -0.0180453 1.96192 0
M  V30 23941 O 2274.2 -0.920162 1.95862 0
M  V30 23942 C 2274.8 2.39185 2.3995 0
M  V30 23943 C 2273.36 2.35741 2.93434 0
M  V30 23944 C 2272.51 2.21425 1.66932 0
M  V30 23945 H 2275.46 1.49241 0.539695 0
M  V30 23946 H 2275.48 2.05587 3.20178 0
M  V30 23947 H 2274.99 3.36609 1.93174 0
M  V30 23948 H 2273.09 1.41935 3.44507 0
M  V30 23949 H 2273.2 3.30341 3.47004 0
M  V30 23950 H 2271.57 1.68481 1.91014 0
M  V30 23951 H 2272.35 3.20808 1.22218 0
M  V30 23952 N 2274.8 -0.971167 1.24121 0
M  V30 23953 C 2275.74 -2.08642 1.02816 0
M  V30 23954 C 2276.74 -1.69362 -0.0358105 0
M  V30 23955 O 2277.94 -1.7961 0.11846 0
M  V30 23956 H 2274.32 -0.682643 0.31544 0
M  V30 23957 H 2276.29 -2.23775 1.97401 0
M  V30 23958 C 2275.04 -3.41647 0.645934 0
M  V30 23959 H 2274.36 -3.7233 1.45639 0
M  V30 23960 H 2275.8 -4.20593 0.53644 0
M  V30 23961 C 2274.26 -3.30636 -0.646655 0
M  V30 23962 O 2274.79 -3.64266 -1.69332 0
M  V30 23963 N 2273 -2.83776 -0.626065 0
M  V30 23964 H 2272.54 -2.56606 0.226033 0
M  V30 23965 H 2272.5 -2.7679 -1.49112 0
M  V30 23966 N 2276.27 -1.05441 -1.17133 0
M  V30 23967 C 2277.5 -0.786447 -1.9137 0
M  V30 23968 C 2277.92 0.658171 -1.76956 0
M  V30 23969 O 2277.27 1.44985 -1.1084 0
M  V30 23970 C 2277.33 -1.16086 -3.42354 0
M  V30 23971 O 2277.05 -2.54878 -3.56327 0
M  V30 23972 C 2278.55 -0.919399 -4.33661 0
M  V30 23973 H 2275.77 -0.285754 -0.607113 0
M  V30 23974 H 2278.31 -1.40575 -1.48522 0
M  V30 23975 H 2276.47 -0.586258 -3.82938 0
M  V30 23976 H 2276.88 -2.69626 -4.49891 0
M  V30 23977 H 2278.35 -1.23109 -5.38097 0
M  V30 23978 H 2278.83 0.145282 -4.3896 0
M  V30 23979 H 2279.44 -1.47796 -3.98794 0
M  V30 23980 N 2277.75 1.33613 -0.835776 0
M  V30 23981 C 2278.66 2.33051 -0.269129 0
M  V30 23982 C 2279.68 1.63209 0.603222 0
M  V30 23983 O 2280.85 1.94886 0.508078 0
M  V30 23984 C 2277.92 3.42325 0.549031 0
M  V30 23985 C 2276.98 4.27893 -0.347231 0
M  V30 23986 C 2276.21 5.31949 0.431976 0
M  V30 23987 O 2276.44 5.45589 1.66399 0
M  V30 23988 O 2275.37 6.01592 -0.192404 0
M  V30 23989 H 2279.2 2.8337 -1.09248 0
M  V30 23990 H 2276.78 1.369 -0.598222 0
M  V30 23991 H 2278.66 4.09017 1.01407 0
M  V30 23992 H 2277.34 2.94228 1.34949 0
M  V30 23993 H 2276.25 3.6408 -0.860043 0
M  V30 23994 H 2277.58 4.79465 -1.11238 0
M  V30 23995 N 2279.23 0.591922 1.46062 0
M  V30 23996 C 2280.48 0.0810347 2.02338 0
M  V30 23997 C 2280.81 -1.28246 1.4623 0
M  V30 23998 O 2280.06 -1.85591 0.620851 0
M  V30 23999 C 2280.36 -0.0249184 3.57391 0
M  V30 24000 C 2280.03 1.27219 4.32581 0
M  V30 24001 C 2278.69 1.62753 4.52841 0
M  V30 24002 C 2281.04 2.13014 4.75683 0
M  V30 24003 C 2278.37 2.83864 5.13457 0
M  V30 24004 C 2280.72 3.33359 5.37638 0
M  V30 24005 C 2279.38 3.69165 5.56124 0
M  V30 24006 H 2278.65 0.0296527 0.740406 0
M  V30 24007 H 2281.3 0.770405 1.7532 0
M  V30 24008 H 2279.61 -0.797469 3.83598 0
M  V30 24009 H 2281.3 -0.436114 3.98621 0
M  V30 24010 H 2277.89 0.985572 4.17114 0
M  V30 24011 H 2282.08 1.86863 4.59778 0
M  V30 24012 H 2277.33 3.11731 5.2596 0
M  V30 24013 H 2281.51 4.00102 5.69993 0
M  V30 24014 H 2279.13 4.631 6.02862 0
M  V30 24015 N 2280.71 -1.54102 0.330204 0
M  V30 24016 C 2281.67 -2.23221 -0.520105 0
M  V30 24017 C 2282.67 -1.22788 -1.03826 0
M  V30 24018 O 2283.86 -1.47321 -0.929626 0
M  V30 24019 C 2280.99 -2.94145 -1.72312 0
M  V30 24020 H 2282.19 -2.99782 0.0842132 0
M  V30 24021 H 2279.74 -1.56088 0.0813707 0
M  V30 24022 H 2280.47 -2.21738 -2.36649 0
M  V30 24023 H 2280.26 -3.67799 -1.35892 0
M  V30 24024 H 2281.75 -3.46788 -2.32654 0
M  V30 24025 N 2282.19 -0.0585199 -1.57491 0
M  V30 24026 C 2283.12 0.91114 -2.1499 0
M  V30 24027 C 2284.1 1.3195 -1.07346 0
M  V30 24028 O 2285.28 1.39292 -1.3532 0
M  V30 24029 C 2282.41 2.18342 -2.70082 0
M  V30 24030 C 2281.37 1.91489 -3.82774 0
M  V30 24031 C 2280.69 3.25234 -4.24414 0
M  V30 24032 C 2281.99 1.23066 -5.07594 0
M  V30 24033 H 2283.69 0.432194 -2.96264 0
M  V30 24034 H 2281.23 0.206444 -1.42512 0
M  V30 24035 H 2283.19 2.86582 -3.08948 0
M  V30 24036 H 2281.91 2.68455 -1.86009 0
M  V30 24037 H 2280.57 1.25658 -3.44392 0
M  V30 24038 H 2280.22 3.73162 -3.37282 0
M  V30 24039 H 2279.92 3.08062 -5.00371 0
M  V30 24040 H 2281.44 3.94693 -4.65886 0
M  V30 24041 H 2282.85 1.81353 -5.4386 0
M  V30 24042 H 2281.25 1.16197 -5.88743 0
M  V30 24043 H 2282.32 0.207762 -4.84455 0
M  V30 24044 N 2283.66 1.56128 0.21493 0
M  V30 24045 C 2284.89 1.83886 0.959207 0
M  V30 24046 C 2285.31 0.639675 1.76889 0
M  V30 24047 O 2284.67 -0.41157 1.76567 0
M  V30 24048 C 2284.72 3.09696 1.84718 0
M  V30 24049 O 2283.82 2.88855 2.94341 0
M  V30 24050 H 2283.17 0.606073 0.27124 0
M  V30 24051 H 2285.7 2.03345 0.22624 0
M  V30 24052 H 2285.71 3.39973 2.2557 0
M  V30 24053 H 2284.38 3.96605 1.25211 0
M  V30 24054 H 2282.96 2.69828 2.57386 0
M  V30 24055 N 2285.14 -0.481893 1.50052 0
M  V30 24056 C 2286.07 -1.58948 1.71049 0
M  V30 24057 C 2287.05 -1.60641 0.559316 0
M  V30 24058 O 2288.24 -1.7708 0.797274 0
M  V30 24059 C 2285.37 -2.97336 1.79467 0
M  V30 24060 C 2284.32 -3.1051 2.94563 0
M  V30 24061 C 2283.65 -4.50439 2.88113 0
M  V30 24062 C 2284.95 -2.88739 4.35232 0
M  V30 24063 H 2286.64 -1.41631 2.63782 0
M  V30 24064 H 2284.19 -0.67992 1.26937 0
M  V30 24065 H 2286.14 -3.74738 1.92741 0
M  V30 24066 H 2284.87 -3.15786 0.833467 0
M  V30 24067 H 2283.52 -2.35538 2.80923 0
M  V30 24068 H 2283.17 -4.65791 1.89861 0
M  V30 24069 H 2282.87 -4.6019 3.65375 0
M  V30 24070 H 2284.4 -5.29875 3.03421 0
M  V30 24071 H 2285.81 -3.55898 4.49455 0
M  V30 24072 H 2284.21 -3.09946 5.13862 0
M  V30 24073 H 2285.28 -1.84688 4.48351 0
M  V30 24074 N 2286.62 -1.39448 -0.734313 0
M  V30 24075 C 2287.55 -1.40959 -1.86153 0
M  V30 24076 C 2288.53 -0.272857 -1.67897 0
M  V30 24077 O 2289.72 -0.478776 -1.88206 0
M  V30 24078 C 2286.85 -1.25299 -3.23909 0
M  V30 24079 C 2285.8 -2.36379 -3.56804 0
M  V30 24080 C 2285.13 -2.05809 -4.93504 0
M  V30 24081 C 2286.43 -3.78693 -3.59707 0
M  V30 24082 H 2288.12 -2.3529 -1.85146 0
M  V30 24083 H 2285.67 -1.13255 -0.889347 0
M  V30 24084 H 2287.62 -1.24977 -4.02441 0
M  V30 24085 H 2286.34 -0.274366 -3.25446 0
M  V30 24086 H 2285 -2.35919 -2.80602 0
M  V30 24087 H 2284.65 -1.06383 -4.91622 0
M  V30 24088 H 2284.35 -2.80217 -5.16481 0
M  V30 24089 H 2285.87 -2.07138 -5.74392 0
M  V30 24090 H 2287.29 -3.81078 -4.28313 0
M  V30 24091 H 2285.69 -4.52466 -3.94201 0
M  V30 24092 H 2286.76 -4.09621 -2.59496 0
M  V30 24093 N 2288.1 0.964571 -1.24635 0
M  V30 24094 C 2289.51 1.23379 -1.01242 0
M  V30 24095 C 2289.71 1.99589 0.276865 0
M  V30 24096 O 2288.77 2.32189 0.9922 0
M  V30 24097 C 2290.08 2.01787 -2.22941 0
M  V30 24098 C 2291.63 2.14868 -2.27598 0
M  V30 24099 C 2292.11 2.96672 -3.48927 0
M  V30 24100 N 2293.6 3.04253 -3.49262 0
M  V30 24101 C 2294.33 3.67916 -4.39801 0
M  V30 24102 N 2293.83 4.33272 -5.40599 0
M  V30 24103 N 2295.62 3.64959 -4.27506 0
M  V30 24104 H 2287.77 0.454466 -2.07481 0
M  V30 24105 H 2290.04 0.263474 -0.910651 0
M  V30 24106 H 2289.74 1.53178 -3.1659 0
M  V30 24107 H 2289.62 3.02514 -2.25311 0
M  V30 24108 H 2292 2.62678 -1.34478 0
M  V30 24109 H 2292.08 1.13478 -2.29252 0
M  V30 24110 H 2291.73 2.49555 -4.42363 0
M  V30 24111 H 2291.66 3.98266 -3.44517 0
M  V30 24112 H 2294.15 2.57767 -2.76342 0
M  V30 24113 H 2294.46 4.79676 -6.05913 0
M  V30 24114 H 2292.81 4.31931 -5.44482 0
M  V30 24115 H 2296 3.13079 -3.47993 0
M  V30 24116 H 2296.17 4.1429 -4.98265 0
M  V30 24117 N 2289.58 1.0606 1.16572 0
M  V30 24118 C 2290.52 0.669301 2.20882 0
M  V30 24119 C 2291.49 -0.332889 1.6273 0
M  V30 24120 O 2292.68 -0.222313 1.895 0
M  V30 24121 C 2289.82 0.0594178 3.45049 0
M  V30 24122 C 2288.93 1.1115 4.17456 0
M  V30 24123 C 2288.07 0.468009 5.29134 0
M  V30 24124 C 2287.11 1.50379 5.9334 0
M  V30 24125 N 2286.24 0.883828 6.96515 0
M  V30 24126 H 2291.08 1.56324 2.53706 0
M  V30 24127 H 2288.62 0.781647 1.24614 0
M  V30 24128 H 2290.58 -0.311698 4.16034 0
M  V30 24129 H 2289.21 -0.797937 3.12782 0
M  V30 24130 H 2288.26 1.60035 3.45099 0
M  V30 24131 H 2289.57 1.89739 4.61303 0
M  V30 24132 H 2288.73 0.0437937 6.06684 0
M  V30 24133 H 2287.46 -0.349778 4.86444 0
M  V30 24134 H 2286.47 1.93793 5.14514 0
M  V30 24135 H 2287.69 2.32363 6.3811 0
M  V30 24136 H 2285.64 0.0867103 6.55943 0
M  V30 24137 H 2285.56 1.60713 7.3872 0
M  V30 24138 H 2286.83 0.48468 7.77992 0
M  V30 24139 N 2291.06 -1.33168 0.84285 0
M  V30 24140 C 2292 -2.31056 0.267536 0
M  V30 24141 C 2293 -1.58318 -0.602654 0
M  V30 24142 O 2294.2 -1.73152 -0.491773 0
M  V30 24143 H 2290.58 -0.748938 0.0677944 0
M  V30 24144 H 2292.55 -2.77083 1.10759 0
M  V30 24145 C 2291.3 -3.43493 -0.539271 0
M  V30 24146 H 2290.62 -3.99617 0.12102 0
M  V30 24147 H 2292.06 -4.14172 -0.907597 0
M  V30 24148 C 2290.52 -2.897 -1.71976 0
M  V30 24149 O 2291.05 -2.86216 -2.81857 0
M  V30 24150 N 2289.26 -2.46255 -1.54295 0
M  V30 24151 H 2288.8 -2.49288 -0.649099 0
M  V30 24152 H 2288.76 -2.10616 -2.33427 0
M  V30 24153 N 2292.53 -0.599659 -1.45746 0
M  V30 24154 C 2293.78 -0.0893865 -2.01502 0
M  V30 24155 C 2294.1 1.28485 -1.47482 0
M  V30 24156 O 2295.3 1.88741 -1.95164 0
M  V30 24157 C 2293.76 -0.109145 -3.59734 0
M  V30 24158 C 2293.37 -1.48274 -4.22751 0
M  V30 24159 C 2295.11 0.346299 -4.23085 0
M  V30 24160 C 2293.02 -1.45931 -5.73113 0
M  V30 24161 H 2291.95 -0.029648 -0.753417 0
M  V30 24162 H 2294.6 -0.753818 -1.67302 0
M  V30 24163 H 2292.98 0.621785 -3.91088 0
M  V30 24164 H 2294.15 -2.23475 -4.02983 0
M  V30 24165 H 2292.47 -1.87962 -3.71563 0
M  V30 24166 H 2295.07 0.382886 -5.33327 0
M  V30 24167 H 2295.41 1.36736 -3.93203 0
M  V30 24168 H 2295.94 -0.331107 -3.9642 0
M  V30 24169 H 2292.68 -2.45773 -6.07681 0
M  V30 24170 H 2292.2 -0.749769 -5.95095 0
M  V30 24171 H 2293.88 -1.17952 -6.36157 0
M  V30 24172 N 2294.01 1.53925 -0.338371 0
M  V30 24173 C 2294.94 2.21128 0.563719 0
M  V30 24174 C 2295.92 1.19347 1.10431 0
M  V30 24175 O 2297.11 1.48146 1.16555 0
M  V30 24176 C 2294.23 2.88464 1.775 0
M  V30 24177 C 2293.28 4.0409 1.36433 0
M  V30 24178 S 2294.11 5.34089 0.388499 0
M  V30 24179 C 2295.27 6.04926 1.60672 0
M  V30 24180 H 2295.5 2.97299 -0.00709772 0
M  V30 24181 H 2293.03 1.53914 -0.122445 0
M  V30 24182 H 2294.99 3.27879 2.46993 0
M  V30 24183 H 2293.65 2.12068 2.31702 0
M  V30 24184 H 2292.85 4.50121 2.26731 0
M  V30 24185 H 2292.45 3.66425 0.748933 0
M  V30 24186 H 2294.74 6.28004 2.54198 0
M  V30 24187 H 2295.68 6.98058 1.1883 0
M  V30 24188 H 2296.09 5.35019 1.80043 0
M  V30 24189 N 2295.49 0.0668712 1.57458 0
M  V30 24190 C 2296.72 -0.612531 1.97625 0
M  V30 24191 C 2297.13 -1.63445 0.945048 0
M  V30 24192 O 2296.49 -1.8237 -0.0688955 0
M  V30 24193 C 2296.54 -1.2855 3.37872 0
M  V30 24194 O 2296.26 -0.30448 4.37041 0
M  V30 24195 C 2297.76 -2.05318 3.92886 0
M  V30 24196 H 2294.98 -0.16637 0.650048 0
M  V30 24197 H 2297.53 0.137818 2.04035 0
M  V30 24198 H 2295.68 -1.98696 3.32564 0
M  V30 24199 H 2296.1 -0.786688 5.18567 0
M  V30 24200 H 2297.57 -2.47804 4.93252 0
M  V30 24201 H 2298.05 -2.90774 3.29161 0
M  V30 24202 H 2298.65 -1.40049 4.0158 0
M  V30 24203 N 2296.97 -1.56239 -0.206647 0
M  V30 24204 C 2298.22 -1.79139 -0.926933 0
M  V30 24205 C 2298.53 -0.638076 -1.849 0
M  V30 24206 O 2299.74 -0.751079 -2.60904 0
M  V30 24207 C 2298.19 -3.17297 -1.69854 0
M  V30 24208 C 2297.8 -4.40397 -0.821878 0
M  V30 24209 C 2299.54 -3.49514 -2.40915 0
M  V30 24210 C 2297.45 -5.69578 -1.59169 0
M  V30 24211 H 2296.38 -0.667922 -0.349852 0
M  V30 24212 H 2299.03 -1.82611 -0.180455 0
M  V30 24213 H 2297.41 -3.08043 -2.48848 0
M  V30 24214 H 2298.59 -4.60745 -0.0714209 0
M  V30 24215 H 2296.9 -4.15804 -0.222668 0
M  V30 24216 H 2299.5 -4.4326 -2.99039 0
M  V30 24217 H 2299.84 -2.72712 -3.14537 0
M  V30 24218 H 2300.38 -3.60164 -1.68899 0
M  V30 24219 H 2297.11 -6.49313 -0.898475 0
M  V30 24220 H 2296.63 -5.53267 -2.31638 0
M  V30 24221 H 2298.31 -6.10285 -2.14851 0
M  V30 24222 N 2298.45 0.473929 -1.50305 0
M  V30 24223 C 2299.67 1.24957 -1.64904 0
M  V30 24224 C 2300.09 1.85872 -0.331231 0
M  V30 24225 O 2299.45 1.69096 0.68649 0
M  V30 24226 C 2299.5 2.36033 -2.73807 0
M  V30 24227 O 2299.22 1.77617 -4.0048 0
M  V30 24228 C 2300.72 3.26958 -2.99354 0
M  V30 24229 H 2297.94 0.378013 -0.554389 0
M  V30 24230 H 2300.48 0.566019 -1.96511 0
M  V30 24231 H 2298.64 3.00169 -2.44903 0
M  V30 24232 H 2299.05 2.50742 -4.60683 0
M  V30 24233 H 2300.53 4.01115 -3.79224 0
M  V30 24234 H 2301 3.8557 -2.10314 0
M  V30 24235 H 2301.61 2.68563 -3.29779 0
M  V30 24236 N 2299.92 1.39835 0.726907 0
M  V30 24237 C 2301.15 1.4079 1.51611 0
M  V30 24238 C 2301.57 0.00454824 1.88799 0
M  V30 24239 O 2300.92 -0.968782 1.54664 0
M  V30 24240 C 2300.97 2.28826 2.79859 0
M  V30 24241 O 2300.7 3.63697 2.44247 0
M  V30 24242 C 2302.2 2.38251 3.73833 0
M  V30 24243 H 2299.42 0.480602 0.468255 0
M  V30 24244 H 2301.96 1.83749 0.897575 0
M  V30 24245 H 2300.12 1.89258 3.38024 0
M  V30 24246 H 2300.53 4.10336 3.26688 0
M  V30 24247 H 2302 3.04081 4.60693 0
M  V30 24248 H 2302.48 1.40411 4.16151 0
M  V30 24249 H 2303.09 2.78323 3.21584 0
M  V30 24250 N 2301.4 -0.957948 1.25144 0
M  V30 24251 C 2302.63 -1.74221 1.12524 0
M  V30 24252 C 2303.05 -1.85403 -0.317369 0
M  V30 24253 O 2302.41 -1.33206 -1.22988 0
M  V30 24254 C 2302.46 -3.13567 1.78068 0
M  V30 24255 O 2301.56 -3.98596 1.05807 0
M  V30 24256 H 2300.9 -0.535171 0.393049 0
M  V30 24257 H 2303.43 -1.20097 1.65644 0
M  V30 24258 H 2303.44 -3.64043 1.84219 0
M  V30 24259 H 2302.12 -3.04744 2.83026 0
M  V30 24260 H 2300.69 -3.57065 1.07512 0
M  V30 24261 N 2302.88 -1.06677 -1.16008 0
M  V30 24262 C 2303.83 -0.681006 -2.20524 0
M  V30 24263 C 2304.8 0.324255 -1.62904 0
M  V30 24264 O 2305.98 0.21226 -1.89616 0
M  V30 24265 C 2303.12 -0.0777158 -3.45012 0
M  V30 24266 C 2302.23 -1.13362 -4.16861 0
M  V30 24267 C 2301.37 -0.496063 -5.28879 0
M  V30 24268 C 2300.41 -1.53524 -5.92534 0
M  V30 24269 N 2299.55 -0.920754 -6.96036 0
M  V30 24270 H 2304.39 -1.57667 -2.52874 0
M  V30 24271 H 2301.92 -0.788245 -1.24198 0
M  V30 24272 H 2303.88 0.28963 -4.16193 0
M  V30 24273 H 2302.51 0.781338 -3.13201 0
M  V30 24274 H 2301.56 -1.61863 -3.44245 0
M  V30 24275 H 2302.87 -1.92182 -4.6029 0
M  V30 24276 H 2302.03 -0.0759671 -6.06652 0
M  V30 24277 H 2300.77 0.323976 -4.86623 0
M  V30 24278 H 2299.77 -1.96519 -5.13479 0
M  V30 24279 H 2301 -2.35744 -6.36869 0
M  V30 24280 H 2298.94 -0.121495 -6.55887 0
M  V30 24281 H 2298.86 -1.64629 -7.37857 0
M  V30 24282 H 2300.13 -0.525932 -7.77724 0
M  V30 24283 N 2304.36 1.32719 -0.8499 0
M  V30 24284 C 2305.61 1.97025 -0.450067 0
M  V30 24285 C 2305.93 1.67611 0.996574 0
M  V30 24286 O 2305.2 0.980815 1.69578 0
M  V30 24287 H 2303.78 0.728901 -0.163439 0
M  V30 24288 H 2306.44 1.61888 -1.08528 0
M  V30 24289 H 2305.53 3.06449 -0.5912 0
M  V30 24290 N 2305.84 0.60738 1.45426 0
M  V30 24291 C 2306.75 -0.113422 2.34326 0
M  V30 24292 C 2307.76 -0.860591 1.51228 0
M  V30 24293 O 2308.94 -0.818223 1.8403 0
M  V30 24294 C 2306 -1.09838 3.28841 0
M  V30 24295 C 2305.06 -0.353196 4.27845 0
M  V30 24296 C 2304.3 -1.29124 5.17844 0
M  V30 24297 O 2304.52 -2.52904 5.11269 0
M  V30 24298 O 2303.45 -0.788418 5.96714 0
M  V30 24299 H 2307.28 0.617146 2.97363 0
M  V30 24300 H 2304.87 0.367644 1.44806 0
M  V30 24301 H 2306.75 -1.66568 3.87083 0
M  V30 24302 H 2305.42 -1.80998 2.68368 0
M  V30 24303 H 2304.33 0.25656 3.73219 0
M  V30 24304 H 2305.66 0.317909 4.91172 0
M  V30 24305 N 2307.31 -1.53743 0.34653 0
M  V30 24306 C 2308.56 -2.00962 -0.249069 0
M  V30 24307 C 2308.89 -1.23429 -1.50318 0
M  V30 24308 O 2308.14 -0.310795 -1.93216 0
M  V30 24309 C 2308.44 -3.52229 -0.605747 0
M  V30 24310 C 2308.11 -4.47511 0.551825 0
M  V30 24311 C 2306.77 -4.73279 0.869493 0
M  V30 24312 C 2309.12 -5.03991 1.32827 0
M  V30 24313 C 2306.45 -5.52783 1.96592 0
M  V30 24314 C 2308.8 -5.8469 2.41496 0
M  V30 24315 C 2307.47 -6.08752 2.73819 0
M  V30 24316 H 2306.74 -0.735374 -0.0911408 0
M  V30 24317 H 2309.38 -1.85514 0.47506 0
M  V30 24318 H 2307.69 -3.65525 -1.41063 0
M  V30 24319 H 2309.39 -3.86224 -1.07852 0
M  V30 24320 H 2305.98 -4.27589 0.294177 0
M  V30 24321 H 2310.16 -4.84045 1.0961 0
M  V30 24322 H 2305.42 -5.6965 2.22055 0
M  V30 24323 H 2309.59 -6.27467 3.02089 0
M  V30 24324 H 2307.22 -6.70144 3.58903 0
M  V30 24325 N 2308.79 -0.0752207 -1.5742 0
M  V30 24326 C 2310.02 0.602042 -1.97947 0
M  V30 24327 C 2310.44 1.62942 -0.953703 0
M  V30 24328 O 2309.79 1.82404 0.059223 0
M  V30 24329 C 2309.84 1.26756 -3.38549 0
M  V30 24330 O 2309.56 0.281299 -4.37196 0
M  V30 24331 C 2311.07 2.03232 -3.93969 0
M  V30 24332 H 2308.29 0.16292 -0.650921 0
M  V30 24333 H 2310.83 -0.148636 -2.03959 0
M  V30 24334 H 2308.98 1.9693 -3.33613 0
M  V30 24335 H 2309.4 0.759176 -5.18977 0
M  V30 24336 H 2310.87 2.45184 -4.94559 0
M  V30 24337 H 2311.35 2.89024 -3.30699 0
M  V30 24338 H 2311.96 1.37917 -4.02317 0
M  V30 24339 N 2310.27 1.56347 0.198358 0
M  V30 24340 C 2311.52 1.80076 0.917439 0
M  V30 24341 C 2311.84 0.647725 1.83928 0
M  V30 24342 O 2311.11 -0.334132 1.93029 0
M  V30 24343 H 2309.69 0.664234 0.341762 0
M  V30 24344 H 2312.35 1.93823 0.20465 0
M  V30 24345 H 2311.45 2.73112 1.5105 0
M  V30 24346 N 2311.75 -0.465951 1.50554 0
M  V30 24347 C 2312.68 -1.57125 1.72725 0
M  V30 24348 C 2313.66 -1.60039 0.576322 0
M  V30 24349 O 2314.84 -1.76224 0.816011 0
M  V30 24350 C 2311.97 -2.95416 1.82611 0
M  V30 24351 C 2310.93 -3.07368 2.9784 0
M  V30 24352 C 2310.25 -4.47357 2.92875 0
M  V30 24353 C 2311.55 -2.84106 4.3827 0
M  V30 24354 H 2313.25 -1.38825 2.6527 0
M  V30 24355 H 2310.79 -0.666418 1.27651 0
M  V30 24356 H 2312.75 -3.72673 1.96705 0
M  V30 24357 H 2311.47 -3.14884 0.866914 0
M  V30 24358 H 2310.13 -2.32545 2.83405 0
M  V30 24359 H 2309.78 -4.63752 1.94791 0
M  V30 24360 H 2309.48 -4.56289 3.70235 0
M  V30 24361 H 2311 -5.26627 3.09024 0
M  V30 24362 H 2312.42 -3.5111 4.53205 0
M  V30 24363 H 2310.81 -3.04478 5.1712 0
M  V30 24364 H 2311.88 -1.79923 4.50284 0
M  V30 24365 N 2313.23 -1.40218 -0.719481 0
M  V30 24366 C 2314.47 -1.38012 -1.47638 0
M  V30 24367 C 2314.8 0.0181108 -1.94992 0
M  V30 24368 O 2314.07 0.972177 -1.70075 0
M  V30 24369 H 2312.65 -0.507932 -0.547735 0
M  V30 24370 H 2315.31 -1.75235 -0.853156 0
M  V30 24371 H 2314.4 -2.05257 -2.35109 0
M  V30 24372 N 2314.7 0.951297 -1.25651 0
M  V30 24373 C 2315.95 1.69071 -1.09991 0
M  V30 24374 C 2316.27 1.9229 0.358322 0
M  V30 24375 O 2317.47 2.6396 0.63542 0
M  V30 24376 C 2315.93 3.04397 -1.92017 0
M  V30 24377 C 2315.54 2.88962 -3.42353 0
M  V30 24378 C 2317.28 3.82098 -1.84937 0
M  V30 24379 C 2315.19 4.19698 -4.16662 0
M  V30 24380 H 2314.12 0.634073 -0.408005 0
M  V30 24381 H 2316.77 1.05876 -1.49875 0
M  V30 24382 H 2315.15 3.68515 -1.44959 0
M  V30 24383 H 2316.32 2.33755 -3.97108 0
M  V30 24384 H 2314.64 2.24712 -3.50561 0
M  V30 24385 H 2317.24 4.78937 -2.37747 0
M  V30 24386 H 2317.58 4.08185 -0.817954 0
M  V30 24387 H 2318.11 3.24736 -2.29764 0
M  V30 24388 H 2314.85 3.98798 -5.20231 0
M  V30 24389 H 2314.37 4.74657 -3.66689 0
M  V30 24390 H 2316.05 4.88219 -4.2456 0
M  V30 24391 N 2316.18 1.07291 1.1544 0
M  V30 24392 C 2317.13 0.662505 2.18162 0
M  V30 24393 C 2318.12 -0.312047 1.57845 0
M  V30 24394 O 2319.31 -0.125873 1.76552 0
M  V30 24395 C 2316.44 0.0611898 3.43245 0
M  V30 24396 C 2315.52 1.06084 4.10618 0
M  V30 24397 N 2315.91 2.24016 4.53487 0
M  V30 24398 C 2314.21 0.894041 4.36947 0
M  V30 24399 C 2314.91 2.87431 5.05726 0
M  V30 24400 N 2313.89 2.151 4.99232 0
M  V30 24401 H 2317.69 1.56072 2.49036 0
M  V30 24402 H 2315.21 0.946012 1.32001 0
M  V30 24403 H 2317.2 -0.250718 4.16145 0
M  V30 24404 H 2315.86 -0.832152 3.13856 0
M  V30 24405 H 2316.87 2.61737 4.46894 0
M  V30 24406 H 2313.55 0.0535427 4.17466 0
M  V30 24407 H 2314.94 3.87562 5.48858 0
M  V30 24408 N 2317.66 -1.32267 0.856927 0
M  V30 24409 C 2318.94 -1.91821 0.382617 0
M  V30 24410 C 2319.32 -1.78053 -1.13404 0
M  V30 24411 O 2318.67 -1.18004 -1.95671 0
M  V30 24412 C 2318.88 -3.38503 0.849505 0
M  V30 24413 C 2320.22 -4.15633 0.868009 0
M  V30 24414 O 2321.25 -3.47231 0.794293 0
M  V30 24415 O 2320.11 -5.3778 0.972381 0
M  V30 24416 H 2317.2 -0.819377 0.112028 0
M  V30 24417 H 2319.75 -1.41022 0.943977 0
M  V30 24418 H 2318.52 -3.42478 1.89273 0
M  V30 24419 H 2318.14 -3.96711 0.265722 0
M  V30 24420 N 2319.14 -0.615084 -1.45102 0
M  V30 24421 C 2320.55 -0.27935 -1.57136 0
M  V30 24422 C 2320.75 1.21795 -1.60525 0
M  V30 24423 O 2319.81 2.00132 -1.5396 0
M  V30 24424 C 2321.12 -0.957134 -2.8506 0
M  V30 24425 C 2322.67 -0.933758 -2.98747 0
M  V30 24426 C 2323.15 -1.5917 -4.29452 0
M  V30 24427 N 2324.64 -1.55753 -4.36228 0
M  V30 24428 C 2325.37 -2.0357 -5.36048 0
M  V30 24429 N 2324.87 -2.59505 -6.42362 0
M  V30 24430 N 2326.66 -1.94293 -5.27453 0
M  V30 24431 H 2318.81 -1.58719 -1.41145 0
M  V30 24432 H 2321.08 -0.665318 -0.67532 0
M  V30 24433 H 2320.78 -2.01171 -2.88484 0
M  V30 24434 H 2320.66 -0.485006 -3.74069 0
M  V30 24435 H 2323.04 0.112295 -2.94886 0
M  V30 24436 H 2323.12 -1.44422 -2.1113 0
M  V30 24437 H 2322.77 -2.63712 -4.34072 0
M  V30 24438 H 2322.7 -1.05619 -5.15899 0
M  V30 24439 H 2325.19 -1.14899 -3.60009 0
M  V30 24440 H 2325.5 -2.93765 -7.14788 0
M  V30 24441 H 2323.85 -2.63548 -6.43092 0
M  V30 24442 H 2327.04 -1.50328 -4.43305 0
M  V30 24443 H 2327.21 -2.31871 -6.05095 0
M  V30 24444 N 2320.62 1.53557 -0.354678 0
M  V30 24445 C 2321.86 2.0139 0.238761 0
M  V30 24446 C 2322.2 1.24182 1.49306 0
M  V30 24447 O 2321.47 0.332491 1.91637 0
M  V30 24448 C 2321.75 3.56002 0.541709 0
M  V30 24449 C 2321.61 4.43911 -0.725466 0
M  V30 24450 C 2322.93 4.18987 1.34678 0
M  V30 24451 H 2320.05 0.732047 0.0853048 0
M  V30 24452 H 2322.69 1.83904 -0.477416 0
M  V30 24453 H 2320.84 3.71033 1.15183 0
M  V30 24454 H 2322.51 4.40698 -1.36321 0
M  V30 24455 H 2320.75 4.12322 -1.34808 0
M  V30 24456 H 2321.42 5.50007 -0.468602 0
M  V30 24457 H 2323.9 4.07722 0.830765 0
M  V30 24458 H 2322.78 5.27218 1.5275 0
M  V30 24459 H 2323.04 3.74335 2.35214 0
M  V30 24460 N 2322.1 0.083568 1.57378 0
M  V30 24461 C 2323.34 -0.586346 1.95809 0
M  V30 24462 C 2323.7 -1.66061 0.963735 0
M  V30 24463 O 2324.9 -2.38691 1.23613 0
M  V30 24464 C 2323.17 -1.13765 3.3881 0
M  V30 24465 S 2324.73 -1.82105 3.99228 0
M  V30 24466 H 2321.55 -0.191667 0.684679 0
M  V30 24467 H 2324.15 0.160228 1.94842 0
M  V30 24468 H 2322.85 -0.344125 4.08955 0
M  V30 24469 H 2322.39 -1.92032 3.43347 0
M  V30 24470 H 2324.4 -3.10442 3.87092 0
M  V30 24471 N 2323.57 -1.5645 -0.190064 0
M  V30 24472 C 2324.82 -1.81186 -0.911021 0
M  V30 24473 C 2325.15 -0.658428 -1.82697 0
M  V30 24474 O 2324.43 0.340741 -1.91492 0
M  V30 24475 C 2324.71 -3.16208 -1.72291 0
M  V30 24476 C 2324.56 -4.42051 -0.831341 0
M  V30 24477 C 2325.88 -3.47974 -2.69448 0
M  V30 24478 H 2323 -0.659112 -0.329758 0
M  V30 24479 H 2325.64 -1.89163 -0.178135 0
M  V30 24480 H 2323.79 -3.09539 -2.34773 0
M  V30 24481 H 2325.47 -4.60771 -0.220848 0
M  V30 24482 H 2323.71 -4.33579 -0.13833 0
M  V30 24483 H 2324.38 -5.33034 -1.43451 0
M  V30 24484 H 2326.86 -3.54976 -2.17097 0
M  V30 24485 H 2325.73 -4.43561 -3.23334 0
M  V30 24486 H 2325.99 -2.71723 -3.48739 0
M  V30 24487 N 2325.05 0.45796 -1.50799 0
M  V30 24488 C 2326.3 1.2059 -1.61682 0
M  V30 24489 C 2326.61 1.92815 -0.328914 0
M  V30 24490 O 2327.82 2.69645 -0.316821 0
M  V30 24491 C 2326.28 2.1919 -2.85454 0
M  V30 24492 C 2325.88 1.52708 -4.2117 0
M  V30 24493 C 2327.63 2.94544 -3.05686 0
M  V30 24494 C 2325.53 2.49671 -5.36114 0
M  V30 24495 H 2324.46 0.453808 -0.602142 0
M  V30 24496 H 2327.12 0.475 -1.77246 0
M  V30 24497 H 2325.5 2.95627 -2.63478 0
M  V30 24498 H 2326.67 0.819696 -4.53451 0
M  V30 24499 H 2324.99 0.895851 -4.06649 0
M  V30 24500 H 2327.58 3.67139 -3.88733 0
M  V30 24501 H 2327.93 3.54697 -2.17935 0
M  V30 24502 H 2328.46 2.25218 -3.27905 0
M  V30 24503 H 2325.2 1.94238 -6.26061 0
M  V30 24504 H 2324.72 3.18523 -5.08236 0
M  V30 24505 H 2326.4 3.11231 -5.67225 0
M  V30 24506 N 2326.53 1.40598 0.712035 0
M  V30 24507 C 2327.94 1.3484 1.29132 0
M  V30 24508 C 2328.29 0.023574 1.96186 0
M  V30 24509 O 2327.42 -0.878409 1.9777 0
M  V30 24510 C 2328.01 2.44221 2.34822 0
M  V30 24511 C 2326.57 2.41912 2.88367 0
M  V30 24512 C 2325.72 2.24916 1.62198 0
M  V30 24513 H 2328.67 1.50353 0.507917 0
M  V30 24514 H 2328.69 2.12332 3.15746 0
M  V30 24515 H 2328.2 3.40631 1.8599 0
M  V30 24516 H 2326.3 1.4921 3.41419 0
M  V30 24517 H 2326.42 3.37627 3.39919 0
M  V30 24518 H 2324.78 1.72495 1.87397 0
M  V30 24519 H 2325.56 3.23328 1.15386 0
M  V30 24520 N 2328.01 -0.94462 1.26153 0
M  V30 24521 C 2329.24 -1.72487 1.14262 0
M  V30 24522 C 2329.65 -1.86361 -0.302523 0
M  V30 24523 O 2329.01 -1.36852 -1.20739 0
M  V30 24524 C 2329.06 -3.13344 1.80272 0
M  V30 24525 O 2328.78 -3.00137 3.19138 0
M  V30 24526 C 2330.28 -4.076 1.7429 0
M  V30 24527 H 2327.5 -0.540174 0.398061 0
M  V30 24528 H 2330.04 -1.18443 1.66708 0
M  V30 24529 H 2328.2 -3.643 1.31772 0
M  V30 24530 H 2328.61 -3.89065 3.51751 0
M  V30 24531 H 2330.09 -5.04009 2.2512 0
M  V30 24532 H 2330.56 -4.33444 0.708708 0
M  V30 24533 H 2331.17 -3.62563 2.22325 0
M  V30 24534 N 2329.49 -1.07901 -1.1487 0
M  V30 24535 C 2330.44 -0.674065 -2.17808 0
M  V30 24536 C 2331.42 0.303671 -1.58008 0
M  V30 24537 O 2332.61 0.116509 -1.76616 0
M  V30 24538 C 2329.74 -0.0793921 -3.43208 0
M  V30 24539 C 2328.83 -1.08261 -4.10049 0
M  V30 24540 N 2329.22 -2.26418 -4.52293 0
M  V30 24541 C 2327.52 -0.917201 -4.36467 0
M  V30 24542 C 2328.22 -2.90109 -5.04194 0
M  V30 24543 N 2327.19 -2.17745 -4.98085 0
M  V30 24544 H 2330.99 -1.57391 -2.48204 0
M  V30 24545 H 2328.51 -0.952999 -1.31498 0
M  V30 24546 H 2330.51 0.228646 -4.16273 0
M  V30 24547 H 2329.17 0.815495 -3.14292 0
M  V30 24548 H 2330.18 -2.64104 -4.45499 0
M  V30 24549 H 2326.85 -0.0756812 -4.17431 0
M  V30 24550 H 2328.24 -3.90468 -5.46795 0
M  V30 24551 N 2330.96 1.31811 -0.863929 0
M  V30 24552 C 2331.93 2.26952 -0.320252 0
M  V30 24553 C 2332.93 1.51976 0.525342 0
M  V30 24554 O 2334.12 1.70938 0.335517 0
M  V30 24555 C 2331.25 3.36501 0.54586 0
M  V30 24556 H 2332.44 2.76554 -1.16008 0
M  V30 24557 H 2329.99 1.4264 -0.63902 0
M  V30 24558 H 2330.73 2.92182 1.40713 0
M  V30 24559 H 2330.51 3.92055 -0.0595363 0
M  V30 24560 H 2332 4.07369 0.918724 0
M  V30 24561 N 2332.44 0.62277 1.44773 0
M  V30 24562 C 2333.37 -0.125445 2.28856 0
M  V30 24563 C 2334.39 -0.817044 1.40813 0
M  V30 24564 O 2335.58 -0.679889 1.65045 0
M  V30 24565 C 2332.68 -1.19944 3.16965 0
M  V30 24566 C 2331.85 -0.591988 4.33375 0
M  V30 24567 C 2330.91 -1.55884 5.0258 0
M  V30 24568 O 2329.93 -1.07923 5.58875 0
M  V30 24569 N 2331.14 -2.89325 5.03261 0
M  V30 24570 H 2333.9 0.596119 2.93712 0
M  V30 24571 H 2331.46 0.46333 1.55129 0
M  V30 24572 H 2333.45 -1.84638 3.60126 0
M  V30 24573 H 2332.02 -1.82333 2.53916 0
M  V30 24574 H 2331.24 0.233391 3.93508 0
M  V30 24575 H 2332.53 -0.166649 5.08527 0
M  V30 24576 H 2331.93 -3.30879 4.58842 0
M  V30 24577 H 2330.49 -3.49402 5.50238 0
M  V30 24578 N 2333.92 -1.53367 0.362817 0
M  V30 24579 C 2335.33 -1.86333 -0.116989 0
M  V30 24580 C 2335.68 -1.28349 -1.48394 0
M  V30 24581 O 2334.81 -0.604464 -2.07786 0
M  V30 24582 C 2335.4 -3.38091 -0.21906 0
M  V30 24583 C 2333.96 -3.70865 -0.643118 0
M  V30 24584 C 2333.11 -2.76493 0.211367 0
M  V30 24585 H 2336.06 -1.47654 0.581713 0
M  V30 24586 H 2336.08 -3.65922 -1.04313 0
M  V30 24587 H 2335.59 -3.80264 0.775969 0
M  V30 24588 H 2333.69 -3.34248 -1.64648 0
M  V30 24589 H 2333.81 -4.77259 -0.419646 0
M  V30 24590 H 2332.17 -2.5269 -0.319323 0
M  V30 24591 H 2332.95 -3.21499 1.20388 0
M  V30 24592 N 2335.4 -0.091913 -1.57332 0
M  V30 24593 C 2336.65 0.571412 -1.93854 0
M  V30 24594 C 2336.97 1.68919 -0.974242 0
M  V30 24595 O 2336.24 1.95883 -0.0257598 0
M  V30 24596 H 2334.82 0.214069 -0.71567 0
M  V30 24597 H 2337.48 -0.154498 -1.94287 0
M  V30 24598 H 2336.58 0.983677 -2.96193 0
M  V30 24599 N 2336.88 1.56548 0.181765 0
M  V30 24600 C 2338.15 1.72253 0.926734 0
M  V30 24601 C 2338.53 0.650421 2.0083 0
M  V30 24602 O 2337.88 -0.336481 2.26009 0
M  V30 24603 C 2338.09 3.15073 1.50101 0
M  V30 24604 C 2339.44 3.75714 1.97798 0
M  V30 24605 O 2340.46 3.18285 1.59916 0
M  V30 24606 O 2339.32 4.7653 2.67547 0
M  V30 24607 H 2336.42 0.703046 0.435494 0
M  V30 24608 H 2338.96 1.68842 0.170414 0
M  V30 24609 H 2337.73 3.8458 0.722053 0
M  V30 24610 H 2337.36 3.22767 2.3218 0
M  V30 24611 N 2338.35 -0.449957 1.5104 0
M  V30 24612 C 2339.63 -1.21086 1.53615 0
M  V30 24613 C 2340.01 -2.09056 0.293034 0
M  V30 24614 O 2339.36 -2.16775 -0.722552 0
M  V30 24615 C 2339.57 -2.02365 2.84341 0
M  V30 24616 C 2340.92 -2.59837 3.35812 0
M  V30 24617 O 2341.94 -2.12588 2.85806 0
M  V30 24618 O 2340.8 -3.45982 4.23035 0
M  V30 24619 H 2337.89 -0.550597 0.617067 0
M  V30 24620 H 2340.44 -0.460054 1.63345 0
M  V30 24621 H 2339.21 -1.37674 3.66281 0
M  V30 24622 H 2338.84 -2.84537 2.77713 0
M  V30 24623 N 2339.83 -1.40974 -0.704569 0
M  V30 24624 C 2341.08 -1.40054 -1.46672 0
M  V30 24625 C 2341.41 -0.00644516 -1.94199 0
M  V30 24626 O 2340.69 0.964205 -1.68918 0
M  V30 24627 C 2340.97 -2.39957 -2.68501 0
M  V30 24628 C 2340.82 -3.88436 -2.26798 0
M  V30 24629 C 2342.14 -2.3724 -3.70682 0
M  V30 24630 H 2339.26 -0.510038 -0.532006 0
M  V30 24631 H 2341.9 -1.72187 -0.803225 0
M  V30 24632 H 2340.05 -2.12686 -3.25111 0
M  V30 24633 H 2341.72 -4.26577 -1.75585 0
M  V30 24634 H 2339.97 -4.03737 -1.58678 0
M  V30 24635 H 2340.64 -4.53871 -3.14173 0
M  V30 24636 H 2343.11 -2.6142 -3.23726 0
M  V30 24637 H 2341.99 -3.0917 -4.53547 0
M  V30 24638 H 2342.25 -1.38784 -4.19752 0
M  V30 24639 N 2341.31 0.937917 -1.26653 0
M  V30 24640 C 2342.24 2.05431 -1.10997 0
M  V30 24641 C 2343.22 1.70094 -0.014246 0
M  V30 24642 O 2344.41 1.93299 -0.186871 0
M  V30 24643 C 2341.54 3.39202 -0.745621 0
M  V30 24644 C 2340.49 3.88612 -1.79344 0
M  V30 24645 C 2339.82 5.19071 -1.28333 0
M  V30 24646 C 2341.12 4.13133 -3.1956 0
M  V30 24647 H 2342.81 2.18787 -2.04384 0
M  V30 24648 H 2340.36 1.0513 -0.98406 0
M  V30 24649 H 2342.31 4.1677 -0.622961 0
M  V30 24650 H 2341.03 3.25831 0.223953 0
M  V30 24651 H 2339.69 3.13228 -1.90483 0
M  V30 24652 H 2339.34 5.02084 -0.303503 0
M  V30 24653 H 2339.04 5.531 -1.98379 0
M  V30 24654 H 2340.56 5.99219 -1.1734 0
M  V30 24655 H 2341.98 4.81304 -3.1148 0
M  V30 24656 H 2340.38 4.5845 -3.87226 0
M  V30 24657 H 2341.45 3.18794 -3.65374 0
M  V30 24658 N 2342.79 1.08509 1.14296 0
M  V30 24659 C 2344.03 0.816614 1.85632 0
M  V30 24660 C 2344.37 -0.655989 1.82785 0
M  V30 24661 O 2343.64 -1.48231 1.25928 0
M  V30 24662 C 2343.93 1.34047 3.34221 0
M  V30 24663 C 2343.78 2.87849 3.45634 0
M  V30 24664 C 2345.1 0.966576 4.29355 0
M  V30 24665 H 2342.22 0.298116 0.674015 0
M  V30 24666 H 2344.86 1.34489 1.34211 0
M  V30 24667 H 2343.01 0.891107 3.78142 0
M  V30 24668 H 2344.68 3.41164 3.10492 0
M  V30 24669 H 2342.92 3.25456 2.86812 0
M  V30 24670 H 2343.59 3.19576 4.50083 0
M  V30 24671 H 2346.07 1.35398 3.93455 0
M  V30 24672 H 2344.95 1.3603 5.31777 0
M  V30 24673 H 2345.21 -0.126284 4.4192 0
M  V30 24674 N 2344.27 -1.31351 0.870907 0
M  V30 24675 C 2345.21 -2.30437 0.316486 0
M  V30 24676 C 2346.21 -1.5956 -0.568937 0
M  V30 24677 O 2347.41 -1.74156 -0.454934 0
M  V30 24678 H 2343.79 -0.747331 0.0836653 0
M  V30 24679 H 2345.76 -2.74671 1.16611 0
M  V30 24680 C 2344.51 -3.44559 -0.46629 0
M  V30 24681 H 2343.83 -3.9927 0.205757 0
M  V30 24682 H 2345.27 -4.16004 -0.819541 0
M  V30 24683 C 2343.73 -2.93283 -1.65792 0
M  V30 24684 O 2344.26 -2.9213 -2.75723 0
M  V30 24685 N 2342.47 -2.49472 -1.49037 0
M  V30 24686 H 2342.01 -2.50609 -0.596076 0
M  V30 24687 H 2341.97 -2.1552 -2.28907 0
M  V30 24688 N 2345.74 -0.630439 -1.44441 0
M  V30 24689 C 2346.99 -0.134386 -2.01653 0
M  V30 24690 C 2347.31 1.24794 -1.49838 0
M  V30 24691 O 2346.58 1.82901 -0.701716 0
M  V30 24692 H 2345.16 -0.04669 -0.745539 0
M  V30 24693 H 2347.83 -0.816986 -1.7695 0
M  V30 24694 H 2346.92 -0.101552 -3.11935 0
M  V30 24695 N 2347.22 1.53172 -0.370945 0
M  V30 24696 C 2348.15 2.23504 0.507783 0
M  V30 24697 C 2349.17 1.25102 1.0418 0
M  V30 24698 O 2350.36 1.51292 0.947259 0
M  V30 24699 C 2347.46 2.92337 1.71442 0
M  V30 24700 C 2346.63 4.17291 1.31098 0
M  V30 24701 C 2345.69 4.69286 2.38027 0
M  V30 24702 O 2344.71 5.32833 2.00195 0
M  V30 24703 N 2345.92 4.47561 3.69689 0
M  V30 24704 H 2348.68 2.9955 -0.0946908 0
M  V30 24705 H 2346.24 1.60704 -0.196386 0
M  V30 24706 H 2348.23 3.24027 2.42463 0
M  V30 24707 H 2346.8 2.19711 2.22364 0
M  V30 24708 H 2346.02 3.91843 0.430393 0
M  V30 24709 H 2347.31 4.98516 1.01781 0
M  V30 24710 H 2346.71 3.96797 4.03198 0
M  V30 24711 H 2345.27 4.83788 4.36798 0
M  V30 24712 N 2348.7 0.100255 1.57281 0
M  V30 24713 C 2349.65 -0.85682 2.14306 0
M  V30 24714 C 2350.62 -1.27632 1.06298 0
M  V30 24715 O 2351.8 -1.35716 1.34112 0
M  V30 24716 C 2348.94 -2.10862 2.73187 0
M  V30 24717 C 2348.06 -1.73918 3.95445 0
M  V30 24718 C 2347.19 -2.93923 4.42473 0
M  V30 24719 C 2346.23 -2.5313 5.57307 0
M  V30 24720 N 2345.37 -3.65987 5.99165 0
M  V30 24721 H 2350.21 -0.363674 2.95773 0
M  V30 24722 H 2347.74 -0.167833 1.46139 0
M  V30 24723 H 2349.7 -2.84179 3.05447 0
M  V30 24724 H 2348.33 -2.57667 1.94441 0
M  V30 24725 H 2347.38 -0.905489 3.69466 0
M  V30 24726 H 2348.7 -1.39927 4.78771 0
M  V30 24727 H 2347.85 -3.75487 4.76544 0
M  V30 24728 H 2346.59 -3.31128 3.58058 0
M  V30 24729 H 2345.59 -1.69994 5.2286 0
M  V30 24730 H 2346.82 -2.17063 6.43475 0
M  V30 24731 H 2344.76 -4.029 5.17694 0
M  V30 24732 H 2344.68 -3.35857 6.773 0
M  V30 24733 H 2345.95 -4.48046 6.37868 0
M  V30 24734 N 2350.18 -1.56643 -0.17346 0
M  V30 24735 C 2351.43 -1.81065 -0.888726 0
M  V30 24736 C 2351.74 -0.677152 -1.83505 0
M  V30 24737 O 2352.95 -0.806252 -2.59252 0
M  V30 24738 C 2351.4 -3.20829 -1.63086 0
M  V30 24739 C 2351.01 -4.42041 -0.728279 0
M  V30 24740 C 2352.76 -3.54545 -2.33448 0
M  V30 24741 C 2350.66 -5.72826 -1.47052 0
M  V30 24742 H 2349.59 -0.675192 -0.335606 0
M  V30 24743 H 2352.24 -1.82952 -0.14168 0
M  V30 24744 H 2350.63 -3.13252 -2.42258 0
M  V30 24745 H 2351.8 -4.60792 0.0263259 0
M  V30 24746 H 2350.11 -4.16183 -0.134419 0
M  V30 24747 H 2352.71 -4.49503 -2.8957 0
M  V30 24748 H 2353.05 -2.79323 -3.08682 0
M  V30 24749 H 2353.59 -3.63666 -1.61221 0
M  V30 24750 H 2350.33 -6.51073 -0.760544 0
M  V30 24751 H 2349.85 -5.58055 -2.1985 0
M  V30 24752 H 2351.53 -6.14705 -2.01858 0
M  V30 24753 N 2351.66 0.44194 -1.51277 0
M  V30 24754 C 2353.07 0.778059 -1.3935 0
M  V30 24755 C 2353.27 1.95888 -0.472246 0
M  V30 24756 O 2352.33 2.52391 0.0743107 0
M  V30 24757 C 2353.64 1.06275 -2.81294 0
M  V30 24758 C 2355.19 1.16746 -2.90412 0
M  V30 24759 C 2355.67 1.48512 -4.33253 0
M  V30 24760 N 2357.16 1.55445 -4.36338 0
M  V30 24761 C 2357.89 1.81586 -5.43888 0
M  V30 24762 N 2357.39 2.05551 -6.61605 0
M  V30 24763 N 2359.18 1.8333 -5.31363 0
M  V30 24764 H 2351.33 -0.335811 -2.09729 0
M  V30 24765 H 2353.59 -0.0878193 -0.943924 0
M  V30 24766 H 2353.3 0.267843 -3.50679 0
M  V30 24767 H 2353.17 1.99157 -3.20338 0
M  V30 24768 H 2355.56 1.953 -2.21228 0
M  V30 24769 H 2355.64 0.217756 -2.54871 0
M  V30 24770 H 2355.29 0.704869 -5.02985 0
M  V30 24771 H 2355.22 2.44681 -4.66304 0
M  V30 24772 H 2357.71 1.38847 -3.51468 0
M  V30 24773 H 2358.02 2.24854 -7.39365 0
M  V30 24774 H 2356.37 2.02882 -6.64728 0
M  V30 24775 H 2359.56 1.64124 -4.38384 0
M  V30 24776 H 2359.73 2.03366 -6.15261 0
M  V30 24777 N 2353.14 1.41345 0.697083 0
M  V30 24778 C 2354.38 1.4083 1.45928 0
M  V30 24779 C 2354.71 0.0167439 1.94193 0
M  V30 24780 O 2353.99 -0.955233 1.69427 0
M  V30 24781 C 2354.27 2.41377 2.67224 0
M  V30 24782 C 2354.13 3.89634 2.24735 0
M  V30 24783 C 2355.44 2.39202 3.69419 0
M  V30 24784 H 2352.56 0.512852 0.529294 0
M  V30 24785 H 2355.21 1.7261 0.794082 0
M  V30 24786 H 2353.36 2.14407 3.23978 0
M  V30 24787 H 2355.03 4.27502 1.7332 0
M  V30 24788 H 2353.27 4.04573 1.56535 0
M  V30 24789 H 2353.94 4.55531 3.11762 0
M  V30 24790 H 2356.42 2.63133 3.22335 0
M  V30 24791 H 2355.29 3.11571 4.51901 0
M  V30 24792 H 2355.55 1.41008 4.1901 0
M  V30 24793 N 2354.61 -0.931187 1.27148 0
M  V30 24794 C 2355.56 -2.03132 1.09572 0
M  V30 24795 C 2356.53 -1.661 -0.00219513 0
M  V30 24796 O 2357.72 -1.90132 0.159472 0
M  V30 24797 C 2354.86 -3.36956 0.74529 0
M  V30 24798 C 2353.97 -3.86964 1.92048 0
M  V30 24799 C 2353.1 -5.09219 1.51225 0
M  V30 24800 C 2352.14 -5.51515 2.65514 0
M  V30 24801 N 2351.28 -6.64968 2.25303 0
M  V30 24802 H 2356.12 -2.17498 2.03712 0
M  V30 24803 H 2353.66 -1.06555 1.01413 0
M  V30 24804 H 2355.61 -4.13909 0.522951 0
M  V30 24805 H 2354.24 -3.22407 -0.159145 0
M  V30 24806 H 2353.3 -3.06322 2.25546 0
M  V30 24807 H 2354.61 -4.14285 2.77794 0
M  V30 24808 H 2353.76 -5.93663 1.25095 0
M  V30 24809 H 2352.5 -4.83668 0.625834 0
M  V30 24810 H 2351.51 -4.65623 2.92362 0
M  V30 24811 H 2352.73 -5.79064 3.54771 0
M  V30 24812 H 2350.68 -6.41081 1.39109 0
M  V30 24813 H 2350.59 -6.91926 3.04589 0
M  V30 24814 H 2351.86 -7.52762 2.02411 0
M  V30 24815 N 2356.09 -1.09114 -1.13719 0
M  V30 24816 C 2357.37 -0.737737 -1.81154 0
M  V30 24817 C 2357.75 0.777649 -1.96255 0
M  V30 24818 O 2357.1 1.69886 -1.5281 0
M  V30 24819 C 2357.31 -1.47305 -3.16389 0
M  V30 24820 C 2358.65 -1.63677 -3.91784 0
M  V30 24821 O 2359.68 -1.4353 -3.26003 0
M  V30 24822 O 2358.54 -1.96978 -5.09767 0
M  V30 24823 H 2355.63 -0.264644 -0.783513 0
M  V30 24824 H 2358.18 -1.19315 -1.20674 0
M  V30 24825 H 2356.95 -2.50503 -3.00606 0
M  V30 24826 H 2356.57 -1.0096 -3.84568 0
M  V30 24827 N 2357.57 1.30887 -0.877861 0
M  V30 24828 C 2358.52 2.28318 -0.337578 0
M  V30 24829 C 2359.49 1.56075 0.568319 0
M  V30 24830 O 2360.67 1.84179 0.498266 0
M  V30 24831 C 2357.81 3.42179 0.448082 0
M  V30 24832 C 2356.92 4.29255 -0.486225 0
M  V30 24833 C 2356.06 5.30269 0.314334 0
M  V30 24834 C 2355.1 6.08994 -0.615898 0
M  V30 24835 N 2354.24 7.01942 0.148897 0
M  V30 24836 H 2359.08 2.73917 -1.1736 0
M  V30 24837 H 2356.61 1.34744 -0.590117 0
M  V30 24838 H 2358.57 4.06942 0.919445 0
M  V30 24839 H 2357.2 2.97668 1.24874 0
M  V30 24840 H 2356.25 3.64863 -1.07606 0
M  V30 24841 H 2357.56 4.84171 -1.19918 0
M  V30 24842 H 2356.72 6.00746 0.847863 0
M  V30 24843 H 2355.46 4.76029 1.06054 0
M  V30 24844 H 2354.46 5.37399 -1.16112 0
M  V30 24845 H 2355.69 6.6532 -1.36108 0
M  V30 24846 H 2353.63 6.50101 0.87777 0
M  V30 24847 H 2353.55 7.54314 -0.504565 0
M  V30 24848 H 2354.82 7.76672 0.6634 0
M  V30 24849 N 2359.05 0.638091 1.44105 0
M  V30 24850 C 2360.28 0.15243 2.06037 0
M  V30 24851 C 2360.69 -1.18105 1.4781 0
M  V30 24852 O 2360.03 -1.7369 0.598123 0
M  V30 24853 C 2360.09 -0.0293082 3.59488 0
M  V30 24854 C 2359.75 1.2271 4.40217 0
M  V30 24855 C 2360.75 2.1524 4.73252 0
M  V30 24856 C 2358.44 1.46446 4.80478 0
M  V30 24857 C 2360.43 3.29811 5.45439 0
M  V30 24858 C 2358.12 2.61313 5.52412 0
M  V30 24859 C 2359.12 3.52822 5.84813 0
M  V30 24860 O 2358.8 4.65685 6.55281 0
M  V30 24861 H 2358.54 0.0801518 0.671231 0
M  V30 24862 H 2361.09 0.874596 1.85849 0
M  V30 24863 H 2359.32 -0.806692 3.78192 0
M  V30 24864 H 2361.01 -0.470404 4.03165 0
M  V30 24865 H 2361.77 1.98139 4.4268 0
M  V30 24866 H 2357.65 0.761056 4.54675 0
M  V30 24867 H 2361.2 4.01259 5.70646 0
M  V30 24868 H 2357.09 2.78354 5.824 0
M  V30 24869 H 2357.86 4.64756 6.73754 0
M  V30 24870 N 2360.53 -1.52973 0.379063 0
M  V30 24871 C 2361.47 -2.26149 -0.461008 0
M  V30 24872 C 2362.44 -1.2735 -1.06635 0
M  V30 24873 O 2363.63 -1.56159 -1.09631 0
M  V30 24874 C 2360.77 -3.06405 -1.58777 0
M  V30 24875 C 2359.88 -4.20117 -1.00629 0
M  V30 24876 C 2359.02 -4.87787 -2.10326 0
M  V30 24877 C 2358.05 -5.93509 -1.49713 0
M  V30 24878 N 2357.19 -6.54816 -2.53299 0
M  V30 24879 H 2362.03 -2.97518 0.169482 0
M  V30 24880 H 2359.57 -1.4679 0.0954064 0
M  V30 24881 H 2361.53 -3.51219 -2.25168 0
M  V30 24882 H 2360.16 -2.37265 -2.18872 0
M  V30 24883 H 2359.21 -3.7969 -0.232266 0
M  V30 24884 H 2360.52 -4.96048 -0.523256 0
M  V30 24885 H 2359.67 -5.35854 -2.84509 0
M  V30 24886 H 2358.41 -4.11358 -2.61985 0
M  V30 24887 H 2357.42 -5.4479 -0.740502 0
M  V30 24888 H 2358.64 -6.71865 -0.988614 0
M  V30 24889 H 2356.59 -5.81232 -3.04146 0
M  V30 24890 H 2356.51 -7.26328 -2.09721 0
M  V30 24891 H 2357.77 -7.07529 -3.27143 0
M  V30 24892 N 2362 -0.108595 -1.57225 0
M  V30 24893 C 2362.93 0.842282 -2.17779 0
M  V30 24894 C 2363.91 1.28469 -1.11489 0
M  V30 24895 O 2365.1 1.34916 -1.39683 0
M  V30 24896 C 2362.23 2.09639 -2.76891 0
M  V30 24897 C 2361.18 1.79214 -3.88673 0
M  V30 24898 C 2360.51 3.11567 -4.34546 0
M  V30 24899 C 2361.81 1.06855 -5.11253 0
M  V30 24900 H 2363.5 0.337721 -2.97489 0
M  V30 24901 H 2361.05 0.161 -1.43097 0
M  V30 24902 H 2363 2.76608 -3.17909 0
M  V30 24903 H 2361.73 2.62401 -1.94456 0
M  V30 24904 H 2360.39 1.14638 -3.48215 0
M  V30 24905 H 2360.03 3.62243 -3.48983 0
M  V30 24906 H 2359.73 2.91987 -5.09919 0
M  V30 24907 H 2361.26 3.79672 -4.78207 0
M  V30 24908 H 2362.67 1.63958 -5.49355 0
M  V30 24909 H 2361.07 0.974074 -5.92142 0
M  V30 24910 H 2362.14 0.0535316 -4.8487 0
M  V30 24911 N 2363.48 1.56732 0.16515 0
M  V30 24912 C 2364.73 1.82612 0.88208 0
M  V30 24913 C 2365.06 0.68741 1.81627 0
M  V30 24914 O 2364.34 -0.310234 1.9201 0
M  V30 24915 C 2364.62 3.18909 1.67239 0
M  V30 24916 C 2364.47 4.43317 0.76091 0
M  V30 24917 C 2365.79 3.52217 2.63878 0
M  V30 24918 H 2362.91 0.664275 0.319231 0
M  V30 24919 H 2365.55 1.89423 0.148019 0
M  V30 24920 H 2363.7 3.13234 2.29818 0
M  V30 24921 H 2365.37 4.61064 0.147515 0
M  V30 24922 H 2363.62 4.33745 0.069334 0
M  V30 24923 H 2364.29 5.35249 1.34953 0
M  V30 24924 H 2366.76 3.58385 2.11423 0
M  V30 24925 H 2365.64 4.48649 3.16237 0
M  V30 24926 H 2365.9 2.77237 3.44372 0
M  V30 24927 N 2364.96 -0.433911 1.51509 0
M  V30 24928 C 2366.24 -1.1945 1.5489 0
M  V30 24929 C 2366.62 -2.08734 0.315191 0
M  V30 24930 O 2365.97 -2.17529 -0.69952 0
M  V30 24931 C 2366.18 -1.99337 2.86471 0
M  V30 24932 C 2367.52 -2.56261 3.38549 0
M  V30 24933 O 2368.55 -2.09544 2.88044 0
M  V30 24934 O 2367.41 -3.41475 4.26681 0
M  V30 24935 H 2364.5 -0.544021 0.622872 0
M  V30 24936 H 2367.05 -0.442703 1.63824 0
M  V30 24937 H 2365.82 -1.33782 3.6772 0
M  V30 24938 H 2365.44 -2.81575 2.80715 0
M  V30 24939 N 2366.44 -1.41713 -0.689577 0
M  V30 24940 C 2367.85 -1.36877 -1.26971 0
M  V30 24941 C 2368.2 -0.0547825 -1.96124 0
M  V30 24942 O 2367.33 0.846835 -1.99142 0
M  V30 24943 C 2367.92 -2.47926 -2.30907 0
M  V30 24944 C 2366.48 -2.46469 -2.84482 0
M  V30 24945 C 2365.63 -2.27468 -1.58599 0
M  V30 24946 H 2368.58 -1.51142 -0.483933 0
M  V30 24947 H 2368.6 -2.17329 -3.12328 0
M  V30 24948 H 2368.11 -3.43546 -1.80548 0
M  V30 24949 H 2366.21 -1.54623 -3.39002 0
M  V30 24950 H 2366.32 -3.42992 -3.34504 0
M  V30 24951 H 2364.69 -1.75455 -1.84629 0
M  V30 24952 H 2365.47 -3.25123 -1.10227 0
M  V30 24953 N 2367.92 0.924431 -1.2764 0
M  V30 24954 C 2368.83 2.05883 -1.12469 0
M  V30 24955 C 2369.84 1.73916 -0.0538995 0
M  V30 24956 O 2371.02 1.99701 -0.261047 0
M  V30 24957 C 2368.08 3.37885 -0.776827 0
M  V30 24958 C 2367.14 3.83528 -1.92885 0
M  V30 24959 C 2366.38 5.09231 -1.59748 0
M  V30 24960 O 2366.6 5.68143 -0.506882 0
M  V30 24961 O 2365.53 5.50327 -2.43771 0
M  V30 24962 H 2369.36 2.21596 -2.07675 0
M  V30 24963 H 2366.95 1.04411 -1.06858 0
M  V30 24964 H 2368.83 4.1716 -0.596303 0
M  V30 24965 H 2367.5 3.23372 0.145675 0
M  V30 24966 H 2366.41 3.05127 -2.16445 0
M  V30 24967 H 2367.74 4.02588 -2.83167 0
M  V30 24968 N 2369.39 1.09715 1.13139 0
M  V30 24969 C 2370.34 0.733973 2.20716 0
M  V30 24970 C 2371.34 -0.266476 1.67291 0
M  V30 24971 O 2372.54 -0.127624 1.79547 0
M  V30 24972 H 2368.92 0.219383 0.719288 0
M  V30 24973 H 2370.89 1.65034 2.48609 0
M  V30 24974 C 2369.64 0.17391 3.47265 0
M  V30 24975 H 2368.96 0.934942 3.88714 0
M  V30 24976 H 2370.4 -0.0422381 4.23979 0
M  V30 24977 C 2368.86 -1.09158 3.18726 0
M  V30 24978 O 2369.39 -2.17433 3.37766 0
M  V30 24979 N 2367.6 -1.00727 2.72585 0
M  V30 24980 H 2367.14 -0.126076 2.57291 0
M  V30 24981 H 2367.1 -1.85471 2.53866 0
M  V30 24982 N 2370.87 -1.30419 0.88479 0
M  V30 24983 C 2372.12 -1.95425 0.499198 0
M  V30 24984 C 2372.43 -1.70622 -0.95642 0
M  V30 24985 O 2373.64 -2.2961 -1.44885 0
M  V30 24986 C 2372.1 -3.49916 0.841832 0
M  V30 24987 C 2371.7 -3.83539 2.31521 0
M  V30 24988 C 2373.45 -4.21236 0.52543 0
M  V30 24989 C 2371.36 -5.31207 2.59948 0
M  V30 24990 H 2370.29 -0.731466 0.182956 0
M  V30 24991 H 2372.94 -1.48371 1.07974 0
M  V30 24992 H 2371.32 -3.95542 0.19038 0
M  V30 24993 H 2372.49 -3.48823 3.01096 0
M  V30 24994 H 2370.81 -3.25322 2.59913 0
M  V30 24995 H 2373.4 -5.299 0.714856 0
M  V30 24996 H 2373.75 -4.12846 -0.535149 0
M  V30 24997 H 2374.28 -3.81292 1.13407 0
M  V30 24998 H 2371.02 -5.44647 3.64746 0
M  V30 24999 H 2370.54 -5.67223 1.94982 0
M  V30 25000 H 2372.22 -5.98639 2.4544 0
M  V30 25001 N 2372.35 -0.645724 -1.43764 0
M  V30 25002 C 2373.3 0.062444 -2.32516 0
M  V30 25003 C 2374.29 0.820829 -1.48185 0
M  V30 25004 O 2375.5 0.732077 -1.6444 0
M  V30 25005 H 2371.87 0.0389732 -0.750989 0
M  V30 25006 H 2373.84 -0.703943 -2.89978 0
M  V30 25007 C 2372.59 1.02038 -3.32391 0
M  V30 25008 H 2371.92 0.446242 -3.97302 0
M  V30 25009 H 2373.36 1.4851 -3.97141 0
M  V30 25010 C 2371.82 2.11276 -2.62419 0
M  V30 25011 O 2372.35 3.19556 -2.43406 0
M  V30 25012 N 2370.55 1.8762 -2.21917 0
M  V30 25013 H 2370.1 0.995661 -2.3758 0
M  V30 25014 H 2370.06 2.60907 -1.75428 0
M  V30 25015 N 2373.83 1.5277 -0.38717 0
M  V30 25016 C 2374.76 2.29307 0.440511 0
M  V30 25017 C 2375.74 1.32607 1.06533 0
M  V30 25018 O 2376.92 1.61499 1.0785 0
M  V30 25019 C 2374.05 3.09831 1.56914 0
M  V30 25020 C 2373.01 4.14397 1.07047 0
M  V30 25021 C 2372.33 4.83133 2.291 0
M  V30 25022 C 2373.63 5.22113 0.139923 0
M  V30 25023 H 2375.33 2.98744 -0.198079 0
M  V30 25024 H 2372.87 1.43675 -0.0967052 0
M  V30 25025 H 2374.83 3.62131 2.15497 0
M  V30 25026 H 2373.55 2.38123 2.23528 0
M  V30 25027 H 2372.21 3.63075 0.507183 0
M  V30 25028 H 2371.86 4.07975 2.94219 0
M  V30 25029 H 2371.56 5.53807 1.96396 0
M  V30 25030 H 2373.08 5.38236 2.8833 0
M  V30 25031 H 2374.5 5.69785 0.633878 0
M  V30 25032 H 2372.89 6.00021 -0.097254 0
M  V30 25033 H 2373.96 4.78056 -0.811795 0
M  V30 25034 N 2375.31 0.116931 1.57166 0
M  V30 25035 C 2376.22 -0.847774 2.18746 0
M  V30 25036 C 2377.23 -1.29421 1.16302 0
M  V30 25037 O 2378.41 -1.35762 1.48763 0
M  V30 25038 C 2375.47 -2.08085 2.77311 0
M  V30 25039 C 2374.53 -1.68654 3.94784 0
M  V30 25040 C 2373.77 -2.86083 4.50546 0
M  V30 25041 O 2373.99 -4.01449 4.05209 0
M  V30 25042 O 2372.92 -2.63288 5.41261 0
M  V30 25043 H 2376.75 -0.353725 3.01633 0
M  V30 25044 H 2374.34 -0.108573 1.49005 0
M  V30 25045 H 2376.22 -2.80307 3.14652 0
M  V30 25046 H 2374.89 -2.56501 1.97457 0
M  V30 25047 H 2373.8 -0.935454 3.62215 0
M  V30 25048 H 2375.13 -1.24982 4.76068 0
M  V30 25049 N 2376.78 -1.56818 -0.156836 0
M  V30 25050 C 2377.71 -2.00553 -1.19586 0
M  V30 25051 C 2378.7 -0.883452 -1.45359 0
M  V30 25052 O 2379.88 -1.15057 -1.56447 0
M  V30 25053 C 2377.01 -2.37777 -2.53139 0
M  V30 25054 C 2375.96 -3.53079 -2.41907 0
M  V30 25055 C 2375.29 -3.76088 -3.80082 0
M  V30 25056 C 2376.59 -4.86065 -1.91149 0
M  V30 25057 H 2378.28 -2.87601 -0.832243 0
M  V30 25058 H 2375.83 -1.38365 -0.398894 0
M  V30 25059 H 2377.78 -2.66972 -3.26042 0
M  V30 25060 H 2376.51 -1.47655 -2.91317 0
M  V30 25061 H 2375.17 -3.24034 -1.71457 0
M  V30 25062 H 2374.81 -2.83233 -4.15678 0
M  V30 25063 H 2374.51 -4.53677 -3.73431 0
M  V30 25064 H 2376.04 -4.07698 -4.54549 0
M  V30 25065 H 2377.45 -5.14042 -2.53837 0
M  V30 25066 H 2375.85 -5.67392 -1.95412 0
M  V30 25067 H 2376.92 -4.77094 -0.866589 0
M  V30 25068 N 2378.26 0.425871 -1.51737 0
M  V30 25069 C 2379.49 1.19647 -1.68796 0
M  V30 25070 C 2379.91 1.84724 -0.390197 0
M  V30 25071 O 2379.26 1.71195 0.632346 0
M  V30 25072 C 2379.31 2.27203 -2.81178 0
M  V30 25073 O 2379.03 1.64786 -4.05928 0
M  V30 25074 C 2380.54 3.17269 -3.09605 0
M  V30 25075 H 2377.76 0.360184 -0.566135 0
M  V30 25076 H 2380.3 0.503214 -1.98212 0
M  V30 25077 H 2378.45 2.92225 -2.54329 0
M  V30 25078 H 2378.87 2.35959 -4.68427 0
M  V30 25079 H 2380.34 3.88847 -3.91793 0
M  V30 25080 H 2380.82 3.78684 -2.22474 0
M  V30 25081 H 2381.43 2.57935 -3.38156 0
M  V30 25082 N 2379.74 1.42077 0.682052 0
M  V30 25083 C 2380.99 1.42369 1.44426 0
M  V30 25084 C 2381.32 0.0373397 1.94164 0
M  V30 25085 O 2380.59 -0.93721 1.70431 0
M  V30 25086 C 2380.88 2.44198 2.64649 0
M  V30 25087 C 2380.73 3.91995 2.20589 0
M  V30 25088 C 2382.05 2.43107 3.66861 0
M  V30 25089 H 2379.17 0.518437 0.523825 0
M  V30 25090 H 2381.81 1.73443 0.77573 0
M  V30 25091 H 2379.96 2.17831 3.21686 0
M  V30 25092 H 2381.63 4.29316 1.68776 0
M  V30 25093 H 2379.88 4.06211 1.52235 0
M  V30 25094 H 2380.55 4.58812 3.06913 0
M  V30 25095 H 2383.02 2.66537 3.19526 0
M  V30 25096 H 2381.9 3.16347 4.48571 0
M  V30 25097 H 2382.16 1.45444 4.17491 0
M  V30 25098 N 2381.22 -0.917649 1.28129 0
M  V30 25099 C 2382.15 -2.03639 1.14251 0
M  V30 25100 C 2383.13 -1.7005 0.0413047 0
M  V30 25101 O 2384.32 -1.92977 0.217599 0
M  V30 25102 C 2381.45 -3.37973 0.799491 0
M  V30 25103 C 2380.4 -3.8571 1.85504 0
M  V30 25104 C 2379.73 -5.16964 1.36575 0
M  V30 25105 C 2381.03 -4.07997 3.26092 0
M  V30 25106 H 2382.72 -2.15508 2.07839 0
M  V30 25107 H 2380.27 -1.03551 1.00066 0
M  V30 25108 H 2382.22 -4.15726 0.689187 0
M  V30 25109 H 2380.94 -3.26146 -0.172088 0
M  V30 25110 H 2379.6 -3.10158 1.95442 0
M  V30 25111 H 2379.25 -5.01537 0.383341 0
M  V30 25112 H 2378.95 -5.49874 2.07153 0
M  V30 25113 H 2380.47 -5.97277 1.26859 0
M  V30 25114 H 2381.89 -4.76287 3.19098 0
M  V30 25115 H 2380.28 -4.52231 3.9447 0
M  V30 25116 H 2381.35 -3.12941 3.70399 0
M  V30 25117 N 2382.7 -1.10314 -1.12555 0
M  V30 25118 C 2383.93 -0.866906 -1.87863 0
M  V30 25119 C 2384.34 0.582525 -1.79589 0
M  V30 25120 O 2383.7 1.40154 -1.1689 0
M  V30 25121 C 2383.75 -1.30502 -3.37122 0
M  V30 25122 O 2383.47 -2.69761 -3.45196 0
M  V30 25123 C 2384.97 -1.1025 -4.29371 0
M  V30 25124 H 2382.19 -0.311246 -0.594447 0
M  V30 25125 H 2384.73 -1.46748 -1.42426 0
M  V30 25126 H 2382.89 -0.748148 -3.80107 0
M  V30 25127 H 2383.3 -2.88465 -4.3805 0
M  V30 25128 H 2384.78 -1.45821 -5.32391 0
M  V30 25129 H 2385.25 -0.0410263 -4.39181 0
M  V30 25130 H 2385.86 -1.64578 -3.92166 0
M  V30 25131 N 2384.18 1.29948 -0.891694 0
M  V30 25132 C 2385.11 2.3039 -0.379838 0
M  V30 25133 C 2386.09 1.61271 0.540891 0
M  V30 25134 O 2387.27 1.88835 0.453319 0
M  V30 25135 C 2384.4 3.44982 0.400593 0
M  V30 25136 C 2383.36 4.25845 -0.42898 0
M  V30 25137 C 2382.68 5.32555 0.478463 0
M  V30 25138 C 2383.98 4.94724 -1.67467 0
M  V30 25139 H 2385.68 2.73452 -1.21919 0
M  V30 25140 H 2383.22 1.31461 -0.587698 0
M  V30 25141 H 2385.17 4.14317 0.769361 0
M  V30 25142 H 2383.9 3.00742 1.27365 0
M  V30 25143 H 2382.56 3.58207 -0.779974 0
M  V30 25144 H 2382.21 4.84561 1.34943 0
M  V30 25145 H 2381.91 5.87555 -0.0728465 0
M  V30 25146 H 2383.43 6.04744 0.843599 0
M  V30 25147 H 2384.84 5.5654 -1.3761 0
M  V30 25148 H 2383.24 5.5962 -2.16668 0
M  V30 25149 H 2384.31 4.20468 -2.41525 0
M  V30 25150 N 2385.65 0.653339 1.4342 0
M  V30 25151 C 2386.93 0.0966925 1.95361 0
M  V30 25152 C 2387.31 -1.38328 1.59463 0
M  V30 25153 O 2386.66 -2.10883 0.879815 0
M  V30 25154 C 2386.87 0.343049 3.4731 0
M  V30 25155 C 2388.22 0.248054 4.23875 0
M  V30 25156 O 2389.24 0.275615 3.55132 0
M  V30 25157 O 2388.1 0.171867 5.4623 0
M  V30 25158 H 2385.19 -0.00954838 0.826945 0
M  V30 25159 H 2387.74 0.726585 1.53359 0
M  V30 25160 H 2386.51 1.36912 3.66566 0
M  V30 25161 H 2386.13 -0.319905 3.96311 0
M  V30 25162 N 2387.13 -1.52563 0.395266 0
M  V30 25163 C 2388.55 -1.59535 0.0454962 0
M  V30 25164 C 2388.75 -1.40893 -1.44054 0
M  V30 25165 O 2387.8 -1.22891 -2.20576 0
M  V30 25166 C 2389.12 -2.96028 0.528015 0
M  V30 25167 C 2390.66 -3.09223 0.484788 0
M  V30 25168 C 2391.14 -4.48174 0.943591 0
M  V30 25169 N 2392.63 -4.54375 0.899845 0
M  V30 25170 C 2393.37 -5.60136 1.22619 0
M  V30 25171 N 2392.86 -6.73514 1.62331 0
M  V30 25172 N 2394.65 -5.50272 1.14706 0
M  V30 25173 H 2386.81 -1.62929 1.36264 0
M  V30 25174 H 2389.07 -0.765725 0.5589 0
M  V30 25175 H 2388.77 -3.14905 1.56612 0
M  V30 25176 H 2388.65 -3.77136 -0.0697393 0
M  V30 25177 H 2391.04 -2.90038 -0.544247 0
M  V30 25178 H 2391.12 -2.30054 1.11842 0
M  V30 25179 H 2390.76 -4.68101 1.97088 0
M  V30 25180 H 2390.69 -5.25818 0.286909 0
M  V30 25181 H 2393.18 -3.72982 0.607697 0
M  V30 25182 H 2393.49 -7.50186 1.8558 0
M  V30 25183 H 2391.84 -6.7483 1.66223 0
M  V30 25184 H 2395.03 -4.60578 0.835782 0
M  V30 25185 H 2395.2 -6.32592 1.40471 0
M  V30 25186 N 2388.61 -0.125265 -1.57101 0
M  V30 25187 C 2389.56 0.839889 -2.16907 0
M  V30 25188 C 2390.55 1.27092 -1.12 0
M  V30 25189 O 2391.76 1.24193 -1.30293 0
M  V30 25190 H 2388.13 0.288982 -0.694257 0
M  V30 25191 H 2390.1 0.311063 -2.96774 0
M  V30 25192 C 2388.85 2.07766 -2.78799 0
M  V30 25193 H 2388.18 1.75494 -3.59224 0
M  V30 25194 H 2389.62 2.73289 -3.24175 0
M  V30 25195 C 2388.07 2.87152 -1.76198 0
M  V30 25196 O 2388.6 3.82752 -1.21916 0
M  V30 25197 N 2386.81 2.51264 -1.45995 0
M  V30 25198 H 2386.36 1.73589 -1.90328 0
M  V30 25199 H 2386.32 3.04676 -0.775897 0
M  V30 25200 N 2390.09 1.56899 0.148518 0
M  V30 25201 C 2391 2.01414 1.2029 0
M  V30 25202 C 2392.01 0.929299 1.47105 0
M  V30 25203 O 2393.19 1.23866 1.58805 0
M  V30 25204 C 2390.25 2.38452 2.51678 0
M  V30 25205 C 2389.32 3.60876 2.32523 0
M  V30 25206 C 2388.55 3.96138 3.57646 0
M  V30 25207 O 2388.77 3.32081 4.63765 0
M  V30 25208 O 2387.71 4.89391 3.50399 0
M  V30 25209 H 2391.53 2.91417 0.854974 0
M  V30 25210 H 2389.12 1.45069 0.357126 0
M  V30 25211 H 2391 2.63141 3.29143 0
M  V30 25212 H 2389.67 1.51604 2.86003 0
M  V30 25213 H 2388.58 3.41376 1.53013 0
M  V30 25214 H 2389.91 4.48337 2.03113 0
M  V30 25215 N 2391.57 -0.417818 1.51961 0
M  V30 25216 C 2392.51 -1.50849 1.7468 0
M  V30 25217 C 2393.48 -1.55307 0.588974 0
M  V30 25218 O 2394.67 -1.72014 0.825575 0
M  V30 25219 C 2391.81 -2.88384 1.89549 0
M  V30 25220 C 2390.92 -2.93303 3.17171 0
M  V30 25221 C 2390.06 -4.22083 3.22521 0
M  V30 25222 C 2389.09 -4.20943 4.4438 0
M  V30 25223 N 2388.23 -5.41279 4.4717 0
M  V30 25224 H 2393.07 -1.30778 2.67771 0
M  V30 25225 H 2390.61 -0.634957 1.3269 0
M  V30 25226 H 2392.57 -3.68212 1.96152 0
M  V30 25227 H 2391.2 -3.06969 0.998478 0
M  V30 25228 H 2390.25 -2.06019 3.19782 0
M  V30 25229 H 2391.56 -2.88325 4.07026 0
M  V30 25230 H 2390.71 -5.10298 3.28148 0
M  V30 25231 H 2389.45 -4.29744 2.30589 0
M  V30 25232 H 2388.46 -3.31119 4.38908 0
M  V30 25233 H 2389.68 -4.14929 5.37597 0
M  V30 25234 H 2387.63 -5.49625 3.58117 0
M  V30 25235 H 2387.55 -5.38261 5.30859 0
M  V30 25236 H 2388.81 -6.31472 4.57016 0
M  V30 25237 N 2393.04 -1.42436 -0.674508 0
M  V30 25238 C 2394.29 -1.42922 -1.43456 0
M  V30 25239 C 2394.62 -0.0457653 -1.94446 0
M  V30 25240 O 2393.87 0.9459 -1.71322 0
M  V30 25241 C 2394.17 -2.40074 -2.64763 0
M  V30 25242 C 2393.84 -3.86447 -2.32313 0
M  V30 25243 C 2392.5 -4.26318 -2.23174 0
M  V30 25244 C 2394.85 -4.78776 -2.05968 0
M  V30 25245 C 2392.18 -5.56497 -1.85817 0
M  V30 25246 C 2394.53 -6.09298 -1.70114 0
M  V30 25247 C 2393.2 -6.48167 -1.59486 0
M  V30 25248 H 2392.47 -0.522987 -0.524943 0
M  V30 25249 H 2395.11 -1.75379 -0.769066 0
M  V30 25250 H 2393.42 -2.00945 -3.36346 0
M  V30 25251 H 2395.12 -2.37713 -3.22945 0
M  V30 25252 H 2391.71 -3.54881 -2.40328 0
M  V30 25253 H 2395.89 -4.48761 -2.11961 0
M  V30 25254 H 2391.15 -5.85473 -1.76157 0
M  V30 25255 H 2395.32 -6.80327 -1.48755 0
M  V30 25256 H 2392.95 -7.48948 -1.30309 0
M  V30 25257 N 2394.52 0.910841 -1.28614 0
M  V30 25258 C 2395.94 1.18974 -1.06383 0
M  V30 25259 C 2396.14 2.00584 0.191963 0
M  V30 25260 O 2395.19 2.36188 0.892828 0
M  V30 25261 C 2396.51 1.9215 -2.31298 0
M  V30 25262 C 2398.05 2.05021 -2.36507 0
M  V30 25263 C 2398.53 2.81606 -3.61196 0
M  V30 25264 N 2400.02 2.89166 -3.61853 0
M  V30 25265 C 2400.76 3.48932 -4.5501 0
M  V30 25266 N 2400.25 4.09953 -5.58489 0
M  V30 25267 N 2402.04 3.46499 -4.426 0
M  V30 25268 H 2394.2 0.366057 -2.09222 0
M  V30 25269 H 2396.46 0.224613 -0.921007 0
M  V30 25270 H 2396.16 1.39613 -3.22802 0
M  V30 25271 H 2396.04 2.92686 -2.37939 0
M  V30 25272 H 2398.43 2.56738 -1.45498 0
M  V30 25273 H 2398.51 1.03653 -2.33858 0
M  V30 25274 H 2398.15 2.30568 -4.52549 0
M  V30 25275 H 2398.08 3.83295 -3.61099 0
M  V30 25276 H 2400.57 2.45814 -2.87026 0
M  V30 25277 H 2400.88 4.53546 -6.25712 0
M  V30 25278 H 2399.23 4.08449 -5.62312 0
M  V30 25279 H 2402.42 2.98038 -3.60958 0
M  V30 25280 H 2402.59 3.92784 -5.15388 0
M  V30 25281 N 2396 1.10909 1.11969 0
M  V30 25282 C 2397.28 0.766464 1.79957 0
M  V30 25283 C 2397.66 -0.746328 1.97467 0
M  V30 25284 O 2397.01 -1.67434 1.55494 0
M  V30 25285 C 2397.22 1.5232 3.14006 0
M  V30 25286 C 2398.56 1.6989 3.89131 0
M  V30 25287 O 2399.59 1.48698 3.23678 0
M  V30 25288 O 2398.45 2.05063 5.06568 0
M  V30 25289 H 2395.54 0.277076 0.779203 0
M  V30 25290 H 2398.09 1.21219 1.1876 0
M  V30 25291 H 2396.86 2.55254 2.96583 0
M  V30 25292 H 2396.48 1.07065 3.82914 0
M  V30 25293 N 2397.48 -1.29474 0.898573 0
M  V30 25294 C 2398.73 -1.94884 0.519898 0
M  V30 25295 C 2399.04 -1.71627 -0.93827 0
M  V30 25296 O 2400.25 -2.31134 -1.42441 0
M  V30 25297 C 2398.7 -3.49003 0.878898 0
M  V30 25298 C 2398.31 -3.81062 2.35576 0
M  V30 25299 C 2400.05 -4.20655 0.570078 0
M  V30 25300 C 2397.96 -5.2842 2.65568 0
M  V30 25301 H 2396.89 -0.729485 0.190704 0
M  V30 25302 H 2399.54 -1.47217 1.09541 0
M  V30 25303 H 2397.92 -3.95318 0.232322 0
M  V30 25304 H 2399.1 -3.4561 3.04779 0
M  V30 25305 H 2397.41 -3.22547 2.63349 0
M  V30 25306 H 2400.01 -5.29112 0.771018 0
M  V30 25307 H 2400.35 -4.1339 -0.491331 0
M  V30 25308 H 2400.89 -3.80068 1.17444 0
M  V30 25309 H 2397.63 -5.40748 3.70502 0
M  V30 25310 H 2397.15 -5.65123 2.00987 0
M  V30 25311 H 2398.82 -5.96002 2.51775 0
M  V30 25312 N 2398.96 -0.660936 -1.43071 0
M  V30 25313 C 2400.37 -0.3292 -1.56168 0
M  V30 25314 C 2400.57 1.16626 -1.64319 0
M  V30 25315 O 2399.63 1.95132 -1.60249 0
M  V30 25316 C 2400.94 -1.04734 -2.81871 0
M  V30 25317 C 2402.49 -1.02833 -2.95625 0
M  V30 25318 C 2402.96 -1.72752 -4.24171 0
M  V30 25319 N 2404.46 -1.69553 -4.31052 0
M  V30 25320 C 2405.19 -2.20521 -5.293 0
M  V30 25321 N 2404.69 -2.7981 -6.33781 0
M  V30 25322 N 2406.48 -2.10975 -5.21005 0
M  V30 25323 H 2398.63 -1.63129 -1.36024 0
M  V30 25324 H 2400.89 -0.686466 -0.653811 0
M  V30 25325 H 2400.6 -2.10247 -2.81938 0
M  V30 25326 H 2400.47 -0.603768 -3.72337 0
M  V30 25327 H 2402.86 0.0184224 -2.95094 0
M  V30 25328 H 2402.94 -1.51066 -2.06428 0
M  V30 25329 H 2402.59 -2.77388 -4.25463 0
M  V30 25330 H 2402.52 -1.21979 -5.12278 0
M  V30 25331 H 2405.01 -1.26295 -3.56171 0
M  V30 25332 H 2405.32 -3.16357 -7.0508 0
M  V30 25333 H 2403.66 -2.83874 -6.34382 0
M  V30 25334 H 2406.86 -1.64355 -4.38298 0
M  V30 25335 H 2407.03 -2.51004 -5.97412 0
M  V30 25336 N 2400.43 1.52351 -0.403352 0
M  V30 25337 C 2401.68 2.0135 0.173967 0
M  V30 25338 C 2402 1.29108 1.46137 0
M  V30 25339 O 2401.27 0.415287 1.91448 0
M  V30 25340 H 2399.85 0.743964 0.067278 0
M  V30 25341 H 2402.52 1.8732 -0.538268 0
M  V30 25342 H 2401.61 3.09849 0.3742 0
M  V30 25343 N 2401.91 0.133594 1.57033 0
M  V30 25344 C 2403.16 -0.520843 1.95687 0
M  V30 25345 C 2403.49 -1.65748 1.01773 0
M  V30 25346 O 2402.74 -1.9565 0.0443539 0
M  V30 25347 C 2403.04 -1.08051 3.40676 0
M  V30 25348 C 2402.71 -0.0637107 4.50855 0
M  V30 25349 C 2401.37 0.215841 4.80716 0
M  V30 25350 C 2403.72 0.628441 5.17397 0
M  V30 25351 C 2401.05 1.19358 5.74431 0
M  V30 25352 C 2403.4 1.59491 6.12165 0
M  V30 25353 C 2402.07 1.8823 6.40411 0
M  V30 25354 H 2401.34 -0.19059 0.71607 0
M  V30 25355 H 2403.98 0.21759 1.9026 0
M  V30 25356 H 2402.29 -1.896 3.42869 0
M  V30 25357 H 2403.98 -1.59522 3.67904 0
M  V30 25358 H 2400.57 -0.29178 4.27606 0
M  V30 25359 H 2404.76 0.425649 4.94471 0
M  V30 25360 H 2400.01 1.42283 5.94614 0
M  V30 25361 H 2404.19 2.13683 6.62807 0
M  V30 25362 H 2401.82 2.64145 7.12833 0
M  V30 25363 N 2403.39 -1.56975 -0.140195 0
M  V30 25364 C 2404.64 -1.82909 -0.85012 0
M  V30 25365 C 2404.95 -0.715924 -1.82027 0
M  V30 25366 O 2406.16 -0.861061 -2.57484 0
M  V30 25367 C 2404.61 -3.24216 -1.56244 0
M  V30 25368 C 2404.22 -4.43486 -0.634352 0
M  V30 25369 C 2405.97 -3.59417 -2.25875 0
M  V30 25370 C 2403.87 -5.75816 -1.34868 0
M  V30 25371 H 2402.8 -0.682159 -0.321209 0
M  V30 25372 H 2405.45 -1.83212 -0.102842 0
M  V30 25373 H 2403.84 -3.18321 -2.35559 0
M  V30 25374 H 2405.01 -4.60633 0.124061 0
M  V30 25375 H 2403.33 -4.16374 -0.0461104 0
M  V30 25376 H 2405.92 -4.55544 -2.7997 0
M  V30 25377 H 2406.27 -2.85807 -3.02688 0
M  V30 25378 H 2406.8 -3.67003 -1.53471 0
M  V30 25379 H 2403.54 -6.5254 -0.62227 0
M  V30 25380 H 2403.06 -5.62593 -2.07964 0
M  V30 25381 H 2404.74 -6.18849 -1.88773 0
M  V30 25382 N 2404.87 0.409753 -1.5218 0
M  V30 25383 C 2406.09 1.18305 -1.70349 0
M  V30 25384 C 2406.52 1.83534 -0.411919 0
M  V30 25385 O 2405.88 1.69981 0.630557 0
M  V30 25386 C 2405.92 2.22233 -2.83981 0
M  V30 25387 O 2405.03 3.2836 -2.49506 0
M  V30 25388 H 2404.37 0.345374 -0.567109 0
M  V30 25389 H 2406.9 0.48041 -1.9888 0
M  V30 25390 H 2406.91 2.66572 -3.08874 0
M  V30 25391 H 2405.58 1.74139 -3.77688 0
M  V30 25392 H 2404.16 2.89304 -2.35282 0
M  V30 25393 N 2406.35 1.42792 0.666944 0
M  V30 25394 C 2407.26 1.49302 1.80959 0
M  V30 25395 C 2408.27 0.381138 1.69774 0
M  V30 25396 O 2409.45 0.633222 1.91186 0
M  V30 25397 C 2406.51 1.40051 3.17154 0
M  V30 25398 C 2405.57 2.61796 3.40237 0
M  V30 25399 C 2404.81 2.52977 4.69934 0
M  V30 25400 O 2405.03 1.56995 5.48369 0
M  V30 25401 O 2403.96 3.43246 4.94435 0
M  V30 25402 H 2407.79 2.45762 1.78423 0
M  V30 25403 H 2405.38 1.24642 0.823691 0
M  V30 25404 H 2407.26 1.37283 3.98411 0
M  V30 25405 H 2405.93 0.467194 3.20311 0
M  V30 25406 H 2404.84 2.70138 2.58798 0
M  V30 25407 H 2406.17 3.54053 3.41917 0
M  V30 25408 N 2407.82 -0.904008 1.29095 0
M  V30 25409 C 2409.1 -1.63409 1.07503 0
M  V30 25410 C 2409.48 -2.07609 -0.38231 0
M  V30 25411 O 2408.83 -1.82854 -1.37028 0
M  V30 25412 C 2409.04 -2.81818 2.05863 0
M  V30 25413 C 2410.39 -3.52607 2.36545 0
M  V30 25414 O 2411.41 -2.91981 2.04024 0
M  V30 25415 O 2410.27 -4.61892 2.92093 0
M  V30 25416 H 2407.36 -0.71732 0.41156 0
M  V30 25417 H 2409.91 -0.952455 1.40451 0
M  V30 25418 H 2408.68 -2.46322 3.04041 0
M  V30 25419 H 2408.31 -3.5769 1.73619 0
M  V30 25420 N 2409.3 -1.11501 -1.11379 0
M  V30 25421 C 2410.23 -0.796163 -2.19507 0
M  V30 25422 C 2411.21 0.235766 -1.68458 0
M  V30 25423 O 2412.4 0.0991003 -1.93947 0
M  V30 25424 C 2409.53 -0.239266 -3.46475 0
M  V30 25425 C 2408.48 -1.20314 -4.10741 0
M  V30 25426 C 2407.81 -0.506924 -5.32292 0
M  V30 25427 C 2409.11 -2.55407 -4.55593 0
M  V30 25428 H 2410.8 -1.70028 -2.46436 0
M  V30 25429 H 2408.35 -0.818956 -1.18445 0
M  V30 25430 H 2410.3 -0.00399414 -4.214 0
M  V30 25431 H 2409.03 0.70015 -3.19007 0
M  V30 25432 H 2407.68 -1.42405 -3.37811 0
M  V30 25433 H 2407.33 0.43732 -5.01095 0
M  V30 25434 H 2407.03 -1.1498 -5.76241 0
M  V30 25435 H 2408.56 -0.280459 -6.09956 0
M  V30 25436 H 2409.97 -2.374 -5.21837 0
M  V30 25437 H 2408.37 -3.15682 -5.10358 0
M  V30 25438 H 2409.44 -3.14581 -3.69007 0
M  V30 25439 N 2410.78 1.28995 -0.905426 0
M  V30 25440 C 2411.69 2.31297 -0.392286 0
M  V30 25441 C 2412.71 1.66177 0.51586 0
M  V30 25442 O 2413.88 1.97305 0.404059 0
M  V30 25443 C 2410.95 3.44754 0.3668 0
M  V30 25444 C 2410.01 4.25451 -0.57356 0
M  V30 25445 C 2409.24 5.33491 0.149394 0
M  V30 25446 O 2409.47 5.53643 1.37245 0
M  V30 25447 O 2408.4 5.99727 -0.511024 0
M  V30 25448 H 2412.23 2.77181 -1.24115 0
M  V30 25449 H 2409.81 1.33537 -0.669949 0
M  V30 25450 H 2411.69 4.13817 0.795834 0
M  V30 25451 H 2410.37 3.00968 1.19163 0
M  V30 25452 H 2409.27 3.59009 -1.05182 0
M  V30 25453 H 2410.61 4.72895 -1.36497 0
M  V30 25454 N 2412.26 0.668514 1.42719 0
M  V30 25455 C 2413.51 0.187804 2.01226 0
M  V30 25456 C 2413.83 -1.20777 1.53094 0
M  V30 25457 O 2413.1 -1.80976 0.749962 0
M  V30 25458 H 2411.68 0.0664403 0.744039 0
M  V30 25459 H 2414.34 0.863614 1.74722 0
M  V30 25460 H 2413.44 0.184221 3.11556 0
M  V30 25461 N 2413.74 -1.52135 0.411426 0
M  V30 25462 C 2414.98 -2.02137 -0.163852 0
M  V30 25463 C 2415.32 -1.29638 -1.44595 0
M  V30 25464 O 2414.59 -0.403387 -1.90271 0
M  V30 25465 C 2414.87 -3.57767 -0.409208 0
M  V30 25466 C 2414.73 -4.40913 0.889721 0
M  V30 25467 C 2416.05 -4.23697 -1.19035 0
M  V30 25468 H 2413.17 -0.734708 -0.0580766 0
M  V30 25469 H 2415.81 -1.82006 0.545342 0
M  V30 25470 H 2413.96 -3.75052 -1.01333 0
M  V30 25471 H 2415.63 -4.35334 1.52583 0
M  V30 25472 H 2413.87 -4.07034 1.50018 0
M  V30 25473 H 2414.54 -5.47889 0.672411 0
M  V30 25474 H 2417.02 -4.10525 -0.67887 0
M  V30 25475 H 2415.9 -5.32524 -1.33077 0
M  V30 25476 H 2416.16 -3.82807 -2.21159 0
M  V30 25477 N 2415.22 -0.14192 -1.5696 0
M  V30 25478 C 2416.49 0.555248 -1.87554 0
M  V30 25479 C 2416.87 1.83305 -1.04703 0
M  V30 25480 O 2416.22 2.28116 -0.132386 0
M  V30 25481 C 2416.43 0.825605 -3.39094 0
M  V30 25482 C 2417.78 1.16862 -4.08202 0
M  V30 25483 O 2418.8 0.915125 -3.44244 0
M  V30 25484 O 2417.66 1.64541 -5.21141 0
M  V30 25485 H 2414.76 0.282665 -0.777193 0
M  V30 25486 H 2417.3 -0.17815 -1.68762 0
M  V30 25487 H 2416.07 -0.0789321 -3.9122 0
M  V30 25488 H 2415.7 1.61336 -3.63396 0
M  V30 25489 N 2416.69 1.57047 0.131868 0
M  V30 25490 C 2417.66 1.98473 1.14634 0
M  V30 25491 C 2418.66 0.873171 1.35027 0
M  V30 25492 O 2419.85 1.13949 1.31762 0
M  V30 25493 C 2416.98 2.31378 2.50354 0
M  V30 25494 H 2418.17 2.89292 0.790589 0
M  V30 25495 H 2415.72 1.51717 0.375734 0
M  V30 25496 H 2416.46 1.43398 2.90873 0
M  V30 25497 H 2416.24 3.12436 2.3691 0
M  V30 25498 H 2417.73 2.64213 3.23391 0
M  V30 25499 N 2418.17 -0.401677 1.52395 0
M  V30 25500 C 2419.4 -1.16946 1.70678 0
M  V30 25501 C 2419.81 -1.8408 0.419535 0
M  V30 25502 O 2419.17 -1.72179 -0.60503 0
M  V30 25503 C 2419.22 -2.22701 2.84757 0
M  V30 25504 O 2418.94 -1.58307 4.08498 0
M  V30 25505 C 2420.44 -3.12304 3.14613 0
M  V30 25506 H 2417.66 -0.351132 0.571793 0
M  V30 25507 H 2420.21 -0.471617 1.98988 0
M  V30 25508 H 2418.36 -2.88142 2.58946 0
M  V30 25509 H 2418.78 -2.28477 4.72121 0
M  V30 25510 H 2420.25 -3.82565 3.9793 0
M  V30 25511 H 2420.73 -3.75097 2.28471 0
M  V30 25512 H 2421.33 -2.52523 3.42217 0
M  V30 25513 N 2419.65 -1.43144 -0.659362 0
M  V30 25514 C 2420.58 -1.50628 -1.78419 0
M  V30 25515 C 2421.56 -0.361472 -1.66215 0
M  V30 25516 O 2422.75 -0.577866 -1.85403 0
M  V30 25517 C 2419.88 -1.42293 -3.16812 0
M  V30 25518 C 2418.83 -2.5496 -3.43772 0
M  V30 25519 C 2418.16 -2.31679 -4.81901 0
M  V30 25520 C 2419.46 -3.97228 -3.39127 0
M  V30 25521 H 2421.15 -2.44774 -1.72413 0
M  V30 25522 H 2418.7 -1.1781 -0.828063 0
M  V30 25523 H 2420.65 -1.46134 -3.9525 0
M  V30 25524 H 2419.37 -0.446492 -3.23534 0
M  V30 25525 H 2418.03 -2.50462 -2.67702 0
M  V30 25526 H 2417.68 -1.32293 -4.85291 0
M  V30 25527 H 2417.38 -3.072 -5.00901 0
M  V30 25528 H 2418.9 -2.37294 -5.62604 0
M  V30 25529 H 2420.32 -4.03247 -4.07511 0
M  V30 25530 H 2418.71 -4.72725 -3.69663 0
M  V30 25531 H 2419.78 -4.22801 -2.37418 0
M  V30 25532 N 2421.13 0.897149 -1.29572 0
M  V30 25533 C 2422.37 1.65032 -1.17866 0
M  V30 25534 C 2422.71 1.92332 0.268695 0
M  V30 25535 O 2421.98 1.53557 1.19375 0
M  V30 25536 C 2422.26 2.99783 -1.99505 0
M  V30 25537 C 2422.12 2.79532 -3.52395 0
M  V30 25538 C 2423.44 4.00549 -1.82342 0
M  V30 25539 H 2420.56 0.598887 -0.429538 0
M  V30 25540 H 2423.2 1.03902 -1.59073 0
M  V30 25541 H 2421.35 3.51959 -1.64491 0
M  V30 25542 H 2423.02 2.34237 -3.97405 0
M  V30 25543 H 2421.26 2.14266 -3.7719 0
M  V30 25544 H 2421.93 3.75295 -4.04794 0
M  V30 25545 H 2424.41 3.57491 -2.1293 0
M  V30 25546 H 2423.29 4.92767 -2.4181 0
M  V30 25547 H 2423.55 4.35178 -0.779285 0
M  V30 25548 N 2422.61 1.1209 1.10786 0
M  V30 25549 C 2423.85 0.875258 1.8294 0
M  V30 25550 C 2424.18 -0.597506 1.8478 0
M  V30 25551 O 2423.46 -1.44149 1.3058 0
M  V30 25552 C 2423.74 1.44612 3.29787 0
M  V30 25553 C 2423.6 2.98699 3.36302 0
M  V30 25554 C 2424.91 1.10268 4.26062 0
M  V30 25555 H 2422.03 0.319408 0.664189 0
M  V30 25556 H 2424.68 1.38691 1.29865 0
M  V30 25557 H 2422.83 1.01096 3.75116 0
M  V30 25558 H 2424.5 3.50869 2.99481 0
M  V30 25559 H 2422.74 3.34416 2.76312 0
M  V30 25560 H 2423.41 3.33734 4.39688 0
M  V30 25561 H 2425.89 1.47847 3.88948 0
M  V30 25562 H 2424.76 1.52879 5.27181 0
M  V30 25563 H 2425.02 0.0143731 4.42098 0
M  V30 25564 N 2424.08 -1.28513 0.912254 0
M  V30 25565 C 2425.03 -2.24966 0.370688 0
M  V30 25566 C 2426.02 -1.5239 -0.516348 0
M  V30 25567 O 2427.21 -1.73376 -0.356314 0
M  V30 25568 C 2424.34 -3.41084 -0.389466 0
M  V30 25569 C 2423.42 -4.20983 0.513204 0
M  V30 25570 N 2423.82 -4.78948 1.62612 0
M  V30 25571 C 2422.11 -4.44898 0.313313 0
M  V30 25572 C 2422.81 -5.39051 2.18628 0
M  V30 25573 N 2421.79 -5.23129 1.47774 0
M  V30 25574 H 2425.59 -2.67352 1.22066 0
M  V30 25575 H 2423.11 -1.43267 0.764737 0
M  V30 25576 H 2425.1 -4.09264 -0.794281 0
M  V30 25577 H 2423.76 -3.00232 -1.23655 0
M  V30 25578 H 2424.77 -4.77358 2.00872 0
M  V30 25579 H 2421.45 -4.14563 -0.494379 0
M  V30 25580 H 2422.84 -5.94942 3.12239 0
M  V30 25581 N 2425.56 -0.676073 -1.42362 0
M  V30 25582 C 2426.79 -0.205741 -2.06377 0
M  V30 25583 C 2427.21 1.1288 -1.50465 0
M  V30 25584 O 2426.57 1.70236 -0.623649 0
M  V30 25585 C 2426.62 -0.152718 -3.60276 0
M  V30 25586 O 2425.72 0.878379 -4.02937 0
M  V30 25587 H 2425.06 -0.10537 -0.655586 0
M  V30 25588 H 2427.59 -0.925445 -1.82474 0
M  V30 25589 H 2427.6 0.0229958 -4.07994 0
M  V30 25590 H 2426.28 -1.12682 -4.00344 0
M  V30 25591 H 2424.86 0.673603 -3.66766 0
M  V30 25592 N 2427.04 1.51915 -0.419488 0
M  V30 25593 C 2427.99 2.2886 0.415461 0
M  V30 25594 C 2428.98 1.33972 1.03672 0
M  V30 25595 O 2430.19 1.51389 0.973731 0
M  V30 25596 H 2426.56 0.736318 0.152773 0
M  V30 25597 H 2428.53 2.97312 -0.254584 0
M  V30 25598 C 2427.28 3.12998 1.51419 0
M  V30 25599 H 2426.61 3.85888 1.04549 0
M  V30 25600 H 2428.05 3.69924 2.07202 0
M  V30 25601 C 2426.51 2.27221 2.48741 0
M  V30 25602 O 2427.04 1.91956 3.52868 0
M  V30 25603 N 2425.24 1.90789 2.19198 0
M  V30 25604 H 2424.79 2.19667 1.34552 0
M  V30 25605 H 2424.75 1.33692 2.84559 0
M  V30 25606 N 2428.52 0.150242 1.56882 0
M  V30 25607 C 2429.47 -0.805274 2.18216 0
M  V30 25608 C 2430.46 -1.25294 1.14008 0
M  V30 25609 O 2431.67 -1.22104 1.32252 0
M  V30 25610 H 2428.04 -0.277901 0.698767 0
M  V30 25611 H 2430.01 -0.26381 2.97232 0
M  V30 25612 C 2428.76 -2.03304 2.82069 0
M  V30 25613 H 2428.08 -1.69756 3.61971 0
M  V30 25614 H 2429.52 -2.68097 3.28481 0
M  V30 25615 C 2427.98 -2.84312 1.80744 0
M  V30 25616 O 2428.51 -3.80764 1.27989 0
M  V30 25617 N 2426.72 -2.4891 1.49974 0
M  V30 25618 H 2426.27 -1.70539 1.93065 0
M  V30 25619 H 2426.22 -3.03403 0.82427 0
M  V30 25620 N 2430 -1.57115 -0.123538 0
M  V30 25621 C 2431.24 -1.84613 -0.832121 0
M  V30 25622 C 2431.57 -0.734659 -1.80092 0
M  V30 25623 O 2430.83 0.274386 -1.93767 0
M  V30 25624 C 2431.13 -3.18571 -1.6201 0
M  V30 25625 C 2430.79 -4.43818 -0.796006 0
M  V30 25626 C 2429.45 -4.77827 -0.568732 0
M  V30 25627 C 2431.81 -5.2073 -0.221273 0
M  V30 25628 C 2429.13 -5.86194 0.243602 0
M  V30 25629 C 2431.49 -6.29952 0.578228 0
M  V30 25630 C 2430.15 -6.62495 0.815861 0
M  V30 25631 H 2429.42 -0.675547 -0.304495 0
M  V30 25632 H 2432.07 -1.91266 -0.0946912 0
M  V30 25633 H 2430.37 -3.07474 -2.42831 0
M  V30 25634 H 2432.07 -3.37067 -2.17225 0
M  V30 25635 H 2428.66 -4.1717 -0.983234 0
M  V30 25636 H 2432.84 -4.94812 -0.384086 0
M  V30 25637 H 2428.1 -6.09836 0.436978 0
M  V30 25638 H 2432.27 -6.88732 1.03058 0
M  V30 25639 H 2429.9 -7.46299 1.44715 0
M  V30 25640 N 2431.47 0.393589 -1.52606 0
M  V30 25641 C 2432.7 1.1604 -1.71296 0
M  V30 25642 C 2433.12 1.83855 -0.429292 0
M  V30 25643 O 2432.47 1.72498 0.595891 0
M  V30 25644 C 2432.53 2.21188 -2.85934 0
M  V30 25645 O 2432.25 1.56138 -4.09332 0
M  V30 25646 C 2433.75 3.10631 -3.16265 0
M  V30 25647 H 2430.97 0.348094 -0.573647 0
M  V30 25648 H 2433.51 0.461057 -1.99235 0
M  V30 25649 H 2431.67 2.86765 -2.6047 0
M  V30 25650 H 2432.08 2.2597 -4.73326 0
M  V30 25651 H 2433.55 3.80449 -3.99953 0
M  V30 25652 H 2434.03 3.7388 -2.30457 0
M  V30 25653 H 2434.64 2.50704 -3.43551 0
M  V30 25654 N 2432.95 1.43492 0.651762 0
M  V30 25655 C 2433.9 1.49033 1.78583 0
M  V30 25656 C 2434.89 0.363796 1.65448 0
M  V30 25657 O 2436.1 0.537852 1.71776 0
M  V30 25658 H 2432.48 0.467242 0.589228 0
M  V30 25659 H 2434.45 2.44522 1.7103 0
M  V30 25660 C 2433.2 1.43187 3.16848 0
M  V30 25661 H 2432.52 2.29177 3.27594 0
M  V30 25662 H 2433.96 1.51125 3.96153 0
M  V30 25663 C 2432.42 0.149675 3.36567 0
M  V30 25664 O 2432.95 -0.78844 3.93886 0
M  V30 25665 N 2431.15 0.0593995 2.90539 0
M  V30 25666 H 2430.7 0.823618 2.44078 0
M  V30 25667 H 2430.66 -0.797799 3.04109 0
M  V30 25668 N 2434.43 -0.890264 1.30046 0
M  V30 25669 C 2435.66 -1.67485 1.21475 0
M  V30 25670 C 2436.07 -1.87476 -0.223208 0
M  V30 25671 O 2435.43 -1.41849 -1.14826 0
M  V30 25672 C 2435.48 -3.05416 1.934 0
M  V30 25673 O 2435.2 -2.86331 3.31581 0
M  V30 25674 C 2436.7 -3.99841 1.91421 0
M  V30 25675 H 2433.92 -0.522805 0.420613 0
M  V30 25676 H 2436.47 -1.11265 1.71582 0
M  V30 25677 H 2434.62 -3.58384 1.47105 0
M  V30 25678 H 2435.04 -3.73796 3.67936 0
M  V30 25679 H 2436.51 -4.94007 2.46294 0
M  V30 25680 H 2436.99 -4.30048 0.891908 0
M  V30 25681 H 2437.59 -3.52807 2.37502 0
M  V30 25682 N 2435.91 -1.12676 -1.1019 0
M  V30 25683 C 2437.16 -0.878332 -1.81572 0
M  V30 25684 C 2437.47 0.597525 -1.8625 0
M  V30 25685 O 2438.68 0.962636 -2.53861 0
M  V30 25686 C 2437.13 -1.52173 -3.26146 0
M  V30 25687 C 2436.74 -3.03255 -3.29758 0
M  V30 25688 C 2438.48 -1.35367 -4.02338 0
M  V30 25689 C 2436.39 -3.60517 -4.68809 0
M  V30 25690 H 2435.32 -0.324942 -0.680388 0
M  V30 25691 H 2437.97 -1.35355 -1.239 0
M  V30 25692 H 2436.35 -0.974172 -3.83831 0
M  V30 25693 H 2437.53 -3.64525 -2.81884 0
M  V30 25694 H 2435.84 -3.19486 -2.67053 0
M  V30 25695 H 2438.44 -1.75568 -5.05054 0
M  V30 25696 H 2438.78 -0.297627 -4.15235 0
M  V30 25697 H 2439.32 -1.87059 -3.51075 0
M  V30 25698 H 2436.06 -4.65892 -4.61112 0
M  V30 25699 H 2435.58 -3.04023 -5.1704 0
M  V30 25700 H 2437.25 -3.59726 -5.37779 0
M  V30 25701 N 2437.39 1.28028 -0.919057 0
M  V30 25702 C 2438.32 2.29532 -0.428622 0
M  V30 25703 C 2439.3 1.62382 0.506561 0
M  V30 25704 O 2440.48 1.89754 0.413162 0
M  V30 25705 C 2437.61 3.45754 0.327328 0
M  V30 25706 C 2436.57 4.24839 -0.519212 0
M  V30 25707 C 2435.89 5.3345 0.365393 0
M  V30 25708 C 2437.19 4.91061 -1.77923 0
M  V30 25709 H 2438.89 2.70805 -1.27692 0
M  V30 25710 H 2436.43 1.30185 -0.615451 0
M  V30 25711 H 2438.39 4.15856 0.681305 0
M  V30 25712 H 2437.11 3.03376 1.20957 0
M  V30 25713 H 2435.77 3.56472 -0.855779 0
M  V30 25714 H 2435.42 4.87314 1.24634 0
M  V30 25715 H 2435.12 5.87268 -0.197459 0
M  V30 25716 H 2436.64 6.06398 0.715134 0
M  V30 25717 H 2438.05 5.53496 -1.49384 0
M  V30 25718 H 2436.45 5.54898 -2.2849 0
M  V30 25719 H 2437.52 4.15251 -2.50389 0
M  V30 25720 N 2438.86 0.683613 1.42002 0
M  V30 25721 C 2439.77 0.0109488 2.34597 0
M  V30 25722 C 2440.79 -0.779218 1.55577 0
M  V30 25723 O 2441.97 -0.719522 1.88109 0
M  V30 25724 C 2439.03 -0.922529 3.34201 0
M  V30 25725 C 2438.09 -0.125908 4.29115 0
M  V30 25726 C 2437.33 -1.01493 5.23961 0
M  V30 25727 O 2437.55 -2.25447 5.23956 0
M  V30 25728 O 2436.48 -0.471004 6.00054 0
M  V30 25729 H 2440.31 0.773904 2.93674 0
M  V30 25730 H 2437.89 0.443886 1.42653 0
M  V30 25731 H 2439.78 -1.45816 3.95368 0
M  V30 25732 H 2438.45 -1.66518 2.77585 0
M  V30 25733 H 2437.36 0.454034 3.71335 0
M  V30 25734 H 2438.69 0.577822 4.88797 0
M  V30 25735 N 2440.34 -1.5169 0.427538 0
M  V30 25736 C 2441.59 -2.02299 -0.142404 0
M  V30 25737 C 2441.92 -1.31164 -1.43211 0
M  V30 25738 O 2441.2 -0.423545 -1.89832 0
M  V30 25739 C 2441.48 -3.58181 -0.371238 0
M  V30 25740 C 2441.33 -4.39944 0.936436 0
M  V30 25741 C 2442.65 -4.24935 -1.14534 0
M  V30 25742 H 2439.77 -0.735283 -0.0502808 0
M  V30 25743 H 2442.41 -1.81417 0.564616 0
M  V30 25744 H 2440.56 -3.76106 -0.973493 0
M  V30 25745 H 2442.24 -4.33692 1.57192 0
M  V30 25746 H 2440.48 -4.0542 1.54327 0
M  V30 25747 H 2441.15 -5.47145 0.730484 0
M  V30 25748 H 2443.63 -4.11222 -0.63529 0
M  V30 25749 H 2442.5 -5.33905 -1.27421 0
M  V30 25750 H 2442.76 -3.85131 -2.17086 0
M  V30 25751 N 2441.82 -0.15856 -1.568 0
M  V30 25752 C 2443.07 0.488678 -1.96103 0
M  V30 25753 C 2443.39 1.64635 -1.04501 0
M  V30 25754 O 2442.66 1.95598 -0.108817 0
M  V30 25755 H 2441.24 0.183522 -0.724105 0
M  V30 25756 H 2443.9 -0.236762 -1.93457 0
M  V30 25757 H 2443 0.857167 -3.00098 0
M  V30 25758 N 2443.3 1.57178 0.115204 0
M  V30 25759 C 2444.71 1.74189 0.671939 0
M  V30 25760 C 2445.06 0.777809 1.80124 0
M  V30 25761 O 2444.19 -0.0483996 2.16346 0
M  V30 25762 C 2444.78 3.15852 1.22567 0
M  V30 25763 C 2443.34 3.34356 1.72866 0
M  V30 25764 C 2442.49 2.7005 0.629924 0
M  V30 25765 H 2445.44 1.58313 -0.11074 0
M  V30 25766 H 2445.46 3.17613 2.09529 0
M  V30 25767 H 2444.97 3.85996 0.40353 0
M  V30 25768 H 2443.07 2.6926 2.57545 0
M  V30 25769 H 2443.19 4.42545 1.83549 0
M  V30 25770 H 2441.55 2.3139 1.06446 0
M  V30 25771 H 2442.33 3.42821 -0.181302 0
M  V30 25772 N 2444.78 -0.38549 1.52813 0
M  V30 25773 C 2446.02 -1.13185 1.68277 0
M  V30 25774 C 2446.36 -1.89532 0.423212 0
M  V30 25775 O 2445.63 -1.8568 -0.57908 0
M  V30 25776 C 2445.91 -2.10725 2.92005 0
M  V30 25777 C 2445.77 -1.38118 4.28069 0
M  V30 25778 C 2447.09 -3.11107 3.11288 0
M  V30 25779 H 2444.21 -0.410104 0.612359 0
M  V30 25780 H 2446.85 -0.414836 1.85416 0
M  V30 25781 H 2445 -2.7187 2.77523 0
M  V30 25782 H 2446.67 -0.799107 4.54326 0
M  V30 25783 H 2444.91 -0.683017 4.28389 0
M  V30 25784 H 2445.58 -2.09408 5.10737 0
M  V30 25785 H 2448.06 -2.60055 3.24824 0
M  V30 25786 H 2446.94 -3.76598 3.99331 0
M  V30 25787 H 2447.2 -3.80169 2.25663 0
M  V30 25788 N 2446.26 -1.43835 -0.644143 0
M  V30 25789 C 2447.48 -1.4939 -1.43144 0
M  V30 25790 C 2447.9 -0.114616 -1.88452 0
M  V30 25791 O 2447.26 0.876961 -1.60049 0
M  V30 25792 C 2447.31 -2.44753 -2.66042 0
M  V30 25793 O 2447.03 -3.77318 -2.22627 0
M  V30 25794 C 2448.53 -2.59641 -3.59307 0
M  V30 25795 H 2445.75 -0.507085 -0.439438 0
M  V30 25796 H 2448.29 -1.8867 -0.788917 0
M  V30 25797 H 2446.45 -2.08644 -3.26415 0
M  V30 25798 H 2446.86 -4.28685 -3.02208 0
M  V30 25799 H 2448.34 -3.30424 -4.42181 0
M  V30 25800 H 2448.81 -1.64435 -4.07257 0
M  V30 25801 H 2449.42 -2.96599 -3.0481 0
M  V30 25802 N 2447.73 0.883355 -1.30517 0
M  V30 25803 C 2448.67 1.99182 -1.11362 0
M  V30 25804 C 2449.64 1.62587 -0.0208143 0
M  V30 25805 O 2450.83 1.87689 -0.174679 0
M  V30 25806 C 2447.96 3.31414 -0.698769 0
M  V30 25807 C 2447 3.86995 -1.79268 0
M  V30 25808 S 2447.83 4.1409 -3.39543 0
M  V30 25809 C 2448.99 5.49339 -2.99963 0
M  V30 25810 H 2449.22 2.15124 -2.05204 0
M  V30 25811 H 2446.76 1.03194 -1.14849 0
M  V30 25812 H 2448.71 4.07845 -0.466147 0
M  V30 25813 H 2447.38 3.13326 0.220313 0
M  V30 25814 H 2446.57 4.82549 -1.45472 0
M  V30 25815 H 2446.17 3.17309 -1.97966 0
M  V30 25816 H 2448.46 6.30468 -2.48024 0
M  V30 25817 H 2449.41 5.88073 -3.94431 0
M  V30 25818 H 2449.81 5.11975 -2.37784 0
M  V30 25819 N 2449.21 1.13259 1.09591 0
M  V30 25820 C 2450.17 0.811396 2.14357 0
M  V30 25821 C 2451.17 -0.178349 1.59808 0
M  V30 25822 O 2452.36 0.0485217 1.74132 0
M  V30 25823 C 2449.5 0.207336 3.40269 0
M  V30 25824 H 2450.69 1.73973 2.44281 0
M  V30 25825 H 2448.24 0.936995 1.251 0
M  V30 25826 H 2448.98 -0.730305 3.1597 0
M  V30 25827 H 2448.76 0.920059 3.81153 0
M  V30 25828 H 2450.25 -0.00059454 4.176 0
M  V30 25829 N 2450.69 -1.27539 0.925834 0
M  V30 25830 C 2451.94 -1.94066 0.564172 0
M  V30 25831 C 2452.26 -1.73136 -0.897157 0
M  V30 25832 O 2451.53 -1.07802 -1.63571 0
M  V30 25833 H 2450.11 -0.718132 0.205658 0
M  V30 25834 H 2452.77 -1.55285 1.17782 0
M  V30 25835 H 2451.87 -3.02481 0.768863 0
M  V30 25836 N 2452.17 -0.691135 -1.41637 0
M  V30 25837 C 2453.1 -0.037289 -2.3347 0
M  V30 25838 C 2454.08 0.771921 -1.51576 0
M  V30 25839 O 2455.26 0.725788 -1.80128 0
M  V30 25840 C 2452.39 0.903005 -3.35355 0
M  V30 25841 C 2451.35 0.201213 -4.27527 0
M  V30 25842 C 2450.67 1.25556 -5.1975 0
M  V30 25843 C 2451.97 -0.92978 -5.13958 0
M  V30 25844 H 2453.67 -0.804278 -2.88395 0
M  V30 25845 H 2451.21 -0.388214 -1.38668 0
M  V30 25846 H 2453.17 1.36962 -3.98521 0
M  V30 25847 H 2451.89 1.70161 -2.7877 0
M  V30 25848 H 2450.55 -0.24533 -3.65778 0
M  V30 25849 H 2450.2 2.04658 -4.59483 0
M  V30 25850 H 2449.9 0.791026 -5.82251 0
M  V30 25851 H 2451.42 1.72278 -5.85792 0
M  V30 25852 H 2452.84 -0.543647 -5.70717 0
M  V30 25853 H 2451.23 -1.32113 -5.85377 0
M  V30 25854 H 2452.3 -1.77141 -4.51386 0
M  V30 25855 N 2453.65 1.51461 -0.435577 0
M  V30 25856 C 2454.89 2.01261 0.132972 0
M  V30 25857 C 2455.21 1.32442 1.43939 0
M  V30 25858 O 2456.41 1.73201 2.09078 0
M  V30 25859 C 2454.87 3.5875 0.287518 0
M  V30 25860 C 2454.48 4.36504 -1.00836 0
M  V30 25861 C 2456.22 4.16702 0.809931 0
M  V30 25862 C 2454.13 5.85694 -0.819557 0
M  V30 25863 H 2453.06 0.752102 0.053469 0
M  V30 25864 H 2455.71 1.74583 -0.565069 0
M  V30 25865 H 2454.09 3.81867 1.04852 0
M  V30 25866 H 2455.27 4.25135 -1.77756 0
M  V30 25867 H 2453.58 3.89996 -1.45918 0
M  V30 25868 H 2456.18 5.25871 0.96765 0
M  V30 25869 H 2456.52 3.75762 1.7919 0
M  V30 25870 H 2457.05 3.97655 0.107287 0
M  V30 25871 H 2453.79 6.31043 -1.77385 0
M  V30 25872 H 2453.31 5.99732 -0.0901262 0
M  V30 25873 H 2454.99 6.45276 -0.472062 0
M  V30 25874 N 2455.12 0.166873 1.56714 0
M  V30 25875 C 2456.07 -0.782084 2.19058 0
M  V30 25876 C 2457.07 -1.24077 1.15331 0
M  V30 25877 O 2458.27 -1.20695 1.3354 0
M  V30 25878 H 2454.65 -0.270474 0.701675 0
M  V30 25879 H 2456.62 -0.232269 2.97495 0
M  V30 25880 C 2455.37 -2.00301 2.84209 0
M  V30 25881 H 2454.69 -1.65908 3.63751 0
M  V30 25882 H 2456.13 -2.64598 3.31306 0
M  V30 25883 C 2454.59 -2.82379 1.83749 0
M  V30 25884 O 2455.12 -3.79386 1.32021 0
M  V30 25885 N 2453.33 -2.47305 1.52606 0
M  V30 25886 H 2452.87 -1.68482 1.94863 0
M  V30 25887 H 2452.83 -3.02511 0.856404 0
M  V30 25888 N 2456.6 -1.57237 -0.106866 0
M  V30 25889 C 2457.53 -2.04256 -1.13145 0
M  V30 25890 C 2458.51 -0.929249 -1.42474 0
M  V30 25891 O 2459.7 -1.19976 -1.52707 0
M  V30 25892 C 2456.83 -2.4571 -2.45446 0
M  V30 25893 C 2455.78 -3.60597 -2.30552 0
M  V30 25894 C 2455.11 -3.87989 -3.67925 0
M  V30 25895 C 2456.41 -4.919 -1.75588 0
M  V30 25896 H 2458.1 -2.90103 -0.740323 0
M  V30 25897 H 2455.65 -1.39564 -0.354672 0
M  V30 25898 H 2457.6 -2.7721 -3.17384 0
M  V30 25899 H 2456.33 -1.56848 -2.86472 0
M  V30 25900 H 2454.98 -3.29325 -1.61061 0
M  V30 25901 H 2454.63 -2.96314 -4.06457 0
M  V30 25902 H 2454.33 -4.65328 -3.58808 0
M  V30 25903 H 2455.86 -4.21953 -4.41348 0
M  V30 25904 H 2457.27 -5.21858 -2.37355 0
M  V30 25905 H 2455.67 -5.73322 -1.77262 0
M  V30 25906 H 2456.74 -4.79609 -0.714367 0
M  V30 25907 N 2458.08 0.377381 -1.53015 0
M  V30 25908 C 2459.31 1.14665 -1.7282 0
M  V30 25909 C 2459.73 1.82619 -0.450757 0
M  V30 25910 O 2459.09 1.71281 0.59436 0
M  V30 25911 C 2459.14 2.16159 -2.88631 0
M  V30 25912 O 2458.24 3.22994 -2.56415 0
M  V30 25913 H 2457.58 0.333268 -0.574307 0
M  V30 25914 H 2460.11 0.438117 -1.99854 0
M  V30 25915 H 2460.12 2.5996 -3.14459 0
M  V30 25916 H 2458.8 1.66088 -3.81297 0
M  V30 25917 H 2457.37 2.84248 -2.41365 0
M  V30 25918 N 2459.56 1.44175 0.636506 0
M  V30 25919 C 2460.78 1.50367 1.42844 0
M  V30 25920 C 2461.21 0.1279 1.87665 0
M  V30 25921 O 2460.57 -0.881823 1.5841 0
M  V30 25922 C 2460.61 2.46865 2.6285 0
M  V30 25923 O 2459.72 1.96646 3.62497 0
M  V30 25924 H 2459.06 0.507963 0.427633 0
M  V30 25925 H 2461.59 1.89256 0.777389 0
M  V30 25926 H 2461.6 2.64723 3.1046 0
M  V30 25927 H 2460.27 3.46799 2.29572 0
M  V30 25928 H 2458.85 1.88529 3.21732 0
M  V30 25929 N 2461.04 -0.876421 1.30983 0
M  V30 25930 C 2462.26 -1.66188 1.23245 0
M  V30 25931 C 2462.68 -1.87702 -0.203312 0
M  V30 25932 O 2462.04 -1.43059 -1.13315 0
M  V30 25933 C 2462.09 -3.03347 1.96628 0
M  V30 25934 O 2461.81 -2.82798 3.34599 0
M  V30 25935 C 2463.31 -3.97788 1.95651 0
M  V30 25936 H 2460.53 -0.518315 0.426135 0
M  V30 25937 H 2463.07 -1.09439 1.72752 0
M  V30 25938 H 2461.23 -3.56803 1.50898 0
M  V30 25939 H 2461.64 -3.69872 3.7188 0
M  V30 25940 H 2463.12 -4.91367 2.5152 0
M  V30 25941 H 2463.59 -4.29078 0.937471 0
M  V30 25942 H 2464.2 -3.50268 2.41231 0
M  V30 25943 N 2462.51 -1.13839 -1.08989 0
M  V30 25944 C 2463.93 -0.914946 -1.62744 0
M  V30 25945 C 2464.28 0.547561 -1.88404 0
M  V30 25946 O 2463.4 1.41522 -1.63708 0
M  V30 25947 C 2464 -1.65442 -2.95659 0
M  V30 25948 C 2462.56 -1.47672 -3.46222 0
M  V30 25949 C 2461.7 -1.68074 -2.20559 0
M  V30 25950 H 2464.65 -1.29104 -0.922923 0
M  V30 25951 H 2464.67 -1.11413 -3.63823 0
M  V30 25952 H 2464.19 -2.71882 -2.76951 0
M  V30 25953 H 2462.29 -0.435543 -3.70046 0
M  V30 25954 H 2462.4 -2.24276 -4.23364 0
M  V30 25955 H 2460.76 -1.10593 -2.29437 0
M  V30 25956 H 2461.55 -2.75843 -2.04366 0
M  V30 25957 N 2463.99 1.27046 -0.932584 0
M  V30 25958 C 2465.22 1.98248 -0.592066 0
M  V30 25959 C 2465.64 1.69527 0.831032 0
M  V30 25960 O 2464.99 0.958589 1.55298 0
M  V30 25961 C 2465.04 3.52208 -0.814341 0
M  V30 25962 O 2464.76 3.79926 -2.18146 0
M  V30 25963 C 2466.27 4.40659 -0.483198 0
M  V30 25964 H 2463.49 0.63254 -0.223907 0
M  V30 25965 H 2466.03 1.61777 -1.25094 0
M  V30 25966 H 2464.18 3.86872 -0.202198 0
M  V30 25967 H 2464.6 4.74494 -2.23508 0
M  V30 25968 H 2466.07 5.47678 -0.689394 0
M  V30 25969 H 2466.55 4.35334 0.58147 0
M  V30 25970 H 2467.16 4.11524 -1.07369 0
M  V30 25971 N 2465.47 0.698636 1.41269 0
M  V30 25972 C 2466.42 0.0238959 2.32588 0
M  V30 25973 C 2467.41 -0.765265 1.51129 0
M  V30 25974 O 2468.62 -0.670542 1.67044 0
M  V30 25975 H 2464.99 -0.0110739 0.751918 0
M  V30 25976 H 2466.96 0.811082 2.87166 0
M  V30 25977 C 2465.71 -0.89631 3.35949 0
M  V30 25978 H 2465.04 -0.298478 3.98684 0
M  V30 25979 H 2466.48 -1.33669 4.02379 0
M  V30 25980 C 2464.94 -2.01391 2.7008 0
M  V30 25981 O 2465.47 -3.10302 2.55099 0
M  V30 25982 N 2463.67 -1.79255 2.28727 0
M  V30 25983 H 2463.22 -0.906799 2.41112 0
M  V30 25984 H 2463.18 -2.54216 1.84991 0
M  V30 25985 N 2466.95 -1.51228 0.443603 0
M  V30 25986 C 2468.36 -1.5931 0.0962281 0
M  V30 25987 C 2468.56 -1.45405 -1.39498 0
M  V30 25988 O 2467.62 -1.29847 -2.16555 0
M  V30 25989 C 2468.93 -2.94198 0.621926 0
M  V30 25990 C 2470.48 -3.07524 0.582919 0
M  V30 25991 C 2470.96 -4.44946 1.0857 0
M  V30 25992 N 2472.45 -4.51283 1.04395 0
M  V30 25993 C 2473.18 -5.55951 1.40377 0
M  V30 25994 N 2472.68 -6.68008 1.83676 0
M  V30 25995 N 2474.47 -5.46344 1.32154 0
M  V30 25996 H 2466.62 -1.58511 1.41379 0
M  V30 25997 H 2468.89 -0.747556 0.582978 0
M  V30 25998 H 2468.59 -3.09764 1.66552 0
M  V30 25999 H 2468.47 -3.77166 0.0502788 0
M  V30 26000 H 2470.85 -2.91623 -0.451698 0
M  V30 26001 H 2470.93 -2.2638 1.19104 0
M  V30 26002 H 2470.58 -4.61594 2.11881 0
M  V30 26003 H 2470.51 -5.24639 0.454049 0
M  V30 26004 H 2473 -3.7086 0.726051 0
M  V30 26005 H 2473.31 -7.43903 2.09353 0
M  V30 26006 H 2471.66 -6.692 1.87608 0
M  V30 26007 H 2474.85 -4.57686 0.981888 0
M  V30 26008 H 2475.02 -6.27802 1.60525 0
M  V30 26009 N 2468.43 -0.175182 -1.56623 0
M  V30 26010 C 2469.36 0.792375 -2.14002 0
M  V30 26011 C 2470.34 1.22331 -1.07116 0
M  V30 26012 O 2471.52 1.3144 -1.35114 0
M  V30 26013 C 2468.65 2.06755 -2.68272 0
M  V30 26014 C 2467.69 1.78033 -3.87565 0
M  V30 26015 S 2468.53 0.946129 -5.27076 0
M  V30 26016 C 2469.68 2.23189 -5.84754 0
M  V30 26017 H 2469.92 0.304536 -2.95736 0
M  V30 26018 H 2467.45 0.0395434 -1.54349 0
M  V30 26019 H 2469.41 2.79997 -3.00186 0
M  V30 26020 H 2468.07 2.52653 -1.86616 0
M  V30 26021 H 2467.26 2.72659 -4.23879 0
M  V30 26022 H 2466.86 1.12885 -3.56557 0
M  V30 26023 H 2469.16 3.18618 -5.97904 0
M  V30 26024 H 2470.1 1.91338 -6.81759 0
M  V30 26025 H 2470.51 2.35125 -5.13202 0
M  V30 26026 N 2469.91 1.57292 0.0985263 0
M  V30 26027 C 2471.15 1.85099 0.801326 0
M  V30 26028 C 2471.47 0.763934 1.80065 0
M  V30 26029 O 2472.67 0.929026 2.5511 0
M  V30 26030 C 2471.13 3.28244 1.47593 0
M  V30 26031 C 2470.74 4.45012 0.516546 0
M  V30 26032 C 2472.48 3.6528 2.16266 0
M  V30 26033 C 2470.39 5.7919 1.19554 0
M  V30 26034 H 2469.32 0.690436 0.30301 0
M  V30 26035 H 2471.97 1.8342 0.0542301 0
M  V30 26036 H 2470.35 3.24454 2.27036 0
M  V30 26037 H 2471.53 4.60142 -0.246146 0
M  V30 26038 H 2469.84 4.1635 -0.0643001 0
M  V30 26039 H 2472.44 4.62807 2.67794 0
M  V30 26040 H 2472.78 2.93732 2.95003 0
M  V30 26041 H 2473.31 3.70943 1.43686 0
M  V30 26042 H 2470.05 6.5396 0.449042 0
M  V30 26043 H 2469.57 5.67909 1.92974 0
M  V30 26044 H 2471.25 6.23636 1.72299 0
M  V30 26045 N 2471.38 -0.369261 1.53213 0
M  V30 26046 C 2472.8 -0.710687 1.42903 0
M  V30 26047 C 2473 -1.93412 0.565169 0
M  V30 26048 O 2472.06 -2.52458 0.0461928 0
M  V30 26049 C 2473.37 -0.927332 2.86044 0
M  V30 26050 C 2474.92 -1.02757 2.95652 0
M  V30 26051 C 2475.39 -1.27671 4.39845 0
M  V30 26052 N 2476.88 -1.3445 4.43258 0
M  V30 26053 C 2477.62 -1.5543 5.51932 0
M  V30 26054 N 2477.11 -1.73751 6.70658 0
M  V30 26055 N 2478.91 -1.57769 5.39505 0
M  V30 26056 H 2471.06 0.435493 2.07888 0
M  V30 26057 H 2473.32 0.132755 0.938659 0
M  V30 26058 H 2473.03 -0.100225 3.51557 0
M  V30 26059 H 2472.9 -1.83647 3.29475 0
M  V30 26060 H 2475.29 -1.84523 2.30294 0
M  V30 26061 H 2475.37 -0.0959054 2.5562 0
M  V30 26062 H 2475.01 -0.464086 5.05775 0
M  V30 26063 H 2474.94 -2.22154 4.77446 0
M  V30 26064 H 2477.43 -1.2192 3.57693 0
M  V30 26065 H 2477.75 -1.89322 7.49251 0
M  V30 26066 H 2476.09 -1.70936 6.73651 0
M  V30 26067 H 2479.28 -1.43021 4.45716 0
M  V30 26068 H 2479.46 -1.73779 6.24263 0
M  V30 26069 N 2472.86 -1.4451 -0.628851 0
M  V30 26070 C 2474.09 -1.50681 -1.41346 0
M  V30 26071 C 2474.5 -0.131108 -1.88745 0
M  V30 26072 O 2473.84 0.873681 -1.61594 0
M  V30 26073 C 2473.9 -2.4117 -2.66603 0
M  V30 26074 C 2473.57 -3.88297 -2.40986 0
M  V30 26075 C 2474.57 -4.7877 -2.02672 0
M  V30 26076 C 2472.25 -4.33021 -2.54555 0
M  V30 26077 C 2474.24 -6.11966 -1.78258 0
M  V30 26078 C 2471.93 -5.66264 -2.29756 0
M  V30 26079 C 2472.93 -6.55555 -1.91667 0
M  V30 26080 O 2472.62 -7.86332 -1.67144 0
M  V30 26081 H 2472.35 -0.513337 -0.439842 0
M  V30 26082 H 2474.9 -1.90175 -0.77605 0
M  V30 26083 H 2473.13 -1.96607 -3.3299 0
M  V30 26084 H 2474.82 -2.38264 -3.28611 0
M  V30 26085 H 2475.59 -4.45488 -1.91743 0
M  V30 26086 H 2471.47 -3.63778 -2.83173 0
M  V30 26087 H 2475.01 -6.81621 -1.48453 0
M  V30 26088 H 2470.91 -5.99106 -2.40295 0
M  V30 26089 H 2471.68 -7.98152 -1.81372 0
M  V30 26090 N 2474.34 0.869463 -1.31446 0
M  V30 26091 C 2475.62 1.60501 -1.11797 0
M  V30 26092 C 2476 2.0855 0.327131 0
M  V30 26093 O 2475.34 1.86423 1.32132 0
M  V30 26094 C 2475.55 2.76261 -2.13262 0
M  V30 26095 C 2476.9 3.46211 -2.45811 0
M  V30 26096 O 2477.93 2.86469 -2.11693 0
M  V30 26097 O 2476.79 4.53985 -3.04236 0
M  V30 26098 H 2473.88 0.706156 -0.430433 0
M  V30 26099 H 2476.43 0.914882 -1.42927 0
M  V30 26100 H 2475.2 2.38174 -3.10465 0
M  V30 26101 H 2474.82 3.52961 -1.83042 0
M  V30 26102 N 2475.82 1.14415 1.08383 0
M  V30 26103 C 2477.05 0.934676 1.84248 0
M  V30 26104 C 2477.46 -0.520202 1.81908 0
M  V30 26105 O 2476.8 -1.37224 1.22128 0
M  V30 26106 C 2476.86 1.35834 3.3285 0
M  V30 26107 C 2476.52 2.82881 3.58925 0
M  V30 26108 C 2477.52 3.80996 3.53749 0
M  V30 26109 C 2475.21 3.20299 3.86928 0
M  V30 26110 C 2477.2 5.14536 3.76207 0
M  V30 26111 C 2474.89 4.54016 4.09039 0
M  V30 26112 C 2475.89 5.50943 4.03672 0
M  V30 26113 O 2475.57 6.82245 4.25202 0
M  V30 26114 H 2475.31 0.332638 0.588496 0
M  V30 26115 H 2477.86 1.52326 1.37789 0
M  V30 26116 H 2476.09 0.713085 3.80068 0
M  V30 26117 H 2477.78 1.11964 3.90152 0
M  V30 26118 H 2478.54 3.53434 3.32129 0
M  V30 26119 H 2474.42 2.45448 3.90226 0
M  V30 26120 H 2477.97 5.90179 3.71933 0
M  V30 26121 H 2473.86 4.81297 4.30143 0
M  V30 26122 H 2474.63 6.88507 4.42606 0
M  V30 26123 N 2477.3 -1.26549 0.939309 0
M  V30 26124 C 2478.26 -2.24698 0.452026 0
M  V30 26125 C 2479.26 -1.54781 -0.435842 0
M  V30 26126 O 2480.45 -1.72604 -0.235284 0
M  V30 26127 C 2477.58 -3.39111 -0.348741 0
M  V30 26128 H 2478.77 -2.6932 1.31935 0
M  V30 26129 H 2476.33 -1.38672 0.721096 0
M  V30 26130 H 2477.06 -2.99889 -1.23439 0
M  V30 26131 H 2476.85 -3.91041 0.288014 0
M  V30 26132 H 2478.34 -4.12032 -0.679654 0
M  V30 26133 N 2478.77 -0.706118 -1.40896 0
M  V30 26134 C 2480 -0.250923 -2.05373 0
M  V30 26135 C 2480.42 1.10378 -1.53174 0
M  V30 26136 O 2479.77 1.69184 -0.684335 0
M  V30 26137 C 2479.82 -0.211634 -3.6088 0
M  V30 26138 O 2479.55 -1.51283 -4.11151 0
M  V30 26139 C 2481.05 0.263268 -4.42518 0
M  V30 26140 H 2478.27 -0.114564 -0.661148 0
M  V30 26141 H 2480.81 -0.961666 -1.80478 0
M  V30 26142 H 2478.97 0.450005 -3.84777 0
M  V30 26143 H 2479.38 -1.40698 -5.05277 0
M  V30 26144 H 2480.85 0.239621 -5.5148 0
M  V30 26145 H 2481.33 1.30389 -4.19399 0
M  V30 26146 H 2481.94 -0.367751 -4.23707 0
M  V30 26147 N 2480.25 1.50991 -0.451617 0
M  V30 26148 C 2481.2 2.28091 0.352585 0
M  V30 26149 C 2482.17 1.32293 1.00438 0
M  V30 26150 O 2483.35 1.61212 1.02055 0
M  V30 26151 C 2480.49 3.13631 1.43977 0
M  V30 26152 C 2479.61 4.24439 0.804697 0
M  V30 26153 C 2478.74 4.97267 1.86813 0
M  V30 26154 C 2477.78 5.99976 1.21226 0
M  V30 26155 N 2476.92 6.66156 2.21768 0
M  V30 26156 H 2481.76 2.9637 -0.311238 0
M  V30 26157 H 2479.29 1.46168 -0.165333 0
M  V30 26158 H 2481.25 3.61563 2.08155 0
M  V30 26159 H 2479.88 2.47438 2.07303 0
M  V30 26160 H 2478.93 3.80366 0.050846 0
M  V30 26161 H 2480.25 4.97979 0.285989 0
M  V30 26162 H 2479.4 5.48818 2.58619 0
M  V30 26163 H 2478.14 4.23389 2.4206 0
M  V30 26164 H 2477.14 5.47703 0.479732 0
M  V30 26165 H 2478.37 6.75817 0.666933 0
M  V30 26166 H 2476.32 5.95082 2.76069 0
M  V30 26167 H 2476.23 7.35507 1.74828 0
M  V30 26168 H 2477.5 7.22332 2.93013 0
M  V30 26169 N 2481.73 0.183486 1.56528 0
M  V30 26170 C 2482.96 -0.46425 2.01624 0
M  V30 26171 C 2483.37 -1.55985 1.06368 0
M  V30 26172 O 2482.73 -1.82379 0.0665718 0
M  V30 26173 C 2482.78 -1.03133 3.46476 0
M  V30 26174 O 2482.5 0.0205445 4.38095 0
M  V30 26175 C 2484 -1.75609 4.07033 0
M  V30 26176 H 2481.22 -0.117692 0.660598 0
M  V30 26177 H 2483.77 0.288786 2.02451 0
M  V30 26178 H 2481.92 -1.7348 3.46386 0
M  V30 26179 H 2482.34 -0.39986 5.22974 0
M  V30 26180 H 2483.81 -2.10533 5.10274 0
M  V30 26181 H 2484.29 -2.65557 3.49823 0
M  V30 26182 H 2484.89 -1.09875 4.10862 0
M  V30 26183 N 2483.21 -1.57342 -0.0901833 0
M  V30 26184 C 2484.46 -1.85969 -0.791209 0
M  V30 26185 C 2484.78 -0.77289 -1.79029 0
M  V30 26186 O 2484.05 0.200364 -1.94873 0
M  V30 26187 H 2482.63 -0.6862 -0.295193 0
M  V30 26188 H 2485.29 -1.94772 -0.070644 0
M  V30 26189 H 2484.38 -2.82869 -1.31877 0
M  V30 26190 N 2484.69 0.36113 -1.53407 0
M  V30 26191 C 2485.62 1.46282 -1.76449 0
M  V30 26192 C 2486.63 1.49463 -0.645348 0
M  V30 26193 O 2487.82 1.52862 -0.921708 0
M  V30 26194 C 2484.92 2.85028 -1.83337 0
M  V30 26195 C 2484.09 3.05492 -3.13039 0
M  V30 26196 C 2483.15 4.24377 -3.11112 0
M  V30 26197 O 2482.18 4.19338 -3.84896 0
M  V30 26198 N 2483.38 5.32018 -2.32243 0
M  V30 26199 H 2486.15 1.26894 -2.71511 0
M  V30 26200 H 2483.71 0.550888 -1.52239 0
M  V30 26201 H 2485.7 3.62705 -1.7952 0
M  V30 26202 H 2484.27 2.97642 -0.955395 0
M  V30 26203 H 2483.49 2.15436 -3.30122 0
M  V30 26204 H 2484.78 3.16037 -3.98746 0
M  V30 26205 H 2484.17 5.38976 -1.71816 0
M  V30 26206 H 2482.73 6.08255 -2.34241 0
M  V30 26207 N 2486.16 1.44842 0.621179 0
M  V30 26208 C 2487.4 1.49677 1.39199 0
M  V30 26209 C 2487.77 0.129798 1.91561 0
M  V30 26210 O 2488.97 0.0528286 2.68748 0
M  V30 26211 C 2487.24 2.53542 2.51896 0
M  V30 26212 S 2488.8 2.775 3.39911 0
M  V30 26213 H 2485.62 0.529277 0.474749 0
M  V30 26214 H 2488.22 1.81832 0.718139 0
M  V30 26215 H 2486.92 3.51551 2.11755 0
M  V30 26216 H 2486.45 2.22992 3.24096 0
M  V30 26217 H 2488.47 2.09848 4.49642 0
M  V30 26218 N 2487.64 -0.862479 1.31905 0
M  V30 26219 C 2488.89 -1.6129 1.21778 0
M  V30 26220 C 2489.21 -1.93728 -0.222378 0
M  V30 26221 O 2488.48 -1.58949 -1.14508 0
M  V30 26222 H 2487.06 -0.597954 0.447728 0
M  V30 26223 H 2489.72 -1.03212 1.65328 0
M  V30 26224 H 2488.82 -2.55326 1.79485 0
M  V30 26225 N 2489.12 -1.14988 -1.07775 0
M  V30 26226 C 2490.37 -0.920266 -1.79932 0
M  V30 26227 C 2490.69 0.554303 -1.86956 0
M  V30 26228 O 2489.96 1.40289 -1.36733 0
M  V30 26229 H 2488.54 -0.337485 -0.666418 0
M  V30 26230 H 2491.2 -1.4497 -1.30267 0
M  V30 26231 H 2490.3 -1.32588 -2.82537 0
M  V30 26232 N 2490.6 1.26049 -0.946007 0
M  V30 26233 C 2491.84 1.93813 -0.597036 0
M  V30 26234 C 2492.18 1.73998 0.862454 0
M  V30 26235 O 2491.45 1.07989 1.61767 0
M  V30 26236 C 2491.74 3.47452 -0.945998 0
M  V30 26237 C 2491.59 3.76531 -2.46058 0
M  V30 26238 C 2492.91 4.37638 -0.464862 0
M  V30 26239 H 2490.03 0.703903 -0.218378 0
M  V30 26240 H 2492.67 1.48829 -1.1811 0
M  V30 26241 H 2490.82 3.85897 -0.44897 0
M  V30 26242 H 2492.49 3.47772 -3.03071 0
M  V30 26243 H 2490.73 3.22438 -2.902 0
M  V30 26244 H 2491.4 4.83942 -2.65526 0
M  V30 26245 H 2493.88 4.06447 -0.891087 0
M  V30 26246 H 2492.76 5.43919 -0.737808 0
M  V30 26247 H 2493.02 4.37513 0.635197 0
M  V30 26248 N 2492.08 0.71358 1.4052 0
M  V30 26249 C 2493.01 0.0744274 2.33381 0
M  V30 26250 C 2493.99 -0.747709 1.52785 0
M  V30 26251 O 2495.17 -0.69704 1.81259 0
M  V30 26252 C 2492.3 -0.849539 3.36749 0
M  V30 26253 C 2491.26 -0.133172 4.27793 0
M  V30 26254 C 2490.58 -1.17272 5.21681 0
M  V30 26255 C 2491.88 1.01143 5.12413 0
M  V30 26256 H 2493.58 0.850057 2.87079 0
M  V30 26257 H 2491.12 0.410226 1.38033 0
M  V30 26258 H 2493.08 -1.30605 4.0065 0
M  V30 26259 H 2491.8 -1.65704 2.81442 0
M  V30 26260 H 2490.46 0.303491 3.65342 0
M  V30 26261 H 2490.11 -1.97322 4.6268 0
M  V30 26262 H 2489.81 -0.698294 5.83436 0
M  V30 26263 H 2491.33 -1.62937 5.88459 0
M  V30 26264 H 2492.74 0.634374 5.69779 0
M  V30 26265 H 2491.14 1.41409 5.83201 0
M  V30 26266 H 2492.21 1.843 4.48511 0
M  V30 26267 N 2493.55 -1.50749 0.459618 0
M  V30 26268 C 2494.79 -2.04164 -0.0982042 0
M  V30 26269 C 2495.16 -1.33483 -1.38008 0
M  V30 26270 O 2496.36 -1.77391 -2.01955 0
M  V30 26271 C 2494.63 -3.56226 -0.289404 0
M  V30 26272 S 2496.19 -4.31307 -0.807432 0
M  V30 26273 H 2493.01 -0.710679 -0.021372 0
M  V30 26274 H 2495.61 -1.8527 0.624131 0
M  V30 26275 H 2494.31 -4.05227 0.649532 0
M  V30 26276 H 2493.84 -3.79454 -1.03818 0
M  V30 26277 H 2495.86 -4.50393 -2.08232 0
M  V30 26278 N 2495.03 -0.191784 -1.56429 0
M  V30 26279 C 2496 0.71665 -2.17708 0
M  V30 26280 C 2497 1.14339 -1.13063 0
M  V30 26281 O 2498.19 1.05702 -1.38466 0
M  V30 26282 C 2495.32 1.97799 -2.77648 0
M  V30 26283 H 2496.51 0.182847 -2.99342 0
M  V30 26284 H 2494.06 0.0578291 -1.56193 0
M  V30 26285 H 2494.8 2.55439 -1.99803 0
M  V30 26286 H 2494.58 1.68077 -3.54249 0
M  V30 26287 H 2496.07 2.62586 -3.24712 0
M  V30 26288 N 2496.51 1.57387 0.0818378 0
M  V30 26289 C 2497.74 1.90972 0.796074 0
M  V30 26290 C 2498.15 0.786787 1.71625 0
M  V30 26291 O 2497.51 -0.240481 1.80909 0
M  V30 26292 C 2497.56 3.24251 1.59823 0
M  V30 26293 O 2497.28 4.32225 0.715056 0
M  V30 26294 C 2498.78 3.71785 2.41436 0
M  V30 26295 H 2496 0.631473 0.226899 0
M  V30 26296 H 2498.55 2.04426 0.055108 0
M  V30 26297 H 2496.7 3.12355 2.29157 0
M  V30 26298 H 2497.12 5.08843 1.27196 0
M  V30 26299 H 2498.59 4.67699 2.93192 0
M  V30 26300 H 2499.07 3.00289 3.20505 0
M  V30 26301 H 2499.67 3.86592 1.77276 0
M  V30 26302 N 2497.99 -0.35299 1.53596 0
M  V30 26303 C 2499.24 -1.09212 1.70051 0
M  V30 26304 C 2499.56 -1.89462 0.46144 0
M  V30 26305 O 2498.83 -1.88745 -0.5246 0
M  V30 26306 H 2497.41 -0.406179 0.626919 0
M  V30 26307 H 2500.07 -0.396551 1.90823 0
M  V30 26308 H 2499.17 -1.77484 2.56722 0
M  V30 26309 N 2499.47 -1.45169 -0.613489 0
M  V30 26310 C 2500.41 -1.5339 -1.72454 0
M  V30 26311 C 2501.38 -0.38022 -1.6169 0
M  V30 26312 O 2502.57 -0.592868 -1.81355 0
M  V30 26313 C 2499.71 -1.50094 -3.10751 0
M  V30 26314 C 2498.82 -2.75968 -3.32363 0
M  V30 26315 C 2497.96 -2.64384 -4.60732 0
M  V30 26316 C 2497 -3.8534 -4.75583 0
M  V30 26317 N 2496.13 -3.72326 -5.95246 0
M  V30 26318 H 2500.97 -2.48308 -1.64764 0
M  V30 26319 H 2498.51 -1.23218 -0.803481 0
M  V30 26320 H 2500.47 -1.46171 -3.90755 0
M  V30 26321 H 2499.1 -0.587299 -3.17412 0
M  V30 26322 H 2498.15 -2.90003 -2.46175 0
M  V30 26323 H 2499.46 -3.65701 -3.39212 0
M  V30 26324 H 2498.62 -2.58394 -5.48924 0
M  V30 26325 H 2497.36 -1.72241 -4.56272 0
M  V30 26326 H 2496.36 -3.91695 -3.85817 0
M  V30 26327 H 2497.59 -4.78541 -4.81845 0
M  V30 26328 H 2495.53 -2.82948 -5.91842 0
M  V30 26329 H 2495.45 -4.55688 -6.03228 0
M  V30 26330 H 2496.72 -3.70258 -6.85951 0
M  V30 26331 N 2500.95 0.855472 -1.32361 0
M  V30 26332 C 2502.19 1.60446 -1.22229 0
M  V30 26333 C 2502.51 1.94418 0.214698 0
M  V30 26334 O 2503.71 2.67946 0.43787 0
M  V30 26335 C 2502.17 2.89315 -2.14068 0
M  V30 26336 C 2501.78 2.62771 -3.62844 0
M  V30 26337 C 2503.52 3.67327 -2.1277 0
M  V30 26338 C 2501.43 3.87635 -4.46647 0
M  V30 26339 H 2500.36 0.602061 -0.453915 0
M  V30 26340 H 2503.01 0.94467 -1.57316 0
M  V30 26341 H 2501.39 3.56747 -1.71895 0
M  V30 26342 H 2502.57 2.03655 -4.13354 0
M  V30 26343 H 2500.88 1.9809 -3.66264 0
M  V30 26344 H 2503.48 4.59982 -2.72619 0
M  V30 26345 H 2503.82 4.00993 -1.11848 0
M  V30 26346 H 2504.35 3.06798 -2.53219 0
M  V30 26347 H 2501.09 3.5911 -5.4838 0
M  V30 26348 H 2500.61 4.46149 -4.00888 0
M  V30 26349 H 2502.29 4.55381 -4.59605 0
M  V30 26350 N 2502.42 1.15558 1.07164 0
M  V30 26351 C 2503.67 0.931636 1.79797 0
M  V30 26352 C 2504 -0.541117 1.86821 0
M  V30 26353 O 2503.25 -1.41733 1.34945 0
M  V30 26354 C 2503.55 1.49337 3.24705 0
M  V30 26355 C 2503.22 2.98694 3.37776 0
M  V30 26356 C 2501.88 3.39467 3.41051 0
M  V30 26357 C 2504.23 3.94671 3.40417 0
M  V30 26358 C 2501.56 4.74855 3.44572 0
M  V30 26359 C 2503.91 5.29933 3.45476 0
M  V30 26360 C 2502.58 5.70199 3.47029 0
M  V30 26361 H 2501.85 0.34091 0.657922 0
M  V30 26362 H 2504.49 1.44132 1.26089 0
M  V30 26363 H 2502.8 0.904926 3.81206 0
M  V30 26364 H 2504.5 1.29589 3.79484 0
M  V30 26365 H 2501.09 2.66178 3.35927 0
M  V30 26366 H 2505.27 3.64243 3.37106 0
M  V30 26367 H 2500.53 5.05394 3.44074 0
M  V30 26368 H 2504.7 6.04098 3.46466 0
M  V30 26369 H 2502.33 6.7509 3.4951 0
M  V30 26370 N 2503.9 -1.25546 0.952678 0
M  V30 26371 C 2505.15 -1.92825 0.605209 0
M  V30 26372 C 2505.47 -1.75 -0.860231 0
M  V30 26373 O 2504.74 -1.11247 -1.61248 0
M  V30 26374 H 2503.32 -0.713608 0.220844 0
M  V30 26375 H 2505.98 -1.52751 1.2105 0
M  V30 26376 H 2505.08 -3.00782 0.832851 0
M  V30 26377 N 2505.38 -0.721022 -1.40139 0
M  V30 26378 C 2506.63 -0.259839 -2.00019 0
M  V30 26379 C 2506.94 1.15524 -1.57841 0
M  V30 26380 O 2508.15 1.71522 -2.10458 0
M  V30 26381 C 2506.6 -0.413629 -3.57515 0
M  V30 26382 C 2506.21 -1.83569 -4.08664 0
M  V30 26383 C 2507.96 -0.0135133 -4.24498 0
M  V30 26384 C 2505.86 -1.93978 -5.58683 0
M  V30 26385 H 2504.79 -0.0933938 -0.748194 0
M  V30 26386 H 2507.44 -0.892894 -1.60311 0
M  V30 26387 H 2505.83 0.288099 -3.94951 0
M  V30 26388 H 2507 -2.56824 -3.82594 0
M  V30 26389 H 2505.31 -2.18776 -3.54297 0
M  V30 26390 H 2507.91 -0.0704894 -5.34654 0
M  V30 26391 H 2508.25 1.0292 -4.03377 0
M  V30 26392 H 2508.79 -0.665884 -3.92187 0
M  V30 26393 H 2505.53 -2.9639 -5.84665 0
M  V30 26394 H 2505.05 -1.25142 -5.866 0
M  V30 26395 H 2506.73 -1.71442 -6.23872 0
M  V30 26396 N 2506.86 1.50503 -0.467606 0
M  V30 26397 C 2507.81 2.25345 0.34694 0
M  V30 26398 C 2508.79 1.28791 0.964446 0
M  V30 26399 O 2509.98 1.53713 0.877573 0
M  V30 26400 C 2507.11 3.12082 1.43037 0
M  V30 26401 C 2506.2 4.16082 0.820767 0
M  V30 26402 N 2506.59 5.05768 -0.0568491 0
M  V30 26403 C 2504.89 4.32599 1.08509 0
M  V30 26404 C 2505.59 5.80306 -0.402445 0
M  V30 26405 N 2504.56 5.43148 0.221512 0
M  V30 26406 H 2508.37 2.92051 -0.32918 0
M  V30 26407 H 2505.88 1.59941 -0.281536 0
M  V30 26408 H 2507.88 3.64302 2.02706 0
M  V30 26409 H 2506.54 2.46924 2.10852 0
M  V30 26410 H 2507.55 5.1615 -0.425439 0
M  V30 26411 H 2504.23 3.7866 1.75848 0
M  V30 26412 H 2505.62 6.62526 -1.11845 0
M  V30 26413 N 2508.34 0.200077 1.56325 0
M  V30 26414 C 2509.58 -0.438024 1.98013 0
M  V30 26415 C 2509.91 -1.60925 1.08705 0
M  V30 26416 O 2509.19 -1.93995 0.140098 0
M  V30 26417 C 2509.47 -0.893358 3.48843 0
M  V30 26418 C 2509.33 0.280026 4.48927 0
M  V30 26419 C 2510.64 -1.75712 4.03501 0
M  V30 26420 H 2507.76 -0.157744 0.719921 0
M  V30 26421 H 2510.41 0.292001 1.87743 0
M  V30 26422 H 2508.56 -1.51541 3.57726 0
M  V30 26423 H 2510.23 0.9178 4.52078 0
M  V30 26424 H 2508.47 0.930993 4.23692 0
M  V30 26425 H 2509.14 -0.0811631 5.5194 0
M  V30 26426 H 2511.62 -1.23246 3.97429 0
M  V30 26427 H 2510.49 -2.04467 5.09396 0
M  V30 26428 H 2510.75 -2.71305 3.49065 0
M  V30 26429 N 2509.81 -1.57429 -0.0734901 0
M  V30 26430 C 2511.06 -1.86797 -0.77144 0
M  V30 26431 C 2511.38 -0.791835 -1.78199 0
M  V30 26432 O 2510.65 0.179684 -1.95074 0
M  V30 26433 H 2509.23 -0.689292 -0.287898 0
M  V30 26434 H 2511.89 -1.94836 -0.0499818 0
M  V30 26435 H 2510.99 -2.84252 -1.28869 0
M  V30 26436 N 2511.29 0.344839 -1.53781 0
M  V30 26437 C 2512.54 1.08308 -1.70627 0
M  V30 26438 C 2512.86 1.89214 -0.471481 0
M  V30 26439 O 2512.13 1.89021 0.514583 0
M  V30 26440 H 2510.71 0.402848 -0.629065 0
M  V30 26441 H 2513.37 0.386426 -1.91031 0
M  V30 26442 H 2512.47 1.7612 -2.57659 0
M  V30 26443 N 2512.77 1.45492 0.605781 0
M  V30 26444 C 2513.72 1.54639 1.73752 0
M  V30 26445 C 2514.71 0.416248 1.64206 0
M  V30 26446 O 2515.92 0.592229 1.69978 0
M  V30 26447 H 2512.29 0.485751 0.574064 0
M  V30 26448 H 2514.26 2.4984 1.63165 0
M  V30 26449 C 2513.01 1.53195 3.12132 0
M  V30 26450 H 2512.34 2.39483 3.20137 0
M  V30 26451 H 2513.78 1.63652 3.91144 0
M  V30 26452 C 2512.23 0.256675 3.35921 0
M  V30 26453 O 2512.76 -0.662728 3.96195 0
M  V30 26454 N 2510.97 0.151802 2.90203 0
M  V30 26455 H 2510.52 0.900852 2.41335 0
M  V30 26456 H 2510.48 -0.700646 3.06494 0
M  V30 26457 N 2514.25 -0.848441 1.32813 0
M  V30 26458 C 2515.5 -1.59989 1.23482 0
M  V30 26459 C 2515.82 -1.93953 -0.201819 0
M  V30 26460 O 2515.09 -1.60155 -1.12815 0
M  V30 26461 H 2513.67 -0.593172 0.454045 0
M  V30 26462 H 2516.33 -1.01452 1.66413 0
M  V30 26463 H 2515.43 -2.53408 1.82183 0
M  V30 26464 N 2515.73 -1.16125 -1.06549 0
M  V30 26465 C 2517.14 -0.905609 -1.31419 0
M  V30 26466 C 2517.34 0.44293 -1.96572 0
M  V30 26467 O 2516.4 1.18304 -2.23071 0
M  V30 26468 C 2517.71 -2.05271 -2.19737 0
M  V30 26469 C 2519.26 -2.08817 -2.33162 0
M  V30 26470 C 2519.73 -3.22874 -3.24833 0
M  V30 26471 N 2521.23 -3.22574 -3.32416 0
M  V30 26472 C 2521.96 -4.07467 -4.03433 0
M  V30 26473 N 2521.46 -5.02442 -4.76995 0
M  V30 26474 N 2523.25 -3.95463 -3.99457 0
M  V30 26475 H 2515.4 -2.0295 -0.626513 0
M  V30 26476 H 2517.66 -0.885406 -0.338762 0
M  V30 26477 H 2517.37 -3.0266 -1.79136 0
M  V30 26478 H 2517.24 -1.99203 -3.20309 0
M  V30 26479 H 2519.63 -1.12023 -2.73011 0
M  V30 26480 H 2519.71 -2.18951 -1.32266 0
M  V30 26481 H 2519.36 -4.19926 -2.857 0
M  V30 26482 H 2519.29 -3.09977 -4.25701 0
M  V30 26483 H 2521.78 -2.538 -2.79989 0
M  V30 26484 H 2522.09 -5.63643 -5.28703 0
M  V30 26485 H 2520.43 -5.06424 -4.75983 0
M  V30 26486 H 2523.63 -3.2057 -3.41105 0
M  V30 26487 H 2523.8 -4.61845 -4.54536 0
M  V30 26488 N 2517.2 1.25039 -0.959323 0
M  V30 26489 C 2518.14 2.24926 -0.440583 0
M  V30 26490 C 2519.15 1.56569 0.446103 0
M  V30 26491 O 2520.34 1.76689 0.253626 0
M  V30 26492 C 2517.44 3.36717 0.384061 0
M  V30 26493 C 2516.61 4.34638 -0.490735 0
M  V30 26494 C 2515.67 5.25473 0.276494 0
M  V30 26495 O 2514.7 5.68262 -0.326714 0
M  V30 26496 N 2515.9 5.58913 1.56834 0
M  V30 26497 H 2518.66 2.70068 -1.29935 0
M  V30 26498 H 2516.22 1.38994 -0.830205 0
M  V30 26499 H 2518.22 3.94448 0.905159 0
M  V30 26500 H 2516.79 2.90926 1.14372 0
M  V30 26501 H 2516.01 3.75718 -1.19289 0
M  V30 26502 H 2517.29 4.97039 -1.08765 0
M  V30 26503 H 2516.69 5.26062 2.08026 0
M  V30 26504 H 2515.25 6.19208 2.0353 0
M  V30 26505 N 2518.68 0.728444 1.39755 0
M  V30 26506 C 2519.93 0.272982 2.00248 0
M  V30 26507 C 2520.25 -1.14175 1.58079 0
M  V30 26508 O 2519.52 -1.77632 0.826046 0
M  V30 26509 H 2518.1 0.0979377 0.740552 0
M  V30 26510 H 2520.76 0.936942 1.70902 0
M  V30 26511 H 2519.86 0.316196 3.10494 0
M  V30 26512 N 2520.16 -1.50253 0.475581 0
M  V30 26513 C 2521.41 -2.0235 -0.0778563 0
M  V30 26514 C 2521.74 -1.35725 -1.39317 0
M  V30 26515 O 2520.99 -0.473428 -1.89887 0
M  V30 26516 C 2521.29 -3.56096 -0.305052 0
M  V30 26517 C 2520.96 -4.41224 0.929107 0
M  V30 26518 C 2519.62 -4.64207 1.26747 0
M  V30 26519 C 2521.97 -4.9092 1.75062 0
M  V30 26520 C 2519.3 -5.34133 2.42733 0
M  V30 26521 C 2521.65 -5.6212 2.9018 0
M  V30 26522 C 2520.31 -5.83356 3.24426 0
M  V30 26523 H 2519.58 -0.740452 -0.0284897 0
M  V30 26524 H 2522.23 -1.8082 0.630575 0
M  V30 26525 H 2520.54 -3.76165 -1.09577 0
M  V30 26526 H 2522.23 -3.93975 -0.747308 0
M  V30 26527 H 2518.82 -4.23558 0.655502 0
M  V30 26528 H 2523.01 -4.73014 1.50239 0
M  V30 26529 H 2518.26 -5.48782 2.69534 0
M  V30 26530 H 2522.44 -5.99608 3.5418 0
M  V30 26531 H 2520.06 -6.37315 4.14407 0
M  V30 26532 N 2521.64 -0.208365 -1.56217 0
M  V30 26533 C 2522.86 0.435187 -2.02783 0
M  V30 26534 C 2523.29 1.53483 -1.0874 0
M  V30 26535 O 2522.65 1.81152 -0.0732173 0
M  V30 26536 C 2522.69 0.956274 -3.47689 0
M  V30 26537 O 2521.8 2.06843 -3.56777 0
M  V30 26538 H 2521.14 0.100146 -0.656404 0
M  V30 26539 H 2523.67 -0.323135 -2.02032 0
M  V30 26540 H 2523.68 1.26948 -3.87747 0
M  V30 26541 H 2522.35 0.151357 -4.15624 0
M  V30 26542 H 2520.93 1.76286 -3.286 0
M  V30 26543 N 2523.12 1.57465 0.0651402 0
M  V30 26544 C 2524.08 2.03157 1.06113 0
M  V30 26545 C 2525.08 0.929655 1.31202 0
M  V30 26546 O 2526.27 1.19435 1.26811 0
M  V30 26547 C 2523.4 2.41788 2.40315 0
M  V30 26548 H 2524.59 2.92385 0.667179 0
M  V30 26549 H 2522.15 1.53174 0.311048 0
M  V30 26550 H 2522.88 1.55606 2.8453 0
M  V30 26551 H 2522.67 3.22203 2.23445 0
M  V30 26552 H 2524.16 2.77691 3.11893 0
M  V30 26553 N 2524.59 -0.336679 1.53962 0
M  V30 26554 C 2525.53 -1.43457 1.78753 0
M  V30 26555 C 2526.54 -1.48417 0.669045 0
M  V30 26556 O 2527.73 -1.51376 0.94591 0
M  V30 26557 C 2524.83 -2.82075 1.87848 0
M  V30 26558 C 2524 -3.00473 3.17859 0
M  V30 26559 C 2523.06 -4.19374 3.17824 0
M  V30 26560 O 2522.09 -4.13161 3.91518 0
M  V30 26561 N 2523.29 -5.28256 2.40678 0
M  V30 26562 H 2526.05 -1.22558 2.73495 0
M  V30 26563 H 2523.61 -0.526598 1.53097 0
M  V30 26564 H 2525.61 -3.59803 1.85268 0
M  V30 26565 H 2524.18 -2.96085 1.00263 0
M  V30 26566 H 2523.4 -2.10157 3.33508 0
M  V30 26567 H 2524.68 -3.09653 4.03723 0
M  V30 26568 H 2524.08 -5.36175 1.80369 0
M  V30 26569 H 2522.64 -6.04452 2.43888 0
M  V30 26570 N 2526.07 -1.45812 -0.598057 0
M  V30 26571 C 2527 -1.5806 -1.7187 0
M  V30 26572 C 2527.98 -0.431644 -1.64532 0
M  V30 26573 O 2529.17 -0.655982 -1.82785 0
M  V30 26574 C 2526.3 -1.55602 -3.10492 0
M  V30 26575 C 2525.25 -2.69311 -3.32649 0
M  V30 26576 C 2524.58 -2.5191 -4.71641 0
M  V30 26577 C 2525.88 -4.11254 -3.21974 0
M  V30 26578 H 2527.57 -2.51866 -1.61876 0
M  V30 26579 H 2525.12 -1.21216 -0.777351 0
M  V30 26580 H 2527.07 -1.62767 -3.88697 0
M  V30 26581 H 2525.8 -0.583311 -3.21349 0
M  V30 26582 H 2524.45 -2.61591 -2.56838 0
M  V30 26583 H 2524.1 -1.52757 -4.79244 0
M  V30 26584 H 2523.8 -3.28169 -4.87421 0
M  V30 26585 H 2525.33 -2.60943 -5.52034 0
M  V30 26586 H 2526.74 -4.20168 -3.90041 0
M  V30 26587 H 2525.14 -4.87979 -3.49281 0
M  V30 26588 H 2526.21 -4.3249 -2.19272 0
M  V30 26589 N 2527.55 0.841385 -1.33261 0
M  V30 26590 C 2528.5 1.95101 -1.23305 0
M  V30 26591 C 2529.47 1.6572 -0.112233 0
M  V30 26592 O 2530.65 1.88582 -0.290072 0
M  V30 26593 C 2527.79 3.31022 -0.975641 0
M  V30 26594 C 2526.91 3.72815 -2.18249 0
M  V30 26595 C 2526.04 4.97592 -1.85945 0
M  V30 26596 C 2525.08 5.31914 -3.02876 0
M  V30 26597 N 2524.22 6.47868 -2.70576 0
M  V30 26598 H 2529.06 2.02948 -2.18211 0
M  V30 26599 H 2526.59 0.993154 -1.08512 0
M  V30 26600 H 2528.55 4.09324 -0.806842 0
M  V30 26601 H 2527.18 3.22738 -0.0633322 0
M  V30 26602 H 2526.23 2.90057 -2.46112 0
M  V30 26603 H 2527.55 3.94164 -3.05673 0
M  V30 26604 H 2526.7 5.83636 -1.65694 0
M  V30 26605 H 2525.44 4.78208 -0.957536 0
M  V30 26606 H 2524.44 4.44376 -3.23743 0
M  V30 26607 H 2525.67 5.53248 -3.93818 0
M  V30 26608 H 2523.61 6.29975 -1.82941 0
M  V30 26609 H 2523.53 6.693 -3.51531 0
M  V30 26610 H 2524.8 7.3703 -2.53787 0
M  V30 26611 N 2529.03 1.16688 1.05932 0
M  V30 26612 C 2529.98 0.876786 2.13497 0
M  V30 26613 C 2530.95 -0.17627 1.65162 0
M  V30 26614 O 2532.13 -0.0406807 1.90757 0
M  V30 26615 C 2529.27 0.388027 3.42912 0
M  V30 26616 C 2528.38 1.50433 4.04961 0
M  V30 26617 C 2527.52 0.970217 5.22265 0
M  V30 26618 C 2526.56 2.06248 5.76306 0
M  V30 26619 N 2525.7 1.54368 6.8492 0
M  V30 26620 H 2530.54 1.79794 2.37651 0
M  V30 26621 H 2528.07 0.896863 1.16597 0
M  V30 26622 H 2530.03 0.0862593 4.17111 0
M  V30 26623 H 2528.66 -0.496179 3.18964 0
M  V30 26624 H 2527.71 1.92199 3.28274 0
M  V30 26625 H 2529.02 2.32844 4.41118 0
M  V30 26626 H 2528.18 0.621849 6.03505 0
M  V30 26627 H 2526.92 0.115463 4.87563 0
M  V30 26628 H 2525.92 2.41951 4.937 0
M  V30 26629 H 2527.15 2.92126 6.13057 0
M  V30 26630 H 2525.09 0.71152 6.5213 0
M  V30 26631 H 2525.01 2.30392 7.20039 0
M  V30 26632 H 2526.28 1.22401 7.6983 0
M  V30 26633 N 2530.51 -1.24529 0.96594 0
M  V30 26634 C 2531.44 -2.24689 0.452505 0
M  V30 26635 C 2532.45 -1.56803 -0.437794 0
M  V30 26636 O 2533.64 -1.76821 -0.244252 0
M  V30 26637 C 2530.74 -3.36916 -0.366199 0
M  V30 26638 C 2529.91 -4.34372 0.513778 0
M  V30 26639 C 2528.97 -5.25612 -0.248623 0
M  V30 26640 O 2528 -5.6808 0.356845 0
M  V30 26641 N 2529.2 -5.59737 -1.53867 0
M  V30 26642 H 2531.97 -2.69375 1.31366 0
M  V30 26643 H 2529.53 -1.38551 0.837565 0
M  V30 26644 H 2531.52 -3.94922 -0.884228 0
M  V30 26645 H 2530.09 -2.91528 -1.12827 0
M  V30 26646 H 2529.31 -3.7508 1.2128 0
M  V30 26647 H 2530.6 -4.96455 1.11399 0
M  V30 26648 H 2530 -5.27158 -2.05234 0
M  V30 26649 H 2528.55 -6.20279 -2.00244 0
M  V30 26650 N 2531.99 -0.735845 -1.39367 0
M  V30 26651 C 2533.22 -0.294002 -2.04497 0
M  V30 26652 C 2533.62 1.07642 -1.55595 0
M  V30 26653 O 2532.97 1.69157 -0.716353 0
M  V30 26654 C 2533.03 -0.218405 -3.58836 0
M  V30 26655 C 2532.69 -1.52744 -4.30718 0
M  V30 26656 C 2533.69 -2.4733 -4.57301 0
M  V30 26657 C 2531.37 -1.79197 -4.69248 0
M  V30 26658 C 2533.37 -3.66602 -5.21423 0
M  V30 26659 C 2531.06 -2.98746 -5.33098 0
M  V30 26660 C 2532.05 -3.9227 -5.59118 0
M  V30 26661 O 2531.74 -5.09719 -6.21644 0
M  V30 26662 H 2531.47 -0.126201 -0.664115 0
M  V30 26663 H 2534.03 -1.00055 -1.79383 0
M  V30 26664 H 2532.26 0.544247 -3.82851 0
M  V30 26665 H 2533.95 0.191555 -4.05448 0
M  V30 26666 H 2534.71 -2.28164 -4.27979 0
M  V30 26667 H 2530.59 -1.07246 -4.48352 0
M  V30 26668 H 2534.14 -4.39616 -5.41649 0
M  V30 26669 H 2530.03 -3.17813 -5.61841 0
M  V30 26670 H 2530.8 -5.10065 -6.40138 0
M  V30 26671 N 2533.46 1.49999 -0.483543 0
M  V30 26672 C 2534.71 2.02389 0.0671241 0
M  V30 26673 C 2535.04 1.36461 1.38595 0
M  V30 26674 O 2534.29 0.483492 1.89633 0
M  V30 26675 C 2534.59 3.56253 0.286163 0
M  V30 26676 C 2534.26 4.40725 -0.952494 0
M  V30 26677 C 2532.92 4.63529 -1.29207 0
M  V30 26678 C 2535.27 4.89985 -1.77663 0
M  V30 26679 C 2532.6 5.32838 -2.45562 0
M  V30 26680 C 2534.95 5.60573 -2.93157 0
M  V30 26681 C 2533.62 5.81627 -3.27515 0
M  V30 26682 H 2532.89 0.740593 0.0245625 0
M  V30 26683 H 2535.53 1.80483 -0.640155 0
M  V30 26684 H 2533.84 3.76741 1.07581 0
M  V30 26685 H 2535.54 3.94366 0.726404 0
M  V30 26686 H 2532.13 4.23204 -0.677955 0
M  V30 26687 H 2536.31 4.7221 -1.52745 0
M  V30 26688 H 2531.57 5.47344 -2.72441 0
M  V30 26689 H 2535.74 5.97721 -3.57355 0
M  V30 26690 H 2533.37 6.35109 -4.17781 0
M  V30 26691 N 2534.94 0.216646 1.56104 0
M  V30 26692 C 2536.19 -0.416998 1.98467 0
M  V30 26693 C 2536.52 -1.59763 1.10405 0
M  V30 26694 O 2535.8 -1.93835 0.160666 0
M  V30 26695 C 2536.08 -0.856308 3.4977 0
M  V30 26696 C 2535.93 0.327625 4.48605 0
M  V30 26697 C 2537.25 -1.71423 4.05342 0
M  V30 26698 H 2534.37 -0.150099 0.721553 0
M  V30 26699 H 2537.01 0.311897 1.87423 0
M  V30 26700 H 2535.16 -1.47738 3.59313 0
M  V30 26701 H 2536.83 0.965697 4.51079 0
M  V30 26702 H 2535.08 0.975879 4.22681 0
M  V30 26703 H 2535.75 -0.0226179 5.51995 0
M  V30 26704 H 2538.22 -1.19024 3.98714 0
M  V30 26705 H 2537.1 -1.99052 5.11536 0
M  V30 26706 H 2537.36 -2.67587 3.51923 0
M  V30 26707 N 2536.42 -1.57498 -0.0567885 0
M  V30 26708 C 2537.33 -2.08085 -1.08342 0
M  V30 26709 C 2538.35 -1.01349 -1.41437 0
M  V30 26710 O 2539.52 -1.32914 -1.51313 0
M  V30 26711 C 2536.59 -2.52719 -2.37347 0
M  V30 26712 C 2535.65 -3.73819 -2.11087 0
M  V30 26713 C 2534.88 -4.16316 -3.33941 0
M  V30 26714 O 2535.1 -3.58555 -4.43615 0
M  V30 26715 O 2534.04 -5.08988 -3.2127 0
M  V30 26716 H 2537.86 -2.95906 -0.683615 0
M  V30 26717 H 2535.45 -1.46904 -0.271939 0
M  V30 26718 H 2537.33 -2.81883 -3.13241 0
M  V30 26719 H 2536.01 -1.68021 -2.76678 0
M  V30 26720 H 2534.91 -3.49717 -1.3285 0
M  V30 26721 H 2536.25 -4.59416 -1.76629 0
M  V30 26722 N 2537.9 0.328509 -1.54138 0
M  V30 26723 C 2538.84 1.40408 -1.83178 0
M  V30 26724 C 2539.81 1.51609 -0.678521 0
M  V30 26725 O 2541 1.66908 -0.924459 0
M  V30 26726 C 2538.14 2.76842 -2.0604 0
M  V30 26727 C 2537.25 2.74312 -3.33732 0
M  V30 26728 C 2536.39 4.02561 -3.46581 0
M  V30 26729 C 2535.43 3.94319 -4.68166 0
M  V30 26730 N 2534.56 5.14287 -4.77968 0
M  V30 26731 H 2539.4 1.14944 -2.7494 0
M  V30 26732 H 2536.94 0.556514 -1.36167 0
M  V30 26733 H 2538.9 3.5615 -2.17286 0
M  V30 26734 H 2537.53 3.00626 -1.17575 0
M  V30 26735 H 2536.58 1.87024 -3.31249 0
M  V30 26736 H 2537.89 2.64103 -4.23144 0
M  V30 26737 H 2537.05 4.90298 -3.57342 0
M  V30 26738 H 2535.79 4.15569 -2.55252 0
M  V30 26739 H 2534.79 3.04966 -4.57467 0
M  V30 26740 H 2536.02 3.8288 -5.60874 0
M  V30 26741 H 2533.96 5.27811 -3.89553 0
M  V30 26742 H 2533.88 5.06394 -5.61338 0
M  V30 26743 H 2535.15 6.03753 -4.93055 0
M  V30 26744 N 2539.38 1.46127 0.590316 0
M  V30 26745 C 2540.31 1.52139 1.71424 0
M  V30 26746 C 2541.32 0.410447 1.57541 0
M  V30 26747 O 2542.51 0.678418 1.65105 0
M  V30 26748 C 2539.61 1.3784 3.09602 0
M  V30 26749 C 2538.78 2.62918 3.49561 0
M  V30 26750 C 2537.84 2.42927 4.66769 0
M  V30 26751 O 2536.87 3.16618 4.73013 0
M  V30 26752 N 2538.07 1.486 5.61158 0
M  V30 26753 H 2540.83 2.49045 1.66724 0
M  V30 26754 H 2538.4 1.42086 0.776088 0
M  V30 26755 H 2540.39 1.22249 3.85794 0
M  V30 26756 H 2538.96 0.491448 3.08713 0
M  V30 26757 H 2538.18 2.93504 2.63153 0
M  V30 26758 H 2539.47 3.46023 3.73022 0
M  V30 26759 H 2538.86 0.878178 5.58842 0
M  V30 26760 H 2537.42 1.38976 6.36812 0
M  V30 26761 N 2540.85 -0.834306 1.33705 0
M  V30 26762 C 2542.1 -1.58671 1.25172 0
M  V30 26763 C 2542.42 -1.94156 -0.181236 0
M  V30 26764 O 2541.69 -1.61342 -1.1111 0
M  V30 26765 H 2540.27 -0.588322 0.460311 0
M  V30 26766 H 2542.93 -0.996817 1.6748 0
M  V30 26767 H 2542.03 -2.51462 1.8486 0
M  V30 26768 N 2542.33 -1.17248 -1.05312 0
M  V30 26769 C 2543.26 -0.845849 -2.13021 0
M  V30 26770 C 2544.28 0.151217 -1.62096 0
M  V30 26771 O 2545.47 -0.0749132 -1.78343 0
M  V30 26772 C 2542.57 -0.240351 -3.38047 0
M  V30 26773 C 2541.74 -1.27998 -4.18253 0
M  V30 26774 C 2540.8 -0.692467 -5.21624 0
M  V30 26775 O 2539.82 -1.36395 -5.52617 0
M  V30 26776 N 2541.03 0.516076 -5.78201 0
M  V30 26777 H 2543.79 -1.77288 -2.41639 0
M  V30 26778 H 2541.35 -1.07117 -1.21399 0
M  V30 26779 H 2543.34 0.165959 -4.0436 0
M  V30 26780 H 2541.91 0.590433 -3.06973 0
M  V30 26781 H 2541.13 -1.86209 -3.47448 0
M  V30 26782 H 2542.42 -1.98127 -4.6864 0
M  V30 26783 H 2541.82 1.07959 -5.55303 0
M  V30 26784 H 2540.38 0.864466 -6.46042 0
M  V30 26785 N 2543.81 1.24015 -0.972531 0
M  V30 26786 C 2545.06 1.92503 -0.638012 0
M  V30 26787 C 2545.39 1.75788 0.825352 0
M  V30 26788 O 2544.66 1.11396 1.5944 0
M  V30 26789 C 2544.95 3.45367 -1.01948 0
M  V30 26790 C 2544.8 3.71227 -2.5399 0
M  V30 26791 C 2546.12 4.36554 -0.557587 0
M  V30 26792 H 2543.24 0.699113 -0.23326 0
M  V30 26793 H 2545.88 1.4629 -1.2124 0
M  V30 26794 H 2544.03 3.84858 -0.530723 0
M  V30 26795 H 2545.7 3.41266 -3.1038 0
M  V30 26796 H 2543.95 3.1621 -2.96974 0
M  V30 26797 H 2544.62 4.78201 -2.75731 0
M  V30 26798 H 2547.09 4.04465 -0.9771 0
M  V30 26799 H 2545.97 5.42231 -0.853015 0
M  V30 26800 H 2546.23 4.38762 0.542251 0
M  V30 26801 N 2545.29 0.743226 1.38974 0
M  V30 26802 C 2546.54 0.291627 1.99581 0
M  V30 26803 C 2546.85 -1.12998 1.59658 0
M  V30 26804 O 2548.06 -1.68152 2.1316 0
M  V30 26805 C 2546.51 0.470454 3.56812 0
M  V30 26806 C 2546.12 1.90048 4.05692 0
M  V30 26807 C 2547.86 0.0810455 4.24423 0
M  V30 26808 C 2545.77 2.02842 5.55526 0
M  V30 26809 H 2544.7 0.105285 0.746613 0
M  V30 26810 H 2547.35 0.918286 1.5887 0
M  V30 26811 H 2545.73 -0.225229 3.95359 0
M  V30 26812 H 2546.91 2.62878 3.7846 0
M  V30 26813 H 2545.22 2.24385 3.50771 0
M  V30 26814 H 2547.82 0.155539 5.34474 0
M  V30 26815 H 2548.16 -0.964899 4.04963 0
M  V30 26816 H 2548.7 0.728193 3.91078 0
M  V30 26817 H 2545.44 3.05654 5.79876 0
M  V30 26818 H 2544.96 1.34458 5.84535 0
M  V30 26819 H 2546.63 1.81346 6.21066 0
M  V30 26820 N 2546.77 -1.4974 0.491491 0
M  V30 26821 C 2547.73 -2.27473 -0.280866 0
M  V30 26822 C 2548.73 -1.3309 -0.90243 0
M  V30 26823 O 2549.92 -1.56335 -0.768438 0
M  V30 26824 C 2547.05 -3.10734 -1.40203 0
M  V30 26825 H 2548.24 -2.97206 0.401109 0
M  V30 26826 H 2545.8 -1.54349 0.246159 0
M  V30 26827 H 2546.53 -2.45545 -2.11844 0
M  V30 26828 H 2546.32 -3.80118 -0.961903 0
M  V30 26829 H 2547.81 -3.69469 -1.94633 0
M  V30 26830 N 2548.24 -0.224922 -1.55987 0
M  V30 26831 C 2549.66 0.130398 -1.59066 0
M  V30 26832 C 2549.86 1.58688 -1.24179 0
M  V30 26833 O 2548.92 2.32764 -0.978633 0
M  V30 26834 C 2550.23 -0.198935 -3.00041 0
M  V30 26835 C 2551.78 -0.141446 -3.1268 0
M  V30 26836 C 2552.25 -0.444502 -4.55838 0
M  V30 26837 N 2553.74 -0.394196 -4.6152 0
M  V30 26838 C 2554.48 -0.602138 -5.7023 0
M  V30 26839 N 2553.97 -0.872035 -6.8729 0
M  V30 26840 N 2555.77 -0.534344 -5.59554 0
M  V30 26841 H 2547.92 -1.17501 -1.76939 0
M  V30 26842 H 2550.18 -0.471212 -0.822596 0
M  V30 26843 H 2549.89 -1.20995 -3.30232 0
M  V30 26844 H 2549.76 0.48447 -3.74076 0
M  V30 26845 H 2552.15 0.860215 -2.82284 0
M  V30 26846 H 2552.23 -0.858377 -2.40968 0
M  V30 26847 H 2551.87 -1.44362 -4.86952 0
M  V30 26848 H 2551.8 0.29366 -5.25781 0
M  V30 26849 H 2554.29 -0.193422 -3.77405 0
M  V30 26850 H 2554.61 -1.01871 -7.66056 0
M  V30 26851 H 2552.95 -0.909266 -6.89026 0
M  V30 26852 H 2556.14 -0.323694 -4.66979 0
M  V30 26853 H 2556.32 -0.699806 -6.4421 0
M  V30 26854 N 2549.72 1.57526 0.0484352 0
M  V30 26855 C 2550.67 2.01734 1.06243 0
M  V30 26856 C 2551.66 0.903268 1.33154 0
M  V30 26857 O 2552.85 1.16719 1.33063 0
M  V30 26858 C 2549.98 2.48425 2.36939 0
M  V30 26859 C 2549.06 3.66614 2.13202 0
M  V30 26860 N 2549.45 4.80006 1.59462 0
M  V30 26861 C 2547.75 3.73614 2.43574 0
M  V30 26862 C 2548.45 5.61738 1.51082 0
M  V30 26863 N 2547.43 5.06273 1.97961 0
M  V30 26864 H 2551.23 2.86833 0.640625 0
M  V30 26865 H 2548.75 1.60384 0.255105 0
M  V30 26866 H 2550.74 2.78347 3.10369 0
M  V30 26867 H 2549.4 1.64723 2.79815 0
M  V30 26868 H 2550.41 5.01833 1.27999 0
M  V30 26869 H 2547.09 3.00674 2.89657 0
M  V30 26870 H 2548.48 6.62803 1.10187 0
M  V30 26871 N 2551.2 -0.32033 1.5431 0
M  V30 26872 C 2552.15 -1.39435 1.8392 0
M  V30 26873 C 2553.12 -1.51247 0.686551 0
M  V30 26874 O 2554.3 -1.66416 0.933298 0
M  V30 26875 C 2551.44 -2.75746 2.07505 0
M  V30 26876 C 2550.56 -2.72538 3.35182 0
M  V30 26877 C 2549.69 -4.00717 3.48711 0
M  V30 26878 C 2548.73 -3.9183 4.7025 0
M  V30 26879 N 2547.87 -5.11745 4.80688 0
M  V30 26880 H 2552.71 -1.13484 2.75546 0
M  V30 26881 H 2550.24 -0.549285 1.3646 0
M  V30 26882 H 2552.2 -3.54992 2.19172 0
M  V30 26883 H 2550.83 -2.99998 1.19168 0
M  V30 26884 H 2549.88 -1.85265 3.32237 0
M  V30 26885 H 2551.2 -2.61856 4.24539 0
M  V30 26886 H 2550.35 -4.88396 3.59937 0
M  V30 26887 H 2549.09 -4.1421 2.57452 0
M  V30 26888 H 2548.09 -3.02536 4.59078 0
M  V30 26889 H 2549.32 -3.799 5.62897 0
M  V30 26890 H 2547.26 -5.25738 3.92347 0
M  V30 26891 H 2547.18 -5.0341 5.64016 0
M  V30 26892 H 2548.45 -6.01129 4.9625 0
M  V30 26893 N 2552.68 -1.46438 -0.582558 0
M  V30 26894 C 2553.92 -1.5198 -1.34275 0
M  V30 26895 C 2554.26 -0.171007 -1.93446 0
M  V30 26896 O 2553.53 0.817577 -1.76482 0
M  V30 26897 C 2553.82 -2.61849 -2.47198 0
M  V30 26898 C 2553.67 -4.0626 -1.93062 0
M  V30 26899 C 2554.99 -2.67802 -3.49242 0
M  V30 26900 H 2552.11 -0.55329 -0.486866 0
M  V30 26901 H 2554.75 -1.78375 -0.654406 0
M  V30 26902 H 2552.9 -2.39474 -3.05916 0
M  V30 26903 H 2554.57 -4.39923 -1.388 0
M  V30 26904 H 2552.81 -4.15733 -1.2389 0
M  V30 26905 H 2553.48 -4.78865 -2.74577 0
M  V30 26906 H 2555.96 -2.87916 -3.00406 0
M  V30 26907 H 2554.84 -3.46496 -4.25713 0
M  V30 26908 H 2555.1 -1.73859 -4.06479 0
M  V30 26909 N 2554.16 0.827204 -1.34146 0
M  V30 26910 C 2555.57 1.11967 -1.13734 0
M  V30 26911 C 2555.77 2.01398 0.0640109 0
M  V30 26912 O 2554.83 2.41388 0.740814 0
M  V30 26913 C 2556.14 1.77051 -2.4305 0
M  V30 26914 C 2557.69 1.89565 -2.49066 0
M  V30 26915 C 2558.16 2.58065 -3.78373 0
M  V30 26916 N 2559.66 2.65568 -3.7951 0
M  V30 26917 C 2560.39 3.19288 -4.7628 0
M  V30 26918 N 2559.89 3.73606 -5.8343 0
M  V30 26919 N 2561.68 3.17649 -4.63741 0
M  V30 26920 H 2553.83 0.232259 -2.11126 0
M  V30 26921 H 2556.09 0.165586 -0.933427 0
M  V30 26922 H 2555.8 1.18801 -3.31027 0
M  V30 26923 H 2555.67 2.76961 -2.56071 0
M  V30 26924 H 2558.06 2.46965 -1.61531 0
M  V30 26925 H 2558.14 0.885703 -2.39977 0
M  V30 26926 H 2557.79 2.01321 -4.66296 0
M  V30 26927 H 2557.72 3.59555 -3.84744 0
M  V30 26928 H 2560.21 2.27063 -3.02078 0
M  V30 26929 H 2560.52 4.12835 -6.5329 0
M  V30 26930 H 2558.86 3.71861 -5.87149 0
M  V30 26931 H 2562.06 2.74479 -3.79182 0
M  V30 26932 H 2562.23 3.59212 -5.39324 0
M  V30 26933 N 2555.63 1.17805 1.04688 0
M  V30 26934 C 2556.54 0.914189 2.16055 0
M  V30 26935 C 2557.56 -0.119472 1.73589 0
M  V30 26936 O 2558.74 0.0609822 2.01308 0
M  V30 26937 C 2555.8 0.436663 3.43939 0
M  V30 26938 C 2554.86 1.53753 4.00822 0
M  V30 26939 C 2554.1 1.0827 5.22603 0
M  V30 26940 O 2554.32 -0.0611242 5.70367 0
M  V30 26941 O 2553.25 1.87785 5.71857 0
M  V30 26942 H 2557.08 1.84588 2.41166 0
M  V30 26943 H 2554.66 0.959354 1.14528 0
M  V30 26944 H 2556.55 0.178131 4.21023 0
M  V30 26945 H 2555.22 -0.466813 3.20316 0
M  V30 26946 H 2554.13 1.85 3.25155 0
M  V30 26947 H 2555.46 2.4169 4.28774 0
M  V30 26948 N 2557.11 -1.23497 0.979094 0
M  V30 26949 C 2558.36 -1.91877 0.647253 0
M  V30 26950 C 2558.69 -1.76414 -0.819043 0
M  V30 26951 O 2557.94 -1.11811 -1.60614 0
M  V30 26952 C 2558.24 -3.43645 0.981992 0
M  V30 26953 C 2557.91 -3.79287 2.43829 0
M  V30 26954 C 2556.57 -3.88726 2.83629 0
M  V30 26955 C 2558.92 -3.96499 3.38287 0
M  V30 26956 C 2556.25 -4.12804 4.16905 0
M  V30 26957 C 2558.6 -4.22077 4.71205 0
M  V30 26958 C 2557.27 -4.29738 5.10766 0
M  V30 26959 H 2556.54 -0.702129 0.236847 0
M  V30 26960 H 2559.18 -1.46549 1.23271 0
M  V30 26961 H 2557.49 -3.90536 0.314434 0
M  V30 26962 H 2559.18 -3.94781 0.703465 0
M  V30 26963 H 2555.77 -3.72512 2.11973 0
M  V30 26964 H 2559.96 -3.88597 3.08716 0
M  V30 26965 H 2555.21 -4.16958 4.47164 0
M  V30 26966 H 2559.39 -4.34339 5.44355 0
M  V30 26967 H 2557.02 -4.48148 6.14058 0
M  V30 26968 N 2558.59 -0.750586 -1.38578 0
M  V30 26969 C 2559.54 -0.110203 -2.32339 0
M  V30 26970 C 2560.53 0.708647 -1.53865 0
M  V30 26971 O 2561.74 0.608082 -1.69418 0
M  V30 26972 H 2558.11 -0.0168407 -0.751811 0
M  V30 26973 H 2560.09 -0.917102 -2.83957 0
M  V30 26974 C 2558.83 0.771007 -3.39044 0
M  V30 26975 H 2558.16 0.150304 -3.99517 0
M  V30 26976 H 2559.6 1.18642 -4.07063 0
M  V30 26977 C 2558.06 1.91229 -2.77368 0
M  V30 26978 O 2558.59 3.00621 -2.66439 0
M  V30 26979 N 2556.79 1.70642 -2.35222 0
M  V30 26980 H 2556.34 0.816687 -2.44311 0
M  V30 26981 H 2556.3 2.47175 -1.94298 0
M  V30 26982 N 2560.07 1.49477 -0.499425 0
M  V30 26983 C 2561.32 2.01644 0.0474904 0
M  V30 26984 C 2561.63 1.38428 1.38192 0
M  V30 26985 O 2562.84 1.81913 2.01544 0
M  V30 26986 C 2561.29 3.59646 0.135101 0
M  V30 26987 C 2560.9 4.31835 -1.19259 0
M  V30 26988 C 2562.65 4.19762 0.632464 0
M  V30 26989 C 2560.55 5.81691 -1.06723 0
M  V30 26990 H 2559.48 0.753693 0.0215217 0
M  V30 26991 H 2562.13 1.72029 -0.638607 0
M  V30 26992 H 2560.52 3.8597 0.885614 0
M  V30 26993 H 2561.69 4.17213 -1.95628 0
M  V30 26994 H 2560 3.83456 -1.62327 0
M  V30 26995 H 2562.6 5.29502 0.74374 0
M  V30 26996 H 2562.94 3.83024 1.63091 0
M  V30 26997 H 2563.48 3.97753 -0.0614686 0
M  V30 26998 H 2560.22 6.22951 -2.0399 0
M  V30 26999 H 2559.74 5.9881 -0.344412 0
M  V30 27000 H 2561.42 6.42693 -0.745321 0
M  V30 27001 N 2561.55 0.233191 1.55865 0
M  V30 27002 C 2562.5 -0.688471 2.22177 0
M  V30 27003 C 2563.49 -1.19074 1.20489 0
M  V30 27004 O 2564.7 -1.14922 1.38538 0
M  V30 27005 H 2561.07 -0.24047 0.712515 0
M  V30 27006 H 2563.04 -0.105883 2.98212 0
M  V30 27007 C 2561.79 -1.88066 2.92449 0
M  V30 27008 H 2561.11 -1.5033 3.7046 0
M  V30 27009 H 2562.55 -2.50308 3.42231 0
M  V30 27010 C 2561.01 -2.74332 1.9556 0
M  V30 27011 O 2561.54 -3.73445 1.47993 0
M  V30 27012 N 2559.75 -2.4061 1.62957 0
M  V30 27013 H 2559.3 -1.60065 2.01834 0
M  V30 27014 H 2559.25 -2.98607 0.983939 0
M  V30 27015 N 2563.03 -1.57549 -0.0400806 0
M  V30 27016 C 2564.44 -1.77197 -0.588066 0
M  V30 27017 C 2564.79 -0.862863 -1.76208 0
M  V30 27018 O 2563.91 -0.0548769 -2.1633 0
M  V30 27019 C 2564.51 -3.21341 -1.07358 0
M  V30 27020 C 2563.07 -3.42223 -1.56717 0
M  V30 27021 C 2562.21 -2.72748 -0.500362 0
M  V30 27022 H 2565.16 -1.57605 0.186147 0
M  V30 27023 H 2565.19 -3.27248 -1.94137 0
M  V30 27024 H 2564.7 -3.87482 -0.218906 0
M  V30 27025 H 2562.8 -2.81242 -2.44405 0
M  V30 27026 H 2562.91 -4.50799 -1.62226 0
M  V30 27027 H 2561.28 -2.36205 -0.952853 0
M  V30 27028 H 2562.06 -3.41565 0.344659 0
M  V30 27029 N 2564.5 0.312142 -1.54478 0
M  V30 27030 C 2565.75 1.05027 -1.73485 0
M  V30 27031 C 2566.08 1.87297 -0.513158 0
M  V30 27032 O 2565.36 1.88231 0.48983 0
M  V30 27033 C 2565.64 1.96553 -3.01727 0
M  V30 27034 C 2565.49 1.17537 -4.34172 0
M  V30 27035 C 2566.81 2.95901 -3.25777 0
M  V30 27036 H 2563.93 0.380421 -0.631228 0
M  V30 27037 H 2566.57 0.325899 -1.87184 0
M  V30 27038 H 2564.72 2.58319 -2.90178 0
M  V30 27039 H 2566.4 0.581432 -4.57621 0
M  V30 27040 H 2564.64 0.477849 -4.3116 0
M  V30 27041 H 2565.31 1.84802 -5.20146 0
M  V30 27042 H 2567.79 2.44261 -3.36862 0
M  V30 27043 H 2566.66 3.57116 -4.16845 0
M  V30 27044 H 2566.92 3.6897 -2.43544 0
M  V30 27045 N 2565.98 1.46745 0.574784 0
M  V30 27046 C 2566.93 1.58289 1.70433 0
M  V30 27047 C 2567.92 0.450985 1.63287 0
M  V30 27048 O 2569.13 0.62815 1.68684 0
M  V30 27049 H 2565.5 0.497819 0.563632 0
M  V30 27050 H 2567.48 2.53245 1.57828 0
M  V30 27051 C 2566.22 1.59781 3.08813 0
M  V30 27052 H 2565.55 2.4622 3.14985 0
M  V30 27053 H 2566.99 1.71912 3.87585 0
M  V30 27054 C 2565.45 0.327871 3.35301 0
M  V30 27055 O 2565.98 -0.57854 3.97512 0
M  V30 27056 N 2564.18 0.213325 2.89816 0
M  V30 27057 H 2563.73 0.95184 2.3937 0
M  V30 27058 H 2563.69 -0.635476 3.07911 0
M  V30 27059 N 2567.46 -0.820078 1.34583 0
M  V30 27060 C 2568.69 -1.60811 1.30183 0
M  V30 27061 C 2569.1 -1.88396 -0.123518 0
M  V30 27062 O 2568.46 -1.47737 -1.07145 0
M  V30 27063 C 2568.51 -2.94735 2.09317 0
M  V30 27064 O 2568.23 -2.68352 3.46293 0
M  V30 27065 C 2569.73 -3.89132 2.12347 0
M  V30 27066 H 2566.95 -0.499774 0.447735 0
M  V30 27067 H 2569.5 -1.02014 1.77238 0
M  V30 27068 H 2567.65 -3.50082 1.65895 0
M  V30 27069 H 2568.07 -3.53767 3.87233 0
M  V30 27070 H 2569.54 -4.80257 2.72134 0
M  V30 27071 H 2570.02 -4.24716 1.11861 0
M  V30 27072 H 2570.62 -3.39721 2.5587 0
M  V30 27073 N 2568.94 -1.18359 -1.04062 0
M  V30 27074 C 2570.35 -0.983148 -1.58717 0
M  V30 27075 C 2570.7 0.46716 -1.90557 0
M  V30 27076 O 2569.82 1.34451 -1.69564 0
M  V30 27077 C 2570.42 -1.77833 -2.88376 0
M  V30 27078 C 2568.98 -1.62224 -3.39647 0
M  V30 27079 C 2568.13 -1.77278 -2.13232 0
M  V30 27080 H 2571.08 -1.32902 -0.867335 0
M  V30 27081 H 2571.1 -1.26744 -3.58771 0
M  V30 27082 H 2570.61 -2.83383 -2.65171 0
M  V30 27083 H 2568.71 -0.592101 -3.67865 0
M  V30 27084 H 2568.82 -2.4203 -4.13471 0
M  V30 27085 H 2567.19 -1.20225 -2.2454 0
M  V30 27086 H 2567.97 -2.84263 -1.92482 0
M  V30 27087 N 2570.42 1.22976 -0.98563 0
M  V30 27088 C 2571.64 1.95558 -0.675617 0
M  V30 27089 C 2572.06 1.72899 0.758382 0
M  V30 27090 O 2571.42 1.02359 1.51092 0
M  V30 27091 C 2571.47 3.48438 -0.962992 0
M  V30 27092 O 2571.19 3.70332 -2.34063 0
M  V30 27093 C 2572.69 4.38213 -0.669662 0
M  V30 27094 H 2569.91 0.622474 -0.250534 0
M  V30 27095 H 2572.45 1.56325 -1.31843 0
M  V30 27096 H 2570.61 3.85666 -0.366101 0
M  V30 27097 H 2571.02 4.64587 -2.43432 0
M  V30 27098 H 2572.5 5.44261 -0.921063 0
M  V30 27099 H 2572.97 4.37408 0.396307 0
M  V30 27100 H 2573.58 4.066 -1.24727 0
M  V30 27101 N 2571.89 0.757924 1.38178 0
M  V30 27102 C 2572.84 0.133097 2.30416 0
M  V30 27103 C 2573.81 -0.70493 1.50399 0
M  V30 27104 O 2575 -0.660161 1.79015 0
M  V30 27105 C 2572.14 -0.750754 3.36835 0
M  V30 27106 C 2571.25 0.102373 4.31879 0
M  V30 27107 C 2570.38 -0.784887 5.25369 0
M  V30 27108 C 2569.42 0.0716122 6.12058 0
M  V30 27109 N 2568.56 -0.772849 6.97833 0
M  V30 27110 H 2573.4 0.925235 2.83273 0
M  V30 27111 H 2570.94 0.46789 1.3946 0
M  V30 27112 H 2572.89 -1.27787 3.97148 0
M  V30 27113 H 2571.52 -1.50863 2.85377 0
M  V30 27114 H 2570.58 0.74716 3.7299 0
M  V30 27115 H 2571.89 0.763639 4.9292 0
M  V30 27116 H 2571.04 -1.37901 5.9082 0
M  V30 27117 H 2569.78 -1.47987 4.64705 0
M  V30 27118 H 2568.79 0.678368 5.45599 0
M  V30 27119 H 2570.01 0.763725 6.74792 0
M  V30 27120 H 2567.96 -1.45271 6.39713 0
M  V30 27121 H 2567.87 -0.168576 7.55812 0
M  V30 27122 H 2569.14 -1.3518 7.67689 0
M  V30 27123 N 2573.37 -1.4921 0.507345 0
M  V30 27124 C 2574.6 -2.07373 -0.0336885 0
M  V30 27125 C 2575.02 -1.3644 -1.29483 0
M  V30 27126 O 2574.38 -0.423118 -1.76294 0
M  V30 27127 C 2574.43 -3.59633 -0.263882 0
M  V30 27128 O 2573.53 -3.90115 -1.33731 0
M  V30 27129 H 2572.87 -0.663364 0.0290447 0
M  V30 27130 H 2575.4 -1.91931 0.708783 0
M  V30 27131 H 2575.41 -4.05005 -0.493464 0
M  V30 27132 H 2574.09 -4.1067 0.657496 0
M  V30 27133 H 2572.67 -3.56547 -1.09217 0
M  V30 27134 N 2574.85 -0.241454 -1.55739 0
M  V30 27135 C 2575.8 0.660393 -2.2115 0
M  V30 27136 C 2576.77 1.17543 -1.17358 0
M  V30 27137 O 2577.95 1.2309 -1.45786 0
M  V30 27138 C 2575.09 1.85409 -2.91063 0
M  V30 27139 C 2574.21 1.37609 -4.09497 0
M  V30 27140 C 2573.34 2.52892 -4.67139 0
M  V30 27141 C 2572.38 2.01926 -5.77834 0
M  V30 27142 N 2571.52 3.10555 -6.29682 0
M  V30 27143 H 2576.36 0.0959026 -2.97846 0
M  V30 27144 H 2573.89 0.0355766 -1.47057 0
M  V30 27145 H 2575.85 2.55525 -3.29792 0
M  V30 27146 H 2574.48 2.39114 -2.1685 0
M  V30 27147 H 2573.53 0.569168 -3.76118 0
M  V30 27148 H 2574.85 0.962532 -4.89425 0
M  V30 27149 H 2574 3.31058 -5.08415 0
M  V30 27150 H 2572.74 2.97546 -3.86416 0
M  V30 27151 H 2571.74 1.22228 -5.36041 0
M  V30 27152 H 2572.97 1.58248 -6.60405 0
M  V30 27153 H 2570.91 3.54654 -5.51866 0
M  V30 27154 H 2570.83 2.73514 -7.04788 0
M  V30 27155 H 2572.1 3.88797 -6.75616 0
M  V30 27156 N 2576.33 1.57568 0.0317248 0
M  V30 27157 C 2577.26 2.09422 1.03271 0
M  V30 27158 C 2578.24 0.996168 1.37879 0
M  V30 27159 O 2579.42 1.27125 1.46809 0
M  V30 27160 C 2576.55 2.57141 2.33443 0
M  V30 27161 C 2575.51 3.71186 2.13085 0
M  V30 27162 C 2574.83 4.05102 3.48994 0
M  V30 27163 C 2576.13 4.99718 1.51919 0
M  V30 27164 H 2577.83 2.93304 0.601069 0
M  V30 27165 H 2575.37 1.41097 0.28768 0
M  V30 27166 H 2577.33 2.92037 3.03796 0
M  V30 27167 H 2576.05 1.70338 2.78662 0
M  V30 27168 H 2574.71 3.36634 1.45165 0
M  V30 27169 H 2574.36 3.15369 3.91857 0
M  V30 27170 H 2574.06 4.81917 3.36198 0
M  V30 27171 H 2575.58 4.4253 4.20714 0
M  V30 27172 H 2577 5.32588 2.12186 0
M  V30 27173 H 2575.39 5.81127 1.49706 0
M  V30 27174 H 2576.46 4.82471 0.484726 0
M  V30 27175 N 2577.81 -0.303946 1.54641 0
M  V30 27176 C 2578.76 -1.37633 1.81772 0
M  V30 27177 C 2579.74 -1.4607 0.674723 0
M  V30 27178 O 2580.93 -1.50272 0.935278 0
M  V30 27179 C 2578.06 -2.74182 2.06589 0
M  V30 27180 C 2577.15 -2.6998 3.27065 0
M  V30 27181 N 2577.54 -2.35394 4.47687 0
M  V30 27182 C 2575.84 -3.01086 3.29034 0
M  V30 27183 C 2576.54 -2.40417 5.29693 0
M  V30 27184 N 2575.51 -2.77652 4.67344 0
M  V30 27185 H 2579.32 -1.09852 2.72598 0
M  V30 27186 H 2576.83 -0.512513 1.54101 0
M  V30 27187 H 2578.83 -3.515 2.24172 0
M  V30 27188 H 2577.49 -3.02877 1.17029 0
M  V30 27189 H 2578.5 -2.07899 4.7434 0
M  V30 27190 H 2575.17 -3.34695 2.49571 0
M  V30 27191 H 2576.56 -2.165 6.36064 0
M  V30 27192 N 2579.28 -1.47047 -0.566994 0
M  V30 27193 C 2580.7 -1.47145 -1.14914 0
M  V30 27194 C 2581.05 -0.220801 -1.94954 0
M  V30 27195 O 2580.17 0.675014 -2.05603 0
M  V30 27196 C 2580.77 -2.66604 -2.09065 0
M  V30 27197 C 2579.33 -2.69692 -2.6257 0
M  V30 27198 C 2578.47 -2.40091 -1.38751 0
M  V30 27199 H 2581.42 -1.54699 -0.354099 0
M  V30 27200 H 2581.44 -2.43017 -2.92785 0
M  V30 27201 H 2580.96 -3.57612 -1.50782 0
M  V30 27202 H 2579.06 -1.82797 -3.24678 0
M  V30 27203 H 2579.17 -3.70107 -3.04232 0
M  V30 27204 H 2577.53 -1.90471 -1.69095 0
M  V30 27205 H 2578.32 -3.33295 -0.822763 0
M  V30 27206 N 2580.76 0.812929 -1.35016 0
M  V30 27207 C 2581.99 1.60636 -1.3119 0
M  V30 27208 C 2582.41 1.87782 0.109349 0
M  V30 27209 O 2581.77 1.46049 1.07421 0
M  V30 27210 C 2581.82 2.91834 -2.11814 0
M  V30 27211 O 2580.92 3.84367 -1.49451 0
M  V30 27212 H 2580.26 0.488173 -0.450092 0
M  V30 27213 H 2582.79 1.00944 -1.77965 0
M  V30 27214 H 2582.8 3.41314 -2.23537 0
M  V30 27215 H 2581.48 2.71401 -3.15142 0
M  V30 27216 H 2580.06 3.42904 -1.4653 0
M  V30 27217 N 2582.24 1.18909 1.03433 0
M  V30 27218 C 2583.49 0.989829 1.77003 0
M  V30 27219 C 2583.82 -0.478783 1.88205 0
M  V30 27220 O 2583.09 -1.35553 1.39483 0
M  V30 27221 C 2583.38 1.65293 3.19922 0
M  V30 27222 C 2583.23 3.19482 3.16625 0
M  V30 27223 C 2584.55 1.37141 4.18187 0
M  V30 27224 H 2581.67 0.361002 0.642531 0
M  V30 27225 H 2584.31 1.46669 1.20782 0
M  V30 27226 H 2582.46 1.24747 3.67927 0
M  V30 27227 H 2584.13 3.69205 2.7656 0
M  V30 27228 H 2582.38 3.51311 2.54485 0
M  V30 27229 H 2583.05 3.61021 4.17574 0
M  V30 27230 H 2585.52 1.72283 3.78758 0
M  V30 27231 H 2584.4 1.86096 5.16391 0
M  V30 27232 H 2584.66 0.295502 4.41111 0
M  V30 27233 N 2583.72 -1.22452 0.992137 0
M  V30 27234 C 2584.97 -1.9118 0.667568 0
M  V30 27235 C 2585.29 -1.77273 -0.800286 0
M  V30 27236 O 2584.55 -1.13508 -1.59419 0
M  V30 27237 C 2584.85 -3.42584 1.01839 0
M  V30 27238 C 2584.51 -3.76679 2.47838 0
M  V30 27239 C 2583.18 -3.85696 2.87736 0
M  V30 27240 C 2585.53 -3.92889 3.42473 0
M  V30 27241 C 2582.86 -4.08359 4.2126 0
M  V30 27242 C 2585.21 -4.17055 4.75655 0
M  V30 27243 C 2583.87 -4.24296 5.15295 0
M  V30 27244 H 2583.14 -0.699577 0.24428 0
M  V30 27245 H 2585.79 -1.45233 1.24818 0
M  V30 27246 H 2584.09 -3.90181 0.355838 0
M  V30 27247 H 2585.79 -3.94013 0.745297 0
M  V30 27248 H 2582.38 -3.70243 2.15912 0
M  V30 27249 H 2586.56 -3.85301 3.12821 0
M  V30 27250 H 2581.82 -4.12192 4.51562 0
M  V30 27251 H 2585.99 -4.28541 5.48932 0
M  V30 27252 H 2583.62 -4.4161 6.18777 0
M  V30 27253 N 2585.2 -0.765242 -1.37774 0
M  V30 27254 C 2586.43 -0.337313 -2.03828 0
M  V30 27255 C 2586.83 1.04318 -1.57843 0
M  V30 27256 O 2586.18 1.67599 -0.752073 0
M  V30 27257 C 2586.24 -0.29447 -3.58292 0
M  V30 27258 C 2585.9 -1.61846 -4.27382 0
M  V30 27259 C 2586.9 -2.56975 -4.51951 0
M  V30 27260 C 2584.59 -1.8911 -4.65341 0
M  V30 27261 C 2586.58 -3.7758 -5.13529 0
M  V30 27262 C 2584.27 -3.09987 -5.26642 0
M  V30 27263 C 2585.26 -4.04041 -5.50672 0
M  V30 27264 O 2584.95 -5.22791 -6.10692 0
M  V30 27265 H 2584.68 -0.14026 -0.661289 0
M  V30 27266 H 2587.24 -1.03837 -1.7722 0
M  V30 27267 H 2585.47 0.462916 -3.83919 0
M  V30 27268 H 2587.16 0.10551 -4.05763 0
M  V30 27269 H 2587.92 -2.3719 -4.23043 0
M  V30 27270 H 2583.8 -1.16732 -4.45976 0
M  V30 27271 H 2587.35 -4.51006 -5.32202 0
M  V30 27272 H 2583.24 -3.29659 -5.54973 0
M  V30 27273 H 2584.01 -5.23528 -6.29174 0
M  V30 27274 N 2586.67 1.48939 -0.515251 0
M  V30 27275 C 2587.95 1.95403 0.0878744 0
M  V30 27276 C 2588.33 1.45715 1.52743 0
M  V30 27277 O 2587.68 0.677131 2.18237 0
M  V30 27278 C 2587.89 3.48997 -0.0141669 0
M  V30 27279 C 2589.24 4.24326 0.152571 0
M  V30 27280 O 2590.26 3.56149 0.0603399 0
M  V30 27281 O 2589.12 5.45418 0.343744 0
M  V30 27282 H 2586.21 0.822363 0.0874492 0
M  V30 27283 H 2588.76 1.59524 -0.578803 0
M  V30 27284 H 2587.53 3.77839 -1.01752 0
M  V30 27285 H 2587.16 3.91531 0.692022 0
M  V30 27286 N 2588.15 0.249709 1.55609 0
M  V30 27287 C 2589.4 -0.374806 1.99306 0
M  V30 27288 C 2589.73 -1.57385 1.13769 0
M  V30 27289 O 2589.01 -1.93451 0.201745 0
M  V30 27290 C 2589.29 -0.781924 3.51508 0
M  V30 27291 C 2589.14 0.422707 4.47809 0
M  V30 27292 C 2590.46 -1.62786 4.08887 0
M  V30 27293 H 2587.58 -0.13476 0.724575 0
M  V30 27294 H 2590.22 0.351582 1.86719 0
M  V30 27295 H 2588.37 -1.40083 3.62366 0
M  V30 27296 H 2590.05 1.06116 4.48929 0
M  V30 27297 H 2588.29 1.06532 4.20516 0
M  V30 27298 H 2588.96 0.0944736 5.51919 0
M  V30 27299 H 2591.44 -1.10539 4.01149 0
M  V30 27300 H 2590.31 -1.88157 5.15643 0
M  V30 27301 H 2590.57 -2.60062 3.57519 0
M  V30 27302 N 2589.63 -1.57583 -0.0233682 0
M  V30 27303 C 2590.88 -1.89531 -0.713029 0
M  V30 27304 C 2591.21 -0.847703 -1.75055 0
M  V30 27305 O 2590.46 0.150602 -1.9512 0
M  V30 27306 C 2590.76 -3.28229 -1.41423 0
M  V30 27307 C 2590.43 -4.47982 -0.512143 0
M  V30 27308 C 2589.09 -4.80477 -0.2637 0
M  V30 27309 C 2591.44 -5.21083 0.11034 0
M  V30 27310 C 2588.77 -5.83458 0.615907 0
M  V30 27311 C 2591.12 -6.24999 0.977683 0
M  V30 27312 C 2589.78 -6.55966 1.23553 0
M  V30 27313 H 2589.05 -0.693544 -0.260916 0
M  V30 27314 H 2591.7 -1.91481 0.0271384 0
M  V30 27315 H 2590.01 -3.22295 -2.22786 0
M  V30 27316 H 2591.7 -3.502 -1.95349 0
M  V30 27317 H 2588.29 -4.22578 -0.715939 0
M  V30 27318 H 2592.48 -4.96253 -0.0686265 0
M  V30 27319 H 2587.73 -6.05823 0.823927 0
M  V30 27320 H 2591.91 -6.80784 1.4665 0
M  V30 27321 H 2589.53 -7.35585 1.91883 0
M  V30 27322 N 2591.11 0.29574 -1.548 0
M  V30 27323 C 2592.52 0.868382 -1.65276 0
M  V30 27324 C 2592.87 1.87893 -0.564844 0
M  V30 27325 O 2592 2.14343 0.297632 0
M  V30 27326 C 2592.59 1.58183 -2.99606 0
M  V30 27327 C 2591.15 2.1028 -3.12184 0
M  V30 27328 C 2590.3 0.937224 -2.60982 0
M  V30 27329 H 2593.25 0.0726144 -1.58534 0
M  V30 27330 H 2593.27 2.44767 -2.91323 0
M  V30 27331 H 2592.78 0.846085 -3.78765 0
M  V30 27332 H 2590.88 2.86885 -2.37755 0
M  V30 27333 H 2591 2.33372 -4.18419 0
M  V30 27334 H 2589.36 1.32427 -2.17567 0
M  V30 27335 H 2590.14 0.215354 -3.42624 0
M  V30 27336 N 2592.59 1.47346 0.559187 0
M  V30 27337 C 2593.84 1.53565 1.31385 0
M  V30 27338 C 2594.16 0.198712 1.93985 0
M  V30 27339 O 2593.43 -0.777135 1.79826 0
M  V30 27340 H 2592.01 0.56566 0.487891 0
M  V30 27341 H 2594.67 1.83631 0.653117 0
M  V30 27342 H 2593.76 2.30115 2.1084 0
M  V30 27343 N 2594.07 -0.805758 1.35445 0
M  V30 27344 C 2595.34 -1.54985 1.19328 0
M  V30 27345 C 2595.72 -2.09873 -0.227257 0
M  V30 27346 O 2595.07 -1.92514 -1.23087 0
M  V30 27347 C 2595.28 -2.65771 2.262 0
M  V30 27348 C 2596.63 -3.34089 2.62049 0
M  V30 27349 O 2597.65 -2.76042 2.2512 0
M  V30 27350 O 2596.51 -4.38953 3.2555 0
M  V30 27351 H 2593.61 -0.684815 0.463635 0
M  V30 27352 H 2596.15 -0.845648 1.47129 0
M  V30 27353 H 2594.92 -2.2309 3.21475 0
M  V30 27354 H 2594.55 -3.43826 1.99673 0
M  V30 27355 N 2595.54 -1.19456 -1.02801 0
M  V30 27356 C 2596.49 -0.933083 -2.11098 0
M  V30 27357 C 2597.46 0.132418 -1.65571 0
M  V30 27358 O 2598.65 -0.0099093 -1.90797 0
M  V30 27359 C 2595.79 -0.478807 -3.41762 0
M  V30 27360 C 2594.9 -1.61117 -4.00831 0
M  V30 27361 C 2594.03 -1.10834 -5.19509 0
M  V30 27362 C 2593.07 -2.21455 -5.70635 0
M  V30 27363 N 2592.21 -1.72473 -6.80586 0
M  V30 27364 H 2597.05 -1.86032 -2.32801 0
M  V30 27365 H 2594.59 -0.927461 -1.14178 0
M  V30 27366 H 2596.54 -0.196819 -4.16735 0
M  V30 27367 H 2595.17 0.411437 -3.20167 0
M  V30 27368 H 2594.23 -2.00835 -3.23063 0
M  V30 27369 H 2595.54 -2.44457 -4.3479 0
M  V30 27370 H 2594.69 -0.781639 -6.01644 0
M  V30 27371 H 2593.43 -0.244691 -4.87086 0
M  V30 27372 H 2592.44 -2.54955 -4.87112 0
M  V30 27373 H 2593.66 -3.08278 -6.05097 0
M  V30 27374 H 2591.61 -0.884171 -6.50014 0
M  V30 27375 H 2591.52 -2.49401 -7.13677 0
M  V30 27376 H 2592.79 -1.42768 -7.66314 0
M  V30 27377 N 2597.02 1.21924 -0.998617 0
M  V30 27378 C 2597.93 2.2775 -0.562776 0
M  V30 27379 C 2598.95 1.69546 0.391173 0
M  V30 27380 O 2600.12 1.99759 0.256589 0
M  V30 27381 C 2597.19 3.46525 0.110059 0
M  V30 27382 C 2596.25 4.20025 -0.887569 0
M  V30 27383 C 2595.48 5.33129 -0.246748 0
M  V30 27384 O 2595.71 5.62298 0.957989 0
M  V30 27385 O 2594.64 5.94284 -0.954479 0
M  V30 27386 H 2598.47 2.6721 -1.44334 0
M  V30 27387 H 2596.05 1.28199 -0.767158 0
M  V30 27388 H 2597.93 4.1858 0.486682 0
M  V30 27389 H 2596.61 3.08978 0.9651 0
M  V30 27390 H 2595.51 3.50218 -1.31523 0
M  V30 27391 H 2596.85 4.61467 -1.71199 0
M  V30 27392 N 2598.5 0.772537 1.37367 0
M  V30 27393 C 2599.91 0.402525 1.82309 0
M  V30 27394 C 2600.26 -1.07144 1.64362 0
M  V30 27395 O 2599.39 -1.82988 1.15517 0
M  V30 27396 C 2599.98 0.723835 3.30977 0
M  V30 27397 C 2598.54 0.406868 3.74195 0
M  V30 27398 C 2597.69 0.967264 2.59883 0
M  V30 27399 H 2600.64 0.967121 1.25827 0
M  V30 27400 H 2600.66 0.0087752 3.80499 0
M  V30 27401 H 2600.17 1.79666 3.44008 0
M  V30 27402 H 2598.27 -0.658608 3.66733 0
M  V30 27403 H 2598.39 0.915671 4.70268 0
M  V30 27404 H 2596.75 0.39146 2.51674 0
M  V30 27405 H 2597.53 2.04551 2.75706 0
M  V30 27406 N 2599.98 -1.48664 0.523142 0
M  V30 27407 C 2600.94 -2.28017 -0.232552 0
M  V30 27408 C 2601.94 -1.34974 -0.873997 0
M  V30 27409 O 2603.13 -1.5793 -0.735104 0
M  V30 27410 C 2600.26 -3.13638 -1.3358 0
M  V30 27411 H 2601.46 -2.96288 0.46406 0
M  V30 27412 H 2599.01 -1.53793 0.278843 0
M  V30 27413 H 2599.74 -2.49983 -2.06588 0
M  V30 27414 H 2599.53 -3.82073 -0.881057 0
M  V30 27415 H 2601.02 -3.73515 -1.86753 0
M  V30 27416 N 2601.46 -0.257958 -1.55475 0
M  V30 27417 C 2602.7 0.364231 -1.99502 0
M  V30 27418 C 2603.03 1.5678 -1.14603 0
M  V30 27419 O 2602.31 1.93341 -0.212002 0
M  V30 27420 C 2602.59 0.763272 -3.51918 0
M  V30 27421 C 2602.45 -0.44645 -4.47579 0
M  V30 27422 C 2603.76 1.60615 -4.09745 0
M  V30 27423 H 2600.88 0.130916 -0.725279 0
M  V30 27424 H 2603.53 -0.361479 -1.8653 0
M  V30 27425 H 2601.68 1.3816 -3.63103 0
M  V30 27426 H 2603.35 -1.08495 -4.4836 0
M  V30 27427 H 2601.59 -1.0876 -4.19945 0
M  V30 27428 H 2602.26 -0.123742 -5.51861 0
M  V30 27429 H 2604.74 1.08411 -4.01729 0
M  V30 27430 H 2603.61 1.8542 -5.16634 0
M  V30 27431 H 2603.87 2.58163 -3.58893 0
M  V30 27432 N 2602.93 1.57593 0.0150108 0
M  V30 27433 C 2603.86 2.10505 1.01044 0
M  V30 27434 C 2604.85 1.01074 1.36814 0
M  V30 27435 O 2606.03 1.28675 1.45452 0
M  V30 27436 C 2603.16 2.59602 2.30703 0
M  V30 27437 C 2602.11 3.73425 2.09136 0
M  V30 27438 C 2601.44 4.0878 3.44678 0
M  V30 27439 C 2602.74 5.01301 1.4661 0
M  V30 27440 H 2604.43 2.93926 0.569926 0
M  V30 27441 H 2601.98 1.41394 0.272699 0
M  V30 27442 H 2603.93 2.95243 3.00682 0
M  V30 27443 H 2602.66 1.73284 2.7684 0
M  V30 27444 H 2601.32 3.38155 1.41586 0
M  V30 27445 H 2600.96 3.19507 3.8849 0
M  V30 27446 H 2600.66 4.85456 3.31068 0
M  V30 27447 H 2602.19 4.46967 4.15996 0
M  V30 27448 H 2603.6 5.34809 2.06525 0
M  V30 27449 H 2602 5.82682 1.43534 0
M  V30 27450 H 2603.07 4.82958 0.433526 0
M  V30 27451 N 2604.41 -0.287527 1.54955 0
M  V30 27452 C 2605.64 -1.04394 1.79211 0
M  V30 27453 C 2606.06 -1.79681 0.556463 0
M  V30 27454 O 2605.42 -1.74455 -0.493487 0
M  V30 27455 C 2605.47 -1.98963 3.00742 0
M  V30 27456 O 2604.57 -3.07495 2.7481 0
M  V30 27457 H 2603.91 -0.299217 0.592761 0
M  V30 27458 H 2606.44 -0.320851 2.02069 0
M  V30 27459 H 2606.45 -2.41184 3.29081 0
M  V30 27460 H 2605.13 -1.43575 3.90332 0
M  V30 27461 H 2603.71 -2.69693 2.57527 0
M  V30 27462 N 2605.89 -1.47641 -0.551365 0
M  V30 27463 C 2607.17 -1.45048 -1.31227 0
M  V30 27464 C 2607.55 -0.150564 -2.10562 0
M  V30 27465 O 2606.9 0.867919 -2.11375 0
M  V30 27466 C 2607.11 -2.6996 -2.21184 0
M  V30 27467 C 2608.45 -3.17415 -2.82016 0
M  V30 27468 O 2609.48 -2.70728 -2.31483 0
M  V30 27469 O 2608.34 -3.98595 -3.73878 0
M  V30 27470 H 2605.43 -0.578301 -0.591182 0
M  V30 27471 H 2607.98 -1.59848 -0.569785 0
M  V30 27472 H 2606.75 -3.56099 -1.62201 0
M  V30 27473 H 2606.37 -2.57775 -3.02718 0
M  V30 27474 N 2607.37 0.798563 -1.3587 0
M  V30 27475 C 2608.32 1.9322 -1.29495 0
M  V30 27476 C 2609.31 1.68349 -0.18839 0
M  V30 27477 O 2610.52 1.76468 -0.354853 0
M  V30 27478 H 2606.89 0.634953 -0.402912 0
M  V30 27479 H 2608.86 1.95716 -2.2525 0
M  V30 27480 C 2607.61 3.3011 -1.0919 0
M  V30 27481 H 2606.93 3.4981 -1.9358 0
M  V30 27482 H 2608.37 4.0981 -1.08773 0
M  V30 27483 C 2606.83 3.36282 0.2039 0
M  V30 27484 O 2607.36 3.83454 1.19692 0
M  V30 27485 N 2605.57 2.89562 0.245437 0
M  V30 27486 H 2605.12 2.51366 -0.563267 0
M  V30 27487 H 2605.07 2.94073 1.11214 0
M  V30 27488 N 2608.85 1.19999 1.02166 0
M  V30 27489 C 2610.12 0.916221 1.72814 0
M  V30 27490 C 2610.5 -0.576289 2.03082 0
M  V30 27491 O 2609.85 -1.53653 1.69124 0
M  V30 27492 C 2610.06 1.78384 2.99967 0
M  V30 27493 C 2611.41 2.02257 3.73332 0
M  V30 27494 O 2612.43 1.75595 3.09911 0
M  V30 27495 O 2611.29 2.47257 4.87367 0
M  V30 27496 H 2608.39 0.342117 0.752918 0
M  V30 27497 H 2610.93 1.30848 1.0806 0
M  V30 27498 H 2609.7 2.79471 2.73883 0
M  V30 27499 H 2609.33 1.39132 3.72462 0
M  V30 27500 N 2610.32 -1.21392 1.00507 0
M  V30 27501 C 2611.74 -1.72212 0.721112 0
M  V30 27502 C 2612.09 -1.80831 -0.761231 0
M  V30 27503 O 2611.21 -1.46291 -1.59461 0
M  V30 27504 C 2611.81 -3.12769 1.30233 0
M  V30 27505 C 2610.37 -3.60945 1.0675 0
M  V30 27506 C 2609.51 -2.38474 1.41511 0
M  V30 27507 H 2612.46 -1.06568 1.17596 0
M  V30 27508 H 2612.48 -3.74246 0.687021 0
M  V30 27509 H 2612 -3.06464 2.3812 0
M  V30 27510 H 2610.1 -3.726 0.00578711 0
M  V30 27511 H 2610.21 -4.46408 1.73944 0
M  V30 27512 H 2608.57 -2.40662 0.833894 0
M  V30 27513 H 2609.36 -2.3482 2.50429 0
M  V30 27514 N 2611.8 -0.779811 -1.36955 0
M  V30 27515 C 2613.22 -0.460369 -1.52816 0
M  V30 27516 C 2613.42 1.0228 -1.73612 0
M  V30 27517 O 2612.47 1.80849 -1.7621 0
M  V30 27518 C 2613.79 -1.28246 -2.71981 0
M  V30 27519 C 2615.34 -1.27517 -2.85847 0
M  V30 27520 C 2615.81 -2.08079 -4.08004 0
M  V30 27521 N 2617.3 -2.05475 -4.15132 0
M  V30 27522 C 2618.04 -2.64586 -5.08706 0
M  V30 27523 N 2617.53 -3.32517 -6.07787 0
M  V30 27524 N 2619.33 -2.54372 -5.0125 0
M  V30 27525 H 2611.48 -1.74071 -1.2171 0
M  V30 27526 H 2613.74 -0.739407 -0.593281 0
M  V30 27527 H 2613.45 -2.33385 -2.63105 0
M  V30 27528 H 2613.32 -0.917153 -3.6588 0
M  V30 27529 H 2615.71 -0.231738 -2.94189 0
M  V30 27530 H 2615.79 -1.68018 -1.92883 0
M  V30 27531 H 2615.43 -3.12448 -4.00423 0
M  V30 27532 H 2615.36 -1.64956 -5.00097 0
M  V30 27533 H 2617.85 -1.56026 -3.44187 0
M  V30 27534 H 2618.17 -3.74974 -6.75732 0
M  V30 27535 H 2616.51 -3.36617 -6.08041 0
M  V30 27536 H 2619.7 -2.0091 -4.22792 0
M  V30 27537 H 2619.87 -3.00732 -5.7399 0
M  V30 27538 N 2613.28 1.48384 -0.531019 0
M  V30 27539 C 2614.21 2.32462 0.219944 0
M  V30 27540 C 2615.19 1.42158 0.934086 0
M  V30 27541 O 2616.38 1.71043 0.919663 0
M  V30 27542 C 2613.51 3.23377 1.26668 0
M  V30 27543 C 2612.46 4.22714 0.670616 0
M  V30 27544 C 2611.79 5.0277 1.82008 0
M  V30 27545 C 2613.09 5.21069 -0.35836 0
M  V30 27546 H 2614.78 2.95496 -0.481922 0
M  V30 27547 H 2612.33 1.42099 -0.233207 0
M  V30 27548 H 2614.28 3.81023 1.79999 0
M  V30 27549 H 2613 2.58345 1.99814 0
M  V30 27550 H 2611.66 3.66256 0.158813 0
M  V30 27551 H 2611.31 4.34161 2.53994 0
M  V30 27552 H 2611.01 5.70005 1.42717 0
M  V30 27553 H 2612.53 5.63268 2.35716 0
M  V30 27554 H 2613.95 5.73233 0.0879074 0
M  V30 27555 H 2612.35 5.96362 -0.668715 0
M  V30 27556 H 2613.42 4.68142 -1.26375 0
M  V30 27557 N 2614.76 0.2662 1.55336 0
M  V30 27558 C 2615.67 -0.635418 2.25831 0
M  V30 27559 C 2616.68 -1.17747 1.28108 0
M  V30 27560 O 2617.86 -1.20965 1.61026 0
M  V30 27561 C 2614.93 -1.80706 2.95882 0
M  V30 27562 C 2613.99 -1.30257 4.09062 0
M  V30 27563 C 2613.22 -2.41838 4.75763 0
M  V30 27564 O 2613.44 -3.60999 4.41628 0
M  V30 27565 O 2612.38 -2.105 5.63891 0
M  V30 27566 H 2616.2 -0.0646159 3.03631 0
M  V30 27567 H 2613.79 0.033944 1.49361 0
M  V30 27568 H 2615.67 -2.49041 3.39936 0
M  V30 27569 H 2614.34 -2.36512 2.21006 0
M  V30 27570 H 2613.25 -0.585954 3.69483 0
M  V30 27571 H 2614.58 -0.790373 4.85813 0
M  V30 27572 N 2616.24 -1.57599 -0.0066531 0
M  V30 27573 C 2617.48 -1.90559 -0.693914 0
M  V30 27574 C 2617.82 -0.866625 -1.73791 0
M  V30 27575 O 2617.09 0.115514 -1.94157 0
M  V30 27576 C 2617.37 -3.34115 -1.34311 0
M  V30 27577 C 2617.23 -4.48723 -0.31111 0
M  V30 27578 C 2618.55 -3.76974 -2.27109 0
M  V30 27579 H 2615.66 -0.693017 -0.250791 0
M  V30 27580 H 2618.31 -1.89951 0.0432754 0
M  V30 27581 H 2616.46 -3.34763 -1.97144 0
M  V30 27582 H 2618.13 -4.60209 0.317025 0
M  V30 27583 H 2616.37 -4.32242 0.367329 0
M  V30 27584 H 2617.04 -5.46109 -0.80427 0
M  V30 27585 H 2619.52 -3.77834 -1.743 0
M  V30 27586 H 2618.39 -4.78184 -2.69502 0
M  V30 27587 H 2618.66 -3.10472 -3.14738 0
M  V30 27588 N 2617.72 0.279305 -1.55105 0
M  V30 27589 C 2618.66 1.34509 -1.87552 0
M  V30 27590 C 2619.63 1.49374 -0.72641 0
M  V30 27591 O 2620.82 1.63883 -0.977092 0
M  V30 27592 C 2617.96 2.70147 -2.14743 0
M  V30 27593 C 2617.07 2.63556 -3.4229 0
M  V30 27594 C 2616.21 3.91331 -3.59213 0
M  V30 27595 C 2615.24 3.79225 -4.80474 0
M  V30 27596 N 2614.38 4.98821 -4.94087 0
M  V30 27597 H 2619.22 1.06138 -2.78458 0
M  V30 27598 H 2616.76 0.512912 -1.37868 0
M  V30 27599 H 2618.72 3.49057 -2.28507 0
M  V30 27600 H 2617.35 2.96733 -1.2708 0
M  V30 27601 H 2616.4 1.76391 -3.37032 0
M  V30 27602 H 2617.71 2.50508 -4.31332 0
M  V30 27603 H 2616.86 4.78681 -3.72759 0
M  V30 27604 H 2615.6 4.07238 -2.68344 0
M  V30 27605 H 2614.61 2.90258 -4.66937 0
M  V30 27606 H 2615.83 3.64842 -5.72772 0
M  V30 27607 H 2613.78 5.15151 -4.06148 0
M  V30 27608 H 2613.7 4.88279 -5.77165 0
M  V30 27609 H 2614.96 5.87761 -5.12013 0
M  V30 27610 N 2619.19 1.47931 0.543528 0
M  V30 27611 C 2620.12 1.6433 1.65885 0
M  V30 27612 C 2621.1 0.492412 1.62817 0
M  V30 27613 O 2622.29 0.72337 1.80225 0
M  V30 27614 C 2619.42 1.67019 3.04503 0
M  V30 27615 C 2618.37 2.81472 3.22425 0
M  V30 27616 C 2617.7 2.69241 4.61967 0
M  V30 27617 C 2619 4.22921 3.06489 0
M  V30 27618 H 2620.69 2.577 1.52417 0
M  V30 27619 H 2618.24 1.24017 0.731827 0
M  V30 27620 H 2620.19 1.77081 3.82388 0
M  V30 27621 H 2618.92 0.702176 3.18962 0
M  V30 27622 H 2617.58 2.70943 2.46953 0
M  V30 27623 H 2617.22 1.70438 4.73244 0
M  V30 27624 H 2616.92 3.46033 4.74905 0
M  V30 27625 H 2618.45 2.81251 5.41969 0
M  V30 27626 H 2619.86 4.34354 3.74178 0
M  V30 27627 H 2618.26 5.00606 3.30929 0
M  V30 27628 H 2619.33 4.4033 2.0307 0
M  V30 27629 N 2620.67 -0.791347 1.36292 0
M  V30 27630 C 2621.9 -1.58013 1.33564 0
M  V30 27631 C 2622.31 -1.88615 -0.0835285 0
M  V30 27632 O 2621.67 -1.49976 -1.03988 0
M  V30 27633 C 2621.72 -2.90229 2.15522 0
M  V30 27634 O 2621.44 -2.60946 3.51907 0
M  V30 27635 C 2622.94 -3.8454 2.20553 0
M  V30 27636 H 2620.16 -0.490165 0.458235 0
M  V30 27637 H 2622.71 -0.982314 1.79362 0
M  V30 27638 H 2620.86 -3.46484 1.73284 0
M  V30 27639 H 2621.28 -3.45474 3.9465 0
M  V30 27640 H 2622.75 -4.74377 2.8226 0
M  V30 27641 H 2623.23 -4.22248 1.20845 0
M  V30 27642 H 2623.83 -3.34218 2.63018 0
M  V30 27643 N 2622.15 -1.2054 -1.01528 0
M  V30 27644 C 2623.06 -0.97115 -2.13555 0
M  V30 27645 C 2624.08 0.073406 -1.73845 0
M  V30 27646 O 2625.25 -0.114334 -2.01075 0
M  V30 27647 C 2622.32 -0.527699 -3.42661 0
M  V30 27648 C 2621.38 -1.64326 -3.96605 0
M  V30 27649 C 2620.61 -1.22087 -5.19548 0
M  V30 27650 O 2620.83 -0.0901201 -5.70329 0
M  V30 27651 O 2619.77 -2.02881 -5.66677 0
M  V30 27652 H 2623.59 -1.90917 -2.36187 0
M  V30 27653 H 2621.18 -0.989382 -1.11945 0
M  V30 27654 H 2623.06 -0.289695 -4.20403 0
M  V30 27655 H 2621.74 0.381723 -3.21441 0
M  V30 27656 H 2620.64 -1.93556 -3.20136 0
M  V30 27657 H 2621.98 -2.52973 -4.22215 0
M  V30 27658 N 2623.63 1.20858 -1.01149 0
M  V30 27659 C 2624.85 1.94622 -0.716732 0
M  V30 27660 C 2625.28 1.73965 0.715384 0
M  V30 27661 O 2624.64 1.03065 1.49155 0
M  V30 27662 C 2624.68 3.44933 -1.05136 0
M  V30 27663 O 2623.79 4.12089 -0.160204 0
M  V30 27664 H 2623.13 0.60821 -0.266415 0
M  V30 27665 H 2625.66 1.53433 -1.35349 0
M  V30 27666 H 2625.67 3.95532 -1.00093 0
M  V30 27667 H 2624.34 3.59291 -2.09482 0
M  V30 27668 H 2622.92 3.71938 -0.267722 0
M  V30 27669 N 2625.11 0.787064 1.3654 0
M  V30 27670 C 2626.04 0.198033 2.32659 0
M  V30 27671 C 2627.02 -0.665669 1.56534 0
M  V30 27672 O 2628.2 -0.599978 1.84699 0
M  V30 27673 C 2625.33 -0.669841 3.40779 0
M  V30 27674 C 2624.29 0.0937791 4.27897 0
M  V30 27675 C 2623.61 -0.894536 5.27164 0
M  V30 27676 C 2624.91 1.28163 5.06332 0
M  V30 27677 H 2626.61 1.00104 2.82169 0
M  V30 27678 H 2624.15 0.482817 1.35665 0
M  V30 27679 H 2626.1 -1.09184 4.0701 0
M  V30 27680 H 2624.83 -1.50553 2.8983 0
M  V30 27681 H 2623.49 0.496724 3.63219 0
M  V30 27682 H 2623.14 -1.72519 4.72489 0
M  V30 27683 H 2622.84 -0.388046 5.86317 0
M  V30 27684 H 2624.36 -1.31515 5.96269 0
M  V30 27685 H 2625.77 0.93551 5.65616 0
M  V30 27686 H 2624.17 1.72125 5.74885 0
M  V30 27687 H 2625.24 2.07815 4.38111 0
M  V30 27688 N 2626.58 -1.48101 0.53888 0
M  V30 27689 C 2627.83 -2.02498 0.00803739 0
M  V30 27690 C 2628.16 -1.41511 -1.33435 0
M  V30 27691 O 2627.41 -0.55354 -1.87708 0
M  V30 27692 C 2627.71 -3.57069 -0.153745 0
M  V30 27693 C 2627.38 -4.36886 1.11541 0
M  V30 27694 C 2626.04 -4.58414 1.46322 0
M  V30 27695 C 2628.39 -4.83053 1.95726 0
M  V30 27696 C 2625.72 -5.23357 2.65169 0
M  V30 27697 C 2628.07 -5.49306 3.1376 0
M  V30 27698 C 2626.74 -5.69071 3.48876 0
M  V30 27699 H 2626.01 -0.740994 0.00294109 0
M  V30 27700 H 2628.65 -1.77983 0.706699 0
M  V30 27701 H 2626.96 -3.80474 -0.935242 0
M  V30 27702 H 2628.66 -3.9679 -0.579537 0
M  V30 27703 H 2625.25 -4.20396 0.834558 0
M  V30 27704 H 2629.43 -4.66216 1.70166 0
M  V30 27705 H 2624.69 -5.36856 2.92567 0
M  V30 27706 H 2628.86 -5.84046 3.79293 0
M  V30 27707 H 2626.49 -6.19165 4.41065 0
M  V30 27708 N 2628.06 -0.274434 -1.55192 0
M  V30 27709 C 2629.29 0.348788 -2.04446 0
M  V30 27710 C 2629.71 1.48733 -1.15152 0
M  V30 27711 O 2629.07 1.80679 -0.149984 0
M  V30 27712 C 2629.12 0.807947 -3.51432 0
M  V30 27713 O 2628.22 1.91525 -3.65229 0
M  V30 27714 H 2627.56 0.072216 -0.660061 0
M  V30 27715 H 2630.09 -0.408533 -2.0048 0
M  V30 27716 H 2630.1 1.10388 -3.92783 0
M  V30 27717 H 2628.78 -0.0250596 -4.15892 0
M  V30 27718 H 2627.35 1.6219 -3.35781 0
M  V30 27719 N 2629.54 1.576 -0.00170483 0
M  V30 27720 C 2630.49 2.08529 0.989158 0
M  V30 27721 C 2631.46 0.981088 1.34029 0
M  V30 27722 O 2632.64 1.25362 1.43837 0
M  V30 27723 C 2629.78 2.59467 2.27532 0
M  V30 27724 C 2628.89 3.83795 1.98307 0
M  V30 27725 C 2628.03 4.23227 3.21017 0
M  V30 27726 C 2627.07 5.40387 2.87486 0
M  V30 27727 N 2626.21 5.75105 4.02739 0
M  V30 27728 H 2631.05 2.92919 0.547921 0
M  V30 27729 H 2628.58 1.44804 0.258891 0
M  V30 27730 H 2630.54 2.87079 3.02724 0
M  V30 27731 H 2629.17 1.77948 2.69322 0
M  V30 27732 H 2628.22 3.6308 1.13476 0
M  V30 27733 H 2629.53 4.69084 1.69593 0
M  V30 27734 H 2628.69 4.5213 4.04553 0
M  V30 27735 H 2627.43 3.3665 3.52871 0
M  V30 27736 H 2626.43 5.11206 2.02358 0
M  V30 27737 H 2627.66 6.28642 2.56878 0
M  V30 27738 H 2625.6 4.91486 4.34485 0
M  V30 27739 H 2625.52 6.54972 3.77554 0
M  V30 27740 H 2626.79 6.08601 4.87058 0
M  V30 27741 N 2631.02 -0.271076 1.55251 0
M  V30 27742 C 2632.25 -1.01913 1.79715 0
M  V30 27743 C 2632.66 -1.80358 0.571645 0
M  V30 27744 O 2632 -1.77617 -0.468822 0
M  V30 27745 C 2632.06 -2.02354 2.97141 0
M  V30 27746 C 2631.72 -1.42829 4.34107 0
M  V30 27747 C 2632.72 -0.842981 5.1302 0
M  V30 27748 C 2630.41 -1.45492 4.80768 0
M  V30 27749 C 2632.4 -0.292221 6.3673 0
M  V30 27750 C 2630.09 -0.900295 6.04432 0
M  V30 27751 C 2631.09 -0.31995 6.8225 0
M  V30 27752 O 2630.77 0.226172 8.03582 0
M  V30 27753 H 2630.51 -0.30667 0.602436 0
M  V30 27754 H 2633.06 -0.306666 2.03098 0
M  V30 27755 H 2631.29 -2.77364 2.69455 0
M  V30 27756 H 2632.98 -2.63303 3.08911 0
M  V30 27757 H 2633.74 -0.815094 4.78102 0
M  V30 27758 H 2629.62 -1.89602 4.20205 0
M  V30 27759 H 2633.17 0.161397 6.97413 0
M  V30 27760 H 2629.06 -0.925429 6.38832 0
M  V30 27761 H 2629.83 0.115716 8.18418 0
M  V30 27762 N 2632.5 -1.48217 -0.535675 0
M  V30 27763 C 2633.44 -1.62315 -1.6408 0
M  V30 27764 C 2634.41 -0.465394 -1.59447 0
M  V30 27765 O 2635.6 -0.688167 -1.77958 0
M  V30 27766 C 2632.74 -1.66355 -3.02358 0
M  V30 27767 C 2631.85 -2.93198 -3.17268 0
M  V30 27768 C 2630.99 -2.88435 -4.4607 0
M  V30 27769 C 2630.03 -4.10008 -4.54489 0
M  V30 27770 N 2629.16 -4.03355 -5.74673 0
M  V30 27771 H 2634 -2.56693 -1.5137 0
M  V30 27772 H 2631.54 -1.27303 -0.737037 0
M  V30 27773 H 2633.5 -1.66679 -3.82458 0
M  V30 27774 H 2632.13 -0.754727 -3.13853 0
M  V30 27775 H 2631.18 -3.02645 -2.30457 0
M  V30 27776 H 2632.49 -3.83167 -3.1935 0
M  V30 27777 H 2631.65 -2.87128 -5.34455 0
M  V30 27778 H 2630.38 -1.96185 -4.465 0
M  V30 27779 H 2629.39 -4.11596 -3.64512 0
M  V30 27780 H 2630.61 -5.0341 -4.55801 0
M  V30 27781 H 2628.56 -3.13922 -5.76011 0
M  V30 27782 H 2628.48 -4.87023 -5.78225 0
M  V30 27783 H 2629.75 -4.06099 -6.6536 0
M  V30 27784 N 2633.97 0.784108 -1.3671 0
M  V30 27785 C 2635.22 1.53916 -1.30975 0
M  V30 27786 C 2635.54 1.94695 0.109051 0
M  V30 27787 O 2634.81 1.65355 1.05046 0
M  V30 27788 H 2633.39 0.570833 -0.481829 0
M  V30 27789 H 2636.06 0.933971 -1.71064 0
M  V30 27790 H 2635.15 2.44428 -1.94066 0
M  V30 27791 N 2635.45 1.21076 1.00888 0
M  V30 27792 C 2636.4 0.963513 2.11705 0
M  V30 27793 C 2637.39 -0.0878734 1.69172 0
M  V30 27794 O 2638.6 0.0631731 1.79889 0
M  V30 27795 H 2634.98 0.294299 0.69202 0
M  V30 27796 H 2636.95 1.90426 2.2974 0
M  V30 27797 C 2635.7 0.54057 3.43472 0
M  V30 27798 H 2635.02 1.34121 3.76632 0
M  V30 27799 H 2636.46 0.406851 4.22044 0
M  V30 27800 C 2634.92 -0.748021 3.28491 0
M  V30 27801 O 2635.45 -1.80453 3.58886 0
M  V30 27802 N 2633.65 -0.713032 2.81717 0
M  V30 27803 H 2633.2 0.147018 2.5718 0
M  V30 27804 H 2633.16 -1.57553 2.72074 0
M  V30 27805 N 2636.93 -1.2032 1.01789 0
M  V30 27806 C 2638.18 -1.90002 0.709018 0
M  V30 27807 C 2638.51 -1.78731 -0.759541 0
M  V30 27808 O 2637.78 -1.17237 -1.55196 0
M  V30 27809 C 2638.07 -3.41346 1.14696 0
M  V30 27810 C 2637.92 -3.61544 2.67593 0
M  V30 27811 C 2639.24 -4.34183 0.719226 0
M  V30 27812 H 2636.36 -0.689974 0.259046 0
M  V30 27813 H 2639 -1.4169 1.26586 0
M  V30 27814 H 2637.15 -3.82623 0.673195 0
M  V30 27815 H 2638.82 -3.29511 3.22832 0
M  V30 27816 H 2637.07 -3.04971 3.08505 0
M  V30 27817 H 2637.74 -4.67638 2.93289 0
M  V30 27818 H 2640.21 -4.0056 1.12654 0
M  V30 27819 H 2639.09 -5.38692 1.05367 0
M  V30 27820 H 2639.35 -4.40472 -0.379034 0
M  V30 27821 N 2638.41 -0.794293 -1.3612 0
M  V30 27822 C 2639.36 -0.184064 -2.31871 0
M  V30 27823 C 2640.35 0.659338 -1.56042 0
M  V30 27824 O 2641.56 0.553876 -1.71267 0
M  V30 27825 H 2637.93 -0.0407505 -0.750895 0
M  V30 27826 H 2639.9 -1.00698 -2.80896 0
M  V30 27827 C 2638.65 0.662753 -3.41325 0
M  V30 27828 H 2637.97 0.0231242 -3.99793 0
M  V30 27829 H 2639.41 1.05632 -4.10631 0
M  V30 27830 C 2637.87 1.82308 -2.83312 0
M  V30 27831 O 2638.4 2.91992 -2.75869 0
M  V30 27832 N 2636.61 1.63072 -2.40532 0
M  V30 27833 H 2636.16 0.738548 -2.46786 0
M  V30 27834 H 2636.11 2.40868 -2.02064 0
M  V30 27835 N 2639.89 1.47813 -0.546727 0
M  V30 27836 C 2641.11 2.06887 -0.023322 0
M  V30 27837 C 2641.53 1.40092 1.26569 0
M  V30 27838 O 2640.89 0.493937 1.75689 0
M  V30 27839 C 2640.94 3.61016 0.186912 0
M  V30 27840 O 2640.66 4.25305 -1.05104 0
M  V30 27841 C 2642.16 4.3693 0.748795 0
M  V30 27842 H 2639.38 0.669741 -0.041088 0
M  V30 27843 H 2641.92 1.89967 -0.75715 0
M  V30 27844 H 2640.08 3.77485 0.870837 0
M  V30 27845 H 2640.49 5.17694 -0.842212 0
M  V30 27846 H 2641.97 5.4549 0.845238 0
M  V30 27847 H 2642.44 4.02496 1.75765 0
M  V30 27848 H 2643.05 4.2518 0.100904 0
M  V30 27849 N 2641.36 0.28266 1.55044 0
M  V30 27850 C 2642.27 -0.61143 2.26492 0
M  V30 27851 C 2643.29 -1.16381 1.2935 0
M  V30 27852 O 2644.47 -1.1925 1.623 0
M  V30 27853 C 2641.53 -1.77558 2.97782 0
M  V30 27854 C 2640.59 -1.25911 4.1042 0
M  V30 27855 C 2639.83 -2.36778 4.78301 0
M  V30 27856 O 2640.05 -3.56295 4.45432 0
M  V30 27857 O 2638.98 -2.04507 5.66092 0
M  V30 27858 H 2642.81 -0.0324082 3.03683 0
M  V30 27859 H 2640.39 0.0497838 1.49317 0
M  V30 27860 H 2642.28 -2.45421 3.42559 0
M  V30 27861 H 2640.95 -2.34155 2.23502 0
M  V30 27862 H 2639.86 -0.546732 3.70083 0
M  V30 27863 H 2641.19 -0.738801 4.86624 0
M  V30 27864 N 2642.84 -1.57597 0.0100627 0
M  V30 27865 C 2644.25 -1.78978 -0.531394 0
M  V30 27866 C 2644.6 -0.918485 -1.73373 0
M  V30 27867 O 2643.73 -0.123673 -2.16046 0
M  V30 27868 C 2644.32 -3.24593 -0.970803 0
M  V30 27869 C 2642.88 -3.47036 -1.4575 0
M  V30 27870 C 2642.03 -2.74202 -0.413336 0
M  V30 27871 H 2644.98 -1.56933 0.236193 0
M  V30 27872 H 2645 -3.33259 -1.83627 0
M  V30 27873 H 2644.51 -3.87982 -0.0955211 0
M  V30 27874 H 2642.62 -2.88875 -2.35334 0
M  V30 27875 H 2642.73 -4.55732 -1.47802 0
M  V30 27876 H 2641.09 -2.39117 -0.877224 0
M  V30 27877 H 2641.88 -3.40296 0.453151 0
M  V30 27878 N 2644.32 0.262839 -1.55393 0
M  V30 27879 C 2645.55 1.01105 -1.80514 0
M  V30 27880 C 2645.96 1.79555 -0.583565 0
M  V30 27881 O 2645.32 1.76927 0.447554 0
M  V30 27882 C 2645.37 1.96159 -3.03651 0
M  V30 27883 O 2645.09 1.20886 -4.21092 0
M  V30 27884 C 2646.59 2.82709 -3.41453 0
M  V30 27885 H 2643.81 0.298225 -0.601085 0
M  V30 27886 H 2646.36 0.290546 -2.02425 0
M  V30 27887 H 2644.51 2.63658 -2.83837 0
M  V30 27888 H 2644.93 1.85042 -4.90775 0
M  V30 27889 H 2646.4 3.45184 -4.30757 0
M  V30 27890 H 2646.88 3.53004 -2.61314 0
M  V30 27891 H 2647.48 2.20686 -3.63562 0
M  V30 27892 N 2645.8 1.48499 0.527807 0
M  V30 27893 C 2646.71 1.6587 1.65905 0
M  V30 27894 C 2647.72 0.541221 1.65369 0
M  V30 27895 O 2648.9 0.812566 1.84281 0
M  V30 27896 C 2645.97 1.69642 3.02361 0
M  V30 27897 C 2645.03 2.93034 3.13735 0
M  V30 27898 C 2644.26 2.96617 4.43683 0
M  V30 27899 O 2644.48 2.08547 5.30909 0
M  V30 27900 O 2643.42 3.8881 4.59468 0
M  V30 27901 H 2647.24 2.6165 1.54186 0
M  V30 27902 H 2644.83 1.31926 0.70114 0
M  V30 27903 H 2646.71 1.74632 3.83512 0
M  V30 27904 H 2645.38 0.770368 3.14399 0
M  V30 27905 H 2644.29 2.93575 2.31871 0
M  V30 27906 H 2645.62 3.85031 3.06614 0
M  V30 27907 N 2647.28 -0.776847 1.37123 0
M  V30 27908 C 2648.23 -1.91135 1.32552 0
M  V30 27909 C 2649.22 -1.68028 0.215149 0
M  V30 27910 O 2650.43 -1.75881 0.382883 0
M  V30 27911 H 2646.8 -0.628463 0.412963 0
M  V30 27912 H 2648.77 -1.92108 2.28335 0
M  V30 27913 C 2647.52 -3.28331 1.14428 0
M  V30 27914 H 2646.84 -3.46686 1.99121 0
M  V30 27915 H 2648.28 -4.08028 1.15279 0
M  V30 27916 C 2646.74 -3.36564 -0.150375 0
M  V30 27917 O 2647.27 -3.85309 -1.13577 0
M  V30 27918 N 2645.48 -2.89916 -0.199339 0
M  V30 27919 H 2645.03 -2.50438 0.603186 0
M  V30 27920 H 2644.98 -2.95805 -1.06521 0
M  V30 27921 N 2648.76 -1.2161 -1.00244 0
M  V30 27922 C 2649.69 -0.920929 -2.08792 0
M  V30 27923 C 2650.67 0.132524 -1.62059 0
M  V30 27924 O 2651.85 0.00300347 -1.885 0
M  V30 27925 C 2648.98 -0.383286 -3.36524 0
M  V30 27926 C 2648.02 -1.41994 -4.02169 0
M  V30 27927 S 2648.86 -2.99001 -4.4425 0
M  V30 27928 C 2650.01 -2.4685 -5.75166 0
M  V30 27929 H 2650.25 -1.84014 -2.33508 0
M  V30 27930 H 2647.78 -1.04611 -1.1356 0
M  V30 27931 H 2649.74 -0.0796593 -4.10423 0
M  V30 27932 H 2648.4 0.514657 -3.09855 0
M  V30 27933 H 2647.59 -0.993422 -4.94112 0
M  V30 27934 H 2647.19 -1.67177 -3.34556 0
M  V30 27935 H 2649.48 -1.87496 -6.51039 0
M  V30 27936 H 2650.43 -3.37246 -6.22632 0
M  V30 27937 H 2650.84 -1.8847 -5.32108 0
M  V30 27938 N 2650.23 1.19778 -1.02425 0
M  V30 27939 C 2651.16 2.25074 -0.621609 0
M  V30 27940 C 2652.14 1.66091 0.367119 0
M  V30 27941 O 2653.33 1.92573 0.250858 0
M  V30 27942 C 2650.46 3.47284 0.0331216 0
M  V30 27943 C 2649.41 4.1891 -0.877397 0
M  V30 27944 C 2648.74 5.34628 -0.0880236 0
M  V30 27945 C 2650.04 4.74215 -2.189 0
M  V30 27946 H 2651.73 2.59008 -1.50183 0
M  V30 27947 H 2649.28 1.24501 -0.723569 0
M  V30 27948 H 2651.23 4.20134 0.326414 0
M  V30 27949 H 2649.96 3.12536 0.948109 0
M  V30 27950 H 2648.62 3.47936 -1.15481 0
M  V30 27951 H 2648.26 4.96124 0.828854 0
M  V30 27952 H 2647.96 5.83482 -0.694461 0
M  V30 27953 H 2649.49 6.10277 0.198636 0
M  V30 27954 H 2650.9 5.38844 -1.95755 0
M  V30 27955 H 2649.3 5.33537 -2.74696 0
M  V30 27956 H 2650.37 3.92536 -2.84681 0
M  V30 27957 N 2651.71 0.801501 1.35697 0
M  V30 27958 C 2652.96 0.380057 1.99207 0
M  V30 27959 C 2653.29 -1.04875 1.63447 0
M  V30 27960 O 2652.57 -1.72672 0.895253 0
M  V30 27961 C 2652.85 0.55777 3.55754 0
M  V30 27962 C 2652.7 2.03114 4.01329 0
M  V30 27963 C 2654.02 -0.0197195 4.40096 0
M  V30 27964 H 2651.14 0.139565 0.723665 0
M  V30 27965 H 2653.78 1.01009 1.60926 0
M  V30 27966 H 2651.93 0.0214424 3.88494 0
M  V30 27967 H 2653.6 2.62946 3.79021 0
M  V30 27968 H 2651.85 2.52942 3.52424 0
M  V30 27969 H 2652.52 2.10639 5.1023 0
M  V30 27970 H 2654.99 0.438251 4.13786 0
M  V30 27971 H 2653.87 0.134573 5.48735 0
M  V30 27972 H 2654.13 -1.11296 4.27862 0
M  V30 27973 N 2653.19 -1.47521 0.554558 0
M  V30 27974 C 2654.15 -2.28459 -0.184134 0
M  V30 27975 C 2655.15 -1.36797 -0.84517 0
M  V30 27976 O 2656.34 -1.59454 -0.701439 0
M  V30 27977 C 2653.47 -3.16401 -1.26898 0
M  V30 27978 H 2654.67 -2.95237 0.526803 0
M  V30 27979 H 2652.22 -1.53167 0.311402 0
M  V30 27980 H 2652.96 -2.54309 -2.01239 0
M  V30 27981 H 2652.74 -3.83856 -0.799816 0
M  V30 27982 H 2654.23 -3.77392 -1.78788 0
M  V30 27983 N 2654.67 -0.290879 -1.54892 0
M  V30 27984 C 2655.91 0.321832 -2.0023 0
M  V30 27985 C 2656.25 1.54314 -1.17902 0
M  V30 27986 O 2655.52 1.92848 -0.252964 0
M  V30 27987 C 2655.8 0.688453 -3.53458 0
M  V30 27988 C 2655.66 -0.541287 -4.46531 0
M  V30 27989 C 2656.98 1.51888 -4.13059 0
M  V30 27990 H 2654.1 0.115502 -0.727893 0
M  V30 27991 H 2656.74 -0.400963 -1.85721 0
M  V30 27992 H 2654.89 1.30427 -3.65952 0
M  V30 27993 H 2656.56 -1.17981 -4.45958 0
M  V30 27994 H 2654.8 -1.17643 -4.17543 0
M  V30 27995 H 2655.47 -0.240772 -5.51475 0
M  V30 27996 H 2657.95 0.998649 -4.03938 0
M  V30 27997 H 2656.83 1.74419 -5.20451 0
M  V30 27998 H 2657.09 2.50492 -3.64289 0
M  V30 27999 N 2656.15 1.57589 -0.0184203 0
M  V30 28000 C 2657.42 1.82623 0.700589 0
M  V30 28001 C 2657.8 0.900084 1.90949 0
M  V30 28002 O 2657.15 -0.0468744 2.28452 0
M  V30 28003 C 2657.36 3.31577 1.08893 0
M  V30 28004 C 2658.71 3.97782 1.48507 0
M  V30 28005 O 2659.73 3.36009 1.18221 0
M  V30 28006 O 2658.59 5.06636 2.04894 0
M  V30 28007 H 2655.69 0.752639 0.34273 0
M  V30 28008 H 2658.23 1.6964 -0.0452846 0
M  V30 28009 H 2657 3.90635 0.228044 0
M  V30 28010 H 2656.63 3.49628 1.89331 0
M  V30 28011 N 2657.62 -0.254594 1.5553 0
M  V30 28012 C 2658.57 -1.3178 1.86059 0
M  V30 28013 C 2659.56 -1.43849 0.720852 0
M  V30 28014 O 2660.75 -1.4722 0.982612 0
M  V30 28015 C 2657.88 -2.67471 2.15208 0
M  V30 28016 C 2656.96 -2.59438 3.35489 0
M  V30 28017 N 2657.36 -2.21032 4.54949 0
M  V30 28018 C 2655.65 -2.90466 3.38446 0
M  V30 28019 C 2656.35 -2.23443 5.37074 0
M  V30 28020 N 2655.33 -2.62643 4.75941 0
M  V30 28021 H 2659.13 -1.01124 2.75955 0
M  V30 28022 H 2656.65 -0.463228 1.55653 0
M  V30 28023 H 2658.64 -3.4419 2.35241 0
M  V30 28024 H 2657.3 -2.99 1.26606 0
M  V30 28025 H 2658.31 -1.92703 4.80714 0
M  V30 28026 H 2654.99 -3.26586 2.60092 0
M  V30 28027 H 2656.38 -1.96155 6.4263 0
M  V30 28028 N 2659.1 -1.48777 -0.519925 0
M  V30 28029 C 2660.33 -1.60751 -1.2978 0
M  V30 28030 C 2660.74 -0.270753 -1.87253 0
M  V30 28031 O 2660.08 0.751408 -1.67629 0
M  V30 28032 C 2660.14 -2.60281 -2.4798 0
M  V30 28033 C 2659.81 -4.05103 -2.11519 0
M  V30 28034 C 2660.81 -4.92484 -1.66599 0
M  V30 28035 C 2658.49 -4.5071 -2.21734 0
M  V30 28036 C 2660.48 -6.23503 -1.32373 0
M  V30 28037 C 2658.17 -5.81747 -1.87119 0
M  V30 28038 C 2659.17 -6.67967 -1.42511 0
M  V30 28039 O 2658.86 -7.96564 -1.08356 0
M  V30 28040 H 2658.59 -0.544549 -0.400552 0
M  V30 28041 H 2661.14 -1.95408 -0.632845 0
M  V30 28042 H 2659.37 -2.20766 -3.17489 0
M  V30 28043 H 2661.06 -2.61983 -3.10031 0
M  V30 28044 H 2661.83 -4.58484 -1.58169 0
M  V30 28045 H 2657.71 -3.83781 -2.55408 0
M  V30 28046 H 2661.25 -6.90755 -0.974828 0
M  V30 28047 H 2657.15 -6.1528 -1.95193 0
M  V30 28048 H 2657.92 -8.09407 -1.21667 0
M  V30 28049 N 2660.58 0.769564 -1.37534 0
M  V30 28050 C 2661.54 1.86454 -1.33295 0
M  V30 28051 C 2662.54 1.5905 -0.236565 0
M  V30 28052 O 2663.73 1.67092 -0.49254 0
M  V30 28053 C 2660.86 3.23631 -1.07124 0
M  V30 28054 H 2662.06 1.91623 -2.30696 0
M  V30 28055 H 2659.61 0.96955 -1.22594 0
M  V30 28056 H 2660.35 3.24138 -0.102635 0
M  V30 28057 H 2660.13 3.44914 -1.86485 0
M  V30 28058 H 2661.62 4.03709 -1.06813 0
M  V30 28059 N 2662.06 1.22139 0.995977 0
M  V30 28060 C 2663.31 1.04203 1.73165 0
M  V30 28061 C 2663.63 -0.424197 1.9033 0
M  V30 28062 O 2662.9 -1.30536 1.46072 0
M  V30 28063 H 2661.48 0.382591 0.641586 0
M  V30 28064 H 2664.14 1.536 1.19971 0
M  V30 28065 H 2663.24 1.51736 2.72732 0
M  V30 28066 N 2663.54 -1.19233 1.03059 0
M  V30 28067 C 2664.47 -2.21974 0.570971 0
M  V30 28068 C 2665.48 -1.58903 -0.35406 0
M  V30 28069 O 2666.67 -1.77867 -0.15018 0
M  V30 28070 C 2663.77 -3.38383 -0.187092 0
M  V30 28071 C 2662.94 -4.31038 0.743307 0
M  V30 28072 C 2662 -5.26191 0.0303418 0
M  V30 28073 O 2661.03 -5.6539 0.657471 0
M  V30 28074 N 2662.23 -5.67106 -1.23981 0
M  V30 28075 H 2665 -2.62033 1.4546 0
M  V30 28076 H 2662.56 -1.33917 0.90983 0
M  V30 28077 H 2664.55 -3.99054 -0.673645 0
M  V30 28078 H 2663.12 -2.97099 -0.972153 0
M  V30 28079 H 2662.34 -3.68124 1.40992 0
M  V30 28080 H 2663.63 -4.89852 1.37559 0
M  V30 28081 H 2663.02 -5.37296 -1.77002 0
M  V30 28082 H 2661.58 -6.30021 -1.67082 0
M  V30 28083 N 2665.01 -0.808686 -1.3527 0
M  V30 28084 C 2665.94 -0.235022 -2.32314 0
M  V30 28085 C 2666.93 0.640682 -1.57573 0
M  V30 28086 O 2668.11 0.570518 -1.85631 0
M  V30 28087 C 2665.24 0.615541 -3.41802 0
M  V30 28088 C 2664.19 -0.161842 -4.27694 0
M  V30 28089 C 2663.52 0.810556 -5.28521 0
M  V30 28090 C 2664.82 -1.36202 -5.04229 0
M  V30 28091 H 2666.51 -1.0458 -2.80541 0
M  V30 28092 H 2664.06 -0.504339 -1.34879 0
M  V30 28093 H 2666.01 1.02695 -4.08695 0
M  V30 28094 H 2664.74 1.45923 -2.92189 0
M  V30 28095 H 2663.4 -0.554446 -3.62383 0
M  V30 28096 H 2663.04 1.6498 -4.75174 0
M  V30 28097 H 2662.74 0.294719 -5.8686 0
M  V30 28098 H 2664.27 1.22012 -5.98285 0
M  V30 28099 H 2665.68 -1.02538 -5.64056 0
M  V30 28100 H 2664.08 -1.81249 -5.72074 0
M  V30 28101 H 2665.15 -2.14759 -4.34749 0
M  V30 28102 N 2666.49 1.47225 -0.562374 0
M  V30 28103 C 2667.42 2.32876 0.170586 0
M  V30 28104 C 2668.4 1.44107 0.903722 0
M  V30 28105 O 2669.59 1.72956 0.883176 0
M  V30 28106 C 2666.72 3.25991 1.1978 0
M  V30 28107 C 2665.67 4.24041 0.580801 0
M  V30 28108 C 2665 5.06517 1.71302 0
M  V30 28109 C 2666.3 5.20192 -0.468806 0
M  V30 28110 H 2667.99 2.94407 -0.544492 0
M  V30 28111 H 2665.54 1.41572 -0.263296 0
M  V30 28112 H 2667.49 3.84755 1.71877 0
M  V30 28113 H 2666.22 2.62525 1.94289 0
M  V30 28114 H 2664.87 3.6651 0.0810894 0
M  V30 28115 H 2664.52 4.39451 2.44728 0
M  V30 28116 H 2664.22 5.72904 1.30594 0
M  V30 28117 H 2665.75 5.68141 2.23715 0
M  V30 28118 H 2667.16 5.7329 -0.0337035 0
M  V30 28119 H 2665.56 5.9481 -0.795062 0
M  V30 28120 H 2666.63 4.65356 -1.36277 0
M  V30 28121 N 2667.97 0.299089 1.54736 0
M  V30 28122 C 2669.2 -0.316218 2.04975 0
M  V30 28123 C 2669.62 -1.46883 1.17504 0
M  V30 28124 O 2668.98 -1.80417 0.17871 0
M  V30 28125 C 2669.03 -0.751935 3.52673 0
M  V30 28126 O 2668.13 -1.8569 3.68229 0
M  V30 28127 H 2667.47 -0.0617058 0.661127 0
M  V30 28128 H 2670 0.440376 1.99805 0
M  V30 28129 H 2670.01 -1.04126 3.94489 0
M  V30 28130 H 2668.69 0.0912213 4.158 0
M  V30 28131 H 2667.26 -1.56828 3.38319 0
M  V30 28132 N 2669.45 -1.57577 0.0267774 0
M  V30 28133 C 2670.38 -2.1311 -0.95427 0
M  V30 28134 C 2671.36 -1.04665 -1.34086 0
M  V30 28135 O 2672.54 -1.32486 -1.4199 0
M  V30 28136 C 2669.67 -2.65628 -2.23739 0
M  V30 28137 C 2668.63 -3.78839 -1.99162 0
M  V30 28138 C 2667.95 -4.17775 -3.33719 0
M  V30 28139 C 2669.25 -5.05012 -1.33268 0
M  V30 28140 H 2670.95 -2.95333 -0.491796 0
M  V30 28141 H 2668.49 -1.42068 -0.235115 0
M  V30 28142 H 2670.45 -3.03111 -2.92748 0
M  V30 28143 H 2669.17 -1.80563 -2.72148 0
M  V30 28144 H 2667.83 -3.4179 -1.32571 0
M  V30 28145 H 2667.48 -3.29695 -3.79882 0
M  V30 28146 H 2667.18 -4.94063 -3.18081 0
M  V30 28147 H 2668.7 -4.57839 -4.03999 0
M  V30 28148 H 2670.12 -5.40096 -1.92273 0
M  V30 28149 H 2668.51 -5.86282 -1.28035 0
M  V30 28150 H 2669.58 -4.83938 -0.305326 0
M  V30 28151 N 2670.93 0.246342 -1.55663 0
M  V30 28152 C 2672.2 0.997169 -1.68273 0
M  V30 28153 C 2672.58 2.03348 -0.566821 0
M  V30 28154 O 2671.93 2.24424 0.429648 0
M  V30 28155 C 2672.14 1.63001 -3.08597 0
M  V30 28156 C 2673.49 2.13165 -3.67214 0
M  V30 28157 O 2674.51 1.7294 -3.114 0
M  V30 28158 O 2673.37 2.87023 -4.65059 0
M  V30 28159 H 2670.47 0.464193 -0.684437 0
M  V30 28160 H 2673.01 0.240085 -1.67993 0
M  V30 28161 H 2671.78 0.88046 -3.81266 0
M  V30 28162 H 2671.41 2.45328 -3.1289 0
M  V30 28163 N 2672.4 1.4905 0.512027 0
M  V30 28164 C 2673.65 1.57229 1.2634 0
M  V30 28165 C 2673.97 0.259189 1.93875 0
M  V30 28166 O 2675.17 0.219405 2.70612 0
M  V30 28167 C 2673.63 2.77366 2.29338 0
M  V30 28168 C 2673.24 4.15391 1.67792 0
M  V30 28169 C 2674.98 2.94869 3.05373 0
M  V30 28170 C 2672.89 5.26765 2.68836 0
M  V30 28171 H 2671.82 0.58539 0.475221 0
M  V30 28172 H 2674.47 1.75418 0.53859 0
M  V30 28173 H 2672.85 2.52649 3.04934 0
M  V30 28174 H 2674.02 4.50201 0.982636 0
M  V30 28175 H 2672.34 4.03155 1.04187 0
M  V30 28176 H 2674.94 3.75245 3.80914 0
M  V30 28177 H 2675.28 2.05006 3.62323 0
M  V30 28178 H 2675.81 3.19573 2.36892 0
M  V30 28179 H 2672.55 6.18651 2.16681 0
M  V30 28180 H 2672.07 4.96422 3.36638 0
M  V30 28181 H 2673.75 5.55636 3.31478 0
M  V30 28182 N 2673.88 -0.762259 1.3794 0
M  V30 28183 C 2675.29 -1.33909 1.30097 0
M  V30 28184 C 2675.64 -1.96143 -0.0471681 0
M  V30 28185 O 2674.77 -1.94475 -0.949136 0
M  V30 28186 C 2675.36 -2.43474 2.35597 0
M  V30 28187 C 2673.92 -2.96901 2.31359 0
M  V30 28188 C 2673.07 -1.70201 2.18922 0
M  V30 28189 H 2676.02 -0.56179 1.48424 0
M  V30 28190 H 2676.04 -3.23195 2.00811 0
M  V30 28191 H 2675.55 -1.9815 3.33704 0
M  V30 28192 H 2673.66 -3.46576 1.36805 0
M  V30 28193 H 2673.77 -3.5187 3.25153 0
M  V30 28194 H 2672.13 -1.93494 1.65627 0
M  V30 28195 H 2672.92 -1.26967 3.18958 0
M  V30 28196 N 2675.36 -1.22666 -0.989486 0
M  V30 28197 C 2676.59 -1.0797 -1.76494 0
M  V30 28198 C 2677 0.369511 -1.85149 0
M  V30 28199 O 2676.36 1.25594 -1.3241 0
M  V30 28200 C 2676.41 -1.68858 -3.19639 0
M  V30 28201 O 2676.13 -3.08111 -3.11447 0
M  V30 28202 C 2677.63 -1.59483 -4.13618 0
M  V30 28203 H 2674.85 -0.378328 -0.554174 0
M  V30 28204 H 2677.4 -1.6233 -1.24376 0
M  V30 28205 H 2675.55 -1.18553 -3.68814 0
M  V30 28206 H 2675.97 -3.37496 -4.01493 0
M  V30 28207 H 2677.44 -2.06804 -5.11797 0
M  V30 28208 H 2677.92 -0.551986 -4.35718 0
M  V30 28209 H 2678.52 -2.0911 -3.70342 0
M  V30 28210 N 2676.84 1.18685 -1.0369 0
M  V30 28211 C 2678.06 1.93058 -0.757853 0
M  V30 28212 C 2678.49 1.75443 0.678323 0
M  V30 28213 O 2677.85 1.06205 1.46936 0
M  V30 28214 C 2677.9 3.42625 -1.12429 0
M  V30 28215 O 2677 4.11656 -0.247578 0
M  V30 28216 H 2676.34 0.602422 -0.279256 0
M  V30 28217 H 2678.87 1.50528 -1.38573 0
M  V30 28218 H 2678.88 3.9332 -1.0846 0
M  V30 28219 H 2677.56 3.54767 -2.17056 0
M  V30 28220 H 2676.13 3.71286 -0.346555 0
M  V30 28221 N 2678.32 0.815849 1.34839 0
M  V30 28222 C 2679.23 0.234503 2.33425 0
M  V30 28223 C 2680.24 -0.627384 1.62296 0
M  V30 28224 O 2681.42 -0.536953 1.9411 0
M  V30 28225 C 2678.48 -0.599789 3.41472 0
M  V30 28226 C 2677.55 0.283671 4.28362 0
M  V30 28227 C 2676.78 -0.510897 5.31249 0
M  V30 28228 O 2677 -1.7448 5.43059 0
M  V30 28229 O 2675.94 0.103075 6.01812 0
M  V30 28230 H 2679.76 1.05029 2.84961 0
M  V30 28231 H 2677.35 0.577834 1.37773 0
M  V30 28232 H 2679.23 -1.07468 4.07466 0
M  V30 28233 H 2677.9 -1.39302 2.92193 0
M  V30 28234 H 2676.81 0.805901 3.65316 0
M  V30 28235 H 2678.14 1.04108 4.81064 0
M  V30 28236 N 2679.8 -1.46924 0.570174 0
M  V30 28237 C 2680.73 -2.32963 -0.158233 0
M  V30 28238 C 2681.71 -1.44584 -0.896067 0
M  V30 28239 O 2682.89 -1.73422 -0.873991 0
M  V30 28240 C 2680.02 -3.26621 -1.1805 0
M  V30 28241 C 2678.98 -4.24343 -0.558305 0
M  V30 28242 C 2678.3 -5.07418 -1.68614 0
M  V30 28243 C 2679.6 -5.19936 0.496386 0
M  V30 28244 H 2681.3 -2.94114 0.560098 0
M  V30 28245 H 2678.84 -1.41431 0.2708 0
M  V30 28246 H 2680.79 -3.85661 -1.69834 0
M  V30 28247 H 2679.52 -2.63552 -1.92894 0
M  V30 28248 H 2678.18 -3.66548 -0.0616513 0
M  V30 28249 H 2677.83 -4.40743 -2.42394 0
M  V30 28250 H 2677.53 -5.73589 -1.27554 0
M  V30 28251 H 2679.05 -5.69319 -2.20699 0
M  V30 28252 H 2680.46 -5.73264 0.064106 0
M  V30 28253 H 2678.86 -5.9438 0.826595 0
M  V30 28254 H 2679.93 -4.64627 1.38743 0
M  V30 28255 N 2681.27 -0.307291 -1.54575 0
M  V30 28256 C 2682.5 0.302561 -2.04676 0
M  V30 28257 C 2682.92 1.47039 -1.18427 0
M  V30 28258 O 2682.27 1.81273 -0.211289 0
M  V30 28259 C 2682.32 0.752739 -3.53576 0
M  V30 28260 O 2682.05 -0.368613 -4.36547 0
M  V30 28261 C 2683.55 1.42709 -4.19701 0
M  V30 28262 H 2680.77 0.0648257 -0.667861 0
M  V30 28263 H 2683.31 -0.448751 -1.99516 0
M  V30 28264 H 2681.47 1.45406 -3.59076 0
M  V30 28265 H 2681.88 -0.0169859 -5.24497 0
M  V30 28266 H 2683.35 1.69318 -5.25391 0
M  V30 28267 H 2683.83 2.36918 -3.69819 0
M  V30 28268 H 2684.44 0.768782 -4.18294 0
M  V30 28269 N 2682.75 1.57561 -0.0351337 0
M  V30 28270 C 2683.68 2.13613 0.942955 0
M  V30 28271 C 2684.66 1.05375 1.33529 0
M  V30 28272 O 2685.85 1.33237 1.41285 0
M  V30 28273 C 2682.98 2.66811 2.22327 0
M  V30 28274 C 2681.93 3.79889 1.9715 0
M  V30 28275 C 2681.26 4.19539 3.31498 0
M  V30 28276 C 2682.56 5.05712 1.30588 0
M  V30 28277 H 2684.25 2.9559 0.476127 0
M  V30 28278 H 2681.8 1.4219 0.227577 0
M  V30 28279 H 2683.75 3.04659 2.91137 0
M  V30 28280 H 2682.47 1.82004 2.71187 0
M  V30 28281 H 2681.13 3.42488 1.30757 0
M  V30 28282 H 2680.78 3.31705 3.78128 0
M  V30 28283 H 2680.48 4.95743 3.15456 0
M  V30 28284 H 2682.01 4.59975 4.01566 0
M  V30 28285 H 2683.42 5.41108 1.89406 0
M  V30 28286 H 2681.82 5.86953 1.24924 0
M  V30 28287 H 2682.89 4.84093 0.279657 0
M  V30 28288 N 2684.23 -0.238084 1.55791 0
M  V30 28289 C 2685.18 -1.29489 1.91053 0
M  V30 28290 C 2686.15 -1.47395 0.765759 0
M  V30 28291 O 2687.33 -1.61235 1.0202 0
M  V30 28292 C 2684.47 -2.64358 2.2183 0
M  V30 28293 C 2683.58 -2.54388 3.49157 0
M  V30 28294 C 2682.72 -3.81669 3.69462 0
M  V30 28295 C 2681.76 -3.66352 4.90359 0
M  V30 28296 N 2680.9 -4.85545 5.07139 0
M  V30 28297 H 2685.74 -0.987183 2.81174 0
M  V30 28298 H 2683.27 -0.476179 1.3918 0
M  V30 28299 H 2685.23 -3.42875 2.37681 0
M  V30 28300 H 2683.86 -2.9326 1.34902 0
M  V30 28301 H 2682.91 -1.67393 3.4159 0
M  V30 28302 H 2684.22 -2.38984 4.37822 0
M  V30 28303 H 2683.38 -4.6863 3.8532 0
M  V30 28304 H 2682.12 -3.9998 2.79047 0
M  V30 28305 H 2681.12 -2.77776 4.74469 0
M  V30 28306 H 2682.35 -3.49528 5.82243 0
M  V30 28307 H 2680.29 -5.04201 4.19663 0
M  V30 28308 H 2680.21 -4.72805 5.89908 0
M  V30 28309 H 2681.48 -5.73979 5.27417 0
M  V30 28310 N 2685.71 -1.4932 -0.504115 0
M  V30 28311 C 2686.62 -1.68488 -1.63245 0
M  V30 28312 C 2687.63 -0.567461 -1.64487 0
M  V30 28313 O 2688.81 -0.841781 -1.82965 0
M  V30 28314 C 2685.87 -1.74431 -2.99624 0
M  V30 28315 C 2684.94 -2.97988 -3.09033 0
M  V30 28316 C 2684.17 -3.03638 -4.38907 0
M  V30 28317 O 2684.39 -2.16967 -5.27524 0
M  V30 28318 O 2683.33 -3.9607 -4.53224 0
M  V30 28319 H 2687.15 -2.64069 -1.50004 0
M  V30 28320 H 2684.74 -1.33024 -0.680063 0
M  V30 28321 H 2686.62 -1.80711 -3.80685 0
M  V30 28322 H 2685.29 -0.820288 -3.13134 0
M  V30 28323 H 2684.2 -2.97227 -2.27172 0
M  V30 28324 H 2685.53 -3.8986 -3.00449 0
M  V30 28325 N 2687.19 0.754933 -1.38342 0
M  V30 28326 C 2688.15 1.8503 -1.35265 0
M  V30 28327 C 2689.15 1.5879 -0.253421 0
M  V30 28328 O 2690.34 1.6656 -0.510235 0
M  V30 28329 C 2687.47 3.22477 -1.1055 0
M  V30 28330 H 2688.66 1.89166 -2.32715 0
M  V30 28331 H 2686.22 0.956493 -1.23616 0
M  V30 28332 H 2686.95 3.2401 -0.137009 0
M  V30 28333 H 2686.74 3.42917 -1.90133 0
M  V30 28334 H 2688.23 4.02553 -1.11089 0
M  V30 28335 N 2688.66 1.23189 0.982967 0
M  V30 28336 C 2689.59 1.03519 2.09299 0
M  V30 28337 C 2690.57 -0.0470837 1.70035 0
M  V30 28338 O 2691.76 0.117064 1.93847 0
M  V30 28339 C 2688.89 0.622851 3.41669 0
M  V30 28340 C 2687.84 1.65218 3.94825 0
M  V30 28341 C 2687.17 1.09536 5.2336 0
M  V30 28342 C 2688.47 3.04459 4.24385 0
M  V30 28343 H 2690.16 1.96363 2.26013 0
M  V30 28344 H 2687.71 0.94552 1.08609 0
M  V30 28345 H 2689.66 0.472307 4.18745 0
M  V30 28346 H 2688.39 -0.341272 3.24812 0
M  V30 28347 H 2687.05 1.79067 3.19891 0
M  V30 28348 H 2686.69 0.1223 5.02851 0
M  V30 28349 H 2686.39 1.7831 5.59892 0
M  V30 28350 H 2687.92 0.956617 6.0306 0
M  V30 28351 H 2689.33 2.93926 4.9222 0
M  V30 28352 H 2687.73 3.70447 4.72112 0
M  V30 28353 H 2688.8 3.53644 3.31759 0
M  V30 28354 N 2690.14 -1.18133 1.04318 0
M  V30 28355 C 2691.37 -1.91834 0.767037 0
M  V30 28356 C 2691.78 -1.76558 -0.679989 0
M  V30 28357 O 2691.12 -1.09435 -1.47546 0
M  V30 28358 C 2691.18 -3.43616 1.05681 0
M  V30 28359 C 2690.85 -3.8267 2.49825 0
M  V30 28360 C 2691.85 -3.86245 3.4801 0
M  V30 28361 C 2689.53 -4.13892 2.84603 0
M  V30 28362 C 2691.52 -4.20495 4.79023 0
M  V30 28363 C 2689.21 -4.47812 4.15821 0
M  V30 28364 C 2690.21 -4.5109 5.12842 0
M  V30 28365 O 2689.9 -4.84217 6.41708 0
M  V30 28366 H 2689.63 -0.615758 0.278958 0
M  V30 28367 H 2692.18 -1.50796 1.39463 0
M  V30 28368 H 2690.41 -3.84906 0.372097 0
M  V30 28369 H 2692.1 -3.98567 0.768064 0
M  V30 28370 H 2692.87 -3.62258 3.22481 0
M  V30 28371 H 2688.75 -4.10516 2.09755 0
M  V30 28372 H 2692.29 -4.22968 5.54747 0
M  V30 28373 H 2688.19 -4.7126 4.41117 0
M  V30 28374 H 2688.96 -5.0211 6.46396 0
M  V30 28375 N 2691.62 -0.822988 -1.34405 0
M  V30 28376 C 2692.87 -0.41028 -1.97892 0
M  V30 28377 C 2693.19 1.03014 -1.65569 0
M  V30 28378 O 2692.46 1.7152 -0.946451 0
M  V30 28379 H 2691.04 -0.14872 -0.732046 0
M  V30 28380 H 2693.7 -1.05245 -1.64041 0
M  V30 28381 H 2692.8 -0.529338 -3.07578 0
M  V30 28382 N 2693.1 1.4662 -0.577957 0
M  V30 28383 C 2694.34 2.02706 -0.0618149 0
M  V30 28384 C 2694.68 1.44905 1.29291 0
M  V30 28385 O 2693.95 0.612352 1.84609 0
M  V30 28386 C 2694.24 3.60099 0.00905495 0
M  V30 28387 C 2694.09 4.28293 -1.37423 0
M  V30 28388 C 2695.41 4.34301 0.712082 0
M  V30 28389 H 2692.53 0.736611 -0.0239376 0
M  V30 28390 H 2695.17 1.74817 -0.744242 0
M  V30 28391 H 2693.32 3.8399 0.590225 0
M  V30 28392 H 2694.99 4.1568 -2.0002 0
M  V30 28393 H 2693.23 3.8784 -1.94326 0
M  V30 28394 H 2693.9 5.37022 -1.27716 0
M  V30 28395 H 2696.38 4.15526 0.218413 0
M  V30 28396 H 2695.26 5.44015 0.730686 0
M  V30 28397 H 2695.52 4.05015 1.77244 0
M  V30 28398 N 2694.58 0.315484 1.5441 0
M  V30 28399 C 2695.85 -0.343364 1.92563 0
M  V30 28400 C 2696.23 -1.70533 1.24426 0
M  V30 28401 O 2695.58 -2.25232 0.385091 0
M  V30 28402 C 2695.79 -0.443626 3.46169 0
M  V30 28403 C 2697.14 -0.707709 4.18661 0
M  V30 28404 O 2698.16 -0.526868 3.52282 0
M  V30 28405 O 2697.02 -1.05603 5.362 0
M  V30 28406 H 2694.12 -0.194538 0.803794 0
M  V30 28407 H 2696.66 0.364606 1.65737 0
M  V30 28408 H 2695.43 0.51324 3.8792 0
M  V30 28409 H 2695.06 -1.19949 3.79075 0
M  V30 28410 N 2696.05 -1.5754 0.0434891 0
M  V30 28411 C 2697.3 -1.92005 -0.630753 0
M  V30 28412 C 2697.62 -0.921838 -1.71835 0
M  V30 28413 O 2696.89 0.0344876 -1.9587 0
M  V30 28414 H 2695.47 -0.708749 -0.235975 0
M  V30 28415 H 2698.14 -1.9467 0.0946804 0
M  V30 28416 H 2697.23 -2.93028 -1.07429 0
M  V30 28417 N 2697.53 0.229818 -1.55915 0
M  V30 28418 C 2698.46 1.28811 -1.94756 0
M  V30 28419 C 2699.44 1.49322 -0.814683 0
M  V30 28420 O 2700.63 1.61644 -1.07634 0
M  V30 28421 C 2697.76 2.63955 -2.2571 0
M  V30 28422 C 2696.71 2.58114 -3.4141 0
M  V30 28423 C 2696.04 3.97212 -3.57948 0
M  V30 28424 C 2697.34 2.13615 -4.76619 0
M  V30 28425 H 2699.03 0.965497 -2.83405 0
M  V30 28426 H 2696.58 0.463004 -1.36353 0
M  V30 28427 H 2698.53 3.38141 -2.51472 0
M  V30 28428 H 2697.26 2.97888 -1.33905 0
M  V30 28429 H 2695.91 1.86386 -3.15683 0
M  V30 28430 H 2695.56 4.28438 -2.63534 0
M  V30 28431 H 2695.26 3.94188 -4.35764 0
M  V30 28432 H 2696.79 4.73072 -3.8605 0
M  V30 28433 H 2698.2 2.7754 -5.01642 0
M  V30 28434 H 2696.6 2.21667 -5.57659 0
M  V30 28435 H 2697.67 1.0882 -4.72532 0
M  V30 28436 N 2699.01 1.49585 0.49619 0
M  V30 28437 C 2699.92 1.69352 1.62349 0
M  V30 28438 C 2700.94 0.576176 1.64183 0
M  V30 28439 O 2702.11 0.851472 1.82516 0
M  V30 28440 C 2699.18 1.76018 2.98695 0
M  V30 28441 C 2698.24 2.99623 3.07449 0
M  V30 28442 C 2697.47 3.05961 4.37291 0
M  V30 28443 O 2697.69 2.19762 5.26366 0
M  V30 28444 O 2696.63 3.98468 4.51117 0
M  V30 28445 H 2700.45 2.64861 1.48601 0
M  V30 28446 H 2698.04 1.33383 0.672999 0
M  V30 28447 H 2699.92 1.82728 3.79722 0
M  V30 28448 H 2698.6 0.836883 3.12695 0
M  V30 28449 H 2697.5 2.98428 2.25592 0
M  V30 28450 H 2698.84 3.91448 2.98378 0
M  V30 28451 N 2700.49 -0.747586 1.3874 0
M  V30 28452 C 2701.9 -1.32522 1.3151 0
M  V30 28453 C 2702.25 -1.96182 -0.0263618 0
M  V30 28454 O 2701.38 -1.9547 -0.928456 0
M  V30 28455 C 2701.97 -2.40962 2.38166 0
M  V30 28456 C 2700.53 -2.9443 2.34495 0
M  V30 28457 C 2699.68 -1.6787 2.20715 0
M  V30 28458 H 2702.63 -0.546016 1.49011 0
M  V30 28459 H 2702.65 -3.21047 2.04228 0
M  V30 28460 H 2702.16 -1.94599 3.35787 0
M  V30 28461 H 2700.26 -3.45106 1.40473 0
M  V30 28462 H 2700.37 -3.48401 3.28867 0
M  V30 28463 H 2698.74 -1.91726 1.6767 0
M  V30 28464 H 2699.52 -1.23577 3.20287 0
M  V30 28465 N 2701.97 -1.23709 -0.97642 0
M  V30 28466 C 2703.22 -1.06562 -1.71253 0
M  V30 28467 C 2703.53 0.39699 -1.91529 0
M  V30 28468 O 2704.73 0.688472 -2.62626 0
M  V30 28469 C 2703.19 -1.85846 -3.08204 0
M  V30 28470 C 2702.8 -3.36461 -2.958 0
M  V30 28471 C 2704.54 -1.77201 -3.85746 0
M  V30 28472 C 2702.45 -4.08122 -4.28008 0
M  V30 28473 H 2701.38 -0.395147 -0.642164 0
M  V30 28474 H 2704.03 -1.47711 -1.08874 0
M  V30 28475 H 2702.41 -1.37505 -3.7136 0
M  V30 28476 H 2703.59 -3.92318 -2.41709 0
M  V30 28477 H 2701.9 -3.45963 -2.3173 0
M  V30 28478 H 2704.5 -2.2805 -4.83629 0
M  V30 28479 H 2704.84 -0.735549 -4.0975 0
M  V30 28480 H 2705.37 -2.23174 -3.29299 0
M  V30 28481 H 2702.11 -5.12091 -4.09199 0
M  V30 28482 H 2701.63 -3.57052 -4.81948 0
M  V30 28483 H 2703.31 -4.14637 -4.96674 0
M  V30 28484 N 2703.44 1.17579 -1.04943 0
M  V30 28485 C 2704.72 1.83696 -0.67195 0
M  V30 28486 C 2705.1 1.93323 0.847895 0
M  V30 28487 O 2704.45 1.46586 1.75285 0
M  V30 28488 C 2704.66 3.21494 -1.35803 0
M  V30 28489 C 2706.01 3.9743 -1.49447 0
M  V30 28490 O 2707.03 3.30965 -1.31684 0
M  V30 28491 O 2705.89 5.16536 -1.78472 0
M  V30 28492 H 2702.98 0.792544 -0.236226 0
M  V30 28493 H 2705.53 1.24897 -1.14887 0
M  V30 28494 H 2704.3 3.09441 -2.39503 0
M  V30 28495 H 2703.93 3.87958 -0.870304 0
M  V30 28496 N 2704.92 0.830104 1.33967 0
M  V30 28497 C 2706.17 0.417963 1.97322 0
M  V30 28498 C 2706.48 -1.02615 1.66522 0
M  V30 28499 O 2707.69 -1.54255 2.23422 0
M  V30 28500 C 2706.15 0.696421 3.53098 0
M  V30 28501 C 2705.75 2.15463 3.92784 0
M  V30 28502 C 2707.5 0.350798 4.23048 0
M  V30 28503 C 2705.41 2.3776 5.41502 0
M  V30 28504 H 2704.34 0.152554 0.738406 0
M  V30 28505 H 2706.99 1.01746 1.52709 0
M  V30 28506 H 2705.37 0.02666 3.95991 0
M  V30 28507 H 2706.54 2.86415 3.60975 0
M  V30 28508 H 2704.86 2.46238 3.35791 0
M  V30 28509 H 2707.45 0.49513 5.32403 0
M  V30 28510 H 2707.8 -0.705404 4.1028 0
M  V30 28511 H 2708.33 0.97543 3.85656 0
M  V30 28512 H 2705.07 3.41913 5.59264 0
M  V30 28513 H 2704.59 1.7136 5.74801 0
M  V30 28514 H 2706.27 2.20476 6.08276 0
M  V30 28515 N 2706.4 -1.46311 0.585725 0
M  V30 28516 C 2707.63 -2.06752 0.0781662 0
M  V30 28517 C 2708.04 -1.43399 -1.2281 0
M  V30 28518 O 2707.4 -0.540344 -1.74317 0
M  V30 28519 C 2707.45 -3.61385 -0.0911292 0
M  V30 28520 O 2707.17 -4.22369 1.16344 0
M  V30 28521 C 2708.67 -4.38762 -0.632688 0
M  V30 28522 H 2705.89 -0.668416 0.0588306 0
M  V30 28523 H 2708.44 -1.87893 0.807251 0
M  V30 28524 H 2706.59 -3.79662 -0.770447 0
M  V30 28525 H 2707.01 -5.15279 0.979173 0
M  V30 28526 H 2708.48 -5.4754 -0.700314 0
M  V30 28527 H 2708.96 -4.07015 -1.65032 0
M  V30 28528 H 2709.56 -4.25298 0.0118603 0
M  V30 28529 N 2707.88 -0.323668 -1.54241 0
M  V30 28530 C 2709.11 0.280835 -2.04985 0
M  V30 28531 C 2709.52 1.45774 -1.1998 0
M  V30 28532 O 2708.88 1.81038 -0.230503 0
M  V30 28533 C 2708.93 0.715195 -3.54355 0
M  V30 28534 O 2708.65 -0.414893 -4.36131 0
M  V30 28535 C 2710.15 1.3825 -4.21191 0
M  V30 28536 H 2707.37 0.0577385 -0.668511 0
M  V30 28537 H 2709.92 -0.469887 -1.99028 0
M  V30 28538 H 2708.07 1.41589 -3.60598 0
M  V30 28539 H 2708.49 -0.0726148 -5.2445 0
M  V30 28540 H 2709.96 1.63736 -5.27157 0
M  V30 28541 H 2710.44 2.32982 -3.72311 0
M  V30 28542 H 2711.04 0.724373 -4.19086 0
M  V30 28543 N 2709.36 1.57515 -0.0518432 0
M  V30 28544 C 2710.58 1.97444 0.634861 0
M  V30 28545 C 2711.01 0.929236 1.63545 0
M  V30 28546 O 2710.37 -0.107452 1.80981 0
M  V30 28547 C 2710.41 3.36445 1.29759 0
M  V30 28548 O 2709.52 3.34417 2.41327 0
M  V30 28549 H 2708.86 0.643177 0.164983 0
M  V30 28550 H 2711.39 2.04245 -0.120442 0
M  V30 28551 H 2711.4 3.73187 1.64912 0
M  V30 28552 H 2710.07 4.12054 0.564288 0
M  V30 28553 H 2708.65 3.09422 2.08117 0
M  V30 28554 N 2710.84 -0.221546 1.56035 0
M  V30 28555 C 2711.8 -1.25807 1.91586 0
M  V30 28556 C 2712.8 -1.39804 0.794449 0
M  V30 28557 O 2713.99 -1.38069 1.0622 0
M  V30 28558 C 2711.12 -2.63188 2.16668 0
M  V30 28559 H 2712.31 -0.954885 2.84292 0
M  V30 28560 H 2709.87 -0.461961 1.49317 0
M  V30 28561 H 2710.6 -2.98605 1.26514 0
M  V30 28562 H 2710.39 -2.54405 2.98363 0
M  V30 28563 H 2711.88 -3.37984 2.45268 0
M  V30 28564 N 2712.31 -1.49846 -0.48825 0
M  V30 28565 C 2713.56 -1.59659 -1.23909 0
M  V30 28566 C 2713.88 -0.291039 -1.92816 0
M  V30 28567 O 2713.15 0.690453 -1.83329 0
M  V30 28568 H 2711.73 -0.588294 -0.460347 0
M  V30 28569 H 2714.39 -1.86538 -0.564761 0
M  V30 28570 H 2713.49 -2.39912 -1.99621 0
M  V30 28571 N 2713.79 0.740218 -1.39135 0
M  V30 28572 C 2715.04 1.49967 -1.36074 0
M  V30 28573 C 2715.37 1.94448 0.0449903 0
M  V30 28574 O 2714.62 1.66723 1.02479 0
M  V30 28575 C 2714.92 2.75674 -2.27462 0
M  V30 28576 C 2714.59 2.50087 -3.7519 0
M  V30 28577 C 2713.25 2.42818 -4.15443 0
M  V30 28578 C 2715.6 2.28078 -4.68647 0
M  V30 28579 C 2712.93 2.11574 -5.47223 0
M  V30 28580 C 2715.28 1.98352 -6.00699 0
M  V30 28581 C 2713.94 1.89548 -6.40022 0
M  V30 28582 H 2713.21 0.548768 -0.49793 0
M  V30 28583 H 2715.86 0.85004 -1.716 0
M  V30 28584 H 2714.17 3.45353 -1.85036 0
M  V30 28585 H 2715.86 3.33682 -2.22389 0
M  V30 28586 H 2712.45 2.56621 -3.43284 0
M  V30 28587 H 2716.64 2.32665 -4.38384 0
M  V30 28588 H 2711.89 2.03277 -5.76618 0
M  V30 28589 H 2716.07 1.80329 -6.72647 0
M  V30 28590 H 2713.69 1.65104 -7.42054 0
M  V30 28591 N 2715.27 1.24225 0.969846 0
M  V30 28592 C 2716.68 1.07401 1.52715 0
M  V30 28593 C 2717.03 -0.355265 1.92957 0
M  V30 28594 O 2716.16 -1.24337 1.77114 0
M  V30 28595 C 2716.75 1.94344 2.77517 0
M  V30 28596 C 2715.31 1.8175 3.29612 0
M  V30 28597 C 2714.46 1.89408 2.02533 0
M  V30 28598 H 2717.41 1.37733 0.788374 0
M  V30 28599 H 2717.43 1.47445 3.50771 0
M  V30 28600 H 2716.94 2.98361 2.48198 0
M  V30 28601 H 2715.04 0.805569 3.63787 0
M  V30 28602 H 2715.16 2.65725 3.98656 0
M  V30 28603 H 2713.52 1.33112 2.17148 0
M  V30 28604 H 2714.3 2.95002 1.75581 0
M  V30 28605 N 2716.75 -1.1702 1.05565 0
M  V30 28606 C 2717.98 -1.91009 0.78734 0
M  V30 28607 C 2718.39 -1.77269 -0.661224 0
M  V30 28608 O 2717.73 -1.10994 -1.46377 0
M  V30 28609 C 2717.79 -3.42476 1.09319 0
M  V30 28610 C 2717.45 -3.79999 2.53869 0
M  V30 28611 C 2718.45 -3.82532 3.52087 0
M  V30 28612 C 2716.14 -4.1085 2.88977 0
M  V30 28613 C 2718.13 -4.1539 4.83456 0
M  V30 28614 C 2715.82 -4.43377 4.20548 0
M  V30 28615 C 2716.82 -4.45625 5.17597 0
M  V30 28616 O 2716.5 -4.77384 6.46807 0
M  V30 28617 H 2716.24 -0.612765 0.285474 0
M  V30 28618 H 2718.79 -1.49308 1.41054 0
M  V30 28619 H 2717.02 -3.84489 0.4129 0
M  V30 28620 H 2718.71 -3.9773 0.810294 0
M  V30 28621 H 2719.47 -3.58817 3.26305 0
M  V30 28622 H 2715.35 -4.08269 2.14098 0
M  V30 28623 H 2718.9 -4.17061 5.59201 0
M  V30 28624 H 2714.79 -4.66555 4.46091 0
M  V30 28625 H 2715.56 -4.95226 6.51685 0
M  V30 28626 N 2718.23 -0.837197 -1.33524 0
M  V30 28627 C 2719.47 -0.432739 -1.98129 0
M  V30 28628 C 2719.8 1.00505 -1.6617 0
M  V30 28629 O 2719.08 1.70237 -0.940719 0
M  V30 28630 C 2719.36 -0.651896 -3.5415 0
M  V30 28631 C 2719.22 -2.13683 -3.95802 0
M  V30 28632 C 2720.53 -0.096971 -4.39993 0
M  V30 28633 H 2717.65 -0.158702 -0.71971 0
M  V30 28634 H 2720.3 -1.0524 -1.58191 0
M  V30 28635 H 2718.45 -0.124437 -3.88301 0
M  V30 28636 H 2720.12 -2.72903 -3.71916 0
M  V30 28637 H 2718.36 -2.62197 -3.45594 0
M  V30 28638 H 2719.03 -2.24093 -5.04466 0
M  V30 28639 H 2721.51 -0.547805 -4.12478 0
M  V30 28640 H 2720.38 -0.280013 -5.48185 0
M  V30 28641 H 2720.64 0.999124 -4.30662 0
M  V30 28642 N 2719.7 1.45999 -0.593476 0
M  V30 28643 C 2720.93 2.07216 -0.087273 0
M  V30 28644 C 2721.35 1.43757 1.21308 0
M  V30 28645 O 2720.71 0.525183 1.73527 0
M  V30 28646 C 2720.76 3.6056 0.0537564 0
M  V30 28647 O 2719.86 3.97249 1.10758 0
M  V30 28648 H 2719.2 0.660543 -0.0676714 0
M  V30 28649 H 2721.73 1.87472 -0.819478 0
M  V30 28650 H 2721.74 4.07193 0.256496 0
M  V30 28651 H 2720.42 4.06138 -0.89581 0
M  V30 28652 H 2719 3.62309 0.882437 0
M  V30 28653 N 2721.18 0.331843 1.54067 0
M  V30 28654 C 2722.11 -0.522892 2.2757 0
M  V30 28655 C 2723.09 -1.11244 1.28681 0
M  V30 28656 O 2724.28 -1.13603 1.57506 0
M  V30 28657 C 2721.41 -1.67981 3.03973 0
M  V30 28658 C 2720.36 -1.21917 4.10269 0
M  V30 28659 C 2719.69 -2.46369 4.74559 0
M  V30 28660 C 2720.99 -0.328058 5.21269 0
M  V30 28661 H 2722.68 0.0902503 2.99264 0
M  V30 28662 H 2720.23 0.0448463 1.4393 0
M  V30 28663 H 2722.18 -2.28412 3.54127 0
M  V30 28664 H 2720.91 -2.31967 2.2991 0
M  V30 28665 H 2719.56 -0.637745 3.6101 0
M  V30 28666 H 2719.21 -3.08736 3.97103 0
M  V30 28667 H 2718.91 -2.16234 5.46367 0
M  V30 28668 H 2720.44 -3.07546 5.27492 0
M  V30 28669 H 2721.85 -0.838878 5.67129 0
M  V30 28670 H 2720.25 -0.119122 5.99982 0
M  V30 28671 H 2721.32 0.638924 4.80672 0
M  V30 28672 N 2722.66 -1.57485 0.0601958 0
M  V30 28673 C 2723.91 -1.92663 -0.610353 0
M  V30 28674 C 2724.23 -0.940011 -1.70847 0
M  V30 28675 O 2723.5 0.013711 -1.95895 0
M  V30 28676 H 2722.08 -0.711212 -0.228445 0
M  V30 28677 H 2724.74 -1.94559 0.115322 0
M  V30 28678 H 2723.84 -2.94151 -1.04315 0
M  V30 28679 N 2724.14 0.213268 -1.5615 0
M  V30 28680 C 2725.39 0.934518 -1.78745 0
M  V30 28681 C 2725.7 1.85169 -0.630232 0
M  V30 28682 O 2726.91 2.6122 -0.740012 0
M  V30 28683 C 2725.36 1.71198 -3.16574 0
M  V30 28684 C 2724.97 0.84054 -4.40044 0
M  V30 28685 C 2726.71 2.42395 -3.4849 0
M  V30 28686 C 2724.62 1.61582 -5.68898 0
M  V30 28687 H 2723.55 0.352681 -0.666433 0
M  V30 28688 H 2726.2 0.188195 -1.82532 0
M  V30 28689 H 2724.58 2.50152 -3.06986 0
M  V30 28690 H 2725.76 0.0909516 -4.6071 0
M  V30 28691 H 2724.07 0.240292 -4.15706 0
M  V30 28692 H 2726.67 3.00916 -4.41988 0
M  V30 28693 H 2727.01 3.15691 -2.71376 0
M  V30 28694 H 2727.55 1.70424 -3.59445 0
M  V30 28695 H 2724.29 0.925992 -6.48927 0
M  V30 28696 H 2723.81 2.33981 -5.5228 0
M  V30 28697 H 2725.48 2.17436 -6.09369 0
M  V30 28698 N 2725.62 1.50103 0.480296 0
M  V30 28699 C 2726.56 1.68293 1.57943 0
M  V30 28700 C 2727.53 0.524251 1.5761 0
M  V30 28701 O 2728.72 0.75374 1.75281 0
M  V30 28702 C 2725.86 1.77462 2.95975 0
M  V30 28703 C 2724.97 3.04771 3.06167 0
M  V30 28704 C 2724.11 3.04792 4.35058 0
M  V30 28705 C 2723.15 4.26593 4.38958 0
M  V30 28706 N 2722.28 4.24406 5.59307 0
M  V30 28707 H 2727.12 2.62134 1.41738 0
M  V30 28708 H 2724.66 1.29951 0.689281 0
M  V30 28709 H 2726.62 1.80759 3.76008 0
M  V30 28710 H 2725.25 0.870691 3.10836 0
M  V30 28711 H 2724.3 3.10989 2.19066 0
M  V30 28712 H 2725.61 3.94756 3.04909 0
M  V30 28713 H 2724.77 3.06767 5.2343 0
M  V30 28714 H 2723.5 2.12622 4.38912 0
M  V30 28715 H 2722.51 4.24841 3.48985 0
M  V30 28716 H 2723.73 5.1998 4.36804 0
M  V30 28717 H 2721.68 3.35084 5.63963 0
M  V30 28718 H 2721.6 5.08148 5.59751 0
M  V30 28719 H 2722.87 4.30513 6.4983 0
M  V30 28720 N 2727.09 -0.732829 1.39526 0
M  V30 28721 C 2728.04 -1.84686 1.38419 0
M  V30 28722 C 2729.01 -1.64304 0.243568 0
M  V30 28723 O 2730.2 -1.85681 0.439011 0
M  V30 28724 C 2727.34 -3.22222 1.2356 0
M  V30 28725 C 2726.45 -3.54293 2.47185 0
M  V30 28726 C 2725.58 -4.81242 2.24898 0
M  V30 28727 C 2724.62 -5.06164 3.44187 0
M  V30 28728 N 2723.76 -6.24318 3.21203 0
M  V30 28729 H 2728.6 -1.84967 2.33648 0
M  V30 28730 H 2726.14 -0.903784 1.16061 0
M  V30 28731 H 2728.1 -4.01618 1.12956 0
M  V30 28732 H 2726.73 -3.21214 0.319596 0
M  V30 28733 H 2725.78 -2.69582 2.68383 0
M  V30 28734 H 2727.09 -3.68627 3.36029 0
M  V30 28735 H 2726.24 -5.68623 2.11548 0
M  V30 28736 H 2724.98 -4.69086 1.33452 0
M  V30 28737 H 2723.99 -4.17245 3.58032 0
M  V30 28738 H 2725.21 -5.20204 4.36537 0
M  V30 28739 H 2723.16 -6.13445 2.32424 0
M  V30 28740 H 2723.08 -6.39249 4.03605 0
M  V30 28741 H 2724.34 -7.14532 3.11552 0
M  V30 28742 N 2728.57 -1.24737 -0.963244 0
M  V30 28743 C 2729.99 -1.01373 -1.23271 0
M  V30 28744 C 2730.19 0.274741 -1.99618 0
M  V30 28745 O 2729.24 0.989728 -2.32294 0
M  V30 28746 C 2730.56 -2.23155 -2.0155 0
M  V30 28747 C 2732.11 -2.27827 -2.14625 0
M  V30 28748 C 2732.58 -3.49242 -2.963 0
M  V30 28749 N 2734.07 -3.49586 -3.03881 0
M  V30 28750 C 2734.81 -4.40193 -3.67448 0
M  V30 28751 N 2734.3 -5.4106 -4.32696 0
M  V30 28752 N 2736.1 -4.27894 -3.64504 0
M  V30 28753 H 2728.25 -2.07529 -0.452258 0
M  V30 28754 H 2730.51 -0.910931 -0.262504 0
M  V30 28755 H 2730.22 -3.16753 -1.52841 0
M  V30 28756 H 2730.09 -2.25633 -3.02274 0
M  V30 28757 H 2732.48 -1.34757 -2.62535 0
M  V30 28758 H 2732.56 -2.29372 -1.13234 0
M  V30 28759 H 2732.2 -4.42628 -2.49084 0
M  V30 28760 H 2732.13 -3.4494 -3.97899 0
M  V30 28761 H 2734.62 -2.76616 -2.57472 0
M  V30 28762 H 2734.94 -6.06423 -4.79031 0
M  V30 28763 H 2733.28 -5.44942 -4.31351 0
M  V30 28764 H 2736.47 -3.48326 -3.12709 0
M  V30 28765 H 2736.64 -4.98706 -4.13759 0
M  V30 28766 N 2730.05 1.16459 -1.06184 0
M  V30 28767 C 2731.33 1.82973 -0.691396 0
M  V30 28768 C 2731.71 1.94212 0.827343 0
M  V30 28769 O 2731.06 1.48437 1.7372 0
M  V30 28770 C 2731.27 3.20036 -1.39205 0
M  V30 28771 C 2732.61 3.95823 -1.53654 0
M  V30 28772 O 2733.64 3.2955 -1.35187 0
M  V30 28773 O 2732.5 5.14614 -1.83941 0
M  V30 28774 H 2729.59 0.789994 -0.244618 0
M  V30 28775 H 2732.14 1.23671 -1.16205 0
M  V30 28776 H 2730.91 3.06884 -2.42772 0
M  V30 28777 H 2730.53 3.87013 -0.911403 0
M  V30 28778 N 2731.53 0.844266 1.33079 0
M  V30 28779 C 2732.78 0.438868 1.96868 0
M  V30 28780 C 2733.09 -1.00844 1.67601 0
M  V30 28781 O 2734.3 -1.51877 2.25046 0
M  V30 28782 C 2732.75 0.733832 3.52339 0
M  V30 28783 C 2732.36 2.19617 3.90477 0
M  V30 28784 C 2734.1 0.395649 4.22652 0
M  V30 28785 C 2732.01 2.4349 5.38949 0
M  V30 28786 H 2730.94 0.160377 0.736746 0
M  V30 28787 H 2733.59 1.0336 1.51621 0
M  V30 28788 H 2731.97 0.0686586 3.9594 0
M  V30 28789 H 2733.15 2.90227 3.57917 0
M  V30 28790 H 2731.46 2.49786 3.33161 0
M  V30 28791 H 2734.06 0.55157 5.31848 0
M  V30 28792 H 2734.4 -0.661849 4.11005 0
M  V30 28793 H 2734.94 1.01628 3.84599 0
M  V30 28794 H 2731.68 3.47825 5.55606 0
M  V30 28795 H 2731.2 1.77447 5.72951 0
M  V30 28796 H 2732.87 2.26915 6.05903 0
M  V30 28797 N 2733.01 -1.45682 0.60121 0
M  V30 28798 C 2733.94 -2.33246 -0.108783 0
M  V30 28799 C 2734.92 -1.46453 -0.865197 0
M  V30 28800 O 2736.1 -1.75236 -0.837009 0
M  V30 28801 C 2733.23 -3.29052 -1.11095 0
M  V30 28802 C 2732.19 -4.25432 -0.46817 0
M  V30 28803 C 2731.51 -5.10881 -1.57813 0
M  V30 28804 C 2732.81 -5.18766 0.606561 0
M  V30 28805 H 2734.51 -2.9286 0.622358 0
M  V30 28806 H 2732.05 -1.40825 0.300739 0
M  V30 28807 H 2734.01 -3.89177 -1.61615 0
M  V30 28808 H 2732.73 -2.67584 -1.8726 0
M  V30 28809 H 2731.39 -3.66596 0.0161129 0
M  V30 28810 H 2731.04 -4.45785 -2.32991 0
M  V30 28811 H 2730.74 -5.76165 -1.15358 0
M  V30 28812 H 2732.26 -5.73873 -2.08573 0
M  V30 28813 H 2733.67 -5.72999 0.185689 0
M  V30 28814 H 2732.07 -5.92493 0.952486 0
M  V30 28815 H 2733.14 -4.6158 1.48567 0
M  V30 28816 N 2734.48 -0.340009 -1.53889 0
M  V30 28817 C 2735.43 0.533782 -2.26392 0
M  V30 28818 C 2736.43 1.10491 -1.28406 0
M  V30 28819 O 2737.63 1.05106 -1.46126 0
M  V30 28820 H 2734.01 0.190815 -0.727388 0
M  V30 28821 H 2735.98 -0.0998008 -2.98233 0
M  V30 28822 C 2734.73 1.67473 -3.0471 0
M  V30 28823 H 2734.05 1.24453 -3.79936 0
M  V30 28824 H 2735.49 2.26138 -3.58661 0
M  V30 28825 C 2733.95 2.60208 -2.13994 0
M  V30 28826 O 2734.48 3.62363 -1.73367 0
M  V30 28827 N 2732.69 2.28813 -1.79145 0
M  V30 28828 H 2732.23 1.45781 -2.12381 0
M  V30 28829 H 2732.19 2.91119 -1.1873 0
M  V30 28830 N 2735.96 1.57451 -0.0685468 0
M  V30 28831 C 2736.91 2.12537 0.899824 0
M  V30 28832 C 2737.88 1.03705 1.29748 0
M  V30 28833 O 2739.07 1.3135 1.3839 0
M  V30 28834 C 2736.21 2.68884 2.16323 0
M  V30 28835 C 2735.32 3.9186 1.8185 0
M  V30 28836 C 2734.45 4.36462 3.02778 0
M  V30 28837 C 2733.49 5.52094 2.64307 0
M  V30 28838 N 2732.63 5.91669 3.77984 0
M  V30 28839 H 2737.47 2.9498 0.423191 0
M  V30 28840 H 2735.01 1.45772 0.197242 0
M  V30 28841 H 2736.96 2.9966 2.90275 0
M  V30 28842 H 2735.59 1.89211 2.61532 0
M  V30 28843 H 2734.65 3.67567 0.979743 0
M  V30 28844 H 2735.96 4.75855 1.49545 0
M  V30 28845 H 2735.11 4.68882 3.85012 0
M  V30 28846 H 2733.85 3.51314 3.38275 0
M  V30 28847 H 2732.86 5.19329 1.80494 0
M  V30 28848 H 2734.08 6.38971 2.29984 0
M  V30 28849 H 2732.03 5.09472 4.13249 0
M  V30 28850 H 2731.94 6.70396 3.49435 0
M  V30 28851 H 2733.21 6.28711 4.60807 0
M  V30 28852 N 2737.44 -0.204984 1.56261 0
M  V30 28853 C 2738.35 -1.27473 1.96946 0
M  V30 28854 C 2739.37 -1.5036 0.875662 0
M  V30 28855 O 2740.54 -1.63167 1.18061 0
M  V30 28856 C 2737.61 -2.60111 2.29223 0
M  V30 28857 C 2736.67 -2.45381 3.52259 0
M  V30 28858 C 2735.9 -3.71694 3.82987 0
M  V30 28859 O 2736.13 -4.75436 3.15146 0
M  V30 28860 O 2735.06 -3.67815 4.76441 0
M  V30 28861 H 2738.89 -0.959477 2.88145 0
M  V30 28862 H 2736.47 -0.409192 1.43687 0
M  V30 28863 H 2738.35 -3.38415 2.51104 0
M  V30 28864 H 2737.03 -2.91283 1.41195 0
M  V30 28865 H 2735.93 -1.65221 3.35638 0
M  V30 28866 H 2737.27 -2.19144 4.40723 0
M  V30 28867 N 2738.92 -1.50356 -0.472329 0
M  V30 28868 C 2740.15 -1.65037 -1.24781 0
M  V30 28869 C 2740.56 -0.333209 -1.85836 0
M  V30 28870 O 2739.92 0.68469 -1.69169 0
M  V30 28871 C 2739.97 -2.74058 -2.35742 0
M  V30 28872 O 2739.69 -4.00668 -1.7719 0
M  V30 28873 C 2741.19 -2.99702 -3.2664 0
M  V30 28874 H 2738.41 -0.554791 -0.377423 0
M  V30 28875 H 2740.96 -1.96571 -0.563928 0
M  V30 28876 H 2739.11 -2.45223 -2.99908 0
M  V30 28877 H 2739.53 -4.60949 -2.50252 0
M  V30 28878 H 2741 -3.79651 -4.00711 0
M  V30 28879 H 2741.48 -2.10724 -3.85346 0
M  V30 28880 H 2742.08 -3.30064 -2.68212 0
M  V30 28881 N 2740.4 0.725419 -1.39912 0
M  V30 28882 C 2741.33 1.85001 -1.35305 0
M  V30 28883 C 2742.34 1.60708 -0.260131 0
M  V30 28884 O 2743.53 1.70765 -0.519779 0
M  V30 28885 C 2740.63 3.21216 -1.08045 0
M  V30 28886 C 2739.8 3.72786 -2.288 0
M  V30 28887 C 2738.86 4.87588 -1.9785 0
M  V30 28888 O 2737.89 5.0075 -2.70625 0
M  V30 28889 N 2739.09 5.72666 -0.950468 0
M  V30 28890 H 2741.86 1.89455 -2.32222 0
M  V30 28891 H 2739.42 0.906556 -1.34139 0
M  V30 28892 H 2741.41 3.95599 -0.853424 0
M  V30 28893 H 2739.98 3.11971 -0.198284 0
M  V30 28894 H 2739.2 2.89645 -2.67394 0
M  V30 28895 H 2740.49 4.03976 -3.09324 0
M  V30 28896 H 2739.89 5.64631 -0.347535 0
M  V30 28897 H 2738.44 6.47076 -0.783346 0
M  V30 28898 N 2741.88 1.25246 0.956615 0
M  V30 28899 C 2743.15 1.00654 1.67715 0
M  V30 28900 C 2743.53 -0.46783 2.05851 0
M  V30 28901 O 2742.88 -1.44472 1.77031 0
M  V30 28902 C 2743.09 1.94034 2.9009 0
M  V30 28903 C 2744.44 2.21763 3.62086 0
M  V30 28904 O 2745.46 1.91776 3.00167 0
M  V30 28905 O 2744.32 2.72744 4.73575 0
M  V30 28906 H 2741.42 0.381546 0.733724 0
M  V30 28907 H 2743.96 1.36392 1.00972 0
M  V30 28908 H 2742.73 2.93596 2.58683 0
M  V30 28909 H 2742.36 1.5868 3.64563 0
M  V30 28910 N 2743.35 -1.15894 1.068 0
M  V30 28911 C 2744.58 -1.9044 0.808728 0
M  V30 28912 C 2745 -1.77712 -0.637474 0
M  V30 28913 O 2744.35 -1.12525 -1.43682 0
M  V30 28914 C 2744.4 -3.40976 1.20074 0
M  V30 28915 O 2744.13 -3.53328 2.59019 0
M  V30 28916 C 2745.63 -4.32559 0.969946 0
M  V30 28917 H 2742.85 -0.603736 0.29282 0
M  V30 28918 H 2745.39 -1.46872 1.42299 0
M  V30 28919 H 2743.55 -3.82228 0.630909 0
M  V30 28920 H 2743.96 -4.46714 2.74858 0
M  V30 28921 H 2745.43 -5.36623 1.2938 0
M  V30 28922 H 2745.91 -4.39099 -0.0940438 0
M  V30 28923 H 2746.52 -3.97042 1.5244 0
M  V30 28924 N 2744.83 -0.851312 -1.32629 0
M  V30 28925 C 2745.74 -0.296309 -2.32721 0
M  V30 28926 C 2746.76 0.584134 -1.63902 0
M  V30 28927 O 2747.93 0.485299 -1.95466 0
M  V30 28928 C 2745 0.509043 -3.42943 0
M  V30 28929 C 2744.06 -0.397144 -4.27459 0
M  V30 28930 C 2743.29 0.369866 -5.32417 0
M  V30 28931 O 2743.52 1.60021 -5.47494 0
M  V30 28932 O 2742.45 -0.262599 -6.01327 0
M  V30 28933 H 2746.28 -1.12548 -2.82076 0
M  V30 28934 H 2743.86 -0.614159 -1.36193 0
M  V30 28935 H 2745.74 0.966268 -4.10172 0
M  V30 28936 H 2744.42 1.31507 -2.95783 0
M  V30 28937 H 2743.32 -0.902474 -3.63051 0
M  V30 28938 H 2744.66 -1.16826 -4.78134 0
M  V30 28939 N 2746.31 1.45361 -0.608928 0
M  V30 28940 C 2747.26 2.30542 0.109131 0
M  V30 28941 C 2748.23 1.42183 0.858679 0
M  V30 28942 O 2749.41 1.7111 0.844148 0
M  V30 28943 C 2746.55 3.27111 1.09965 0
M  V30 28944 C 2745.66 4.30573 0.350836 0
M  V30 28945 C 2744.8 5.1425 1.33119 0
M  V30 28946 C 2743.84 6.09438 0.57027 0
M  V30 28947 N 2742.98 6.8589 1.49998 0
M  V30 28948 H 2747.82 2.9141 -0.623246 0
M  V30 28949 H 2745.35 1.43596 -0.319147 0
M  V30 28950 H 2747.31 3.81567 1.68708 0
M  V30 28951 H 2745.94 2.67994 1.79942 0
M  V30 28952 H 2744.99 3.78767 -0.35212 0
M  V30 28953 H 2746.3 4.98209 -0.242812 0
M  V30 28954 H 2745.46 5.73113 1.99064 0
M  V30 28955 H 2744.2 4.46636 1.95877 0
M  V30 28956 H 2743.2 5.49704 -0.102798 0
M  V30 28957 H 2744.43 6.7908 -0.05228 0
M  V30 28958 H 2742.37 6.20964 2.11518 0
M  V30 28959 H 2742.29 7.49883 0.959802 0
M  V30 28960 H 2743.56 7.49293 2.14896 0
M  V30 28961 N 2747.79 0.348166 1.53706 0
M  V30 28962 C 2748.72 -0.549628 2.21482 0
M  V30 28963 C 2749.7 -1.09669 1.20048 0
M  V30 28964 O 2750.88 -1.15609 1.48885 0
M  V30 28965 C 2748.01 -1.75659 2.89589 0
M  V30 28966 C 2747.06 -1.33857 4.0495 0
M  V30 28967 S 2747.89 -0.354483 5.34325 0
M  V30 28968 C 2749.04 -1.56817 6.05937 0
M  V30 28969 H 2749.28 0.0260278 2.97289 0
M  V30 28970 H 2746.81 0.132243 1.53833 0
M  V30 28971 H 2748.77 -2.449 3.29445 0
M  V30 28972 H 2747.43 -2.30347 2.13539 0
M  V30 28973 H 2746.62 -2.23861 4.51556 0
M  V30 28974 H 2746.22 -0.725586 3.66894 0
M  V30 28975 H 2748.52 -2.50194 6.2961 0
M  V30 28976 H 2749.46 -1.14382 6.98801 0
M  V30 28977 H 2749.87 -1.76632 5.36154 0
M  V30 28978 N 2749.27 -1.57412 0.0768958 0
M  V30 28979 C 2750.21 -2.13011 -0.88854 0
M  V30 28980 C 2751.18 -1.04392 -1.29196 0
M  V30 28981 O 2752.37 -1.32082 -1.37692 0
M  V30 28982 C 2749.51 -2.70027 -2.14894 0
M  V30 28983 C 2748.62 -3.92819 -1.7977 0
M  V30 28984 C 2747.76 -4.38061 -3.00459 0
M  V30 28985 C 2746.79 -5.53488 -2.61376 0
M  V30 28986 N 2745.93 -5.93666 -3.74841 0
M  V30 28987 H 2750.77 -2.952 -0.407542 0
M  V30 28988 H 2748.31 -1.45874 -0.189509 0
M  V30 28989 H 2750.27 -3.01195 -2.88682 0
M  V30 28990 H 2748.9 -1.90595 -2.60525 0
M  V30 28991 H 2747.95 -3.68081 -0.960237 0
M  V30 28992 H 2749.26 -4.76641 -1.47019 0
M  V30 28993 H 2748.41 -4.70917 -3.8252 0
M  V30 28994 H 2747.15 -3.53103 -3.36407 0
M  V30 28995 H 2746.16 -5.20278 -1.77737 0
M  V30 28996 H 2747.38 -6.40182 -2.26592 0
M  V30 28997 H 2745.33 -5.11656 -4.10541 0
M  V30 28998 H 2745.25 -6.7224 -3.45875 0
M  V30 28999 H 2746.51 -6.31146 -4.57466 0
M  V30 29000 N 2750.74 0.196695 -1.56368 0
M  V30 29001 C 2751.99 0.917334 -1.8053 0
M  V30 29002 C 2752.32 1.83323 -0.649849 0
M  V30 29003 O 2751.57 1.92276 0.364476 0
M  V30 29004 C 2751.87 1.76695 -3.10667 0
M  V30 29005 C 2751.54 1.00217 -4.39622 0
M  V30 29006 C 2750.2 0.791011 -4.74654 0
M  V30 29007 C 2752.55 0.463944 -5.19131 0
M  V30 29008 C 2749.88 0.0301123 -5.86692 0
M  V30 29009 C 2752.23 -0.283736 -6.31963 0
M  V30 29010 C 2750.9 -0.50593 -6.6558 0
M  V30 29011 H 2750.17 0.335676 -0.660608 0
M  V30 29012 H 2752.81 0.18381 -1.90616 0
M  V30 29013 H 2751.12 2.5691 -2.95811 0
M  V30 29014 H 2752.82 2.32712 -3.26567 0
M  V30 29015 H 2749.41 1.17677 -4.12129 0
M  V30 29016 H 2753.59 0.614489 -4.92481 0
M  V30 29017 H 2748.85 -0.152024 -6.11211 0
M  V30 29018 H 2753.02 -0.708179 -6.9279 0
M  V30 29019 H 2750.65 -1.09743 -7.52237 0
M  V30 29020 N 2752.22 1.50604 0.464349 0
M  V30 29021 C 2753.45 1.65456 1.23724 0
M  V30 29022 C 2753.86 0.340064 1.86119 0
M  V30 29023 O 2753.2 -0.688676 1.70303 0
M  V30 29024 C 2753.27 2.69306 2.38149 0
M  V30 29025 C 2752.93 4.12675 1.96338 0
M  V30 29026 C 2753.93 4.98328 1.48206 0
M  V30 29027 C 2751.61 4.58629 2.04853 0
M  V30 29028 C 2753.61 6.27986 1.09141 0
M  V30 29029 C 2751.29 5.88291 1.65399 0
M  V30 29030 C 2752.29 6.72796 1.17622 0
M  V30 29031 O 2751.98 8.00037 0.787171 0
M  V30 29032 H 2751.71 0.559041 0.380065 0
M  V30 29033 H 2754.26 1.97622 0.559885 0
M  V30 29034 H 2752.49 2.32397 3.09077 0
M  V30 29035 H 2754.18 2.7331 3.00094 0
M  V30 29036 H 2754.95 4.64038 1.41044 0
M  V30 29037 H 2750.83 3.92995 2.40989 0
M  V30 29038 H 2754.37 6.93897 0.717787 0
M  V30 29039 H 2750.27 6.22101 1.72223 0
M  V30 29040 H 2751.04 8.13365 0.915424 0
M  V30 29041 N 2753.7 -0.717989 1.40295 0
M  V30 29042 C 2754.63 -1.84495 1.43122 0
M  V30 29043 C 2755.61 -1.67567 0.292433 0
M  V30 29044 O 2756.8 -1.87634 0.500707 0
M  V30 29045 C 2753.93 -3.22425 1.29071 0
M  V30 29046 C 2752.88 -3.54021 2.40527 0
M  V30 29047 C 2752.21 -4.91069 2.11555 0
M  V30 29048 C 2753.51 -3.55262 3.82865 0
M  V30 29049 H 2755.2 -1.82387 2.37435 0
M  V30 29050 H 2752.75 -0.87607 1.14285 0
M  V30 29051 H 2754.7 -4.00955 1.29665 0
M  V30 29052 H 2753.42 -3.25103 0.312328 0
M  V30 29053 H 2752.08 -2.7783 2.39178 0
M  V30 29054 H 2751.73 -4.90347 1.12113 0
M  V30 29055 H 2751.43 -5.13175 2.86225 0
M  V30 29056 H 2752.95 -5.71935 2.13827 0
M  V30 29057 H 2754.37 -4.23837 3.86051 0
M  V30 29058 H 2752.77 -3.88894 4.57035 0
M  V30 29059 H 2753.84 -2.54698 4.12622 0
M  V30 29060 N 2755.18 -1.25752 -0.94996 0
M  V30 29061 C 2756.46 -1.01542 -1.67178 0
M  V30 29062 C 2756.84 0.456906 -2.06096 0
M  V30 29063 O 2756.18 1.43531 -1.77795 0
M  V30 29064 C 2756.39 -1.95569 -2.89057 0
M  V30 29065 C 2757.74 -2.2368 -3.60905 0
M  V30 29066 O 2758.77 -1.93365 -2.99146 0
M  V30 29067 O 2757.62 -2.75251 -4.72122 0
M  V30 29068 H 2754.72 -0.385432 -0.731691 0
M  V30 29069 H 2757.26 -1.36926 -1.00247 0
M  V30 29070 H 2756.04 -2.94964 -2.57123 0
M  V30 29071 H 2755.66 -1.60611 -3.63717 0
M  V30 29072 N 2756.66 1.15326 -1.07413 0
M  V30 29073 C 2757.6 2.20086 -0.695034 0
M  V30 29074 C 2758.57 1.63107 0.313875 0
M  V30 29075 O 2759.76 1.89747 0.200182 0
M  V30 29076 C 2756.9 3.44956 -0.0996825 0
M  V30 29077 C 2756.01 4.16131 -1.16014 0
M  V30 29078 C 2755.15 5.28552 -0.529729 0
M  V30 29079 C 2754.19 5.91545 -1.57293 0
M  V30 29080 N 2753.32 6.95436 -0.965055 0
M  V30 29081 H 2758.16 2.51864 -1.59274 0
M  V30 29082 H 2755.7 1.23693 -0.796137 0
M  V30 29083 H 2757.66 4.16369 0.263124 0
M  V30 29084 H 2756.29 3.13692 0.761379 0
M  V30 29085 H 2755.34 3.43207 -1.64051 0
M  V30 29086 H 2756.65 4.59057 -1.95109 0
M  V30 29087 H 2755.81 6.06592 -0.114593 0
M  V30 29088 H 2754.54 4.86819 0.292984 0
M  V30 29089 H 2753.55 5.12217 -1.99784 0
M  V30 29090 H 2754.77 6.35355 -2.39794 0
M  V30 29091 H 2752.72 6.55797 -0.163256 0
M  V30 29092 H 2752.64 7.36794 -1.69324 0
M  V30 29093 H 2753.91 7.77373 -0.575442 0
M  V30 29094 N 2758.13 0.858334 1.32176 0
M  V30 29095 C 2759.36 0.476925 2.0102 0
M  V30 29096 C 2759.77 -0.931966 1.64654 0
M  V30 29097 O 2759.12 -1.6202 0.865742 0
M  V30 29098 C 2759.18 0.540591 3.55412 0
M  V30 29099 C 2758.84 1.90903 4.15217 0
M  V30 29100 C 2759.84 2.87498 4.33175 0
M  V30 29101 C 2757.52 2.20717 4.51209 0
M  V30 29102 C 2759.52 4.12059 4.86299 0
M  V30 29103 C 2757.2 3.4553 5.04036 0
M  V30 29104 C 2758.2 4.41016 5.2153 0
M  V30 29105 O 2757.89 5.63618 5.73228 0
M  V30 29106 H 2757.62 0.185481 0.650056 0
M  V30 29107 H 2760.18 1.15799 1.69646 0
M  V30 29108 H 2758.41 -0.197342 3.86196 0
M  V30 29109 H 2760.1 0.174262 4.05526 0
M  V30 29110 H 2760.86 2.65769 4.05699 0
M  V30 29111 H 2756.74 1.47178 4.36875 0
M  V30 29112 H 2760.28 4.86597 4.99869 0
M  V30 29113 H 2756.18 3.67107 5.30945 0
M  V30 29114 H 2756.95 5.65627 5.91615 0
M  V30 29115 N 2759.61 -1.45036 0.616628 0
M  V30 29116 C 2760.86 -2.01772 0.115138 0
M  V30 29117 C 2761.18 -1.48641 -1.26218 0
M  V30 29118 O 2760.45 -0.684231 -1.83562 0
M  V30 29119 H 2759.03 -0.745951 0.0395738 0
M  V30 29120 H 2761.69 -1.77722 0.800064 0
M  V30 29121 H 2760.79 -3.12017 0.0717822 0
M  V30 29122 N 2761.09 -0.356312 -1.53519 0
M  V30 29123 C 2762.34 0.237338 -2.00299 0
M  V30 29124 C 2762.65 1.50625 -1.24786 0
M  V30 29125 O 2763.86 2.17793 -1.62107 0
M  V30 29126 C 2762.31 0.473482 -3.56772 0
M  V30 29127 C 2761.92 -0.780261 -4.41153 0
M  V30 29128 C 2763.67 1.02529 -4.11932 0
M  V30 29129 C 2761.57 -0.514211 -5.8916 0
M  V30 29130 H 2760.5 0.0924649 -0.748309 0
M  V30 29131 H 2763.15 -0.473619 -1.77283 0
M  V30 29132 H 2761.54 1.24547 -3.75904 0
M  V30 29133 H 2762.71 -1.55433 -4.33794 0
M  V30 29134 H 2761.03 -1.25462 -3.97049 0
M  V30 29135 H 2763.62 1.23951 -5.20135 0
M  V30 29136 H 2763.97 1.98467 -3.65946 0
M  V30 29137 H 2764.5 0.313705 -3.96561 0
M  V30 29138 H 2761.24 -1.44366 -6.39405 0
M  V30 29139 H 2760.76 0.221527 -5.99391 0
M  V30 29140 H 2762.44 -0.136236 -6.46857 0
M  V30 29141 N 2762.57 1.57369 -0.0852427 0
M  V30 29142 C 2763.85 1.8543 0.622502 0
M  V30 29143 C 2764.23 0.980262 1.8696 0
M  V30 29144 O 2763.57 0.0500621 2.28445 0
M  V30 29145 C 2763.78 3.35897 0.947314 0
M  V30 29146 C 2765.13 4.03723 1.31502 0
M  V30 29147 O 2766.16 3.40721 1.03863 0
M  V30 29148 O 2765.01 5.14871 1.83222 0
M  V30 29149 H 2762.11 0.766498 0.3105 0
M  V30 29150 H 2764.65 1.69295 -0.117194 0
M  V30 29151 H 2763.43 3.91251 0.0621576 0
M  V30 29152 H 2763.05 3.57343 1.74332 0
M  V30 29153 N 2764.05 -0.188399 1.5647 0
M  V30 29154 C 2764.98 -1.23602 1.98103 0
M  V30 29155 C 2765.96 -1.47109 0.853986 0
M  V30 29156 O 2767.14 -1.58733 1.11881 0
M  V30 29157 C 2764.27 -2.57878 2.32629 0
M  V30 29158 C 2763.23 -2.48972 3.48134 0
M  V30 29159 C 2762.55 -3.87582 3.68354 0
M  V30 29160 C 2763.85 -2.00903 4.82115 0
M  V30 29161 H 2765.55 -0.890018 2.85865 0
M  V30 29162 H 2763.09 -0.42669 1.37533 0
M  V30 29163 H 2765.05 -3.31355 2.60349 0
M  V30 29164 H 2763.77 -2.94233 1.41756 0
M  V30 29165 H 2762.43 -1.7795 3.20514 0
M  V30 29166 H 2762.08 -4.213 2.748 0
M  V30 29167 H 2761.78 -3.82496 4.46062 0
M  V30 29168 H 2763.3 -4.62671 3.98457 0
M  V30 29169 H 2764.71 -2.64142 5.08824 0
M  V30 29170 H 2763.11 -2.06804 5.6334 0
M  V30 29171 H 2764.18 -0.962536 4.75251 0
M  V30 29172 N 2765.53 -1.50848 -0.456355 0
M  V30 29173 C 2766.94 -1.55264 -1.03682 0
M  V30 29174 C 2767.29 -0.364805 -1.92779 0
M  V30 29175 O 2766.41 0.520643 -2.10043 0
M  V30 29176 C 2767.01 -2.81377 -1.88713 0
M  V30 29177 C 2765.57 -2.88426 -2.41842 0
M  V30 29178 C 2764.71 -2.49721 -1.20559 0
M  V30 29179 H 2767.66 -1.569 -0.238371 0
M  V30 29180 H 2767.69 -2.64065 -2.73952 0
M  V30 29181 H 2767.2 -3.67811 -1.2384 0
M  V30 29182 H 2765.3 -2.06378 -3.10224 0
M  V30 29183 H 2765.41 -3.91655 -2.7594 0
M  V30 29184 H 2763.78 -2.02489 -1.545 0
M  V30 29185 H 2764.56 -3.3848 -0.573266 0
M  V30 29186 N 2767 0.710538 -1.40674 0
M  V30 29187 C 2767.93 1.83734 -1.44098 0
M  V30 29188 C 2768.91 1.6741 -0.301315 0
M  V30 29189 O 2770.1 1.87366 -0.510651 0
M  V30 29190 C 2767.23 3.21736 -1.30779 0
M  V30 29191 C 2766.18 3.5274 -2.42401 0
M  V30 29192 C 2765.51 4.8994 -2.14156 0
M  V30 29193 C 2766.81 3.53227 -3.84744 0
M  V30 29194 H 2768.5 1.81125 -2.38399 0
M  V30 29195 H 2766.05 0.869996 -1.14748 0
M  V30 29196 H 2768 4.00262 -1.3179 0
M  V30 29197 H 2766.73 3.24933 -0.329565 0
M  V30 29198 H 2765.39 2.76558 -2.40648 0
M  V30 29199 H 2765.03 4.89745 -1.14712 0
M  V30 29200 H 2764.73 5.1165 -2.88943 0
M  V30 29201 H 2766.26 5.70793 -2.16858 0
M  V30 29202 H 2767.67 4.21783 -3.88293 0
M  V30 29203 H 2766.07 3.86465 -4.59091 0
M  V30 29204 H 2767.14 2.52506 -4.13967 0
M  V30 29205 N 2768.48 1.26254 0.943277 0
M  V30 29206 C 2769.73 1.1184 1.69173 0
M  V30 29207 C 2770.06 -0.337858 1.91238 0
M  V30 29208 O 2769.34 -1.24833 1.49154 0
M  V30 29209 C 2769.62 1.88568 3.0678 0
M  V30 29210 C 2769.47 3.42088 2.92054 0
M  V30 29211 C 2770.79 1.67783 4.06862 0
M  V30 29212 H 2767.91 0.407669 0.613983 0
M  V30 29213 H 2770.55 1.55224 1.09569 0
M  V30 29214 H 2768.7 1.51695 3.5766 0
M  V30 29215 H 2770.37 3.88702 2.48412 0
M  V30 29216 H 2768.62 3.69221 2.27725 0
M  V30 29217 H 2769.29 3.91001 3.89644 0
M  V30 29218 H 2771.76 1.99904 3.64935 0
M  V30 29219 H 2770.64 2.23888 5.01164 0
M  V30 29220 H 2770.9 0.621893 4.37704 0
M  V30 29221 N 2769.96 -1.14755 1.08024 0
M  V30 29222 C 2771.19 -1.89571 0.828881 0
M  V30 29223 C 2771.6 -1.78379 -0.61859 0
M  V30 29224 O 2770.96 -1.14042 -1.4248 0
M  V30 29225 C 2771.01 -3.39683 1.23683 0
M  V30 29226 O 2770.73 -3.50561 2.62752 0
M  V30 29227 C 2772.23 -4.31506 1.01577 0
M  V30 29228 H 2769.45 -0.600597 0.299207 0
M  V30 29229 H 2772 -1.45354 1.43849 0
M  V30 29230 H 2770.15 -3.81537 0.671414 0
M  V30 29231 H 2770.57 -4.43773 2.79581 0
M  V30 29232 H 2772.04 -5.35221 1.35065 0
M  V30 29233 H 2772.52 -4.39174 -0.0474661 0
M  V30 29234 H 2773.12 -3.95402 1.56643 0
M  V30 29235 N 2771.44 -0.865331 -1.31719 0
M  V30 29236 C 2772.67 -0.487578 -2.00764 0
M  V30 29237 C 2773.08 0.923221 -1.65146 0
M  V30 29238 O 2772.42 1.61559 -0.874322 0
M  V30 29239 C 2772.48 -0.559431 -3.55121 0
M  V30 29240 C 2772.14 -1.93102 -4.14199 0
M  V30 29241 C 2773.14 -2.89791 -4.31645 0
M  V30 29242 C 2770.83 -2.23107 -4.50032 0
M  V30 29243 C 2772.82 -4.14632 -4.84107 0
M  V30 29244 C 2770.51 -3.48198 -5.02197 0
M  V30 29245 C 2771.51 -4.43776 -5.19184 0
M  V30 29246 O 2771.19 -5.6665 -5.70231 0
M  V30 29247 H 2770.93 -0.188926 -0.649063 0
M  V30 29248 H 2773.48 -1.16697 -1.6903 0
M  V30 29249 H 2771.71 0.176859 -3.86295 0
M  V30 29250 H 2773.4 -0.195766 -4.05428 0
M  V30 29251 H 2774.16 -2.67917 -4.04284 0
M  V30 29252 H 2770.04 -1.49492 -4.36088 0
M  V30 29253 H 2773.59 -4.89241 -4.97281 0
M  V30 29254 H 2769.48 -3.69918 -5.28991 0
M  V30 29255 H 2770.25 -5.68757 -5.88607 0
M  V30 29256 N 2772.92 1.44707 -0.624311 0
M  V30 29257 C 2774.16 2.01321 -0.123575 0
M  V30 29258 C 2774.48 1.49642 1.25963 0
M  V30 29259 O 2775.68 1.9834 1.85401 0
M  V30 29260 C 2774.14 3.59497 -0.170187 0
M  V30 29261 C 2773.75 4.20174 -1.55429 0
M  V30 29262 C 2775.49 4.23612 0.274439 0
M  V30 29263 C 2773.4 5.70553 -1.55638 0
M  V30 29264 H 2772.33 0.752805 -0.0424316 0
M  V30 29265 H 2774.98 1.65998 -0.782105 0
M  V30 29266 H 2773.36 3.92087 0.555316 0
M  V30 29267 H 2774.54 3.99132 -2.30283 0
M  V30 29268 H 2772.85 3.68319 -1.94242 0
M  V30 29269 H 2775.45 5.339 0.292308 0
M  V30 29270 H 2775.79 3.95468 1.30043 0
M  V30 29271 H 2776.32 3.95801 -0.398345 0
M  V30 29272 H 2773.06 6.03422 -2.56051 0
M  V30 29273 H 2772.58 5.93737 -0.850668 0
M  V30 29274 H 2774.26 6.34064 -1.28732 0
M  V30 29275 N 2774.39 0.364449 1.53328 0
M  V30 29276 C 2775.34 -0.482567 2.25699 0
M  V30 29277 C 2776.31 -1.07846 1.26327 0
M  V30 29278 O 2777.5 -1.11116 1.55106 0
M  V30 29279 C 2774.64 -1.61694 3.04876 0
M  V30 29280 C 2773.75 -1.04633 4.19137 0
M  V30 29281 C 2772.88 -2.14971 4.85758 0
M  V30 29282 C 2771.92 -1.5537 5.92053 0
M  V30 29283 N 2771.06 -2.59535 6.52369 0
M  V30 29284 H 2775.9 0.141084 2.97666 0
M  V30 29285 H 2773.44 0.081395 1.46875 0
M  V30 29286 H 2775.39 -2.28509 3.49055 0
M  V30 29287 H 2774.02 -2.21126 2.35166 0
M  V30 29288 H 2773.08 -0.268486 3.79451 0
M  V30 29289 H 2774.39 -0.570566 4.95526 0
M  V30 29290 H 2773.54 -2.89609 5.33115 0
M  V30 29291 H 2772.28 -2.65899 4.08839 0
M  V30 29292 H 2771.29 -0.792453 5.44059 0
M  V30 29293 H 2772.51 -1.05268 6.70892 0
M  V30 29294 H 2770.46 -3.09679 5.78304 0
M  V30 29295 H 2770.37 -2.16642 7.24294 0
M  V30 29296 H 2771.64 -3.3388 7.04375 0
M  V30 29297 N 2775.87 -1.57322 0.0935872 0
M  V30 29298 C 2777.15 -1.85757 -0.612659 0
M  V30 29299 C 2777.53 -0.990163 -1.86438 0
M  V30 29300 O 2776.88 -0.0621764 -2.28415 0
M  V30 29301 C 2777.09 -3.36395 -0.929488 0
M  V30 29302 C 2778.43 -4.04415 -1.29359 0
M  V30 29303 O 2779.46 -3.41267 -1.02055 0
M  V30 29304 O 2778.32 -5.15835 -1.80489 0
M  V30 29305 H 2775.41 -0.768134 -0.30643 0
M  V30 29306 H 2777.96 -1.6923 0.12617 0
M  V30 29307 H 2776.73 -3.91278 -0.0414078 0
M  V30 29308 H 2776.35 -3.58263 -1.72435 0
M  V30 29309 N 2777.35 0.180099 -1.56568 0
M  V30 29310 C 2778.26 1.24323 -1.9895 0
M  V30 29311 C 2779.28 1.48948 -0.899473 0
M  V30 29312 O 2780.45 1.61269 -1.20642 0
M  V30 29313 C 2777.52 2.56431 -2.33332 0
M  V30 29314 C 2776.58 2.39746 -3.56118 0
M  V30 29315 C 2775.81 3.65554 -3.88852 0
M  V30 29316 O 2776.03 4.70362 -3.2267 0
M  V30 29317 O 2774.97 3.60188 -4.82232 0
M  V30 29318 H 2778.79 0.913514 -2.89635 0
M  V30 29319 H 2776.38 0.386281 -1.4432 0
M  V30 29320 H 2778.26 3.34378 -2.56456 0
M  V30 29321 H 2776.94 2.89 -1.45811 0
M  V30 29322 H 2775.84 1.5986 -3.38224 0
M  V30 29323 H 2777.18 2.12105 -4.44153 0
M  V30 29324 N 2778.83 1.51088 0.448349 0
M  V30 29325 C 2779.76 1.74547 1.55099 0
M  V30 29326 C 2780.74 0.594961 1.59356 0
M  V30 29327 O 2781.92 0.836522 1.7526 0
M  V30 29328 C 2779.05 1.86046 2.93265 0
M  V30 29329 C 2778.01 3.01407 3.03871 0
M  V30 29330 C 2777.33 2.98075 4.43909 0
M  V30 29331 C 2778.63 4.41556 2.78972 0
M  V30 29332 H 2780.33 2.66872 1.3572 0
M  V30 29333 H 2777.87 1.2842 0.651475 0
M  V30 29334 H 2779.83 2.01041 3.70352 0
M  V30 29335 H 2778.55 0.903603 3.13851 0
M  V30 29336 H 2777.21 2.861 2.29222 0
M  V30 29337 H 2776.86 2.0019 4.61447 0
M  V30 29338 H 2776.56 3.75535 4.51937 0
M  V30 29339 H 2778.08 3.15149 5.22985 0
M  V30 29340 H 2779.5 4.57271 3.45797 0
M  V30 29341 H 2777.89 5.20638 2.98422 0
M  V30 29342 H 2778.96 4.52353 1.74655 0
M  V30 29343 N 2780.31 -0.703068 1.41049 0
M  V30 29344 C 2781.72 -1.01273 1.23353 0
M  V30 29345 C 2781.92 -2.01157 0.117575 0
M  V30 29346 O 2780.98 -2.47078 -0.520475 0
M  V30 29347 C 2782.29 -1.54449 2.58004 0
M  V30 29348 C 2783.84 -1.66371 2.65122 0
M  V30 29349 C 2784.31 -2.22951 4.00071 0
M  V30 29350 N 2785.81 -2.30321 4.01879 0
M  V30 29351 C 2786.54 -2.75111 5.03092 0
M  V30 29352 N 2786.04 -3.1956 6.14698 0
M  V30 29353 N 2787.83 -2.74607 4.90456 0
M  V30 29354 H 2779.98 -0.0412313 2.1236 0
M  V30 29355 H 2782.24 -0.0808734 0.944544 0
M  V30 29356 H 2781.95 -0.88515 3.40379 0
M  V30 29357 H 2781.82 -2.52781 2.79967 0
M  V30 29358 H 2784.21 -2.31419 1.8311 0
M  V30 29359 H 2784.29 -0.666046 2.46977 0
M  V30 29360 H 2783.94 -1.58521 4.82528 0
M  V30 29361 H 2783.87 -3.23455 4.15553 0
M  V30 29362 H 2786.36 -1.98943 3.21294 0
M  V30 29363 H 2786.67 -3.5234 6.87805 0
M  V30 29364 H 2785.01 -3.17488 6.18245 0
M  V30 29365 H 2788.21 -2.39225 4.02354 0
M  V30 29366 H 2788.38 -3.09196 5.69475 0
M  V30 29367 N 2781.78 -1.26752 -0.936569 0
M  V30 29368 C 2783.01 -1.15465 -1.72286 0
M  V30 29369 C 2783.43 0.285855 -1.85915 0
M  V30 29370 O 2782.79 1.20709 -1.35274 0
M  V30 29371 C 2782.84 -1.83364 -3.10499 0
M  V30 29372 O 2781.94 -1.12557 -3.96743 0
M  V30 29373 H 2781.29 -0.402076 -0.528423 0
M  V30 29374 H 2783.82 -1.67658 -1.17269 0
M  V30 29375 H 2783.83 -1.90372 -3.60864 0
M  V30 29376 H 2782.5 -2.88158 -2.99896 0
M  V30 29377 H 2781.08 -1.13557 -3.55189 0
M  V30 29378 N 2783.26 1.1418 -1.08631 0
M  V30 29379 C 2784.51 1.85545 -0.818589 0
M  V30 29380 C 2784.84 1.82855 0.654044 0
M  V30 29381 O 2784.12 1.26086 1.48097 0
M  V30 29382 C 2784.4 3.34078 -1.34403 0
M  V30 29383 C 2784.25 3.45328 -2.88217 0
M  V30 29384 C 2785.57 4.29251 -0.971144 0
M  V30 29385 H 2782.69 0.673697 -0.298833 0
M  V30 29386 H 2785.33 1.34068 -1.34632 0
M  V30 29387 H 2783.48 3.78047 -0.89513 0
M  V30 29388 H 2785.15 3.10128 -3.41494 0
M  V30 29389 H 2783.4 2.86465 -3.25761 0
M  V30 29390 H 2784.07 4.49743 -3.20055 0
M  V30 29391 H 2786.54 3.9331 -1.35816 0
M  V30 29392 H 2785.42 5.31632 -1.36595 0
M  V30 29393 H 2785.68 4.41933 0.121581 0
M  V30 29394 N 2784.74 0.872304 1.31258 0
M  V30 29395 C 2786.02 0.404977 1.91362 0
M  V30 29396 C 2786.4 -1.11318 1.79364 0
M  V30 29397 O 2785.75 -1.94281 1.2028 0
M  V30 29398 C 2785.96 0.888952 3.37489 0
M  V30 29399 C 2787.3 0.916456 4.14592 0
M  V30 29400 O 2788.33 0.834762 3.4628 0
M  V30 29401 O 2787.19 1.03508 5.36608 0
M  V30 29402 H 2784.28 0.121583 0.818014 0
M  V30 29403 H 2786.83 0.960371 1.39911 0
M  V30 29404 H 2785.6 1.93257 3.40246 0
M  V30 29405 H 2785.22 0.312002 3.96374 0
M  V30 29406 N 2786.22 -1.44374 0.631976 0
M  V30 29407 C 2787.17 -2.30686 -0.0724401 0
M  V30 29408 C 2788.14 -1.43531 -0.83595 0
M  V30 29409 O 2789.32 -1.72432 -0.816819 0
M  V30 29410 C 2786.46 -3.28819 -1.04747 0
M  V30 29411 C 2785.57 -4.31077 -0.282291 0
M  V30 29412 C 2784.71 -5.16302 -1.24921 0
M  V30 29413 C 2783.75 -6.10268 -0.473242 0
M  V30 29414 N 2782.88 -6.88189 -1.39067 0
M  V30 29415 H 2787.72 -2.90381 0.669528 0
M  V30 29416 H 2785.26 -1.4307 0.341952 0
M  V30 29417 H 2787.22 -3.84203 -1.62616 0
M  V30 29418 H 2785.85 -2.70822 -1.75656 0
M  V30 29419 H 2784.9 -3.78159 0.412334 0
M  V30 29420 H 2786.21 -4.97759 0.322042 0
M  V30 29421 H 2785.37 -5.76207 -1.89921 0
M  V30 29422 H 2784.11 -4.49695 -1.88747 0
M  V30 29423 H 2783.11 -5.49471 0.190238 0
M  V30 29424 H 2784.34 -6.78911 0.160309 0
M  V30 29425 H 2782.28 -6.2425 -2.01612 0
M  V30 29426 H 2782.2 -7.51315 -0.840381 0
M  V30 29427 H 2783.47 -7.52617 -2.02948 0
M  V30 29428 N 2787.7 -0.372575 -1.53133 0
M  V30 29429 C 2788.94 0.215242 -2.01655 0
M  V30 29430 C 2789.28 1.47847 -1.25916 0
M  V30 29431 O 2788.55 1.91236 -0.354833 0
M  V30 29432 C 2788.83 0.500125 -3.5661 0
M  V30 29433 C 2788.69 -0.777223 -4.43034 0
M  V30 29434 C 2790.01 1.29779 -4.2053 0
M  V30 29435 H 2787.12 0.0767557 -0.732992 0
M  V30 29436 H 2789.77 -0.498846 -1.83334 0
M  V30 29437 H 2787.92 1.10845 -3.72351 0
M  V30 29438 H 2789.59 -1.41455 -4.39077 0
M  V30 29439 H 2787.83 -1.39611 -4.1072 0
M  V30 29440 H 2788.5 -0.532758 -5.49423 0
M  V30 29441 H 2790.98 0.783126 -4.08664 0
M  V30 29442 H 2789.85 1.46586 -5.28965 0
M  V30 29443 H 2790.12 2.30829 -3.77055 0
M  V30 29444 N 2789.17 1.5727 -0.101929 0
M  V30 29445 C 2790.59 1.57554 0.254712 0
M  V30 29446 C 2790.79 1.11355 1.67935 0
M  V30 29447 O 2789.85 0.793124 2.3972 0
M  V30 29448 C 2791.16 3.00677 0.0369221 0
M  V30 29449 C 2792.71 3.12827 0.104144 0
M  V30 29450 C 2793.18 4.5792 -0.085737 0
M  V30 29451 N 2794.67 4.6319 -0.0311313 0
M  V30 29452 C 2795.41 5.73195 -0.1532 0
M  V30 29453 N 2794.9 6.92011 -0.330485 0
M  V30 29454 N 2796.7 5.62021 -0.0939841 0
M  V30 29455 H 2788.85 1.85607 -1.03266 0
M  V30 29456 H 2791.11 0.857008 -0.405266 0
M  V30 29457 H 2790.82 3.38702 -0.947314 0
M  V30 29458 H 2790.69 3.69126 0.77627 0
M  V30 29459 H 2793.08 2.74671 1.07889 0
M  V30 29460 H 2793.16 2.46956 -0.666806 0
M  V30 29461 H 2792.8 4.96771 -1.05738 0
M  V30 29462 H 2792.73 5.2186 0.70499 0
M  V30 29463 H 2795.22 3.77759 0.103075 0
M  V30 29464 H 2795.54 7.71685 -0.414956 0
M  V30 29465 H 2793.88 6.94034 -0.366241 0
M  V30 29466 H 2797.07 4.6808 0.0434346 0
M  V30 29467 H 2797.25 6.47714 -0.192563 0
M  V30 29468 N 2790.65 -0.171793 1.56661 0
M  V30 29469 C 2791.58 -1.21494 1.99403 0
M  V30 29470 C 2792.56 -1.46195 0.869541 0
M  V30 29471 O 2793.75 -1.57537 1.13559 0
M  V30 29472 C 2790.88 -2.55396 2.35351 0
M  V30 29473 C 2789.83 -2.45265 3.50755 0
M  V30 29474 C 2789.16 -3.83653 3.72444 0
M  V30 29475 C 2790.46 -1.95778 4.84219 0
M  V30 29476 H 2792.15 -0.859648 2.86793 0
M  V30 29477 H 2789.7 -0.412079 1.37978 0
M  V30 29478 H 2791.65 -3.28575 2.63849 0
M  V30 29479 H 2790.38 -2.92713 1.44869 0
M  V30 29480 H 2789.03 -1.74541 3.22383 0
M  V30 29481 H 2788.68 -4.18362 2.79253 0
M  V30 29482 H 2788.38 -3.77743 4.50093 0
M  V30 29483 H 2789.91 -4.58418 4.03342 0
M  V30 29484 H 2791.32 -2.58731 5.11597 0
M  V30 29485 H 2789.72 -2.00817 5.65502 0
M  V30 29486 H 2790.79 -0.912075 4.76245 0
M  V30 29487 N 2792.13 -1.51324 -0.44033 0
M  V30 29488 C 2793.38 -1.6352 -1.18767 0
M  V30 29489 C 2793.7 -0.352234 -1.91792 0
M  V30 29490 O 2792.97 0.631779 -1.85433 0
M  V30 29491 H 2791.55 -0.602642 -0.441398 0
M  V30 29492 H 2794.21 -1.8824 -0.505129 0
M  V30 29493 H 2793.31 -2.46141 -1.91887 0
M  V30 29494 N 2793.61 0.695578 -1.41419 0
M  V30 29495 C 2794.56 1.80951 -1.43267 0
M  V30 29496 C 2795.53 1.63601 -0.287045 0
M  V30 29497 O 2796.71 1.84451 -0.488087 0
M  V30 29498 C 2793.85 3.18833 -1.3206 0
M  V30 29499 C 2792.96 3.47615 -2.56491 0
M  V30 29500 C 2792.1 4.75111 -2.37578 0
M  V30 29501 C 2791.14 4.96861 -3.57486 0
M  V30 29502 N 2790.27 6.15582 -3.37643 0
M  V30 29503 H 2795.11 1.78707 -2.3847 0
M  V30 29504 H 2792.65 0.872694 -1.18416 0
M  V30 29505 H 2794.61 3.98482 -1.23565 0
M  V30 29506 H 2793.24 3.20254 -0.404648 0
M  V30 29507 H 2792.29 2.62372 -2.75437 0
M  V30 29508 H 2793.6 3.59588 -3.45684 0
M  V30 29509 H 2792.76 5.62814 -2.2655 0
M  V30 29510 H 2791.5 4.65383 -1.45842 0
M  V30 29511 H 2790.5 4.07605 -3.68969 0
M  V30 29512 H 2791.73 5.08447 -4.50176 0
M  V30 29513 H 2789.67 6.07067 -2.48606 0
M  V30 29514 H 2789.59 6.28323 -4.20412 0
M  V30 29515 H 2790.86 7.0602 -3.30387 0
M  V30 29516 N 2795.09 1.27247 0.929833 0
M  V30 29517 C 2796.31 1.16377 1.71672 0
M  V30 29518 C 2796.74 -0.275991 1.86064 0
M  V30 29519 O 2796.1 -1.1999 1.35912 0
M  V30 29520 C 2796.14 1.85008 3.09523 0
M  V30 29521 O 2795.25 1.1466 3.9614 0
M  V30 29522 H 2794.59 0.404873 0.526283 0
M  V30 29523 H 2797.12 1.68278 1.16378 0
M  V30 29524 H 2797.13 1.92283 3.59849 0
M  V30 29525 H 2795.8 2.89744 2.98364 0
M  V30 29526 H 2794.38 1.15439 3.54582 0
M  V30 29527 N 2796.57 -1.13603 1.09235 0
M  V30 29528 C 2797.98 -1.36825 0.821654 0
M  V30 29529 C 2798.18 -1.93417 -0.564987 0
M  V30 29530 O 2797.24 -2.15236 -1.32022 0
M  V30 29531 C 2798.55 -2.32143 1.91128 0
M  V30 29532 C 2800.1 -2.45763 1.93828 0
M  V30 29533 C 2800.57 -3.44388 3.01929 0
M  V30 29534 N 2802.06 -3.51937 3.01155 0
M  V30 29535 C 2802.8 -4.28124 3.81442 0
M  V30 29536 N 2802.3 -5.07481 4.7163 0
M  V30 29537 N 2804.09 -4.23405 3.69709 0
M  V30 29538 H 2796.24 -0.7522 1.98635 0
M  V30 29539 H 2798.5 -0.393467 0.862489 0
M  V30 29540 H 2798.21 -1.97712 2.90865 0
M  V30 29541 H 2798.08 -3.32139 1.78783 0
M  V30 29542 H 2800.47 -2.79482 0.947309 0
M  V30 29543 H 2800.55 -1.45699 2.10251 0
M  V30 29544 H 2800.19 -3.11401 4.01238 0
M  V30 29545 H 2800.12 -4.44252 2.8275 0
M  V30 29546 H 2802.62 -2.95313 2.35794 0
M  V30 29547 H 2802.93 -5.62915 5.29478 0
M  V30 29548 H 2801.27 -5.0672 4.75667 0
M  V30 29549 H 2804.46 -3.60484 2.98612 0
M  V30 29550 H 2804.64 -4.82528 4.32517 0
M  V30 29551 N 2798.04 -0.879253 -1.30793 0
M  V30 29552 C 2798.97 -0.357836 -2.30742 0
M  V30 29553 C 2799.95 0.556255 -1.60748 0
M  V30 29554 O 2801.14 0.471317 -1.88394 0
M  V30 29555 C 2798.27 0.433494 -3.44584 0
M  V30 29556 C 2797.22 -0.388326 -4.26235 0
M  V30 29557 C 2796.55 0.529259 -5.32074 0
M  V30 29558 C 2797.85 -1.62738 -4.963 0
M  V30 29559 H 2799.54 -1.19304 -2.74603 0
M  V30 29560 H 2797.09 -0.575127 -1.32016 0
M  V30 29561 H 2799.04 0.808861 -4.13564 0
M  V30 29562 H 2797.77 1.30229 -2.99513 0
M  V30 29563 H 2796.43 -0.745758 -3.58935 0
M  V30 29564 H 2796.07 1.3956 -4.83251 0
M  V30 29565 H 2795.77 -0.0167774 -5.87598 0
M  V30 29566 H 2797.3 0.901267 -6.03912 0
M  V30 29567 H 2798.71 -1.32293 -5.57827 0
M  V30 29568 H 2797.11 -2.11318 -5.61662 0
M  V30 29569 H 2798.18 -2.37502 -4.22754 0
M  V30 29570 N 2799.52 1.44037 -0.639624 0
M  V30 29571 C 2800.77 2.01179 -0.144921 0
M  V30 29572 C 2801.08 1.50969 1.24369 0
M  V30 29573 O 2802.29 2.00295 1.83287 0
M  V30 29574 C 2800.75 3.59297 -0.208307 0
M  V30 29575 C 2800.35 4.18502 -1.59876 0
M  V30 29576 C 2802.1 4.23879 0.229493 0
M  V30 29577 C 2800 5.6887 -1.61681 0
M  V30 29578 H 2798.93 0.752313 -0.0504137 0
M  V30 29579 H 2801.59 1.65159 -0.799668 0
M  V30 29580 H 2799.97 3.92654 0.513698 0
M  V30 29581 H 2801.14 3.96667 -2.34503 0
M  V30 29582 H 2799.46 3.66239 -1.98137 0
M  V30 29583 H 2802.05 5.3418 0.235664 0
M  V30 29584 H 2802.4 3.96825 1.25841 0
M  V30 29585 H 2802.93 3.95356 -0.440302 0
M  V30 29586 H 2799.67 6.00672 -2.62437 0
M  V30 29587 H 2799.19 5.92801 -0.913594 0
M  V30 29588 H 2800.87 6.32663 -1.3545 0
M  V30 29589 N 2801 0.380691 1.52933 0
M  V30 29590 C 2801.91 -0.466152 2.29922 0
M  V30 29591 C 2802.93 -1.0792 1.36489 0
M  V30 29592 O 2804.1 -1.08687 1.69555 0
M  V30 29593 C 2801.17 -1.58261 3.08471 0
M  V30 29594 C 2800.23 -0.995553 4.17597 0
M  V30 29595 C 2799.46 -2.0588 4.92391 0
M  V30 29596 O 2799.68 -3.27246 4.6719 0
M  V30 29597 O 2798.62 -1.68092 5.77952 0
M  V30 29598 H 2802.44 0.160788 3.03274 0
M  V30 29599 H 2800.03 0.144643 1.48698 0
M  V30 29600 H 2801.91 -2.23139 3.57473 0
M  V30 29601 H 2800.59 -2.19467 2.37941 0
M  V30 29602 H 2799.49 -0.310266 3.72811 0
M  V30 29603 H 2800.83 -0.427831 4.90337 0
M  V30 29604 N 2802.48 -1.57214 0.110268 0
M  V30 29605 C 2803.44 -2.13691 -0.828771 0
M  V30 29606 C 2804.44 -1.06971 -1.20057 0
M  V30 29607 O 2805.63 -1.32788 -1.12752 0
M  V30 29608 C 2802.76 -2.66998 -2.11955 0
M  V30 29609 H 2803.96 -2.97988 -0.338094 0
M  V30 29610 H 2801.51 -1.55682 -0.138886 0
M  V30 29611 H 2802.24 -1.86265 -2.65473 0
M  V30 29612 H 2802.03 -3.4504 -1.86252 0
M  V30 29613 H 2803.52 -3.10634 -2.79099 0
M  V30 29614 N 2803.96 0.163482 -1.5675 0
M  V30 29615 C 2805.18 0.898231 -1.8694 0
M  V30 29616 C 2805.61 1.7469 -0.697486 0
M  V30 29617 O 2804.96 1.77824 0.353296 0
M  V30 29618 C 2805.01 1.74436 -3.15602 0
M  V30 29619 O 2804.12 2.84684 -2.98376 0
M  V30 29620 H 2803.46 0.251167 -0.614664 0
M  V30 29621 H 2805.99 0.159262 -2.03979 0
M  V30 29622 H 2806 2.14271 -3.47206 0
M  V30 29623 H 2804.67 1.12103 -4.00507 0
M  V30 29624 H 2803.25 2.48375 -2.78144 0
M  V30 29625 N 2805.43 1.51555 0.432299 0
M  V30 29626 C 2806.66 1.68574 1.20821 0
M  V30 29627 C 2807.08 0.384628 1.84126 0
M  V30 29628 O 2806.44 -0.655722 1.69027 0
M  V30 29629 C 2806.49 2.8065 2.26424 0
M  V30 29630 O 2805.59 2.44604 3.32028 0
M  V30 29631 H 2804.93 0.561919 0.353755 0
M  V30 29632 H 2807.46 1.98145 0.509881 0
M  V30 29633 H 2807.47 3.04883 2.71128 0
M  V30 29634 H 2806.15 3.75062 1.79727 0
M  V30 29635 H 2804.73 2.30961 2.92765 0
M  V30 29636 N 2806.91 -0.688069 1.41786 0
M  V30 29637 C 2807.84 -1.81418 1.47003 0
M  V30 29638 C 2808.82 -1.66909 0.32791 0
M  V30 29639 O 2810.01 -1.8653 0.540395 0
M  V30 29640 C 2807.14 -3.19615 1.35881 0
M  V30 29641 C 2806.09 -3.48839 2.47982 0
M  V30 29642 C 2805.42 -4.86471 2.21923 0
M  V30 29643 C 2806.72 -3.47061 3.90315 0
M  V30 29644 H 2808.41 -1.7731 2.4125 0
M  V30 29645 H 2805.96 -0.851631 1.16117 0
M  V30 29646 H 2807.91 -3.98114 1.38141 0
M  V30 29647 H 2806.63 -3.24368 0.381217 0
M  V30 29648 H 2805.29 -2.72694 2.45017 0
M  V30 29649 H 2804.94 -4.87858 1.22489 0
M  V30 29650 H 2804.64 -5.06989 2.97046 0
M  V30 29651 H 2806.17 -5.67271 2.25911 0
M  V30 29652 H 2807.58 -4.15553 3.94954 0
M  V30 29653 H 2805.98 -3.79112 4.65182 0
M  V30 29654 H 2807.05 -2.45889 4.17932 0
M  V30 29655 N 2808.39 -1.27739 -0.923072 0
M  V30 29656 C 2809.34 -1.10706 -2.04565 0
M  V30 29657 C 2810.33 -0.0288743 -1.69375 0
M  V30 29658 O 2811.54 -0.186945 -1.79027 0
M  V30 29659 H 2807.91 -0.341272 -0.670103 0
M  V30 29660 H 2809.88 -2.058 -2.16076 0
M  V30 29661 C 2808.63 -0.775896 -3.38932 0
M  V30 29662 H 2807.96 -1.59747 -3.66498 0
M  V30 29663 H 2809.4 -0.696622 -4.18238 0
M  V30 29664 C 2807.85 0.519954 -3.32863 0
M  V30 29665 O 2808.38 1.55302 -3.70465 0
M  V30 29666 N 2806.59 0.517269 -2.85959 0
M  V30 29667 H 2806.14 -0.323835 -2.55556 0
M  V30 29668 H 2806.1 1.38436 -2.82281 0
M  V30 29669 N 2809.87 1.13022 -1.09836 0
M  V30 29670 C 2811.15 1.80681 -0.749257 0
M  V30 29671 C 2811.53 1.96746 0.765137 0
M  V30 29672 O 2810.87 1.53889 1.6891 0
M  V30 29673 C 2811.08 3.15445 -1.49316 0
M  V30 29674 C 2812.43 3.90734 -1.66169 0
M  V30 29675 O 2813.46 3.25082 -1.45603 0
M  V30 29676 O 2812.31 5.08502 -2.0022 0
M  V30 29677 H 2809.41 0.781812 -0.269628 0
M  V30 29678 H 2811.95 1.19912 -1.2008 0
M  V30 29679 H 2810.73 2.99005 -2.52412 0
M  V30 29680 H 2810.35 3.83918 -1.03407 0
M  V30 29681 N 2811.35 0.886177 1.30325 0
M  V30 29682 C 2812.57 0.51946 2.00789 0
M  V30 29683 C 2813 -0.884984 1.65981 0
M  V30 29684 O 2812.35 -1.58673 0.877071 0
M  V30 29685 C 2812.4 0.70282 3.53685 0
M  V30 29686 O 2811.51 -0.250756 4.11637 0
M  V30 29687 H 2810.85 0.204555 0.631707 0
M  V30 29688 H 2813.38 1.19405 1.66143 0
M  V30 29689 H 2813.39 0.602278 4.0353 0
M  V30 29690 H 2812.06 1.7268 3.78357 0
M  V30 29691 H 2810.64 -0.103807 3.72755 0
M  V30 29692 N 2812.82 -1.43695 0.647253 0
M  V30 29693 C 2814.07 -2.0218 0.158458 0
M  V30 29694 C 2814.4 -1.50909 -1.2223 0
M  V30 29695 O 2813.68 -0.699734 -1.81477 0
M  V30 29696 C 2813.96 -3.59732 0.162763 0
M  V30 29697 C 2813.81 -4.21249 1.57701 0
M  V30 29698 C 2815.13 -4.37204 -0.504061 0
M  V30 29699 H 2812.25 -0.73463 0.059055 0
M  V30 29700 H 2814.89 -1.71067 0.826802 0
M  V30 29701 H 2813.04 -3.86369 -0.406346 0
M  V30 29702 H 2814.72 -4.05663 2.19625 0
M  V30 29703 H 2812.96 -3.78127 2.12609 0
M  V30 29704 H 2813.63 -5.30317 1.53193 0
M  V30 29705 H 2816.11 -4.16095 -0.019911 0
M  V30 29706 H 2814.98 -5.46882 -0.470297 0
M  V30 29707 H 2815.24 -4.1301 -1.57719 0
M  V30 29708 N 2814.3 -0.388796 -1.52729 0
M  V30 29709 C 2815.25 0.461487 -2.27976 0
M  V30 29710 C 2816.24 1.0635 -1.31856 0
M  V30 29711 O 2817.45 1.00403 -1.49396 0
M  V30 29712 H 2813.83 0.167577 -0.733091 0
M  V30 29713 H 2815.8 -0.194631 -2.97765 0
M  V30 29714 C 2814.55 1.57694 -3.09883 0
M  V30 29715 H 2813.87 1.12303 -3.83703 0
M  V30 29716 H 2815.31 2.14613 -3.65674 0
M  V30 29717 C 2813.77 2.53268 -2.22164 0
M  V30 29718 O 2814.3 3.56664 -1.84808 0
M  V30 29719 N 2812.5 2.22998 -1.86334 0
M  V30 29720 H 2812.05 1.3895 -2.16911 0
M  V30 29721 H 2812.01 2.87195 -1.27932 0
M  V30 29722 N 2815.78 1.57153 -0.118604 0
M  V30 29723 C 2816.71 2.11006 0.869009 0
M  V30 29724 C 2817.69 1.02636 1.26113 0
M  V30 29725 O 2818.88 1.30288 1.36225 0
M  V30 29726 C 2816 2.60644 2.16292 0
M  V30 29727 C 2815.05 3.80894 1.9189 0
M  V30 29728 S 2815.88 5.23322 1.13553 0
M  V30 29729 C 2817.04 5.76328 2.44125 0
M  V30 29730 H 2817.27 2.94446 0.410953 0
M  V30 29731 H 2814.8 1.54106 0.095162 0
M  V30 29732 H 2816.76 2.89897 2.90637 0
M  V30 29733 H 2815.42 1.77386 2.59216 0
M  V30 29734 H 2814.62 4.13773 2.87763 0
M  V30 29735 H 2814.22 3.52256 1.25666 0
M  V30 29736 H 2816.51 5.86028 3.39966 0
M  V30 29737 H 2817.45 6.74418 2.15791 0
M  V30 29738 H 2817.86 5.04392 2.53474 0
M  V30 29739 N 2817.26 -0.155167 1.56834 0
M  V30 29740 C 2818.67 -0.507523 1.51315 0
M  V30 29741 C 2818.87 -1.83808 0.825647 0
M  V30 29742 O 2817.93 -2.49427 0.392754 0
M  V30 29743 C 2819.24 -0.525368 2.96075 0
M  V30 29744 C 2820.79 -0.611451 3.0697 0
M  V30 29745 C 2821.27 -0.660036 4.53219 0
M  V30 29746 N 2822.76 -0.722484 4.57531 0
M  V30 29747 C 2823.49 -0.780923 5.68057 0
M  V30 29748 N 2822.99 -0.799206 6.88175 0
M  V30 29749 N 2824.78 -0.82118 5.56069 0
M  V30 29750 H 2816.93 0.717098 1.99929 0
M  V30 29751 H 2819.2 0.260512 0.911503 0
M  V30 29752 H 2818.9 0.383936 3.49598 0
M  V30 29753 H 2818.78 -1.36618 3.5159 0
M  V30 29754 H 2821.16 -1.51118 2.53471 0
M  V30 29755 H 2821.24 0.256351 2.54512 0
M  V30 29756 H 2820.89 0.235499 5.07354 0
M  V30 29757 H 2820.82 -1.54421 5.0345 0
M  V30 29758 H 2823.31 -0.715984 3.71055 0
M  V30 29759 H 2823.62 -0.845418 7.68162 0
M  V30 29760 H 2821.97 -0.767216 6.90752 0
M  V30 29761 H 2825.16 -0.80401 4.61143 0
M  V30 29762 H 2825.33 -0.863259 6.42224 0
M  V30 29763 N 2818.74 -1.51782 -0.424256 0
M  V30 29764 C 2819.67 -1.6874 -1.5363 0
M  V30 29765 C 2820.65 -0.534942 -1.53548 0
M  V30 29766 O 2821.83 -0.760421 -1.72481 0
M  V30 29767 C 2818.96 -1.71293 -2.92192 0
M  V30 29768 C 2818 -2.92659 -3.10246 0
M  V30 29769 S 2818.84 -4.53261 -2.85158 0
M  V30 29770 C 2819.99 -4.58578 -4.25978 0
M  V30 29771 H 2820.23 -2.62797 -1.39014 0
M  V30 29772 H 2817.76 -1.41631 -0.614829 0
M  V30 29773 H 2819.72 -1.73449 -3.72056 0
M  V30 29774 H 2818.38 -0.7839 -3.04161 0
M  V30 29775 H 2817.57 -2.90884 -4.11585 0
M  V30 29776 H 2817.17 -2.88313 -2.38226 0
M  V30 29777 H 2819.47 -4.35024 -5.19385 0
M  V30 29778 H 2820.41 -5.60451 -4.32782 0
M  V30 29779 H 2820.82 -3.87764 -4.10243 0
M  V30 29780 N 2820.21 0.68054 -1.42149 0
M  V30 29781 C 2821.16 1.79421 -1.45178 0
M  V30 29782 C 2822.13 1.63287 -0.304381 0
M  V30 29783 O 2823.32 1.83923 -0.507623 0
M  V30 29784 C 2820.46 3.17414 -1.35434 0
M  V30 29785 C 2819.57 3.44875 -2.60164 0
M  V30 29786 C 2818.7 4.72564 -2.42604 0
M  V30 29787 C 2817.74 4.93041 -3.62735 0
M  V30 29788 N 2816.88 6.11966 -3.44153 0
M  V30 29789 H 2821.72 1.76167 -2.40352 0
M  V30 29790 H 2819.26 0.860086 -1.19335 0
M  V30 29791 H 2821.22 3.97149 -1.27784 0
M  V30 29792 H 2819.85 3.19807 -0.438592 0
M  V30 29793 H 2818.9 2.59435 -2.78204 0
M  V30 29794 H 2820.21 3.55902 -3.49479 0
M  V30 29795 H 2819.36 5.6038 -2.32507 0
M  V30 29796 H 2818.1 4.6381 -1.5077 0
M  V30 29797 H 2817.11 4.03669 -3.73271 0
M  V30 29798 H 2818.33 5.03644 -4.55543 0
M  V30 29799 H 2816.28 6.04397 -2.55031 0
M  V30 29800 H 2816.2 6.23829 -4.27052 0
M  V30 29801 H 2817.46 7.02476 -3.37857 0
M  V30 29802 N 2821.69 1.28226 0.916285 0
M  V30 29803 C 2822.62 1.14468 2.03518 0
M  V30 29804 C 2823.6 0.0431143 1.70045 0
M  V30 29805 O 2824.79 0.219653 1.92954 0
M  V30 29806 C 2821.92 0.803087 3.37887 0
M  V30 29807 C 2820.87 1.85914 3.85512 0
M  V30 29808 C 2820.2 1.37125 5.16818 0
M  V30 29809 C 2821.5 3.26526 4.07649 0
M  V30 29810 H 2823.19 2.08068 2.15286 0
M  V30 29811 H 2820.74 1.00176 1.03444 0
M  V30 29812 H 2822.69 0.693611 4.15653 0
M  V30 29813 H 2821.42 -0.168617 3.26164 0
M  V30 29814 H 2820.07 1.95772 3.0995 0
M  V30 29815 H 2819.72 0.388678 5.01496 0
M  V30 29816 H 2819.42 2.07738 5.49653 0
M  V30 29817 H 2820.95 1.27494 5.97141 0
M  V30 29818 H 2822.36 3.19604 4.75948 0
M  V30 29819 H 2820.76 3.94951 4.51811 0
M  V30 29820 H 2821.83 3.70732 3.12547 0
M  V30 29821 N 2823.17 -1.12438 1.10433 0
M  V30 29822 C 2824.42 -1.83583 0.845077 0
M  V30 29823 C 2824.74 -1.84504 -0.631136 0
M  V30 29824 O 2824.01 -1.30815 -1.45823 0
M  V30 29825 H 2822.59 -0.679803 0.30964 0
M  V30 29826 H 2825.25 -1.3615 1.3946 0
M  V30 29827 H 2824.35 -2.87778 1.20791 0
M  V30 29828 N 2824.65 -0.893076 -1.29853 0
M  V30 29829 C 2825.6 -0.355553 -2.29866 0
M  V30 29830 C 2826.59 0.541773 -1.60503 0
M  V30 29831 O 2827.8 0.425308 -1.74903 0
M  V30 29832 H 2824.17 -0.0963378 -0.745804 0
M  V30 29833 H 2826.14 -1.21256 -2.72653 0
M  V30 29834 C 2824.89 0.40774 -3.45301 0
M  V30 29835 H 2824.22 -0.273496 -3.98863 0
M  V30 29836 H 2825.66 0.748814 -4.17335 0
M  V30 29837 C 2824.11 1.6079 -2.96054 0
M  V30 29838 O 2824.64 2.70724 -2.96768 0
M  V30 29839 N 2822.85 1.44781 -2.51966 0
M  V30 29840 H 2822.4 0.553454 -2.51584 0
M  V30 29841 H 2822.36 2.25216 -2.19374 0
M  V30 29842 N 2826.13 1.4335 -0.654865 0
M  V30 29843 C 2827.06 2.3349 0.0221399 0
M  V30 29844 C 2828.04 1.49563 0.810246 0
M  V30 29845 O 2829.22 1.78222 0.771395 0
M  V30 29846 C 2826.35 3.32948 0.988059 0
M  V30 29847 C 2825.31 4.26876 0.309951 0
M  V30 29848 C 2824.63 5.16386 1.38743 0
M  V30 29849 C 2825.93 5.16157 -0.798679 0
M  V30 29850 H 2827.63 2.90349 -0.730622 0
M  V30 29851 H 2825.17 1.39611 -0.352798 0
M  V30 29852 H 2827.13 3.94907 1.4706 0
M  V30 29853 H 2825.85 2.7435 1.772 0
M  V30 29854 H 2824.51 3.66284 -0.152162 0
M  V30 29855 H 2824.16 4.54125 2.16285 0
M  V30 29856 H 2823.86 5.8005 0.938949 0
M  V30 29857 H 2825.38 5.81218 1.8713 0
M  V30 29858 H 2826.8 5.71915 -0.398226 0
M  V30 29859 H 2825.19 5.8855 -1.17173 0
M  V30 29860 H 2826.26 4.55748 -1.65596 0
M  V30 29861 N 2827.61 0.39689 1.52521 0
M  V30 29862 C 2828.84 -0.182449 2.05793 0
M  V30 29863 C 2829.24 -1.40434 1.26787 0
M  V30 29864 O 2828.59 -1.81071 0.309649 0
M  V30 29865 C 2828.65 -0.609718 3.54292 0
M  V30 29866 C 2828.31 0.499754 4.54259 0
M  V30 29867 C 2829.31 1.35953 5.01809 0
M  V30 29868 C 2826.99 0.668951 4.97826 0
M  V30 29869 C 2828.99 2.37356 5.91558 0
M  V30 29870 C 2826.68 1.68631 5.87373 0
M  V30 29871 C 2827.67 2.53703 6.34132 0
M  V30 29872 O 2827.36 3.53699 7.21909 0
M  V30 29873 H 2827.09 -0.0293465 0.675363 0
M  V30 29874 H 2829.65 0.562845 1.97538 0
M  V30 29875 H 2827.88 -1.40711 3.60191 0
M  V30 29876 H 2829.57 -1.11558 3.90269 0
M  V30 29877 H 2830.33 1.24016 4.68876 0
M  V30 29878 H 2826.21 0.0164781 4.60997 0
M  V30 29879 H 2829.76 3.03793 6.27977 0
M  V30 29880 H 2825.65 1.80604 6.1972 0
M  V30 29881 H 2826.42 3.49797 7.39989 0
M  V30 29882 N 2829.08 -1.57088 0.126936 0
M  V30 29883 C 2830.03 -2.1573 -0.820322 0
M  V30 29884 C 2831 -1.08449 -1.25809 0
M  V30 29885 O 2832.19 -1.36396 -1.3342 0
M  V30 29886 C 2829.33 -2.76727 -2.06194 0
M  V30 29887 C 2828.44 -3.9834 -1.67181 0
M  V30 29888 C 2827.57 -4.47399 -2.8637 0
M  V30 29889 C 2826.61 -5.61523 -2.43635 0
M  V30 29890 N 2825.75 -6.0529 -3.55764 0
M  V30 29891 H 2830.59 -2.96347 -0.31342 0
M  V30 29892 H 2828.13 -1.46403 -0.143004 0
M  V30 29893 H 2830.08 -3.10227 -2.78954 0
M  V30 29894 H 2828.71 -1.98787 -2.5433 0
M  V30 29895 H 2827.77 -3.7095 -0.842648 0
M  V30 29896 H 2829.08 -4.81077 -1.3178 0
M  V30 29897 H 2828.23 -4.82848 -3.67345 0
M  V30 29898 H 2826.97 -3.63627 -3.25003 0
M  V30 29899 H 2825.98 -5.2567 -1.61095 0
M  V30 29900 H 2827.2 -6.47067 -2.0611 0
M  V30 29901 H 2825.15 -5.24458 -3.94055 0
M  V30 29902 H 2825.06 -6.82903 -3.24313 0
M  V30 29903 H 2826.33 -6.4538 -4.37155 0
M  V30 29904 N 2830.56 0.146848 -1.56914 0
M  V30 29905 C 2831.52 1.16523 -1.9737 0
M  V30 29906 C 2832.52 1.35854 -0.860247 0
M  V30 29907 O 2833.71 1.32844 -1.12686 0
M  V30 29908 C 2830.85 2.52551 -2.28978 0
M  V30 29909 H 2832.04 0.818158 -2.88524 0
M  V30 29910 H 2829.59 0.390194 -1.51351 0
M  V30 29911 H 2830.33 2.92229 -1.40616 0
M  V30 29912 H 2830.11 2.3988 -3.10161 0
M  V30 29913 H 2831.6 3.25897 -2.61115 0
M  V30 29914 N 2832.04 1.52005 0.4162 0
M  V30 29915 C 2833.29 1.65717 1.1638 0
M  V30 29916 C 2833.61 0.383628 1.90679 0
M  V30 29917 O 2832.87 -0.633153 1.85175 0
M  V30 29918 C 2833.17 2.82506 2.18918 0
M  V30 29919 C 2832.83 4.20994 1.61478 0
M  V30 29920 C 2831.5 4.58664 1.45536 0
M  V30 29921 C 2833.85 5.07325 1.19459 0
M  V30 29922 C 2831.18 5.8035 0.860835 0
M  V30 29923 C 2833.53 6.29611 0.614276 0
M  V30 29924 C 2832.19 6.66035 0.441939 0
M  V30 29925 H 2831.46 0.6064 0.425864 0
M  V30 29926 H 2834.11 1.8609 0.451957 0
M  V30 29927 H 2832.41 2.56439 2.9622 0
M  V30 29928 H 2834.11 2.90312 2.76623 0
M  V30 29929 H 2830.7 3.91305 1.74867 0
M  V30 29930 H 2834.89 4.78812 1.30587 0
M  V30 29931 H 2830.14 6.07202 0.715265 0
M  V30 29932 H 2834.32 6.95836 0.280271 0
M  V30 29933 H 2831.94 7.60197 -0.0208554 0
M  V30 29934 N 2833.52 -0.672992 1.42508 0
M  V30 29935 C 2834.47 -1.77916 1.42583 0
M  V30 29936 C 2835.45 -1.58137 0.296913 0
M  V30 29937 O 2836.64 -1.68585 0.539273 0
M  V30 29938 C 2833.77 -3.16388 1.33243 0
M  V30 29939 C 2832.86 -3.41784 2.51087 0
M  V30 29940 N 2833.25 -3.37755 3.76504 0
M  V30 29941 C 2831.55 -3.72427 2.45386 0
M  V30 29942 C 2832.25 -3.62685 4.54791 0
M  V30 29943 N 2831.22 -3.83537 3.85227 0
M  V30 29944 H 2835.03 -1.73197 2.37445 0
M  V30 29945 H 2832.54 -0.8739 1.36882 0
M  V30 29946 H 2834.54 -3.95658 1.31379 0
M  V30 29947 H 2833.2 -3.22303 0.39385 0
M  V30 29948 H 2834.21 -3.17615 4.09073 0
M  V30 29949 H 2830.89 -3.85576 1.60116 0
M  V30 29950 H 2832.28 -3.65516 5.6378 0
M  V30 29951 N 2835 -1.2871 -0.909472 0
M  V30 29952 C 2835.93 -1.08807 -2.01727 0
M  V30 29953 C 2836.94 -0.0385025 -1.62754 0
M  V30 29954 O 2838.13 -0.282008 -1.76258 0
M  V30 29955 C 2835.23 -0.632228 -3.32951 0
M  V30 29956 C 2834.4 -1.75816 -4.00509 0
M  V30 29957 C 2833.46 -1.29497 -5.10017 0
M  V30 29958 O 2832.49 -1.99796 -5.32982 0
M  V30 29959 N 2833.69 -0.160502 -5.80278 0
M  V30 29960 H 2836.45 -2.04211 -2.19358 0
M  V30 29961 H 2834.02 -1.2052 -1.08104 0
M  V30 29962 H 2836.01 -0.305873 -4.03542 0
M  V30 29963 H 2834.58 0.229079 -3.1176 0
M  V30 29964 H 2833.8 -2.25389 -3.23409 0
M  V30 29965 H 2835.09 -2.51333 -4.4239 0
M  V30 29966 H 2834.48 0.425838 -5.64095 0
M  V30 29967 H 2833.04 0.106549 -6.51713 0
M  V30 29968 N 2836.47 1.1185 -1.11028 0
M  V30 29969 C 2837.42 2.19844 -0.759682 0
M  V30 29970 C 2838.42 1.67591 0.246934 0
M  V30 29971 O 2839.62 1.79684 0.106662 0
M  V30 29972 H 2836 0.716679 -0.227763 0
M  V30 29973 H 2837.97 2.46666 -1.67925 0
M  V30 29974 C 2836.72 3.47038 -0.214425 0
M  V30 29975 H 2836.04 3.87597 -0.980243 0
M  V30 29976 H 2837.48 4.23999 -0.007245 0
M  V30 29977 C 2835.94 3.19978 1.05431 0
M  V30 29978 O 2836.47 3.4028 2.13477 0
M  V30 29979 N 2834.67 2.73742 0.975388 0
M  V30 29980 H 2834.22 2.57421 0.0960401 0
M  V30 29981 H 2834.18 2.56013 1.82496 0
M  V30 29982 N 2837.95 0.89995 1.29378 0
M  V30 29983 C 2839.36 0.574459 1.77643 0
M  V30 29984 C 2839.71 -0.909898 1.73825 0
M  V30 29985 O 2838.84 -1.71145 1.32432 0
M  V30 29986 C 2839.43 1.03601 3.22571 0
M  V30 29987 C 2837.99 0.761675 3.68613 0
M  V30 29988 C 2837.14 1.21056 2.49481 0
M  V30 29989 H 2840.09 1.08265 1.16036 0
M  V30 29990 H 2840.11 0.371404 3.78683 0
M  V30 29991 H 2839.62 2.11637 3.25317 0
M  V30 29992 H 2837.72 -0.306062 3.71341 0
M  V30 29993 H 2837.84 1.35973 4.594 0
M  V30 29994 H 2836.2 0.629558 2.46797 0
M  V30 29995 H 2836.98 2.29898 2.54955 0
M  V30 29996 N 2839.43 -1.43001 0.662458 0
M  V30 29997 C 2840.68 -2.01303 0.179272 0
M  V30 29998 C 2841 -1.52581 -1.21425 0
M  V30 29999 O 2840.27 -0.742284 -1.81292 0
M  V30 30000 H 2838.85 -0.744314 0.0632856 0
M  V30 30001 H 2841.51 -1.75086 0.856199 0
M  V30 30002 H 2840.61 -3.11631 0.171012 0
M  V30 30003 N 2840.91 -0.404973 -1.52308 0
M  V30 30004 C 2842.15 0.17242 -2.02066 0
M  V30 30005 C 2842.49 1.45143 -1.29024 0
M  V30 30006 O 2841.76 1.9044 -0.395317 0
M  V30 30007 C 2842.05 0.42437 -3.57591 0
M  V30 30008 C 2841.9 -0.871022 -4.41286 0
M  V30 30009 C 2843.22 1.2083 -4.23188 0
M  V30 30010 H 2840.34 0.0611906 -0.734455 0
M  V30 30011 H 2842.98 -0.537622 -1.82235 0
M  V30 30012 H 2841.13 1.02922 -3.74619 0
M  V30 30013 H 2842.8 -1.50736 -4.35977 0
M  V30 30014 H 2841.04 -1.48292 -4.07667 0
M  V30 30015 H 2841.71 -0.649179 -5.48169 0
M  V30 30016 H 2844.19 0.696266 -4.10233 0
M  V30 30017 H 2843.07 1.35333 -5.31955 0
M  V30 30018 H 2843.33 2.2278 -3.81866 0
M  V30 30019 N 2842.39 1.57018 -0.135265 0
M  V30 30020 C 2843.32 2.19178 0.805196 0
M  V30 30021 C 2844.3 1.13654 1.26558 0
M  V30 30022 O 2845.48 1.41953 1.32526 0
M  V30 30023 C 2842.61 2.8041 2.04909 0
M  V30 30024 C 2841.57 3.91658 1.72591 0
M  V30 30025 C 2840.89 4.39772 3.04146 0
M  V30 30026 C 2842.19 5.12993 0.981619 0
M  V30 30027 H 2843.89 2.9802 0.287179 0
M  V30 30028 H 2841.43 1.4335 0.136689 0
M  V30 30029 H 2843.39 3.22558 2.71172 0
M  V30 30030 H 2842.11 1.98882 2.59063 0
M  V30 30031 H 2840.77 3.50111 1.08711 0
M  V30 30032 H 2840.42 3.55081 3.56267 0
M  V30 30033 H 2840.12 5.14801 2.8329 0
M  V30 30034 H 2841.64 4.84582 3.715 0
M  V30 30035 H 2843.05 5.52058 1.5461 0
M  V30 30036 H 2841.45 5.9371 0.873428 0
M  V30 30037 H 2842.52 4.84891 -0.028774 0
M  V30 30038 N 2843.86 -0.138524 1.5699 0
M  V30 30039 C 2845.09 -0.864404 1.87978 0
M  V30 30040 C 2845.51 -1.7435 0.724403 0
M  V30 30041 O 2844.86 -1.79924 -0.305544 0
M  V30 30042 C 2844.92 -1.71409 3.18279 0
M  V30 30043 O 2844.64 -0.870412 4.29366 0
M  V30 30044 C 2846.14 -2.54682 3.62839 0
M  V30 30045 H 2843.36 -0.249517 0.622882 0
M  V30 30046 H 2845.9 -0.128769 2.04094 0
M  V30 30047 H 2844.06 -2.40269 3.03891 0
M  V30 30048 H 2844.47 -1.45457 5.03927 0
M  V30 30049 H 2845.94 -3.09862 4.56825 0
M  V30 30050 H 2846.42 -3.31122 2.88539 0
M  V30 30051 H 2847.03 -1.91098 3.7995 0
M  V30 30052 N 2845.34 -1.52224 -0.408133 0
M  V30 30053 C 2846.59 -1.66003 -1.15271 0
M  V30 30054 C 2846.91 -0.392837 -1.91002 0
M  V30 30055 O 2846.18 0.592303 -1.86731 0
M  V30 30056 H 2844.76 -0.611869 -0.428515 0
M  V30 30057 H 2847.42 -1.8927 -0.465087 0
M  V30 30058 H 2846.52 -2.50156 -1.86623 0
M  V30 30059 N 2846.82 0.665425 -1.42863 0
M  V30 30060 C 2848.05 1.45845 -1.47458 0
M  V30 30061 C 2848.47 1.87884 -0.0900642 0
M  V30 30062 O 2847.83 1.56601 0.913559 0
M  V30 30063 C 2847.88 2.6777 -2.41519 0
M  V30 30064 O 2846.98 3.66385 -1.89303 0
M  V30 30065 H 2846.32 0.43778 -0.499244 0
M  V30 30066 H 2848.85 0.815361 -1.87651 0
M  V30 30067 H 2848.86 3.15731 -2.58415 0
M  V30 30068 H 2847.54 2.36513 -3.42103 0
M  V30 30069 H 2846.11 3.25465 -1.82009 0
M  V30 30070 N 2848.3 1.29191 0.902633 0
M  V30 30071 C 2849.26 1.14075 1.98795 0
M  V30 30072 C 2850.26 0.0770832 1.60615 0
M  V30 30073 O 2851.45 0.323783 1.71165 0
M  V30 30074 C 2848.58 0.743797 3.32687 0
M  V30 30075 H 2849.78 2.10477 2.13634 0
M  V30 30076 H 2847.33 1.12336 1.08676 0
M  V30 30077 H 2848.06 -0.220498 3.2355 0
M  V30 30078 H 2847.85 1.51229 3.61763 0
M  V30 30079 H 2849.34 0.661007 4.12335 0
M  V30 30080 N 2849.78 -1.1126 1.1162 0
M  V30 30081 C 2851.02 -1.83309 0.867495 0
M  V30 30082 C 2851.36 -1.84525 -0.605333 0
M  V30 30083 O 2850.63 -1.29968 -1.44702 0
M  V30 30084 C 2850.91 -3.30397 1.43213 0
M  V30 30085 C 2850.77 -3.37565 2.97271 0
M  V30 30086 C 2852.09 -4.26526 1.08461 0
M  V30 30087 H 2849.2 -0.665537 0.31659 0
M  V30 30088 H 2851.85 -1.30452 1.38139 0
M  V30 30089 H 2850 -3.75541 0.995048 0
M  V30 30090 H 2851.67 -3.00965 3.49596 0
M  V30 30091 H 2849.91 -2.77727 3.33242 0
M  V30 30092 H 2850.58 -4.41099 3.31867 0
M  V30 30093 H 2853.06 -3.89571 1.46196 0
M  V30 30094 H 2851.93 -5.27824 1.50643 0
M  V30 30095 H 2852.2 -4.421 -0.00436797 0
M  V30 30096 N 2851.25 -0.906798 -1.28899 0
M  V30 30097 C 2852.5 -0.535301 -1.94882 0
M  V30 30098 C 2852.82 0.922761 -1.71785 0
M  V30 30099 O 2852.09 1.65154 -1.05361 0
M  V30 30100 H 2850.67 -0.194974 -0.721106 0
M  V30 30101 H 2853.34 -1.15464 -1.57016 0
M  V30 30102 H 2852.43 -0.723875 -3.03589 0
M  V30 30103 N 2852.73 1.42648 -0.670032 0
M  V30 30104 C 2853.97 2.03476 -0.194142 0
M  V30 30105 C 2854.34 1.51811 1.17548 0
M  V30 30106 O 2855.54 2.04394 1.74575 0
M  V30 30107 C 2853.81 3.56711 -0.221891 0
M  V30 30108 S 2855.37 4.38415 0.183695 0
M  V30 30109 H 2852.19 0.706455 -0.0802602 0
M  V30 30110 H 2854.79 1.74467 -0.882122 0
M  V30 30111 H 2853.49 3.91812 -1.22114 0
M  V30 30112 H 2853.02 3.90385 0.48608 0
M  V30 30113 H 2855.04 4.75498 1.4183 0
M  V30 30114 N 2854.21 0.413044 1.52091 0
M  V30 30115 C 2855.49 -0.220206 1.94357 0
M  V30 30116 C 2855.87 -1.62274 1.35019 0
M  V30 30117 O 2855.22 -2.22327 0.52755 0
M  V30 30118 C 2855.43 -0.222577 3.4829 0
M  V30 30119 C 2856.77 -0.440024 4.22314 0
M  V30 30120 O 2857.8 -0.301763 3.54919 0
M  V30 30121 O 2856.66 -0.712889 5.4183 0
M  V30 30122 H 2853.75 -0.143026 0.814538 0
M  V30 30123 H 2856.3 0.469271 1.63083 0
M  V30 30124 H 2855.07 0.758903 3.8387 0
M  V30 30125 H 2854.69 -0.955989 3.85936 0
M  V30 30126 N 2855.69 -1.56945 0.143591 0
M  V30 30127 C 2857.1 -1.82838 -0.377798 0
M  V30 30128 C 2857.45 -1.06212 -1.64965 0
M  V30 30129 O 2856.58 -0.306328 -2.14221 0
M  V30 30130 C 2857.17 -3.31653 -0.692215 0
M  V30 30131 C 2855.73 -3.5814 -1.15814 0
M  V30 30132 C 2854.88 -2.76719 -0.179461 0
M  V30 30133 H 2857.83 -1.54366 0.368345 0
M  V30 30134 H 2857.85 -3.47622 -1.54723 0
M  V30 30135 H 2857.36 -3.87396 0.23364 0
M  V30 30136 H 2855.46 -3.0778 -2.10005 0
M  V30 30137 H 2855.58 -4.66618 -1.08647 0
M  V30 30138 H 2853.94 -2.45691 -0.671415 0
M  V30 30139 H 2854.72 -3.35231 0.739924 0
M  V30 30140 N 2857.17 0.130197 -1.57061 0
M  V30 30141 C 2858.44 0.8696 -1.75206 0
M  V30 30142 C 2858.82 1.98583 -0.716098 0
M  V30 30143 O 2858.17 2.26993 0.261992 0
M  V30 30144 C 2858.38 1.39661 -3.19837 0
M  V30 30145 C 2859.73 1.85338 -3.82014 0
M  V30 30146 O 2860.75 1.49365 -3.23371 0
M  V30 30147 O 2859.61 2.51735 -4.85069 0
M  V30 30148 H 2856.71 0.412144 -0.716984 0
M  V30 30149 H 2859.25 0.11481 -1.69311 0
M  V30 30150 H 2858.03 0.59522 -3.86746 0
M  V30 30151 H 2857.65 2.21442 -3.30226 0
M  V30 30152 N 2858.65 1.52438 0.400055 0
M  V30 30153 C 2859.89 1.67189 1.14786 0
M  V30 30154 C 2860.22 0.405107 1.89928 0
M  V30 30155 O 2859.5 -0.596772 1.85119 0
M  V30 30156 C 2859.78 2.89981 2.13502 0
M  V30 30157 C 2859.64 4.26732 1.42196 0
M  V30 30158 C 2860.95 3.08305 3.14063 0
M  V30 30159 H 2858.07 0.608418 0.415929 0
M  V30 30160 H 2860.72 1.85012 0.43251 0
M  V30 30161 H 2858.87 2.74916 2.74505 0
M  V30 30162 H 2860.54 4.53543 0.842424 0
M  V30 30163 H 2858.78 4.27718 0.723864 0
M  V30 30164 H 2859.45 5.08715 2.14272 0
M  V30 30165 H 2861.93 3.22328 2.63142 0
M  V30 30166 H 2860.8 3.9572 3.80391 0
M  V30 30167 H 2861.06 2.22025 3.82305 0
M  V30 30168 N 2860.12 -0.657839 1.43214 0
M  V30 30169 C 2861.37 -1.41778 1.44586 0
M  V30 30170 C 2861.7 -1.94379 0.0684549 0
M  V30 30171 O 2860.95 -1.72414 -0.925842 0
M  V30 30172 C 2861.25 -2.61943 2.43147 0
M  V30 30173 C 2860.92 -2.27787 3.89132 0
M  V30 30174 C 2859.58 -2.18184 4.28893 0
M  V30 30175 C 2861.93 -2.00367 4.81147 0
M  V30 30176 C 2859.26 -1.7931 5.58628 0
M  V30 30177 C 2861.61 -1.62992 6.11242 0
M  V30 30178 C 2860.28 -1.51911 6.49984 0
M  V30 30179 H 2859.55 -0.518804 0.529078 0
M  V30 30180 H 2862.19 -0.748546 1.76264 0
M  V30 30181 H 2860.5 -3.33978 2.04857 0
M  V30 30182 H 2862.2 -3.20149 2.41466 0
M  V30 30183 H 2858.79 -2.3617 3.57661 0
M  V30 30184 H 2862.97 -2.0671 4.51204 0
M  V30 30185 H 2858.23 -1.69313 5.87489 0
M  V30 30186 H 2862.4 -1.40805 6.82017 0
M  V30 30187 H 2860.03 -1.21559 7.50418 0
M  V30 30188 N 2861.6 -1.29668 -0.895769 0
M  V30 30189 C 2862.85 -1.19051 -1.64919 0
M  V30 30190 C 2863.2 0.254644 -1.90707 0
M  V30 30191 O 2862.5 1.18039 -1.50922 0
M  V30 30192 C 2862.69 -1.94144 -3.00071 0
M  V30 30193 C 2862.52 -3.45815 -2.87476 0
M  V30 30194 C 2861.29 -4.15168 -2.88034 0
M  V30 30195 C 2863.49 -4.41242 -2.64216 0
M  V30 30196 N 2861.47 -5.53174 -2.66217 0
M  V30 30197 C 2862.84 -5.66736 -2.51417 0
M  V30 30198 C 2864.89 -4.3096 -2.49355 0
M  V30 30199 C 2863.6 -6.83115 -2.25269 0
M  V30 30200 C 2865.62 -5.47095 -2.2459 0
M  V30 30201 C 2864.99 -6.71564 -2.12559 0
M  V30 30202 H 2861.08 -0.490657 -0.608917 0
M  V30 30203 H 2863.67 -1.63545 -1.05646 0
M  V30 30204 H 2861.84 -1.52058 -3.57398 0
M  V30 30205 H 2863.57 -1.7576 -3.64541 0
M  V30 30206 H 2860.33 -3.66903 -2.99464 0
M  V30 30207 H 2860.75 -6.25767 -2.5835 0
M  V30 30208 H 2865.39 -3.3542 -2.57397 0
M  V30 30209 H 2863.11 -7.78707 -2.15964 0
M  V30 30210 H 2866.7 -5.41041 -2.13929 0
M  V30 30211 H 2865.58 -7.59911 -1.93663 0
M  V30 30212 N 2863.08 1.10667 -1.12208 0
M  V30 30213 C 2864.3 1.86904 -0.898971 0
M  V30 30214 C 2864.73 1.79992 0.546314 0
M  V30 30215 O 2864.09 1.16812 1.38653 0
M  V30 30216 C 2864.14 3.33342 -1.37534 0
M  V30 30217 O 2863.24 4.08686 -0.552252 0
M  V30 30218 H 2862.58 0.580048 -0.323173 0
M  V30 30219 H 2865.11 1.39834 -1.49357 0
M  V30 30220 H 2865.12 3.84191 -1.37337 0
M  V30 30221 H 2863.8 3.37689 -2.42773 0
M  V30 30222 H 2862.37 3.67693 -0.621012 0
M  V30 30223 N 2864.56 0.913621 1.28416 0
M  V30 30224 C 2865.8 0.547518 1.95269 0
M  V30 30225 C 2866.14 -0.906456 1.71747 0
M  V30 30226 O 2865.41 -1.64463 1.03837 0
M  V30 30227 C 2865.69 0.857267 3.49747 0
M  V30 30228 C 2865.55 2.36396 3.82671 0
M  V30 30229 C 2866.87 0.353335 4.38679 0
M  V30 30230 H 2863.99 0.200394 0.709233 0
M  V30 30231 H 2866.63 1.14284 1.51786 0
M  V30 30232 H 2864.78 0.350616 3.86915 0
M  V30 30233 H 2866.45 2.94122 3.55373 0
M  V30 30234 H 2864.69 2.819 3.29719 0
M  V30 30235 H 2865.36 2.53124 4.90543 0
M  V30 30236 H 2867.84 0.78736 4.08583 0
M  V30 30237 H 2866.72 0.599144 5.4562 0
M  V30 30238 H 2866.98 -0.746336 4.35755 0
M  V30 30239 N 2866.04 -1.4229 0.677588 0
M  V30 30240 C 2867.28 -2.00724 0.198209 0
M  V30 30241 C 2867.6 -1.54214 -1.20323 0
M  V30 30242 O 2868.8 -2.05084 -1.77912 0
M  V30 30243 C 2867.26 -3.58618 0.303495 0
M  V30 30244 C 2866.87 -4.14116 1.70916 0
M  V30 30245 C 2868.61 -4.24339 -0.117029 0
M  V30 30246 C 2866.52 -5.64384 1.76706 0
M  V30 30247 H 2865.45 -0.750712 0.0703422 0
M  V30 30248 H 2868.1 -1.62981 0.843176 0
M  V30 30249 H 2866.48 -3.93878 -0.409413 0
M  V30 30250 H 2867.66 -3.9031 2.44938 0
M  V30 30251 H 2865.97 -3.60857 2.07778 0
M  V30 30252 H 2868.57 -5.34617 -0.0939531 0
M  V30 30253 H 2868.91 -4.00021 -1.15276 0
M  V30 30254 H 2869.44 -3.94049 0.544969 0
M  V30 30255 H 2866.18 -5.93503 2.78271 0
M  V30 30256 H 2865.7 -5.90171 1.07044 0
M  V30 30257 H 2867.38 -6.28849 1.52177 0
M  V30 30258 N 2867.51 -0.421104 -1.5187 0
M  V30 30259 C 2868.92 0.0457663 -1.86644 0
M  V30 30260 C 2869.28 1.43386 -1.33921 0
M  V30 30261 O 2868.4 2.05327 -0.683352 0
M  V30 30262 C 2869 0.0898249 -3.38681 0
M  V30 30263 C 2867.55 0.501062 -3.7305 0
M  V30 30264 C 2866.7 -0.316772 -2.75485 0
M  V30 30265 H 2869.65 -0.63766 -1.45326 0
M  V30 30266 H 2869.67 0.902669 -3.69638 0
M  V30 30267 H 2869.19 -0.920579 -3.77024 0
M  V30 30268 H 2867.29 1.51767 -3.4029 0
M  V30 30269 H 2867.4 0.237133 -4.78513 0
M  V30 30270 H 2865.76 0.222618 -2.53725 0
M  V30 30271 H 2866.55 -1.32575 -3.16668 0
M  V30 30272 N 2868.99 1.56866 -0.151912 0
M  V30 30273 C 2870.23 1.98174 0.500661 0
M  V30 30274 C 2870.6 1.03502 1.61714 0
M  V30 30275 O 2871.8 1.33873 2.33091 0
M  V30 30276 C 2870.07 3.43436 0.989273 0
M  V30 30277 S 2871.63 4.06768 1.64575 0
M  V30 30278 H 2868.45 0.692364 0.161718 0
M  V30 30279 H 2871.05 1.93961 -0.244788 0
M  V30 30280 H 2869.75 4.10064 0.166 0
M  V30 30281 H 2869.28 3.51372 1.76923 0
M  V30 30282 H 2871.3 4.00223 2.93319 0
M  V30 30283 N 2870.47 -0.121866 1.57128 0
M  V30 30284 C 2871.4 -1.15089 2.03167 0
M  V30 30285 C 2872.38 -1.43355 0.915612 0
M  V30 30286 O 2873.57 -1.53845 1.18513 0
M  V30 30287 C 2870.7 -2.4778 2.43357 0
M  V30 30288 C 2869.65 -2.33982 3.5838 0
M  V30 30289 C 2868.98 -3.7161 3.84461 0
M  V30 30290 C 2870.28 -1.80274 4.90203 0
M  V30 30291 H 2871.97 -0.767972 2.89383 0
M  V30 30292 H 2869.52 -0.367973 1.39219 0
M  V30 30293 H 2871.47 -3.20015 2.74169 0
M  V30 30294 H 2870.19 -2.87955 1.54108 0
M  V30 30295 H 2868.85 -1.64196 3.27773 0
M  V30 30296 H 2868.5 -4.09266 2.92422 0
M  V30 30297 H 2868.2 -3.63232 4.61883 0
M  V30 30298 H 2869.72 -4.45354 4.17722 0
M  V30 30299 H 2871.14 -2.42324 5.19569 0
M  V30 30300 H 2869.54 -1.82725 5.71605 0
M  V30 30301 H 2870.61 -0.7601 4.78906 0
M  V30 30302 N 2871.95 -1.52648 -0.391965 0
M  V30 30303 C 2872.88 -1.71961 -1.50016 0
M  V30 30304 C 2873.86 -0.567391 -1.52379 0
M  V30 30305 O 2875.04 -0.796836 -1.7083 0
M  V30 30306 C 2872.17 -1.77453 -2.88493 0
M  V30 30307 C 2871.22 -2.99174 -3.03969 0
M  V30 30308 S 2872.05 -4.59207 -2.75479 0
M  V30 30309 C 2873.21 -4.6751 -4.16155 0
M  V30 30310 H 2873.44 -2.65687 -1.33408 0
M  V30 30311 H 2870.97 -1.42903 -0.584649 0
M  V30 30312 H 2872.93 -1.81302 -3.68293 0
M  V30 30313 H 2871.59 -0.848241 -3.0243 0
M  V30 30314 H 2870.78 -2.99549 -4.05322 0
M  V30 30315 H 2870.39 -2.93301 -2.32057 0
M  V30 30316 H 2872.68 -4.45943 -5.1004 0
M  V30 30317 H 2873.62 -5.69505 -4.20796 0
M  V30 30318 H 2874.03 -3.96379 -4.01926 0
M  V30 30319 N 2873.43 0.650235 -1.43561 0
M  V30 30320 C 2874.7 1.40762 -1.35813 0
M  V30 30321 C 2875.08 2.11099 -0.00740089 0
M  V30 30322 O 2874.43 2.05002 1.00929 0
M  V30 30323 C 2874.64 2.38985 -2.54336 0
M  V30 30324 C 2875.99 3.02895 -2.97556 0
M  V30 30325 O 2877.01 2.49313 -2.54404 0
M  V30 30326 O 2875.87 4.00052 -3.72318 0
M  V30 30327 H 2872.97 0.629045 -0.536872 0
M  V30 30328 H 2875.51 0.676892 -1.55616 0
M  V30 30329 H 2874.28 1.8598 -3.44278 0
M  V30 30330 H 2873.91 3.19504 -2.36649 0
M  V30 30331 N 2874.9 1.30141 0.88888 0
M  V30 30332 C 2876.15 1.18504 1.63711 0
M  V30 30333 C 2876.47 -0.261365 1.9324 0
M  V30 30334 O 2875.74 -1.17687 1.5661 0
M  V30 30335 H 2874.32 0.43559 0.606853 0
M  V30 30336 H 2876.99 1.63215 1.06522 0
M  V30 30337 H 2876.08 1.74304 2.58891 0
M  V30 30338 N 2876.38 -1.1007 1.12794 0
M  V30 30339 C 2877.33 -2.14672 0.768124 0
M  V30 30340 C 2878.32 -1.59179 -0.234688 0
M  V30 30341 O 2879.51 -1.76956 -0.0396119 0
M  V30 30342 C 2876.64 -3.42538 0.228532 0
M  V30 30343 C 2875.72 -4.04955 1.25986 0
M  V30 30344 N 2876.11 -4.42021 2.45868 0
M  V30 30345 C 2874.41 -4.32067 1.10609 0
M  V30 30346 C 2875.11 -4.91104 3.11755 0
M  V30 30347 N 2874.09 -4.88147 2.39194 0
M  V30 30348 H 2877.89 -2.41127 1.68033 0
M  V30 30349 H 2875.41 -1.2723 1.00927 0
M  V30 30350 H 2877.4 -4.16873 -0.0474483 0
M  V30 30351 H 2876.06 -3.17541 -0.678081 0
M  V30 30352 H 2877.07 -4.33596 2.83223 0
M  V30 30353 H 2873.75 -4.16708 0.257095 0
M  V30 30354 H 2875.14 -5.29302 4.13871 0
M  V30 30355 N 2877.86 -0.920419 -1.2793 0
M  V30 30356 C 2878.79 -0.431064 -2.29487 0
M  V30 30357 C 2879.77 0.504833 -1.62436 0
M  V30 30358 O 2880.96 0.411142 -1.89798 0
M  V30 30359 C 2878.09 0.323648 -3.45789 0
M  V30 30360 C 2877.04 -0.523732 -4.24784 0
M  V30 30361 C 2876.37 0.359716 -5.33489 0
M  V30 30362 C 2877.67 -1.78445 -4.90871 0
M  V30 30363 H 2879.36 -1.2798 -2.70669 0
M  V30 30364 H 2876.91 -0.616836 -1.3012 0
M  V30 30365 H 2878.86 0.676879 -4.15928 0
M  V30 30366 H 2877.58 1.20634 -3.03504 0
M  V30 30367 H 2876.24 -0.859572 -3.5638 0
M  V30 30368 H 2875.89 1.24115 -4.87447 0
M  V30 30369 H 2875.59 -0.203709 -5.87247 0
M  V30 30370 H 2877.11 0.708681 -6.06473 0
M  V30 30371 H 2878.53 -1.49973 -5.53336 0
M  V30 30372 H 2876.93 -2.2908 -5.54655 0
M  V30 30373 H 2878 -2.50831 -4.14984 0
M  V30 30374 N 2879.34 1.41929 -0.685124 0
M  V30 30375 C 2880.27 2.2817 0.0371238 0
M  V30 30376 C 2881.25 1.41648 0.798411 0
M  V30 30377 O 2882.43 1.71082 0.791398 0
M  V30 30378 C 2879.56 3.2169 1.05987 0
M  V30 30379 C 2878.61 4.24686 0.392968 0
M  V30 30380 S 2879.44 5.28598 -0.857014 0
M  V30 30381 C 2880.6 6.25684 0.164398 0
M  V30 30382 H 2880.83 2.89078 -0.694356 0
M  V30 30383 H 2878.36 1.46911 -0.475025 0
M  V30 30384 H 2880.32 3.76106 1.64483 0
M  V30 30385 H 2878.98 2.59898 1.76386 0
M  V30 30386 H 2878.17 4.9035 1.16504 0
M  V30 30387 H 2877.78 3.73812 -0.118655 0
M  V30 30388 H 2880.07 6.69763 1.02094 0
M  V30 30389 H 2881.01 7.06617 -0.458041 0
M  V30 30390 H 2881.42 5.6215 0.514497 0
M  V30 30391 N 2880.82 0.429152 1.51644 0
M  V30 30392 C 2881.78 -0.374686 2.26117 0
M  V30 30393 C 2882.78 -0.956691 1.29244 0
M  V30 30394 O 2883.97 -0.832425 1.53024 0
M  V30 30395 C 2881.1 -1.52932 3.04671 0
M  V30 30396 H 2882.29 0.277871 2.9861 0
M  V30 30397 H 2879.85 0.182124 1.55235 0
M  V30 30398 H 2880.58 -2.21817 2.36575 0
M  V30 30399 H 2880.37 -1.11826 3.75816 0
M  V30 30400 H 2881.86 -2.09745 3.61105 0
M  V30 30401 N 2882.29 -1.56783 0.160229 0
M  V30 30402 C 2883.54 -1.96543 -0.487553 0
M  V30 30403 C 2883.87 -1.04572 -1.63997 0
M  V30 30404 O 2883.12 -0.0775555 -1.95546 0
M  V30 30405 C 2883.42 -3.4246 -1.02253 0
M  V30 30406 C 2883.09 -4.50898 0.0128228 0
M  V30 30407 C 2881.75 -4.8028 0.297403 0
M  V30 30408 C 2884.1 -5.16256 0.716169 0
M  V30 30409 C 2881.43 -5.72322 1.29091 0
M  V30 30410 C 2883.78 -6.09369 1.69858 0
M  V30 30411 C 2882.45 -6.37124 1.99072 0
M  V30 30412 H 2881.72 -0.719202 -0.178408 0
M  V30 30413 H 2884.36 -1.89863 0.249852 0
M  V30 30414 H 2882.67 -3.46037 -1.83753 0
M  V30 30415 H 2884.37 -3.70559 -1.53255 0
M  V30 30416 H 2880.96 -4.28039 -0.21916 0
M  V30 30417 H 2885.14 -4.93678 0.509515 0
M  V30 30418 H 2880.4 -5.92113 1.52355 0
M  V30 30419 H 2884.57 -6.59084 2.24902 0
M  V30 30420 H 2882.2 -7.08247 2.76206 0
M  V30 30421 N 2883.77 0.113531 -1.57191 0
M  V30 30422 C 2885.05 0.850968 -1.76119 0
M  V30 30423 C 2885.43 1.97812 -0.73712 0
M  V30 30424 O 2884.78 2.27258 0.237902 0
M  V30 30425 C 2884.99 1.3626 -3.21301 0
M  V30 30426 C 2886.34 1.81276 -3.83958 0
M  V30 30427 O 2887.36 1.45927 -3.24937 0
M  V30 30428 O 2886.22 2.46576 -4.87711 0
M  V30 30429 H 2883.31 0.404516 -0.721315 0
M  V30 30430 H 2885.86 0.0968458 -1.69423 0
M  V30 30431 H 2884.63 0.554167 -3.87356 0
M  V30 30432 H 2884.25 2.17928 -3.32556 0
M  V30 30433 N 2885.25 1.52854 0.383864 0
M  V30 30434 C 2886.48 1.71782 1.1478 0
M  V30 30435 C 2886.89 0.438244 1.84055 0
M  V30 30436 O 2886.23 -0.597434 1.73714 0
M  V30 30437 C 2886.29 2.81551 2.23538 0
M  V30 30438 C 2885.96 4.22502 1.74187 0
M  V30 30439 C 2886.96 5.05484 1.21583 0
M  V30 30440 C 2884.64 4.68843 1.80254 0
M  V30 30441 C 2886.63 6.32889 0.756992 0
M  V30 30442 C 2884.32 5.96231 1.33982 0
M  V30 30443 C 2885.32 6.78085 0.817929 0
M  V30 30444 O 2885.01 8.03085 0.361982 0
M  V30 30445 H 2884.74 0.578401 0.349898 0
M  V30 30446 H 2887.29 2.00312 0.454342 0
M  V30 30447 H 2885.52 2.48454 2.96324 0
M  V30 30448 H 2887.21 2.88833 2.85185 0
M  V30 30449 H 2887.98 4.70862 1.16248 0
M  V30 30450 H 2883.86 4.05217 2.19818 0
M  V30 30451 H 2887.4 6.96727 0.348958 0
M  V30 30452 H 2883.3 6.30356 1.39004 0
M  V30 30453 H 2884.07 8.17074 0.48299 0
M  V30 30454 N 2886.73 -0.642612 1.43904 0
M  V30 30455 C 2887.95 -1.43481 1.4976 0
M  V30 30456 C 2888.38 -1.87717 0.119944 0
M  V30 30457 O 2887.74 -1.58034 -0.88853 0
M  V30 30458 C 2887.79 -2.63894 2.45749 0
M  V30 30459 O 2886.89 -3.63327 1.95108 0
M  V30 30460 H 2886.23 -0.429782 0.506146 0
M  V30 30461 H 2888.76 -0.785404 1.88925 0
M  V30 30462 H 2888.77 -3.1158 2.63405 0
M  V30 30463 H 2887.45 -2.3104 3.45822 0
M  V30 30464 H 2886.02 -3.22528 1.87163 0
M  V30 30465 N 2888.21 -1.30611 -0.881966 0
M  V30 30466 C 2889.16 -1.17158 -2.00939 0
M  V30 30467 C 2890.15 -0.0827452 -1.69198 0
M  V30 30468 O 2891.36 -0.243806 -1.78341 0
M  V30 30469 H 2887.73 -0.362418 -0.658906 0
M  V30 30470 H 2889.7 -2.1257 -2.09419 0
M  V30 30471 C 2888.45 -0.883332 -3.36292 0
M  V30 30472 H 2887.77 -1.71326 -3.6123 0
M  V30 30473 H 2889.21 -0.829328 -4.1581 0
M  V30 30474 C 2887.67 0.413793 -3.34349 0
M  V30 30475 O 2888.2 1.43437 -3.75218 0
M  V30 30476 N 2886.41 0.426032 -2.8746 0
M  V30 30477 H 2885.96 -0.404974 -2.54397 0
M  V30 30478 H 2885.91 1.29386 -2.86543 0
M  V30 30479 N 2889.69 1.0947 -1.13376 0
M  V30 30480 C 2890.93 1.81637 -0.895222 0
M  V30 30481 C 2891.26 1.85693 0.578647 0
M  V30 30482 O 2890.52 1.32062 1.44423 0
M  V30 30483 C 2890.81 3.27648 -1.42765 0
M  V30 30484 C 2890.48 3.43725 -2.91828 0
M  V30 30485 C 2889.14 3.47821 -3.32527 0
M  V30 30486 C 2891.49 3.483 -3.87733 0
M  V30 30487 C 2888.82 3.54069 -4.67816 0
M  V30 30488 C 2891.17 3.56082 -5.22865 0
M  V30 30489 C 2889.84 3.58446 -5.63092 0
M  V30 30490 H 2889.11 0.664657 -0.327585 0
M  V30 30491 H 2891.76 1.28967 -1.41562 0
M  V30 30492 H 2890.06 3.82952 -0.827938 0
M  V30 30493 H 2891.76 3.82017 -1.21917 0
M  V30 30494 H 2888.35 3.41222 -2.59356 0
M  V30 30495 H 2892.53 3.44377 -3.57377 0
M  V30 30496 H 2887.79 3.54186 -4.98359 0
M  V30 30497 H 2891.96 3.58567 -5.96995 0
M  V30 30498 H 2889.59 3.6304 -6.67911 0
M  V30 30499 N 2891.16 0.92719 1.2744 0
M  V30 30500 C 2892.44 0.485776 1.89472 0
M  V30 30501 C 2892.82 -1.0361 1.83924 0
M  V30 30502 O 2892.17 -1.89004 1.28412 0
M  V30 30503 C 2892.38 1.03129 3.33415 0
M  V30 30504 C 2893.73 1.09147 4.10332 0
M  V30 30505 O 2894.75 0.98088 3.42428 0
M  V30 30506 O 2893.61 1.26174 5.31735 0
M  V30 30507 H 2890.7 0.156169 0.812121 0
M  V30 30508 H 2893.25 1.01885 1.35711 0
M  V30 30509 H 2892.02 2.07514 3.31743 0
M  V30 30510 H 2891.64 0.479837 3.94694 0
M  V30 30511 N 2892.64 -1.41564 0.692641 0
M  V30 30512 C 2893.6 -2.29174 0.0344577 0
M  V30 30513 C 2894.6 -1.4423 -0.710936 0
M  V30 30514 O 2895.79 -1.65413 -0.546264 0
M  V30 30515 C 2892.93 -3.27056 -0.961624 0
M  V30 30516 H 2894.12 -2.88872 0.805806 0
M  V30 30517 H 2891.67 -1.49501 0.455973 0
M  V30 30518 H 2892.41 -2.72332 -1.76084 0
M  V30 30519 H 2892.19 -3.89732 -0.430306 0
M  V30 30520 H 2893.68 -3.92715 -1.42003 0
M  V30 30521 N 2894.12 -0.437188 -1.51415 0
M  V30 30522 C 2895.34 0.130388 -2.0699 0
M  V30 30523 C 2895.77 1.35707 -1.30251 0
M  V30 30524 O 2895.13 1.78075 -0.34042 0
M  V30 30525 C 2895.18 0.431357 -3.58011 0
M  V30 30526 O 2894.28 1.51783 -3.83452 0
M  V30 30527 H 2893.62 0.00193172 -0.663997 0
M  V30 30528 H 2896.15 -0.618479 -1.95028 0
M  V30 30529 H 2896.16 0.681855 -4.02262 0
M  V30 30530 H 2894.84 -0.46521 -4.1329 0
M  V30 30531 H 2893.41 1.25731 -3.51064 0
M  V30 30532 N 2895.6 1.56696 -0.168541 0
M  V30 30533 C 2896.53 2.20836 0.758524 0
M  V30 30534 C 2897.51 1.16313 1.24118 0
M  V30 30535 O 2898.69 1.44732 1.29485 0
M  V30 30536 C 2895.82 2.84693 1.98915 0
M  V30 30537 C 2894.78 3.95231 1.64245 0
M  V30 30538 C 2894.1 4.46124 2.94749 0
M  V30 30539 C 2895.4 5.14959 0.872585 0
M  V30 30540 H 2897.1 2.98562 0.2239 0
M  V30 30541 H 2894.64 1.43607 0.106252 0
M  V30 30542 H 2896.6 3.28237 2.64269 0
M  V30 30543 H 2895.32 2.04332 2.54786 0
M  V30 30544 H 2893.98 3.52338 1.0126 0
M  V30 30545 H 2893.63 3.62558 3.48655 0
M  V30 30546 H 2893.33 5.20695 2.72307 0
M  V30 30547 H 2894.85 4.92353 3.61138 0
M  V30 30548 H 2896.27 5.55214 1.42866 0
M  V30 30549 H 2894.66 5.95429 0.747297 0
M  V30 30550 H 2895.73 4.84721 -0.13162 0
M  V30 30551 N 2897.08 -0.105193 1.57249 0
M  V30 30552 C 2898.3 -0.828231 1.90145 0
M  V30 30553 C 2898.73 -1.71981 0.761841 0
M  V30 30554 O 2898.08 -1.79013 -0.287054 0
M  V30 30555 C 2898.13 -1.62602 3.21859 0
M  V30 30556 O 2897.24 -2.73414 3.08737 0
M  V30 30557 H 2896.58 -0.228181 0.623562 0
M  V30 30558 H 2899.11 -0.0834466 2.0443 0
M  V30 30559 H 2899.12 -2.01237 3.54919 0
M  V30 30560 H 2897.79 -0.971616 4.04391 0
M  V30 30561 H 2896.37 -2.37881 2.87171 0
M  V30 30562 N 2898.55 -1.53055 -0.375752 0
M  V30 30563 C 2899.97 -1.60542 -0.953062 0
M  V30 30564 C 2900.32 -0.466479 -1.90574 0
M  V30 30565 O 2899.44 0.408571 -2.12508 0
M  V30 30566 C 2900.04 -2.90985 -1.73532 0
M  V30 30567 C 2898.6 -3.0084 -2.26213 0
M  V30 30568 C 2897.74 -2.55761 -1.07153 0
M  V30 30569 H 2900.69 -1.57943 -0.154867 0
M  V30 30570 H 2900.71 -2.78216 -2.5957 0
M  V30 30571 H 2900.23 -3.73859 -1.04169 0
M  V30 30572 H 2898.33 -2.22532 -2.98848 0
M  V30 30573 H 2898.44 -4.05731 -2.54792 0
M  V30 30574 H 2896.8 -2.10394 -1.4355 0
M  V30 30575 H 2897.59 -3.41043 -0.39304 0
M  V30 30576 N 2900.03 0.634971 -1.44242 0
M  V30 30577 C 2901.28 1.39667 -1.47041 0
M  V30 30578 C 2901.61 1.93936 -0.101157 0
M  V30 30579 O 2900.89 1.7342 0.880669 0
M  V30 30580 C 2901.17 2.56478 -2.52767 0
M  V30 30581 C 2901.02 2.07582 -3.99036 0
M  V30 30582 C 2902.34 3.5867 -2.55037 0
M  V30 30583 H 2899.46 0.506496 -0.535379 0
M  V30 30584 H 2902.1 0.718286 -1.759 0
M  V30 30585 H 2900.25 3.1435 -2.2829 0
M  V30 30586 H 2901.92 1.5457 -4.34633 0
M  V30 30587 H 2900.17 1.38797 -4.10996 0
M  V30 30588 H 2900.84 2.91662 -4.68655 0
M  V30 30589 H 2903.31 3.1059 -2.76899 0
M  V30 30590 H 2902.19 4.37928 -3.30924 0
M  V30 30591 H 2902.45 4.12483 -1.59092 0
M  V30 30592 N 2901.51 1.31076 0.875027 0
M  V30 30593 C 2902.76 1.2166 1.63004 0
M  V30 30594 C 2903.11 -0.224272 1.91088 0
M  V30 30595 O 2902.4 -1.15623 1.52781 0
M  V30 30596 C 2902.6 1.98894 2.96945 0
M  V30 30597 C 2902.43 3.50344 2.81938 0
M  V30 30598 C 2901.2 4.19698 2.81393 0
M  V30 30599 C 2903.4 4.45389 2.57163 0
M  V30 30600 N 2901.38 5.5734 2.57382 0
M  V30 30601 C 2902.75 5.70664 2.42368 0
M  V30 30602 C 2904.8 4.34873 2.42467 0
M  V30 30603 C 2903.51 6.86613 2.14373 0
M  V30 30604 C 2905.53 5.50599 2.15858 0
M  V30 30605 C 2904.89 6.7486 2.01848 0
M  V30 30606 H 2900.99 0.500282 0.601034 0
M  V30 30607 H 2903.58 1.65205 1.0303 0
M  V30 30608 H 2901.75 1.57724 3.54933 0
M  V30 30609 H 2903.48 1.81538 3.61699 0
M  V30 30610 H 2900.24 3.71621 2.93589 0
M  V30 30611 H 2900.66 6.29798 2.48362 0
M  V30 30612 H 2905.3 3.39472 2.52029 0
M  V30 30613 H 2903.02 7.82045 2.03548 0
M  V30 30614 H 2906.61 5.44376 2.05295 0
M  V30 30615 H 2905.49 7.62896 1.81549 0
M  V30 30616 N 2902.99 -1.08867 1.13955 0
M  V30 30617 C 2904.24 -1.8116 0.904842 0
M  V30 30618 C 2904.56 -1.85997 -0.568791 0
M  V30 30619 O 2903.82 -1.32826 -1.43721 0
M  V30 30620 C 2904.12 -3.26886 1.44501 0
M  V30 30621 C 2903.78 -3.42173 2.93647 0
M  V30 30622 C 2902.45 -3.46053 3.34367 0
M  V30 30623 C 2904.8 -3.46239 3.89574 0
M  V30 30624 C 2902.13 -3.51583 4.69687 0
M  V30 30625 C 2904.48 -3.53304 5.24746 0
M  V30 30626 C 2903.14 -3.55455 5.64985 0
M  V30 30627 H 2902.41 -0.662911 0.331105 0
M  V30 30628 H 2905.06 -1.28214 1.42244 0
M  V30 30629 H 2903.36 -3.82508 0.848236 0
M  V30 30630 H 2905.06 -3.81366 1.23941 0
M  V30 30631 H 2901.65 -3.39842 2.61162 0
M  V30 30632 H 2905.83 -3.42477 3.59198 0
M  V30 30633 H 2901.09 -3.51539 5.00231 0
M  V30 30634 H 2905.26 -3.55395 5.98888 0
M  V30 30635 H 2902.89 -3.59493 6.69827 0
M  V30 30636 N 2904.47 -0.933936 -1.26946 0
M  V30 30637 C 2905.71 -0.578514 -1.94373 0
M  V30 30638 C 2906.05 0.879018 -1.73167 0
M  V30 30639 O 2905.32 1.6279 -1.06441 0
M  V30 30640 C 2905.6 -0.9128 -3.48339 0
M  V30 30641 C 2905.46 -2.42454 -3.78861 0
M  V30 30642 C 2906.78 -0.42308 -4.38062 0
M  V30 30643 H 2903.89 -0.211652 -0.705955 0
M  V30 30644 H 2906.54 -1.16684 -1.49949 0
M  V30 30645 H 2904.69 -0.412126 -3.86308 0
M  V30 30646 H 2906.36 -2.99739 -3.50649 0
M  V30 30647 H 2904.6 -2.8711 -3.25193 0
M  V30 30648 H 2905.27 -2.60896 -4.86454 0
M  V30 30649 H 2907.75 -0.852262 -4.07278 0
M  V30 30650 H 2906.62 -0.685872 -5.44598 0
M  V30 30651 H 2906.89 0.676917 -4.36887 0
M  V30 30652 N 2905.94 1.41194 -0.700139 0
M  V30 30653 C 2907.18 2.03018 -0.237258 0
M  V30 30654 C 2907.55 1.5427 1.14301 0
M  V30 30655 O 2908.75 2.08051 1.702 0
M  V30 30656 C 2907.02 3.5616 -0.297504 0
M  V30 30657 S 2908.58 4.38706 0.0906596 0
M  V30 30658 H 2905.4 0.704594 -0.0952271 0
M  V30 30659 H 2908 1.72557 -0.918931 0
M  V30 30660 H 2906.7 3.89133 -1.30398 0
M  V30 30661 H 2906.23 3.91329 0.403164 0
M  V30 30662 H 2908.25 4.784 1.31712 0
M  V30 30663 N 2907.42 0.445212 1.51181 0
M  V30 30664 C 2908.35 -0.352645 2.30822 0
M  V30 30665 C 2909.33 -1.01393 1.36578 0
M  V30 30666 O 2910.52 -1.01606 1.65499 0
M  V30 30667 C 2907.65 -1.4497 3.15596 0
M  V30 30668 C 2906.6 -0.911479 4.18182 0
M  V30 30669 C 2905.93 -2.10488 4.91527 0
M  V30 30670 C 2907.23 0.0595098 5.22266 0
M  V30 30671 H 2908.92 0.311988 2.9777 0
M  V30 30672 H 2906.47 0.151487 1.43201 0
M  V30 30673 H 2908.42 -2.01514 3.70095 0
M  V30 30674 H 2907.15 -2.14274 2.46484 0
M  V30 30675 H 2905.8 -0.3682 3.64746 0
M  V30 30676 H 2905.45 -2.78429 4.18911 0
M  V30 30677 H 2905.15 -1.7511 5.60901 0
M  V30 30678 H 2906.68 -2.67571 5.48852 0
M  V30 30679 H 2908.09 -0.415884 5.7179 0
M  V30 30680 H 2906.49 0.326258 5.99212 0
M  V30 30681 H 2907.56 0.993714 4.74609 0
M  V30 30682 N 2908.9 -1.56605 0.176849 0
M  V30 30683 C 2909.81 -2.21823 -0.763643 0
M  V30 30684 C 2910.83 -1.21158 -1.24887 0
M  V30 30685 O 2912 -1.53838 -1.29984 0
M  V30 30686 C 2909.07 -2.85053 -1.97347 0
M  V30 30687 C 2908.13 -4.00935 -1.53459 0
M  V30 30688 C 2907.36 -4.6114 -2.68674 0
M  V30 30689 O 2907.58 -4.2024 -3.85687 0
M  V30 30690 O 2906.52 -5.50918 -2.42432 0
M  V30 30691 H 2910.34 -3.02764 -0.23831 0
M  V30 30692 H 2907.93 -1.49311 -0.0516069 0
M  V30 30693 H 2909.81 -3.25124 -2.6809 0
M  V30 30694 H 2908.49 -2.07105 -2.48775 0
M  V30 30695 H 2907.39 -3.65523 -0.796487 0
M  V30 30696 H 2908.73 -4.80492 -1.06716 0
M  V30 30697 N 2910.38 0.0968524 -1.57302 0
M  V30 30698 C 2911.33 1.11762 -2.01935 0
M  V30 30699 C 2912.3 1.39902 -0.895354 0
M  V30 30700 O 2913.48 1.51395 -1.16122 0
M  V30 30701 C 2910.62 2.43313 -2.4473 0
M  V30 30702 C 2909.73 2.21919 -3.70643 0
M  V30 30703 C 2908.87 3.46855 -4.02324 0
M  V30 30704 C 2907.91 3.20716 -5.21352 0
M  V30 30705 N 2907.04 4.37914 -5.48795 0
M  V30 30706 H 2911.88 0.730024 -2.8892 0
M  V30 30707 H 2909.42 0.348937 -1.42902 0
M  V30 30708 H 2911.38 3.20084 -2.67586 0
M  V30 30709 H 2910.01 2.79923 -1.60758 0
M  V30 30710 H 2909.06 1.35959 -3.55274 0
M  V30 30711 H 2910.37 1.98595 -4.57561 0
M  V30 30712 H 2909.53 4.32035 -4.25947 0
M  V30 30713 H 2908.27 3.73232 -3.13925 0
M  V30 30714 H 2907.27 2.33929 -4.97551 0
M  V30 30715 H 2908.5 2.95687 -6.11348 0
M  V30 30716 H 2906.44 4.6437 -4.63354 0
M  V30 30717 H 2906.36 4.17774 -6.3008 0
M  V30 30718 H 2907.63 5.24163 -5.76952 0
M  V30 30719 N 2911.86 1.53252 0.36763 0
M  V30 30720 C 2913.1 1.69586 1.11213 0
M  V30 30721 C 2913.44 0.445302 1.89026 0
M  V30 30722 O 2912.71 -0.557371 1.86343 0
M  V30 30723 C 2912.99 2.94444 2.07303 0
M  V30 30724 C 2912.85 4.29652 1.33113 0
M  V30 30725 C 2914.17 3.14898 3.07453 0
M  V30 30726 H 2911.28 0.617104 0.40293 0
M  V30 30727 H 2913.93 1.85888 0.393169 0
M  V30 30728 H 2912.08 2.80677 2.68612 0
M  V30 30729 H 2913.75 4.55227 0.746031 0
M  V30 30730 H 2911.99 4.29157 0.632976 0
M  V30 30731 H 2912.66 5.13146 2.03434 0
M  V30 30732 H 2915.14 3.27837 2.56246 0
M  V30 30733 H 2914.01 4.03699 3.71911 0
M  V30 30734 H 2914.28 2.30084 3.7751 0
M  V30 30735 N 2913.34 -0.627313 1.44577 0
M  V30 30736 C 2914.27 -1.7502 1.54565 0
M  V30 30737 C 2915.25 -1.65368 0.398407 0
M  V30 30738 O 2916.43 -1.8407 0.619022 0
M  V30 30739 C 2913.56 -3.13564 1.49315 0
M  V30 30740 C 2912.52 -3.38008 2.62555 0
M  V30 30741 C 2911.84 -4.76621 2.42356 0
M  V30 30742 C 2913.14 -3.30195 4.04684 0
M  V30 30743 H 2914.84 -1.66918 2.48553 0
M  V30 30744 H 2912.38 -0.801615 1.19625 0
M  V30 30745 H 2914.33 -3.91897 1.54902 0
M  V30 30746 H 2913.06 -3.22459 0.518449 0
M  V30 30747 H 2911.72 -2.62057 2.56363 0
M  V30 30748 H 2911.37 -4.82224 1.4307 0
M  V30 30749 H 2911.07 -4.93934 3.18282 0
M  V30 30750 H 2912.59 -5.57179 2.49768 0
M  V30 30751 H 2914 -3.98427 4.12224 0
M  V30 30752 H 2912.4 -3.59041 4.80842 0
M  V30 30753 H 2913.47 -2.27941 4.27984 0
M  V30 30754 N 2914.81 -1.31539 -0.868063 0
M  V30 30755 C 2916.04 -1.24301 -1.65399 0
M  V30 30756 C 2916.46 0.191356 -1.87828 0
M  V30 30757 O 2915.81 1.12402 -1.43778 0
M  V30 30758 C 2915.86 -1.98556 -3.02089 0
M  V30 30759 O 2915.59 -3.36393 -2.80662 0
M  V30 30760 C 2917.09 -1.9818 -3.96534 0
M  V30 30761 H 2914.31 -0.429426 -0.515591 0
M  V30 30762 H 2916.85 -1.73445 -1.08337 0
M  V30 30763 H 2915.01 -1.53167 -3.55835 0
M  V30 30764 H 2915.42 -3.74227 -3.67497 0
M  V30 30765 H 2916.89 -2.54644 -4.89756 0
M  V30 30766 H 2917.37 -0.964773 -4.28473 0
M  V30 30767 H 2917.98 -2.43456 -3.48725 0
M  V30 30768 N 2916.29 1.08262 -1.1453 0
M  V30 30769 C 2917.24 2.1522 -0.833593 0
M  V30 30770 C 2918.21 1.64773 0.20951 0
M  V30 30771 O 2919.39 1.90636 0.0791053 0
M  V30 30772 C 2916.53 3.43624 -0.31886 0
M  V30 30773 C 2915.65 4.0791 -1.42244 0
M  V30 30774 C 2914.78 5.24113 -0.864796 0
M  V30 30775 C 2913.82 5.80344 -1.94595 0
M  V30 30776 N 2912.96 6.87891 -1.40537 0
M  V30 30777 H 2917.8 2.41225 -1.74969 0
M  V30 30778 H 2915.33 1.1838 -0.87319 0
M  V30 30779 H 2917.29 4.172 -0.00220421 0
M  V30 30780 H 2915.92 3.17899 0.560342 0
M  V30 30781 H 2914.97 3.3208 -1.85546 0
M  V30 30782 H 2916.29 4.4572 -2.23909 0
M  V30 30783 H 2915.44 6.04635 -0.500131 0
M  V30 30784 H 2914.18 4.87697 -0.0172077 0
M  V30 30785 H 2913.18 4.98475 -2.31955 0
M  V30 30786 H 2914.41 6.18818 -2.79715 0
M  V30 30787 H 2912.36 6.53431 -0.579988 0
M  V30 30788 H 2912.27 7.24534 -2.15838 0
M  V30 30789 H 2913.54 7.7214 -1.06866 0
M  V30 30790 N 2917.77 0.940655 1.26449 0
M  V30 30791 C 2918.7 0.467519 2.28772 0
M  V30 30792 C 2919.68 -0.478927 1.63219 0
M  V30 30793 O 2920.87 -0.380895 1.90428 0
M  V30 30794 C 2918 -0.268595 3.4626 0
M  V30 30795 C 2916.95 0.591246 4.23897 0
M  V30 30796 C 2916.28 -0.274797 5.33993 0
M  V30 30797 C 2917.58 1.86232 4.8797 0
M  V30 30798 H 2919.27 1.3227 2.68598 0
M  V30 30799 H 2916.82 0.637458 1.29122 0
M  V30 30800 H 2918.77 -0.610623 4.16952 0
M  V30 30801 H 2917.49 -1.15791 3.05385 0
M  V30 30802 H 2916.15 0.916161 3.54968 0
M  V30 30803 H 2915.8 -1.16345 4.8936 0
M  V30 30804 H 2915.5 0.297109 5.86848 0
M  V30 30805 H 2917.02 -0.612106 6.07524 0
M  V30 30806 H 2918.44 1.58757 5.5088 0
M  V30 30807 H 2916.83 2.37875 5.5094 0
M  V30 30808 H 2917.9 2.57402 4.10941 0
M  V30 30809 N 2919.25 -1.40821 0.707617 0
M  V30 30810 C 2920.5 -2.00631 0.243224 0
M  V30 30811 C 2920.82 -1.56367 -1.16509 0
M  V30 30812 O 2920.09 -0.799585 -1.78839 0
M  V30 30813 H 2918.67 -0.741924 0.0869334 0
M  V30 30814 H 2921.33 -1.72274 0.911468 0
M  V30 30815 H 2920.42 -3.10929 0.270068 0
M  V30 30816 N 2920.73 -0.453223 -1.50943 0
M  V30 30817 C 2921.97 0.107887 -2.02212 0
M  V30 30818 C 2922.3 1.41316 -1.33641 0
M  V30 30819 O 2921.56 1.90569 -0.445187 0
M  V30 30820 C 2921.85 0.357881 -3.55604 0
M  V30 30821 C 2921.52 -0.863505 -4.42554 0
M  V30 30822 C 2920.18 -1.19842 -4.66038 0
M  V30 30823 C 2922.53 -1.67755 -4.93465 0
M  V30 30824 C 2919.86 -2.34777 -5.37677 0
M  V30 30825 C 2922.21 -2.81803 -5.66365 0
M  V30 30826 C 2920.88 -3.1573 -5.88108 0
M  V30 30827 H 2920.15 0.0394786 -0.739948 0
M  V30 30828 H 2922.8 -0.603662 -1.81737 0
M  V30 30829 H 2921.1 1.15149 -3.74497 0
M  V30 30830 H 2922.8 0.805712 -3.92822 0
M  V30 30831 H 2919.39 -0.592553 -4.24484 0
M  V30 30832 H 2923.57 -1.432 -4.75192 0
M  V30 30833 H 2918.83 -2.61358 -5.52722 0
M  V30 30834 H 2923 -3.4524 -6.048 0
M  V30 30835 H 2920.63 -4.049 -6.43397 0
M  V30 30836 N 2922.2 1.56509 -0.185151 0
M  V30 30837 C 2923.17 2.17402 0.725872 0
M  V30 30838 C 2924.17 1.12578 1.14817 0
M  V30 30839 O 2925.36 1.38017 1.06288 0
M  V30 30840 C 2922.49 2.76807 1.98975 0
M  V30 30841 H 2923.68 2.99262 0.195535 0
M  V30 30842 H 2921.23 1.56167 0.0644498 0
M  V30 30843 H 2921.97 1.98718 2.56284 0
M  V30 30844 H 2921.75 3.53534 1.69577 0
M  V30 30845 H 2923.24 3.23596 2.6396 0
M  V30 30846 N 2923.68 -0.0885089 1.57351 0
M  V30 30847 C 2924.93 -0.789229 1.86053 0
M  V30 30848 C 2925.25 -1.78947 0.774795 0
M  V30 30849 O 2924.52 -1.94894 -0.19829 0
M  V30 30850 H 2923.1 -0.294462 0.686514 0
M  V30 30851 H 2925.76 -0.0685712 1.94779 0
M  V30 30852 H 2924.86 -1.31576 2.83009 0
M  V30 30853 N 2925.16 -1.53445 -0.359498 0
M  V30 30854 C 2926.38 -1.74146 -1.12641 0
M  V30 30855 C 2926.81 -0.472039 -1.82081 0
M  V30 30856 O 2926.17 0.57433 -1.71963 0
M  V30 30857 C 2926.22 -2.91134 -2.12776 0
M  V30 30858 O 2925.32 -2.60167 -3.19979 0
M  V30 30859 H 2924.66 -0.578157 -0.326542 0
M  V30 30860 H 2927.19 -2.00352 -0.414763 0
M  V30 30861 H 2927.2 -3.17472 -2.56273 0
M  V30 30862 H 2925.88 -3.83209 -1.61627 0
M  V30 30863 H 2924.45 -2.44666 -2.81412 0
M  V30 30864 N 2926.64 0.619637 -1.44908 0
M  V30 30865 C 2927.86 1.4108 -1.52024 0
M  V30 30866 C 2928.29 1.87503 -0.149793 0
M  V30 30867 O 2927.65 1.59428 0.863275 0
M  V30 30868 C 2927.69 2.59951 -2.49916 0
M  V30 30869 O 2926.8 3.60177 -2.00863 0
M  V30 30870 H 2926.14 0.421675 -0.512919 0
M  V30 30871 H 2928.67 0.755249 -1.9015 0
M  V30 30872 H 2928.68 3.0735 -2.68329 0
M  V30 30873 H 2927.35 2.25509 -3.49454 0
M  V30 30874 H 2925.93 3.1951 -1.92271 0
M  V30 30875 N 2928.12 1.31997 0.861075 0
M  V30 30876 C 2929.05 1.22997 1.98479 0
M  V30 30877 C 2930.03 0.115198 1.69709 0
M  V30 30878 O 2931.21 0.301294 1.91849 0
M  V30 30879 C 2928.34 0.945674 3.34177 0
M  V30 30880 C 2927.3 2.02098 3.7728 0
M  V30 30881 C 2926.62 1.58921 5.10537 0
M  V30 30882 C 2927.92 3.43522 3.93433 0
M  V30 30883 H 2929.62 2.17012 2.06268 0
M  V30 30884 H 2927.16 1.04473 0.991025 0
M  V30 30885 H 2929.12 0.869279 4.12337 0
M  V30 30886 H 2927.84 -0.0301275 3.26586 0
M  V30 30887 H 2926.5 2.08742 3.01368 0
M  V30 30888 H 2926.15 0.60103 4.99396 0
M  V30 30889 H 2925.85 2.30864 5.40348 0
M  V30 30890 H 2927.37 1.52706 5.91196 0
M  V30 30891 H 2928.78 3.39503 4.61964 0
M  V30 30892 H 2927.18 4.13759 4.34653 0
M  V30 30893 H 2928.25 3.83655 2.96542 0
M  V30 30894 N 2929.59 -1.07653 1.15103 0
M  V30 30895 C 2930.84 -1.7957 0.91856 0
M  V30 30896 C 2931.16 -1.87535 -0.555889 0
M  V30 30897 O 2932.36 -2.55943 -0.905848 0
M  V30 30898 C 2930.82 -3.22676 1.594 0
M  V30 30899 C 2930.43 -3.22921 3.10525 0
M  V30 30900 C 2932.17 -3.99223 1.44296 0
M  V30 30901 C 2930.08 -4.60662 3.7087 0
M  V30 30902 H 2929.01 -0.672981 0.340018 0
M  V30 30903 H 2931.66 -1.20854 1.38082 0
M  V30 30904 H 2930.04 -3.81565 1.05943 0
M  V30 30905 H 2931.21 -2.73694 3.70713 0
M  V30 30906 H 2929.53 -2.59871 3.25356 0
M  V30 30907 H 2932.13 -5.01018 1.86775 0
M  V30 30908 H 2932.47 -4.14469 0.390048 0
M  V30 30909 H 2933 -3.46821 1.94832 0
M  V30 30910 H 2929.74 -4.5062 4.76048 0
M  V30 30911 H 2929.26 -5.10139 3.15465 0
M  V30 30912 H 2930.94 -5.29633 3.71616 0
M  V30 30913 N 2931.07 -0.947348 -1.25949 0
M  V30 30914 C 2932 -0.4191 -2.25336 0
M  V30 30915 C 2933.02 0.461023 -1.56136 0
M  V30 30916 O 2934.21 0.270474 -1.76439 0
M  V30 30917 C 2931.31 0.416174 -3.36335 0
M  V30 30918 C 2930.48 -0.449238 -4.35087 0
M  V30 30919 C 2929.54 0.326624 -5.25185 0
M  V30 30920 O 2928.56 -0.272474 -5.68547 0
M  V30 30921 N 2929.77 1.6216 -5.57391 0
M  V30 30922 H 2932.53 -1.27352 -2.71296 0
M  V30 30923 H 2930.09 -0.816905 -1.39779 0
M  V30 30924 H 2932.08 0.942757 -3.93566 0
M  V30 30925 H 2930.65 1.17142 -2.89821 0
M  V30 30926 H 2929.87 -1.15698 -3.76839 0
M  V30 30927 H 2931.16 -1.04017 -4.98054 0
M  V30 30928 H 2930.56 2.13037 -5.24053 0
M  V30 30929 H 2929.12 2.0943 -6.17238 0
M  V30 30930 N 2932.55 1.40444 -0.715075 0
M  V30 30931 C 2933.78 2.05731 -0.262576 0
M  V30 30932 C 2934.2 1.5352 1.08688 0
M  V30 30933 O 2933.56 0.670358 1.68451 0
M  V30 30934 C 2933.61 3.59718 -0.252013 0
M  V30 30935 O 2932.71 4.05206 0.766927 0
M  V30 30936 H 2932.05 0.652431 -0.123409 0
M  V30 30937 H 2934.58 1.79852 -0.975413 0
M  V30 30938 H 2934.59 4.07902 -0.0895254 0
M  V30 30939 H 2933.27 3.97085 -1.23679 0
M  V30 30940 H 2931.84 3.68484 0.572204 0
M  V30 30941 N 2934.03 0.461222 1.507 0
M  V30 30942 C 2935.28 -0.0987923 2.01458 0
M  V30 30943 C 2935.59 -1.4167 1.34866 0
M  V30 30944 O 2936.8 -2.06108 1.76725 0
M  V30 30945 C 2935.25 -0.226585 3.59186 0
M  V30 30946 C 2934.86 1.08231 4.3473 0
M  V30 30947 C 2936.6 -0.739087 4.18016 0
M  V30 30948 C 2934.51 0.91885 5.84218 0
M  V30 30949 H 2933.44 -0.0406958 0.752901 0
M  V30 30950 H 2936.09 0.59462 1.73599 0
M  V30 30951 H 2934.47 -0.983554 3.83591 0
M  V30 30952 H 2935.65 1.84946 4.22056 0
M  V30 30953 H 2933.96 1.52516 3.87463 0
M  V30 30954 H 2936.56 -0.878254 5.27438 0
M  V30 30955 H 2936.9 -1.72786 3.78749 0
M  V30 30956 H 2937.44 -0.039777 3.9778 0
M  V30 30957 H 2934.18 1.8807 6.27941 0
M  V30 30958 H 2933.7 0.191907 5.99493 0
M  V30 30959 H 2935.37 0.581518 6.44381 0
M  V30 30960 N 2935.51 -1.56408 0.193449 0
M  V30 30961 C 2936.75 -1.99431 -0.447942 0
M  V30 30962 C 2937.11 -1.07753 -1.58913 0
M  V30 30963 O 2938.31 -1.40006 -2.2946 0
M  V30 30964 C 2936.58 -3.45938 -0.897869 0
M  V30 30965 S 2938.14 -4.10989 -1.53733 0
M  V30 30966 H 2934.96 -0.696409 -0.143304 0
M  V30 30967 H 2937.56 -1.93244 0.296127 0
M  V30 30968 H 2936.27 -4.1036 -0.0572206 0
M  V30 30969 H 2935.8 -3.55939 -1.67544 0
M  V30 30970 H 2937.81 -4.07859 -2.82605 0
M  V30 30971 N 2936.98 0.0801629 -1.57396 0
M  V30 30972 C 2937.93 1.11491 -2.04138 0
M  V30 30973 C 2938.93 1.40581 -0.945162 0
M  V30 30974 O 2940.13 1.40086 -1.1303 0
M  V30 30975 H 2936.51 0.376838 -0.650766 0
M  V30 30976 H 2938.48 0.694475 -2.90206 0
M  V30 30977 C 2937.23 2.42267 -2.49403 0
M  V30 30978 H 2936.55 2.20732 -3.33343 0
M  V30 30979 H 2937.99 3.13137 -2.8587 0
M  V30 30980 C 2936.45 3.07632 -1.37347 0
M  V30 30981 O 2936.98 3.95359 -0.710899 0
M  V30 30982 N 2935.19 2.68121 -1.12069 0
M  V30 30983 H 2934.73 1.96872 -1.6613 0
M  V30 30984 H 2934.69 3.1218 -0.372971 0
M  V30 30985 N 2938.46 1.53634 0.351355 0
M  V30 30986 C 2939.69 1.74431 1.11272 0
M  V30 30987 C 2940.11 0.47983 1.82601 0
M  V30 30988 O 2939.46 -0.548094 1.74075 0
M  V30 30989 C 2939.51 2.91925 2.13218 0
M  V30 30990 O 2939.23 4.13482 1.44791 0
M  V30 30991 C 2940.74 3.24711 3.01791 0
M  V30 30992 H 2937.96 0.583029 0.332142 0
M  V30 30993 H 2940.5 2.00431 0.405939 0
M  V30 30994 H 2938.65 2.68279 2.79473 0
M  V30 30995 H 2939.07 4.79378 2.12831 0
M  V30 30996 H 2940.54 4.10293 3.69275 0
M  V30 30997 H 2941.02 2.4068 3.67383 0
M  V30 30998 H 2941.63 3.50334 2.41135 0
M  V30 30999 N 2939.94 -0.611943 1.45234 0
M  V30 31000 C 2940.89 -1.71709 1.5 0
M  V30 31001 C 2941.87 -1.56735 0.363717 0
M  V30 31002 O 2943.07 -1.66146 0.61029 0
M  V30 31003 C 2940.2 -3.10452 1.46542 0
M  V30 31004 C 2939.28 -3.30827 2.65357 0
M  V30 31005 N 2939.67 -3.21482 3.90491 0
M  V30 31006 C 2937.97 -3.61684 2.60961 0
M  V30 31007 C 2938.67 -3.43069 4.69764 0
M  V30 31008 N 2937.65 -3.66854 4.01148 0
M  V30 31009 H 2941.45 -1.62971 2.44577 0
M  V30 31010 H 2938.96 -0.815058 1.40466 0
M  V30 31011 H 2940.96 -3.8973 1.48042 0
M  V30 31012 H 2939.62 -3.20342 0.530195 0
M  V30 31013 H 2940.63 -2.99979 4.22176 0
M  V30 31014 H 2937.31 -3.78438 1.76326 0
M  V30 31015 H 2938.7 -3.41275 5.78776 0
M  V30 31016 N 2941.42 -1.32452 -0.854063 0
M  V30 31017 C 2942.37 -1.1802 -1.95078 0
M  V30 31018 C 2943.35 -0.08697 -1.60665 0
M  V30 31019 O 2944.54 -0.313536 -1.74201 0
M  V30 31020 C 2941.67 -0.906019 -3.31129 0
M  V30 31021 C 2940.76 -2.04098 -3.71759 0
M  V30 31022 N 2941.15 -3.2896 -3.84212 0
M  V30 31023 C 2939.45 -1.94428 -4.0139 0
M  V30 31024 C 2940.15 -4.03301 -4.19193 0
M  V30 31025 N 2939.13 -3.31604 -4.30743 0
M  V30 31026 H 2942.93 -2.12681 -2.0284 0
M  V30 31027 H 2940.44 -1.2424 -1.04586 0
M  V30 31028 H 2942.44 -0.78358 -4.0947 0
M  V30 31029 H 2941.1 0.0322144 -3.24684 0
M  V30 31030 H 2942.11 -3.63889 -3.68518 0
M  V30 31031 H 2938.79 -1.0817 -4.03244 0
M  V30 31032 H 2940.18 -5.10978 -4.36292 0
M  V30 31033 N 2942.9 1.07041 -1.15672 0
M  V30 31034 C 2944.15 1.7908 -0.92807 0
M  V30 31035 C 2944.46 1.87827 0.545935 0
M  V30 31036 O 2945.67 2.56419 0.892262 0
M  V30 31037 C 2944.12 3.21826 -1.61109 0
M  V30 31038 C 2943.73 3.2127 -3.12233 0
M  V30 31039 C 2945.47 3.98452 -1.46411 0
M  V30 31040 C 2943.38 4.58688 -3.73308 0
M  V30 31041 H 2942.31 0.671169 -0.343582 0
M  V30 31042 H 2944.96 1.2012 -1.38721 0
M  V30 31043 H 2943.34 3.80998 -1.07965 0
M  V30 31044 H 2944.52 2.71724 -3.72159 0
M  V30 31045 H 2942.83 2.58141 -3.26729 0
M  V30 31046 H 2945.43 5.00021 -1.89429 0
M  V30 31047 H 2945.77 4.14256 -0.412023 0
M  V30 31048 H 2946.31 3.45783 -1.96669 0
M  V30 31049 H 2943.04 4.48089 -4.78431 0
M  V30 31050 H 2942.56 5.08459 -3.18166 0
M  V30 31051 H 2944.24 5.27654 -3.74419 0
M  V30 31052 N 2944.38 0.954014 1.25445 0
M  V30 31053 C 2945.62 0.608463 1.93142 0
M  V30 31054 C 2945.95 -0.85442 1.74728 0
M  V30 31055 O 2945.21 -1.62834 1.08552 0
M  V30 31056 C 2945.5 0.912557 3.45553 0
M  V30 31057 C 2945.17 2.36137 3.84122 0
M  V30 31058 C 2943.83 2.75739 3.94362 0
M  V30 31059 C 2946.18 3.3023 4.03234 0
M  V30 31060 C 2943.51 4.08503 4.2112 0
M  V30 31061 C 2945.86 4.62605 4.31485 0
M  V30 31062 C 2944.53 5.02004 4.39941 0
M  V30 31063 H 2943.8 0.222652 0.706758 0
M  V30 31064 H 2946.45 1.20293 1.49003 0
M  V30 31065 H 2944.75 0.235687 3.9109 0
M  V30 31066 H 2946.45 0.623783 3.96119 0
M  V30 31067 H 2943.04 2.04424 3.76708 0
M  V30 31068 H 2947.22 3.00824 3.94738 0
M  V30 31069 H 2942.48 4.38673 4.25883 0
M  V30 31070 H 2946.65 5.35494 4.45218 0
M  V30 31071 H 2944.28 6.04904 4.60429 0
M  V30 31072 N 2945.85 -1.40063 0.722513 0
M  V30 31073 C 2947.27 -1.54589 0.396786 0
M  V30 31074 C 2947.47 -1.69234 -1.09372 0
M  V30 31075 O 2946.53 -1.68581 -1.87981 0
M  V30 31076 C 2947.84 -2.77051 1.1689 0
M  V30 31077 C 2949.39 -2.90875 1.15589 0
M  V30 31078 C 2949.86 -4.16259 1.9103 0
M  V30 31079 N 2951.35 -4.23273 1.88133 0
M  V30 31080 C 2952.09 -5.19212 2.43324 0
M  V30 31081 N 2951.58 -6.21016 3.071 0
M  V30 31082 N 2953.38 -5.1134 2.33427 0
M  V30 31083 H 2945.53 -1.28803 1.68889 0
M  V30 31084 H 2947.79 -0.623348 0.714242 0
M  V30 31085 H 2947.5 -2.72531 2.22306 0
M  V30 31086 H 2947.37 -3.69359 0.765076 0
M  V30 31087 H 2949.76 -2.94895 0.109892 0
M  V30 31088 H 2949.84 -1.99665 1.59898 0
M  V30 31089 H 2949.48 -4.13 2.95623 0
M  V30 31090 H 2949.41 -5.0649 1.44135 0
M  V30 31091 H 2951.9 -3.50344 1.4166 0
M  V30 31092 H 2952.22 -6.9066 3.46712 0
M  V30 31093 H 2950.56 -6.2144 3.11186 0
M  V30 31094 H 2953.75 -4.30738 1.83255 0
M  V30 31095 H 2953.93 -5.85934 2.7674 0
M  V30 31096 N 2947.33 -0.469207 -1.50453 0
M  V30 31097 C 2948.61 0.14792 -1.9504 0
M  V30 31098 C 2948.99 1.57151 -1.40949 0
M  V30 31099 O 2948.34 2.20216 -0.609702 0
M  V30 31100 C 2948.55 0.0931585 -3.48876 0
M  V30 31101 C 2949.89 0.282982 -4.23656 0
M  V30 31102 O 2950.92 0.169829 -3.55795 0
M  V30 31103 O 2949.78 0.511301 -5.44103 0
M  V30 31104 H 2946.87 0.112696 -0.819285 0
M  V30 31105 H 2949.42 -0.529474 -1.61229 0
M  V30 31106 H 2948.19 -0.900851 -3.80789 0
M  V30 31107 H 2947.81 0.812093 -3.89218 0
M  V30 31108 N 2948.81 1.56303 -0.201741 0
M  V30 31109 C 2949.72 2.2301 0.728256 0
M  V30 31110 C 2950.74 1.2313 1.22943 0
M  V30 31111 O 2951.91 1.55886 1.2752 0
M  V30 31112 C 2948.98 2.88157 1.92787 0
M  V30 31113 C 2948.04 4.03326 1.47061 0
M  V30 31114 C 2947.27 4.65356 2.61304 0
M  V30 31115 O 2947.49 4.26323 3.78952 0
M  V30 31116 O 2946.43 5.54705 2.33637 0
M  V30 31117 H 2950.25 3.03104 0.190113 0
M  V30 31118 H 2947.84 1.49374 0.0278463 0
M  V30 31119 H 2949.72 3.29348 2.62884 0
M  V30 31120 H 2948.4 2.11037 2.45449 0
M  V30 31121 H 2947.3 3.66744 0.738234 0
M  V30 31122 H 2948.64 4.82129 0.990581 0
M  V30 31123 N 2950.29 -0.0718147 1.57436 0
M  V30 31124 C 2951.54 -0.769793 1.86432 0
M  V30 31125 C 2951.85 -1.78742 0.794386 0
M  V30 31126 O 2953.06 -2.53497 0.972193 0
M  V30 31127 C 2951.51 -1.42 3.30702 0
M  V30 31128 C 2951.12 -0.440939 4.45825 0
M  V30 31129 C 2952.86 -2.10035 3.68898 0
M  V30 31130 C 2950.77 -1.09706 5.81136 0
M  V30 31131 H 2949.7 -0.291247 0.695479 0
M  V30 31132 H 2952.35 -0.0230901 1.83485 0
M  V30 31133 H 2950.73 -2.21497 3.28261 0
M  V30 31134 H 2951.91 0.324211 4.59658 0
M  V30 31135 H 2950.22 0.134959 4.16181 0
M  V30 31136 H 2952.82 -2.599 4.67286 0
M  V30 31137 H 2953.16 -2.89975 2.98697 0
M  V30 31138 H 2953.7 -1.3737 3.73329 0
M  V30 31139 H 2950.43 -0.33798 6.54628 0
M  V30 31140 H 2949.95 -1.83307 5.71103 0
M  V30 31141 H 2951.63 -1.61689 6.26471 0
M  V30 31142 N 2951.77 -1.53818 -0.343203 0
M  V30 31143 C 2953 -1.74765 -1.10185 0
M  V30 31144 C 2953.4 -0.486889 -1.82828 0
M  V30 31145 O 2952.75 0.551167 -1.75237 0
M  V30 31146 C 2952.81 -2.87379 -2.15995 0
M  V30 31147 C 2952.47 -4.26972 -1.62924 0
M  V30 31148 C 2953.47 -5.08529 -1.08138 0
M  V30 31149 C 2951.15 -4.73457 -1.6776 0
M  V30 31150 C 2953.15 -6.34673 -0.588927 0
M  V30 31151 C 2950.84 -5.99574 -1.18127 0
M  V30 31152 C 2951.83 -6.80015 -0.63786 0
M  V30 31153 O 2951.52 -8.03762 -0.148931 0
M  V30 31154 H 2951.25 -0.587475 -0.334439 0
M  V30 31155 H 2953.81 -2.01446 -0.401073 0
M  V30 31156 H 2952.04 -2.56223 -2.89632 0
M  V30 31157 H 2953.73 -2.96292 -2.77427 0
M  V30 31158 H 2954.49 -4.73779 -1.03723 0
M  V30 31159 H 2950.37 -4.10903 -2.08997 0
M  V30 31160 H 2953.92 -6.97407 -0.16411 0
M  V30 31161 H 2949.81 -6.33819 -1.22243 0
M  V30 31162 H 2950.58 -8.18067 -0.266188 0
M  V30 31163 N 2953.24 0.604233 -1.45557 0
M  V30 31164 C 2954.49 1.36516 -1.4997 0
M  V30 31165 C 2954.82 1.93678 -0.142271 0
M  V30 31166 O 2954.1 1.75249 0.843686 0
M  V30 31167 C 2954.38 2.51058 -2.58151 0
M  V30 31168 C 2954.23 1.99071 -4.03349 0
M  V30 31169 C 2955.55 3.5318 -2.62588 0
M  V30 31170 H 2952.67 0.495026 -0.546002 0
M  V30 31171 H 2955.31 0.680813 -1.77384 0
M  V30 31172 H 2953.46 3.09437 -2.34906 0
M  V30 31173 H 2955.14 1.45316 -4.37814 0
M  V30 31174 H 2953.38 1.30048 -4.13848 0
M  V30 31175 H 2954.05 2.81656 -4.74736 0
M  V30 31176 H 2956.53 3.04647 -2.83424 0
M  V30 31177 H 2955.4 4.3081 -3.40138 0
M  V30 31178 H 2955.66 4.09016 -1.67805 0
M  V30 31179 N 2954.72 1.32903 0.847027 0
M  V30 31180 C 2955.97 1.24081 1.60411 0
M  V30 31181 C 2956.3 -0.195071 1.93218 0
M  V30 31182 O 2955.58 -1.13425 1.58003 0
M  V30 31183 C 2955.86 2.10805 2.91947 0
M  V30 31184 C 2955.71 3.6281 2.65874 0
M  V30 31185 C 2957.03 1.97501 3.93295 0
M  V30 31186 H 2954.15 0.452089 0.582052 0
M  V30 31187 H 2956.79 1.62924 0.977534 0
M  V30 31188 H 2954.94 1.77808 3.45422 0
M  V30 31189 H 2956.61 4.06058 2.18894 0
M  V30 31190 H 2954.86 3.85096 1.99709 0
M  V30 31191 H 2955.53 4.18826 3.59567 0
M  V30 31192 H 2958 2.26423 3.49101 0
M  V30 31193 H 2956.88 2.60446 4.83176 0
M  V30 31194 H 2957.14 0.944858 4.31885 0
M  V30 31195 N 2956.2 -1.06426 1.16238 0
M  V30 31196 C 2957.11 -2.17388 0.882014 0
M  V30 31197 C 2958.13 -1.73393 -0.145228 0
M  V30 31198 O 2959.3 -2.01376 0.0310912 0
M  V30 31199 C 2956.37 -3.44549 0.385557 0
M  V30 31200 C 2955.43 -4.03061 1.47786 0
M  V30 31201 C 2954.66 -5.24152 1.005 0
M  V30 31202 O 2954.88 -5.70214 -0.145789 0
M  V30 31203 O 2953.82 -5.74582 1.79275 0
M  V30 31204 H 2957.64 -2.43879 1.80988 0
M  V30 31205 H 2955.23 -1.1594 0.942246 0
M  V30 31206 H 2957.11 -4.21241 0.11561 0
M  V30 31207 H 2955.79 -3.19588 -0.514313 0
M  V30 31208 H 2954.69 -3.27865 1.80153 0
M  V30 31209 H 2956.03 -4.32314 2.35298 0
M  V30 31210 N 2957.68 -0.960653 -1.24937 0
M  V30 31211 C 2958.93 -0.617475 -1.92436 0
M  V30 31212 C 2959.25 0.84907 -1.75544 0
M  V30 31213 O 2958.52 1.60536 -1.12271 0
M  V30 31214 H 2957.1 -0.225384 -0.712188 0
M  V30 31215 H 2959.76 -1.2202 -1.51978 0
M  V30 31216 H 2958.86 -0.851986 -3.00246 0
M  V30 31217 N 2959.16 1.39677 -0.729931 0
M  V30 31218 C 2960.4 2.00219 -0.275112 0
M  V30 31219 C 2960.73 1.58201 1.14007 0
M  V30 31220 O 2960 0.827935 1.77544 0
M  V30 31221 H 2958.58 0.740447 -0.0987258 0
M  V30 31222 H 2961.24 1.70802 -0.93876 0
M  V30 31223 H 2960.33 3.1046 -0.3195 0
M  V30 31224 N 2960.63 0.47718 1.50202 0
M  V30 31225 C 2961.57 -0.359943 2.25343 0
M  V30 31226 C 2962.55 -0.990999 1.28911 0
M  V30 31227 O 2963.73 -1.02575 1.58147 0
M  V30 31228 C 2960.86 -1.50484 3.03434 0
M  V30 31229 C 2959.9 -0.990557 4.14838 0
M  V30 31230 S 2960.74 0.0996354 5.35407 0
M  V30 31231 C 2961.89 -1.049 6.17047 0
M  V30 31232 H 2962.12 0.277888 2.95998 0
M  V30 31233 H 2959.66 0.262141 1.52158 0
M  V30 31234 H 2961.62 -2.16098 3.49015 0
M  V30 31235 H 2960.28 -2.11421 2.32293 0
M  V30 31236 H 2959.47 -1.84786 4.68903 0
M  V30 31237 H 2959.07 -0.412031 3.71723 0
M  V30 31238 H 2961.36 -1.95934 6.48549 0
M  V30 31239 H 2962.31 -0.547472 7.0598 0
M  V30 31240 H 2962.71 -1.30557 5.49195 0
M  V30 31241 N 2962.11 -1.56194 0.210027 0
M  V30 31242 C 2963.52 -1.84275 -0.29991 0
M  V30 31243 C 2963.87 -1.13113 -1.60312 0
M  V30 31244 O 2963 -0.396911 -2.12729 0
M  V30 31245 C 2963.59 -3.34291 -0.550927 0
M  V30 31246 C 2962.15 -3.6273 -1.0052 0
M  V30 31247 C 2961.3 -2.77231 -0.0619341 0
M  V30 31248 H 2964.25 -1.52665 0.433485 0
M  V30 31249 H 2964.27 -3.53872 -1.3984 0
M  V30 31250 H 2963.78 -3.86057 0.397737 0
M  V30 31251 H 2961.89 -3.1641 -1.96762 0
M  V30 31252 H 2962 -4.70807 -0.887581 0
M  V30 31253 H 2960.36 -2.48318 -0.566605 0
M  V30 31254 H 2961.15 -3.31791 0.881441 0
M  V30 31255 N 2963.59 0.0634645 -1.57472 0
M  V30 31256 C 2964.82 0.777526 -1.92274 0
M  V30 31257 C 2965.24 1.69901 -0.807171 0
M  V30 31258 O 2964.6 1.79711 0.239491 0
M  V30 31259 C 2964.65 1.54011 -3.26057 0
M  V30 31260 O 2963.75 2.65133 -3.15877 0
M  V30 31261 H 2963.09 0.211568 -0.629393 0
M  V30 31262 H 2965.62 0.0292164 -2.04579 0
M  V30 31263 H 2965.63 1.91756 -3.6013 0
M  V30 31264 H 2964.31 0.864057 -4.06825 0
M  V30 31265 H 2962.88 2.30184 -2.93377 0
M  V30 31266 N 2965.07 1.53998 0.33504 0
M  V30 31267 C 2966.32 1.71314 1.0722 0
M  V30 31268 C 2966.64 0.483519 1.8891 0
M  V30 31269 O 2965.91 -0.502537 1.89345 0
M  V30 31270 H 2964.49 0.631617 0.398834 0
M  V30 31271 H 2967.15 1.91273 0.374254 0
M  V30 31272 H 2966.25 2.58775 1.74475 0
M  V30 31273 N 2966.55 -0.596505 1.45875 0
M  V30 31274 C 2967.79 -1.36638 1.52018 0
M  V30 31275 C 2968.15 -1.91313 0.162293 0
M  V30 31276 O 2969.35 -2.6862 0.0984361 0
M  V30 31277 C 2967.62 -2.47556 2.57781 0
M  V30 31278 S 2969.18 -3.35152 2.83229 0
M  V30 31279 H 2966 -0.465697 0.537259 0
M  V30 31280 H 2968.6 -0.687173 1.83025 0
M  V30 31281 H 2967.31 -2.05757 3.55094 0
M  V30 31282 H 2966.84 -3.20265 2.2846 0
M  V30 31283 H 2968.85 -4.46016 2.1745 0
M  V30 31284 N 2968.02 -1.3335 -0.839967 0
M  V30 31285 C 2969.25 -1.27927 -1.63247 0
M  V30 31286 C 2969.67 0.14716 -1.87523 0
M  V30 31287 O 2969.03 1.10342 -1.43855 0
M  V30 31288 C 2969.08 -2.05891 -2.96042 0
M  V30 31289 O 2968.18 -1.41676 -3.873 0
M  V30 31290 H 2967.53 -0.440165 -0.497142 0
M  V30 31291 H 2970.06 -1.75895 -1.04509 0
M  V30 31292 H 2970.07 -2.16615 -3.45748 0
M  V30 31293 H 2968.74 -3.0961 -2.77695 0
M  V30 31294 H 2967.32 -1.39591 -3.45787 0
M  V30 31295 N 2969.5 1.05808 -1.16801 0
M  V30 31296 C 2970.75 1.78344 -0.950674 0
M  V30 31297 C 2971.07 1.8787 0.522491 0
M  V30 31298 O 2970.34 1.39094 1.37948 0
M  V30 31299 H 2968.92 0.660594 -0.348748 0
M  V30 31300 H 2971.58 1.27788 -1.47161 0
M  V30 31301 H 2970.68 2.80246 -1.37364 0
M  V30 31302 N 2970.98 0.967265 1.24426 0
M  V30 31303 C 2972.21 0.646511 1.9654 0
M  V30 31304 C 2972.62 -0.783966 1.71754 0
M  V30 31305 O 2971.98 -1.52595 1.00105 0
M  V30 31306 C 2972.03 0.91116 3.49829 0
M  V30 31307 O 2971.75 2.2854 3.73766 0
M  V30 31308 C 2973.25 0.604535 4.39159 0
M  V30 31309 H 2970.47 0.241266 0.626124 0
M  V30 31310 H 2973.02 1.29508 1.58265 0
M  V30 31311 H 2971.17 0.308808 3.86167 0
M  V30 31312 H 2971.59 2.36508 4.6815 0
M  V30 31313 H 2973.06 0.840165 5.45569 0
M  V30 31314 H 2973.54 -0.461197 4.36772 0
M  V30 31315 H 2974.14 1.18677 4.08406 0
M  V30 31316 N 2972.46 -1.39288 0.737328 0
M  V30 31317 C 2973.68 -2.05287 0.295273 0
M  V30 31318 C 2974.11 -1.5523 -1.06232 0
M  V30 31319 O 2973.47 -0.697072 -1.67364 0
M  V30 31320 C 2973.52 -3.59272 0.30921 0
M  V30 31321 O 2972.62 -4.06375 -0.702365 0
M  V30 31322 H 2971.96 -0.650385 0.133773 0
M  V30 31323 H 2974.49 -1.78278 1.0039 0
M  V30 31324 H 2974.5 -4.07708 0.154408 0
M  V30 31325 H 2973.18 -3.95067 1.29981 0
M  V30 31326 H 2971.75 -3.69347 -0.513509 0
M  V30 31327 N 2973.94 -0.485139 -1.49947 0
M  V30 31328 C 2975.19 0.0667296 -2.0159 0
M  V30 31329 C 2975.5 1.39507 -1.37103 0
M  V30 31330 O 2976.71 2.0327 -1.79982 0
M  V30 31331 C 2975.16 0.169413 -3.59501 0
M  V30 31332 C 2974.77 -1.15133 -4.32953 0
M  V30 31333 C 2976.51 0.67249 -4.19139 0
M  V30 31334 C 2974.42 -1.01168 -5.82683 0
M  V30 31335 H 2973.35 0.0287126 -0.753453 0
M  V30 31336 H 2976 -0.622163 -1.72631 0
M  V30 31337 H 2974.38 0.922403 -3.85107 0
M  V30 31338 H 2975.56 -1.91638 -4.1906 0
M  V30 31339 H 2973.87 -1.58661 -3.84988 0
M  V30 31340 H 2976.47 0.794232 -5.28768 0
M  V30 31341 H 2976.81 1.66739 -3.8145 0
M  V30 31342 H 2977.35 -0.0235114 -3.97793 0
M  V30 31343 H 2974.08 -1.98036 -6.24869 0
M  V30 31344 H 2973.6 -0.287257 -5.99112 0
M  V30 31345 H 2975.28 -0.68396 -6.43375 0
M  V30 31346 N 2975.42 1.56081 -0.218307 0
M  V30 31347 C 2976.66 1.98217 0.414272 0
M  V30 31348 C 2976.99 1.10586 1.60003 0
M  V30 31349 O 2976.25 0.150078 1.95124 0
M  V30 31350 C 2976.54 3.46019 0.894722 0
M  V30 31351 C 2976.21 4.5054 -0.180162 0
M  V30 31352 C 2974.87 4.78845 -0.475451 0
M  V30 31353 C 2977.22 5.13242 -0.907281 0
M  V30 31354 C 2974.55 5.67137 -1.50243 0
M  V30 31355 C 2976.9 6.02645 -1.92357 0
M  V30 31356 C 2975.57 6.29296 -2.22582 0
M  V30 31357 H 2974.84 0.725328 0.151593 0
M  V30 31358 H 2977.49 1.88805 -0.320146 0
M  V30 31359 H 2975.79 3.52619 1.70784 0
M  V30 31360 H 2977.49 3.75992 1.39396 0
M  V30 31361 H 2974.08 4.28558 0.0601447 0
M  V30 31362 H 2978.26 4.91447 -0.692389 0
M  V30 31363 H 2973.52 5.86051 -1.74226 0
M  V30 31364 H 2977.69 6.50283 -2.49208 0
M  V30 31365 H 2975.32 6.97508 -3.02302 0
M  V30 31366 N 2976.89 -0.0551124 1.57504 0
M  V30 31367 C 2977.84 -1.08229 2.05886 0
M  V30 31368 C 2978.84 -1.3906 0.967407 0
M  V30 31369 O 2980.04 -1.3827 1.15244 0
M  V30 31370 H 2976.42 -0.366438 0.656679 0
M  V30 31371 H 2978.39 -0.648218 2.91274 0
M  V30 31372 C 2977.14 -2.38269 2.53226 0
M  V30 31373 H 2976.46 -2.154 3.36813 0
M  V30 31374 H 2977.9 -3.08549 2.90815 0
M  V30 31375 C 2976.36 -3.05408 1.42223 0
M  V30 31376 O 2976.89 -3.94178 0.773707 0
M  V30 31377 N 2975.09 -2.66304 1.16321 0
M  V30 31378 H 2974.64 -1.94204 1.69241 0
M  V30 31379 H 2974.6 -3.11547 0.422589 0
M  V30 31380 N 2978.37 -1.54173 -0.326869 0
M  V30 31381 C 2979.6 -1.76496 -1.08921 0
M  V30 31382 C 2980.02 -0.510555 -1.81039 0
M  V30 31383 O 2979.38 0.537725 -1.73142 0
M  V30 31384 C 2979.43 -2.95581 -2.06553 0
M  V30 31385 O 2978.53 -2.66896 -3.14389 0
M  V30 31386 H 2977.87 -0.584954 -0.314205 0
M  V30 31387 H 2980.4 -2.01187 -0.372172 0
M  V30 31388 H 2980.41 -3.22836 -2.49481 0
M  V30 31389 H 2979.09 -3.86552 -1.53462 0
M  V30 31390 H 2977.66 -2.5058 -2.76159 0
M  V30 31391 N 2979.85 0.58876 -1.4619 0
M  V30 31392 C 2980.78 1.71271 -1.50803 0
M  V30 31393 C 2981.76 1.58504 -0.362663 0
M  V30 31394 O 2982.94 1.79804 -0.56593 0
M  V30 31395 C 2980.07 3.09273 -1.38087 0
M  V30 31396 C 2979.12 3.40577 -2.56729 0
M  V30 31397 S 2979.95 3.3332 -4.19116 0
M  V30 31398 C 2981.11 4.7387 -4.08899 0
M  V30 31399 H 2981.34 1.67098 -2.45897 0
M  V30 31400 H 2978.87 0.767001 -1.34002 0
M  V30 31401 H 2980.83 3.88888 -1.31439 0
M  V30 31402 H 2979.49 3.10942 -0.444313 0
M  V30 31403 H 2978.68 4.41105 -2.43809 0
M  V30 31404 H 2978.29 2.68516 -2.60336 0
M  V30 31405 H 2980.58 5.64116 -3.75206 0
M  V30 31406 H 2981.52 4.91847 -5.09404 0
M  V30 31407 H 2981.93 4.50435 -3.40247 0
M  V30 31408 N 2981.33 1.33794 0.832883 0
M  V30 31409 C 2982.58 1.24935 1.58348 0
M  V30 31410 C 2982.89 -0.181669 1.94755 0
M  V30 31411 O 2984.1 -0.392328 2.6865 0
M  V30 31412 C 2982.55 2.18948 2.8564 0
M  V30 31413 C 2982.16 3.67252 2.56574 0
M  V30 31414 C 2983.9 2.18974 3.63663 0
M  V30 31415 C 2981.81 4.53162 3.79998 0
M  V30 31416 H 2980.74 0.464068 0.59427 0
M  V30 31417 H 2983.39 1.58896 0.917832 0
M  V30 31418 H 2981.77 1.77925 3.53778 0
M  V30 31419 H 2982.95 4.16751 1.9661 0
M  V30 31420 H 2981.26 3.69574 1.91844 0
M  V30 31421 H 2983.86 2.80387 4.55288 0
M  V30 31422 H 2984.2 1.18638 3.99037 0
M  V30 31423 H 2984.74 2.5839 3.02456 0
M  V30 31424 H 2981.47 5.54396 3.49751 0
M  V30 31425 H 2980.99 4.08403 4.3928 0
M  V30 31426 H 2982.67 4.67268 4.47515 0
M  V30 31427 N 2982.81 -1.05187 1.1736 0
M  V30 31428 C 2983.75 -2.15041 0.886565 0
M  V30 31429 C 2984.75 -1.68745 -0.148804 0
M  V30 31430 O 2985.95 -1.8 -0.00171959 0
M  V30 31431 H 2982.33 -0.70218 0.26916 0
M  V30 31432 H 2984.3 -2.36455 1.8202 0
M  V30 31433 C 2983.05 -3.45198 0.416394 0
M  V30 31434 H 2982.37 -3.81222 1.20456 0
M  V30 31435 H 2983.81 -4.23236 0.254436 0
M  V30 31436 C 2982.27 -3.25581 -0.865959 0
M  V30 31437 O 2982.8 -3.52148 -1.93274 0
M  V30 31438 N 2981.01 -2.78963 -0.81413 0
M  V30 31439 H 2980.55 -2.57543 0.0542071 0
M  V30 31440 H 2980.51 -2.66217 -1.67259 0
M  V30 31441 N 2984.28 -0.97385 -1.23911 0
M  V30 31442 C 2985.23 -0.501019 -2.2714 0
M  V30 31443 C 2986.23 0.438602 -1.63623 0
M  V30 31444 O 2987.43 0.313216 -1.77254 0
M  V30 31445 H 2983.81 -0.143573 -0.738167 0
M  V30 31446 H 2985.78 -1.38351 -2.64389 0
M  V30 31447 C 2984.53 0.187316 -3.47195 0
M  V30 31448 H 2983.85 -0.526605 -3.96317 0
M  V30 31449 H 2985.29 0.481888 -4.21253 0
M  V30 31450 C 2983.75 1.41637 -3.05681 0
M  V30 31451 O 2984.28 2.51303 -3.13384 0
M  V30 31452 N 2982.48 1.28464 -2.60663 0
M  V30 31453 H 2982.03 0.392335 -2.54595 0
M  V30 31454 H 2981.99 2.10809 -2.33253 0
M  V30 31455 N 2985.76 1.38895 -0.744705 0
M  V30 31456 C 2987.01 1.99549 -0.293751 0
M  V30 31457 C 2987.32 1.59779 1.12828 0
M  V30 31458 O 2988.53 2.13339 1.67925 0
M  V30 31459 C 2986.99 3.56762 -0.474251 0
M  V30 31460 C 2986.59 4.05489 -1.90479 0
M  V30 31461 C 2988.34 4.24414 -0.0855621 0
M  V30 31462 C 2986.24 5.5531 -2.03433 0
M  V30 31463 H 2985.17 0.746501 -0.10608 0
M  V30 31464 H 2987.83 1.58772 -0.919976 0
M  V30 31465 H 2986.21 3.95383 0.221022 0
M  V30 31466 H 2987.38 3.7818 -2.63281 0
M  V30 31467 H 2985.7 3.50532 -2.24758 0
M  V30 31468 H 2988.29 5.34457 -0.161227 0
M  V30 31469 H 2988.64 4.05066 0.960589 0
M  V30 31470 H 2989.17 3.91001 -0.732354 0
M  V30 31471 H 2985.91 5.7955 -3.06271 0
M  V30 31472 H 2985.43 5.84391 -1.3508 0
M  V30 31473 H 2987.11 6.20872 -1.82007 0
M  V30 31474 N 2987.24 0.493084 1.49688 0
M  V30 31475 C 2988.49 -0.0560378 2.01622 0
M  V30 31476 C 2988.8 -1.38778 1.37841 0
M  V30 31477 O 2990.01 -2.02313 1.81057 0
M  V30 31478 C 2988.46 -0.150345 3.59586 0
M  V30 31479 C 2988.07 1.17428 4.32336 0
M  V30 31480 C 2989.82 -0.650253 4.1949 0
M  V30 31481 C 2987.72 1.04256 5.82138 0
M  V30 31482 H 2986.65 -0.0247165 0.753595 0
M  V30 31483 H 2989.3 0.631309 1.72298 0
M  V30 31484 H 2987.69 -0.901967 3.85591 0
M  V30 31485 H 2988.86 1.93857 4.18038 0
M  V30 31486 H 2987.18 1.607 3.84141 0
M  V30 31487 H 2989.77 -0.766179 5.29182 0
M  V30 31488 H 2990.12 -1.64713 3.82329 0
M  V30 31489 H 2990.65 0.044607 3.97775 0
M  V30 31490 H 2987.39 2.01347 6.2381 0
M  V30 31491 H 2986.91 0.319025 5.98951 0
M  V30 31492 H 2988.59 0.71807 6.43003 0
M  V30 31493 N 2988.72 -1.55963 0.226582 0
M  V30 31494 C 2989.97 -1.9761 -0.404135 0
M  V30 31495 C 2990.28 -1.11743 -1.6054 0
M  V30 31496 O 2991.49 -1.43311 -2.30595 0
M  V30 31497 C 2989.94 -3.51558 -0.770404 0
M  V30 31498 C 2989.55 -4.46135 0.408322 0
M  V30 31499 C 2991.29 -4.01906 -1.36644 0
M  V30 31500 C 2989.2 -5.91397 0.0193386 0
M  V30 31501 H 2988.13 -0.737945 -0.154767 0
M  V30 31502 H 2990.78 -1.80624 0.323589 0
M  V30 31503 H 2989.16 -3.64162 -1.55569 0
M  V30 31504 H 2990.34 -4.45281 1.18583 0
M  V30 31505 H 2988.65 -4.06156 0.91793 0
M  V30 31506 H 2991.25 -5.07937 -1.67046 0
M  V30 31507 H 2991.59 -3.48053 -2.28397 0
M  V30 31508 H 2992.13 -3.92545 -0.644487 0
M  V30 31509 H 2988.87 -6.49244 0.903474 0
M  V30 31510 H 2988.39 -5.95434 -0.722381 0
M  V30 31511 H 2990.06 -6.45727 -0.405597 0
M  V30 31512 N 2990.2 0.0467589 -1.57531 0
M  V30 31513 C 2991.61 0.40208 -1.54452 0
M  V30 31514 C 2991.81 1.77683 -0.950306 0
M  V30 31515 O 2990.87 2.46129 -0.563645 0
M  V30 31516 C 2992.18 0.32016 -2.98991 0
M  V30 31517 C 2993.73 0.398534 -3.10452 0
M  V30 31518 C 2994.2 0.346255 -4.56689 0
M  V30 31519 N 2995.7 0.405584 -4.61421 0
M  V30 31520 C 2996.43 0.387745 -5.72087 0
M  V30 31521 N 2995.93 0.323238 -6.92046 0
M  V30 31522 N 2997.72 0.436165 -5.60405 0
M  V30 31523 H 2989.87 -0.853121 -1.94514 0
M  V30 31524 H 2992.13 -0.322685 -0.891391 0
M  V30 31525 H 2991.84 -0.623855 -3.46123 0
M  V30 31526 H 2991.71 1.12073 -3.60166 0
M  V30 31527 H 2994.1 1.33298 -2.63279 0
M  V30 31528 H 2994.18 -0.43107 -2.52142 0
M  V30 31529 H 2993.83 -0.584445 -5.04526 0
M  V30 31530 H 2993.76 1.19373 -5.12891 0
M  V30 31531 H 2996.25 0.458671 -3.75106 0
M  V30 31532 H 2996.56 0.31424 -7.72161 0
M  V30 31533 H 2994.9 0.289548 -6.94397 0
M  V30 31534 H 2998.1 0.484428 -4.65587 0
M  V30 31535 H 2998.27 0.418793 -6.46645 0
M  V30 31536 N 2991.67 1.54344 0.318688 0
M  V30 31537 C 2992.9 1.76752 1.07547 0
M  V30 31538 C 2993.32 0.518454 1.81542 0
M  V30 31539 O 2992.67 -0.511047 1.75199 0
M  V30 31540 C 2992.73 2.96382 2.06978 0
M  V30 31541 O 2992.45 4.1646 1.35988 0
M  V30 31542 C 2993.95 3.31039 2.94835 0
M  V30 31543 H 2991.17 0.589943 0.319701 0
M  V30 31544 H 2993.71 2.01246 0.363333 0
M  V30 31545 H 2991.87 2.74147 2.73719 0
M  V30 31546 H 2992.28 4.83785 2.02615 0
M  V30 31547 H 2993.75 4.18033 3.60489 0
M  V30 31548 H 2994.23 2.48418 3.62195 0
M  V30 31549 H 2994.84 3.5537 2.3365 0
M  V30 31550 N 2993.15 -0.580999 1.465 0
M  V30 31551 C 2994.08 -1.70014 1.60055 0
M  V30 31552 C 2995.06 -1.64017 0.450816 0
M  V30 31553 O 2996.25 -1.82007 0.677269 0
M  V30 31554 C 2993.38 -3.08655 1.59215 0
M  V30 31555 C 2992.33 -3.29483 2.73175 0
M  V30 31556 C 2991.66 -4.68669 2.57397 0
M  V30 31557 C 2992.96 -3.17153 4.14984 0
M  V30 31558 H 2994.65 -1.58926 2.53738 0
M  V30 31559 H 2992.2 -0.763152 1.22115 0
M  V30 31560 H 2994.15 -3.86771 1.67292 0
M  V30 31561 H 2992.88 -3.20646 0.620775 0
M  V30 31562 H 2991.53 -2.53768 2.6457 0
M  V30 31563 H 2991.18 -4.77428 1.58339 0
M  V30 31564 H 2990.88 -4.83558 3.33835 0
M  V30 31565 H 2992.41 -5.48951 2.67367 0
M  V30 31566 H 2993.82 -3.85111 4.24691 0
M  V30 31567 H 2992.22 -3.43562 4.92022 0
M  V30 31568 H 2993.29 -2.1421 4.3502 0
M  V30 31569 N 2994.63 -1.34234 -0.825776 0
M  V30 31570 C 2995.88 -1.25773 -1.57684 0
M  V30 31571 C 2996.19 0.171338 -1.94848 0
M  V30 31572 O 2997.4 0.378076 -2.68855 0
M  V30 31573 C 2995.85 -2.20459 -2.84474 0
M  V30 31574 C 2995.46 -3.68607 -2.54623 0
M  V30 31575 C 2997.21 -2.209 -3.62496 0
M  V30 31576 C 2995.11 -4.55171 -3.77589 0
M  V30 31577 H 2994.04 -0.467213 -0.591801 0
M  V30 31578 H 2996.69 -1.59381 -0.909393 0
M  V30 31579 H 2995.08 -1.79799 -3.52829 0
M  V30 31580 H 2996.25 -4.17788 -1.94397 0
M  V30 31581 H 2994.57 -3.70586 -1.89882 0
M  V30 31582 H 2997.16 -2.82797 -4.53795 0
M  V30 31583 H 2997.51 -1.20753 -3.98402 0
M  V30 31584 H 2998.04 -2.5999 -3.01081 0
M  V30 31585 H 2994.78 -5.56243 -3.46806 0
M  V30 31586 H 2994.3 -4.10727 -4.37108 0
M  V30 31587 H 2995.98 -4.69635 -4.4503 0
M  V30 31588 N 2996.11 1.04563 -1.17917 0
M  V30 31589 C 2997.04 2.14394 -0.92507 0
M  V30 31590 C 2998.02 1.69561 0.135345 0
M  V30 31591 O 2999.2 1.94193 -0.0162115 0
M  V30 31592 C 2996.33 3.44443 -0.44453 0
M  V30 31593 C 2995.29 4.02875 -1.44486 0
M  V30 31594 C 2994.61 5.28343 -0.822025 0
M  V30 31595 C 2995.91 4.39627 -2.82003 0
M  V30 31596 H 2997.61 2.35908 -1.84358 0
M  V30 31597 H 2995.15 1.13374 -0.887826 0
M  V30 31598 H 2997.11 4.20633 -0.254152 0
M  V30 31599 H 2995.83 3.22601 0.509536 0
M  V30 31600 H 2994.49 3.28761 -1.62208 0
M  V30 31601 H 2994.14 5.02808 0.139072 0
M  V30 31602 H 2993.84 5.68399 -1.48986 0
M  V30 31603 H 2995.36 6.07215 -0.642065 0
M  V30 31604 H 2996.78 5.06823 -2.67961 0
M  V30 31605 H 2995.17 4.90717 -3.45423 0
M  V30 31606 H 2996.24 3.49681 -3.35933 0
M  V30 31607 N 2997.59 0.980408 1.23393 0
M  V30 31608 C 2998.86 0.5657 1.87241 0
M  V30 31609 C 2999.24 -0.957164 1.88153 0
M  V30 31610 O 2998.59 -1.83388 1.36313 0
M  V30 31611 C 2998.8 1.17178 3.28741 0
M  V30 31612 C 3000.15 1.26453 4.05333 0
M  V30 31613 O 3001.17 1.12523 3.3796 0
M  V30 31614 O 3000.03 1.48613 5.25905 0
M  V30 31615 H 2997.13 0.190473 0.804766 0
M  V30 31616 H 2999.67 1.07549 1.31268 0
M  V30 31617 H 2998.44 2.21398 3.22643 0
M  V30 31618 H 2998.07 0.646808 3.92304 0
M  V30 31619 N 2999.06 -1.38498 0.75206 0
M  V30 31620 C 3000.03 -2.28822 0.131627 0
M  V30 31621 C 3001.03 -1.47116 -0.649123 0
M  V30 31622 O 3002.22 -1.67581 -0.475615 0
M  V30 31623 C 2999.35 -3.3084 -0.822043 0
M  V30 31624 H 3000.54 -2.85194 0.927601 0
M  V30 31625 H 2998.1 -1.47433 0.518971 0
M  V30 31626 H 2998.83 -2.79556 -1.64375 0
M  V30 31627 H 2998.62 -3.91206 -0.264621 0
M  V30 31628 H 3000.11 -3.98384 -1.25219 0
M  V30 31629 N 3000.54 -0.501015 -1.49424 0
M  V30 31630 C 3001.77 0.0402495 -2.06561 0
M  V30 31631 C 3002.18 1.31367 -1.3616 0
M  V30 31632 O 3001.52 1.78508 -0.433649 0
M  V30 31633 C 3001.59 0.364206 -3.5765 0
M  V30 31634 C 3001.25 -0.811496 -4.49737 0
M  V30 31635 C 3002.25 -1.70199 -4.91252 0
M  V30 31636 C 2999.93 -1.0103 -4.92035 0
M  V30 31637 C 3001.93 -2.77544 -5.73802 0
M  V30 31638 C 2999.61 -2.08693 -5.74361 0
M  V30 31639 C 3000.61 -2.96784 -6.15149 0
M  V30 31640 O 3000.3 -4.02589 -6.95828 0
M  V30 31641 H 3000.03 -0.0172476 -0.67578 0
M  V30 31642 H 3002.58 -0.697587 -1.93191 0
M  V30 31643 H 3000.81 1.15564 -3.69028 0
M  V30 31644 H 3002.5 0.844087 -3.97026 0
M  V30 31645 H 3003.27 -1.56021 -4.59219 0
M  V30 31646 H 2999.15 -0.33401 -4.59788 0
M  V30 31647 H 3002.69 -3.46331 -6.05558 0
M  V30 31648 H 2998.59 -2.22866 -6.05806 0
M  V30 31649 H 2999.36 -3.99942 -7.14135 0
M  V30 31650 N 3002.02 1.5584 -0.234849 0
M  V30 31651 C 3002.97 2.20868 0.669762 0
M  V30 31652 C 3003.94 1.16858 1.1804 0
M  V30 31653 O 3005.12 1.45263 1.23707 0
M  V30 31654 C 3002.26 2.90274 1.86641 0
M  V30 31655 C 3001.38 4.0891 1.39343 0
M  V30 31656 C 3000.51 4.66063 2.5487 0
M  V30 31657 C 2999.55 5.76973 2.04374 0
M  V30 31658 N 2998.69 6.2836 3.13222 0
M  V30 31659 H 3003.53 2.97802 0.108528 0
M  V30 31660 H 3001.06 1.47041 0.0418101 0
M  V30 31661 H 3003.02 3.28706 2.5692 0
M  V30 31662 H 3001.65 2.15835 2.40032 0
M  V30 31663 H 3000.7 3.75873 0.585107 0
M  V30 31664 H 3002.02 4.89013 0.98327 0
M  V30 31665 H 3001.17 5.07007 3.3321 0
M  V30 31666 H 2999.91 3.85152 2.99181 0
M  V30 31667 H 2998.91 5.35518 1.245 0
M  V30 31668 H 3000.14 6.59728 1.61046 0
M  V30 31669 H 2998.09 5.50358 3.56991 0
M  V30 31670 H 2998 7.03622 2.76499 0
M  V30 31671 H 2999.27 6.73962 3.91658 0
M  V30 31672 N 3003.5 -0.038404 1.57553 0
M  V30 31673 C 3004.75 -0.729638 1.88469 0
M  V30 31674 C 3005.07 -1.76391 0.831333 0
M  V30 31675 O 3004.34 -1.95426 -0.136186 0
M  V30 31676 H 3002.92 -0.272473 0.695534 0
M  V30 31677 H 3005.58 -0.00656894 1.94899 0
M  V30 31678 H 3004.68 -1.22506 2.87052 0
M  V30 31679 N 3004.98 -1.54511 -0.310498 0
M  V30 31680 C 3006.23 -1.72551 -1.04447 0
M  V30 31681 C 3006.54 -0.513205 -1.88747 0
M  V30 31682 O 3007.75 -0.575212 -2.65337 0
M  V30 31683 C 3006.2 -3.05249 -1.9066 0
M  V30 31684 C 3005.81 -4.33927 -1.11407 0
M  V30 31685 C 3007.55 -3.32649 -2.63713 0
M  V30 31686 C 3005.46 -5.5768 -1.96842 0
M  V30 31687 H 3004.39 -0.643074 -0.393665 0
M  V30 31688 H 3007.04 -1.80998 -0.301972 0
M  V30 31689 H 3005.42 -2.90742 -2.68859 0
M  V30 31690 H 3006.6 -4.5924 -0.378875 0
M  V30 31691 H 3004.91 -4.1339 -0.49978 0
M  V30 31692 H 3007.51 -4.22306 -3.27966 0
M  V30 31693 H 3007.85 -2.51104 -3.32043 0
M  V30 31694 H 3008.39 -3.48084 -1.92568 0
M  V30 31695 H 3005.12 -6.41866 -1.32998 0
M  V30 31696 H 3004.64 -5.36567 -2.6806 0
M  V30 31697 H 3006.32 -5.94579 -2.55117 0
M  V30 31698 N 3006.46 0.573222 -1.46806 0
M  V30 31699 C 3007.73 1.33365 -1.43084 0
M  V30 31700 C 3008.11 2.10763 -0.119289 0
M  V30 31701 O 3007.46 2.10063 0.899202 0
M  V30 31702 C 3007.67 2.25168 -2.66647 0
M  V30 31703 C 3009.02 2.86697 -3.13193 0
M  V30 31704 O 3010.04 2.35477 -2.67262 0
M  V30 31705 O 3008.9 3.79754 -3.93 0
M  V30 31706 H 3006 0.599702 -0.569461 0
M  V30 31707 H 3008.54 0.593452 -1.58985 0
M  V30 31708 H 3007.31 1.67469 -3.53652 0
M  V30 31709 H 3006.94 3.06511 -2.53252 0
M  V30 31710 N 3007.93 1.3467 0.818645 0
M  V30 31711 C 3008.86 1.29249 1.94466 0
M  V30 31712 C 3009.84 0.169131 1.69257 0
M  V30 31713 O 3011.03 0.362176 1.90793 0
M  V30 31714 C 3008.16 1.05151 3.30999 0
M  V30 31715 C 3007.11 2.13999 3.7066 0
M  V30 31716 C 3006.44 1.75083 5.05223 0
M  V30 31717 C 3007.74 3.55865 3.82305 0
M  V30 31718 H 3009.43 2.23464 1.99259 0
M  V30 31719 H 3006.98 1.07573 0.957286 0
M  V30 31720 H 3008.93 1.00002 4.09362 0
M  V30 31721 H 3007.66 0.0737886 3.26517 0
M  V30 31722 H 3006.32 2.18224 2.94574 0
M  V30 31723 H 3005.96 0.759605 4.97231 0
M  V30 31724 H 3005.66 2.47938 5.32729 0
M  V30 31725 H 3007.19 1.71437 5.86039 0
M  V30 31726 H 3008.6 3.54028 4.50929 0
M  V30 31727 H 3007 4.27378 4.2127 0
M  V30 31728 H 3008.07 3.92895 2.84186 0
M  V30 31729 N 3009.41 -1.03936 1.1847 0
M  V30 31730 C 3010.69 -1.74155 0.890466 0
M  V30 31731 C 3011.07 -2.02204 -0.606373 0
M  V30 31732 O 3010.42 -1.66825 -1.56147 0
M  V30 31733 C 3010.63 -3.02582 1.73911 0
M  V30 31734 C 3011.97 -3.76294 1.96693 0
M  V30 31735 O 3013 -3.12484 1.70975 0
M  V30 31736 O 3011.86 -4.90983 2.39995 0
M  V30 31737 H 3008.95 -0.757914 0.330902 0
M  V30 31738 H 3011.5 -1.0999 1.2923 0
M  V30 31739 H 3010.27 -2.78001 2.75374 0
M  V30 31740 H 3009.89 -3.74486 1.33588 0
M  V30 31741 N 3010.89 -0.986938 -1.22871 0
M  V30 31742 C 3011.84 -0.532255 -2.24579 0
M  V30 31743 C 3012.81 0.432293 -1.60376 0
M  V30 31744 O 3013.99 0.338383 -1.87775 0
M  V30 31745 C 3011.13 0.152803 -3.44762 0
M  V30 31746 C 3010.24 -0.852779 -4.23499 0
M  V30 31747 C 3009.38 -0.141854 -5.31011 0
M  V30 31748 C 3008.42 -1.13621 -6.01462 0
M  V30 31749 N 3007.56 -0.453995 -7.00631 0
M  V30 31750 H 3012.4 -1.40433 -2.62836 0
M  V30 31751 H 3009.93 -0.703566 -1.29183 0
M  V30 31752 H 3011.89 0.566853 -4.13331 0
M  V30 31753 H 3010.52 0.988702 -3.07286 0
M  V30 31754 H 3009.57 -1.38518 -3.54284 0
M  V30 31755 H 3010.88 -1.61023 -4.72094 0
M  V30 31756 H 3010.04 0.329231 -6.05806 0
M  V30 31757 H 3008.78 0.648144 -4.83374 0
M  V30 31758 H 3007.78 -1.61798 -5.25454 0
M  V30 31759 H 3009.01 -1.92698 -6.51187 0
M  V30 31760 H 3006.95 0.316675 -6.55235 0
M  V30 31761 H 3006.87 -1.14999 -7.47202 0
M  V30 31762 H 3008.14 -0.00551525 -7.795 0
M  V30 31763 N 3012.37 1.38098 -0.759394 0
M  V30 31764 C 3013.3 2.3301 -0.151118 0
M  V30 31765 C 3014.28 1.55161 0.697072 0
M  V30 31766 O 3015.46 1.83453 0.637069 0
M  V30 31767 C 3012.59 3.3936 0.738364 0
M  V30 31768 C 3011.55 4.27999 -0.00754933 0
M  V30 31769 C 3010.87 5.25255 1.00057 0
M  V30 31770 C 3012.17 5.08811 -1.17935 0
M  V30 31771 H 3013.87 2.84129 -0.943983 0
M  V30 31772 H 3011.41 1.3661 -0.455386 0
M  V30 31773 H 3013.37 4.04727 1.17362 0
M  V30 31774 H 3012.09 2.86738 1.56361 0
M  V30 31775 H 3010.75 3.64146 -0.423443 0
M  V30 31776 H 3010.4 4.68918 1.82003 0
M  V30 31777 H 3010.1 5.85416 0.506096 0
M  V30 31778 H 3011.62 5.93498 1.43501 0
M  V30 31779 H 3013.04 5.67386 -0.821362 0
M  V30 31780 H 3011.43 5.78236 -1.60507 0
M  V30 31781 H 3012.5 4.42209 -1.98946 0
M  V30 31782 N 3013.85 0.508932 1.49156 0
M  V30 31783 C 3014.79 -0.265248 2.29271 0
M  V30 31784 C 3015.76 -0.953138 1.36031 0
M  V30 31785 O 3016.95 -0.958262 1.64991 0
M  V30 31786 C 3014.09 -1.31898 3.18899 0
M  V30 31787 C 3013.2 -0.642069 4.27202 0
M  V30 31788 C 3012.34 -1.67693 5.04036 0
M  V30 31789 C 3011.37 -0.982315 6.04166 0
M  V30 31790 N 3010.51 -1.96174 6.74137 0
M  V30 31791 H 3015.35 0.424159 2.94966 0
M  V30 31792 H 3012.89 0.221016 1.4543 0
M  V30 31793 H 3014.85 -1.94199 3.69246 0
M  V30 31794 H 3013.48 -1.97705 2.55172 0
M  V30 31795 H 3012.53 0.0944063 3.80283 0
M  V30 31796 H 3013.84 -0.095663 4.98708 0
M  V30 31797 H 3012.99 -2.37478 5.58291 0
M  V30 31798 H 3011.73 -2.2572 4.32321 0
M  V30 31799 H 3010.74 -0.270282 5.49135 0
M  V30 31800 H 3011.96 -0.408434 6.77871 0
M  V30 31801 H 3009.91 -2.53148 6.05188 0
M  V30 31802 H 3009.83 -1.46621 7.41646 0
M  V30 31803 H 3011.09 -2.65223 7.32992 0
M  V30 31804 N 3015.32 -1.55714 0.243111 0
M  V30 31805 C 3016.57 -1.98027 -0.383153 0
M  V30 31806 C 3016.89 -1.13439 -1.59345 0
M  V30 31807 O 3018.09 -1.45749 -2.29062 0
M  V30 31808 C 3016.55 -3.52355 -0.733073 0
M  V30 31809 C 3016.16 -4.45677 0.455618 0
M  V30 31810 C 3017.9 -4.03333 -1.32374 0
M  V30 31811 C 3015.81 -5.91343 0.0820631 0
M  V30 31812 H 3014.74 -0.739545 -0.146931 0
M  V30 31813 H 3017.39 -1.80271 0.342729 0
M  V30 31814 H 3015.77 -3.65792 -1.51698 0
M  V30 31815 H 3016.94 -4.43998 1.23299 0
M  V30 31816 H 3015.26 -4.0516 0.960957 0
M  V30 31817 H 3017.86 -5.0968 -1.61649 0
M  V30 31818 H 3018.2 -3.50456 -2.24692 0
M  V30 31819 H 3018.73 -3.93206 -0.602816 0
M  V30 31820 H 3015.47 -6.48249 0.972285 0
M  V30 31821 H 3014.99 -5.96167 -0.659186 0
M  V30 31822 H 3016.67 -6.46121 -0.337086 0
M  V30 31823 N 3016.8 0.030048 -1.57571 0
M  V30 31824 C 3017.73 1.03048 -2.09531 0
M  V30 31825 C 3018.71 1.37773 -0.997634 0
M  V30 31826 O 3019.9 1.46674 -1.27281 0
M  V30 31827 C 3017.03 2.3317 -2.57389 0
M  V30 31828 C 3015.98 2.1269 -3.71412 0
M  V30 31829 C 3015.31 3.48563 -4.05473 0
M  V30 31830 C 3016.61 1.51387 -4.99879 0
M  V30 31831 H 3018.3 0.597947 -2.93368 0
M  V30 31832 H 3015.85 0.286179 -1.41128 0
M  V30 31833 H 3017.8 3.03485 -2.9236 0
M  V30 31834 H 3016.53 2.78481 -1.70634 0
M  V30 31835 H 3015.18 1.44807 -3.36789 0
M  V30 31836 H 3014.83 3.91521 -3.15786 0
M  V30 31837 H 3014.53 3.35685 -4.82275 0
M  V30 31838 H 3016.06 4.20242 -4.42977 0
M  V30 31839 H 3017.47 2.11619 -5.32813 0
M  V30 31840 H 3015.87 1.49088 -5.81286 0
M  V30 31841 H 3016.94 0.479591 -4.82522 0
M  V30 31842 N 3018.28 1.54674 0.3023 0
M  V30 31843 C 3019.24 1.84793 1.35589 0
M  V30 31844 C 3020.24 0.720756 1.43742 0
M  V30 31845 O 3021.43 0.989043 1.434 0
M  V30 31846 C 3018.57 2.02704 2.74087 0
M  V30 31847 H 3019.76 2.78948 1.10127 0
M  V30 31848 H 3017.31 1.46716 0.538901 0
M  V30 31849 H 3018.05 1.10832 3.04773 0
M  V30 31850 H 3017.83 2.84745 2.6956 0
M  V30 31851 H 3019.32 2.27381 3.50268 0
M  V30 31852 N 3019.76 -0.565428 1.47108 0
M  V30 31853 C 3020.99 -1.34662 1.56684 0
M  V30 31854 C 3021.4 -1.87997 0.213044 0
M  V30 31855 O 3020.74 -1.65239 -0.8026 0
M  V30 31856 C 3020.8 -2.55866 2.52533 0
M  V30 31857 C 3020.47 -2.23876 3.98407 0
M  V30 31858 C 3021.46 -1.81665 4.87128 0
M  V30 31859 C 3019.15 -2.35488 4.43678 0
M  V30 31860 C 3021.14 -1.51483 6.19138 0
M  V30 31861 C 3018.83 -2.0492 5.75718 0
M  V30 31862 C 3019.83 -1.62984 6.63269 0
M  V30 31863 O 3019.51 -1.32799 7.92855 0
M  V30 31864 H 3019.25 -0.417108 0.531975 0
M  V30 31865 H 3021.8 -0.692635 1.93369 0
M  V30 31866 H 3020.03 -3.24128 2.10898 0
M  V30 31867 H 3021.72 -3.17941 2.52326 0
M  V30 31868 H 3022.49 -1.72193 4.53403 0
M  V30 31869 H 3018.36 -2.67089 3.75745 0
M  V30 31870 H 3021.91 -1.18678 6.87431 0
M  V30 31871 H 3017.81 -2.14021 6.08987 0
M  V30 31872 H 3018.57 -1.46499 8.05283 0
M  V30 31873 N 3021.24 -1.35102 -0.811492 0
M  V30 31874 C 3022.48 -1.27847 -1.56523 0
M  V30 31875 C 3022.81 0.148255 -1.94436 0
M  V30 31876 O 3022.08 1.08356 -1.63205 0
M  V30 31877 H 3020.66 -0.47023 -0.580425 0
M  V30 31878 H 3023.32 -1.69148 -0.968247 0
M  V30 31879 H 3022.41 -1.89102 -2.48288 0
M  V30 31880 N 3022.71 1.03306 -1.19019 0
M  V30 31881 C 3023.99 1.73681 -0.899689 0
M  V30 31882 C 3024.37 2.02522 0.595641 0
M  V30 31883 O 3023.72 1.6765 1.5526 0
M  V30 31884 C 3023.93 3.01656 -1.75513 0
M  V30 31885 C 3025.28 3.75245 -1.98686 0
M  V30 31886 O 3026.3 3.11573 -1.7263 0
M  V30 31887 O 3025.16 4.89704 -2.42595 0
M  V30 31888 H 3022.25 0.756148 -0.334917 0
M  V30 31889 H 3024.8 1.09303 -1.29811 0
M  V30 31890 H 3023.57 2.76537 -2.76845 0
M  V30 31891 H 3023.2 3.73773 -1.35572 0
M  V30 31892 N 3024.19 0.99344 1.22346 0
M  V30 31893 C 3025.47 0.585528 1.8663 0
M  V30 31894 C 3025.85 -0.937154 1.89158 0
M  V30 31895 O 3025.2 -1.81932 1.3825 0
M  V30 31896 C 3025.41 1.20658 3.27479 0
M  V30 31897 C 3026.76 1.30745 4.03969 0
M  V30 31898 O 3027.78 1.16101 3.36748 0
M  V30 31899 O 3026.64 1.54183 5.243 0
M  V30 31900 H 3023.73 0.198998 0.802701 0
M  V30 31901 H 3026.28 1.08935 1.3012 0
M  V30 31902 H 3025.05 2.24808 3.20277 0
M  V30 31903 H 3024.67 0.688381 3.91596 0
M  V30 31904 N 3025.67 -1.37693 0.766707 0
M  V30 31905 C 3026.6 -2.32927 0.163473 0
M  V30 31906 C 3027.58 -1.55528 -0.688834 0
M  V30 31907 O 3028.77 -1.83788 -0.627331 0
M  V30 31908 C 3025.9 -3.39747 -0.720356 0
M  V30 31909 C 3024.85 -4.27989 0.0302471 0
M  V30 31910 C 3024.18 -5.25778 -0.972696 0
M  V30 31911 C 3025.48 -5.08178 1.20632 0
M  V30 31912 H 3027.17 -2.83624 0.959038 0
M  V30 31913 H 3024.72 -1.36366 0.462625 0
M  V30 31914 H 3026.67 -4.05344 -1.15214 0
M  V30 31915 H 3025.39 -2.87563 -1.54839 0
M  V30 31916 H 3024.05 -3.63917 0.442749 0
M  V30 31917 H 3023.7 -4.69876 -1.79514 0
M  V30 31918 H 3023.4 -5.85677 -0.475043 0
M  V30 31919 H 3024.92 -5.94251 -1.40352 0
M  V30 31920 H 3026.34 -5.66942 0.85144 0
M  V30 31921 H 3024.74 -5.77377 1.63572 0
M  V30 31922 H 3025.81 -4.41147 2.01288 0
M  V30 31923 N 3027.15 -0.516835 -1.48884 0
M  V30 31924 C 3028.4 0.0239544 -2.01686 0
M  V30 31925 C 3028.71 1.36567 -1.40031 0
M  V30 31926 O 3029.92 1.99407 -1.84253 0
M  V30 31927 C 3028.37 0.0931193 -3.5978 0
M  V30 31928 C 3027.98 -1.24291 -4.30413 0
M  V30 31929 C 3029.72 0.583433 -4.20472 0
M  V30 31930 C 3027.63 -1.13505 -5.80406 0
M  V30 31931 H 3026.56 0.0127243 -0.753893 0
M  V30 31932 H 3029.21 -0.65864 -1.71272 0
M  V30 31933 H 3027.59 0.840509 -3.86977 0
M  V30 31934 H 3028.77 -2.00483 -4.14901 0
M  V30 31935 H 3027.08 -1.66791 -3.81536 0
M  V30 31936 H 3029.68 0.681894 -5.30334 0
M  V30 31937 H 3030.02 1.5861 -3.84901 0
M  V30 31938 H 3030.56 -0.107884 -3.97654 0
M  V30 31939 H 3027.3 -2.11246 -6.20528 0
M  V30 31940 H 3026.82 -0.414272 -5.98368 0
M  V30 31941 H 3028.49 -0.820275 -6.41779 0
M  V30 31942 N 3028.63 1.55583 -0.251365 0
M  V30 31943 C 3029.87 1.99346 0.372685 0
M  V30 31944 C 3030.21 1.13937 1.57264 0
M  V30 31945 O 3029.48 0.203804 1.93429 0
M  V30 31946 C 3029.76 3.51591 0.778183 0
M  V30 31947 C 3029.62 4.47764 -0.427473 0
M  V30 31948 C 3030.94 4.0906 1.62351 0
M  V30 31949 H 3028.05 0.724718 0.133989 0
M  V30 31950 H 3030.7 1.86681 -0.353569 0
M  V30 31951 H 3028.85 3.62515 1.39698 0
M  V30 31952 H 3030.52 4.48816 -1.06594 0
M  V30 31953 H 3028.76 4.20402 -1.06979 0
M  V30 31954 H 3029.43 5.51909 -0.100347 0
M  V30 31955 H 3031.91 4.01266 1.10113 0
M  V30 31956 H 3030.78 5.15843 1.87608 0
M  V30 31957 H 3031.05 3.57796 2.59682 0
M  V30 31958 N 3030.1 -0.0216912 1.57585 0
M  V30 31959 C 3031.33 -0.726275 1.94268 0
M  V30 31960 C 3031.75 -1.67701 0.851934 0
M  V30 31961 O 3031.11 -1.80283 -0.19176 0
M  V30 31962 C 3031.16 -1.45312 3.30025 0
M  V30 31963 O 3030.26 -2.56664 3.22796 0
M  V30 31964 H 3029.61 -0.194806 0.634781 0
M  V30 31965 H 3032.14 0.0250345 2.04585 0
M  V30 31966 H 3032.15 -1.82141 3.65087 0
M  V30 31967 H 3030.82 -0.75589 4.08973 0
M  V30 31968 H 3029.4 -2.22324 2.99377 0
M  V30 31969 N 3031.58 -1.54832 -0.294093 0
M  V30 31970 C 3032.81 -1.78182 -1.04569 0
M  V30 31971 C 3033.22 -0.544807 -1.81186 0
M  V30 31972 O 3032.56 0.495138 -1.76901 0
M  V30 31973 C 3032.63 -2.94105 -2.06743 0
M  V30 31974 C 3032.29 -4.31939 -1.49258 0
M  V30 31975 C 3033.29 -5.11712 -0.919046 0
M  V30 31976 C 3030.97 -4.78555 -1.52613 0
M  V30 31977 C 3032.97 -6.36226 -0.386712 0
M  V30 31978 C 3030.65 -6.03029 -0.989925 0
M  V30 31979 C 3031.65 -6.817 -0.421195 0
M  V30 31980 O 3031.34 -8.03829 0.106855 0
M  V30 31981 H 3031.07 -0.597817 -0.31558 0
M  V30 31982 H 3033.63 -2.0262 -0.336782 0
M  V30 31983 H 3031.86 -2.65308 -2.81334 0
M  V30 31984 H 3033.54 -3.04968 -2.6786 0
M  V30 31985 H 3034.31 -4.76839 -0.885979 0
M  V30 31986 H 3030.19 -4.17344 -1.95819 0
M  V30 31987 H 3033.73 -6.97576 0.0578474 0
M  V30 31988 H 3029.63 -6.37388 -1.02016 0
M  V30 31989 H 3030.4 -8.185 -0.00579139 0
M  V30 31990 N 3033.06 0.557619 -1.47405 0
M  V30 31991 C 3034.47 1.13974 -1.47874 0
M  V30 31992 C 3034.82 1.94809 -0.23321 0
M  V30 31993 O 3033.95 2.06028 0.661908 0
M  V30 31994 C 3034.54 2.07363 -2.67929 0
M  V30 31995 C 3033.1 2.60848 -2.71359 0
M  V30 31996 C 3032.25 1.37219 -2.40969 0
M  V30 31997 H 3035.2 0.344241 -1.54921 0
M  V30 31998 H 3035.22 2.91232 -2.44876 0
M  V30 31999 H 3034.73 1.48502 -3.58565 0
M  V30 32000 H 3032.83 3.23508 -1.84861 0
M  V30 32001 H 3032.95 3.01869 -3.72037 0
M  V30 32002 H 3031.31 1.67878 -1.91543 0
M  V30 32003 H 3032.09 0.801524 -3.33812 0
M  V30 32004 N 3034.54 1.35531 0.804316 0
M  V30 32005 C 3035.77 1.31859 1.5905 0
M  V30 32006 C 3036.18 -0.105516 1.88906 0
M  V30 32007 O 3035.52 -1.06856 1.49424 0
M  V30 32008 C 3035.58 2.06005 2.94622 0
M  V30 32009 C 3035.25 3.5518 2.8757 0
M  V30 32010 C 3036.24 4.49727 2.60848 0
M  V30 32011 C 3033.93 3.97859 3.06616 0
M  V30 32012 C 3035.92 5.84929 2.53252 0
M  V30 32013 C 3033.61 5.33157 2.98642 0
M  V30 32014 C 3034.61 6.26504 2.71996 0
M  V30 32015 O 3034.3 7.59318 2.6399 0
M  V30 32016 H 3034.03 0.45442 0.500478 0
M  V30 32017 H 3036.58 1.79001 1.00736 0
M  V30 32018 H 3034.81 1.53504 3.54927 0
M  V30 32019 H 3036.5 1.95383 3.55782 0
M  V30 32020 H 3037.27 4.1807 2.45851 0
M  V30 32021 H 3033.15 3.25586 3.26366 0
M  V30 32022 H 3036.69 6.5776 2.32374 0
M  V30 32023 H 3032.59 5.64426 3.13198 0
M  V30 32024 H 3033.35 7.6927 2.79581 0
M  V30 32025 N 3036.02 -1.02674 1.19565 0
M  V30 32026 C 3036.93 -2.14472 0.950728 0
M  V30 32027 C 3037.94 -1.73767 -0.0899914 0
M  V30 32028 O 3039.12 -2.01175 0.0951417 0
M  V30 32029 C 3036.18 -3.43148 0.494977 0
M  V30 32030 C 3035.25 -3.98155 1.60534 0
M  V30 32031 C 3034.48 -5.2069 1.17124 0
M  V30 32032 O 3034.7 -5.70389 0.0356939 0
M  V30 32033 O 3033.64 -5.68587 1.97464 0
M  V30 32034 H 3037.46 -2.37998 1.88655 0
M  V30 32035 H 3035.05 -1.12884 0.978655 0
M  V30 32036 H 3036.93 -4.2066 0.249566 0
M  V30 32037 H 3035.6 -3.21063 -0.412378 0
M  V30 32038 H 3034.51 -3.21968 1.90493 0
M  V30 32039 H 3035.84 -4.24609 2.48933 0
M  V30 32040 N 3037.5 -0.999914 -1.21817 0
M  V30 32041 C 3038.43 -0.576136 -2.26281 0
M  V30 32042 C 3039.41 0.400508 -1.65318 0
M  V30 32043 O 3040.59 0.289606 -1.92028 0
M  V30 32044 C 3037.72 0.103084 -3.47147 0
M  V30 32045 C 3036.68 -0.792819 -4.20593 0
M  V30 32046 C 3036 0.0197086 -5.34696 0
M  V30 32047 C 3037.3 -2.09302 -4.78529 0
M  V30 32048 H 3039 -1.44934 -2.61982 0
M  V30 32049 H 3036.54 -0.698338 -1.25933 0
M  V30 32050 H 3038.49 0.410994 -4.19391 0
M  V30 32051 H 3037.22 1.01089 -3.10562 0
M  V30 32052 H 3035.88 -1.08448 -3.50192 0
M  V30 32053 H 3035.53 0.928642 -4.94353 0
M  V30 32054 H 3035.23 -0.576763 -5.84763 0
M  V30 32055 H 3036.75 0.321551 -6.09753 0
M  V30 32056 H 3038.16 -1.84859 -5.42679 0
M  V30 32057 H 3036.56 -2.63891 -5.38964 0
M  V30 32058 H 3037.63 -2.76715 -3.98192 0
M  V30 32059 N 3038.97 1.37284 -0.773999 0
M  V30 32060 C 3040.25 1.93811 -0.263977 0
M  V30 32061 C 3040.63 1.70745 1.24135 0
M  V30 32062 O 3039.98 1.05753 2.02555 0
M  V30 32063 C 3040.19 3.43085 -0.639813 0
M  V30 32064 C 3041.54 4.20183 -0.61087 0
M  V30 32065 O 3042.56 3.51457 -0.57934 0
M  V30 32066 O 3041.42 5.4274 -0.639958 0
M  V30 32067 H 3038.51 0.824714 -0.0614476 0
M  V30 32068 H 3041.06 1.46558 -0.855503 0
M  V30 32069 H 3039.83 3.53466 -1.67862 0
M  V30 32070 H 3039.45 3.97594 -0.0213526 0
M  V30 32071 N 3040.45 0.524724 1.48608 0
M  V30 32072 C 3041.86 0.0829174 1.86516 0
M  V30 32073 C 3042.21 -1.3382 1.43481 0
M  V30 32074 O 3041.34 -2.00132 0.823174 0
M  V30 32075 C 3041.93 0.143699 3.38495 0
M  V30 32076 C 3040.49 -0.242885 3.75616 0
M  V30 32077 C 3039.64 0.505795 2.72648 0
M  V30 32078 H 3042.59 0.736257 1.40588 0
M  V30 32079 H 3042.61 -0.645889 3.74978 0
M  V30 32080 H 3042.12 1.17812 3.69786 0
M  V30 32081 H 3040.22 -1.27964 3.49937 0
M  V30 32082 H 3040.34 0.0930676 4.7901 0
M  V30 32083 H 3038.7 -0.0473034 2.54656 0
M  V30 32084 H 3039.48 1.54074 3.06783 0
M  V30 32085 N 3041.93 -1.55447 0.259613 0
M  V30 32086 C 3042.86 -2.19265 -0.667509 0
M  V30 32087 C 3043.87 -1.1727 -1.12923 0
M  V30 32088 O 3045.06 -1.44073 -1.05381 0
M  V30 32089 C 3042.16 -2.79224 -1.92061 0
M  V30 32090 C 3041.34 -4.06761 -1.60825 0
M  V30 32091 C 3040.4 -4.50915 -2.71223 0
M  V30 32092 O 3039.42 -5.17023 -2.38067 0
M  V30 32093 N 3040.62 -4.19759 -4.00977 0
M  V30 32094 H 3043.39 -2.99454 -0.121396 0
M  V30 32095 H 3040.95 -1.61702 0.0800804 0
M  V30 32096 H 3042.94 -3.05714 -2.65181 0
M  V30 32097 H 3041.51 -2.03118 -2.37617 0
M  V30 32098 H 3040.73 -3.87724 -0.711617 0
M  V30 32099 H 3042.02 -4.89886 -1.37437 0
M  V30 32100 H 3041.42 -3.66713 -4.30741 0
M  V30 32101 H 3039.97 -4.51057 -4.70522 0
M  V30 32102 N 3043.41 0.0133338 -1.57594 0
M  V30 32103 C 3044.65 0.701985 -1.90263 0
M  V30 32104 C 3044.99 1.74157 -0.85925 0
M  V30 32105 O 3044.26 1.94106 0.123743 0
M  V30 32106 C 3044.54 1.35726 -3.33542 0
M  V30 32107 C 3044.4 0.330129 -4.48587 0
M  V30 32108 C 3045.72 2.28705 -3.76008 0
M  V30 32109 H 3042.84 0.253727 -0.691948 0
M  V30 32110 H 3045.48 -0.0352228 -1.89967 0
M  V30 32111 H 3043.63 1.98561 -3.33925 0
M  V30 32112 H 3045.3 -0.297514 -4.6034 0
M  V30 32113 H 3043.54 -0.349002 -4.32394 0
M  V30 32114 H 3044.21 0.827412 -5.45764 0
M  V30 32115 H 3046.69 1.759 -3.77092 0
M  V30 32116 H 3045.57 2.71527 -4.77037 0
M  V30 32117 H 3045.83 3.16051 -3.09135 0
M  V30 32118 N 3044.89 1.54985 0.285878 0
M  V30 32119 C 3045.82 1.89986 1.35749 0
M  V30 32120 C 3046.8 0.760321 1.52162 0
M  V30 32121 O 3047.98 1.01736 1.65419 0
M  V30 32122 C 3045.11 2.16047 2.71921 0
M  V30 32123 C 3044.07 3.31883 2.70255 0
M  V30 32124 C 3043.39 3.43395 4.09858 0
M  V30 32125 C 3044.69 4.68609 2.30659 0
M  V30 32126 H 3046.39 2.7974 1.06704 0
M  V30 32127 H 3043.93 1.34596 0.51186 0
M  V30 32128 H 3045.88 2.39119 3.46987 0
M  V30 32129 H 3044.61 1.23079 3.02521 0
M  V30 32130 H 3043.27 3.08759 1.97645 0
M  V30 32131 H 3042.92 2.47917 4.3766 0
M  V30 32132 H 3042.62 4.21269 4.09641 0
M  V30 32133 H 3044.14 3.68745 4.86682 0
M  V30 32134 H 3045.55 4.9131 2.95444 0
M  V30 32135 H 3043.95 5.49305 2.41627 0
M  V30 32136 H 3045.02 4.68301 1.25785 0
M  V30 32137 N 3046.36 -0.549794 1.47699 0
M  V30 32138 C 3047.33 -1.63834 1.60285 0
M  V30 32139 C 3048.33 -1.53549 0.477421 0
M  V30 32140 O 3049.52 -1.57574 0.742693 0
M  V30 32141 C 3046.65 -3.03401 1.55436 0
M  V30 32142 H 3047.84 -1.54022 2.57327 0
M  V30 32143 H 3045.4 -0.770305 1.36 0
M  V30 32144 H 3046.13 -3.18739 0.597968 0
M  V30 32145 H 3045.92 -3.12275 2.37121 0
M  V30 32146 H 3047.41 -3.82581 1.67396 0
M  V30 32147 N 3047.84 -1.35955 -0.797117 0
M  V30 32148 C 3049.07 -1.32893 -1.58578 0
M  V30 32149 C 3049.49 0.0915233 -1.88578 0
M  V30 32150 O 3048.84 1.04622 -1.49534 0
M  V30 32151 C 3048.89 -2.14289 -2.9114 0
M  V30 32152 O 3048.61 -3.50798 -2.62436 0
M  V30 32153 C 3050.12 -2.18921 -3.85472 0
M  V30 32154 H 3047.34 -0.456153 -0.492103 0
M  V30 32155 H 3049.88 -1.78944 -0.989908 0
M  V30 32156 H 3048.03 -1.71814 -3.47216 0
M  V30 32157 H 3048.45 -3.93182 -3.47143 0
M  V30 32158 H 3049.92 -2.80246 -4.75569 0
M  V30 32159 H 3050.4 -1.19054 -4.22756 0
M  V30 32160 H 3051.01 -2.61599 -3.3533 0
M  V30 32161 N 3049.32 1.02038 -1.20108 0
M  V30 32162 C 3050.25 2.12383 -0.970338 0
M  V30 32163 C 3051.23 1.6981 0.0993481 0
M  V30 32164 O 3052.42 1.94115 -0.0573991 0
M  V30 32165 C 3049.55 3.43423 -0.517491 0
M  V30 32166 C 3048.5 3.99719 -1.52999 0
M  V30 32167 C 3047.83 5.26481 -0.93391 0
M  V30 32168 C 3049.13 4.33546 -2.91264 0
M  V30 32169 H 3050.82 2.31944 -1.8932 0
M  V30 32170 H 3048.37 1.11465 -0.911675 0
M  V30 32171 H 3050.32 4.19999 -0.343317 0
M  V30 32172 H 3049.04 3.23609 0.440993 0
M  V30 32173 H 3047.7 3.25247 -1.69145 0
M  V30 32174 H 3047.35 5.0299 0.0323879 0
M  V30 32175 H 3047.05 5.65111 -1.61009 0
M  V30 32176 H 3048.57 6.05716 -0.77072 0
M  V30 32177 H 3049.99 5.01026 -2.78651 0
M  V30 32178 H 3048.39 4.8328 -3.55754 0
M  V30 32179 H 3049.46 3.42477 -3.43275 0
M  V30 32180 N 3050.8 1.00636 1.21285 0
M  V30 32181 C 3052.05 0.688471 1.90012 0
M  V30 32182 C 3052.37 -0.783333 1.78575 0
M  V30 32183 O 3051.64 -1.56259 1.18152 0
M  V30 32184 H 3050.22 0.251661 0.703332 0
M  V30 32185 H 3052.88 1.27576 1.47344 0
M  V30 32186 H 3051.98 0.962833 2.96877 0
M  V30 32187 N 3052.28 -1.36872 0.781268 0
M  V30 32188 C 3053.22 -2.30157 0.172187 0
M  V30 32189 C 3054.19 -1.51574 -0.679301 0
M  V30 32190 O 3055.38 -1.8011 -0.629681 0
M  V30 32191 C 3052.52 -3.38061 -0.693474 0
M  V30 32192 C 3051.63 -4.31643 0.175662 0
M  V30 32193 C 3050.77 -5.26626 -0.695602 0
M  V30 32194 C 3049.81 -6.11848 0.175487 0
M  V30 32195 N 3048.94 -6.99045 -0.654293 0
M  V30 32196 H 3053.78 -2.81661 0.973182 0
M  V30 32197 H 3051.32 -1.38646 0.491494 0
M  V30 32198 H 3053.28 -3.99259 -1.21028 0
M  V30 32199 H 3051.91 -2.87897 -1.45998 0
M  V30 32200 H 3050.96 -3.71668 0.810361 0
M  V30 32201 H 3052.27 -4.91553 0.847193 0
M  V30 32202 H 3051.43 -5.93076 -1.27853 0
M  V30 32203 H 3050.16 -4.6715 -1.40079 0
M  V30 32204 H 3049.17 -5.44369 0.770875 0
M  V30 32205 H 3050.39 -6.73398 0.878148 0
M  V30 32206 H 3048.34 -6.42086 -1.34392 0
M  V30 32207 H 3048.26 -7.55989 -0.0402669 0
M  V30 32208 H 3049.53 -7.69873 -1.22131 0
M  V30 32209 N 3053.75 -0.532597 -1.48328 0
M  V30 32210 C 3054.7 0.242093 -2.31337 0
M  V30 32211 C 3055.7 0.932981 -1.41392 0
M  V30 32212 O 3056.9 0.857068 -1.58286 0
M  V30 32213 H 3053.28 0.0969405 -0.745726 0
M  V30 32214 H 3055.25 -0.477556 -2.94554 0
M  V30 32215 C 3054 1.2744 -3.23503 0
M  V30 32216 H 3053.32 0.752192 -3.9266 0
M  V30 32217 H 3054.76 1.78782 -3.84465 0
M  V30 32218 C 3053.22 2.3094 -2.45292 0
M  V30 32219 O 3053.75 3.37425 -2.17961 0
M  V30 32220 N 3051.96 2.04222 -2.06741 0
M  V30 32221 H 3051.5 1.17643 -2.29168 0
M  V30 32222 H 3051.46 2.73693 -1.54723 0
M  V30 32223 N 3055.23 1.55307 -0.267853 0
M  V30 32224 C 3056.46 2.03544 0.354037 0
M  V30 32225 C 3056.87 1.14589 1.50552 0
M  V30 32226 O 3056.21 0.157023 1.83028 0
M  V30 32227 C 3056.28 3.47946 0.904087 0
M  V30 32228 C 3055.94 4.56848 -0.11783 0
M  V30 32229 C 3056.94 5.11427 -0.934796 0
M  V30 32230 C 3054.62 5.01678 -0.249973 0
M  V30 32231 C 3056.62 6.09347 -1.87016 0
M  V30 32232 C 3054.3 5.99425 -1.18882 0
M  V30 32233 C 3055.3 6.5314 -1.99742 0
M  V30 32234 O 3054.99 7.48977 -2.92041 0
M  V30 32235 H 3054.72 0.670537 0.0857647 0
M  V30 32236 H 3057.27 2.01555 -0.395551 0
M  V30 32237 H 3055.5 3.47151 1.70362 0
M  V30 32238 H 3057.19 3.79563 1.43829 0
M  V30 32239 H 3057.96 4.7761 -0.843404 0
M  V30 32240 H 3053.84 4.59518 0.369389 0
M  V30 32241 H 3057.38 6.51199 -2.50171 0
M  V30 32242 H 3053.28 6.3266 -1.28106 0
M  V30 32243 H 3054.05 7.66668 -2.8664 0
M  V30 32244 N 3056.71 -0.00497598 1.57599 0
M  V30 32245 C 3057.96 -0.689497 1.89975 0
M  V30 32246 C 3058.28 -1.74588 0.868561 0
M  V30 32247 O 3057.55 -1.95671 -0.0947023 0
M  V30 32248 H 3056.13 -0.257658 0.701157 0
M  V30 32249 H 3058.79 0.0347735 1.94869 0
M  V30 32250 H 3057.89 -1.16389 2.89586 0
M  V30 32251 N 3058.19 -1.55135 -0.277654 0
M  V30 32252 C 3059.12 -1.90703 -1.34739 0
M  V30 32253 C 3060.1 -0.76838 -1.51756 0
M  V30 32254 O 3061.28 -1.02612 -1.64877 0
M  V30 32255 C 3058.41 -2.17486 -2.70771 0
M  V30 32256 C 3057.37 -3.33312 -2.68491 0
M  V30 32257 C 3056.69 -3.45564 -4.08031 0
M  V30 32258 C 3057.99 -4.69825 -2.2817 0
M  V30 32259 H 3059.69 -2.80302 -1.05219 0
M  V30 32260 H 3057.23 -1.34865 -0.504715 0
M  V30 32261 H 3059.19 -2.40955 -3.45714 0
M  V30 32262 H 3057.91 -1.24681 -3.01864 0
M  V30 32263 H 3056.57 -3.09803 -1.96005 0
M  V30 32264 H 3056.22 -2.50234 -4.36339 0
M  V30 32265 H 3055.92 -4.23436 -4.07401 0
M  V30 32266 H 3057.44 -3.71321 -4.8472 0
M  V30 32267 H 3058.86 -4.9287 -2.92835 0
M  V30 32268 H 3057.25 -5.50579 -2.38711 0
M  V30 32269 H 3058.32 -4.68962 -1.23299 0
M  V30 32270 N 3059.67 0.541953 -1.47989 0
M  V30 32271 C 3060.89 1.32344 -1.59037 0
M  V30 32272 C 3061.31 1.87188 -0.246156 0
M  V30 32273 O 3060.67 1.65791 0.762859 0
M  V30 32274 C 3060.72 2.4827 -2.62763 0
M  V30 32275 O 3060.44 1.95688 -3.91967 0
M  V30 32276 C 3061.94 3.40265 -2.84139 0
M  V30 32277 H 3059.16 0.402892 -0.536581 0
M  V30 32278 H 3061.7 0.655011 -1.93726 0
M  V30 32279 H 3059.86 3.1102 -2.30965 0
M  V30 32280 H 3060.27 2.71482 -4.48774 0
M  V30 32281 H 3061.75 4.17985 -3.60545 0
M  V30 32282 H 3062.22 3.94757 -1.92519 0
M  V30 32283 H 3062.83 2.83317 -3.17193 0
M  V30 32284 N 3061.15 1.36376 0.789896 0
M  V30 32285 C 3062.39 1.29909 1.54294 0
M  V30 32286 C 3062.71 -0.119617 1.95234 0
M  V30 32287 O 3063.91 -0.306661 2.69763 0
M  V30 32288 C 3062.37 2.27924 2.78529 0
M  V30 32289 C 3061.98 3.75228 2.4476 0
M  V30 32290 C 3063.72 2.30433 3.56512 0
M  V30 32291 C 3061.63 4.65022 3.65389 0
M  V30 32292 H 3060.56 0.482739 0.579205 0
M  V30 32293 H 3063.21 1.61736 0.866816 0
M  V30 32294 H 3061.59 1.8909 3.47938 0
M  V30 32295 H 3062.77 4.22795 1.83252 0
M  V30 32296 H 3061.08 3.7549 1.7999 0
M  V30 32297 H 3063.68 2.94729 4.46137 0
M  V30 32298 H 3064.02 1.31273 3.95061 0
M  V30 32299 H 3064.55 2.67881 2.94082 0
M  V30 32300 H 3061.29 5.65242 3.31936 0
M  V30 32301 H 3060.81 4.22171 4.26065 0
M  V30 32302 H 3062.49 4.81269 4.32422 0
M  V30 32303 N 3062.62 -1.014 1.20647 0
M  V30 32304 C 3063.85 -1.78633 1.04392 0
M  V30 32305 C 3064.27 -1.84367 -0.406738 0
M  V30 32306 O 3063.62 -1.29853 -1.28236 0
M  V30 32307 C 3063.67 -3.22976 1.62384 0
M  V30 32308 O 3063.4 -3.17592 3.01773 0
M  V30 32309 C 3064.9 -4.16748 1.51117 0
M  V30 32310 H 3062.12 -0.561684 0.367086 0
M  V30 32311 H 3064.66 -1.27621 1.59791 0
M  V30 32312 H 3062.82 -3.71128 1.11099 0
M  V30 32313 H 3063.23 -4.08211 3.29339 0
M  V30 32314 H 3064.7 -5.1586 1.9645 0
M  V30 32315 H 3065.18 -4.36741 0.464088 0
M  V30 32316 H 3065.79 -3.7448 2.01606 0
M  V30 32317 N 3064.1 -1.01278 -1.2075 0
M  V30 32318 C 3065.51 -0.732063 -1.71749 0
M  V30 32319 C 3065.86 0.749701 -1.81312 0
M  V30 32320 O 3064.99 1.58527 -1.47303 0
M  V30 32321 C 3065.58 -1.32222 -3.11934 0
M  V30 32322 C 3064.14 -1.09046 -3.60258 0
M  V30 32323 C 3063.29 -1.43026 -2.37568 0
M  V30 32324 H 3066.24 -1.18272 -1.05818 0
M  V30 32325 H 3066.26 -0.710837 -3.73801 0
M  V30 32326 H 3065.77 -2.40067 -3.04942 0
M  V30 32327 H 3063.87 -0.0295119 -3.72588 0
M  V30 32328 H 3063.99 -1.76782 -4.45292 0
M  V30 32329 H 3062.35 -0.849201 -2.40126 0
M  V30 32330 H 3063.13 -2.51919 -2.33221 0
M  V30 32331 N 3065.58 1.36456 -0.788516 0
M  V30 32332 C 3066.99 1.81827 -0.423774 0
M  V30 32333 C 3067.34 1.65601 1.05218 0
M  V30 32334 O 3066.47 1.17645 1.81628 0
M  V30 32335 C 3067.06 3.3011 -0.762412 0
M  V30 32336 C 3065.62 3.73694 -0.450511 0
M  V30 32337 C 3064.77 2.58737 -0.997527 0
M  V30 32338 H 3067.72 1.2469 -0.98174 0
M  V30 32339 H 3067.74 3.80463 -0.0531805 0
M  V30 32340 H 3067.25 3.41888 -1.83668 0
M  V30 32341 H 3065.35 3.67477 0.615764 0
M  V30 32342 H 3065.47 4.69168 -0.970491 0
M  V30 32343 H 3063.83 2.512 -0.420805 0
M  V30 32344 H 3064.61 2.733 -2.07754 0
M  V30 32345 N 3067.06 0.540456 1.48043 0
M  V30 32346 C 3068.33 -0.0546958 1.95524 0
M  V30 32347 C 3068.71 -1.50248 1.48287 0
M  V30 32348 O 3068.06 -2.17056 0.714075 0
M  V30 32349 C 3068.27 0.0734007 3.48923 0
M  V30 32350 C 3069.62 -0.0805279 4.24524 0
M  V30 32351 O 3070.64 0.00011848 3.562 0
M  V30 32352 O 3069.5 -0.25112 5.45923 0
M  V30 32353 H 3066.6 -0.0734785 0.823729 0
M  V30 32354 H 3069.14 0.605796 1.58519 0
M  V30 32355 H 3067.92 1.0815 3.76057 0
M  V30 32356 H 3067.54 -0.625467 3.9265 0
M  V30 32357 N 3068.54 -1.55163 0.276085 0
M  V30 32358 C 3069.48 -2.22566 -0.610967 0
M  V30 32359 C 3070.45 -1.19947 -1.149 0
M  V30 32360 O 3071.64 -1.48492 -1.19812 0
M  V30 32361 C 3068.78 -2.9512 -1.7888 0
M  V30 32362 C 3067.89 -4.12461 -1.28453 0
M  V30 32363 C 3067.03 -4.72657 -2.42423 0
M  V30 32364 C 3066.06 -5.82189 -1.89004 0
M  V30 32365 N 3065.2 -6.36444 -2.96452 0
M  V30 32366 H 3070.04 -2.97985 -0.0295325 0
M  V30 32367 H 3067.58 -1.471 -0.00281021 0
M  V30 32368 H 3069.54 -3.35403 -2.48115 0
M  V30 32369 H 3068.17 -2.22123 -2.34225 0
M  V30 32370 H 3067.22 -3.77292 -0.485245 0
M  V30 32371 H 3068.53 -4.91448 -0.853272 0
M  V30 32372 H 3067.68 -5.15663 -3.1965 0
M  V30 32373 H 3066.42 -3.92948 -2.88865 0
M  V30 32374 H 3065.43 -5.38631 -1.10258 0
M  V30 32375 H 3066.65 -6.63766 -1.43498 0
M  V30 32376 H 3064.6 -5.59629 -3.42273 0
M  V30 32377 H 3064.52 -7.10706 -2.57746 0
M  V30 32378 H 3065.78 -6.84109 -3.73651 0
M  V30 32379 N 3070.01 -0.00338196 -1.576 0
M  V30 32380 C 3071.24 0.695276 -1.95399 0
M  V30 32381 C 3071.66 1.66325 -0.878505 0
M  V30 32382 O 3071.02 1.80565 0.163054 0
M  V30 32383 C 3071.07 1.40044 -3.32295 0
M  V30 32384 O 3070.17 2.51497 -3.26838 0
M  V30 32385 H 3069.51 0.184683 -0.637799 0
M  V30 32386 H 3072.04 -0.0575789 -2.04519 0
M  V30 32387 H 3072.05 1.76309 -3.67939 0
M  V30 32388 H 3070.73 0.690731 -4.10124 0
M  V30 32389 H 3069.31 2.17533 -3.02876 0
M  V30 32390 N 3071.49 1.5528 0.269423 0
M  V30 32391 C 3072.4 1.91507 1.35507 0
M  V30 32392 C 3073.42 0.812739 1.53852 0
M  V30 32393 O 3074.59 1.11213 1.6791 0
M  V30 32394 C 3071.66 2.18272 2.69367 0
M  V30 32395 C 3070.72 3.41811 2.59737 0
M  V30 32396 C 3069.95 3.6729 3.87213 0
M  V30 32397 O 3070.18 2.95217 4.8806 0
M  V30 32398 O 3069.11 4.60824 3.87201 0
M  V30 32399 H 3072.94 2.83931 1.0778 0
M  V30 32400 H 3070.52 1.41872 0.468257 0
M  V30 32401 H 3072.4 2.36895 3.48509 0
M  V30 32402 H 3071.08 1.29029 2.96872 0
M  V30 32403 H 3069.98 3.28519 1.78958 0
M  V30 32404 H 3071.32 4.31284 2.37181 0
M  V30 32405 N 3072.97 -0.534097 1.48274 0
M  V30 32406 C 3074.2 -1.31499 1.59736 0
M  V30 32407 C 3074.61 -1.87055 0.25608 0
M  V30 32408 O 3073.97 -1.66193 -0.754056 0
M  V30 32409 C 3074.02 -2.46873 2.64076 0
M  V30 32410 O 3073.74 -1.93607 3.92999 0
M  V30 32411 C 3075.24 -3.38753 2.85939 0
M  V30 32412 H 3072.46 -0.40004 0.53871 0
M  V30 32413 H 3075.01 -0.644728 1.94071 0
M  V30 32414 H 3073.16 -3.09791 2.32612 0
M  V30 32415 H 3073.58 -2.69098 4.50207 0
M  V30 32416 H 3075.05 -4.16067 3.62757 0
M  V30 32417 H 3075.53 -3.9373 1.9461 0
M  V30 32418 H 3076.13 -2.81631 3.18692 0
M  V30 32419 N 3074.45 -1.36793 -0.782652 0
M  V30 32420 C 3075.69 -1.31398 -1.5408 0
M  V30 32421 C 3076.02 0.104763 -1.94218 0
M  V30 32422 O 3075.28 1.07557 -1.63493 0
M  V30 32423 C 3075.58 -2.18877 -2.82538 0
M  V30 32424 C 3075.24 -3.67322 -2.61506 0
M  V30 32425 C 3073.9 -4.0778 -2.55478 0
M  V30 32426 C 3076.26 -4.61412 -2.42381 0
M  V30 32427 C 3073.58 -5.40458 -2.28302 0
M  V30 32428 C 3075.94 -5.94315 -2.1673 0
M  V30 32429 C 3074.6 -6.3389 -2.0914 0
M  V30 32430 H 3073.87 -0.48082 -0.56382 0
M  V30 32431 H 3076.52 -1.68905 -0.902406 0
M  V30 32432 H 3074.82 -1.74329 -3.5088 0
M  V30 32433 H 3076.52 -2.12023 -3.40363 0
M  V30 32434 H 3073.11 -3.3523 -2.67056 0
M  V30 32435 H 3077.29 -4.31023 -2.46035 0
M  V30 32436 H 3072.55 -5.70095 -2.20912 0
M  V30 32437 H 3076.72 -6.66784 -2.00928 0
M  V30 32438 H 3074.35 -7.36626 -1.87845 0
M  V30 32439 N 3075.93 1.00759 -1.21184 0
M  V30 32440 C 3077.15 1.78077 -1.05338 0
M  V30 32441 C 3077.57 1.8458 0.396955 0
M  V30 32442 O 3076.93 1.30531 1.27546 0
M  V30 32443 C 3076.98 3.22111 -1.64095 0
M  V30 32444 O 3076.7 3.15987 -3.03453 0
M  V30 32445 C 3078.2 4.1594 -1.53325 0
M  V30 32446 H 3075.42 0.559729 -0.37006 0
M  V30 32447 H 3077.96 1.26772 -1.60466 0
M  V30 32448 H 3076.12 3.70533 -1.13065 0
M  V30 32449 H 3076.53 4.06459 -3.31499 0
M  V30 32450 H 3078.01 5.14811 -1.99183 0
M  V30 32451 H 3078.48 4.36489 -0.487243 0
M  V30 32452 H 3079.09 3.73405 -2.03589 0
M  V30 32453 N 3077.4 1.01917 1.20211 0
M  V30 32454 C 3078.35 0.591611 2.23089 0
M  V30 32455 C 3079.32 -0.389621 1.61466 0
M  V30 32456 O 3080.51 -0.288478 1.88607 0
M  V30 32457 C 3077.65 -0.0613422 3.45045 0
M  V30 32458 C 3076.76 0.964762 4.21089 0
M  V30 32459 C 3075.89 0.282592 5.30448 0
M  V30 32460 C 3074.93 1.29528 5.98238 0
M  V30 32461 N 3074.07 0.639595 6.99181 0
M  V30 32462 H 3078.91 1.47352 2.5902 0
M  V30 32463 H 3076.45 0.737569 1.27273 0
M  V30 32464 H 3078.41 -0.457067 4.14689 0
M  V30 32465 H 3077.04 -0.906883 3.09799 0
M  V30 32466 H 3076.09 1.47863 3.50486 0
M  V30 32467 H 3077.4 1.73483 4.67659 0
M  V30 32468 H 3076.55 -0.168496 6.06466 0
M  V30 32469 H 3075.29 -0.519758 4.84922 0
M  V30 32470 H 3074.3 1.75673 5.20979 0
M  V30 32471 H 3075.52 2.09895 6.45849 0
M  V30 32472 H 3073.47 -0.14284 6.55844 0
M  V30 32473 H 3073.39 1.34769 7.43891 0
M  V30 32474 H 3074.65 0.212184 7.79211 0
M  V30 32475 N 3078.88 -1.36036 0.795742 0
M  V30 32476 C 3079.82 -2.27743 0.144309 0
M  V30 32477 C 3080.79 -1.47545 -0.683325 0
M  V30 32478 O 3081.98 -1.7683 -0.652945 0
M  V30 32479 C 3079.1 -3.29095 -0.800886 0
M  V30 32480 C 3078.15 -4.26465 -0.0542485 0
M  V30 32481 S 3078.98 -5.20116 1.27435 0
M  V30 32482 C 3080.14 -6.25012 0.333323 0
M  V30 32483 H 3080.37 -2.82646 0.921876 0
M  V30 32484 H 3077.91 -1.42672 0.590266 0
M  V30 32485 H 3079.86 -3.87987 -1.34075 0
M  V30 32486 H 3078.52 -2.73092 -1.55175 0
M  V30 32487 H 3077.72 -4.98057 -0.7717 0
M  V30 32488 H 3077.32 -3.71687 0.41533 0
M  V30 32489 H 3079.61 -6.75758 -0.485485 0
M  V30 32490 H 3080.55 -7.00743 1.01811 0
M  V30 32491 H 3080.96 -5.64461 -0.0661567 0
M  V30 32492 N 3080.36 -0.5483 -1.47755 0
M  V30 32493 C 3081.59 -0.0255236 -2.06884 0
M  V30 32494 C 3082 1.2642 -1.40227 0
M  V30 32495 O 3081.36 1.75636 -0.495807 0
M  V30 32496 C 3081.41 0.18307 -3.61036 0
M  V30 32497 O 3081.13 -1.05557 -4.25193 0
M  V30 32498 C 3082.63 0.744145 -4.3701 0
M  V30 32499 H 3079.85 -0.0418007 -0.669697 0
M  V30 32500 H 3082.4 -0.759171 -1.89886 0
M  V30 32501 H 3080.55 0.866819 -3.77578 0
M  V30 32502 H 3080.97 -0.84772 -5.17604 0
M  V30 32503 H 3082.44 0.839433 -5.4558 0
M  V30 32504 H 3082.92 1.75336 -4.02683 0
M  V30 32505 H 3083.52 0.0963795 -4.25191 0
M  V30 32506 N 3081.84 1.55014 -0.28431 0
M  V30 32507 C 3083.08 2.00815 0.323264 0
M  V30 32508 C 3083.44 1.16926 1.52794 0
M  V30 32509 O 3082.73 0.233532 1.90171 0
M  V30 32510 C 3082.93 3.49503 0.747158 0
M  V30 32511 C 3082.76 4.47782 -0.4149 0
M  V30 32512 C 3081.53 4.97191 -0.901618 0
M  V30 32513 C 3083.72 4.98767 -1.25442 0
M  V30 32514 N 3081.71 5.79289 -2.03218 0
M  V30 32515 C 3083.08 5.78403 -2.23272 0
M  V30 32516 C 3085.13 4.80987 -1.2867 0
M  V30 32517 C 3083.83 6.42152 -3.24088 0
M  V30 32518 C 3085.86 5.45543 -2.28336 0
M  V30 32519 C 3085.22 6.24997 -3.24898 0
M  V30 32520 H 3081.32 0.77756 0.083209 0
M  V30 32521 H 3083.91 1.90325 -0.410427 0
M  V30 32522 H 3082.08 3.60317 1.45005 0
M  V30 32523 H 3083.81 3.82122 1.33285 0
M  V30 32524 H 3080.56 4.71168 -0.479374 0
M  V30 32525 H 3080.99 6.25027 -2.60136 0
M  V30 32526 H 3085.63 4.19156 -0.553932 0
M  V30 32527 H 3083.35 7.03127 -3.98294 0
M  V30 32528 H 3086.93 5.33722 -2.31587 0
M  V30 32529 H 3085.81 6.74065 -4.00757 0
M  V30 32530 N 3083.32 0.0117398 1.57596 0
M  V30 32531 C 3084.23 -0.991927 2.12598 0
M  V30 32532 C 3085.24 -1.36897 1.07402 0
M  V30 32533 O 3086.42 -1.45392 1.39367 0
M  V30 32534 C 3083.48 -2.26136 2.628 0
M  V30 32535 C 3082.54 -1.94635 3.82643 0
M  V30 32536 C 3081.78 -3.15526 4.30441 0
M  V30 32537 O 3082 -4.27607 3.77503 0
M  V30 32538 O 3080.93 -2.98837 5.22475 0
M  V30 32539 H 3084.76 -0.554319 2.98598 0
M  V30 32540 H 3082.35 -0.207813 1.47948 0
M  V30 32541 H 3084.23 -3.0069 2.95235 0
M  V30 32542 H 3082.9 -2.69111 1.79891 0
M  V30 32543 H 3081.81 -1.1752 3.55162 0
M  V30 32544 H 3083.14 -1.56488 4.66661 0
M  V30 32545 N 3084.79 -1.55421 -0.261185 0
M  V30 32546 C 3085.74 -1.89915 -1.34294 0
M  V30 32547 C 3086.74 -0.776692 -1.50545 0
M  V30 32548 O 3087.94 -0.961165 -1.52189 0
M  V30 32549 H 3084.32 -0.602954 -0.449389 0
M  V30 32550 H 3086.29 -2.80258 -1.02459 0
M  V30 32551 C 3085.04 -2.19792 -2.69419 0
M  V30 32552 H 3084.36 -3.05657 -2.57709 0
M  V30 32553 H 3085.8 -2.47841 -3.44021 0
M  V30 32554 C 3084.26 -1.00944 -3.21422 0
M  V30 32555 O 3084.79 -0.250105 -4.00921 0
M  V30 32556 N 3083 -0.803932 -2.79258 0
M  V30 32557 H 3082.54 -1.42311 -2.14721 0
M  V30 32558 H 3082.5 -0.010381 -3.14398 0
M  V30 32559 N 3086.27 0.526227 -1.48555 0
M  V30 32560 C 3087.2 1.63956 -1.66255 0
M  V30 32561 C 3088.18 1.62231 -0.51138 0
M  V30 32562 O 3089.37 1.79368 -0.744354 0
M  V30 32563 C 3086.5 3.02533 -1.70561 0
M  V30 32564 C 3085.45 3.19118 -2.85215 0
M  V30 32565 C 3084.78 4.58793 -2.74614 0
M  V30 32566 C 3086.08 3.01532 -4.26469 0
M  V30 32567 H 3087.77 1.49399 -2.59462 0
M  V30 32568 H 3085.32 0.717304 -1.24863 0
M  V30 32569 H 3087.27 3.80295 -1.81531 0
M  V30 32570 H 3086 3.18121 -0.739353 0
M  V30 32571 H 3084.65 2.43774 -2.73806 0
M  V30 32572 H 3084.3 4.71223 -1.7595 0
M  V30 32573 H 3084 4.70834 -3.51552 0
M  V30 32574 H 3085.53 5.38649 -2.87557 0
M  V30 32575 H 3086.94 3.69084 -4.38691 0
M  V30 32576 H 3085.34 3.25064 -5.04434 0
M  V30 32577 H 3086.41 1.97917 -4.4267 0
M  V30 32578 N 3087.75 1.37206 0.775387 0
M  V30 32579 C 3088.98 1.35399 1.56444 0
M  V30 32580 C 3089.39 -0.0615106 1.887 0
M  V30 32581 O 3088.75 -1.0223 1.51179 0
M  V30 32582 C 3088.8 2.18894 2.87694 0
M  V30 32583 O 3088.52 3.54928 2.56822 0
M  V30 32584 C 3090.02 2.25026 3.8194 0
M  V30 32585 H 3087.24 0.463924 0.484784 0
M  V30 32586 H 3089.79 1.80497 0.961314 0
M  V30 32587 H 3087.94 1.77316 3.44439 0
M  V30 32588 H 3088.36 3.98655 3.40844 0
M  V30 32589 H 3089.83 2.87777 4.7105 0
M  V30 32590 H 3090.31 1.25765 4.20809 0
M  V30 32591 H 3090.91 2.66901 3.31125 0
M  V30 32592 N 3089.23 -1.00115 1.21716 0
M  V30 32593 C 3090.48 -1.73949 1.03673 0
M  V30 32594 C 3090.8 -1.89704 -0.429256 0
M  V30 32595 O 3090.06 -1.43121 -1.33472 0
M  V30 32596 C 3090.36 -3.15267 1.6835 0
M  V30 32597 C 3090.02 -3.19448 3.18219 0
M  V30 32598 C 3088.69 -3.20297 3.59115 0
M  V30 32599 C 3091.04 -3.16387 4.14184 0
M  V30 32600 C 3088.37 -3.15775 4.94473 0
M  V30 32601 C 3090.72 -3.13407 5.49508 0
M  V30 32602 C 3089.38 -3.12566 5.89795 0
M  V30 32603 H 3088.65 -0.636524 0.379366 0
M  V30 32604 H 3091.3 -1.1731 1.51363 0
M  V30 32605 H 3089.6 -3.75162 1.12963 0
M  V30 32606 H 3091.3 -3.71121 1.51888 0
M  V30 32607 H 3087.89 -3.19533 2.85651 0
M  V30 32608 H 3092.07 -3.14889 3.83613 0
M  V30 32609 H 3087.33 -3.13464 5.24929 0
M  V30 32610 H 3091.5 -3.09992 6.23601 0
M  V30 32611 H 3089.13 -3.08817 6.94648 0
M  V30 32612 N 3090.71 -1.02553 -1.19669 0
M  V30 32613 C 3091.64 -0.624004 -2.25008 0
M  V30 32614 C 3092.62 0.365351 -1.6613 0
M  V30 32615 O 3093.8 0.248809 -1.926 0
M  V30 32616 C 3090.93 0.0294259 -3.47288 0
M  V30 32617 C 3089.89 -0.881854 -4.18817 0
M  V30 32618 C 3089.21 -0.0937128 -5.34618 0
M  V30 32619 C 3090.51 -2.19405 -4.73982 0
M  V30 32620 H 3092.21 -1.50459 -2.58849 0
M  V30 32621 H 3089.75 -0.724893 -1.24424 0
M  V30 32622 H 3091.71 0.321943 -4.20168 0
M  V30 32623 H 3090.43 0.944783 -3.12636 0
M  V30 32624 H 3089.09 -1.15851 -3.47813 0
M  V30 32625 H 3088.74 0.823574 -4.96212 0
M  V30 32626 H 3088.44 -0.70067 -5.83408 0
M  V30 32627 H 3089.96 0.192142 -6.10298 0
M  V30 32628 H 3091.38 -1.96329 -5.38635 0
M  V30 32629 H 3089.77 -2.75263 -5.33245 0
M  V30 32630 H 3090.84 -2.85099 -3.92233 0
M  V30 32631 N 3092.19 1.35612 -0.802945 0
M  V30 32632 C 3093.13 2.29854 -0.208781 0
M  V30 32633 C 3094.1 1.52636 0.655101 0
M  V30 32634 O 3095.29 1.81089 0.600947 0
M  V30 32635 C 3092.43 3.39121 0.639604 0
M  V30 32636 C 3091.54 4.31309 -0.24431 0
M  V30 32637 C 3090.68 5.27666 0.611732 0
M  V30 32638 C 3089.71 6.11492 -0.272805 0
M  V30 32639 N 3088.85 6.99997 0.542999 0
M  V30 32640 H 3093.69 2.80078 -1.01787 0
M  V30 32641 H 3091.23 1.37847 -0.513489 0
M  V30 32642 H 3093.19 4.01134 1.14661 0
M  V30 32643 H 3091.82 2.90183 1.41399 0
M  V30 32644 H 3090.87 3.70332 -0.869387 0
M  V30 32645 H 3092.18 4.90143 -0.925288 0
M  V30 32646 H 3091.33 5.95034 1.18401 0
M  V30 32647 H 3090.07 4.6932 1.32629 0
M  V30 32648 H 3089.08 5.43074 -0.857382 0
M  V30 32649 H 3090.3 6.71916 -0.985169 0
M  V30 32650 H 3088.25 6.44143 1.2416 0
M  V30 32651 H 3088.17 7.55958 -0.0800095 0
M  V30 32652 H 3089.43 7.71719 1.09867 0
M  V30 32653 N 3093.66 0.556128 1.47462 0
M  V30 32654 C 3095.08 0.215818 1.58134 0
M  V30 32655 C 3095.28 -1.28163 1.55488 0
M  V30 32656 O 3094.34 -2.06172 1.45772 0
M  V30 32657 C 3095.65 0.841515 2.88685 0
M  V30 32658 C 3097.2 0.812644 3.02267 0
M  V30 32659 C 3097.67 1.41739 4.35516 0
M  V30 32660 N 3099.16 1.38053 4.42149 0
M  V30 32661 C 3099.9 1.81809 5.43814 0
M  V30 32662 N 3099.39 2.33416 6.52295 0
M  V30 32663 N 3101.19 1.72886 5.34852 0
M  V30 32664 H 3093.34 1.52904 1.47425 0
M  V30 32665 H 3095.6 0.637571 0.701575 0
M  V30 32666 H 3095.31 1.89386 2.96354 0
M  V30 32667 H 3095.18 0.333912 3.75719 0
M  V30 32668 H 3097.57 -0.231004 2.94194 0
M  V30 32669 H 3097.65 1.35799 2.16777 0
M  V30 32670 H 3097.29 2.4601 4.44344 0
M  V30 32671 H 3097.22 0.847493 5.19736 0
M  V30 32672 H 3099.71 1.00302 3.64346 0
M  V30 32673 H 3100.03 2.6473 7.26043 0
M  V30 32674 H 3098.37 2.37426 6.53188 0
M  V30 32675 H 3101.56 1.32346 4.49001 0
M  V30 32676 H 3101.74 2.07305 6.13945 0
M  V30 32677 N 3095.14 -1.54861 0.292527 0
M  V30 32678 C 3096.37 -2.04081 -0.321611 0
M  V30 32679 C 3096.78 -1.1697 -1.4871 0
M  V30 32680 O 3096.12 -0.186122 -1.82755 0
M  V30 32681 C 3096.18 -3.4934 -0.848617 0
M  V30 32682 C 3095.85 -4.56603 0.190496 0
M  V30 32683 C 3096.85 -5.09875 1.01604 0
M  V30 32684 C 3094.53 -5.01216 0.329754 0
M  V30 32685 C 3096.52 -6.06295 1.96687 0
M  V30 32686 C 3094.21 -5.97458 1.28403 0
M  V30 32687 C 3095.21 -6.4988 2.10108 0
M  V30 32688 O 3094.9 -7.44237 3.0392 0
M  V30 32689 H 3094.63 -0.671817 -0.0750862 0
M  V30 32690 H 3097.18 -2.00901 0.427566 0
M  V30 32691 H 3095.41 -3.49817 -1.64817 0
M  V30 32692 H 3097.1 -3.81803 -1.37772 0
M  V30 32693 H 3097.87 -4.76208 0.919281 0
M  V30 32694 H 3093.75 -4.60047 -0.296237 0
M  V30 32695 H 3097.29 -6.47136 2.605 0
M  V30 32696 H 3093.19 -6.30542 1.38155 0
M  V30 32697 H 3093.96 -7.62011 2.98801 0
M  V30 32698 N 3096.62 -0.0200973 -1.57587 0
M  V30 32699 C 3097.87 0.660491 -1.91426 0
M  V30 32700 C 3098.19 1.72651 -0.895656 0
M  V30 32701 O 3097.45 1.95461 0.0967366 0
M  V30 32702 C 3097.75 1.32317 -3.32004 0
M  V30 32703 C 3097.41 0.388408 -4.49224 0
M  V30 32704 C 3096.08 0.131099 -4.81021 0
M  V30 32705 C 3098.43 -0.253997 -5.20581 0
M  V30 32706 C 3095.76 -0.776573 -5.81538 0
M  V30 32707 C 3098.11 -1.14967 -6.22065 0
M  V30 32708 C 3096.77 -1.41596 -6.52309 0
M  V30 32709 H 3096.04 0.241691 -0.700476 0
M  V30 32710 H 3098.69 -0.0799327 -1.91333 0
M  V30 32711 H 3096.99 2.13813 -3.28316 0
M  V30 32712 H 3098.69 1.85617 -3.55454 0
M  V30 32713 H 3095.28 0.599132 -4.24392 0
M  V30 32714 H 3099.47 -0.0682513 -4.96253 0
M  V30 32715 H 3094.72 -0.990681 -6.0332 0
M  V30 32716 H 3098.9 -1.65369 -6.76481 0
M  V30 32717 H 3096.52 -2.12096 -7.30013 0
M  V30 32718 N 3098.1 1.55557 0.252939 0
M  V30 32719 C 3099.04 1.89808 1.31307 0
M  V30 32720 C 3100.01 0.751659 1.48119 0
M  V30 32721 O 3101.2 1.00477 1.62201 0
M  V30 32722 C 3098.34 2.19298 2.66463 0
M  V30 32723 C 3097.45 3.46714 2.57708 0
M  V30 32724 C 3096.59 3.65803 3.85177 0
M  V30 32725 C 3095.63 4.86841 3.71015 0
M  V30 32726 N 3094.76 5.02483 4.90363 0
M  V30 32727 H 3099.6 2.80219 1.01397 0
M  V30 32728 H 3097.14 1.38719 0.489438 0
M  V30 32729 H 3099.1 2.34399 3.45128 0
M  V30 32730 H 3097.73 1.32098 2.94533 0
M  V30 32731 H 3096.78 3.39977 1.70645 0
M  V30 32732 H 3098.09 4.35522 2.43151 0
M  V30 32733 H 3097.25 3.8083 4.72285 0
M  V30 32734 H 3095.99 2.75217 4.02625 0
M  V30 32735 H 3094.99 4.71797 2.8229 0
M  V30 32736 H 3096.22 5.78882 3.55068 0
M  V30 32737 H 3094.16 4.14833 5.08183 0
M  V30 32738 H 3094.08 5.85369 4.78413 0
M  V30 32739 H 3095.35 5.21916 5.78986 0
M  V30 32740 N 3099.58 -0.518341 1.48832 0
M  V30 32741 C 3100.99 -1.10014 1.50844 0
M  V30 32742 C 3101.34 -1.94122 0.284778 0
M  V30 32743 O 3100.46 -2.07711 -0.607051 0
M  V30 32744 C 3101.06 -2.00186 2.73333 0
M  V30 32745 C 3099.62 -2.53561 2.78179 0
M  V30 32746 C 3098.76 -1.30782 2.44523 0
M  V30 32747 H 3101.71 -0.303045 1.5578 0
M  V30 32748 H 3101.74 -2.84637 2.52511 0
M  V30 32749 H 3101.25 -1.38943 3.62376 0
M  V30 32750 H 3099.35 -3.18493 1.93373 0
M  V30 32751 H 3099.46 -2.91899 3.7991 0
M  V30 32752 H 3097.83 -1.62741 1.95927 0
M  V30 32753 H 3098.61 -0.712738 3.3582 0
M  V30 32754 N 3101.05 -1.37615 -0.7681 0
M  V30 32755 C 3102.33 -1.23557 -1.51635 0
M  V30 32756 C 3102.71 0.169294 -2.1042 0
M  V30 32757 O 3102.06 1.17731 -1.95836 0
M  V30 32758 C 3102.27 -2.33443 -2.59432 0
M  V30 32759 C 3103.62 -2.71163 -3.26735 0
M  V30 32760 O 3104.64 -2.32647 -2.69729 0
M  V30 32761 O 3103.5 -3.37531 -4.29808 0
M  V30 32762 H 3100.59 -0.482344 -0.671769 0
M  V30 32763 H 3103.14 -1.49405 -0.804752 0
M  V30 32764 H 3101.91 -3.27505 -2.1414 0
M  V30 32765 H 3101.53 -2.09079 -3.38189 0
M  V30 32766 N 3102.53 0.994677 -1.22245 0
M  V30 32767 C 3103.46 2.08642 -0.948742 0
M  V30 32768 C 3104.48 1.62641 0.0719763 0
M  V30 32769 O 3105.67 1.77765 -0.161809 0
M  V30 32770 C 3102.77 3.36472 -0.404945 0
M  V30 32771 C 3101.94 4.11512 -1.48246 0
M  V30 32772 C 3101 5.17625 -0.946061 0
M  V30 32773 O 3100.02 5.45306 -1.63186 0
M  V30 32774 N 3101.23 5.8003 0.233448 0
M  V30 32775 H 3103.99 2.32704 -1.88862 0
M  V30 32776 H 3101.55 1.1603 -1.1291 0
M  V30 32777 H 3103.54 4.04688 -0.0314614 0
M  V30 32778 H 3102.11 3.09488 0.440006 0
M  V30 32779 H 3101.33 3.37952 -2.02934 0
M  V30 32780 H 3102.62 4.58418 -2.20749 0
M  V30 32781 H 3102.02 5.59908 0.807462 0
M  V30 32782 H 3100.58 6.49489 0.548336 0
M  V30 32783 N 3104.01 1.03186 1.19123 0
M  V30 32784 C 3104.94 0.573333 2.21913 0
M  V30 32785 C 3105.95 -0.352369 1.58941 0
M  V30 32786 O 3107.14 -0.148287 1.77883 0
M  V30 32787 C 3104.24 -0.183491 3.38403 0
M  V30 32788 C 3103.42 0.747893 4.30959 0
M  V30 32789 C 3102.48 0.0359414 5.26188 0
M  V30 32790 O 3101.5 0.663487 5.6532 0
M  V30 32791 N 3102.7 -1.23377 5.67237 0
M  V30 32792 H 3105.47 1.45739 2.61878 0
M  V30 32793 H 3103.03 0.911255 1.3382 0
M  V30 32794 H 3105.02 -0.669398 3.99125 0
M  V30 32795 H 3103.59 -0.96899 2.97203 0
M  V30 32796 H 3102.81 1.41383 3.67973 0
M  V30 32797 H 3104.1 1.3808 4.89705 0
M  V30 32798 H 3103.5 -1.7643 5.37484 0
M  V30 32799 H 3102.05 -1.66412 6.30199 0
M  V30 32800 N 3105.49 -1.35184 0.810125 0
M  V30 32801 C 3106.74 -1.98667 0.392152 0
M  V30 32802 C 3107.06 -1.64261 -1.04157 0
M  V30 32803 O 3106.32 -0.899678 -1.73794 0
M  V30 32804 C 3106.62 -3.53499 0.526623 0
M  V30 32805 C 3106.28 -4.07782 1.92418 0
M  V30 32806 C 3104.95 -4.22319 2.30652 0
M  V30 32807 C 3107.3 -4.37136 2.83834 0
M  V30 32808 C 3104.63 -4.63529 3.59663 0
M  V30 32809 C 3106.98 -4.79786 4.12296 0
M  V30 32810 C 3105.64 -4.92528 4.50524 0
M  V30 32811 H 3104.91 -0.726973 0.143499 0
M  V30 32812 H 3107.56 -1.61339 1.0316 0
M  V30 32813 H 3105.86 -3.91308 -0.196262 0
M  V30 32814 H 3107.56 -4.00578 0.183941 0
M  V30 32815 H 3104.15 -3.96921 1.61714 0
M  V30 32816 H 3108.33 -4.25454 2.55543 0
M  V30 32817 H 3103.59 -4.71584 3.89125 0
M  V30 32818 H 3107.76 -5.0146 4.8323 0
M  V30 32819 H 3105.39 -5.24219 5.50544 0
M  V30 32820 N 3106.97 -0.56394 -1.47165 0
M  V30 32821 C 3108.38 -0.13234 -1.8623 0
M  V30 32822 C 3108.73 1.29969 -1.46978 0
M  V30 32823 O 3107.85 1.97879 -0.875946 0
M  V30 32824 C 3108.45 -0.233394 -3.37995 0
M  V30 32825 C 3107.01 0.143212 -3.76127 0
M  V30 32826 C 3106.15 -0.577905 -2.71211 0
M  V30 32827 H 3109.11 -0.773273 -1.38586 0
M  V30 32828 H 3109.13 0.546243 -3.76559 0
M  V30 32829 H 3108.64 -1.27574 -3.66533 0
M  V30 32830 H 3106.74 1.18641 -3.53207 0
M  V30 32831 H 3106.85 -0.220036 -4.78594 0
M  V30 32832 H 3105.22 -0.0202308 -2.54692 0
M  V30 32833 H 3106 -1.62154 -3.0259 0
M  V30 32834 N 3108.44 1.54704 -0.300735 0
M  V30 32835 C 3109.69 2.00134 0.308619 0
M  V30 32836 C 3110.02 1.18912 1.53916 0
M  V30 32837 O 3109.27 0.253298 1.94054 0
M  V30 32838 C 3109.57 3.50276 0.710046 0
M  V30 32839 C 3109.24 4.48952 -0.41873 0
M  V30 32840 C 3107.9 4.75652 -0.728608 0
M  V30 32841 C 3110.25 5.07712 -1.17806 0
M  V30 32842 C 3107.58 5.58375 -1.80095 0
M  V30 32843 C 3109.93 5.91602 -2.24032 0
M  V30 32844 C 3108.6 6.16613 -2.55626 0
M  V30 32845 H 3107.87 0.732344 0.112932 0
M  V30 32846 H 3110.51 1.86843 -0.419777 0
M  V30 32847 H 3108.82 3.61176 1.51852 0
M  V30 32848 H 3110.52 3.82852 1.1927 0
M  V30 32849 H 3107.11 4.28274 -0.167109 0
M  V30 32850 H 3111.29 4.87085 -0.951921 0
M  V30 32851 H 3106.55 5.75991 -2.05046 0
M  V30 32852 H 3110.72 6.36159 -2.83328 0
M  V30 32853 H 3108.35 6.80503 -3.38851 0
M  V30 32854 N 3109.92 0.0284543 1.57574 0
M  V30 32855 C 3110.85 -0.952002 2.13212 0
M  V30 32856 C 3111.83 -1.33975 1.04808 0
M  V30 32857 O 3113.02 -1.41849 1.32637 0
M  V30 32858 C 3110.15 -2.23456 2.65866 0
M  V30 32859 C 3109.1 -1.98758 3.7905 0
M  V30 32860 C 3108.43 -3.33274 4.1813 0
M  V30 32861 C 3109.73 -1.3273 5.05153 0
M  V30 32862 H 3111.42 -0.488653 2.95385 0
M  V30 32863 H 3108.97 -0.233603 1.42093 0
M  V30 32864 H 3110.92 -2.92426 3.03423 0
M  V30 32865 H 3109.65 -2.71956 1.80852 0
M  V30 32866 H 3108.3 -1.32207 3.41931 0
M  V30 32867 H 3107.95 -3.79531 3.30099 0
M  V30 32868 H 3107.65 -3.17555 4.94401 0
M  V30 32869 H 3109.18 -4.03512 4.58269 0
M  V30 32870 H 3110.59 -1.91698 5.403 0
M  V30 32871 H 3108.99 -1.27411 5.86418 0
M  V30 32872 H 3110.06 -0.300176 4.8397 0
M  V30 32873 N 3111.4 -1.55689 -0.244686 0
M  V30 32874 C 3112.65 -1.77887 -0.973855 0
M  V30 32875 C 3112.98 -0.594104 -1.84889 0
M  V30 32876 O 3112.25 0.407531 -1.90183 0
M  V30 32877 C 3112.54 -3.09987 -1.83249 0
M  V30 32878 C 3112.39 -4.38871 -0.985494 0
M  V30 32879 C 3113.71 -3.38334 -2.81458 0
M  V30 32880 H 3110.83 -0.647171 -0.352617 0
M  V30 32881 H 3113.47 -1.88424 -0.24421 0
M  V30 32882 H 3111.62 -3.01135 -2.45459 0
M  V30 32883 H 3113.29 -4.59716 -0.381924 0
M  V30 32884 H 3111.54 -4.3283 -0.289944 0
M  V30 32885 H 3112.21 -5.27689 -1.62013 0
M  V30 32886 H 3114.68 -3.47163 -2.29384 0
M  V30 32887 H 3113.56 -4.31977 -3.38655 0
M  V30 32888 H 3113.82 -2.59355 -3.58033 0
M  V30 32889 N 3112.88 0.510441 -1.49105 0
M  V30 32890 C 3113.83 1.60968 -1.61473 0
M  V30 32891 C 3114.81 1.53857 -0.470824 0
M  V30 32892 O 3116 1.61547 -0.723295 0
M  V30 32893 C 3113.13 2.99619 -1.67581 0
M  V30 32894 C 3112.22 3.11761 -2.87517 0
M  V30 32895 N 3112.61 2.93818 -4.11709 0
M  V30 32896 C 3110.91 3.42847 -2.85257 0
M  V30 32897 C 3111.61 3.09893 -4.92282 0
M  V30 32898 N 3110.59 3.38348 -4.25466 0
M  V30 32899 H 3114.39 1.45735 -2.55223 0
M  V30 32900 H 3111.9 0.716358 -1.45747 0
M  V30 32901 H 3113.9 3.78606 -1.74538 0
M  V30 32902 H 3112.56 3.15929 -0.749613 0
M  V30 32903 H 3113.57 2.70184 -4.41838 0
M  V30 32904 H 3110.25 3.65392 -2.01977 0
M  V30 32905 H 3111.64 3.00593 -6.0091 0
M  V30 32906 N 3114.36 1.38021 0.760791 0
M  V30 32907 C 3115.77 1.30239 1.33771 0
M  V30 32908 C 3116.12 -0.0450808 1.96148 0
M  V30 32909 O 3115.24 -0.947066 1.94575 0
M  V30 32910 C 3115.84 2.35856 2.43223 0
M  V30 32911 C 3114.4 2.31674 2.96655 0
M  V30 32912 C 3113.54 2.19103 1.69968 0
M  V30 32913 H 3116.5 1.48483 0.560211 0
M  V30 32914 H 3116.52 2.01155 3.22981 0
M  V30 32915 H 3116.03 3.33915 1.97794 0
M  V30 32916 H 3114.13 1.37174 3.46431 0
M  V30 32917 H 3114.24 3.25527 3.51523 0
M  V30 32918 H 3112.61 1.65833 1.93317 0
M  V30 32919 H 3113.39 3.19093 1.26627 0
M  V30 32920 N 3115.83 -0.98818 1.22771 0
M  V30 32921 C 3117.08 -1.73095 1.05668 0
M  V30 32922 C 3117.41 -1.89896 -0.406581 0
M  V30 32923 O 3116.69 -1.44557 -1.30129 0
M  V30 32924 C 3116.97 -3.13379 1.77386 0
M  V30 32925 C 3116.82 -3.04197 3.31337 0
M  V30 32926 C 3118.14 -4.12646 1.53006 0
M  V30 32927 H 3115.26 -0.628281 0.385269 0
M  V30 32928 H 3117.9 -1.15094 1.51173 0
M  V30 32929 H 3116.05 -3.62896 1.38703 0
M  V30 32930 H 3117.73 -2.62263 3.79494 0
M  V30 32931 H 3115.97 -2.40887 3.60771 0
M  V30 32932 H 3116.64 -4.03487 3.767 0
M  V30 32933 H 3119.12 -3.71905 1.86617 0
M  V30 32934 H 3117.99 -5.0891 2.05675 0
M  V30 32935 H 3118.25 -4.39662 0.463693 0
M  V30 32936 N 3117.31 -1.03816 -1.18575 0
M  V30 32937 C 3118.25 -0.571502 -2.20928 0
M  V30 32938 C 3119.22 0.392608 -1.57789 0
M  V30 32939 O 3120.41 0.307507 -1.85975 0
M  V30 32940 C 3117.53 0.165444 -3.38296 0
M  V30 32941 C 3116.58 -0.751531 -4.19826 0
M  V30 32942 S 3117.41 -2.23299 -4.86721 0
M  V30 32943 C 3118.57 -1.50682 -6.07491 0
M  V30 32944 H 3118.8 -1.43871 -2.6017 0
M  V30 32945 H 3116.34 -0.848903 -1.28969 0
M  V30 32946 H 3118.29 0.584473 -4.06318 0
M  V30 32947 H 3116.95 1.0085 -2.97469 0
M  V30 32948 H 3116.15 -0.182074 -5.03671 0
M  V30 32949 H 3115.75 -1.1093 -3.5717 0
M  V30 32950 H 3118.04 -0.798495 -6.72778 0
M  V30 32951 H 3118.98 -2.32222 -6.68938 0
M  V30 32952 H 3119.39 -1.00026 -5.55567 0
M  V30 32953 N 3118.79 1.34753 -0.817283 0
M  V30 32954 C 3120.2 1.80887 -0.462247 0
M  V30 32955 C 3120.55 1.67795 1.01682 0
M  V30 32956 O 3119.68 1.21471 1.79092 0
M  V30 32957 C 3120.27 3.28419 -0.832262 0
M  V30 32958 C 3118.83 3.72655 -0.529675 0
M  V30 32959 C 3117.98 2.56563 -1.05218 0
M  V30 32960 H 3120.93 1.22579 -1.00797 0
M  V30 32961 H 3120.95 3.80264 -0.13387 0
M  V30 32962 H 3120.46 3.37915 -1.90879 0
M  V30 32963 H 3118.56 3.687 0.537678 0
M  V30 32964 H 3118.68 4.67004 -1.06979 0
M  V30 32965 H 3117.04 2.50251 -0.473993 0
M  V30 32966 H 3117.82 2.68832 -2.13505 0
M  V30 32967 N 3120.27 0.571737 1.46864 0
M  V30 32968 C 3121.2 -0.215904 2.27176 0
M  V30 32969 C 3122.18 -0.907011 1.34952 0
M  V30 32970 O 3123.36 -0.923098 1.64351 0
M  V30 32971 C 3120.49 -1.30883 3.1239 0
M  V30 32972 C 3119.54 -0.724731 4.20297 0
M  V30 32973 S 3120.37 0.439933 5.3369 0
M  V30 32974 C 3121.53 -0.654455 6.22469 0
M  V30 32975 H 3121.76 0.465569 2.93632 0
M  V30 32976 H 3119.29 0.358378 1.50183 0
M  V30 32977 H 3121.25 -1.93465 3.62052 0
M  V30 32978 H 3119.91 -1.9622 2.45268 0
M  V30 32979 H 3119.1 -1.54591 4.79706 0
M  V30 32980 H 3118.71 -0.174795 3.73591 0
M  V30 32981 H 3121 -1.54292 6.59697 0
M  V30 32982 H 3121.94 -0.0973866 7.08033 0
M  V30 32983 H 3122.35 -0.953664 5.56386 0
M  V30 32984 N 3121.75 -1.54542 0.308935 0
M  V30 32985 C 3122.69 -2.23812 -0.56362 0
M  V30 32986 C 3123.66 -1.22357 -1.1233 0
M  V30 32987 O 3124.85 -1.50999 -1.16635 0
M  V30 32988 C 3121.99 -2.98848 -1.72579 0
M  V30 32989 C 3121.1 -4.15093 -1.19675 0
M  V30 32990 C 3120.24 -4.77693 -2.32343 0
M  V30 32991 C 3119.28 -5.86067 -1.76613 0
M  V30 32992 N 3118.41 -6.42589 -2.82885 0
M  V30 32993 H 3123.25 -2.97981 0.0336812 0
M  V30 32994 H 3120.79 -1.47073 0.0283925 0
M  V30 32995 H 3122.75 -3.4059 -2.40945 0
M  V30 32996 H 3121.38 -2.27041 -2.2946 0
M  V30 32997 H 3120.43 -3.78237 -0.405107 0
M  V30 32998 H 3121.74 -4.93147 -0.748836 0
M  V30 32999 H 3120.9 -5.22327 -3.0864 0
M  V30 33000 H 3119.64 -3.98987 -2.80465 0
M  V30 33001 H 3118.64 -5.40848 -0.988076 0
M  V30 33002 H 3119.87 -6.6666 -1.29386 0
M  V30 33003 H 3117.81 -5.66764 -3.30326 0
M  V30 33004 H 3117.73 -7.16013 -2.42613 0
M  V30 33005 H 3119 -6.91881 -3.59056 0
M  V30 33006 N 3123.23 -0.0368104 -1.57557 0
M  V30 33007 C 3124.5 0.679228 -1.83428 0
M  V30 33008 C 3124.88 1.89886 -0.922307 0
M  V30 33009 O 3124.23 2.28491 0.0202098 0
M  V30 33010 C 3124.44 1.05016 -3.32825 0
M  V30 33011 C 3125.79 1.43854 -3.99489 0
M  V30 33012 O 3126.81 1.14292 -3.37366 0
M  V30 33013 O 3125.67 1.98968 -5.08993 0
M  V30 33014 H 3122.77 0.333923 -0.756587 0
M  V30 33015 H 3125.31 -0.0650792 -1.69575 0
M  V30 33016 H 3124.08 0.18244 -3.90874 0
M  V30 33017 H 3123.71 1.85238 -3.51813 0
M  V30 33018 N 3124.7 1.55817 0.236426 0
M  V30 33019 C 3125.95 1.77338 0.96095 0
M  V30 33020 C 3126.27 0.602674 1.86084 0
M  V30 33021 O 3127.47 0.701152 2.6229 0
M  V30 33022 C 3125.93 3.13998 1.75879 0
M  V30 33023 C 3125.54 4.38748 0.905772 0
M  V30 33024 C 3127.28 3.44853 2.47542 0
M  V30 33025 C 3125.19 5.66437 1.7001 0
M  V30 33026 H 3124.12 0.661124 0.362535 0
M  V30 33027 H 3126.77 1.82233 0.215271 0
M  V30 33028 H 3125.15 3.03238 2.54681 0
M  V30 33029 H 3126.32 4.60524 0.159334 0
M  V30 33030 H 3124.64 4.15304 0.301977 0
M  V30 33031 H 3127.24 4.37473 3.07444 0
M  V30 33032 H 3127.58 2.6666 3.19684 0
M  V30 33033 H 3128.11 3.56875 1.75741 0
M  V30 33034 H 3124.85 6.4748 1.02222 0
M  V30 33035 H 3124.37 5.48745 2.42154 0
M  V30 33036 H 3126.05 6.06074 2.26458 0
M  V30 33037 N 3126.18 -0.502526 1.49373 0
M  V30 33038 C 3127.13 -1.60109 1.62324 0
M  V30 33039 C 3128.12 -1.53605 0.478977 0
M  V30 33040 O 3129.31 -1.61161 0.731852 0
M  V30 33041 C 3126.44 -2.98726 1.69167 0
M  V30 33042 C 3125.52 -3.10232 2.89166 0
M  V30 33043 N 3125.91 -2.91631 4.13262 0
M  V30 33044 C 3124.21 -3.4133 2.87071 0
M  V30 33045 C 3124.91 -3.07278 4.93918 0
M  V30 33046 N 3123.89 -3.36087 4.27255 0
M  V30 33047 H 3127.69 -1.44379 2.55992 0
M  V30 33048 H 3125.2 -0.708618 1.46124 0
M  V30 33049 H 3127.2 -3.77675 1.76543 0
M  V30 33050 H 3125.86 -3.15527 0.766357 0
M  V30 33051 H 3126.87 -2.67837 4.43265 0
M  V30 33052 H 3123.55 -3.64316 2.03912 0
M  V30 33053 H 3124.94 -2.97402 6.02496 0
M  V30 33054 N 3127.66 -1.38422 -0.75346 0
M  V30 33055 C 3128.57 -1.37896 -1.89795 0
M  V30 33056 C 3129.59 -0.276053 -1.71796 0
M  V30 33057 O 3130.76 -0.514498 -1.94717 0
M  V30 33058 C 3127.83 -1.2029 -3.25163 0
M  V30 33059 C 3126.89 -2.40386 -3.55687 0
M  V30 33060 C 3126.12 -2.23611 -4.84597 0
M  V30 33061 O 3126.34 -1.22988 -5.56983 0
M  V30 33062 O 3125.28 -3.12203 -5.146 0
M  V30 33063 H 3129.1 -2.34329 -1.93193 0
M  V30 33064 H 3126.69 -1.19343 -0.898754 0
M  V30 33065 H 3128.57 -1.12532 -4.06097 0
M  V30 33066 H 3127.25 -0.269409 -3.22577 0
M  V30 33067 H 3126.15 -2.53718 -2.74914 0
M  V30 33068 H 3127.49 -3.32366 -3.63034 0
M  V30 33069 N 3129.14 0.981655 -1.23294 0
M  V30 33070 C 3130.36 1.76337 -1.09179 0
M  V30 33071 C 3130.79 1.84764 0.352693 0
M  V30 33072 O 3130.15 1.30834 1.25507 0
M  V30 33073 C 3130.19 3.16908 -1.72051 0
M  V30 33074 O 3129.3 4.00542 -0.98181 0
M  V30 33075 H 3128.64 0.542575 -0.382764 0
M  V30 33076 H 3131.17 1.23237 -1.63322 0
M  V30 33077 H 3131.18 3.67492 -1.77238 0
M  V30 33078 H 3129.85 3.1009 -2.77159 0
M  V30 33079 H 3128.43 3.59052 -1.00679 0
M  V30 33080 N 3130.62 1.04444 1.18022 0
M  V30 33081 C 3131.86 0.745218 1.87428 0
M  V30 33082 C 3132.18 -0.730174 1.8146 0
M  V30 33083 O 3133.38 -1.14305 2.46265 0
M  V30 33084 C 3131.84 1.28277 3.36263 0
M  V30 33085 C 3131.45 2.78706 3.50752 0
M  V30 33086 C 3133.19 1.06025 4.11046 0
M  V30 33087 C 3131.1 3.258 4.93567 0
M  V30 33088 H 3130.03 0.275073 0.702034 0
M  V30 33089 H 3132.68 1.26076 1.33331 0
M  V30 33090 H 3131.06 0.695071 3.89852 0
M  V30 33091 H 3132.24 3.43266 3.07417 0
M  V30 33092 H 3130.55 2.99413 2.8938 0
M  V30 33093 H 3133.15 1.3872 5.16392 0
M  V30 33094 H 3133.49 -0.00234398 4.163 0
M  V30 33095 H 3134.02 1.61276 3.63641 0
M  V30 33096 H 3130.76 4.31456 4.93484 0
M  V30 33097 H 3130.28 2.65977 5.37602 0
M  V30 33098 H 3131.96 3.20041 5.62301 0
M  V30 33099 N 3132.09 -1.34317 0.824418 0
M  V30 33100 C 3133.51 -1.5122 0.510363 0
M  V30 33101 C 3133.71 -1.76881 -0.96517 0
M  V30 33102 O 3132.77 -1.8206 -1.74958 0
M  V30 33103 C 3134.08 -2.67617 1.37119 0
M  V30 33104 C 3135.63 -2.815 1.36846 0
M  V30 33105 C 3136.1 -4.00942 2.21381 0
M  V30 33106 N 3137.59 -4.08152 2.19012 0
M  V30 33107 C 3138.33 -4.99732 2.81168 0
M  V30 33108 N 3137.82 -5.96526 3.52319 0
M  V30 33109 N 3139.62 -4.92616 2.70714 0
M  V30 33110 H 3131.77 -1.15921 1.77978 0
M  V30 33111 H 3134.03 -0.56865 0.758513 0
M  V30 33112 H 3133.74 -2.5529 2.41909 0
M  V30 33113 H 3133.61 -3.62667 1.03695 0
M  V30 33114 H 3136 -2.93268 0.328335 0
M  V30 33115 H 3136.08 -1.87254 1.74268 0
M  V30 33116 H 3135.72 -3.89934 3.25444 0
M  V30 33117 H 3135.65 -4.94403 1.81308 0
M  V30 33118 H 3138.14 -3.38871 1.67258 0
M  V30 33119 H 3138.46 -6.63039 3.96988 0
M  V30 33120 H 3136.8 -5.96645 3.56426 0
M  V30 33121 H 3139.99 -4.15958 2.14702 0
M  V30 33122 H 3140.17 -5.63792 3.19441 0
M  V30 33123 N 3133.57 -0.579517 -1.46558 0
M  V30 33124 C 3134.82 -0.0722927 -2.03271 0
M  V30 33125 C 3135.17 1.2722 -1.44336 0
M  V30 33126 O 3134.47 1.82033 -0.59788 0
M  V30 33127 C 3134.66 0.0552175 -3.57357 0
M  V30 33128 C 3134.49 -1.27536 -4.31236 0
M  V30 33129 C 3133.26 -1.84866 -4.70269 0
M  V30 33130 C 3135.46 -2.19781 -4.64974 0
M  V30 33131 N 3133.44 -3.11696 -5.28884 0
M  V30 33132 C 3134.81 -3.31198 -5.24126 0
M  V30 33133 C 3136.86 -2.19501 -4.46905 0
M  V30 33134 C 3135.57 -4.42462 -5.67115 0
M  V30 33135 C 3137.59 -3.29793 -4.90908 0
M  V30 33136 C 3136.96 -4.3993 -5.50128 0
M  V30 33137 H 3133.05 -0.0691553 -0.778936 0
M  V30 33138 H 3135.64 -0.771715 -1.78753 0
M  V30 33139 H 3133.81 0.723801 -3.81596 0
M  V30 33140 H 3135.54 0.566536 -4.00715 0
M  V30 33141 H 3132.3 -1.38396 -4.52928 0
M  V30 33142 H 3132.72 -3.76403 -5.62716 0
M  V30 33143 H 3137.36 -1.35624 -4.00457 0
M  V30 33144 H 3135.08 -5.27084 -6.12543 0
M  V30 33145 H 3138.67 -3.3069 -4.78681 0
M  V30 33146 H 3137.55 -5.23864 -5.83555 0
M  V30 33147 N 3135.05 1.54376 -0.317127 0
M  V30 33148 C 3136.28 2.04864 0.289522 0
M  V30 33149 C 3136.69 1.19361 1.46282 0
M  V30 33150 O 3136.05 0.222827 1.81135 0
M  V30 33151 C 3136.1 3.54048 0.73021 0
M  V30 33152 O 3135.82 4.36303 -0.396402 0
M  V30 33153 C 3137.32 4.20601 1.40034 0
M  V30 33154 H 3134.54 0.66826 0.0605719 0
M  V30 33155 H 3137.09 1.99226 -0.461446 0
M  V30 33156 H 3135.24 3.59995 1.43117 0
M  V30 33157 H 3135.66 5.24476 -0.0503823 0
M  V30 33158 H 3137.13 5.26458 1.65969 0
M  V30 33159 H 3137.61 3.7132 2.34559 0
M  V30 33160 H 3138.21 4.18775 0.742132 0
M  V30 33161 N 3136.53 0.0451655 1.57535 0
M  V30 33162 C 3137.48 -0.931276 2.11177 0
M  V30 33163 C 3138.45 -1.31273 1.01768 0
M  V30 33164 O 3139.63 -1.40325 1.29281 0
M  V30 33165 C 3136.77 -2.20291 2.65643 0
M  V30 33166 C 3135.88 -1.87647 3.89118 0
M  V30 33167 C 3135.02 -3.09224 4.31919 0
M  V30 33168 C 3134.06 -2.72474 5.4811 0
M  V30 33169 N 3133.19 -3.86726 5.85993 0
M  V30 33170 H 3138.03 -0.466934 2.94319 0
M  V30 33171 H 3135.57 -0.21886 1.45463 0
M  V30 33172 H 3137.53 -2.94692 2.95318 0
M  V30 33173 H 3136.16 -2.64312 1.85307 0
M  V30 33174 H 3135.21 -1.0342 3.66072 0
M  V30 33175 H 3136.52 -1.56592 4.73582 0
M  V30 33176 H 3135.68 -3.91931 4.63115 0
M  V30 33177 H 3134.42 -3.43453 3.46253 0
M  V30 33178 H 3133.42 -1.88183 5.16592 0
M  V30 33179 H 3134.65 -2.39444 6.35487 0
M  V30 33180 H 3132.59 -4.20766 5.03281 0
M  V30 33181 H 3132.51 -3.59349 6.65135 0
M  V30 33182 H 3133.78 -4.70089 6.21801 0
M  V30 33183 N 3138.01 -1.5594 -0.228159 0
M  V30 33184 C 3139.28 -1.69426 -0.977462 0
M  V30 33185 C 3139.66 -0.590514 -2.02672 0
M  V30 33186 O 3139.01 0.403428 -2.2491 0
M  V30 33187 C 3139.22 -3.10478 -1.59388 0
M  V30 33188 C 3140.57 -3.69676 -2.08865 0
M  V30 33189 O 3141.59 -3.13397 -1.69294 0
M  V30 33190 O 3140.45 -4.68377 -2.81576 0
M  V30 33191 H 3137.55 -0.689808 -0.456173 0
M  V30 33192 H 3140.09 -1.68262 -0.220463 0
M  V30 33193 H 3138.86 -3.82267 -0.835904 0
M  V30 33194 H 3138.49 -3.15732 -2.41659 0
M  V30 33195 N 3139.48 0.494597 -1.49638 0
M  V30 33196 C 3140.9 1.076 -1.52575 0
M  V30 33197 C 3141.25 1.93645 -0.315625 0
M  V30 33198 O 3140.37 2.0865 0.573929 0
M  V30 33199 C 3140.97 1.95812 -2.76483 0
M  V30 33200 C 3139.53 2.49104 -2.82178 0
M  V30 33201 C 3138.67 1.26875 -2.46572 0
M  V30 33202 H 3141.62 0.278224 -1.56242 0
M  V30 33203 H 3141.64 2.80584 -2.57008 0
M  V30 33204 H 3141.16 1.33161 -3.64541 0
M  V30 33205 H 3139.26 3.15376 -1.98416 0
M  V30 33206 H 3139.37 2.85818 -3.84506 0
M  V30 33207 H 3137.73 1.59603 -1.98491 0
M  V30 33208 H 3138.52 0.659222 -3.36911 0
M  V30 33209 N 3140.96 1.3882 0.746109 0
M  V30 33210 C 3141.91 1.3665 1.85998 0
M  V30 33211 C 3142.88 0.227878 1.64529 0
M  V30 33212 O 3144.06 0.421273 1.86091 0
M  V30 33213 C 3141.2 1.2048 3.23386 0
M  V30 33214 C 3140.32 2.43793 3.56636 0
M  V30 33215 C 3139.45 2.20296 4.83367 0
M  V30 33216 C 3138.49 3.39341 5.09425 0
M  V30 33217 N 3137.63 3.15231 6.27354 0
M  V30 33218 H 3142.47 2.31872 1.87188 0
M  V30 33219 H 3140.01 1.15193 0.914817 0
M  V30 33220 H 3141.96 1.09119 4.02677 0
M  V30 33221 H 3140.59 0.288931 3.21504 0
M  V30 33222 H 3139.65 2.65799 2.72131 0
M  V30 33223 H 3140.96 3.32496 3.71817 0
M  V30 33224 H 3140.11 2.06113 5.70616 0
M  V30 33225 H 3138.85 1.28969 4.70338 0
M  V30 33226 H 3137.86 3.54034 4.20642 0
M  V30 33227 H 3139.08 4.31553 5.24346 0
M  V30 33228 H 3137.03 2.26559 6.15635 0
M  V30 33229 H 3136.94 3.97487 6.43071 0
M  V30 33230 H 3138.21 3.0472 7.17472 0
M  V30 33231 N 3142.44 -0.975103 1.23812 0
M  V30 33232 C 3143.39 -2.08968 1.02153 0
M  V30 33233 C 3144.38 -1.6935 -0.0411874 0
M  V30 33234 O 3145.59 -1.79646 0.112757 0
M  V30 33235 H 3141.96 -0.683641 0.313271 0
M  V30 33236 H 3143.93 -2.24401 1.96689 0
M  V30 33237 C 3142.68 -3.41851 0.635084 0
M  V30 33238 H 3142.01 -3.7279 1.44456 0
M  V30 33239 H 3143.45 -4.20761 0.523084 0
M  V30 33240 C 3141.91 -3.30429 -0.657149 0
M  V30 33241 O 3142.44 -3.63726 -1.70488 0
M  V30 33242 N 3140.64 -2.83576 -0.635072 0
M  V30 33243 H 3140.19 -2.56677 0.217885 0
M  V30 33244 H 3140.15 -2.76316 -1.4999 0
M  V30 33245 N 3143.92 -1.05068 -1.17467 0
M  V30 33246 C 3145.15 -0.780368 -1.91619 0
M  V30 33247 C 3145.56 0.663786 -1.76747 0
M  V30 33248 O 3144.92 1.45336 -1.10379 0
M  V30 33249 C 3144.97 -1.14998 -3.42721 0
M  V30 33250 O 3144.69 -2.53745 -3.57134 0
M  V30 33251 C 3146.19 -0.905626 -4.33951 0
M  V30 33252 H 3143.41 -0.283825 -0.608017 0
M  V30 33253 H 3145.96 -1.40103 -1.48968 0
M  V30 33254 H 3144.11 -0.574097 -3.83123 0
M  V30 33255 H 3144.52 -2.68196 -4.50745 0
M  V30 33256 H 3146 -1.214 -5.38485 0
M  V30 33257 H 3146.48 0.159218 -4.38911 0
M  V30 33258 H 3147.08 -1.46529 -3.99261 0
M  V30 33259 N 3145.4 1.33878 -0.831529 0
M  V30 33260 C 3146.33 2.28171 -0.216948 0
M  V30 33261 C 3147.34 1.51415 0.598114 0
M  V30 33262 O 3148.53 1.73333 0.426385 0
M  V30 33263 C 3145.63 3.31298 0.713772 0
M  V30 33264 C 3144.8 4.37358 -0.0603442 0
M  V30 33265 C 3143.86 5.20196 0.792604 0
M  V30 33266 O 3142.89 5.68717 0.234464 0
M  V30 33267 N 3144.09 5.40752 2.1111 0
M  V30 33268 H 3146.86 2.81551 -1.02709 0
M  V30 33269 H 3144.42 1.46493 -0.689298 0
M  V30 33270 H 3146.41 3.83617 1.28919 0
M  V30 33271 H 3144.98 2.78249 1.42464 0
M  V30 33272 H 3144.2 3.85638 -0.817109 0
M  V30 33273 H 3145.49 5.05334 -0.592911 0
M  V30 33274 H 3144.88 5.0302 2.58819 0
M  V30 33275 H 3143.44 5.96156 2.63517 0
M  V30 33276 N 3146.87 0.587281 1.46249 0
M  V30 33277 C 3148.15 0.00753619 1.95599 0
M  V30 33278 C 3148.53 -1.45454 1.52991 0
M  V30 33279 O 3147.88 -2.14674 0.782768 0
M  V30 33280 C 3148.09 0.184371 3.48513 0
M  V30 33281 C 3149.44 0.0545718 4.24565 0
M  V30 33282 O 3150.46 0.113441 3.56019 0
M  V30 33283 O 3149.32 -0.0773115 5.46445 0
M  V30 33284 H 3146.41 -0.047235 0.82565 0
M  V30 33285 H 3148.96 0.655921 1.56511 0
M  V30 33286 H 3147.73 1.2006 3.72426 0
M  V30 33287 H 3147.36 -0.500232 3.94441 0
M  V30 33288 N 3148.35 -1.54206 0.325309 0
M  V30 33289 C 3149.3 -2.21131 -0.555441 0
M  V30 33290 C 3150.29 -1.19243 -1.08028 0
M  V30 33291 O 3151.48 -1.44865 -1.01701 0
M  V30 33292 C 3148.61 -2.97394 -1.71499 0
M  V30 33293 C 3147.69 -4.06622 -1.20496 0
M  V30 33294 N 3148.08 -5.04097 -0.414749 0
M  V30 33295 C 3146.38 -4.20604 -1.48353 0
M  V30 33296 C 3147.08 -5.81531 -0.140123 0
M  V30 33297 N 3146.06 -5.3872 -0.726735 0
M  V30 33298 H 3149.86 -2.93847 0.0555708 0
M  V30 33299 H 3147.38 -1.61869 0.131253 0
M  V30 33300 H 3149.37 -3.43825 -2.35775 0
M  V30 33301 H 3148.03 -2.262 -2.32946 0
M  V30 33302 H 3149.04 -5.17868 -0.0574381 0
M  V30 33303 H 3145.72 -3.60624 -2.10372 0
M  V30 33304 H 3147.11 -6.70066 0.496144 0
M  V30 33305 N 3149.83 -0.0535194 -1.57509 0
M  V30 33306 C 3151.08 0.620657 -1.93069 0
M  V30 33307 C 3151.41 1.70356 -0.932343 0
M  V30 33308 O 3150.69 1.94456 0.0413051 0
M  V30 33309 C 3150.97 1.21457 -3.38999 0
M  V30 33310 C 3150.82 0.139571 -4.49583 0
M  V30 33311 C 3152.14 2.12552 -3.8537 0
M  V30 33312 H 3149.26 0.22415 -0.702087 0
M  V30 33313 H 3151.9 -0.115763 -1.89647 0
M  V30 33314 H 3150.05 1.8422 -3.42046 0
M  V30 33315 H 3151.72 -0.492492 -4.58664 0
M  V30 33316 H 3149.97 -0.532081 -4.30524 0
M  V30 33317 H 3150.64 0.595191 -5.48782 0
M  V30 33318 H 3153.11 1.59748 -3.84213 0
M  V30 33319 H 3151.99 2.5105 -4.88124 0
M  V30 33320 H 3152.25 3.02655 -3.22261 0
M  V30 33321 N 3151.31 1.56059 0.219886 0
M  V30 33322 C 3152.73 1.49087 0.569658 0
M  V30 33323 C 3152.93 0.748936 1.87065 0
M  V30 33324 O 3151.98 0.289279 2.50837 0
M  V30 33325 C 3153.29 2.93649 0.647346 0
M  V30 33326 C 3154.84 3.04179 0.737861 0
M  V30 33327 C 3155.32 4.50102 0.846878 0
M  V30 33328 N 3156.81 4.54152 0.911056 0
M  V30 33329 C 3157.54 5.64342 1.01515 0
M  V30 33330 N 3157.04 6.84281 1.08308 0
M  V30 33331 N 3158.83 5.52198 1.05041 0
M  V30 33332 H 3150.98 2.02723 -0.633814 0
M  V30 33333 H 3153.25 0.921495 -0.222599 0
M  V30 33334 H 3152.95 3.50887 -0.239048 0
M  V30 33335 H 3152.83 3.4564 1.51039 0
M  V30 33336 H 3155.21 2.47005 1.6147 0
M  V30 33337 H 3155.29 2.55355 -0.15089 0
M  V30 33338 H 3154.94 5.07894 -0.0255059 0
M  V30 33339 H 3154.87 4.96634 1.75107 0
M  V30 33340 H 3157.36 3.67777 0.868804 0
M  V30 33341 H 3157.67 7.64009 1.16233 0
M  V30 33342 H 3156.02 6.86989 1.05219 0
M  V30 33343 H 3159.21 4.57424 0.994006 0
M  V30 33344 H 3159.38 6.38105 1.12808 0
M  V30 33345 N 3152.79 -0.486655 1.49898 0
M  V30 33346 C 3154.01 -1.2682 1.64108 0
M  V30 33347 C 3154.44 -1.85392 0.317999 0
M  V30 33348 O 3153.8 -1.66553 -0.716231 0
M  V30 33349 C 3153.84 -2.36394 2.72305 0
M  V30 33350 O 3152.95 -3.4063 2.32475 0
M  V30 33351 H 3152.29 -0.373783 0.548801 0
M  V30 33352 H 3154.82 -0.580983 1.96178 0
M  V30 33353 H 3154.83 -2.81943 2.94911 0
M  V30 33354 H 3153.5 -1.93131 3.68338 0
M  V30 33355 H 3152.08 -3.00901 2.20257 0
M  V30 33356 N 3154.27 -1.39214 -0.738737 0
M  V30 33357 C 3155.2 -1.40367 -1.866 0
M  V30 33358 C 3156.18 -0.267525 -1.67983 0
M  V30 33359 O 3157.36 -0.472798 -1.88357 0
M  V30 33360 C 3154.49 -1.2427 -3.24306 0
M  V30 33361 C 3153.45 -2.35245 -3.57552 0
M  V30 33362 C 3152.77 -2.04241 -4.94155 0
M  V30 33363 C 3154.07 -3.77549 -3.60907 0
M  V30 33364 H 3155.77 -2.34701 -1.85892 0
M  V30 33365 H 3153.31 -1.12972 -0.892939 0
M  V30 33366 H 3155.26 -1.23699 -4.02836 0
M  V30 33367 H 3153.99 -0.264032 -3.25531 0
M  V30 33368 H 3152.65 -2.35027 -2.8135 0
M  V30 33369 H 3152.3 -1.04821 -4.91957 0
M  V30 33370 H 3152 -2.78576 -5.17368 0
M  V30 33371 H 3153.52 -2.05313 -5.75047 0
M  V30 33372 H 3154.93 -3.79717 -4.29521 0
M  V30 33373 H 3153.33 -4.51212 -3.95636 0
M  V30 33374 H 3154.4 -4.08795 -2.60796 0
M  V30 33375 N 3155.74 0.968523 -1.24328 0
M  V30 33376 C 3156.98 1.72635 -1.09437 0
M  V30 33377 C 3157.35 1.88581 0.360748 0
M  V30 33378 O 3158.55 2.61285 0.631142 0
M  V30 33379 C 3156.82 3.08008 -1.8129 0
M  V30 33380 S 3158.38 3.99222 -1.8212 0
M  V30 33381 H 3155.2 0.593558 -0.39142 0
M  V30 33382 H 3157.8 1.15621 -1.57645 0
M  V30 33383 H 3156.5 2.94062 -2.86279 0
M  V30 33384 H 3156.03 3.70088 -1.33412 0
M  V30 33385 H 3158.05 4.88184 -0.888282 0
M  V30 33386 N 3157.22 1.0569 1.16908 0
M  V30 33387 C 3158.15 0.606577 2.19991 0
M  V30 33388 C 3159.13 -0.367455 1.58394 0
M  V30 33389 O 3160.32 -0.277882 1.86441 0
M  V30 33390 C 3157.44 -0.111604 3.38516 0
M  V30 33391 C 3156.49 0.818226 4.18578 0
M  V30 33392 S 3157.32 2.31014 4.83107 0
M  V30 33393 C 3158.48 1.60328 6.05017 0
M  V30 33394 H 3158.71 1.47992 2.57848 0
M  V30 33395 H 3156.24 0.869313 1.27602 0
M  V30 33396 H 3158.2 -0.519758 4.07196 0
M  V30 33397 H 3156.86 -0.96105 2.99036 0
M  V30 33398 H 3156.06 0.262181 5.03318 0
M  V30 33399 H 3155.66 1.16598 3.5536 0
M  V30 33400 H 3157.95 0.905428 6.71423 0
M  V30 33401 H 3158.89 2.42835 6.65159 0
M  V30 33402 H 3159.3 1.08851 5.53906 0
M  V30 33403 N 3158.7 -1.33435 0.838617 0
M  V30 33404 C 3159.63 -2.31733 0.286713 0
M  V30 33405 C 3160.61 -1.58961 -0.605423 0
M  V30 33406 O 3161.8 -1.86855 -0.529026 0
M  V30 33407 C 3158.93 -3.43088 -0.539251 0
M  V30 33408 C 3157.88 -4.27227 0.257072 0
M  V30 33409 C 3157.21 -5.30195 -0.692625 0
M  V30 33410 C 3158.51 -5.01069 1.474 0
M  V30 33411 H 3160.2 -2.78142 1.10803 0
M  V30 33412 H 3157.75 -1.33722 0.534259 0
M  V30 33413 H 3159.7 -4.10881 -0.935652 0
M  V30 33414 H 3158.42 -2.95367 -1.39378 0
M  V30 33415 H 3157.08 -3.61058 0.63503 0
M  V30 33416 H 3156.73 -4.78731 -1.54354 0
M  V30 33417 H 3156.43 -5.87371 -0.16392 0
M  V30 33418 H 3157.95 -6.00855 -1.08655 0
M  V30 33419 H 3159.37 -5.61632 1.15077 0
M  V30 33420 H 3157.76 -5.67895 1.93947 0
M  V30 33421 H 3158.83 -4.29857 2.2439 0
M  V30 33422 N 3160.18 -0.595029 -1.45935 0
M  V30 33423 C 3161.14 0.121062 -2.2888 0
M  V30 33424 C 3162.14 0.807124 -1.39076 0
M  V30 33425 O 3163.33 0.6572 -1.61327 0
M  V30 33426 C 3160.46 1.18124 -3.1978 0
M  V30 33427 H 3161.66 -0.60802 -2.93672 0
M  V30 33428 H 3159.21 -0.353522 -1.5225 0
M  V30 33429 H 3159.94 1.9415 -2.59762 0
M  V30 33430 H 3159.73 0.693656 -3.85916 0
M  V30 33431 H 3161.22 1.68312 -3.82179 0
M  V30 33432 N 3161.66 1.54031 -0.333483 0
M  V30 33433 C 3162.9 2.01742 0.259213 0
M  V30 33434 C 3163.26 1.21728 1.48997 0
M  V30 33435 O 3162.55 0.293916 1.89332 0
M  V30 33436 C 3162.74 3.51703 0.635588 0
M  V30 33437 C 3162.57 4.46235 -0.557148 0
M  V30 33438 C 3161.34 4.94071 -1.05934 0
M  V30 33439 C 3163.54 4.94524 -1.41246 0
M  V30 33440 N 3161.52 5.7253 -2.21545 0
M  V30 33441 C 3162.89 5.71007 -2.41561 0
M  V30 33442 C 3164.95 4.7665 -1.43908 0
M  V30 33443 C 3163.65 6.31517 -3.44354 0
M  V30 33444 C 3165.68 5.38002 -2.45576 0
M  V30 33445 C 3165.04 6.14344 -3.44617 0
M  V30 33446 H 3161.14 0.779814 0.0584293 0
M  V30 33447 H 3163.72 1.88923 -0.470769 0
M  V30 33448 H 3161.89 3.64747 1.33469 0
M  V30 33449 H 3163.63 3.86169 1.21061 0
M  V30 33450 H 3160.38 4.69404 -0.62903 0
M  V30 33451 H 3160.8 6.16434 -2.79889 0
M  V30 33452 H 3165.45 4.17181 -0.687003 0
M  V30 33453 H 3163.16 6.901 -4.20462 0
M  V30 33454 H 3166.75 5.26084 -2.4845 0
M  V30 33455 H 3165.63 6.60974 -4.21999 0
M  V30 33456 N 3163.13 0.0618717 1.57479 0
M  V30 33457 C 3164.08 -0.918712 2.08671 0
M  V30 33458 C 3165.07 -1.26509 0.994196 0
M  V30 33459 O 3166.26 -1.24572 1.25741 0
M  V30 33460 C 3163.39 -2.18981 2.6439 0
M  V30 33461 C 3162.47 -1.87035 3.80629 0
M  V30 33462 N 3162.87 -1.25495 4.89984 0
M  V30 33463 C 3161.16 -2.16843 3.89737 0
M  V30 33464 C 3161.86 -1.11419 5.7093 0
M  V30 33465 N 3160.84 -1.62063 5.1888 0
M  V30 33466 H 3164.64 -0.438418 2.90612 0
M  V30 33467 H 3162.16 -0.142293 1.61775 0
M  V30 33468 H 3164.15 -2.90138 2.99375 0
M  V30 33469 H 3162.81 -2.67607 1.83892 0
M  V30 33470 H 3163.82 -0.925825 5.09558 0
M  V30 33471 H 3160.5 -2.67916 3.20199 0
M  V30 33472 H 3161.89 -0.635547 6.68887 0
M  V30 33473 N 3164.61 -1.56173 -0.211607 0
M  V30 33474 C 3165.84 -1.84089 -0.955291 0
M  V30 33475 C 3166.26 -0.643438 -1.76753 0
M  V30 33476 O 3165.62 0.407811 -1.76654 0
M  V30 33477 C 3165.67 -3.10089 -1.84058 0
M  V30 33478 O 3164.77 -2.89481 -2.93725 0
M  V30 33479 H 3164.11 -0.606649 -0.269949 0
M  V30 33480 H 3166.64 -2.03393 -0.221911 0
M  V30 33481 H 3166.65 -3.40453 -2.24846 0
M  V30 33482 H 3165.33 -3.9687 -1.24366 0
M  V30 33483 H 3163.91 -2.70375 -2.56811 0
M  V30 33484 N 3166.09 0.478699 -1.50154 0
M  V30 33485 C 3167.34 1.2289 -1.60445 0
M  V30 33486 C 3167.66 1.92627 -0.30331 0
M  V30 33487 O 3166.93 1.83765 0.678766 0
M  V30 33488 H 3165.51 0.456592 -0.591213 0
M  V30 33489 H 3168.17 0.552872 -1.86894 0
M  V30 33490 H 3167.27 1.98089 -2.41178 0
M  V30 33491 N 3167.57 1.39603 0.731343 0
M  V30 33492 C 3168.48 1.40898 1.87577 0
M  V30 33493 C 3169.49 0.303349 1.71335 0
M  V30 33494 O 3170.67 0.545411 1.93874 0
M  V30 33495 C 3167.74 1.25448 3.23209 0
M  V30 33496 C 3166.8 2.46014 3.51817 0
M  V30 33497 C 3166.03 2.31292 4.80978 0
M  V30 33498 O 3166.25 1.31834 5.54956 0
M  V30 33499 O 3165.19 3.2035 5.09568 0
M  V30 33500 H 3169.01 2.37373 1.8944 0
M  V30 33501 H 3166.6 1.20758 0.879654 0
M  V30 33502 H 3168.48 1.18979 4.04255 0
M  V30 33503 H 3167.15 0.320694 3.22108 0
M  V30 33504 H 3166.06 2.5806 2.70843 0
M  V30 33505 H 3167.39 3.38099 3.57701 0
M  V30 33506 N 3169.05 -0.961916 1.2484 0
M  V30 33507 C 3169.99 -2.05744 1.04586 0
M  V30 33508 C 3170.96 -1.66045 -0.0426989 0
M  V30 33509 O 3172.15 -1.90465 0.11306 0
M  V30 33510 C 3169.29 -3.38673 0.662899 0
M  V30 33511 C 3168.4 -3.91533 1.82555 0
M  V30 33512 C 3167.54 -5.12756 1.38762 0
M  V30 33513 C 3166.58 -5.57826 2.51986 0
M  V30 33514 N 3165.71 -6.70265 2.0902 0
M  V30 33515 H 3170.55 -2.22401 1.98347 0
M  V30 33516 H 3168.09 -1.08996 0.987841 0
M  V30 33517 H 3170.05 -4.15062 0.421861 0
M  V30 33518 H 3168.68 -3.21923 -0.237719 0
M  V30 33519 H 3167.73 -3.11731 2.18009 0
M  V30 33520 H 3169.04 -4.20936 2.67609 0
M  V30 33521 H 3168.2 -5.96537 1.10581 0
M  V30 33522 H 3166.93 -4.8505 0.507703 0
M  V30 33523 H 3165.94 -4.72614 2.80921 0
M  V30 33524 H 3167.16 -5.87543 3.40544 0
M  V30 33525 H 3165.11 -6.44283 1.23434 0
M  V30 33526 H 3165.03 -6.99148 2.87626 0
M  V30 33527 H 3166.3 -7.57474 1.83995 0
M  V30 33528 N 3170.52 -1.06308 -1.16346 0
M  V30 33529 C 3171.43 -0.685098 -2.24374 0
M  V30 33530 C 3172.45 0.298926 -1.71413 0
M  V30 33531 O 3173.63 0.148204 -2.00854 0
M  V30 33532 C 3170.69 -0.0774697 -3.46613 0
M  V30 33533 C 3169.75 -1.11338 -4.14611 0
M  V30 33534 C 3168.99 -0.534652 -5.31015 0
M  V30 33535 O 3169.21 0.65255 -5.66655 0
M  V30 33536 O 3168.14 -1.27441 -5.88254 0
M  V30 33537 H 3171.97 -1.58571 -2.59015 0
M  V30 33538 H 3169.55 -0.835353 -1.23864 0
M  V30 33539 H 3171.44 0.259642 -4.20599 0
M  V30 33540 H 3170.11 0.796622 -3.13745 0
M  V30 33541 H 3169.02 -1.50267 -3.42594 0
M  V30 33542 H 3170.35 -1.95901 -4.51535 0
M  V30 33543 N 3172 1.32989 -0.845682 0
M  V30 33544 C 3173.23 2.01466 -0.457721 0
M  V30 33545 C 3173.64 1.63758 0.947635 0
M  V30 33546 O 3172.98 0.850242 1.62839 0
M  V30 33547 C 3173.05 3.55912 -0.506652 0
M  V30 33548 C 3172.71 4.1702 -1.86932 0
M  V30 33549 C 3173.71 4.35899 -2.83352 0
M  V30 33550 C 3171.39 4.53294 -2.16402 0
M  V30 33551 C 3173.39 4.90209 -4.07399 0
M  V30 33552 C 3171.07 5.0731 -3.40704 0
M  V30 33553 C 3172.07 5.25715 -4.36019 0
M  V30 33554 O 3171.76 5.7858 -5.58122 0
M  V30 33555 H 3171.49 0.651796 -0.17927 0
M  V30 33556 H 3174.04 1.70743 -1.14175 0
M  V30 33557 H 3172.27 3.8599 0.234185 0
M  V30 33558 H 3173.96 4.05674 -0.135558 0
M  V30 33559 H 3174.73 4.08216 -2.61886 0
M  V30 33560 H 3170.61 4.3826 -1.43002 0
M  V30 33561 H 3174.15 5.04489 -4.81805 0
M  V30 33562 H 3170.05 5.34424 -3.62024 0
M  V30 33563 H 3170.82 5.96985 -5.59956 0
M  V30 33564 N 3173.48 0.60276 1.45618 0
M  V30 33565 C 3174.43 -0.131443 2.32228 0
M  V30 33566 C 3175.42 -0.864458 1.45683 0
M  V30 33567 O 3176.63 -0.780572 1.62195 0
M  V30 33568 H 3173 -0.0612506 0.749501 0
M  V30 33569 H 3174.97 0.617547 2.9194 0
M  V30 33570 C 3173.72 -1.1186 3.29215 0
M  V30 33571 H 3173.05 -0.563992 3.95802 0
M  V30 33572 H 3174.49 -1.60235 3.92557 0
M  V30 33573 C 3172.95 -2.18974 2.56031 0
M  V30 33574 O 3173.48 -3.26642 2.33812 0
M  V30 33575 N 3171.68 -1.94126 2.16249 0
M  V30 33576 H 3171.23 -1.06575 2.3452 0
M  V30 33577 H 3171.19 -2.66 1.67605 0
M  V30 33578 N 3174.96 -1.53852 0.341647 0
M  V30 33579 C 3175.87 -2.28661 -0.524515 0
M  V30 33580 C 3176.88 -1.33699 -1.11358 0
M  V30 33581 O 3178.06 -1.66734 -1.12967 0
M  V30 33582 C 3175.13 -3.04344 -1.6606 0
M  V30 33583 C 3174.19 -4.14928 -1.10151 0
M  V30 33584 C 3173.42 -4.86992 -2.18345 0
M  V30 33585 O 3173.64 -4.5871 -3.3903 0
M  V30 33586 O 3172.58 -5.73487 -1.82746 0
M  V30 33587 H 3176.4 -3.03585 0.0835547 0
M  V30 33588 H 3173.99 -1.49018 0.106753 0
M  V30 33589 H 3175.87 -3.51679 -2.32164 0
M  V30 33590 H 3174.54 -2.32279 -2.25451 0
M  V30 33591 H 3173.45 -3.71901 -0.405044 0
M  V30 33592 H 3174.78 -4.89089 -0.552481 0
M  V30 33593 N 3176.44 -0.0702223 -1.57443 0
M  V30 33594 C 3177.68 0.599256 -1.9343 0
M  V30 33595 C 3178.01 1.69714 -0.95013 0
M  V30 33596 O 3177.27 1.9567 0.0345033 0
M  V30 33597 C 3177.57 1.21688 -3.36046 0
M  V30 33598 C 3177.23 0.245294 -4.50232 0
M  V30 33599 C 3175.89 -0.0220007 -4.81195 0
M  V30 33600 C 3178.25 -0.419487 -5.19509 0
M  V30 33601 C 3175.57 -0.961192 -5.78773 0
M  V30 33602 C 3177.93 -1.34699 -6.18093 0
M  V30 33603 C 3176.59 -1.62277 -6.47474 0
M  V30 33604 H 3175.86 0.219283 -0.707811 0
M  V30 33605 H 3178.51 -0.140763 -1.90982 0
M  V30 33606 H 3176.81 2.0326 -3.34952 0
M  V30 33607 H 3178.51 1.74215 -3.61179 0
M  V30 33608 H 3175.1 0.463812 -4.26083 0
M  V30 33609 H 3179.28 -0.226096 -4.95785 0
M  V30 33610 H 3174.54 -1.18212 -5.99863 0
M  V30 33611 H 3178.71 -1.86807 -6.70877 0
M  V30 33612 H 3176.34 -2.35213 -7.22896 0
M  V30 33613 N 3177.91 1.56283 0.203321 0
M  V30 33614 C 3179.16 1.79336 0.923118 0
M  V30 33615 C 3179.48 0.64201 1.84764 0
M  V30 33616 O 3180.68 0.75663 2.60744 0
M  V30 33617 C 3179.14 3.17658 1.69179 0
M  V30 33618 C 3178.75 4.40571 0.812503 0
M  V30 33619 C 3180.49 3.50026 2.40171 0
M  V30 33620 C 3178.4 5.69915 1.57957 0
M  V30 33621 H 3177.33 0.668665 0.34843 0
M  V30 33622 H 3179.98 1.82649 0.176568 0
M  V30 33623 H 3178.36 3.08572 2.48192 0
M  V30 33624 H 3179.53 4.60759 0.0616146 0
M  V30 33625 H 3177.85 4.15851 0.213817 0
M  V30 33626 H 3180.45 4.43896 2.98095 0
M  V30 33627 H 3180.79 2.73381 3.13956 0
M  V30 33628 H 3181.32 3.60523 1.68132 0
M  V30 33629 H 3178.06 6.49503 0.884653 0
M  V30 33630 H 3177.58 5.53758 2.3046 0
M  V30 33631 H 3179.26 6.10741 2.13552 0
M  V30 33632 N 3179.39 -0.470729 1.50406 0
M  V30 33633 C 3180.33 -1.58616 1.65449 0
M  V30 33634 C 3181.34 -1.53724 0.535976 0
M  V30 33635 O 3182.53 -1.59106 0.809167 0
M  V30 33636 C 3179.63 -2.97497 1.62323 0
M  V30 33637 C 3178.8 -3.27254 2.90213 0
M  V30 33638 C 3177.86 -4.45691 2.79725 0
M  V30 33639 O 3176.89 -4.45981 3.5368 0
M  V30 33640 N 3178.09 -5.47369 1.93305 0
M  V30 33641 H 3180.85 -1.46128 2.61662 0
M  V30 33642 H 3178.41 -0.659152 1.47874 0
M  V30 33643 H 3180.41 -3.74697 1.52919 0
M  V30 33644 H 3178.98 -3.03753 0.738445 0
M  V30 33645 H 3178.2 -2.38663 3.13741 0
M  V30 33646 H 3179.48 -3.43947 3.74937 0
M  V30 33647 H 3178.88 -5.49956 1.32534 0
M  V30 33648 H 3177.44 -6.23552 1.89804 0
M  V30 33649 N 3180.87 -1.39989 -0.72393 0
M  V30 33650 C 3181.82 -1.39592 -1.83801 0
M  V30 33651 C 3182.79 -0.254025 -1.64146 0
M  V30 33652 O 3183.97 -0.450825 -1.85397 0
M  V30 33653 C 3181.11 -1.25609 -3.21428 0
M  V30 33654 C 3180.23 -2.49436 -3.52712 0
M  V30 33655 C 3179.36 -2.27958 -4.79801 0
M  V30 33656 C 3178.4 -3.47403 -5.03962 0
M  V30 33657 N 3177.54 -3.25172 -6.2226 0
M  V30 33658 H 3182.38 -2.34821 -1.83475 0
M  V30 33659 H 3179.91 -1.16634 -0.896375 0
M  V30 33660 H 3181.87 -1.15511 -4.0089 0
M  V30 33661 H 3180.5 -0.340043 -3.21004 0
M  V30 33662 H 3179.55 -2.70094 -2.67868 0
M  V30 33663 H 3180.87 -3.38369 -3.6648 0
M  V30 33664 H 3180.02 -2.15165 -5.67264 0
M  V30 33665 H 3178.76 -1.36436 -4.68227 0
M  V30 33666 H 3177.76 -3.60681 -4.14957 0
M  V30 33667 H 3178.99 -4.3984 -5.17414 0
M  V30 33668 H 3176.94 -2.36325 -6.11953 0
M  V30 33669 H 3176.85 -4.07667 -6.36666 0
M  V30 33670 H 3178.12 -3.16096 -7.12533 0
M  V30 33671 N 3182.35 0.955282 -1.25348 0
M  V30 33672 C 3183.6 1.69419 -1.09453 0
M  V30 33673 C 3183.91 1.92175 0.364425 0
M  V30 33674 O 3185.12 2.63757 0.643797 0
M  V30 33675 C 3183.57 3.05005 -1.9105 0
M  V30 33676 C 3183.18 2.90047 -3.41433 0
M  V30 33677 C 3184.93 3.82683 -1.83723 0
M  V30 33678 C 3182.83 4.21019 -4.15328 0
M  V30 33679 H 3181.76 0.635365 -0.405989 0
M  V30 33680 H 3184.41 1.06351 -1.49538 0
M  V30 33681 H 3182.8 3.68973 -1.43788 0
M  V30 33682 H 3183.97 2.35015 -3.96364 0
M  V30 33683 H 3182.28 2.25824 -3.49846 0
M  V30 33684 H 3184.88 4.79689 -2.36225 0
M  V30 33685 H 3185.22 4.08443 -0.804991 0
M  V30 33686 H 3185.76 3.25464 -2.28732 0
M  V30 33687 H 3182.5 4.00448 -5.18962 0
M  V30 33688 H 3182.02 4.75819 -3.6518 0
M  V30 33689 H 3183.7 4.89565 -4.23008 0
M  V30 33690 N 3183.83 1.06924 1.1578 0
M  V30 33691 C 3185.24 0.793921 1.38452 0
M  V30 33692 C 3185.44 -0.603841 1.92239 0
M  V30 33693 O 3184.5 -1.36331 2.12532 0
M  V30 33694 C 3185.81 1.86412 2.35947 0
M  V30 33695 C 3187.36 1.88837 2.49619 0
M  V30 33696 C 3187.84 2.94929 3.50401 0
M  V30 33697 N 3189.33 2.94004 3.57933 0
M  V30 33698 C 3190.06 3.72739 4.35722 0
M  V30 33699 N 3189.56 4.6131 5.1688 0
M  V30 33700 N 3191.35 3.61103 4.30768 0
M  V30 33701 H 3183.5 1.97079 0.792067 0
M  V30 33702 H 3185.76 0.854387 0.410764 0
M  V30 33703 H 3185.47 2.86823 2.03532 0
M  V30 33704 H 3185.34 1.72055 3.35674 0
M  V30 33705 H 3187.73 0.890808 2.81334 0
M  V30 33706 H 3187.81 2.07273 1.49906 0
M  V30 33707 H 3187.46 3.94882 3.19422 0
M  V30 33708 H 3187.39 2.73742 4.49859 0
M  V30 33709 H 3189.88 2.29796 3.00003 0
M  V30 33710 H 3190.19 5.18029 5.73468 0
M  V30 33711 H 3188.54 4.65362 5.16201 0
M  V30 33712 H 3191.73 2.91289 3.66427 0
M  V30 33713 H 3191.9 4.22708 4.91144 0
M  V30 33714 N 3185.31 -1.32538 0.852723 0
M  V30 33715 C 3186.53 -2.01512 0.469079 0
M  V30 33716 C 3186.95 -1.64098 -0.933672 0
M  V30 33717 O 3186.31 -0.861311 -1.60897 0
M  V30 33718 C 3186.36 -3.56548 0.596291 0
M  V30 33719 O 3186.08 -3.92618 1.94378 0
M  V30 33720 C 3187.58 -4.42796 0.211402 0
M  V30 33721 H 3184.8 -0.645108 0.1846 0
M  V30 33722 H 3187.34 -1.69161 1.14913 0
M  V30 33723 H 3185.5 -3.87383 -0.0360031 0
M  V30 33724 H 3185.91 -4.87336 1.93918 0
M  V30 33725 H 3187.39 -5.5088 0.351421 0
M  V30 33726 H 3187.86 -4.30936 -0.847979 0
M  V30 33727 H 3188.47 -4.17346 0.818691 0
M  V30 33728 N 3186.78 -0.610474 -1.45296 0
M  V30 33729 C 3188.01 -0.113247 -2.0659 0
M  V30 33730 C 3188.43 1.20358 -1.45462 0
M  V30 33731 O 3187.78 1.73375 -0.569854 0
M  V30 33732 C 3187.83 0.0297776 -3.61488 0
M  V30 33733 O 3187.56 -1.23496 -4.20334 0
M  V30 33734 C 3189.06 0.558125 -4.39773 0
M  V30 33735 H 3186.28 -0.0701672 -0.667321 0
M  V30 33736 H 3188.82 -0.839026 -1.86496 0
M  V30 33737 H 3186.98 0.705896 -3.80915 0
M  V30 33738 H 3187.39 -1.06649 -5.13543 0
M  V30 33739 H 3188.86 0.607278 -5.48649 0
M  V30 33740 H 3189.34 1.58099 -4.09757 0
M  V30 33741 H 3189.95 -0.0840452 -4.25217 0
M  V30 33742 N 3188.26 1.53669 -0.349801 0
M  V30 33743 C 3189.54 1.9328 0.300385 0
M  V30 33744 C 3189.92 1.28194 1.67719 0
M  V30 33745 O 3189.27 0.435167 2.24318 0
M  V30 33746 C 3189.48 3.47071 0.366405 0
M  V30 33747 C 3190.82 4.20133 0.614275 0
M  V30 33748 O 3191.85 3.53368 0.448265 0
M  V30 33749 O 3190.71 5.38419 0.936327 0
M  V30 33750 H 3187.8 0.807928 0.176585 0
M  V30 33751 H 3190.35 1.64884 -0.401434 0
M  V30 33752 H 3189.12 3.8668 -0.599523 0
M  V30 33753 H 3188.74 3.81653 1.11476 0
M  V30 33754 N 3189.74 0.0785709 1.57404 0
M  V30 33755 C 3190.99 -0.588592 1.92921 0
M  V30 33756 C 3191.3 -1.70357 0.961136 0
M  V30 33757 O 3192.51 -2.43076 1.20938 0
M  V30 33758 C 3190.96 -1.09833 3.42731 0
M  V30 33759 C 3190.57 -0.0139985 4.47998 0
M  V30 33760 C 3192.32 -1.73917 3.87238 0
M  V30 33761 C 3190.22 -0.538166 5.88946 0
M  V30 33762 H 3189.15 -0.223632 0.720073 0
M  V30 33763 H 3191.8 0.151902 1.8287 0
M  V30 33764 H 3190.19 -1.892 3.47878 0
M  V30 33765 H 3191.36 0.760853 4.54475 0
M  V30 33766 H 3189.67 0.531023 4.13 0
M  V30 33767 H 3192.27 -2.14178 4.89931 0
M  V30 33768 H 3192.61 -2.60185 3.24976 0
M  V30 33769 H 3193.15 -1.01161 3.84722 0
M  V30 33770 H 3189.89 0.287511 6.54869 0
M  V30 33771 H 3189.41 -1.28039 5.85974 0
M  V30 33772 H 3191.09 -1.01242 6.3903 0
M  V30 33773 N 3191.22 -1.56389 -0.19503 0
M  V30 33774 C 3192.47 -1.80271 -0.913604 0
M  V30 33775 C 3192.79 -0.651638 -1.8379 0
M  V30 33776 O 3192.06 0.330023 -1.931 0
M  V30 33777 H 3190.64 -0.66496 -0.340348 0
M  V30 33778 H 3193.3 -1.93866 -0.200525 0
M  V30 33779 H 3192.39 -2.73433 -1.50468 0
M  V30 33780 N 3192.7 0.462746 -1.50653 0
M  V30 33781 C 3193.64 1.55968 -1.70125 0
M  V30 33782 C 3194.61 1.56987 -0.542609 0
M  V30 33783 O 3195.8 1.74389 -0.774145 0
M  V30 33784 C 3192.94 2.93884 -1.80904 0
M  V30 33785 C 3192.05 3.0259 -3.08324 0
M  V30 33786 C 3191.19 4.31471 -3.09848 0
M  V30 33787 C 3190.22 4.3395 -4.31687 0
M  V30 33788 N 3189.36 5.54316 -4.30904 0
M  V30 33789 H 3194.2 1.3867 -2.6377 0
M  V30 33790 H 3191.74 0.674068 -1.30747 0
M  V30 33791 H 3193.7 3.73873 -1.85135 0
M  V30 33792 H 3192.33 3.09798 -0.906908 0
M  V30 33793 H 3191.38 2.15421 -3.13525 0
M  V30 33794 H 3192.69 3.00281 -3.98287 0
M  V30 33795 H 3191.84 5.19814 -3.12854 0
M  V30 33796 H 3190.58 4.364 -2.17729 0
M  V30 33797 H 3189.59 3.44003 -4.28885 0
M  V30 33798 H 3190.81 4.30706 -5.25042 0
M  V30 33799 H 3188.76 5.60014 -3.41643 0
M  V30 33800 H 3188.68 5.53783 -5.14646 0
M  V30 33801 H 3189.94 6.44761 -4.38068 0
M  V30 33802 N 3194.17 1.40371 0.716495 0
M  V30 33803 C 3195.41 1.40049 1.48881 0
M  V30 33804 C 3195.78 0.00161402 1.92 0
M  V30 33805 O 3196.98 -0.126717 2.68501 0
M  V30 33806 C 3195.25 2.36158 2.68261 0
M  V30 33807 S 3196.81 2.54186 3.5768 0
M  V30 33808 H 3193.63 0.4964 0.509026 0
M  V30 33809 H 3196.23 1.76632 0.837936 0
M  V30 33810 H 3194.93 3.36629 2.34753 0
M  V30 33811 H 3194.46 2.00856 3.38261 0
M  V30 33812 H 3196.48 1.7936 4.62649 0
M  V30 33813 N 3195.65 -0.948621 1.25853 0
M  V30 33814 C 3196.58 -2.06365 1.09251 0
M  V30 33815 C 3197.56 -1.701 -0.000175269 0
M  V30 33816 O 3198.75 -1.9345 0.170476 0
M  V30 33817 C 3195.88 -3.39822 0.716836 0
M  V30 33818 C 3194.83 -3.90119 1.76043 0
M  V30 33819 C 3194.16 -5.2014 1.23927 0
M  V30 33820 C 3195.46 -4.15827 3.16046 0
M  V30 33821 H 3197.15 -2.20512 2.02521 0
M  V30 33822 H 3194.7 -1.0596 0.975111 0
M  V30 33823 H 3196.65 -4.17283 0.587605 0
M  V30 33824 H 3195.38 -3.2563 -0.251569 0
M  V30 33825 H 3194.03 -3.14832 1.87821 0
M  V30 33826 H 3193.68 -5.02323 0.260925 0
M  V30 33827 H 3193.38 -5.54762 1.93682 0
M  V30 33828 H 3194.91 -6.00192 1.12256 0
M  V30 33829 H 3196.32 -4.83927 3.07388 0
M  V30 33830 H 3194.72 -4.61716 3.83325 0
M  V30 33831 H 3195.79 -3.21881 3.62658 0
M  V30 33832 N 3197.13 -1.07536 -1.15212 0
M  V30 33833 C 3198.38 -0.794649 -1.85387 0
M  V30 33834 C 3198.69 0.681806 -1.83332 0
M  V30 33835 O 3199.9 1.07736 -2.49209 0
M  V30 33836 C 3198.35 -1.37147 -3.32744 0
M  V30 33837 C 3197.96 -2.87908 -3.43239 0
M  V30 33838 C 3199.71 -1.16886 -4.08091 0
M  V30 33839 C 3197.61 -3.38771 -4.84756 0
M  V30 33840 H 3196.54 -0.293589 -0.694494 0
M  V30 33841 H 3199.19 -1.29566 -1.29941 0
M  V30 33842 H 3197.58 -0.798189 -3.87872 0
M  V30 33843 H 3198.75 -3.51296 -2.98208 0
M  V30 33844 H 3197.07 -3.0698 -2.8134 0
M  V30 33845 H 3199.66 -1.52362 -5.12533 0
M  V30 33846 H 3200.01 -0.108031 -4.1616 0
M  V30 33847 H 3200.54 -1.7086 -3.59238 0
M  V30 33848 H 3197.28 -4.44388 -4.81871 0
M  V30 33849 H 3196.8 -2.80137 -5.30361 0
M  V30 33850 H 3198.48 -3.34837 -5.53618 0
M  V30 33851 N 3198.61 1.32084 -0.85974 0
M  V30 33852 C 3199.54 2.31248 -0.323543 0
M  V30 33853 C 3200.52 1.59904 0.580057 0
M  V30 33854 O 3201.7 1.87673 0.499232 0
M  V30 33855 C 3198.83 3.43902 0.4846 0
M  V30 33856 C 3197.79 4.26764 -0.325008 0
M  V30 33857 C 3197.11 5.3123 0.608187 0
M  V30 33858 C 3198.41 4.98661 -1.55353 0
M  V30 33859 H 3200.11 2.76344 -1.15214 0
M  V30 33860 H 3197.65 1.32855 -0.555465 0
M  V30 33861 H 3199.61 4.12318 0.870166 0
M  V30 33862 H 3198.33 2.97547 1.34661 0
M  V30 33863 H 3196.99 3.60002 -0.692391 0
M  V30 33864 H 3196.64 4.81126 1.46719 0
M  V30 33865 H 3196.34 5.87558 0.0704538 0
M  V30 33866 H 3197.86 6.02507 0.990819 0
M  V30 33867 H 3199.28 5.5973 -1.23997 0
M  V30 33868 H 3197.67 5.64737 -2.02957 0
M  V30 33869 H 3198.74 4.26233 -2.312 0
M  V30 33870 N 3200.09 0.618171 1.4497 0
M  V30 33871 C 3201.5 0.201367 1.85611 0
M  V30 33872 C 3201.85 -1.24424 1.51701 0
M  V30 33873 O 3200.97 -1.94492 0.948784 0
M  V30 33874 C 3201.57 0.358678 3.36896 0
M  V30 33875 C 3200.13 -0.0035158 3.764 0
M  V30 33876 C 3199.27 0.678165 2.6888 0
M  V30 33877 H 3202.23 0.824176 1.35621 0
M  V30 33878 H 3202.25 -0.406109 3.78327 0
M  V30 33879 H 3201.76 1.4109 3.61546 0
M  V30 33880 H 3199.86 -1.05451 3.57367 0
M  V30 33881 H 3199.97 0.397511 4.77448 0
M  V30 33882 H 3198.34 0.114744 2.54441 0
M  V30 33883 H 3199.12 1.73273 2.96364 0
M  V30 33884 N 3201.56 -1.53481 0.357946 0
M  V30 33885 C 3202.47 -2.29205 -0.500233 0
M  V30 33886 C 3203.49 -1.34872 -1.09934 0
M  V30 33887 O 3204.67 -1.67923 -1.11192 0
M  V30 33888 C 3201.73 -3.06088 -1.62823 0
M  V30 33889 C 3200.79 -4.16073 -1.05744 0
M  V30 33890 C 3200.03 -4.8928 -2.13167 0
M  V30 33891 O 3200.25 -4.6228 -3.34145 0
M  V30 33892 O 3199.18 -5.75393 -1.76653 0
M  V30 33893 H 3203.01 -3.03479 0.115749 0
M  V30 33894 H 3200.59 -1.48897 0.122553 0
M  V30 33895 H 3202.48 -3.54121 -2.28421 0
M  V30 33896 H 3201.15 -2.34657 -2.22975 0
M  V30 33897 H 3200.06 -3.72309 -0.365576 0
M  V30 33898 H 3201.39 -4.89648 -0.500575 0
M  V30 33899 N 3203.04 -0.0869173 -1.5736 0
M  V30 33900 C 3204.27 0.586463 -1.98101 0
M  V30 33901 C 3204.68 1.62765 -0.964578 0
M  V30 33902 O 3204.02 1.83617 0.0551478 0
M  V30 33903 C 3204.09 1.29941 -3.35195 0
M  V30 33904 C 3203.75 0.409932 -4.55158 0
M  V30 33905 C 3204.75 -0.338624 -5.18796 0
M  V30 33906 C 3202.43 0.330382 -5.01212 0
M  V30 33907 C 3204.43 -1.15479 -6.26852 0
M  V30 33908 C 3202.11 -0.489447 -6.09137 0
M  V30 33909 C 3203.11 -1.23069 -6.71821 0
M  V30 33910 O 3202.8 -2.03697 -7.77665 0
M  V30 33911 H 3202.53 0.162539 -0.656168 0
M  V30 33912 H 3205.08 -0.160415 -2.04773 0
M  V30 33913 H 3203.31 2.09268 -3.25182 0
M  V30 33914 H 3205 1.86651 -3.60439 0
M  V30 33915 H 3205.77 -0.286849 -4.84151 0
M  V30 33916 H 3201.65 0.896978 -4.52189 0
M  V30 33917 H 3205.19 -1.73386 -6.75709 0
M  V30 33918 H 3201.09 -0.542731 -6.43214 0
M  V30 33919 H 3201.86 -1.96291 -7.94614 0
M  V30 33920 N 3204.52 1.5649 0.186734 0
M  V30 33921 C 3205.75 1.85586 0.925884 0
M  V30 33922 C 3206.17 0.671477 1.75707 0
M  V30 33923 O 3205.53 -0.379655 1.7728 0
M  V30 33924 C 3205.58 3.12978 1.79101 0
M  V30 33925 O 3204.68 2.94117 2.89082 0
M  V30 33926 H 3204.02 0.610867 0.260264 0
M  V30 33927 H 3206.55 2.0372 0.189525 0
M  V30 33928 H 3206.56 3.43987 2.19402 0
M  V30 33929 H 3205.24 3.98798 1.18037 0
M  V30 33930 H 3203.81 2.74426 2.52477 0
M  V30 33931 N 3206 -0.45475 1.50897 0
M  V30 33932 C 3207.24 -1.20738 1.62942 0
M  V30 33933 C 3207.58 -1.91265 0.336373 0
M  V30 33934 O 3206.85 -1.82847 -0.663121 0
M  V30 33935 C 3207.14 -2.23817 2.82096 0
M  V30 33936 C 3206.99 -1.57488 4.21328 0
M  V30 33937 C 3208.31 -3.24974 2.96783 0
M  V30 33938 H 3205.43 -0.437592 0.593028 0
M  V30 33939 H 3208.07 -0.498927 1.83332 0
M  V30 33940 H 3206.22 -2.84238 2.64842 0
M  V30 33941 H 3207.89 -1.00538 4.50211 0
M  V30 33942 H 3206.13 -0.877589 4.2483 0
M  V30 33943 H 3206.8 -2.32473 5.0066 0
M  V30 33944 H 3209.28 -2.74592 3.12632 0
M  V30 33945 H 3208.16 -3.9441 3.81749 0
M  V30 33946 H 3208.42 -3.90061 2.08098 0
M  V30 33947 N 3207.48 -1.40749 -0.709041 0
M  V30 33948 C 3208.41 -1.44293 -1.8358 0
M  V30 33949 C 3209.39 -0.303096 -1.67378 0
M  V30 33950 O 3210.57 -0.512645 -1.87311 0
M  V30 33951 C 3207.7 -1.31121 -3.21597 0
M  V30 33952 C 3206.66 -2.42776 -3.52482 0
M  V30 33953 C 3205.98 -2.14677 -4.89712 0
M  V30 33954 C 3207.28 -3.8512 -3.52817 0
M  V30 33955 H 3208.98 -2.38591 -1.80871 0
M  V30 33956 H 3206.52 -1.1484 -0.868775 0
M  V30 33957 H 3208.48 -1.32216 -4.00121 0
M  V30 33958 H 3207.2 -0.333022 -3.24898 0
M  V30 33959 H 3205.86 -2.40942 -2.76301 0
M  V30 33960 H 3205.51 -1.15233 -4.89623 0
M  V30 33961 H 3205.21 -2.89487 -5.11342 0
M  V30 33962 H 3206.73 -2.17465 -5.70562 0
M  V30 33963 H 3208.14 -3.88742 -4.2137 0
M  V30 33964 H 3206.54 -4.59502 -3.85976 0
M  V30 33965 H 3207.61 -4.14235 -2.52066 0
M  V30 33966 N 3208.96 0.941933 -1.26354 0
M  V30 33967 C 3210.37 1.21532 -1.03451 0
M  V30 33968 C 3210.57 2.00056 0.24082 0
M  V30 33969 O 3209.63 2.33941 0.950158 0
M  V30 33970 C 3210.94 1.97733 -2.26544 0
M  V30 33971 C 3212.49 2.10727 -2.31437 0
M  V30 33972 C 3212.96 2.9033 -3.54221 0
M  V30 33973 N 3214.45 2.97904 -3.54693 0
M  V30 33974 C 3215.19 3.59924 -4.46366 0
M  V30 33975 N 3214.69 4.2345 -5.48326 0
M  V30 33976 N 3216.48 3.57189 -4.34019 0
M  V30 33977 H 3208.63 0.416968 -2.08267 0
M  V30 33978 H 3210.89 0.247005 -0.915255 0
M  V30 33979 H 3210.6 1.47443 -3.19302 0
M  V30 33980 H 3210.47 2.98401 -2.30731 0
M  V30 33981 H 3212.86 2.6021 -1.39194 0
M  V30 33982 H 3212.94 1.09325 -2.31261 0
M  V30 33983 H 3212.58 2.41535 -4.46792 0
M  V30 33984 H 3212.51 3.91987 -3.51644 0
M  V30 33985 H 3215.01 2.5274 -2.80946 0
M  V30 33986 H 3215.32 4.68669 -6.14466 0
M  V30 33987 H 3213.66 4.22039 -5.52184 0
M  V30 33988 H 3216.85 3.06752 -3.53583 0
M  V30 33989 H 3217.03 4.05235 -5.05657 0
M  V30 33990 N 3210.43 1.08146 1.1464 0
M  V30 33991 C 3211.85 0.808561 1.37603 0
M  V30 33992 C 3212.05 -0.583418 1.92869 0
M  V30 33993 O 3211.11 -1.3407 2.13966 0
M  V30 33994 C 3212.42 1.88904 2.33957 0
M  V30 33995 C 3213.97 1.91474 2.47602 0
M  V30 33996 C 3214.44 2.98629 3.47253 0
M  V30 33997 N 3215.93 2.97784 3.54795 0
M  V30 33998 C 3216.67 3.77339 4.31744 0
M  V30 33999 N 3216.16 4.66766 5.11958 0
M  V30 34000 N 3217.96 3.65652 4.26913 0
M  V30 34001 H 3210.11 1.97908 0.771119 0
M  V30 34002 H 3212.37 0.858695 0.401679 0
M  V30 34003 H 3212.08 2.88966 2.00479 0
M  V30 34004 H 3211.95 1.75606 3.3383 0
M  V30 34005 H 3214.34 0.920598 2.80373 0
M  V30 34006 H 3214.42 2.08851 1.47699 0
M  V30 34007 H 3214.06 3.98248 3.15216 0
M  V30 34008 H 3213.99 2.78498 4.4693 0
M  V30 34009 H 3216.48 2.32965 2.97549 0
M  V30 34010 H 3216.8 5.24082 5.67941 0
M  V30 34011 H 3215.14 4.7081 5.11236 0
M  V30 34012 H 3218.33 2.95159 3.63317 0
M  V30 34013 H 3218.51 4.27893 4.86633 0
M  V30 34014 N 3211.91 -1.31626 0.866732 0
M  V30 34015 C 3213.33 -1.4952 0.558214 0
M  V30 34016 C 3213.53 -1.79862 -0.908408 0
M  V30 34017 O 3212.58 -1.87534 -1.69077 0
M  V30 34018 C 3213.9 -2.63119 1.45563 0
M  V30 34019 C 3215.44 -2.77003 1.45733 0
M  V30 34020 C 3215.92 -3.93696 2.34024 0
M  V30 34021 N 3217.41 -4.00977 2.31886 0
M  V30 34022 C 3218.15 -4.90534 2.96924 0
M  V30 34023 N 3217.64 -5.85015 3.71119 0
M  V30 34024 N 3219.43 -4.83754 2.86249 0
M  V30 34025 H 3211.59 -1.102 1.81576 0
M  V30 34026 H 3213.85 -0.54423 0.77622 0
M  V30 34027 H 3213.55 -2.47464 2.49909 0
M  V30 34028 H 3213.43 -3.59184 1.15181 0
M  V30 34029 H 3215.82 -2.92075 0.42147 0
M  V30 34030 H 3215.9 -1.81615 1.80137 0
M  V30 34031 H 3215.54 -3.79383 3.37685 0
M  V30 34032 H 3215.47 -4.88385 1.96946 0
M  V30 34033 H 3217.96 -3.33378 1.77954 0
M  V30 34034 H 3218.27 -6.50073 4.17881 0
M  V30 34035 H 3216.62 -5.85004 3.75227 0
M  V30 34036 H 3219.81 -4.08917 2.27826 0
M  V30 34037 H 3219.98 -5.53344 3.37216 0
M  V30 34038 N 3213.39 -0.62585 -1.4464 0
M  V30 34039 C 3214.64 -0.136925 -2.02939 0
M  V30 34040 C 3214.99 1.22563 -1.4831 0
M  V30 34041 O 3214.28 1.80039 -0.65549 0
M  V30 34042 C 3214.48 -0.0585009 -3.57352 0
M  V30 34043 C 3214.31 -1.41191 -4.2696 0
M  V30 34044 C 3213.08 -1.99733 -4.64149 0
M  V30 34045 C 3215.27 -2.34463 -4.57746 0
M  V30 34046 N 3213.26 -3.28365 -5.187 0
M  V30 34047 C 3214.63 -3.47705 -5.13324 0
M  V30 34048 C 3216.68 -2.33608 -4.39695 0
M  V30 34049 C 3215.39 -4.60281 -5.52751 0
M  V30 34050 C 3217.41 -3.45244 -4.80167 0
M  V30 34051 C 3216.77 -4.57209 -5.35854 0
M  V30 34052 H 3212.87 -0.0939016 -0.776342 0
M  V30 34053 H 3215.46 -0.828193 -1.76207 0
M  V30 34054 H 3213.63 0.602033 -3.83706 0
M  V30 34055 H 3215.36 0.438765 -4.02314 0
M  V30 34056 H 3212.11 -1.52736 -4.48295 0
M  V30 34057 H 3212.54 -3.94115 -5.50457 0
M  V30 34058 H 3217.18 -1.48296 -3.9594 0
M  V30 34059 H 3214.9 -5.46304 -5.95464 0
M  V30 34060 H 3218.48 -3.45752 -4.67918 0
M  V30 34061 H 3217.36 -5.42164 -5.66593 0
M  V30 34062 N 3214.87 1.53289 -0.36608 0
M  V30 34063 C 3215.8 2.28678 0.47207 0
M  V30 34064 C 3216.78 1.31127 1.0835 0
M  V30 34065 O 3217.96 1.59997 1.10066 0
M  V30 34066 C 3215.09 3.07639 1.61168 0
M  V30 34067 C 3214.05 4.12883 1.12747 0
M  V30 34068 C 3213.37 4.7993 2.35736 0
M  V30 34069 C 3214.67 5.2187 0.211862 0
M  V30 34070 H 3216.37 2.98989 -0.15689 0
M  V30 34071 H 3213.91 1.43795 -0.0768962 0
M  V30 34072 H 3215.87 3.59127 2.20467 0
M  V30 34073 H 3214.59 2.3502 2.26788 0
M  V30 34074 H 3213.25 3.62341 0.55717 0
M  V30 34075 H 3212.9 4.03882 2.99814 0
M  V30 34076 H 3212.6 5.51048 2.0401 0
M  V30 34077 H 3214.12 5.34212 2.9572 0
M  V30 34078 H 3215.54 5.68857 0.71234 0
M  V30 34079 H 3213.93 6.00098 -0.0145556 0
M  V30 34080 H 3215 4.7913 -0.745837 0
M  V30 34081 N 3216.35 0.0952613 1.57312 0
M  V30 34082 C 3217.62 -0.610682 1.85823 0
M  V30 34083 C 3218 -1.86332 0.992147 0
M  V30 34084 O 3217.35 -2.28409 0.0646071 0
M  V30 34085 C 3217.56 -0.925907 3.36494 0
M  V30 34086 C 3218.91 -1.28929 4.04552 0
M  V30 34087 O 3219.93 -1.01692 3.41376 0
M  V30 34088 O 3218.79 -1.7994 5.16027 0
M  V30 34089 H 3215.89 -0.305613 0.768459 0
M  V30 34090 H 3218.43 0.127971 1.69217 0
M  V30 34091 H 3217.2 -0.0372439 3.91282 0
M  V30 34092 H 3216.83 -1.72053 3.58446 0
M  V30 34093 N 3217.82 -1.56587 -0.178432 0
M  V30 34094 C 3218.75 -1.98886 -1.22338 0
M  V30 34095 C 3219.73 -0.863336 -1.46562 0
M  V30 34096 O 3220.92 -1.1289 -1.58017 0
M  V30 34097 C 3218.05 -2.34266 -2.56392 0
M  V30 34098 C 3217 -3.49712 -2.4675 0
M  V30 34099 C 3216.33 -3.70814 -3.85229 0
M  V30 34100 C 3217.63 -4.83385 -1.97829 0
M  V30 34101 H 3219.32 -2.86426 -0.871798 0
M  V30 34102 H 3216.87 -1.37802 -0.417924 0
M  V30 34103 H 3218.82 -2.62454 -3.29691 0
M  V30 34104 H 3217.55 -1.43627 -2.93324 0
M  V30 34105 H 3216.21 -3.21641 -1.75906 0
M  V30 34106 H 3215.85 -2.77477 -4.19542 0
M  V30 34107 H 3215.55 -4.48488 -3.79648 0
M  V30 34108 H 3217.08 -4.01395 -4.60124 0
M  V30 34109 H 3218.49 -5.10495 -2.60897 0
M  V30 34110 H 3216.89 -5.64646 -2.03213 0
M  V30 34111 H 3217.96 -4.75854 -0.932255 0
M  V30 34112 N 3219.3 0.446741 -1.51136 0
M  V30 34113 C 3220.55 1.19695 -1.63338 0
M  V30 34114 C 3220.88 1.91413 -0.345133 0
M  V30 34115 O 3220.13 1.83861 0.670332 0
M  V30 34116 C 3220.43 2.24565 -2.78038 0
M  V30 34117 C 3220.1 1.69927 -4.17655 0
M  V30 34118 C 3218.76 1.54748 -4.55639 0
M  V30 34119 C 3221.11 1.29657 -5.04815 0
M  V30 34120 C 3218.44 0.977587 -5.78498 0
M  V30 34121 C 3220.79 0.741002 -6.28245 0
M  V30 34122 C 3219.45 0.576039 -6.6501 0
M  V30 34123 H 3218.72 0.437995 -0.597697 0
M  V30 34124 H 3221.37 0.489358 -1.85142 0
M  V30 34125 H 3219.68 3.01327 -2.50418 0
M  V30 34126 H 3221.37 2.82415 -2.8468 0
M  V30 34127 H 3217.96 1.82715 -3.87703 0
M  V30 34128 H 3222.15 1.40208 -4.76083 0
M  V30 34129 H 3217.4 0.837456 -6.05637 0
M  V30 34130 H 3221.58 0.420408 -6.9513 0
M  V30 34131 H 3219.2 0.13231 -7.60085 0
M  V30 34132 O 3220.82 1.50241 0.592445 0
M  V30 34133 H 3221.51 1.48199 1.24727 0
M  V30 END ATOM
M  V30 BEGIN BOND
M  V30 END BOND
M  V30 END CTAB
M  END
$$$$
