drugbank_target|P29498 14 kDa fatty acid-binding protein (DB04557)
 OpenBabel12092119563D

  0  0  0     0  0            999 V3000
M  V30 BEGIN CTAB
M  V30 COUNTS 2076 2090 0 0 0
M  V30 BEGIN ATOM
M  V30 1 H -0.908 1.98254 -0.117106 0
M  V30 2 N 0 1.576 0 0
M  V30 3 C 0.933 2.03868 1.02534 0
M  V30 4 C 1.911 0.928543 1.3348 0
M  V30 5 O 3.095 1.19667 1.45644 0
M  V30 6 C 0.222 2.43627 2.35294 0
M  V30 7 C -0.732 3.65373 2.2001 0
M  V30 8 S 0.101 5.13292 1.52614 0
M  V30 9 C 1.257 5.56322 2.86805 0
M  V30 10 H 1.49 2.90518 0.631377 0
M  V30 11 H -0.977 1.52953 0.210867 0
M  V30 12 H 0.981 2.67203 3.11629 0
M  V30 13 H -0.358 1.57376 2.7183 0
M  V30 14 H -1.165 3.90944 3.18086 0
M  V30 15 H -1.563 3.418 1.51819 0
M  V30 16 H 0.729 5.58782 3.83104 0
M  V30 17 H 1.672 6.56266 2.65933 0
M  V30 18 H 2.08 4.83886 2.90714 0
M  V30 19 N 1.4781 -0.272755 1.55222 0
M  V30 20 C 2.7031 -1.02683 1.80197 0
M  V30 21 C 3.1281 -1.79142 0.573551 0
M  V30 22 O 2.4861 -1.74917 -0.476849 0
M  V30 23 C 2.5341 -1.9609 3.02624 0
M  V30 24 O 1.6381 -3.04863 2.77727 0
M  V30 25 H 0.9791 -0.293557 0.595584 0
M  V30 26 H 3.5091 -0.30159 2.02365 0
M  V30 27 H 3.5191 -2.38039 3.31363 0
M  V30 28 H 2.1941 -1.39851 3.91682 0
M  V30 29 H 0.7711 -2.67228 2.60084 0
M  V30 30 N 2.9562 -1.48159 -0.537278 0
M  V30 31 C 4.1812 -1.59707 -1.32319 0
M  V30 32 C 4.6062 -0.254859 -1.86365 0
M  V30 33 O 3.9642 0.772378 -1.64024 0
M  V30 34 C 4.0122 -2.6412 -2.45505 0
M  V30 35 O 3.1162 -2.20774 -3.48328 0
M  V30 36 H 2.4572 -0.535791 -0.392204 0
M  V30 37 H 4.9872 -1.94092 -0.647268 0
M  V30 38 H 4.9972 -2.85166 -2.91795 0
M  V30 39 H 3.6722 -3.61567 -2.05528 0
M  V30 40 H 2.2492 -2.09911 -3.08207 0
M  V30 41 N 4.4343 0.785586 -1.36625 0
M  V30 42 C 5.6813 1.54362 -1.31067 0
M  V30 43 C 6.0093 1.94195 0.10893 0
M  V30 44 O 5.2643 1.63262 1.07908 0
M  V30 45 C 5.5633 2.83007 -2.1827 0
M  V30 46 C 5.2293 2.62294 -3.6676 0
M  V30 47 C 3.8913 2.56353 -4.0723 0
M  V30 48 C 6.2433 2.43371 -4.6089 0
M  V30 49 C 3.5713 2.29461 -5.39967 0
M  V30 50 C 5.9233 2.18005 -5.93849 0
M  V30 51 C 4.5873 2.105 -6.3344 0
M  V30 52 H 3.8573 0.564851 -0.479609 0
M  V30 53 H 6.5043 0.906028 -1.68711 0
M  V30 54 H 4.8093 3.51253 -1.73576 0
M  V30 55 H 6.5063 3.40817 -2.11292 0
M  V30 56 H 3.0963 2.67774 -3.34656 0
M  V30 57 H 7.2803 2.46959 -4.30494 0
M  V30 58 H 2.5363 2.22135 -5.69619 0
M  V30 59 H 6.7103 2.02359 -6.66351 0
M  V30 60 H 4.3373 1.89425 -7.36222 0
M  V30 61 N 5.9124 1.20967 1.01018 0
M  V30 62 C 6.8424 0.988272 2.11555 0
M  V30 63 C 7.8234 -0.0849778 1.69888 0
M  V30 64 O 9.0084 0.0738202 1.9406 0
M  V30 65 C 6.1384 0.546528 3.42973 0
M  V30 66 C 5.0924 1.56375 3.9841 0
M  V30 67 C 4.4184 0.97842 5.25672 0
M  V30 68 C 5.7184 2.94922 4.31066 0
M  V30 69 H 7.4124 1.91276 2.30334 0
M  V30 70 H 4.9584 0.921073 1.1069 0
M  V30 71 H 6.9114 0.378839 4.19694 0
M  V30 72 H 5.6354 -0.413598 3.23971 0
M  V30 73 H 4.2944 1.71891 3.23804 0
M  V30 74 H 3.9424 0.0101688 5.02999 0
M  V30 75 H 3.6424 1.65784 5.63728 0
M  V30 76 H 5.1664 0.821939 6.05043 0
M  V30 77 H 6.5804 2.8288 4.9865 0
M  V30 78 H 4.9774 3.5983 4.80253 0
M  V30 79 H 6.0474 3.4616 3.39561 0
M  V30 80 N 7.3905 -1.2043 1.01659 0
M  V30 81 C 8.6385 -1.89423 0.704522 0
M  V30 82 C 8.9595 -1.79231 -0.768197 0
M  V30 83 O 8.2295 -1.1947 -1.55254 0
M  V30 84 H 6.8095 -0.701178 0.257602 0
M  V30 85 H 9.4715 -1.4626 1.28818 0
M  V30 86 H 8.5675 -2.96052 0.987916 0
M  V30 87 N 8.8686 -0.792821 -1.36206 0
M  V30 88 C 9.8156 -0.191653 -2.30003 0
M  V30 89 C 10.7856 0.666453 -1.52143 0
M  V30 90 O 11.9706 0.61442 -1.80636 0
M  V30 91 C 9.1106 0.664848 -3.38635 0
M  V30 92 C 8.2236 -0.212175 -4.31479 0
M  V30 93 C 7.3586 0.651022 -5.27196 0
M  V30 94 C 6.3976 -0.227247 -6.11678 0
M  V30 95 N 5.5346 0.595127 -6.99573 0
M  V30 96 H 10.3746 -0.996978 -2.80828 0
M  V30 97 H 7.9116 -0.503206 -1.38225 0
M  V30 98 H 9.8696 1.17645 -4.00269 0
M  V30 99 H 8.4996 1.43557 -2.89122 0
M  V30 100 H 7.5516 -0.841777 -3.70969 0
M  V30 101 H 8.8636 -0.888751 -4.90818 0
M  V30 102 H 8.0176 1.2283 -5.94136 0
M  V30 103 H 6.7566 1.36121 -4.68319 0
M  V30 104 H 5.7616 -0.816904 -5.43697 0
M  V30 105 H 6.9866 -0.93509 -6.72631 0
M  V30 106 H 4.9326 1.28955 -6.432 0
M  V30 107 H 4.8496 -0.0236952 -7.55996 0
M  V30 108 H 6.1176 1.15613 -7.70879 0
M  V30 109 N 10.3467 1.47872 -0.545128 0
M  V30 110 C 11.5927 2.03385 -0.0247951 0
M  V30 111 C 11.9477 1.41325 1.30556 0
M  V30 112 O 11.2407 0.5552 1.8338 0
M  V30 113 C 11.4347 3.57131 0.13867 0
M  V30 114 C 11.2637 4.34097 -1.17429 0
M  V30 115 C 10.0337 4.74458 -1.73831 0
M  V30 116 C 12.2317 4.6998 -2.08861 0
M  V30 117 N 10.2137 5.3602 -2.99258 0
M  V30 118 C 11.5847 5.31719 -3.18866 0
M  V30 119 C 13.6397 4.5191 -2.09003 0
M  V30 120 C 12.3427 5.77295 -4.29096 0
M  V30 121 C 14.3687 4.98477 -3.18237 0
M  V30 122 C 13.7307 5.60253 -4.26961 0
M  V30 123 H 9.8297 0.780339 -0.050943 0
M  V30 124 H 12.4137 1.80507 -0.729753 0
M  V30 125 H 10.5847 3.79802 0.812733 0
M  V30 126 H 12.3167 3.99282 0.659976 0
M  V30 127 H 9.0717 4.56037 -1.2778 0
M  V30 128 H 9.4957 5.71355 -3.63157 0
M  V30 129 H 14.1377 4.03516 -1.26234 0
M  V30 130 H 11.8557 6.24687 -5.12633 0
M  V30 131 H 15.4417 4.86274 -3.1942 0
M  V30 132 H 14.3217 5.95631 -5.10091 0
M  V30 133 N 11.8248 0.280983 1.55075 0
M  V30 134 C 12.7718 -0.603937 2.22758 0
M  V30 135 C 13.7418 -1.1452 1.20309 0
M  V30 136 O 14.9268 -1.19343 1.48869 0
M  V30 137 C 12.0668 -1.77947 2.95684 0
M  V30 138 C 11.1798 -1.2715 4.12864 0
M  V30 139 C 10.3148 -2.4093 4.7342 0
M  V30 140 C 9.3538 -1.87165 5.82783 0
M  V30 141 N 8.4908 -2.94441 6.37377 0
M  V30 142 H 13.3308 -0.020124 2.97993 0
M  V30 143 H 10.8678 0.00183425 1.471 0
M  V30 144 H 12.8258 -2.47055 3.36184 0
M  V30 145 H 11.4558 -2.33522 2.22861 0
M  V30 146 H 10.5078 -0.473331 3.77444 0
M  V30 147 H 11.8198 -0.837751 4.91715 0
M  V30 148 H 10.9738 -3.18021 5.1667 0
M  V30 149 H 9.7128 -2.87623 3.93859 0
M  V30 150 H 8.7178 -1.08556 5.38976 0
M  V30 151 H 9.9428 -1.41401 6.64216 0
M  V30 152 H 7.8888 -3.40505 5.60707 0
M  V30 153 H 7.8058 -2.55501 7.11516 0
M  V30 154 H 9.0738 -3.71489 6.85285 0
M  V30 155 N 13.3029 -1.57598 0.00835791 0
M  V30 156 C 14.2329 -2.1198 -0.979113 0
M  V30 157 C 15.2139 -1.03091 -1.35301 0
M  V30 158 O 16.3989 -1.30818 -1.43528 0
M  V30 159 C 13.5289 -2.62995 -2.26828 0
M  V30 160 C 12.4829 -3.76485 -2.03576 0
M  V30 161 C 11.8089 -4.13846 -3.38579 0
M  V30 162 C 13.1089 -5.0342 -1.39161 0
M  V30 163 H 14.8029 -2.94738 -0.526281 0
M  V30 164 H 12.3489 -1.41783 -0.251704 0
M  V30 165 H 14.3019 -2.99669 -2.96271 0
M  V30 166 H 13.0259 -1.7737 -2.7424 0
M  V30 167 H 11.6849 -3.40217 -1.36557 0
M  V30 168 H 11.3329 -3.25232 -3.83709 0
M  V30 169 H 11.0329 -4.90312 -3.23834 0
M  V30 170 H 12.5569 -4.53086 -4.09323 0
M  V30 171 H 13.9709 -5.37812 -1.98573 0
M  V30 172 H 12.3679 -5.84746 -1.34878 0
M  V30 173 H 13.4379 -4.83548 -0.361868 0
M  V30 174 N 14.781 0.264519 -1.55364 0
M  V30 175 C 16.006 1.01726 -1.80739 0
M  V30 176 C 16.431 1.78836 -0.583044 0
M  V30 177 O 15.789 1.75167 0.467566 0
M  V30 178 C 15.837 1.94482 -3.03659 0
M  V30 179 O 14.941 3.03386 -2.7934 0
M  V30 180 H 14.282 0.290395 -0.597132 0
M  V30 181 H 16.812 0.290854 -2.02522 0
M  V30 182 H 16.822 2.36278 -3.32621 0
M  V30 183 H 15.497 1.37772 -3.92418 0
M  V30 184 H 14.074 2.65844 -2.61498 0
M  V30 185 N 16.2591 1.48442 0.529413 0
M  V30 186 C 17.1691 1.6569 1.66084 0
M  V30 187 C 18.1851 0.539432 1.65427 0
M  V30 188 O 19.3611 0.810572 1.84368 0
M  V30 189 C 16.4261 1.69315 3.02545 0
M  V30 190 C 15.4871 2.92694 3.14052 0
M  V30 191 C 14.7201 2.96137 4.44003 0
M  V30 192 O 14.9431 2.07973 5.31134 0
M  V30 193 O 13.8771 3.88312 4.59888 0
M  V30 194 H 17.7031 2.61483 1.54469 0
M  V30 195 H 15.2881 1.3185 0.702567 0
M  V30 196 H 17.1701 1.74217 3.83701 0
M  V30 197 H 15.8451 0.766966 3.14483 0
M  V30 198 H 14.7521 2.93324 2.32189 0
M  V30 199 H 16.0851 3.84699 3.0703 0
M  V30 200 N 17.7372 -0.778329 1.37039 0
M  V30 201 C 18.9622 -1.57248 1.35233 0
M  V30 202 C 19.3872 -1.87999 -0.0615568 0
M  V30 203 O 18.7452 -1.48734 -1.03672 0
M  V30 204 C 18.7932 -2.86353 2.19167 0
M  V30 205 O 17.8972 -3.80442 1.59178 0
M  V30 206 H 17.2382 -0.476569 0.462362 0
M  V30 207 H 19.7682 -0.963853 1.80474 0
M  V30 208 H 19.7782 -3.35519 2.32145 0
M  V30 209 H 18.4532 -2.63299 3.21942 0
M  V30 210 H 17.0302 -3.39067 1.55203 0
M  V30 211 N 19.2153 -1.21501 -1.00376 0
M  V30 212 C 20.1653 -0.942843 -2.07592 0
M  V30 213 C 21.1493 0.102384 -1.60574 0
M  V30 214 O 22.3413 -0.10671 -1.76678 0
M  V30 215 C 19.4703 -0.510729 -3.3948 0
M  V30 216 C 18.5563 -1.59009 -3.93163 0
M  V30 217 N 18.9473 -2.81544 -4.20198 0
M  V30 218 C 17.2453 -1.45925 -4.21452 0
M  V30 219 C 17.9463 -3.51261 -4.63671 0
M  V30 220 N 16.9223 -2.78703 -4.66718 0
M  V30 221 H 20.7243 -1.87378 -2.26421 0
M  V30 222 H 18.2383 -1.11093 -1.18458 0
M  V30 223 H 20.2353 -0.297101 -4.1584 0
M  V30 224 H 18.8953 0.413436 -3.22057 0
M  V30 225 H 19.9063 -3.18075 -4.08716 0
M  V30 226 H 16.5833 -0.600467 -4.13159 0
M  V30 227 H 17.9733 -4.56183 -4.93302 0
M  V30 228 N 20.6934 1.19889 -1.02296 0
M  V30 229 C 21.6414 2.24938 -0.592081 0
M  V30 230 C 22.6354 1.65257 0.372357 0
M  V30 231 O 23.8414 1.78371 0.241583 0
M  V30 232 H 20.2164 0.731787 -0.173182 0
M  V30 233 H 22.1874 2.58603 -1.48885 0
M  V30 234 C 20.9364 3.47668 0.047351 0
M  V30 235 H 20.2594 3.93875 -0.685772 0
M  V30 236 H 21.6994 4.22852 0.311862 0
M  V30 237 C 20.1584 3.11136 1.29212 0
M  V30 238 O 20.6884 3.2325 2.38479 0
M  V30 239 N 18.8944 2.65625 1.17863 0
M  V30 240 H 18.4414 2.55968 0.289493 0
M  V30 241 H 18.3994 2.41553 2.01245 0
M  V30 242 N 22.1715 0.800033 1.35784 0
M  V30 243 C 23.4185 0.377342 1.98953 0
M  V30 244 C 23.7465 -1.05378 1.6348 0
M  V30 245 O 23.0015 -1.74459 0.886707 0
M  V30 246 C 23.3005 0.500276 3.53881 0
M  V30 247 C 22.9665 1.89375 4.09204 0
M  V30 248 C 21.6285 2.27499 4.24025 0
M  V30 249 C 23.9805 2.8057 4.39238 0
M  V30 250 C 21.3085 3.562 4.66195 0
M  V30 251 C 23.6605 4.0871 4.82844 0
M  V30 252 C 22.3245 4.46843 4.95871 0
M  V30 253 H 21.5945 0.138079 0.728021 0
M  V30 254 H 24.2415 1.01955 1.62103 0
M  V30 255 H 22.5465 -0.225405 3.91151 0
M  V30 256 H 24.2435 0.154097 4.00704 0
M  V30 257 H 20.8335 1.58753 3.98115 0
M  V30 258 H 25.0175 2.52367 4.27346 0
M  V30 259 H 20.2735 3.85602 4.74469 0
M  V30 260 H 24.4475 4.79481 5.05046 0
M  V30 261 H 22.0745 5.46623 5.28306 0
M  V30 262 N 23.6496 -1.47581 0.552962 0
M  V30 263 C 24.9266 -1.95563 -0.0381515 0
M  V30 264 C 25.3066 -1.49552 -1.48988 0
M  V30 265 O 24.6546 -0.732414 -2.16444 0
M  V30 266 C 24.8646 -3.48848 0.102919 0
M  V30 267 C 26.2126 -4.24577 -0.0446082 0
M  V30 268 O 27.2366 -3.56187 0.0302548 0
M  V30 269 O 26.0956 -5.46116 -0.204923 0
M  V30 270 H 23.1896 -0.824321 -0.0665067 0
M  V30 271 H 25.7356 -1.58001 0.619186 0
M  V30 272 H 24.5076 -3.75129 1.11328 0
M  V30 273 H 24.1306 -3.93165 -0.592224 0
M  V30 274 N 25.1277 -0.289203 -1.54924 0
M  V30 275 C 26.0907 0.579144 -2.21762 0
M  V30 276 C 27.0907 1.07047 -1.1999 0
M  V30 277 O 28.2807 0.968384 -1.44803 0
M  V30 278 C 25.4127 1.80055 -2.8947 0
M  V30 279 H 26.6057 -0.00464908 -2.999 0
M  V30 280 H 24.1587 -0.0399306 -1.56249 0
M  V30 281 H 24.8937 2.42449 -2.15381 0
M  V30 282 H 24.6787 1.45602 -3.64064 0
M  V30 283 H 26.1687 2.41773 -3.40493 0
M  V30 284 N 26.6058 1.57591 -0.0167156 0
M  V30 285 C 27.8518 1.91567 0.665582 0
M  V30 286 C 28.1848 0.892298 1.72487 0
M  V30 287 O 27.4598 -0.0867127 1.94307 0
M  V30 288 C 27.7428 3.36069 1.29342 0
M  V30 289 C 27.5958 4.49135 0.244541 0
M  V30 290 C 28.9148 3.803 2.21495 0
M  V30 291 H 26.0338 0.69666 0.240488 0
M  V30 292 H 28.6758 1.89866 -0.0714356 0
M  V30 293 H 26.8258 3.3765 1.92158 0
M  V30 294 H 28.4978 4.59689 -0.385228 0
M  V30 295 H 26.7408 4.3165 -0.431379 0
M  V30 296 H 27.4118 5.47242 0.723207 0
M  V30 297 H 29.8878 3.80377 1.68678 0
M  V30 298 H 28.7638 4.82127 2.62382 0
M  V30 299 H 29.0248 3.15104 3.101 0
M  V30 300 N 28.0839 -0.256276 1.55502 0
M  V30 301 C 29.0169 -1.34321 1.84481 0
M  V30 302 C 29.9949 -1.46802 0.699131 0
M  V30 303 O 31.1789 -1.63165 0.943904 0
M  V30 304 C 28.3059 -2.71779 2.02123 0
M  V30 305 C 27.3519 -2.76496 3.24734 0
M  V30 306 S 28.1849 -2.3405 4.81644 0
M  V30 307 C 29.3409 -3.73452 5.02279 0
M  V30 308 H 29.5739 -1.09539 2.76385 0
M  V30 309 H 27.1069 -0.45678 1.47489 0
M  V30 310 H 29.0649 -3.50932 2.12972 0
M  V30 311 H 27.7259 -2.93803 1.11078 0
M  V30 312 H 26.9189 -3.77424 3.34016 0
M  V30 313 H 26.5209 -2.05379 3.12563 0
M  V30 314 H 28.8129 -4.6887 4.89047 0
M  V30 315 H 29.7559 -3.6911 6.04287 0
M  V30 316 H 30.1639 -3.6553 4.30172 0
M  V30 317 N 29.562 -1.4872 -0.521534 0
M  V30 318 C 30.787 -1.61101 -1.30618 0
M  V30 319 C 31.212 -0.274611 -1.86085 0
M  V30 320 O 30.57 0.754937 -1.64834 0
M  V30 321 C 30.618 -2.66709 -2.4269 0
M  V30 322 O 29.722 -2.24456 -3.45967 0
M  V30 323 H 29.063 -0.539921 -0.386499 0
M  V30 324 H 31.593 -1.94767 -0.626645 0
M  V30 325 H 31.603 -2.88245 -2.88754 0
M  V30 326 H 30.278 -3.63727 -2.01682 0
M  V30 327 H 28.855 -2.13168 -3.05964 0
M  V30 328 N 31.0401 0.771051 -1.3745 0
M  V30 329 C 31.9871 1.88435 -1.3327 0
M  V30 330 C 32.9571 1.64914 -0.198136 0
M  V30 331 O 34.1421 1.86821 -0.387606 0
M  V30 332 C 31.2821 3.25509 -1.14622 0
M  V30 333 C 30.3951 3.60979 -2.37314 0
M  V30 334 C 29.5301 4.87265 -2.11533 0
M  V30 335 C 28.5691 5.15469 -3.30088 0
M  V30 336 N 27.7061 6.32944 -3.03853 0
M  V30 337 H 32.5461 1.91344 -2.28455 0
M  V30 338 H 30.0831 0.935466 -1.13523 0
M  V30 339 H 32.0411 4.04582 -1.01831 0
M  V30 340 H 30.6711 3.21974 -0.230837 0
M  V30 341 H 29.7231 2.76885 -2.60842 0
M  V30 342 H 31.0351 3.77759 -3.25729 0
M  V30 343 H 30.1891 5.74244 -1.95777 0
M  V30 344 H 28.9281 4.7259 -1.20457 0
M  V30 345 H 27.9331 4.26966 -3.46382 0
M  V30 346 H 29.1581 5.32052 -4.22016 0
M  V30 347 H 27.1041 6.19625 -2.15407 0
M  V30 348 H 27.0211 6.50143 -3.85812 0
M  V30 349 H 28.2891 7.22857 -2.91716 0
M  V30 350 N 32.5182 1.22032 0.997298 0
M  V30 351 C 33.4482 1.01065 2.10495 0
M  V30 352 C 34.4292 -0.0669542 1.69968 0
M  V30 353 O 35.6142 0.0943987 1.9397 0
M  V30 354 C 32.7442 0.582874 3.42374 0
M  V30 355 C 31.6982 1.60592 3.96729 0
M  V30 356 C 31.0242 1.03412 5.24605 0
M  V30 357 C 32.3242 2.99478 4.27914 0
M  V30 358 H 34.0182 1.93708 2.28292 0
M  V30 359 H 31.5642 0.932761 1.09707 0
M  V30 360 H 33.5172 0.423332 4.19268 0
M  V30 361 H 32.2412 -0.379213 3.24391 0
M  V30 362 H 30.9002 1.75316 3.21963 0
M  V30 363 H 30.5482 0.063518 5.0296 0
M  V30 364 H 30.2482 1.71754 5.61938 0
M  V30 365 H 31.7722 0.886066 6.04137 0
M  V30 366 H 33.1862 2.88153 4.95622 0
M  V30 367 H 31.5832 3.64903 4.76409 0
M  V30 368 H 32.6532 3.49742 3.3587 0
M  V30 369 N 33.9963 -1.19345 1.0293 0
M  V30 370 C 35.2443 -1.88665 0.724574 0
M  V30 371 C 35.5653 -1.80036 -0.749144 0
M  V30 372 O 34.8353 -1.2111 -1.53978 0
M  V30 373 H 33.4153 -0.698406 0.265025 0
M  V30 374 H 36.0773 -1.44885 1.30362 0
M  V30 375 H 35.1733 -2.94987 1.01926 0
M  V30 376 N 35.4744 -0.807222 -1.35358 0
M  V30 377 C 36.7204 -0.388463 -1.99045 0
M  V30 378 C 37.0534 1.04184 -1.63888 0
M  V30 379 O 36.3284 1.72292 -0.902535 0
M  V30 380 C 36.6114 -0.572783 -3.55515 0
M  V30 381 C 36.4644 -2.04807 -4.00468 0
M  V30 382 C 37.7834 0.00114064 -4.401 0
M  V30 383 H 34.9024 -0.142619 -0.723069 0
M  V30 384 H 37.5444 -1.01687 -1.60498 0
M  V30 385 H 35.6944 -0.0378425 -3.88482 0
M  V30 386 H 37.3664 -2.64544 -3.77908 0
M  V30 387 H 35.6094 -2.54427 -3.51353 0
M  V30 388 H 36.2804 -2.12792 -5.09337 0
M  V30 389 H 38.7564 -0.455716 -4.13597 0
M  V30 390 H 37.6324 -0.157737 -5.48673 0
M  V30 391 H 37.8934 1.09488 -4.28328 0
M  V30 392 N 36.9525 1.47285 -0.560781 0
M  V30 393 C 38.1775 2.07359 -0.0410566 0
M  V30 394 C 38.6025 1.41017 1.24483 0
M  V30 395 O 37.9605 0.486368 1.74654 0
M  V30 396 C 38.0085 3.6035 0.134123 0
M  V30 397 O 37.1125 3.94681 1.19587 0
M  V30 398 H 36.4535 0.661887 -0.0529291 0
M  V30 399 H 38.9835 1.89252 -0.777482 0
M  V30 400 H 38.9935 4.0652 0.347207 0
M  V30 401 H 37.6685 4.08034 -0.805047 0
M  V30 402 H 36.2455 3.60251 0.962987 0
M  V30 403 N 38.4306 0.297415 1.54768 0
M  V30 404 C 39.6766 -0.306263 2.01081 0
M  V30 405 C 40.0316 -1.518 1.18214 0
M  V30 406 O 39.3246 -1.89967 0.249613 0
M  V30 407 C 39.5186 -0.717561 3.50123 0
M  V30 408 C 39.3476 0.45277 4.47415 0
M  V30 409 C 38.1176 0.943651 4.9641 0
M  V30 410 C 40.3156 1.29657 4.97688 0
M  V30 411 N 38.2976 2.08112 5.77549 0
M  V30 412 C 39.6686 2.28158 5.76493 0
M  V30 413 C 41.7236 1.32735 4.79881 0
M  V30 414 C 40.4266 3.29509 6.39387 0
M  V30 415 C 42.4526 2.32943 5.43591 0
M  V30 416 C 41.8146 3.30174 6.22225 0
M  V30 417 H 37.9136 -0.0766274 0.778237 0
M  V30 418 H 40.4976 0.426515 1.89971 0
M  V30 419 H 38.6686 -1.41952 3.6153 0
M  V30 420 H 40.4006 -1.30047 3.83236 0
M  V30 421 H 37.1556 0.51922 4.70745 0
M  V30 422 H 37.5796 2.65414 6.22803 0
M  V30 423 H 42.2216 0.589375 4.18672 0
M  V30 424 H 39.9396 4.04228 6.99732 0
M  V30 425 H 43.5256 2.36094 5.31743 0
M  V30 426 H 42.4056 4.06445 6.7065 0
M  V30 427 N 39.9087 -1.5758 0.0250728 0
M  V30 428 C 40.8717 -2.08896 -0.943139 0
M  V30 429 C 41.8717 -1.00321 -1.25668 0
M  V30 430 O 43.0617 -1.26495 -1.19769 0
M  V30 431 C 40.1937 -2.55143 -2.26086 0
M  V30 432 H 41.3867 -2.95723 -0.498775 0
M  V30 433 H 38.9397 -1.54703 -0.222888 0
M  V30 434 H 39.6747 -1.71633 -2.75159 0
M  V30 435 H 39.4597 -3.34461 -2.04641 0
M  V30 436 H 40.9497 -2.95083 -2.95492 0
M  V30 437 N 41.3868 0.248026 -1.55636 0
M  V30 438 C 42.6148 0.993808 -1.81469 0
M  V30 439 C 43.0298 1.78991 -0.60064 0
M  V30 440 O 42.3868 1.77345 0.430682 0
M  V30 441 C 42.4378 1.93258 -3.05506 0
M  V30 442 O 42.1588 1.16869 -4.22224 0
M  V30 443 C 43.6598 2.79444 -3.4413 0
M  V30 444 H 40.8798 0.292486 -0.603898 0
M  V30 445 H 43.4238 0.271253 -2.02693 0
M  V30 446 H 41.5788 2.60943 -2.86335 0
M  V30 447 H 41.9928 1.80359 -4.92515 0
M  V30 448 H 43.4668 3.41066 -4.34026 0
M  V30 449 H 43.9438 3.50499 -2.64665 0
M  V30 450 H 44.5498 2.17214 -3.65648 0
M  V30 451 N 42.8649 1.48995 0.513639 0
M  V30 452 C 44.2809 1.35478 0.843682 0
M  V30 453 C 44.4809 0.378213 1.97919 0
M  V30 454 O 43.5369 -0.194689 2.51748 0
M  V30 455 C 44.8499 2.75901 1.1958 0
M  V30 456 C 46.3979 2.84509 1.30474 0
M  V30 457 C 46.8729 4.25671 1.69021 0
M  V30 458 N 48.3639 4.28422 1.76094 0
M  V30 459 C 49.0989 5.34601 2.07338 0
M  V30 460 N 48.5949 6.5104 2.36894 0
M  V30 461 N 50.3879 5.22007 2.08483 0
M  V30 462 H 42.5389 2.11092 -0.235328 0
M  V30 463 H 44.8019 0.947039 -0.0426669 0
M  V30 464 H 44.5079 3.49001 0.434913 0
M  V30 465 H 44.3819 3.10467 2.1422 0
M  V30 466 H 46.7689 2.11655 2.05637 0
M  V30 467 H 46.8499 2.53542 0.339155 0
M  V30 468 H 46.4939 4.99048 0.944135 0
M  V30 469 H 46.4239 4.54094 2.66658 0
M  V30 470 H 48.9149 3.44441 1.55464 0
M  V30 471 H 49.2279 7.2779 2.59887 0
M  V30 472 H 47.5729 6.54287 2.34378 0
M  V30 473 H 50.7639 4.30051 1.84861 0
M  V30 474 H 50.9369 6.04854 2.325 0
M  V30 475 N 44.343 -0.763751 1.37857 0
M  V30 476 C 45.275 -1.88664 1.30148 0
M  V30 477 C 46.288 -1.61365 0.215685 0
M  V30 478 O 47.477 -1.72134 0.472459 0
M  V30 479 C 44.577 -3.24075 0.991396 0
M  V30 480 C 43.75 -3.78958 2.18426 0
M  V30 481 C 42.809 -4.92862 1.8432 0
M  V30 482 O 41.835 -5.08027 2.56704 0
M  V30 483 N 43.037 -5.75071 0.792081 0
M  V30 484 H 45.802 -1.95791 2.26905 0
M  V30 485 H 43.363 -0.943226 1.31586 0
M  V30 486 H 45.355 -3.97804 0.743935 0
M  V30 487 H 43.925 -3.12399 0.112122 0
M  V30 488 H 43.145 -2.96913 2.59299 0
M  V30 489 H 44.433 -4.12357 2.98058 0
M  V30 490 H 43.831 -5.65375 0.191595 0
M  V30 491 H 42.388 -6.48991 0.60449 0
M  V30 492 N 45.8211 -1.22559 -0.990812 0
M  V30 493 C 47.0701 -1.04553 -1.72486 0
M  V30 494 C 47.3831 0.419349 -1.91052 0
M  V30 495 O 48.5891 0.719121 -2.61803 0
M  V30 496 C 47.0451 -1.82231 -3.10355 0
M  V30 497 C 46.6531 -3.32981 -2.99713 0
M  V30 498 C 48.3971 -1.7268 -3.87791 0
M  V30 499 C 46.3041 -4.03091 -4.32748 0
M  V30 500 H 45.2341 -0.387614 -0.646739 0
M  V30 501 H 47.8851 -1.46429 -1.10593 0
M  V30 502 H 46.2671 -1.33155 -3.72942 0
M  V30 503 H 47.4411 -3.89466 -2.46278 0
M  V30 504 H 45.7561 -3.43231 -2.35758 0
M  V30 505 H 48.3531 -2.22381 -4.86262 0
M  V30 506 H 48.6961 -0.687607 -4.10582 0
M  V30 507 H 49.2291 -2.1931 -3.31885 0
M  V30 508 H 45.9681 -5.07273 -4.15156 0
M  V30 509 H 45.4881 -3.51394 -4.86089 0
M  V30 510 H 47.1671 -4.08804 -5.01486 0
M  V30 511 N 47.2992 1.18797 -1.03562 0
M  V30 512 C 48.5472 1.88278 -0.734569 0
M  V30 513 C 48.8682 1.8043 0.739586 0
M  V30 514 O 48.1382 1.21925 1.53333 0
M  V30 515 H 46.7182 0.696991 -0.268725 0
M  V30 516 H 49.3802 1.44192 -1.31129 0
M  V30 517 H 48.4762 2.94443 -1.03489 0
M  V30 518 N 48.7773 0.814389 1.34928 0
M  V30 519 C 49.7253 0.218424 2.31572 0
M  V30 520 C 50.7193 -0.636128 1.57002 0
M  V30 521 O 51.9253 -0.52842 1.72069 0
M  V30 522 H 48.3003 0.0518799 0.750208 0
M  V30 523 H 50.2713 1.04852 2.79372 0
M  V30 524 C 49.0203 -0.61207 3.4227 0
M  V30 525 H 48.3433 0.0361578 3.99784 0
M  V30 526 H 49.7833 -0.995317 4.12152 0
M  V30 527 C 48.2423 -1.78087 2.85984 0
M  V30 528 O 48.7723 -2.8787 2.80168 0
M  V30 529 N 46.9783 -1.59488 2.42924 0
M  V30 530 H 46.5253 -0.701874 2.47854 0
M  V30 531 H 46.4833 -2.37846 2.05613 0
M  V30 532 N 50.2554 -1.46986 0.568584 0
M  V30 533 C 51.4834 -2.0683 0.0539956 0
M  V30 534 C 51.8984 -1.41953 -1.24478 0
M  V30 535 O 51.2554 -0.519933 -1.74937 0
M  V30 536 C 51.3064 -3.61254 -0.133362 0
M  V30 537 O 51.0274 -4.237 1.11399 0
M  V30 538 C 52.5284 -4.37992 -0.683927 0
M  V30 539 H 49.7484 -0.669058 0.0510141 0
M  V30 540 H 52.2924 -1.88824 0.785234 0
M  V30 541 H 50.4474 -3.78735 -0.81477 0
M  V30 542 H 50.8614 -5.16388 0.91888 0
M  V30 543 H 52.3354 -5.46684 -0.764263 0
M  V30 544 H 52.8124 -4.05058 -1.69778 0
M  V30 545 H 53.4184 -4.25283 -0.0378494 0
M  V30 546 N 51.7335 -0.305618 -1.54608 0
M  V30 547 C 52.9795 0.302746 -2.00528 0
M  V30 548 C 53.3125 1.53184 -1.19367 0
M  V30 549 O 52.5875 1.92598 -0.271321 0
M  V30 550 C 52.8705 0.654756 -3.54097 0
M  V30 551 C 52.7235 -0.583793 -4.45995 0
M  V30 552 C 54.0425 1.47947 -4.14487 0
M  V30 553 H 51.1615 0.108564 -0.72896 0
M  V30 554 H 53.8035 -0.418634 -1.85331 0
M  V30 555 H 51.9535 1.26935 -3.67178 0
M  V30 556 H 53.6255 -1.22224 -4.44814 0
M  V30 557 H 51.8685 -1.21615 -4.16404 0
M  V30 558 H 52.5395 -0.293287 -5.5122 0
M  V30 559 H 55.0155 0.96013 -4.04871 0
M  V30 560 H 53.8915 1.69454 -5.22088 0
M  V30 561 H 54.1525 2.47011 -3.66658 0
M  V30 562 N 53.2116 1.57565 -0.0334293 0
M  V30 563 C 54.4396 1.9628 0.654347 0
M  V30 564 C 54.8546 0.910138 1.65414 0
M  V30 565 O 54.2116 -0.107595 1.82183 0
M  V30 566 C 54.2626 3.35067 1.35693 0
M  V30 567 O 53.9836 4.36296 0.397191 0
M  V30 568 C 55.4846 3.88439 2.13613 0
M  V30 569 H 52.7046 0.646369 0.180132 0
M  V30 570 H 55.2486 2.04282 -0.0944721 0
M  V30 571 H 53.4036 3.2827 2.05712 0
M  V30 572 H 53.8176 5.1678 0.896597 0
M  V30 573 H 55.2916 4.8788 2.58219 0
M  V30 574 H 55.7686 3.22914 2.97696 0
M  V30 575 H 56.3746 3.98516 1.48543 0
M  V30 576 N 54.6897 -0.239769 1.55765 0
M  V30 577 C 56.1007 -0.808263 1.68297 0
M  V30 578 C 56.4517 -1.85736 0.632181 0
M  V30 579 O 55.5767 -2.15277 -0.220204 0
M  V30 580 C 56.1717 -1.47284 3.05111 0
M  V30 581 C 54.7307 -1.98895 3.19559 0
M  V30 582 C 53.8777 -0.842575 2.64189 0
M  V30 583 H 56.8287 -0.0154422 1.58692 0
M  V30 584 H 56.8497 -2.34111 2.99954 0
M  V30 585 H 56.3617 -0.709053 3.81568 0
M  V30 586 H 54.4627 -2.78132 2.47938 0
M  V30 587 H 54.5757 -2.18143 4.26556 0
M  V30 588 H 52.9397 -1.24501 2.22197 0
M  V30 589 H 53.7227 -0.0917552 3.43177 0
M  V30 590 N 56.1678 -1.49265 -0.50573 0
M  V30 591 C 57.3958 -1.62215 -1.28429 0
M  V30 592 C 57.8108 -0.291697 -1.86533 0
M  V30 593 O 57.1678 0.722233 -1.67601 0
M  V30 594 C 57.2188 -2.68735 -2.41793 0
M  V30 595 O 56.9398 -3.96619 -1.86078 0
M  V30 596 C 58.4408 -2.92346 -3.3324 0
M  V30 597 H 55.6608 -0.546239 -0.389697 0
M  V30 598 H 58.2048 -1.95265 -0.607609 0
M  V30 599 H 56.3598 -2.38476 -3.053 0
M  V30 600 H 56.7738 -4.55256 -2.60465 0
M  V30 601 H 58.2478 -3.70623 -4.09075 0
M  V30 602 H 58.7248 -2.02081 -3.89948 0
M  V30 603 H 59.3308 -3.24003 -2.75503 0
M  V30 604 N 57.6459 0.756429 -1.3826 0
M  V30 605 C 58.8919 1.51772 -1.34511 0
M  V30 606 C 59.2249 1.94089 0.0656691 0
M  V30 607 O 58.4999 1.65221 1.02626 0
M  V30 608 C 58.7829 2.77226 -2.29821 0
M  V30 609 C 58.6359 2.41065 -3.79747 0
M  V30 610 C 59.9549 3.79236 -2.23312 0
M  V30 611 H 57.0739 0.550578 -0.489931 0
M  V30 612 H 59.7159 0.866607 -1.69086 0
M  V30 613 H 57.8659 3.32784 -2.00467 0
M  V30 614 H 59.5379 1.91303 -4.19763 0
M  V30 615 H 57.7809 1.7356 -3.97567 0
M  V30 616 H 58.4519 3.3081 -4.41892 0
M  V30 617 H 60.9279 3.3321 -2.49219 0
M  V30 618 H 59.8039 4.64714 -2.92116 0
M  V30 619 H 60.0649 4.24615 -1.23102 0
M  V30 620 N 59.124 1.23083 0.984299 0
M  V30 621 C 60.352 1.08714 1.76037 0
M  V30 622 C 60.767 -0.361691 1.85303 0
M  V30 623 O 60.124 -1.25034 1.32939 0
M  V30 624 C 60.175 1.70206 3.18923 0
M  V30 625 O 59.896 3.09423 3.10144 0
M  V30 626 C 61.397 1.61227 4.12941 0
M  V30 627 H 58.617 0.380664 0.552572 0
M  V30 628 H 61.161 1.62853 1.23689 0
M  V30 629 H 59.316 1.20109 3.6831 0
M  V30 630 H 59.73 3.39188 4.00065 0
M  V30 631 H 61.204 2.08962 5.10919 0
M  V30 632 H 61.681 0.570375 4.35481 0
M  V30 633 H 62.287 2.10671 3.69456 0
M  V30 634 N 60.6021 -1.18246 1.0419 0
M  V30 635 C 61.8491 -1.88257 0.746017 0
M  V30 636 C 62.1771 -1.80429 -0.726331 0
M  V30 637 O 61.4321 -1.2 -1.54591 0
M  V30 638 C 61.7311 -3.38082 1.15911 0
M  V30 639 C 61.3971 -3.66114 2.63195 0
M  V30 640 C 60.0591 -3.73474 3.03432 0
M  V30 641 C 62.4111 -3.78398 3.5842 0
M  V30 642 C 59.7391 -3.90599 4.37778 0
M  V30 643 C 62.0911 -3.97039 4.92487 0
M  V30 644 C 60.7551 -4.02635 5.32392 0
M  V30 645 H 60.0251 -0.688883 0.272987 0
M  V30 646 H 62.6721 -1.3995 1.30715 0
M  V30 647 H 60.9771 -3.88377 0.516806 0
M  V30 648 H 62.6741 -3.90596 0.907516 0
M  V30 649 H 59.2641 -3.61003 2.3103 0
M  V30 650 H 63.4481 -3.72042 3.28479 0
M  V30 651 H 58.7041 -3.93175 4.68213 0
M  V30 652 H 62.8781 -4.05486 5.66175 0
M  V30 653 H 60.5051 -4.15657 6.36501 0
M  V30 654 N 62.0802 -0.821533 -1.34494 0
M  V30 655 C 63.3082 -0.421884 -2.02553 0
M  V30 656 C 63.7232 0.971745 -1.61872 0
M  V30 657 O 63.0802 1.62864 -0.823496 0
M  V30 658 C 63.1312 -0.51285 -3.57844 0
M  V30 659 O 62.8522 -1.85155 -3.97051 0
M  V30 660 C 64.3532 -0.107921 -4.43169 0
M  V30 661 H 61.5732 -0.169482 -0.649243 0
M  V30 662 H 64.1172 -1.1093 -1.71798 0
M  V30 663 H 62.2722 0.126474 -3.87193 0
M  V30 664 H 62.6862 -1.82482 -4.91732 0
M  V30 665 H 64.1602 -0.222657 -5.51551 0
M  V30 666 H 64.6372 0.948401 -4.28838 0
M  V30 667 H 65.2432 -0.720989 -4.19144 0
M  V30 668 N 63.5583 1.46682 -0.576371 0
M  V30 669 C 64.4913 2.27243 0.208731 0
M  V30 670 C 65.4693 1.35238 0.902746 0
M  V30 671 O 66.6533 1.64641 0.917904 0
M  V30 672 C 63.7803 3.12802 1.29896 0
M  V30 673 C 62.8263 4.20524 0.711457 0
M  V30 674 S 63.6593 5.33548 -0.456781 0
M  V30 675 C 64.8153 6.22673 0.634798 0
M  V30 676 H 65.0483 2.93484 -0.474838 0
M  V30 677 H 62.5813 1.50069 -0.363118 0
M  V30 678 H 64.5393 3.62661 1.92321 0
M  V30 679 H 63.2003 2.45887 1.95444 0
M  V30 680 H 62.3933 4.80191 1.53076 0
M  V30 681 H 61.9953 3.73645 0.162999 0
M  V30 682 H 64.2873 6.60181 1.52209 0
M  V30 683 H 65.2303 7.0806 0.0750311 0
M  V30 684 H 65.6383 5.56684 0.936092 0
M  V30 685 N 65.0364 0.313813 1.54444 0
M  V30 686 C 66.3134 -0.345447 1.92525 0
M  V30 687 C 66.6934 -1.70667 1.24242 0
M  V30 688 O 66.0414 -2.25273 0.382654 0
M  V30 689 C 66.2514 -0.44737 3.46121 0
M  V30 690 C 67.5994 -0.712238 4.18584 0
M  V30 691 O 68.6234 -0.530678 3.52225 0
M  V30 692 O 67.4824 -1.06183 5.36085 0
M  V30 693 H 64.5764 -0.195407 0.803583 0
M  V30 694 H 67.1224 0.362813 1.65776 0
M  V30 695 H 65.8944 0.509043 3.87975 0
M  V30 696 H 65.5174 -1.20359 3.78945 0
M  V30 697 N 66.5145 -1.57545 0.0417849 0
M  V30 698 C 67.7625 -1.91937 -0.632829 0
M  V30 699 C 68.0835 -0.919978 -1.71934 0
M  V30 700 O 67.3535 0.0366064 -1.95866 0
M  V30 701 H 65.9335 -0.708493 -0.236742 0
M  V30 702 H 68.5955 -1.9468 0.0925745 0
M  V30 703 H 67.6915 -2.92912 -1.07746 0
M  V30 704 N 67.9926 0.231505 -1.5589 0
M  V30 705 C 69.2696 0.981096 -1.69215 0
M  V30 706 C 69.6496 2.02799 -0.586164 0
M  V30 707 O 68.9976 2.24823 0.408253 0
M  V30 708 C 69.2076 1.60054 -3.10135 0
M  V30 709 C 70.5556 2.09658 -3.69227 0
M  V30 710 O 71.5796 1.69967 -3.13033 0
M  V30 711 O 70.4386 2.8258 -4.67772 0
M  V30 712 H 67.5326 0.457653 -0.688827 0
M  V30 713 H 70.0786 0.224073 -1.68214 0
M  V30 714 H 68.8506 0.844105 -3.82087 0
M  V30 715 H 68.4736 2.42336 -3.15212 0
M  V30 716 N 69.4707 1.49531 0.497807 0
M  V30 717 C 70.4177 1.66436 1.59899 0
M  V30 718 C 71.3877 0.505793 1.58212 0
M  V30 719 O 72.5727 0.733202 1.7615 0
M  V30 720 C 69.7127 1.7399 2.98029 0
M  V30 721 C 68.8257 3.01172 3.09708 0
M  V30 722 C 67.9607 2.99686 4.38591 0
M  V30 723 C 66.9997 4.21434 4.43914 0
M  V30 724 N 66.1367 4.1784 5.64229 0
M  V30 725 H 70.9767 2.60459 1.44793 0
M  V30 726 H 68.5137 1.29137 0.704423 0
M  V30 727 H 70.4717 1.76352 3.78095 0
M  V30 728 H 69.1017 0.834301 3.11832 0
M  V30 729 H 68.1537 3.08408 2.22685 0
M  V30 730 H 69.4657 3.91165 3.09502 0
M  V30 731 H 68.6197 3.00628 5.2698 0
M  V30 732 H 67.3587 2.07477 4.41367 0
M  V30 733 H 66.3637 4.20733 3.53926 0
M  V30 734 H 67.5887 5.14839 4.42851 0
M  V30 735 H 65.5347 3.28469 5.67841 0
M  V30 736 H 65.4517 5.01571 5.65652 0
M  V30 737 H 66.7197 4.22889 6.54817 0
M  V30 738 N 70.9488 -0.749086 1.3866 0
M  V30 739 C 71.8818 -1.87111 1.30631 0
M  V30 740 C 72.8598 -1.61572 0.18251 0
M  V30 741 O 74.0438 -1.85019 0.360592 0
M  V30 742 C 71.1708 -3.22815 1.02511 0
M  V30 743 C 70.2168 -3.67234 2.1689 0
M  V30 744 S 71.0498 -3.78245 3.79066 0
M  V30 745 C 72.2058 -5.16761 3.53142 0
M  V30 746 H 72.4388 -1.93636 2.25594 0
M  V30 747 H 69.9718 -0.912525 1.24549 0
M  V30 748 H 71.9298 -4.01181 0.869701 0
M  V30 749 H 70.5908 -3.13964 0.0925884 0
M  V30 750 H 69.7838 -4.65677 1.92771 0
M  V30 751 H 69.3858 -2.96034 2.28561 0
M  V30 752 H 71.6778 -6.02656 3.09534 0
M  V30 753 H 72.6208 -5.45902 4.50995 0
M  V30 754 H 73.0288 -4.85771 2.87554 0
M  V30 755 N 72.4269 -1.23603 -0.977757 0
M  V30 756 C 73.6549 -1.09646 -1.75458 0
M  V30 757 C 74.0699 0.351859 -1.85492 0
M  V30 758 O 73.4269 1.24327 -1.336 0
M  V30 759 C 73.4779 -1.71895 -3.18016 0
M  V30 760 O 73.1989 -3.11063 -3.08498 0
M  V30 761 C 74.6999 -1.63415 -4.12081 0
M  V30 762 H 71.9199 -0.38359 -0.550545 0
M  V30 763 H 74.4639 -1.63507 -1.22824 0
M  V30 764 H 72.6189 -1.22061 -3.67668 0
M  V30 765 H 73.0329 -3.41305 -3.9826 0
M  V30 766 H 74.5069 -2.11669 -5.09804 0
M  V30 767 H 74.9839 -0.593462 -4.35172 0
M  V30 768 H 75.5899 -2.12628 -3.68334 0
M  V30 769 N 73.905 1.17692 -1.04816 0
M  V30 770 C 74.838 2.20436 -0.590173 0
M  V30 771 C 75.816 1.58115 0.379244 0
M  V30 772 O 77 1.86228 0.291762 0
M  V30 773 C 74.127 3.38424 0.136817 0
M  V30 774 C 73.173 4.19176 -0.787023 0
M  V30 775 S 74.006 4.84815 -2.27409 0
M  V30 776 C 75.162 6.06195 -1.55817 0
M  V30 777 H 75.395 2.58944 -1.46067 0
M  V30 778 H 72.928 1.28246 -0.859784 0
M  V30 779 H 74.886 4.06798 0.550076 0
M  V30 780 H 73.547 2.98312 0.983299 0
M  V30 781 H 72.74 5.03499 -0.224681 0
M  V30 782 H 72.342 3.56219 -1.13947 0
M  V30 783 H 74.634 6.72078 -0.855387 0
M  V30 784 H 75.577 6.6695 -2.37873 0
M  V30 785 H 75.985 5.54701 -1.04722 0
M  V30 786 N 75.3831 0.828654 1.34056 0
M  V30 787 C 76.3131 0.269443 2.3194 0
M  V30 788 C 77.2941 -0.617247 1.58506 0
M  V30 789 O 78.4791 -0.542931 1.86456 0
M  V30 790 C 75.6091 -0.564793 3.42677 0
M  V30 791 C 74.5631 0.225241 4.27407 0
M  V30 792 C 73.8891 -0.7321 5.29664 0
M  V30 793 C 75.1891 1.43663 5.02154 0
M  V30 794 H 76.8831 1.08728 2.7896 0
M  V30 795 H 74.4291 0.524283 1.34117 0
M  V30 796 H 76.3821 -0.966233 4.10173 0
M  V30 797 H 75.1061 -1.41574 2.9432 0
M  V30 798 H 73.7651 0.608117 3.61521 0
M  V30 799 H 73.4131 -1.57916 4.77568 0
M  V30 800 H 73.1131 -0.20767 5.87233 0
M  V30 801 H 74.6371 -1.13128 6.00029 0
M  V30 802 H 76.0511 1.1089 5.62473 0
M  V30 803 H 74.4481 1.89711 5.69324 0
M  V30 804 H 75.5181 2.21181 4.31517 0
M  V30 805 N 76.8612 -1.46375 0.584142 0
M  V30 806 C 78.0892 -2.06761 0.0759296 0
M  V30 807 C 78.5042 -1.43266 -1.22965 0
M  V30 808 O 77.8612 -0.538458 -1.74376 0
M  V30 809 C 77.9122 -3.61375 -0.0950384 0
M  V30 810 O 77.6332 -4.22495 1.15887 0
M  V30 811 C 79.1342 -4.38693 -0.637434 0
M  V30 812 H 76.3542 -0.668479 0.0581075 0
M  V30 813 H 78.8982 -1.8798 0.805218 0
M  V30 814 H 77.0532 -3.79578 -0.774554 0
M  V30 815 H 77.4672 -5.15385 0.973598 0
M  V30 816 H 78.9412 -5.47464 -0.706237 0
M  V30 817 H 79.4182 -4.06836 -1.65472 0
M  V30 818 H 80.0242 -4.25299 0.00725967 0
M  V30 819 N 78.3393 -0.321999 -1.54275 0
M  V30 820 C 79.2493 0.553631 -2.27974 0
M  V30 821 C 80.2653 1.13054 -1.32268 0
M  V30 822 O 81.4413 1.15084 -1.6528 0
M  V30 823 C 78.5063 1.69927 -3.02201 0
M  V30 824 C 77.5673 1.15433 -4.1349 0
M  V30 825 C 76.8003 2.24537 -4.84168 0
M  V30 826 O 77.0233 3.44852 -4.5435 0
M  V30 827 O 75.9573 1.90044 -5.7111 0
M  V30 828 H 79.7833 -0.0448345 -3.03667 0
M  V30 829 H 77.3683 -0.0877418 -1.49142 0
M  V30 830 H 79.2503 2.3663 -3.48689 0
M  V30 831 H 77.9253 2.28395 -2.29385 0
M  V30 832 H 76.8323 0.452436 -3.71354 0
M  V30 833 H 78.1653 0.614805 -4.88345 0
M  V30 834 N 79.8174 1.5752 -0.0501392 0
M  V30 835 C 81.0424 1.97376 0.636997 0
M  V30 836 C 81.4674 0.927466 1.63645 0
M  V30 837 O 80.8254 -0.10941 1.8097 0
M  V30 838 C 80.8734 3.36304 1.30123 0
M  V30 839 O 79.9774 3.34156 2.41689 0
M  V30 840 H 79.3184 0.642998 0.165679 0
M  V30 841 H 81.8484 2.04258 -0.118233 0
M  V30 842 H 81.8584 3.73008 1.65315 0
M  V30 843 H 80.5334 4.11993 0.568746 0
M  V30 844 H 79.1104 3.09196 2.08451 0
M  V30 845 N 81.2955 -0.223234 1.56011 0
M  V30 846 C 82.5235 -0.964812 1.83027 0
M  V30 847 C 82.9385 -1.78013 0.62904 0
M  V30 848 O 82.2955 -1.78008 -0.402414 0
M  V30 849 C 82.3465 -1.88373 3.08542 0
M  V30 850 O 82.0675 -1.10137 4.2403 0
M  V30 851 C 83.5685 -2.73934 3.48533 0
M  V30 852 H 80.7885 -0.282842 0.608475 0
M  V30 853 H 83.3325 -0.238971 2.03099 0
M  V30 854 H 81.4875 -2.56354 2.9045 0
M  V30 855 H 81.9015 -1.72501 4.95322 0
M  V30 856 H 83.3755 -3.34117 4.39397 0
M  V30 857 H 83.8525 -3.46244 2.70207 0
M  V30 858 H 84.4585 -2.11369 3.69057 0
M  V30 859 N 82.7736 -1.49793 -0.48987 0
M  V30 860 C 84.0206 -1.59841 -1.24327 0
M  V30 861 C 84.3486 -0.290135 -1.92324 0
M  V30 862 O 83.6036 0.722749 -1.81865 0
M  V30 863 C 83.9026 -2.71488 -2.32441 0
M  V30 864 C 83.5686 -4.12614 -1.81826 0
M  V30 865 C 82.2306 -4.51017 -1.67742 0
M  V30 866 C 84.5826 -5.00892 -1.4407 0
M  V30 867 C 81.9106 -5.75459 -1.14297 0
M  V30 868 C 84.2626 -6.25863 -0.920742 0
M  V30 869 C 82.9266 -6.63086 -0.766383 0
M  V30 870 H 82.1966 -0.584899 -0.454944 0
M  V30 871 H 84.8436 -1.83663 -0.542215 0
M  V30 872 H 83.1486 -2.4168 -3.0838 0
M  V30 873 H 84.8456 -2.76469 -2.90458 0
M  V30 874 H 81.4356 -3.82307 -1.93751 0
M  V30 875 H 85.6196 -4.7187 -1.53794 0
M  V30 876 H 80.8756 -6.02989 -1.01068 0
M  V30 877 H 85.0496 -6.9364 -0.619448 0
M  V30 878 H 82.6766 -7.59393 -0.350083 0
M  V30 879 N 84.2517 0.741722 -1.39055 0
M  V30 880 C 85.1987 1.85566 -1.37237 0
M  V30 881 C 86.1687 1.64457 -0.233072 0
M  V30 882 O 87.3537 1.85957 -0.427147 0
M  V30 883 C 84.4937 3.23004 -1.215 0
M  V30 884 C 83.6067 3.55864 -2.44918 0
M  V30 885 C 82.7417 4.82669 -2.21821 0
M  V30 886 C 81.7807 5.08351 -3.40948 0
M  V30 887 N 80.9177 6.26356 -3.17211 0
M  V30 888 H 85.7577 1.86455 -2.32462 0
M  V30 889 H 83.2947 0.911176 -1.15482 0
M  V30 890 H 85.2527 4.02331 -1.10389 0
M  V30 891 H 83.8827 3.21411 -0.29908 0
M  V30 892 H 82.9347 2.7129 -2.66657 0
M  V30 893 H 84.2467 3.70765 -3.33668 0
M  V30 894 H 83.4007 5.69962 -2.07914 0
M  V30 895 H 82.1397 4.69929 -1.30454 0
M  V30 896 H 81.1447 4.19522 -3.55361 0
M  V30 897 H 82.3697 5.22981 -4.33207 0
M  V30 898 H 80.3157 6.14917 -2.28502 0
M  V30 899 H 80.2327 6.41813 -3.99515 0
M  V30 900 H 81.5007 7.16506 -3.06984 0
M  V30 901 N 85.7298 1.2412 0.971189 0
M  V30 902 C 86.6778 1.02812 2.08644 0
M  V30 903 C 87.6718 -0.0358403 1.69362 0
M  V30 904 O 88.8778 0.118429 1.7961 0
M  V30 905 H 85.2528 0.315428 0.682649 0
M  V30 906 H 87.2238 1.97397 2.23779 0
M  V30 907 C 85.9728 0.645874 3.41649 0
M  V30 908 H 85.2958 1.45632 3.72332 0
M  V30 909 H 86.7358 0.536366 4.20594 0
M  V30 910 C 85.1948 -0.646713 3.30635 0
M  V30 911 O 85.7248 -1.69338 3.64263 0
M  V30 912 N 83.9308 -0.626115 2.83775 0
M  V30 913 H 83.4778 0.225988 2.56607 0
M  V30 914 H 83.4358 -1.49117 2.76788 0
M  V30 915 N 87.2079 -1.17134 1.05439 0
M  V30 916 C 88.1379 -2.2342 0.678649 0
M  V30 917 C 89.1189 -1.66971 -0.32476 0
M  V30 918 O 90.3039 -1.93149 -0.201802 0
M  V30 919 C 87.4339 -3.47256 0.0552099 0
M  V30 920 C 86.3879 -4.16543 0.98365 0
M  V30 921 C 85.7139 -5.34231 0.223961 0
M  V30 922 C 87.0139 -4.68495 2.3089 0
M  V30 923 H 88.7079 -2.55105 1.56722 0
M  V30 924 H 86.2539 -1.2262 0.754998 0
M  V30 925 H 88.2069 -4.20828 -0.21946 0
M  V30 926 H 86.9309 -3.14846 -0.868319 0
M  V30 927 H 85.5899 -3.44887 1.24293 0
M  V30 928 H 85.2379 -4.98071 -0.702412 0
M  V30 929 H 84.9379 -5.81527 0.842627 0
M  V30 930 H 86.4619 -6.10585 -0.0433671 0
M  V30 931 H 87.8759 -5.33691 2.09396 0
M  V30 932 H 86.2729 -5.26379 2.88176 0
M  V30 933 H 87.3429 -3.85169 2.94572 0
M  V30 934 N 88.686 -0.835752 -1.33615 0
M  V30 935 C 89.911 -0.442389 -2.02627 0
M  V30 936 C 90.336 0.947735 -1.62479 0
M  V30 937 O 89.694 1.61907 -0.815826 0
M  V30 938 C 89.742 -0.567216 -3.56111 0
M  V30 939 O 88.846 0.407799 -4.10379 0
M  V30 940 H 88.187 -0.180278 -0.639059 0
M  V30 941 H 90.717 -1.12972 -1.70583 0
M  V30 942 H 90.727 -0.447708 -4.05536 0
M  V30 943 H 89.402 -1.58103 -3.84677 0
M  V30 944 H 87.979 0.246107 -3.72087 0
M  V30 945 N 90.1641 1.46063 -0.591896 0
M  V30 946 C 91.4041 2.04228 -0.0838014 0
M  V30 947 C 91.7681 1.45231 1.25587 0
M  V30 948 O 92.9691 1.94653 1.85375 0
M  V30 949 C 91.2401 3.57389 -0.0286282 0
M  V30 950 S 92.7991 4.3678 0.420557 0
M  V30 951 H 89.6171 0.709762 -0.0419319 0
M  V30 952 H 92.2191 1.78983 -0.786465 0
M  V30 953 H 90.9231 3.97843 -1.00743 0
M  V30 954 H 90.4541 3.87185 0.69652 0
M  V30 955 H 92.4691 4.67131 1.67341 0
M  V30 956 N 91.6422 0.330177 1.54103 0
M  V30 957 C 92.8702 -0.272179 2.05102 0
M  V30 958 C 93.2852 -1.45267 1.20595 0
M  V30 959 O 92.6422 -1.8094 0.238144 0
M  V30 960 C 92.6932 -0.70023 3.54653 0
M  V30 961 O 92.4142 0.433301 4.35952 0
M  V30 962 C 93.9152 -1.3647 4.21771 0
M  V30 963 H 91.1352 -0.0549159 0.668749 0
M  V30 964 H 93.6792 0.478285 1.98828 0
M  V30 965 H 91.8342 -1.40066 3.61193 0
M  V30 966 H 92.2482 0.0947539 5.24414 0
M  V30 967 H 93.7222 -1.61509 5.27843 0
M  V30 968 H 94.1992 -2.31409 3.73292 0
M  V30 969 H 94.8052 -0.706675 4.19388 0
M  V30 970 N 93.1203 -1.57491 0.0584922 0
M  V30 971 C 94.3673 -1.92978 -0.613648 0
M  V30 972 C 94.6953 -0.937461 -1.70417 0
M  V30 973 O 93.9503 0.049078 -1.95638 0
M  V30 974 C 94.2493 -3.3513 -1.24188 0
M  V30 975 C 93.9153 -4.50037 -0.278826 0
M  V30 976 C 92.5773 -4.81198 -0.0138447 0
M  V30 977 C 94.9293 -5.19807 0.380777 0
M  V30 978 C 92.2573 -5.79473 0.918052 0
M  V30 979 C 94.6093 -6.19079 1.30091 0
M  V30 980 C 93.2733 -6.48665 1.57449 0
M  V30 981 H 92.5433 -0.706157 -0.22455 0
M  V30 982 H 95.1903 -1.91082 0.126533 0
M  V30 983 H 93.4953 -3.33429 -2.05749 0
M  V30 984 H 95.1923 -3.59871 -1.769 0
M  V30 985 H 91.7823 -4.25726 -0.495539 0
M  V30 986 H 95.9663 -4.95939 0.189158 0
M  V30 987 H 91.2223 -6.00727 1.1374 0
M  V30 988 H 95.3963 -6.7225 1.81804 0
M  V30 989 H 93.0233 -7.24628 2.29822 0
M  V30 990 N 94.5984 0.214957 -1.56127 0
M  V30 991 C 95.5454 1.26642 -1.92952 0
M  V30 992 C 96.5154 1.46244 -0.78753 0
M  V30 993 O 97.7004 1.59704 -1.04399 0
M  V30 994 C 94.8404 2.6104 -2.25726 0
M  V30 995 C 93.9534 2.49183 -3.52891 0
M  V30 996 C 93.0884 3.76149 -3.7508 0
M  V30 997 C 92.1274 3.59041 -4.95738 0
M  V30 998 N 91.2644 4.77972 -5.14283 0
M  V30 999 H 96.1044 0.945384 -2.82607 0
M  V30 1000 H 93.6414 0.455489 -1.3987 0
M  V30 1001 H 95.5994 3.39313 -2.42739 0
M  V30 1002 H 94.2294 2.91227 -1.39236 0
M  V30 1003 H 93.2814 1.6231 -3.44034 0
M  V30 1004 H 94.5934 2.32466 -4.41318 0
M  V30 1005 H 93.7474 4.62865 -3.92226 0
M  V30 1006 H 92.4864 3.95799 -2.84947 0
M  V30 1007 H 91.4914 2.7071 -4.78535 0
M  V30 1008 H 92.7164 3.40856 -5.87362 0
M  V30 1009 H 90.6624 4.97923 -4.27093 0
M  V30 1010 H 90.5794 4.64006 -5.96853 0
M  V30 1011 H 91.8474 5.66096 -5.35869 0
M  V30 1012 N 96.0765 1.50051 0.48192 0
M  V30 1013 C 97.3235 1.60498 1.23477 0
M  V30 1014 C 97.6515 0.300331 1.92167 0
M  V30 1015 O 96.9065 -0.713094 1.82246 0
M  V30 1016 C 97.2055 2.72717 2.30998 0
M  V30 1017 C 96.8715 4.13572 1.79636 0
M  V30 1018 C 95.5335 4.519 1.65348 0
M  V30 1019 C 97.8855 5.01649 1.41412 0
M  V30 1020 C 95.2135 5.76057 1.11244 0
M  V30 1021 C 97.5655 6.26343 0.887538 0
M  V30 1022 C 96.2295 6.63483 0.731207 0
M  V30 1023 H 95.4995 0.587303 0.451836 0
M  V30 1024 H 98.1465 1.83948 0.532468 0
M  V30 1025 H 96.4515 2.43312 3.07094 0
M  V30 1026 H 98.1485 2.78006 2.88988 0
M  V30 1027 H 94.7385 3.83329 1.91721 0
M  V30 1028 H 98.9225 4.72679 1.51289 0
M  V30 1029 H 94.1785 6.03516 0.978686 0
M  V30 1030 H 98.3525 6.93958 0.582654 0
M  V30 1031 H 95.9795 7.59568 0.309806 0
M  V30 1032 N 97.5546 -0.734337 1.39446 0
M  V30 1033 C 98.8026 -1.49096 1.36436 0
M  V30 1034 C 99.1236 -1.94961 -0.0388255 0
M  V30 1035 O 98.3936 -1.69033 -0.990191 0
M  V30 1036 H 96.9736 -0.5531 0.502085 0
M  V30 1037 H 99.6356 -0.871725 1.74319 0
M  V30 1038 H 98.7316 -2.37276 2.02747 0
M  V30 1039 N 99.0327 -1.24633 -0.964593 0
M  V30 1040 C 99.9427 -1.05859 -2.09359 0
M  V30 1041 C 100.959 0.00148855 -1.74 0
M  V30 1042 O 102.135 -0.197346 -2.00431 0
M  V30 1043 C 99.1997 -0.668879 -3.40187 0
M  V30 1044 C 98.2607 -1.80578 -3.89474 0
M  V30 1045 C 97.4937 -1.43457 -5.14058 0
M  V30 1046 O 97.7167 -0.325775 -5.69469 0
M  V30 1047 O 96.6507 -2.2613 -5.57807 0
M  V30 1048 H 100.477 -2.00516 -2.28094 0
M  V30 1049 H 98.0617 -1.03481 -1.0776 0
M  V30 1050 H 99.9437 -0.463211 -4.18846 0
M  V30 1051 H 98.6187 0.248536 -3.22744 0
M  V30 1052 H 97.5257 -2.06623 -3.11862 0
M  V30 1053 H 98.8587 -2.70208 -4.11398 0
M  V30 1054 N 100.511 1.16574 -1.06058 0
M  V30 1055 C 101.421 2.2452 -0.680282 0
M  V30 1056 C 102.437 1.71348 0.302604 0
M  V30 1057 O 103.613 2.00822 0.152513 0
M  V30 1058 C 100.678 3.46629 -0.0700315 0
M  V30 1059 C 99.7388 4.14849 -1.10448 0
M  V30 1060 C 98.9718 5.31129 -0.523256 0
M  V30 1061 O 99.1948 5.66514 0.664709 0
M  V30 1062 O 98.1288 5.88526 -1.26179 0
M  V30 1063 H 101.955 2.59355 -1.58015 0
M  V30 1064 H 99.5398 1.24043 -0.832694 0
M  V30 1065 H 101.422 4.20543 0.268667 0
M  V30 1066 H 100.097 3.13573 0.803353 0
M  V30 1067 H 99.0038 3.42916 -1.49532 0
M  V30 1068 H 100.337 4.51954 -1.94931 0
M  V30 1069 N 101.989 0.842826 1.3317 0
M  V30 1070 C 103.236 0.440447 1.97652 0
M  V30 1071 C 103.564 -1.00123 1.6675 0
M  V30 1072 O 102.819 -1.7155 0.941761 0
M  V30 1073 C 103.118 0.612607 3.52111 0
M  V30 1074 C 102.784 2.02297 4.02972 0
M  V30 1075 C 101.446 2.40874 4.16573 0
M  V30 1076 C 103.798 2.94402 4.30089 0
M  V30 1077 C 101.126 3.70852 4.54627 0
M  V30 1078 C 103.478 4.23865 4.69597 0
M  V30 1079 C 102.142 4.62392 4.81404 0
M  V30 1080 H 101.412 0.161171 0.72326 0
M  V30 1081 H 104.059 1.07061 1.58777 0
M  V30 1082 H 102.364 -0.100849 3.9167 0
M  V30 1083 H 104.061 0.2815 4.00011 0
M  V30 1084 H 100.651 1.71338 3.92863 0
M  V30 1085 H 104.835 2.65835 4.19101 0
M  V30 1086 H 100.091 4.00501 4.61962 0
M  V30 1087 H 104.265 4.95306 4.89536 0
M  V30 1088 H 101.892 5.63154 5.10648 0
M  V30 1089 N 103.467 -1.45747 0.599634 0
M  V30 1090 C 104.744 -1.95585 0.0240846 0
M  V30 1091 C 105.124 -1.54217 -1.44154 0
M  V30 1092 O 104.472 -0.800903 -2.14004 0
M  V30 1093 C 104.682 -3.48344 0.21385 0
M  V30 1094 C 106.03 -4.24504 0.0904902 0
M  V30 1095 O 107.054 -3.55911 0.143558 0
M  V30 1096 O 105.913 -5.46491 -0.0310766 0
M  V30 1097 H 103.007 -0.82602 -0.0402478 0
M  V30 1098 H 105.553 -1.55951 0.669139 0
M  V30 1099 H 104.325 -3.71397 1.23206 0
M  V30 1100 H 103.948 -3.9485 -0.466842 0
M  V30 1101 N 104.945 -0.338344 -1.53925 0
M  V30 1102 C 105.855 0.529421 -2.28548 0
M  V30 1103 C 106.871 1.11645 -1.3346 0
M  V30 1104 O 108.047 1.13325 -1.66492 0
M  V30 1105 C 105.112 1.66713 -3.03987 0
M  V30 1106 C 104.173 1.11041 -4.14691 0
M  V30 1107 C 103.406 2.19389 -4.86522 0
M  V30 1108 O 103.629 3.40013 -4.57982 0
M  V30 1109 O 102.563 1.83976 -5.73094 0
M  V30 1110 H 106.389 -0.0770399 -3.03602 0
M  V30 1111 H 103.974 -0.103555 -1.49041 0
M  V30 1112 H 105.856 2.32918 -3.5118 0
M  V30 1113 H 104.531 2.25949 -2.31794 0
M  V30 1114 H 103.438 0.413024 -3.71813 0
M  V30 1115 H 104.771 0.562975 -4.8897 0
M  V30 1116 N 106.423 1.57458 -0.0668435 0
M  V30 1117 C 107.37 2.12439 0.902122 0
M  V30 1118 C 108.34 1.03565 1.2986 0
M  V30 1119 O 109.525 1.312 1.38532 0
M  V30 1120 C 106.665 2.6865 2.16614 0
M  V30 1121 C 105.778 3.91663 1.82274 0
M  V30 1122 C 104.913 4.36134 3.0325 0
M  V30 1123 C 103.952 5.51808 2.64904 0
M  V30 1124 N 103.089 5.9126 3.78624 0
M  V30 1125 H 107.929 2.94934 0.426382 0
M  V30 1126 H 105.466 1.4575 0.198819 0
M  V30 1127 H 107.424 2.99346 2.90599 0
M  V30 1128 H 106.054 1.88928 2.61737 0
M  V30 1129 H 105.106 3.6746 0.983719 0
M  V30 1130 H 106.418 4.75693 1.50059 0
M  V30 1131 H 105.572 4.68465 3.85519 0
M  V30 1132 H 104.311 3.50948 3.38655 0
M  V30 1133 H 103.316 5.19133 1.81055 0
M  V30 1134 H 104.541 6.38722 2.30675 0
M  V30 1135 H 102.487 5.09024 4.138 0
M  V30 1136 H 102.404 6.70018 3.5016 0
M  V30 1137 H 103.672 6.28212 4.61486 0
M  V30 1138 N 107.901 -0.206675 1.56239 0
M  V30 1139 C 109.129 -0.945345 1.8404 0
M  V30 1140 C 109.544 -1.77336 0.647885 0
M  V30 1141 O 108.901 -1.78425 -0.383511 0
M  V30 1142 C 108.952 -1.8509 3.10522 0
M  V30 1143 O 108.673 -1.05634 4.25174 0
M  V30 1144 C 110.174 -2.70222 3.51418 0
M  V30 1145 H 107.394 -0.276372 0.61144 0
M  V30 1146 H 109.938 -0.217417 2.03341 0
M  V30 1147 H 108.093 -2.53259 2.93153 0
M  V30 1148 H 108.507 -1.67238 4.97124 0
M  V30 1149 H 109.981 -3.29438 4.42916 0
M  V30 1150 H 110.458 -3.43358 2.73864 0
M  V30 1151 H 111.064 -2.07443 3.71278 0
M  V30 1152 N 109.379 -1.50304 -0.473955 0
M  V30 1153 C 110.604 -1.65175 -1.25427 0
M  V30 1154 C 111.029 -0.333673 -1.85117 0
M  V30 1155 O 110.387 0.702114 -1.67153 0
M  V30 1156 C 110.435 -2.74295 -2.34082 0
M  V30 1157 O 109.539 -2.35349 -3.38651 0
M  V30 1158 H 108.88 -0.551944 -0.369126 0
M  V30 1159 H 111.41 -1.96662 -0.564364 0
M  V30 1160 H 111.42 -2.97285 -2.79438 0
M  V30 1161 H 110.095 -3.69959 -1.90008 0
M  V30 1162 H 108.672 -2.22794 -2.99027 0
M  V30 1163 N 110.857 0.726932 -1.39834 0
M  V30 1164 C 112.134 1.47902 -1.28001 0
M  V30 1165 C 112.514 2.1083 0.106789 0
M  V30 1166 O 111.862 1.99242 1.11869 0
M  V30 1167 C 112.072 2.52392 -2.41038 0
M  V30 1168 C 113.42 3.18546 -2.80737 0
M  V30 1169 O 114.444 2.62708 -2.40547 0
M  V30 1170 O 113.303 4.19604 -3.50135 0
M  V30 1171 H 110.397 0.657163 -0.502062 0
M  V30 1172 H 112.943 0.760071 -1.51727 0
M  V30 1173 H 111.715 2.04329 -3.33715 0
M  V30 1174 H 111.338 3.31837 -2.19021 0
M  V30 1175 N 112.336 1.25143 0.95797 0
M  V30 1176 C 113.584 1.09476 1.69881 0
M  V30 1177 C 113.905 -0.365502 1.91544 0
M  V30 1178 O 113.175 -1.25985 1.50015 0
M  V30 1179 H 111.755 0.402128 0.629525 0
M  V30 1180 H 114.417 1.57214 1.15194 0
M  V30 1181 H 113.513 1.60046 2.6794 0
M  V30 1182 N 113.814 -1.1601 1.06675 0
M  V30 1183 C 115.23 -1.38622 0.790948 0
M  V30 1184 C 115.43 -1.92109 -0.607965 0
M  V30 1185 O 114.486 -2.12239 -1.36787 0
M  V30 1186 C 115.799 -2.36347 1.85905 0
M  V30 1187 C 117.347 -2.50023 1.88301 0
M  V30 1188 C 117.822 -3.51033 2.94176 0
M  V30 1189 N 119.313 -3.58563 2.93235 0
M  V30 1190 C 120.048 -4.36521 3.71803 0
M  V30 1191 N 119.544 -5.17869 4.602 0
M  V30 1192 N 121.337 -4.31541 3.60178 0
M  V30 1193 H 113.488 -0.796294 1.96908 0
M  V30 1194 H 115.751 -0.412597 0.853503 0
M  V30 1195 H 115.457 -2.04147 2.86386 0
M  V30 1196 H 115.331 -3.36042 1.71334 0
M  V30 1197 H 117.718 -2.81524 0.884769 0
M  V30 1198 H 117.799 -1.5035 2.06951 0
M  V30 1199 H 117.443 -3.20268 3.94196 0
M  V30 1200 H 117.373 -4.50445 2.72776 0
M  V30 1201 H 119.864 -3.00496 2.29152 0
M  V30 1202 H 120.177 -5.74578 5.16797 0
M  V30 1203 H 118.522 -5.17199 4.64253 0
M  V30 1204 H 121.713 -3.67051 2.90502 0
M  V30 1205 H 121.886 -4.9205 4.21653 0
M  V30 1206 N 115.292 -0.849877 -1.32721 0
M  V30 1207 C 116.24 -0.279745 -2.30912 0
M  V30 1208 C 117.234 0.594278 -1.58634 0
M  V30 1209 O 118.44 0.482613 -1.73409 0
M  V30 1210 H 114.815 -0.0717521 -0.748569 0
M  V30 1211 H 116.786 -1.12222 -2.76494 0
M  V30 1212 C 115.535 0.521108 -3.43773 0
M  V30 1213 H 114.858 -0.142141 -3.99547 0
M  V30 1214 H 116.298 0.885693 -4.14646 0
M  V30 1215 C 114.757 1.70442 -2.90605 0
M  V30 1216 O 115.287 2.8034 -2.87702 0
M  V30 1217 N 113.493 1.52991 -2.47067 0
M  V30 1218 H 113.04 0.635914 -2.49628 0
M  V30 1219 H 112.998 2.32311 -2.11847 0
M  V30 1220 N 116.77 1.45427 -0.607355 0
M  V30 1221 C 118.016 2.0254 -0.102607 0
M  V30 1222 C 118.349 1.47478 1.26348 0
M  V30 1223 O 117.624 0.64939 1.83339 0
M  V30 1224 C 117.907 3.60044 -0.0634347 0
M  V30 1225 C 117.76 4.2544 -1.46017 0
M  V30 1226 C 119.079 4.35646 0.624514 0
M  V30 1227 H 116.198 0.73598 -0.0387607 0
M  V30 1228 H 118.84 1.73284 -0.779282 0
M  V30 1229 H 116.99 3.85101 0.512808 0
M  V30 1230 H 118.662 4.11569 -2.08347 0
M  V30 1231 H 116.905 3.83849 -2.02094 0
M  V30 1232 H 117.576 5.34342 -1.385 0
M  V30 1233 H 120.052 4.15882 0.134723 0
M  V30 1234 H 118.928 5.45376 0.621028 0
M  V30 1235 H 119.189 4.08501 1.69055 0
M  V30 1236 N 118.248 0.346503 1.53744 0
M  V30 1237 C 119.195 -0.508914 2.25119 0
M  V30 1238 C 120.165 -1.09315 1.25058 0
M  V30 1239 O 121.35 -1.12921 1.53797 0
M  V30 1240 C 118.49 -1.65246 3.02965 0
M  V30 1241 C 117.603 -1.09525 4.17886 0
M  V30 1242 C 116.738 -2.20634 4.83212 0
M  V30 1243 C 115.777 -1.62279 5.90196 0
M  V30 1244 N 114.914 -2.67143 6.49291 0
M  V30 1245 H 119.754 0.106283 2.9781 0
M  V30 1246 H 117.291 0.0642227 1.4696 0
M  V30 1247 H 119.249 -2.32574 3.4636 0
M  V30 1248 H 117.879 -2.2386 2.32565 0
M  V30 1249 H 116.931 -0.312818 3.79112 0
M  V30 1250 H 118.243 -0.628444 4.94825 0
M  V30 1251 H 117.397 -2.95821 5.29693 0
M  V30 1252 H 116.136 -2.70659 4.05703 0
M  V30 1253 H 115.141 -0.855989 5.43096 0
M  V30 1254 H 116.366 -1.13102 6.69615 0
M  V30 1255 H 114.312 -3.16417 5.74645 0
M  V30 1256 H 114.229 -2.25093 7.21713 0
M  V30 1257 H 115.497 -3.4209 7.00425 0
M  V30 1258 N 119.726 -1.57421 0.075193 0
M  V30 1259 C 120.951 -1.98364 -0.605515 0
M  V30 1260 C 121.376 -0.953383 -1.62149 0
M  V30 1261 O 120.734 0.0806053 -1.81121 0
M  V30 1262 C 120.782 -3.38332 -1.24756 0
M  V30 1263 O 119.886 -3.37959 -2.36342 0
M  V30 1264 H 119.227 -0.645553 -0.155428 0
M  V30 1265 H 121.757 -2.04044 0.150714 0
M  V30 1266 H 121.767 -3.75591 -1.5936 0
M  V30 1267 H 120.442 -4.12846 -0.503129 0
M  V30 1268 H 119.019 -3.12474 -2.03506 0
M  V30 1269 N 121.204 0.198386 -1.56346 0
M  V30 1270 C 122.45 0.920648 -1.80698 0
M  V30 1271 C 122.783 1.83045 -0.648697 0
M  V30 1272 O 122.058 1.91308 0.350925 0
M  V30 1273 C 122.341 1.73971 -3.15287 0
M  V30 1274 C 122.194 0.85485 -4.41602 0
M  V30 1275 C 123.513 2.71296 -3.46535 0
M  V30 1276 H 120.632 0.333261 -0.657348 0
M  V30 1277 H 123.274 0.188198 -1.89066 0
M  V30 1278 H 121.424 2.36416 -3.08285 0
M  V30 1279 H 123.096 0.245362 -4.60647 0
M  V30 1280 H 121.339 0.161398 -4.335 0
M  V30 1281 H 122.01 1.46286 -5.32264 0
M  V30 1282 H 124.486 2.18983 -3.53816 0
M  V30 1283 H 123.362 3.2569 -4.41834 0
M  V30 1284 H 123.623 3.5018 -2.69864 0
M  V30 1285 N 122.682 1.50554 0.465978 0
M  V30 1286 C 123.928 1.62038 1.21949 0
M  V30 1287 C 124.261 0.322116 1.9151 0
M  V30 1288 O 123.536 -0.676723 1.82348 0
M  V30 1289 C 123.819 2.80421 2.25912 0
M  V30 1290 C 123.672 4.20144 1.60622 0
M  V30 1291 C 124.991 2.94354 3.27176 0
M  V30 1292 H 122.11 0.589752 0.441998 0
M  V30 1293 H 124.752 1.82956 0.51257 0
M  V30 1294 H 122.902 2.62717 2.86203 0
M  V30 1295 H 124.574 4.49449 1.03889 0
M  V30 1296 H 122.817 4.24165 0.909211 0
M  V30 1297 H 123.488 4.98914 2.36196 0
M  V30 1298 H 125.964 3.10578 2.76913 0
M  V30 1299 H 124.84 3.788 3.97242 0
M  V30 1300 H 125.101 2.05186 3.916 0
M  V30 1301 N 124.16 -0.719506 1.40217 0
M  V30 1302 C 125.07 -1.86378 1.42479 0
M  V30 1303 C 126.086 -1.71073 0.317834 0
M  V30 1304 O 127.262 -1.93406 0.561794 0
M  V30 1305 C 124.327 -3.22136 1.28178 0
M  V30 1306 C 123.388 -3.49723 2.48982 0
M  V30 1307 C 122.621 -4.79004 2.35353 0
M  V30 1308 O 122.844 -5.53821 1.36524 0
M  V30 1309 O 121.778 -5.06839 3.2465 0
M  V30 1310 H 125.604 -1.87425 2.38968 0
M  V30 1311 H 123.189 -0.869405 1.21498 0
M  V30 1312 H 125.071 -4.03234 1.22395 0
M  V30 1313 H 123.746 -3.21825 0.347934 0
M  V30 1314 H 122.653 -2.6865 2.60342 0
M  V30 1315 H 123.986 -3.54828 3.41113 0
M  V30 1316 N 125.638 -1.25649 -0.95132 0
M  V30 1317 C 126.585 -1.06323 -2.04851 0
M  V30 1318 C 127.555 0.0286491 -1.66075 0
M  V30 1319 O 128.74 -0.12917 -1.90362 0
M  V30 1320 C 125.88 -0.691529 -3.381 0
M  V30 1321 C 124.993 -1.85861 -3.89974 0
M  V30 1322 C 124.128 -1.43096 -5.11563 0
M  V30 1323 C 123.167 -2.56696 -5.55674 0
M  V30 1324 N 122.304 -2.14684 -6.68472 0
M  V30 1325 H 127.144 -2.00222 -2.20715 0
M  V30 1326 H 124.681 -0.997027 -1.08156 0
M  V30 1327 H 126.639 -0.456963 -4.1469 0
M  V30 1328 H 125.269 0.210474 -3.22113 0
M  V30 1329 H 124.321 -2.20639 -3.09875 0
M  V30 1330 H 125.633 -2.71161 -4.18657 0
M  V30 1331 H 124.787 -1.15624 -5.9558 0
M  V30 1332 H 123.526 -0.548722 -4.84603 0
M  V30 1333 H 122.531 -2.84909 -4.7022 0
M  V30 1334 H 123.756 -3.45503 -5.8464 0
M  V30 1335 H 121.702 -1.28881 -6.43215 0
M  V30 1336 H 121.619 -2.9353 -6.96689 0
M  V30 1337 H 122.887 -1.90397 -7.5589 0
M  V30 1338 N 127.117 1.15442 -1.07289 0
M  V30 1339 C 128.065 2.22225 -0.686952 0
M  V30 1340 C 129.059 1.66688 0.30193 0
M  V30 1341 O 130.265 1.79236 0.165712 0
M  V30 1342 H 126.64 0.723783 -0.204064 0
M  V30 1343 H 128.611 2.52056 -1.5972 0
M  V30 1344 C 127.36 3.47556 -0.100149 0
M  V30 1345 H 126.683 3.90612 -0.852211 0
M  V30 1346 H 128.123 4.23794 0.132235 0
M  V30 1347 C 126.582 3.16337 1.159 0
M  V30 1348 O 127.112 3.33074 2.24555 0
M  V30 1349 N 125.318 2.70385 1.06491 0
M  V30 1350 H 124.865 2.56966 0.180668 0
M  V30 1351 H 124.823 2.49871 1.90819 0
M  V30 1352 N 128.595 0.856903 1.32268 0
M  V30 1353 C 129.82 0.474569 2.01897 0
M  V30 1354 C 130.245 -0.921766 1.63967 0
M  V30 1355 O 129.603 -1.60589 0.84148 0
M  V30 1356 C 129.651 0.623799 3.55164 0
M  V30 1357 O 128.755 -0.342459 4.10976 0
M  V30 1358 H 128.096 0.190422 0.63611 0
M  V30 1359 H 130.626 1.15672 1.68764 0
M  V30 1360 H 130.636 0.512169 4.04773 0
M  V30 1361 H 129.311 1.64202 3.82113 0
M  V30 1362 H 127.888 -0.18688 3.72431 0
M  V30 1363 N 130.073 -1.45103 0.615059 0
M  V30 1364 C 130.983 -2.34382 -0.101034 0
M  V30 1365 C 131.999 -1.51681 -0.852585 0
M  V30 1366 O 133.175 -1.8446 -0.808484 0
M  V30 1367 C 130.24 -3.29417 -1.08099 0
M  V30 1368 C 129.301 -4.28025 -0.330577 0
M  V30 1369 C 128.534 -5.1852 -1.26385 0
M  V30 1370 O 128.757 -5.12598 -2.50198 0
M  V30 1371 O 127.691 -5.97122 -0.756866 0
M  V30 1372 H 131.517 -2.97033 0.632855 0
M  V30 1373 H 129.102 -1.4461 0.375293 0
M  V30 1374 H 130.984 -3.87958 -1.6452 0
M  V30 1375 H 129.659 -2.69321 -1.79577 0
M  V30 1376 H 128.566 -3.73078 0.276283 0
M  V30 1377 H 129.899 -4.90997 0.343866 0
M  V30 1378 N 131.551 -0.354651 -1.53558 0
M  V30 1379 C 132.776 0.242153 -2.05981 0
M  V30 1380 C 133.201 1.42553 -1.2272 0
M  V30 1381 O 132.559 1.79656 -0.243604 0
M  V30 1382 C 132.607 0.624367 -3.55154 0
M  V30 1383 O 131.711 1.72301 -3.74681 0
M  V30 1384 H 131.052 0.0378432 -0.662921 0
M  V30 1385 H 133.582 -0.512087 -1.98088 0
M  V30 1386 H 133.592 0.898433 -3.97985 0
M  V30 1387 H 132.267 -0.240989 -4.15201 0
M  V30 1388 H 130.844 1.44535 -3.4375 0
M  V30 1389 N 133.029 1.57378 -0.0835403 0
M  V30 1390 C 133.976 2.13384 0.879539 0
M  V30 1391 C 134.946 1.04936 1.28754 0
M  V30 1392 O 136.131 1.32662 1.37133 0
M  V30 1393 C 133.271 2.70932 2.13752 0
M  V30 1394 C 132.384 3.93575 1.7811 0
M  V30 1395 C 131.519 4.39326 2.98607 0
M  V30 1396 C 130.558 5.54587 2.59037 0
M  V30 1397 N 129.695 5.95243 3.72331 0
M  V30 1398 H 134.535 2.9537 0.395076 0
M  V30 1399 H 132.072 1.45953 0.183349 0
M  V30 1400 H 134.03 3.02411 2.87408 0
M  V30 1401 H 132.66 1.91693 2.59718 0
M  V30 1402 H 131.712 3.68483 0.94469 0
M  V30 1403 H 133.024 4.77258 1.45005 0
M  V30 1404 H 132.178 4.72528 3.80529 0
M  V30 1405 H 130.917 3.5452 3.34913 0
M  V30 1406 H 129.922 5.21024 1.75539 0
M  V30 1407 H 131.147 6.41133 2.23887 0
M  V30 1408 H 129.093 5.13385 4.08378 0
M  V30 1409 H 129.01 6.73694 3.43034 0
M  V30 1410 H 130.278 6.33072 4.54797 0
M  V30 1411 N 134.507 -0.190092 1.56449 0
M  V30 1412 C 135.437 -1.23816 1.97969 0
M  V30 1413 C 136.418 -1.47201 0.852395 0
M  V30 1414 O 137.603 -1.58854 1.1171 0
M  V30 1415 C 134.733 -2.5813 2.3235 0
M  V30 1416 C 133.687 -2.49348 3.47864 0
M  V30 1417 C 133.013 -3.8798 3.67934 0
M  V30 1418 C 134.313 -2.01424 4.81898 0
M  V30 1419 H 136.007 -0.89311 2.85769 0
M  V30 1420 H 133.553 -0.428177 1.37487 0
M  V30 1421 H 135.506 -3.31637 2.59991 0
M  V30 1422 H 134.23 -2.94386 1.41438 0
M  V30 1423 H 132.889 -1.78297 3.20321 0
M  V30 1424 H 132.537 -4.21597 2.74344 0
M  V30 1425 H 132.237 -3.82978 4.45648 0
M  V30 1426 H 133.761 -4.63101 3.97957 0
M  V30 1427 H 135.175 -2.64693 5.08538 0
M  V30 1428 H 133.572 -2.07413 5.63116 0
M  V30 1429 H 134.642 -0.967677 4.75146 0
M  V30 1430 N 135.985 -1.50799 -0.457987 0
M  V30 1431 C 137.213 -1.66218 -1.23203 0
M  V30 1432 C 137.628 -0.350894 -1.85511 0
M  V30 1433 O 136.985 0.668546 -1.69814 0
M  V30 1434 C 137.036 -2.76291 -2.33121 0
M  V30 1435 O 136.757 -4.02338 -1.73366 0
M  V30 1436 C 138.258 -3.028 -3.2377 0
M  V30 1437 H 135.478 -0.558361 -0.372121 0
M  V30 1438 H 138.022 -1.97099 -0.545179 0
M  V30 1439 H 136.177 -2.48068 -2.97558 0
M  V30 1440 H 136.591 -4.63312 -2.4585 0
M  V30 1441 H 138.065 -3.8345 -3.97077 0
M  V30 1442 H 138.542 -2.14385 -3.83322 0
M  V30 1443 H 139.148 -3.32604 -2.65056 0
M  V30 1444 N 137.463 0.71206 -1.40597 0
M  V30 1445 C 138.395 1.83704 -1.37061 0
M  V30 1446 C 139.408 1.60453 -0.275426 0
M  V30 1447 O 140.597 1.70262 -0.53602 0
M  V30 1448 C 137.697 3.20172 -1.11099 0
M  V30 1449 C 136.87 3.7059 -2.3234 0
M  V30 1450 C 135.929 4.85681 -2.02485 0
M  V30 1451 O 134.955 4.9815 -2.75382 0
M  V30 1452 N 136.157 5.71735 -1.00497 0
M  V30 1453 H 138.922 1.87235 -2.34016 0
M  V30 1454 H 136.483 0.893739 -1.34996 0
M  V30 1455 H 138.475 3.94768 -0.891064 0
M  V30 1456 H 137.045 3.11767 -0.227989 0
M  V30 1457 H 136.265 2.87085 -2.7014 0
M  V30 1458 H 137.553 4.01011 -3.13157 0
M  V30 1459 H 136.951 5.64275 -0.401298 0
M  V30 1460 H 135.508 6.463 -0.844942 0
M  V30 1461 N 138.941 1.26152 0.944643 0
M  V30 1462 C 140.169 1.14259 1.72489 0
M  V30 1463 C 140.584 -0.302555 1.8636 0
M  V30 1464 O 139.941 -1.20741 1.36849 0
M  V30 1465 C 139.992 1.80266 3.13347 0
M  V30 1466 O 139.713 3.19133 3.00143 0
M  V30 1467 C 141.214 1.74283 4.07603 0
M  V30 1468 H 138.434 0.398051 0.540181 0
M  V30 1469 H 140.978 1.66706 1.18446 0
M  V30 1470 H 139.133 1.31766 3.64303 0
M  V30 1471 H 139.547 3.51744 3.89071 0
M  V30 1472 H 141.021 2.25111 5.04013 0
M  V30 1473 H 141.498 0.708631 4.33446 0
M  V30 1474 H 142.104 2.22319 3.62567 0
M  V30 1475 N 140.419 -1.14872 1.07899 0
M  V30 1476 C 141.351 -2.19425 0.662231 0
M  V30 1477 C 142.364 -1.60231 -0.288079 0
M  V30 1478 O 143.553 -1.78336 -0.076534 0
M  V30 1479 C 140.653 -3.38867 -0.0470695 0
M  V30 1480 C 139.826 -4.27597 0.920831 0
M  V30 1481 C 138.885 -5.25616 0.247805 0
M  V30 1482 O 137.911 -5.62189 0.890599 0
M  V30 1483 N 139.113 -5.71746 -1.00435 0
M  V30 1484 H 141.878 -2.55797 1.56166 0
M  V30 1485 H 139.439 -1.30042 0.964404 0
M  V30 1486 H 141.431 -4.01497 -0.50813 0
M  V30 1487 H 140.001 -3.00864 -0.848523 0
M  V30 1488 H 139.221 -3.61982 1.56087 0
M  V30 1489 H 140.509 -4.83748 1.57688 0
M  V30 1490 H 139.907 -5.44153 -1.54642 0
M  V30 1491 H 138.464 -6.36389 -1.40899 0
M  V30 1492 N 141.898 -0.863906 -1.31812 0
M  V30 1493 C 143.144 -0.472535 -1.97218 0
M  V30 1494 C 143.477 0.971394 -1.68159 0
M  V30 1495 O 142.752 1.68309 -0.974798 0
M  V30 1496 C 143.035 -0.723054 -3.52766 0
M  V30 1497 C 142.888 -2.21608 -3.91421 0
M  V30 1498 C 144.207 -0.185522 -4.39709 0
M  V30 1499 H 141.326 -0.173158 -0.71637 0
M  V30 1500 H 143.968 -1.08403 -1.56041 0
M  V30 1501 H 142.118 -0.202577 -3.87971 0
M  V30 1502 H 143.79 -2.80334 -3.66347 0
M  V30 1503 H 142.033 -2.691 -3.40246 0
M  V30 1504 H 142.704 -2.34203 -4.99853 0
M  V30 1505 H 145.18 -0.630726 -4.11292 0
M  V30 1506 H 144.056 -0.390306 -5.47511 0
M  V30 1507 H 144.317 0.912229 -4.32586 0
M  V30 1508 N 143.376 1.44774 -0.622745 0
M  V30 1509 C 144.653 1.95522 -0.0551974 0
M  V30 1510 C 145.033 1.5649 1.41683 0
M  V30 1511 O 144.381 0.834848 2.12703 0
M  V30 1512 C 144.591 3.4796 -0.269242 0
M  V30 1513 C 145.939 4.24306 -0.158014 0
M  V30 1514 O 146.963 3.55637 -0.200162 0
M  V30 1515 O 145.822 5.46471 -0.0558693 0
M  V30 1516 H 142.916 0.826556 0.0271015 0
M  V30 1517 H 145.462 1.54866 -0.693864 0
M  V30 1518 H 144.234 3.6939 -1.29099 0
M  V30 1519 H 143.857 3.95543 0.403966 0
M  V30 1520 N 144.854 0.36279 1.53368 0
M  V30 1521 C 146.265 -0.117022 1.86333 0
M  V30 1522 C 146.616 -1.48397 1.28347 0
M  V30 1523 O 145.741 -2.07787 0.604428 0
M  V30 1524 C 146.336 -0.21912 3.38091 0
M  V30 1525 C 144.895 -0.643184 3.70864 0
M  V30 1526 C 144.042 0.211318 2.76494 0
M  V30 1527 H 146.993 0.581687 1.47655 0
M  V30 1528 H 147.014 -1.04319 3.6592 0
M  V30 1529 H 146.526 0.775902 3.80265 0
M  V30 1530 H 144.627 -1.64654 3.34245 0
M  V30 1531 H 144.74 -0.41973 4.77258 0
M  V30 1532 H 143.104 -0.319367 2.5269 0
M  V30 1533 H 143.887 1.20383 3.21501 0
M  V30 1534 N 146.332 -1.57332 0.0918853 0
M  V30 1535 C 147.279 -2.13847 -0.868211 0
M  V30 1536 C 148.249 -1.05618 -1.28196 0
M  V30 1537 O 149.434 -1.33387 -1.36427 0
M  V30 1538 C 146.574 -2.72062 -2.12312 0
M  V30 1539 C 145.687 -3.94514 -1.7602 0
M  V30 1540 C 144.822 -4.40903 -2.96273 0
M  V30 1541 C 143.861 -5.55953 -2.56092 0
M  V30 1542 N 142.998 -5.97209 -3.69169 0
M  V30 1543 H 147.838 -2.95575 -0.379406 0
M  V30 1544 H 145.375 -1.46048 -0.175606 0
M  V30 1545 H 147.333 -3.03931 -2.858 0
M  V30 1546 H 145.963 -1.93068 -2.58698 0
M  V30 1547 H 145.015 -3.68979 -0.925135 0
M  V30 1548 H 146.327 -4.7802 -1.42472 0
M  V30 1549 H 145.481 -4.74539 -3.78018 0
M  V30 1550 H 144.22 -3.56291 -3.33029 0
M  V30 1551 H 143.225 -5.21948 -1.72773 0
M  V30 1552 H 144.45 -6.42311 -2.20484 0
M  V30 1553 H 142.396 -5.15543 -4.05649 0
M  V30 1554 H 142.313 -6.75504 -3.39456 0
M  V30 1555 H 143.581 -6.35475 -4.51434 0
M  V30 1556 N 147.81 0.181792 -1.56548 0
M  V30 1557 C 148.758 1.24461 -1.965 0
M  V30 1558 C 149.752 1.464 -0.852261 0
M  V30 1559 O 150.958 1.47103 -1.03733 0
M  V30 1560 H 147.333 0.418138 -0.625031 0
M  V30 1561 H 149.304 0.880714 -2.85107 0
M  V30 1562 C 148.053 2.57891 -2.33212 0
M  V30 1563 H 147.376 2.41829 -3.18369 0
M  V30 1564 H 148.816 3.3097 -2.65019 0
M  V30 1565 C 147.275 3.15871 -1.17163 0
M  V30 1566 O 147.805 3.9913 -0.453708 0
M  V30 1567 N 146.011 2.74808 -0.944936 0
M  V30 1568 H 145.558 2.07205 -1.53049 0
M  V30 1569 H 145.516 3.13939 -0.170286 0
M  V30 1570 N 149.288 1.51039 0.449983 0
M  V30 1571 C 150.516 1.66869 1.2232 0
M  V30 1572 C 150.931 0.360727 1.85322 0
M  V30 1573 O 150.288 -0.659531 1.70166 0
M  V30 1574 C 150.339 2.77524 2.31652 0
M  V30 1575 O 150.06 4.03252 1.7123 0
M  V30 1576 C 151.561 3.04512 3.2216 0
M  V30 1577 H 148.781 0.560326 0.369155 0
M  V30 1578 H 151.325 1.97385 0.534719 0
M  V30 1579 H 149.48 2.49642 2.96239 0
M  V30 1580 H 149.894 4.64609 2.43389 0
M  V30 1581 H 151.368 3.85551 3.95038 0
M  V30 1582 H 151.845 2.16415 3.8218 0
M  V30 1583 H 152.451 3.34005 2.63288 0
M  V30 1584 N 150.766 -0.704594 1.40972 0
M  V30 1585 C 151.994 -1.49354 1.43182 0
M  V30 1586 C 152.409 -1.88768 0.0345508 0
M  V30 1587 O 151.766 -1.56184 -0.944081 0
M  V30 1588 C 151.817 -2.76187 2.33244 0
M  V30 1589 O 151.538 -2.38436 3.67532 0
M  V30 1590 C 153.039 -3.7 2.44162 0
M  V30 1591 H 150.259 -0.460559 0.487982 0
M  V30 1592 H 152.803 -0.868261 1.85153 0
M  V30 1593 H 150.958 -3.34974 1.94606 0
M  V30 1594 H 151.372 -3.20126 4.15475 0
M  V30 1595 H 152.846 -4.55803 3.11364 0
M  V30 1596 H 153.323 -4.13867 1.47006 0
M  V30 1597 H 153.929 -3.17121 2.83398 0
M  V30 1598 N 152.244 -1.26651 -0.937939 0
M  V30 1599 C 153.49 -1.12553 -1.687 0
M  V30 1600 C 153.823 0.329782 -1.91379 0
M  V30 1601 O 153.098 1.24202 -1.4968 0
M  V30 1602 C 153.381 -1.89862 -3.05981 0
M  V30 1603 C 153.234 -3.43318 -2.90607 0
M  V30 1604 C 154.553 -1.69499 -4.0615 0
M  V30 1605 H 151.672 -0.410257 -0.612257 0
M  V30 1606 H 154.314 -1.55685 -1.08913 0
M  V30 1607 H 152.464 -1.53204 -3.57017 0
M  V30 1608 H 154.136 -3.89747 -2.46769 0
M  V30 1609 H 152.379 -3.70179 -2.26164 0
M  V30 1610 H 153.05 -3.92642 -3.8799 0
M  V30 1611 H 155.526 -2.01442 -3.64088 0
M  V30 1612 H 154.402 -2.26002 -5.00214 0
M  V30 1613 H 154.663 -0.640365 -4.37438 0
M  V30 1614 N 153.722 1.14298 -1.08507 0
M  V30 1615 C 154.971 1.84708 -0.810305 0
M  V30 1616 C 155.284 1.83903 0.666271 0
M  V30 1617 O 156.49 2.50112 1.05624 0
M  V30 1618 C 154.946 3.31572 -1.39957 0
M  V30 1619 C 154.554 3.40791 -2.90801 0
M  V30 1620 C 156.298 4.07087 -1.20334 0
M  V30 1621 C 154.205 4.81872 -3.4286 0
M  V30 1622 H 153.135 0.691985 -0.299454 0
M  V30 1623 H 155.786 1.28841 -1.30661 0
M  V30 1624 H 154.168 3.87183 -0.830976 0
M  V30 1625 H 155.342 2.95225 -3.53806 0
M  V30 1626 H 153.657 2.78732 -3.0935 0
M  V30 1627 H 156.254 5.11225 -1.56693 0
M  V30 1628 H 156.597 4.16054 -0.143237 0
M  V30 1629 H 157.13 3.57779 -1.73893 0
M  V30 1630 H 153.869 4.78094 -4.48449 0
M  V30 1631 H 153.389 5.27972 -2.84615 0
M  V30 1632 H 155.068 5.50765 -3.39509 0
M  V30 1633 N 155.201 0.870884 1.31352 0
M  V30 1634 C 156.447 0.482987 1.96965 0
M  V30 1635 C 156.78 -0.962462 1.68672 0
M  V30 1636 O 156.055 -1.6779 0.98371 0
M  V30 1637 C 156.338 0.741752 3.52378 0
M  V30 1638 C 156.191 2.2368 3.9024 0
M  V30 1639 C 157.51 0.208838 4.39604 0
M  V30 1640 H 154.629 0.176955 0.715441 0
M  V30 1641 H 157.271 1.09229 1.55464 0
M  V30 1642 H 155.421 0.223149 3.87859 0
M  V30 1643 H 157.093 2.82273 3.64856 0
M  V30 1644 H 155.336 2.70901 3.38814 0
M  V30 1645 H 156.007 2.3685 4.98604 0
M  V30 1646 H 158.483 0.652529 4.10952 0
M  V30 1647 H 157.359 0.419336 5.47296 0
M  V30 1648 H 157.62 -0.889275 4.33064 0
M  V30 1649 N 156.679 -1.44442 0.630414 0
M  V30 1650 C 158.095 -1.56832 0.295973 0
M  V30 1651 C 158.295 -1.61806 -1.20088 0
M  V30 1652 O 157.351 -1.5607 -1.9849 0
M  V30 1653 C 158.664 -2.84031 0.987264 0
M  V30 1654 C 160.212 -2.97742 0.96534 0
M  V30 1655 C 160.687 -4.27743 1.63708 0
M  V30 1656 N 162.178 -4.34555 1.60364 0
M  V30 1657 C 162.913 -5.33862 2.09234 0
M  V30 1658 N 162.409 -6.39578 2.66292 0
M  V30 1659 N 164.202 -5.25366 1.99867 0
M  V30 1660 H 156.353 -1.39457 1.60205 0
M  V30 1661 H 158.616 -0.668237 0.672431 0
M  V30 1662 H 158.322 -2.86338 2.04215 0
M  V30 1663 H 158.196 -3.73534 0.524588 0
M  V30 1664 H 160.583 -2.94989 -0.0810639 0
M  V30 1665 H 160.664 -2.09589 1.4665 0
M  V30 1666 H 160.308 -4.31255 2.68293 0
M  V30 1667 H 160.238 -5.14752 1.11076 0
M  V30 1668 H 162.729 -3.58772 1.18705 0
M  V30 1669 H 163.042 -7.11637 3.01317 0
M  V30 1670 H 161.387 -6.40265 2.70343 0
M  V30 1671 H 164.578 -4.41688 1.55013 0
M  V30 1672 H 164.751 -6.02606 2.38265 0
M  V30 1673 N 158.157 -0.370918 -1.53173 0
M  V30 1674 C 159.067 0.480823 -2.2962 0
M  V30 1675 C 160.083 1.08789 -1.35798 0
M  V30 1676 O 161.259 1.09768 -1.68858 0
M  V30 1677 C 158.324 1.60227 -3.07454 0
M  V30 1678 C 157.385 1.0222 -4.16953 0
M  V30 1679 C 156.618 2.0902 -4.91066 0
M  V30 1680 O 156.841 3.30222 -4.65091 0
M  V30 1681 O 155.775 1.71778 -5.76867 0
M  V30 1682 H 159.601 -0.141421 -3.03371 0
M  V30 1683 H 157.186 -0.135146 -1.48787 0
M  V30 1684 H 159.068 2.25417 -3.56041 0
M  V30 1685 H 157.743 2.20982 -2.36535 0
M  V30 1686 H 156.65 0.334064 -3.72605 0
M  V30 1687 H 157.983 0.459131 -4.90054 0
M  V30 1688 N 159.635 1.57281 -0.100228 0
M  V30 1689 C 160.881 1.94826 0.563101 0
M  V30 1690 C 161.214 0.982475 1.67514 0
M  V30 1691 O 160.489 0.0164069 1.94493 0
M  V30 1692 C 160.772 3.42453 1.11346 0
M  V30 1693 C 160.625 4.498 0.00612081 0
M  V30 1694 C 161.944 3.91506 2.01024 0
M  V30 1695 H 159.063 0.708428 0.203221 0
M  V30 1696 H 161.705 1.8922 -0.171979 0
M  V30 1697 H 159.855 3.47361 1.7399 0
M  V30 1698 H 161.527 4.57 -0.628357 0
M  V30 1699 H 159.77 4.28756 -0.659581 0
M  V30 1700 H 160.441 5.50306 0.432109 0
M  V30 1701 H 162.917 3.88784 1.48278 0
M  V30 1702 H 161.793 4.95358 2.36457 0
M  V30 1703 H 162.054 3.31099 2.92961 0
M  V30 1704 N 161.113 -0.173488 1.56642 0
M  V30 1705 C 162.39 -0.917617 1.7274 0
M  V30 1706 C 162.77 -2.00484 0.661027 0
M  V30 1707 O 162.118 -2.26184 -0.32453 0
M  V30 1708 C 162.328 -1.48433 3.15862 0
M  V30 1709 C 163.676 -1.95809 3.76754 0
M  V30 1710 O 164.7 -1.58231 3.19126 0
M  V30 1711 O 163.559 -2.65024 4.77938 0
M  V30 1712 H 160.653 -0.431772 0.705338 0
M  V30 1713 H 163.199 -0.161487 1.6893 0
M  V30 1714 H 161.971 -0.701715 3.84957 0
M  V30 1715 H 161.594 -2.30471 3.23989 0
M  V30 1716 N 162.591 -1.51276 -0.441967 0
M  V30 1717 C 163.839 -1.63392 -1.18943 0
M  V30 1718 C 164.16 -0.350159 -1.9183 0
M  V30 1719 O 163.43 0.633784 -1.85364 0
M  V30 1720 H 162.01 -0.602164 -0.442049 0
M  V30 1721 H 164.672 -1.88186 -0.507165 0
M  V30 1722 H 163.768 -2.45934 -1.92154 0
M  V30 1723 N 164.069 0.697108 -1.41344 0
M  V30 1724 C 165.346 1.45154 -1.31109 0
M  V30 1725 C 165.726 2.11009 0.0620449 0
M  V30 1726 O 165.074 2.01571 1.07618 0
M  V30 1727 C 165.284 2.47223 -2.46337 0
M  V30 1728 C 166.632 3.1252 -2.87431 0
M  V30 1729 O 167.656 2.57547 -2.46065 0
M  V30 1730 O 166.515 4.12083 -3.58957 0
M  V30 1731 H 163.609 0.646365 -0.515889 0
M  V30 1732 H 166.155 0.727716 -1.53305 0
M  V30 1733 H 164.927 1.97204 -3.37974 0
M  V30 1734 H 164.55 3.27116 -2.2601 0
M  V30 1735 N 165.547 1.27147 0.931209 0
M  V30 1736 C 166.775 1.16082 1.71267 0
M  V30 1737 C 167.19 -0.282772 1.8667 0
M  V30 1738 O 166.547 -1.19283 1.38122 0
M  V30 1739 C 166.598 1.8358 3.11417 0
M  V30 1740 O 166.319 3.22299 2.96741 0
M  V30 1741 C 167.82 1.78597 4.05732 0
M  V30 1742 H 165.04 0.403758 0.535929 0
M  V30 1743 H 167.584 1.67953 1.16671 0
M  V30 1744 H 165.739 1.35623 3.62885 0
M  V30 1745 H 166.153 3.55851 3.85319 0
M  V30 1746 H 167.627 2.30444 5.01597 0
M  V30 1747 H 168.104 0.754564 4.3267 0
M  V30 1748 H 168.71 2.26152 3.60188 0
M  V30 1749 N 167.025 -1.13721 1.09112 0
M  V30 1750 C 167.958 -2.18094 0.67158 0
M  V30 1751 C 168.936 -1.59414 -0.320299 0
M  V30 1752 O 170.12 -1.87183 -0.222444 0
M  V30 1753 C 167.247 -3.38698 -0.0111189 0
M  V30 1754 C 166.293 -4.15966 0.942055 0
M  V30 1755 S 167.126 -4.7604 2.45246 0
M  V30 1756 C 168.282 -5.99994 1.78208 0
M  V30 1757 H 168.515 -2.53344 1.55577 0
M  V30 1758 H 166.048 -1.24967 0.906789 0
M  V30 1759 H 168.006 -4.08559 -0.398716 0
M  V30 1760 H 166.667 -3.01756 -0.871905 0
M  V30 1761 H 165.86 -5.02318 0.411396 0
M  V30 1762 H 165.462 -3.51745 1.2709 0
M  V30 1763 H 167.754 -6.68441 1.10424 0
M  V30 1764 H 168.697 -6.57662 2.62463 0
M  V30 1765 H 169.105 -5.50432 1.25238 0
M  V30 1766 N 168.503 -0.877838 -1.30888 0
M  V30 1767 C 169.45 -0.337538 -2.28318 0
M  V30 1768 C 170.42 0.568346 -1.56074 0
M  V30 1769 O 171.605 0.498298 -1.84178 0
M  V30 1770 C 168.745 0.448142 -3.42178 0
M  V30 1771 C 167.858 -0.48615 -4.29256 0
M  V30 1772 C 166.993 0.314427 -5.30269 0
M  V30 1773 C 166.032 -0.615791 -6.08995 0
M  V30 1774 N 165.169 0.14902 -7.01942 0
M  V30 1775 H 170.009 -1.17356 -2.73919 0
M  V30 1776 H 167.546 -0.590094 -1.34745 0
M  V30 1777 H 169.504 0.919517 -4.06941 0
M  V30 1778 H 168.134 1.24879 -2.97666 0
M  V30 1779 H 167.186 -1.076 -3.64865 0
M  V30 1780 H 168.498 -1.19909 -4.84173 0
M  V30 1781 H 167.652 0.847969 -6.00745 0
M  V30 1782 H 166.391 1.06062 -4.76027 0
M  V30 1783 H 165.396 -1.16102 -5.37401 0
M  V30 1784 H 166.621 -1.36097 -6.65323 0
M  V30 1785 H 164.567 0.877884 -6.50099 0
M  V30 1786 H 164.484 -0.504433 -7.54315 0
M  V30 1787 H 165.752 0.663537 -7.76671 0
M  V30 1788 N 169.982 1.44106 -0.638065 0
M  V30 1789 C 171.21 2.06336 -0.152615 0
M  V30 1790 C 171.625 1.47731 1.17563 0
M  V30 1791 O 170.982 0.602806 1.72257 0
M  V30 1792 C 171.033 3.61479 -0.0391491 0
M  V30 1793 O 170.754 4.17903 -1.31487 0
M  V30 1794 C 172.255 4.40757 0.474176 0
M  V30 1795 H 169.475 0.665862 -0.0828776 0
M  V30 1796 H 172.019 1.84862 -0.87443 0
M  V30 1797 H 170.174 3.82191 0.633142 0
M  V30 1798 H 170.588 5.11416 -1.16421 0
M  V30 1799 H 172.062 5.49707 0.502562 0
M  V30 1800 H 172.539 4.12697 1.50258 0
M  V30 1801 H 173.145 4.24979 -0.165102 0
M  V30 1802 N 171.46 0.379036 1.52974 0
M  V30 1803 C 172.688 -0.20679 2.05864 0
M  V30 1804 C 173.103 -1.41356 1.25155 0
M  V30 1805 O 172.46 -1.8009 0.295588 0
M  V30 1806 C 172.511 -0.587045 3.56702 0
M  V30 1807 O 172.232 0.571776 4.34353 0
M  V30 1808 C 173.733 -1.22983 4.25899 0
M  V30 1809 H 170.953 -0.0336123 0.670158 0
M  V30 1810 H 173.497 0.541298 1.97206 0
M  V30 1811 H 171.652 -1.28504 3.65466 0
M  V30 1812 H 172.066 0.261544 5.23847 0
M  V30 1813 H 173.54 -1.44635 5.32715 0
M  V30 1814 H 174.017 -2.19416 3.80465 0
M  V30 1815 H 174.623 -0.572892 4.21424 0
M  V30 1816 N 172.938 -1.57226 0.108567 0
M  V30 1817 C 174.184 -1.95121 -0.552761 0
M  V30 1818 C 174.517 -0.991345 -1.66991 0
M  V30 1819 O 173.792 -0.0267211 -1.94482 0
M  V30 1820 C 174.075 -3.43039 -1.09528 0
M  V30 1821 C 173.928 -4.49797 0.0177332 0
M  V30 1822 C 175.247 -3.92567 -1.98945 0
M  V30 1823 H 172.366 -0.709496 -0.199461 0
M  V30 1824 H 175.008 -1.89126 0.182011 0
M  V30 1825 H 173.158 -3.48279 -1.72146 0
M  V30 1826 H 174.83 -4.56661 0.652584 0
M  V30 1827 H 173.073 -4.284 0.682309 0
M  V30 1828 H 173.744 -5.50528 -0.402919 0
M  V30 1829 H 176.22 -3.89565 -1.46214 0
M  V30 1830 H 175.096 -4.96605 -2.33827 0
M  V30 1831 H 175.357 -3.32648 -2.91201 0
M  V30 1832 N 174.416 0.165178 -1.56732 0
M  V30 1833 C 175.644 0.896218 -1.86482 0
M  V30 1834 C 176.059 1.75555 -0.694675 0
M  V30 1835 O 175.416 1.79379 0.33607 0
M  V30 1836 C 175.467 1.76792 -3.1532 0
M  V30 1837 O 175.188 0.943239 -4.27825 0
M  V30 1838 C 176.689 2.6081 -3.58459 0
M  V30 1839 H 173.909 0.260064 -0.618553 0
M  V30 1840 H 176.453 0.163428 -2.03846 0
M  V30 1841 H 174.608 2.45398 -2.99764 0
M  V30 1842 H 175.022 1.53998 -5.01383 0
M  V30 1843 H 176.496 3.17579 -4.51495 0
M  V30 1844 H 176.973 3.35977 -2.82872 0
M  V30 1845 H 177.579 1.97526 -3.76648 0
M  V30 1846 N 175.894 1.51508 0.433938 0
M  V30 1847 C 177.14 1.64588 1.18484 0
M  V30 1848 C 177.473 0.362666 1.90784 0
M  V30 1849 O 176.748 -0.637892 1.83742 0
M  V30 1850 C 177.031 2.85149 2.19913 0
M  V30 1851 C 176.884 4.23456 1.51674 0
M  V30 1852 C 178.203 3.01227 3.20858 0
M  V30 1853 H 175.322 0.598994 0.429389 0
M  V30 1854 H 177.964 1.84002 0.473647 0
M  V30 1855 H 176.114 2.68729 2.80566 0
M  V30 1856 H 177.786 4.51552 0.943322 0
M  V30 1857 H 176.029 4.25998 0.819035 0
M  V30 1858 H 176.7 5.03812 2.2556 0
M  V30 1859 H 179.176 3.16382 2.70263 0
M  V30 1860 H 178.052 3.87141 3.89118 0
M  V30 1861 H 178.313 2.13447 3.8716 0
M  V30 1862 N 177.372 -0.689602 1.41712 0
M  V30 1863 C 178.62 -1.4468 1.4111 0
M  V30 1864 C 178.941 -1.94986 0.0232196 0
M  V30 1865 O 178.211 -1.72097 -0.935913 0
M  V30 1866 H 176.791 -0.536847 0.519427 0
M  V30 1867 H 179.453 -0.815825 1.77004 0
M  V30 1868 H 178.549 -2.30706 2.10193 0
M  V30 1869 N 178.85 -1.27639 -0.924453 0
M  V30 1870 C 180.127 -1.04887 -1.651 0
M  V30 1871 C 180.507 0.415327 -2.06974 0
M  V30 1872 O 179.855 1.39923 -1.80648 0
M  V30 1873 C 180.065 -2.01348 -2.85061 0
M  V30 1874 C 181.413 -2.30899 -3.56329 0
M  V30 1875 O 182.437 -1.99348 -2.95193 0
M  V30 1876 O 181.296 -2.84699 -4.66485 0
M  V30 1877 H 178.39 -0.400083 -0.723784 0
M  V30 1878 H 180.936 -1.38916 -0.974703 0
M  V30 1879 H 179.708 -3.0008 -2.51133 0
M  V30 1880 H 179.331 -1.679 -3.6041 0
M  V30 1881 N 180.328 1.1314 -1.09713 0
M  V30 1882 C 181.574 1.84757 -0.836224 0
M  V30 1883 C 181.907 1.8347 0.636598 0
M  V30 1884 O 181.182 1.27491 1.46889 0
M  V30 1885 C 181.465 3.32782 -1.37578 0
M  V30 1886 C 181.318 3.42567 -2.91493 0
M  V30 1887 C 182.637 4.28307 -1.01198 0
M  V30 1888 H 179.756 0.67082 -0.305236 0
M  V30 1889 H 182.398 1.3278 -1.35903 0
M  V30 1890 H 180.548 3.77177 -0.931097 0
M  V30 1891 H 182.22 3.06862 -3.44432 0
M  V30 1892 H 180.463 2.83349 -3.28475 0
M  V30 1893 H 181.134 4.46674 -3.24324 0
M  V30 1894 H 183.61 3.91999 -1.39556 0
M  V30 1895 H 182.486 5.30307 -1.41653 0
M  V30 1896 H 182.747 4.42029 0.0794833 0
M  V30 1897 N 181.806 0.884767 1.30421 0
M  V30 1898 C 183.034 0.518044 2.0031 0
M  V30 1899 C 183.449 -0.893408 1.66324 0
M  V30 1900 O 182.806 -1.5875 0.900262 0
M  V30 1901 C 182.857 0.682997 3.54989 0
M  V30 1902 O 182.578 2.03888 3.87764 0
M  V30 1903 C 184.079 0.31924 4.42149 0
M  V30 1904 H 181.299 0.200265 0.640418 0
M  V30 1905 H 183.843 1.19001 1.6631 0
M  V30 1906 H 181.998 0.0584052 3.87356 0
M  V30 1907 H 182.412 2.05735 4.82466 0
M  V30 1908 H 183.886 0.485555 5.4986 0
M  V30 1909 H 184.363 -0.742717 4.32875 0
M  V30 1910 H 184.969 0.920147 4.15227 0
M  V30 1911 N 183.284 -1.43765 0.645699 0
M  V30 1912 C 184.247 -2.29163 -0.0409488 0
M  V30 1913 C 185.247 -1.41813 -0.757996 0
M  V30 1914 O 186.437 -1.63527 -0.600382 0
M  V30 1915 C 183.569 -3.23716 -1.06869 0
M  V30 1916 H 184.762 -2.91366 0.710345 0
M  V30 1917 H 182.315 -1.5092 0.406547 0
M  V30 1918 H 183.05 -2.66393 -1.84947 0
M  V30 1919 H 182.835 -3.88105 -0.558277 0
M  V30 1920 H 184.325 -3.87831 -1.54845 0
M  V30 1921 N 184.763 -0.387143 -1.52771 0
M  V30 1922 C 186.012 0.19697 -2.00736 0
M  V30 1923 C 186.325 1.48082 -1.27793 0
M  V30 1924 O 187.531 2.14485 -1.66458 0
M  V30 1925 C 185.987 0.401568 -3.57653 0
M  V30 1926 C 185.595 -0.868907 -4.39493 0
M  V30 1927 C 187.339 0.942164 -4.13912 0
M  V30 1928 C 185.246 -0.632705 -5.88006 0
M  V30 1929 H 184.176 0.0773827 -0.750019 0
M  V30 1930 H 186.827 -0.50921 -1.76293 0
M  V30 1931 H 185.209 1.16954 -3.78335 0
M  V30 1932 H 186.383 -1.64133 -4.30577 0
M  V30 1933 H 184.698 -1.33429 -3.94443 0
M  V30 1934 H 187.295 1.13455 -5.22525 0
M  V30 1935 H 187.638 1.9106 -3.69867 0
M  V30 1936 H 188.171 0.233814 -3.97112 0
M  V30 1937 H 184.91 -1.57208 -6.36369 0
M  V30 1938 H 184.43 0.100825 -5.99715 0
M  V30 1939 H 186.109 -0.26642 -6.46451 0
M  V30 1940 N 186.241 1.57166 -0.116904 0
M  V30 1941 C 187.657 1.5779 0.239693 0
M  V30 1942 C 187.857 1.1295 1.66867 0
M  V30 1943 O 186.913 0.81592 2.38954 0
M  V30 1944 C 188.226 3.00699 0.00828202 0
M  V30 1945 C 189.774 3.12912 0.0743438 0
M  V30 1946 C 190.249 4.57817 -0.129348 0
M  V30 1947 N 191.74 4.63139 -0.075247 0
M  V30 1948 C 192.475 5.73023 -0.207788 0
M  V30 1949 N 191.971 6.91665 -0.396382 0
M  V30 1950 N 193.764 5.61906 -0.14751 0
M  V30 1951 H 185.915 1.84615 -1.05029 0
M  V30 1952 H 188.178 0.85311 -0.41341 0
M  V30 1953 H 187.884 3.37784 -0.979531 0
M  V30 1954 H 187.758 3.69848 0.741077 0
M  V30 1955 H 190.145 2.75686 1.05268 0
M  V30 1956 H 190.226 2.4631 -0.690297 0
M  V30 1957 H 189.87 4.95742 -1.10465 0
M  V30 1958 H 189.8 5.22507 0.655253 0
M  V30 1959 H 192.291 3.7784 0.0670898 0
M  V30 1960 H 192.604 7.71255 -0.488437 0
M  V30 1961 H 190.949 6.93654 -0.432329 0
M  V30 1962 H 194.14 4.681 -0.00115036 0
M  V30 1963 H 194.313 6.47501 -0.254247 0
M  V30 1964 N 187.719 -0.156864 1.56817 0
M  V30 1965 C 188.667 -1.21319 1.98455 0
M  V30 1966 C 189.661 -1.45025 0.875444 0
M  V30 1967 O 190.867 -1.45435 1.0606 0
M  V30 1968 H 187.242 -0.408142 0.631605 0
M  V30 1969 H 189.213 -0.835244 2.86472 0
M  V30 1970 C 187.962 -2.54148 2.37285 0
M  V30 1971 H 187.285 -2.36733 3.22176 0
M  V30 1972 H 188.725 -3.26712 2.70251 0
M  V30 1973 C 187.184 -3.13967 1.22173 0
M  V30 1974 O 187.714 -3.98357 0.517149 0
M  V30 1975 N 185.92 -2.7327 0.988536 0
M  V30 1976 H 185.467 -2.04744 1.56326 0
M  V30 1977 H 185.425 -3.13628 0.220209 0
M  V30 1978 N 189.197 -1.51736 -0.425897 0
M  V30 1979 C 190.427 -1.68549 -1.19476 0
M  V30 1980 C 190.835 -0.387288 -1.85194 0
M  V30 1981 O 190.178 0.645142 -1.71999 0
M  V30 1982 C 190.24 -2.75275 -2.31223 0
M  V30 1983 C 189.904 -4.17534 -1.8578 0
M  V30 1984 C 190.901 -5.01936 -1.35485 0
M  V30 1985 C 188.586 -4.6369 -1.93123 0
M  V30 1986 C 190.58 -6.30559 -0.931347 0
M  V30 1987 C 188.267 -5.92307 -1.50384 0
M  V30 1988 C 189.265 -6.75569 -1.00473 0
M  V30 1989 O 188.953 -8.0178 -0.583452 0
M  V30 1990 H 188.685 -0.568525 -0.365725 0
M  V30 1991 H 191.239 -1.98982 -0.509444 0
M  V30 1992 H 189.469 -2.40182 -3.03067 0
M  V30 1993 H 191.158 -2.80853 -2.93047 0
M  V30 1994 H 191.924 -4.67475 -1.29197 0
M  V30 1995 H 187.803 -3.98997 -2.30916 0
M  V30 1996 H 191.347 -6.95498 -0.541084 0
M  V30 1997 H 187.244 -6.2628 -1.56346 0
M  V30 1998 H 188.012 -8.1543 -0.708275 0
M  V30 1999 N 190.675 0.682077 -1.42076 0
M  V30 2000 C 191.622 1.79578 -1.44984 0
M  V30 2001 C 192.592 1.6332 -0.302614 0
M  V30 2002 O 193.777 1.83978 -0.505633 0
M  V30 2003 C 190.917 3.1756 -1.35091 0
M  V30 2004 C 190.03 3.45156 -2.59791 0
M  V30 2005 C 189.165 4.72826 -2.42093 0
M  V30 2006 C 188.204 4.93433 -3.62202 0
M  V30 2007 N 187.341 6.12338 -3.43491 0
M  V30 2008 H 192.181 1.76427 -2.40161 0
M  V30 2009 H 189.718 0.861376 -1.19242 0
M  V30 2010 H 191.676 3.97287 -1.27354 0
M  V30 2011 H 190.306 3.19854 -0.435133 0
M  V30 2012 H 189.358 2.59736 -2.77923 0
M  V30 2013 H 190.67 3.5628 -3.49094 0
M  V30 2014 H 189.824 5.60631 -2.319 0
M  V30 2015 H 188.563 4.63973 -1.50268 0
M  V30 2016 H 187.568 4.04073 -3.72834 0
M  V30 2017 H 188.793 5.04136 -4.54998 0
M  V30 2018 H 186.739 6.04672 -2.54377 0
M  V30 2019 H 186.656 6.2429 -4.26377 0
M  V30 2020 H 187.924 7.02841 -3.37097 0
M  V30 2021 N 192.153 1.28127 0.917671 0
M  V30 2022 C 193.569 1.05749 1.19538 0
M  V30 2023 C 193.769 -0.202633 2.00479 0
M  V30 2024 O 192.825 -0.905382 2.3571 0
M  V30 2025 C 194.138 2.30273 1.93378 0
M  V30 2026 C 195.686 2.35412 2.06277 0
M  V30 2027 C 196.161 3.59692 2.83524 0
M  V30 2028 N 197.652 3.60309 2.91087 0
M  V30 2029 C 198.387 4.53147 3.51348 0
M  V30 2030 N 197.883 5.563 4.12919 0
M  V30 2031 N 199.676 4.40751 3.48849 0
M  V30 2032 H 191.827 2.09024 0.377184 0
M  V30 2033 H 194.09 0.919798 0.22951 0
M  V30 2034 H 193.796 3.22055 1.41328 0
M  V30 2035 H 193.67 2.36378 2.93947 0
M  V30 2036 H 196.057 1.4413 2.57508 0
M  V30 2037 H 196.138 2.33304 1.04895 0
M  V30 2038 H 195.782 4.51316 2.32973 0
M  V30 2039 H 195.712 3.59054 3.85211 0
M  V30 2040 H 198.203 2.85714 2.47338 0
M  V30 2041 H 198.516 6.2329 4.56869 0
M  V30 2042 H 196.861 5.60131 4.11435 0
M  V30 2043 H 200.052 3.59367 2.99955 0
M  V30 2044 H 200.225 5.13291 3.9552 0
M  V30 2045 N 193.631 -1.12557 1.10312 0
M  V30 2046 C 194.561 -2.20341 0.772798 0
M  V30 2047 C 195.542 -1.68198 -0.25365 0
M  V30 2048 O 196.727 -1.93831 -0.119699 0
M  V30 2049 C 193.857 -3.46709 0.202443 0
M  V30 2050 C 192.811 -4.11996 1.15943 0
M  V30 2051 C 192.137 -5.328 0.450345 0
M  V30 2052 C 193.437 -4.5828 2.50552 0
M  V30 2053 H 195.131 -2.48229 1.674 0
M  V30 2054 H 192.677 -1.19308 0.806326 0
M  V30 2055 H 194.63 -4.2138 -0.0407752 0
M  V30 2056 H 193.354 -3.18245 -0.734001 0
M  V30 2057 H 192.013 -3.39305 1.38808 0
M  V30 2058 H 191.661 -5.00602 -0.490531 0
M  V30 2059 H 191.361 -5.7743 1.08851 0
M  V30 2060 H 192.885 -6.10219 0.215642 0
M  V30 2061 H 194.299 -5.2433 2.31843 0
M  V30 2062 H 192.696 -5.13683 3.10242 0
M  V30 2063 H 193.766 -3.72329 3.10643 0
M  V30 2064 N 195.109 -0.891671 -1.2995 0
M  V30 2065 C 196.334 -0.527932 -2.00568 0
M  V30 2066 C 196.759 0.877969 -1.66353 0
M  V30 2067 O 196.117 1.58301 -0.883762 0
M  V30 2068 C 196.165 -0.717745 -3.53385 0
M  V30 2069 O 195.269 0.233376 -4.11739 0
M  V30 2070 H 194.61 -0.20722 -0.630837 0
M  V30 2071 H 197.14 -1.20105 -1.65638 0
M  V30 2072 H 197.15 -0.619307 -4.03272 0
M  V30 2073 H 195.825 -1.74276 -3.77625 0
M  V30 2074 H 194.402 0.0880706 -3.72796 0
M  V30 2075 O 196.626 1.40697 -0.792879 0
M  V30 2076 H 197.317 1.90244 -0.364253 0
M  V30 END ATOM
M  V30 BEGIN BOND
M  V30 END BOND
M  V30 END CTAB
M  END
$$$$
