8362
  -OEChem-03032017243D

 41 42  0     1  0  0  0  0  0999 V2000
    0.0956    0.7757   -0.5488 O   0  0  0  0  0  0  0  0  0  0  0  0
    0.9498   -0.9338   -1.8322 O   0  0  0  0  0  0  0  0  0  0  0  0
    3.0190   -2.0754   -0.4912 O   0  0  0  0  0  0  0  0  0  0  0  0
   -3.6459    0.8557    0.0525 C   0  0  0  0  0  0  0  0  0  0  0  0
   -3.6945   -0.4422    0.8932 C   0  0  0  0  0  0  0  0  0  0  0  0
   -2.7358   -1.5361    0.3939 C   0  0  1  0  0  0  0  0  0  0  0  0
   -2.1859    1.3388   -0.0810 C   0  0  0  0  0  0  0  0  0  0  0  0
   -1.2308    0.2550   -0.5817 C   0  0  2  0  0  0  0  0  0  0  0  0
   -1.3051   -0.9992    0.2865 C   0  0  0  0  0  0  0  0  0  0  0  0
   -4.2709    0.6274   -1.3373 C   0  0  0  0  0  0  0  0  0  0  0  0
   -4.4691    1.9445    0.7669 C   0  0  0  0  0  0  0  0  0  0  0  0
   -2.7831   -2.7524    1.3189 C   0  0  0  0  0  0  0  0  0  0  0  0
    1.0742   -0.0615   -0.9866 C   0  0  0  0  0  0  0  0  0  0  0  0
    2.3544    0.2201   -0.2892 C   0  0  0  0  0  0  0  0  0  0  0  0
    3.2606   -0.7995   -0.0773 C   0  0  0  0  0  0  0  0  0  0  0  0
    2.5956    1.5139    0.1304 C   0  0  0  0  0  0  0  0  0  0  0  0
    4.4572   -0.5144    0.5808 C   0  0  0  0  0  0  0  0  0  0  0  0
    3.7920    1.7988    0.7885 C   0  0  0  0  0  0  0  0  0  0  0  0
    4.7227    0.7846    1.0138 C   0  0  0  0  0  0  0  0  0  0  0  0
   -4.7195   -0.8353    0.9114 H   0  0  0  0  0  0  0  0  0  0  0  0
   -3.4405   -0.2030    1.9354 H   0  0  0  0  0  0  0  0  0  0  0  0
   -3.0597   -1.8686   -0.6000 H   0  0  0  0  0  0  0  0  0  0  0  0
   -1.8239    1.6998    0.8922 H   0  0  0  0  0  0  0  0  0  0  0  0
   -2.1266    2.2103   -0.7465 H   0  0  0  0  0  0  0  0  0  0  0  0
   -1.4787    0.0114   -1.6220 H   0  0  0  0  0  0  0  0  0  0  0  0
   -0.9092   -0.7734    1.2864 H   0  0  0  0  0  0  0  0  0  0  0  0
   -0.6611   -1.7929   -0.1088 H   0  0  0  0  0  0  0  0  0  0  0  0
   -4.2587    1.5504   -1.9283 H   0  0  0  0  0  0  0  0  0  0  0  0
   -3.7437   -0.1363   -1.9157 H   0  0  0  0  0  0  0  0  0  0  0  0
   -5.3151    0.3063   -1.2487 H   0  0  0  0  0  0  0  0  0  0  0  0
   -4.4574    2.8837    0.2024 H   0  0  0  0  0  0  0  0  0  0  0  0
   -5.5144    1.6372    0.8842 H   0  0  0  0  0  0  0  0  0  0  0  0
   -4.0705    2.1532    1.7662 H   0  0  0  0  0  0  0  0  0  0  0  0
   -2.1262   -3.5469    0.9496 H   0  0  0  0  0  0  0  0  0  0  0  0
   -2.4642   -2.4943    2.3345 H   0  0  0  0  0  0  0  0  0  0  0  0
   -3.7990   -3.1573    1.3755 H   0  0  0  0  0  0  0  0  0  0  0  0
    1.8964    2.3263   -0.0440 H   0  0  0  0  0  0  0  0  0  0  0  0
    5.1915   -1.2946    0.7632 H   0  0  0  0  0  0  0  0  0  0  0  0
    4.0006    2.8109    1.1228 H   0  0  0  0  0  0  0  0  0  0  0  0
    5.6545    1.0069    1.5256 H   0  0  0  0  0  0  0  0  0  0  0  0
    3.7744   -2.6371   -0.2471 H   0  0  0  0  0  0  0  0  0  0  0  0
  1  8  1  0  0  0  0
  1 13  1  0  0  0  0
  2 13  2  0  0  0  0
  3 15  1  0  0  0  0
  3 41  1  0  0  0  0
  4  5  1  0  0  0  0
  4  7  1  0  0  0  0
  4 10  1  0  0  0  0
  4 11  1  0  0  0  0
  5  6  1  0  0  0  0
  5 20  1  0  0  0  0
  5 21  1  0  0  0  0
  6  9  1  0  0  0  0
  6 12  1  0  0  0  0
  6 22  1  0  0  0  0
  7  8  1  0  0  0  0
  7 23  1  0  0  0  0
  7 24  1  0  0  0  0
  8  9  1  0  0  0  0
  8 25  1  0  0  0  0
  9 26  1  0  0  0  0
  9 27  1  0  0  0  0
 10 28  1  0  0  0  0
 10 29  1  0  0  0  0
 10 30  1  0  0  0  0
 11 31  1  0  0  0  0
 11 32  1  0  0  0  0
 11 33  1  0  0  0  0
 12 34  1  0  0  0  0
 12 35  1  0  0  0  0
 12 36  1  0  0  0  0
 13 14  1  0  0  0  0
 14 15  1  0  0  0  0
 14 16  2  0  0  0  0
 15 17  2  0  0  0  0
 16 18  1  0  0  0  0
 16 37  1  0  0  0  0
 17 19  1  0  0  0  0
 17 38  1  0  0  0  0
 18 19  2  0  0  0  0
 18 39  1  0  0  0  0
 19 40  1  0  0  0  0
M  END
> <DATABASE_ID>
DB11064

> <DATABASE_NAME>
drugbank

> <ORIGINAL_SOURCE>
PUBCHEM

> <ORIGINAL_SOURCE_URL>
https://pubchem.ncbi.nlm.nih.gov/rest/pug/compound/inchikey/WSSJONWNBBTCMG-UHFFFAOYSA-N/SDF?record_type=3d

> <SMILES>
CC1CC(CC(C)(C)C1)OC(=O)C1=C(O)C=CC=C1

> <INCHI_IDENTIFIER>
InChI=1S/C16H22O3/c1-11-8-12(10-16(2,3)9-11)19-15(18)13-6-4-5-7-14(13)17/h4-7,11-12,17H,8-10H2,1-3H3

> <INCHI_KEY>
WSSJONWNBBTCMG-UHFFFAOYSA-N

> <FORMULA>
C16H22O3

> <MOLECULAR_WEIGHT>
262.349

> <EXACT_MASS>
262.156894568

> <JCHEM_ACCEPTOR_COUNT>
2

> <JCHEM_ATOM_COUNT>
41

> <JCHEM_AVERAGE_NEUTRAL_MICROSPECIES_CHARGE>
-0.0019168470776507209

> <JCHEM_AVERAGE_POLARIZABILITY>
29.85695431852774

> <JCHEM_BIOAVAILABILITY>
1

> <JCHEM_DONOR_COUNT>
1

> <JCHEM_FORMAL_CHARGE>
0

> <JCHEM_GHOSE_FILTER>
1

> <JCHEM_IUPAC>
3,3,5-trimethylcyclohexyl 2-hydroxybenzoate

> <ALOGPS_LOGP>
4.05

> <JCHEM_LOGP>
4.996513302666667

> <ALOGPS_LOGS>
-3.85

> <JCHEM_MDDR_LIKE_RULE>
0

> <JCHEM_NEUTRAL_CHARGE>
0

> <JCHEM_NUMBER_OF_RINGS>
2

> <JCHEM_PHYSIOLOGICAL_CHARGE>
0

> <JCHEM_PKA_STRONGEST_ACIDIC>
9.716579256748755

> <JCHEM_PKA_STRONGEST_BASIC>
-4.287824261323449

> <JCHEM_POLAR_SURFACE_AREA>
46.53

> <JCHEM_REFRACTIVITY>
74.6507

> <JCHEM_ROTATABLE_BOND_COUNT>
3

> <JCHEM_RULE_OF_FIVE>
1

> <ALOGPS_SOLUBILITY>
3.73e-02 g/l

> <JCHEM_TRADITIONAL_IUPAC>
ethyl 6-bromo-4-[(dimethylamino)methyl]-5-hydroxy-2-(hydroxymethyl)-1-methylindole-3-carboxylate

> <JCHEM_VEBER_RULE>
0

> <DRUGBANK_ID>
DB11064

> <DRUG_GROUPS>
approved; investigational

> <GENERIC_NAME>
Homosalate

> <SYNONYMS>
3,3,5-Trimethylcyclohexyl 2-hydroxybenzoate; Homosalate; Homosalato; Homosalatum

> <PRODUCTS>
100 SPF Cream; 14-day Skin Rescue SPF 30; 15 Tanning CVS; 2 in 1 Sunscreen and Gradual Self-Tanner; 21STAY A Thera Sun Block; 24K Bio-Brightening Skin Tone Moisturizer SPF 30; 24K Skin Tone Moisturizer SPF 30; 29 by LYDIA MONDAVI Napa Valley BROAD SPECTRUM SPF 30 D VINE DAY; 2X Sunblock SPF 50; 3-in-1 Face Moisturizer Broad Spectrum SPF 20; 30 Continuous Spray Sunscreen With Instant Bronzer; 30 Lotion Sunscreen Moisture Max; 30 Plus Sunblock Spray; 30 SPF; 30 SPF Jack Nicklaus; 30 SPF Oil Free; 30 Spray Gel Sunscreen With Instant Bronzer; 3LAB PERFECT Sunscreen SPF 50 Plus Broad Spectrum; 3lab Ww Day Spf40 Broad Spectrum; 4-IN-1 Broad Spectrum SPF 50 Sunscreen; 4362 First Aid Kit; 45 SPF Sunblock Spray; 45 SPF Sunscreen Spray; 50 Lotion Sunscreen Moisture Max; 50 Spray Gel Sunscreen With Instant Bronzer; 50+ Dry Touch CRème Protection Solaire Large Spectre Fps 50+ / Sun Protection Cream Broad Spectrum SPF 50+; 5414 Sunscreen; 7-in-1 Anti-Aging Vitamin Moisturizer Broad Spectrum SPF15 Sunscreen; 70 Dry Touch SPF 70; 70 SPF Body Mist; 70 SPF Cream; 85 SPF Cream; A Cream SPF 30; A Perfect World SPF 35 Uv Broad Spectrum Face Protector; A Perfect World SPF 40 Age Defense Broad Spectrum Moisturizer With White Tea; ACWELL UV CUT Waterproof Sun; AHAVA ACTIVE DEADSEA MINERALS AHAVA Age Control Even Tone Moisturizer Broad Spectrum SPF 20; AL00378 Alba Cool Sport Sunscreen SPF50; AL0038100 Alba HW Sunscreen Coconut Milk SPF50; AL0038100 Alba VE Sunscreen Fragrance Free SPF50; AL0038200 Alba VE Sunscreen Kids SPF50; AL0038502 Alba Tropical Fruit Kids Sunscreen SPF40; AL0039006 Alba Sport Sunscreen Fragrance Free SPF45; AL0082706 Alba Botanica HW Sunscreen Green Tea SPF45; ALOE UP Broad Spectrum SPF 30 Sunscreen; ALOE UP Broad Spectrum SPF 50 Sunscreen; ALOE UP Kids Broad Spectrum SPF 50 Sunscreen; ANEW Solar Advance Sunscreen Body Mist; ANNA LOTAN Clear Protector Free Broad Spectrum SPF 32 Sunscreen; APPLE OF SODOM Deep Wrinkle Broad Spectrum SPF30; ASYSTEM Daily Defense Moisturizer SPF30; Absolue Velvet Cream With Broad Spectrum SPF 15; Absolutely Ageless Daily Moisturizer; Academy SPF 50; Academy Sport SPF 30; Academy Sport SPF 50; Active Breathable Sunblock SPF 30; Active Breathable Sunblock SPF 45; Active Protection Fresh Grapefruit Sunscreen Lip Balm; Active Protection Lemon Twist Sunscreen Lip Balm; Active Protection With Aloe; Active Sport; Adaptasun Sun Care Lotion Sea and Tropics Body / Lait De Soin Solaire Mer Et Tropiques Corps SPF/fps 35; Advanced Revital; Aegis Daily Facial SPF 25; Affinia Facial Moisturizer; Age Balancing Moisture Broad Spectrum SPF 30 | Pa+++; Age Defying Hydrating Sunscreen SPF 30; Age Minimize 3d Day Cream SPF 30 Broad Spectrum Sunscreen; Age Perfect Glow Renewal SPF 30 Day Lotion Moisturizer; Age Perfect Hydra-nutrition Ultra-nourishing Lotion; Age Perfect Rosy Tone Day Cream; Age Renewal Deep Wrinkle Moisturizer; Age Shield Face + Moisturizing Repair; Age Shield Face Sunscreen SPF 110; Age Shield Face Sunscreen SPF 60; Age Shield Face Sunscreen SPF 85; Age and Pollution protector Broad Spectrum SPF 50; Age-fighting Moisturizer Sunscreen SPF 30; Ahava Active Deadsea Minerals Age Control Even Tone Moisturizer Broad Spectrum Spf20; Alba Body Daily Shade SPF15; Alba Botanica Even Advanced Moisturizer SPF15; Alba Botanica Facial Sunscreen FF SPF30; Alba Botanica HW Sunscreen Aloe Vera SPF30; Alba Botanica HW Sunscreen Green Tea SPF45; Alba Botanica Kids SunscreenTropical Fruit SPF45; Alba Botanica Natural Even Advanced Sea Moss Moisturizer SPF15; Alba Botanica Natural Very Emollient Daily Shade SPF15; Alba Botanica Natural Very Emollient Sunscreen Kids SPF40; Alba Botanica Natural Very Emollient Sunscreen Sport Spray SPF40; Alba Botanica Pure Lavender Sunscreen SPF45; Alba Botanica Sensitive FF Sunscreen SPF30; Alba Botanica VE Daily Shade SPF15 Body; Alba Botanica Very Emollient / Très Émollient Lavender Fragrance Sunscreen Lotion/lotion Écran Solaire À Parfum De Lavande SPF Fps 45; Alba Botanica Very Emollient / Très Émollient Sport Sunscreen Lotion / Lotion Écran Solaire Sport SPF Fps 45; Alba Botanica Very Emollient/très Émollient Fragrance Free Facial Sunscreen Lotion/lotion Écran Solaire Non Parfumée Pour Le Visage SPF Fps 30; Alba Botanica Very Emollient/très Émollient Kids Sunscreen Lotion/lotion Écran Solaire Pour Enfants SPF Fps 45; Alba Even Advanced Sea Moss Moisturizer SPF15; Alba HW Sunscreen Soothing Aloe Vera SPF30; Alba Hawaiian Aloe Vera Sunblock SPF 30; Alba Hawaiian Coconut Siscreen SPF 15; Alba Hawaiian Green Tea Sunblock SPF 45; Alba Hawaiian Sunscreen Green Tea SPF45; Alba HawaiianDry Sunscreen SPF15; Alba Sunblock Natural FF SPF 30; Alba Sunblock Natural Facial SPF 30; Alba Sunblock Natural Kids SPF 45; Alba Sunblock Natural Lavender SPF 45; Alba Sunblock Natural Sport SPF 45; Alba VE Facial Sunscreen SPF30; Alba VE Sunscreen SPF30 Fragrance Free; Alba VE Sunscreen Sport SPF45; Algenist; All Day Moisture with AHAs SPF 15 Broad Spectrum Sunscreen; All Day Sunscreen with SPF 30; All Seasons Lip Balm; All You Need + Broad Spectrum Oil Absorbing Lotion SPF 15; All You Need Continuous Action 24 Hour Moisture SPF 15 for Normal Skin; All You Need Plus Broad Spectrum SPF 15 24-hour Moisture/ Normal Skin; Almay Anti Aging Lip Care SPF 20; Almay Best Blend Forever Makeup; Almay Healthy Biome Makeup; Aloe Ice SPF 20; Aloe Ice SPF 50; Aloe Ice White SPF 30; Aloe Kote SPF 25; Aloe Sunscreen; Aloe Up Broad Spectrum SPF 30; Aloe Up Broad Spectrum SPF 30 Sunscreen; Aloe Up Broad Spectrum SPF 50; Aloe Up Coco-mango SPF-50; Aloe Up Kids SPF 50; Aloe Up Kids Sport Sunscreen SPF 50; Aloe Up Light Tanning Oil SPF-6; Aloe Up Lil Kids Continuous Sunscreen SPF 50; Aloe Up Lil Kids SPF 50; Aloe Up Medicated Lip Balm SPF 30; Aloe Up Medicated Lip Ice Sunscreen SPF 30; Aloe Up Natural Lip Ice Sunscreen SPF 15; Aloe Up Pro 30 Continuous Sunscreen; Aloe Up Pro 50 Continuous Sunscreen; Aloe Up Pro SPF 30 Sunscreen; Aloe Up Pro SPF 30 Ultra Sport Sunscreen; Aloe Up Pro SPF 50 Advanced Formula Ultra Sport Sunscreen; Aloe Up Pro SPF 50 Lotion; Aloe Up SPF 30 C/S Sunscreen with Aloe Vera; Aloe Up SPF 30 Coco-Mango C-spray; Aloe Up SPF 50 Coco-Mango C-spray; Aloe Up Sport SPF 30 C-Spray; Aloe Up Sport SPF 50 C-spray; Aloe Up Sport SPF-15; Aloe Up Sport SPF-50; Aloe Up Sunscreen SPF 50; Aloette Light CC Cream; Aloette Medium CC Cream; Aloette Tan CC Cream; Always Foundation Makeup Broad Spectrum SPF 15 Bisque; Always Foundation Makeup Broad Spectrum SPF 15 Buff; Always Foundation Makeup Broad Spectrum SPF 15 Cocoa; Always Foundation Makeup Broad Spectrum SPF 15 Golden Tan; Always Foundation Makeup Broad Spectrum SPF 15 Honey; Always Foundation Makeup Broad Spectrum SPF 15 Ivory; Always Foundation Makeup Broad Spectrum SPF 15 Natural; Always Foundation Makeup Broad Spectrum SPF 15 Natural Tan; Always Foundation Makeup Broad Spectrum SPF 15 Shell; Always Foundation Makeup Broad Spectrum SPF 15 Soft Ivory; Ambi Even and Clear Daily Moisturizer Sunscreen Broad Spectrum SPF30; Ambient Light Body Lotion SPF 50; Ambient Light Face Cream SPF 50; American Crew Acumen Multi Defense Moisturizing Sunscreen; American Crew All In One Face Balm Broad Spectrum SPF 15; American Crew All-IN-one Face Balm SPF 15; Amla Glow Ultra Hydrating Day Moisturizer Broad Spectrum SPF 25 Sunscreen; Amorepacific Natural Protector; Amorepacific Resort Collection Sun Protection; Amorepacific Resort Collection Sun Protection Mist; Amorepacific Resort Collection Sun Protection Mist Broad Spectrum SPF 30 Sunscreen; Anew Clinical Skinvincible Multi-Shield; Anew Hydra Fusion Daily Beauty Defense; Anew Men Daily Moisturizer; Anew Neutralize; Anew Rejuvenate 24 Hour Eye Moisturizer Hydratant Yeux 24 Heures SPF 25 Day; Anew Rejuvenate 24 hour Eye Moisturizer; Anew Reversalist Complete Renewal Day; Anew Reversalist Complete Renewal Day Cream; Anew Reversalist Complete Renewal Day Lotion; Anew Skinvincible Day; Anew Skinvincible Day Lotion Broad Spectrum SPF 50 Sunscreen; Anew Solar Advance Sunscreen Body; Anew Solor Advance Sunscreen Face; Anew Sun Sunscreen Body Lotion; Anew Sun Sunscreen Body Mist Lotion; Anew Sun Sunscreen Face Lotion; Anew Ultimate 7S Day; Anew Ultimate Day 7s Cream; Anew Ultimate Day Multi-Performance; Anew Ultimate Day Multi-performance Cream; Anew Vitale Day; Anew Vitale Day Lotion; Anthelios Lotion Corps Ultra-fluide; Anthelios Mist; Anthelios Ultra-fluid Lotion; Anti Aging SPF Moistruizer; Anti-Aging Complex SPF 30 Merle Norman; Anti-Wrinkle Day Cream Suncreen Broad Spectrum SPF 30; Anti-aging Complex Emulsion Broad Spectrum SPF 30; Anti-aging Facial Moisturizer SPF/fps 70; Anti-aging Moisturizer Broad Spectrum SPF 30 | Pa+++; Anti-brillance Lotion Toucher Sec; Anti-shine Anthelios XL Dry Touch Gel-cream; Anti-wrinkle Intensive Day Cream; Aquagel Defense 50; Aqualia Thermal Uv; Aqualia Thermal Uv Defense Moisturizing Cream Spf30; Aqualia Thermal Uv SPF 20; Aramis Lab Series Power Protector Broad Spectrum SPF 50; Aramis Lab Series Power Protector SPF 50; Arbonne International Lip Saver Sunscreen SPF 30; Arbonne Lip Saver Sunscreen SPF 30; Arbonne RE9 Advanced Restorative Day Broad Spectrum SPF 20; Arbonne RE9 Advanced for Men Facial Moisturizer Broad Spectrum SPF 20; Arbonne Revelage Age Spot Brightening Day with SPF 30; Arbonne Revelage Age Spot Brightening Hand Therapy with SPF 30; Art Of Sport Skin Armor High Performance Broad Spectrum SPF-50 Sunscreen; Artra Skin Tone for Dry Skin; Artra Skin Tone for Normal Skin; Artra Skin Tone for Oily Skin; Aruba Aloe Very Water Resistant Sunscreen; Aruba Aloe Very Water Resistant Sunscreen - For Faces SPF 30; Aruba Aloe Very Water Resistant Sunscreen For Kids SPF 30; Aruba Aloe Very Water Resistant Sunscreen SPF 50; Aubio Hydrating Lip Therapy Broad Spectrum SPF 30 Sunscreen; Aubio Life Sciences Lip; Aureli Broad Spectrum; Austalian Gold Broad Spectrum SPF 30 Sunscreen; Austalian Gold Broad Spectrum SPF 50 Sunscreen; Austalian Gold Sensitive Sun protection SPF 50; Austalian Gold Sunscreen stick SPF 50 high protection; Australian Gold BOAD SPECTRUM SPF 30; Australian Gold BOAD SPECTRUM SPF 50; Australian Gold BROAD SPECTRUM SPF 30; Australian Gold BROAD SPECTRUM SPF 30 Sunscreen; Australian Gold BROAD SPECTRUM SPF 30 X-treme Sport Sunscreen; Australian Gold BROAD SPECTRUM SPF 50; Australian Gold BROAD SPECTRUM SPF 50 X-treme Sport Sunscreen; Australian Gold Baby SPF 50 Sunscreen; Australian Gold Botanical Broad Spectrum SPF 70; Australian Gold Botanical SPF 30; Australian Gold Botanical Sunscreen Broad Spectrum SPF 30 Natural; Australian Gold Botanical Sunscreen Broad Spectrum SPF 50 Natural; Australian Gold Broad Spectrum 30; Australian Gold Broad Spectrum SPF 30; Australian Gold Broad Spectrum SPF 30 Sheer Sunscreen; Australian Gold Broad Spectrum SPF 30 with invisidry Technology; Australian Gold Broad Spectrum SPF 45; Australian Gold Broad Spectrum SPF 50; Australian Gold Extreme Sport SPF 30; Australian Gold Hello Kitty Broad Spectrum 50; Australian Gold Instant Bronzer 30 sunscreen; Australian Gold Instant Bronzer Broad Spectrum SPF 30; Australian Gold Instant Brozer SPF 30 Sunscreen; Australian Gold Invisidry Technology Oil-Free Formula Broad Spectrum SPF 30; Australian Gold Justice SPF 50 Glitter Sunscreen; Australian Gold Kids SPF 50 Sunscreen; Australian Gold Mermaid SPF 50 Glitter Sunscreen; Australian Gold SPF 30; Australian Gold SPF 30 Sport Ultra Chill; Australian Gold SPF 30 Sunscreen; Australian Gold SPF 50 Sunscreen with Instant Bronzer; Australian Gold X-treme Sport SPF 30 C/S Sunscreen; Australian Gold little joey SPF 50; Avail Body with Sunscreen; Avail Facial Sunscreen SPF 25; Aveeno ABSOLUTELY AGELESS leave-on day mask Broad Spectrum SPF 30; Aveeno ACTIVE NATURALS absolutely ageless leave-on day mask Broad Spectrum SPF30; Aveeno ACTIVE NATURALS positively radiant sheer daily moisturizer Broad Spectrum SPF 30; Aveeno ACTIVE NATURALS protect Plus hydrate sunscreen BROAD SPECTRUM SPF30; Aveeno Absolutely Ageless Daily Moisturizer Broad Spectrum SPF30; Aveeno Absolutely Ageless Daily Moisturizer Sunscreen Broad Spectrum SPF30; Aveeno Active Naturals Ageless Vitality Rejuvenating Day Moisturizer SPF 30; Aveeno Active Naturals Clear Complexion BB Broad Spectrum SPF30 - Medium; Aveeno Active Naturals Clear Complexion BB Sunscreen Broad Spectrum SPF30 Fair to Light; Aveeno Active Naturals Hydrosport Sunblock SPF 50; Aveeno Active Naturals Hydrosport Sunblock SPF 85; Aveeno Active Naturals Hydrosport Sunblock SPF30; Aveeno Active Naturals Hydrosport Sunscreen Broad Spectrum SPF30; Aveeno Active Naturals Hydrosport Sunscreen Broad spectrum SPF30; Aveeno Active Naturals Hydrosport Sunscreen Lotion SPF 85; Aveeno Active Naturals Hydrosport Sunscreen Spray SPF 85; Aveeno Active Naturals Positively Ageless Correcting Tinted Moisturizer SPF30 Light to Medium; Aveeno Active Naturals Positively Ageless Correcting Tinted Moisturizer Sunscreen Broad Spectrum SPF30; Aveeno Active Naturals Positively Ageless Daily Antioxidant Defense Moisturizer SPF 42; Aveeno Active Naturals Positively Ageless Day; Aveeno Active Naturals Positively Ageless Multidefense Daily Moisturizer SPF 42; Aveeno Active Naturals Positively Ageless Youth Perfecting Moisturizer SPF 30; Aveeno Active Naturals Positively Ageless Youth Perfecting Moisturizer Sunscreen Broad Spectrum SPF30; Aveeno Active Naturals Positively Radiant Daily Moisturizer with sunscreen Broad Spectrum SPF30; Aveeno Active Naturals Positively Radiant Tinted Moisturizer - Fair to Light Sunscreen Broad Spectrum SPF30; Aveeno Active Naturals Positively Radiant Tinted Moisturizer - Medium Sunscreen Broad Spectrum SPF30; Aveeno Active Naturals Positively Radiant Tinted Moisturizer SPF 30 Fair/Light; Aveeno Active Naturals Positively Radiant Tinted Moisturizer SPF 30 Medium; Aveeno Active Naturals Protect + Hydrate SPF 30; Aveeno Active Naturals Protect + Hydrate SPF 45; Aveeno Active Naturals Protect + Hydrate SPF 60; Aveeno Active Naturals Protect Plus Hydrate Sunscreen Broad Spectrum SPF 70; Aveeno Active Naturals Protect Plus Hydrate Sunscreen Broad Spectrum SPF50 For Face; Aveeno Active Naturals Protect Plus Hydrate Sunscreen Broad Spectrum SPF50 for face; Aveeno Active Naturals Smart Essentials Daily Nourishing Moisturizer SPF 30; Aveeno Active Naturals Smart Essentials Daily Nourishing Moisturizer Sunscreen Broad Spectrum SPF30; Aveeno Active Naturals Sunscreen Lotion Face Spf60; Aveeno Active Naturals Sunscreen Lotion SPF 30; Aveeno Active Naturals Sunscreen Lotion SPF 45; Aveeno Active Naturals Sunscreen Lotion SPF 55; Aveeno Active Naturals Sunscreen Spray SPF 30; Aveeno Active Naturals Sunscreen Spray SPF 45; Aveeno Active Naturals Ultra-calming Daily Moisturizer SPF 30; Aveeno Baby Continuous Protection Sunscreen Broad Spectrum SPF55; Aveeno Baby Sunscreen Lotion SPF 55; Aveeno Clear Complexion Sheer Daily Moisturizer Sunscreen Broad Spectrum SPF 30; Aveeno Continuous Protection Face SPF100 Plus; Aveeno Continuous Protection SPF 30; Aveeno Continuous Protection SPF85; Aveeno Hydrosport Sunscreen Wet Skin Broad Spectrum SPF 30; Aveeno POSITIVELY RADIANT sheer daily moisturizer sunscreen BROAD SPECTRUM SPF 30; Aveeno PROTECT plus HYDRATE sunscreen BROAD SPECTRUM SPF 50 FOR FACE; Aveeno Positively Ageless Complete; Aveeno Positively Ageless Complete Anti Aging System; Aveeno Positively Ageless Daily Moisturizer SPF 30; Aveeno Positively Ageless Face SPF90; Aveeno Positively Ageless SPF55; Aveeno Positively Ageless SPF70; Aveeno Positively Radiant CC Broad Spectrum SPF30 - Fair to Light; Aveeno Positively Radiant CC Broad Spectrum SPF30 - Medium; Aveeno Positively Radiant Daily Moisturizer sunscreen Broad Spectrum SPF30; Aveeno Protect Plus Hydrate Sunscreen Broad Spectrum Body SPF 30; Aveeno Protect Plus Hydrate Sunscreen Broad Spectrum Body SPF 60; Aveeno Protect Plus Hydrate Sunscreen Broad Spectrum Face SPF 60; Aveeno Protect Plus Hydrate Sunscreen Broad Spectrum SPF 30; Aveeno Protect Plus Hydrate Sunscreen Broad Spectrum SPF 70; Aveeno Protect Plus Hydrate Sunscreen Broad Spectrum SPF30; Aveeno Protect Plus Hydrate Sunscreen Broad Spectrum SPF50; Aveeno Protect Plus Hydrate Sunscreen Broad Spectrum SPF70; Aveeno Protect Plus Refresh Sunscreen Broad Spectrum Body SPF 60; Aveeno Sunblock Spray SPF 30; Aveeno Sunblock Spray SPF 45; Aveeno Sunscreen Lotion Face SPF 30; Aveeno Sunscreen Lotion SPF 100; Aveeno Ultra-Calming Daily Moisturizer SPF 30; Avobenzone 3% Homosalate 10% Octisalate 5% Octocrylene 10%; Avobenzone, Homosalate, Octisalate, Octocrylene; Avobenzone, Homosalate, Octisalate, Octocrylene, Oxybenzone; Avon Elements Skin Revitalize Instant Radiance; Avon Elements Skin Revitalize Instant Radiance Lotion; Avon Elements Youth Restoring Multi-Purpose; Avon Nutra Effects Active Seed Complex Ageless Day Cream Broad Spectrum SPF 20 Sunscreen; Avon Nutra Effects Active Seed Complex Balance Day Cream Broad Spectrum SPF 15 Sunscreen; Avon Nutra Effects Active Seed Complex Hydration Day Cream Broad Spectrum SPF 15 Sunscreen; Avon Nutra Effects Active Seed Complex Radiance Day Cream Broad Spectrum SPF 20 Sunscreen; Avon Nutra Effects Ageless Day Cream; Avon Nutra Effects Balance Day Cream; Avon Nutra Effects Hydration Day Cream; Avon Nutra Effects Radiance Day Cream; Avon Solutions Beautifully Protected Daily Uv Moisturizer SPF 30; Avon Sun + Kids Technologie Derma Plus Technology Disappearing Potion Sunscreen Lotion; Avon Sun Age Defying SPF 30 Sunscreen Lotion; Avon Sun Baby SPF 40 Sunscreen Lotion; Avon Sun High Protection Kids Sunblock Lotion SPF 40; Avon Sun High Protection Sunblock Lotion SPF 40; Avon Sun Kids SPF 30 Disappearing Color Sunscreen Spray; Avon Sun Kids SPF 40 Disappearing Color Sunscreen Lotion; Avon Sun SPF 30 Sunscreen Lotion; Avon Sun SPF 40 Sunscreen Lotion; Avon Sun Sport Refresh Sunscreen; Avon Sun Sport SPF 30 Sunscreen Spray; Avon Sun Sunscreen; Avon Sun Sunscreen Face; BANILA CO Prime Primer Sun; BEAUTY BEFORE AGE AHAVA UPLIFT DAY broad spectrum SPF 20; BEYOND THE SHAVE For Men; BLI Holding Miami Beach kids spf 50; BLI Holdings MIAMI BEACH Kids spf 50; BODY DEFENCE SUNSCREEN Broad Spectrum SPF30; BULLFROG DEET FREE Mosquito Coast Sunscreen with Insect Repellent SPF 30; BULLFROG KIDS Sunscreen Broad Spectrum SPF 50 Plus; BULLFROG Marathon Mist Sunscreen Broad Spectrum SPF 36; BULLFROG Marathon Mist Sunscreen Broad Spectrum SPF 50; BULLFROG Water Armor SPORT 50 Plus InstaCool Sunscreen Broad Spectrum; Baby; Baby Broad Spectrum SPF 50 DG body; Baby Faces 45 SPF Sunscreen Spray; Baby Gentle Sunscreen SPF 50; Baby Sun Protection Lotion; Baby Sunscreen Broad Spectrum SPF 60 Lotion; Baby Sunscreen SPF 50; Baby Sunscreen SPF 50 tugaboos; Baby Sunstick SPF 55 CVS; Baby Tear Free Sans Larmes Sunscreen Spray Ecran Solaire En Vaporisateur Pour Bebes SPF/fps 50; Baby Tear Free Sans Larmes Sunscreen Écran Solaire Pour Bébés SPF Fps 50; Baby Tear Free/sans Larmes Sunscreen Lotion/lotion Écran Solaire Pour Bébés SPF Fps 60; Baby Tear Free/sans Larmes Sunscreen Spray/écran Solaire En Vaporisateur Pour Bebes SPF Fps 60; Bain De Soleil Oil-free Protecteur SPF-25; Bain de Soleil Transpare SPF 10; Bain de Soleil Transpare SPF 4; Balancing Emulsion With Green Tea; Bali Body Coconut Lip Balm SPF 15; Banana Boat; Banana Boat Aceite Bronceador Seco Tanning Dry SPF 6; Banana Boat Action Sport Sunblock Spray Gel SPF 25; Banana Boat Active Sport Sunblock Spray SPF 25; Banana Boat Aloe Vera Lip Balm Sunbl. Spf21; Banana Boat Aloe Vera Lip Balm Sunblock SPF 30; Banana Boat Baby Sin Lagrimas SPF 50 Pump; Banana Boat Baby Sunscreen Lotion SPF/fps 60; Banana Boat Baby Sunscreen Spray SPF/fps 60; Banana Boat Baby Tear Free Lotion SPF 50; Banana Boat Baby Tear Free Sunscreen SPF 60; Banana Boat Bite Block Sunblock SPF 30; Banana Boat Cool Colorz Vanishing Sunblock Spray; Banana Boat Cool Colouring Vanishing Sunblock Spf30 Lotion; Banana Boat Cool Colourz Groovy Grape Foaming Sunblock SPF 30; Banana Boat Dry Balance Clear Sunscreen Broad Spectrum SPF 30; Banana Boat Dry Balance Clear Sunscreen SPF 50; Banana Boat Everyday Glow; Banana Boat Faces Plus SPF 23; Banana Boat Funky Fruit - Lip Balm; Banana Boat Funky Fruit Lip Balm; Banana Boat Kids Free 50; Banana Boat Kids Free Continuous Spray Sunscreen SPF 50+; Banana Boat Kids Protect and Play SPF 85; Banana Boat Kids Quik Blok Spray SPF 25; Banana Boat Kids Sin Lagrimas Pump SPF 50; Banana Boat Kids Sunblock Spray Lotion SPF 48; Banana Boat Kids Sunblock Stick SPF 30; Banana Boat Kids Sunscreen Lotion SPF/fps 60; Banana Boat Kids Sunscreen Spray SPF/fps 60; Banana Boat Kids Tear Free Continuous SPF 50; Banana Boat Kids Tear Free Sunscreen SPF 60; Banana Boat Kids Tear-free Sunscreen Spray SPF 50+; Banana Boat Kids UltraMist Tear Free SPF 30; Banana Boat Light as air face SUNSCREEN UVA UVB Broad Spectrum SPF 50; Banana Boat Mens SPF 30; Banana Boat Mens SPF 50 Plus; Banana Boat Oil Free SPF 30; Banana Boat Protect and Hydrate SPF 30; Banana Boat Protect and Hydrate SPF 50 Plus; Banana Boat Protective Dry SPF 10; Banana Boat Quick Dry Spray SPF 15; Banana Boat Quick Dry Spray SPF 30; Banana Boat Quik Blok Kids Spray SPF 25; Banana Boat Quik Blok Oil Free Spray SPF 15; Banana Boat Quik Blok Spray SPF 25; Banana Boat Sensitive Skin Sunblock Spf30; Banana Boat Simply Protect Kids Sunscreen Lotion Spray SPF 50+; Banana Boat Simply Protect Sensitive Faces Visages Suncreen Lotion SPF 50 Plus; Banana Boat Simply Protect Sensitive Sunscreen Lotion SPF 50 Plus; Banana Boat Simply Protect Sport Sunscreen Lotion SPF 50+; Banana Boat Simply Protect Sport Sunscreen Spray SPF 50+; Banana Boat Sport Body and Scalp SPF 30; Banana Boat Sport Performance; Banana Boat Sport Performance Active Dry Protect SPF UVB 50; Banana Boat Sport Performance Active Dry protect; Banana Boat Sport Performance SPF 15; Banana Boat Sport Performance SPF 15 Canada; Banana Boat Sport Performance SPF 30 Canada; Banana Boat Sport Performance SPF 85; Banana Boat Sport Performance With Powerstay Technology Sunscreen Lotion SPF 30; Banana Boat Sport Performance With Powerstay Technology Sunscreen Lotion SPF/fps 60; Banana Boat Sport Performance With Powerstay Technology Sunscreen Spray SPF 30; Banana Boat Sport Performance With Powerstay Technology Sunscreen Spray SPF 50+; Banana Boat Sport SPF 30; Banana Boat Sport SPF 30 Lip Balm; Banana Boat Sport Sunblock Ecran Solaire Uva & Uvb SPF Fps 30; Banana Boat Sport Ultra Sunscreen Lip Balm Broad Spectrum SPF 40; Banana Boat Sport coolzone Clear Sunscreen Broad Spectrum SPF 30; Banana Boat Sport coolzone Clear Sunscreen Broad Spectrum SPF 50 Plus; Banana Boat Sport for Kids Sunscreen Stick SPF 50+; Banana Boat SunComfort SPF 30; Banana Boat Suncomfort Sunscreen Lotion SPF 30; Banana Boat Suncomfort Sunscreen Lotion SPF 50+; Banana Boat Suncomfort Sunscreen Spray SPF 30; Banana Boat Suncomfort Sunscreen Spray SPF 50+; Banana Boat Sunscreen Lotion SPF/fps 60; Banana Boat Sunscreen Spray SPF 30; Banana Boat Sunscreen Spray SPF 50+; Banana Boat Ultra Defence SPF 30 for UK; Banana Boat Ultra Defense; Banana Boat Ultra Defense Broad Spectrum; Banana Boat Ultra Defense Clear Sunscreen Broad Spectrum SPF 100; Banana Boat Ultra Defense SPF 30 Canada; Banana Boat Ultra Defense SPF 30 for LATAM; Banana Boat Ultra Defense SPF 85; Banana Boat Ultra Defense Sheer Protect; Banana Boat Ultra Defense Sheer Protect FPS 50 LATAM; Banana Boat Ultra Mist Kids FPS 60 LATAM; Banana Boat Ultra Plus Sunblock Spray Lotion SPF 48; Banana Boat Ultra Sport Clear Sunscreen Spray SPF 30; Banana Boat Ultra Sport Clear Sunscreen Spray SPF 50 Plus; Banana Boat Ultra Sport Faces Sunscreen Broad Spectrum SPF 30; Banana Boat Ultra Sport Sunscreen Broad Spectrum SPF 15; Banana Boat Ultra Sport Sunscreen Broad Spectrum SPF 30; Banana Boat Ultra Sport Sunscreen Broad Spectrum SPF 50; Banana Boat Ultra Sport Sunscreen Lotion SPF 30; Banana Boat Ultra Sport Sunscreen Lotion SPF 50+; Banana Boat Ultra Sport Sunscreen Stick SPF 50+; Banana Boat Ultra Sunblock Ecran Solaire Uva & Uvb SPF Fps 30; Banana Boat Ultra defense SPF 50 Canada; Banana Boat UltraMist Baby Tear Free Continuous SPF 50; Banana Boat UltraMist Kids SPF 50 Factor de Proteccion Solar 50; Banana Boat UltraMist Kids Tear Free Lotion SPF 50; Banana Boat Ultramist Sport Performance SPF 50; Banana Boat Vitamin E Lip Balm Sunblock SPF 30; Banana Boat for Men Triple Defense Continuous Spray Sunscreen SPF 30; Banana Boat for Men Triple Defense Continuous Spray Sunscreen SPF 50+; Banana Boat for Men Triple Defense Sunscreen Lotion SPF 30; Banana Boat for Men Triple Defense Sunscreen Lotion SPF 50+; Banana Boat simply protect Sport Mineral Enriched Sunscreen Broad Spectrum SPF 50; Banana Boat simply protect sensitive MINERAL ENRICHED SUNSCREEN UVA/UVB BROAD SPECTRUM SPF 50; Banana Boat simply protect sensitive Mineral Enriched Sunscreen Broad Spectrum SPF 50; Banana Boat simply protect sensitive faces Mineral Enriched Sunscreen Broad Spectrum SPF 50; Bare Republic Clearscreen SPF 30; Bare Republic Clearscreen SPF 50; Baxter of California Oil Free Moisturizer Broad Spectrum SPF 15 Sunscreen; Bb Anti-fatigue Absolute SPF 25; Bb Cream Sunscreen SPF 30; Bb Dark; Bb Fair; Bb Light; Bb Medium; Beach Defense Kids; Beach Defense Kids SPF 60; Beach Defense SPF 30; Beach Defense SPF 30 Sunscreen Spray; Beach Defense SPF 60; Beach Defense SPF 60 Sunscreen Lotion; Beach Dream Glittery Sunscreen SPF 30; Beach Dream Glittery Sunscreen SPF 50; Beach Dream Sunscreen SPF 30; Beach Dream Sunscreen SPF 50; Beauty 360 Accelerated Wrinkle Repair Moisturizer; Beauty Dynamics SPF 15 Daily Eye Treatment; Beeswax Lip Balm SPF 30 Vertra; Beeswax SPF 30 Broad Spectrum Lip Balm; Being True Essentials Absolutely Radiant; Bellagio Childrens Sunscreen SPF 45; Bellagio Sunscreen SPF 30; Bellagio Sunscreen SPF 45; Benefiance Wrinkle Smoothing Day Cream; Benefit Weightless Moisture Face Moisturizer Broad Spectrum SPF 15 Sunscreen; Best Blend Forever Makeup; Best Choice absolute Daily Moisturizing Broad Spectrum SPF 15 Sunscreen; Bienfait Uv SPF 50; Big Cloud Defend Daily Face Moisturizer Broad Spectrum SPF30; Big Cloud Defend Hybrid Formula with Zinc; Big Cloud Sky Master Lip Balm SPF 15; Big V Baby Sunblock SPF 30 Lot; Big V Sunblock Lotion 30 SPF; Bilboa Capri Sunscreen SPF 30; Bilboa Capri Sunscreen SPF 50 Plus; Bilboa Kids Sunscreen SPF 50 Plus; Biocorneum Plus Broad Spectrum SPF 30 Advanced Scar Treatment; Bioelements FaceScreen; Bioelements, Inc. SPF 50 FaceScreen; Biosun Professional Sun Protection Oil Free Gel SPF 30; Biosun Professional Sun Protection Oil Free Spray SPF 25; Biovi Total Beauty; Black Girl Sunscreen SPF 50 broad Spectrum; Black Girl Sunscreen Sunscreen SPF 30 broad Spectrum; Black Radiance True Complexion BB Cream SPF 15; Blistex Advanced Care (Blistex Medicated Balm, Blistex Complete Moisture, Blistex Five Star Lip Balm - Broad Spectrum, Blistex Superfruit Soother); Blistex Clear Advance Lip Protectant; Blistex Complete Care (Blistex Lip Medex, Blistex Medicated Lip, Blistex Five Star Lip Protection Broad Spectrum, and Blistex Complete Moisture); Blistex FIVE STAR; Blistex Five Star Lip Protection Broad Spectrum; Blistex Ultra Lip Balm; Block-UP Oil Free 45 SPF; Blumingo Anti-aging Am SPF-30 Sunscreen; Bobbi Brown Beach Sport Stick for Face SPF 20; Bobbi Brown Beach Sunscreen for Face SPF 25; Bobbi Brown Brightening Protective Face Base Uv SPF 50; Bobbi Brown Extra Moisturizing Balm SPF 25; Bobbi Brown Extra Repair Foundation Broad Spectrum SPF 25; Bobbi Brown Extra Repair Moisturizing Balm SPF 25; Bobbi Brown Extra SPF 25 Moisturizing Balm; Bobbi Brown Extra SPF 25 Tinted Broad Spectrum Moisturizing Balm; Bobbi Brown Extra SPF 25 Tinted Moisturizing Balm; Bobbi Brown Extra Tinted Moisturizing Balm SPF 25; Bobbi Brown Oil Control Lotion SPF 15; Bobbi Brown Primer Plus Protection SPF 50; Bobbi Brown SPF 50 Protective Face Base Broad Spectrum; Body Glow Sunscreen SPF 20; Body Mist SPF 55 Wegman; Bondi Sands Fragrance Free SPF 30 Sunscreen; Bondi Sands Fragrance Free SPF 50 Sunscreen; Bondi Sands Toasted Coconut Lip Balm with SPF 50 Sunscreen; Borba Age Defying Daily Hydrator SPF 30 Plus; Borba Age Defying Super Creme SPF 100 plus; Borghese Radiante Brightening Hand Creme; Botanical Effects Hydrate & Protect Broad Spectrum Sunscreen SPF 30; Botanical Effects Moisturizer SPF 30; Bravo Sierra USA Face Sunscreen Broad Spectrum SPF 30; Bright Boost Moisturizer SPF 30; Bright Guard Water-Resistant SPF-30 Sunscreen; Brightening Daily Protector Broad Spectrum; Brighter By Nature SPF 35 Skin Tone Correcting Moisturizer; Brighter By Nature SPF 35 Skin Tone Correcting Moisturizer Broad Spectrum; Britto Body Sunscreen Broad Spectrum SPF 50; Britto Facial Sunscreen Broad Spectrum SPF 50; Broad Spectrum 30 SPF Fps Sunscreen Lotion; Broad Spectrum 50 SPF Fps Sunscreen Lotion; Broad Spectrum SPF 15 CVS; Broad Spectrum SPF 15 Daily Eye Treat Jafra; Broad Spectrum SPF 15 Lotion; Broad Spectrum SPF 15 Preferred Plus Pharmacy; Broad Spectrum SPF 20 Sunscreen; Broad Spectrum SPF 30 Booster Drops; Broad Spectrum SPF 30 Fps; Broad Spectrum SPF 30 Preferred Plus Pharmacy; Broad Spectrum SPF 30 Sport Sunscreen Continuous Spray; Broad Spectrum SPF 30 Sun Stick; Broad Spectrum SPF 30 Sunscreen Continuous Spray; Broad Spectrum SPF 30 Sunscreen Preferred Plus Pharmacy; Broad Spectrum SPF 30 Tropical Sunscreen; Broad Spectrum SPF 30 Ultrathon; Broad Spectrum SPF 50 Baby Sunscreen Preferred Plus Pharmacy; Broad Spectrum SPF 50 CVS; Broad Spectrum SPF 50 CareOne; Broad Spectrum SPF 50 Daylogic; Broad Spectrum SPF 50 Kids Preferred Plus Pharmacy; Broad Spectrum SPF 50 Lotion; Broad Spectrum SPF 50 Sunscreen Bioelements; Broad Spectrum SPF 50 Sunscreen Preferred Plus Pharmacy; Broad Spectrum SPF 50+ Sunscreen; Broad Spectrum SPF 70 CVS; Broad Spectrum SPF 70 Sunscreen Preferred Plus Pharmacy; Broad Spectrum SPF Fps 50; Broad Spectrum SPF/fps 30; Broad Spectrum SPF/fps 50; Brume Solaire; Bull Frog Insta-Cool Mist 50; Bull Frog Kids Continuous Spray Sunscreen Broad Spectrum SPF 50+; Bull Frog Kids Mist 50; Bull Frog Kids Sunscreen 35; Bull Frog Marathon Mist 36; Bull Frog Marathon Mist 50; Bull Frog Marathon Mist Continuous Spray Sunscreen Broad Spectrum SPF 36; Bull Frog Marathon Mist Continuous Spray Sunscreen Broad Spectrum SPF 50; Bull Frog Mosquito Coast Broad Spectrum Cspray w fragrance SPF 50; Bull Frog Mosquito Coast SPL 50 Pump; Bull Frog Water Armor Sport 50; Bull Frog Water Armor Sport Quick Gel Sunscreen Broad Spectrum SPF 50; Bull Frog Water Armor Sport Quick Spray Sunscreen Broad Spectrum SPF 50; Bull Frog Water Armor Sport Quik 50; Bull Frog Water Armor Sport SPF 50+; BullFrog Land Sport SPF 50 Quik; BullFrog Quik; BullFrog Quik Gel Sport; BullFrog SPF 50 Land Sport Quik Gel Sunscreen; BullFrog SPF50 Land Sport C-Spray; BullFrog SPF50 Land Sport Quik; BullFrog SPF50 Water Sport; BullFrog SPF50 Water Sport C-Spray; BullFrog Ultimate Sheer Protection Face; CARDINAL HEALTH LEADER SPF 50 General Protection Sunscreen; CARDINAL HEALTH LEADER SPF30 General Protection Sunscreen; CARMEX Lime twist BROAD SPECTRUM SPF 15 SUNSCREEN; CARMEX Pomegranate BROAD SPECTRUM SPF 15 SUNSCREEN; CARMEX Vanilla BROAD SPECTRUM SPF 15 SUNSCREEN; CARMEX cherry lip balm BROAD SPECTRUM SPF 15 SUNSCREEN; CARMEX moisture Plus Ultra Hydrating Lip Balm Broad Spectrum SPF 15 Sunscreen; CARMEX original lip balm BROAD SPECTRUM SPF 15 SUNSCREEN; CARMEX strawberry lip balm BROAD SPECTRUM SPF 15 SUNSCREEN; CC Cream Broad Spectrum SPF 30 Merle Norman; CC Creme Concealer Broad Spectrum SPF 20 Jafra; CIZAR Aqua Sun; CLARINS - EXTRA-FIRMING JOUR SPF 15 - Wrinkle, Firming Day all skin types - Broad Spectrum SPF 15 Sunscreen; CLARINS BROAD SPECTRUM SPF 15 - Sunscreen Multi-Active Day Early wrinkle correcting; CLARINS BROAD SPECTRUM SPF 30 Dry Touch Facial Sunscreen Enriched with antioxidants Prevents sun induced age spots; CLARINS BROAD SPECTRUM SPF 30 Sunscreen Body Hydration, Comfort; CLARINS BROAD SPECTRUM SPF 30 Sunscreen Care; CLARINS BROAD SPECTRUM SPF 50 Dry Touch Facial Sunscreen Enriched with antioxidants Prevents sun induced age spots; CLARINS BROAD SPECTRUM SPF 50 Plus - SUNSCREEN CARE MILK; CLARINS BROAD SPECTRUM SPF 50 Plus - SUNSCREEN FOR FACE WRINKLE CONTROL; CLARINS BROAD SPECTRUM SPF 50 Sunscreen Body Hydration, comfort; CLARINS Broad Spectrum SPF 15 Sunscreen Care For Outdoor Sports; CLARINS Broad Spectrum SPF 15 Sunscreen Extra Firming Day Wrinkle Lifting; CLARINS Broad Spectrum SPF 30 Sunscreen For Face Wrinkle Control; CLARINS HYDRA-ESSENTIEL SPF 15 Broad Spectrum SPF 15 Sun Screen; CLARINS HydraQuench Normal to Combination Skin Broad Spectrum SPF 15 Sunscreen; CLARINS HydraQuench Normal to Dry Skin Broad Spectrum SPF 15 Sunscreen; CLARINS Super Restorative Day Illuminating lifting replenishing BROAD SPECTRUM - SPF 20 - Sunscreen; CLARINS UV PLUS ANTI-POLLUTION BROAD SPECTRUM SPF 50 NON-TINTED Sunscreen Multi-Protection; CLARINS UV PLUS ANTI-POLLUTION SUNSCREEN MULTI-PROTECTION BROAD SPECTRUM SPF 50 Oil-Free -DEEP; CLARINS UV PLUS ANTI-POLLUTION SUNSCREEN MULTI-PROTECTION BROAD SPECTRUM SPF 50 Oil-Free -LIGHT; CLEMATIS Morning Dew CC; CLINIQUE SPF 15 with SOLAR SMART ADVANCED PROTECTION; CLINIQUE SPF 30 ADVANCED PROTECTION BODY CREAM with SOLAR SMART; CLINIQUE SPF 30 with SOLAR SMART; CLINIQUE SPF 50 with SOLAR SMART ADVANCED PROTECTION; COOLA CLASSIC BODY SUNSCREEN Guava Mango Broad Spectrum SPF 50; COOLA CLASSIC FACE SUNSCREEN Cucumber Broad Spectrum SPF 30; COOLA CLASSIC FACE SUNSCREEN White Tea Broad Spectrum SPF 50; COOLA Classic Body Sunscreen Fragrance-Free SPF 50; COOLA Classic Body Sunscreen Guava Mango SPF 50; COOLA Classic Body Sunscreen Pina Colada SPF 30; COOLA Classic Body Sunscreen Tropical Coconut SPF 30; COOLA Classic Face Sunscreen Cucumber SPF 30; COOLA Classic Face Sunscreen Fragrance-Free SPF 50; COOLA Classic Face Sunscreen White Tea SPF 50; COOLA Full Spectrum 360 Sun Silk Drops SPF 30; COOLA Refreshing Water Mist Sunscreen SPF 30; CRC Sunscreen Towel CRC; CRème Hydra Finish Cream CRème Hydratation Révélatrice De Teint Fps 15 Large Spectre Visage Moisturizing Complexion Enhacing Cream SPF 15 Broad Spectrum Face; CRème Solaire Anti-rides Visage SPF 15; CRème Solaire Anti-rides Visage SPF 30; CRème Solaire Corps Fps 30; CRème Solaire Spécial Visage SPF 50; CRème Solaire Très Haute Protection SPF 30; CRème Solaire Visage Face Sunscreen; CRème Solaire Visage Toucher Sec Fps 30; CRème Solaire Visage Toucher Sec Fps 50+; CVS Clear Face SPF 30 3 oz; CVS Health AM Moisturizing Facial; CVS Health Age Defense SPF 70 Face; CVS Health Baby SPF 50; CVS Health Childrens SPF 70 Plus Wet and Dry; CVS Health SPF 100 Clear; CVS Health SPF 100 Ultra Sheer; CVS Health SPF 15 Clear; CVS Health SPF 30 Clear; CVS Health SPF 30 Coconut Scented Clear; CVS Health SPF 30 Oil Free Sun; CVS Health SPF 30 Sheer Mist; CVS Health SPF 30 Ultra Sheer; CVS Health SPF 45 Sheer Mist; CVS Health SPF 45 Ultra Sheer; CVS Health SPF 50 Clear; CVS Health SPF 50 Coconut Scented Clear; CVS Health SPF 50 Sun; CVS Health SPF 55 Clear Face; CVS Health SPF 55 Ultra Sheer; CVS Health SPF 70 Beach Guard Sun; CVS Health SPF 70 Clear; CVS Health SPF 70 Sheer Mist; CVS Health SPF 70 Sun; CVS Health SPF 70 Ultra Sheer; CVS Health SPF 85 Wet and Dry; CVS Health Sport SPF 100 Clear; CVS Health Sport SPF 100 Plus Clear; CVS Health Sport SPF 15 Clear; CVS Health Sport SPF 30; CVS Health Sport SPF 30 Clear; CVS Health Sport SPF 50 Clear; CVS Health Sport SPF 50 Face; CVS Health Sport SPF 50 Sun; CVS Health Sport SPF 70 Clear; CVS Health Ultra Protection SPF 100; CVS Health Ultra Protection SPF 30; CVS Health Ultra Protection SPF 50; CVS Health Ultra Protection SPF 70; CVS Pharmacy Beauty 360 SPF 15 7-in-1 Complete Daily Moisturizer; CVS Pharmacy Kids SPF 50 Clear; CVS Pharmacy Kids SPF 70 Clear; CVS Pharmacy Oil Free Faces SPF 30; CVS Pharmacy Oil Free SPF 30; CVS Pharmacy SPF 30; CVS Pharmacy SPF 30 Beach Guard Clear; CVS Pharmacy SPF 30 Beach Guard Sun; CVS Pharmacy SPF 30 Wet and Dry; CVS Pharmacy SPF 50 Beach Guard Sun; CVS Pharmacy SPF 70 Beach Guard Clear; CVS SPF 30 Sport; CVS Sheer SFP 30; CVS Sport; California Aloe Aqua Sun; California Aloe Daily Sun Block; California Aloe Fresh Pow Dery Sun; California Aloe Mild Sun Block; California Aloe Sun; California Tan BROAD SPECTRUM SPF 30; California Tan BROAD SPECTRUM SPF 45; California Tan Continuous Sunscreen Broad Spectrum SPF 30; California Tan SPF 30 BROAD SPECTRUM Sunscreen; California Tan SPF 30 Sunscreen; California Tan SPF 45 Face Sunscreen; California Tan SPF 45 Sunscreen; Capital Lumiere Jour SPF 15; Cardinal Health Leader Baby Sunscreen SPF 50; Cardinal Health Leader General Protection SPF 70 Sunscreen; Cardinal Health Leader General Protection Sunscreen SPF 30; Cardinal Health Leader General Protection Sunscreen SPF 50; Cardinal Health Leader Kids Sunscreen SPF 50; Cardinal Health Leader SPF 30 General Protection Sunscreen Clear Continuous; Cardinal Health Leader SPF 30 Sport Sunscreen Clear Continuous; Cardinal Health Leader SPF 50 Kids Sunscreen Clear Continuous; Cardinal Health Leader SPF 70 General Protection Sunscreen Clear Continuous; Cardinal Health Leader Sport Sunscreen SPF 30; Cardon; CareOne Daily Moisturizer Broad Spectrum SPF15 Sunscreen; Carecella Daily Sun Cream; Careline Skin Guard Invisible SPF 50; Careline Skin Guard Kids Invisible SPF 50; Careline Skin Guard SPF 30; Carnival Adventures 30 Sport Sunscreen; Carnival Adventures Sport Sunscreen Broad Spectrum SPF 50; Carols Daughter Monoi Sunscreen Broad Spectrum SPF 30; Castor and Shea SPF Body; Castor and Shea SPF Face; Cc CRème Color Complexion Correction Broad Spectrum SPF 40; Cc Cream Broad Spectrum SPF 30; Cc Cream Broad Spectrum SPF 40; Celazome Moisturizing Sunscreen with SPF 30; Celazome Mositurizing Sunscreen with SPF 29; Celazome SPF 29; Celazome SPF 30; Cell Fusion C Laser Sunscreen; Celltrion Uv Perfection Always Sun; Cellular Laboratories De-Aging Sunscreen Broad Spectrum SPF 50 Plus; Celonia Signature Bio Tone Up Sun Block; CeraVe AM BROAD SPECTRUM SUNSCREEN SPF 30; CeraVe AM Facial Moisturizing Broad Spectrum SPF 30 Sunscreen; CeraVe AM Sunscreen Broad Spectrum 30 SPF; CeraVe Developed with Dermatologists Healing Lip Balm Broad Spectrum SPF 30 Sunscreen; CeraVe Developed with Dermotologists Ultra Light Moisturizing Broad Spectrum SPF 30; CeraVe Kids Sunscreen Broad Spectrum SPF 50 WET SKIN; CeraVe Sunscreen Broad Spectrum SPF 30 BODY; CeraVe Sunscreen Broad Spectrum SPF 30 FACE; CeraVe Sunscreen Broad Spectrum SPF 30 WET SKIN; CeraVe Sunscreen Broad Spectrum SPF 50 WET SKIN; Cerave; Cetaphil Daily Facial Moisturizer with suncreen SPF 35; ChapStick Active Sport Ready; Chapstick Lipshield 365; Children's Sunblock Lot SPF 30; Childrens Sunstick SPF 55 CVS; Chuda; Cicatricure Aqua Defense Day With SPF; Cicatricure Brightening Face With SPF; Cicatricure Gold Day With SPF; City Miracle Cc Cream SPF 50; City Sunscreen Serum SPF 30 Doctor Ts Super goop; City Sunscreen serum Broad Spectrum SPF 30 Supergoop; Clarins Broad Spectrum SPF 15 - Sunscreen for Face Wrinkle Control; Clarins Broad Spectrum SPF 15 Sunscreen Care For Outdoor Sports; Clarins Broad Spectrum SPF 20 - Sunscreen Care; Clarins Broad Spectrum SPF 20 - Sunscreen Care Milk; Clarins Broad Spectrum SPF 30 - Sunscreen Care; Clarins Broad Spectrum SPF 30 Sunscreen Care; Clarins Extra-Firming Day Wrinkle Lifting SPF 15; Clarins Sunscreen Care Milk- SPF 50 Plus; Clarins Sunscreen For Face Wrinkle Control SPF 50 PLUS; Clarins Sunscreen Progressive Tanning SPF 15; Clarins Super Restorative Day Broad Spectrum SPF 20 Sunscreen; Clarins UV PLUS ANTI-POLLUTION B.S. SPF 50, Sunscreen Multi-Protection Tint Medium; Clarins Vital Light Day SPF 15; Clarisonic Mia 2 Facial Sonic Cleansing Brush with Supergoop Sun Essentials; Clean Fresh Sunblock Sunscreen SPF 30 Continuous; Clear Complexion Bb Cream; Clear Complexion Bb Cream SPF 30 Medium; Clear Complexion Sheer Daily Moisturizer; Clear Cover Invisible Sunscreen Broad Spectrum SPF 30; Clear Face; Clear Face Sunscreen Lotion; Clear SPF 30 Face Sunscreen Wegmans; Clear SPF 30 Sunscreen Spray; Clear Smart Shine Control Sunscreen Broad Spectrum SPF 25; Clear Stick Uv Protector; Clear Sunscreen SPF 30 Broad Spectrum; Clearing Defense SPF 30; Clematis Hydro Protective Uv Sun Essence; Climatik SPF 30 Fps Protective Cream CRème Protectrice; Climatik SPF 30 Fps Protective Lotion Lotion Protectrice; Clinique Broad Spectrum SPF 30 Sunscreen Body Mist; Clinique Broad Spectrum SPF 30 Sunscreen Body With Solar Smart; Clinique Broad Spectrum SPF 30 Sunscreen Face With Solar Smart; Clinique Broad Spectrum SPF 50 Sunscreen Body With Solar Smart; Clinique Broad Spectrum SPF 50 Sunscreen Face With Solar Smart; Clinique Even Better Hand Cream SPF 15; Clinique Face Zone Sun Block 30 SPF; Clinique SPF 15 Face/body Cream; Clinique SPF 30 Body Cream; Clinique SPF 30 Face Cream; Clinique SPF 30 Sheer Body Mist; Clinique SPF 45 Targeted Protection Stick; Clinique SPF 50 Body Cream; Clinique SPF 50 Face Cream; Clinique Sun-care Body Gel 15 SPF Sunscreen; Clinique Sun-care Body Spray 15 SPF Sun Block; Clinique Sun-care Body Spray 30 SPF Sun Block; Clinique Sun-care Lip/eye 30 SPF Sun Block; Clinique Sun-care Uv-response Body Cream 30 SPF Sunscreen; Clinique Sun-care Uv-response Body Cream 50 SPF Sunscreen; Clinique Sun-care Uv-response Face Cream 30 SPF Sunscreen; Clinique Sun-care Uv-response Face Cream 50 SPF Sunscreen; Clinique Targeted Protection SPF 45 Broad Spectrum Sunscreen; Clinique Youth Surge SPF 15 Age Decelerating Moisturizer Very Dry/dry; Cocooil SPF50; Collagen Boost Moisturizer SPF 25; Complete + Care & Protect (80 Minutes) Water / Sweat Resistant Lotion SPF 30; Complete + Care & Protect (80 Minutes) Water / Sweat Resistant Lotion SPF 50+; Complete Advanced (80 Minutes) Water / Sweat Resistant Lotion SPF 30; Complete Advanced (80 Minutes) Water / Sweat Resistant Lotion SPF 50+; Complete Advanced [80 Minutes] Water/sweat Resistant Lotion SPF 60; Complete Dry Mist Spray Hypoallergenic Uva + Uvb SPF 30; Complete Dry Mist Spray Hypoallergenic Uva + Uvb SPF 60; Complete Lightweight Lotion SPF 15; Complete Lightweight Lotion SPF 45; Complete Sensitive Advanced (80 Minutes) Water / Sweat Resistant SPF 50+; Complete Sensitive Advanced [80 Minutes] Water/sweat Resistant Lotion SPF 60; Complete* Dry Touch; Complete* Dry Touch Sunscreen/écran Solaire; Complete+ Care & Protect [80 Minutes] Water/sweat Resistant Lotion SPF 60; Concept II SolScents Broad Spectrum SPF 30 Angelica; Concept II SolScents Broad Spectrum SPF 30 Cucumber Melon; Concept II SolScents Broad Spectrum SPF 30 Deep Love; Concept II SolScents Broad Spectrum SPF 50 Flower Blast; Concept II SolScents Broad Spectrum SPF 50 Raspberry Dreams; Continuous Hydration SPF 25; Continuous Spray SPF/fps 70; Continuous Spray Sheer Mist SPF 30; Continuous Spray Sunscreen Sun Bum Broad Spectrum SPF 15; Continuous Spray Sunscreen Sun Bum Broad Spectrum SPF 30; Continuous Spray Sunscreen Sun Bum Broad Spectrum SPF 50; Cool Sport SPF 50; Coola Makeup Setting Spray Green Tea Scent; Cooldry Sport SPF 30; Cooldry Sport SPF 30 Sunscreen Spray; Cooldry Sport SPF 60; Cooldry Sport SPF 60 Sunscreen Spray; Cooldry Sport Sunscreen Spray SPF 100; Coolzone Instantly Cools & Refreshes Rafraîchit Instantanément Sunscreen Lotion Lotion Écran Solaire SPF/fps 30; Coolzone Instantly Cools & Refreshes Rafraîchit Instantanément Sunscreen Lotion Lotion Écran Solaire SPF/fps 50; Copperstone Water Babies Pure and Simple Whipped Sunscreen Broad Spectrum SPF 50 SPF 50; Coppertone 2 Dark Tanning Oil Spf2; Coppertone Bug & Sun Block SPF 15; Coppertone Clear Blue Sunscreen; Coppertone Clear Continuous Spray Sunscreen SPF 50; Coppertone Clear Orange Sunscreen; Coppertone Clear Sunscreen SPF 30 Sport; Coppertone Clear Sunscreen SPF 50 Sport; Coppertone Clearly Sheer Faces SPF 50; Coppertone Clearly Sheer For Beach and Pool SPF 50 Plus; Coppertone Clearly Sheer For Beach and Pool SPF 50 Plus Face; Coppertone Clearly Sheer For Sunny Days SPF 15; Coppertone Clearly Sheer For Sunny Days SPF 30; Coppertone Clearly Sheer For Sunny Days SPF 30 Face; Coppertone Clearly Sheer SPF 30; Coppertone Clearly Sheer SPF 50; Coppertone Clearly Sheer Whipped SPF 30; Coppertone Clearly Sheer Whipped SPF 50; Coppertone Clearly Sheer Whipped Sunscreen Broad Spectrum SPF 30 SPF 50; Coppertone Clearly Sheer Whipped Sunscreen Broad Spectrum SPF 50 SPF 50; Coppertone Clearly Sher Faces SPF 30; Coppertone Continuous Spray Sunscreen SPF 30; Coppertone Defend and Care Face Oil Free SPF 30; Coppertone Defend and Care Face Oil Free SPF 50; Coppertone Defend and Care Face SPF 50; Coppertone Defend and Care Face Sunscreen SPF 50; Coppertone Defend and Care Ultra Hydrate SPF 50; Coppertone Defend and Care Ultra Hydrate Whipped SPF 30; Coppertone Defend and Care Ultra Hydrate Whipped SPF 50; Coppertone Defend and Care Ultra Hydrating SPF 50; Coppertone Dry Oil Mist Sunscreen Continuous Spray SPF 10; Coppertone Dry Oil Sunscreen Spray SPF 8; Coppertone Dry SPF 10; Coppertone General Protection Sunscreen Lotion SPF 60; Coppertone Glow Hydragel SPF 50; Coppertone Glow Hydragel Sunscreen SPF 30; Coppertone Glow Suncreen SPF 30; Coppertone Glow Sunscreen SPF 15; Coppertone Glow Sunscreen SPF 30; Coppertone Glow Sunscreen SPF 50; Coppertone KIDS SPF 30; Coppertone KIDS SPF 50; Coppertone KIDS SPF 55; Coppertone Kids - SPF 40 Lot Top; Coppertone Kids Clear SPF 50; Coppertone Kids Clear Sparkle SPF 50; Coppertone Kids Colorblok Lotion SPF 30; Coppertone Kids Colorblok Spf30; Coppertone Kids Colorblok Spray SPF 30; Coppertone Kids Continuous Spray SPF 60; Coppertone Kids Continuous Spray Sunscreen SPF 50; Coppertone Kids Glitter Lotion SPF 30; Coppertone Kids Lotion SPF 30; Coppertone Kids SPF 15 Sunblock Lotion; Coppertone Kids SPF 30 - Lot; Coppertone Kids SPF 40 - Lot; Coppertone Kids SPF 50; Coppertone Kids SPF 70 Plus; Coppertone Kids Sport SPF 100; Coppertone Kids Sport SPF 50; Coppertone Kids Spray Lotion SPF 30; Coppertone Kids Spray'n Play SPF 30; Coppertone Kids Sunblock Lotion Spray SPF 30; Coppertone Kids Sunscreen Lotion SPF 60; Coppertone Kids Sunscreen Mousse SPF 60; Coppertone Kids Sunscreen SPF 50; Coppertone Kids Sunscreen SPF 70; Coppertone Kids Sunscreen Stick SPF 55; Coppertone Kids Wet Protect SPF 50; Coppertone Kids Wet'n Clear Sunscreen Continuous Spray SPF 50; Coppertone Lotion Spray SPF 30; Coppertone Lotion Sunscreen SPF 15 Glow; Coppertone Lotion Sunscreen SPF 15 Sun Guard; Coppertone Lotion Sunscreen SPF 30 Glow; Coppertone Lotion Sunscreen SPF 30 Sport; Coppertone Lotion Sunscreen SPF 30 Sun Guard; Coppertone Lotion Sunscreen SPF 50 Defend & Care; Coppertone Lotion Sunscreen SPF 50 Defend & Care Face; Coppertone Lotion Sunscreen SPF 50 Glow; Coppertone Lotion Sunscreen SPF 50 Kids; Coppertone Lotion Sunscreen SPF 50 Sport; Coppertone Lotion Sunscreen SPF 50 Sun Guard; Coppertone Lotion Sunscreen SPF 50 Waterbabies; Coppertone Mist SPF 4; Coppertone Mousse Sunscreen SPF 50 Defend & Care; Coppertone Mousse Sunscreen SPF 50 Waterbabies; Coppertone Oil Free Continuous Spray SPF 50 Sunscreen; Coppertone Oil Free Faces SPF 50 Plus; Coppertone Oil Free Faces SPF-30; Coppertone Oil Free Faces Sunscreen Lotion SPF 60; Coppertone Oil Free Lotion SPF 30; Coppertone Oil Free Lotion SPF 45; Coppertone Oil Free Lotion SPF-30; Coppertone Oil Free Lotion SPF-45; Coppertone Oil Free Sunscreen Lotion SPF 30; Coppertone Oil Free Sunscreen Mousse SPF 60; Coppertone Radiance - Spf15 - Lot Top; Coppertone Radiance SPF 15 - Lot; Coppertone SPF 15; Coppertone SPORT PRO SERIES SPF 15; Coppertone SPORT PRO SERIES SPF 30; Coppertone SPORT PRO SERIES SPF 50; Coppertone SPORT SPF 30; Coppertone SPORT SPF 50; Coppertone SPORT SPF 90; Coppertone SPORT Sunscreen Faces SPF 50; Coppertone SPORT Sunscreen SPF 100PLUS; Coppertone SPORT Sunscreen SPF 30; Coppertone SPORT Sunscreen SPF 50; Coppertone SPORT Sunscreen SPF 80; Coppertone Spectra 3 Babies Lotion SPF 50; Coppertone Spectra 3 Kids Lotion SPF 50; Coppertone Spectra 3 Lotion SPF 30; Coppertone Spectra 3 Lotion SPF 50; Coppertone Spectra SPF 30; Coppertone Sport AccuSpray SPF 15; Coppertone Sport AccuSpray SPF 30; Coppertone Sport AccuSpray SPF 70; Coppertone Sport Clear Continuous Spray Sunscreen SPF 50; Coppertone Sport Clear SPF 30; Coppertone Sport Clear SPF 50; Coppertone Sport Continuous SPF 100 Plus; Coppertone Sport Continuous Spray SPF 15 Accuspray Sunscreen; Coppertone Sport Continuous Spray SPF 30 Accuspray Sunscreen; Coppertone Sport Continuous Spray SPF 50+ Accuspray Sunscreen; Coppertone Sport Continuous Spray Sunscreen SPF 15; Coppertone Sport Continuous Spray Sunscreen SPF 30; Coppertone Sport Free SPF 50; Coppertone Sport High Performance Faces SPF 50; Coppertone Sport High Performance SPF 30; Coppertone Sport High Performance SPF 50; Coppertone Sport Lip Balm SPF 50; Coppertone Sport Lotion SPF 30; Coppertone Sport Lotion SPF-30; Coppertone Sport Lotion Sunscreen SPF 15; Coppertone Sport Pro Series Sunscreen Continuous Spray SPF 30; Coppertone Sport Pro Series Sunscreen Continuous Spray SPF 50+; Coppertone Sport SPF 100; Coppertone Sport SPF 100 plus; Coppertone Sport SPF 15; Coppertone Sport SPF 30; Coppertone Sport SPF 50; Coppertone Sport SPF 55; Coppertone Sport SPF 70; Coppertone Sport SPF 75; Coppertone Sport SPF 80; Coppertone Sport Spray SPF 15; Coppertone Sport Spray SPF 30; Coppertone Sport Sunblock Stick SPF 30; Coppertone Sport Sunscreen Lotion Face SPF 50; Coppertone Sport Sunscreen Lotion Face SPF 60; Coppertone Sport Sunscreen Lotion SPF 15; Coppertone Sport Sunscreen Lotion SPF 30; Coppertone Sport Sunscreen Lotion SPF 50; Coppertone Sport Sunscreen Lotion SPF 60; Coppertone Sport Sunscreen SPF 30; Coppertone Sport Sunscreen Stick; Coppertone Sport Sunscreen Stick SPF 55; Coppertone Sport Wet Protect SPF 30; Coppertone Spray SPF 15; Coppertone Spray SPF 30; Coppertone Spray Sunscreen SPF 30 Sport; Coppertone Spray Sunscreen SPF 30 Sun Guard; Coppertone Spray Sunscreen SPF 50 Defend & Care; Coppertone Spray Sunscreen SPF 50 Kids; Coppertone Spray Sunscreen SPF 50 Sport; Coppertone Spray Sunscreen SPF 50 Sun Guard; Coppertone Sunblock Lotion SPF 45; Coppertone Sunblock Lotion Spf30; Coppertone Sunscreen Continuous Spray SPF 15; Coppertone Sunscreen Continuous Spray SPF 30; Coppertone Sunscreen Continuous Spray SPF 50+; Coppertone Sunscreen Dry Oil Continuous Spray SPF 4; Coppertone Sunscreen Lotion Clearlysheer Face SPF 30; Coppertone Sunscreen Lotion Clearlysheer Face SPF 50; Coppertone Sunscreen Lotion Clearlysheer SPF 30; Coppertone Sunscreen Lotion Face Oil Free SPF 30; Coppertone Sunscreen Lotion Oil Free SPF 50; Coppertone Sunscreen Lotion Oil Free SPF 60; Coppertone Sunscreen Lotion SPF 15 Sun Guard; Coppertone Sunscreen Lotion SPF 30; Coppertone Sunscreen Lotion SPF 30 Sun Guard; Coppertone Sunscreen Lotion SPF 50 Defend & Care; Coppertone Sunscreen Lotion SPF 50 Kids; Coppertone Sunscreen Lotion SPF 50 Sun Guard; Coppertone Sunscreen Lotion SPF 50+ Sport; Coppertone Sunscreen Lotion SPF 50+ Waterbabies; Coppertone Sunscreen Mousse SPF 50 Defend & Care; Coppertone Sunscreen Mousse SPF 50 Waterbabies Pure & Simple; Coppertone Sunscreen Spray Clearlysheer SPF 50; Coppertone Sunscreen Spray SPF 50 Defend & Care; Coppertone Sunscreen Stick SPF 55; Coppertone Tanning Defend and Glow SPF 10; Coppertone Tanning Defend and Glow SPF 15; Coppertone Tanning Dry Oil SPF 10; Coppertone Tanning Dry Oil SPF 15; Coppertone Tanning Dry Oil SPF 4; Coppertone Tanning Oil SPF 15; Coppertone Tanning Oil SPF 6; Coppertone Tanning SPF 15; Coppertone Tanning SPF 8; Coppertone Tanning Sunscreen SPF 15; Coppertone Tattoo Guard Sunscreen SPF 50; Coppertone TattooGuard Sunscreen SPF 50 Plus; Coppertone Ultra Guard SPF 30; Coppertone Ultra Guard SPF 50; Coppertone Ultra Guard SPF 70; Coppertone Ultra Guard SPF 70 Sunscreen; Coppertone UltraGuard SPF 15; Coppertone UltraGuard SPF 30; Coppertone UltraGuard SPF 50; Coppertone UltraGuard SPF 70 Plus; Coppertone UltraGuard SPF 70 Plus Sunscreen; Coppertone Ultraguard SPF 30; Coppertone Ultraguard SPF 50; Coppertone Ultraguard Sunscreen SPF 15; Coppertone Water BABIES SPF 55; Coppertone Water Babies; Coppertone Water Babies Foaming Sunscreen SPF 75 Plus; Coppertone Water Babies Pure And Simple Whipped SPF 50; Coppertone Water Babies SPF 50; Coppertone Water Babies Sunblock Crm Spf25; Coppertone Water Babies Sunblock Lot Spf30; Coppertone Water Babies Sunscreen SPF 70 Plus; Coppertone WaterBABIES Sunscreen SPF 100plus; Coppertone Waterbabies Continuous Spray Sunscreen Lotion SPF 50; Coppertone Waterbabies Pure and Simple Light SPF 50; Coppertone Waterbabies Pure and Simple SPF 50; Coppertone Waterbabies SPF 50; Coppertone Waterbabies Spray SPF 30; Coppertone Waterbabies Spray SPF-45; Coppertone Waterbabies Sunblock Lot SPF 45; Coppertone Waterbabies Sunblock Stick SPF 30; Coppertone Waterbabies Sunscreen Lotion SPF 60; Coppertone Waterbabies Sunscreen Mousse SPF 60; Coppertone Waterbabies Whipped SPF 50; Coppertone Wet and Clear Kids SPF 50 Plus; Coppertone Wet and Clear SPF 50 Plus; Coppertone Wet n Clear Kids SPF 45plus; Coppertone Wet n Clear SPF 30; Coppertone Wet n Clear SPF 45plus; Coppertone Wet'n Clear Sunscreen Continuous Spray SPF 30; Coppertone Wet'n Clear Sunscreen Continuous Spray SPF 50; Coppertone kids SPF 50; Coppertone kids SPF 70 Plus; Coppertone kids SPF 75 Plus; Coppertone oil free Foaming Sunscreen SPF 75 Plus; Coppertone oil free SPF 30; Coppertone oil free faces SPF 15; Coppertone oil free faces Sunscreen SPF 30; Coppertone ultraGUARD SPF 15; Coppertone ultraGUARD SPF 30; Coppertone ultraGUARD SPF 50; Coppertone ultraGUARD SPF 90 plus; Coppertone ultraGUARD Sunscreen SPF 100 Plus; Coppertone ultraGUARD Sunscreen SPF 100plus; Coppertone ultraguard; Coppertone water BABIES SPF 70 plus; Coppertone waterBABIES Pure and Simple Free SPF 50; Coppertone waterBABIES Sunscreen SPF 50; Coppertone wet n clear SPF 30; CorTex SunX 50 Thick; Coral Bay Juicy Lip Fix SPF45; CoreTex Professional Outdoor Skin Protection Wallet; CoreTex Sun X 50; CoreTex Sun X SPF 30; CoreTex Sun X SPF 30 Thin; Cover FX Clear Cover Invisible Sunscreen Broad Spectrum SPF 30; Cover Fx Protection Primer SPF 30; Cover Fx SPF 30 Booster Drops Broad Spectrum Sunscreen; Cover Me Sunscreen; Crema Nera Extrema SPF 14; Crescent White Uv Protector Broad Spectrum SPF 50; Croc Bloc Broad Spectrum SPF 30 FPS Ecran Solaire; Croc Bloc Broad Spectrum SPF 50 Fps Ecran Solaire; Cross-terrain SPF 50; Ct SPF 20; Cvs Oil Free SPF 15; Cvs Sport SPF 30; Cyantific Protecting Daily Broad Spectrum SPF 30; Cyber White Brilliant Cells Full Spectrum Brightening Uv Protector SPF 50; Cyberwhite Hd Bb Advanced Brightening Broad Spectrum SPF 50; Cyberwhite Hd Uv Protector Broad Spectrum SPF 50; DDF Advanced Moisture Defense Broad Spectrum SPF 15; DDF Advanced Moisture Defense UV SPF 15; DDF Daily Protective Moisturizer Broad Spectrum SPF 15; DDF Daily Protective Moisturizer SPF 15; DDF Mattifying Moisturizer Broad Spectrum SPF 15; DDF Mattifying Oil Control UV Moisturizer SPF 15; DDF Protect and Correct UV Moisturizer Broad Spectrum SPF 15; DDF Protect and Correct UV Moisturizer SPF 15; DDF Protective Eye Broad Spectrum SPF 15; DDF Protective Eye SPF 15; DDF Ultra-Lite Moisturizing Dew Broad Spectrum SPF 15; DDF Ultra-Lite Oil-Free Moisturizing Dew UV Moisturizer SPF 15; DDF Weightless Defense Hydrator Broad Spectrum SPF 45; DEAD SEA ESSENTIALS ALGAE Smoothing and Protecting Day Broad Spectrum SPF 20; DR. C Tuna Sunscreen 30 SPF Broad Spectrum Face and body; DT Collagen; Daily Defense Broad Spectrum SPF 30; Daily Defense Broad Spectrum SPF 50; Daily Deflector Moisturizer SPF 50; Daily Dose Vitamin C and Broad Spectrum SPF 40 Serum; Daily Driver Sunscreen Broad Spectrum SPF 30; Daily Essential Moisturiser; Daily Facial Moisturizer SPF 25; Daily Moisturizing Antioxidant SPF 50; Daily Moisturizing Broad Spectrum SPF15 Sunscreen; Daily Protection Moisturizing Body Lotion (SPF 15); Daily Sheer Broad-spectrum Sunscreen SPF 50; Daily Shield Broad Spectrum SPF 20 Moisturizer; Dailyscreen; Day Cream Broad Spectrum SPF 15; Day Wear Advanced Multi-protection Anti-oxidant and Uv Defense Broad Spectrum SPF 30; Daydream Cushion Cloud Dream; Daydream Cushion Gentle Light; Daydream Cushion Magic Dream; Daydream Cushion Summer Hue; Daydream Cushion Sweet Secret; Daydream Cushion Warm Dusk; Daywear Advanced Multi-protection Anti-oxidant Broad Spectrum Creme SPF 15 for Dry Skin; Daywear Advanced Multi-protection Antioxidant Creme SPF 15 for Dry Skin; Daywear Advanced Multi-protection Antioxidant SPF 15 Oily Skin; Daywear Anti Oxidant 72h-hydration Sorbet Creme Broad Spectrum SPF 15; Ddf Protective Eye Cream Uv Moisturizer SPF 15; Ddf Ultra-lite Oil-free Moisturizing Dew Uv Moisturizer SPF 45; Dead Sea Natural Face Moisturizer Broad Spectrum SPF 20; Dearderm Daily Mositure Sunscreen; Deb Sunprotect SPF 33; Deep Moisture; Deep Renewal Broad Spectrum; Deep Wrinkle Moisture; Defend Hydrating Broad Spectrum SPF 15; Defend and Care Hydrate SPF50; Defend and Restore Moisture CRème; Defend and Restore Moisture Lotion; Defense Refresh Setting Mist Broad Spectrum Sunscreen SPF 50 Supergoop; Defense Refresh Settingh Mist Broad Spectrum Sunscreen SPF 50 Supergoop; Defense Total High Protection SPF 50 No Color Daily Non-Greasy Face Protection; Defense Zone Broad Spectrum SPF 30 Sunscreen; Defense Zone C/S Broad Spectrum SPF 30; Defense Zone Kids Broad Spectrum SPF 50 Sunscreen; Defense Zone Kids C/S Broad Spectrum SPF 50; Defense Zone Sport Broad Spectrum SPF 30 Sunscreen; Defense Zone Sport Broad Spectrum SPF 50 Sunscreen; Defense Zone Sport C/S Broad Spectrum SPF 30; Defense Zone Sport C/S Broad Spectrum SPF 50; Delon Tropic High Protection Sun Spray SPF 30; Dentec Lip Balm; Dentec Lotion; Derma J Sun; Dermatone Sunscreen SPF 30; Dermisa SUNSCREEN SPF 55 BROAD SPECTRUM; Dermoessential Sun Mist; Desert Fusion Nutritious Olive Leaf Daily Defense Broad Spectrum SPF 15 Sunscreen; Destination Brands International BROAD SPECTRUM SPF 50 Sunscreen; Dfndr Sunscreen SPF 30; Dfndr Sunscreen SPF 50; Disney Baby Einstein SPF 45 Lotion; Disney Pirates Of The Caribbean SPF 30 Continuous Spray No Pumping Needed; Disney SPF 30 Continuous Spray No Pumping Needed Fairies; Disney Sun Pals SPF 30 Continuous Spray No Pumping Needed Nemo; Disney Sun Pals SPF 30 Sun Protection Spray; Disney Sun Pals SPF 45 Lotion Mermaid; Disney Sun Pals SPF 45 Lotion Nemo; Disney Sun Pals SPF 45 Lotion Pooh Bear; Doc Block Body Essential Sunscreen Broad Spectrum SPF30; Doc Block Daily Sunscreen Broad Spectrum SPF55; Dr. Andrew Weil for Origins Mega-bright SPF 30 Skin Tone Correcting Oil-free Moisturizer; Dr. Andrew Weil for Origins mega-bright spf 30 skin tone correcting oil free moisturizer broad spectrum spf 30; Dr. C. Tuna Sunscreen 50 SPF UVA UVB Protection Face and Body Sun; Dr. C. Tuna Sunscreen SPF30 Broad Spectrum; Dr. Evans Oil-Free DEFENSE DAY TINTED MOISTURIZER SPF 55; Dr.G DEEP MOIST UP SUN; Dr.G Water Proof Up Sun; Dr.Jart Every Sun Day Sun Fluid; Dr.Jart Every Sun Day Sun Fluid SPF 30; Dream Urban Cover; Drive Sunscreen SPF 50; Dry Balance Sunscreen Lotion SPF 30; Dry Balance Sunscreen Lotion SPF 50+; Dry Balance Sunscreen Spray SPF 30; Dry Balance Sunscreen Spray SPF 50+; Dry Oil Antioxidant Sun Protection; Dry Oil SPF 15; Dry Oil Sunscreen; Dry-touch Sunscreen SPF 45; Dual Spectrum SPF 30; Duane Reade Baby SunscreenSPF 50 SPF 50; Duane Reade Oil Free Sunscreen SPF 30; Duane Reade Prevail Moisturizing Sunscreen SPF 80; Duane Reade Sport Sunscreen SPF 50; Duane Reade Sports Sunscreen SPF 30; Duane Reade Sports Sunscreen SPF 50; Duane Reade Sunscreen SPF 30; Duane Reade Sunscreen SPF 50; Duane Reade Sunscreen SPF 70; Duo Defence Sunscreen Lotion SPF 30; Duo Defence Sunscreen Lotion SPF 50+; E NATURE Plantlicious UV sunscreen; EAD Kids; EQUATE Sunscreen BABY Broad Spectrum SPF 50; EQUATE Sunscreen SPORT Broad Spectrum SPF 30; EQUATE Tanning Sunscreen Dry oil UVB Protection SPF10; ESSENTIALS Face and Body Sunscreen; ESTEE LAUDER MULTI-DEFENSE AQUA UV Gel BROAD SPECTRUM SPF 50; EVEN TONE and RADIANCE CC Color Correction Skin Protection SPF30; EVERYDAY SUNSCREEN SPF 50 with Sunflower Extract; EXTREME AHAVA Extreme Daily Firmness And Protection Broad Spectrum SPF30; Ead; Easydew Daily Baby Care Sun; Easydew Daily Fresh Mild Sun SPF50 Plus; Easydew Daily Ultra Shield Sun; Easydew EG SUN Ultra Shield; Eau Thermale Avene Hydrating Sunscreen SPF 50; Eau Thermale Avene Ultra-Light Hydrating Sunscreen SPF 50; Eco Earth Power Aqua Sun; Edelweiss Pure Sun; Effaclar Duo (+) SPF 30; Eight Hour Cream Targeted Sun Defense SPF 50; Elizabeth Arden, Great 8, Moisturizer SPF 35; Enfuselle Time Repair A.M. SPF15; Enlighten Ee Even Effect Skin Tone Corrector SPF Broad Spectrum SPF 30; Eos Active Protection Fresh Grapefruit Sunscreen Lip Balm Broad Spectrum SPF 30; Eos Active Protection Lemon Twist Sunscreen Lip Balm Broad Spectrum SPF 15; Eos Lip Balm Sunscreen Broad Spectrum SPF 15; Epionce Active Shield; Epionce Active Shield SPF 30; Epionce Skin Barrier Repair Kit; Epionce Ultra Shield; Equaline All Day Moisturizer; Equate; Equate Baby Sunscreen; Equate Baby Sunscreen Lotion SPF/fps 60; Equate Beauty Daily Moisturizer SPF-30 Sunscreen; Equate Beauty Hydro Sunscreen SPF 50; Equate Beauty Ultra Light SPF 100; Equate Beauty Ultra Light Sunscreen SPF 70; Equate Beauty Ultra Light Sunscreen SPF70 Broad spectrum; Equate Kids Sunscreen Lotion SPF/fps 60; Equate SPF 50 Sport Sunscreen; Equate SPF 50 Ultra Sunscreen; Equate SPF 50 Ultra Sunscreen Continuous; Equate SPF 70 Ultra Sunscreen; Equate SUNSCREEN spf 50 SPORT broadspectrum; Equate Sport Sunscreen Continous Spray SPF/fps 15; Equate Sport Sunscreen Continuous Spray SPF/fps 60; Equate Sport Sunscreen Continuous Spray SPF/fps30; Equate Sport Sunscreen Lotion SPF/fps 60; Equate Sunscreen Continuous Spray SPF/fps 15; Equate Sunscreen KIDS SPF50 Broad Spectrum; Equate Sunscreen Mineral Based KIDS Broad Spectrum spf 50; Equate Sunscreen SPF 30 SPORT Broad Spectrum; Equate Sunscreen SPF 50 BABY Broad Spectrum; Equate Sunscreen SPF 50 SPORT Broad Spectrum; Equate Sunscreen SPF 70 SPORT Broad spectrum; Equate Sunscreen SPF100 SPORT Broad Spectrum; Equate Sunscreen SPF70 ULTRA Broad spectrum; Equate Sunscreen SPORT SPF 100; Equate Sunscreen ULTRA Broad spectrum SPF 50; Equate Ultra Light Sunscreen MIST SPF70; Equate beauty road Spectrum SPF30; Equate beauty ultra light Suncreen SPF 55; Equate-Sunscreen Broad Spectrum SPF 50 ULTRA; Erno Laszlo Solar Exchange Sun Balm SPF 25; Eshu Skin Assist SPF 30 Moisturising Sunscreen; Esika Perfectblock Multiprotector Solar De Amplio Espectro Para Rostro Y Cuerpo Fps 50plus; Essential Defense Active Broad Spectrum SPF 50 Sunscreen; Essential Energy Day Cream; Essential Shockeye and Lip; Essential-C Day Moisture Broad Spectrum SPF 30 Pa+++; Estee Lauder Daywear 72h-hydration Sorbet Creme CRème Sorbet Hydratation 72h SPF/fps 15; Estee Lauder Daywear Advanced Multi-protection Lotion SPF 15 for Oily Skin; Estee Lauder Daywear Advanced Multi-protection Uv Defense SPF 50; Estee Lauder Daywear Multi-protection 24h-moisture Creme SPF 15 for Dry Skin; Estee Lauder Daywear Plus Multiprotection Lotion SPF 15 for Oily Skin; Estee Lauder Enlighten Ee Even Effect Skintone Corrector SPF 30; Estee Lauder Shimmering Shield for Lips and Face Sunscreen SPF 30; Estee Lauder Sun Performance SPF 30 Sunscreen Sun Care Multi-protection Sun Lotion for Body; Estee Lauder Sun Performance SPF 30 Sunscreen Sun Care Multi-protection Sun Lotion for Face; Eternal Spirit Beauty SPF 50Sunscreen; Eucerin Daily Hydration; Eucerin Daily Hydration Hand; Eucerin Daily Protection Body; Eucerin Redness Relief Daily Perfecting; Eve Lom Daily Protection Broad Spectrum SPF 50 Sunscreen; Even Better Dark Spot Correcting Broad Spectrum SPF 15; Even Tone Daily Moisturizer; Every Man Jack Broad Spectrum SPF 30; Every Man Jack SPF 30 Sunscreen; Everyday Sunscreen Broad Spectrum SPF 30 Supergoop; Everyday Sunscreen Broad Spectrum SPF 50 Supergoop; Everyday Sunscreen SPF 50; Everyday Sunscreen SPF 50 Supergoop; Everyday Sunscreen with Sunflower Extract Broad Spectrum SPF 30; Everyday Uv Protector Sun Screen; Everyman Jack Broad Spectrum SPF 50; Everyman Jack SPF 50; Exact Babies Sunscreen Lotion SPF Fps 45; Exact Babies Sunscreen Spray SPF Fps 45; Exact Clear Continuous Spray Sunscreen SPF/fps 30; Exact Cooling and Refreshing Clear Continuous Spray Sunscreen SPF/fps 45; Exact Kids Clear Continuous Spray Sunscreen SPF/fps 50; Exact Kids' Sunscreen Lotion SPF Fps 30; Exact Lip Balm Year-round Protection; Exact Sport Clear Continuous Spray Sunscreen SPF/fps 30; Exact Sunscreen Lotion SPF Fps 30; Excel SPF 30; Excel Sport SPF 50; Exchange Select Baby Sunscreen SPF 50; Exchange Select Kids Sunscreen SPF 50; Exchange Select Sheer Dry Touch Sunscreen SPF 70; Exchange Select Sport SPF 50; Exchange Select Sport Sunscreen SPF 30; Exchange Select Sport Sunscreen SPF 50; Exchange Select Sunscreen SPF 30; Exchange Select Sunscreen SPF 45; Exchange Select Sunscreen SPF 50; Exchange Select Sunscreen SPF 70; Exsel Sport SPF 15; Exsel Sport SPF 30; Extra Repair Foundation Broad Spectrum SPF 25; Extra Repair Moisturing Balm SPF 25; Extra Repair Moisturizing Balm Broad Spectrum SPF 25; Extra Rich Day Defense SPF 30; Extra-firming Jour Fps/SPF 15; Extreme Anti-Wrinkle Care SPF 30; Extreme Sport SPF 70; FEVANZON Isolation Sunscreen; FRE Protect Body Broad Spectrum SPF30; FT SPF30 Sun Stick; Fabulous Face SPF 15; Face & Body Sunscreen Broad Spectrum SPF 30; Face Anti-shine Cream; Face Broad Spectrum SPF 20 Sunscreen; Face Factor; Face Factor SPF 50; Face Lift Broad Spectrum SPF 20 Jafra Pro; Face Oasis Hydrating Face Oasis Hydrating SPF 30; Face Oasis Hydrating Lotion SPF 30; Face Plus Scalp Invisible Daily SPF 30 Broad Spectrum; Face Potion; Face Stick Premium Endurance Sunscreen 30; Face Sunscreen SPF 45; Face Values - AM Facial Moisturizing Broad Spectrum SPF30 Sunscreen; Face Values Daily Facial Moisturizing SPF 30 Sunscreen; Face Values Refreshing Cooling Body Mist Sunscreen SPF 45; Face Values Ultra Light Body Mist Sunscreen SPF 30; Face Values Ultra Sport Active SPF 15 Sunscreen; Face Values Ultra Sport Active SPF 30 Sunscreen; Face Values Ultra Sport Active SPF 50 Sunscreen; Face Values Wet N Dry Wet Skin SPF 30 Sunscreen; Face Values Wet N Dry Wet Skin SPF 50 Sunscreen; Face Zone Sun Block 30 SPF; Face Zone Sun Block SPF 30; Face and Body Sunscreen SPF 35 Jafra; Face and Body Sunscreen Spray SPF 35; Facescreen SPF 50; Facial Fuel; Facial Fuel Uv Guard; Fair and Square Kids Broad Spectrum SPF 50; Fair and Square Kids Sunscreen SPF 50; Fair and Square Sport Broad Spectrum SPF 30; Fair and Square Sport Broad Spectrum SPF 50; Fair and Square Sport Sunscreen SPF 30; Fair and Square Sport Sunscreen SPF 50; Fair and Square Ultra Protection Broad Spectrum SPF 15; Fair and Square Ultra Protection Broad Spectrum SPF 30; Fair and Square Ultra Protection Sunscreen SPF 15; Fair and Square Ultra Protection Sunscreen SPF 30; Fast-drying Sunscreen SPF 30; Fenty Skin Hydra Vizor SPF 30; Five Star Lip Protection; Fix+ SPF 30 Sun Spray; Flesh Hydrating SPF Serum; Florida Salt Scrub Broad Spectrum SPF 30; Florida Salt Scrubs Broad Spectrum SPF 50; Florida Salt Scrubs Florida Snowbird Sunscreen 30 Broad Spectrum SPF 30; Fluide Fondant Désalterant SPF 15; For Goodness Face Antioxidant Skin Moisturizing Lotion SPF 30; Forever Sun Lips; Forever Young Body Butter Broad Spectrum Sunscreen SPF 40 Supergoop; Forever Young Hand Broad Spectrum SPF 40 Supergoop; Forever Young Hand Cream With Sea Buckthorn; Fote Block Up Kids SPF 50 Sunscreen; Fote Cabana Beach Club With Blood Orange and Essential Oils SPF 8 Dry Tanning Sunscreen; Fote Cabana Beach Club With Manuka Honey and Essential Oils SPF 30 Sunscreen; Fote Cabana Beach Club With Manuka Honey and Essential Oils SPF 8 Dry Tanning Sunscreen; Fps 30 Soin Complet; Fps 45 Soin Complet; Fps 60 Soin Complet; Fre Broad Spectrum; Fresh Cooling Body Mist Sunscreen SPF 30; Fresh Cooling Body Mist Sunscreen SPF 45; Fresh Cooling Sunblock Gel SPF 30; Fresh Cooling Sunblock Gel SPF 45; Fresh Essentials Daily Nourishing Moisturizer; Fruit Of The Earth Block Up Dry Sport Fps/SPF 30 Continuous Spray; Fruit Of The Earth Block Up Fps/SPF 30 Continuous Spray; Fruit Of The Earth Block-UP Regular SPF 45; Fruit Of The Earth Kids SPF/fps 50; Fruit Of The Earth SPF/fps 30 Continuous Spray; Fruit Of The Earth SPF/fps 50; Fruit Of The Earth SPF/fps 50 Continuous Spray; Fruit Of The Earth Sport SPF/fps 15 Continuous Spray; Fruit Of The Earth Sport SPF/fps 30 Continuous Spray; Fruit Of The Earth Sport SPF/fps 50; Fruit Of The Earth Sport SPF/fps 50 Continuous Spray; Fruit of the Earth Block Up Broad Spectrum Baby SPF 50; Fruit of the Earth Block Up Broad Spectrum Sport SPF 50; Fruit of the Earth Block Up Dry Sport SPF 50 Continuous Sunscreen; Fruit of the Earth Block Up Kids SPF 50; Fruit of the Earth Block Up Kids SPF 50 Continuous Sunscreen; Fruit of the Earth Block Up Kids SPF 50 Moisturizing Sunscreen; Fruit of the Earth Block Up Lite Broad Spectrum SPF 15 Continuous Sunscreen; Fruit of the Earth Block Up Lite Broad Spectrum SPF 30 Continuous Sunscreen; Fruit of the Earth Block Up Lite Kids SPF 50 Continuous Sunscreen; Fruit of the Earth Block Up SPF 50; Fruit of the Earth Block Up SPF 50 Full Spectrum Sunscreen; Fruit of the Earth Block Up SPF 70 General Protection Sunscreen; Fruit of the Earth Block Up Sport SPF 30 Continuous Sunscreen; Fruit of the Earth Block Up Sport SPF 50 Continuous Sunscreen; Fruit of the Earth Block Up Sport SPF 50 Moisturizing Sunscreen; Fruit of the Earth Block Up Sport SPF 50 No Mess Sun; Fruit of the Earth Block Up Sport SPF 50 Sunscreen; Fruit of the Earth Cabana Beach Club; Fruit of the Earth SPF 50 Moisturizing Sunscreen; Fruit of the Earth SpaCology; Fruit of the Earth Sport SPF 50; Fruit of the Earth Sport SPF 50 Sunscreen Continuous; Fruit of the Earth Sun Town City; Fruit of the Earth, Inc. Luv That Sun Kids SPF 50 Natural Sunscreen; Fruit of the Earth, Inc. Luv That Sun SPF 30 Continuous; Fruit of the Earth, Inc. Luv That Sun SPF 30 Natural Sunscreen; Fruit of the Earth, Inc. Ultra SPF 50 Moisturizing Sunscreen; GLYTONE Triple Defense Brightening Complex with Sunscreen Broad Spectrum SPF 30; GM Collin 50Plus DRY TOUCH SUN PROTECTION; GUINOT HYDRA FINISH Face Cream SPF15; GUINOT Large Defense uv Medium protection Sunscreen for the body SPF 20; GUINOT Ultra UV Sunscreen High Protection Sun Cream for the face and body SPF 30; Garnier Ombrelle Complete Sensitive Advanced Lightweight hypoallergenic SPF 45 Mexoryl Technology; Garnier Ombrelle Face Anti-Shine SPF 60 Mexoryl Technology; Garnier Ombrelle Kids Wet N Protect Hypoallergenic SPF 45 Mexoryl Technology; Garnier Ombrelle SPF 30 Complete Lightweight; Garnier Ombrelle SPF 30 Complete UVA UVB Sensitive Advanced Sunscreen for Sensitive Skin Hypoallergenic Non comedogenic Quick Absorption Water/sweat resistant 80 minutes; Garnier Ombrelle SPF 30 Sport Endurance Water Resistant; Garnier Ombrelle SPF 30 UVA UVB Kids Wet N Protect Sunscreen Protection Even on Wet Skin Hypoallergenic Water/sweat resistant 80 minutes Quick Absorption; Garnier Ombrelle SPF 45 Complete Lightweight; Garnier Ombrelle SPF 60 Complete Lightweight; Garnier Ombrelle SPF 60 Complete UVA UVB Sensitive Advanced Sunscreen for Sensitive Skin Hypoallergenic Non comedogenic Quick Absorption Water/sweat resistant 80 minutes; Garnier Ombrelle SPF 60 UVA UVB Kids Wet N Protect Sunscreen Protection Even on Wet Skin Hypoallergenic Water/sweat resistant 80 minutes Quick Absorption; Garnier SkinActive Clearly Brighter AntiSun Damage Daily Moisturizer Broad Spectrum SPF 30 Sunscreen; Garnier SkinActive Moisture Bomb Broad Spectrum SPF 30 Sunscreen; Garnier Ultra Lift Deep Wrinkle Intensive Day; Garnier Ultra Lift SPF 30 Deep Wrinkle Day; General Protection; Generations Nadinola Day Time Protecting Moisturizer SPF 15; Gentle Rejuvenation Fortified Sunscreen Broad Spectrum SPF 30 With Vitamin C; Gentle Rejuvenation System; Gentle Rejuvenation Ultra Light Repair SPF 30 Sunscreen; Gillette Fusion ProSeries Instant Hydration Moisturizer Broad Spectrum SPF 15; Gillette Fusion ProSeries Instant Hydration UV Moisturizer SPF 15; Giorgio Armani Crema Nera Extrema Essential Defense Fluid Broad Spectrum SPF 14 Sunscreen; Glamtox Active Daily Moisturizing Sunscreen; Glamtox Eye; Gliza Body Mist Sunscreen Broad Spectrum SPF 100; Glossier Invisible Shield Daily Sunscreen Broad Spectrum SPF 35; Glossier sun glaze gleaming sunscreen oil broad spectrum SPF 30 Water Resistant 40 Min; Gloves in a Bottle with SPF15; Glow Oil Broad Spectrum Sunscreen SPF 50; Glow Stick Broad spectrum SPF 50; Glycolic Day Cream SPF 30; Glytone Suncare SPF 50; Gold Bond Ultimate Protection; GoodSense SPF 30 Sport CSpray Comfort Can; GoodSense SPF 50 CSpray; GoodSense SPF 50 Sport Comfort Can; GoodSense Sport Sunscreen SPF 30; GoodSense Sport Sunscreen SPF 50; GoodSense Sunscreen SPF 30; GoodSense Sunscreen SPF 50; GoodSense Sunscreen SPF 70; Gp Sunscreen; Gradual Glow Sunless Tanning Milk Broad Spectrum Sunscreen SPF 35; Gradual Self-tanning sunscreen SPF 20 Doctor Ts Supergoop; H-E-B Dead Sea Organics Protect and Perfect Day Broad Spectrum SPF15; H.E.B Solutions Sunscreen; H.E.B. Solutions Sunscreen; H.E.b; H.E.b Baby; H.E.b Banana; H.E.b Mango; H.E.b Solutions Sunscreen; H.E.b Ultra; H2O Beauty AQUADEFENSE PROTECTIVE MATCHA SPF 40; HAWAIIAN Tropic; HEB Solutions Sunscreen; HEB Solutions Sunscreen Ultra 30; HYALURONIC ACID WATERY SUN gel; Hada Labo Tokyo Protecting Day SPF 30; Hand Treatment Regimen; Hangover Good To Go Moisturizer SPF 25; Hangover Good To Go Skin Protecting SPF 25 Moisturizer; Hanson Daily Moisturizer SPF30; Harmon Face Values Break-out Free SPF 55 Sunscreen; Harmon Face Values Ultra Light Dry To The Touch SPF 30 Sunscreen; Harmon Revitalizing Facial Smoother Immediate Skin Smoothing Finishing Broad Spectrum SPF30 Sunscreen; Haute Exigence Jour SPF 20 Multi-intensive; Hawaiian Tropic; Hawaiian Tropic 30 Plus Sunblock Lotion; Hawaiian Tropic 30 SPF Splash Sunblock; Hawaiian Tropic 45 SPF Sunblock Stick; Hawaiian Tropic AntiOxidant Sunscreen SPF 30 Broad Spectrum; Hawaiian Tropic AntiOxidant Sunscreen SPF 50 Broad Spectrum; Hawaiian Tropic Duo Defence Refresh Sunscreen Mist SPF 30; Hawaiian Tropic Ilk Hydration Weightless; Hawaiian Tropic Island Sport Sunscreen Broad Spectrum SPF 15; Hawaiian Tropic Island Sport Sunscreen Broad Spectrum SPF 16; Hawaiian Tropic Island Sport Sunscreen Broad Spectrum SPF 30; Hawaiian Tropic Island Sport Sunscreen Broad Spectrum SPF 50; Hawaiian Tropic Island Sport Sunscreen Lotion Écran Solaire 30; Hawaiian Tropic Island Sport Sunscreen UVAUVB Broad Spectrum SPF 50; Hawaiian Tropic Island Sport Sweat Resistant Sunscreen Lotion SPF 30; Hawaiian Tropic Island Sport Sweat Resistant Sunscreen Lotion SPF 50; Hawaiian Tropic Island Sport Sweat Resistant Sunscreen Spray SPF 30; Hawaiian Tropic Island Sport Sweat Resistant Sunscreen Spray SPF 50; Hawaiian Tropic Island Tanning Broad Spectrum SPF 25; Hawaiian Tropic Lip Balm SPF 45 Cherry; Hawaiian Tropic Matte Effect Mineral Enriched Sunscreen Lotion SPF 30; Hawaiian Tropic Matte Effect Mineral Enriched Sunscreen Lotion SPF 50; Hawaiian Tropic Matte Effect Mineral Enriched Sunscreen SPF 30; Hawaiian Tropic Matte Effect Mineral Enriched Sunscreen SPF 50; Hawaiian Tropic Oil Free Sport 30 SPF Sunblock; Hawaiian Tropic Protective Argan Dry Oil Sunscreen Spray SPF 15; Hawaiian Tropic SPF 30 Splash for Kids Sunblock; Hawaiian Tropic SPF 45 Plus Uva/uvb Protection Sunblock Stick; Hawaiian Tropic Sheer Touch Clear Sunscreen Spray SPF 30 Ultra Radiance; Hawaiian Tropic Sheer Touch Clear Sunscreen Spray SPF 50+ Ultra Radiance; Hawaiian Tropic Sheer Touch Sunscreen Broad Spectrum SPF 15; Hawaiian Tropic Sheer Touch Sunscreen Ultra Radiance Broad Spectrum SPF 50; Hawaiian Tropic Sheer Touch Toucher Soyeux Oil-free Sunscreen Écran Solaire Sans Huile 85 SPF/fps; Hawaiian Tropic Sheer Touch Ultra Radiance Sunscreen Broad Spectrum SPF 30; Hawaiian Tropic Sheet Touch Ultra Radiance Sunscreen SPF 50; Hawaiian Tropic Silk Hydration Broad Spectrum SPF 15; Hawaiian Tropic Silk Hydration Clear Sunscreen Broad Spectrum SPF 50; Hawaiian Tropic Silk Hydration Clear Sunscreen Broad Spectrum SPF50; Hawaiian Tropic Silk Hydration Sunscreen Broad Spectrum SPF 30; Hawaiian Tropic Silk Hydration Sunscreen Broad Spectrum SPF 50; Hawaiian Tropic Silk Hydration Sunscreen Face Broad Spectrum SPF 30; Hawaiian Tropic Silk Hydration Weghtless Face; Hawaiian Tropic Silk Hydration Weightless; Hawaiian Tropic Silk Hydration Weightless Clear Sunscreen Spray SPF 50 Plus; Hawaiian Tropic Silk Hydration Weightless Daily Use Sunscreen Mist Spray SPF 30; Hawaiian Tropic Silk Hydration Weightless Sunscreen Lotion With Hydrating Ribbons SPF 30; Hawaiian Tropic Silk Hydration Weightless Sunscreen Lotion With Hydrating Ribbons SPF 50; Hawaiian Tropic Splash 30 SPF Sunblock Spray; Hawaiian Tropic Sport 30 SPF Sunblock Spray; Hawaiian Tropic Sunblock Lip Balm SPF 45; Hawaiian Tropic Sunblock Stick Splash SPF 50; Hawaiin Tropic Silk Hydration Dry Broad Spectrum SPF 30; Healthy Defense Daily Moisturizer SPF 30; Healthy Defense Daily Moisturizer SPF 45; Healthy Defense Sunblock Lotion SPF 30; Healthy Defense Sunblock Lotion SPF 45; Healthy Glow Sunless Tan Broad Spectrum SPF 40; Healthy Skin Cc Cream SPF 30; Healthy Skin Instant Tone Corrector; Healthy Skin Lift & Firm; Heb; Heb Broad Spectrum SPF 30 Banana Scented Sunscreen; Heb Broad Spectrum SPF 30 Coconut Scented Sunscreen; Heb Broad Spectrum SPF 30 Mango Scented Sunscreen; Help Me Broad Spectrum SPF 30 Sunscreen Retinol Day Treatment Lotion; Herbal Aloe Face and Body SPF 30; Herbalife SKIN 7 Day Results Kit; Herbalife Skin Protective Moisturizer SPF 30; High Performance Sunscreen Spray SPF 15; High Performance Sunscreen Spray SPF 50; High Protection Suncare Oil SPF 30; Hope In A Jar Broad Spectrum SPF 25 Sunscreen and Moisturizer for All Skin Types; Hope In A Jar SPF 25; Hourglass Equilibrium Day Fluid SPF 30; House 99 By David Beckham Bold Statement Body Tattoo Moisturizing Broad Spectrum SPF 50 Sunscreen; Hydra Beaute SPF 15; Hydra Finish SPF 15; Hydra Vizor; Hydra-Essential SPF 15 Broad Spectrum - SPF 15 - Sunscreen; Hydra-essentiel Fluide Fondant Désaltérant Peaux Normales À Mixtes Fps/SPF 15; Hydra-radiance Protecting Day Lotion Lotion De Jour Protectrice SPF/fps30; Hydra-seal SPF 25 / Hydra-scellante SPF 25; Hydraboost Moisturizer SPF 30; Hydraphase Uv Intense; Hydraplasty Face; Hydrating Antioxidant Moiturizer; Hydrating Glow Mist SPF 50; Hydrating Lip Balm SPF 15 sunscreen ASAP; Hydrating Lip Balm Sunscreen; Hydrating Protection Sunscreen CVS; Hydrating Protection Sunscreen SPF 30 CVS; Hydrating Protection Sunscreen SPF 50 CVS; Hydrating SPF 30; Hydrating SPF 50; Hydrating Sheer Lip Balm SPF 30 - Nude Broad Spectrum SPF 30 UVA-UVB Sunscreen; Hydrating Sheer Lip Balm SPF 30 - Pink Broad Spectrum SPF 30 UVA-UVB Sunscreen; Hydrating Sheer Lip Balm SPF 30 - Red Broad Spectrum SPF 30 UVA-UVB Sunscreen; Hydrating Sheer Lip Balm SPF 30 - TRIO; Hydrating and Balancing Moisturizer SPF 15; Hydro Boost City Shield Gel Cream SPF 25; Hydro Boost Gel Cream SPF 15; Hydro Boost Gel Cream SPF 25; Hydro Boost Water Gel Lotion Sunscreen; Hydro Boost Water Gel Lotion Sunscreen SPF 30; Hydro Boost Water Gel Lotion Sunscreen SPF 50; Hydrosport Sunscreen Spray SPF 30; Hydrosport Sunscreen Spray SPF 50; INCELLDERM Cocktail Aqua Sun; IOPE UV Defense Sun Protector SPF 50plus; ISA KNOX 365 SUNSCREEN BROAD SPECTRUM SPF 50 Plus; Idc Fps/SPF 30; Idc Fps/SPF 50; Ideal Flawless CC Color Corrector; Ideal Flawless Cc Color Corrector Cream; Ideal Moisture Dry Skin; Ideal Moisture Even Tone; Ideal Moisture Normal Skin; Ideal Moisture Sensitive Skin; Ideal Soleil SPF 50+; Idéal Soleil SPF 60; Idéal Soleil Spf30; Illuminating Daily Moisturizer SPF 30; Illuminating Protective Primer SPF 12; Im Cooling Cica Sunstick; Im Sports Aqua Sungel; Im Tone Up Multi Base; Image Prevention Plus Professional Ultimate Protection Moisturizer SPF50; Image Skincare Prevention Plus Daily Ultimate Protection; InstaReady Face Primer; InstaReady Face Primer SPF 18; Instant Bronzer Instantané 30 Continuous Spray Sunscreen; Instant Bronzer Instantané 30 Spray Gel Sunscreen; Instant Dry Mist SPF 50 Sunscreen Spray; Instant Miracle Illusion Smoother SPF 30 CVS; Intense Care Gold 24k Snail Sun; Into Repair Dry Skin / Peaux Sèches; Into Repair Face SPF 30; Invisible Protect SPF 30 Cool Gel; Invisible Protect SPF 30 Sheer Spray; Invisible Protect SPF 50 Sheer Spray; Invisible Protect SPF 50+ Cool Gel; Invisiblur Perfecting Shield Broad Spectrum SPF 30 Pa+++; Iope Brightgen; Iope Men Uv Defense Sun Protector; Iope Uv Defense Sun Protector; Iope Uv Defense Sun Protector EX; Iope Uv Men Defense Sun Protector EX; Ipkn City Proof Sun Mist; J0830014 Jason Sun Family Sunscreen SPF45; J0832014 Jason Sun Sport Sunscreen SPF45; J0832212 Jason Kids Sunscreen SPF45; J0832706 Jason Sun Facial Sunscreen SPF20; JACKET SPF-50 Broad Spectrum Sunscreen; JUNGSAEMMOOL Skin Setting Tone Correcting Base; Jafra Pro; Jafra Pro Face Lift SPF 20; Jafra Royal Jelly Revitalize; Jafra Royal Luna Bright Kit; Jafra Royal Men Sample Set; Jane Seymour Natural Advantage AM SPF 15 All Day Moisture with AHAs; Jane Seymour Oil-Free Tinted Moisturizer with SPF 55; Jason Facial Natural Sunscreen Broad Spectrum SPF20; Jason Pure Natural Sun Family Natural Sunscreen Broad Spectrum SPF45; Jason Pure Natural Sun Kids Natural Sunscren Broad Spectrum SPF45; Jason Pure Natural Sun Sport Natural Sunscreen Broad Spectrum SPF45; Jason Sun Facial Sunscreen Broad Spectrum SPF20; Jason Sun Family Sunscreen Broad Spectrum SPF45; Jason Sun Kids Sunscreen Broad Spectrum SPF45; Jason Sun Sport Sunscreen Broad Spectrum SPF45; Jayjun Wakepure Calming Sun; Jouvalle Deep Nourishing Luminosity Day; Justice by Australian Gold Broad Spectrum SPF 50 Pink Glitter Sunscreen; KARA VITA Moisturizing Sunscreen with DNArescue; KINERASE SPF 30 Broad Spectrum UVA/UVB; KINESYS SPF 50 Funscreen Sunscreen for Kids; KISS MY FACE SPF-50 Face Factor; KLAVUU RED PEARLSATION UV Protection City Defencer SPF50; Kara Vita SPF 29; Kara Vita SPF 30; Kid's Sunscreen SPF 30 Lotion; Kids (80 Minutes) Water Resistant Lotion SPF 30; Kids 30 SPF Sunblock Lotion; Kids Disappearing Color SPF50 Broad Spectrum Suncreen Green Apple Scented; Kids Disappearing Color SPF50 Broad Spectrum Suncreen Pink Strawberry Scented; Kids Lotion SPF 30; Kids Powder-dri Pour Enfants Sunscreen Lotion Ecran Solaire SPF/fps 30; Kids SPF 30 Spray; Kids SPF 45 Sunscreen Spray; Kids SPF 50; Kids SPF 50 Sunscreen Spray; Kids Sprayable Sunscreen Lotion SPF 50; Kids Sunblock Lotion 30 SPF; Kids Sunscreen; Kids Sunscreen Continuous Spray; Kids Sunscreen Continuous Spray SPF 50+; Kids Sunscreen Continuous Spray SPF/fps 60; Kids Sunscreen Lotion 50+; Kids Sunscreen Lotion SPF 50+; Kids Sunscreen Lotion SPF/fps 60; Kids Sunscreen SPF 50; Kids Sunscreen SPF 50 Meijer; Kids Sunscreen SPF 50 Wegmans; Kids Sunscreen SPF 70; Kids Sunscreen SPF 70 Meijer; Kids Sunscreen Spray SPF 100; Kids Sunscreen Stick SPF 50+; Kids Sunscreen Vaporisateur Écran Solaire Spray 45 SPF.fps; Kids Tear Free Sans Larmes Sunscreen Lotion Écran Solaire Pour Enfants SPF Fps 50; Kids Tear Free Sans Larmes Sunscreen Spray Écran Solaire En Vaporisateur Pour Enfants SPF Fps 30; Kids Tear Free Sans Larmes Sunscreen Spray Écran Solaire En Vaporisateur Pour Enfants SPF Fps 50; Kids Tear Free/ Sans Larmes Sunscreen Lotion/lotion Écran Solaire Pour Enfants SPF Fps 60; Kids Tear Free/ Sans Larmes Sunscreen Spray Écran Solaire En Vaporisateur Pour Enfants SPF Fps 60; Kids Wet & Dry Sunscreen SPF 60; Kids' Sunscreen Broad Spectrum SPF 60 Lotion; Kids'sunscreen Broad Spectrum SPF 60 Spray; Kids/enfants SPF/fps 50; Kiehls Activated Sun Protector Sunscreen SPF 30 For Face and Body For All Skin Types; Kiehls Activated Sun Protector Sunscreen SPF 50 For Face and Body For All Skin Types; Kiehls Since 1851 Activated Sun Protector Broad Spectrum SPF 30 Sunscreen Water Resistant 80 MInutes; Kiehls Since 1851 Activated Sun Protector Broad Spectrum SPF 30 Sunscreen for Body; Kiehls Since 1851 Activated Sun Protector Broad Spectrum SPF 50 Sunscreen; Kiehls Since 1851 Activated Sun Protector Broad Spectrum SPF 50 Sunscreen Water Resistant 80 MInutes; Kiehls Since 1851 Activated Sun Protector For Body Broad Spectrum SPF 50 Sunscreen; Kiehls Since 1851 Activated Sun Protector for Face Broad Spectrum SPF 50 Sunscreen; Kiehls Since 1851 Broad Spectrum SPF 30 Sunscreen Powerful Wrinkle Reducing; Kiehls Since 1851 CrossTerrain UV Skin Protector Broad Spectrum SPF 50 Sunscreen Water Resistant 80 Minutes; Kiehls Since 1851 CrossTerrain UV Skin Protector SPF 50 Water and Swear Resistant Sunscreen; Kiehls Since 1851 Dermatologist Solutions Activated Sun Protector Sunscreen Broad Spectrum SPF 50 For Body; Kiehls Since 1851 Dermatologist Solutions Skin Tone Correcting and Beautifying BB Sunscreen; Kiehls Since 1851 Dermatologist Solutions Super Fluid UV Defense Ultra Light Sunscreen SPF 50 Plus; Kiehls Since 1851 Dermatologist Solutions SuperFluid UV Defense Broad Spectrum SPF 50 Plus Sunscreen; Kiehls Since 1851 Facial Fuel Daily Energizing Moisture Treatment for Men Broad Spectrum SPF 20 Sunscreen; Kiehls Since 1851 Facial Fuel UV Guard Broad Spectrum SPF 50 Plus Sunscreen WR80; Kiehls Since 1851 Facial Fuel UV Guard Fast Absorbing Sunscreen for Men SPF 50 Plus; Kiehls Since 1851 Super Multi Corrective Broad Spectrum SPF 30 Sunscreen; Kiehls Since 1851 Ultra Facial Broad Spectrum SPF 30 Sunscreen; Kiehls Since 1851 Ultra Facial Moisturizer Broad Spectrum SPF 30 Sunscreen For All Skin Types; Kiehls Super Fluid Daily UV Defense SPF 50 plus Anti-Pollution Lightweight Formula for All Skin Types; Kinesys Broad Spectrum SPF 50 Alcohol Free Sunscreen; Kiss My Face Cool Sport SPF 50 Broad Spectrum; Kiss My Face Kids Defense Broad Spectrum SPF 50; Kiss My Face SPF 30 Face Stick; Kiss My Face SPF 30 Lip Balm; Kiss My Face SPF 30 Sport Lip Balm; Kiss My Face SPF 30 Sport Treatmint Lip Balm; Kiss My Face SPF-15 Dry; Kiss Therapy SPF 30 Blueberry Lime Lip Balm; Kiss Therapy SPF 30 Cucumber Melon Lip Balm; Kiss Therapy SPF 30 Grapefruit; Kiss Therapy SPF 30 Strawberry; Kiss Therapy SPF 30 Strawberry Mint Lip Balm; Kiss Therapy SPF 30 Superfruit; Kiss Therapy SPF 30 Watermelon Rosemary Lip Balm; Kiss Therapy Sunscreen SPF 30 Lip Balm; Klenskin Broad Spectrum Sunscreen SPF-30; Klenskin SPF Lip Balm Broad Spectrum SPF-50 (all Flavors); Klenskin Sunscreen Face and Body Broad Spectrum SPF 30; Korres Suncare Yoghurt Nourishing Fluid Veil Face Sunscreen Broad Spectrum SPF 30; Korres Suncare Yoghurt Nourishing Milk Body Sunscreen Broad Spectrum SPF 44; Kroger Baby SPF 50; Kroger Baby SPF 50 Sunscreen; Kroger Baby Sunscreen SPF 70; Kroger Dry Touch Ultra Sheer SPF 100 Sunscreen; Kroger Dry Touch Ultra Sheer SPF 70 Sunscreen; Kroger Kids SPF 50 Sunscreen; Kroger Kids SPF 50 Sunstick; Kroger Kids Sunscreen SPF 70; Kroger Kids Tear Free Spf50; Kroger Kroger Kids Sunscreen SPF 50; Kroger Oil Free Sunscreen SPF 30; Kroger SPF 15; Kroger SPF 30 Sunscreen; Kroger SPF 50; Kroger Sheer Dry Touch Sunscreen SPF 55; Kroger Sheer Dry Touch Sunscreen SPF 70; Kroger Sheer dry-touch SFP 30; Kroger Sport SPF 15 Sunscreen; Kroger Sport SPF 30 Sunscreen; Kroger Sport SPF 50 Sunstick; Kroger Sport Sunscreen SPF 30; Kroger Sport Sunscreen SPF 50; Kroger Sport sunscreen SPF 50; Kroger Sunscreen SPF 30; Kroger Tanning SPF 15 Sunscreen; L OCCITANE AU BRESIL - JENIPAPO Lip Gloss SPF 25 Broad Spectrum; L Occitane Youthful Hand with Almond Tree Native Cells Broad Spectrum SPF 15 Sunscreen; LA Bodies Eclipse Sunscreen SPF 30; LA Bodies Eclipse Sunscreen SPF 50; LA MER THE REPARATIVE BODY SUN Broad Spectrum SPF 30; LA MER THE REPARATIVE FACE SUN Broad Spectrum SPF 30; LA Mer The Broad Spectrum SPF 50 Uv Protecting Fluid; LA Mer The Reparative Body Sun Lotion SPF 30; LA Mer The Reparative Face Sun Lotion SPF 30; LA Mer The SPF 18 Fluid; LA Mer The SPF 18 Fluid Tint; LA Mer The SPF 50 Uv Protecting Fluid; LAPOTHICELL Sunscreen; LBEL DEFENSE 365 Daily Protective Facial SPF 50; LBEL DEFENSE 365 oil-free daily protective facial SPF 50; LBEL DEFENSE TOTAL broad spectrum SPF 50 plus sunscreen for face and body; LBEL DEFENSE TOTAL broad spectrum SPF 50plus sunscreen for face and body; LBEL Defense Total broad spectrum SPF 50 plus sunscreen for face and body; LBEL Defense Total broad spectrum SPF 50plus sunscreen for face and body; LBEL SUPREMACIE NX JOUR Replenishing Daytime Face SPF 15 Normal To Oily Skin; LBEL SUPREMACIE NX JOUR Replenishing Treatment Daytime Face SPF 15 Normal To Dry Skin; LBEL SUPREMACIE NX JOUR Replenishing Treatment Daytime Face SPF 15 Normal To Oily Skin; LIPSTICK QUEEN ENDLESS SUMMER Broad Spectrum SPF 15 Sunscreen; LOCCITANE ALMOND VELVET HANDS Youthful Hand Broad Spectrum SPF 15 Sunscreen; LOreal Paris Advanced Suncare Invisible Protect Clear Cool 30 Broad Spectrum SPF 30 Sunscreen; LOreal Paris Advanced Suncare Invisible Protect Clear Cool 50 Plus Broad Spectrum SPF 50 Plus Sunscreen; LOreal Paris Advanced Suncare Invisible Protect Dry 30 Broad Spectrum SPF 30 Sunscreen; LOreal Paris Advanced Suncare Invisible Protect Dry 50 Plus Broad Spectrum SPF 50 Plus Sunscreen; LOreal Paris Advanced Suncare Invisible Protect Sheer 30 Broad Spectrum SPF 30 Sunscreen; LOreal Paris Advanced Suncare Invisible Protect Sheer 50 Plus Broad Spectrum SPF 50 Plus; LOreal Paris Advanced Suncare Quick Dry Sheer Finish 30 Broad Spectrum SPF 30 Sunscreen; LOreal Paris Advanced Suncare Quick Dry Sheer Finish 50 Plus Broad Spectrum SPF 50 Plus Sunscreen; LOreal Paris Advanced Suncare Silky Sheer 30 Broad Spectrum SPF 30 Sunscreen; LOreal Paris Advanced Suncare Silky Sheer 50 Plus Broad Spectrum SPF 50 Plus Sunscreen; LOreal Paris Advanced Suncare Silky Sheer BB Face 50 Plus Broad Spectrum SPF 50 Plus Sunscreen; LOreal Paris Advanced Suncare Silky Sheer Face 30 Broad Spectrum SPF 30 Sunscreen; LOreal Paris Advanced Suncare Silky Sheer Face 50 Plus Broad Spectrum SPF 50 Plus Sunscreen; LOreal Paris Age Perfect Cell Renewal Day Moisturizer Broad Spectrum SPF 15 Sunscreen; LOreal Paris Age Perfect Glow Renewal Day Moisturizer Broad Spectrum SPF 30 Sunscreen; LOreal Paris Age Perfect Hydra Nutrition Instant Glow Daily Broad Spectrum SPF 30 Sunscreen; LOreal Paris Ideal Moisture Dry Skin Broad Spectrum SPF 25 Sunscreen; LOreal Paris Ideal Moisture Even Skin Tone Moisturizer Broad Spectrum SPF 25 Sunscreen; LOreal Paris Ideal Moisture Normal Skin Broad Spectrum SPF 25 Sunscreen; LOreal Paris Ideal Moisture Sensitive Skin Broad Spectrum SPF 25 Sunscreen; LOreal Paris Men Expert Comfort Max Hydra Energetic After Shave Balm Broad Spectrum SPF 15 Sunscreen; LOreal Paris Men Expert Vita Lift Daily Moisturizer Sunscreen Broad Spectrum SPF 15; LOreal Paris Revitalift Clinical Repair 10 SPF 20; LOreal Paris Revitalift Miracle Blur Broad Spectrum SPF 30 Sunscreen; LOreal Paris Revitalift Triple Power Broad Spectrum SPF 30 Sunscreen; LOreal Paris Skin Expert Revitalift Bright Reveal Brightening Day Moisturizer Broad Spectrum SPF 30 Sunscreen; LOreal Paris Skin Expertise Revitalift Complete SPF 30 Day Antiwrinkle and Firming Moisturizer; LOreal Paris Sublime Bronze Summer Express Wash Off Face Bronzer Broad Spectrum SPF 20 Sunscreen; LOreal Paris Sublime Sun 30 Crystal Clear Sunscreen Mist Broad Spectrum SPF 30 Water Resistant; LOreal Paris Sublime Sun Advanced Sunscreen SPF 30; LOreal Paris Sublime Sun Advanced Sunscreen SPF 30 Crystal Clear Mist; LOreal Paris Sublime Sun Advanced Sunscreen SPF 30 Hydra; LOreal Paris Sublime Sun Advanced Sunscreen SPF 50 Plus; LOreal Paris Sublime Sun Advanced Sunscreen SPF 50 Plus Crystal Clear Mist; LOreal Paris Sublime Sun Advanced Sunscreen SPF 50 Plus Hydra; LOreal Paris Sublime Sun Advanced Sunscreen SPF 50 Plus Silk Sunshield For Face; LOreal Paris Youth Code Dark Spot Corrector Broad Spectrum SPF 30 Sunscreen; LOreal Paris Youth Code Day; LUACELL Illuminating White Label Sun Cream; LUMIOR Daylight Moisturizer Broad Spectrum SPF 20; LUMIOR Exclusive Day Broad Spectrum SPF 20; La Prairie Sun Protection Face; La Roche Posay Anthelios 30 Ultralight Sunscreen; La Roche Posay Anthelios 60 Ultralight Sunscreen; La Roche Posay Face Body Anthelios SPF 60 Melt In Milk Fast absorbing, velvety finish for all skin types with Cell-OC Shield XL; La Roche Posay Laboratoire Dermatologique Anthelios 30 Cooling Water Broad Spectrum SPF 30 Sunscreen; La Roche Posay Laboratoire Dermatologique Anthelios 45 Ultra Light Sunscreen Fluid Broad Spectrum SPF 45 Sunscreen Water Resistant 40 Minutes; La Roche Posay Laboratoire Dermatologique Anthelios 45 Ultra Light Sunscreen Fluid Water Resistant 40; La Roche Posay Laboratoire Dermatologique Anthelios 50 Daily Antiaging Primer with Sunscreen; La Roche Posay Laboratoire Dermatologique Anthelios 60 Breakout Free Oil Free Face Dry Touch Broad Spectrum SPF 60 Sunscreen Water Resistant 80 Minutes; La Roche Posay Laboratoire Dermatologique Anthelios 60 Face Light Fluid Sunscreen Broad Spectrum SPF 60 Water Resistant 80 Minutes; La Roche Posay Laboratoire Dermatologique Anthelios 60 Face Ultra Light Fluid Sunscreen Broad Spectrum SPF 60; La Roche Posay Laboratoire Dermatologique Anthelios 60 Face and Body Cooling Water Broad Spectrum SPF 60 Sunscreen Water Resistant 80 Minutes; La Roche Posay Laboratoire Dermatologique Anthelios 60 Melt In Sunscreen Milk Broad Spectrum SPF 60 Face and Body; La Roche Posay Laboratoire Dermatologique Anthelios 60 Melt In Sunscreen Milk Face and Body Broad Spectrum SPF 60 Water Resistant 80 Minutes; La Roche Posay Laboratoire Dermatologique Anthelios 60 Ultra Light Sunscreen Broad Spectrum SPF 60 Water Resistant 80 Minutes; La Roche Posay Laboratoire Dermatologique Anthelios 60 Ultra Light Sunscreen Fluid; La Roche Posay Laboratoire Dermatologique Anthelios AOX Daily Antioxidant Serum Broad Spectrum SPF 50 Sunscreen; La Roche Posay Laboratoire Dermatologique Anthelios Clear Skin Face Oil Free Dry Touch Broad Spectrum SPF 60 Sunscreen Water Resistant 80 Minutes; La Roche Posay Laboratoire Dermatologique Anthelios Dermo Kids Gentle Face and Body Broad Spectrum SPF 60 Sunscreen Water Resistant 80 Minutes; La Roche Posay Laboratoire Dermatologique Hydraphase UV Intense Broad Spectrum SPF 20 Sunscreen; La Roche Posay Laboratoire Dermatologique Hydraphase UV Intense Moisturizer Broad Spectrum SPF 20 Sunscreen; La Roche Posay Laboratoire Dermatologique Pigmentclar Daily Dark Spot Correcting Moisturizer Broad Spectrum SPF 30 Sunscreen; La Roche Posay Laboratoire Dermatologique Sport Anthelios Activewear Broad Spectrum SPF 60 Sunscreen; La Roche Posay Laboratoire Dermatologique Toleriane Double Repair Moisturizer UV Broad Spectrum SPF 30 Sunscreen; La Roche-Posay Laboratoire Dermatologique Anthelios 45 Ultra Light Sunscreen Fluid SPF 45; La Roche-Posay Laboratoire Dermatologique Anthelios 60 Ultra Light Sunscreen Fluid; La Roche-Posay Laboratoire Pharmaceutique Anthelios 60 Melt In Sunscreen Milk SPF 60; La Roche-Posay Laboratoire Pharmaceutique Anthelios 60 Melt In Sunscreen SPF 60; Lab Series Day Rescue Defense Broad Spectrum SPF 35; Lab Series Day Rescue Defense Lotion SPF 35; Lacura Face Care Q10 Day SPF-15; Lait Solaire Corps Fps 50+; Lait Solaire Corps Lotion Protectrice Corps Fps 30; Lait Solaire Corps Lotion Protectrice Corps Fps 50 Plus; Lait Solaire Corps Protection Solaire Fps 15; Lait Solaire Corps Sunscreen Lotion Body; Lancome Absolue Revitalizing Brightening Velvet SPF 15 with Grand Rose Extracts; Lancome Bienfait UV SPF 50 Plus Super Fluid Facial Sunscreen; Lancome Paris Absolue Precious Cells Broad Spectrum SPF 15 Sunscreen Intense Revitalizing; Lancome Paris Absolue Revitalizing Brightening Velvet Sunscreen Broad Spectrum SPF 15; Lancome Paris Bienfait UV 50 Plus Broad Spectrum SPF 50 Plus Water Resistant 80 Minutes Super Fluid Facial Sunscreen; Lancome Paris City Miracle Broad Spectrum SPF 50 Sunscreen CC; Lancome Paris Flash Bronzer AntiAge Tinted AntiAge Self Tanning Face SPF 15; Lancome Paris Renergie Lift MultiAction Ultra Firming and Dark Spot Correcting Moisturizer Broad Spectrum SPF 30 Sunscreen; Lancome UV Expert Aquagel Defense 50 Broad Spectrum SPF 50 with Antioxidant Vitamin E; Land Shark SPF 45; Laneige Triple Sunscreen; Large Defense Uv; Large Écran Uv Ultra Uv Sunscreen; Lavelier Divine Day Defense Broad Spectrum SPF 30; Lbel Defense 365 Daily Protective Facial SPF 50; Lbel Defense 365 Daily Protective SPF 50; Lbel Uv Defense 365; Leader Baby SPF 50; Leader Baby Sunscreen SPF 50; Leader GP SPF 15 CS; Leader General Protection SPF 30; Leader General Protection SPF 30 Sunscreen; Leader General Protection SPF 70; Leader General Protection Sunscreen SPF 30; Leader General Protection Sunscreen SPF 50; Leader Kids SPF 50 Sunscreen; Leader Kids SPF 90; Leader Sport SPF 30; Leader Sport SPF 50; Leader Sport Sunscreen SPF 50; Leader Sport Sunscreen SPF 50 Moisturizing; Leader Ultra Sheer SPF 100 Sunscreen; Leaders Sunbuddy Daily Moisture Sunscreen; Life Brand Baby Sunblock 30 SPF; Life Brand Kids Sunblock 30 SPF; Life Brand Kids Sunscreen Clear Continuous Spray SPF/fps 60; Life Brand Kids Sunscreen Lotion SPF 50+; Life Brand Kids Sunscreen Spray; Life Brand Sport Sunscreen Broad Spectrum Spray; Life Brand Sport Sunscreen Continuous Spray; Life Brand Sport Sunscreen Continuous Spray No Pumping Needed; Life Brand Sport Sunscreen Continuous Spray SPF 50+; Life Brand Sunblock 30 SPF; Life Brand Sunblock 30 SPF - Lot Top; Life Brand Sunscreen Continuous Spray; Life Brand Sunscreen Continuous Spray Coconut Lime Scented SPF/fps 30; Life Brand Sunscreen Continuous Spray No Pumping Needed SPF/fps 85; Life Brand Sunscreen Continuous Spray Pomegranate Scented SPF/fps 30; Life Brand Sunscreen Continuous Spray SPF/fps 15; Life Brand Sunscreen Face Lotion SPF 50+; Life Brand Sunscreen Lotion SPF 30; Life Brand Sunscreen Lotion SPF 50+; Life Brand Sunscreen Lotion Écran Solaire 30 SPF/fps; Life Brand Sunscreen Lotion Écran Solaire 45 SPF/fps; Life Brand Sunscreen Towelettes; Life Brand Sunthera 3 SPF/fps 15; Life Brand Sunthera 3 SPF/fps 30 Sun Protection Lotion Face; Life Brand Sunthera 3 SPF/fps 60 Sun Protection Lotion Face; Life Brand Sunthera3 Sport SPF/fps 60 Sun Protection Lotion Lotion Écran Solaire; Life Extension Shade Factor SPF30; Lifecell BROAD SPECTRUM SPF 50 BB SHEER; Liftactiv Specialist Fps/SPF 30; Light and Delicate Sunscreen Spf15; Light and Delicate Sunscreen Spf30; Lightweight Miracle Moisturiser Sunscreen Broad Spectrum SPF 20; Line Interception Power Duo Day Cream Suncreen Broad Spectrum SPF 30; Line Interception Power Duo Day Cream Sunscreen Broad Spectrum SPF 30; Linea Jose Ignacio For Face Sunscreen Broad Spectrum SPF 30; Lionesse Opal Sheer Shield SPF 30; Lip Balm Mint Cvs; Lip Balm Spf30 Cvs; Lip Balm Vanilla Flavored; Lip Balm and Sunstick; Lip Gloss; Lip Saver Sunscreen SPF 30; Lip Screen Broad Spectrum SPF 40; Lip and Cheek Treat Broad Spectrum SPF 40 Supergoop; Lipidol; Loccitane En Provence Immortelle Divine Light Spf20; Loccitane En Provence Immortelle Precieuse Light Spf20; Loccitane En Provence Light Comforting SPF 15; Loccitane Immortelle Divine Spf20; Loccitane Immortelle Precious Spf20; London Drug Sunblock Lotion 30spf; London Drugs Kids 30 SPF Sunblock Lotion; London Drugs' Baby Sunblock SPF 30; London Drugs' Sunblock Lotion SPF 30; Loreal Paris Age Perfect Radiant Serum foundation SPF 50; Loreal Paris Age Perfect Rosy Tone SPF 30 Renew and revive healthy tone Visibly younger-looking skin; Loreal Paris Revitalift Miracle Blur Instant Skin Smoother Original Opi-Blur Technology SPF 30; Lotion SPF 30; Lotion SPF 45; Lotion Solaire Anti-âge; Lubriderm; Lumasol; Lumene Sisu Moisture Remedy Day Sunscreen Broad Spectrum SPF 20; Lumiere de Vie Daily Brightening Broad Spectrum SPF 50; Lumipearl Perfect and Protect Day Broad Spectrum SPF 25 Sunscreen; M.A.c Prep + Prime Bb Beauty Balm SPF 50; M.A.c Prep + Prime Face Protect Lotion SPF 50; M.A.c Suntints SPF 20 Liquid Lip Balm; MAMONDE Daily Sunscreen; MAMONDE UV Fluid; MEIJER Sport SPF 30; MEN Face Shield SPF 18; MISSHA All Around Safe Block Daily Sun For Men SPF50; MK Men Advanced Facial Hydrator Sunscreen SPF 30; MKMen Advanced Facial Hydrator Sunscreen SPF 30; MKMen Moisturizer Sunscreen Broad Spectrum SPF 25; MKRS Broad Spectrum SPF50; MOROCCAN Lightweight Hydrating Sun Protection SPF 30; Mac Prep and Prime Face Protect Broad Spectrum SPF 50; Macroantioxidant Sun Protection; Makeup Setting Spray Pulvérisation Pour Fixer Le Maquillage; Makeup Setting with Green Tea Aloe SPF 30 Broad Spectrum; Malie Organics Reef Safe Sunscreen SPF-30; Malie Organics Reef Safe Sunscreen SPF-50; Malin and Goetz SPF 30 Face Moisturizer; Mans Best Friend; Mario Badescu Skin Care Oil Free Moisturizer Broad Spectrum SPF 30 Sunscreen; Market Basket Kids SPF 50 Sunscreen; Mary Kay Botanical Effects SPF/fps 30; Mary Kay CC Cream Sunscreen Broad Spectrum SPF 15 Deep; Mary Kay CC Cream Sunscreen Broad Spectrum SPF 15 Light to Medium; Mary Kay CC Cream Sunscreen Broad Spectrum SPF 15 Medium to Deep; Mary Kay CC Cream Sunscreen Broad Spectrum SPF 15 Very Deep; Mary Kay CC Cream Sunscreen Broad Spectrum SPF 15 Very Light; Mary Kay Cc Cream; Mary Kay Foundation Primer; Mary Kay Foundation Primer SPF 15; Mary Kay Foundation Primer with SPF 15; Mary Kay SPF 30 Sunscreen; Mary Kay Sun Protector SPF 35; Mary Kay SunCare SPF 30 Sunscreen; Mary Kay Suncare SPF 50 Sunscreen; Mary Kay Suncare Sunscreen Broad Spectrum SPF 50; Mary Kay Suncare Sunscreen SPF 30; Mary Kay Suncare Sunscreen SPF 50; Mary Kay TimeWise Age Fighting Moisturizer SPF 30; Mary Kay TimeWise Age Minimize 3D Day Cream SPF 30 Broad Spectrum Sunscreen (Combo to Oily Skin); Mary Kay TimeWise Age Minimize 3D Day Cream SPF 30 Broad Spectrum Sunscreen (Normal to Dry Skin); Mary Kay TimeWise Day Solution SPF 30 Broad Spectrum; Mary Kay TimeWise Day Solution SPF 35; Mary Kay TimeWise Miracle Set 3D Sampler (Combo to Oily Skin); Mary Kay TimeWise Miracle Set 3D Sampler (Normal to Dry Skin); Mary Kay TimeWise Miracle Set 3D The Go Set (Combo to Oily Skin); Mary Kay TimeWise Miracle Set 3D The Go Set (Normal to Dry Skin); Mary Kay TimeWise Repair Volu-Firm Day Cream Broad Spectrum SPF 30; Mary Kay TimeWise Repair Volu-Firm Sampler Set; Mary Kay TimeWise Repair Volu-Firm Set; Mary Kay TimeWise Repair Volu-Firm The Go Set; Mary Kay TimeWise Repair VoluFirm Day Cream SPF 30; Matte Defense SPF 30; Matte and Clear Matifying Protector SPF 25; Max Block Broad Spectrum SPF 30; Max Block Broad Spectrum SPF 30 sport; Max Block Maz Block SPF 30 Sport Sunscreen; Max Block Maz Block SPF 30 Sunscreen; Max Block Maz Block SPF 50 Kids Sunscreen; Max Block Maz Block SPF 50 Sunscreen; Max Sheer All Day Moisture Defense; Max Sheer All Day Moisture Defense Lotion; Maxglow Hydrafoam Daily Moisturizer; Maxi Look Lips Gloss Stick SPF 15; May New York Secret Muse UV Vita Sun Cushion; May New York Super Clear Sun 16g; May New York Super Clear Sun 21g; Maybelline Dream Urban Cover full coverage protective make-up SPF 50 Antioxidant-Enriched Pollution Protection; Me Day S1 SPF 25; Me Day S3 SPF 25; Me Day S9 SPF 25; Me Day T1 SPF 25; Me Day T3 SPF 25; Me Day T9 SPF 25; Meaningful Beauty Cindy Crawford Anti-Aging Day Creme with Environmental Protection Broad Spectrum SPF 30; Meaningful Beauty Cindy Crawford Environmental Protecting Moisturizer Broad Spectrum SPF 30 Sunscreen; Meijer; Meijer AM Facial Moisturizing Broad Spectrum SPF 30 Sunscreen; Meijer Baby SPF 50; Meijer Broad Spectrum SPF 15; Meijer Broad Spectrum SPF 30 Sunscreen; Meijer Broad Spectrum SPF 50 Sunscreen; Meijer Family Sport 30; Meijer Kids Tear Free SPF 50; Meijer Oil Free Faces SPF 30; Meijer Oil Free SPF 15; Meijer Oil Free SPF 30; Meijer SPF 15; Meijer SPF 30; Meijer SPF 30 Face; Meijer SPF 30 Ultra Dry Sheer; Meijer SPF 70; Meijer Sheer Moisturing SPF 30; Meijer Sheer SPF 15; Meijer Sheer SPF 30; Meijer Sheer SPF 55; Meijer Sport SPF 30; Meijer Sport SPF 50; Members Mark Value Size SPORT SUNSCREEN BROAD SPECTRUM SPF 50; Merle Norman Dual Spectrum SPF 30; Miami Beach Faces Sunscreen 50 Broad Spectrum SPF 50; Miami Beach Kids Sunscreen Broad Spectrum SPF 50; Miami Beach SPF 50 Kids C/S Sunscreen; Miami Beach Sea Sunscreen 30 Broad Spectrum SPF 30; Miami Beach Sea Sunscreen Broad Spectrum SPF 30; Miami Beach Sport Sunscreen 50 Broad Spectrum SPF 50; Mineral Radiance Energizing Day BS SPF 15; Mineralium Hdra Source Moisturizing Protector SPF 25; Mint Condition Lip Shield SPF 30 Supergoop; Miracle Worker SPF 55; Mkmen Moisturizer Sunscreen SPF 25; Moisture Boost Daily Restoring Complex Broad Spectrum SPF 30; Moisture Oil-free SPF 30; Moisture Sun Protector; Moisturizing Face Shield; Moisturizing Facial Sunscreen; Moisturizing Lip BalmSPF30; Moisturizing Protector SPF 30; Moisturizing Sunscreen Lotion Sun Bum Broad Spectrum SPF 15; Moisturizing Sunscreen Lotion Sun Bum Broad Spectrum SPF 30; Moisturizing Sunscreen Lotion Sun Bum Broad Spectrum SPF 50; Moonshot Multi Protection UV Bouncer; Moroccanoil SPF 30; Moroccanoil SPF 50; Mousse Exquise Auto-bronzante Embellissante SPF 15; Mt Everest Skreen; Multi Effect Day Cream SPF 25; Multi-Active Jour SPF 20 Broad Spectrum Sunscreen; Multi-action Cream SPF 30; Multi-regenerant Jour Fluide Lift Anti-rides Toutes Peaux SPF 15; Murad - Acne Control - Oil and Pore Control Mattifier SPF-45; Murad - Age Reform - Perfecting Day SPF 30; Murad - Environmental Shield - Essential-C Day Moisture Broad Spectrum SPF 30; Murad - Resurgence - Age-balancing Moisture SPF 30; Muskol Insect Repellent With Sunblock SPF 15; My Sunny Watery Sun Essence; NARS SMOOTH and PROTECT PRIMER; NO-AD 15 Sunscreen; NO-AD 30 Sunscreen; NO-AD 45 Sunscreen; NO-AD 60 Sunscreen; NO-AD 85 Sunscreen; NO-AD Kids 50 Sunscreen; NO-AD Kids SPF50 Continuous Mist Sunscreen; NO-AD SPF45 Continuous Mist Sunscreen; NO-AD Splash 30 Sunscreen; NO-AD Sport 50 Sunscreen; NO-AD Sport SPF30 Continuous Mist Sunscreen; NO-AD Suncare Ltn SPF 50; NU SKIN ageLOC Radiant Day SPF 22; NYX Professional Makeup Bare With Me Daily Moisturizing Primer with Cannabis Sativa Seed Oil SPF 30; Nars Laguna Body Tint; Nars Pro-prime Multi-protect Primer; Nars Radiance Primer; Nature Republic California Moisturizing Aloe Daily Sun Cream SPF 50+; Nature's Gate SPF 30 Lotion; Natures Gate Aqua SPF 50; Natures Gate Face SPF 25; Natures Gate Kids SPF 50; Natures Gate Sport SPF 50; Naturissima Vitaverde Sun High Protection SPF 50; Nelly De Vuyst Bruxelles SPF 30 Broad Spectrum Sunscreen; Nelly de Vuyst SPF 30 Broad Spectrum Sunscreen; Neogen Dermalogy Day-light Protection Airy Sunscreen; Neora Age IQ Invisi-Bloc Sunscreen; Neostrata Protective Lotion Broad Spectrum Uva/uvb Protection SPF 50+; Neostrata Ultra-light Sun Lotion Broad Spectrum Uva/uvb Protection SPF 50+; Neova Day Therapy SPF 30; Neurogena Healthy Defense Moisturizer Sunscreen Broad Spectrum SPF50; Neutrogena Age Defense Anti Oxidant Daily Moisturizer SPF20; Neutrogena Age Defense Anti Oxidant Daily Moisturizer SPF20 Sheer Tint; Neutrogena Age Shield Anti Oxidant Face Sunscreen Broad Spectrum SPF70; Neutrogena Age Shield Face Oil Free Sunscreen Broad Spectrum SPF 110; Neutrogena Age Shield Face Oil Free Sunscreen Broad Spectrum SPF 70; Neutrogena Age Shield Face Oil Free Sunscreen Broad Spectrum SPF110; Neutrogena Age Shield Face SPF 110; Neutrogena Age Shield Face Sunscreen Broad Spectrum SPF70; Neutrogena Ageless Essentials Continuous Hydration Daily Moisturizer SPF25; Neutrogena Ageless Intensive Anti-Wrinkle Instant Radiance Daily Moisturizer SPF25; Neutrogena Ageless Intensives Anti Wrinkle Deep Wrinkle Daily Moisturizer Sunscreen Broad Spectrum SPF20; Neutrogena Ageless Intensives Tone Correcting Daily Moisturizer Broad Spectrum SPF30; Neutrogena Ageless Intensives Tone Correcting Tinted Daily Moisturizer SPF 30 Helioplex; Neutrogena Ageless Restoratives Anti-Oxidant Daily Moisturizer SPF 20 Helioplex; Neutrogena Anti-Wrinkle Deep Wrinkle Daily Moisturizer SPF 20 helioplex; Neutrogena Beach Defense Sunscreen Broad Spectrum SPF50 Plus; Neutrogena Beach Defense Water Plus Sun Protection Sunscreen Broad Spectrum SPF 30; Neutrogena Beach Defense Water Plus Sun Protection Sunscreen Broad Spectrum SPF 50; Neutrogena Beach Defense Water Plus Sun Protection Sunscreen Broad Spectrum SPF 60 Plus; Neutrogena Beach Defense Water Plus Sun Protection Sunscreen Broad Spectrum SPF 70; Neutrogena Beach Defense Water Plus Sun Protection Sunscreen Broad Spectrum SPF100; Neutrogena Beach Defense Water Plus Sun Protection Sunscreen Broad Spectrum SPF30; Neutrogena Beach Defense Water Plus Sun Protection Sunscreen Broad Spectrum SPF50; Neutrogena Beach Defense Water Plus Sun Protection Sunscreen Broad Spectrum SPF50 Plus; Neutrogena Beach Defense Water Plus Sun Protection Sunscreen Broad Spectrum SPF70; Neutrogena Beach Defense Water Plus Sun Protection Sunscreen Stick Broad Spectrum SPF 50 Plus; Neutrogena Bright Boost Moisturizer Broad Spectrum SPF 30; Neutrogena Clear Body Breakout Free Oil Free Sunscreen Broad Spectrum SPF 30; Neutrogena Clear Face; Neutrogena Clear Face Break Out Free Sunscreen Broad Spectrum SPF30; Neutrogena Clear Face Break Out Free Sunscreen Broad Spectrum SPF55; Neutrogena Clear Face Break-Out Free Sunscreen SPF 30 Helioplex; Neutrogena Clear Face Break-Out Free Sunscreen SPF 55 Helioplex; Neutrogena Clear Face Breakout Free Oil Free Broad Spectrum SPF 55; Neutrogena Clear Face Breakout Free Oil Free Sunscreen Broad Spectrum SPF 30; Neutrogena Clear Face Breakout Free oil Free Sunscreen Broad Spectrum SPF 50; Neutrogena Clear Face Sunscreen Lotion; Neutrogena Clinical Lifting Wrinkle Treatment System; Neutrogena Colour Boosting Sunscreen SPF 30; Neutrogena Cool Dry Sport Sunscreen Broad Spectrum SPF 70; Neutrogena CoolDry Sport Sunscreen Broad Spectrum SPF 30; Neutrogena CoolDry Sport Sunscreen Broad Spectrum SPF 50; Neutrogena CoolDry Sport Sunscreen Broad Spectrum SPF100; Neutrogena CoolDry Sport Sunscreen Broad Spectrum SPF30; Neutrogena CoolDry Sport Sunscreen Broad Spectrum SPF70; Neutrogena CoolDry Sport Sunscreen SPF 50 with Micromesh; Neutrogena CoolDry Sport with Micromesh Face Oil free Sunscreen Broad Spectrum SPF 70; Neutrogena CoolDry Sport with Micromesh Sunscreen Broad Spectrum SPF 30; Neutrogena CoolDry Sport with Micromesh Sunscreen Broad Spectrum SPF 50; Neutrogena CoolDry Sport with Micromesh Sunscreen Broad Spectrum SPF 70; Neutrogena CoolDry Sport with Micromesh Sunscreen Broad Spectrum SPF30; Neutrogena CoolDry Sport with Micromesh Sunscreen Broad Spectrum SPF50 Plus; Neutrogena CoolDry Sport with Micromesh Sunscreen Broad Spectrum SPF70; Neutrogena Cooldry Sport Sunscreen Broad Spectrum SPF 50 Plus; Neutrogena Day Activating SPF 30; Neutrogena Deep Moisture Day with Sunscreen Broad Spectrum SPF20; Neutrogena Fresh Cooling Body Mist Sunscreen SPF 60; Neutrogena Fresh Cooling Sunscreen Body Mist Broad Spectrum SPF45; Neutrogena Fresh Cooling Sunscreen Body Mist Broad Spectrum SPF70 Plus; Neutrogena Healthy Defense Daily Moisturizer SPF 50 with Helioplex; Neutrogena Healthy Defense Daily Moisturizer SPF30 with Helioplex; Neutrogena Healthy Defense Daily Moisturizer Sunscreen Broad Spectrum SPF 50; Neutrogena Healthy Defense Daily Moisturizer Sunscreen Broad Spectrum SPF30; Neutrogena Healthy Defense Daily Moisturizer Sunscreen Broad Spectrum SPF50; Neutrogena Healthy Defense Moisturizer SPF 50; Neutrogena Healthy Skin; Neutrogena Healthy Skin Compact Makeup SPF 55 Buff 30; Neutrogena Healthy Skin Compact Makeup SPF 55 Classic Ivory 10; Neutrogena Healthy Skin Compact Makeup SPF 55 Natural Beige 60; Neutrogena Healthy Skin Compact Makeup SPF 55 Warm Beige 90; Neutrogena Healthy Skin Compact Makeup SPF Nude 40; Neutrogena Healthy Skin Compact Makeup SPF55 Fresh Beige 70; Neutrogena Healthy Skin Compact Makeup SPF55 Natural Ivory 20; Neutrogena Healthy Skin Compact Makeup SPF55 Soft Beige 50; Neutrogena Healthy Skin Compact Makeup with sunscreen broad spectrum SPF 55 Buff 30; Neutrogena Healthy Skin Compact Makeup with sunscreen broad spectrum SPF 55 Classic Ivory 10; Neutrogena Healthy Skin Compact Makeup with sunscreen broad spectrum SPF 55 Natural Beige 60; Neutrogena Healthy Skin Compact Makeup with sunscreen broad spectrum SPF 55 Warm Beige 90; Neutrogena Healthy Skin Compact Makeup with sunscreen broad spectrum SPF Nude 40; Neutrogena Healthy Skin Compact Makeup with sunscreen broad spectrum SPF55 Fresh Beige 70; Neutrogena Healthy Skin Compact Makeup with sunscreen broad spectrum SPF55 Natural Ivory 20; Neutrogena Healthy Skin Compact Makeup with sunscreen broad spectrum SPF55 Soft Beige 50; Neutrogena Healthy Skin Firming Sunscreen Broad Spectrum SPF15; Neutrogena Healthy Skin Firms and Lifts SPF15; Neutrogena Healthy Skin Glow Sheers Illuminating Tinted Moisturizer - Fair to Light 20 Sunscreen Broad Spectrum SPF30; Neutrogena Healthy Skin Glow Sheers Illuminating Tinted Moisturizer - Ivory to Fair 10 Sunscreen Broad Spectrum SPF30; Neutrogena Healthy Skin Glow Sheers Illuminating Tinted Moisturizer - Light to Medium 30 Sunscreen Broad Spectrum SPF30; Neutrogena Healthy Skin Glow Sheers Illuminating Tinted Moisturizer - Medium to Tan 40 Sunscreen Broad Spectrum SPF30; Neutrogena Healthy Skin Primer; Neutrogena Healthy Skin Primer Broad Spectrum SPF15; Neutrogena Healthy Skin Radiant Tinted Moisturizer Sunscreen Broad Spectrum SPF 30, Sheer Fair 20; Neutrogena Healthy Skin Radiant Tinted Moisturizer Sunscreen Broad Spectrum SPF 30, Sheer Ivory 10; Neutrogena Healthy Skin Radiant Tinted Moisturizer Sunscreen Broad Spectrum SPF 30, Sheer Tan 30; Neutrogena Hydro Boost City Shield water Broad Spectrum SPF 25; Neutrogena Hydro Boost Water Gel Sunscreen Broad Spectrum SPF 50; Neutrogena Hydro Boost Water Sunscreen Broad Spectrum SPF 15; Neutrogena HydroBoost Water Gel Sunscreen Broad Spectrum SPF 30; Neutrogena HydroBoost Water Gel Sunscreen Broad Spectrum SPF 50; Neutrogena Illuminating Whip Moisturizer; Neutrogena Invisible Daily Defense Body Sunscreen Broad Spectrum SPF 60 Plus; Neutrogena Invisible Daily Defense Face Mist Sunscreen Broad Spectrum SPF 50; Neutrogena Invisible Daily Defense Face Serum Sunscreen Broad Spectrum SPF 60 Plus; Neutrogena Invisible Daily Defense Sunscreen Broad Spectrum SPF 30; Neutrogena Invisible Daily Defense Sunscreen Broad Spectrum SPF 60 Plus; Neutrogena Kids Sunblock SPF 30; Neutrogena Men Active protect Face SPF 50 Plus; Neutrogena Men Sensitive Skin Oil Free Moisture Sunscreen Broad Spectrum SPF30; Neutrogena Men Sensitive Skin Oil-free Moisture; Neutrogena Men Triple Protect Face Broad Spectrum SPF20; Neutrogena Men Triple Protect Face With Sunscreen Broad Spectrum SPF 20; Neutrogena Moisture Oil-free; Neutrogena No-stick Sunblock SPF 30 - Lotion; Neutrogena Norwegian Formula Age Shield Hand SPF 30; Neutrogena Oil-Free Moisture Sunscreen Broad Spectrum SPF 35; Neutrogena Oil-free Sunblock SPF 30; Neutrogena PROTECT PLUS TINT MEDIUM TO DEEP 50; Neutrogena PROTECT Plus TINT FAIR TO LIGHT 20; Neutrogena PROTECT Plus TINT IVORY TO FAIR 10; Neutrogena PROTECT Plus TINT LIGHT TO TAN 30; Neutrogena PROTECT Plus TINT TAN TO MEDIUM 40; Neutrogena Rapid Tone Repair Moisturizer Sunscreen Broad Spectrum SPF30; Neutrogena Rapid Tone Repair Sunscreen SPF30; Neutrogena Rapid Wrinkle Repair Moisturizer SPF 30; Neutrogena Rapid Wrinkle Repair Moisturizer Sunscreen Broad Spectrum SPF30; Neutrogena Retinol Nx Concentrated Retinol Daily Moisturizer SPF 35 Tinted; Neutrogena SPF 30; Neutrogena SPF 30 Spray Healthy Defense; Neutrogena SPF 30 Stick; Neutrogena SPF 45; Neutrogena SPF 45 Healthy Defense; Neutrogena Spectrum + Advanced Moisture Body Lotion; Neutrogena Spectrum + Advanced Moisture Sunscreen Lotion SPF 100; Neutrogena Spectrum + Face Advanced Moisture Sunscreen Lotion SPF 100; Neutrogena Spectrum Plus Advanced Sunscreen Broad Spectrum SPF100 Plus; Neutrogena Spectrum Plus Face Advanced Oil Free Sunscreen Broad Spectrum SPF100 Plus; Neutrogena Spectrum plus Advanced Sunblock SPF 100 plus helioplex 360; Neutrogena Spectrum+ Advanced Moisture Sunscreen Lotion SPF 70; Neutrogena Spectrum+ Advanced Moisture Sunscreen Spray SPF 100; Neutrogena Sport Face Oil Free Sunscreen Broad Spectrum SPF 70 Plus; Neutrogena Sport Face Oil Free Sunscreen Broad Spectrum SPF70 Plus; Neutrogena Sport Face Sunblock SPF70plus; Neutrogena Sunblock Spray SPF 20; Neutrogena Triple Age Repair Moisturizer Broad Spectrum SPF25; Neutrogena Triple Age Repair Moisturizer with Sunscreen Broad Spectrum SPF 25; Neutrogena Ultimate Sport Sunblock SPF 100 Plus; Neutrogena Ultimate Sport Sunblock SPF 30 Helioplex; Neutrogena Ultimate Sport Sunblock SPF 70 Plus; Neutrogena Ultimate Sport Sunblock SPF70 Plus; Neutrogena Ultimate Sport Sunscreen Broad Spectrum SPF100 Plus; Neutrogena Ultimate Sport Sunscreen Broad Spectrum SPF30; Neutrogena Ultimate Sport Sunscreen Broad Spectrum SPF70 Plus; Neutrogena Ultra Sheer; Neutrogena Ultra Sheer Body Mist Sunscreen Broad Spectrum SPF 100 Plus; Neutrogena Ultra Sheer Body Mist Sunscreen Broad Spectrum SPF 30; Neutrogena Ultra Sheer Body Mist Sunscreen Broad Spectrum SPF 45; Neutrogena Ultra Sheer Body Mist Sunscreen Broad Spectrum SPF 70; Neutrogena Ultra Sheer Body Mist Sunscreen Broad Spectrum SPF30; Neutrogena Ultra Sheer Body Mist Sunscreen SPF 30; Neutrogena Ultra Sheer Body Mist Sunscreen SPF 45; Neutrogena Ultra Sheer Body Mist Sunscreen SPF 60; Neutrogena Ultra Sheer Daily Sun Protection SPF55; Neutrogena Ultra Sheer Dry Touch SPF55; Neutrogena Ultra Sheer Dry Touch Sunblock SPF 30 Helioplex; Neutrogena Ultra Sheer Dry Touch Sunblock SPF 45 with helioplex; Neutrogena Ultra Sheer Dry Touch Sunblock SPF70; Neutrogena Ultra Sheer Dry Touch Sunscreen Broad Spectrum SPF 30; Neutrogena Ultra Sheer Dry Touch Sunscreen Broad Spectrum SPF 55; Neutrogena Ultra Sheer Dry Touch Sunscreen Broad Spectrum SPF 70; Neutrogena Ultra Sheer Dry Touch Sunscreen Broad Spectrum SPF100 Plus; Neutrogena Ultra Sheer Dry Touch Sunscreen Broad Spectrum SPF45; Neutrogena Ultra Sheer Dry Touch Sunscreen Broad Spectrum SPF55; Neutrogena Ultra Sheer Dry Touch Sunscreen Broad Spectrum SPF70; Neutrogena Ultra Sheer Dry Touch Sunscreen Broad Spectrum SPF85 Plus; Neutrogena Ultra Sheer Dry-touch Sunscreen SPF 70; Neutrogena Ultra Sheer Dry-touch Sunscreen SPF 85; Neutrogena Ultra Sheer Face Mist Sunscreen Broad Spectrum SPF 55; Neutrogena Ultra Sheer Face Sunscreen Broad Spectrum SPF 70; Neutrogena Ultra Sheer Face Sunscreen SPF 45; Neutrogena Ultra Sheer Face Sunscreen SPF 60; Neutrogena Ultra Sheer Face and Body Sunscreen Broad Spectrum SPF70; Neutrogena Ultra Sheer SPF 30; Neutrogena Ultra Sheer SPF 45; Neutrogena Ultra Sheer SPF 55 and SPF 70 Suncare Kit; Neutrogena Ultra Sheer Sunscreen Broad Spectrum SPF 70; Neutrogena Ultra Sheer Water Light; Neutrogena Ultra sheer Face and Body Sunscreen Broad Spectrum SPF70; Neutrogena Visibly Even BB Broad Spectrum SPF 30 Fair to Light; Neutrogena Visibly Even BB Broad Spectrum SPF 30 Light to Medium; Neutrogena Visibly Even Daily Moisturizer Sunscreen Broad Spectrum SPF30; Neutrogena Visibly Even Daily Moisturizer With Sunscreen Broad Spectrum SPF 30; Neutrogena Wet Guard Kids Beach and Pool; Neutrogena Wet Skin Kids Applies To Wet Or Dry Skin Sunscreen Stick; Neutrogena Wet Skin Kids Beach & Pool Sunscreen Lotion; Neutrogena Wet Skin Kids Beach and Pool Sunblock SPF 70; Neutrogena Wet Skin Kids Beach and Pool Sunblock SPF 70plus helioplex; Neutrogena Wet Skin Kids Beach and Pool Sunscreen Broad Spectrum SPF 70 Plus; Neutrogena Wet Skin Kids Beach and Pool Sunscreen Broad Spectrum SPF45 Plus; Neutrogena Wet Skin Kids Beach and Pool Sunscreen Broad Spectrum SPF70 Plus; Neutrogena Wet Skin Kids SPF 45 Plus; Neutrogena Wet Skin Kids Sunscreen Broad Spectrum SPF70 Plus; Neutrogena Wet Skin Swim Humidity Sweat Sunscreen Broad Spectrum SFP45 Plus; Neutrogena Wet Skin Swim Humidity Sweat Sunscreen Broad Spectrum SPF30; Neutrogena Wet Skin Swim Humidity Sweat Sunscreen Broad Spectrum SPF50; Neutrogena Wet Skin Swim Humidity Sweat Sunscreen Broad Spectrum SPF85 Plus; Neutrogena Wet Skin Swim-Humidity-Sweat Sunblock SPF 50 Helioplex; Neutrogena Wet Skin Swim-Humidity-Sweat Sunblock SPF 85Plus Helioplex; Neutrogena Wet Skin Swim-Humidity-Sweat Sunscreen SPF 30 Helioplex; Nia 24 SPF 30; Nia24 Sun Damage Defense Broad Spectrum Uva/uvb Sunscreen SPF-30; Nicole Miller Daytime Delivery; Nicole Miller Daytime Delivery Creme; Nivea Q10 Plus Anti-wrinkle Day Cream; No Name Sunblock Lotion 30 SPF; No Name Sunblock Lotion Kids 30 SPF; No-AD Face SPF 30 6oz; No-AD SPF 45 Babies Sun Protection; No-AD SPF 45 Sun Protection; No-AD SPF 50 Sport Sun Protection; No-AD Spf30 5 Oz; No-AD Spf30 Ltn 16oz; No-Ad Sun Care Broad Spectrum SPF 30 Sunscreen; No-Ad Sun Care Broad Spectrum SPF 50 Baby Sunscreen; No-Ad Sun Care Broad Spectrum SPF 50 Kids; No-Ad Sun Care Broad Spectrum SPF 60 Sunscreen; Noad Sport SPF 50; Normal Facial Moisturizer Broad Spectrum SPF 15 Lotion; North Sunx SPF 30 Sunscreen Lotion; North Sunx SPF 30 Sunscreen Towelette; Norwegian Formula Ageless Hand Cream SPF 30; Nova Bright Skin SPF 30; Nu Skin Sunright 50 Broad Spectrum SPF 50; Nu Skin ageLOC Me; Nu Skin ageLOC Me Day S1 Broad Spectrum SPF 25; Nu Skin ageLOC Me Day S3 Broad Spectrum SPF 25; Nu Skin ageLOC Me Day S9 Broad Spectrum SPF 25; Nu Skin ageLOC Me Day T1 Broad Spectrum SPF 25; Nu Skin ageLOC Me Day T3 Broad Spectrum SPF 25; Nu Skin ageLOC Me Day T9 Broad Spectrum SPF 25; Nu Skin ageLOC Radiant Day Broad Spectrum SPF 22; Nu-derm System Normal-dry Skin Transformation; Nutra Effects Ageless Day Cream SPF20; Nutra Effects Balance Day Cream SPF15; Nutra Effects Hydration Day Cream SPF15; Nutra Effects Radiance Day Cream SPF20; Nutra Suncare Ecran Solaire Nutra SPF 30; Nutricentials Day Dream Protective; Nyakio Hydrating Face; OP Protect and Nourish Babies and Sensitive SPF 50; OP Protect and Nourish Kids SPF 50; OP Protect and Nourish SPF 30 Sunscreen; OP Protect and Nourish SPF 50 Sunscreen; OP Protect and Renew Body SPF 45; OP Protect and Renew Face SPF 35; OP SPF 70 Anti Aging Sunscreen; OP Sport Sunscreen spf30; OP spf15 Anti Aging Sunscreen; OP spf50 and Sport Sunscreen; Obagi; Obagi Medical Exclusive Gift Set; Obagi Nu-Derm FX System Normal - Dry Skin Transformation Complexion Brightening System; Obagi Nu-Derm FX System Normal - Oily Skin Transformation Complexion Brightening System; Obagi Sun Shield TINT Cool Sunscreen Broad Spectrum SPF 50; Obagi Sun Shield TINT Warm Sunscreen Broad Spectrum SPF 50; Obagi-C Fx System Normal-Dry Skin Brightening System With Arbutin; Obagi-C Fx System Normal-Oily Skin Brightening System With Arbutin; Occulus Soloxide 30 Broad Spectrum SPF 30; Ocean Potion 50 Instant Dry Kid Spotstick; Ocean Potion Cool Dry Touch Sport 30 Sunscreen; Ocean Potion Gentle and Sensitive 50 Sunscreen; Ocean Potion H2o Sport SPF 50 Sunscreen Lotion; Ocean Potion Instant Dry 30 Mist Sport Sunscreen; Ocean Potion Instant Dry 30 Mist Water Sport Sunscreen; Ocean Potion Instant Dry 50 Dab-On Spotstick; Ocean Potion Instant Dry 50 Mist Kids Sunscreen; Ocean Potion Instant Dry 50 Mist Sunscreen; Ocean Potion Instant Dry 70 Mist Sunscreen; Ocean Potion Instant Dry SPF 30 Mist H20 Sport Sunscreen; Ocean Potion Instant Dry SPF 30 Mist Sport; Ocean Potion Instant Dry SPF 50 Mist Kids; Ocean Potion Instant Dry SPF 50+ Mist; Ocean Potion Intell Mist 50 Kids Sunscreen; Ocean Potion Kids Sunscreen Lotion SPF 50; Ocean Potion Quick Dry 15 Sunscreen; Ocean Potion Quick Dry 30 Sunscreen; Ocean Potion Quick Dry 50 Sunscreen; Ocean Potion Quick Dry Kids 50 Sunscreen; Ocean Potion Quick Dry SPF 70 Sunscreen; Ocean Potion SPF15 Sunscreen; Ocean Potion SPF30 Sunscreen; Ocean Potion Sport Xtreme Sunscreen Lotion SPF 30; Ocean Potion Sport Xtreme Sunscreen Lotion SPF 50; Ocean Potion Sunscreen Lotion SPF 15; Ocean Potion Sunscreen Lotion SPF 30; Ocean Potion Sunscreen SPF 50+ Lotion; Ocean Potion Water Sport SPF50 Sunscreen; Oclipse Smart Tone Broad-spectrum Sunscreen SPF 50; Oclipse Sun Spray SPF 50 Broad Spectrum Sunscreen SPF 50 for Face + Body; Octisalate, Avobenzone, Homosalate, Octocrylene SPF30; Oh My Bod SPF50 Antioxidant Infused Dry Touch Sunscreen; Oil Free Faces 30 SPF Sunscreen; Oil Free Faces Sunscreen SPF 30 daylogic; Oil Free Matte SPF 30; Oil Free SPF 30 Sunblock Lotion; Oil Free Sunscreen Lotion SPF 30; Oil and Pore Control Mattifier Broad Spectrum SPF 45; Oil-Free Facial Sunscreen Spectrum SPF 50 JAFRA; Oil-free Sunspray SPF 15; Oil-free Sunspray Spf10 Asp; Olay Age Defying Anti Wrinkle Day Lotion With SPF 15; Olay Age Defying Anti-Wrinkle Broad Spectrum SPF 15; Olay Age Defying Anti-Wrinkle Daily SPF 15; Olay Age Defying Anti-Wrinkle Day Broad Spectrum SPF 15; Olay Age Defying Anti-wrinkle Day Lotion With SPF 15; Olay Age Defying Sensitive Skin Broad Spectrum SPF 15; Olay Age Defying Sensitive Skin Day Lotion With Sunscreen; Olay Complete Ageless Skin Renewing UV; Olay Complete Ageless Skin Renewing Uv Lotion; Olay Complete All Day Moisture Broad Spectrum SPF 15 Normal; Olay Complete All Day Moisture Cream; Olay Complete All Day Moisture Cream Normal; Olay Complete All Day Moisture Creme SPF 15 Uva/uvb Sensitive; Olay Complete All Day Moisture Normal Broad Spectrum SPF 15; Olay Complete All Day Moisture With Sunscreen Broad Spectrum SPF 30 Normal; Olay Complete All Day Moisturizer; Olay Complete All Day Moisturizer Broad Spectrum SPF 15; Olay Complete All Day Moisturizer Broad Spectrum SPF 15 Combination/Oily; Olay Complete All Day Moisturizer Normal Broad Spectrum SPF 15; Olay Complete All Day Moisturizer Sensitive Skin; Olay Complete All Day Moisturizer With Uv Protection SPF 15 Combination/ Oily; Olay Complete All Day Moisturizer With Uv Protection SPF 15 Normal; Olay Complete All Day UV Moisturizer; Olay Complete All Day UV Moisturizer Combination-Oily; Olay Complete All Day UV Moisturizer Normal; Olay Complete All Day UV Moisturizer Sensitive Skin; Olay Complete Normal UV365 Daily Moisture with sunscreen Broad Spectrum SPF 15; Olay Complete Spf30 Defense All Day Moisturizer; Olay Complete Tinted Moisturizer Broad Spectrum SPF 15 Fair to Light; Olay Complete Tinted Moisturizer Broad Spectrum SPF 15 Light to Medium; Olay Complete Tinted Moisturizer With Sunscreen Broad Spectrum SPF 15; Olay Complete Touch Of Sun; Olay Complete UV 365 Daily Moisturizer Combination Oily Broad Spectrum SPF 15; Olay Complete UV 365 Daily Moisturizer Normal Broad Spectrum SPF 15; Olay Complete Uv365* Daily Moisturizing Cream With Sunscreen Broad Spectrum SPF 15 Normal; Olay Complete Uv365* Daily Moisturizing Lotion With Sunscreen Broad Spectrum SPF 15 Combination/oily; Olay Complete Uv365* Daily Moisturizing Lotion With Sunscreen Broad Spectrum SPF 15 Normal; Olay Fresh Effects BB Broad Spectrum SPF 15 Fair to Light; Olay Fresh Effects BB Broad Spectrum SPF 15 Light to Medium; Olay Fresh Effects Bb Cream Skin Perfecting Tinted Moisturizing Cream; Olay Fresh Effects SPF 15 Moisturizer; Olay Fresh Effects Soak Up the Sun Protection Broadspectrum SPF 15; Olay Luminous Brightening & Protecting Lotion With Sunscreen; Olay Luminous Brightening & Protecting Lotion With Sunscreen Broad Spectrum SPF 30; Olay Luminous Brightening and Protecting with Sunscreen Advanced Tone Perfecting Moisturize Broad Spectrum SPF 15 Fragrance-Free; Olay Luminous Brightening and Protecting with Sunscreen Broad Spectrum SPF 30; Olay Luminous Whip; Olay Luminous Whip Active Moisturizer Broad Spectrum SPF 25; Olay Luminous Whip Active Moisturizer Broad Spectrum SPF 30 Sales Samples; Olay Moisturizer Broadspectrum SPF 15; Olay Moisturizing Lotion With SPF 30; Olay ProX Clear Moisturizer Broad Spectrum SPF 15; Olay Professional Pro-X Age Protection Lotion With SPF 30; Olay Professional Pro-X Clear Uv Moisturizer SPF 15; Olay Professional Pro-X Even Skin Tone Sheer Uv Protective Lotion; Olay Professional ProX Age Repair Broad Spectrum SPF 30; Olay Professional ProX Age Repair SPF 30; Olay Professional ProX Anti-Oxidant Sheer Daily Moisturizer Broad Spectrum SPF 35; Olay Professional ProX Clear UV Moisturizer SPF 15; Olay Professional ProX Tone Correcting Protocol; Olay Regenerist Advanced Anti-Aging; Olay Regenerist Advanced Anti-aging Day & Night Collection Moisturizer; Olay Regenerist DNA Superstructure Broad Spectrum SPF 30; Olay Regenerist DNA Superstructure UV SPF 30; Olay Regenerist Enhancing Uv Lotion With SPF 15; Olay Regenerist Luminous Brightening and Protecting Moisturizer Broadspectrum SPF 15; Olay Regenerist Micro-Sculpting Anti-Aging Moisturize Broad Spectrum SPF 30; Olay Regenerist Micro-sculpting Cream With Sunscreen; Olay Regenerist Regenerating Advanced Anti-Aging Moisturize Broad Spectrum SPF 50; Olay Regenerist Regenerating Broad Spectrum SPF 50; Olay Regenerist Regenerating Moisture Broad Spectrum SPF 15; Olay Regenerist Regenerating Moisturizer Broad Spectrum SPF 15; Olay Regenerist Superstructure Cream; Olay Regenerist Touch Of Sun Enhancing Lotion With Uv Protection; Olay Regenerist UV Defense Regenerating SPF 15; Olay Regenerist Whip; Olay Regenerist Whip Active Moisturizer Broad Spectrum SPF 25 Sunscreen; Olay Regenerist Whip Active Moisturizer Broad Spectrum SPF 25 Sunscreen TESTER; Olay Regenerist Whip Active Moisturizer Broad Spectrum SPF 30 Sunscreen (Sales Samples - SPF NOT DETERMINED); Olay Regenerist Whip Active Moisturizer Broad Spectrum SPF 40 Sunscreen; Olay Regenerist Whip Moisturizer Broad Spectrum SPF 25 Sunscreen; Olay Regenerist Whip Sun Protection Factor 40; Olay Sun Facial Sunscreen Antioxidants Makeup Primer SPF 35; Olay Sun Facial Sunscreen Antioxidants Shine Control SPF 35; Olay Sun Facial Sunscreen Vitamin E Makeup Primer; Olay Sun Facial Sunscreen Vitamin E Shine Control; Olay Total Effects 7-IN-1 Anti-aging Moisturizer With Sunscreen Broad Spectrum SPF 30; Olay Total Effects 7-IN-1 Anti-aging Uv Moisturizer Fragrance-free; Olay Total Effects 7-IN-1 Moisturizer + Treatment Duo; Olay Total Effects 7in1 Anti-aging Moisturizer With Sunscreen Broad Spectrum SPF 15; Olay Total Effects 7in1 Featherweight Moisturizer With Sunscreen; Olay Total Effects 7in1 Pore Minimizing Cc Cream With Sunscreen; Olay Total Effects Anti-Aging Moisturizer Broad Spectrum SPF 15 Fragrance Free; Olay Total Effects Anti-Aging Moisturizer Broad Spectrum SPF 30; Olay Total Effects Feather Weight Moisturizer with Sunscreen Broadspectrum SPF 15; Olay Total Effects Feather Weight Moisturizer with Sunscreen Broadspectrum SPF 15 Fragrance Free; Olay Total Effects Fragrance Free Moisturizer Broad Spectrum SPF 15; Olay Total Effects Moisturizer Broad Spectrum SPF 30; Olay Total Effects Moisturizer Plus Serum Duo Broad Spectrum SPF 15; Olay Total Effects Moisturizer Plus Serum Duo Fragrance Free Broad Spectrum SPF 15; Olay Total Effects Moisturizer with Sunscreen Broad Spectrum SPF 15 Fragrance-Free; Olay Total Effects Pore Minimizing CC Broadspectrum SPF 15 Fair to Light; Olay Total Effects Pore Minimizing CC Broadspectrum SPF 15 Light to Medium; Olay Total Effects Pore Minimizing CC Broadspectrum SPF 15 Medium to Deep; Olay Total Effects Top Sellers Trial Pack; Olay Total Effects UV Moisturizer SPF 15 Fragrance Free; Olay Total Effects Whip; Olay Total Effects Whip Active Moisturizer Broad Spectrum SPF 25 Sunscreen; Olay Total Effects Whip Active Moisturizer Broad Spectrum SPF 25 Sunscreen Fragrance Free; Olay Total Effects Whip Active Moisturizer Broad Spectrum SPF 30 Sunscreen Sales Samples; Olay Total Effects Whip Active Moisturizer Broad Spectrum SPF 40 Sunscreen; Olay Total Effects Whip Sun Protection Factor 40; Olay Uv Moisturizing Cream; Olay Whip Ultimate Facial Sunscreen Prime Protect SPF 35; Old Spice Daily Moisturizer with Sunscreen Broadspectrum SPF 15; Ombrelle Kids Lotion Wet'n Protect; Origins A Perfect World SPF 40 Age-defense Moisturizer With White Tea; Origins Plantscription SPF 25 Anti-aging Cream; Origins Plantscription SPF 25 Power Anti-aging Cream; Origins Plantscription SPF 25 Power Anti-aging Oil-free Cream; PHOTO FINISH FOUNDATION PRIMER BROAD SPEcTRUM SP 20 WITH DERMAXYL COMPLEX; PLAY Antioxidant Body Mist SPF 30 with Vitamin C; PLAY Antioxidant Body Mist SPF 50 With Vitamin C; PLAY SPF 30 Lip Shield Coconut; PROVENCE CALENDULA PERFECT SUN BLOCK 150mL; Pamana Jack Broad Spectrum SPF 100; Pamana Jack Kids Broad Spectrum SPF 50; Pamana Jack Sport Broad Spectrum SPF 50; Panama Jack BOAD SPECTRUM SPF 30; Panama Jack BOAD SPECTRUM SPF 50; Panama Jack BROAD SPECTRUM SPF 50; Panama Jack BROAD SPECTRUM SPF30; Panama Jack Broad Spectrum SPF 100; Panama Jack Broad Spectrum SPF 100 Sport Sunscreen; Panama Jack Broad Spectrum SPF 100 Sunscreen; Panama Jack Broad Spectrum SPF 30; Panama Jack Broad Spectrum SPF 50; Panama Jack Broad Spectrum SPF 70; Panama Jack SPF 30; Panama Jack SPF 50; Panama Jack SPF 85 Sport Dry Touch Sunscreen; Papa Recipe Bombee Moist Sun Essence; Papa Recipe Honey Moist Sun Essence; Parrot Head Fins Up 50 Mist Sunscreen; Parrot Head Fins Up Sport 15; Parrot Head Fins Up Sport 15 Mist Sunscreen; Parrot Head Fins Up Sport 30; Parrot Head Fins Up Sport 30 Mist; Parrot Head Floridays 30; Parrot Head Floridays 50; Parrot Head Floridays Face 50; Parrot Head Parakeet Kids 50; Parrot Head Parakeet Kids 50 Mist Sunscreen; Parsol Suncare SPF 29; Paula's Choice Pc4men Daytime Protect Broad Spectrum SPF 30; Paulas Choice Resist Smoothing Primer Serum SPF 30; Pc SPF Fps 15 Sunscreen Continuous Spray; Pc SPF Fps 15 Sunscreen Lotion; Pc SPF Fps 30 Sport Sunscreen Continuous Spray; Pc SPF Fps 30 Sunscreen Continuous Spray; Pc SPF Fps 30 Sunscreen Lotion; Pc SPF Fps 50 Sunscreen Continuous Spray; Pc SPF Fps 50 Sunscreen Lotion; Pc SPF Fps 50+ Kids Sunscreen Continuous Spray; Pc SPF Fps 50+ Kids Sunscreen Lotion; Pc SPF Fps 50+ Sunscreen Lotion; Pelagic Sun Protection Broad Spectrum SPF 50; Peppermint SPF 30 Broad Spectrum Lip Balm; Per Sole by Britto Lip Balm Sunscreen Broad Spectrum SPF 30; Perfect Day 2 in 1 Everywear SPF 50 and Mint Condition Lip Shield SPF 30 Supergoop; Perfect Truth Cc CRème; Perfect Truth Cc Eye CRème; Perfect Truth cc Broad Spectrum SPF 30 Ole Henriksen; Perfecting Day Cream Broad Spectrum SPF 30 Pa +++; Personalized Day Moisturizer with SPF; Peter Island Baby Sunscreen SPF 50; Peter Island Continous sunscreen SPF 30; Peter Island Continuous Sport Sunscreen SPF 50; Peter Island Kids Sunscreen SPF 65; Peter Island Sunscreen SPF 30; Peter Island Sunscreen SPF 50; Peter Island Sunscreen SPF 70; Peter Island SunscreenSPF 50 SPF 50; Peter Island Ultimate Sheer Dry Touch Sunscreen SPF 70; Pharma Plus Baby Sunblock Lotion 30 SPF; Pharma Plus Sunblock 30 SPF; Pharmasave Sport Sunscreen Continuous Spray SPF Fps 30; Photo Finish Protect Broad Spectrum SPF 45 Large Spectre Fps 45 Primer Unificateur De Teint; Photo Finish Protect Broad Spectrum SPF 45 Primer; Photo Regul Cream / CRème; Photo Regul Face SPF 25; Pigmentclar Uv SPF 30; Plantscription Anti-aging Broad Spectrum SPF 25; Plantscription SPF 25 Power Anti Aging Broad Spectrum 25; Plantscription SPF 25 Power Anti-aging Oil Free Broad Spectrum; Play Antioxidant Body Mist WIth Vitamin C Broad Spectrum SPF 30; Play Body Mousse with Blue Sea Kale Broad Spectrum SPF 50; Play Everyday Lotion; Play Everyday Sunscreen SPF 50 with Sunflower Extract; Play It Safe Sunscreen SPF 30; Play Lip Balm Broad Spectrum SPF 30 with Mint; Play Lip Balm with Acai Broad Spectrum SPF 30; Play SPF 30 Lip Shield Strawberry; Plushmallow SUNSTICK; Positively Ageless Daily Moisturizer; Positively Ageless Sunscreen Lotion SPF 60 Face; Positively Ageless Sunscreen Lotion SPF 85 Face; Positively Ageless Sunscreen Spray SPF 45; Positively Ageless Tinted Moisturizer; Positively Radiant Cc Cream SPF 30 Fair To Light; Positively Radiant Cc Cream SPF 30 Medium; Positively Radiant Daily Moisturizer; PowerPatch Dark Spot Protector; Powerproof Sunscreen 100; Prebel Nude Protect SPF 70 Sunscreen; Premium Sunscreen Broad Spectrum SPF 30; Premium Sunscreen Face Lotion Sun Bum Face 50; Premium Sunscreen Lotion Sun Bum 30; Premium Sunscreen Lotion Sun Bum 50; Premium Sunscreen Spray Sun Bum 30; Premium Sunscreen Spray Sun Bum 50; Prep and Prime Fix Plus SPF 30 Broad Spectrum Sun; Prescriptives All You Need + Continuous Action 24 Hour Moisture SPF 15 for Normal Skins; Prescriptives All You Need + Continuous Action 24 Hour Moisture SPF 15 for Oilier Skins; Presidents Choice; Prime Protection SPF 15; Prisma Protect SPF 30; Pro SPF 30 Sport Lotion; Pro Therapy MD Advanced Ultra Light Day Repair; Pro-X By Olay Dermatological Anti-aging Age Protection Lotion Sunscreen Broad Spectrum SPF 30; ProX by Olay Dermatological Anti-Aging Intensive Wrinkle Protocol; Proactiv Solution Daily Protection Plus Sunscreen SPF 30; Procyte Neova Day Therapy SPF 30; Professional-C Suncare Broad Spectrum SPF 30 Sunscreen; Protect + Hydrate Face; Protect + Hydrate Moisturizing Sunscreen SPF 30; Protect + Hydrate Moisturizing Sunscreen SPF 50; Protect The Truth SPF 50 Ole Henriksen; Protecting SPF 30 Spray; Protective Day; Protective Moisturizer Broad Spectrum SPF 30 Sunscreen; Protector SPF 15 Jafra Sun; Provence Calendula Aqua Sun; Publix Baby SPF 50; Publix Kids; Publix Kids SPF 50; Publix SPF 30; Publix SPF 50; Publix Sport SPF 50; Pur Confort Fps 15 SPF; Pur Confort SPF 15; Purlisse Blue Lotus Daily Moisturizer SPF 30; Q10tm/mc Power Anti-wrinkle; Quick Dry SPF 30 Sheer Finish Spray; Quick Dry SPF 50 Sheer Finish Spray; Quick Wrinkle Repair Moisturizer Broad Spectrum SPF30; R2; R2 System; RAYDIANT by Australian Gold BROAD SPECTRUM SPF 50 Vitamin D; RE9 Advanced Deluxe Try Me Set; RECIPE Infinite UV Shield Sunscreen Broad Spectrum SPF100; REDEFINE Regimen for the Appearance of Lines, Pores and Loss of Firmness Travel Size; REDEFINE Triple Defense; REVERS Lightening Regimen for the Appearance of Stubborn Dark Marks, Patches and Age Spots Travel Size; REVERSE Lightening Regimen for the Appearance of Stubborn Dark Marks, Patches and Age Spots; REVERSE Regimen for the Appearance of Skin Dullness, Discoloration and Uneven Skin Tone; REVERSE Regimen for the Appearance of Skin Dullness, Discoloration and Uneven Skin Tone Travel Size; RITUALS Active Firming Day sunscreen broad spectrum SPF 15 dry skin; RITUALS Essential Anti-Aging Day SPF 15 sunscreen broad spectrum normal to dry skin; RITUALS broad spectrum SPF 15 sunscreen Sensitive Skin Day; RODAN - FIELDS ESSENTIALS Body Sunscreen BROAD SPECTRUM SPF 30; RR SPF30 Sun Stick; Radiant Day SPF 22; Rain Or Shine; Rainbow Broad Spectrum SPF 30; Rapid Tone Repair Moisturizer; Rapid Wrinkle Repair Moisturizer; Rapid Wrinkle Repair SPF 30 Sunscreen; Raydiant By Australian Gold Vitamin D Broad Spectrum spf 30; Raydiant By Australian Gold Vitamin D Broad Spectrum spf 50; Raydiant by Australian Gold Broad Spectrum SPF 30 Vitamin D; Re Nutriv Radiant Uv Base Broad Spectrum SPF 50; Re9 Advanced Restorative Cream With SPF 20; Re9 Advanced Set - All Skin Types; Re9 Advanced for Men Facial Moisturizer With SPF 20; Re9 Advanced for Men Set; Re9 Advanced for Men Travel Set; ReVive Perfectif Even Skin Tone Dark Spot Corrector Broad Spectrum SPF 30 Sunscreen; ReVive Sensitif Renewal Daily Cellular Protection Broad Spectrum SPF 30 Sunscreen; ReVive Soleil Superieur Broad Spectrum SPF 50 Sunscreen PA; Reef Kids SPF 30; Reef Safe SPF 15; Reef Safe SPF 30; Reef Safe SPF 36; Reef Safe SPF 45; Refreshing Sunscreen Mist Brumisateur D'écran Solaire Rafraîchissant; Refreshing Sunscreen Spray Vaporisateur D'écran Solaire Rafraîchissant; Refreshmist Cucumber and Bamboo SPF 20; Regeneration Daily Protection Creme Broad Spectrum SPF 50; Regeneration Wrinkle Control Cream SPF 15; Renardblanc Multilayer Sun Block; Renew Face Dry Touch Sun Protection Broad Spectrum Uva/uvb Sunscreen Lotion SPF 30; Repair & Protect Moisturizer Broad Spectrum SPF 30; Repair and Protect Moisturizer Broad Spectrum SPF30; Replenishing Day Lotion Broad Spectrum SPF 20; Resist Lip Gloss Broad Spectrum SPF 40; Resting Beach Face SPF30 Anti-Pollution Sunscreen Serum; Revelage Arbonne Brightening Moisture Face Cream With SPF 30; Revelage Arbonne Brightening Moisture Hand Cream With SPF 30; Revelage Brightening Moisture Face Cream With SPF 30; Revelage Brightening Moisture Hand Cream With SPF 30; Revitalift Bright Reveal Brightening Daily Lotion; Revitalift SPF 30; Revitalift Triple Power Lzr Day Lotion; Revlon Colorstay Light Cover Foundation; Rexall 30 SPF Sunblock Lotion; Rexall Kids Daily Sunblock Lotion SPF 30; Rite Aid Baby Sunscreen; Rite Aid Essential Defense SPF 45; Rite Aid Kids Sunscreen SPF 50; Rite Aid Oil Free Faces Sunscreen SPF 30; Rite Aid RENEWAL SPF 30; Rite Aid RENEWAL Sport SPF 30; Rite Aid RENEWAL essential defense SPF 50; Rite Aid RENEWAL kids SPF 50; Rite Aid RENEWALSPF 50 SPF 50; Rite Aid SPF 30; Rite Aid SPF 50; Rite Aid Sport; Rite Aid Sport SPF 30 8 oz; Rite Aid Sport SPF 50; Rite Aid Sport SunscreenSPF 30 SPF 30; Rite Aid Sport SunscreenSPF 50 SPF 50; Rite Aid Sunscreen; Rite Aid Sunscreen SPF 30; Rite Aid Sunscreen SPF 50; Rite Aid Ultimate Sheer; RoC Brilliance Day Rejuvenating SPF20; RoC Multi Correxion; RoC Multi Correxion 4 Zone Daily Moisturizer Sunscreen Broad Spectrum SPF30; RoC Multi Correxion 5 in 1 Chest, Neck and Face Sunscreen Broad Spectrum SPF 30; RoC Multi Correxion 5 in 1 Daily Moisturizer Sunscreen Broad Spectrum SPF30; RoC Multi Correxion 5 in 1 Moisturizer Sunscreen Broad Spectrum SPF30; RoC Multi correxion Lift Anti Gravity Day Moisturizer SPF 30; RoC Multi correxion Lift Anti Gravity Day Moisturizer Sunscreen Broad Spectrum SPF30; RoC Retinol Correxion Deep Wrinkle Daily Moisturizer SPF30; RoC Retinol Correxion Deep Wrinkle Daily Moisturizer Sunscreen Broad Spectrum SPF30; Roc Multi Correxion 5 In 1 Chest, Neck and Face Sunscreen Broad Spectrum SPF 30; Roc Multi Correxion 5 In 1 Daily Moisturizer Sunscreen Broad Spectrum Spf30; Roc Multi-correxion; Roc Retin-OL+ Day SPF 30; Roc Retinol Correxion Deep Wrinkle Daily Moisturizer Sunscreen Broad Spectrum SPF 30; Rocky Mountain Broad Spectrum SPF 30; Rocky Mountain KIDS Broad Spectrum SPF 30; Rocky Mountain SPF 30; Rocky Mountain SPF 50; Rodan & Fields Proactiv + Daily Protection Moisturizer Broad Spectrum SPF 15; Rodan + Fields Essentials Face + Body Sunscreen; Rodan + Fields Redefine Triple Defense Lotion; Rodan + Fields Reverse Brightening Defense Fluid Lotion; Rodan + Fields Unblemish Invisible Matte Defense; Rodan Fields Anti-Age Age Shield Hand SPF 30; Rodan and Fields ESSENTIALS Lip Shield Broad Spectrum SPF 25; Rodan and Fields REDEFINE Regimen for the Appearance of Lines, Pores and Loss of Firmness; Rodan and Fields Redefine AM SPF 30; Rodan and Fields Redefine Age Shield Hand Shield Balm SPF30; Rodan and Fields Reverse 4 Broad Spectrum SPF 50 Plus Sunscreen; Rodan+fields Essentials Body Sunscreen; Rodan+fields Essentials Lip Shield; Rodan+fields Redefine; Rodan+fields Redefine Age Shield Hand Balm; Rodan+fields Reverse; Rose All Day Moisturizer SPF 30; Royal Jelly Defy Age and pollution protector Broad Spectrum SPF 50; Royal Jelly Kit Jafra; Rubelli Water Glow Sun; Rénergie Lift Multi-action Ultra; SCRUBS Solar Guard Sunscreen Wipe SCRUBS Solar Guard; SEA STAR SPARKLE SPF 50 Glitter Sunscreen Coco Lime; SEA STAR SPARKLE SPF 50 Glitter Sunscreen Cotton Candy; SEPHORA Sunscreen Body Mist Broad Spectrum SPF 30; SEVEN MINERALS Skin Friendly SPF 50; SHEER SPF 55 Well at Walgreens; SHISEIDO CLEAR stick UV PROTECTOR; SOL LEON Sunscreen SPF 15; SOL LEON Sunscreen SPF 30; SOLEIL SUN Creme Solaire Visage et corps Sunscreen Face and Body Sunscreen Broad Spectrum SPF30; SOLMATE Broad Spectrum SPF 30; SOTHYS PARIS Sunscreen Face and Body Broad Spectrum SPF 30 UVA/UVB; SPF 15; SPF 15 Fps; SPF 15 Lip Conditioner; SPF 15 Lip and SPF 30 Sunscreen; SPF 15 Sunscreen Lotion; SPF 20 Uva/uvb; SPF 30; SPF 30 Anthelios XL Lotion; SPF 30 Broad Spectrum Lotion; SPF 30 Clear Protect Continuous Spray; SPF 30 Face Sunscreen Lotion; SPF 30 Fps Sport Spray; SPF 30 Fps Sunscreen Lotion; SPF 30 Fps Sunscreen Lotion Lotion Écran Solaire; SPF 30 Hydrating Mist; SPF 30 Invisible Mist; SPF 30 Kids Wet'n Protect; SPF 30 Lip Balm; SPF 30 Moisturizing Facial Sunscreen Cvs Health; SPF 30 Oil Free Broad Spectrum Sunscreen Lotion; SPF 30 Protection Primer; SPF 30 Scalp and Hair Mist; SPF 30 Sheer Coverage Sunscreen Lotion - Australian Gold; SPF 30 Sheer sunscreen face Ulta; SPF 30 Signature High Performance Sunscreen Clear Face; SPF 30 Sport Broad Spectrum Sunscreen Lotion; SPF 30 Sport Clear Continuous Spray; SPF 30 Sport Continuous Spray Sunscreen; SPF 30 Sport Endurance; SPF 30 Sport Sunscreen CVS; SPF 30 Sport Sunscreen GoodSense; SPF 30 Sport Sunscreen Spray; SPF 30 Spray Gel Sunscreen With Bronzer - Australian Gold; SPF 30 Stay Put Sunscreen; SPF 30 Sunburn Protection Lotion for Kids; SPF 30 Sunscreen; SPF 30 Sunscreen Canisun; SPF 30 Sunscreen Continuous Spray - Australian Gold; SPF 30 Sunscreen Continuous Spray Solution for Kids; SPF 30 Sunscreen Continuous Spray With Bronzer - Australian Gold; SPF 30 Sunscreen Lotion; SPF 30 Sunscreen Skier's Defense; SPF 30 Sunscreen Tottle; SPF 30 Sunscreen Tottle w Carabiner; SPF 30 Sunscreen Towelette; SPF 30 Ultra Light Advanced Weightless Body Lotion; SPF 30 Ultra Light Advanced Weightless Face Lotion; SPF 30 Ultra Sport Sunscreen Lotion; SPF 30 Ultra Sunscreen Continuous Spray; SPF 30 Ultra-lift; SPF 30 Uva/uvb Continuous Spray No Pumping Needed Sun Protection; SPF 30 Wrinkle Reducing Cream; SPF 30 face Moisturizer; SPF 30 tropical flavor sunscreen lip balm Ulta; SPF 32 Sunscreen Hawaiian; SPF 40 Uva/uvb; SPF 45; SPF 45 Body and Scalp Sunscreen Continuous Spray; SPF 45 Clear; SPF 45 Clear Protect Continuous Spray; SPF 45 Sport Clear Continuous Spray; SPF 45 Sunscreen Lotion; SPF 50 Broad Spectrum Kids; SPF 50 Broad Spectrum Sunscreen Continuous Spray; SPF 50 Broad Spectrum Ultrathon; SPF 50 Face Cream; SPF 50 Face Sunscreen Bioelements; SPF 50 Face Sunscreen Canisun; SPF 50 Facial Sunscreen; SPF 50 Fps; SPF 50 Funscreen Spray-ON Sunscreen for Kids; SPF 50 Invisible Mist; SPF 50 Kids Continuous Spray Sunscreen; SPF 50 Kids Sunscreen Lotion; SPF 50 Sport Sunscreen GoodSense; SPF 50 Sunburn Protection Lotion; SPF 50 Sunscreen; SPF 50 Sunscreen Continuous Spray Lotion; SPF 50 Sunscreen Lotion; SPF 50 Sunscreen Rocky Mountain; SPF 50 Sunscreen Spray; SPF 50 with SOLAR SMART; SPF 50+ Baby Broad Spectrum Sunscreen Lotion; SPF 50+ Broad Spectrum Sunscreen Lotion; SPF 50+ Broad Spectrum Sunscreen Mousse; SPF 50+ Continuous Spray Sunscreen; SPF 50+ Fps Ultra; SPF 50+ Kids (80 Minutes) Water Resistant; SPF 50+ Kids Broad Spectrum Sunscreen Lotion; SPF 50+ Kids Sunscreen Continuous Spray; SPF 50+ Kids Sunscreen Lotion; SPF 50+ Sport Broad Spectrum Sunscreen Continuous Spray; SPF 50+ Sport Broad Spectrum Sunscreen Lotion; SPF 50+ Sport Sunscreen Lotion; SPF 50+ Sunscreen Lotion; SPF 50+ Ultra Light Advanced Weightless Body Lotion; SPF 55 Sport Stick CVS; SPF 55 Sport Sunstick Well at Walgreens; SPF 55 Sunscreen Canisun; SPF 60; SPF 60 Anthelios XL Lotion; SPF 60 Baby Sunscreen Continuous Spray Lotion; SPF 60 Clear; SPF 60 Clear Protect Continuous Spray; SPF 60 Face Sunscreen Lotion; SPF 60 Kids Wet'n Protect; SPF 60 Sport Clear Continuous Spray; SPF 60 Sport Endurance; SPF 60 Sport Sunscreen Continuous Spray; SPF 60 Sport Sunscreen Lotion; SPF 60 Sunscreen Continuous Spray; SPF 60 Ultra Light Advanced Lotion; SPF 60 Ultra Light Advanced Weightless Face Lotion; SPF Fps 100 Sun Protection Lotion; SPF Fps 30 Sport Sunscreen Continuous Spray; SPF Fps 30 Sun Protection Lotion; SPF Fps 30 Sunscreen Lotion; SPF Fps 40 Lotion; SPF Fps 40 Spray; SPF Fps 50 Baby Spray; SPF Fps 50 Kids Sunscreen; SPF Fps 50+ Sunscreen Lotion; SPF Fps 60 Sun Protection Lotion; SPF Rx - SPF 30 Mango Lip Balm; SPF Rx - Sport Sunscreen SPF 30; SPF Rx - Sport Sunscreen SPF 50; SPF/fps 15; SPF/fps 30; SPF/fps 30 Kids; SPF/fps 30 Lipbalm; SPF/fps 30 Oil Free Sunscreen Lotion; SPF/fps 30 Sport Sunscreen Lotion; SPF/fps 30 Sunscreen Continuous Spray; SPF/fps 30 Sunscreen Lotion; SPF/fps 45; SPF/fps 50; SPF/fps 50 Broad Spectrum Alcohol Free Sunscreen; SPF/fps 50 Fragrance-free Spray Sunscreen; SPF/fps 50 Kids; SPF/fps 50 Sunscreen Continuous Spray; SPF/fps 50+ Sheer Sunscreen Lotion; SPF/fps 60; SPF/fps 60 Continuous Spray; SPF15 Sunscreen; SPF30 Sunscreen; SPF30 Sunscreen and Antibacterial Hand Sanitizer; SPF30 Sunscreen and SPF15; SPF50 Sunscreen; SUNLEYA Age minimizing sun care SPF 50 plus; SUNZEN Broad Spectrum SPF 30; SUNZONE FAMILY SPF 60 Broad Spectrum; SUNZONE FAMILY SPF30 SUNSCREEN Broad Spectrum; SUNZONE FAMILY SUNSCREEN SPF 30 Broad Spectrum; SUNZONE KIDS SPF 60 Broad Spectrum; SUNZONE SPF 30 Broad Spectrum; SUNZONE SPF 50 Broad Spectrum; SUNZONE SPF 60 Broad Spectrum; SUNZONE SPF30 SUNSCREEN Broad Spectrum; SUNZONE SPORT SUNSCREEN SPF 30 Broad Spectrum; Safe Sea SPF 40; Safe Sea SPF 50; Safe Sea SPF 50 KIDS; Safe Sea SPF 50 kids; Sb 10 SPF 30; Sbs Professional Sunscreen SPF 33 Crm; Scape SPF 30 Athlete Sunblock; Scape SPF 50 Athlete Sunblock; Scape SPF 50 Moisturizing Face; Scrubs Sunscreen; Sea & Ski All Day 30; Sea Results Line Resolution Cream SPF 30; Sea Results Line Resolution Sea Results Line Resolution SPF30; Sea and Ski Kids SPF 70 C-Spray; Sea and Ski SPF 15 C-Spray; Sea and Ski SPF 30; Sea and Ski SPF 30 C-Spray; Sea and Ski SPF 50; Sea and Ski SPF 50 C-Spray; Sea and Ski SPF 50 Sport; Sea and Ski SPF 50 Sport C-Spray; Sea and Ski SPF 70; Sea and Ski SPF 70 C-Spray; Sea and Ski SPF 70 Kids; Secret Muse Vita Blue Sun; Sei Bella Advanced Revital R3 Age Defying Creme; Sei Bella Age Defying Foundation Almond; Sei Bella Age Defying Foundation Beige; Sei Bella Age Defying Foundation Cashmere; Sei Bella Age Defying Foundation Chestnut; Sei Bella Age Defying Foundation Classic Beige; Sei Bella Age Defying Foundation Espresso; Sei Bella Age Defying Foundation Fawn; Sei Bella Age Defying Foundation Golden; Sei Bella Age Defying Foundation Ivory; Sei Bella Age Defying Foundation Natural; Sei Bella Age Defying Foundation Porcelain; Sei Bella Age Defying Foundation Sand; Sei Bella Age Defying Foundation Toffee; Sei Bella Age Defying Foundation Walnut; Sei Bella Daytime Delivery; Select Brand Baby Sunscreen; Select Brand Sport Sunscreen SPF 30; Select Brand Sunscreen; SeneGence Facial Moisturizer For Men SPF 20; SeneGence SeneSun Hydrating Facial Sunscreen SPF 20; SeneGence SeneSun Sunscreen SPF 30; SeneSun; Sensitive Facial Moisturizer Broad Spectrum SPF 15 Lotion; Sensitive Skin Sunscreen Continuous Spray SPF 30; Sensitive Skin Sunscreen Continuous Spray SPF 50 Plus; Sensitive Skin Sunscreen Lotion SPF 30; Sensitive Skin Sunscreen Lotion SPF 50+; Serious Skincare Daytech 30; Session Savers Sunscreen Broad Spectrum SPF 30 Water Resistant; Sheer; Sheer Coverage Continuous Spray Sunscreen SPF 50; Sheer Coverage Faces Lotion SPF 45 Australian Gold; Sheer Coverage Faces Sunscreen Lotion SPF 45 With Bronzer; Sheer Daily Moisturizer; Sheer Lotion SPF 45 Bare Skin Feel; Sheer Lotion SPF 50; Sheer Lotion SPF 60 Bare Skin Feel; Sheer Oil Free Sunscreen Lotion 30 SPF/fps; Sheer SPF 100 Well at Walgreens; Sheer SPF 30 Oil Free Well at Walgreens; Sheer SPF 30 Well at Walgreens; Sheer Sunscreen SPF 30 CVS Health; Sheer Sunscreen SPF 30 Meijer; Sheer Sunscreen SPF 30 Wegmans; Sheer Sunscreen SPF 50 Wegmans; Sheer Touch Sunscreen; Sheer Touch Toucher Soyeux Oil-free Sunscreen Écran Solaire Sans Huile; Sheer Touch Toucher Soyeux Oil-free Sunscreen Écran Solaire Sans Huile SPF/fps 50+; Sheer Touch/toucher Soyeux Oil-free Sunscreen/écran Solaire Sans Huile SPF/fps 15; Sheer Touch/toucher Soyeux Oil-free Sunscreen/écran Solaire Sans Huile SPF/fps 30; Sheer Touch/toucher Soyeux Oil-free Sunscreen/écran Solaire Sans Huile SPF/fps 45 Ultra Radiance/ultra-radieux; Sheer Touch/toucher Soyeux Oil-free Sunscreen/écran Solaire Sans Huile SPF/fps 60 Ultra Radiance/ultra-radieux; Sheltered Broad Spectrum SPF 55 Sunscreen; Shine Control Sunscreen Broad Spectrum SPF 50; Shine On Lip Sunscreen Broad Spectrum SPF 50; Ships Ahoy Seashore Sunscreen Broad Spectrum SPF 30 Jafra; Shiseido Benefiance Wrinkle Smoothing Day; Shiseido Essential Energy Day; Shiseido Ultimate Sun Protection; Shiseido Ultimate Sun Protector; Shiseido Vital Perfection Uplifting and Firming Day; ShopKo Absolute Daily Moisturizing Broad Spectrum SPF15 Sunscreen; Signature Body Japanese Cherry Blossom SPF 15; Signature Body Moonlight Path SPF 15; Signature Body Sweet Pea SPF 15; Signature Body Twilight Woods SPF 15; Signature Body White Citrus SPF 15; Signature Care Kids SPF 50 Sunscreen; Signature Care Sheer Face and Body SPF 70 Sunscreen; Signature Care Sport SPF 30 Sunscreen; Signature Care Sport SPF 50 Sunscreen; Signature SPF 50 Clear Face; Silk Hydration Weightless Clear Sunscreen Spray SPF 30; Silk Hydration Weightless Face; Silky Sheer Bb Face Lotion SPF 50; Silky and Clear Sunscreen; Simple Vital Vitamin Day Cream SPF 15; Simple Vital Vitamin Day SPF 15; Simply Protect Sensitive Sunscreen Spray SPF 50+; Skin Balancing Ultra Sheer Daily Defence SPF 30 Paulas Choice; Skin Balancing Ultra-sheer Daily Defense Broad Spectrum SPF 30; Skin Care Prescription; Skin Crave Broad Spectrum spf30; Skin Effects by Dr. Jeffrey Dover Glycolic Day; Skin Pharmacy Advanced Sun Therapy Broad Spectrum SPF 30 Sun; Skin Strong - Skin Equipment SPF 30 Sunscreen; Skin Strong - Skin Equipment SPF 55 Sunscreen; Skin Tone Correcting & Beautifying Bb Cream; SkinCeuticals Light Moisture UV Defense Broad Spectrum SPF 50 Sunscreen; SkinCeuticals Sport UV Defense Sunscreen Broad Spectrum SPF 50; SkinDog; SkinPharmacy Advanced Anti-Aging Therapy Glycolic Day Moisturizer SPF 30; SkinPharmacy Advanced Anti-Aging Therapy Retinol Day Moisturizer SPF 30; SkinPharmacy Advanced Sun Therapy Broad Spectrum SPF 50 Face; SkinProtect SPF 50 SHEER ROLLER SUNSCREEN; Skincare LdeL Retinol Day Broad Spectrum SPF 20; Skinnies SPF30 Sungel; Skinprint Ultra Sheer SPF 20; Slow Âge Daily Cream; Slow Âge Daily Lotion; Smart Tone Broad-spectrum Sunscreen SPF 50; Smashbox Photo Finish Foundation Primer SPF 20; Snappy SPF 30 Sunscreen; SnugZ SPF 50 Sunscreen Spry; Soft Focus City Suncreen Serum Broad Spectrum SPF 30 Supergoop; Soin Solaire Visage CRème Protectrice Visage Fps 30; Soin Solaire Visage CRème Protectrice Visage Fps 50 Plus; Soin Solaire Visage Creme Multi-protection Fps 30; Soin Ultime Jeunesse Mains CRème Fps 30 Pure; SolMate BROAD SPECTRUM SPF 30; SolMate BROAD SPECTRUM SPF 50; SolMate Baby Broad Spectrum SPF50; SolMate Broad Spectrum SPF 30; SolMate Broad Spectrum SPF 50; SolMate Kids BROAD SPECTRUM SPF 50; SolRX Kids SPF 60 C-spray; SolRX Sport SPF 30 C-Spray; SolRX Sport SPF 50 C-Spray; SolRX Sport SPF 70 C-spray; SolScents Deep Love broad spectrum spf 30; SolScents flower blast broad spectrum spf 50; Solar Defense Body; Solar Protection Fluid Broad Spectrum SPF 50; Solar Sense SPF 50 Daily Facial Sunscreen; Solarguard MD; Solbar; Solbar Avo SPF35; Solbar Thirty SPF 30; Solbar Zinc SPF38; Soleil Forte Multi; Soleil Protexion Invisible Touch SPF 30; Soleil Protexion Invisible Touch SPF 45; Soleil Tojours Broad Spectrum SPF 50; Soleil Toujours Broad Spectrum SPF 50 Set Protect Micro Mist; Soleil Toujours SPF 30 Sheer Sunscreen; Soleil Toujours SPF 50 Sheer Sunscreen Mist; Solimo General Protection SPF 50 Sunscreen; Solimo General Protection Sunscreen SPF 50; Solimo Kids SPF 50 Broad Spectrum Sunscreen; Solimo Kids Sunscreen SPF 50; Solimo Sport SPF 30 Sunscreen; Solimo Sport SPF 50 Broad Spectrum Sunscreen; Solimo Sport SPF 50 Sunscreen; Solimo Sport Sunscreen SPF 30; Solimo Sport Sunscreen SPF 50; Solmate BROAD SPECTRUM SPF 50 Sport Sunscreen; Solmate Broad Spectrum SPF 50 C/S Sunscreen; Solmate Sunscreen Broad Spectrum SPF 30; Soprt Sunscreen SPF 50; Spa Pharma Anti-Aging Acocado Cream SPF 25 Listing; Spa Pharma BB Cream SPF 50; Spa Pharma Day Defense Moisturizing Cream; Spa Pharma Moisturizer Cream SPF 50; Spa Pharma Multi vitamin Cream SPF 25; Spa Pharma Olive Oil Moisturizing Cream; Spa Pharma Regenerating Pomegranate Cream; Spa Sun - Sun Protection SPF 30 - Face and Body; Spearmint Lip Balm Broad Spectrum Vertra; Spearmint SPF 30 Broad Spectrum Lip Balm; Specter Capital Tropical Blend Broad Spectrum SPF 30 Sunscreen; Spf15; Spf20 Uva/uvb; Spf40 Uva/uvb; Splash 50 SPF Sunblock Stick; Splash Kids 45 SPF/fps Sunscreen Lotion Écran Solaire; Sport; Sport 30 Lotion Sunscreen Lotion Écran Solaire; Sport 30 Pump Spray Gel Sunscreen Écran Solaire Gel En Vaporisateur; Sport 30 SPF Sunblock Spray; Sport 30 SPF/fps; Sport 50; Sport 50 Continuous Spray Sunscreen Ecran Solaire En Vaporisateur; Sport Lotion 50 SPF; Sport Lotion SPF 30; Sport Performance Powder-dri Sunscreen Lotion Ecran Solaire SPF/fps 30; Sport Performance Spray Sunscreen Ecran Solaire En Vaporisateur SPF Fps 30; Sport Performance Spray Sunscreen Ecran Solaire En Vaporisateur SPF/fps 15; Sport Performance Spray Sunscreen Écran Solaire En Vaporisateur SPF Fps 100; Sport Performance Spray Sunscreen/ecran Solaire En Vaporisateur SPF Fps 50; Sport Performance Sunscreen Lotion Ecran Solaire SPF/fps 30; Sport Performance Sunscreen Lotion Ecran Solaire SPF/fps 50; Sport Performance Sunscreen Lotion Lotion Écran Solaire SPF Fps 60; Sport Performance Sunscreen Lotion Lotion Écran Solaire SPF/fps 30 Photostable; Sport Performance Sunscreen Lotion Lotion Écran Solaire SPF/fps 60 Photostable; Sport Performance Sunscreen Lotion Écran Solaire SPF Fps 30 Technologie Avotriplex Technology; Sport Performance Sunscreen Lotion Écran Solaire SPF Fps 50 Technologie Avotriplex Technology; Sport Performance Sunscreen Stick/ecran Solaire En Batonnet SPF/fps 30; Sport SPF 15; Sport SPF 15 daylogic; Sport SPF 30; Sport SPF 30 CareOne; Sport SPF 30 Daylogic; Sport SPF 50; Sport SPF 50 Sunscreen; Sport SPF 50 daylogic; Sport SPF 70; Sport Sunscreen; Sport Sunscreen Broad Spectrum SPF 15 Lotion; Sport Sunscreen Broad Spectrum SPF 15 Spray; Sport Sunscreen Broad Spectrum SPF 30 Lotion; Sport Sunscreen Broad Spectrum SPF 30 Spray; Sport Sunscreen Broad Spectrum SPF 60 Lotion; Sport Sunscreen Broad Spectrum SPF 60 Spray; Sport Sunscreen Continuous Spray SPF 15; Sport Sunscreen Continuous Spray SPF 30; Sport Sunscreen Continuous Spray SPF 50+; Sport Sunscreen LiquidShade; Sport Sunscreen Lotion SPF 30; Sport Sunscreen Lotion SPF 50+; Sport Sunscreen Lotion Écran Solaire 30 SPF/fps; Sport Sunscreen SPF 15 Meijer; Sport Sunscreen SPF 30; Sport Sunscreen SPF 30 CareOne; Sport Sunscreen SPF 30 Daylogic; Sport Sunscreen SPF 30 Exchange Select; Sport Sunscreen SPF 30 GoodSense; Sport Sunscreen SPF 30 Lotion; Sport Sunscreen SPF 30 Meijer; Sport Sunscreen SPF 30 Quality Choice; Sport Sunscreen SPF 30 TopCare; Sport Sunscreen SPF 30 Wegmans; Sport Sunscreen SPF 45; Sport Sunscreen SPF 50; Sport Sunscreen SPF 50 Daylogic; Sport Sunscreen SPF 50 TopCare; Sport Sunscreen SPF 50 Wegmans; Sport Sunscreen SPF 70; Sport Sunscreen Stick Broad Spectrum SPF 30; Sport for Kids Sunscreen Lotion Spray SPF 50+; SpotFade Clear Sunscreen Broad Spectrum SPF 25; Spray Lotion Solaire Haute Protection SPF 15; Spray Solaire Huile Embellissante Corps SPF 30; Spray Solaire Lait-fluide Douceur SPF 20; Spray Solaire Lotion Non Grasse Protection Moyenne Spécial Sports 15 SPF; Spray Solaire Lotion Non Grasse Spécial Sports SPF 15; Spray Solaire Protection Élevée SPF 50; Spray Solaire Transparent; Spray Sunscreen Écran Solaire En Vaporisateur SPF Fps 30; Sprayable Sunscreen Lotion SPF 40; Spraygel; Spraygel With Instant Bronze Tint SPF 30; Spritz Solaire Corps Fps 30; St. Ives Elements; Stokoderm Sun Protect 30 PURE; Stokoderm Sunprotect 30 Pure; Stokoderm UV 30; Stop The Clock Broad Spectrum SPF 50; StriVectin Advanced SPF Full Screen Clear Finish; StriVectin Advanced SPF Full Screen Illuminating; StriVectin-SH NIA-114 UVA UVB Shields SPF 30; Sublime Sun Lotion SPF 15; Sublime Sun Lotion SPF 30; Sublime Sun Lotion SPF 50; Sublime Sun Mousse SPF 30; Sublime Sun Mousse SPF 50; Sublime Sun Oil Spray SPF 30; Sublime Sun Oil Spray SPF 50; Sublime Sun Ultra Fluid Lotion SPF 30; Sublime Sun Ultra Fluid Lotion SPF 50; Sulwhasoo Snowise UV Daily Cream; Summer Ready Innovative Sunscreen; Sun + Avon Sport Fresh Technologie Derma Plus Technology Sunscreen Lotion SPF/fps 50; Sun + Avon Sport Refresh Technologie Derma Plus Technology Sunscreen Lotion SPF/fps 30; Sun + Avon Technologie Derma Plus Technology Sunscreen Spray; Sun Block; Sun Block + SPF 30 - Crm; Sun Block SPF 30; Sun Block Sprary; Sun Broad Spectrum SPF 30 CVS; Sun Broad Spectrum SPF 30 Jafra; Sun Bum 50; Sun Bum Clear Zinc SPF 50 Sunscreen; Sun Bum Face 50 Sunscreen; Sun Bum Face Mist SPF 45; Sun Bum Face SPF 70; Sun Bum Premium SPF 15 Sunscreen Tanning; Sun Bum Premium Sunscreen Face Broad Spectrum SPF 30; Sun Bum SPF 15 Moisturizing Tanning; Sun Bum SPF 15 Premium Moisturizing Sunscreen; Sun Bum SPF 30 Premium Moisturizing Sunscreen; Sun Bum SPF 30 Sunscreen Lip Balm Pineapple; Sun Bum SPF 30 Watermelon; Sun Bum SPF 50 Premium Moisturizing Sunscreen; Sun Bum SPF 70 Premium Moisturizing Sunscreen; Sun Bum Sunscreen Lip Balm Broad Spectrum SPF 30 Banana; Sun Bum Sunscreen Lip Balm Broad Spectrum SPF 30 Coconut; Sun Bum Sunscreen Lip Balm Broad Spectrum SPF 30 Key Lime; Sun Bum Sunscreen Lip Balm Broad Spectrum SPF 30 Keylime; Sun Bum Sunscreen Lip Balm Broad Spectrum SPF 30 Mango; Sun Bum Sunscreen Lip Balm Broad Spectrum SPF 30 Pineapple; Sun Bum Sunscreen Lip Balm Broad Spectrum SPF 30 Pink Grapefruit; Sun Bum Sunscreen Lip Balm Broad Spectrum SPF 30 Pomegranate; Sun Bum Sunscreen Lip Balm Broad Spectrum SPF 30 Watermelon; Sun Bum Tinted Lip Balm Raisin Hell; Sun Defense Cream; Sun Defense SPF 15; Sun Defense Sunblock SPF 25 - Liquid; Sun Defense UVscreen SPF 48; Sun Diffusing Protector SPF 15 Bioelements; Sun Expert; Sun Face Protector Sunscreen Broad Spectrum SPF 50 Jafra; Sun Kids Sunscreen 32 SPF; Sun Logic 20 Fps Uva Uvb SPF Moyenne Medium Protection Large Spectre Broad Spectrum Lait Solaire Corps Sunscreen Lotion Body; Sun Logic 30 Fps Uva Uvb SPF Haute High Protection Large Spectre Broad Spectrum CRème Solaire Visage Et Corps Sunscreen Face and Body; Sun Party Sunscreen SPF 30; Sun Party Sunscreen SPF 50; Sun Project Light Sun Essence; Sun Project Water Sun Cream SPF50; Sun Protection Body Sunscreen Broad Spectrum SPF 30; Sun Protection Body Sunscreen Broad Spectrum SPF 30 La Prairie; Sun Protection Emulsion Face Broad Spectrum SPF 30 La Prairie Group; Sun Protection Emulsion Face la prairie; Sun Protection Face Sunscren Broad Spectrum SPF 30; Sun Protector Lotion Spray for Body SPF 30; Sun Protector Lotion Spray for Body SPF 50; Sun Protector Weightless Lotion for Face and Body; Sun Protector Weightless Lotion for Face and Body SPF 30; Sun Shades Sport Plus; Sun Shades Sport Sport Plus; Sun Shield Broad Spectrum SPF 50 Matte Sunscreen; Sun Silk Drops; Sun Sport Sunscreen 32 SPF; Sun Spray Lotion 30; Sun Spray SPF 30; Sun Stick SPF 45; Sun Therape Body SPF-35; Sun Therape Pro Sport SPF-35; Sun Therape Sport SPF-35; Sun Ultimate Cream/crème SPF/fps 30; Sun Ultimate Face Cream / CRème Visage; Sun Ultimate Face SPF 30; Sun Ultimate Spray SPF/fps 30; Sun Verbena Protective Gloss Protection; Sun X Multi-Pack SPF 30 Thick; Sun XSPF 30 Broad Spectrum Sunscreen Lip Balm; Sun protection body SPF 30; Sun+ Avon Technologie Derma Plus Technology Sunscreen Face Lotion; Sun+ Avon Technologie Derma Plus Technology Sunscreen Lotion; Sun-Defying Sunscreen Oil Broad Spectrum SPF 50 Supergoop; SunBum SPF 15; SunBum SPF 30; SunBum SPF 50; SunBum SPF 70; SunScreen SPF30; SunX SPF 30/BugX Wallmount; SunZone Family SPF 45 Broad Spectrum; SunZone Kids SPF 45 Broad Spectrum; SunZone SPF 45 Broad Spectrum; SunZone Sunscreen Family SPF 30 Broad Spectrum; SunZone Sunscreen Sport SPF 45 Broad Spectrum; Sunbar SPF 15; Sunbar SPF 48; Sunblock Lot SPF 30; Sunblock Lotion 30 SPF; Sunbrellas Family Sunblock SPF 45; Sunbrellas Kids Sunblock SPF 45; Sunbrellas Sport Sunblock SPF 45; Suncare Non-greasy Sunscreen Broad Spectrum SPF 50; Suncare SPF 50 Sunscreen; Sunfisher - The Fishermans Sunscreen Broad Spectrum SPF 50; Sunfree Sunscreen; Sungirl SPF 20; Sungirl SPF 30; Sunlogics Sunscreen Lotion Broad Spectrum SPF 25 Water Resistant; Sunmitt Broad Spectrum SPF-50 Sunscreen; Sunnylife SPF 50 Sunscreen Coconut Scented; Sunnylife SPF 50 Sunscreen Fragrance Free; Sunright 50; Sunright 50 SPF 50; Sunscreen; Sunscreen 30 SPF Continuous Spray; Sunscreen Application SPF 50 Rocky Mauntain; Sunscreen Broad Spectrum SPF 30 Lotion; Sunscreen Broad Spectrum SPF 30 Spray; Sunscreen Broad Spectrum SPF 50 Jafra; Sunscreen Broad Spectrum SPF 60 Lotion; Sunscreen Broad Spectrum SPF 60 Spray; Sunscreen Continuous Spray; Sunscreen Continuous Spray No Pumping Needed; Sunscreen Continuous Spray SPF 30; Sunscreen Continuous Spray SPF 30 Sport; Sunscreen Continuous Spray SPF 50; Sunscreen Continuous Spray SPF 50 Kids; Sunscreen Continuous Spray SPF 50 Sport; Sunscreen Continuous Spray SPF/fps 30; Sunscreen Continuous Spray SPF/fps 60; Sunscreen Cream SPF 30; Sunscreen Face Lotion; Sunscreen Face Stick Sun Bum Broad Spectrum SPF 30; Sunscreen Family SPF 30; Sunscreen Family SPF 50+; Sunscreen Kids Application SPF 50 Rocky Mauntain; Sunscreen Kids SPF 50+; Sunscreen Lip Balm; Sunscreen Lip Balm Sun Bum SPF 30; Sunscreen Lotion 30 SPF; Sunscreen Lotion 30 SPF Fps; Sunscreen Lotion 30 SPF/fps Sport; Sunscreen Lotion 50 SPF Fps; Sunscreen Lotion Ecran Solaire SPF/fps 30; Sunscreen Lotion Ecran Solaire SPF/fps 50+; Sunscreen Lotion Lotion Écran Solaire SPF Fps 30; Sunscreen Lotion Lotion Écran Solaire SPF Fps 60; Sunscreen Lotion SPF 50; Sunscreen Lotion SPF/fps 60; Sunscreen Lotion SPF/fps 70; Sunscreen Lotion With Hydrating Ribbons SPF/fps 15; Sunscreen Mist Broad Spectrum SPF 30 Supergoop; Sunscreen Mist Broad Spectrum SPF 50 Supergoop; Sunscreen Moisturizer SPF 30; Sunscreen Oil SPF 20; Sunscreen Oil Spray; Sunscreen SPF 15; Sunscreen SPF 15 Sun Bum; Sunscreen SPF 30; Sunscreen SPF 30 CareOne; Sunscreen SPF 30 Daylogic; Sunscreen SPF 30 Jafra; Sunscreen SPF 30 Jafra Sun; Sunscreen SPF 30 Sun Bum; Sunscreen SPF 30 Ulta; Sunscreen SPF 30 Wegmans; Sunscreen SPF 30 meijer; Sunscreen SPF 50; Sunscreen SPF 50 Plus Broad Spectrum UVA UVB protection; Sunscreen SPF 50 Sun Bum; Sunscreen SPF 50 Wegman; Sunscreen SPF 70; Sunscreen SPF 70 Rocky Mountain; Sunscreen SPF 70 Sun Bum; Sunscreen SPF 70 daylodic; Sunscreen SPF50; Sunscreen Sheer SPF 70; Sunscreen Shrre SPF 70; Sunscreen Sport SPF 30; Sunscreen Sport SPF 50 Good Sense; Sunscreen Sport SPF 50 GoodSense; Sunscreen Sport SPF 50 daylogic; Sunscreen Sport SPF 50 exchange select; Sunscreen Sport SPF 50+; Sunscreen Spray 30 SPF; Sunscreen Spray 50 SPF; Sunscreen Spray SPF Fps 30; Sunscreen Stick SPF 50+; Sunscreen Water Resistant; Sunscreen Wipe KGP; Sunscreen With Moisturizer SPF-30; Sunscreen for Kids; Sunsorb Reef Safe SPF15; Sunsorb Reef Safe SPF30; Sunsorb Reef Safe SPF50; Sunspray; Sunthera3 Baby SPF 50+ Sun Protection Lotion; Sunthera3 Kids SPF 50+ Continuous Spray Sunscreen Broad Spectrum Uva/uvb Protection; Sunthera3 Kids SPF 50+ Sun Protection Lotion; Sunthera3 Kids/enfants SPF/fps 50 Continuous Spray; Sunthera3 SPF 30 Continuous Spray; Sunthera3 SPF 30 Lipbalm; Sunthera3 SPF 30 Sun Protection Lotion; Sunthera3 SPF 50+ Continuous Spray; Sunthera3 SPF 50+ Sun Protection Lotion; Sunthera3 Sensitive Skin/peau Sensible SPF/fps 60; Sunthera3 Sport SPF 50+ Continuous Spray; Sunthera3 Sport SPF 50+ Sun Protection Lotion; Sunthera3 Sport SPF/fps 30 Continuous Spray; Suntints Liquid Lip Balm SPF 20; Suntique Im Tone Up Multi Base; Suntone Broad Spectrum SPF 50 Sunscreen; Suntone Fit for the Sun Sport Sunscreen Broad Spectrum SPF 30; Suntone Kids Broad Spectrum SPF 50 Sunscreen; Suntone Sport Sunscreen Broad Spectrum SPF 50; Sunx SPF 30 Sunscreen Lotion; Sunx SPF 30 Sunscreen Towelette; Sunzen BROAD SPECTRUM SPF 30; Sunzen Broad Spectrum SPF 50; Sunzone Family SPF 45; Sunzone Family SPF 50; Sunzone Kids SPF 45; Sunzone Kids SPF 50; Sunzone Sport SPF 45; Sunzone Sunscreen Sport SPF 60 Broad Spectrum; Sunzone Sunscreen Écran Solaire Spray Wet 60 SPF/fps; Super Fluid Uv Defense SPF 50; Super Origin Cc Spf25 Pa Plus Plus Brightening; Super Power Sunscreen Mousse SPF 50 Supergoop; SuperScreen Daily Moisturizer Broad Spectrum SPF 40; Superdefense Broad Spectrum SPF 25 Fatigue Plus 1st Signs Of Age Multi-correcting Very Dry To Dry Combination; Superdefense Fatigue + 1st Signs Of Age Multi-correcting Cream CRème Multi-correction Fatigue + 1ers Signes De L'âge Very Dry To Dry Combination / Très Sèche À Mixte SPF 25 Fps; Supremacie NX Jour; Surface Sheer Touch SPF 50 with Fragrance; Surface Sun Active Defense SPF 30 Sunscreen; Surface Sun Dry Touch SPF 30 Sunscreen; Surface Sun Dry Touch SPF 40 Sunscreen; Surface Sun Dry Touch SPF 70 Sunscreen; Surface Sun Sheer Touch SPF 30 Sunscreen; Surface Sun Sheer Touch SPF 50 Sunscreen; Surface Sun Wetskin Formula SPF 30 Sunscreen; Sweet Pea Sheer Shield SPF45; TBS Vitamin E SPF; TC Enriched Professional Sunscreen SPF 30; TOTAL DEFENSE REPAIR BROAD SPECTRUM SPF 50 Sunscreen; TULA Skincare Protect Glow Daily Sunscreen Gel Broad Spectrum SPF 30; Tahitian Noni Sunscreen; Tahitian Noni Sunscreen SPF 30; Tako Pore Sebum Sun; Tan-luxe Super Glow Broad Spectrum Sunscreen; Tanning Dry Oil SPF 15 Dollar General; Tanning Oil Huile Bronzante 15; Tanning Sunscreen SPF 15; Tanning Sunscreen UVB Protection Dry Oil Equate; Target Up and Up Reef Conscious Formula SPF 50 Sport Sunscreen; Tenacious Ergodyne; Tender Moments Baby Sunscreen Broad Spectrum SPF 45 Jafra; Tender Moments Baby Sunscreen Broad Spectrum SPF 50 Jafra; Tender Moments SPF 45; Tensolift; Teradia The Liquiddiamond Sunscreen Spf50; Terrapin Outdoor Systems SPF 25 Spray On Sunscreen; The Protector; The SPF 18 Fluid Tint; The Starter Kit; The Ultimate KORRES Sun Kit; The Youth As We Know It; Thermalab Daily Body SPF30 Broad Spectrum; Tieso Rapido Plus; Time Repair A.M.; Timewise Day Solution Sunscreen SPF 25; Timewise Day Solution sunscreen SPF 35; Timewise Day Solution sunscreen SPF 35 14ml; Tlc; Toleriane Double Repair Moisturizer UV SPF 30; Toleriane Sensitive CRème Uv; Tom Ford Face Protect Broad Spectrum SPF 50; Tone Correcting Daily Lotion; Tonymoly Bcdation Multi Use Sun; Tonymoly Magic Food Mango Mild Sun Block; Too Faced Hangover Good To Go SPF 25 Broad Spectrum Moisturizer; Topcare Everyday Sport SPF 70 Sunscreen; Total Cover Sunblock 30spf Crm; Total Defense + Repair Broad Spectrum SPF 50+ Sunscreen; Total Suncare Sunscreen SPF 50; Total Suncare Sunscreen SPF 50 Plus; Total Suncare Sunscreen SPF 70; Trader Joes Face and Body Sunscreen SPF 30; Trader Joes Sunscreen SPF 50; TriLipiderm Broad Spectrum SPF 30; TriLipiderm Protective Day; Triple Age Repair Moisturizer; Triple Defense Treatment; Triple Defense Treatment for Men; Triple Protect Face Lotion SPF 20; Troiareuke Acsen Uv Protector Essence; Tropical Pineapple Jumbo Lip Balm; True Blue Spa Cooling Sunscreen Mist Broad Spectrum SPF 25 Water Resistant (40 minutes) Monoi Oil; Truist Sunscreen Moisturizer; Turf Screen Crew Broad Spectrum Sunscreen; ULTA Oil Free Sunscreen SPF30; ULTA Sunscreen SPF 30; ULTRASOL Sport Sunscreen; ULTRASOL Sunscreen; ULTRASOL Sunscreen SPF45; UNBLEMISH Invisible Matte Defense; UV Defense Pocket Sun Pad (Broad Spectrum, SPF30); UV Defense Sun Block Tissues (BROAD SPECTRUM, SPF30); Ulimate Sheer SPF 85 Rite Aid; Ulta Beauty Broad Spectrum SPF 30 Sunscreen; Ulta Beauty Broad Spectrum SPF 50 Sunscreen; Ulta Beauty SPF 30 Broad Spectrum Sunscreen; Ulta Beauty SPF 50 Broad Spectrum Sunscreen; Ulta Beauty SPF 50 Workout Sunscreen Face Mist with Rosewater; Ulta Broad Spectrum SPF 30; Ulta Broad Spectrum SPF 50; Ulta Broad Spectrum SPF 70; Ulta Broad Spectrum SUNSCREEN SPF80; Ulta Face SPF 30; Ulta SPF 50; Ulta SPF30; Ulta Sun Dry Touch SPF 55; Ulta Sun Dry Touch SPF 70; Ulta Sunscreen SPF 15; Ulta Sunscreen SPF 30; Ulta Sunscreen SPF 50; Ultimate Miracle Worker Eye SPF 15; Ultimate Seer Sunscreen SPF 55 daylogic; Ultimate Sheer SPF 55 body; Ultimate Sheer SPF 70; Ultimate Sheer Sunscreen SPF 100 Rite Aid; Ultimate Sheer Sunscreen SPF 30 daylogic; Ultimate Sheer Sunscreen SPF 70 Quality Choice; Ultimate Sheer Sunscreen SPF 70 daylogic; Ultimate Sheer Sunscreen SPF 70 exchange select; Ultimate Sheer Sunscreen SPF 85 Rite Aid; Ultimate Sport Face Sunscreen Lotion; Ultimate Sport Sunscreen; Ultimate Sport Sunscreen Lotion; Ultimate Sport Sunscreen Lotion SPF 30; Ultimate Sport Sunscreen Spray SPF 30; Ultimate Sport Sunscreen Spray SPF 45; Ultimate Sport Sunscreen Spray SPF 60; Ultimate Sport Sunscreen Spray SPF 70; Ultimate Sport Sunscreen Spray SPF 85; Ultra Defense Spray Sunscreen Ecran Solaire En Vaporisateur SPF/fps 30; Ultra Defense Spray Sunscreen Écran Solaire En Vaporisateur SPF Fps 100; Ultra Defense Spray Sunscreen/ecran Solaire En Vaporisateur SPF/fps 50; Ultra Defense Sunscreen Lotion Ecran Solaire SPF/fps 15; Ultra Defense Sunscreen Lotion Ecran Solaire SPF/fps 30; Ultra Defense Sunscreen Lotion Lotion Écran Solaire SPF Fps 30 Photostable; Ultra Defense Sunscreen Lotion Lotion Écran Solaire SPF Fps 60; Ultra Defense Sunscreen Lotion Lotion Écran Solaire SPF Fps 60 Photostable; Ultra Defense Sunscreen Lotion Lotion Écran Solaire SPF/fps 15 Photostable; Ultra Defense Sunscreen Lotion Écran Solaire SPF Fps 15 Technologie Avotriplex Technology; Ultra Defense Sunscreen Lotion Écran Solaire SPF Fps 30 Technologie Avotriplex Technology; Ultra Defense Sunscreen Lotion Écran Solaire SPF Fps 50; Ultra Defense Sunscreen Lotion Écran Solaire SPF Fps 50 Technologie Avotriplex Technology; Ultra Facial Cream/crème SPF 30; Ultra Facial Moisturizer SPF 30; Ultra Fluide Corps; Ultra Fluide Visage; Ultra Light Sunscreen Broad Spectrum SPF 50; Ultra Light Sunscreen Broad Spectrum SPF 50 Merle Norman; Ultra Mist Banana Boat Sport Clear Sunblock Ecran Solaire Incolore Uva & Uvb SPF Fps 30; Ultra Mist Banana Boat Ultra Clear Sunblock Ecran Solaire Incolore Uva & Uvb SPF Fps 30; Ultra Moisturizing Sun; Ultra Protection Eye Lip Nose Sunscreen Broad Spectrum SPF 40; Ultra Protection SPF 70; Ultra Protection Stick Broad Spectrum SPF 40 La Prairie Switzerland; Ultra Protection stick La prarie Switerland; Ultra Protection stick SPF 40 La prairie Switzerland; Ultra Replenishing Sunscreen SPF 40; Ultra Sheer Body Mist Sunscreen; Ultra Sheer Body Mist Sunscreen SPF 100; Ultra Sheer Body Mist Sunscreen SPF 30; Ultra Sheer Body Mist Sunscreen SPF 45; Ultra Sheer Body Mist Sunscreen SPF 85; Ultra Sheer Dry Touch Sunscreen SPF 30; Ultra Sheer Dry-touch Sunscreen; Ultra Sheer Dry-touch Sunscreen SPF 100; Ultra Sheer Dry-touch Sunscreen SPF 110; Ultra Sheer Dry-touch Sunscreen SPF 30; Ultra Sheer Dry-touch Sunscreen SPF 45; Ultra Sheer Dry-touch Sunscreen SPF 55; Ultra Sheer Dry-touch Sunscreen SPF 60; Ultra Sheer Face & Body Stick SPF 60; Ultra Sheer Face & Body Stick Sunscreen SPF 50+; Ultra Sheer Face Mist Sunscreen; Ultra Sheer Face Sunscreen; Ultra Sheer Face Sunscreen SPF 110; Ultra Sheer Face Sunscreen SPF 45; Ultra Sheer Face Sunscreen SPF 60; Ultra Sheer Face Sunscreen SPF 70; Ultra Sheer Foaming Lotion SPF 30; Ultra Sheer Foaming Lotion SPF 60; Ultra Sheer Sunscreen Lotion; Ultra Sheer Water Light; Ultra Soft Hydrating Sunblock SPF 30; Ultra Soft Hydrating Sunblock SPF 45; Ultra Sport Lotion 30 SPF; Ultra Sun Protection Spray; Ultra Sun Protector Lotion Lait Solaire Ultra Protection 50+; Ultra Sunscreen; Ultra V IDEBENONE SUNBLOCK; Ultra-Light Hydrating Sunscreen SPF 50 Eau Thermale Avene; Ultra-fluid Body Milk Sun Protection SPF 30; Ultra-light Lotion SPF 50; Ultra-light Moisturizing Lotion SPF 30; Ultraquin 4% Hydroquinone Cream With Sunscreens; UltrasolSunscreen Clear CONTINUOUS SPRAY SPF43; UltrasolSunscreen KIDS Clear CONTINUOUS SPRAY; UltrasolSunscreen KIDS Sunscreen Lotion Continuous Spray SPF 45; UltrasolSunscreen Sport Clear CONTINUOUS SPRAY; UltrasolSunscreen Sport Sunscreen Lotion CONTINUOUS SPRAY SPF 45; UltrasolSunscreen Sunscreen Lotion Continuous Spray SPF 45; Uncomplikated Makeup Setting SPF 50; Uncomplikated SPF; Unicorn Snot 30 Glitter Sunscreen Blue; Unicorn Snot 30 Glitter Sunscreen Gold; Unicorn Snot 30 Glitter Sunscreen Pink; Unicorn Snot SPF 30 Bioglitter Sunscreen; United Spirit of America BROAD SPECTRUM SPF 30 Sunscreen; Unseen Sunscreen; Unseen Sunscreen Broad Spectrum SPF 40; Up and Up Sport Sunscreen Broad Spectrum SPF 50; Urban Antioxidant Sunscreen SPF 40; Urban Decay Urban Defense Complexion Primer Broad Spectrum SPF 30; Urban Defense; Urban Outfitters Broad Spectrum SPF 30 Sunscreen; Urban Outfitters Sunscreen Shimmer Broad Spectrum SPF 30; Uv 50 Ecran Multi-protection SPF 50; Uv 50 Ecran Teinté Multi-protection SPF 50; Uv Defense; VITAMIN E MOISTURE-PROTECT SPF 30 PA plus plus plus; Vanilla Mint Lip SPF 30 Balm; Vanilla SPF 30 Broad Spectrum Lip Balm; Vapo Haute Protection Soleil Sun High Protection Spray Fps 30 SPF; Venofye Orchard Bee Brilliance SPF 30; Vertra Element Resistance Daily Driver SPF30; Very Emollient Body Daily Shade SPF15; Vialprotection Age Defying Protective SPF 50; Vichy Laboratoire Capital Soleil SPF 30 Soft Sheer Sunscreen; Vichy Laboratoire Capital Soleil SPF 60 Soft Sheer Sunscreen; Vichy Laboratoires Aqualia Thermal Sunscreen; Vichy Laboratoires Capital Soleil 30 Broad Spectrum SPF 30 Sunscreen Luxurious Protective; Vichy Laboratoires Capital Soleil 30 Sunscreen Luxurious Protective; Vichy Laboratoires Capital Soleil 50 Daily AntiAging Face Sunscreen Broad Spectrum SPF 50 Water Resistant 80 Minutes; Vichy Laboratoires Capital Soleil 60 Daily AntiAging Face and Body Sunscreen Broad Spectrum SPF 60 Water Resistant 80 Minutes; Vichy Laboratoires Capital Soleil SPF 50 Ultra Light Sunscreen; Vichy Laboratoires Ideal Capital Soleil 45 Sunscreen Broad Spectrum SPF 45 Water Resistant 80 Minutes; Vichy Laboratoires Ideal Capital Soleil 50 Sunscreen Broad Spectrum SPF 50 Water Resistant 40 Minutes; Vichy Laboratoires Ideal Capital Soleil 60 Sunscreen Broad Spectrum SPF 60 Water Resistant 40 Minutes; Vichy Laboratoires Idealia Broad Spectrum SPF 25 Sunscreen BB; Vichy Laboratories Aqualia Thermal UV Defense SPF 30 Mineralizing Thermal Water Niacinamide Plant Sugar Vitamin E 48 hr Dynamic Hydration Oil free lightweight texture All skin types; Vichy Laboratories LiftActiv Peptide-C SPF 30 Phyto Peptides Vitamin C; Victorias Secret Pink Broad Spectrum SPF 25 Sunscreen Sunkissed; Victorias Secret Sun Broad Spectrum SPF 25; Village11Factory Waterproof Cica Sun; Village11factory Daily Mild Sun; Village11factory Hydra Sun Fluid; Vine Vera Resveratrol Zinfandel Radiance; Visage Envy Facial Moisturizing SPF30; Visage Envy Invisible Face Gel SPF50; Visual Perfection Tint Releasing Moisturizer SPF 20; Vita Lift SPF 15 Daily Moisturizer; Vitamin C Suncare Broad Spectrum SPF 30 Sunscreen; Vitamin Cream C plus C; Vitamin E Moisture-protect Emulsion SPF 30; Vitamin Fluid CC; Vmv Hypoallergenics Armada Sport 50; Volu-firm Day Cream Sunscreen; Volu-firm Day Cream Sunscreen Broad Spectrum SPF 30; Volu-firm Day Cream With SPF 30; Walg Sun Moist Spf30; Walg Sun Moist Spf50; Walg Sun Moisturizing SPF 50; Walgreen Clear Complexion; Walgreen Sport SPF 50; Walgreen Sport SPF 70 Sunscreen; Walgreens Broad Spectrum SPF 110 Age Protection Sunscreen; Walgreens Broad Spectrum SPF 30 Dry Touch Sunscreen; Walgreens Broad Spectrum SPF 70 Sunscreen; Walgreens Broad Spectrum Sport SPF 50 Sunscreen; Walgreens Clear Face; Walgreens Kids SPF 50; Walgreens SUNSCREEN Sport Broad Spectrum SPF 30; Walgreens Sport Broad Spectrum SPF 50 Faces Sunscreen; Walgreens Sport Faces SPF 30; Walgreens Sport SPF 50; Walgreens Sport SPF 50 Sunscreen; Walgreens Sun Kids SPF50; Walgreens Sunscreen Baby SPF 50; Walgreens Sunscreen Broad Spectrum SPF 30; Walgreens Sunscreen SPF 30; Walgreens Sunscreen SPF 50; Walgreens Sunscreen Sport SFP 70; Walgreens Sunscreen Sport SPF 30; Walgreens Sunscreen Sport SPF 50; Walgreens Wrinkle Repair Moisturizer SPF30; Walgreens sunscreen Broad Spectrum SPF 15; Waterblock Solar SPF 30; Waterblock Solar Spray SPF 30; Waterful Essence Sun; Waterguard Kids; Waterguard Kids Sunscreen Clear Spray; Waterwhite Eye Cream; Western FAMILY SPF 15; Western Family Baby Broad Spectrum Sunscreen SPF 50; Western Family Broad Spectrum Sunscreen SPF 70; Western Family Broad Spectrum SunscreenSPF 50 SPF 50; Western Family Oil Free Faces SPF 30; Western Family Sport Sunscreen SPF 30; Wet Guard Swim Humidity Sweat Sunscreen Lotion; Wet Skin Kids; Wet Skin SPF 30; Wet Skin SPF 45; Wet Skin SPF 60; Wet Skin Sunscreen Spray SPF 85; Wet Skin Swim Humidity Sweat Sunscreen Lotion; White Caviar Illuminating Hand SPF 15; White Caviar Illuminating Hand Sunscreen Broad Spectrum SPF 15; White Caviar Illuminating Hand Sunscreen Broad Spectrum SPF 15 La Prairie; White Girl Sunscreen; WhiteWater Advanced Brightening WhiteWater Advanced Brightening SPF30; Wknd Underwater Sun Tan; Wknd Underwater Sun White; Wonderblur Immediate Skin Smoothing Finishing Broad Spectrum SPF30; Wrinkle Control Day Creme Broad Spectrum SPF 15; Wrinkle Corrector and Firming Moisturizer SPF 15; Wrinkle Expert Age Defense Uv Lotion; XIELL Intensive Cell Recovery Sun Cream; XXL Demi Make Up SPF 50; XXL Sun Block SPF 50; Yadah Oh My Sun Slush; Youth Code Day Cream SPF 30; Youth Code Day Lotion SPF 30; Youth Surge Age Decelerating Moisturizer SPF 15; Youth-enriched With Orchid; ZO SKIN HEALTH OCLIPSE SUN SPF 50 BROAD SPECTRUM SUNSCREEN SPF 50 FOR FACE PLUS BODY WATER/PERSPIRATION RESISTANT (80 minutes); ZO SKIN HEALTH OCLIPSE SUN SPF 50 BROAD SPECTRUM SUNSCREEN SPF 50 FOR FACE PLUS BODY WATER/PERSPIRATION RESISTANT (80 minutes) UVA / UVB / HEV / IR-A PROTECTION ZOX12; Zermat Skin SPF 50 Broad Spectrum; Zilactin-lip (regular and Cherry Flavour); Zinka SPF 50 Facestick; Zo Skin Health Oclipse Daily Sheer Broad-spectrum Sunscreen SPF 50; Zo Skin Health Oclipse Smart Tone Broad-spectrum Sunscreen SPF 50; Zrii New Day Broad Spectrum SPF-30; aKwa Daystar Shade SPF 40; ageLOC Elements; ageLOC Transformation; be Flat Daily Mild Flat Sun Block; bu SPF 50 Broad Spectrum on Alcohol-Free Performance Sunscreen - Fragrance Free; bu SPF 50 KIDS Broad Spectrum Alcohol-Free Performance Sunscreen - Fragrance Free; bu SPF 50 S Broad Spectrum Alcohol-Free Performance Sunscreen - Natural White Sage Scent; callyssee Beauty Faceguard Skin Protecting Facial Balm; celazome Moisturizing SPF 29 Active with DNArescue; celazome Moisturizing SPF 30 Active; coppertone Sunscreen Oil Free SFP 50; coppertone sport Sunscreen SPF 30; daily UV protection cream mild; emilia Naked Sun; emilia Naked Sun Body Gel SPF30; emilia Naked Sun SPF 50 Invisible Face Gel; enfuselle BODY SUNSCREEN BROAD SPECTRUM SPF 30; eos Active with Aloe SPF 30 Sunscreen Lip Balm; equate Age Guard Face Broad Spectrum SPF 110 Sunscreen; equate SPORT Sunscreen Broad Spectrum; hello, sunshine moisturizer Broad Spectrum SPF 30 sunscreen; i Protect for HER SPF 15 ClearMist; i Protect for HER SPF 8 ClearMist; i Protect for HIM SPF 15 ClearMist; i Protect for HIM SPF 8 ClearMist; innisfree Daily UV Defense Sunscreen; intense UV protection emulsion; mark. For Gooness Face Antioxidant Skin Moisturizing; meijer Baby Tear Free SPF 50 CS; moisturising sunscreen SPF 30; nanocare Moisturizing Sunscreen SPF 50; perfect truth cc broad spectrum SPF 30 sunscreen Ole Henriksen; perfect truth cc eye broad spectrum SPF 15 OleHenriksen; pur CC Medium; pur CC cream SPF 40 LIGHT; skin MD Natural; skin effects Brightening Day SPF 50; Émulsion Hydratante Visage Fps 30

> <INTERNATIONAL_BRANDS>
Eusolex

$$$$