drugbank_target|P33247 Squalene--hopene cyclase (DB02139; DB02339; DB02544; DB03234; DB03748; DB03771; DB03874; DB03888; DB04147; DB04233; DB08458)
 OpenBabel12092119563D

  0  0  0     0  0            999 V3000
M  V30 BEGIN CTAB
M  V30 COUNTS 9950 10104 0 0 0
M  V30 BEGIN ATOM
M  V30 1 H -0.908 1.98254 -0.117106 0
M  V30 2 N 0 1.576 0 0
M  V30 3 C 0.933 2.03868 1.02534 0
M  V30 4 C 1.911 0.928543 1.3348 0
M  V30 5 O 3.095 1.19667 1.45644 0
M  V30 6 C 0.222 2.43627 2.35294 0
M  V30 7 C -0.732 3.65373 2.2001 0
M  V30 8 S 0.101 5.13292 1.52614 0
M  V30 9 C 1.257 5.56322 2.86805 0
M  V30 10 H 1.49 2.90518 0.631377 0
M  V30 11 H -0.977 1.52953 0.210867 0
M  V30 12 H 0.981 2.67203 3.11629 0
M  V30 13 H -0.358 1.57376 2.7183 0
M  V30 14 H -1.165 3.90944 3.18086 0
M  V30 15 H -1.563 3.418 1.51819 0
M  V30 16 H 0.729 5.58782 3.83104 0
M  V30 17 H 1.672 6.56266 2.65933 0
M  V30 18 H 2.08 4.83886 2.90714 0
M  V30 19 N 1.4781 -0.272755 1.55222 0
M  V30 20 C 2.4411 -1.32041 1.87344 0
M  V30 21 C 3.4411 -1.42342 0.74803 0
M  V30 22 O 4.6311 -1.41488 1.0162 0
M  V30 23 C 1.7631 -2.70173 2.07893 0
M  V30 24 H 2.9561 -1.04789 2.80997 0
M  V30 25 H 0.5091 -0.51083 1.47717 0
M  V30 26 H 1.2441 -3.02605 1.16622 0
M  V30 27 H 1.0291 -2.64082 2.89833 0
M  V30 28 H 2.5191 -3.45869 2.34017 0
M  V30 29 N 2.9562 -1.48159 -0.537278 0
M  V30 30 C 3.8662 -1.64807 -1.6696 0
M  V30 31 C 4.8822 -0.530651 -1.65711 0
M  V30 32 O 6.0582 -0.800784 -1.84796 0
M  V30 33 C 3.1232 -1.67708 -3.03438 0
M  V30 34 C 2.1842 -2.91025 -3.156 0
M  V30 35 C 1.4172 -2.93778 -4.45567 0
M  V30 36 O 1.6402 -2.05153 -5.3223 0
M  V30 37 O 0.5742 -3.85868 -4.61941 0
M  V30 38 H 4.4002 -2.6066 -1.55853 0
M  V30 39 H 1.9852 -1.31475 -0.709549 0
M  V30 40 H 3.8672 -1.7218 -3.84619 0
M  V30 41 H 2.5422 -0.750278 -3.14885 0
M  V30 42 H 1.4492 -2.92089 -2.33741 0
M  V30 43 H 2.7822 -3.83065 -3.09066 0
M  V30 44 N 4.4343 0.785586 -1.36625 0
M  V30 45 C 5.3663 1.90711 -1.2713 0
M  V30 46 C 6.3793 1.61688 -0.189986 0
M  V30 47 O 7.5683 1.72864 -0.445014 0
M  V30 48 C 4.6683 3.25611 -0.939713 0
M  V30 49 C 3.8413 3.82385 -2.12369 0
M  V30 50 C 2.9003 4.95732 -1.76456 0
M  V30 51 O 1.9263 5.12047 -2.48589 0
M  V30 52 N 3.1283 5.76258 -0.700492 0
M  V30 53 H 5.8933 1.99376 -2.23762 0
M  V30 54 H 3.4543 0.964041 -1.30069 0
M  V30 55 H 5.4463 3.98937 -0.680554 0
M  V30 56 H 4.0163 3.12538 -0.0624074 0
M  V30 57 H 3.2363 3.01001 -2.54543 0
M  V30 58 H 4.5243 4.17047 -2.9146 0
M  V30 59 H 3.9223 5.65609 -0.101624 0
M  V30 60 H 2.4793 6.4987 -0.501165 0
M  V30 61 N 5.9124 1.20967 1.01018 0
M  V30 62 C 6.8424 0.988272 2.11555 0
M  V30 63 C 7.8234 -0.0849778 1.69888 0
M  V30 64 O 9.0084 0.0738202 1.9406 0
M  V30 65 C 6.1384 0.546528 3.42973 0
M  V30 66 C 5.0924 1.56375 3.9841 0
M  V30 67 C 4.4184 0.97842 5.25672 0
M  V30 68 C 5.7184 2.94922 4.31066 0
M  V30 69 H 7.4124 1.91276 2.30334 0
M  V30 70 H 4.9584 0.921073 1.1069 0
M  V30 71 H 6.9114 0.378839 4.19694 0
M  V30 72 H 5.6354 -0.413598 3.23971 0
M  V30 73 H 4.2944 1.71891 3.23804 0
M  V30 74 H 3.9424 0.0101688 5.02999 0
M  V30 75 H 3.6424 1.65784 5.63728 0
M  V30 76 H 5.1664 0.821939 6.05043 0
M  V30 77 H 6.5804 2.8288 4.9865 0
M  V30 78 H 4.9774 3.5983 4.80253 0
M  V30 79 H 6.0474 3.4616 3.39561 0
M  V30 80 N 7.3905 -1.2043 1.01659 0
M  V30 81 C 8.6365 -1.90079 0.706963 0
M  V30 82 C 8.9695 -1.78648 -0.761474 0
M  V30 83 O 8.2445 -1.17069 -1.55323 0
M  V30 84 C 8.5275 -3.41469 1.14327 0
M  V30 85 C 8.3805 -3.61833 2.67201 0
M  V30 86 C 9.6995 -4.34261 0.714529 0
M  V30 87 H 6.8185 -0.690254 0.2583 0
M  V30 88 H 9.4605 -1.41826 1.26433 0
M  V30 89 H 7.6105 -3.82696 0.669056 0
M  V30 90 H 9.2825 -3.2986 3.22475 0
M  V30 91 H 7.5255 -3.05304 3.08175 0
M  V30 92 H 8.1965 -4.67955 2.92783 0
M  V30 93 H 10.6725 -4.00682 1.12221 0
M  V30 94 H 9.5485 -5.38806 1.04784 0
M  V30 95 H 9.8095 -4.40431 -0.383799 0
M  V30 96 N 8.8686 -0.792821 -1.36206 0
M  V30 97 C 9.7786 -0.194808 -2.3379 0
M  V30 98 C 10.7946 0.654869 -1.61206 0
M  V30 99 O 11.9706 0.569856 -1.9317 0
M  V30 100 C 9.0356 0.657721 -3.40404 0
M  V30 101 C 8.0966 -0.210849 -4.28782 0
M  V30 102 C 7.3296 0.601086 -5.30304 0
M  V30 103 O 7.5526 1.83682 -5.40016 0
M  V30 104 O 6.4866 -0.000808277 -6.019 0
M  V30 105 H 10.3126 -1.00172 -2.86704 0
M  V30 106 H 7.8976 -0.554341 -1.38735 0
M  V30 107 H 9.7796 1.14375 -4.05581 0
M  V30 108 H 8.4546 1.44247 -2.89784 0
M  V30 109 H 7.3616 -0.743714 -3.66633 0
M  V30 110 H 8.6946 -0.959195 -4.82763 0
M  V30 111 N 10.3467 1.47872 -0.545128 0
M  V30 112 C 11.3097 2.28337 0.198717 0
M  V30 113 C 12.3097 1.36255 0.853888 0
M  V30 114 O 13.4997 1.59003 0.711606 0
M  V30 115 C 10.6317 3.15585 1.28915 0
M  V30 116 H 11.8247 2.95567 -0.507941 0
M  V30 117 H 9.3777 1.53362 -0.301616 0
M  V30 118 H 10.1127 2.53019 2.02859 0
M  V30 119 H 9.8977 3.83337 0.824309 0
M  V30 120 H 11.3877 3.76243 1.81194 0
M  V30 121 N 11.8248 0.280983 1.55075 0
M  V30 122 C 13.2358 -0.215629 1.85451 0
M  V30 123 C 13.5868 -1.54991 1.203 0
M  V30 124 O 12.7118 -2.10699 0.493435 0
M  V30 125 C 13.3068 -0.398026 3.36454 0
M  V30 126 C 11.8658 -0.838866 3.66933 0
M  V30 127 C 11.0128 0.064458 2.77225 0
M  V30 128 H 13.9638 0.502601 1.50531 0
M  V30 129 H 13.9848 -1.23569 3.59876 0
M  V30 130 H 13.4968 0.573241 3.83843 0
M  V30 131 H 11.5978 -1.8214 3.25048 0
M  V30 132 H 11.7108 -0.672123 4.74362 0
M  V30 133 H 10.0748 -0.452863 2.50642 0
M  V30 134 H 10.8578 1.03172 3.2743 0
M  V30 135 N 13.3029 -1.57598 0.00835791 0
M  V30 136 C 14.2659 -2.07884 -0.965242 0
M  V30 137 C 15.2659 -0.989825 -1.26725 0
M  V30 138 O 16.4559 -1.25218 -1.21104 0
M  V30 139 C 13.5879 -2.52731 -2.28779 0
M  V30 140 H 14.7809 -2.95178 -0.530112 0
M  V30 141 H 12.3339 -1.54458 -0.239283 0
M  V30 142 H 13.0689 -1.68705 -2.76964 0
M  V30 143 H 12.8539 -3.32272 -2.08177 0
M  V30 144 H 14.3439 -2.91933 -2.98605 0
M  V30 145 N 14.781 0.264519 -1.55364 0
M  V30 146 C 16.011 1.01153 -1.80143 0
M  V30 147 C 16.419 1.80115 -0.579253 0
M  V30 148 O 15.762 1.77813 0.46132 0
M  V30 149 C 15.824 2.01098 -2.97993 0
M  V30 150 C 15.488 1.40995 -4.34706 0
M  V30 151 C 16.485 0.821316 -5.13372 0
M  V30 152 C 14.17 1.43461 -4.81378 0
M  V30 153 C 16.164 0.265339 -6.36847 0
M  V30 154 C 13.851 0.874771 -6.04807 0
M  V30 155 C 14.849 0.291146 -6.82379 0
M  V30 156 O 14.537 -0.260093 -8.03479 0
M  V30 157 H 14.269 0.304125 -0.603725 0
M  V30 158 H 16.823 0.298089 -2.03225 0
M  V30 159 H 15.053 2.76224 -2.70623 0
M  V30 160 H 16.742 2.61997 -3.1002 0
M  V30 161 H 17.508 0.794903 -4.78442 0
M  V30 162 H 13.387 1.87826 -4.21002 0
M  V30 163 H 16.931 -0.190837 -6.97339 0
M  V30 164 H 12.828 0.898452 -6.39217 0
M  V30 165 H 13.596 -0.150265 -8.18362 0
M  V30 166 N 16.2591 1.48442 0.529413 0
M  V30 167 C 17.2221 1.62524 1.61612 0
M  V30 168 C 18.2221 0.498509 1.52877 0
M  V30 169 O 19.4121 0.76431 1.56537 0
M  V30 170 C 16.5441 1.59597 3.01233 0
M  V30 171 H 17.7371 2.59423 1.50465 0
M  V30 172 H 15.2901 1.37047 0.751514 0
M  V30 173 H 16.0251 0.641781 3.17886 0
M  V30 174 H 15.8101 2.41397 3.08982 0
M  V30 175 H 17.3001 1.72646 3.80241 0
M  V30 176 N 17.7372 -0.778329 1.37039 0
M  V30 177 C 19.1532 -1.07796 1.17695 0
M  V30 178 C 19.3532 -2.01498 0.00860115 0
M  V30 179 O 18.4092 -2.43901 -0.653352 0
M  V30 180 C 19.7222 -1.68178 2.49272 0
M  V30 181 C 21.2702 -1.80467 2.55735 0
M  V30 182 C 21.7452 -2.44263 3.87427 0
M  V30 183 N 23.2362 -2.51721 3.88833 0
M  V30 184 C 23.9712 -3.01919 4.87476 0
M  V30 185 N 23.4672 -3.5234 5.96513 0
M  V30 186 N 25.2602 -3.00733 4.74885 0
M  V30 187 H 17.4112 -0.156032 2.11826 0
M  V30 188 H 19.6742 -0.131844 0.938787 0
M  V30 189 H 19.3802 -1.06796 3.35093 0
M  V30 190 H 19.2542 -2.67554 2.65885 0
M  V30 191 H 21.6412 -2.40984 1.70325 0
M  V30 192 H 21.7222 -0.798656 2.43013 0
M  V30 193 H 21.3662 -1.84388 4.73248 0
M  V30 194 H 21.2962 -3.45458 3.9745 0
M  V30 195 H 23.7872 -2.1603 3.10063 0
M  V30 196 H 24.1002 -3.89027 6.67741 0
M  V30 197 H 22.4452 -3.50462 6.00168 0
M  V30 198 H 25.6362 -2.60638 3.88826 0
M  V30 199 H 25.8092 -3.39545 5.51918 0
M  V30 200 N 19.2153 -1.21501 -1.00376 0
M  V30 201 C 20.4433 -1.059 -1.77744 0
M  V30 202 C 20.8583 0.391125 -1.84704 0
M  V30 203 O 20.2153 1.27133 -1.30933 0
M  V30 204 C 20.2663 -1.65111 -3.21591 0
M  V30 205 O 19.9873 -3.0445 -3.15027 0
M  V30 206 C 21.4883 -1.54637 -4.15454 0
M  V30 207 H 18.7083 -0.371825 -0.558558 0
M  V30 208 H 21.2523 -1.60865 -1.26264 0
M  V30 209 H 19.4073 -1.14235 -3.70175 0
M  V30 210 H 19.8213 -3.3278 -4.0541 0
M  V30 211 H 21.2953 -2.00808 -5.14179 0
M  V30 212 H 21.7723 -0.501022 -4.36333 0
M  V30 213 H 22.3783 -2.04767 -3.72761 0
M  V30 214 N 20.6934 1.19889 -1.02296 0
M  V30 215 C 21.6234 2.25141 -0.619174 0
M  V30 216 C 22.6044 1.66051 0.368915 0
M  V30 217 O 23.7894 1.92546 0.252941 0
M  V30 218 C 20.9194 3.4728 0.0368783 0
M  V30 219 C 19.8734 4.19005 -0.872865 0
M  V30 220 C 19.1994 5.34637 -0.0822402 0
M  V30 221 C 20.4994 4.74452 -2.18387 0
M  V30 222 H 22.1934 2.59171 -1.49903 0
M  V30 223 H 19.7394 1.24579 -0.722222 0
M  V30 224 H 21.6924 4.20098 0.330958 0
M  V30 225 H 20.4164 3.12433 0.95149 0
M  V30 226 H 19.0754 3.48061 -1.15105 0
M  V30 227 H 18.7234 4.96034 0.83422 0
M  V30 228 H 18.4234 5.83557 -0.688149 0
M  V30 229 H 19.9474 6.10255 0.205238 0
M  V30 230 H 21.3614 5.39055 -1.95172 0
M  V30 231 H 19.7584 5.33834 -2.74119 0
M  V30 232 H 20.8284 3.92844 -2.84257 0
M  V30 233 N 22.1715 0.800033 1.35784 0
M  V30 234 C 23.4485 0.30088 1.93272 0
M  V30 235 C 23.8285 -1.20857 1.73081 0
M  V30 236 O 23.1765 -2.00502 1.09596 0
M  V30 237 C 23.3865 0.70511 3.41803 0
M  V30 238 C 24.7345 0.690871 4.18942 0
M  V30 239 O 25.7585 0.646244 3.50289 0
M  V30 240 O 24.6175 0.74332 5.41421 0
M  V30 241 H 21.7115 0.0771605 0.823393 0
M  V30 242 H 24.2575 0.88329 1.449 0
M  V30 243 H 23.0295 1.74571 3.50201 0
M  V30 244 H 22.6525 0.0971541 3.97481 0
M  V30 245 N 23.6496 -1.47581 0.552962 0
M  V30 246 C 25.0656 -1.5818 0.212424 0
M  V30 247 C 25.2656 -1.55213 -1.28496 0
M  V30 248 O 24.3216 -1.45329 -2.06484 0
M  V30 249 C 25.6346 -2.88865 0.835318 0
M  V30 250 C 27.1826 -3.0244 0.806156 0
M  V30 251 C 27.6576 -4.35819 1.40804 0
M  V30 252 N 29.1486 -4.42444 1.37103 0
M  V30 253 C 29.8836 -5.44202 1.80641 0
M  V30 254 N 29.3796 -6.52795 2.32015 0
M  V30 255 N 31.1726 -5.35222 1.71738 0
M  V30 256 H 23.3236 -1.47753 1.52587 0
M  V30 257 H 25.5866 -0.702941 0.636064 0
M  V30 258 H 25.2926 -2.9676 1.88749 0
M  V30 259 H 25.1666 -3.7579 0.325848 0
M  V30 260 H 27.5536 -2.94144 -0.237317 0
M  V30 261 H 27.6346 -2.17068 1.35334 0
M  V30 262 H 27.2786 -4.44871 2.45056 0
M  V30 263 H 27.2086 -5.19916 0.836338 0
M  V30 264 H 29.6996 -3.6456 0.995202 0
M  V30 265 H 30.0126 -7.26609 2.63171 0
M  V30 266 H 28.3576 -6.53696 2.36023 0
M  V30 267 H 31.5486 -4.49284 1.31382 0
M  V30 268 H 31.7216 -6.14389 2.05987 0
M  V30 269 N 25.1277 -0.289203 -1.54924 0
M  V30 270 C 26.0907 0.579144 -2.21762 0
M  V30 271 C 27.0907 1.07047 -1.1999 0
M  V30 272 O 28.2807 0.968384 -1.44803 0
M  V30 273 C 25.4127 1.80055 -2.8947 0
M  V30 274 H 26.6057 -0.00464908 -2.999 0
M  V30 275 H 24.1587 -0.0399306 -1.56249 0
M  V30 276 H 24.8937 2.42449 -2.15381 0
M  V30 277 H 24.6787 1.45602 -3.64064 0
M  V30 278 H 26.1687 2.41773 -3.40493 0
M  V30 279 N 26.6058 1.57591 -0.0167156 0
M  V30 280 C 27.8518 1.91567 0.665582 0
M  V30 281 C 28.1848 0.892298 1.72487 0
M  V30 282 O 27.4598 -0.0867127 1.94307 0
M  V30 283 C 27.7428 3.36069 1.29342 0
M  V30 284 C 27.5958 4.49135 0.244541 0
M  V30 285 C 28.9148 3.803 2.21495 0
M  V30 286 H 26.0338 0.69666 0.240488 0
M  V30 287 H 28.6758 1.89866 -0.0714356 0
M  V30 288 H 26.8258 3.3765 1.92158 0
M  V30 289 H 28.4978 4.59689 -0.385228 0
M  V30 290 H 26.7408 4.3165 -0.431379 0
M  V30 291 H 27.4118 5.47242 0.723207 0
M  V30 292 H 29.8878 3.80377 1.68678 0
M  V30 293 H 28.7638 4.82127 2.62382 0
M  V30 294 H 29.0248 3.15104 3.101 0
M  V30 295 N 28.0839 -0.256276 1.55502 0
M  V30 296 C 28.9939 -1.33882 1.92647 0
M  V30 297 C 30.0099 -1.53159 0.825727 0
M  V30 298 O 31.1859 -1.66963 1.12629 0
M  V30 299 C 28.2509 -2.6751 2.20543 0
M  V30 300 C 27.3119 -2.56836 3.43997 0
M  V30 301 C 26.5449 -3.84092 3.70553 0
M  V30 302 O 26.7679 -4.85545 2.99336 0
M  V30 303 O 25.7019 -3.83288 4.64084 0
M  V30 304 H 29.5279 -1.05374 2.84833 0
M  V30 305 H 27.1129 -0.456237 1.42263 0
M  V30 306 H 28.9949 -3.46492 2.39835 0
M  V30 307 H 27.6699 -2.9577 1.31536 0
M  V30 308 H 26.5769 -1.76172 3.30021 0
M  V30 309 H 27.9099 -2.33523 4.33275 0
M  V30 310 N 29.562 -1.4872 -0.521534 0
M  V30 311 C 30.792 -1.6061 -1.29954 0
M  V30 312 C 31.2 -0.268728 -1.87282 0
M  V30 313 O 30.543 0.753221 -1.67548 0
M  V30 314 C 30.605 -2.60013 -2.48261 0
M  V30 315 C 30.269 -4.04874 -2.11957 0
M  V30 316 C 31.266 -4.92304 -1.67132 0
M  V30 317 C 28.951 -4.5047 -2.22221 0
M  V30 318 C 30.945 -6.2336 -1.33047 0
M  V30 319 C 28.632 -5.81544 -1.87748 0
M  V30 320 C 29.63 -6.67812 -1.43234 0
M  V30 321 O 29.318 -7.96446 -1.09217 0
M  V30 322 H 29.05 -0.544116 -0.401141 0
M  V30 323 H 31.604 -1.95339 -0.634958 0
M  V30 324 H 29.834 -2.20422 -3.17728 0
M  V30 325 H 31.523 -2.61648 -3.10315 0
M  V30 326 H 32.289 -4.58312 -1.58665 0
M  V30 327 H 28.168 -3.83504 -2.55823 0
M  V30 328 H 31.712 -6.90649 -0.982299 0
M  V30 329 H 27.609 -6.15069 -1.95858 0
M  V30 330 H 28.377 -8.09275 -1.22542 0
M  V30 331 N 31.0401 0.771051 -1.3745 0
M  V30 332 C 31.9701 1.89827 -1.3597 0
M  V30 333 C 32.9511 1.68562 -0.228216 0
M  V30 334 O 34.1361 1.8941 -0.428675 0
M  V30 335 C 31.2661 3.2712 -1.16662 0
M  V30 336 C 30.2201 3.6295 -2.2683 0
M  V30 337 C 29.5461 4.98791 -1.92644 0
M  V30 338 C 30.8461 3.69627 -3.69017 0
M  V30 339 H 32.5401 1.91323 -2.30295 0
M  V30 340 H 30.0861 0.919082 -1.10855 0
M  V30 341 H 32.0391 4.05615 -1.14256 0
M  V30 342 H 30.7631 3.26059 -0.187926 0
M  V30 343 H 29.4221 2.86763 -2.28392 0
M  V30 344 H 29.0701 4.94271 -0.933021 0
M  V30 345 H 28.7701 5.23733 -2.66416 0
M  V30 346 H 30.2941 5.79685 -1.91826 0
M  V30 347 H 31.7081 4.38273 -3.69581 0
M  V30 348 H 30.1051 4.06067 -4.41848 0
M  V30 349 H 31.1751 2.70273 -4.02592 0
M  V30 350 N 32.5182 1.22032 0.997298 0
M  V30 351 C 33.4482 1.01065 2.10495 0
M  V30 352 C 34.4292 -0.0669542 1.69968 0
M  V30 353 O 35.6142 0.0943987 1.9397 0
M  V30 354 C 32.7442 0.582874 3.42374 0
M  V30 355 C 31.6982 1.60592 3.96729 0
M  V30 356 C 31.0242 1.03412 5.24605 0
M  V30 357 C 32.3242 2.99478 4.27914 0
M  V30 358 H 34.0182 1.93708 2.28292 0
M  V30 359 H 31.5642 0.932761 1.09707 0
M  V30 360 H 33.5172 0.423332 4.19268 0
M  V30 361 H 32.2412 -0.379213 3.24391 0
M  V30 362 H 30.9002 1.75316 3.21963 0
M  V30 363 H 30.5482 0.063518 5.0296 0
M  V30 364 H 30.2482 1.71754 5.61938 0
M  V30 365 H 31.7722 0.886066 6.04137 0
M  V30 366 H 33.1862 2.88153 4.95622 0
M  V30 367 H 31.5832 3.64903 4.76409 0
M  V30 368 H 32.6532 3.49742 3.3587 0
M  V30 369 N 33.9963 -1.19345 1.0293 0
M  V30 370 C 35.2213 -1.93538 0.745511 0
M  V30 371 C 35.6463 -1.75007 -0.689511 0
M  V30 372 O 35.0043 -1.05265 -1.47611 0
M  V30 373 C 35.0523 -3.43336 1.10239 0
M  V30 374 O 34.1563 -4.11806 0.221289 0
M  V30 375 H 33.4973 -0.604193 0.275404 0
M  V30 376 H 36.0273 -1.5141 1.37609 0
M  V30 377 H 36.0373 -3.94004 1.05947 0
M  V30 378 H 34.7123 -3.56146 2.14786 0
M  V30 379 H 33.2893 -3.715 0.322842 0
M  V30 380 N 35.4744 -0.807222 -1.35358 0
M  V30 381 C 36.7144 -0.393534 -2.00576 0
M  V30 382 C 37.0784 1.0203 -1.62647 0
M  V30 383 O 38.2794 1.53603 -2.20589 0
M  V30 384 C 36.5504 -0.572017 -3.52793 0
M  V30 385 S 38.1094 -0.248845 -4.38094 0
M  V30 386 H 34.9274 -0.149425 -0.695121 0
M  V30 387 H 37.5294 -1.04961 -1.64935 0
M  V30 388 H 36.2334 -1.60097 -3.77885 0
M  V30 389 H 35.7644 0.099359 -3.93275 0
M  V30 390 H 37.7794 0.943253 -4.87152 0
M  V30 391 N 36.9525 1.47285 -0.560781 0
M  V30 392 C 37.8845 2.28118 0.222438 0
M  V30 393 C 38.8975 1.37219 0.876056 0
M  V30 394 O 40.0865 1.62011 0.749307 0
M  V30 395 C 37.1865 3.1159 1.33285 0
M  V30 396 C 36.3595 4.30473 0.77534 0
M  V30 397 C 35.4185 4.95513 1.77069 0
M  V30 398 O 34.4445 5.53792 1.31539 0
M  V30 399 N 35.6465 4.90531 3.10418 0
M  V30 400 H 38.4115 2.95976 -0.470958 0
M  V30 401 H 35.9725 1.56955 -0.39709 0
M  V30 402 H 37.9645 3.51967 1.99752 0
M  V30 403 H 36.5345 2.45951 1.92943 0
M  V30 404 H 35.7545 3.94144 -0.0662113 0
M  V30 405 H 37.0425 5.07362 0.382272 0
M  V30 406 H 36.4405 4.44389 3.5005 0
M  V30 407 H 34.9975 5.34917 3.72434 0
M  V30 408 N 38.4306 0.297415 1.54768 0
M  V30 409 C 39.3776 -0.580276 2.23386 0
M  V30 410 C 40.3476 -1.13238 1.21517 0
M  V30 411 O 41.5326 -1.17757 1.50126 0
M  V30 412 C 38.6726 -1.74801 2.97555 0
M  V30 413 C 37.7856 -1.22764 4.1419 0
M  V30 414 C 36.9206 -2.35895 4.75949 0
M  V30 415 C 35.9596 -1.80974 5.84735 0
M  V30 416 N 35.0966 -2.87664 6.40464 0
M  V30 417 H 39.9366 0.0114833 2.97998 0
M  V30 418 H 37.4736 0.0174361 1.4709 0
M  V30 419 H 39.4316 -2.43475 3.38786 0
M  V30 420 H 38.0616 -2.31145 2.25326 0
M  V30 421 H 37.1136 -0.433271 3.77924 0
M  V30 422 H 38.4256 -0.785551 4.92575 0
M  V30 423 H 37.5796 -3.12523 5.20014 0
M  V30 424 H 36.3186 -2.83429 3.96887 0
M  V30 425 H 35.3236 -1.02834 5.40097 0
M  V30 426 H 36.5486 -1.34348 6.65678 0
M  V30 427 H 34.4946 -3.34538 5.64287 0
M  V30 428 H 34.4116 -2.4794 7.14186 0
M  V30 429 H 35.6796 -3.642 6.89187 0
M  V30 430 N 39.9087 -1.5758 0.0250728 0
M  V30 431 C 41.1857 -1.82917 -0.692873 0
M  V30 432 C 41.5657 -0.908137 -1.90568 0
M  V30 433 O 40.9137 0.0372298 -2.2847 0
M  V30 434 C 41.1237 -3.32034 -1.07492 0
M  V30 435 C 42.4717 -3.98406 -1.46826 0
M  V30 436 O 43.4957 -3.36505 -1.16801 0
M  V30 437 O 42.3547 -5.07497 -2.02754 0
M  V30 438 H 39.4487 -0.754079 -0.33955 0
M  V30 439 H 41.9947 -1.69619 0.0524456 0
M  V30 440 H 40.7667 -3.90728 -0.211552 0
M  V30 441 H 40.3897 -3.50424 -1.87854 0
M  V30 442 N 41.3868 0.248026 -1.55636 0
M  V30 443 C 42.2968 1.32859 -1.93354 0
M  V30 444 C 43.3128 1.52719 -0.833838 0
M  V30 445 O 44.4888 1.66363 -1.13513 0
M  V30 446 C 41.5538 2.66337 -2.21958 0
M  V30 447 C 40.6148 2.55008 -3.45354 0
M  V30 448 C 39.8478 3.82121 -3.72584 0
M  V30 449 O 40.0708 4.83951 -3.01907 0
M  V30 450 O 39.0048 3.80822 -4.6611 0
M  V30 451 H 42.8308 1.03862 -2.85388 0
M  V30 452 H 40.4158 0.448686 -1.42503 0
M  V30 453 H 42.2978 3.45216 -2.4167 0
M  V30 454 H 40.9728 2.95068 -1.33103 0
M  V30 455 H 39.8798 1.7442 -3.30951 0
M  V30 456 H 41.2128 2.31222 -4.34508 0
M  V30 457 N 42.8649 1.48995 0.513639 0
M  V30 458 C 44.1129 1.57531 1.26604 0
M  V30 459 C 44.4339 0.258236 1.93283 0
M  V30 460 O 43.7039 -0.721502 1.8213 0
M  V30 461 H 42.2839 0.580387 0.470276 0
M  V30 462 H 44.9459 1.85552 0.596373 0
M  V30 463 H 44.0419 2.36486 2.03669 0
M  V30 464 N 44.343 -0.763751 1.37857 0
M  V30 465 C 45.573 -1.55067 1.3652 0
M  V30 466 C 45.981 -1.89135 -0.0494227 0
M  V30 467 O 45.324 -1.52529 -1.02375 0
M  V30 468 C 45.386 -2.8838 2.14656 0
M  V30 469 C 45.05 -2.76905 3.63555 0
M  V30 470 C 46.047 -2.4739 4.57268 0
M  V30 471 C 43.732 -2.94676 4.06781 0
M  V30 472 C 45.726 -2.35786 5.92186 0
M  V30 473 C 43.413 -2.82692 5.41782 0
M  V30 474 C 44.411 -2.53289 6.34298 0
M  V30 475 O 44.099 -2.41345 7.66817 0
M  V30 476 H 43.831 -0.486776 0.469069 0
M  V30 477 H 46.385 -0.953812 1.81911 0
M  V30 478 H 44.615 -3.50217 1.63967 0
M  V30 479 H 46.304 -3.49828 2.05852 0
M  V30 480 H 47.07 -2.33339 4.2518 0
M  V30 481 H 42.949 -3.16563 3.35126 0
M  V30 482 H 46.493 -2.12757 6.64365 0
M  V30 483 H 42.39 -2.96314 5.7347 0
M  V30 484 H 43.158 -2.56634 7.77226 0
M  V30 485 N 45.8211 -1.22559 -0.990812 0
M  V30 486 C 47.0671 -1.06303 -1.73411 0
M  V30 487 C 47.4221 0.397442 -1.8825 0
M  V30 488 O 46.7151 1.29062 -1.41611 0
M  V30 489 C 46.9091 -1.71011 -3.13831 0
M  V30 490 C 46.7381 -3.232 -3.12685 0
M  V30 491 C 45.5081 -3.92314 -3.18461 0
M  V30 492 C 47.7061 -4.20107 -2.96673 0
M  V30 493 N 45.6881 -5.31571 -3.07091 0
M  V30 494 C 47.0591 -5.46208 -2.93354 0
M  V30 495 C 49.1141 -4.10973 -2.8108 0
M  V30 496 C 47.8171 -6.64225 -2.76039 0
M  V30 497 C 49.8431 -5.28642 -2.65126 0
M  V30 498 C 49.2051 -6.53663 -2.62496 0
M  V30 499 H 45.3041 -0.443441 -0.644115 0
M  V30 500 H 47.8881 -1.55131 -1.17654 0
M  V30 501 H 46.0591 -1.2473 -3.67827 0
M  V30 502 H 47.7911 -1.47828 -3.76735 0
M  V30 503 H 44.5461 -3.43326 -3.26227 0
M  V30 504 H 44.9701 -6.0455 -3.0471 0
M  V30 505 H 49.6121 -3.15098 -2.8191 0
M  V30 506 H 47.3301 -7.60246 -2.73954 0
M  V30 507 H 50.9161 -5.23407 -2.54039 0
M  V30 508 H 49.7961 -7.43182 -2.50302 0
M  V30 509 N 47.2992 1.18797 -1.03562 0
M  V30 510 C 48.5452 1.89192 -0.746867 0
M  V30 511 C 48.9002 1.78531 0.717245 0
M  V30 512 O 48.1932 1.17137 1.51622 0
M  V30 513 C 48.3872 3.38692 -1.14117 0
M  V30 514 C 48.2162 3.63902 -2.64207 0
M  V30 515 C 46.9862 3.81553 -3.31279 0
M  V30 516 C 49.1842 3.64903 -3.62423 0
M  V30 517 N 47.1662 3.94455 -4.70402 0
M  V30 518 C 48.5372 3.83458 -4.87196 0
M  V30 519 C 50.5922 3.47965 -3.56125 0
M  V30 520 C 49.2952 3.86829 -6.06429 0
M  V30 521 C 51.3212 3.52616 -4.7478 0
M  V30 522 C 50.6832 3.71663 -5.9837 0
M  V30 523 H 46.7822 0.711141 -0.325273 0
M  V30 524 H 49.3662 1.42727 -1.32428 0
M  V30 525 H 47.5372 3.83864 -0.591889 0
M  V30 526 H 49.2692 3.96634 -0.803966 0
M  V30 527 H 46.0242 3.80723 -2.81686 0
M  V30 528 H 46.4482 4.0474 -5.42692 0
M  V30 529 H 51.0902 3.32189 -2.61553 0
M  V30 530 H 48.8082 4.01395 -7.01362 0
M  V30 531 H 52.3942 3.40791 -4.71543 0
M  V30 532 H 51.2742 3.75145 -6.88648 0
M  V30 533 N 48.7773 0.814389 1.34928 0
M  V30 534 C 50.0253 0.397636 1.9815 0
M  V30 535 C 50.3463 -1.04069 1.64908 0
M  V30 536 O 49.6163 -1.72121 0.93548 0
M  V30 537 H 48.1963 0.144043 0.732981 0
M  V30 538 H 50.8583 1.04195 1.6471 0
M  V30 539 H 49.9543 0.509688 3.0791 0
M  V30 540 N 50.2554 -1.46986 0.568584 0
M  V30 541 C 51.6664 -1.86188 0.138219 0
M  V30 542 C 52.0174 -1.47388 -1.29504 0
M  V30 543 O 51.1424 -0.88219 -1.97602 0
M  V30 544 C 51.7374 -3.3792 0.244065 0
M  V30 545 C 50.2964 -3.76171 -0.131335 0
M  V30 546 C 49.4434 -2.71027 0.586465 0
M  V30 547 H 52.3944 -1.38342 0.777645 0
M  V30 548 H 52.4154 -3.76729 -0.534351 0
M  V30 549 H 51.9274 -3.66128 1.28731 0
M  V30 550 H 50.0284 -3.5358 -1.17526 0
M  V30 551 H 50.1414 -4.78523 0.235146 0
M  V30 552 H 48.5054 -2.54684 0.0282722 0
M  V30 553 H 49.2884 -3.02077 1.63109 0
M  V30 554 N 51.7335 -0.305618 -1.54608 0
M  V30 555 C 52.6635 0.561482 -2.26649 0
M  V30 556 C 53.6445 1.13415 -1.26772 0
M  V30 557 O 54.8295 1.16262 -1.55553 0
M  V30 558 C 51.9595 1.73122 -3.01075 0
M  V30 559 C 50.9135 1.2887 -4.08138 0
M  V30 560 C 50.2395 2.54396 -4.70305 0
M  V30 561 C 51.5395 0.416578 -5.20636 0
M  V30 562 H 53.2335 -0.0393902 -2.99374 0
M  V30 563 H 50.7795 -0.020385 -1.43986 0
M  V30 564 H 52.7325 2.34396 -3.50195 0
M  V30 565 H 51.4565 2.3584 -2.25936 0
M  V30 566 H 50.1155 0.698991 -3.59875 0
M  V30 567 H 49.7635 3.15439 -3.918 0
M  V30 568 H 49.4635 2.25486 -5.42614 0
M  V30 569 H 50.9875 3.16464 -5.2219 0
M  V30 570 H 52.4015 0.935116 -5.65622 0
M  V30 571 H 50.7985 0.221046 -5.99693 0
M  V30 572 H 51.8685 -0.557162 -4.81688 0
M  V30 573 N 53.2116 1.57565 -0.0334293 0
M  V30 574 C 54.1416 2.13511 0.945265 0
M  V30 575 C 55.1226 1.05231 1.33643 0
M  V30 576 O 56.3076 1.33084 1.41429 0
M  V30 577 C 53.4376 2.6657 2.22616 0
M  V30 578 C 52.3916 3.79676 1.97561 0
M  V30 579 C 51.7176 4.1918 3.31952 0
M  V30 580 C 53.0176 5.0557 1.31135 0
M  V30 581 H 54.7116 2.95538 0.479325 0
M  V30 582 H 52.2576 1.42166 0.229115 0
M  V30 583 H 54.2106 3.04344 2.91466 0
M  V30 584 H 52.9346 1.8171 2.71384 0
M  V30 585 H 51.5936 3.42347 1.31127 0
M  V30 586 H 51.2416 3.31296 3.78487 0
M  V30 587 H 50.9416 4.95402 3.15992 0
M  V30 588 H 52.4656 4.59541 4.02063 0
M  V30 589 H 53.8796 5.40903 1.89992 0
M  V30 590 H 52.2766 5.86818 1.25559 0
M  V30 591 H 53.3466 4.84062 0.284894 0
M  V30 592 N 54.6897 -0.239769 1.55765 0
M  V30 593 C 55.9147 -0.988373 1.82335 0
M  V30 594 C 56.3397 -1.77886 0.611421 0
M  V30 595 O 55.6977 -1.75889 -0.439639 0
M  V30 596 C 55.7457 -1.89627 3.06715 0
M  V30 597 O 54.8497 -2.98904 2.84131 0
M  V30 598 H 54.1907 -0.280858 0.601677 0
M  V30 599 H 56.7207 -0.258597 2.02959 0
M  V30 600 H 56.7307 -2.30957 3.36338 0
M  V30 601 H 55.4057 -1.31511 3.9456 0
M  V30 602 H 53.9827 -2.61651 2.65694 0
M  V30 603 N 56.1678 -1.49265 -0.50573 0
M  V30 604 C 57.1158 -1.66065 -1.62866 0
M  V30 605 C 58.1098 -0.526636 -1.61006 0
M  V30 606 O 59.3158 -0.706126 -1.65571 0
M  V30 607 H 55.6908 -0.52356 -0.539805 0
M  V30 608 H 57.6618 -2.60329 -1.45848 0
M  V30 609 C 56.4108 -1.74008 -3.01026 0
M  V30 610 H 55.7338 -2.6064 -3.03161 0
M  V30 611 H 57.1738 -1.89798 -3.79147 0
M  V30 612 C 55.6328 -0.483868 -3.33407 0
M  V30 613 O 56.1628 0.392548 -3.99777 0
M  V30 614 N 54.3688 -0.348236 -2.88506 0
M  V30 615 H 53.9158 -1.06242 -2.34671 0
M  V30 616 H 53.8738 0.491204 -3.10539 0
M  V30 617 N 57.6459 0.756429 -1.3826 0
M  V30 618 C 58.8919 1.51772 -1.34511 0
M  V30 619 C 59.2249 1.94089 0.0656691 0
M  V30 620 O 58.4999 1.65221 1.02626 0
M  V30 621 C 58.7829 2.77226 -2.29821 0
M  V30 622 C 58.6359 2.41065 -3.79747 0
M  V30 623 C 59.9549 3.79236 -2.23312 0
M  V30 624 H 57.0739 0.550578 -0.489931 0
M  V30 625 H 59.7159 0.866607 -1.69086 0
M  V30 626 H 57.8659 3.32784 -2.00467 0
M  V30 627 H 59.5379 1.91303 -4.19763 0
M  V30 628 H 57.7809 1.7356 -3.97567 0
M  V30 629 H 58.4519 3.3081 -4.41892 0
M  V30 630 H 60.9279 3.3321 -2.49219 0
M  V30 631 H 59.8039 4.64714 -2.92116 0
M  V30 632 H 60.0649 4.24615 -1.23102 0
M  V30 633 N 59.124 1.23083 0.984299 0
M  V30 634 C 60.352 1.08714 1.76037 0
M  V30 635 C 60.767 -0.361691 1.85303 0
M  V30 636 O 60.124 -1.25034 1.32939 0
M  V30 637 C 60.175 1.70206 3.18923 0
M  V30 638 O 59.896 3.09423 3.10144 0
M  V30 639 C 61.397 1.61227 4.12941 0
M  V30 640 H 58.617 0.380664 0.552572 0
M  V30 641 H 61.161 1.62853 1.23689 0
M  V30 642 H 59.316 1.20109 3.6831 0
M  V30 643 H 59.73 3.39188 4.00065 0
M  V30 644 H 61.204 2.08962 5.10919 0
M  V30 645 H 61.681 0.570375 4.35481 0
M  V30 646 H 62.287 2.10671 3.69456 0
M  V30 647 N 60.6021 -1.18246 1.0419 0
M  V30 648 C 61.5351 -2.20746 0.578474 0
M  V30 649 C 62.5131 -1.57912 -0.387624 0
M  V30 650 O 63.6971 -1.86071 -0.301634 0
M  V30 651 C 60.8241 -3.38346 -0.154762 0
M  V30 652 C 59.8701 -4.19587 0.764782 0
M  V30 653 S 60.7031 -4.86014 2.24835 0
M  V30 654 C 61.8591 -6.07012 1.526 0
M  V30 655 H 62.0921 -2.59715 1.44691 0
M  V30 656 H 59.6251 -1.287 0.85297 0
M  V30 657 H 61.5831 -4.065 -0.571641 0
M  V30 658 H 60.2441 -2.97786 -0.999105 0
M  V30 659 H 59.4371 -5.03611 0.197976 0
M  V30 660 H 59.0391 -3.56818 1.12057 0
M  V30 661 H 61.3311 -6.72523 0.819733 0
M  V30 662 H 62.2741 -6.68202 2.34333 0
M  V30 663 H 62.6821 -5.55249 1.01779 0
M  V30 664 N 62.0802 -0.821533 -1.34494 0
M  V30 665 C 62.9902 -0.244355 -2.33324 0
M  V30 666 C 64.0062 0.620527 -1.62559 0
M  V30 667 O 65.1822 0.528754 -1.94335 0
M  V30 668 C 62.2472 0.585368 -3.41723 0
M  V30 669 C 61.3082 -0.301752 -4.28238 0
M  V30 670 C 60.5412 0.488466 -5.3146 0
M  V30 671 O 60.7642 1.72186 -5.4379 0
M  V30 672 O 59.6982 -0.12848 -6.01763 0
M  V30 673 H 63.5242 -1.06231 -2.84515 0
M  V30 674 H 61.1092 -0.583645 -1.37528 0
M  V30 675 H 62.9912 1.05747 -4.07916 0
M  V30 676 H 61.6662 1.38068 -2.92778 0
M  V30 677 H 60.5732 -0.821315 -3.64973 0
M  V30 678 H 61.9062 -1.06138 -4.8062 0
M  V30 679 N 63.5583 1.46682 -0.576371 0
M  V30 680 C 64.5213 2.28707 0.150239 0
M  V30 681 C 65.5213 1.38035 0.824794 0
M  V30 682 O 66.7113 1.60476 0.677719 0
M  V30 683 C 63.8433 3.18248 1.22192 0
M  V30 684 H 65.0363 2.94423 -0.570521 0
M  V30 685 H 62.5893 1.52688 -0.334078 0
M  V30 686 H 63.3243 2.57265 1.97447 0
M  V30 687 H 63.1093 3.85 0.742812 0
M  V30 688 H 64.5993 3.80001 1.73172 0
M  V30 689 N 65.0364 0.313813 1.54444 0
M  V30 690 C 65.9464 -0.565714 2.27677 0
M  V30 691 C 66.9624 -1.13754 1.31666 0
M  V30 692 O 68.1384 -1.15959 1.64668 0
M  V30 693 C 65.2034 -1.71528 3.01296 0
M  V30 694 C 64.2644 -1.17624 4.12872 0
M  V30 695 C 63.4974 -2.27102 4.8297 0
M  V30 696 O 63.7204 -3.47256 4.52514 0
M  V30 697 O 62.6544 -1.9307 5.70094 0
M  V30 698 H 66.4804 0.0287296 3.03686 0
M  V30 699 H 64.0654 0.0798312 1.49187 0
M  V30 700 H 65.9474 -2.38476 3.4743 0
M  V30 701 H 64.6224 -2.29608 2.2817 0
M  V30 702 H 63.5294 -0.472124 3.71109 0
M  V30 703 H 64.8624 -0.640695 4.88012 0
M  V30 704 N 66.5145 -1.57545 0.0417849 0
M  V30 705 C 67.7445 -1.96339 -0.642995 0
M  V30 706 C 68.1525 -0.917536 -1.65463 0
M  V30 707 O 67.4955 0.107747 -1.83384 0
M  V30 708 C 67.5575 -3.31333 -1.39494 0
M  V30 709 C 67.2215 -4.53796 -0.540204 0
M  V30 710 C 68.2185 -5.19553 0.189806 0
M  V30 711 C 65.9035 -5.0006 -0.473886 0
M  V30 712 C 67.8975 -6.29904 0.974674 0
M  V30 713 C 65.5845 -6.10289 0.314677 0
M  V30 714 C 66.5825 -6.75072 1.03765 0
M  V30 715 O 66.2705 -7.83183 1.81327 0
M  V30 716 H 66.0025 -0.651241 -0.181277 0
M  V30 717 H 68.5565 -2.05148 0.101665 0
M  V30 718 H 66.7865 -3.19052 -2.18502 0
M  V30 719 H 68.4755 -3.54942 -1.96904 0
M  V30 720 H 69.2415 -4.84774 0.147981 0
M  V30 721 H 65.1205 -4.49433 -1.0262 0
M  V30 722 H 68.6645 -6.80401 1.5395 0
M  V30 723 H 64.5615 -6.44506 0.358174 0
M  V30 724 H 65.3295 -7.99913 1.73438 0
M  V30 725 N 67.9926 0.231505 -1.5589 0
M  V30 726 C 69.2386 0.95877 -1.78705 0
M  V30 727 C 69.5716 1.8438 -0.609725 0
M  V30 728 O 68.8466 1.90521 0.391426 0
M  V30 729 C 69.1296 1.8062 -3.11526 0
M  V30 730 C 68.9826 0.948328 -4.39689 0
M  V30 731 C 70.3016 2.78585 -3.40703 0
M  V30 732 H 67.4206 0.347129 -0.650131 0
M  V30 733 H 70.0626 0.228259 -1.88624 0
M  V30 734 H 68.2126 2.42902 -3.03201 0
M  V30 735 H 69.8846 0.343016 -4.60023 0
M  V30 736 H 68.1276 0.253314 -4.3306 0
M  V30 737 H 68.7986 1.57543 -5.29041 0
M  V30 738 H 71.2746 2.26439 -3.49091 0
M  V30 739 H 70.1506 3.34988 -4.34826 0
M  V30 740 H 70.4116 3.55825 -2.62375 0
M  V30 741 N 69.4707 1.49531 0.497807 0
M  V30 742 C 70.4007 1.6935 1.60757 0
M  V30 743 C 71.3817 0.542218 1.61227 0
M  V30 744 O 72.5667 0.778417 1.77917 0
M  V30 745 C 69.6967 1.76298 2.99226 0
M  V30 746 C 68.6507 2.91248 3.13622 0
M  V30 747 C 67.9767 2.83312 4.53474 0
M  V30 748 C 69.2767 4.3214 2.93346 0
M  V30 749 H 70.9707 2.62263 1.44425 0
M  V30 750 H 68.5167 1.26208 0.693367 0
M  V30 751 H 70.4697 1.88749 3.76765 0
M  V30 752 H 69.1937 0.799871 3.16654 0
M  V30 753 H 67.8527 2.78404 2.38509 0
M  V30 754 H 67.5007 1.84902 4.67782 0
M  V30 755 H 67.2007 3.60465 4.64046 0
M  V30 756 H 68.7247 2.97775 5.33069 0
M  V30 757 H 70.1387 4.45649 3.60652 0
M  V30 758 H 68.5357 5.1054 3.15387 0
M  V30 759 H 69.6057 4.46363 1.89441 0
M  V30 760 N 70.9488 -0.749086 1.3866 0
M  V30 761 C 71.8788 -1.8764 1.38973 0
M  V30 762 C 72.8598 -1.68178 0.255004 0
M  V30 763 O 74.0448 -1.88704 0.458754 0
M  V30 764 C 71.1748 -3.25222 1.21851 0
M  V30 765 C 70.1288 -3.59295 2.32575 0
M  V30 766 C 69.4548 -4.95663 2.00555 0
M  V30 767 C 70.7548 -3.63709 3.7485 0
M  V30 768 H 72.4488 -1.87635 2.3331 0
M  V30 769 H 69.9948 -0.901329 1.12303 0
M  V30 770 H 71.9478 -4.03746 1.20695 0
M  V30 771 H 70.6718 -3.25719 0.239775 0
M  V30 772 H 69.3308 -2.83093 2.32925 0
M  V30 773 H 68.9788 -4.92724 1.01154 0
M  V30 774 H 68.6788 -5.19429 2.74714 0
M  V30 775 H 70.2028 -5.7656 2.01024 0
M  V30 776 H 71.6168 -4.32338 3.76506 0
M  V30 777 H 70.0138 -3.98986 4.48252 0
M  V30 778 H 71.0838 -2.63834 4.06841 0
M  V30 779 N 72.4269 -1.23603 -0.977757 0
M  V30 780 C 73.6669 -1.08148 -1.73446 0
M  V30 781 C 74.0309 0.374785 -1.88307 0
M  V30 782 O 75.2319 0.650588 -2.60808 0
M  V30 783 C 73.5029 -1.78991 -3.0935 0
M  V30 784 S 75.0619 -1.79141 -4.00567 0
M  V30 785 H 71.8799 -0.386987 -0.596458 0
M  V30 786 H 74.4819 -1.5678 -1.16792 0
M  V30 787 H 73.1859 -2.8408 -2.96187 0
M  V30 788 H 72.7169 -1.30651 -3.71071 0
M  V30 789 H 74.7319 -0.851892 -4.88833 0
M  V30 790 N 73.905 1.17692 -1.04816 0
M  V30 791 C 74.855 2.1952 -0.616042 0
M  V30 792 C 75.839 1.57147 0.345485 0
M  V30 793 O 77.031 1.76245 0.163325 0
M  V30 794 C 74.16 3.43298 0.0116917 0
M  V30 795 C 73.246 4.12777 -0.973435 0
M  V30 796 N 73.637 4.5814 -2.14339 0
M  V30 797 C 71.935 4.38747 -0.80108 0
M  V30 798 C 72.636 5.11713 -2.7663 0
M  V30 799 N 71.612 5.03686 -2.04453 0
M  V30 800 H 75.414 2.52293 -1.5075 0
M  V30 801 H 72.928 1.3398 -0.917776 0
M  V30 802 H 74.925 4.15519 0.339006 0
M  V30 803 H 73.585 3.12018 0.898593 0
M  V30 804 H 74.596 4.52349 -2.52191 0
M  V30 805 H 71.273 4.17485 0.0350934 0
M  V30 806 H 72.663 5.56962 -3.75823 0
M  V30 807 N 75.3831 0.828654 1.34056 0
M  V30 808 C 76.6321 0.415828 1.97367 0
M  V30 809 C 76.9451 -1.02796 1.6641 0
M  V30 810 O 78.1511 -1.54497 2.23255 0
M  V30 811 C 76.6071 0.692601 3.53173 0
M  V30 812 C 76.2151 2.15038 3.93017 0
M  V30 813 C 77.9591 0.346222 4.23086 0
M  V30 814 C 75.8661 2.37174 5.41758 0
M  V30 815 H 74.7961 0.151755 0.738571 0
M  V30 816 H 77.4471 1.01581 1.52819 0
M  V30 817 H 75.8291 0.0223764 3.95994 0
M  V30 818 H 77.0031 2.86024 3.61285 0
M  V30 819 H 75.3181 2.45875 3.36057 0
M  V30 820 H 77.9151 0.48937 5.32456 0
M  V30 821 H 78.2581 -0.709842 4.10204 0
M  V30 822 H 78.7911 0.971258 3.85761 0
M  V30 823 H 75.5301 3.41308 5.59633 0
M  V30 824 H 75.0501 1.70738 5.74986 0
M  V30 825 H 76.7291 2.19818 6.08514 0
M  V30 826 N 76.8612 -1.46375 0.584142 0
M  V30 827 C 77.7912 -2.33103 -0.136037 0
M  V30 828 C 78.7722 -1.45431 -0.882255 0
M  V30 829 O 79.9572 -1.74246 -0.857434 0
M  V30 830 C 77.0872 -3.27731 -1.14933 0
M  V30 831 C 76.0412 -4.24855 -0.517862 0
M  V30 832 C 75.3672 -5.09001 -1.63773 0
M  V30 833 C 76.6672 -5.19439 0.545886 0
M  V30 834 H 78.3612 -2.93568 0.588086 0
M  V30 835 H 75.9072 -1.41166 0.284259 0
M  V30 836 H 77.8602 -3.87261 -1.66153 0
M  V30 837 H 76.5842 -2.65377 -1.90375 0
M  V30 838 H 75.2432 -3.6659 -0.0267361 0
M  V30 839 H 74.8912 -4.43031 -2.38185 0
M  V30 840 H 74.5912 -5.74777 -1.22085 0
M  V30 841 H 76.1152 -5.71396 -2.15266 0
M  V30 842 H 77.5292 -5.73177 0.118704 0
M  V30 843 H 75.9262 -5.93566 0.88317 0
M  V30 844 H 76.9962 -4.63285 1.43162 0
M  V30 845 N 78.3393 -0.321999 -1.54275 0
M  V30 846 C 79.6163 0.335232 -1.92706 0
M  V30 847 C 79.9963 1.70006 -1.25145 0
M  V30 848 O 79.3443 2.25067 -0.394596 0
M  V30 849 C 79.5543 0.429008 -3.46353 0
M  V30 850 C 80.9023 0.690029 -4.18956 0
M  V30 851 O 81.9263 0.511992 -3.52501 0
M  V30 852 O 80.7853 1.03338 -5.36641 0
M  V30 853 H 77.8793 0.191143 -0.804608 0
M  V30 854 H 80.4253 -0.3716 -1.65581 0
M  V30 855 H 79.1973 -0.529611 -3.87699 0
M  V30 856 H 78.8203 1.18348 -3.79578 0
M  V30 857 N 79.8174 1.5752 -0.0501392 0
M  V30 858 C 81.2334 1.56631 0.306402 0
M  V30 859 C 81.4334 1.0577 1.71508 0
M  V30 860 O 80.4894 0.713837 2.422 0
M  V30 861 C 81.8024 3.00393 0.135811 0
M  V30 862 C 83.3504 3.12315 0.206993 0
M  V30 863 C 83.8254 4.57954 0.064944 0
M  V30 864 N 85.3164 4.63041 0.121254 0
M  V30 865 C 86.0514 5.73389 0.0354381 0
M  V30 866 N 85.5474 6.92724 -0.102666 0
M  V30 867 N 87.3404 5.62026 0.090946 0
M  V30 868 H 79.4914 1.88903 -0.971046 0
M  V30 869 H 81.7544 0.869876 -0.376855 0
M  V30 870 H 81.4604 3.41635 -0.835384 0
M  V30 871 H 81.3344 3.66373 0.897275 0
M  V30 872 H 83.7214 2.70973 1.16866 0
M  V30 873 H 83.8024 2.49016 -0.585208 0
M  V30 874 H 83.4464 4.99981 -0.893394 0
M  V30 875 H 83.3764 5.19258 0.876277 0
M  V30 876 H 85.8674 3.77216 0.227284 0
M  V30 877 H 86.1804 7.72633 -0.160882 0
M  V30 878 H 84.5254 6.94864 -0.137737 0
M  V30 879 H 87.7164 4.67684 0.197388 0
M  V30 880 H 87.8894 6.47997 0.0206089 0
M  V30 881 N 81.2955 -0.223234 1.56011 0
M  V30 882 C 82.5415 -0.949279 1.79211 0
M  V30 883 C 82.8745 -1.84054 0.619494 0
M  V30 884 O 82.1495 -1.90726 -0.381317 0
M  V30 885 C 82.4325 -1.78965 3.12479 0
M  V30 886 C 82.2855 -0.924997 4.40186 0
M  V30 887 C 83.6045 -2.76774 3.42175 0
M  V30 888 H 80.7235 -0.343676 0.651963 0
M  V30 889 H 83.3655 -0.218253 1.88742 0
M  V30 890 H 81.5155 -2.41291 3.04485 0
M  V30 891 H 83.1875 -0.318615 4.60198 0
M  V30 892 H 81.4305 -0.230344 4.33188 0
M  V30 893 H 82.1015 -1.54735 5.29869 0
M  V30 894 H 84.5775 -2.24584 3.50287 0
M  V30 895 H 83.4535 -3.32678 4.36597 0
M  V30 896 H 83.7145 -3.54429 2.64258 0
M  V30 897 N 82.7736 -1.49793 -0.48987 0
M  V30 898 C 84.0506 -1.50348 -1.25119 0
M  V30 899 C 84.4306 -0.237466 -2.0976 0
M  V30 900 O 83.7786 0.77981 -2.14782 0
M  V30 901 C 83.9886 -2.78872 -2.09837 0
M  V30 902 C 85.3366 -3.288 -2.68655 0
M  V30 903 O 86.3606 -2.80065 -2.20096 0
M  V30 904 O 85.2196 -4.13707 -3.57083 0
M  V30 905 H 82.3136 -0.602242 -0.566775 0
M  V30 906 H 84.8596 -1.62067 -0.503229 0
M  V30 907 H 83.6316 -3.62499 -1.47343 0
M  V30 908 H 83.2546 -2.70066 -2.91805 0
M  V30 909 N 84.2517 0.741722 -1.39055 0
M  V30 910 C 85.6677 1.04638 -1.20512 0
M  V30 911 C 85.8677 2.01405 -0.0620218 0
M  V30 912 O 84.9237 2.45547 0.588457 0
M  V30 913 C 86.2367 1.6151 -2.53643 0
M  V30 914 C 87.7847 1.73623 -2.6043 0
M  V30 915 C 88.2597 2.33906 -3.93767 0
M  V30 916 N 89.7507 2.41323 -3.9537 0
M  V30 917 C 90.4857 2.88888 -4.95309 0
M  V30 918 N 89.9817 3.36401 -6.05645 0
M  V30 919 N 91.7747 2.88037 -4.82692 0
M  V30 920 H 83.9257 0.0998155 -2.12165 0
M  V30 921 H 86.1887 0.106907 -0.941953 0
M  V30 922 H 85.8947 0.978739 -3.37807 0
M  V30 923 H 85.7687 2.60411 -2.72885 0
M  V30 924 H 88.1557 2.36384 -1.76655 0
M  V30 925 H 88.2367 0.733945 -2.45045 0
M  V30 926 H 87.8807 1.71776 -4.7797 0
M  V30 927 H 87.8107 3.34799 -4.06469 0
M  V30 928 H 90.3017 2.07734 -3.15682 0
M  V30 929 H 90.6147 3.71186 -6.77821 0
M  V30 930 H 88.9597 3.34427 -6.09248 0
M  V30 931 H 92.1507 2.50237 -3.95599 0
M  V30 932 H 92.3237 3.24792 -5.60726 0
M  V30 933 N 85.7298 1.2412 0.971189 0
M  V30 934 C 87.0068 0.986867 1.6888 0
M  V30 935 C 87.3868 -0.491857 2.0529 0
M  V30 936 O 86.7348 -1.46531 1.75331 0
M  V30 937 C 86.9448 1.9063 2.92338 0
M  V30 938 C 88.2928 2.17515 3.64654 0
M  V30 939 O 89.3168 1.88254 3.02388 0
M  V30 940 O 88.1758 2.6719 4.7673 0
M  V30 941 H 85.2698 0.372944 0.738134 0
M  V30 942 H 87.8158 1.35203 1.02559 0
M  V30 943 H 86.5878 2.90552 2.62097 0
M  V30 944 H 86.2108 1.54408 3.66393 0
M  V30 945 N 87.2079 -1.17134 1.05439 0
M  V30 946 C 88.6239 -1.39454 0.776201 0
M  V30 947 C 88.8239 -1.91454 -0.628307 0
M  V30 948 O 87.8799 -2.10777 -1.39031 0
M  V30 949 C 89.1929 -2.38305 1.83388 0
M  V30 950 C 90.7409 -2.52006 1.85639 0
M  V30 951 C 91.2159 -3.54133 2.90437 0
M  V30 952 N 92.7069 -3.61653 2.89415 0
M  V30 953 C 93.4419 -4.4044 3.67152 0
M  V30 954 N 92.9379 -5.22721 4.54681 0
M  V30 955 N 94.7309 -4.35337 3.55581 0
M  V30 956 H 86.8819 -0.817134 1.96053 0
M  V30 957 H 89.1449 -0.421626 0.849079 0
M  V30 958 H 88.8509 -2.07173 2.84204 0
M  V30 959 H 88.7249 -3.37841 1.67761 0
M  V30 960 H 91.1119 -2.82447 0.85486 0
M  V30 961 H 91.1929 -1.52537 2.05344 0
M  V30 962 H 90.8369 -3.24431 3.90777 0
M  V30 963 H 90.7669 -4.53313 2.67983 0
M  V30 964 H 93.2579 -3.02909 2.25952 0
M  V30 965 H 93.5709 -5.80027 5.10674 0
M  V30 966 H 91.9159 -5.22093 4.58741 0
M  V30 967 H 95.1069 -3.70112 2.86592 0
M  V30 968 H 95.2799 -4.96494 4.1641 0
M  V30 969 N 88.686 -0.835752 -1.33615 0
M  V30 970 C 89.619 -0.211815 -2.27215 0
M  V30 971 C 90.597 0.639249 -1.49507 0
M  V30 972 O 91.781 0.600193 -1.78689 0
M  V30 973 C 88.908 0.702893 -3.31326 0
M  V30 974 C 87.954 -0.0723049 -4.26439 0
M  V30 975 S 88.787 -1.42811 -5.16106 0
M  V30 976 C 89.943 -0.518613 -6.23748 0
M  V30 977 H 90.176 -1.00533 -2.79786 0
M  V30 978 H 87.709 -0.632336 -1.40858 0
M  V30 979 H 89.667 1.22505 -3.91794 0
M  V30 980 H 88.328 1.47004 -2.77576 0
M  V30 981 H 87.521 0.62359 -5.00127 0
M  V30 982 H 87.123 -0.525424 -3.70291 0
M  V30 983 H 89.415 0.284778 -6.76901 0
M  V30 984 H 90.358 -1.22556 -6.97413 0
M  V30 985 H 90.766 -0.101344 -5.64409 0
M  V30 986 N 90.1641 1.46063 -0.591896 0
M  V30 987 C 91.0741 2.34192 0.13831 0
M  V30 988 C 92.0901 1.50305 0.876608 0
M  V30 989 O 93.2661 1.8315 0.837728 0
M  V30 990 C 90.3311 3.27656 1.13326 0
M  V30 991 C 89.3921 4.27445 0.39863 0
M  V30 992 C 88.6251 5.16443 1.34618 0
M  V30 993 O 88.8481 5.08553 2.58321 0
M  V30 994 O 87.7821 5.95843 0.851768 0
M  V30 995 H 91.6081 2.98002 -0.58552 0
M  V30 996 H 89.1931 1.45188 -0.352239 0
M  V30 997 H 91.0751 3.85291 1.70671 0
M  V30 998 H 89.7501 2.6643 1.83839 0
M  V30 999 H 88.6571 3.73471 -0.216895 0
M  V30 1000 H 89.9901 4.91482 -0.265709 0
M  V30 1001 N 91.6422 0.330177 1.54103 0
M  V30 1002 C 92.5892 -0.532762 2.24567 0
M  V30 1003 C 93.5592 -1.10635 1.23892 0
M  V30 1004 O 94.7442 -1.14546 1.5259 0
M  V30 1005 C 91.8842 -1.6845 3.01195 0
M  V30 1006 C 90.9972 -1.13951 4.167 0
M  V30 1007 C 90.1322 -2.25746 4.80845 0
M  V30 1008 C 89.1712 -1.6853 5.88442 0
M  V30 1009 N 88.3082 -2.74014 6.46421 0
M  V30 1010 H 93.1482 0.0746905 2.97906 0
M  V30 1011 H 90.6852 0.048632 1.4702 0
M  V30 1012 H 92.6432 -2.36234 3.43874 0
M  V30 1013 H 91.2732 -2.26314 2.30178 0
M  V30 1014 H 90.3252 -0.35301 3.78758 0
M  V30 1015 H 91.6372 -0.680892 4.94131 0
M  V30 1016 H 90.7912 -3.01422 5.26526 0
M  V30 1017 H 89.5302 -2.74947 4.0281 0
M  V30 1018 H 88.5352 -0.913543 5.42157 0
M  V30 1019 H 89.7602 -1.20198 6.68378 0
M  V30 1020 H 87.7062 -3.22494 5.71256 0
M  V30 1021 H 87.6232 -2.32735 7.19285 0
M  V30 1022 H 88.8912 -3.49499 6.96757 0
M  V30 1023 N 93.1203 -1.57491 0.0584922 0
M  V30 1024 C 94.3693 -1.92155 -0.613146 0
M  V30 1025 C 94.6823 -0.939334 -1.71569 0
M  V30 1026 O 95.8883 -1.17829 -2.44599 0
M  V30 1027 C 94.3443 -3.41303 -1.14195 0
M  V30 1028 C 93.9523 -4.47944 -0.0711265 0
M  V30 1029 C 95.6963 -3.84988 -1.78841 0
M  V30 1030 C 93.6033 -5.88212 -0.613225 0
M  V30 1031 H 92.5333 -0.717162 -0.232796 0
M  V30 1032 H 95.1843 -1.83049 0.12857 0
M  V30 1033 H 93.5663 -3.45437 -1.93621 0
M  V30 1034 H 94.7403 -4.55408 0.702836 0
M  V30 1035 H 93.0553 -4.13644 0.478313 0
M  V30 1036 H 95.6523 -4.87159 -2.20408 0
M  V30 1037 H 95.9953 -3.21632 -2.64308 0
M  V30 1038 H 96.5283 -3.83401 -1.06059 0
M  V30 1039 H 93.2673 -6.55183 0.203978 0
M  V30 1040 H 92.7873 -5.84294 -1.35501 0
M  V30 1041 H 94.4663 -6.37687 -1.09383 0
M  V30 1042 N 94.5984 0.214957 -1.56127 0
M  V30 1043 C 96.0144 0.564948 -1.49267 0
M  V30 1044 C 96.2144 1.86827 -0.754838 0
M  V30 1045 O 95.2704 2.50745 -0.297198 0
M  V30 1046 C 96.5834 0.638071 -2.93852 0
M  V30 1047 C 98.1314 0.728253 -3.0441 0
M  V30 1048 C 98.6064 0.832663 -4.50367 0
M  V30 1049 N 100.097 0.896712 -4.54437 0
M  V30 1050 C 100.832 0.997324 -5.6466 0
M  V30 1051 N 100.328 1.06147 -6.8462 0
M  V30 1052 N 102.121 1.03297 -5.52527 0
M  V30 1053 H 94.2724 -0.640211 -2.02522 0
M  V30 1054 H 96.5354 -0.225507 -0.920788 0
M  V30 1055 H 96.2414 -0.250126 -3.50809 0
M  V30 1056 H 96.1154 1.49947 -3.46115 0
M  V30 1057 H 98.5024 1.60689 -2.47514 0
M  V30 1058 H 98.5834 -0.158952 -2.55306 0
M  V30 1059 H 98.2274 -0.0415417 -5.07883 0
M  V30 1060 H 98.1574 1.73538 -4.97184 0
M  V30 1061 H 100.648 0.857188 -3.6805 0
M  V30 1062 H 100.961 1.1382 -7.64372 0
M  V30 1063 H 99.3064 1.03049 -6.87318 0
M  V30 1064 H 102.497 0.979558 -4.57736 0
M  V30 1065 H 102.67 1.10793 -6.38458 0
M  V30 1066 N 96.0765 1.50051 0.48192 0
M  V30 1067 C 97.4925 1.37237 0.814756 0
M  V30 1068 C 97.6925 0.420109 1.97072 0
M  V30 1069 O 96.7485 -0.141246 2.52105 0
M  V30 1070 C 98.0615 2.78375 1.13701 0
M  V30 1071 C 99.6095 2.87213 1.2441 0
M  V30 1072 C 100.084 4.29161 1.59954 0
M  V30 1073 N 101.575 4.32061 1.66967 0
M  V30 1074 C 102.31 5.38879 1.95952 0
M  V30 1075 N 101.806 6.55918 2.23031 0
M  V30 1076 N 103.599 5.26312 1.97363 0
M  V30 1077 H 95.7505 2.10546 -0.28005 0
M  V30 1078 H 98.0135 0.945921 -0.0627454 0
M  V30 1079 H 97.7195 3.49845 0.360787 0
M  V30 1080 H 97.5935 3.14941 2.07586 0
M  V30 1081 H 99.9805 2.15969 2.01101 0
M  V30 1082 H 100.061 2.54204 0.285299 0
M  V30 1083 H 99.7055 5.00938 0.838067 0
M  V30 1084 H 99.6355 4.59648 2.56966 0
M  V30 1085 H 102.126 3.47661 1.48123 0
M  V30 1086 H 102.439 7.33139 2.44391 0
M  V30 1087 H 100.784 6.59112 2.20447 0
M  V30 1088 H 103.975 4.33876 1.75697 0
M  V30 1089 H 104.148 6.09649 2.19618 0
M  V30 1090 N 97.5546 -0.734337 1.39446 0
M  V30 1091 C 98.7846 -1.52137 1.39778 0
M  V30 1092 C 99.1926 -1.89198 -0.00929312 0
M  V30 1093 O 98.5356 -1.54666 -0.991168 0
M  V30 1094 C 98.5976 -2.83762 2.20724 0
M  V30 1095 C 98.2616 -2.69131 3.69347 0
M  V30 1096 C 99.2586 -2.37635 4.62413 0
M  V30 1097 C 96.9436 -2.85982 4.1294 0
M  V30 1098 C 98.9376 -2.23172 5.97054 0
M  V30 1099 C 96.6246 -2.71137 5.47657 0
M  V30 1100 C 97.6226 -2.39777 6.39528 0
M  V30 1101 O 97.3106 -2.25026 7.71763 0
M  V30 1102 H 97.0426 -0.476717 0.479288 0
M  V30 1103 H 99.5966 -0.915012 1.83893 0
M  V30 1104 H 97.8266 -3.4666 1.71359 0
M  V30 1105 H 99.5156 -3.45383 2.13226 0
M  V30 1106 H 100.282 -2.24267 4.30034 0
M  V30 1107 H 96.1606 -3.09383 3.41765 0
M  V30 1108 H 99.7046 -1.98617 6.68728 0
M  V30 1109 H 95.6016 -2.84083 5.79626 0
M  V30 1110 H 96.3696 -2.40091 7.82495 0
M  V30 1111 N 99.0327 -1.24633 -0.964593 0
M  V30 1112 C 99.9627 -1.06611 -2.07741 0
M  V30 1113 C 100.944 0.0218666 -1.70086 0
M  V30 1114 O 102.129 -0.145793 -1.93652 0
M  V30 1115 C 99.2587 -0.673444 -3.40708 0
M  V30 1116 C 98.2127 -1.71054 -3.92332 0
M  V30 1117 C 97.5387 -1.17285 -5.21678 0
M  V30 1118 C 98.8387 -3.10718 -4.19824 0
M  V30 1119 H 100.533 -1.99693 -2.23076 0
M  V30 1120 H 98.0787 -0.96152 -1.07195 0
M  V30 1121 H 100.032 -0.534345 -4.17998 0
M  V30 1122 H 98.7557 0.293073 -3.25282 0
M  V30 1123 H 97.4147 -1.83791 -3.17201 0
M  V30 1124 H 97.0627 -0.196847 -5.02615 0
M  V30 1125 H 96.7627 -1.86592 -5.57187 0
M  V30 1126 H 98.2867 -1.04593 -6.01575 0
M  V30 1127 H 99.7007 -3.01192 -4.87808 0
M  V30 1128 H 98.0977 -3.77406 -4.66567 0
M  V30 1129 H 99.1677 -3.58524 -3.26479 0
M  V30 1130 N 100.511 1.16574 -1.06058 0
M  V30 1131 C 101.441 2.23057 -0.690488 0
M  V30 1132 C 102.422 1.67141 0.315901 0
M  V30 1133 O 103.607 1.93253 0.191556 0
M  V30 1134 C 100.737 3.47222 -0.073625 0
M  V30 1135 C 99.6908 4.16016 -1.00573 0
M  V30 1136 C 99.0168 5.34104 -0.252289 0
M  V30 1137 C 100.317 4.67264 -2.33371 0
M  V30 1138 H 102.011 2.54271 -1.58072 0
M  V30 1139 H 99.5568 1.22218 -0.76149 0
M  V30 1140 H 101.51 4.20939 0.19714 0
M  V30 1141 H 100.234 3.15302 0.85161 0
M  V30 1142 H 98.8928 3.44223 -1.2612 0
M  V30 1143 H 98.5408 4.98437 0.675988 0
M  V30 1144 H 98.2408 5.81072 -0.873455 0
M  V30 1145 H 99.7648 6.10599 0.0109857 0
M  V30 1146 H 101.179 5.32573 -2.12223 0
M  V30 1147 H 99.5758 5.24843 -2.90963 0
M  V30 1148 H 100.646 3.83602 -2.96611 0
M  V30 1149 N 101.989 0.842826 1.3317 0
M  V30 1150 C 102.939 0.250877 2.26616 0
M  V30 1151 C 103.923 -0.596427 1.49437 0
M  V30 1152 O 105.115 -0.447747 1.71243 0
M  V30 1153 C 102.244 -0.569779 3.38539 0
M  V30 1154 C 101.33 0.289254 4.23112 0
M  V30 1155 N 101.721 1.36987 4.86897 0
M  V30 1156 C 100.019 0.0769631 4.45934 0
M  V30 1157 C 100.72 1.89737 5.49886 0
M  V30 1158 N 99.6959 1.19827 5.30229 0
M  V30 1159 H 103.498 1.07718 2.73448 0
M  V30 1160 H 101.012 0.687693 1.47121 0
M  V30 1161 H 103.009 -1.01018 4.04476 0
M  V30 1162 H 101.669 -1.39401 2.93253 0
M  V30 1163 H 102.68 1.75277 4.87338 0
M  V30 1164 H 99.3569 -0.713507 4.11358 0
M  V30 1165 H 100.747 2.80253 6.10662 0
M  V30 1166 N 103.467 -1.45747 0.599634 0
M  V30 1167 C 104.377 -2.34262 -0.125888 0
M  V30 1168 C 105.393 -1.50768 -0.868625 0
M  V30 1169 O 106.569 -1.83592 -0.828003 0
M  V30 1170 C 103.634 -3.28252 -1.11587 0
M  V30 1171 C 102.695 -4.27651 -0.375956 0
M  V30 1172 C 101.928 -5.1715 -1.31877 0
M  V30 1173 O 102.151 -5.09916 -2.55621 0
M  V30 1174 O 101.085 -5.96286 -0.820157 0
M  V30 1175 H 104.911 -2.97688 0.601315 0
M  V30 1176 H 102.496 -1.44999 0.359934 0
M  V30 1177 H 104.378 -3.86191 -1.68626 0
M  V30 1178 H 103.053 -2.67401 -1.82424 0
M  V30 1179 H 101.96 -3.7335 0.236698 0
M  V30 1180 H 103.293 -4.91334 0.29177 0
M  V30 1181 N 104.945 -0.338344 -1.53925 0
M  V30 1182 C 105.877 0.555117 -2.22376 0
M  V30 1183 C 106.89 1.06812 -1.22862 0
M  V30 1184 O 108.079 0.979163 -1.49247 0
M  V30 1185 C 105.179 1.77609 -2.88631 0
M  V30 1186 C 104.352 1.39927 -4.14414 0
M  V30 1187 C 103.411 2.47936 -4.64127 0
M  V30 1188 O 102.437 2.11461 -5.28463 0
M  V30 1189 N 103.639 3.79107 -4.39612 0
M  V30 1190 H 106.404 -0.0310778 -2.99684 0
M  V30 1191 H 103.965 -0.162226 -1.61085 0
M  V30 1192 H 105.957 2.49287 -3.18807 0
M  V30 1193 H 104.527 2.26978 -2.14941 0
M  V30 1194 H 103.747 0.513481 -3.90841 0
M  V30 1195 H 105.035 1.12341 -4.96243 0
M  V30 1196 H 104.433 4.11531 -3.88148 0
M  V30 1197 H 102.99 4.4697 -4.74406 0
M  V30 1198 N 106.423 1.57458 -0.0668435 0
M  V30 1199 C 107.839 1.56947 0.289772 0
M  V30 1200 C 108.039 1.07584 1.70376 0
M  V30 1201 O 107.095 0.739486 2.41429 0
M  V30 1202 C 108.408 3.0052 0.103943 0
M  V30 1203 C 109.956 3.12517 0.173857 0
M  V30 1204 C 110.431 4.57997 0.0163682 0
M  V30 1205 N 111.922 4.63144 0.0721352 0
M  V30 1206 C 112.657 5.73394 -0.0253794 0
M  V30 1207 N 112.153 6.92576 -0.176133 0
M  V30 1208 N 113.946 5.62091 0.0313305 0
M  V30 1209 H 106.097 1.87863 -0.991027 0
M  V30 1210 H 108.36 0.86583 -0.38606 0
M  V30 1211 H 108.066 3.40729 -0.871572 0
M  V30 1212 H 107.94 3.67304 0.858366 0
M  V30 1213 H 110.327 2.72197 1.13985 0
M  V30 1214 H 110.408 2.48381 -0.611586 0
M  V30 1215 H 110.052 4.99005 -0.946374 0
M  V30 1216 H 109.982 5.20158 0.821153 0
M  V30 1217 H 112.473 3.77436 0.187263 0
M  V30 1218 H 112.786 7.72418 -0.242821 0
M  V30 1219 H 111.131 6.94678 -0.211429 0
M  V30 1220 H 114.322 4.67867 0.147773 0
M  V30 1221 H 114.495 6.47982 -0.048121 0
M  V30 1222 N 107.901 -0.206675 1.56239 0
M  V30 1223 C 108.811 -1.27686 1.96808 0
M  V30 1224 C 109.827 -1.50455 0.874035 0
M  V30 1225 O 111.003 -1.63295 1.17884 0
M  V30 1226 C 108.068 -2.60358 2.28942 0
M  V30 1227 C 107.129 -2.45762 3.51994 0
M  V30 1228 C 106.362 -3.72108 3.82585 0
M  V30 1229 O 106.585 -4.75776 3.14631 0
M  V30 1230 O 105.519 -3.6833 4.76043 0
M  V30 1231 H 109.345 -0.962593 2.88041 0
M  V30 1232 H 106.93 -0.410746 1.43643 0
M  V30 1233 H 108.812 -3.38687 2.50737 0
M  V30 1234 H 107.487 -2.91435 1.4088 0
M  V30 1235 H 106.394 -1.65584 3.35459 0
M  V30 1236 H 107.727 -2.19621 4.40486 0
M  V30 1237 N 109.379 -1.50304 -0.473955 0
M  V30 1238 C 110.656 -1.51667 -1.23518 0
M  V30 1239 C 111.036 -0.259701 -2.09496 0
M  V30 1240 O 110.384 0.756986 -2.15597 0
M  V30 1241 C 110.594 -2.81082 -2.06868 0
M  V30 1242 C 111.942 -3.31631 -2.65153 0
M  V30 1243 O 112.966 -2.82384 -2.17113 0
M  V30 1244 O 111.825 -4.17471 -3.52675 0
M  V30 1245 H 108.919 -0.60822 -0.560355 0
M  V30 1246 H 111.465 -1.62592 -0.486011 0
M  V30 1247 H 110.237 -3.64041 -1.4349 0
M  V30 1248 H 109.86 -2.73146 -2.88924 0
M  V30 1249 N 110.857 0.726932 -1.39834 0
M  V30 1250 C 112.105 1.4837 -1.37225 0
M  V30 1251 C 112.426 1.94979 0.0284857 0
M  V30 1252 O 111.696 1.69555 0.981213 0
M  V30 1253 H 110.276 0.55043 -0.505011 0
M  V30 1254 H 112.938 0.862468 -1.74778 0
M  V30 1255 H 112.034 2.36198 -2.04003 0
M  V30 1256 N 112.336 1.25143 0.95797 0
M  V30 1257 C 113.564 1.12424 1.73691 0
M  V30 1258 C 113.979 -0.322304 1.86029 0
M  V30 1259 O 113.336 -1.22186 1.35561 0
M  V30 1260 C 113.387 1.76933 3.15241 0
M  V30 1261 O 113.108 3.15932 3.03511 0
M  V30 1262 C 114.609 1.6995 4.09429 0
M  V30 1263 H 111.829 0.3923 0.544373 0
M  V30 1264 H 114.373 1.6544 1.20207 0
M  V30 1265 H 112.528 1.27895 3.6568 0
M  V30 1266 H 112.942 3.47598 3.9278 0
M  V30 1267 H 114.416 2.19753 5.06372 0
M  V30 1268 H 114.893 0.662619 4.34173 0
M  V30 1269 H 115.499 2.18461 3.64904 0
M  V30 1270 N 113.814 -1.1601 1.06675 0
M  V30 1271 C 115.06 -1.87145 0.796766 0
M  V30 1272 C 115.415 -1.8037 -0.669658 0
M  V30 1273 O 114.708 -1.21116 -1.48463 0
M  V30 1274 C 114.902 -3.35547 1.23057 0
M  V30 1275 C 114.731 -3.56769 2.73762 0
M  V30 1276 C 113.501 -3.72635 3.41279 0
M  V30 1277 C 115.699 -3.55166 3.7197 0
M  V30 1278 N 113.681 -3.81845 4.80695 0
M  V30 1279 C 115.052 -3.70406 4.97191 0
M  V30 1280 C 117.107 -3.384 3.65226 0
M  V30 1281 C 115.81 -3.70615 6.16471 0
M  V30 1282 C 117.836 -3.39904 4.83962 0
M  V30 1283 C 117.198 -3.55667 6.08013 0
M  V30 1284 H 113.297 -0.702267 0.344014 0
M  V30 1285 H 115.881 -1.39165 1.36166 0
M  V30 1286 H 114.052 -3.82159 0.693456 0
M  V30 1287 H 115.784 -3.94363 0.908844 0
M  V30 1288 H 112.539 -3.73121 2.91681 0
M  V30 1289 H 112.963 -3.90209 5.53232 0
M  V30 1290 H 117.605 -3.25138 2.70269 0
M  V30 1291 H 115.323 -3.82658 7.11757 0
M  V30 1292 H 118.909 -3.28169 4.80413 0
M  V30 1293 H 117.789 -3.56755 6.98352 0
M  V30 1294 N 115.292 -0.849877 -1.32721 0
M  V30 1295 C 116.255 -0.296122 -2.27279 0
M  V30 1296 C 117.255 0.541458 -1.5141 0
M  V30 1297 O 118.445 0.353658 -1.70572 0
M  V30 1298 C 115.577 0.581579 -3.35902 0
M  V30 1299 H 116.77 -1.13064 -2.77771 0
M  V30 1300 H 114.323 -0.62383 -1.43311 0
M  V30 1301 H 115.058 1.43809 -2.9067 0
M  V30 1302 H 114.843 -0.0178814 -3.92096 0
M  V30 1303 H 116.333 0.961951 -4.0637 0
M  V30 1304 N 116.77 1.45427 -0.607355 0
M  V30 1305 C 117.7 2.3329 0.0989352 0
M  V30 1306 C 118.681 1.46816 0.859007 0
M  V30 1307 O 119.866 1.75588 0.829604 0
M  V30 1308 C 116.996 3.29518 1.09705 0
M  V30 1309 C 115.95 4.25626 0.450206 0
M  V30 1310 C 115.276 5.11542 1.55655 0
M  V30 1311 C 116.576 5.18505 -0.628455 0
M  V30 1312 H 118.27 2.92595 -0.634716 0
M  V30 1313 H 115.816 1.40696 -0.306681 0
M  V30 1314 H 117.769 3.89855 1.59971 0
M  V30 1315 H 116.493 2.68372 1.86129 0
M  V30 1316 H 115.152 3.66586 -0.0315886 0
M  V30 1317 H 114.8 4.46765 2.31107 0
M  V30 1318 H 114.5 5.76647 1.12925 0
M  V30 1319 H 116.024 5.74748 2.06148 0
M  V30 1320 H 117.438 5.72916 -0.209877 0
M  V30 1321 H 115.835 5.92085 -0.977489 0
M  V30 1322 H 116.905 4.60948 -1.50514 0
M  V30 1323 N 118.248 0.346503 1.53744 0
M  V30 1324 C 119.478 -0.250047 2.05081 0
M  V30 1325 C 119.886 -1.44529 1.22098 0
M  V30 1326 O 119.229 -1.81992 0.249917 0
M  V30 1327 C 119.291 -0.725934 3.52094 0
M  V30 1328 C 118.955 0.350053 4.55657 0
M  V30 1329 C 119.952 1.19372 5.0601 0
M  V30 1330 C 117.637 0.504827 4.99757 0
M  V30 1331 C 119.631 2.17768 5.99046 0
M  V30 1332 C 117.318 1.49218 5.92602 0
M  V30 1333 C 118.316 2.32706 6.42135 0
M  V30 1334 O 118.004 3.2976 7.33153 0
M  V30 1335 H 117.736 -0.0515469 0.674032 0
M  V30 1336 H 120.29 0.497559 1.99282 0
M  V30 1337 H 118.52 -1.52483 3.55367 0
M  V30 1338 H 120.209 -1.24336 3.86388 0
M  V30 1339 H 120.975 1.08525 4.72702 0
M  V30 1340 H 116.854 -0.135178 4.60802 0
M  V30 1341 H 120.398 2.82971 6.37631 0
M  V30 1342 H 116.295 1.6012 6.25325 0
M  V30 1343 H 117.063 3.25265 7.51096 0
M  V30 1344 N 119.726 -1.57421 0.075193 0
M  V30 1345 C 121.137 -1.81021 -0.456964 0
M  V30 1346 C 121.488 -0.98936 -1.69429 0
M  V30 1347 O 120.613 -0.212865 -2.15351 0
M  V30 1348 C 121.208 -3.28329 -0.83581 0
M  V30 1349 C 119.767 -3.52764 -1.31281 0
M  V30 1350 C 118.914 -2.75676 -0.299648 0
M  V30 1351 H 121.865 -1.55822 0.300856 0
M  V30 1352 H 121.886 -3.40564 -1.69696 0
M  V30 1353 H 121.398 -3.88046 0.0649238 0
M  V30 1354 H 119.499 -2.98355 -2.23193 0
M  V30 1355 H 119.612 -4.61451 -1.28839 0
M  V30 1356 H 117.976 -2.42538 -0.777641 0
M  V30 1357 H 118.759 -3.38132 0.593417 0
M  V30 1358 N 121.204 0.198386 -1.56346 0
M  V30 1359 C 122.452 0.91747 -1.80075 0
M  V30 1360 C 122.773 1.83929 -0.647692 0
M  V30 1361 O 122.043 1.93029 0.334166 0
M  V30 1362 H 120.623 0.341774 -0.664228 0
M  V30 1363 H 123.285 0.204684 -1.93822 0
M  V30 1364 H 122.381 1.51055 -2.7311 0
M  V30 1365 N 122.682 1.50554 0.465978 0
M  V30 1366 C 123.93 1.61479 1.21528 0
M  V30 1367 C 124.251 0.319596 1.92363 0
M  V30 1368 O 123.521 -0.663194 1.84333 0
M  V30 1369 H 122.101 0.595055 0.451573 0
M  V30 1370 H 124.763 1.87355 0.53704 0
M  V30 1371 H 123.859 2.42846 1.96042 0
M  V30 1372 N 124.16 -0.719506 1.40217 0
M  V30 1373 C 125.571 -1.29848 1.34151 0
M  V30 1374 C 125.922 -1.96196 0.0131349 0
M  V30 1375 O 125.047 -1.973 -0.88892 0
M  V30 1376 C 125.642 -2.36118 2.42968 0
M  V30 1377 C 124.201 -2.8965 2.40374 0
M  V30 1378 C 123.348 -1.63393 2.24049 0
M  V30 1379 H 126.299 -0.51591 1.5008 0
M  V30 1380 H 126.32 -3.16871 2.10649 0
M  V30 1381 H 125.832 -1.878 3.39636 0
M  V30 1382 H 123.933 -3.42208 1.47392 0
M  V30 1383 H 124.046 -3.4171 3.35814 0
M  V30 1384 H 122.41 -1.88312 1.71495 0
M  V30 1385 H 123.193 -1.17104 3.2271 0
M  V30 1386 N 125.638 -1.25649 -0.95132 0
M  V30 1387 C 127.049 -1.09654 -1.51106 0
M  V30 1388 C 127.4 0.326615 -1.93462 0
M  V30 1389 O 126.525 1.21697 -1.78938 0
M  V30 1390 C 127.12 -1.98437 -2.74605 0
M  V30 1391 C 125.679 -1.86618 -3.2688 0
M  V30 1392 C 124.826 -1.9239 -1.99703 0
M  V30 1393 H 127.777 -1.38887 -0.767865 0
M  V30 1394 H 127.798 -1.5263 -3.48546 0
M  V30 1395 H 127.31 -3.02009 -2.43746 0
M  V30 1396 H 125.411 -0.859421 -3.62553 0
M  V30 1397 H 125.524 -2.71607 -3.94673 0
M  V30 1398 H 123.888 -1.36317 -2.15151 0
M  V30 1399 H 124.671 -2.97573 -1.71188 0
M  V30 1400 N 127.117 1.15442 -1.07289 0
M  V30 1401 C 128.394 1.82306 -0.708792 0
M  V30 1402 C 128.774 1.94991 0.808807 0
M  V30 1403 O 128.122 1.50085 1.72298 0
M  V30 1404 C 128.332 3.18695 -1.42247 0
M  V30 1405 C 129.68 3.94341 -1.57417 0
M  V30 1406 O 130.704 3.28247 -1.38319 0
M  V30 1407 O 129.563 5.12839 -1.88834 0
M  V30 1408 H 126.657 0.787628 -0.252132 0
M  V30 1409 H 129.203 1.22559 -1.17377 0
M  V30 1410 H 127.975 3.04557 -2.45684 0
M  V30 1411 H 127.598 3.86128 -0.948223 0
M  V30 1412 N 128.595 0.856903 1.32268 0
M  V30 1413 C 129.525 0.31858 2.31316 0
M  V30 1414 C 130.506 -0.583487 1.59779 0
M  V30 1415 O 131.691 -0.503259 1.87566 0
M  V30 1416 C 128.821 -0.491979 3.43798 0
M  V30 1417 C 127.775 0.315849 4.26833 0
M  V30 1418 C 127.101 -0.619586 5.31098 0
M  V30 1419 C 128.401 1.54282 4.98993 0
M  V30 1420 H 130.095 1.14621 2.76591 0
M  V30 1421 H 127.641 0.552613 1.32974 0
M  V30 1422 H 129.594 -0.879012 4.1213 0
M  V30 1423 H 128.318 -1.35299 2.97257 0
M  V30 1424 H 126.977 0.684664 3.6015 0
M  V30 1425 H 126.625 -1.47751 4.8081 0
M  V30 1426 H 126.325 -0.0830621 5.87541 0
M  V30 1427 H 127.849 -1.00375 6.02293 0
M  V30 1428 H 129.263 1.22796 5.59995 0
M  V30 1429 H 127.66 2.01745 5.65172 0
M  V30 1430 H 128.73 2.30285 4.26728 0
M  V30 1431 N 130.073 -1.45103 0.615059 0
M  V30 1432 C 131.35 -1.95549 0.0448276 0
M  V30 1433 C 131.73 -1.55737 -1.4251 0
M  V30 1434 O 131.078 -0.823556 -2.13143 0
M  V30 1435 C 131.288 -3.48098 0.250785 0
M  V30 1436 C 132.636 -4.24384 0.135509 0
M  V30 1437 O 133.66 -3.55738 0.181299 0
M  V30 1438 O 132.519 -5.46493 0.0268878 0
M  V30 1439 H 129.613 -0.8264 -0.0314845 0
M  V30 1440 H 132.159 -1.55232 0.685642 0
M  V30 1441 H 130.931 -3.7007 1.27139 0
M  V30 1442 H 130.554 -3.95323 -0.424937 0
M  V30 1443 N 131.551 -0.354651 -1.53558 0
M  V30 1444 C 132.779 0.239515 -2.05509 0
M  V30 1445 C 133.194 1.4333 -1.2289 0
M  V30 1446 O 132.551 1.80538 -0.266899 0
M  V30 1447 C 132.602 0.643719 -3.55723 0
M  V30 1448 O 132.323 -0.502602 -4.35207 0
M  V30 1449 C 133.824 1.29743 -4.23889 0
M  V30 1450 H 131.044 0.0442697 -0.669538 0
M  V30 1451 H 133.588 -0.509856 -1.98042 0
M  V30 1452 H 131.743 1.34302 -3.63376 0
M  V30 1453 H 132.157 -0.178172 -5.24197 0
M  V30 1454 H 133.631 1.53091 -5.30346 0
M  V30 1455 H 134.108 2.25441 -3.76926 0
M  V30 1456 H 134.714 0.639865 -4.20459 0
M  V30 1457 N 133.029 1.57378 -0.0835403 0
M  V30 1458 C 134.257 1.98263 0.59157 0
M  V30 1459 C 134.672 0.962302 1.62435 0
M  V30 1460 O 134.029 -0.049581 1.82433 0
M  V30 1461 C 134.08 3.39214 1.24965 0
M  V30 1462 O 133.801 4.37339 0.258186 0
M  V30 1463 C 135.302 3.95038 2.01147 0
M  V30 1464 H 132.522 0.651773 0.159477 0
M  V30 1465 H 135.066 2.03878 -0.159415 0
M  V30 1466 H 133.221 3.34649 1.95164 0
M  V30 1467 H 133.635 5.19371 0.731734 0
M  V30 1468 H 135.109 4.95848 2.42567 0
M  V30 1469 H 135.586 3.32222 2.87272 0
M  V30 1470 H 136.192 4.0304 1.35789 0
M  V30 1471 N 134.507 -0.190092 1.56449 0
M  V30 1472 C 135.756 -0.907912 1.80111 0
M  V30 1473 C 136.069 -1.84214 0.657619 0
M  V30 1474 O 137.275 -2.60094 0.778663 0
M  V30 1475 C 135.731 -1.66485 3.19078 0
M  V30 1476 C 135.339 -0.7752 4.41242 0
M  V30 1477 C 137.083 -2.37201 3.52045 0
M  V30 1478 C 134.99 -1.53129 5.71231 0
M  V30 1479 H 133.92 -0.34276 0.671589 0
M  V30 1480 H 136.571 -0.161109 1.82791 0
M  V30 1481 H 134.953 -2.45572 3.10661 0
M  V30 1482 H 136.127 -0.0226298 4.60794 0
M  V30 1483 H 134.442 -0.178627 4.16017 0
M  V30 1484 H 137.039 -2.94329 4.46402 0
M  V30 1485 H 137.382 -3.11632 2.76028 0
M  V30 1486 H 137.915 -1.65075 3.61932 0
M  V30 1487 H 134.654 -0.82967 6.50228 0
M  V30 1488 H 134.174 -2.25767 5.55688 0
M  V30 1489 H 135.853 -2.08377 6.12526 0
M  V30 1490 N 135.985 -1.50799 -0.457987 0
M  V30 1491 C 136.895 -1.73426 -1.57989 0
M  V30 1492 C 137.911 -0.617745 -1.62665 0
M  V30 1493 O 139.087 -0.897614 -1.80291 0
M  V30 1494 C 136.152 -1.83557 -2.94122 0
M  V30 1495 C 135.213 -3.07345 -2.99729 0
M  V30 1496 C 134.446 -3.16983 -4.29368 0
M  V30 1497 O 134.669 -2.33077 -5.20607 0
M  V30 1498 O 133.603 -4.09812 -4.40837 0
M  V30 1499 H 137.429 -2.68555 -1.41817 0
M  V30 1500 H 135.014 -1.35052 -0.638859 0
M  V30 1501 H 136.896 -1.92326 -3.74952 0
M  V30 1502 H 135.571 -0.916137 -3.10465 0
M  V30 1503 H 134.478 -3.04068 -2.1793 0
M  V30 1504 H 135.811 -3.9891 -2.88326 0
M  V30 1505 N 137.463 0.71206 -1.40597 0
M  V30 1506 C 138.426 1.80785 -1.40888 0
M  V30 1507 C 139.426 1.57937 -0.302103 0
M  V30 1508 O 140.616 1.64913 -0.561182 0
M  V30 1509 C 137.748 3.18927 -1.20409 0
M  V30 1510 H 138.941 1.81924 -2.38419 0
M  V30 1511 H 136.494 0.91805 -1.26497 0
M  V30 1512 H 137.229 3.23436 -0.236522 0
M  V30 1513 H 137.014 3.36911 -2.00582 0
M  V30 1514 H 138.504 3.98949 -1.23408 0
M  V30 1515 N 138.941 1.26152 0.944643 0
M  V30 1516 C 140.171 1.14094 1.72239 0
M  V30 1517 C 140.579 -0.306931 1.86694 0
M  V30 1518 O 139.922 -1.22222 1.3714 0
M  V30 1519 C 139.984 1.73316 3.14963 0
M  V30 1520 C 139.648 3.2239 3.23904 0
M  V30 1521 C 140.645 4.19252 3.07447 0
M  V30 1522 C 138.33 3.62788 3.47405 0
M  V30 1523 C 140.324 5.54491 3.14353 0
M  V30 1524 C 138.011 4.98162 3.53947 0
M  V30 1525 C 139.009 5.93823 3.37436 0
M  V30 1526 O 138.697 7.26732 3.43679 0
M  V30 1527 H 138.429 0.398292 0.546205 0
M  V30 1528 H 140.983 1.67201 1.19301 0
M  V30 1529 H 139.213 1.14667 3.69308 0
M  V30 1530 H 140.902 1.56214 3.74636 0
M  V30 1531 H 141.668 3.8938 2.8915 0
M  V30 1532 H 137.547 2.88816 3.59313 0
M  V30 1533 H 141.091 6.29137 3.01384 0
M  V30 1534 H 136.988 5.27695 3.71763 0
M  V30 1535 H 137.756 7.3496 3.60245 0
M  V30 1536 N 140.419 -1.14872 1.07899 0
M  V30 1537 C 141.665 -1.86064 0.806725 0
M  V30 1538 C 141.998 -1.82434 -0.665706 0
M  V30 1539 O 141.273 -1.25138 -1.48899 0
M  V30 1540 C 141.556 -3.34929 1.32267 0
M  V30 1541 C 141.409 -3.47161 2.86006 0
M  V30 1542 C 142.728 -4.29863 0.943717 0
M  V30 1543 H 139.847 -0.675591 0.294526 0
M  V30 1544 H 142.489 -1.34925 1.33773 0
M  V30 1545 H 140.639 -3.78611 0.870974 0
M  V30 1546 H 142.311 -3.12302 3.39507 0
M  V30 1547 H 140.554 -2.88539 3.23925 0
M  V30 1548 H 141.225 -4.51777 3.17177 0
M  V30 1549 H 143.701 -3.9417 1.33302 0
M  V30 1550 H 142.577 -5.32494 1.33198 0
M  V30 1551 H 142.838 -4.41846 -0.149796 0
M  V30 1552 N 141.898 -0.863906 -1.31812 0
M  V30 1553 C 142.861 -0.320212 -2.26952 0
M  V30 1554 C 143.861 0.525369 -1.51975 0
M  V30 1555 O 145.051 0.335547 -1.70938 0
M  V30 1556 C 142.183 0.545919 -3.365 0
M  V30 1557 H 143.376 -1.16004 -2.76556 0
M  V30 1558 H 140.929 -0.638995 -1.42641 0
M  V30 1559 H 141.664 1.40718 -2.92179 0
M  V30 1560 H 141.449 -0.0594674 -3.92055 0
M  V30 1561 H 142.939 0.918796 -4.07367 0
M  V30 1562 N 143.376 1.44774 -0.622745 0
M  V30 1563 C 144.306 2.33382 0.0741861 0
M  V30 1564 C 145.287 1.47719 0.843387 0
M  V30 1565 O 146.472 1.76458 0.810934 0
M  V30 1566 C 143.602 3.30663 1.06204 0
M  V30 1567 C 142.556 4.26079 0.405037 0
M  V30 1568 C 141.882 5.13165 1.5022 0
M  V30 1569 C 143.182 5.1781 -0.683414 0
M  V30 1570 H 144.876 2.91905 -0.665713 0
M  V30 1571 H 142.422 1.40363 -0.321587 0
M  V30 1572 H 144.375 3.9153 1.55827 0
M  V30 1573 H 143.099 2.70331 1.83272 0
M  V30 1574 H 141.758 3.66532 -0.0704683 0
M  V30 1575 H 141.406 4.49191 2.26355 0
M  V30 1576 H 141.106 5.77812 1.06803 0
M  V30 1577 H 142.63 5.76902 2.00041 0
M  V30 1578 H 144.044 5.72661 -0.270631 0
M  V30 1579 H 142.441 5.91015 -1.04023 0
M  V30 1580 H 143.511 4.59326 -1.55395 0
M  V30 1581 N 144.854 0.36279 1.53368 0
M  V30 1582 C 145.801 -0.485008 2.25646 0
M  V30 1583 C 146.771 -1.07982 1.2621 0
M  V30 1584 O 147.956 -1.11284 1.54986 0
M  V30 1585 C 145.096 -1.62023 3.04701 0
M  V30 1586 C 144.209 -1.05086 4.19024 0
M  V30 1587 C 143.344 -2.15496 4.85525 0
M  V30 1588 C 142.383 -1.5601 5.91884 0
M  V30 1589 N 141.52 -2.60241 6.52088 0
M  V30 1590 H 146.36 0.137864 2.97681 0
M  V30 1591 H 143.897 0.0798061 1.46883 0
M  V30 1592 H 145.855 -2.28887 3.48807 0
M  V30 1593 H 144.485 -2.2138 2.34927 0
M  V30 1594 H 143.537 -0.27259 3.79422 0
M  V30 1595 H 144.849 -0.575926 4.95464 0
M  V30 1596 H 144.003 -2.90186 5.32801 0
M  V30 1597 H 142.742 -2.66341 4.08551 0
M  V30 1598 H 141.747 -0.798338 5.43973 0
M  V30 1599 H 142.972 -1.05994 6.70777 0
M  V30 1600 H 140.918 -3.10304 5.77968 0
M  V30 1601 H 140.835 -2.17426 7.24059 0
M  V30 1602 H 142.103 -3.34641 7.04014 0
M  V30 1603 N 146.332 -1.57332 0.0918853 0
M  V30 1604 C 147.562 -1.98286 -0.580205 0
M  V30 1605 C 147.97 -0.969713 -1.6246 0
M  V30 1606 O 147.313 0.0493501 -1.83634 0
M  V30 1607 C 147.375 -3.35603 -1.28882 0
M  V30 1608 C 147.039 -4.55285 -0.395559 0
M  V30 1609 C 148.036 -5.18687 0.355002 0
M  V30 1610 C 145.721 -5.01314 -0.314556 0
M  V30 1611 C 147.715 -6.26484 1.17458 0
M  V30 1612 C 145.402 -6.08979 0.508677 0
M  V30 1613 C 146.4 -6.71429 1.2519 0
M  V30 1614 O 146.088 -7.77018 2.06151 0
M  V30 1615 H 145.82 -0.656678 -0.160466 0
M  V30 1616 H 148.374 -2.04721 0.16688 0
M  V30 1617 H 146.604 -3.25842 -2.08241 0
M  V30 1618 H 148.293 -3.61026 -1.85512 0
M  V30 1619 H 149.059 -4.84058 0.302134 0
M  V30 1620 H 144.938 -4.5247 -0.882697 0
M  V30 1621 H 148.482 -6.75159 1.75518 0
M  V30 1622 H 144.379 -6.4304 0.563037 0
M  V30 1623 H 145.147 -7.93991 1.98799 0
M  V30 1624 N 147.81 0.181792 -1.56548 0
M  V30 1625 C 149.059 0.898348 -1.8059 0
M  V30 1626 C 149.372 1.83862 -0.667379 0
M  V30 1627 O 150.578 2.59678 -0.792446 0
M  V30 1628 C 149.034 1.64791 -3.19956 0
M  V30 1629 C 148.642 0.751789 -4.41647 0
M  V30 1630 C 150.386 2.35331 -3.53298 0
M  V30 1631 C 148.293 1.50098 -5.72035 0
M  V30 1632 H 147.223 0.339194 -0.673397 0
M  V30 1633 H 149.874 0.151413 -1.82874 0
M  V30 1634 H 148.256 2.43921 -3.11959 0
M  V30 1635 H 149.43 -0.0018076 -4.608 0
M  V30 1636 H 147.745 0.156562 -4.16106 0
M  V30 1637 H 150.342 2.91958 -4.47956 0
M  V30 1638 H 150.685 3.10164 -2.77676 0
M  V30 1639 H 151.218 1.63154 -3.62803 0
M  V30 1640 H 147.957 0.795175 -6.50659 0
M  V30 1641 H 147.477 2.22817 -5.56878 0
M  V30 1642 H 149.156 2.05125 -6.13622 0
M  V30 1643 N 149.288 1.51039 0.449983 0
M  V30 1644 C 150.536 1.62759 1.19808 0
M  V30 1645 C 150.857 0.339981 1.92013 0
M  V30 1646 O 150.127 -0.643606 1.85026 0
M  V30 1647 H 148.707 0.599811 0.445237 0
M  V30 1648 H 151.369 1.87914 0.517138 0
M  V30 1649 H 150.465 2.44911 1.93455 0
M  V30 1650 N 150.766 -0.704594 1.40972 0
M  V30 1651 C 151.699 -1.82861 1.36518 0
M  V30 1652 C 152.677 -1.6091 0.23382 0
M  V30 1653 O 153.861 -1.83778 0.419271 0
M  V30 1654 C 150.988 -3.1939 1.12729 0
M  V30 1655 C 150.034 -3.60148 2.28463 0
M  V30 1656 S 150.867 -3.65994 3.90907 0
M  V30 1657 C 152.023 -5.05264 3.69403 0
M  V30 1658 H 152.256 -1.86361 2.3164 0
M  V30 1659 H 149.789 -0.872439 1.27389 0
M  V30 1660 H 151.747 -3.98211 0.996893 0
M  V30 1661 H 150.408 -3.1351 0.192427 0
M  V30 1662 H 149.601 -4.59309 2.07489 0
M  V30 1663 H 149.203 -2.88612 2.37863 0
M  V30 1664 H 151.495 -5.92504 3.28551 0
M  V30 1665 H 152.438 -5.31278 4.68134 0
M  V30 1666 H 152.846 -4.76377 3.02862 0
M  V30 1667 N 152.244 -1.26651 -0.937939 0
M  V30 1668 C 153.469 -1.15279 -1.72411 0
M  V30 1669 C 153.894 0.287866 -1.85884 0
M  V30 1670 O 153.252 1.20855 -1.35143 0
M  V30 1671 C 153.3 -1.83028 -3.10698 0
M  V30 1672 O 152.404 -1.12128 -3.96864 0
M  V30 1673 H 151.745 -0.401504 -0.528858 0
M  V30 1674 H 154.275 -1.67531 -1.1745 0
M  V30 1675 H 154.285 -1.89981 -3.6107 0
M  V30 1676 H 152.96 -2.87833 -3.00208 0
M  V30 1677 H 151.537 -1.13173 -3.55312 0
M  V30 1678 N 153.722 1.14298 -1.08507 0
M  V30 1679 C 155.138 1.37347 -0.812901 0
M  V30 1680 C 155.338 1.93052 0.577325 0
M  V30 1681 O 154.394 2.14389 1.33393 0
M  V30 1682 C 155.707 2.33359 -1.89642 0
M  V30 1683 C 157.255 2.46996 -1.92255 0
M  V30 1684 C 157.73 3.46309 -2.99724 0
M  V30 1685 N 159.221 3.53853 -2.98902 0
M  V30 1686 C 159.956 4.3055 -3.787 0
M  V30 1687 N 159.452 5.10482 -4.6838 0
M  V30 1688 N 161.245 4.25757 -3.66998 0
M  V30 1689 H 153.396 0.764867 -1.9815 0
M  V30 1690 H 155.659 0.398966 -0.859959 0
M  V30 1691 H 155.365 1.99565 -2.89597 0
M  V30 1692 H 155.239 3.33274 -1.76659 0
M  V30 1693 H 157.626 2.80081 -0.929445 0
M  V30 1694 H 157.707 1.47039 -2.09316 0
M  V30 1695 H 157.351 3.13957 -3.99241 0
M  V30 1696 H 157.281 4.46049 -2.79907 0
M  V30 1697 H 159.772 2.96812 -2.33904 0
M  V30 1698 H 160.085 5.66284 -5.25873 0
M  V30 1699 H 158.43 5.09747 -4.72422 0
M  V30 1700 H 161.621 3.62383 -2.96304 0
M  V30 1701 H 161.794 4.85279 -4.29427 0
M  V30 1702 N 155.201 0.870884 1.31352 0
M  V30 1703 C 156.478 0.402907 1.91405 0
M  V30 1704 C 156.858 -1.11512 1.79244 0
M  V30 1705 O 156.206 -1.94411 1.2007 0
M  V30 1706 C 156.416 0.885301 3.37585 0
M  V30 1707 C 157.764 0.911971 4.14691 0
M  V30 1708 O 158.788 0.831016 3.46371 0
M  V30 1709 O 157.647 1.02927 5.3672 0
M  V30 1710 H 154.741 0.120698 0.818145 0
M  V30 1711 H 157.287 0.958857 1.40014 0
M  V30 1712 H 156.059 1.92889 3.40455 0
M  V30 1713 H 155.682 0.307714 3.96407 0
M  V30 1714 N 156.679 -1.44442 0.630414 0
M  V30 1715 C 157.589 -2.34476 -0.0761693 0
M  V30 1716 C 158.605 -1.52576 -0.836449 0
M  V30 1717 O 159.781 -1.85307 -0.788874 0
M  V30 1718 C 156.846 -3.30545 -1.04599 0
M  V30 1719 C 155.907 -4.28352 -0.28516 0
M  V30 1720 C 155.14 -5.19831 -1.20878 0
M  V30 1721 O 155.363 -5.15223 -2.44747 0
M  V30 1722 O 154.297 -5.97892 -0.693491 0
M  V30 1723 H 158.123 -2.96345 0.664324 0
M  V30 1724 H 155.708 -1.44203 0.39061 0
M  V30 1725 H 157.59 -3.89681 -1.60396 0
M  V30 1726 H 156.265 -2.7121 -1.76711 0
M  V30 1727 H 155.172 -3.72764 0.315837 0
M  V30 1728 H 156.505 -4.90605 0.395924 0
M  V30 1729 N 158.157 -0.370918 -1.53173 0
M  V30 1730 C 159.067 0.480823 -2.2962 0
M  V30 1731 C 160.083 1.08789 -1.35798 0
M  V30 1732 O 161.259 1.09768 -1.68858 0
M  V30 1733 C 158.324 1.60227 -3.07454 0
M  V30 1734 C 157.385 1.0222 -4.16953 0
M  V30 1735 C 156.618 2.0902 -4.91066 0
M  V30 1736 O 156.841 3.30222 -4.65091 0
M  V30 1737 O 155.775 1.71778 -5.76867 0
M  V30 1738 H 159.601 -0.141421 -3.03371 0
M  V30 1739 H 157.186 -0.135146 -1.48787 0
M  V30 1740 H 159.068 2.25417 -3.56041 0
M  V30 1741 H 157.743 2.20982 -2.36535 0
M  V30 1742 H 156.65 0.334064 -3.72605 0
M  V30 1743 H 157.983 0.459131 -4.90054 0
M  V30 1744 N 159.635 1.57281 -0.100228 0
M  V30 1745 C 161.046 1.81725 0.428107 0
M  V30 1746 C 161.397 1.01619 1.67833 0
M  V30 1747 O 160.522 0.247098 2.14985 0
M  V30 1748 C 161.117 3.29617 0.78347 0
M  V30 1749 C 159.676 3.54808 1.25653 0
M  V30 1750 C 158.823 2.76118 0.255752 0
M  V30 1751 H 161.774 1.55324 -0.325608 0
M  V30 1752 H 161.795 3.4322 1.64256 0
M  V30 1753 H 161.307 3.87893 -0.12665 0
M  V30 1754 H 159.408 3.01868 2.18418 0
M  V30 1755 H 159.521 4.63443 1.21482 0
M  V30 1756 H 157.885 2.43745 0.738956 0
M  V30 1757 H 158.668 3.37145 -0.647136 0
M  V30 1758 N 161.113 -0.173488 1.56642 0
M  V30 1759 C 162.046 -1.24353 1.91342 0
M  V30 1760 C 163.024 -1.4289 0.775965 0
M  V30 1761 O 164.208 -1.57932 1.02907 0
M  V30 1762 C 161.335 -2.60683 2.16245 0
M  V30 1763 C 160.381 -2.58894 3.38934 0
M  V30 1764 S 161.214 -2.0819 4.93373 0
M  V30 1765 C 162.37 -3.46302 5.21369 0
M  V30 1766 H 162.603 -0.947345 2.81803 0
M  V30 1767 H 160.136 -0.377958 1.49703 0
M  V30 1768 H 162.094 -3.39149 2.31275 0
M  V30 1769 H 160.755 -2.87502 1.26496 0
M  V30 1770 H 159.948 -3.59188 3.53553 0
M  V30 1771 H 159.55 -1.88522 3.2301 0
M  V30 1772 H 161.842 -4.42287 5.13214 0
M  V30 1773 H 162.785 -3.3656 6.23003 0
M  V30 1774 H 163.193 -3.42214 4.48943 0
M  V30 1775 N 162.591 -1.51276 -0.441967 0
M  V30 1776 C 163.523 -1.68444 -1.55433 0
M  V30 1777 C 164.536 -0.565187 -1.52674 0
M  V30 1778 O 165.725 -0.839356 -1.57534 0
M  V30 1779 C 162.825 -1.67966 -2.94348 0
M  V30 1780 C 161.998 -2.964 -3.21661 0
M  V30 1781 C 161.057 -2.88171 -4.40277 0
M  V30 1782 O 160.083 -3.62119 -4.39157 0
M  V30 1783 N 161.285 -2.03706 -5.43584 0
M  V30 1784 H 164.05 -2.644 -1.41112 0
M  V30 1785 H 161.611 -1.49104 -0.630838 0
M  V30 1786 H 163.603 -1.60035 -3.71713 0
M  V30 1787 H 162.173 -0.796225 -3.0229 0
M  V30 1788 H 161.393 -3.18234 -2.32638 0
M  V30 1789 H 162.681 -3.81427 -3.36736 0
M  V30 1790 H 162.079 -1.42995 -5.47329 0
M  V30 1791 H 160.636 -2.01658 -6.1982 0
M  V30 1792 N 164.069 0.697108 -1.41344 0
M  V30 1793 C 165.016 1.81106 -1.43071 0
M  V30 1794 C 165.986 1.63632 -0.285275 0
M  V30 1795 O 167.171 1.84504 -0.486091 0
M  V30 1796 C 164.311 3.18975 -1.31715 0
M  V30 1797 C 163.424 3.47892 -2.56115 0
M  V30 1798 C 162.559 4.75367 -2.37064 0
M  V30 1799 C 161.598 4.97247 -3.56948 0
M  V30 1800 N 160.735 6.15947 -3.36977 0
M  V30 1801 H 165.575 1.78965 -2.38276 0
M  V30 1802 H 163.112 0.873975 -1.18322 0
M  V30 1803 H 165.07 3.98615 -1.23133 0
M  V30 1804 H 163.7 3.20297 -0.401183 0
M  V30 1805 H 162.752 2.62669 -2.75153 0
M  V30 1806 H 164.064 3.59962 -3.45295 0
M  V30 1807 H 163.218 5.63059 -2.25941 0
M  V30 1808 H 161.957 4.65541 -1.45338 0
M  V30 1809 H 160.962 4.08004 -3.68527 0
M  V30 1810 H 162.187 5.08934 -4.49626 0
M  V30 1811 H 160.133 6.07336 -2.47949 0
M  V30 1812 H 160.05 6.28777 -4.19732 0
M  V30 1813 H 161.318 7.06377 -3.29623 0
M  V30 1814 N 165.547 1.27147 0.931209 0
M  V30 1815 C 166.51 1.09615 2.01289 0
M  V30 1816 C 167.51 0.0412581 1.60747 0
M  V30 1817 O 168.7 0.285545 1.71844 0
M  V30 1818 C 165.832 0.669447 3.34262 0
M  V30 1819 H 167.025 2.05662 2.18273 0
M  V30 1820 H 164.578 1.09885 1.11153 0
M  V30 1821 H 165.313 -0.292572 3.22978 0
M  V30 1822 H 165.098 1.43127 3.65044 0
M  V30 1823 H 166.588 0.568921 4.13706 0
M  V30 1824 N 167.025 -1.13721 1.09112 0
M  V30 1825 C 167.955 -2.21148 0.749385 0
M  V30 1826 C 168.936 -1.6792 -0.271475 0
M  V30 1827 O 170.121 -1.93693 -0.140251 0
M  V30 1828 C 167.251 -3.46905 0.165659 0
M  V30 1829 C 166.205 -4.13203 1.11567 0
M  V30 1830 C 165.531 -5.33248 0.393809 0
M  V30 1831 C 166.831 -4.60912 2.45678 0
M  V30 1832 H 168.525 -2.4999 1.64758 0
M  V30 1833 H 166.071 -1.20156 0.793626 0
M  V30 1834 H 168.024 -4.21313 -0.085466 0
M  V30 1835 H 166.748 -3.17449 -0.767714 0
M  V30 1836 H 165.407 -3.40758 1.35202 0
M  V30 1837 H 165.055 -5.00054 -0.543599 0
M  V30 1838 H 164.755 -5.78552 1.02721 0
M  V30 1839 H 166.279 -6.10413 0.150908 0
M  V30 1840 H 167.693 -5.26759 2.26269 0
M  V30 1841 H 166.09 -5.16944 3.04776 0
M  V30 1842 H 167.16 -3.75603 3.06677 0
M  V30 1843 N 168.503 -0.877838 -1.30888 0
M  V30 1844 C 169.919 -0.570844 -1.49042 0
M  V30 1845 C 170.119 0.893159 -1.80624 0
M  V30 1846 O 169.175 1.67485 -1.88958 0
M  V30 1847 C 170.488 -1.47784 -2.61878 0
M  V30 1848 C 172.036 -1.48071 -2.75761 0
M  V30 1849 C 172.511 -2.37347 -3.91702 0
M  V30 1850 N 174.002 -2.35271 -3.99001 0
M  V30 1851 C 174.737 -3.01063 -4.88004 0
M  V30 1852 N 174.233 -3.76055 -5.81854 0
M  V30 1853 N 176.026 -2.90332 -4.81315 0
M  V30 1854 H 168.177 -1.82502 -1.0866 0
M  V30 1855 H 170.44 -0.780797 -0.537644 0
M  V30 1856 H 170.146 -2.51993 -2.45341 0
M  V30 1857 H 170.02 -1.18215 -3.58197 0
M  V30 1858 H 172.407 -0.446166 -2.91708 0
M  V30 1859 H 172.488 -1.81668 -1.80085 0
M  V30 1860 H 172.132 -3.40883 -3.76512 0
M  V30 1861 H 172.062 -2.01071 -4.86701 0
M  V30 1862 H 174.553 -1.80768 -3.3186 0
M  V30 1863 H 174.866 -4.23366 -6.46514 0
M  V30 1864 H 173.211 -3.80163 -5.81808 0
M  V30 1865 H 176.402 -2.31278 -4.06974 0
M  V30 1866 H 176.575 -3.41885 -5.50471 0
M  V30 1867 N 169.982 1.44106 -0.638065 0
M  V30 1868 C 171.229 2.01978 -0.14533 0
M  V30 1869 C 171.557 1.50234 1.23532 0
M  V30 1870 O 170.812 0.679548 1.83523 0
M  V30 1871 C 171.111 3.5729 -0.0887327 0
M  V30 1872 C 170.777 4.28317 -1.40909 0
M  V30 1873 C 169.439 4.47437 -1.77069 0
M  V30 1874 C 171.791 4.6867 -2.28031 0
M  V30 1875 C 169.119 5.04171 -3.00047 0
M  V30 1876 C 171.471 5.26766 -3.50286 0
M  V30 1877 C 170.135 5.44104 -3.86661 0
M  V30 1878 H 169.405 0.739089 -0.0531801 0
M  V30 1879 H 172.052 1.72781 -0.825761 0
M  V30 1880 H 170.357 3.8594 0.675095 0
M  V30 1881 H 172.054 3.99807 0.309145 0
M  V30 1882 H 168.644 4.1377 -1.1177 0
M  V30 1883 H 172.828 4.53604 -2.01388 0
M  V30 1884 H 168.084 5.15782 -3.28298 0
M  V30 1885 H 172.258 5.56983 -4.18023 0
M  V30 1886 H 169.885 5.87832 -4.82034 0
M  V30 1887 N 171.46 0.379036 1.52974 0
M  V30 1888 C 172.709 -0.207612 2.00629 0
M  V30 1889 C 173.022 -1.48758 1.27006 0
M  V30 1890 O 174.228 -2.15365 1.65318 0
M  V30 1891 C 172.684 -0.42053 3.57435 0
M  V30 1892 C 172.292 0.845587 4.39948 0
M  V30 1893 C 174.036 -0.964102 4.13407 0
M  V30 1894 C 171.943 0.601513 5.88333 0
M  V30 1895 H 170.873 -0.0813591 0.749598 0
M  V30 1896 H 173.524 0.499853 1.76561 0
M  V30 1897 H 171.906 -1.18959 3.7771 0
M  V30 1898 H 173.08 1.61848 4.31442 0
M  V30 1899 H 171.395 1.31336 3.95145 0
M  V30 1900 H 173.992 -1.16225 5.21916 0
M  V30 1901 H 174.335 -1.93019 3.68849 0
M  V30 1902 H 174.868 -0.25487 3.96983 0
M  V30 1903 H 171.607 1.53831 6.37194 0
M  V30 1904 H 171.127 -0.132628 5.99653 0
M  V30 1905 H 172.806 0.232134 6.46583 0
M  V30 1906 N 172.938 -1.57226 0.108567 0
M  V30 1907 C 173.87 -2.11809 -0.875752 0
M  V30 1908 C 174.883 -1.05839 -1.23701 0
M  V30 1909 O 176.072 -1.33245 -1.18778 0
M  V30 1910 C 173.172 -2.59411 -2.18081 0
M  V30 1911 C 172.345 -3.89364 -1.99284 0
M  V30 1912 C 171.404 -4.22672 -3.13424 0
M  V30 1913 O 170.43 -4.91668 -2.86795 0
M  V30 1914 N 171.632 -3.79154 -4.3957 0
M  V30 1915 H 174.397 -2.9689 -0.409477 0
M  V30 1916 H 171.958 -1.61721 -0.076158 0
M  V30 1917 H 173.95 -2.7873 -2.93414 0
M  V30 1918 H 172.52 -1.79268 -2.5609 0
M  V30 1919 H 171.74 -3.79059 -1.08203 0
M  V30 1920 H 173.028 -4.74358 -1.84017 0
M  V30 1921 H 172.426 -3.23486 -4.64083 0
M  V30 1922 H 170.983 -4.03602 -5.11809 0
M  V30 1923 N 174.416 0.165178 -1.56732 0
M  V30 1924 C 175.641 0.900253 -1.86843 0
M  V30 1925 C 176.066 1.74766 -0.695596 0
M  V30 1926 O 175.424 1.77786 0.35522 0
M  V30 1927 C 175.472 1.74777 -3.15413 0
M  V30 1928 O 174.576 2.85007 -2.98068 0
M  V30 1929 H 173.917 0.251832 -0.614391 0
M  V30 1930 H 176.447 0.161468 -2.03962 0
M  V30 1931 H 176.457 2.14646 -3.46974 0
M  V30 1932 H 175.132 1.12537 -4.00385 0
M  V30 1933 H 173.709 2.48676 -2.77875 0
M  V30 1934 N 175.894 1.51508 0.433938 0
M  V30 1935 C 176.826 1.69266 1.54537 0
M  V30 1936 C 177.839 0.573276 1.52373 0
M  V30 1937 O 179.028 0.847698 1.57087 0
M  V30 1938 C 176.128 1.69524 2.93453 0
M  V30 1939 C 175.301 2.98101 3.20085 0
M  V30 1940 C 174.36 2.90502 4.38742 0
M  V30 1941 O 173.386 3.64442 4.3723 0
M  V30 1942 N 174.588 2.06586 5.42496 0
M  V30 1943 H 177.353 2.65145 1.39708 0
M  V30 1944 H 174.914 1.49437 0.622922 0
M  V30 1945 H 176.906 1.62004 3.70859 0
M  V30 1946 H 175.476 0.812245 3.01863 0
M  V30 1947 H 174.696 3.19464 2.30947 0
M  V30 1948 H 175.984 3.83207 3.34708 0
M  V30 1949 H 175.382 1.45896 5.46563 0
M  V30 1950 H 173.939 2.04943 6.18742 0
M  V30 1951 N 177.372 -0.689602 1.41712 0
M  V30 1952 C 178.62 -1.4468 1.4111 0
M  V30 1953 C 178.941 -1.94986 0.0232196 0
M  V30 1954 O 178.211 -1.72097 -0.935913 0
M  V30 1955 H 176.791 -0.536847 0.519427 0
M  V30 1956 H 179.453 -0.815825 1.77004 0
M  V30 1957 H 178.549 -2.30706 2.10193 0
M  V30 1958 N 178.85 -1.27639 -0.924453 0
M  V30 1959 C 180.098 -1.13941 -1.66918 0
M  V30 1960 C 180.419 0.314589 -1.92446 0
M  V30 1961 O 179.689 1.21964 -1.53303 0
M  V30 1962 H 178.269 -0.418678 -0.618642 0
M  V30 1963 H 180.931 -1.60213 -1.10985 0
M  V30 1964 H 180.027 -1.67094 -2.63602 0
M  V30 1965 N 180.328 1.1314 -1.09713 0
M  V30 1966 C 181.577 1.83838 -0.829851 0
M  V30 1967 C 181.89 1.84599 0.646728 0
M  V30 1968 O 183.096 2.51218 1.02965 0
M  V30 1969 C 181.552 3.30069 -1.43466 0
M  V30 1970 C 181.16 3.37688 -2.94399 0
M  V30 1971 C 182.904 4.05788 -1.24645 0
M  V30 1972 C 180.811 4.78209 -3.47952 0
M  V30 1973 H 179.741 0.68877 -0.306777 0
M  V30 1974 H 182.392 1.27448 -1.3202 0
M  V30 1975 H 180.774 3.8628 -0.871996 0
M  V30 1976 H 181.948 2.91456 -3.56918 0
M  V30 1977 H 180.263 2.75436 -3.12289 0
M  V30 1978 H 182.86 5.09535 -1.62107 0
M  V30 1979 H 183.203 4.15878 -0.187357 0
M  V30 1980 H 183.736 3.55915 -1.77678 0
M  V30 1981 H 180.475 4.73311 -4.53495 0
M  V30 1982 H 179.995 5.24924 -2.90198 0
M  V30 1983 H 181.674 5.47133 -3.45332 0
M  V30 1984 N 181.806 0.884767 1.30421 0
M  V30 1985 C 182.716 0.355398 2.31892 0
M  V30 1986 C 183.732 -0.542261 1.65335 0
M  V30 1987 O 184.908 -0.435432 1.96637 0
M  V30 1988 C 181.973 -0.421661 3.44126 0
M  V30 1989 C 181.034 0.505727 4.26311 0
M  V30 1990 C 180.267 -0.234343 5.33185 0
M  V30 1991 O 180.49 -1.46045 5.51386 0
M  V30 1992 O 179.424 0.415443 6.00465 0
M  V30 1993 H 183.25 1.19685 2.79122 0
M  V30 1994 H 180.835 0.648596 1.34587 0
M  V30 1995 H 182.717 -0.861641 4.12497 0
M  V30 1996 H 181.392 -1.23942 2.99032 0
M  V30 1997 H 180.299 0.994513 3.60639 0
M  V30 1998 H 181.632 1.28948 4.75009 0
M  V30 1999 N 183.284 -1.43765 0.645699 0
M  V30 2000 C 184.509 -2.06767 0.161883 0
M  V30 2001 C 184.934 -1.48034 -1.16049 0
M  V30 2002 O 184.292 -0.587369 -1.71522 0
M  V30 2003 C 184.34 -3.60519 0.0762003 0
M  V30 2004 O 183.444 -4.00982 -0.963721 0
M  V30 2005 H 182.785 -0.657675 0.091429 0
M  V30 2006 H 185.315 -1.84397 0.886499 0
M  V30 2007 H 185.325 -4.07853 -0.109604 0
M  V30 2008 H 184 -4.02646 1.04157 0
M  V30 2009 H 182.577 -3.65253 -0.751312 0
M  V30 2010 N 184.763 -0.387143 -1.52771 0
M  V30 2011 C 185.988 0.198407 -2.06449 0
M  V30 2012 C 186.413 1.39918 -1.25716 0
M  V30 2013 O 185.771 1.79099 -0.281657 0
M  V30 2014 C 185.819 0.548893 -3.56398 0
M  V30 2015 O 184.923 1.64315 -3.78252 0
M  V30 2016 H 184.264 0.0237731 -0.663574 0
M  V30 2017 H 186.794 -0.553989 -1.96957 0
M  V30 2018 H 186.804 0.813812 -3.99801 0
M  V30 2019 H 185.479 -0.329005 -4.14597 0
M  V30 2020 H 184.056 1.37211 -3.46738 0
M  V30 2021 N 186.241 1.57166 -0.116904 0
M  V30 2022 C 187.657 1.5779 0.239693 0
M  V30 2023 C 187.857 1.1295 1.66867 0
M  V30 2024 O 186.913 0.81592 2.38954 0
M  V30 2025 C 188.226 3.00699 0.00828202 0
M  V30 2026 C 189.774 3.12912 0.0743438 0
M  V30 2027 C 190.249 4.57817 -0.129348 0
M  V30 2028 N 191.74 4.63139 -0.075247 0
M  V30 2029 C 192.475 5.73023 -0.207788 0
M  V30 2030 N 191.971 6.91665 -0.396382 0
M  V30 2031 N 193.764 5.61906 -0.14751 0
M  V30 2032 H 185.915 1.84615 -1.05029 0
M  V30 2033 H 188.178 0.85311 -0.41341 0
M  V30 2034 H 187.884 3.37784 -0.979531 0
M  V30 2035 H 187.758 3.69848 0.741077 0
M  V30 2036 H 190.145 2.75686 1.05268 0
M  V30 2037 H 190.226 2.4631 -0.690297 0
M  V30 2038 H 189.87 4.95742 -1.10465 0
M  V30 2039 H 189.8 5.22507 0.655253 0
M  V30 2040 H 192.291 3.7784 0.0670898 0
M  V30 2041 H 192.604 7.71255 -0.488437 0
M  V30 2042 H 190.949 6.93654 -0.432329 0
M  V30 2043 H 194.14 4.681 -0.00115036 0
M  V30 2044 H 194.313 6.47501 -0.254247 0
M  V30 2045 N 187.719 -0.156864 1.56817 0
M  V30 2046 C 188.965 -0.872416 1.83076 0
M  V30 2047 C 189.298 -1.81261 0.697001 0
M  V30 2048 O 188.573 -1.92171 -0.30008 0
M  V30 2049 C 188.856 -1.65551 3.19789 0
M  V30 2050 C 188.709 -0.737467 4.43713 0
M  V30 2051 C 190.028 -2.62012 3.53606 0
M  V30 2052 H 187.147 -0.315715 0.665953 0
M  V30 2053 H 189.789 -0.138004 1.89498 0
M  V30 2054 H 187.939 -2.28159 3.14445 0
M  V30 2055 H 189.611 -0.123143 4.61136 0
M  V30 2056 H 187.854 -0.0464067 4.33775 0
M  V30 2057 H 188.525 -1.32122 5.35955 0
M  V30 2058 H 191.001 -2.09525 3.59497 0
M  V30 2059 H 189.877 -3.13861 4.50314 0
M  V30 2060 H 190.138 -3.42902 2.79053 0
M  V30 2061 N 189.197 -1.51736 -0.425897 0
M  V30 2062 C 190.444 -1.6497 -1.17436 0
M  V30 2063 C 190.772 -0.371445 -1.9092 0
M  V30 2064 O 190.027 0.644963 -1.84767 0
M  V30 2065 C 190.326 -2.81103 -2.20717 0
M  V30 2066 C 189.992 -4.19954 -1.64162 0
M  V30 2067 C 188.654 -4.57725 -1.48462 0
M  V30 2068 C 191.006 -5.06552 -1.22696 0
M  V30 2069 C 188.334 -5.79789 -0.897873 0
M  V30 2070 C 190.686 -6.29205 -0.654464 0
M  V30 2071 C 189.35 -6.6574 -0.484456 0
M  V30 2072 H 188.62 -0.603668 -0.429727 0
M  V30 2073 H 191.267 -1.85798 -0.463829 0
M  V30 2074 H 189.572 -2.54542 -2.97852 0
M  V30 2075 H 191.269 -2.8854 -2.78471 0
M  V30 2076 H 187.859 -3.90181 -1.77361 0
M  V30 2077 H 192.043 -4.77968 -1.33642 0
M  V30 2078 H 187.299 -6.06733 -0.75402 0
M  V30 2079 H 191.473 -6.95643 -0.324694 0
M  V30 2080 H 189.1 -7.60195 -0.0276833 0
M  V30 2081 N 190.675 0.682077 -1.42076 0
M  V30 2082 C 191.903 1.47057 -1.4554 0
M  V30 2083 C 192.318 1.8869 -0.0645779 0
M  V30 2084 O 191.675 1.57666 0.919115 0
M  V30 2085 C 191.726 2.72442 -2.37609 0
M  V30 2086 O 191.447 2.32559 -3.71279 0
M  V30 2087 C 192.948 3.66069 -2.50017 0
M  V30 2088 H 190.168 0.452737 -0.495248 0
M  V30 2089 H 192.712 0.838695 -1.8651 0
M  V30 2090 H 190.867 3.31835 -1.9991 0
M  V30 2091 H 191.281 3.13475 -4.20516 0
M  V30 2092 H 192.755 4.50792 -3.18576 0
M  V30 2093 H 193.232 4.11476 -1.53572 0
M  V30 2094 H 193.838 3.12572 -2.88407 0
M  V30 2095 N 192.153 1.28127 0.917671 0
M  V30 2096 C 193.569 1.05749 1.19538 0
M  V30 2097 C 193.769 -0.202633 2.00479 0
M  V30 2098 O 192.825 -0.905382 2.3571 0
M  V30 2099 C 194.138 2.30273 1.93378 0
M  V30 2100 C 195.686 2.35412 2.06277 0
M  V30 2101 C 196.161 3.59692 2.83524 0
M  V30 2102 N 197.652 3.60309 2.91087 0
M  V30 2103 C 198.387 4.53147 3.51348 0
M  V30 2104 N 197.883 5.563 4.12919 0
M  V30 2105 N 199.676 4.40751 3.48849 0
M  V30 2106 H 191.827 2.09024 0.377184 0
M  V30 2107 H 194.09 0.919798 0.22951 0
M  V30 2108 H 193.796 3.22055 1.41328 0
M  V30 2109 H 193.67 2.36378 2.93947 0
M  V30 2110 H 196.057 1.4413 2.57508 0
M  V30 2111 H 196.138 2.33304 1.04895 0
M  V30 2112 H 195.782 4.51316 2.32973 0
M  V30 2113 H 195.712 3.59054 3.85211 0
M  V30 2114 H 198.203 2.85714 2.47338 0
M  V30 2115 H 198.516 6.2329 4.56869 0
M  V30 2116 H 196.861 5.60131 4.11435 0
M  V30 2117 H 200.052 3.59367 2.99955 0
M  V30 2118 H 200.225 5.13291 3.9552 0
M  V30 2119 N 193.631 -1.12557 1.10312 0
M  V30 2120 C 194.564 -2.1737 0.694674 0
M  V30 2121 C 195.542 -1.59745 -0.303373 0
M  V30 2122 O 196.726 -1.87408 -0.202578 0
M  V30 2123 C 193.853 -3.38691 0.0248052 0
M  V30 2124 C 192.899 -4.14943 0.986121 0
M  V30 2125 S 193.732 -4.73413 2.50281 0
M  V30 2126 C 194.888 -5.9807 1.84562 0
M  V30 2127 H 195.121 -2.5168 1.58255 0
M  V30 2128 H 192.654 -1.23998 0.919992 0
M  V30 2129 H 194.612 -4.08959 -0.355361 0
M  V30 2130 H 193.273 -3.02664 -0.839851 0
M  V30 2131 H 192.466 -5.01854 0.464651 0
M  V30 2132 H 192.068 -3.50377 1.30813 0
M  V30 2133 H 194.36 -6.67232 1.17507 0
M  V30 2134 H 195.303 -6.54841 2.69423 0
M  V30 2135 H 195.711 -5.49073 1.31069 0
M  V30 2136 N 195.109 -0.891671 -1.2995 0
M  V30 2137 C 196.355 -0.523649 -1.96544 0
M  V30 2138 C 196.71 0.918394 -1.69066 0
M  V30 2139 O 196.003 1.64122 -0.988659 0
M  V30 2140 C 196.197 -0.742868 -3.49594 0
M  V30 2141 C 196.026 -2.20467 -3.9195 0
M  V30 2142 C 194.796 -2.85055 -4.17219 0
M  V30 2143 C 196.994 -3.17912 -4.04273 0
M  V30 2144 N 194.976 -4.21762 -4.46083 0
M  V30 2145 C 196.347 -4.39712 -4.37097 0
M  V30 2146 C 198.402 -3.1361 -3.86721 0
M  V30 2147 C 197.105 -5.5776 -4.54199 0
M  V30 2148 C 199.131 -4.30936 -4.05028 0
M  V30 2149 C 198.493 -5.51504 -4.38204 0
M  V30 2150 H 194.592 -0.241072 -0.743914 0
M  V30 2151 H 197.176 -1.15081 -1.5705 0
M  V30 2152 H 195.347 -0.14515 -3.88129 0
M  V30 2153 H 197.079 -0.341081 -4.0326 0
M  V30 2154 H 193.834 -2.35889 -4.10674 0
M  V30 2155 H 194.258 -4.92382 -4.64638 0
M  V30 2156 H 198.9 -2.21489 -3.60142 0
M  V30 2157 H 196.618 -6.50379 -4.79618 0
M  V30 2158 H 200.204 -4.29085 -3.92909 0
M  V30 2159 H 199.084 -6.40778 -4.52077 0
M  V30 2160 N 196.587 1.43421 -0.653314 0
M  V30 2161 C 197.517 2.33487 0.0246656 0
M  V30 2162 C 198.498 1.49475 0.811863 0
M  V30 2163 O 199.683 1.78139 0.773322 0
M  V30 2164 C 196.813 3.32841 0.99166 0
M  V30 2165 C 195.767 4.26842 0.314568 0
M  V30 2166 C 195.093 5.16236 1.39302 0
M  V30 2167 C 196.393 5.16243 -0.793095 0
M  V30 2168 H 198.087 2.90427 -0.727481 0
M  V30 2169 H 195.633 1.39649 -0.351287 0
M  V30 2170 H 197.586 3.94747 1.47487 0
M  V30 2171 H 196.31 2.74158 1.77497 0
M  V30 2172 H 194.969 3.663 -0.148199 0
M  V30 2173 H 194.617 4.53891 2.16776 0
M  V30 2174 H 194.317 5.79948 0.945223 0
M  V30 2175 H 195.841 5.81015 1.87759 0
M  V30 2176 H 197.255 5.71958 -0.392039 0
M  V30 2177 H 195.652 5.88676 -1.16536 0
M  V30 2178 H 196.722 4.55927 -1.65103 0
M  V30 2179 N 198.065 0.39524 1.52563 0
M  V30 2180 C 199.028 -0.425001 2.25225 0
M  V30 2181 C 200.028 -0.985266 1.27079 0
M  V30 2182 O 201.218 -0.866332 1.5113 0
M  V30 2183 C 198.35 -1.59686 3.01186 0
M  V30 2184 H 199.543 0.211233 2.99155 0
M  V30 2185 H 197.096 0.147472 1.55603 0
M  V30 2186 H 197.831 -2.27035 2.31572 0
M  V30 2187 H 197.616 -1.20176 3.73229 0
M  V30 2188 H 199.106 -2.17743 3.5634 0
M  V30 2189 N 199.544 -1.57102 0.125237 0
M  V30 2190 C 200.474 -2.18659 -0.819174 0
M  V30 2191 C 201.455 -1.12843 -1.27281 0
M  V30 2192 O 202.64 -1.41104 -1.33429 0
M  V30 2193 C 199.77 -2.79096 -2.06695 0
M  V30 2194 C 198.724 -3.90548 -1.75088 0
M  V30 2195 C 198.05 -4.37821 -3.06948 0
M  V30 2196 C 199.35 -5.12356 -1.01435 0
M  V30 2197 H 201.044 -2.9783 -0.306202 0
M  V30 2198 H 198.59 -1.4326 -0.145839 0
M  V30 2199 H 200.543 -3.2082 -2.73226 0
M  V30 2200 H 199.267 -1.97223 -2.60328 0
M  V30 2201 H 197.926 -3.49409 -1.10944 0
M  V30 2202 H 197.574 -3.52799 -3.58527 0
M  V30 2203 H 197.274 -5.12982 -2.86571 0
M  V30 2204 H 198.798 -4.822 -3.74587 0
M  V30 2205 H 200.212 -5.5106 -1.58132 0
M  V30 2206 H 198.609 -5.9314 -0.911319 0
M  V30 2207 H 199.679 -4.849 -0.00218681 0
M  V30 2208 N 201.022 0.148545 -1.56898 0
M  V30 2209 C 202.268 0.862694 -1.83536 0
M  V30 2210 C 202.601 1.80889 -0.706604 0
M  V30 2211 O 201.876 1.92328 0.289885 0
M  V30 2212 C 202.159 1.63853 -3.20662 0
M  V30 2213 C 202.012 0.713925 -4.44098 0
M  V30 2214 C 203.331 2.60133 -3.54991 0
M  V30 2215 H 200.45 0.312179 -0.667618 0
M  V30 2216 H 203.092 0.127953 -1.89569 0
M  V30 2217 H 201.242 2.26489 -3.1565 0
M  V30 2218 H 202.914 0.098686 -4.61194 0
M  V30 2219 H 201.157 0.0234019 -4.33794 0
M  V30 2220 H 201.828 1.29278 -5.36648 0
M  V30 2221 H 204.304 2.07616 -3.60603 0
M  V30 2222 H 203.18 3.11468 -4.51972 0
M  V30 2223 H 203.441 3.41417 -2.80868 0
M  V30 2224 N 202.5 1.5196 0.417844 0
M  V30 2225 C 203.748 1.65263 1.16329 0
M  V30 2226 C 204.069 0.380634 1.91249 0
M  V30 2227 O 203.339 -0.604214 1.86349 0
M  V30 2228 H 201.919 0.60912 0.432414 0
M  V30 2229 H 204.581 1.88969 0.477162 0
M  V30 2230 H 203.677 2.4896 1.88217 0
M  V30 2231 N 203.978 -0.674533 1.42435 0
M  V30 2232 C 204.888 -1.81751 1.48337 0
M  V30 2233 C 205.904 -1.69975 0.372099 0
M  V30 2234 O 207.08 -1.91521 0.62304 0
M  V30 2235 C 204.145 -3.17895 1.38361 0
M  V30 2236 C 203.206 -3.41625 2.59982 0
M  V30 2237 C 202.439 -4.71274 2.50473 0
M  V30 2238 O 202.662 -5.49197 1.54075 0
M  V30 2239 O 201.596 -4.96254 3.4061 0
M  V30 2240 H 205.422 -1.79728 2.44809 0
M  V30 2241 H 203.007 -0.830312 1.24202 0
M  V30 2242 H 204.889 -3.99136 1.35161 0
M  V30 2243 H 203.564 -3.20555 0.450144 0
M  V30 2244 H 202.471 -2.60231 2.68757 0
M  V30 2245 H 203.804 -3.43796 3.52229 0
M  V30 2246 N 205.456 -1.28612 -0.910864 0
M  V30 2247 C 206.686 -1.1862 -1.69153 0
M  V30 2248 C 207.094 0.257324 -1.87442 0
M  V30 2249 O 206.437 1.18543 -1.40332 0
M  V30 2250 C 206.499 -1.81606 -3.10257 0
M  V30 2251 C 206.163 -3.30864 -3.15243 0
M  V30 2252 C 207.16 -4.27256 -2.96223 0
M  V30 2253 C 204.845 -3.71871 -3.37664 0
M  V30 2254 C 206.839 -5.62631 -2.99541 0
M  V30 2255 C 204.526 -5.07371 -3.40614 0
M  V30 2256 C 205.524 -6.02561 -3.21573 0
M  V30 2257 O 205.212 -7.35589 -3.2429 0
M  V30 2258 H 204.944 -0.412633 -0.535453 0
M  V30 2259 H 207.498 -1.70306 -1.14827 0
M  V30 2260 H 205.728 -1.24418 -3.66138 0
M  V30 2261 H 207.417 -1.66092 -3.70362 0
M  V30 2262 H 208.183 -3.9691 -2.78725 0
M  V30 2263 H 204.062 -2.98241 -3.5153 0
M  V30 2264 H 207.606 -6.36907 -2.84597 0
M  V30 2265 H 203.503 -5.37366 -3.57642 0
M  V30 2266 H 204.271 -7.44252 -3.40633 0
M  V30 2267 N 206.934 1.1197 -1.10907 0
M  V30 2268 C 208.345 1.65114 -0.871446 0
M  V30 2269 C 208.696 1.86885 0.597353 0
M  V30 2270 O 207.821 1.59896 1.45816 0
M  V30 2271 C 208.416 2.99944 -1.5754 0
M  V30 2272 C 206.975 3.50018 -1.38435 0
M  V30 2273 C 206.122 2.24941 -1.62164 0
M  V30 2274 H 209.073 0.956851 -1.2661 0
M  V30 2275 H 209.094 3.66651 -1.01721 0
M  V30 2276 H 208.606 2.84067 -2.64438 0
M  V30 2277 H 206.707 3.71071 -0.337214 0
M  V30 2278 H 206.82 4.29165 -2.12965 0
M  V30 2279 H 205.184 2.3229 -1.04467 0
M  V30 2280 H 205.967 2.11612 -2.70324 0
M  V30 2281 N 208.412 0.89855 1.29475 0
M  V30 2282 C 209.658 0.534065 1.96263 0
M  V30 2283 C 210.013 -0.909415 1.69551 0
M  V30 2284 O 209.306 -1.63596 0.997349 0
M  V30 2285 C 209.5 0.761398 3.49195 0
M  V30 2286 C 209.329 2.22542 3.90775 0
M  V30 2287 C 208.099 2.87264 4.15701 0
M  V30 2288 C 210.297 3.20051 4.02581 0
M  V30 2289 N 208.279 4.24121 4.4384 0
M  V30 2290 C 209.65 4.42023 4.34759 0
M  V30 2291 C 211.705 3.15657 3.85052 0
M  V30 2292 C 210.408 5.60161 4.51235 0
M  V30 2293 C 212.434 4.33078 4.02737 0
M  V30 2294 C 211.796 5.5382 4.35273 0
M  V30 2295 H 207.895 0.245013 0.742625 0
M  V30 2296 H 210.479 1.15912 1.56437 0
M  V30 2297 H 208.65 0.165732 3.88046 0
M  V30 2298 H 210.382 0.362462 4.03074 0
M  V30 2299 H 207.137 2.38064 4.09417 0
M  V30 2300 H 207.561 4.94839 4.6202 0
M  V30 2301 H 212.203 2.23396 3.58962 0
M  V30 2302 H 209.921 6.52913 4.76162 0
M  V30 2303 H 213.507 4.31163 3.90628 0
M  V30 2304 H 212.387 6.43166 4.48672 0
M  V30 2305 N 209.89 -1.43072 0.660911 0
M  V30 2306 C 210.8 -2.34585 -0.0264163 0
M  V30 2307 C 211.816 -1.54316 -0.803898 0
M  V30 2308 O 212.992 -1.86939 -0.749391 0
M  V30 2309 C 210.057 -3.32689 -0.975639 0
M  V30 2310 C 209.118 -4.2886 -0.194236 0
M  V30 2311 C 208.351 -5.22278 -1.09825 0
M  V30 2312 O 208.574 -5.20299 -2.33763 0
M  V30 2313 O 207.508 -5.99228 -0.566513 0
M  V30 2314 H 211.334 -2.94869 0.727034 0
M  V30 2315 H 208.919 -1.43342 0.42111 0
M  V30 2316 H 210.801 -3.92995 -1.52094 0
M  V30 2317 H 209.476 -2.74898 -1.70918 0
M  V30 2318 H 208.383 -3.72011 0.394835 0
M  V30 2319 H 209.716 -4.89655 0.499899 0
M  V30 2320 N 211.368 -0.403325 -1.52352 0
M  V30 2321 C 212.315 0.425011 -2.26853 0
M  V30 2322 C 213.285 1.04598 -1.29029 0
M  V30 2323 O 214.47 1.07135 -1.57882 0
M  V30 2324 C 211.61 1.53888 -3.08889 0
M  V30 2325 C 210.723 0.939396 -4.21663 0
M  V30 2326 C 209.858 2.02547 -4.91068 0
M  V30 2327 C 208.897 1.40263 -5.95813 0
M  V30 2328 N 208.034 2.4286 -6.58759 0
M  V30 2329 H 212.874 -0.21674 -2.97211 0
M  V30 2330 H 210.411 -0.118722 -1.4662 0
M  V30 2331 H 212.369 2.19558 -3.54753 0
M  V30 2332 H 210.999 2.15074 -2.40714 0
M  V30 2333 H 210.051 0.171898 -3.80011 0
M  V30 2334 H 211.363 0.44436 -4.96817 0
M  V30 2335 H 210.517 2.75958 -5.40308 0
M  V30 2336 H 209.256 2.55415 -4.15469 0
M  V30 2337 H 208.261 0.653833 -5.45898 0
M  V30 2338 H 209.486 0.881719 -6.73352 0
M  V30 2339 H 207.432 2.94871 -5.85992 0
M  V30 2340 H 207.349 1.98152 -7.2957 0
M  V30 2341 H 208.617 3.15858 -7.12639 0
M  V30 2342 N 212.846 1.57033 -0.133567 0
M  V30 2343 C 214.092 1.95976 0.521649 0
M  V30 2344 C 214.425 1.01779 1.65393 0
M  V30 2345 O 213.7 0.0576581 1.94415 0
M  V30 2346 C 213.983 3.44738 1.04057 0
M  V30 2347 C 213.836 4.49711 -0.0892897 0
M  V30 2348 C 215.155 3.95682 1.92675 0
M  V30 2349 H 212.274 0.712579 0.188149 0
M  V30 2350 H 214.916 1.88813 -0.212076 0
M  V30 2351 H 213.066 3.50973 1.66583 0
M  V30 2352 H 214.738 4.55565 -0.725152 0
M  V30 2353 H 212.981 4.27261 -0.750378 0
M  V30 2354 H 213.652 5.51099 0.315284 0
M  V30 2355 H 216.128 3.91841 1.39998 0
M  V30 2356 H 215.004 5.00262 2.25897 0
M  V30 2357 H 215.265 3.37239 2.85872 0
M  V30 2358 N 214.325 -0.140222 1.56975 0
M  V30 2359 C 215.736 -0.699596 1.73097 0
M  V30 2360 C 216.087 -1.8134 0.749022 0
M  V30 2361 O 215.212 -2.16241 -0.0828503 0
M  V30 2362 C 215.807 -1.27582 3.1386 0
M  V30 2363 C 214.366 -1.78169 3.31561 0
M  V30 2364 C 213.513 -0.672855 2.69013 0
M  V30 2365 H 216.464 0.0855115 1.58469 0
M  V30 2366 H 216.485 -2.14561 3.14235 0
M  V30 2367 H 215.997 -0.464955 3.85305 0
M  V30 2368 H 214.098 -2.61801 2.65124 0
M  V30 2369 H 214.211 -1.90574 4.39566 0
M  V30 2370 H 212.575 -1.10118 2.29665 0
M  V30 2371 H 213.358 0.126679 3.43066 0
M  V30 2372 N 215.803 -1.52179 -0.40978 0
M  V30 2373 C 216.736 -1.70196 -1.52015 0
M  V30 2374 C 217.714 -0.549542 -1.53032 0
M  V30 2375 O 218.898 -0.776815 -1.71749 0
M  V30 2376 C 216.025 -1.74069 -2.90547 0
M  V30 2377 C 215.071 -2.95601 -3.07445 0
M  V30 2378 S 215.904 -4.55956 -2.80827 0
M  V30 2379 C 217.06 -4.62614 -4.21591 0
M  V30 2380 H 217.293 -2.64109 -1.36504 0
M  V30 2381 H 214.826 -1.4221 -0.601312 0
M  V30 2382 H 216.784 -1.76985 -3.70387 0
M  V30 2383 H 215.445 -0.812835 -3.034 0
M  V30 2384 H 214.638 -2.94791 -4.08796 0
M  V30 2385 H 214.24 -2.90569 -2.35469 0
M  V30 2386 H 216.532 -4.39951 -5.15218 0
M  V30 2387 H 217.475 -5.64548 -4.27424 0
M  V30 2388 H 217.883 -3.91654 -4.06531 0
M  V30 2389 N 217.281 0.66697 -1.42791 0
M  V30 2390 C 218.527 1.4291 -1.43891 0
M  V30 2391 C 218.86 1.94114 -0.0578972 0
M  V30 2392 O 218.135 1.71414 0.91911 0
M  V30 2393 C 218.418 2.62049 -2.46987 0
M  V30 2394 C 218.271 2.16426 -3.94309 0
M  V30 2395 C 219.59 3.64266 -2.46978 0
M  V30 2396 H 216.709 0.518306 -0.523954 0
M  V30 2397 H 219.351 0.757321 -1.74255 0
M  V30 2398 H 217.501 3.19361 -2.21225 0
M  V30 2399 H 219.173 1.64221 -4.31079 0
M  V30 2400 H 217.416 1.47925 -4.078 0
M  V30 2401 H 218.087 3.02038 -4.62036 0
M  V30 2402 H 220.563 3.16686 -2.69906 0
M  V30 2403 H 219.439 4.45196 -3.21079 0
M  V30 2404 H 219.7 4.15927 -1.49857 0
M  V30 2405 N 218.759 1.29093 0.90403 0
M  V30 2406 C 220.17 1.15186 1.46932 0
M  V30 2407 C 220.521 -0.254587 1.94541 0
M  V30 2408 O 219.646 -1.14972 1.83332 0
M  V30 2409 C 220.241 2.08492 2.67051 0
M  V30 2410 C 218.8 1.98621 3.19729 0
M  V30 2411 C 217.947 1.9967 1.92425 0
M  V30 2412 H 220.898 1.41641 0.715789 0
M  V30 2413 H 220.919 1.65461 3.42641 0
M  V30 2414 H 220.431 3.10847 2.3237 0
M  V30 2415 H 218.532 0.993389 3.59114 0
M  V30 2416 H 218.645 2.86068 3.8432 0
M  V30 2417 H 217.009 1.44208 2.09943 0
M  V30 2418 H 217.792 3.03721 1.60026 0
M  V30 2419 N 220.237 -1.11381 1.11499 0
M  V30 2420 C 221.648 -1.6465 0.880191 0
M  V30 2421 C 221.999 -1.87199 -0.587434 0
M  V30 2422 O 221.124 -1.60667 -1.44966 0
M  V30 2423 C 221.719 -2.99105 1.59128 0
M  V30 2424 C 220.278 -3.49279 1.40289 0
M  V30 2425 C 219.425 -2.24077 1.63354 0
M  V30 2426 H 222.376 -0.950123 1.27116 0
M  V30 2427 H 222.397 -3.66107 1.03664 0
M  V30 2428 H 221.909 -2.82661 2.65941 0
M  V30 2429 H 220.01 -3.70887 0.356888 0
M  V30 2430 H 220.123 -4.2803 2.15238 0
M  V30 2431 H 218.487 -2.31733 1.05698 0
M  V30 2432 H 219.27 -2.10175 2.71443 0
M  V30 2433 N 221.715 -0.905404 -1.28997 0
M  V30 2434 C 222.625 -0.392246 -2.31298 0
M  V30 2435 C 223.641 0.515889 -1.66176 0
M  V30 2436 O 224.817 0.404093 -1.97304 0
M  V30 2437 C 221.882 0.36686 -3.44754 0
M  V30 2438 C 220.943 -0.573485 -4.25452 0
M  V30 2439 C 220.176 0.149488 -5.33491 0
M  V30 2440 O 220.399 1.37255 -5.5364 0
M  V30 2441 O 219.333 -0.510919 -5.99728 0
M  V30 2442 H 223.159 -1.2411 -2.77183 0
M  V30 2443 H 220.744 -0.669926 -1.33538 0
M  V30 2444 H 222.626 0.795907 -4.13816 0
M  V30 2445 H 221.301 1.19169 -3.00966 0
M  V30 2446 H 220.208 -1.05176 -3.59011 0
M  V30 2447 H 221.541 -1.36489 -4.72897 0
M  V30 2448 N 223.193 1.4272 -0.668489 0
M  V30 2449 C 224.442 2.00846 -0.185389 0
M  V30 2450 C 224.755 1.53442 1.21305 0
M  V30 2451 O 225.961 2.03944 1.79218 0
M  V30 2452 C 224.417 3.58805 -0.280591 0
M  V30 2453 C 224.025 4.15198 -1.68268 0
M  V30 2454 C 225.769 4.24255 0.14412 0
M  V30 2455 C 223.676 5.655 -1.73099 0
M  V30 2456 H 222.606 0.751145 -0.0655475 0
M  V30 2457 H 225.257 1.63516 -0.832752 0
M  V30 2458 H 223.639 3.93608 0.434553 0
M  V30 2459 H 224.813 3.91866 -2.42441 0
M  V30 2460 H 223.128 3.62176 -2.05469 0
M  V30 2461 H 225.725 5.34547 0.128086 0
M  V30 2462 H 226.068 3.99277 1.17827 0
M  V30 2463 H 226.601 3.94389 -0.519798 0
M  V30 2464 H 223.34 5.95268 -2.74475 0
M  V30 2465 H 222.86 5.90842 -1.03274 0
M  V30 2466 H 224.539 6.29808 -1.48158 0
M  V30 2467 N 224.671 0.411399 1.52136 0
M  V30 2468 C 225.604 -0.457614 2.23565 0
M  V30 2469 C 226.582 -1.04613 1.24478 0
M  V30 2470 O 227.766 -1.09356 1.53536 0
M  V30 2471 C 224.893 -1.6354 2.96602 0
M  V30 2472 C 223.939 -1.17005 4.10137 0
M  V30 2473 S 224.772 -0.13333 5.35334 0
M  V30 2474 C 225.928 -1.31638 6.119 0
M  V30 2475 H 226.161 0.148883 2.96927 0
M  V30 2476 H 223.694 0.195713 1.53155 0
M  V30 2477 H 225.652 -2.31074 3.39286 0
M  V30 2478 H 224.313 -2.21324 2.22878 0
M  V30 2479 H 223.506 -2.05005 4.60422 0
M  V30 2480 H 223.108 -0.573319 3.6958 0
M  V30 2481 H 225.4 -2.23957 6.39413 0
M  V30 2482 H 226.343 -0.854014 7.02931 0
M  V30 2483 H 226.751 -1.54321 5.42997 0
M  V30 2484 N 226.149 -1.5696 0.141893 0
M  V30 2485 C 227.396 -1.9596 -0.510492 0
M  V30 2486 C 227.724 -1.02648 -1.65208 0
M  V30 2487 O 226.979 -0.0546947 -1.95624 0
M  V30 2488 C 227.278 -3.41242 -1.06249 0
M  V30 2489 C 226.944 -4.50882 -0.0398791 0
M  V30 2490 C 225.606 -4.80595 0.241247 0
M  V30 2491 C 227.958 -5.17058 0.65578 0
M  V30 2492 C 225.286 -5.73792 1.22393 0
M  V30 2493 C 227.638 -6.11313 1.62724 0
M  V30 2494 C 226.302 -6.39407 1.91612 0
M  V30 2495 H 225.572 -0.717068 -0.186802 0
M  V30 2496 H 228.219 -1.90142 0.227643 0
M  V30 2497 H 226.524 -3.43866 -1.87785 0
M  V30 2498 H 228.221 -3.68742 -1.57576 0
M  V30 2499 H 224.811 -4.27754 -0.269174 0
M  V30 2500 H 228.995 -4.94239 0.451779 0
M  V30 2501 H 224.251 -5.93853 1.45424 0
M  V30 2502 H 228.425 -6.61668 2.17183 0
M  V30 2503 H 226.052 -7.11427 2.6791 0
M  V30 2504 N 227.627 0.131896 -1.57047 0
M  V30 2505 C 228.557 1.16384 -2.02428 0
M  V30 2506 C 229.538 1.43936 -0.90644 0
M  V30 2507 O 230.723 1.54599 -1.17528 0
M  V30 2508 C 227.853 2.49328 -2.4177 0
M  V30 2509 C 226.807 2.36266 -3.56879 0
M  V30 2510 C 226.133 3.74057 -3.8208 0
M  V30 2511 C 227.433 1.834 -4.89042 0
M  V30 2512 H 229.127 0.786433 -2.88887 0
M  V30 2513 H 226.673 0.376855 -1.38981 0
M  V30 2514 H 228.626 3.21759 -2.7212 0
M  V30 2515 H 227.35 2.88934 -1.52266 0
M  V30 2516 H 226.009 1.66286 -3.26718 0
M  V30 2517 H 225.657 4.11125 -2.89803 0
M  V30 2518 H 225.357 3.66174 -4.59554 0
M  V30 2519 H 226.881 4.48012 -4.1487 0
M  V30 2520 H 228.295 2.45636 -5.18011 0
M  V30 2521 H 226.692 1.8637 -5.70426 0
M  V30 2522 H 227.762 0.790662 -4.7841 0
M  V30 2523 N 229.106 1.52395 0.401703 0
M  V30 2524 C 230.354 1.66488 1.14569 0
M  V30 2525 C 230.675 0.400897 1.90835 0
M  V30 2526 O 229.945 -0.584415 1.8698 0
M  V30 2527 H 228.525 0.613672 0.425929 0
M  V30 2528 H 231.187 1.89464 0.457093 0
M  V30 2529 H 230.283 2.50942 1.85566 0
M  V30 2530 N 230.584 -0.659388 1.43143 0
M  V30 2531 C 231.531 -1.77249 1.47822 0
M  V30 2532 C 232.501 -1.62818 0.328558 0
M  V30 2533 O 233.686 -1.83151 0.534838 0
M  V30 2534 C 230.826 -3.15371 1.40126 0
M  V30 2535 C 229.939 -3.4098 2.65249 0
M  V30 2536 C 229.074 -4.68915 2.49584 0
M  V30 2537 C 228.113 -4.87608 3.70006 0
M  V30 2538 N 227.25 -6.06796 3.53189 0
M  V30 2539 H 232.09 -1.72584 2.42938 0
M  V30 2540 H 229.627 -0.842297 1.20598 0
M  V30 2541 H 231.585 -3.9521 1.33659 0
M  V30 2542 H 230.215 -3.19121 0.485964 0
M  V30 2543 H 229.267 -2.55282 2.8202 0
M  V30 2544 H 230.579 -3.50681 3.54717 0
M  V30 2545 H 229.733 -5.56871 2.4079 0
M  V30 2546 H 228.472 -4.61524 1.5763 0
M  V30 2547 H 227.477 -3.9809 3.79215 0
M  V30 2548 H 228.702 -4.96834 4.62961 0
M  V30 2549 H 226.648 -6.00549 2.63965 0
M  V30 2550 H 226.565 -6.17428 4.36255 0
M  V30 2551 H 227.833 -6.9739 3.48236 0
M  V30 2552 N 232.062 -1.29571 -0.897171 0
M  V30 2553 C 233.478 -1.07637 -1.17841 0
M  V30 2554 C 233.678 0.170713 -2.00776 0
M  V30 2555 O 232.734 0.867768 -2.3712 0
M  V30 2556 C 234.047 -2.3332 -1.8969 0
M  V30 2557 C 235.595 -2.38664 -2.02505 0
M  V30 2558 C 236.07 -3.64157 -2.77765 0
M  V30 2559 N 237.561 -3.64894 -2.85318 0
M  V30 2560 C 238.296 -4.58679 -3.44094 0
M  V30 2561 N 237.792 -5.62799 -4.04017 0
M  V30 2562 N 239.585 -4.46245 -3.41793 0
M  V30 2563 H 231.736 -2.09598 -0.343883 0
M  V30 2564 H 233.999 -0.923333 -0.214848 0
M  V30 2565 H 233.705 -3.24262 -1.36187 0
M  V30 2566 H 233.579 -2.41025 -2.9015 0
M  V30 2567 H 235.966 -1.48208 -2.55183 0
M  V30 2568 H 236.047 -2.34943 -1.01171 0
M  V30 2569 H 235.691 -4.54965 -2.25763 0
M  V30 2570 H 235.621 -3.65137 -3.7945 0
M  V30 2571 H 238.112 -2.89613 -2.42761 0
M  V30 2572 H 238.425 -6.3048 -4.46895 0
M  V30 2573 H 236.77 -5.66605 -4.02472 0
M  V30 2574 H 239.961 -3.64094 -2.94199 0
M  V30 2575 H 240.134 -5.19518 -3.87304 0
M  V30 2576 N 233.54 1.10788 -1.12088 0
M  V30 2577 C 234.473 2.16237 -0.729168 0
M  V30 2578 C 235.451 1.60207 0.277921 0
M  V30 2579 O 236.635 1.87707 0.172737 0
M  V30 2580 C 233.762 3.38609 -0.0786848 0
M  V30 2581 C 232.808 4.13322 -1.05201 0
M  V30 2582 S 233.641 4.69371 -2.57781 0
M  V30 2583 C 234.797 5.95058 -1.94053 0
M  V30 2584 H 235.03 2.4913 -1.62239 0
M  V30 2585 H 232.563 1.22519 -0.939603 0
M  V30 2586 H 234.521 4.09473 0.290254 0
M  V30 2587 H 233.182 3.03962 0.791593 0
M  V30 2588 H 232.375 5.01051 -0.544433 0
M  V30 2589 H 231.977 3.48251 -1.36371 0
M  V30 2590 H 234.269 6.65278 -1.28107 0
M  V30 2591 H 235.212 6.50472 -2.79807 0
M  V30 2592 H 235.62 5.46918 -1.39787 0
M  V30 2593 N 235.018 0.912232 1.28515 0
M  V30 2594 C 236.429 0.591352 1.77087 0
M  V30 2595 C 236.78 -0.8933 1.74684 0
M  V30 2596 O 235.905 -1.69876 1.34056 0
M  V30 2597 C 236.5 1.06668 3.2157 0
M  V30 2598 C 235.059 0.79675 3.67871 0
M  V30 2599 C 234.206 1.23427 2.48316 0
M  V30 2600 H 237.157 1.09365 1.15 0
M  V30 2601 H 237.178 0.407455 3.78312 0
M  V30 2602 H 236.69 2.14726 3.23287 0
M  V30 2603 H 234.791 -0.270679 3.71616 0
M  V30 2604 H 234.904 1.40343 4.58084 0
M  V30 2605 H 233.268 0.653036 2.46186 0
M  V30 2606 H 234.051 2.32316 2.52753 0
M  V30 2607 N 236.496 -1.42363 0.676048 0
M  V30 2608 C 237.426 -2.33497 0.0124832 0
M  V30 2609 C 238.407 -1.50748 -0.787981 0
M  V30 2610 O 239.592 -1.79346 -0.744884 0
M  V30 2611 C 236.722 -3.34377 -0.938582 0
M  V30 2612 C 235.676 -4.27289 -0.246622 0
M  V30 2613 C 235.002 -5.18386 -1.31071 0
M  V30 2614 C 236.302 -5.14916 0.875125 0
M  V30 2615 H 237.996 -2.89233 0.773593 0
M  V30 2616 H 235.542 -1.39073 0.37346 0
M  V30 2617 H 237.495 -3.97044 -1.41188 0
M  V30 2618 H 236.219 -2.76947 -1.73113 0
M  V30 2619 H 234.878 -3.66018 0.206456 0
M  V30 2620 H 234.526 -4.57282 -2.09528 0
M  V30 2621 H 234.226 -5.81378 -0.852839 0
M  V30 2622 H 235.75 -5.83929 -1.78492 0
M  V30 2623 H 237.164 -5.71262 0.482983 0
M  V30 2624 H 235.561 -5.86747 1.25887 0
M  V30 2625 H 236.631 -4.53242 1.72335 0
M  V30 2626 N 237.974 -0.419461 -1.51915 0
M  V30 2627 C 238.922 0.415502 -2.28859 0
M  V30 2628 C 239.916 1.03674 -1.3397 0
M  V30 2629 O 241.122 0.973757 -1.51387 0
M  V30 2630 H 237.497 0.152786 -0.736315 0
M  V30 2631 H 239.468 -0.254531 -2.97312 0
M  V30 2632 C 238.217 1.51425 -3.12995 0
M  V30 2633 H 237.54 1.04556 -3.85886 0
M  V30 2634 H 238.98 2.07208 -3.6992 0
M  V30 2635 C 237.439 2.48745 -2.27217 0
M  V30 2636 O 237.969 3.52871 -1.9195 0
M  V30 2637 N 236.175 2.19202 -1.90785 0
M  V30 2638 H 235.722 1.34556 -2.19664 0
M  V30 2639 H 235.68 2.84561 -1.33687 0
M  V30 2640 N 239.452 1.56882 -0.150215 0
M  V30 2641 C 240.701 1.95403 0.500071 0
M  V30 2642 C 241.014 1.03777 1.658 0
M  V30 2643 O 242.22 1.31889 2.37313 0
M  V30 2644 C 240.676 3.4738 0.941018 0
M  V30 2645 C 240.284 4.47596 -0.190158 0
M  V30 2646 C 242.028 3.9476 1.56091 0
M  V30 2647 C 239.935 5.90787 0.269237 0
M  V30 2648 H 238.865 0.729515 0.190588 0
M  V30 2649 H 241.516 1.81988 -0.235074 0
M  V30 2650 H 239.898 3.56138 1.73152 0
M  V30 2651 H 241.072 4.50536 -0.967157 0
M  V30 2652 H 239.387 4.10151 -0.718666 0
M  V30 2653 H 241.984 4.99181 1.9163 0
M  V30 2654 H 242.327 3.36494 2.45107 0
M  V30 2655 H 242.86 3.88932 0.835249 0
M  V30 2656 H 239.599 6.52879 -0.585621 0
M  V30 2657 H 239.119 5.912 1.01204 0
M  V30 2658 H 240.798 6.42979 0.720176 0
M  V30 2659 N 240.93 -0.123565 1.57115 0
M  V30 2660 C 242.16 -0.845233 1.88519 0
M  V30 2661 C 242.568 -1.74168 0.739064 0
M  V30 2662 O 241.911 -1.81244 -0.299355 0
M  V30 2663 C 241.973 -1.73452 3.14888 0
M  V30 2664 C 241.637 -1.01285 4.45635 0
M  V30 2665 C 242.634 -0.355774 5.18681 0
M  V30 2666 C 240.319 -0.99538 4.92339 0
M  V30 2667 C 242.313 0.309114 6.3665 0
M  V30 2668 C 240 -0.32669 6.10226 0
M  V30 2669 C 240.998 0.324406 6.82229 0
M  V30 2670 O 240.686 0.982437 7.97874 0
M  V30 2671 H 240.418 -0.248534 0.628655 0
M  V30 2672 H 242.972 -0.113907 2.05084 0
M  V30 2673 H 241.202 -2.50737 2.94394 0
M  V30 2674 H 242.891 -2.33021 3.32349 0
M  V30 2675 H 243.657 -0.360918 4.83655 0
M  V30 2676 H 239.536 -1.49159 4.36202 0
M  V30 2677 H 243.08 0.8179 6.92789 0
M  V30 2678 H 238.977 -0.319294 6.4471 0
M  V30 2679 H 239.745 0.886454 8.13686 0
M  V30 2680 N 242.408 -1.52605 -0.393616 0
M  V30 2681 C 243.318 -1.79971 -1.50492 0
M  V30 2682 C 244.334 -0.686181 -1.59899 0
M  V30 2683 O 245.51 -0.973274 -1.76322 0
M  V30 2684 C 242.575 -1.95867 -2.86072 0
M  V30 2685 C 241.636 -3.19781 -2.86424 0
M  V30 2686 C 240.869 -3.34909 -4.15538 0
M  V30 2687 O 241.092 -2.54948 -5.10253 0
M  V30 2688 O 240.026 -4.28141 -4.23059 0
M  V30 2689 H 243.852 -2.74328 -1.30299 0
M  V30 2690 H 241.437 -1.3764 -0.581005 0
M  V30 2691 H 243.319 -2.08056 -3.66457 0
M  V30 2692 H 241.994 -1.04699 -3.063 0
M  V30 2693 H 240.901 -3.13038 -2.04837 0
M  V30 2694 H 242.234 -4.1078 -2.71147 0
M  V30 2695 N 243.887 0.651787 -1.4349 0
M  V30 2696 C 245.134 1.41167 -1.45183 0
M  V30 2697 C 245.462 1.94349 -0.0766601 0
M  V30 2698 O 244.717 1.72804 0.918555 0
M  V30 2699 C 245.016 2.60914 -2.44251 0
M  V30 2700 C 244.682 2.26142 -3.9009 0
M  V30 2701 C 243.344 2.16371 -4.2981 0
M  V30 2702 C 245.696 1.98334 -4.81989 0
M  V30 2703 C 243.024 1.7695 -5.5938 0
M  V30 2704 C 245.376 1.6041 -6.11924 0
M  V30 2705 C 244.04 1.49166 -6.5062 0
M  V30 2706 H 243.31 0.516566 -0.531263 0
M  V30 2707 H 245.957 0.741099 -1.76579 0
M  V30 2708 H 244.262 3.3311 -2.06265 0
M  V30 2709 H 245.959 3.19127 -2.42815 0
M  V30 2710 H 242.549 2.34658 -3.58655 0
M  V30 2711 H 246.733 2.04803 -4.52072 0
M  V30 2712 H 241.989 1.66831 -5.88198 0
M  V30 2713 H 246.163 1.37925 -6.82605 0
M  V30 2714 H 243.79 1.1839 -7.50925 0
M  V30 2715 N 245.365 1.30045 0.890287 0
M  V30 2716 C 246.613 1.18327 1.63839 0
M  V30 2717 C 246.934 -0.263455 1.93212 0
M  V30 2718 O 246.204 -1.17856 1.56482 0
M  V30 2719 H 244.784 0.434933 0.607324 0
M  V30 2720 H 247.446 1.631 1.06698 0
M  V30 2721 H 246.542 1.74024 2.59079 0
M  V30 2722 N 246.843 -1.10192 1.12674 0
M  V30 2723 C 248.068 -1.86523 0.906853 0
M  V30 2724 C 248.493 -1.80221 -0.538711 0
M  V30 2725 O 247.851 -1.17396 -1.38158 0
M  V30 2726 C 247.899 -3.32758 1.3894 0
M  V30 2727 O 247.003 -4.08449 0.5695 0
M  V30 2728 H 246.344 -0.578678 0.325619 0
M  V30 2729 H 248.874 -1.39203 1.49946 0
M  V30 2730 H 248.884 -3.83608 1.38958 0
M  V30 2731 H 247.559 -3.36661 2.44197 0
M  V30 2732 H 246.136 -3.67427 0.636528 0
M  V30 2733 N 248.321 -0.919034 -1.28029 0
M  V30 2734 C 249.567 -0.565221 -1.95389 0
M  V30 2735 C 249.922 0.882325 -1.70976 0
M  V30 2736 O 249.215 1.61988 -1.02325 0
M  V30 2737 C 249.409 -0.816855 -3.4794 0
M  V30 2738 C 249.238 -2.28731 -3.87185 0
M  V30 2739 C 248.008 -2.93841 -4.11079 0
M  V30 2740 C 250.206 -3.26415 -3.97439 0
M  V30 2741 N 248.188 -4.31129 -4.37037 0
M  V30 2742 C 249.559 -4.48884 -4.27672 0
M  V30 2743 C 251.614 -3.21742 -3.79982 0
M  V30 2744 C 250.317 -5.67268 -4.42266 0
M  V30 2745 C 252.343 -4.39431 -3.95796 0
M  V30 2746 C 251.705 -5.60675 -4.26407 0
M  V30 2747 H 247.804 -0.256797 -0.738633 0
M  V30 2748 H 250.388 -1.18386 -1.54573 0
M  V30 2749 H 248.559 -0.227445 -3.87733 0
M  V30 2750 H 250.291 -0.426542 -4.02446 0
M  V30 2751 H 247.046 -2.44547 -4.05578 0
M  V30 2752 H 247.47 -5.02127 -4.5409 0
M  V30 2753 H 252.112 -2.29079 -3.55363 0
M  V30 2754 H 249.83 -6.60406 -4.65714 0
M  V30 2755 H 253.416 -4.37323 -3.83719 0
M  V30 2756 H 252.296 -6.50223 -4.38383 0
M  V30 2757 N 249.799 1.42003 -0.683588 0
M  V30 2758 C 250.762 2.29191 -0.0198243 0
M  V30 2759 C 251.762 1.43773 0.72013 0
M  V30 2760 O 252.952 1.65061 0.556815 0
M  V30 2761 C 250.084 3.26435 0.982487 0
M  V30 2762 H 251.277 2.8938 -0.787345 0
M  V30 2763 H 248.83 1.49789 -0.446418 0
M  V30 2764 H 249.565 2.71203 1.77819 0
M  V30 2765 H 249.35 3.89449 0.455182 0
M  V30 2766 H 250.84 3.918 1.44508 0
M  V30 2767 N 251.277 0.427512 1.51691 0
M  V30 2768 C 252.693 0.0792977 1.59403 0
M  V30 2769 C 252.893 -1.41035 1.43914 0
M  V30 2770 O 251.949 -2.17922 1.27539 0
M  V30 2771 C 253.262 0.590636 2.94842 0
M  V30 2772 C 254.81 0.550215 3.08126 0
M  V30 2773 C 255.285 1.03836 4.46074 0
M  V30 2774 N 256.776 0.995943 4.52366 0
M  V30 2775 C 257.511 1.34463 5.57411 0
M  V30 2776 N 257.007 1.76569 6.69922 0
M  V30 2777 N 258.8 1.26343 5.47717 0
M  V30 2778 H 250.951 1.39687 1.60004 0
M  V30 2779 H 253.214 0.575003 0.753708 0
M  V30 2780 H 252.92 1.63251 3.11516 0
M  V30 2781 H 252.794 0.0102061 3.77199 0
M  V30 2782 H 255.181 -0.482654 2.91126 0
M  V30 2783 H 255.262 1.16693 2.27632 0
M  V30 2784 H 254.906 2.06965 4.63819 0
M  V30 2785 H 254.836 0.398286 5.25092 0
M  V30 2786 H 257.327 0.68661 3.7161 0
M  V30 2787 H 257.64 2.01438 7.46085 0
M  V30 2788 H 255.985 1.80488 6.71155 0
M  V30 2789 H 259.176 0.933209 4.58703 0
M  V30 2790 H 259.349 1.53846 6.29472 0
M  V30 2791 N 252.755 -1.56801 0.158532 0
M  V30 2792 C 253.718 -2.16138 -0.762705 0
M  V30 2793 C 254.718 -1.1061 -1.16713 0
M  V30 2794 O 255.908 -1.36191 -1.08617 0
M  V30 2795 C 253.04 -2.73386 -2.03649 0
M  V30 2796 H 254.233 -2.98886 -0.246354 0
M  V30 2797 H 251.786 -1.56035 -0.0909744 0
M  V30 2798 H 252.521 -1.94335 -2.59623 0
M  V30 2799 H 252.306 -3.50601 -1.75559 0
M  V30 2800 H 253.796 -3.19065 -2.6942 0
M  V30 2801 N 254.233 0.115231 -1.57178 0
M  V30 2802 C 255.461 0.836437 -1.89239 0
M  V30 2803 C 255.876 1.73256 -0.750175 0
M  V30 2804 O 255.233 1.80357 0.278832 0
M  V30 2805 C 255.284 1.66671 -3.20785 0
M  V30 2806 O 255.005 0.806652 -4.3061 0
M  V30 2807 C 256.506 2.49274 -3.66575 0
M  V30 2808 H 253.726 0.240253 -0.626514 0
M  V30 2809 H 256.27 0.0984932 -2.04263 0
M  V30 2810 H 254.425 2.35737 -3.0742 0
M  V30 2811 H 254.839 1.37969 -5.06028 0
M  V30 2812 H 256.313 3.03055 -4.6137 0
M  V30 2813 H 256.79 3.26807 -2.93417 0
M  V30 2814 H 257.396 1.85443 -3.82741 0
M  V30 2815 N 255.711 1.52812 0.385517 0
M  V30 2816 C 256.957 1.68275 1.13188 0
M  V30 2817 C 257.29 0.423179 1.89533 0
M  V30 2818 O 256.565 -0.579113 1.85679 0
M  V30 2819 C 256.848 2.92001 2.1073 0
M  V30 2820 C 256.701 4.28067 1.38125 0
M  V30 2821 C 258.02 3.11283 3.11113 0
M  V30 2822 H 255.139 0.612352 0.410115 0
M  V30 2823 H 257.781 1.85415 0.414869 0
M  V30 2824 H 255.931 2.77519 2.71874 0
M  V30 2825 H 257.603 4.54324 0.799187 0
M  V30 2826 H 255.846 4.28388 0.683092 0
M  V30 2827 H 256.517 5.10733 2.09417 0
M  V30 2828 H 258.993 3.2482 2.6006 0
M  V30 2829 H 257.869 3.99325 3.76605 0
M  V30 2830 H 258.13 2.25656 3.80173 0
M  V30 2831 N 257.189 -0.644168 1.43834 0
M  V30 2832 C 258.435 -1.40603 1.46146 0
M  V30 2833 C 258.768 -1.93997 0.0887717 0
M  V30 2834 O 258.043 -1.72854 -0.891724 0
M  V30 2835 C 258.326 -2.58086 2.51124 0
M  V30 2836 C 258.179 -2.10126 3.97702 0
M  V30 2837 C 259.498 -3.60291 2.52742 0
M  V30 2838 H 256.617 -0.509905 0.532134 0
M  V30 2839 H 259.259 -0.729502 1.75437 0
M  V30 2840 H 257.409 -3.15801 2.26278 0
M  V30 2841 H 259.081 -1.57342 4.33637 0
M  V30 2842 H 257.324 -1.41419 4.10101 0
M  V30 2843 H 257.995 -2.94649 4.66783 0
M  V30 2844 H 260.471 -3.12352 2.7491 0
M  V30 2845 H 259.347 -4.40032 3.28121 0
M  V30 2846 H 259.608 -4.1349 1.56455 0
M  V30 2847 N 258.668 -1.30515 -0.883378 0
M  V30 2848 C 259.631 -1.1701 -1.97082 0
M  V30 2849 C 260.631 -0.10089 -1.60483 0
M  V30 2850 O 261.821 -0.349127 -1.70666 0
M  V30 2851 C 258.953 -0.793045 -3.31547 0
M  V30 2852 H 260.146 -2.13622 -2.10489 0
M  V30 2853 H 257.699 -1.13935 -1.06998 0
M  V30 2854 H 258.434 0.172499 -3.23841 0
M  V30 2855 H 258.219 -1.56576 -3.5948 0
M  V30 2856 H 259.709 -0.722073 -4.1131 0
M  V30 2857 N 260.146 1.09593 -1.13257 0
M  V30 2858 C 261.076 2.18214 -0.830946 0
M  V30 2859 C 262.057 1.68812 0.208966 0
M  V30 2860 O 263.242 1.9408 0.0682666 0
M  V30 2861 C 260.372 3.46051 -0.294296 0
M  V30 2862 C 259.326 4.08778 -1.26826 0
M  V30 2863 C 258.652 5.31419 -0.591449 0
M  V30 2864 C 259.952 4.51476 -2.62615 0
M  V30 2865 H 261.646 2.43703 -1.73923 0
M  V30 2866 H 259.192 1.17128 -0.837675 0
M  V30 2867 H 261.145 4.2134 -0.0709606 0
M  V30 2868 H 259.869 3.20079 0.649366 0
M  V30 2869 H 258.528 3.35505 -1.47756 0
M  V30 2870 H 258.176 5.01727 0.357633 0
M  V30 2871 H 257.876 5.74341 -1.24123 0
M  V30 2872 H 259.4 6.09433 -0.377355 0
M  V30 2873 H 260.814 5.17999 -2.45663 0
M  V30 2874 H 259.211 5.05277 -3.23752 0
M  V30 2875 H 260.281 3.63962 -3.20406 0
M  V30 2876 N 261.624 0.925811 1.2754 0
M  V30 2877 C 262.849 0.580924 1.99098 0
M  V30 2878 C 263.274 -0.833555 1.68622 0
M  V30 2879 O 262.632 -1.55903 0.925422 0
M  V30 2880 C 262.68 0.811186 3.51358 0
M  V30 2881 O 261.784 -0.124129 4.12213 0
M  V30 2882 H 261.125 0.223873 0.625122 0
M  V30 2883 H 263.655 1.24455 1.62395 0
M  V30 2884 H 263.665 0.72601 4.01489 0
M  V30 2885 H 262.34 1.84227 3.72872 0
M  V30 2886 H 260.917 0.0108006 3.72898 0
M  V30 2887 N 263.102 -1.41638 0.69111 0
M  V30 2888 C 264.351 -2.00526 0.217318 0
M  V30 2889 C 264.664 -1.55353 -1.18848 0
M  V30 2890 O 265.87 -2.06769 -1.75951 0
M  V30 2891 C 264.326 -3.58313 0.337639 0
M  V30 2892 C 263.934 -4.12469 1.74852 0
M  V30 2893 C 265.678 -4.24431 -0.0766066 0
M  V30 2894 C 263.585 -5.62675 1.82074 0
M  V30 2895 H 262.515 -0.750008 0.0774893 0
M  V30 2896 H 265.166 -1.6217 0.858661 0
M  V30 2897 H 263.548 -3.9425 -0.371879 0
M  V30 2898 H 264.722 -3.8796 2.48644 0
M  V30 2899 H 263.037 -3.58861 2.11205 0
M  V30 2900 H 265.634 -5.34683 -0.0430284 0
M  V30 2901 H 265.977 -4.01101 -1.1146 0
M  V30 2902 H 266.51 -3.93512 0.582476 0
M  V30 2903 H 263.249 -5.90826 2.83911 0
M  V30 2904 H 262.769 -5.89124 1.12661 0
M  V30 2905 H 264.448 -6.27371 1.58159 0
M  V30 2906 N 264.58 -0.43555 -1.51462 0
M  V30 2907 C 265.826 0.131709 -2.02372 0
M  V30 2908 C 266.159 1.42516 -1.3192 0
M  V30 2909 O 265.434 1.89606 -0.433573 0
M  V30 2910 C 265.717 0.352301 -3.58373 0
M  V30 2911 C 265.57 -0.959676 -4.39443 0
M  V30 2912 C 266.889 1.12286 -4.25535 0
M  V30 2913 H 264.008 0.0463936 -0.735538 0
M  V30 2914 H 266.65 -0.574197 -1.81116 0
M  V30 2915 H 264.8 0.9536 -3.76615 0
M  V30 2916 H 266.472 -1.59482 -4.32855 0
M  V30 2917 H 264.715 -1.56468 -4.04599 0
M  V30 2918 H 265.386 -0.759394 -5.46752 0
M  V30 2919 H 267.862 0.613545 -4.11552 0
M  V30 2920 H 266.738 1.24598 -5.34571 0
M  V30 2921 H 266.999 2.15048 -3.86273 0
M  V30 2922 N 266.058 1.56714 -0.166846 0
M  V30 2923 C 266.991 2.13577 0.80375 0
M  V30 2924 C 267.969 1.06464 1.22899 0
M  V30 2925 O 269.153 1.34413 1.32157 0
M  V30 2926 C 266.28 2.67168 2.0818 0
M  V30 2927 C 265.326 3.86612 1.80093 0
M  V30 2928 S 266.159 5.26565 0.97416 0
M  V30 2929 C 267.315 5.83558 2.26297 0
M  V30 2930 H 267.548 2.9557 0.320267 0
M  V30 2931 H 265.081 1.54326 0.0477555 0
M  V30 2932 H 267.039 2.98692 2.8159 0
M  V30 2933 H 265.7 1.85269 2.53642 0
M  V30 2934 H 264.893 4.22422 2.7491 0
M  V30 2935 H 264.495 3.55951 1.14781 0
M  V30 2936 H 266.787 5.962 3.21795 0
M  V30 2937 H 267.73 6.80731 1.94962 0
M  V30 2938 H 268.138 5.11944 2.37853 0
M  V30 2939 N 267.536 -0.106894 1.57237 0
M  V30 2940 C 268.761 -0.830287 1.90055 0
M  V30 2941 C 269.186 -1.72064 0.75998 0
M  V30 2942 O 268.544 -1.78982 -0.288991 0
M  V30 2943 C 268.592 -1.6295 3.21683 0
M  V30 2944 O 267.696 -2.73748 3.08441 0
M  V30 2945 H 267.037 -0.228855 0.623315 0
M  V30 2946 H 269.567 -0.085658 2.04421 0
M  V30 2947 H 269.577 -2.01621 3.54701 0
M  V30 2948 H 268.252 -0.975989 4.04286 0
M  V30 2949 H 266.829 -2.38192 2.86913 0
M  V30 2950 N 269.014 -1.53014 -0.377408 0
M  V30 2951 C 270.43 -1.42523 -0.718281 0
M  V30 2952 C 270.63 -0.55487 -1.9371 0
M  V30 2953 O 269.686 -0.0327593 -2.52479 0
M  V30 2954 C 270.999 -2.85546 -0.942539 0
M  V30 2955 C 272.547 -2.95101 -1.04329 0
M  V30 2956 C 273.022 -4.3916 -1.3001 0
M  V30 2957 N 274.513 -4.42536 -1.36806 0
M  V30 2958 C 275.248 -5.51097 -1.58364 0
M  V30 2959 N 274.744 -6.69724 -1.77317 0
M  V30 2960 N 276.537 -5.38657 -1.60638 0
M  V30 2961 H 268.688 -2.08116 0.424426 0
M  V30 2962 H 270.951 -0.939352 0.127759 0
M  V30 2963 H 270.657 -3.51499 -0.118929 0
M  V30 2964 H 270.531 -3.28493 -1.85397 0
M  V30 2965 H 272.918 -2.29309 -1.85745 0
M  V30 2966 H 272.999 -2.55566 -0.109505 0
M  V30 2967 H 272.643 -5.05521 -0.490991 0
M  V30 2968 H 272.573 -4.76258 -2.24691 0
M  V30 2969 H 275.064 -3.57039 -1.23821 0
M  V30 2970 H 275.377 -7.48233 -1.93306 0
M  V30 2971 H 273.722 -6.72732 -1.74518 0
M  V30 2972 H 276.913 -4.44948 -1.45391 0
M  V30 2973 H 277.086 -6.2333 -1.77098 0
M  V30 2974 N 270.492 0.636531 -1.44174 0
M  V30 2975 C 271.424 1.7618 -1.46606 0
M  V30 2976 C 272.437 1.58768 -0.360091 0
M  V30 2977 O 273.626 1.67181 -0.625518 0
M  V30 2978 C 270.726 3.13833 -1.27915 0
M  V30 2979 C 269.899 3.57753 -2.51658 0
M  V30 2980 C 268.958 4.74265 -2.27945 0
M  V30 2981 O 267.984 4.82852 -3.01401 0
M  V30 2982 N 269.186 5.65604 -1.30662 0
M  V30 2983 H 271.951 1.74567 -2.43612 0
M  V30 2984 H 269.512 0.820924 -1.39544 0
M  V30 2985 H 271.504 3.8949 -1.09907 0
M  V30 2986 H 270.074 3.10121 -0.39293 0
M  V30 2987 H 269.294 2.72362 -2.84978 0
M  V30 2988 H 270.582 3.83847 -3.33974 0
M  V30 2989 H 269.98 5.61354 -0.699844 0
M  V30 2990 H 268.537 6.40913 -1.18634 0
M  V30 2991 N 271.97 1.30982 0.876444 0
M  V30 2992 C 273.381 1.18277 1.44456 0
M  V30 2993 C 273.732 -0.213265 1.95037 0
M  V30 2994 O 272.857 -1.11057 1.85729 0
M  V30 2995 C 273.452 2.1411 2.62569 0
M  V30 2996 C 272.011 2.05358 3.15444 0
M  V30 2997 C 271.158 2.03706 1.88146 0
M  V30 2998 H 274.109 1.43127 0.685584 0
M  V30 2999 H 274.13 1.72692 3.39054 0
M  V30 3000 H 273.642 3.15706 2.25724 0
M  V30 3001 H 271.743 1.06934 3.56926 0
M  V30 3002 H 271.856 2.94156 3.78166 0
M  V30 3003 H 270.22 1.48629 2.06837 0
M  V30 3004 H 271.003 3.07047 1.53547 0
M  V30 3005 N 273.449 -1.08991 1.13837 0
M  V30 3006 C 274.695 -1.81526 0.90422 0
M  V30 3007 C 275.028 -1.85706 -0.568066 0
M  V30 3008 O 274.303 -1.32855 -1.42056 0
M  V30 3009 C 274.586 -3.27447 1.49835 0
M  V30 3010 C 274.439 -3.31512 3.04006 0
M  V30 3011 C 275.758 -4.24256 1.17025 0
M  V30 3012 H 272.877 -0.659029 0.329923 0
M  V30 3013 H 275.519 -1.27644 1.40737 0
M  V30 3014 H 273.669 -3.73462 1.07044 0
M  V30 3015 H 275.341 -2.93867 3.55584 0
M  V30 3016 H 273.584 -2.70963 3.38765 0
M  V30 3017 H 274.255 -4.34329 3.40679 0
M  V30 3018 H 276.731 -3.86549 1.54009 0
M  V30 3019 H 275.607 -5.24684 1.61237 0
M  V30 3020 H 275.868 -4.42019 0.0846274 0
M  V30 3021 N 274.927 -0.932562 -1.27047 0
M  V30 3022 C 276.174 -0.575559 -1.94148 0
M  V30 3023 C 276.502 0.883984 -1.73251 0
M  V30 3024 O 275.757 1.64655 -1.0577 0
M  V30 3025 C 276.056 -0.853713 -3.47054 0
M  V30 3026 C 275.722 -2.29577 -3.88079 0
M  V30 3027 C 274.384 -2.68999 -3.9899 0
M  V30 3028 C 276.736 -3.23331 -4.08787 0
M  V30 3029 C 274.064 -4.01289 -4.28 0
M  V30 3030 C 276.416 -4.55207 -4.39282 0
M  V30 3031 C 275.08 -4.94457 -4.48407 0
M  V30 3032 H 274.35 -0.210612 -0.710439 0
M  V30 3033 H 276.997 -1.17744 -1.51025 0
M  V30 3034 H 275.302 -0.169204 -3.91434 0
M  V30 3035 H 276.999 -0.55639 -3.97121 0
M  V30 3036 H 273.589 -1.97994 -3.80127 0
M  V30 3037 H 277.773 -2.94074 -3.99793 0
M  V30 3038 H 273.029 -4.31374 -4.33275 0
M  V30 3039 H 277.203 -5.27852 -4.54252 0
M  V30 3040 H 274.83 -5.96994 -4.7064 0
M  V30 3041 N 276.405 1.4127 -0.698611 0
M  V30 3042 C 277.816 1.84187 -0.305289 0
M  V30 3043 C 278.167 1.58449 1.15708 0
M  V30 3044 O 277.292 1.05651 1.88856 0
M  V30 3045 C 277.887 3.3435 -0.547314 0
M  V30 3046 C 276.446 3.75826 -0.207878 0
M  V30 3047 C 275.593 2.64647 -0.828099 0
M  V30 3048 H 278.544 1.30778 -0.89904 0
M  V30 3049 H 278.565 3.8001 0.192998 0
M  V30 3050 H 278.077 3.53051 -1.61172 0
M  V30 3051 H 276.178 3.62725 0.852143 0
M  V30 3052 H 276.291 4.74462 -0.665021 0
M  V30 3053 H 274.655 2.53395 -0.257458 0
M  V30 3054 H 275.438 2.86165 -1.89643 0
M  V30 3055 N 277.883 0.443576 1.51229 0
M  V30 3056 C 278.813 -0.355142 2.30783 0
M  V30 3057 C 279.794 -1.0154 1.36468 0
M  V30 3058 O 280.979 -1.01785 1.65389 0
M  V30 3059 C 278.109 -1.45312 3.15439 0
M  V30 3060 C 277.063 -0.916002 4.18083 0
M  V30 3061 C 276.389 -2.1102 4.91299 0
M  V30 3062 C 277.689 0.0538602 5.22272 0
M  V30 3063 H 279.383 0.308767 2.97804 0
M  V30 3064 H 276.929 0.149937 1.43217 0
M  V30 3065 H 278.882 -2.01914 3.69876 0
M  V30 3066 H 277.606 -2.14541 2.46252 0
M  V30 3067 H 276.265 -0.372145 3.64706 0
M  V30 3068 H 275.913 -2.78882 4.18609 0
M  V30 3069 H 275.613 -1.75717 5.60712 0
M  V30 3070 H 277.137 -2.68164 5.48562 0
M  V30 3071 H 278.551 -0.422069 5.71744 0
M  V30 3072 H 276.948 0.319776 5.99247 0
M  V30 3073 H 278.018 0.98858 4.74716 0
M  V30 3074 N 279.361 -1.56624 0.175154 0
M  V30 3075 C 280.772 -1.83561 -0.340916 0
M  V30 3076 C 281.123 -1.09511 -1.62794 0
M  V30 3077 O 280.248 -0.349389 -2.13561 0
M  V30 3078 C 280.843 -3.32979 -0.625313 0
M  V30 3079 C 279.402 -3.60399 -1.08581 0
M  V30 3080 C 278.549 -2.77024 -0.123722 0
M  V30 3081 H 281.5 -1.53593 0.399344 0
M  V30 3082 H 281.521 -3.50666 -1.47694 0
M  V30 3083 H 281.033 -3.86847 0.311575 0
M  V30 3084 H 279.134 -3.11945 -2.03767 0
M  V30 3085 H 279.247 -4.68711 -0.992317 0
M  V30 3086 H 277.611 -2.46993 -0.621821 0
M  V30 3087 H 278.394 -3.33674 0.807256 0
M  V30 3088 N 280.839 0.0985539 -1.57292 0
M  V30 3089 C 281.749 1.13824 -2.05137 0
M  V30 3090 C 282.765 1.44076 -0.975604 0
M  V30 3091 O 283.941 1.54786 -1.28853 0
M  V30 3092 C 281.006 2.43969 -2.46333 0
M  V30 3093 C 280.067 2.2093 -3.68087 0
M  V30 3094 C 279.3 3.44869 -4.0731 0
M  V30 3095 O 279.523 4.52972 -3.46659 0
M  V30 3096 O 278.457 3.34661 -5.00285 0
M  V30 3097 H 282.283 0.761881 -2.93988 0
M  V30 3098 H 279.868 0.310818 -1.46131 0
M  V30 3099 H 281.75 3.20609 -2.73473 0
M  V30 3100 H 280.425 2.81038 -1.60621 0
M  V30 3101 H 279.332 1.42081 -3.46069 0
M  V30 3102 H 280.665 1.88755 -4.54568 0
M  V30 3103 N 282.317 1.53212 0.369288 0
M  V30 3104 C 283.733 1.42902 0.710712 0
M  V30 3105 C 283.933 0.565135 1.93413 0
M  V30 3106 O 282.989 0.0461484 2.52458 0
M  V30 3107 C 284.302 2.86042 0.927382 0
M  V30 3108 C 285.85 2.9565 1.02762 0
M  V30 3109 C 286.325 4.39843 1.27679 0
M  V30 3110 N 287.816 4.43256 1.34457 0
M  V30 3111 C 288.551 5.51929 1.55439 0
M  V30 3112 N 288.047 6.70655 1.73762 0
M  V30 3113 N 289.84 5.39502 1.57779 0
M  V30 3114 H 281.991 2.07888 -0.435457 0
M  V30 3115 H 284.254 0.938661 -0.132739 0
M  V30 3116 H 283.96 3.51557 0.100287 0
M  V30 3117 H 283.834 3.29472 1.83653 0
M  V30 3118 H 286.221 2.30291 1.84527 0
M  V30 3119 H 286.302 2.5562 0.0959504 0
M  V30 3120 H 285.946 5.05774 0.464175 0
M  V30 3121 H 285.876 4.77443 2.22162 0
M  V30 3122 H 288.367 3.5769 1.21926 0
M  V30 3123 H 288.68 7.49248 1.89335 0
M  V30 3124 H 287.025 6.73648 1.70948 0
M  V30 3125 H 290.216 4.45713 1.43029 0
M  V30 3126 H 290.389 6.2426 1.7379 0
M  V30 3127 N 283.795 -0.628877 1.44509 0
M  V30 3128 C 284.758 -1.72263 1.51188 0
M  V30 3129 C 285.758 -1.55907 0.39367 0
M  V30 3130 O 286.948 -1.61361 0.656377 0
M  V30 3131 C 284.08 -3.11365 1.38798 0
M  V30 3132 H 285.273 -1.67714 2.4862 0
M  V30 3133 H 282.826 -0.842737 1.31634 0
M  V30 3134 H 283.561 -3.21507 0.424693 0
M  V30 3135 H 283.346 -3.24644 2.19884 0
M  V30 3136 H 284.836 -3.91075 1.46458 0
M  V30 3137 N 285.273 -1.31445 -0.869486 0
M  V30 3138 C 286.689 -1.10113 -1.15531 0
M  V30 3139 C 286.889 0.128087 -2.01092 0
M  V30 3140 O 285.945 0.817276 -2.38908 0
M  V30 3141 C 287.258 -2.37291 -1.84698 0
M  V30 3142 C 288.806 -2.42906 -1.97397 0
M  V30 3143 C 289.281 -3.69967 -2.69979 0
M  V30 3144 N 290.772 -3.70864 -2.77514 0
M  V30 3145 C 291.507 -4.65875 -3.34287 0
M  V30 3146 N 291.003 -5.71242 -3.91988 0
M  V30 3147 N 292.796 -4.53394 -3.3225 0
M  V30 3148 H 284.947 -2.1028 -0.299347 0
M  V30 3149 H 287.21 -0.927683 -0.195214 0
M  V30 3150 H 286.916 -3.27078 -1.29278 0
M  V30 3151 H 286.79 -2.47125 -2.84972 0
M  V30 3152 H 289.177 -1.53588 -2.51982 0
M  V30 3153 H 289.258 -2.37036 -0.961643 0
M  V30 3154 H 288.902 -4.59652 -2.16062 0
M  V30 3155 H 288.832 -3.73103 -3.7162 0
M  V30 3156 H 291.323 -2.94697 -2.36563 0
M  V30 3157 H 291.636 -6.39817 -4.33421 0
M  V30 3158 H 289.981 -5.75015 -3.90362 0
M  V30 3159 H 293.172 -3.70252 -2.8641 0
M  V30 3160 H 293.345 -5.27617 -3.76197 0
M  V30 3161 N 286.751 1.08385 -1.14413 0
M  V30 3162 C 287.997 1.81044 -0.913834 0
M  V30 3163 C 288.33 1.86004 0.558209 0
M  V30 3164 O 287.605 1.33606 1.4135 0
M  V30 3165 C 287.888 3.26648 -1.51569 0
M  V30 3166 C 287.741 3.29895 -3.0576 0
M  V30 3167 C 289.06 4.23629 -1.19273 0
M  V30 3168 H 286.179 0.65727 -0.333414 0
M  V30 3169 H 288.821 1.26896 -1.41412 0
M  V30 3170 H 286.971 3.72889 -1.09023 0
M  V30 3171 H 288.643 2.91977 -3.57137 0
M  V30 3172 H 286.886 2.69163 -3.40197 0
M  V30 3173 H 287.557 4.32516 -3.42977 0
M  V30 3174 H 290.033 3.85727 -1.56057 0
M  V30 3175 H 288.909 5.23822 -1.64017 0
M  V30 3176 H 289.17 4.41968 -0.108068 0
M  V30 3177 N 288.23 0.939286 1.26551 0
M  V30 3178 C 289.641 0.628782 1.75793 0
M  V30 3179 C 289.992 -0.856046 1.7654 0
M  V30 3180 O 289.117 -1.66994 1.3763 0
M  V30 3181 C 289.712 1.13465 3.19235 0
M  V30 3182 C 288.271 0.874601 3.66098 0
M  V30 3183 C 287.418 1.28667 2.45642 0
M  V30 3184 H 290.369 1.1178 1.12654 0
M  V30 3185 H 290.39 0.487609 3.77363 0
M  V30 3186 H 289.902 2.21535 3.1866 0
M  V30 3187 H 288.003 -0.191793 3.72106 0
M  V30 3188 H 288.116 1.50028 4.55004 0
M  V30 3189 H 286.48 0.705109 2.44745 0
M  V30 3190 H 287.263 2.37625 2.47769 0
M  V30 3191 N 289.708 -1.40897 0.706093 0
M  V30 3192 C 290.618 -2.3455 0.0482286 0
M  V30 3193 C 291.634 -1.56796 -0.754396 0
M  V30 3194 O 292.81 -1.89228 -0.689538 0
M  V30 3195 C 289.875 -3.35625 -0.869303 0
M  V30 3196 C 288.936 -4.29261 -0.0576994 0
M  V30 3197 C 288.169 -5.25508 -0.931531 0
M  V30 3198 O 288.392 -5.27472 -2.17092 0
M  V30 3199 O 287.326 -6.00727 -0.375587 0
M  V30 3200 H 291.152 -2.92407 0.820476 0
M  V30 3201 H 288.737 -1.4193 0.4665 0
M  V30 3202 H 290.619 -3.97635 -1.39514 0
M  V30 3203 H 289.294 -2.80196 -1.62086 0
M  V30 3204 H 288.201 -3.70566 0.512988 0
M  V30 3205 H 289.534 -4.87817 0.655426 0
M  V30 3206 N 291.186 -0.45159 -1.50991 0
M  V30 3207 C 292.116 0.342898 -2.30969 0
M  V30 3208 C 293.097 1.00815 -1.37005 0
M  V30 3209 O 294.282 1.00907 -1.65926 0
M  V30 3210 C 291.412 1.43637 -3.16205 0
M  V30 3211 C 290.366 0.893818 -4.18563 0
M  V30 3212 C 289.692 2.08411 -4.92411 0
M  V30 3213 C 290.992 -0.0815568 -5.22236 0
M  V30 3214 H 292.686 -0.324556 -2.97636 0
M  V30 3215 H 290.232 -0.157531 -1.43136 0
M  V30 3216 H 292.185 1.9995 -3.70942 0
M  V30 3217 H 290.909 2.13232 -2.47386 0
M  V30 3218 H 289.568 0.352798 -3.64898 0
M  V30 3219 H 289.216 2.76658 -4.20082 0
M  V30 3220 H 288.916 1.72741 -5.61636 0
M  V30 3221 H 290.44 2.65251 -5.49976 0
M  V30 3222 H 291.854 0.391742 -5.7196 0
M  V30 3223 H 290.251 -0.351551 -5.99069 0
M  V30 3224 H 291.321 -1.01374 -4.74185 0
M  V30 3225 N 292.664 1.56529 -0.183458 0
M  V30 3226 C 293.894 2.01331 0.463612 0
M  V30 3227 C 294.302 1.06278 1.5653 0
M  V30 3228 O 293.645 0.0577976 1.83609 0
M  V30 3229 C 293.707 3.42547 1.09096 0
M  V30 3230 C 293.371 4.56817 0.129442 0
M  V30 3231 C 294.368 5.15734 -0.656807 0
M  V30 3232 C 292.053 5.02295 0.02174 0
M  V30 3233 C 294.047 6.1857 -1.53784 0
M  V30 3234 C 291.734 6.04978 -0.862864 0
M  V30 3235 C 292.732 6.62988 -1.64123 0
M  V30 3236 O 292.42 7.63677 -2.51103 0
M  V30 3237 H 292.152 0.664917 0.121907 0
M  V30 3238 H 294.706 2.034 -0.285954 0
M  V30 3239 H 292.936 3.37428 1.88889 0
M  V30 3240 H 294.625 3.71228 1.64148 0
M  V30 3241 H 295.391 4.81473 -0.583839 0
M  V30 3242 H 291.27 4.56847 0.617392 0
M  V30 3243 H 294.814 6.63777 -2.14583 0
M  V30 3244 H 290.711 6.38663 -0.93699 0
M  V30 3245 H 291.479 7.81049 -2.44753 0
M  V30 3246 N 294.142 -0.090211 1.57342 0
M  V30 3247 C 295.052 -1.12735 2.05738 0
M  V30 3248 C 296.068 -1.43557 0.983231 0
M  V30 3249 O 297.244 -1.54101 1.29672 0
M  V30 3250 C 294.309 -2.42659 2.47624 0
M  V30 3251 C 293.37 -2.18975 3.69254 0
M  V30 3252 C 292.603 -3.42704 4.09133 0
M  V30 3253 O 292.826 -4.51127 3.49057 0
M  V30 3254 O 291.76 -3.32003 5.02053 0
M  V30 3255 H 295.586 -0.746279 2.94388 0
M  V30 3256 H 293.171 -0.303064 1.46294 0
M  V30 3257 H 295.053 -3.19155 2.7517 0
M  V30 3258 H 293.728 -2.80182 1.62109 0
M  V30 3259 H 292.635 -1.40244 3.46818 0
M  V30 3260 H 293.968 -1.86342 4.55563 0
M  V30 3261 N 295.62 -1.53406 -0.361157 0
M  V30 3262 C 296.848 -1.73717 -1.12383 0
M  V30 3263 C 297.263 -0.468161 -1.82904 0
M  V30 3264 O 296.62 0.559198 -1.73722 0
M  V30 3265 C 296.671 -2.90558 -2.15078 0
M  V30 3266 O 296.392 -4.12549 -1.47428 0
M  V30 3267 C 297.893 -3.22777 -3.03858 0
M  V30 3268 H 295.113 -0.580896 -0.335858 0
M  V30 3269 H 297.657 -2.00167 -0.418728 0
M  V30 3270 H 295.812 -2.66489 -2.8118 0
M  V30 3271 H 296.226 -4.78009 -2.15887 0
M  V30 3272 H 297.7 -4.07927 -3.71887 0
M  V30 3273 H 298.177 -2.38329 -3.68912 0
M  V30 3274 H 298.783 -3.48787 -2.43367 0
M  V30 3275 N 297.098 0.621204 -1.44841 0
M  V30 3276 C 298.375 1.38 -1.38619 0
M  V30 3277 C 298.755 2.11041 -0.0498935 0
M  V30 3278 O 298.103 2.06992 0.967816 0
M  V30 3279 C 298.313 2.33817 -2.59096 0
M  V30 3280 C 299.661 2.96844 -3.03593 0
M  V30 3281 O 300.685 2.44141 -2.59371 0
M  V30 3282 O 299.544 3.92476 -3.80296 0
M  V30 3283 H 296.638 0.61811 -0.549426 0
M  V30 3284 H 299.184 0.645429 -1.56947 0
M  V30 3285 H 297.956 1.79012 -3.47952 0
M  V30 3286 H 297.579 3.14676 -2.43032 0
M  V30 3287 N 298.576 1.31904 0.862503 0
M  V30 3288 C 299.822 1.22197 1.61851 0
M  V30 3289 C 300.155 -0.217641 1.92977 0
M  V30 3290 O 299.43 -1.15264 1.56666 0
M  V30 3291 C 299.713 2.07378 2.94391 0
M  V30 3292 C 299.566 3.59678 2.70096 0
M  V30 3293 C 300.885 1.92891 3.95577 0
M  V30 3294 H 298.004 0.445255 0.587296 0
M  V30 3295 H 300.646 1.6177 0.99651 0
M  V30 3296 H 298.796 1.73758 3.47477 0
M  V30 3297 H 300.468 4.03472 2.23625 0
M  V30 3298 H 298.711 3.82735 2.04197 0
M  V30 3299 H 299.382 4.14595 3.64438 0
M  V30 3300 H 301.858 2.22327 3.51724 0
M  V30 3301 H 300.734 2.54781 4.86187 0
M  V30 3302 H 300.995 0.894315 4.3296 0
M  V30 3303 N 300.054 -1.07777 1.14986 0
M  V30 3304 C 301.465 -1.61766 0.932127 0
M  V30 3305 C 301.816 -1.88974 -0.527581 0
M  V30 3306 O 300.941 -1.65198 -1.39781 0
M  V30 3307 C 301.536 -2.93891 1.68563 0
M  V30 3308 C 300.095 -3.44639 1.5133 0
M  V30 3309 C 299.242 -2.18767 1.704 0
M  V30 3310 H 302.193 -0.909201 1.30074 0
M  V30 3311 H 302.214 -3.62623 1.15259 0
M  V30 3312 H 301.726 -2.74057 2.74799 0
M  V30 3313 H 299.827 -3.69564 0.474702 0
M  V30 3314 H 299.94 -4.20966 2.28746 0
M  V30 3315 H 298.304 -2.28253 1.13016 0
M  V30 3316 H 299.087 -2.01433 2.77992 0
M  V30 3317 N 301.532 -0.945985 -1.26051 0
M  V30 3318 C 302.943 -0.638096 -1.75457 0
M  V30 3319 C 303.294 0.846672 -1.76991 0
M  V30 3320 O 302.419 1.66262 -1.38513 0
M  V30 3321 C 303.014 -1.15157 -3.18629 0
M  V30 3322 C 301.573 -0.894004 -3.65629 0
M  V30 3323 C 300.72 -1.29967 -2.44957 0
M  V30 3324 H 303.671 -1.12376 -1.1206 0
M  V30 3325 H 303.692 -0.507615 -3.77099 0
M  V30 3326 H 303.204 -2.23222 -3.1748 0
M  V30 3327 H 301.305 0.172057 -3.72203 0
M  V30 3328 H 301.418 -1.52439 -4.54202 0
M  V30 3329 H 299.782 -0.718078 -2.44368 0
M  V30 3330 H 300.565 -2.38935 -2.46505 0
M  V30 3331 N 303.011 1.40521 -0.713556 0
M  V30 3332 C 304.427 1.54839 -0.386907 0
M  V30 3333 C 304.627 1.68532 1.1045 0
M  V30 3334 O 303.683 1.67377 1.89053 0
M  V30 3335 C 304.996 2.77792 -1.15118 0
M  V30 3336 C 306.544 2.91607 -1.13729 0
M  V30 3337 C 307.019 4.1747 -1.88368 0
M  V30 3338 N 308.51 4.24466 -1.85427 0
M  V30 3339 C 309.245 5.20755 -2.40004 0
M  V30 3340 N 308.741 6.22965 -3.03129 0
M  V30 3341 N 310.534 5.1282 -2.30158 0
M  V30 3342 H 302.685 1.29879 -1.68063 0
M  V30 3343 H 304.948 0.627896 -0.710247 0
M  V30 3344 H 304.654 2.73944 -2.20561 0
M  V30 3345 H 304.528 3.6984 -0.741477 0
M  V30 3346 H 306.915 2.94959 -0.0910608 0
M  V30 3347 H 306.996 2.00682 -1.5862 0
M  V30 3348 H 306.64 4.1488 -2.9298 0
M  V30 3349 H 306.57 5.074 -1.40898 0
M  V30 3350 H 309.061 3.51241 -1.3942 0
M  V30 3351 H 309.374 6.92859 -3.42295 0
M  V30 3352 H 307.719 6.23415 -3.07212 0
M  V30 3353 H 310.91 4.31899 -1.80501 0
M  V30 3354 H 311.083 5.87689 -2.72993 0
M  V30 3355 N 304.489 0.459591 1.5075 0
M  V30 3356 C 305.905 0.113092 1.59199 0
M  V30 3357 C 306.105 -1.37951 1.46874 0
M  V30 3358 O 305.161 -2.15168 1.32132 0
M  V30 3359 C 306.474 0.653043 2.93523 0
M  V30 3360 C 308.022 0.615449 3.0689 0
M  V30 3361 C 308.497 1.13275 4.43771 0
M  V30 3362 N 309.988 1.09167 4.50152 0
M  V30 3363 C 310.723 1.46256 5.54434 0
M  V30 3364 N 310.219 1.90739 6.66026 0
M  V30 3365 N 312.012 1.37932 5.44914 0
M  V30 3366 H 304.163 1.43049 1.57005 0
M  V30 3367 H 306.426 0.590861 0.741341 0
M  V30 3368 H 306.132 1.69822 3.07983 0
M  V30 3369 H 306.006 0.0902132 3.77092 0
M  V30 3370 H 308.393 -0.420793 2.92084 0
M  V30 3371 H 308.474 1.21495 2.25106 0
M  V30 3372 H 308.118 2.16757 4.59324 0
M  V30 3373 H 308.048 0.509576 5.24129 0
M  V30 3374 H 310.539 0.76528 3.7007 0
M  V30 3375 H 310.852 2.17218 7.41644 0
M  V30 3376 H 309.197 1.94683 6.67176 0
M  V30 3377 H 312.388 1.0303 4.56621 0
M  V30 3378 H 312.561 1.67164 6.26067 0
M  V30 3379 N 305.967 -1.56429 0.191757 0
M  V30 3380 C 307.383 -1.58754 -0.164137 0
M  V30 3381 C 307.583 -1.20782 -1.61288 0
M  V30 3382 O 306.639 -0.928999 -2.34789 0
M  V30 3383 C 307.952 -3.00396 0.135195 0
M  V30 3384 C 309.5 -3.1291 0.0750351 0
M  V30 3385 C 309.975 -4.56679 0.347632 0
M  V30 3386 N 311.466 -4.62252 0.296131 0
M  V30 3387 C 312.201 -5.71379 0.480948 0
M  V30 3388 N 311.697 -6.88986 0.725933 0
M  V30 3389 N 313.49 -5.60563 0.415435 0
M  V30 3390 H 305.641 -1.79393 1.13718 0
M  V30 3391 H 307.904 -0.832414 0.453643 0
M  V30 3392 H 307.61 -3.32726 1.13958 0
M  V30 3393 H 307.484 -3.72963 -0.563773 0
M  V30 3394 H 309.871 -2.80394 -0.919948 0
M  V30 3395 H 309.952 -2.42736 0.807029 0
M  V30 3396 H 309.596 -4.89907 1.33992 0
M  V30 3397 H 309.526 -5.25039 -0.405212 0
M  V30 3398 H 312.017 -3.7773 0.113259 0
M  V30 3399 H 312.33 -7.68046 0.855857 0
M  V30 3400 H 310.675 -6.90801 0.762788 0
M  V30 3401 H 313.866 -4.67561 0.224486 0
M  V30 3402 H 314.039 -6.45551 0.562889 0
M  V30 3403 N 307.445 0.0818655 -1.57387 0
M  V30 3404 C 308.693 0.781368 -1.86384 0
M  V30 3405 C 309.014 1.78618 -0.782342 0
M  V30 3406 O 308.284 1.94976 0.190061 0
M  V30 3407 H 306.864 0.291562 -0.687751 0
M  V30 3408 H 309.526 0.060348 -1.94807 0
M  V30 3409 H 308.622 1.3038 -2.83562 0
M  V30 3410 N 308.923 1.53595 0.353017 0
M  V30 3411 C 309.886 1.80232 1.41594 0
M  V30 3412 C 310.886 0.673081 1.46035 0
M  V30 3413 O 312.076 0.941335 1.46576 0
M  V30 3414 C 309.208 1.93578 2.80607 0
M  V30 3415 H 310.401 2.75174 1.19244 0
M  V30 3416 H 307.954 1.44864 0.586872 0
M  V30 3417 H 308.689 1.00746 3.08254 0
M  V30 3418 H 308.474 2.75724 2.78781 0
M  V30 3419 H 309.964 2.15735 3.57558 0
M  V30 3420 N 310.401 -0.613514 1.45168 0
M  V30 3421 C 311.348 -1.72456 1.53387 0
M  V30 3422 C 312.318 -1.6169 0.380191 0
M  V30 3423 O 313.503 -1.81356 0.592836 0
M  V30 3424 C 310.643 -3.10753 1.50088 0
M  V30 3425 C 309.756 -3.32368 2.75963 0
M  V30 3426 C 308.891 -4.60737 2.64376 0
M  V30 3427 C 307.93 -4.7559 3.85332 0
M  V30 3428 N 307.067 -5.95253 3.72315 0
M  V30 3429 H 311.907 -1.64768 2.48305 0
M  V30 3430 H 309.444 -0.803503 1.23216 0
M  V30 3431 H 311.402 -3.90758 1.46164 0
M  V30 3432 H 310.032 -3.17413 0.587243 0
M  V30 3433 H 309.084 -2.4618 2.89999 0
M  V30 3434 H 310.396 -3.39218 3.65695 0
M  V30 3435 H 309.55 -5.48928 2.58385 0
M  V30 3436 H 308.289 -4.56275 1.72233 0
M  V30 3437 H 307.294 -3.85824 3.91688 0
M  V30 3438 H 308.519 -4.81854 4.78533 0
M  V30 3439 H 306.465 -5.91847 2.82937 0
M  V30 3440 H 306.382 -6.03236 4.55677 0
M  V30 3441 H 307.65 -6.85958 3.70246 0
M  V30 3442 N 311.879 -1.3236 -0.855495 0
M  V30 3443 C 313.127 -1.22629 -1.60644 0
M  V30 3444 C 313.448 0.212136 -1.93843 0
M  V30 3445 O 312.718 1.13666 -1.59552 0
M  V30 3446 H 311.298 -0.450882 -0.595579 0
M  V30 3447 H 313.96 -1.65871 -1.02337 0
M  V30 3448 H 313.056 -1.80832 -2.54374 0
M  V30 3449 N 313.357 1.07166 -1.15556 0
M  V30 3450 C 314.605 1.79443 -0.929764 0
M  V30 3451 C 314.926 1.87246 0.544414 0
M  V30 3452 O 314.196 1.37473 1.39564 0
M  V30 3453 H 312.776 0.664625 -0.341003 0
M  V30 3454 H 315.438 1.29499 -1.45657 0
M  V30 3455 H 314.534 2.81832 -1.34079 0
M  V30 3456 N 314.835 0.952656 1.25548 0
M  V30 3457 C 316.083 0.605176 1.92826 0
M  V30 3458 C 316.404 -0.860261 1.74999 0
M  V30 3459 O 315.674 -1.6125 1.11244 0
M  V30 3460 H 314.254 0.220832 0.713612 0
M  V30 3461 H 316.916 1.21047 1.52754 0
M  V30 3462 H 316.012 0.832798 3.00784 0
M  V30 3463 N 316.313 -1.40141 0.720998 0
M  V30 3464 C 317.561 -2.0039 0.262323 0
M  V30 3465 C 317.882 -1.57469 -1.15015 0
M  V30 3466 O 317.152 -0.816582 -1.78069 0
M  V30 3467 H 315.732 -0.741063 0.093996 0
M  V30 3468 H 318.394 -1.71398 0.927835 0
M  V30 3469 H 317.49 -3.10658 0.299671 0
M  V30 3470 N 317.792 -0.46758 -1.50504 0
M  V30 3471 C 319.038 0.0808869 -2.03239 0
M  V30 3472 C 319.393 1.37721 -1.34353 0
M  V30 3473 O 318.686 1.86016 -0.459194 0
M  V30 3474 C 318.88 0.323995 -3.55928 0
M  V30 3475 C 318.709 -0.947215 -4.39611 0
M  V30 3476 C 317.479 -1.48951 -4.82848 0
M  V30 3477 C 319.677 -1.84166 -4.80195 0
M  V30 3478 N 317.659 -2.71011 -5.50842 0
M  V30 3479 C 319.03 -2.90815 -5.47564 0
M  V30 3480 C 321.085 -1.85246 -4.62156 0
M  V30 3481 C 319.788 -3.98529 -5.98805 0
M  V30 3482 C 321.814 -2.91914 -5.14335 0
M  V30 3483 C 321.176 -3.97282 -5.81676 0
M  V30 3484 H 317.275 -0.0103394 -0.781932 0
M  V30 3485 H 319.859 -0.635003 -1.84054 0
M  V30 3486 H 318.03 1.00892 -3.75067 0
M  V30 3487 H 319.762 0.866492 -3.95315 0
M  V30 3488 H 316.517 -1.03918 -4.62058 0
M  V30 3489 H 316.941 -3.32988 -5.89447 0
M  V30 3490 H 321.583 -1.05103 -4.09528 0
M  V30 3491 H 319.301 -4.79491 -6.50472 0
M  V30 3492 H 322.887 -2.93729 -5.0221 0
M  V30 3493 H 321.767 -4.78462 -6.21324 0
M  V30 3494 N 319.27 1.56325 -0.20005 0
M  V30 3495 C 320.519 1.96895 0.437652 0
M  V30 3496 C 320.832 1.08999 1.62415 0
M  V30 3497 O 322.038 1.39372 2.32997 0
M  V30 3498 C 320.494 3.50198 0.830025 0
M  V30 3499 C 320.102 4.46765 -0.332461 0
M  V30 3500 C 321.846 3.99526 1.43453 0
M  V30 3501 C 319.753 5.91344 0.0811468 0
M  V30 3502 H 318.683 0.735209 0.167282 0
M  V30 3503 H 321.334 1.81148 -0.292853 0
M  V30 3504 H 319.716 3.61467 1.61734 0
M  V30 3505 H 320.89 4.47231 -1.11 0
M  V30 3506 H 319.205 4.07657 -0.848789 0
M  V30 3507 H 321.802 5.05025 1.75652 0
M  V30 3508 H 322.145 3.44122 2.34277 0
M  V30 3509 H 322.678 3.91393 0.71109 0
M  V30 3510 H 319.417 6.50685 -0.793033 0
M  V30 3511 H 318.937 5.94121 0.823445 0
M  V30 3512 H 320.616 6.44945 0.515252 0
M  V30 3513 N 320.748 -0.0735177 1.57428 0
M  V30 3514 C 321.995 -0.772999 1.87166 0
M  V30 3515 C 322.323 -1.77665 0.791551 0
M  V30 3516 O 321.578 -1.94541 -0.212636 0
M  V30 3517 C 321.877 -1.51799 3.23561 0
M  V30 3518 C 321.543 -0.654484 4.46125 0
M  V30 3519 C 320.205 -0.416511 4.79394 0
M  V30 3520 C 322.557 -0.0555862 5.2117 0
M  V30 3521 C 319.885 0.429869 5.85123 0
M  V30 3522 C 322.237 0.778239 6.27795 0
M  V30 3523 C 320.901 1.0261 6.59566 0
M  V30 3524 H 320.171 -0.282861 0.684888 0
M  V30 3525 H 322.818 -0.0338272 1.9147 0
M  V30 3526 H 321.123 -2.32932 3.1504 0
M  V30 3527 H 322.82 -2.06397 3.43804 0
M  V30 3528 H 319.41 -0.850091 4.20085 0
M  V30 3529 H 323.594 -0.226558 4.95783 0
M  V30 3530 H 318.85 0.630665 6.08139 0
M  V30 3531 H 323.024 1.24906 6.85107 0
M  V30 3532 H 320.651 1.68371 7.4132 0
M  V30 3533 N 322.226 -1.5378 -0.344866 0
M  V30 3534 C 323.503 -1.61589 -1.10219 0
M  V30 3535 C 323.883 -0.436316 -2.06542 0
M  V30 3536 O 323.231 0.571543 -2.21237 0
M  V30 3537 C 323.441 -2.97602 -1.82301 0
M  V30 3538 C 324.789 -3.5291 -2.36093 0
M  V30 3539 O 325.813 -2.99768 -1.924 0
M  V30 3540 O 324.672 -4.45859 -3.16026 0
M  V30 3541 H 321.766 -0.653522 -0.506792 0
M  V30 3542 H 324.312 -1.66126 -0.346465 0
M  V30 3543 H 323.084 -3.74893 -1.12121 0
M  V30 3544 H 322.707 -2.9665 -2.64735 0
M  V30 3545 N 323.704 0.605807 -1.45491 0
M  V30 3546 C 324.667 1.69836 -1.5391 0
M  V30 3547 C 325.667 1.55261 -0.418424 0
M  V30 3548 O 326.857 1.60296 -0.681965 0
M  V30 3549 C 323.989 3.09117 -1.43734 0
M  V30 3550 H 325.182 1.63738 -2.51257 0
M  V30 3551 H 322.735 0.821689 -1.32959 0
M  V30 3552 H 323.47 3.20791 -0.475788 0
M  V30 3553 H 323.255 3.21104 -2.25021 0
M  V30 3554 H 324.745 3.88696 -1.52661 0
M  V30 3555 N 325.182 1.32811 0.848464 0
M  V30 3556 C 326.112 1.24882 1.97299 0
M  V30 3557 C 327.093 0.131357 1.69592 0
M  V30 3558 O 328.278 0.319553 1.91553 0
M  V30 3559 C 325.408 0.97746 3.33261 0
M  V30 3560 C 324.362 2.05682 3.75338 0
M  V30 3561 C 323.688 1.63777 5.09 0
M  V30 3562 C 324.988 3.47254 3.90144 0
M  V30 3563 H 326.682 2.18966 2.04191 0
M  V30 3564 H 324.228 1.05413 0.981029 0
M  V30 3565 H 326.181 0.908513 4.1149 0
M  V30 3566 H 324.905 0.000980011 3.266 0
M  V30 3567 H 323.564 2.11603 2.99366 0
M  V30 3568 H 323.212 0.648569 4.98801 0
M  V30 3569 H 322.912 2.36 5.38124 0
M  V30 3570 H 324.436 1.5833 5.89715 0
M  V30 3571 H 325.85 3.43888 4.58709 0
M  V30 3572 H 324.247 4.1788 4.30693 0
M  V30 3573 H 325.317 3.86462 2.92874 0
M  V30 3574 N 326.66 -1.06551 1.16123 0
M  V30 3575 C 327.937 -1.76097 0.85142 0
M  V30 3576 C 328.317 -2.00802 -0.6513 0
M  V30 3577 O 327.665 -1.63302 -1.59827 0
M  V30 3578 C 327.875 -3.06384 1.67122 0
M  V30 3579 C 329.223 -3.80585 1.88255 0
M  V30 3580 O 330.247 -3.16218 1.63966 0
M  V30 3581 O 329.106 -4.96212 2.2899 0
M  V30 3582 H 326.2 -0.765102 0.313923 0
M  V30 3583 H 328.746 -1.12844 1.26745 0
M  V30 3584 H 327.518 -2.84071 2.69108 0
M  V30 3585 H 327.141 -3.77371 1.25206 0
M  V30 3586 N 328.138 -0.959301 -1.25041 0
M  V30 3587 C 329.554 -0.664474 -1.4511 0
M  V30 3588 C 329.754 0.776481 -1.85938 0
M  V30 3589 O 328.81 1.55128 -1.99227 0
M  V30 3590 C 330.123 -1.64139 -2.5195 0
M  V30 3591 C 331.671 -1.65309 -2.65786 0
M  V30 3592 C 332.146 -2.61777 -3.75815 0
M  V30 3593 N 333.637 -2.60169 -3.83231 0
M  V30 3594 C 334.372 -3.31489 -4.6787 0
M  V30 3595 N 333.868 -4.12298 -5.56761 0
M  V30 3596 N 335.661 -3.20354 -4.61876 0
M  V30 3597 H 327.812 -1.89043 -0.968332 0
M  V30 3598 H 330.075 -0.813408 -0.4869 0
M  V30 3599 H 329.781 -2.67086 -2.28819 0
M  V30 3600 H 329.655 -1.40756 -3.49954 0
M  V30 3601 H 332.042 -0.630778 -2.8828 0
M  V30 3602 H 332.123 -1.92753 -1.68167 0
M  V30 3603 H 331.767 -3.64137 -3.54071 0
M  V30 3604 H 331.697 -2.31616 -4.72929 0
M  V30 3605 H 334.188 -2.01507 -3.19692 0
M  V30 3606 H 334.501 -4.63625 -6.18281 0
M  V30 3607 H 332.846 -4.16395 -5.56454 0
M  V30 3608 H 336.037 -2.56692 -3.91442 0
M  V30 3609 H 336.21 -3.76201 -5.27614 0
M  V30 3610 N 329.616 1.39756 -0.72842 0
M  V30 3611 C 330.579 2.29012 -0.0927297 0
M  V30 3612 C 331.579 1.45992 0.674025 0
M  V30 3613 O 332.769 1.66749 0.50402 0
M  V30 3614 C 329.901 3.29396 0.878137 0
M  V30 3615 H 331.094 2.86729 -0.879011 0
M  V30 3616 H 328.647 1.48293 -0.493847 0
M  V30 3617 H 329.382 2.76722 1.69101 0
M  V30 3618 H 329.167 3.907 0.331051 0
M  V30 3619 H 330.657 3.96199 1.3197 0
M  V30 3620 N 331.094 0.475555 1.50254 0
M  V30 3621 C 332.024 -0.30611 2.31485 0
M  V30 3622 C 333.005 -0.986228 1.38591 0
M  V30 3623 O 334.19 -0.982541 1.67511 0
M  V30 3624 C 331.32 -1.38588 3.1845 0
M  V30 3625 C 330.274 -0.827115 4.19932 0
M  V30 3626 C 329.6 -2.00551 4.95665 0
M  V30 3627 C 330.9 0.16463 5.2204 0
M  V30 3628 H 332.594 0.371866 2.97082 0
M  V30 3629 H 330.14 0.180282 1.42867 0
M  V30 3630 H 332.093 -1.94023 3.74076 0
M  V30 3631 H 330.817 -2.09269 2.50747 0
M  V30 3632 H 329.476 -0.294702 3.65414 0
M  V30 3633 H 329.124 -2.6994 4.2443 0
M  V30 3634 H 328.824 -1.63784 5.64313 0
M  V30 3635 H 330.348 -2.56468 5.54127 0
M  V30 3636 H 331.762 -0.300699 5.72511 0
M  V30 3637 H 330.159 0.446813 5.98434 0
M  V30 3638 H 331.229 1.08905 4.72512 0
M  V30 3639 N 332.573 -1.56217 0.208337 0
M  V30 3640 C 333.523 -2.16324 -0.720281 0
M  V30 3641 C 334.507 -1.10775 -1.16695 0
M  V30 3642 O 335.699 -1.36801 -1.12314 0
M  V30 3643 C 332.828 -2.83644 -1.93393 0
M  V30 3644 C 331.914 -3.96401 -1.50755 0
M  V30 3645 N 332.305 -4.99546 -0.792937 0
M  V30 3646 C 330.603 -4.08246 -1.79585 0
M  V30 3647 C 331.304 -5.78828 -0.577364 0
M  V30 3648 N 330.28 -5.31723 -1.1301 0
M  V30 3649 H 334.082 -2.93432 -0.165725 0
M  V30 3650 H 331.596 -1.62397 0.00906463 0
M  V30 3651 H 333.593 -3.25107 -2.60981 0
M  V30 3652 H 332.253 -2.08027 -2.49308 0
M  V30 3653 H 333.264 -5.15967 -0.447004 0
M  V30 3654 H 329.941 -3.4377 -2.36915 0
M  V30 3655 H 331.331 -6.71899 -0.00952956 0
M  V30 3656 N 334.051 0.0651679 -1.57465 0
M  V30 3657 C 335.299 0.761555 -1.87202 0
M  V30 3658 C 335.62 1.77778 -0.801243 0
M  V30 3659 O 334.89 1.95166 0.16937 0
M  V30 3660 H 333.47 0.284251 -0.690804 0
M  V30 3661 H 336.132 0.0396827 -1.9486 0
M  V30 3662 H 335.228 1.27365 -2.84929 0
M  V30 3663 N 335.529 1.53961 0.336706 0
M  V30 3664 C 336.759 1.75229 1.09446 0
M  V30 3665 C 337.167 0.494602 1.82621 0
M  V30 3666 O 336.51 -0.543764 1.75468 0
M  V30 3667 C 336.572 2.88288 2.1478 0
M  V30 3668 C 336.236 4.27656 1.6112 0
M  V30 3669 C 337.233 5.08981 1.0599 0
M  V30 3670 C 334.918 4.74161 1.6576 0
M  V30 3671 C 336.912 6.34916 0.562129 0
M  V30 3672 C 334.599 6.00067 1.15595 0
M  V30 3673 C 335.597 6.80278 0.609147 0
M  V30 3674 O 335.285 8.03818 0.114999 0
M  V30 3675 H 335.017 0.588881 0.331956 0
M  V30 3676 H 337.571 2.01614 0.392566 0
M  V30 3677 H 335.801 2.57443 2.88548 0
M  V30 3678 H 337.49 2.97461 2.76174 0
M  V30 3679 H 338.256 4.74213 1.01722 0
M  V30 3680 H 334.135 4.11781 2.07261 0
M  V30 3681 H 337.679 6.9747 0.134668 0
M  V30 3682 H 333.576 6.3433 1.19566 0
M  V30 3683 H 334.344 8.18172 0.231651 0
M  V30 3684 N 337.007 -0.598083 1.45811 0
M  V30 3685 C 337.939 -1.72231 1.51225 0
M  V30 3686 C 338.952 -1.57757 0.402059 0
M  V30 3687 O 340.141 -1.65464 0.669624 0
M  V30 3688 C 337.241 -3.10331 1.3619 0
M  V30 3689 C 336.414 -3.50955 2.61054 0
M  V30 3690 C 335.473 -4.68055 2.40439 0
M  V30 3691 O 334.499 -4.74691 3.14097 0
M  V30 3692 N 335.701 -5.61941 1.45612 0
M  V30 3693 H 338.466 -1.68046 2.48154 0
M  V30 3694 H 336.027 -0.783637 1.41671 0
M  V30 3695 H 338.019 -3.86439 1.20195 0
M  V30 3696 H 336.589 -3.0897 0.475015 0
M  V30 3697 H 335.809 -2.64711 2.92099 0
M  V30 3698 H 337.097 -3.74858 3.44034 0
M  V30 3699 H 336.495 -5.59301 0.848431 0
M  V30 3700 H 335.052 -6.37542 1.35585 0
M  V30 3701 N 338.485 -1.33259 -0.841409 0
M  V30 3702 C 339.432 -1.23302 -1.95103 0
M  V30 3703 C 340.402 -0.112204 -1.65721 0
M  V30 3704 O 341.587 -0.290038 -1.88583 0
M  V30 3705 C 338.727 -0.975583 -3.31023 0
M  V30 3706 C 337.84 -2.18243 -3.72819 0
M  V30 3707 C 336.975 -1.85936 -4.97595 0
M  V30 3708 C 336.014 -3.02866 -5.3192 0
M  V30 3709 N 335.151 -2.70565 -6.47873 0
M  V30 3710 H 339.991 -2.18207 -2.02952 0
M  V30 3711 H 337.528 -1.0851 -0.993173 0
M  V30 3712 H 339.486 -0.80677 -4.09325 0
M  V30 3713 H 338.116 -0.0632755 -3.22738 0
M  V30 3714 H 337.168 -2.46107 -2.90061 0
M  V30 3715 H 338.48 -3.05666 -3.94169 0
M  V30 3716 H 337.634 -1.65684 -5.83638 0
M  V30 3717 H 336.373 -0.957452 -4.78209 0
M  V30 3718 H 335.378 -3.23736 -4.44382 0
M  V30 3719 H 336.603 -3.93809 -5.53255 0
M  V30 3720 H 334.549 -1.8293 -6.29978 0
M  V30 3721 H 334.466 -3.51519 -6.69306 0
M  V30 3722 H 335.734 -2.53774 -7.37034 0
M  V30 3723 N 339.963 1.05934 -1.16686 0
M  V30 3724 C 340.893 2.1546 -0.899949 0
M  V30 3725 C 341.874 1.69391 0.155154 0
M  V30 3726 O 343.059 1.94199 0.00648693 0
M  V30 3727 C 340.189 3.44939 -0.404241 0
M  V30 3728 C 339.143 4.04536 -1.39767 0
M  V30 3729 C 338.469 5.29268 -0.760216 0
M  V30 3730 C 339.769 4.42893 -2.76845 0
M  V30 3731 H 341.463 2.38046 -1.81588 0
M  V30 3732 H 339.009 1.14404 -0.874514 0
M  V30 3733 H 340.962 4.20901 -0.204971 0
M  V30 3734 H 339.686 3.21983 0.547206 0
M  V30 3735 H 338.345 3.30635 -1.58355 0
M  V30 3736 H 337.993 5.02611 0.197831 0
M  V30 3737 H 337.693 5.70101 -1.42332 0
M  V30 3738 H 339.217 6.07924 -0.57105 0
M  V30 3739 H 340.631 5.09921 -2.62019 0
M  V30 3740 H 339.028 4.94721 -3.39663 0
M  V30 3741 H 340.098 3.53584 -3.31823 0
M  V30 3742 N 341.441 0.965919 1.2453 0
M  V30 3743 C 342.666 0.643971 1.97149 0
M  V30 3744 C 343.091 -0.779487 1.71189 0
M  V30 3745 O 342.449 -1.5288 0.974553 0
M  V30 3746 C 342.497 0.922557 3.48599 0
M  V30 3747 O 341.601 0.00707672 4.12399 0
M  V30 3748 H 340.942 0.243647 0.617683 0
M  V30 3749 H 343.472 1.29558 1.58353 0
M  V30 3750 H 343.482 0.853373 3.98976 0
M  V30 3751 H 342.157 1.95996 3.66822 0
M  V30 3752 H 340.734 0.12943 3.72675 0
M  V30 3753 N 342.919 -1.39368 0.735821 0
M  V30 3754 C 344.165 -2.00794 0.284544 0
M  V30 3755 C 344.498 -1.58255 -1.12557 0
M  V30 3756 O 343.773 -0.811819 -1.76748 0
M  V30 3757 C 344.056 -3.58011 0.387337 0
M  V30 3758 C 343.909 -4.10566 1.83728 0
M  V30 3759 C 345.228 -4.395 -0.22975 0
M  V30 3760 H 342.347 -0.729501 0.104866 0
M  V30 3761 H 344.989 -1.65564 0.93213 0
M  V30 3762 H 343.139 -3.88154 -0.164006 0
M  V30 3763 H 344.811 -3.91139 2.44556 0
M  V30 3764 H 343.054 -3.64095 2.35833 0
M  V30 3765 H 343.725 -5.19702 1.86047 0
M  V30 3766 H 346.201 -4.15406 0.240257 0
M  V30 3767 H 345.077 -5.48752 -0.127485 0
M  V30 3768 H 345.338 -4.22062 -1.3159 0
M  V30 3769 N 344.397 -0.483516 -1.5 0
M  V30 3770 C 345.347 0.32306 -2.257 0
M  V30 3771 C 346.331 0.950755 -1.29805 0
M  V30 3772 O 347.523 0.861247 -1.54634 0
M  V30 3773 C 344.652 1.39724 -3.13579 0
M  V30 3774 C 343.738 0.776663 -4.16928 0
M  V30 3775 N 344.129 -0.1104 -5.0568 0
M  V30 3776 C 342.427 1.03922 -4.33724 0
M  V30 3777 C 343.128 -0.46387 -5.79848 0
M  V30 3778 N 342.104 0.163987 -5.43353 0
M  V30 3779 H 345.906 -0.360086 -2.91686 0
M  V30 3780 H 343.42 -0.298456 -1.59634 0
M  V30 3781 H 345.417 1.98837 -3.66428 0
M  V30 3782 H 344.077 2.08225 -2.49143 0
M  V30 3783 H 345.088 -0.480069 -5.1567 0
M  V30 3784 H 341.765 1.71829 -3.80501 0
M  V30 3785 H 343.155 -1.18854 -6.61304 0
M  V30 3786 N 345.875 1.56104 -0.216619 0
M  V30 3787 C 347.286 1.844 0.292128 0
M  V30 3788 C 347.637 1.13788 1.59833 0
M  V30 3789 O 346.762 0.405888 2.12559 0
M  V30 3790 C 347.357 3.3452 0.53681 0
M  V30 3791 C 345.916 3.63151 0.989876 0
M  V30 3792 C 345.063 2.77255 0.0502302 0
M  V30 3793 H 348.014 1.52481 -0.439926 0
M  V30 3794 H 348.035 3.54459 1.38345 0
M  V30 3795 H 347.547 3.85885 -0.414031 0
M  V30 3796 H 345.648 3.17238 1.95425 0
M  V30 3797 H 345.761 4.71177 0.867698 0
M  V30 3798 H 344.125 2.48555 0.556117 0
M  V30 3799 H 344.908 3.31416 -0.89544 0
M  V30 3800 N 347.353 -0.0568162 1.57498 0
M  V30 3801 C 348.6 -0.753104 1.87975 0
M  V30 3802 C 348.928 -1.76815 0.81035 0
M  V30 3803 O 348.183 -1.94756 -0.19199 0
M  V30 3804 C 348.482 -1.48359 3.25153 0
M  V30 3805 C 348.148 -0.60713 4.46794 0
M  V30 3806 C 346.81 -0.365642 4.79809 0
M  V30 3807 C 349.162 -0.000305978 5.212 0
M  V30 3808 C 346.49 0.491905 5.84634 0
M  V30 3809 C 348.842 0.844781 6.26934 0
M  V30 3810 C 347.506 1.096 6.58441 0
M  V30 3811 H 346.776 -0.27558 0.687849 0
M  V30 3812 H 349.423 -0.0135173 1.91495 0
M  V30 3813 H 347.728 -2.29577 3.17492 0
M  V30 3814 H 349.425 -2.02739 3.45974 0
M  V30 3815 H 346.015 -0.805487 4.20963 0
M  V30 3816 H 350.199 -0.173961 4.95995 0
M  V30 3817 H 345.455 0.695131 6.07436 0
M  V30 3818 H 349.629 1.32165 6.83744 0
M  V30 3819 H 347.256 1.76224 7.39492 0
M  V30 3820 N 348.832 -1.54138 -0.328536 0
M  V30 3821 C 350.248 -1.44736 -0.672574 0
M  V30 3822 C 350.448 -0.616217 -1.91846 0
M  V30 3823 O 349.504 -0.113067 -2.52247 0
M  V30 3824 C 350.817 -2.884 -0.851217 0
M  V30 3825 C 352.365 -2.98271 -0.948877 0
M  V30 3826 C 352.84 -4.43074 -1.15973 0
M  V30 3827 N 354.331 -4.46665 -1.22658 0
M  V30 3828 C 355.066 -5.55857 -1.40751 0
M  V30 3829 N 354.562 -6.75026 -1.5592 0
M  V30 3830 N 356.355 -5.43495 -1.4342 0
M  V30 3831 H 348.506 -2.06661 0.490421 0
M  V30 3832 H 350.769 -0.934812 0.157579 0
M  V30 3833 H 350.475 -3.51699 -0.00704236 0
M  V30 3834 H 350.349 -3.34225 -1.74853 0
M  V30 3835 H 352.736 -2.35102 -1.78356 0
M  V30 3836 H 352.817 -2.55785 -0.0281435 0
M  V30 3837 H 352.461 -5.06827 -0.329915 0
M  V30 3838 H 352.391 -4.83165 -2.09426 0
M  V30 3839 H 354.882 -3.60797 -1.124 0
M  V30 3840 H 355.195 -7.54004 -1.69404 0
M  V30 3841 H 353.54 -6.77944 -1.53027 0
M  V30 3842 H 356.731 -4.49349 -1.31162 0
M  V30 3843 H 356.904 -6.28649 -1.57178 0
M  V30 3844 N 350.31 0.590341 -1.46126 0
M  V30 3845 C 351.726 0.912917 -1.30912 0
M  V30 3846 C 351.926 1.99616 -0.274893 0
M  V30 3847 O 350.982 2.50397 0.325197 0
M  V30 3848 C 352.295 1.3375 -2.69317 0
M  V30 3849 C 353.843 1.45077 -2.77348 0
M  V30 3850 C 354.318 1.90904 -4.16317 0
M  V30 3851 N 355.809 1.9811 -4.18696 0
M  V30 3852 C 356.544 2.34828 -5.23109 0
M  V30 3853 N 356.04 2.70393 -6.37856 0
M  V30 3854 N 357.833 2.35317 -5.10473 0
M  V30 3855 H 349.984 -0.125358 -2.1203 0
M  V30 3856 H 352.247 0.00658481 -0.947977 0
M  V30 3857 H 351.953 0.615614 -3.4627 0
M  V30 3858 H 351.827 2.30058 -2.9892 0
M  V30 3859 H 354.214 2.16353 -2.00687 0
M  V30 3860 H 354.295 0.4704 -2.51438 0
M  V30 3861 H 353.939 1.20209 -4.9347 0
M  V30 3862 H 353.869 2.89886 -4.39629 0
M  V30 3863 H 356.36 1.73146 -3.359 0
M  V30 3864 H 356.673 2.97341 -7.13308 0
M  V30 3865 H 355.018 2.68048 -6.41229 0
M  V30 3866 H 358.209 2.0695 -4.19868 0
M  V30 3867 H 358.382 2.63605 -5.9196 0
M  V30 3868 N 351.788 1.33704 0.83433 0
M  V30 3869 C 352.751 1.24244 1.92603 0
M  V30 3870 C 353.751 0.160383 1.59998 0
M  V30 3871 O 354.941 0.412228 1.69252 0
M  V30 3872 C 352.073 0.91555 3.28376 0
M  V30 3873 H 353.266 2.21287 2.02416 0
M  V30 3874 H 350.819 1.17827 1.02696 0
M  V30 3875 H 351.554 -0.0521886 3.24258 0
M  V30 3876 H 351.339 1.69811 3.53422 0
M  V30 3877 H 352.829 0.874231 4.08347 0
M  V30 3878 N 353.266 -1.05314 1.17247 0
M  V30 3879 C 354.229 -2.112 0.890357 0
M  V30 3880 C 355.229 -1.60359 -0.118943 0
M  V30 3881 O 356.419 -1.73833 0.113086 0
M  V30 3882 C 353.551 -3.39266 0.333422 0
M  V30 3883 H 354.744 -2.37659 1.82916 0
M  V30 3884 H 352.297 -1.21538 0.982758 0
M  V30 3885 H 353.032 -3.18462 -0.612587 0
M  V30 3886 H 352.817 -3.77477 1.06082 0
M  V30 3887 H 354.307 -4.17315 0.154322 0
M  V30 3888 N 354.744 -0.972509 -1.24016 0
M  V30 3889 C 355.654 -0.5143 -2.28893 0
M  V30 3890 C 356.67 0.427078 -1.68677 0
M  V30 3891 O 357.846 0.298939 -1.99169 0
M  V30 3892 C 354.911 0.183598 -3.46214 0
M  V30 3893 C 353.972 -0.798202 -4.21814 0
M  V30 3894 C 353.205 -0.133514 -5.33533 0
M  V30 3895 O 353.428 1.07714 -5.60137 0
M  V30 3896 O 352.362 -0.828103 -5.96176 0
M  V30 3897 H 356.188 -1.38629 -2.70214 0
M  V30 3898 H 353.773 -0.739769 -1.29799 0
M  V30 3899 H 355.655 0.575433 -4.17453 0
M  V30 3900 H 354.33 1.03048 -3.0686 0
M  V30 3901 H 353.237 -1.24059 -3.52931 0
M  V30 3902 H 354.57 -1.61364 -4.64997 0
M  V30 3903 N 356.222 1.38976 -0.743202 0
M  V30 3904 C 357.471 1.99581 -0.291592 0
M  V30 3905 C 357.784 1.59656 1.13001 0
M  V30 3906 O 358.99 2.13157 1.68156 0
M  V30 3907 C 357.446 3.56813 -0.470391 0
M  V30 3908 C 357.054 4.05695 -1.90041 0
M  V30 3909 C 358.798 4.24423 -0.0809709 0
M  V30 3910 C 356.705 5.5553 -2.02832 0
M  V30 3911 H 355.635 0.746615 -0.105272 0
M  V30 3912 H 358.286 1.58872 -0.918258 0
M  V30 3913 H 356.668 3.95359 0.225299 0
M  V30 3914 H 357.842 3.78464 -2.62872 0
M  V30 3915 H 356.157 3.50775 -2.24379 0
M  V30 3916 H 358.754 5.34474 -0.155445 0
M  V30 3917 H 359.097 4.04962 0.96497 0
M  V30 3918 H 359.63 3.9108 -0.728124 0
M  V30 3919 H 356.369 5.79881 -3.05643 0
M  V30 3920 H 355.889 5.84537 -1.34448 0
M  V30 3921 H 357.568 6.21069 -1.81335 0
M  V30 3922 N 357.7 0.491464 1.49741 0
M  V30 3923 C 359.116 0.146835 1.58923 0
M  V30 3924 C 359.316 -1.34804 1.49767 0
M  V30 3925 O 358.372 -2.12317 1.36667 0
M  V30 3926 C 359.685 0.715157 2.92072 0
M  V30 3927 C 361.233 0.680407 3.05515 0
M  V30 3928 C 361.708 1.22663 4.41269 0
M  V30 3929 N 363.199 1.18691 4.47735 0
M  V30 3930 C 363.934 1.57984 5.51207 0
M  V30 3931 N 363.43 2.04824 6.6183 0
M  V30 3932 N 365.223 1.49459 5.41866 0
M  V30 3933 H 357.374 1.46347 1.53936 0
M  V30 3934 H 359.637 0.606453 0.728642 0
M  V30 3935 H 359.343 1.76317 3.04311 0
M  V30 3936 H 359.217 0.17018 3.76816 0
M  V30 3937 H 361.604 -0.358743 2.92911 0
M  V30 3938 H 361.685 1.26242 2.22478 0
M  V30 3939 H 361.329 2.26451 4.54623 0
M  V30 3940 H 361.259 0.620637 5.2293 0
M  V30 3941 H 363.75 0.843605 3.68364 0
M  V30 3942 H 364.063 2.32901 7.3687 0
M  V30 3943 H 362.408 2.08791 6.62896 0
M  V30 3944 H 365.599 1.12692 4.54333 0
M  V30 3945 H 365.772 1.80406 6.22381 0
M  V30 3946 N 359.178 -1.55987 0.224894 0
M  V30 3947 C 360.141 -2.19178 -0.670348 0
M  V30 3948 C 361.141 -1.15461 -1.11917 0
M  V30 3949 O 362.331 -1.40675 -1.02743 0
M  V30 3950 C 359.463 -2.81777 -1.9187 0
M  V30 3951 H 360.656 -2.99662 -0.119364 0
M  V30 3952 H 358.209 -1.5628 -0.0247128 0
M  V30 3953 H 358.944 -2.05172 -2.51147 0
M  V30 3954 H 358.729 -3.57732 -1.60531 0
M  V30 3955 H 360.219 -3.30205 -2.55645 0
M  V30 3956 N 360.656 0.0484629 -1.57525 0
M  V30 3957 C 361.586 1.0549 -2.08313 0
M  V30 3958 C 362.567 1.38929 -0.981463 0
M  V30 3959 O 363.752 1.48151 -1.25558 0
M  V30 3960 C 360.882 2.36162 -2.54646 0
M  V30 3961 C 359.836 2.17016 -3.68901 0
M  V30 3962 C 359.162 3.53278 -4.01371 0
M  V30 3963 C 360.462 1.57219 -4.98076 0
M  V30 3964 H 362.156 0.632195 -2.92649 0
M  V30 3965 H 359.702 0.302654 -1.40784 0
M  V30 3966 H 361.655 3.06882 -2.88793 0
M  V30 3967 H 360.379 2.80456 -1.67368 0
M  V30 3968 H 359.038 1.48733 -3.35073 0
M  V30 3969 H 358.686 3.95185 -3.11188 0
M  V30 3970 H 358.386 3.41299 -4.78318 0
M  V30 3971 H 359.91 4.25391 -4.38035 0
M  V30 3972 H 361.324 2.17832 -5.30304 0
M  V30 3973 H 359.721 1.55871 -5.79503 0
M  V30 3974 H 360.791 0.535956 -4.81929 0
M  V30 3975 N 362.134 1.5431 0.320358 0
M  V30 3976 C 363.411 1.63322 1.07635 0
M  V30 3977 C 363.791 0.46912 2.05821 0
M  V30 3978 O 363.139 -0.536274 2.22118 0
M  V30 3979 C 363.349 3.00465 1.77544 0
M  V30 3980 C 364.697 3.56621 2.30449 0
M  V30 3981 O 365.721 3.02791 1.87606 0
M  V30 3982 O 364.58 4.5083 3.08892 0
M  V30 3983 H 361.674 0.661502 0.496331 0
M  V30 3984 H 364.22 1.66656 0.319992 0
M  V30 3985 H 362.992 3.76629 1.06143 0
M  V30 3986 H 362.615 3.00824 2.59982 0
M  V30 3987 N 363.613 -0.582584 1.46437 0
M  V30 3988 C 364.859 -1.34064 1.52965 0
M  V30 3989 C 365.214 -1.91566 0.178968 0
M  V30 3990 O 364.507 -1.73526 -0.812365 0
M  V30 3991 C 364.701 -2.48964 2.56421 0
M  V30 3992 C 364.53 -2.02717 4.01417 0
M  V30 3993 C 363.3 -1.87728 4.69134 0
M  V30 3994 C 365.498 -1.58675 4.8921 0
M  V30 3995 N 363.48 -1.35554 5.98747 0
M  V30 3996 C 364.851 -1.18093 6.08649 0
M  V30 3997 C 366.906 -1.46494 4.75861 0
M  V30 3998 C 365.609 -0.665427 7.16215 0
M  V30 3999 C 367.635 -0.96347 5.83499 0
M  V30 4000 C 366.997 -0.567432 7.02111 0
M  V30 4001 H 363.096 -0.483551 0.614575 0
M  V30 4002 H 365.68 -0.663309 1.83053 0
M  V30 4003 H 363.851 -3.1426 2.28244 0
M  V30 4004 H 365.583 -3.15913 2.52944 0
M  V30 4005 H 362.338 -2.09678 4.24655 0
M  V30 4006 H 362.762 -1.11628 6.67734 0
M  V30 4007 H 367.404 -1.75731 3.8455 0
M  V30 4008 H 365.122 -0.360639 8.07295 0
M  V30 4009 H 368.708 -0.873129 5.75211 0
M  V30 4010 H 367.588 -0.185389 7.83981 0
M  V30 4011 N 365.091 -1.34144 -0.827227 0
M  V30 4012 C 366.021 -1.28005 -1.95287 0
M  V30 4013 C 367.002 -0.158321 -1.69362 0
M  V30 4014 O 368.187 -0.349987 -1.9102 0
M  V30 4015 C 365.317 -1.03036 -3.31664 0
M  V30 4016 C 364.271 -2.11628 -3.72019 0
M  V30 4017 C 363.597 -1.71854 -5.0633 0
M  V30 4018 C 364.897 -3.53417 -3.8457 0
M  V30 4019 H 366.591 -2.22187 -2.00682 0
M  V30 4020 H 364.137 -1.0696 -0.964135 0
M  V30 4021 H 366.09 -0.973863 -4.09993 0
M  V30 4022 H 364.814 -0.0529391 -3.26557 0
M  V30 4023 H 363.473 -2.16339 -2.95961 0
M  V30 4024 H 363.121 -0.727841 -4.97706 0
M  V30 4025 H 362.821 -2.44531 -5.34302 0
M  V30 4026 H 364.345 -1.67692 -5.87122 0
M  V30 4027 H 365.759 -3.51142 -4.5318 0
M  V30 4028 H 364.156 -4.24679 -4.2399 0
M  V30 4029 H 365.226 -3.91072 -2.86689 0
M  V30 4030 N 366.569 1.04691 -1.17803 0
M  V30 4031 C 367.499 2.14494 -0.92275 0
M  V30 4032 C 368.48 1.69546 0.137179 0
M  V30 4033 O 369.665 1.94195 -0.0141108 0
M  V30 4034 C 366.795 3.44491 -0.440803 0
M  V30 4035 C 365.749 4.03031 -1.4405 0
M  V30 4036 C 365.075 5.28432 -0.81631 0
M  V30 4037 C 366.375 4.39932 -2.81527 0
M  V30 4038 H 368.069 2.36107 -1.84103 0
M  V30 4039 H 365.615 1.1347 -0.886599 0
M  V30 4040 H 367.568 4.2066 -0.249602 0
M  V30 4041 H 366.292 3.22546 0.513025 0
M  V30 4042 H 364.951 3.28937 -1.61853 0
M  V30 4043 H 364.599 5.02792 0.144511 0
M  V30 4044 H 364.299 5.68559 -1.48371 0
M  V30 4045 H 365.823 6.07284 -0.635496 0
M  V30 4046 H 367.237 5.07113 -2.67412 0
M  V30 4047 H 365.634 4.9109 -3.44892 0
M  V30 4048 H 366.704 3.50045 -3.35554 0
M  V30 4049 N 368.047 0.979072 1.23499 0
M  V30 4050 C 368.957 0.526431 2.28617 0
M  V30 4051 C 369.973 -0.418126 1.68901 0
M  V30 4052 O 371.149 -0.288372 1.99325 0
M  V30 4053 C 368.214 -0.165235 3.46306 0
M  V30 4054 C 367.275 0.82056 4.21385 0
M  V30 4055 C 366.508 0.161807 5.33455 0
M  V30 4056 O 366.731 -1.04742 5.60701 0
M  V30 4057 O 365.665 0.859708 5.95729 0
M  V30 4058 H 369.491 1.4006 2.69475 0
M  V30 4059 H 367.076 0.746643 1.29405 0
M  V30 4060 H 368.958 -0.553287 4.17752 0
M  V30 4061 H 367.633 -1.01419 3.07402 0
M  V30 4062 H 366.54 1.25929 3.52268 0
M  V30 4063 H 367.873 1.63828 4.64135 0
M  V30 4064 N 369.525 -1.3858 0.750561 0
M  V30 4065 C 370.941 -1.53759 0.427824 0
M  V30 4066 C 371.141 -1.71401 -1.05943 0
M  V30 4067 O 370.197 -1.72331 -1.84549 0
M  V30 4068 C 371.51 -2.74642 1.22443 0
M  V30 4069 C 373.058 -2.88489 1.2142 0
M  V30 4070 C 373.533 -4.12329 1.9937 0
M  V30 4071 N 375.024 -4.194 1.96616 0
M  V30 4072 C 375.759 -5.14209 2.53727 0
M  V30 4073 N 375.255 -6.14709 3.19539 0
M  V30 4074 N 377.048 -5.06537 2.43673 0
M  V30 4075 H 369.199 -1.25377 1.71447 0
M  V30 4076 H 371.462 -0.608844 0.726645 0
M  V30 4077 H 371.168 -2.68 2.27747 0
M  V30 4078 H 371.042 -3.67745 0.839273 0
M  V30 4079 H 373.429 -2.94614 0.169232 0
M  V30 4080 H 373.51 -1.96406 1.63885 0
M  V30 4081 H 373.154 -4.06966 3.03877 0
M  V30 4082 H 373.084 -5.03486 1.54302 0
M  V30 4083 H 375.575 -3.47421 1.48684 0
M  V30 4084 H 375.888 -6.8354 3.60545 0
M  V30 4085 H 374.233 -6.1505 3.23633 0
M  V30 4086 H 377.424 -4.26962 1.91889 0
M  V30 4087 H 377.597 -5.80245 2.88479 0
M  V30 4088 N 371.003 -0.499398 -1.49478 0
M  V30 4089 C 371.935 0.316575 -2.27003 0
M  V30 4090 C 372.948 0.932047 -1.33479 0
M  V30 4091 O 374.137 0.815658 -1.58774 0
M  V30 4092 C 371.237 1.46055 -3.05812 0
M  V30 4093 C 370.41 0.952679 -4.26899 0
M  V30 4094 C 369.469 1.97407 -4.87767 0
M  V30 4095 O 368.495 1.54326 -5.4788 0
M  V30 4096 N 369.697 3.30436 -4.77276 0
M  V30 4097 H 372.462 -0.348168 -2.97671 0
M  V30 4098 H 370.023 -0.33185 -1.58463 0
M  V30 4099 H 372.015 2.14135 -3.43407 0
M  V30 4100 H 370.585 2.02948 -2.37762 0
M  V30 4101 H 369.805 0.0968248 -3.94081 0
M  V30 4102 H 371.093 0.59174 -5.05347 0
M  V30 4103 H 370.491 3.68126 -4.29534 0
M  V30 4104 H 369.048 3.94235 -5.19059 0
M  V30 4105 N 372.481 1.55866 -0.233164 0
M  V30 4106 C 373.444 2.1953 0.658715 0
M  V30 4107 C 374.444 1.16053 1.11303 0
M  V30 4108 O 375.634 1.41218 1.01996 0
M  V30 4109 C 372.766 2.82791 1.90373 0
M  V30 4110 H 373.959 2.99721 0.10347 0
M  V30 4111 H 371.512 1.56291 0.0164245 0
M  V30 4112 H 372.247 2.06501 2.50056 0
M  V30 4113 H 372.032 3.58578 1.58632 0
M  V30 4114 H 373.522 3.31556 2.53891 0
M  V30 4115 N 373.959 -0.0401083 1.57549 0
M  V30 4116 C 375.207 -0.731677 1.8839 0
M  V30 4117 C 375.528 -1.76481 0.829425 0
M  V30 4118 O 374.798 -1.95411 -0.1383 0
M  V30 4119 H 373.378 -0.273225 0.695239 0
M  V30 4120 H 376.04 -0.00867725 1.94898 0
M  V30 4121 H 375.136 -1.22816 2.86919 0
M  V30 4122 N 375.437 -1.54477 -0.31217 0
M  V30 4123 C 376.714 -1.63891 -1.06767 0
M  V30 4124 C 377.094 -0.480028 -2.0557 0
M  V30 4125 O 376.442 0.524487 -2.22399 0
M  V30 4126 C 376.652 -3.01402 -1.75948 0
M  V30 4127 C 378 -3.57838 -2.28554 0
M  V30 4128 O 379.024 -3.03782 -1.85998 0
M  V30 4129 O 377.883 -4.52462 -3.06497 0
M  V30 4130 H 374.977 -0.664125 -0.492816 0
M  V30 4131 H 377.523 -1.66823 -0.311149 0
M  V30 4132 H 376.295 -3.77187 -1.04144 0
M  V30 4133 H 375.918 -3.02199 -2.58383 0
M  V30 4134 N 376.915 0.57481 -1.46744 0
M  V30 4135 C 378.163 1.33009 -1.52161 0
M  V30 4136 C 378.484 1.94185 -0.178092 0
M  V30 4137 O 377.754 1.7899 0.796196 0
M  V30 4138 H 376.334 0.493873 -0.560445 0
M  V30 4139 H 378.996 0.672589 -1.82927 0
M  V30 4140 H 378.092 2.13273 -2.27862 0
M  V30 4141 N 378.394 1.34581 0.820102 0
M  V30 4142 C 379.619 1.30333 1.61332 0
M  V30 4143 C 380.044 -0.119339 1.87721 0
M  V30 4144 O 379.402 -1.08197 1.45475 0
M  V30 4145 C 379.45 2.10258 2.92957 0
M  V30 4146 O 378.554 1.47404 3.85157 0
M  V30 4147 H 377.895 0.447488 0.490561 0
M  V30 4148 H 380.425 1.77425 1.01889 0
M  V30 4149 H 380.435 2.21718 3.42498 0
M  V30 4150 H 379.11 3.13693 2.73074 0
M  V30 4151 H 377.687 1.44703 3.43679 0
M  V30 4152 N 379.872 -1.04064 1.18357 0
M  V30 4153 C 381.118 -1.77658 0.990412 0
M  V30 4154 C 381.473 -1.86446 -0.474944 0
M  V30 4155 O 380.766 -1.36153 -1.34807 0
M  V30 4156 C 380.96 -3.20634 1.57888 0
M  V30 4157 C 380.789 -3.25782 3.09994 0
M  V30 4158 C 379.559 -3.34411 3.7881 0
M  V30 4159 C 381.757 -3.13791 4.0748 0
M  V30 4160 N 379.739 -3.28809 5.18418 0
M  V30 4161 C 381.11 -3.15689 5.33611 0
M  V30 4162 C 383.165 -2.97833 3.98998 0
M  V30 4163 C 381.868 -3.03268 6.52243 0
M  V30 4164 C 383.894 -2.86759 5.17227 0
M  V30 4165 C 383.256 -2.893 6.4225 0
M  V30 4166 H 379.355 -0.661901 0.416427 0
M  V30 4167 H 381.939 -1.23968 1.50133 0
M  V30 4168 H 380.11 -3.7267 1.09414 0
M  V30 4169 H 381.842 -3.82525 1.32124 0
M  V30 4170 H 378.597 -3.40144 3.29543 0
M  V30 4171 H 379.021 -3.29448 5.91433 0
M  V30 4172 H 383.663 -2.94698 3.03171 0
M  V30 4173 H 381.381 -3.05156 7.48268 0
M  V30 4174 H 384.967 -2.75465 5.12455 0
M  V30 4175 H 383.847 -2.80818 7.32196 0
M  V30 4176 N 381.35 -0.985608 -1.22978 0
M  V30 4177 C 382.598 -0.656087 -1.91154 0
M  V30 4178 C 382.919 0.813561 -1.77218 0
M  V30 4179 O 382.189 1.58244 -1.1548 0
M  V30 4180 H 380.769 -0.239674 -0.707506 0
M  V30 4181 H 383.431 -1.25054 -1.49491 0
M  V30 4182 H 382.527 -0.912253 -2.9847 0
M  V30 4183 N 382.828 1.3818 -0.7579 0
M  V30 4184 C 384.076 1.99624 -0.315361 0
M  V30 4185 C 384.397 1.60464 1.10799 0
M  V30 4186 O 383.667 0.863507 1.75842 0
M  V30 4187 H 382.247 0.73831 -0.113611 0
M  V30 4188 H 384.909 1.68878 -0.972952 0
M  V30 4189 H 384.005 3.09754 -0.381931 0
M  V30 4190 N 384.306 0.507319 1.49211 0
M  V30 4191 C 385.555 -0.0368315 2.01666 0
M  V30 4192 C 385.868 -1.37459 1.39156 0
M  V30 4193 O 387.074 -2.00579 1.82976 0
M  V30 4194 C 385.53 -0.116089 3.59713 0
M  V30 4195 C 385.138 1.2154 4.31198 0
M  V30 4196 C 386.882 -0.610268 4.2009 0
M  V30 4197 C 384.789 1.09796 5.81119 0
M  V30 4198 H 383.719 -0.0175376 0.753796 0
M  V30 4199 H 386.37 0.647691 1.71689 0
M  V30 4200 H 384.752 -0.8652 3.86433 0
M  V30 4201 H 385.926 1.9783 4.16173 0
M  V30 4202 H 384.241 1.64352 3.82593 0
M  V30 4203 H 386.838 -0.715742 5.29888 0
M  V30 4204 H 387.181 -1.61064 3.8388 0
M  V30 4205 H 387.714 0.0824916 3.97714 0
M  V30 4206 H 384.453 2.0728 6.21864 0
M  V30 4207 H 383.973 0.376058 5.9862 0
M  V30 4208 H 385.652 0.779281 6.4229 0
M  V30 4209 N 385.784 -1.5574 0.241426 0
M  V30 4210 C 386.716 -2.18469 -0.693091 0
M  V30 4211 C 387.729 -1.15942 -1.14286 0
M  V30 4212 O 388.918 -1.42832 -1.07058 0
M  V30 4213 C 386.018 -2.7696 -1.95311 0
M  V30 4214 C 385.191 -4.04853 -1.65568 0
M  V30 4215 C 384.25 -4.47715 -2.76474 0
M  V30 4216 O 383.276 -5.14205 -2.44094 0
M  V30 4217 N 384.478 -4.15044 -4.05855 0
M  V30 4218 H 387.243 -2.99292 -0.156388 0
M  V30 4219 H 384.804 -1.61784 0.0611752 0
M  V30 4220 H 386.796 -3.02594 -2.68736 0
M  V30 4221 H 385.366 -2.00326 -2.39975 0
M  V30 4222 H 384.586 -3.86865 -0.756886 0
M  V30 4223 H 385.874 -4.88246 -1.43153 0
M  V30 4224 H 385.272 -3.61654 -4.34998 0
M  V30 4225 H 383.829 -4.45526 -4.75762 0
M  V30 4226 N 387.262 0.0317525 -1.57568 0
M  V30 4227 C 388.673 0.578692 -1.77505 0
M  V30 4228 C 389.024 1.75749 -0.872164 0
M  V30 4229 O 388.149 2.16298 -0.0663106 0
M  V30 4230 C 388.744 1.05658 -3.21904 0
M  V30 4231 C 387.303 1.54906 -3.43047 0
M  V30 4232 C 386.45 0.485939 -2.73009 0
M  V30 4233 H 389.401 -0.194475 -1.57504 0
M  V30 4234 H 389.422 1.92404 -3.28269 0
M  V30 4235 H 388.934 0.198422 -3.87592 0
M  V30 4236 H 387.035 2.42915 -2.82529 0
M  V30 4237 H 387.148 1.59841 -4.5165 0
M  V30 4238 H 385.512 0.940354 -2.36705 0
M  V30 4239 H 386.295 -0.362709 -3.41379 0
M  V30 4240 N 388.74 1.54641 0.303973 0
M  V30 4241 C 390.151 1.64811 0.877163 0
M  V30 4242 C 390.502 0.554838 1.88191 0
M  V30 4243 O 389.627 -0.309033 2.14182 0
M  V30 4244 C 390.222 2.9876 1.59775 0
M  V30 4245 C 388.781 3.11061 2.11938 0
M  V30 4246 C 387.928 2.60479 0.951097 0
M  V30 4247 H 390.879 1.58493 0.0810486 0
M  V30 4248 H 390.9 2.90017 2.46314 0
M  V30 4249 H 390.412 3.7831 0.866226 0
M  V30 4250 H 388.513 2.36225 2.88146 0
M  V30 4251 H 388.626 4.17171 2.35595 0
M  V30 4252 H 386.99 2.16859 1.33583 0
M  V30 4253 H 387.773 3.42504 0.233581 0
M  V30 4254 N 390.218 -0.567019 1.47046 0
M  V30 4255 C 391.464 -1.32434 1.54379 0
M  V30 4256 C 391.819 -1.91365 0.199276 0
M  V30 4257 O 391.112 -1.74378 -0.793915 0
M  V30 4258 C 391.306 -2.4623 2.59047 0
M  V30 4259 C 391.135 -1.98448 4.03545 0
M  V30 4260 C 389.905 -1.82741 4.71098 0
M  V30 4261 C 392.103 -1.53477 4.90866 0
M  V30 4262 N 390.085 -1.29196 6.00151 0
M  V30 4263 C 391.456 -1.1163 6.09868 0
M  V30 4264 C 393.511 -1.41438 4.77388 0
M  V30 4265 C 392.214 -0.589425 7.16881 0
M  V30 4266 C 394.24 -0.901528 5.84488 0
M  V30 4267 C 393.602 -0.492932 7.02673 0
M  V30 4268 H 389.701 -0.477005 0.61967 0
M  V30 4269 H 392.285 -0.643856 1.83746 0
M  V30 4270 H 390.456 -3.11821 2.31564 0
M  V30 4271 H 392.188 -3.13213 2.56281 0
M  V30 4272 H 388.943 -2.05162 4.26855 0
M  V30 4273 H 389.367 -1.0454 6.6888 0
M  V30 4274 H 394.009 -1.71643 3.86392 0
M  V30 4275 H 391.727 -0.274994 8.07632 0
M  V30 4276 H 395.313 -0.812071 5.76105 0
M  V30 4277 H 394.193 -0.102227 7.84133 0
M  V30 4278 N 391.696 -1.35014 -0.812953 0
M  V30 4279 C 392.943 -1.27931 -1.56971 0
M  V30 4280 C 393.271 0.148034 -1.93936 0
M  V30 4281 O 392.526 1.11175 -1.61054 0
M  V30 4282 C 392.825 -2.12524 -2.87347 0
M  V30 4283 C 392.491 -3.61401 -2.6963 0
M  V30 4284 C 391.153 -4.01983 -2.64506 0
M  V30 4285 C 393.505 -4.55894 -2.52607 0
M  V30 4286 C 390.833 -5.35235 -2.40293 0
M  V30 4287 C 393.185 -5.89336 -2.29925 0
M  V30 4288 C 391.849 -6.2907 -2.23219 0
M  V30 4289 H 391.119 -0.468131 -0.574399 0
M  V30 4290 H 393.766 -1.66851 -0.939836 0
M  V30 4291 H 392.071 -1.66463 -3.54679 0
M  V30 4292 H 393.768 -2.04383 -3.45005 0
M  V30 4293 H 390.358 -3.29193 -2.74463 0
M  V30 4294 H 394.542 -4.25431 -2.55583 0
M  V30 4295 H 389.798 -5.65028 -2.33566 0
M  V30 4296 H 393.972 -6.62139 -2.15743 0
M  V30 4297 H 391.599 -7.32256 -2.04219 0
M  V30 4298 N 393.175 1.03435 -1.18907 0
M  V30 4299 C 394.405 1.8012 -1.01195 0
M  V30 4300 C 394.813 1.8395 0.442613 0
M  V30 4301 O 394.156 1.27836 1.31923 0
M  V30 4302 C 394.218 3.26792 -1.49823 0
M  V30 4303 C 393.882 3.46609 -2.97844 0
M  V30 4304 C 394.879 3.37278 -3.95651 0
M  V30 4305 C 392.564 3.73001 -3.36416 0
M  V30 4306 C 394.558 3.54054 -5.30023 0
M  V30 4307 C 392.245 3.89423 -4.70949 0
M  V30 4308 C 393.243 3.79951 -5.67562 0
M  V30 4309 O 392.931 3.95895 -6.99659 0
M  V30 4310 H 392.663 0.573865 -0.357289 0
M  V30 4311 H 395.217 1.31207 -1.58031 0
M  V30 4312 H 393.447 3.76703 -0.873578 0
M  V30 4313 H 395.136 3.85055 -1.28404 0
M  V30 4314 H 395.902 3.16846 -3.67197 0
M  V30 4315 H 391.781 3.79469 -2.61772 0
M  V30 4316 H 395.325 3.46577 -6.05417 0
M  V30 4317 H 391.222 4.09351 -4.99101 0
M  V30 4318 H 391.99 4.13019 -7.06653 0
M  V30 4319 N 394.653 0.992116 1.22453 0
M  V30 4320 C 395.616 0.546883 2.2258 0
M  V30 4321 C 396.616 -0.369829 1.56489 0
M  V30 4322 O 397.806 -0.161896 1.73446 0
M  V30 4323 C 394.938 -0.204659 3.40285 0
M  V30 4324 H 396.131 1.43234 2.63484 0
M  V30 4325 H 393.684 0.779239 1.3549 0
M  V30 4326 H 394.419 -1.10614 3.04853 0
M  V30 4327 H 394.204 0.45354 3.89468 0
M  V30 4328 H 395.694 -0.504358 4.14543 0
M  V30 4329 N 396.131 -1.37776 0.765217 0
M  V30 4330 C 397.061 -2.32945 0.160953 0
M  V30 4331 C 398.042 -1.55454 -0.690516 0
M  V30 4332 O 399.227 -1.83721 -0.629318 0
M  V30 4333 C 396.357 -3.39669 -0.724031 0
M  V30 4334 C 395.311 -4.27992 0.0256173 0
M  V30 4335 C 394.637 -5.25673 -0.978383 0
M  V30 4336 C 395.937 -5.08309 1.20082 0
M  V30 4337 H 397.631 -2.83728 0.955969 0
M  V30 4338 H 395.177 -1.36416 0.461149 0
M  V30 4339 H 397.13 -4.05219 -1.15652 0
M  V30 4340 H 395.854 -2.87396 -1.5515 0
M  V30 4341 H 394.513 -3.63964 0.438812 0
M  V30 4342 H 394.161 -4.69682 -1.80022 0
M  V30 4343 H 393.861 -5.85625 -0.481378 0
M  V30 4344 H 395.385 -5.94098 -1.40995 0
M  V30 4345 H 396.799 -5.67034 0.845307 0
M  V30 4346 H 395.196 -5.77554 1.62947 0
M  V30 4347 H 396.266 -4.41365 2.00811 0
M  V30 4348 N 397.609 -0.515225 -1.4894 0
M  V30 4349 C 398.858 0.0261361 -2.01683 0
M  V30 4350 C 399.171 1.36719 -1.39883 0
M  V30 4351 O 400.377 1.99606 -1.84037 0
M  V30 4352 C 398.833 0.0970111 -3.59769 0
M  V30 4353 C 398.441 -1.23825 -4.30548 0
M  V30 4354 C 400.185 0.587981 -4.20408 0
M  V30 4355 C 398.092 -1.12877 -5.80528 0
M  V30 4356 H 397.022 0.0135398 -0.753878 0
M  V30 4357 H 399.673 -0.656787 -1.71343 0
M  V30 4358 H 398.055 0.844694 -3.86886 0
M  V30 4359 H 399.229 -2.00034 -4.15118 0
M  V30 4360 H 397.544 -1.66379 -3.81716 0
M  V30 4361 H 400.141 0.68763 -5.3026 0
M  V30 4362 H 400.484 1.59026 -3.84729 0
M  V30 4363 H 401.017 -0.103582 -3.97665 0
M  V30 4364 H 397.756 -2.10575 -6.20756 0
M  V30 4365 H 397.276 -0.407799 -5.98412 0
M  V30 4366 H 398.955 -0.813332 -6.41868 0
M  V30 4367 N 399.087 1.5561 -0.249682 0
M  V30 4368 C 400.05 2.20217 0.635394 0
M  V30 4369 C 401.05 1.17227 1.10066 0
M  V30 4370 O 402.24 1.42292 1.00492 0
M  V30 4371 C 399.372 2.84794 1.87363 0
M  V30 4372 H 400.565 2.99814 0.0716752 0
M  V30 4373 H 398.118 1.563 -0.000153234 0
M  V30 4374 H 398.853 2.09142 2.47851 0
M  V30 4375 H 398.638 3.60241 1.5482 0
M  V30 4376 H 400.128 3.3423 2.5036 0
M  V30 4377 N 400.565 -0.0233959 1.57583 0
M  V30 4378 C 401.495 -1.02162 2.09965 0
M  V30 4379 C 402.476 -1.3735 1.00344 0
M  V30 4380 O 403.661 -1.46135 1.27899 0
M  V30 4381 C 400.791 -2.32081 2.58371 0
M  V30 4382 C 399.745 -2.1112 3.72307 0
M  V30 4383 C 399.071 -3.46848 4.06941 0
M  V30 4384 C 400.371 -1.49276 5.00514 0
M  V30 4385 H 402.065 -0.585557 2.93618 0
M  V30 4386 H 399.611 -0.280218 1.41247 0
M  V30 4387 H 401.564 -3.02249 2.93639 0
M  V30 4388 H 400.288 -2.77758 1.71808 0
M  V30 4389 H 398.947 -1.43384 3.37397 0
M  V30 4390 H 398.595 -3.90184 3.17436 0
M  V30 4391 H 398.295 -3.33646 4.83688 0
M  V30 4392 H 399.819 -4.18369 4.44747 0
M  V30 4393 H 401.233 -2.09368 5.33702 0
M  V30 4394 H 399.63 -1.46632 5.8191 0
M  V30 4395 H 400.7 -0.459217 4.82721 0
M  V30 4396 N 402.043 -1.548 -0.295768 0
M  V30 4397 C 402.99 -1.86113 -1.36494 0
M  V30 4398 C 403.96 -0.7105 -1.50137 0
M  V30 4399 O 405.145 -0.959626 -1.64912 0
M  V30 4400 C 402.285 -2.11861 -2.72413 0
M  V30 4401 C 401.398 -3.39471 -2.67177 0
M  V30 4402 C 400.533 -3.55035 -3.95125 0
M  V30 4403 C 399.572 -4.76418 -3.84308 0
M  V30 4404 N 398.709 -4.8876 -5.04042 0
M  V30 4405 H 403.549 -2.77314 -1.09091 0
M  V30 4406 H 401.086 -1.37315 -0.52753 0
M  V30 4407 H 403.044 -2.24786 -3.51464 0
M  V30 4408 H 401.674 -1.2392 -2.98066 0
M  V30 4409 H 400.726 -3.35139 -1.79962 0
M  V30 4410 H 402.038 -4.28646 -2.55076 0
M  V30 4411 H 401.192 -3.67653 -4.82614 0
M  V30 4412 H 399.931 -2.64002 -4.10066 0
M  V30 4413 H 398.936 -4.63827 -2.95202 0
M  V30 4414 H 400.161 -5.68863 -3.70906 0
M  V30 4415 H 398.107 -4.00652 -5.19436 0
M  V30 4416 H 398.024 -5.71945 -4.94384 0
M  V30 4417 H 399.292 -5.0574 -5.93167 0
M  V30 4418 N 403.521 0.559213 -1.47345 0
M  V30 4419 C 404.77 1.31281 -1.53128 0
M  V30 4420 C 405.083 1.94602 -0.197344 0
M  V30 4421 O 406.289 2.71173 -0.133154 0
M  V30 4422 C 404.745 2.38051 -2.69925 0
M  V30 4423 C 404.353 1.8093 -4.0984 0
M  V30 4424 C 406.097 3.14604 -2.84999 0
M  V30 4425 C 404.004 2.85468 -5.1794 0
M  V30 4426 H 402.934 0.493614 -0.569966 0
M  V30 4427 H 405.585 0.594155 -1.73615 0
M  V30 4428 H 403.967 3.12822 -2.42814 0
M  V30 4429 H 405.141 1.12544 -4.46845 0
M  V30 4430 H 403.456 1.16967 -3.99634 0
M  V30 4431 H 406.053 3.92666 -3.62929 0
M  V30 4432 H 406.396 3.68665 -1.93369 0
M  V30 4433 H 406.929 2.46945 -3.1187 0
M  V30 4434 H 403.668 2.36264 -6.1144 0
M  V30 4435 H 403.188 3.52269 -4.85455 0
M  V30 4436 H 404.867 3.48996 -5.44803 0
M  V30 4437 N 404.999 1.35443 0.805782 0
M  V30 4438 C 405.929 1.31095 1.93226 0
M  V30 4439 C 406.91 0.185244 1.69088 0
M  V30 4440 O 408.095 0.380332 1.90439 0
M  V30 4441 C 405.225 1.08299 3.29983 0
M  V30 4442 C 404.179 2.17519 3.68605 0
M  V30 4443 C 403.505 1.79887 5.03532 0
M  V30 4444 C 404.805 3.5949 3.78898 0
M  V30 4445 H 406.499 2.25352 1.97122 0
M  V30 4446 H 404.045 1.0848 0.946996 0
M  V30 4447 H 405.998 1.03897 4.08391 0
M  V30 4448 H 404.722 0.104885 3.26432 0
M  V30 4449 H 403.381 2.2102 2.92482 0
M  V30 4450 H 403.029 0.80693 4.96485 0
M  V30 4451 H 402.729 2.53001 5.30344 0
M  V30 4452 H 404.253 1.77011 5.84379 0
M  V30 4453 H 405.667 3.58307 4.47536 0
M  V30 4454 H 404.064 4.31371 4.1718 0
M  V30 4455 H 405.134 3.95584 2.80431 0
M  V30 4456 N 406.477 -1.02803 1.19454 0
M  V30 4457 C 407.754 -1.73299 0.907013 0
M  V30 4458 C 408.134 -2.02772 -0.587086 0
M  V30 4459 O 407.482 -1.68304 -1.54551 0
M  V30 4460 C 407.692 -3.00912 1.76785 0
M  V30 4461 C 409.04 -3.74403 2.00268 0
M  V30 4462 O 410.064 -3.10841 1.73943 0
M  V30 4463 O 408.923 -4.88675 2.4466 0
M  V30 4464 H 406.017 -0.754727 0.338106 0
M  V30 4465 H 408.563 -1.08754 1.30271 0
M  V30 4466 H 407.335 -2.75366 2.7801 0
M  V30 4467 H 406.958 -3.73197 1.37149 0
M  V30 4468 N 407.956 -0.998596 -1.21925 0
M  V30 4469 C 408.889 -0.498517 -2.22688 0
M  V30 4470 C 409.867 0.444301 -1.56412 0
M  V30 4471 O 411.051 0.368518 -1.84863 0
M  V30 4472 C 408.178 0.276639 -3.37568 0
M  V30 4473 C 407.224 -0.61302 -4.22071 0
M  V30 4474 S 408.057 -2.07168 -4.93803 0
M  V30 4475 C 409.213 -1.30617 -6.12119 0
M  V30 4476 H 409.446 -1.35234 -2.64762 0
M  V30 4477 H 406.979 -0.806018 -1.31692 0
M  V30 4478 H 408.937 0.717817 -4.04175 0
M  V30 4479 H 407.598 1.10581 -2.93991 0
M  V30 4480 H 406.791 -0.0162909 -5.03997 0
M  V30 4481 H 406.393 -0.991202 -3.60626 0
M  V30 4482 H 408.685 -0.57675 -6.75041 0
M  V30 4483 H 409.628 -2.10091 -6.76215 0
M  V30 4484 H 410.036 -0.816957 -5.58557 0
M  V30 4485 N 409.434 1.37368 -0.772513 0
M  V30 4486 C 410.662 2.03942 -0.348588 0
M  V30 4487 C 411.077 1.58264 1.02947 0
M  V30 4488 O 410.434 0.764246 1.65727 0
M  V30 4489 C 410.485 3.5946 -0.38351 0
M  V30 4490 O 410.206 4.03468 -1.70721 0
M  V30 4491 C 411.707 4.4327 0.0519152 0
M  V30 4492 H 408.927 0.654931 -0.145966 0
M  V30 4493 H 411.471 1.75686 -1.04665 0
M  V30 4494 H 409.626 3.86486 0.265978 0
M  V30 4495 H 410.04 4.97991 -1.64636 0
M  V30 4496 H 411.514 5.51995 -0.0236733 0
M  V30 4497 H 411.991 4.2514 1.10238 0
M  V30 4498 H 412.597 4.21471 -0.569415 0
M  V30 4499 N 410.912 0.523116 1.48665 0
M  V30 4500 C 411.844 -0.280421 2.27478 0
M  V30 4501 C 412.857 -0.910694 1.34945 0
M  V30 4502 O 414.046 -0.790295 1.60052 0
M  V30 4503 C 411.146 -1.41171 3.08097 0
M  V30 4504 C 410.319 -0.884642 4.28361 0
M  V30 4505 C 409.378 -1.89622 4.90846 0
M  V30 4506 O 408.404 -1.4559 5.50265 0
M  V30 4507 N 409.606 -3.22801 4.82472 0
M  V30 4508 H 412.371 0.395481 2.97079 0
M  V30 4509 H 409.932 0.357018 1.57915 0
M  V30 4510 H 411.924 -2.08645 3.4677 0
M  V30 4511 H 410.494 -1.99139 2.40961 0
M  V30 4512 H 409.714 -0.0341177 3.94185 0
M  V30 4513 H 411.002 -0.511268 5.06225 0
M  V30 4514 H 410.4 -3.61246 4.35336 0
M  V30 4515 H 408.957 -3.85927 5.25265 0
M  V30 4516 N 412.39 -1.55475 0.257931 0
M  V30 4517 C 413.34 -2.18506 -0.651094 0
M  V30 4518 C 414.324 -1.14431 -1.13112 0
M  V30 4519 O 415.516 -1.40305 -1.07905 0
M  V30 4520 C 412.645 -2.89653 -1.84272 0
M  V30 4521 C 411.731 -4.00996 -1.38068 0
M  V30 4522 N 412.122 -5.01816 -0.633609 0
M  V30 4523 C 410.42 -4.13753 -1.66506 0
M  V30 4524 C 411.121 -5.80371 -0.392922 0
M  V30 4525 N 410.097 -5.3505 -0.960359 0
M  V30 4526 H 413.899 -2.93811 -0.0722883 0
M  V30 4527 H 411.413 -1.62286 0.0607256 0
M  V30 4528 H 413.41 -3.33245 -2.50506 0
M  V30 4529 H 412.07 -2.15854 -2.42564 0
M  V30 4530 H 413.081 -5.17128 -0.282626 0
M  V30 4531 H 409.758 -3.51133 -2.25858 0
M  V30 4532 H 411.148 -6.7159 0.204235 0
M  V30 4533 N 413.868 0.0150385 -1.57593 0
M  V30 4534 C 415.279 0.559832 -1.78109 0
M  V30 4535 C 415.63 1.74814 -0.890756 0
M  V30 4536 O 414.755 2.16216 -0.0892482 0
M  V30 4537 C 415.35 1.02238 -3.23006 0
M  V30 4538 C 413.909 1.51258 -3.44671 0
M  V30 4539 C 413.056 0.456955 -2.73509 0
M  V30 4540 H 416.007 -0.211169 -1.57289 0
M  V30 4541 H 416.028 1.88912 -3.30292 0
M  V30 4542 H 415.54 0.157302 -3.87781 0
M  V30 4543 H 413.641 2.39905 -2.8509 0
M  V30 4544 H 413.754 1.55042 -4.5332 0
M  V30 4545 H 412.118 0.915196 -2.37689 0
M  V30 4546 H 412.901 -0.398896 -3.40975 0
M  V30 4547 N 415.346 1.54954 0.287554 0
M  V30 4548 C 416.309 1.86076 1.33823 0
M  V30 4549 C 417.309 0.734414 1.43049 0
M  V30 4550 O 418.499 1.00266 1.42452 0
M  V30 4551 C 415.631 2.05305 2.72144 0
M  V30 4552 H 416.824 2.79984 1.07465 0
M  V30 4553 H 414.377 1.47223 0.524902 0
M  V30 4554 H 415.112 1.1373 3.03704 0
M  V30 4555 H 414.897 2.873 2.66836 0
M  V30 4556 H 416.387 2.30706 3.48087 0
M  V30 4557 N 416.824 -0.551391 1.4764 0
M  V30 4558 C 418.071 -1.3083 1.54563 0
M  V30 4559 C 418.399 -1.93359 0.210361 0
M  V30 4560 O 417.654 -1.78721 -0.797332 0
M  V30 4561 C 417.953 -2.43469 2.61644 0
M  V30 4562 C 417.619 -1.98732 4.04742 0
M  V30 4563 C 416.281 -1.86248 4.43695 0
M  V30 4564 C 418.633 -1.64659 4.94507 0
M  V30 4565 C 415.961 -1.37995 5.70241 0
M  V30 4566 C 418.313 -1.17875 6.21521 0
M  V30 4567 C 416.977 -1.03992 6.5935 0
M  V30 4568 H 416.247 -0.478741 0.565587 0
M  V30 4569 H 418.894 -0.617697 1.81264 0
M  V30 4570 H 417.199 -3.18109 2.28722 0
M  V30 4571 H 418.896 -3.01642 2.64222 0
M  V30 4572 H 415.486 -2.09393 3.73968 0
M  V30 4573 H 419.67 -1.73174 4.65107 0
M  V30 4574 H 414.926 -1.25915 5.98294 0
M  V30 4575 H 419.1 -0.905739 6.90485 0
M  V30 4576 H 416.727 -0.663794 7.57296 0
M  V30 4577 N 418.302 -1.35869 -0.798587 0
M  V30 4578 C 419.551 -1.28921 -1.5512 0
M  V30 4579 C 419.864 0.13208 -1.95154 0
M  V30 4580 O 421.07 0.323879 -2.69561 0
M  V30 4581 C 419.526 -2.26141 -2.79979 0
M  V30 4582 C 419.134 -3.73658 -2.47151 0
M  V30 4583 C 420.878 -2.28152 -3.57976 0
M  V30 4584 C 418.785 -4.62679 -3.6835 0
M  V30 4585 H 417.715 -0.479031 -0.582276 0
M  V30 4586 H 420.366 -1.61179 -0.877125 0
M  V30 4587 H 418.748 -1.86865 -3.49138 0
M  V30 4588 H 419.922 -4.21616 -1.85947 0
M  V30 4589 H 418.237 -3.74333 -1.82383 0
M  V30 4590 H 420.834 -2.91875 -4.4801 0
M  V30 4591 H 421.177 -1.28748 -3.95891 0
M  V30 4592 H 421.71 -2.65998 -2.95787 0
M  V30 4593 H 418.449 -5.63111 -3.35538 0
M  V30 4594 H 417.969 -4.19442 -4.28752 0
M  V30 4595 H 419.648 -4.78498 -4.35487 0
M  V30 4596 N 419.78 1.02168 -1.19998 0
M  V30 4597 C 420.727 2.10601 -0.944228 0
M  V30 4598 C 421.697 1.65639 0.123664 0
M  V30 4599 O 422.882 1.9079 -0.0199941 0
M  V30 4600 C 420.022 3.41504 -0.496865 0
M  V30 4601 C 419.135 3.99973 -1.63234 0
M  V30 4602 C 418.27 5.18915 -1.13579 0
M  V30 4603 C 417.309 5.69456 -2.24468 0
M  V30 4604 N 416.446 6.79665 -1.76068 0
M  V30 4605 H 421.286 2.31814 -1.8726 0
M  V30 4606 H 418.823 1.13686 -0.933483 0
M  V30 4607 H 420.781 4.16626 -0.218843 0
M  V30 4608 H 419.411 3.2038 0.394508 0
M  V30 4609 H 418.463 3.21997 -2.0254 0
M  V30 4610 H 419.775 4.33492 -2.46752 0
M  V30 4611 H 418.929 6.01222 -0.813429 0
M  V30 4612 H 417.668 4.8695 -0.270434 0
M  V30 4613 H 416.673 4.85757 -2.57526 0
M  V30 4614 H 417.898 6.03459 -3.11472 0
M  V30 4615 H 415.844 6.49538 -0.918516 0
M  V30 4616 H 415.761 7.12349 -2.5317 0
M  V30 4617 H 417.029 7.65549 -1.46817 0
M  V30 4618 N 421.258 1.00505 1.21394 0
M  V30 4619 C 422.506 0.686415 1.90086 0
M  V30 4620 C 422.827 -0.785264 1.7849 0
M  V30 4621 O 422.097 -1.56387 1.17983 0
M  V30 4622 H 420.677 0.2509 0.703604 0
M  V30 4623 H 423.339 1.27417 1.47482 0
M  V30 4624 H 422.435 0.959621 2.96981 0
M  V30 4625 N 422.737 -1.36956 0.779787 0
M  V30 4626 C 423.983 -2.00237 0.357324 0
M  V30 4627 C 424.338 -1.60787 -1.05666 0
M  V30 4628 O 423.631 -0.847836 -1.71821 0
M  V30 4629 C 423.825 -3.54585 0.447686 0
M  V30 4630 C 423.654 -4.09025 1.86891 0
M  V30 4631 C 422.424 -4.39612 2.49138 0
M  V30 4632 C 424.622 -4.29461 2.82963 0
M  V30 4633 N 422.604 -4.79816 3.82949 0
M  V30 4634 C 423.975 -4.72363 4.01588 0
M  V30 4635 C 426.03 -4.1161 2.80145 0
M  V30 4636 C 424.733 -4.99284 5.17791 0
M  V30 4637 C 426.759 -4.39672 3.95528 0
M  V30 4638 C 426.121 -4.82822 5.12896 0
M  V30 4639 H 422.22 -0.76148 0.177968 0
M  V30 4640 H 424.804 -1.6613 1.01533 0
M  V30 4641 H 422.975 -3.87982 -0.180184 0
M  V30 4642 H 424.707 -4.047 0.0023955 0
M  V30 4643 H 421.462 -4.28975 2.00693 0
M  V30 4644 H 421.886 -5.04216 4.51769 0
M  V30 4645 H 426.528 -3.77415 1.90572 0
M  V30 4646 H 424.246 -5.32365 6.07958 0
M  V30 4647 H 427.832 -4.27441 3.94697 0
M  V30 4648 H 426.712 -5.04118 6.00695 0
M  V30 4649 N 424.215 -0.530993 -1.48385 0
M  V30 4650 C 425.125 0.23503 -2.3342 0
M  V30 4651 C 426.141 0.93801 -1.46552 0
M  V30 4652 O 427.317 0.912745 -1.7953 0
M  V30 4653 C 424.382 1.26778 -3.22689 0
M  V30 4654 C 423.443 0.575038 -4.25431 0
M  V30 4655 C 422.676 1.55858 -5.10435 0
M  V30 4656 O 422.899 2.79129 -4.97437 0
M  V30 4657 O 421.833 1.09742 -5.91811 0
M  V30 4658 H 425.659 -0.461794 -3.00169 0
M  V30 4659 H 423.244 -0.291903 -1.46521 0
M  V30 4660 H 425.126 1.86457 -3.77904 0
M  V30 4661 H 423.801 1.94699 -2.586 0
M  V30 4662 H 422.708 -0.0622782 -3.74048 0
M  V30 4663 H 424.041 -0.062253 -4.92161 0
M  V30 4664 N 425.693 1.55336 -0.266172 0
M  V30 4665 C 426.941 1.99003 0.35246 0
M  V30 4666 C 427.262 1.15591 1.57047 0
M  V30 4667 O 426.532 0.243268 1.94384 0
M  V30 4668 H 425.112 0.735025 0.133217 0
M  V30 4669 H 427.774 1.91367 -0.369434 0
M  V30 4670 H 426.87 3.05289 0.648453 0
M  V30 4671 N 427.171 -0.0066808 1.57599 0
M  V30 4672 C 428.101 -0.999296 2.11036 0
M  V30 4673 C 429.082 -1.36278 1.01795 0
M  V30 4674 O 430.267 -1.4477 1.29442 0
M  V30 4675 C 427.397 -2.29328 2.60818 0
M  V30 4676 C 426.351 -2.07159 3.74525 0
M  V30 4677 C 425.677 -3.42512 4.10596 0
M  V30 4678 C 426.977 -1.43959 5.02069 0
M  V30 4679 H 428.671 -0.554382 2.94223 0
M  V30 4680 H 426.217 -0.265221 1.41536 0
M  V30 4681 H 428.17 -2.99117 2.96828 0
M  V30 4682 H 426.894 -2.7592 1.74745 0
M  V30 4683 H 425.553 -1.39797 3.38899 0
M  V30 4684 H 425.201 -3.86795 3.21556 0
M  V30 4685 H 424.901 -3.28498 4.87199 0
M  V30 4686 H 426.425 -4.13628 4.4916 0
M  V30 4687 H 427.839 -2.03696 5.35893 0
M  V30 4688 H 426.236 -1.40452 5.83432 0
M  V30 4689 H 427.306 -0.407992 4.83181 0
M  V30 4690 N 428.649 -1.55105 -0.279332 0
M  V30 4691 C 429.559 -1.90638 -1.36727 0
M  V30 4692 C 430.575 -0.802899 -1.54368 0
M  V30 4693 O 431.751 -1.10138 -1.68616 0
M  V30 4694 C 428.816 -2.16547 -2.70755 0
M  V30 4695 C 427.877 -3.40146 -2.61915 0
M  V30 4696 C 427.11 -3.6481 -3.8955 0
M  V30 4697 O 427.333 -2.92095 -4.89935 0
M  V30 4698 O 426.267 -4.58343 -3.90135 0
M  V30 4699 H 430.093 -2.83237 -1.09591 0
M  V30 4700 H 427.678 -1.4157 -0.477306 0
M  V30 4701 H 429.56 -2.34665 -3.50014 0
M  V30 4702 H 428.235 -1.27131 -2.9769 0
M  V30 4703 H 427.142 -3.2737 -1.81052 0
M  V30 4704 H 428.475 -4.29761 -2.3993 0
M  V30 4705 N 430.127 0.543554 -1.4793 0
M  V30 4706 C 431.057 1.65888 -1.64327 0
M  V30 4707 C 432.038 1.62818 -0.492383 0
M  V30 4708 O 433.223 1.80226 -0.723338 0
M  V30 4709 C 430.353 3.04506 -1.67013 0
M  V30 4710 C 429.307 3.2243 -2.81466 0
M  V30 4711 C 428.633 4.61972 -2.69233 0
M  V30 4712 C 429.933 3.06496 -4.22915 0
M  V30 4713 H 431.627 1.52421 -2.57698 0
M  V30 4714 H 429.173 0.731849 -1.24016 0
M  V30 4715 H 431.126 3.82391 -1.77074 0
M  V30 4716 H 429.85 3.18964 -0.70212 0
M  V30 4717 H 428.509 2.46957 -2.70938 0
M  V30 4718 H 428.157 4.73247 -1.7043 0
M  V30 4719 H 427.857 4.74911 -3.46025 0
M  V30 4720 H 429.381 5.41974 -2.81242 0
M  V30 4721 H 430.795 3.74186 -4.34348 0
M  V30 4722 H 429.192 3.30938 -5.006 0
M  V30 4723 H 430.262 2.03077 -4.40327 0
M  V30 4724 N 431.605 1.3629 0.791371 0
M  V30 4725 C 432.835 1.33368 1.57786 0
M  V30 4726 C 433.243 -0.0875188 1.88997 0
M  V30 4727 O 432.586 -1.05427 1.50435 0
M  V30 4728 C 432.648 2.08802 2.92646 0
M  V30 4729 C 432.312 3.57903 2.84174 0
M  V30 4730 C 433.309 4.52191 2.56553 0
M  V30 4731 C 430.994 4.00762 3.02812 0
M  V30 4732 C 432.988 5.87315 2.47669 0
M  V30 4733 C 430.675 5.35977 2.93551 0
M  V30 4734 C 431.673 6.29066 2.66017 0
M  V30 4735 O 431.361 7.61798 2.56746 0
M  V30 4736 H 431.093 0.459166 0.496128 0
M  V30 4737 H 433.647 1.79952 0.990269 0
M  V30 4738 H 431.877 1.56878 3.53449 0
M  V30 4739 H 433.566 1.98762 3.53904 0
M  V30 4740 H 434.332 4.20393 2.41858 0
M  V30 4741 H 430.211 3.2868 3.2325 0
M  V30 4742 H 433.755 6.59943 2.26099 0
M  V30 4743 H 429.652 5.67384 3.07808 0
M  V30 4744 H 430.42 7.71898 2.72242 0
M  V30 4745 N 433.083 -1.0153 1.20538 0
M  V30 4746 C 434.331 -1.74803 1.01432 0
M  V30 4747 C 434.652 -1.8963 -0.454456 0
M  V30 4748 O 433.922 -1.43975 -1.32846 0
M  V30 4749 H 432.502 -0.647598 0.372324 0
M  V30 4750 H 435.164 -1.22402 1.5167 0
M  V30 4751 H 434.26 -2.75114 1.47373 0
M  V30 4752 N 434.561 -1.01147 -1.20859 0
M  V30 4753 C 435.807 -0.698899 -1.90377 0
M  V30 4754 C 436.14 0.76904 -1.78324 0
M  V30 4755 O 435.415 1.55817 -1.16409 0
M  V30 4756 C 435.698 -1.12878 -3.41951 0
M  V30 4757 C 435.551 -2.65665 -3.62963 0
M  V30 4758 C 436.87 -0.696114 -4.3456 0
M  V30 4759 H 433.989 -0.255372 -0.691342 0
M  V30 4760 H 436.631 -1.25831 -1.42361 0
M  V30 4761 H 434.781 -0.652827 -3.82976 0
M  V30 4762 H 436.453 -3.21074 -3.31224 0
M  V30 4763 H 434.696 -3.06878 -3.06608 0
M  V30 4764 H 435.367 -2.90797 -4.69192 0
M  V30 4765 H 437.843 -1.10521 -4.01154 0
M  V30 4766 H 436.719 -1.025 -5.39245 0
M  V30 4767 H 436.98 0.402465 -4.40264 0
M  V30 4768 N 436.039 1.36541 -0.78704 0
M  V30 4769 C 436.949 2.3387 -0.184896 0
M  V30 4770 C 437.965 1.60927 0.661697 0
M  V30 4771 O 439.141 1.92927 0.57804 0
M  V30 4772 C 436.206 3.40122 0.672145 0
M  V30 4773 C 435.267 4.28867 -0.19267 0
M  V30 4774 C 434.5 5.30045 0.623561 0
M  V30 4775 O 434.723 5.39232 1.8597 0
M  V30 4776 O 433.657 6.01895 0.0247068 0
M  V30 4777 H 437.483 2.87126 -0.989562 0
M  V30 4778 H 435.068 1.38969 -0.548455 0
M  V30 4779 H 436.95 4.05093 1.16094 0
M  V30 4780 H 435.625 2.89169 1.45474 0
M  V30 4781 H 434.532 3.66945 -0.728166 0
M  V30 4782 H 435.865 4.83165 -0.938722 0
M  V30 4783 N 437.518 0.538854 1.48102 0
M  V30 4784 C 438.448 -0.207654 2.32575 0
M  V30 4785 C 439.429 -0.926559 1.4265 0
M  V30 4786 O 440.614 -0.91061 1.71527 0
M  V30 4787 C 437.744 -1.24957 3.24042 0
M  V30 4788 C 436.698 -0.648263 4.23062 0
M  V30 4789 C 436.024 -1.79348 5.03725 0
M  V30 4790 C 437.324 0.385897 5.20872 0
M  V30 4791 H 439.018 0.497534 2.95237 0
M  V30 4792 H 436.564 0.240715 1.41974 0
M  V30 4793 H 438.517 -1.77983 3.81969 0
M  V30 4794 H 437.241 -1.98446 2.59397 0
M  V30 4795 H 435.9 -0.139452 3.66335 0
M  V30 4796 H 435.548 -2.51696 4.35498 0
M  V30 4797 H 435.248 -1.39702 5.70751 0
M  V30 4798 H 436.772 -2.32735 5.64506 0
M  V30 4799 H 438.186 -0.057607 5.73271 0
M  V30 4800 H 436.583 0.700227 5.96001 0
M  V30 4801 H 437.653 1.28848 4.67468 0
M  V30 4802 N 438.996 -1.55193 0.274407 0
M  V30 4803 C 440.273 -1.91584 -0.394331 0
M  V30 4804 C 440.653 -1.19858 -1.73774 0
M  V30 4805 O 440.001 -0.3252 -2.26174 0
M  V30 4806 C 440.211 -3.4487 -0.535311 0
M  V30 4807 C 441.559 -4.16636 -0.818534 0
M  V30 4808 O 442.583 -3.5076 -0.620146 0
M  V30 4809 O 441.442 -5.33209 -1.19792 0
M  V30 4810 H 438.536 -0.798349 -0.215794 0
M  V30 4811 H 441.082 -1.66646 0.320507 0
M  V30 4812 H 439.854 -3.89145 0.410141 0
M  V30 4813 H 439.477 -3.75759 -1.29964 0
M  V30 4814 N 440.474 -0.00167713 -1.576 0
M  V30 4815 C 441.704 0.692754 -1.94639 0
M  V30 4816 C 442.112 1.67744 -0.87513 0
M  V30 4817 O 441.455 1.8305 0.154382 0
M  V30 4818 C 441.517 1.47881 -3.27676 0
M  V30 4819 C 441.181 0.655518 -4.52274 0
M  V30 4820 C 442.178 -0.0575214 -5.19868 0
M  V30 4821 C 439.863 0.600994 -4.98692 0
M  V30 4822 C 441.857 -0.814052 -6.3218 0
M  V30 4823 C 439.544 -0.15926 -6.10892 0
M  V30 4824 C 440.542 -0.865515 -6.77494 0
M  V30 4825 O 440.23 -1.61336 -7.87544 0
M  V30 4826 H 439.962 0.197792 -0.646417 0
M  V30 4827 H 442.516 -0.049423 -2.05341 0
M  V30 4828 H 440.746 2.2655 -3.13388 0
M  V30 4829 H 442.435 2.05874 -3.49816 0
M  V30 4830 H 443.201 -0.0245611 -4.84994 0
M  V30 4831 H 439.08 1.14025 -4.46676 0
M  V30 4832 H 442.624 -1.36584 -6.84098 0
M  V30 4833 H 438.521 -0.194035 -6.45208 0
M  V30 4834 H 439.289 -1.53025 -8.04068 0
M  V30 4835 N 441.952 1.55251 0.271103 0
M  V30 4836 C 443.2 1.75599 1.00047 0
M  V30 4837 C 443.521 0.561188 1.8675 0
M  V30 4838 O 442.791 -0.423846 1.9126 0
M  V30 4839 H 441.371 0.647562 0.372387 0
M  V30 4840 H 444.033 1.92656 0.294876 0
M  V30 4841 H 443.129 2.65766 1.6363 0
M  V30 4842 N 443.43 -0.535701 1.48216 0
M  V30 4843 C 444.678 -1.28928 1.55634 0
M  V30 4844 C 444.999 -1.93645 0.229514 0
M  V30 4845 O 444.269 -1.81038 -0.74846 0
M  V30 4846 H 442.849 -0.47884 0.573342 0
M  V30 4847 H 445.511 -0.623853 1.84646 0
M  V30 4848 H 444.607 -2.07157 2.33436 0
M  V30 4849 N 444.908 -1.36708 -0.784132 0
M  V30 4850 C 446.154 -1.32433 -1.54379 0
M  V30 4851 C 446.509 0.0941816 -1.92169 0
M  V30 4852 O 445.802 1.04997 -1.60269 0
M  V30 4853 C 445.996 -2.18571 -2.82774 0
M  V30 4854 C 445.825 -3.68656 -2.57533 0
M  V30 4855 C 444.595 -4.37813 -2.52286 0
M  V30 4856 C 446.793 -4.61802 -2.2637 0
M  V30 4857 N 444.775 -5.7351 -2.18997 0
M  V30 4858 C 446.146 -5.85785 -2.03115 0
M  V30 4859 C 448.201 -4.50313 -2.12421 0
M  V30 4860 C 446.904 -6.99569 -1.67321 0
M  V30 4861 C 448.93 -5.63969 -1.78026 0
M  V30 4862 C 448.292 -6.86994 -1.55622 0
M  V30 4863 H 444.391 -0.539886 -0.565727 0
M  V30 4864 H 446.975 -1.71812 -0.915908 0
M  V30 4865 H 445.146 -1.81429 -3.43421 0
M  V30 4866 H 446.878 -2.05646 -3.48557 0
M  V30 4867 H 443.633 -3.90674 -2.67714 0
M  V30 4868 H 444.057 -6.45189 -2.05084 0
M  V30 4869 H 448.699 -3.55781 -2.28429 0
M  V30 4870 H 446.417 -7.94047 -1.5005 0
M  V30 4871 H 450.003 -5.57044 -1.67909 0
M  V30 4872 H 448.883 -7.7345 -1.294 0
M  V30 4873 N 446.386 1.0089 -1.21074 0
M  V30 4874 C 447.319 2.09279 -0.909806 0
M  V30 4875 C 448.297 1.61986 0.141145 0
M  V30 4876 O 449.481 1.88495 0.0130332 0
M  V30 4877 C 446.608 3.36723 -0.365374 0
M  V30 4878 C 445.654 4.02919 -1.39852 0
M  V30 4879 S 446.487 4.45835 -2.96633 0
M  V30 4880 C 447.643 5.76471 -2.43786 0
M  V30 4881 H 447.876 2.34484 -1.82769 0
M  V30 4882 H 445.409 1.14115 -1.04006 0
M  V30 4883 H 447.367 4.10459 -0.0578203 0
M  V30 4884 H 446.028 3.09577 0.531136 0
M  V30 4885 H 445.221 4.94634 -0.967117 0
M  V30 4886 H 444.823 3.35441 -1.65395 0
M  V30 4887 H 447.115 6.52027 -1.84029 0
M  V30 4888 H 448.058 6.24418 -3.33928 0
M  V30 4889 H 448.466 5.33104 -1.85636 0
M  V30 4890 N 447.864 1.01787 1.20321 0
M  V30 4891 C 449.111 0.707936 1.89722 0
M  V30 4892 C 449.439 -0.762535 1.78929 0
M  V30 4893 O 448.694 -1.56977 1.16861 0
M  V30 4894 C 448.993 1.09076 3.40349 0
M  V30 4895 C 448.659 2.55765 3.71342 0
M  V30 4896 C 447.321 2.95845 3.79511 0
M  V30 4897 C 449.673 3.50723 3.85542 0
M  V30 4898 C 447.001 4.2982 3.99339 0
M  V30 4899 C 449.353 4.84387 4.06881 0
M  V30 4900 C 448.017 5.24172 4.1328 0
M  V30 4901 H 447.287 0.259052 0.694243 0
M  V30 4902 H 449.934 1.27868 1.42555 0
M  V30 4903 H 448.239 0.438453 3.89339 0
M  V30 4904 H 449.936 0.828636 3.92345 0
M  V30 4905 H 446.526 2.2371 3.65584 0
M  V30 4906 H 450.71 3.20916 3.78585 0
M  V30 4907 H 445.966 4.60196 4.02529 0
M  V30 4908 H 450.14 5.57891 4.1681 0
M  V30 4909 H 447.767 6.27997 4.28396 0
M  V30 4910 N 449.342 -1.36122 0.79427 0
M  V30 4911 C 450.274 -2.28683 0.153903 0
M  V30 4912 C 451.287 -1.49707 -0.639669 0
M  V30 4913 O 452.476 -1.7209 -0.474054 0
M  V30 4914 C 449.576 -3.29202 -0.804921 0
M  V30 4915 C 448.749 -4.37358 -0.060366 0
M  V30 4916 C 447.808 -5.17811 -0.935849 0
M  V30 4917 O 446.834 -5.67853 -0.391309 0
M  V30 4918 N 448.036 -5.34721 -2.25951 0
M  V30 4919 H 450.801 -2.84278 0.949008 0
M  V30 4920 H 448.362 -1.4834 0.648611 0
M  V30 4921 H 450.354 -3.79914 -1.39455 0
M  V30 4922 H 448.924 -2.74212 -1.50088 0
M  V30 4923 H 448.144 -3.87746 0.710382 0
M  V30 4924 H 449.432 -5.06777 0.45324 0
M  V30 4925 H 448.83 -4.95687 -2.72601 0
M  V30 4926 H 447.387 -5.88657 -2.79867 0
M  V30 4927 N 450.82 -0.546701 -1.47814 0
M  V30 4928 C 451.783 0.196287 -2.28358 0
M  V30 4929 C 452.783 0.852437 -1.36346 0
M  V30 4930 O 453.973 0.709913 -1.59078 0
M  V30 4931 C 451.105 1.28579 -3.15722 0
M  V30 4932 H 452.298 -0.511086 -2.95513 0
M  V30 4933 H 449.851 -0.303248 -1.5333 0
M  V30 4934 H 450.586 2.0259 -2.53235 0
M  V30 4935 H 450.371 0.820229 -3.83425 0
M  V30 4936 H 451.861 1.80793 -3.76435 0
M  V30 4937 N 452.299 1.55045 -0.282633 0
M  V30 4938 C 453.524 2.04628 0.337977 0
M  V30 4939 C 453.949 1.15937 1.48123 0
M  V30 4940 O 453.307 0.159532 1.80597 0
M  V30 4941 C 453.355 3.51854 0.78936 0
M  V30 4942 O 452.459 3.66236 1.89592 0
M  V30 4943 H 451.8 0.660434 0.0687261 0
M  V30 4944 H 454.33 2.00261 -0.419124 0
M  V30 4945 H 454.34 3.93361 1.08311 0
M  V30 4946 H 453.015 4.15873 -0.0470419 0
M  V30 4947 H 451.592 3.36633 1.60413 0
M  V30 4948 N 453.777 0.010035 1.57597 0
M  V30 4949 C 455.026 -0.671945 1.90178 0
M  V30 4950 C 455.339 -1.74376 0.886131 0
M  V30 4951 O 456.545 -2.48107 1.10252 0
M  V30 4952 C 455.001 -1.24636 3.3763 0
M  V30 4953 C 454.609 -0.208838 4.47513 0
M  V30 4954 C 456.353 -1.90595 3.79307 0
M  V30 4955 C 454.26 -0.793814 5.86048 0
M  V30 4956 H 453.19 -0.25474 0.709665 0
M  V30 4957 H 455.841 0.0722206 1.83358 0
M  V30 4958 H 454.223 -2.04152 3.3932 0
M  V30 4959 H 455.397 0.562463 4.57354 0
M  V30 4960 H 453.712 0.350889 4.14919 0
M  V30 4961 H 456.309 -2.35284 4.80151 0
M  V30 4962 H 456.652 -2.74074 3.13352 0
M  V30 4963 H 457.185 -1.17798 3.79958 0
M  V30 4964 H 453.924 0.00240855 6.555 0
M  V30 4965 H 453.444 -1.53404 5.79851 0
M  V30 4966 H 455.123 -1.2894 6.34022 0
M  V30 4967 N 455.255 -1.55392 -0.262866 0
M  V30 4968 C 456.48 -1.80847 -1.01533 0
M  V30 4969 C 456.905 -0.584946 -1.78774 0
M  V30 4970 O 456.263 0.465701 -1.75217 0
M  V30 4971 C 456.311 -3.03866 -1.94159 0
M  V30 4972 O 455.415 -2.79662 -3.03089 0
M  V30 4973 H 454.756 -0.597441 -0.289759 0
M  V30 4974 H 457.286 -2.02553 -0.288698 0
M  V30 4975 H 457.296 -3.32872 -2.35924 0
M  V30 4976 H 455.971 -3.92564 -1.37354 0
M  V30 4977 H 454.548 -2.61781 -2.65566 0
M  V30 4978 N 456.733 0.527833 -1.48498 0
M  V30 4979 C 458.144 1.10975 -1.50138 0
M  V30 4980 C 458.495 1.943 -0.272378 0
M  V30 4981 O 457.62 2.07319 0.620301 0
M  V30 4982 C 458.215 2.01927 -2.72049 0
M  V30 4983 C 456.774 2.55332 -2.76554 0
M  V30 4984 C 455.921 1.32341 -2.43683 0
M  V30 4985 H 458.872 0.312986 -1.55583 0
M  V30 4986 H 458.893 2.86244 -2.50689 0
M  V30 4987 H 458.405 1.41254 -3.61481 0
M  V30 4988 H 456.506 3.19721 -1.91336 0
M  V30 4989 H 456.619 2.94319 -3.78038 0
M  V30 4990 H 454.983 1.63989 -1.94884 0
M  V30 4991 H 455.766 0.734165 -3.35358 0
M  V30 4992 N 458.211 1.37122 0.776871 0
M  V30 4993 C 459.457 1.32243 1.53752 0
M  V30 4994 C 459.79 -0.0944745 1.9397 0
M  V30 4995 O 459.065 -1.05068 1.6368 0
M  V30 4996 C 459.348 2.25681 2.80607 0
M  V30 4997 C 459.201 3.76127 2.46676 0
M  V30 4998 C 460.52 2.17657 3.82509 0
M  V30 4999 H 457.639 0.481704 0.557791 0
M  V30 5000 H 460.281 1.6778 0.891612 0
M  V30 5001 H 458.431 1.95505 3.35723 0
M  V30 5002 H 460.103 4.16877 1.97513 0
M  V30 5003 H 458.346 3.94946 1.79443 0
M  V30 5004 H 459.017 4.36933 3.37333 0
M  V30 5005 H 461.493 2.44245 3.36873 0
M  V30 5006 H 460.369 2.85185 4.69 0
M  V30 5007 H 460.63 1.16785 4.26396 0
M  V30 5008 N 459.689 -1.00246 1.21608 0
M  V30 5009 C 460.935 -1.74417 1.04643 0
M  V30 5010 C 461.29 -1.87862 -0.415387 0
M  V30 5011 O 460.583 -1.40373 -1.30407 0
M  V30 5012 C 460.777 -3.15448 1.68009 0
M  V30 5013 C 460.606 -3.15755 3.20201 0
M  V30 5014 C 459.376 -3.2219 3.89258 0
M  V30 5015 C 461.574 -3.00668 4.17257 0
M  V30 5016 N 459.556 -3.1215 5.28617 0
M  V30 5017 C 460.927 -2.98553 5.43384 0
M  V30 5018 C 462.982 -2.84989 4.08272 0
M  V30 5019 C 461.685 -2.82364 6.61561 0
M  V30 5020 C 463.711 -2.70158 5.26088 0
M  V30 5021 C 463.073 -2.68721 6.51128 0
M  V30 5022 H 459.172 -0.648317 0.437274 0
M  V30 5023 H 461.756 -1.19129 1.54001 0
M  V30 5024 H 459.927 -3.69001 1.21215 0
M  V30 5025 H 461.659 -3.78128 1.44226 0
M  V30 5026 H 458.414 -3.29488 3.40198 0
M  V30 5027 H 458.838 -3.10465 6.01615 0
M  V30 5028 H 463.48 -2.84904 3.12393 0
M  V30 5029 H 461.198 -2.81196 7.57598 0
M  V30 5030 H 464.784 -2.59022 5.20959 0
M  V30 5031 H 463.664 -2.57382 7.40759 0
M  V30 5032 N 461.167 -1.02423 -1.1978 0
M  V30 5033 C 462.444 -0.632802 -1.85081 0
M  V30 5034 C 462.824 0.888745 -1.9148 0
M  V30 5035 O 462.172 1.78357 -1.42832 0
M  V30 5036 C 462.382 -1.28947 -3.24305 0
M  V30 5037 C 463.73 -1.40976 -4.00513 0
M  V30 5038 O 464.754 -1.24628 -3.33686 0
M  V30 5039 O 463.613 -1.67467 -5.20209 0
M  V30 5040 H 460.707 -0.219348 -0.79738 0
M  V30 5041 H 463.253 -1.12209 -1.27307 0
M  V30 5042 H 462.025 -2.3288 -3.14456 0
M  V30 5043 H 461.648 -0.787748 -3.89718 0
M  V30 5044 N 462.645 1.35699 -0.801477 0
M  V30 5045 C 463.873 2.03157 -0.391768 0
M  V30 5046 C 464.288 1.60412 0.995668 0
M  V30 5047 O 463.645 0.799228 1.64069 0
M  V30 5048 C 463.696 3.58566 -0.459671 0
M  V30 5049 O 463.417 3.99756 -1.7924 0
M  V30 5050 C 464.918 4.4328 -0.0421205 0
M  V30 5051 H 462.138 0.651688 -0.159825 0
M  V30 5052 H 464.682 1.73426 -1.08368 0
M  V30 5053 H 462.837 3.86963 0.183939 0
M  V30 5054 H 463.251 4.94387 -1.75162 0
M  V30 5055 H 464.725 5.51821 -0.140754 0
M  V30 5056 H 465.202 4.27383 1.01196 0
M  V30 5057 H 465.808 4.20168 -0.658687 0
M  V30 5058 N 464.123 0.554532 1.47522 0
M  V30 5059 C 465.371 0.0294208 2.02079 0
M  V30 5060 C 465.692 -1.32411 1.43151 0
M  V30 5061 O 464.962 -1.863 0.605728 0
M  V30 5062 H 463.542 0.00788672 0.746958 0
M  V30 5063 H 466.204 0.723934 1.80956 0
M  V30 5064 H 465.3 -0.0606745 3.12041 0
M  V30 5065 N 465.601 -1.54893 0.290851 0
M  V30 5066 C 466.531 -2.26103 -0.583084 0
M  V30 5067 C 467.512 -1.25684 -1.14619 0
M  V30 5068 O 468.697 -1.54436 -1.17741 0
M  V30 5069 C 465.827 -2.99409 -1.75987 0
M  V30 5070 C 464.781 -4.0689 -1.32758 0
M  V30 5071 C 464.107 -4.67856 -2.58872 0
M  V30 5072 C 465.407 -5.20215 -0.46624 0
M  V30 5073 H 467.101 -2.99398 0.0108214 0
M  V30 5074 H 464.647 -1.43998 0.00664468 0
M  V30 5075 H 466.6 -3.47943 -2.37727 0
M  V30 5076 H 465.324 -2.23675 -2.37985 0
M  V30 5077 H 463.983 -3.59191 -0.733299 0
M  V30 5078 H 463.631 -3.88772 -3.19163 0
M  V30 5079 H 463.331 -5.40438 -2.30653 0
M  V30 5080 H 464.855 -5.19147 -3.21433 0
M  V30 5081 H 466.269 -5.64704 -0.989047 0
M  V30 5082 H 464.666 -5.99455 -0.27826 0
M  V30 5083 H 465.736 -4.82198 0.511173 0
M  V30 5084 N 467.08 -0.0183926 -1.57589 0
M  V30 5085 C 468.043 0.951986 -2.08494 0
M  V30 5086 C 469.043 1.26092 -0.997874 0
M  V30 5087 O 470.233 1.20304 -1.25987 0
M  V30 5088 C 467.365 2.27165 -2.54182 0
M  V30 5089 H 468.558 0.511307 -2.95509 0
M  V30 5090 H 466.111 0.229444 -1.54607 0
M  V30 5091 H 466.846 2.75884 -1.70465 0
M  V30 5092 H 466.631 2.06057 -3.33591 0
M  V30 5093 H 468.121 2.9674 -2.93828 0
M  V30 5094 N 468.558 1.5553 0.254621 0
M  V30 5095 C 469.804 1.77262 0.985193 0
M  V30 5096 C 470.137 0.582286 1.85265 0
M  V30 5097 O 469.412 -0.419666 1.89919 0
M  V30 5098 C 469.695 3.0881 1.85225 0
M  V30 5099 C 469.548 4.38233 1.0135 0
M  V30 5100 C 470.867 3.3653 2.83612 0
M  V30 5101 H 467.986 0.644906 0.356742 0
M  V30 5102 H 470.628 1.88264 0.256236 0
M  V30 5103 H 468.778 2.99562 2.47376 0
M  V30 5104 H 470.45 4.59463 0.411269 0
M  V30 5105 H 468.693 4.32636 0.317574 0
M  V30 5106 H 469.364 5.26644 1.65379 0
M  V30 5107 H 471.84 3.45691 2.31596 0
M  V30 5108 H 470.716 4.29805 3.41407 0
M  V30 5109 H 470.977 2.57064 3.59681 0
M  V30 5110 N 470.036 -0.519951 1.48776 0
M  V30 5111 C 470.966 -1.63253 1.66945 0
M  V30 5112 C 471.947 -1.62014 0.518224 0
M  V30 5113 O 473.132 -1.79053 0.751919 0
M  V30 5114 C 470.262 -3.0181 1.71836 0
M  V30 5115 C 469.216 -3.17911 2.8656 0
M  V30 5116 C 468.542 -4.5763 2.76548 0
M  V30 5117 C 469.842 -2.99729 4.27738 0
M  V30 5118 H 471.536 -1.48302 2.6009 0
M  V30 5119 H 469.082 -0.712026 1.25165 0
M  V30 5120 H 471.035 -3.79525 1.83135 0
M  V30 5121 H 469.759 -3.17806 0.752775 0
M  V30 5122 H 468.418 -2.42616 2.74833 0
M  V30 5123 H 468.066 -4.70476 1.77937 0
M  V30 5124 H 467.766 -4.69346 3.53536 0
M  V30 5125 H 469.29 -5.37431 2.89828 0
M  V30 5126 H 470.704 -3.67228 4.40246 0
M  V30 5127 H 469.101 -3.22932 5.05801 0
M  V30 5128 H 470.171 -1.96047 4.43502 0
M  V30 5129 N 471.514 -1.37532 -0.769588 0
M  V30 5130 C 472.477 -1.33292 -1.86456 0
M  V30 5131 C 473.477 -0.236537 -1.59051 0
M  V30 5132 O 474.667 -0.492511 -1.67093 0
M  V30 5133 C 471.799 -1.07118 -3.23633 0
M  V30 5134 H 472.992 -2.30692 -1.91628 0
M  V30 5135 H 470.545 -1.22593 -0.969572 0
M  V30 5136 H 471.28 -0.102578 -3.24138 0
M  V30 5137 H 471.065 -1.86479 -3.44917 0
M  V30 5138 H 472.555 -1.06806 -4.03711 0
M  V30 5139 N 472.992 0.995999 -1.22138 0
M  V30 5140 C 473.922 2.10387 -1.01289 0
M  V30 5141 C 474.903 1.69975 0.0651454 0
M  V30 5142 O 476.088 1.9396 -0.0964628 0
M  V30 5143 C 473.218 3.42312 -0.586517 0
M  V30 5144 C 472.172 3.96558 -1.61014 0
M  V30 5145 C 471.498 5.24494 -1.0397 0
M  V30 5146 C 472.798 4.27595 -2.99933 0
M  V30 5147 H 474.492 2.28086 -1.93951 0
M  V30 5148 H 472.038 1.09607 -0.933928 0
M  V30 5149 H 473.991 4.19223 -0.427793 0
M  V30 5150 H 472.715 3.24431 0.375761 0
M  V30 5151 H 471.374 3.21776 -1.75658 0
M  V30 5152 H 471.022 5.02953 -0.0688703 0
M  V30 5153 H 470.722 5.61755 -1.72352 0
M  V30 5154 H 472.246 6.04042 -0.892494 0
M  V30 5155 H 473.66 4.95315 -2.8868 0
M  V30 5156 H 472.057 4.76021 -3.6541 0
M  V30 5157 H 473.127 3.35498 -3.50099 0
M  V30 5158 N 474.47 1.03057 1.19235 0
M  V30 5159 C 475.886 0.747947 1.40989 0
M  V30 5160 C 476.086 -0.666752 1.90149 0
M  V30 5161 O 475.142 -1.43249 2.07933 0
M  V30 5162 C 476.455 1.7855 2.41951 0
M  V30 5163 C 478.003 1.80524 2.55695 0
M  V30 5164 C 478.478 2.83243 3.59913 0
M  V30 5165 N 479.969 2.8207 3.67411 0
M  V30 5166 C 480.704 3.58204 4.47747 0
M  V30 5167 N 480.2 4.44057 5.31775 0
M  V30 5168 N 481.993 3.46738 4.42413 0
M  V30 5169 H 474.144 1.94367 0.856468 0
M  V30 5170 H 476.407 0.840412 0.438647 0
M  V30 5171 H 476.113 2.79973 2.12857 0
M  V30 5172 H 475.987 1.6092 3.41152 0
M  V30 5173 H 478.374 0.79778 2.84112 0
M  V30 5174 H 478.455 2.02229 1.56643 0
M  V30 5175 H 478.099 3.84161 3.32239 0
M  V30 5176 H 478.029 2.58795 4.5862 0
M  V30 5177 H 480.52 2.19803 3.074 0
M  V30 5178 H 480.833 4.98884 5.90199 0
M  V30 5179 H 479.178 4.48129 5.3123 0
M  V30 5180 H 482.369 2.79077 3.75811 0
M  V30 5181 H 482.542 4.06322 5.04783 0
M  V30 5182 N 475.948 -1.35272 0.808662 0
M  V30 5183 C 476.911 -2.28082 0.226093 0
M  V30 5184 C 477.911 -1.49673 -0.587762 0
M  V30 5185 O 479.101 -1.69404 -0.405943 0
M  V30 5186 C 476.233 -3.33955 -0.684596 0
M  V30 5187 H 477.426 -2.81116 1.04469 0
M  V30 5188 H 474.979 -1.45162 0.579466 0
M  V30 5189 H 475.714 -2.86111 -1.5268 0
M  V30 5190 H 475.499 -3.91965 -0.102699 0
M  V30 5191 H 476.989 -4.03219 -1.08646 0
M  V30 5192 N 477.426 -0.562348 -1.47226 0
M  V30 5193 C 478.389 0.172056 -2.28553 0
M  V30 5194 C 479.389 0.837928 -1.37242 0
M  V30 5195 O 480.579 0.693001 -1.59822 0
M  V30 5196 C 477.711 1.25223 -3.17068 0
M  V30 5197 H 478.904 -0.542401 -2.94954 0
M  V30 5198 H 476.457 -0.319493 -1.53 0
M  V30 5199 H 477.192 1.99892 -2.55369 0
M  V30 5200 H 476.977 0.779515 -3.84273 0
M  V30 5201 H 478.467 1.76791 -3.78332 0
M  V30 5202 N 478.904 1.54736 -0.299062 0
M  V30 5203 C 480.152 1.99706 0.31017 0
M  V30 5204 C 480.473 1.18896 1.54559 0
M  V30 5205 O 479.743 0.284445 1.93824 0
M  V30 5206 H 478.323 0.737686 0.117596 0
M  V30 5207 H 480.985 1.9054 -0.409943 0
M  V30 5208 H 480.081 3.06596 0.58355 0
M  V30 5209 N 480.382 0.0267497 1.57577 0
M  V30 5210 C 481.312 -0.954308 2.13108 0
M  V30 5211 C 482.293 -1.34088 1.04663 0
M  V30 5212 O 483.478 -1.41992 1.32484 0
M  V30 5213 C 480.608 -2.23744 2.65624 0
M  V30 5214 C 479.562 -1.99168 3.78835 0
M  V30 5215 C 478.888 -3.33726 4.17769 0
M  V30 5216 C 480.188 -1.33277 5.0501 0
M  V30 5217 H 481.882 -0.491848 2.95332 0
M  V30 5218 H 479.428 -0.23514 1.42067 0
M  V30 5219 H 481.381 -2.92754 3.03106 0
M  V30 5220 H 480.105 -2.72151 1.80558 0
M  V30 5221 H 478.764 -1.32577 3.41788 0
M  V30 5222 H 478.412 -3.79888 3.29688 0
M  V30 5223 H 478.112 -3.18089 4.94058 0
M  V30 5224 H 479.636 -4.04008 4.57832 0
M  V30 5225 H 481.05 -1.92283 5.40093 0
M  V30 5226 H 479.447 -1.28045 5.8628 0
M  V30 5227 H 480.517 -0.305411 4.83937 0
M  V30 5228 N 481.861 -1.55662 -0.24637 0
M  V30 5229 C 483.272 -1.67953 -0.81539 0
M  V30 5230 C 483.623 -0.624302 -1.86002 0
M  V30 5231 O 482.748 0.229328 -2.15181 0
M  V30 5232 C 483.343 -3.04484 -1.48576 0
M  V30 5233 C 481.902 -3.18713 -2.00248 0
M  V30 5234 C 481.049 -2.6383 -0.853766 0
M  V30 5235 H 484 -1.58685 -0.0221692 0
M  V30 5236 H 484.021 -2.98959 -2.3538 0
M  V30 5237 H 483.533 -3.81264 -0.725222 0
M  V30 5238 H 481.634 -2.46757 -2.79181 0
M  V30 5239 H 481.747 -4.25628 -2.1995 0
M  V30 5240 H 480.111 -2.21667 -1.25442 0
M  V30 5241 H 480.894 -3.43135 -0.106302 0
M  V30 5242 N 483.339 0.512053 -1.4905 0
M  V30 5243 C 484.302 1.59704 -1.64399 0
M  V30 5244 C 485.302 1.52285 -0.516317 0
M  V30 5245 O 486.492 1.55635 -0.782527 0
M  V30 5246 C 483.624 2.9935 -1.63102 0
M  V30 5247 H 484.817 1.47428 -2.61161 0
M  V30 5248 H 482.37 0.735469 -1.37915 0
M  V30 5249 H 483.105 3.17116 -0.678836 0
M  V30 5250 H 482.89 3.06144 -2.44986 0
M  V30 5251 H 484.38 3.782 -1.77072 0
M  V30 5252 N 484.817 1.37938 0.762283 0
M  V30 5253 C 486.094 1.24196 1.51112 0
M  V30 5254 C 486.474 -0.160409 2.1049 0
M  V30 5255 O 485.822 -1.16904 1.96331 0
M  V30 5256 C 486.032 2.34537 2.58445 0
M  V30 5257 C 487.38 2.7254 3.25588 0
M  V30 5258 O 488.404 2.33783 2.68745 0
M  V30 5259 O 487.263 3.39343 4.28379 0
M  V30 5260 H 484.357 0.485175 0.669727 0
M  V30 5261 H 486.903 1.49743 0.798438 0
M  V30 5262 H 485.675 3.28406 2.12756 0
M  V30 5263 H 485.298 2.10505 3.37303 0
M  V30 5264 N 486.295 -0.989507 1.22664 0
M  V30 5265 C 487.245 -2.06478 0.967005 0
M  V30 5266 C 488.229 -1.60682 -0.0836374 0
M  V30 5267 O 489.421 -1.76541 0.127322 0
M  V30 5268 C 486.55 -3.38861 0.550313 0
M  V30 5269 C 485.636 -3.9128 1.63587 0
M  V30 5270 N 486.027 -4.16884 2.86429 0
M  V30 5271 C 484.325 -4.1972 1.50834 0
M  V30 5272 C 485.026 -4.5954 3.56648 0
M  V30 5273 N 484.002 -4.63434 2.84131 0
M  V30 5274 H 487.804 -2.24219 1.90008 0
M  V30 5275 H 485.318 -1.17153 1.12467 0
M  V30 5276 H 487.315 -4.15465 0.345612 0
M  V30 5277 H 485.975 -3.22518 -0.375822 0
M  V30 5278 H 486.986 -4.04976 3.22823 0
M  V30 5279 H 483.663 -4.1243 0.648643 0
M  V30 5280 H 485.053 -4.87944 4.61909 0
M  V30 5281 N 487.773 -1.03688 -1.18687 0
M  V30 5282 C 489.05 -0.652397 -1.84399 0
M  V30 5283 C 489.43 0.868386 -1.92412 0
M  V30 5284 O 488.778 1.76832 -1.44716 0
M  V30 5285 C 488.988 -1.3238 -3.22919 0
M  V30 5286 C 490.336 -1.45216 -3.98996 0
M  V30 5287 O 491.36 -1.2816 -3.32345 0
M  V30 5288 O 490.219 -1.72975 -5.18403 0
M  V30 5289 H 487.313 -0.227793 -0.795009 0
M  V30 5290 H 489.859 -1.13553 -1.2611 0
M  V30 5291 H 488.631 -2.36202 -3.11968 0
M  V30 5292 H 488.254 -0.829039 -3.88861 0
M  V30 5293 N 489.251 1.34841 -0.815825 0
M  V30 5294 C 490.667 1.51543 -0.500697 0
M  V30 5295 C 490.867 1.76261 0.976444 0
M  V30 5296 O 489.923 1.8094 1.76117 0
M  V30 5297 C 491.236 2.68487 -1.35407 0
M  V30 5298 C 492.784 2.82368 -1.35046 0
M  V30 5299 C 493.259 4.02347 -2.18816 0
M  V30 5300 N 494.75 4.09542 -2.16402 0
M  V30 5301 C 495.485 5.01517 -2.77971 0
M  V30 5302 N 494.981 5.98763 -3.48503 0
M  V30 5303 N 496.774 4.94334 -2.67563 0
M  V30 5304 H 488.925 1.17055 -1.77234 0
M  V30 5305 H 491.188 0.573481 -0.754866 0
M  V30 5306 H 490.894 2.56829 -2.40274 0
M  V30 5307 H 490.768 3.63321 -1.01377 0
M  V30 5308 H 493.155 2.93471 -0.309604 0
M  V30 5309 H 493.236 1.88363 -1.73069 0
M  V30 5310 H 492.88 3.92004 -3.22948 0
M  V30 5311 H 492.81 4.95551 -1.78148 0
M  V30 5312 H 495.301 3.39932 -1.65091 0
M  V30 5313 H 495.614 6.6556 -3.92747 0
M  V30 5314 H 493.959 5.98909 -3.52609 0
M  V30 5315 H 497.15 4.1732 -2.12041 0
M  V30 5316 H 497.323 5.6582 -3.15834 0
M  V30 5317 N 490.729 0.570148 1.46925 0
M  V30 5318 C 491.659 -0.158274 2.32963 0
M  V30 5319 C 492.64 -0.896093 1.44583 0
M  V30 5320 O 493.825 -0.874022 1.7342 0
M  V30 5321 C 490.955 -1.18055 3.26619 0
M  V30 5322 C 489.909 -0.558379 4.24342 0
M  V30 5323 C 489.235 -1.68623 5.07415 0
M  V30 5324 C 490.535 0.496295 5.19937 0
M  V30 5325 H 492.229 0.560046 2.94115 0
M  V30 5326 H 489.775 0.270775 1.41431 0
M  V30 5327 H 491.728 -1.69841 3.85658 0
M  V30 5328 H 490.452 -1.92899 2.63548 0
M  V30 5329 H 489.111 -0.0617157 3.66548 0
M  V30 5330 H 488.759 -2.42402 4.40738 0
M  V30 5331 H 488.459 -1.27564 5.73586 0
M  V30 5332 H 489.983 -2.20709 5.69315 0
M  V30 5333 H 491.397 0.0640052 5.73264 0
M  V30 5334 H 489.794 0.82649 5.94381 0
M  V30 5335 H 490.864 1.38735 4.6463 0
M  V30 5336 N 492.207 -1.54576 0.307264 0
M  V30 5337 C 493.453 -2.0056 -0.300612 0
M  V30 5338 C 493.786 -1.1953 -1.53057 0
M  V30 5339 O 493.061 -0.27337 -1.92569 0
M  V30 5340 C 493.344 -3.54167 -0.650987 0
M  V30 5341 C 493.197 -4.45933 0.588539 0
M  V30 5342 C 494.516 -4.14645 -1.47506 0
M  V30 5343 H 491.635 -0.729075 -0.107788 0
M  V30 5344 H 494.277 -1.85286 0.420606 0
M  V30 5345 H 492.427 -3.67313 -1.26544 0
M  V30 5346 H 494.099 -4.44683 1.22697 0
M  V30 5347 H 492.342 -4.16274 1.22058 0
M  V30 5348 H 493.013 -5.51189 0.299153 0
M  V30 5349 H 495.489 -4.04973 -0.955821 0
M  V30 5350 H 494.365 -5.22269 -1.68899 0
M  V30 5351 H 494.626 -3.66921 -2.4662 0
M  V30 5352 N 493.685 -0.035106 -1.57561 0
M  V30 5353 C 494.632 0.94474 -2.10578 0
M  V30 5354 C 495.602 1.3192 -1.00927 0
M  V30 5355 O 496.787 1.41147 -1.28382 0
M  V30 5356 C 493.927 2.21982 -2.64231 0
M  V30 5357 C 493.04 1.90128 -3.87911 0
M  V30 5358 C 492.175 3.11975 -4.29936 0
M  V30 5359 C 491.214 2.75968 -5.46359 0
M  V30 5360 N 490.351 3.90459 -5.83512 0
M  V30 5361 H 495.191 0.485717 -2.94015 0
M  V30 5362 H 492.728 0.228143 -1.4532 0
M  V30 5363 H 494.686 2.96572 -2.9343 0
M  V30 5364 H 493.316 2.6549 -1.83616 0
M  V30 5365 H 492.368 1.05755 -3.65404 0
M  V30 5366 H 493.68 1.59613 -4.72573 0
M  V30 5367 H 492.834 3.9488 -4.60603 0
M  V30 5368 H 491.573 3.45657 -3.44053 0
M  V30 5369 H 490.578 1.91478 -5.1538 0
M  V30 5370 H 491.803 2.43497 -6.33945 0
M  V30 5371 H 489.749 4.23971 -5.00584 0
M  V30 5372 H 489.666 3.63588 -6.62827 0
M  V30 5373 H 490.934 4.7405 -6.18787 0
M  V30 5374 N 495.163 1.55791 0.238111 0
M  V30 5375 C 496.126 1.90239 1.27835 0
M  V30 5376 C 497.126 0.779552 1.4064 0
M  V30 5377 O 498.316 1.04747 1.3919 0
M  V30 5378 C 495.448 2.13859 2.65475 0
M  V30 5379 H 496.641 2.83262 0.985034 0
M  V30 5380 H 494.194 1.48818 0.477799 0
M  V30 5381 H 494.929 1.23334 2.99932 0
M  V30 5382 H 494.714 2.95643 2.57561 0
M  V30 5383 H 496.204 2.41664 3.40571 0
M  V30 5384 N 496.642 -0.504142 1.49319 0
M  V30 5385 C 497.89 -1.25598 1.58334 0
M  V30 5386 C 498.211 -1.93114 0.270538 0
M  V30 5387 O 497.481 -1.82585 -0.709891 0
M  V30 5388 H 496.061 -0.466571 0.58337 0
M  V30 5389 H 498.723 -0.584547 1.85928 0
M  V30 5390 H 497.819 -2.02159 2.37778 0
M  V30 5391 N 498.12 -1.38341 -0.754957 0
M  V30 5392 C 499.03 -1.3769 -1.89944 0
M  V30 5393 C 500.046 -0.274194 -1.71826 0
M  V30 5394 O 501.222 -0.512391 -1.94773 0
M  V30 5395 C 498.287 -1.19938 -3.25293 0
M  V30 5396 C 497.348 -2.40001 -3.55946 0
M  V30 5397 C 496.581 -2.23087 -4.84838 0
M  V30 5398 O 496.804 -1.22386 -5.57116 0
M  V30 5399 O 495.738 -3.11646 -5.14937 0
M  V30 5400 H 499.564 -2.3412 -1.93446 0
M  V30 5401 H 497.149 -1.19246 -0.900044 0
M  V30 5402 H 499.031 -1.12093 -4.06218 0
M  V30 5403 H 497.706 -0.265919 -3.22606 0
M  V30 5404 H 496.613 -2.53421 -2.75188 0
M  V30 5405 H 497.946 -3.31973 -3.63394 0
M  V30 5406 N 499.598 0.982988 -1.23187 0
M  V30 5407 C 500.844 1.7273 -1.07405 0
M  V30 5408 C 501.199 1.885 0.385447 0
M  V30 5409 O 500.492 1.4243 1.28157 0
M  V30 5410 C 500.686 3.12736 -1.73006 0
M  V30 5411 C 500.515 3.10621 -3.25184 0
M  V30 5412 C 499.285 3.15957 -3.94334 0
M  V30 5413 C 501.483 2.93992 -4.21987 0
M  V30 5414 N 499.465 3.03701 -5.33516 0
M  V30 5415 C 500.836 2.8987 -5.48065 0
M  V30 5416 C 502.891 2.78457 -4.12754 0
M  V30 5417 C 501.594 2.71804 -6.65969 0
M  V30 5418 C 503.62 2.61754 -5.30319 0
M  V30 5419 C 502.982 2.58328 -6.55321 0
M  V30 5420 H 499.081 0.641279 -0.447533 0
M  V30 5421 H 501.665 1.16664 -1.55877 0
M  V30 5422 H 499.836 3.67026 -1.2707 0
M  V30 5423 H 501.568 3.75786 -1.50224 0
M  V30 5424 H 498.323 3.24034 -3.45397 0
M  V30 5425 H 498.747 3.00855 -6.06478 0
M  V30 5426 H 503.389 2.79898 -3.16886 0
M  V30 5427 H 501.107 2.69108 -7.61975 0
M  V30 5428 H 504.693 2.50702 -5.25014 0
M  V30 5429 H 503.573 2.45564 -7.4476 0
M  V30 5430 N 501.076 1.04316 1.18135 0
M  V30 5431 C 502.006 0.657299 2.24058 0
M  V30 5432 C 502.987 -0.340678 1.66654 0
M  V30 5433 O 504.172 -0.220223 1.92947 0
M  V30 5434 C 501.302 0.0220715 3.47293 0
M  V30 5435 C 500.256 0.943857 4.17463 0
M  V30 5436 C 499.582 0.172973 5.3442 0
M  V30 5437 C 500.882 2.26409 4.70677 0
M  V30 5438 H 502.576 1.5428 2.56589 0
M  V30 5439 H 500.122 0.743263 1.23335 0
M  V30 5440 H 502.075 -0.259607 4.206 0
M  V30 5441 H 500.799 -0.898323 3.14003 0
M  V30 5442 H 499.458 1.20996 3.46057 0
M  V30 5443 H 499.106 -0.749907 4.97379 0
M  V30 5444 H 498.806 0.787098 5.82304 0
M  V30 5445 H 500.33 -0.101628 6.10515 0
M  V30 5446 H 501.744 2.04294 5.35665 0
M  V30 5447 H 500.141 2.8314 5.29105 0
M  V30 5448 H 501.211 2.90883 3.87962 0
M  V30 5449 N 502.554 -1.34406 0.822964 0
M  V30 5450 C 503.484 -2.32052 0.259608 0
M  V30 5451 C 504.465 -1.58243 -0.623961 0
M  V30 5452 O 505.65 -1.86224 -0.55083 0
M  V30 5453 C 502.78 -3.42434 -0.579314 0
M  V30 5454 C 501.734 -4.27499 0.20712 0
M  V30 5455 C 501.06 -5.29349 -0.754547 0
M  V30 5456 C 502.36 -5.02758 1.41533 0
M  V30 5457 H 504.054 -2.79418 1.07545 0
M  V30 5458 H 501.6 -1.34338 0.518593 0
M  V30 5459 H 503.553 -4.0976 -0.983612 0
M  V30 5460 H 502.277 -2.93717 -1.4282 0
M  V30 5461 H 500.936 -3.61776 0.592787 0
M  V30 5462 H 500.584 -4.76895 -1.59939 0
M  V30 5463 H 500.284 -5.8714 -0.232561 0
M  V30 5464 H 501.808 -5.99544 -1.1567 0
M  V30 5465 H 503.222 -5.62938 1.08504 0
M  V30 5466 H 501.619 -5.70123 1.87296 0
M  V30 5467 H 502.689 -4.32451 2.1935 0
M  V30 5468 N 504.032 -0.577932 -1.46621 0
M  V30 5469 C 505.309 0.00495287 -1.95599 0
M  V30 5470 C 505.689 1.46428 -1.5206 0
M  V30 5471 O 505.037 2.1517 -0.769046 0
M  V30 5472 C 505.247 -0.162114 -3.48623 0
M  V30 5473 C 506.595 -0.0274623 -4.24591 0
M  V30 5474 O 507.619 -0.0907067 -3.56084 0
M  V30 5475 O 506.478 0.1122 -5.46385 0
M  V30 5476 H 503.572 0.0525057 -0.825332 0
M  V30 5477 H 506.118 -0.645914 -1.56927 0
M  V30 5478 H 504.89 -1.17679 -3.73185 0
M  V30 5479 H 504.513 0.525407 -3.94113 0
M  V30 5480 N 505.51 1.54411 -0.315457 0
M  V30 5481 C 506.926 1.59556 0.037464 0
M  V30 5482 C 507.126 1.33217 1.5118 0
M  V30 5483 O 506.182 1.11264 2.26664 0
M  V30 5484 C 507.495 2.98372 -0.373477 0
M  V30 5485 C 509.043 3.11324 -0.323452 0
M  V30 5486 C 509.518 4.52472 -0.709433 0
M  V30 5487 N 511.009 4.58437 -0.662524 0
M  V30 5488 C 511.744 5.65751 -0.933474 0
M  V30 5489 N 511.24 6.81039 -1.27114 0
M  V30 5490 N 513.033 5.55489 -0.859573 0
M  V30 5491 H 505.184 1.6979 -1.27614 0
M  V30 5492 H 507.447 0.793732 -0.518356 0
M  V30 5493 H 507.153 3.22618 -1.40037 0
M  V30 5494 H 507.027 3.76264 0.265615 0
M  V30 5495 H 509.414 2.86818 0.694223 0
M  V30 5496 H 509.495 2.35555 -0.997367 0
M  V30 5497 H 509.139 4.7771 -1.72498 0
M  V30 5498 H 509.069 5.26598 -0.0132923 0
M  V30 5499 H 511.56 3.75636 -0.413065 0
M  V30 5500 H 511.873 7.58816 -1.46348 0
M  V30 5501 H 510.218 6.82555 -1.30932 0
M  V30 5502 H 513.409 4.64299 -0.595324 0
M  V30 5503 H 513.582 6.39036 -1.0741 0
M  V30 5504 N 506.988 0.0434614 1.5754 0
M  V30 5505 C 507.92 -0.962586 2.08007 0
M  V30 5506 C 508.933 -1.27972 1.00634 0
M  V30 5507 O 510.122 -1.24186 1.28219 0
M  V30 5508 C 507.222 -2.28621 2.50171 0
M  V30 5509 C 506.395 -2.15214 3.80791 0
M  V30 5510 C 505.454 -3.30633 4.09351 0
M  V30 5511 O 504.48 -3.0688 4.79388 0
M  V30 5512 N 505.682 -4.54873 3.60654 0
M  V30 5513 H 508.447 -0.531891 2.94942 0
M  V30 5514 H 506.008 -0.142965 1.61268 0
M  V30 5515 H 508 -3.04689 2.66359 0
M  V30 5516 H 506.57 -2.63283 1.68525 0
M  V30 5517 H 505.79 -1.23785 3.74261 0
M  V30 5518 H 507.078 -2.03475 4.66343 0
M  V30 5519 H 506.476 -4.77063 3.04019 0
M  V30 5520 H 505.033 -5.2806 3.82094 0
M  V30 5521 N 508.466 -1.55915 -0.229846 0
M  V30 5522 C 509.715 -1.77742 -0.953455 0
M  V30 5523 C 510.028 -0.610524 -1.85828 0
M  V30 5524 O 511.234 -0.712219 -2.61992 0
M  V30 5525 C 509.69 -3.14738 -1.74551 0
M  V30 5526 C 509.298 -4.39126 -0.887242 0
M  V30 5527 C 511.042 -3.45895 -2.46084 0
M  V30 5528 C 508.949 -5.67149 -1.67617 0
M  V30 5529 H 507.879 -0.662648 -0.359741 0
M  V30 5530 H 510.53 -1.82322 -0.207576 0
M  V30 5531 H 508.912 -3.04311 -2.53399 0
M  V30 5532 H 510.086 -4.60588 -0.139892 0
M  V30 5533 H 508.401 -4.15427 -0.284443 0
M  V30 5534 H 510.998 -4.38767 -3.05594 0
M  V30 5535 H 511.341 -2.68007 -3.18556 0
M  V30 5536 H 511.874 -3.57614 -1.74233 0
M  V30 5537 H 508.613 -6.47906 -0.994881 0
M  V30 5538 H 508.133 -5.49763 -2.39836 0
M  V30 5539 H 509.812 -6.07025 -2.23898 0
M  V30 5540 N 509.944 0.496216 -1.49584 0
M  V30 5541 C 511.172 1.27394 -1.63029 0
M  V30 5542 C 511.587 1.86344 -0.303569 0
M  V30 5543 O 510.944 1.68057 0.711547 0
M  V30 5544 C 510.995 2.40077 -2.70269 0
M  V30 5545 O 510.716 1.83549 -3.97796 0
M  V30 5546 C 512.217 3.31372 -2.94462 0
M  V30 5547 H 509.437 0.386211 -0.54871 0
M  V30 5548 H 511.981 0.595163 -1.95648 0
M  V30 5549 H 510.136 3.03775 -2.40415 0
M  V30 5550 H 510.55 2.57561 -4.56905 0
M  V30 5551 H 512.024 4.06707 -3.73221 0
M  V30 5552 H 512.501 3.88654 -2.0456 0
M  V30 5553 H 513.107 2.73435 -3.25751 0
M  V30 5554 N 511.423 1.38739 0.74761 0
M  V30 5555 C 512.669 1.35475 1.50912 0
M  V30 5556 C 513.002 -0.0533093 1.94127 0
M  V30 5557 O 512.277 -1.01572 1.65871 0
M  V30 5558 C 512.56 2.31582 2.75757 0
M  V30 5559 C 512.413 3.81274 2.38642 0
M  V30 5560 C 513.732 2.25722 3.77806 0
M  V30 5561 H 510.851 0.493427 0.547447 0
M  V30 5562 H 513.493 1.69634 0.855823 0
M  V30 5563 H 511.643 2.02582 3.31501 0
M  V30 5564 H 513.315 4.20972 1.88626 0
M  V30 5565 H 511.558 3.98664 1.71025 0
M  V30 5566 H 512.229 4.4399 3.27989 0
M  V30 5567 H 514.705 2.51336 3.31616 0
M  V30 5568 H 513.581 2.95069 4.62845 0
M  V30 5569 H 513.842 1.25803 4.23823 0
M  V30 5570 N 512.901 -0.976442 1.23707 0
M  V30 5571 C 514.312 -1.53284 1.06587 0
M  V30 5572 C 514.663 -1.92765 -0.365526 0
M  V30 5573 O 513.788 -1.7645 -1.25277 0
M  V30 5574 C 514.383 -2.78548 1.92864 0
M  V30 5575 C 512.942 -3.30574 1.79994 0
M  V30 5576 C 512.089 -2.03538 1.88328 0
M  V30 5577 H 515.04 -0.795692 1.37311 0
M  V30 5578 H 515.061 -3.5155 1.45577 0
M  V30 5579 H 514.573 -2.49782 2.97037 0
M  V30 5580 H 512.674 -3.64211 0.786202 0
M  V30 5581 H 512.787 -4.00065 2.636 0
M  V30 5582 H 511.151 -2.17853 1.31954 0
M  V30 5583 H 511.934 -1.77149 2.94063 0
M  V30 5584 N 514.379 -1.04941 -1.1758 0
M  V30 5585 C 515.627 -0.756492 -1.87408 0
M  V30 5586 C 515.948 0.718478 -1.81281 0
M  V30 5587 O 515.218 1.519 -1.23706 0
M  V30 5588 H 513.798 -0.276841 -0.693807 0
M  V30 5589 H 516.46 -1.32803 -1.42652 0
M  V30 5590 H 515.556 -1.06918 -2.93215 0
M  V30 5591 N 515.857 1.33968 -0.830081 0
M  V30 5592 C 517.134 1.92554 -0.343858 0
M  V30 5593 C 517.514 1.7573 1.16971 0
M  V30 5594 O 516.862 1.14035 1.98011 0
M  V30 5595 C 517.072 3.40147 -0.781073 0
M  V30 5596 C 518.42 4.17299 -0.78402 0
M  V30 5597 O 519.444 3.48762 -0.724112 0
M  V30 5598 O 518.303 5.39631 -0.863739 0
M  V30 5599 H 515.397 0.821469 -0.0954827 0
M  V30 5600 H 517.943 1.42897 -0.915348 0
M  V30 5601 H 516.715 3.46225 -1.82329 0
M  V30 5602 H 516.338 3.97166 -0.18567 0
M  V30 5603 N 517.335 0.585699 1.46312 0
M  V30 5604 C 518.581 0.0808731 2.03239 0
M  V30 5605 C 518.936 -1.26609 1.44872 0
M  V30 5606 O 518.229 -1.81779 0.60556 0
M  V30 5607 C 518.423 -0.0401312 3.57377 0
M  V30 5608 C 518.252 1.29356 4.30694 0
M  V30 5609 C 517.022 1.86849 4.69484 0
M  V30 5610 C 519.22 2.21742 4.64042 0
M  V30 5611 N 517.202 3.13926 5.27564 0
M  V30 5612 C 518.573 3.33408 5.22723 0
M  V30 5613 C 520.628 2.21386 4.45974 0
M  V30 5614 C 519.331 4.44852 5.65242 0
M  V30 5615 C 521.357 3.31862 4.89511 0
M  V30 5616 C 520.719 4.42248 5.48266 0
M  V30 5617 H 516.818 0.072443 0.778637 0
M  V30 5618 H 519.402 0.779254 1.78426 0
M  V30 5619 H 517.573 -0.707686 3.81898 0
M  V30 5620 H 519.305 -0.549615 4.00951 0
M  V30 5621 H 516.06 1.40307 4.52339 0
M  V30 5622 H 516.484 3.78775 5.61122 0
M  V30 5623 H 521.126 1.37314 3.99881 0
M  V30 5624 H 518.844 5.29665 6.10312 0
M  V30 5625 H 522.43 3.32708 4.7728 0
M  V30 5626 H 521.31 5.26323 5.81338 0
M  V30 5627 N 518.813 -1.54241 0.323641 0
M  V30 5628 C 519.776 -2.22997 -0.529602 0
M  V30 5629 C 520.776 -1.22345 -1.04347 0
M  V30 5630 O 521.966 -1.46924 -0.935889 0
M  V30 5631 C 519.098 -2.93409 -1.73562 0
M  V30 5632 H 520.291 -2.99815 0.0714518 0
M  V30 5633 H 517.844 -1.56121 0.0747258 0
M  V30 5634 H 518.579 -2.20729 -2.37591 0
M  V30 5635 H 518.364 -3.67217 -1.37456 0
M  V30 5636 H 519.854 -3.45794 -2.34128 0
M  V30 5637 N 520.291 -0.0518155 -1.57515 0
M  V30 5638 C 521.537 0.622745 -1.93002 0
M  V30 5639 C 521.87 1.70456 -0.930499 0
M  V30 5640 O 521.145 1.94452 0.0434086 0
M  V30 5641 C 521.428 1.21824 -3.38867 0
M  V30 5642 C 521.281 0.144434 -4.49568 0
M  V30 5643 C 522.6 2.12968 -3.8514 0
M  V30 5644 H 519.719 0.22491 -0.701844 0
M  V30 5645 H 522.361 -0.113711 -1.89659 0
M  V30 5646 H 520.511 1.8459 -3.41846 0
M  V30 5647 H 522.183 -0.48753 -4.58717 0
M  V30 5648 H 520.426 -0.527424 -4.30582 0
M  V30 5649 H 521.097 0.601127 -5.48717 0
M  V30 5650 H 523.573 1.60163 -3.8404 0
M  V30 5651 H 522.449 2.51578 -4.87852 0
M  V30 5652 H 522.71 3.03004 -3.21934 0
M  V30 5653 N 521.769 1.56035 0.221574 0
M  V30 5654 C 522.716 1.92413 1.27459 0
M  V30 5655 C 523.686 0.781323 1.46576 0
M  V30 5656 O 524.871 1.03721 1.60145 0
M  V30 5657 C 522.011 2.24617 2.61995 0
M  V30 5658 C 521.124 3.51831 2.50677 0
M  V30 5659 C 520.259 3.73482 3.77736 0
M  V30 5660 C 519.298 4.94211 3.6114 0
M  V30 5661 N 518.435 5.12252 4.80148 0
M  V30 5662 H 523.275 2.82203 0.957355 0
M  V30 5663 H 520.812 1.39676 0.461415 0
M  V30 5664 H 522.77 2.41298 3.40339 0
M  V30 5665 H 521.4 1.38 2.91815 0
M  V30 5666 H 520.452 3.43343 1.63767 0
M  V30 5667 H 521.764 4.40328 2.34334 0
M  V30 5668 H 520.918 3.9026 4.64523 0
M  V30 5669 H 519.657 2.83266 3.97003 0
M  V30 5670 H 518.662 4.77384 2.72736 0
M  V30 5671 H 519.887 5.85912 3.43343 0
M  V30 5672 H 517.833 4.24978 4.99729 0
M  V30 5673 H 517.75 5.94881 4.66532 0
M  V30 5674 H 519.018 5.33465 5.68362 0
M  V30 5675 N 523.247 -0.488276 1.49845 0
M  V30 5676 C 524.663 -0.820566 1.3689 0
M  V30 5677 C 524.863 -1.97248 0.411752 0
M  V30 5678 O 523.919 -2.52042 -0.151931 0
M  V30 5679 C 525.232 -1.1488 2.77891 0
M  V30 5680 C 526.78 -1.25626 2.86683 0
M  V30 5681 C 527.255 -1.61772 4.28479 0
M  V30 5682 N 528.746 -1.68797 4.31349 0
M  V30 5683 C 529.481 -1.98235 5.38043 0
M  V30 5684 N 528.977 -2.2581 6.54967 0
M  V30 5685 N 530.77 -1.99593 5.2547 0
M  V30 5686 H 522.921 0.271123 2.10662 0
M  V30 5687 H 525.184 0.058735 0.946179 0
M  V30 5688 H 524.89 -0.375614 3.49688 0
M  V30 5689 H 524.764 -2.08919 3.14058 0
M  V30 5690 H 527.151 -2.02014 2.15114 0
M  V30 5691 H 527.232 -0.296072 2.54081 0
M  V30 5692 H 526.876 -0.859295 5.00578 0
M  V30 5693 H 526.806 -2.58912 4.58554 0
M  V30 5694 H 529.297 -1.49595 3.4703 0
M  V30 5695 H 529.61 -2.47497 7.32096 0
M  V30 5696 H 527.955 -2.23239 6.58171 0
M  V30 5697 H 531.146 -1.77535 4.33127 0
M  V30 5698 H 531.319 -2.222 6.08713 0
M  V30 5699 N 524.725 -1.39134 -0.740242 0
M  V30 5700 C 526.136 -1.32208 -1.31825 0
M  V30 5701 C 526.487 0.0159919 -1.96193 0
M  V30 5702 O 525.612 0.918111 -1.95958 0
M  V30 5703 C 526.207 -2.39436 -2.39699 0
M  V30 5704 C 524.766 -2.36048 -2.93187 0
M  V30 5705 C 523.913 -2.21599 -1.66701 0
M  V30 5706 H 526.864 -1.49298 -0.538133 0
M  V30 5707 H 526.885 -2.05922 -3.19963 0
M  V30 5708 H 526.397 -3.36811 -1.92821 0
M  V30 5709 H 524.498 -1.42295 -3.44359 0
M  V30 5710 H 524.611 -3.30704 -3.46658 0
M  V30 5711 H 522.975 -1.68681 -1.90837 0
M  V30 5712 H 523.758 -3.20936 -1.21882 0
M  V30 5713 N 526.204 0.969867 -1.24223 0
M  V30 5714 C 527.152 2.08535 -1.03034 0
M  V30 5715 C 528.146 1.69366 0.0340379 0
M  V30 5716 O 529.352 1.79597 -0.12034 0
M  V30 5717 H 525.727 0.682313 -0.316154 0
M  V30 5718 H 527.698 2.23569 -1.97635 0
M  V30 5719 C 526.447 3.4158 -0.649509 0
M  V30 5720 H 525.77 3.72177 -1.46028 0
M  V30 5721 H 527.21 4.20536 -0.540841 0
M  V30 5722 C 525.669 3.30703 0.643194 0
M  V30 5723 O 526.199 3.64443 1.68951 0
M  V30 5724 N 524.405 2.83841 0.623095 0
M  V30 5725 H 523.952 2.56583 -0.228719 0
M  V30 5726 H 523.91 2.76946 1.48823 0
M  V30 5727 N 527.682 1.05563 1.17022 0
M  V30 5728 C 528.612 0.681026 2.23348 0
M  V30 5729 C 529.593 -0.322983 1.67005 0
M  V30 5730 O 530.778 -0.199746 1.9317 0
M  V30 5731 C 527.908 0.0589053 3.4725 0
M  V30 5732 C 526.862 0.988082 4.16438 0
M  V30 5733 C 526.188 0.229646 5.34207 0
M  V30 5734 C 527.488 2.31388 4.68249 0
M  V30 5735 H 529.182 1.56993 2.54938 0
M  V30 5736 H 526.728 0.756302 1.2254 0
M  V30 5737 H 528.681 -0.214982 4.20851 0
M  V30 5738 H 527.405 -0.864968 3.14938 0
M  V30 5739 H 526.064 1.24659 3.44754 0
M  V30 5740 H 525.712 -0.697111 4.98146 0
M  V30 5741 H 525.412 0.848815 5.81437 0
M  V30 5742 H 526.936 -0.0368694 6.10589 0
M  V30 5743 H 528.35 2.09964 5.33468 0
M  V30 5744 H 526.747 2.88736 5.26072 0
M  V30 5745 H 527.817 2.94982 3.84855 0
M  V30 5746 N 529.16 -1.33526 0.837174 0
M  V30 5747 C 530.107 -2.29248 0.267169 0
M  V30 5748 C 531.077 -1.54252 -0.616071 0
M  V30 5749 O 532.262 -1.82559 -0.554699 0
M  V30 5750 C 529.402 -3.40638 -0.553152 0
M  V30 5751 C 528.515 -4.30548 0.353921 0
M  V30 5752 C 527.65 -5.29051 -0.477339 0
M  V30 5753 C 526.689 -6.106 0.42823 0
M  V30 5754 N 525.826 -7.01152 -0.364801 0
M  V30 5755 H 530.666 -2.77398 1.08877 0
M  V30 5756 H 528.203 -1.36496 0.54838 0
M  V30 5757 H 530.161 -4.03921 -1.04422 0
M  V30 5758 H 528.791 -2.93685 -1.33973 0
M  V30 5759 H 527.843 -3.68001 0.963289 0
M  V30 5760 H 529.155 -4.87631 1.04964 0
M  V30 5761 H 528.309 -5.97853 -1.0323 0
M  V30 5762 H 527.048 -4.72541 -1.2065 0
M  V30 5763 H 526.053 -5.40718 0.995219 0
M  V30 5764 H 527.278 -6.69193 1.15573 0
M  V30 5765 H 525.224 -6.47092 -1.07738 0
M  V30 5766 H 525.141 -7.5551 0.272238 0
M  V30 5767 H 526.409 -7.74263 -0.902054 0
M  V30 5768 N 530.638 -0.59345 -1.46 0
M  V30 5769 C 532.049 -0.169801 -1.85926 0
M  V30 5770 C 532.4 1.26984 -1.49565 0
M  V30 5771 O 531.525 1.96076 -0.915602 0
M  V30 5772 C 532.12 -0.301385 -3.37457 0
M  V30 5773 C 530.679 0.0674684 -3.7634 0
M  V30 5774 C 529.826 -0.632383 -2.69993 0
M  V30 5775 H 532.777 -0.801014 -1.37002 0
M  V30 5776 H 532.798 0.470331 -3.77582 0
M  V30 5777 H 532.31 -1.34927 -3.63891 0
M  V30 5778 H 530.411 1.11507 -3.55523 0
M  V30 5779 H 530.524 -0.316332 -4.78055 0
M  V30 5780 H 528.888 -0.0714961 -2.546 0
M  V30 5781 H 529.671 -1.68212 -2.99265 0
M  V30 5782 N 532.116 1.54067 -0.331816 0
M  V30 5783 C 533.364 2.00319 0.267739 0
M  V30 5784 C 533.685 1.22148 1.52003 0
M  V30 5785 O 532.955 0.325494 1.93177 0
M  V30 5786 H 531.535 0.740014 0.101922 0
M  V30 5787 H 534.197 1.89628 -0.450267 0
M  V30 5788 H 533.293 3.07765 0.518385 0
M  V30 5789 N 533.594 0.0601682 1.57485 0
M  V30 5790 C 534.842 -0.610386 1.92662 0
M  V30 5791 C 535.163 -1.70849 0.939981 0
M  V30 5792 O 534.433 -1.95895 -0.0137455 0
M  V30 5793 H 533.013 -0.228457 0.711208 0
M  V30 5794 H 535.675 0.115288 1.94559 0
M  V30 5795 H 534.771 -1.0432 2.94149 0
M  V30 5796 N 535.072 -1.5615 -0.213296 0
M  V30 5797 C 536.319 -1.79546 -0.936462 0
M  V30 5798 C 536.647 -0.630337 -1.84003 0
M  V30 5799 O 535.902 0.384883 -1.91878 0
M  V30 5800 C 536.201 -3.08772 -1.79985 0
M  V30 5801 C 535.867 -4.38532 -1.04882 0
M  V30 5802 C 534.529 -4.73787 -0.841393 0
M  V30 5803 C 536.881 -5.18609 -0.51907 0
M  V30 5804 C 534.209 -5.86627 -0.0924403 0
M  V30 5805 C 536.561 -6.32229 0.216581 0
M  V30 5806 C 535.225 -6.6608 0.435191 0
M  V30 5807 H 534.495 -0.657004 -0.342676 0
M  V30 5808 H 537.142 -1.9041 -0.204051 0
M  V30 5809 H 535.447 -2.93065 -2.60038 0
M  V30 5810 H 537.144 -3.24077 -2.36168 0
M  V30 5811 H 533.734 -4.10855 -1.22048 0
M  V30 5812 H 537.918 -4.91801 -0.666775 0
M  V30 5813 H 533.174 -6.11338 0.087081 0
M  V30 5814 H 537.348 -6.93503 0.634538 0
M  V30 5815 H 534.975 -7.5336 1.01746 0
M  V30 5816 N 536.55 0.480323 -1.50102 0
M  V30 5817 C 537.513 1.56181 -1.6775 0
M  V30 5818 C 538.513 1.51156 -0.548503 0
M  V30 5819 O 539.703 1.5394 -0.815363 0
M  V30 5820 C 536.835 2.95823 -1.69415 0
M  V30 5821 H 538.028 1.41855 -2.6423 0
M  V30 5822 H 535.581 0.70605 -1.39444 0
M  V30 5823 H 536.316 3.15604 -0.745948 0
M  V30 5824 H 536.101 3.00878 -2.51425 0
M  V30 5825 H 537.591 3.74359 -1.85054 0
M  V30 5826 N 538.028 1.39524 0.732853 0
M  V30 5827 C 539.275 1.36865 1.49246 0
M  V30 5828 C 539.603 -0.0347118 1.94469 0
M  V30 5829 O 538.858 -1.01596 1.67262 0
M  V30 5830 C 539.157 2.28916 2.74468 0
M  V30 5831 C 538.823 3.76506 2.481 0
M  V30 5832 C 537.485 4.16721 2.40619 0
M  V30 5833 C 539.837 4.69846 2.25598 0
M  V30 5834 C 537.165 5.48334 2.08679 0
M  V30 5835 C 539.517 6.01739 1.95174 0
M  V30 5836 C 538.181 6.41015 1.86163 0
M  V30 5837 H 537.451 0.500824 0.546129 0
M  V30 5838 H 540.098 1.72047 0.840958 0
M  V30 5839 H 538.403 1.86859 3.4437 0
M  V30 5840 H 540.1 2.2415 3.32502 0
M  V30 5841 H 536.69 3.44635 2.54803 0
M  V30 5842 H 540.874 4.39608 2.30344 0
M  V30 5843 H 536.13 5.77685 2.00226 0
M  V30 5844 H 540.304 6.73591 1.76771 0
M  V30 5845 H 537.931 7.42917 1.61179 0
M  V30 5846 N 539.506 -0.963266 1.24736 0
M  V30 5847 C 540.438 -2.06162 1.0015 0
M  V30 5848 C 541.451 -1.62771 -0.0305905 0
M  V30 5849 O 542.64 -1.77296 0.206966 0
M  V30 5850 C 539.74 -3.35333 0.490385 0
M  V30 5851 C 538.913 -4.07609 1.58663 0
M  V30 5852 C 537.972 -5.15052 1.0774 0
M  V30 5853 O 536.998 -5.4098 1.77002 0
M  V30 5854 N 538.2 -5.80436 -0.0858605 0
M  V30 5855 H 540.965 -2.27825 1.94719 0
M  V30 5856 H 538.526 -1.13121 1.15825 0
M  V30 5857 H 540.518 -4.04477 0.134371 0
M  V30 5858 H 539.088 -3.10507 -0.361155 0
M  V30 5859 H 538.308 -3.32681 2.11463 0
M  V30 5860 H 539.596 -4.52656 2.32336 0
M  V30 5861 H 538.994 -5.6178 -0.664806 0
M  V30 5862 H 537.551 -6.50674 -0.382981 0
M  V30 5863 N 540.985 -1.06182 -1.16461 0
M  V30 5864 C 542.232 -0.777863 -1.86964 0
M  V30 5865 C 542.56 0.695602 -1.81636 0
M  V30 5866 O 541.815 1.52532 -1.22607 0
M  V30 5867 C 542.114 -1.21633 -3.36066 0
M  V30 5868 C 541.78 -2.69371 -3.61594 0
M  V30 5869 C 540.442 -3.09727 -3.6827 0
M  V30 5870 C 542.794 -3.64791 -3.7226 0
M  V30 5871 C 540.122 -4.44345 -3.83112 0
M  V30 5872 C 542.474 -4.99155 -3.88623 0
M  V30 5873 C 541.138 -5.39149 -3.93541 0
M  V30 5874 H 540.408 -0.28464 -0.68415 0
M  V30 5875 H 543.055 -1.33071 -1.37711 0
M  V30 5876 H 541.36 -0.582651 -3.87443 0
M  V30 5877 H 543.057 -0.973682 -3.88999 0
M  V30 5878 H 539.647 -2.37124 -3.57029 0
M  V30 5879 H 543.831 -3.34746 -3.66413 0
M  V30 5880 H 539.087 -4.74819 -3.85172 0
M  V30 5881 H 543.261 -5.72976 -3.95817 0
M  V30 5882 H 540.888 -6.43464 -4.04794 0
M  V30 5883 N 542.463 1.3308 -0.844243 0
M  V30 5884 C 543.74 1.92178 -0.364261 0
M  V30 5885 C 544.12 1.76961 1.15101 0
M  V30 5886 O 543.468 1.16128 1.9679 0
M  V30 5887 C 543.678 3.393 -0.817106 0
M  V30 5888 C 545.026 4.16444 -0.828236 0
M  V30 5889 O 546.05 3.47975 -0.761062 0
M  V30 5890 O 544.909 5.38685 -0.920926 0
M  V30 5891 H 542.003 0.820411 -0.10419 0
M  V30 5892 H 544.549 1.41918 -0.930453 0
M  V30 5893 H 543.321 3.44272 -1.85991 0
M  V30 5894 H 542.944 3.96947 -0.227785 0
M  V30 5895 N 543.941 0.601185 1.45683 0
M  V30 5896 C 544.889 -0.133955 2.32214 0
M  V30 5897 C 545.883 -0.866034 1.45589 0
M  V30 5898 O 547.089 -0.782326 1.6211 0
M  V30 5899 H 543.464 -0.0620613 0.749435 0
M  V30 5900 H 545.435 0.614389 2.92007 0
M  V30 5901 C 544.184 -1.12216 3.29094 0
M  V30 5902 H 543.507 -0.568273 3.95741 0
M  V30 5903 H 544.947 -1.60659 3.92383 0
M  V30 5904 C 543.406 -2.19251 2.55794 0
M  V30 5905 O 543.936 -3.26894 2.33459 0
M  V30 5906 N 542.142 -1.9436 2.16039 0
M  V30 5907 H 541.689 -1.06829 2.34404 0
M  V30 5908 H 541.647 -2.66181 1.67318 0
M  V30 5909 N 545.419 -1.53889 0.339982 0
M  V30 5910 C 546.665 -2.01152 -0.258003 0
M  V30 5911 C 546.998 -1.22749 -1.50487 0
M  V30 5912 O 546.273 -0.314156 -1.91946 0
M  V30 5913 C 546.556 -3.55468 -0.575717 0
M  V30 5914 C 546.409 -4.44584 0.682996 0
M  V30 5915 C 547.728 -4.1768 -1.38677 0
M  V30 5916 H 544.847 -0.731198 -0.0922992 0
M  V30 5917 H 547.489 -1.84352 0.459814 0
M  V30 5918 H 545.639 -3.69914 -1.18725 0
M  V30 5919 H 547.311 -4.41981 1.32102 0
M  V30 5920 H 545.554 -4.13592 1.3086 0
M  V30 5921 H 546.225 -5.5043 0.416001 0
M  V30 5922 H 548.701 -4.0691 -0.869705 0
M  V30 5923 H 547.577 -5.25734 -1.57783 0
M  V30 5924 H 547.838 -3.72069 -2.38782 0
M  V30 5925 N 546.897 -0.0685191 -1.57451 0
M  V30 5926 C 548.127 0.609577 -1.97402 0
M  V30 5927 C 548.535 1.63882 -0.945489 0
M  V30 5928 O 547.878 1.8354 0.0766052 0
M  V30 5929 C 547.94 1.3385 -3.33653 0
M  V30 5930 C 547.604 0.463103 -4.54648 0
M  V30 5931 C 548.601 -0.277964 -5.19156 0
M  V30 5932 C 546.286 0.388941 -5.00792 0
M  V30 5933 C 548.28 -1.08145 -6.28159 0
M  V30 5934 C 545.967 -0.418217 -6.09667 0
M  V30 5935 C 546.965 -1.15208 -6.73213 0
M  V30 5936 O 546.653 -1.94594 -7.79993 0
M  V30 5937 H 546.385 0.170197 -0.654224 0
M  V30 5938 H 548.939 -0.13647 -2.04946 0
M  V30 5939 H 547.169 2.13055 -3.22714 0
M  V30 5940 H 548.858 1.90851 -3.58233 0
M  V30 5941 H 549.624 -0.230241 -4.84453 0
M  V30 5942 H 545.503 0.949769 -4.5111 0
M  V30 5943 H 549.047 -1.65476 -6.7769 0
M  V30 5944 H 544.944 -0.467515 -6.43805 0
M  V30 5945 H 545.712 -1.8699 -7.96854 0
M  V30 5946 N 548.375 1.56261 0.205012 0
M  V30 5947 C 549.605 1.83874 0.942018 0
M  V30 5948 C 550.013 0.647595 1.77772 0
M  V30 5949 O 549.356 -0.393098 1.79445 0
M  V30 5950 C 549.418 3.05453 1.89575 0
M  V30 5951 C 549.082 4.39772 1.24296 0
M  V30 5952 C 550.079 5.16133 0.624724 0
M  V30 5953 C 547.764 4.86504 1.24978 0
M  V30 5954 C 549.758 6.37396 0.0220117 0
M  V30 5955 C 547.445 6.07705 0.643232 0
M  V30 5956 C 548.443 6.82993 0.0304164 0
M  V30 5957 O 548.131 8.019 -0.566654 0
M  V30 5958 H 547.863 0.614896 0.280854 0
M  V30 5959 H 550.417 2.04215 0.220285 0
M  V30 5960 H 548.647 2.80972 2.65691 0
M  V30 5961 H 550.336 3.19797 2.4997 0
M  V30 5962 H 551.102 4.81127 0.611666 0
M  V30 5963 H 546.981 4.27865 1.71616 0
M  V30 5964 H 550.525 6.96102 -0.456926 0
M  V30 5965 H 546.422 6.42181 0.653759 0
M  V30 5966 H 547.19 8.17192 -0.462588 0
M  V30 5967 N 549.853 -0.472356 1.50355 0
M  V30 5968 C 551.264 -1.05326 1.54154 0
M  V30 5969 C 551.615 -1.93155 0.344303 0
M  V30 5970 O 550.74 -2.09479 -0.542928 0
M  V30 5971 C 551.335 -1.91691 2.79356 0
M  V30 5972 C 549.894 -2.44892 2.8584 0
M  V30 5973 C 549.041 -1.23205 2.48426 0
M  V30 5974 H 551.992 -0.255027 1.56637 0
M  V30 5975 H 552.013 -2.76742 2.6114 0
M  V30 5976 H 551.525 -1.27741 3.66475 0
M  V30 5977 H 549.626 -3.12399 2.0307 0
M  V30 5978 H 549.739 -2.80086 3.88701 0
M  V30 5979 H 548.103 -1.56643 2.00836 0
M  V30 5980 H 548.886 -0.609194 3.37852 0
M  V30 5981 N 551.331 -1.39911 -0.725443 0
M  V30 5982 C 552.608 -1.28158 -1.47766 0
M  V30 5983 C 552.988 0.104545 -2.10841 0
M  V30 5984 O 552.336 1.11657 -1.99361 0
M  V30 5985 C 552.546 -2.41306 -2.52135 0
M  V30 5986 C 553.894 -2.81076 -3.18247 0
M  V30 5987 O 554.918 -2.40827 -2.62452 0
M  V30 5988 O 553.777 -3.50581 -4.19231 0
M  V30 5989 H 550.871 -0.502761 -0.656628 0
M  V30 5990 H 553.417 -1.51808 -0.758456 0
M  V30 5991 H 552.189 -3.33932 -2.03974 0
M  V30 5992 H 551.812 -2.19374 -3.31603 0
M  V30 5993 N 552.809 0.956637 -1.25245 0
M  V30 5994 C 554.055 1.70352 -1.10036 0
M  V30 5995 C 554.388 1.90869 0.358156 0
M  V30 5996 O 553.663 1.47819 1.26411 0
M  V30 5997 C 553.946 3.08766 -1.85298 0
M  V30 5998 C 553.799 2.95672 -3.38966 0
M  V30 5999 C 555.118 4.08622 -1.63451 0
M  V30 6000 H 552.237 0.618279 -0.401123 0
M  V30 6001 H 554.879 1.11212 -1.54051 0
M  V30 6002 H 553.029 3.59252 -1.47887 0
M  V30 6003 H 554.701 2.52527 -3.86041 0
M  V30 6004 H 552.944 2.31634 -3.6678 0
M  V30 6005 H 553.615 3.93776 -3.86839 0
M  V30 6006 H 556.091 3.67038 -1.96015 0
M  V30 6007 H 554.967 5.03514 -2.18551 0
M  V30 6008 H 555.228 4.3834 -0.575357 0
M  V30 6009 N 554.287 1.06798 1.15896 0
M  V30 6010 C 555.564 0.701057 1.82605 0
M  V30 6011 C 555.944 -0.817066 1.94646 0
M  V30 6012 O 555.292 -1.72933 1.49353 0
M  V30 6013 C 555.502 1.40895 3.19296 0
M  V30 6014 C 556.85 1.55744 3.95005 0
M  V30 6015 O 557.874 1.36927 3.28831 0
M  V30 6016 O 556.733 1.86658 5.13635 0
M  V30 6017 H 553.827 0.248791 0.78869 0
M  V30 6018 H 556.373 1.16857 1.23055 0
M  V30 6019 H 555.145 2.4439 3.05596 0
M  V30 6020 H 554.768 0.931847 3.86526 0
M  V30 6021 N 555.766 -1.3263 0.851289 0
M  V30 6022 C 557.043 -1.91982 0.374448 0
M  V30 6023 C 557.423 -1.77568 -1.14161 0
M  V30 6024 O 556.771 -1.1717 -1.96172 0
M  V30 6025 C 556.981 -3.38862 0.835088 0
M  V30 6026 C 558.329 -4.15999 0.850309 0
M  V30 6027 O 559.353 -3.47566 0.779505 0
M  V30 6028 O 558.212 -5.38189 0.949481 0
M  V30 6029 H 555.306 -0.819846 0.10854 0
M  V30 6030 H 557.852 -1.41422 0.937966 0
M  V30 6031 H 556.624 -3.43281 1.87814 0
M  V30 6032 H 556.247 -3.96821 0.248833 0
M  V30 6033 N 557.244 -0.608902 -1.45362 0
M  V30 6034 C 558.472 -0.111013 -2.06602 0
M  V30 6035 C 558.887 1.20516 -1.45332 0
M  V30 6036 O 558.244 1.73437 -0.567978 0
M  V30 6037 C 558.295 0.033688 -3.61484 0
M  V30 6038 O 558.016 -1.23041 -4.20467 0
M  V30 6039 C 559.517 0.562882 -4.39712 0
M  V30 6040 H 556.737 -0.0694453 -0.667397 0
M  V30 6041 H 559.281 -0.837008 -1.86586 0
M  V30 6042 H 557.436 0.710016 -3.80838 0
M  V30 6043 H 557.85 -1.06094 -5.13658 0
M  V30 6044 H 559.324 0.613213 -5.48583 0
M  V30 6045 H 559.801 1.58543 -4.09586 0
M  V30 6046 H 560.407 -0.0794454 -4.25226 0
M  V30 6047 N 558.722 1.53707 -0.348139 0
M  V30 6048 C 559.685 2.23812 0.494058 0
M  V30 6049 C 560.685 1.23989 1.02388 0
M  V30 6050 O 561.875 1.48395 0.912396 0
M  V30 6051 C 559.007 2.96133 1.68872 0
M  V30 6052 H 560.2 2.99663 -0.119141 0
M  V30 6053 H 557.753 1.55983 -0.0995539 0
M  V30 6054 H 558.488 2.24481 2.34049 0
M  V30 6055 H 558.273 3.69357 1.31596 0
M  V30 6056 H 559.763 3.49475 2.28597 0
M  V30 6057 N 560.2 0.0768682 1.57412 0
M  V30 6058 C 561.446 -0.591961 1.93968 0
M  V30 6059 C 561.779 -1.68954 0.9575 0
M  V30 6060 O 561.054 -1.94496 -0.0124675 0
M  V30 6061 C 561.337 -1.16418 3.40762 0
M  V30 6062 C 561.19 -0.0728933 4.49741 0
M  V30 6063 C 562.509 -2.06814 3.88479 0
M  V30 6064 H 559.628 -0.213716 0.705333 0
M  V30 6065 H 562.27 0.14387 1.89455 0
M  V30 6066 H 560.42 -1.79128 3.4474 0
M  V30 6067 H 562.092 0.560446 4.57883 0
M  V30 6068 H 560.335 0.595859 4.29688 0
M  V30 6069 H 561.006 -0.513755 5.49604 0
M  V30 6070 H 563.482 -1.54033 3.8654 0
M  V30 6071 H 562.358 -2.43785 4.91793 0
M  V30 6072 H 562.619 -2.97844 3.26713 0
M  V30 6073 N 561.678 -1.56367 -0.196722 0
M  V30 6074 C 562.924 -1.80796 -0.918725 0
M  V30 6075 C 563.257 -0.650645 -1.82976 0
M  V30 6076 O 562.532 0.348889 -1.91345 0
M  V30 6077 C 562.815 -3.15472 -1.73636 0
M  V30 6078 C 562.668 -4.41693 -0.85015 0
M  V30 6079 C 563.987 -3.46824 -2.70927 0
M  V30 6080 H 561.106 -0.657702 -0.332561 0
M  V30 6081 H 563.748 -1.89086 -0.186186 0
M  V30 6082 H 561.898 -3.08536 -2.36088 0
M  V30 6083 H 563.57 -4.60673 -0.240459 0
M  V30 6084 H 561.813 -4.33517 -0.156785 0
M  V30 6085 H 562.484 -5.32419 -1.45719 0
M  V30 6086 H 564.96 -3.54049 -2.18607 0
M  V30 6087 H 563.836 -4.4218 -3.25219 0
M  V30 6088 H 564.097 -2.70236 -3.49893 0
M  V30 6089 N 563.156 0.464375 -1.50603 0
M  V30 6090 C 564.402 1.21776 -1.62168 0
M  V30 6091 C 564.735 1.91476 -0.324154 0
M  V30 6092 O 564.01 1.8242 0.674782 0
M  V30 6093 C 564.293 2.25614 -2.80661 0
M  V30 6094 C 564.146 1.60175 -4.20314 0
M  V30 6095 C 565.465 3.26862 -2.94702 0
M  V30 6096 H 562.584 0.44137 -0.590222 0
M  V30 6097 H 565.226 0.510623 -1.8301 0
M  V30 6098 H 563.376 2.85923 -2.63021 0
M  V30 6099 H 565.048 1.03411 -4.4956 0
M  V30 6100 H 563.291 0.904697 -4.24261 0
M  V30 6101 H 563.962 2.35665 -4.99165 0
M  V30 6102 H 566.438 2.76582 -3.10872 0
M  V30 6103 H 565.314 3.96839 -3.79223 0
M  V30 6104 H 565.575 3.91382 -2.05603 0
M  V30 6105 N 564.634 1.40294 0.718013 0
M  V30 6106 C 565.88 1.39648 1.47885 0
M  V30 6107 C 566.235 -0.0023879 1.924 0
M  V30 6108 O 565.528 -0.972304 1.65096 0
M  V30 6109 C 565.722 2.31814 2.72024 0
M  V30 6110 C 565.551 3.80523 2.3965 0
M  V30 6111 C 564.321 4.49351 2.3111 0
M  V30 6112 C 566.519 4.72077 2.04079 0
M  V30 6113 N 564.501 5.83305 1.91385 0
M  V30 6114 C 565.872 5.94809 1.74935 0
M  V30 6115 C 567.927 4.59935 1.90694 0
M  V30 6116 C 566.63 7.06755 1.33753 0
M  V30 6117 C 568.656 5.7182 1.50915 0
M  V30 6118 C 568.018 6.93637 1.22668 0
M  V30 6119 H 564.117 0.566263 0.539324 0
M  V30 6120 H 566.701 1.75986 0.832891 0
M  V30 6121 H 564.872 1.97607 3.34374 0
M  V30 6122 H 566.604 2.22042 3.38348 0
M  V30 6123 H 563.359 4.03002 2.4877 0
M  V30 6124 H 563.783 6.54239 1.74068 0
M  V30 6125 H 568.425 3.66274 2.11194 0
M  V30 6126 H 566.143 8.00302 1.11995 0
M  V30 6127 H 569.729 5.64421 1.4114 0
M  V30 6128 H 568.609 7.78743 0.923502 0
M  V30 6129 N 566.112 -0.949982 1.2575 0
M  V30 6130 C 567.075 -2.02894 1.06615 0
M  V30 6131 C 568.075 -1.60791 0.0173905 0
M  V30 6132 O 569.265 -1.72249 0.260003 0
M  V30 6133 C 566.397 -3.35219 0.619751 0
M  V30 6134 H 567.59 -2.21302 2.02399 0
M  V30 6135 H 565.143 -1.12772 1.08223 0
M  V30 6136 H 565.878 -3.22508 -0.340486 0
M  V30 6137 H 565.663 -3.67129 1.37692 0
M  V30 6138 H 567.153 -4.14505 0.507443 0
M  V30 6139 N 567.59 -1.07411 -1.15328 0
M  V30 6140 C 568.52 -0.716472 -2.22236 0
M  V30 6141 C 569.501 0.296373 -1.67498 0
M  V30 6142 O 570.686 0.168989 -1.93463 0
M  V30 6143 C 567.816 -0.114142 -3.47112 0
M  V30 6144 C 566.77 -1.05421 -4.14814 0
M  V30 6145 C 566.096 -0.314604 -5.33774 0
M  V30 6146 C 567.396 -2.38808 -4.64508 0
M  V30 6147 H 569.09 -1.61029 -2.52408 0
M  V30 6148 H 566.636 -0.775702 -1.21321 0
M  V30 6149 H 568.589 0.148001 -4.2114 0
M  V30 6150 H 567.313 0.814755 -3.16274 0
M  V30 6151 H 565.972 -1.30128 -3.42728 0
M  V30 6152 H 565.62 0.617772 -4.99192 0
M  V30 6153 H 565.32 -0.941209 -5.80013 0
M  V30 6154 H 566.844 -0.0602747 -6.1057 0
M  V30 6155 H 568.258 -2.18424 -5.3006 0
M  V30 6156 H 566.655 -2.97069 -5.21412 0
M  V30 6157 H 567.725 -3.01067 -3.80114 0
M  V30 6158 N 569.068 1.32177 -0.85831 0
M  V30 6159 C 570.016 2.30729 -0.294442 0
M  V30 6160 C 571.01 1.59009 0.584165 0
M  V30 6161 O 572.216 1.73713 0.471562 0
M  V30 6162 H 568.591 0.748097 -0.0765171 0
M  V30 6163 H 570.562 2.75774 -1.1398 0
M  V30 6164 C 569.311 3.44098 0.499208 0
M  V30 6165 H 568.634 3.99449 -0.167579 0
M  V30 6166 H 570.074 4.15202 0.859273 0
M  V30 6167 C 568.533 2.91684 1.68588 0
M  V30 6168 O 569.063 2.89481 2.78503 0
M  V30 6169 N 567.269 2.48036 1.51415 0
M  V30 6170 H 566.816 2.50027 0.620006 0
M  V30 6171 H 566.774 2.13322 2.30957 0
M  V30 6172 N 570.547 0.616602 1.45037 0
M  V30 6173 C 571.775 0.121968 2.0654 0
M  V30 6174 C 572.19 -1.19743 1.45969 0
M  V30 6175 O 571.547 -1.73133 0.577168 0
M  V30 6176 C 571.598 -0.0145171 3.61497 0
M  V30 6177 O 571.319 1.25269 4.19809 0
M  V30 6178 C 572.82 -0.539555 4.40004 0
M  V30 6179 H 570.04 0.0729837 0.667019 0
M  V30 6180 H 572.584 0.846891 1.8614 0
M  V30 6181 H 570.739 -0.689809 3.81209 0
M  V30 6182 H 571.153 1.08816 5.13088 0
M  V30 6183 H 572.627 -0.584112 5.48901 0
M  V30 6184 H 573.104 -1.56368 4.10421 0
M  V30 6185 H 573.71 0.101995 4.25178 0
M  V30 6186 N 572.025 -1.5352 0.356285 0
M  V30 6187 C 572.955 -2.28372 -0.486661 0
M  V30 6188 C 573.936 -1.30432 -1.09185 0
M  V30 6189 O 575.121 -1.59291 -1.11085 0
M  V30 6190 C 572.251 -3.06604 -1.63129 0
M  V30 6191 C 571.205 -4.12154 -1.15381 0
M  V30 6192 C 570.531 -4.78415 -2.38796 0
M  V30 6193 C 571.831 -5.21724 -0.245179 0
M  V30 6194 H 573.525 -2.99083 0.137797 0
M  V30 6195 H 571.071 -1.43841 0.0677134 0
M  V30 6196 H 573.024 -3.57712 -2.22755 0
M  V30 6197 H 571.748 -2.33568 -2.28284 0
M  V30 6198 H 570.407 -3.61978 -0.580294 0
M  V30 6199 H 570.055 -4.01959 -3.02387 0
M  V30 6200 H 569.755 -5.49734 -2.07524 0
M  V30 6201 H 571.279 -5.32313 -2.99125 0
M  V30 6202 H 572.693 -5.68391 -0.748646 0
M  V30 6203 H 571.09 -6.00095 -0.0237608 0
M  V30 6204 H 572.16 -4.79596 0.715229 0
M  V30 6205 N 573.503 -0.0852151 -1.57369 0
M  V30 6206 C 574.919 0.271436 -1.57275 0
M  V30 6207 C 575.119 1.69109 -1.09565 0
M  V30 6208 O 574.175 2.40549 -0.767611 0
M  V30 6209 C 575.488 0.0688638 -3.00621 0
M  V30 6210 C 577.036 0.137373 -3.12698 0
M  V30 6211 C 577.511 -0.0370832 -4.57985 0
M  V30 6212 N 579.002 0.0180794 -4.63196 0
M  V30 6213 C 579.737 -0.0922953 -5.73326 0
M  V30 6214 N 579.233 -0.256948 -6.92323 0
M  V30 6215 N 581.026 -0.0342702 -5.6209 0
M  V30 6216 H 573.177 -1.01288 -1.86693 0
M  V30 6217 H 575.44 -0.396138 -0.861266 0
M  V30 6218 H 575.146 -0.911277 -3.39689 0
M  V30 6219 H 575.02 0.815442 -3.6828 0
M  V30 6220 H 577.407 1.10801 -2.73509 0
M  V30 6221 H 577.488 -0.640532 -2.47651 0
M  V30 6222 H 577.132 -1.00455 -4.97867 0
M  V30 6223 H 577.062 0.760392 -5.21081 0
M  V30 6224 H 579.553 0.143202 -3.77629 0
M  V30 6225 H 579.866 -0.332949 -7.72082 0
M  V30 6226 H 578.211 -0.292487 -6.94384 0
M  V30 6227 H 581.402 0.0931605 -4.68007 0
M  V30 6228 H 581.575 -0.12374 -6.47882 0
M  V30 6229 N 574.981 1.5647 0.188427 0
M  V30 6230 C 575.911 1.98101 1.23606 0
M  V30 6231 C 576.892 0.853961 1.47111 0
M  V30 6232 O 578.077 1.11879 1.58735 0
M  V30 6233 C 575.207 2.32624 2.57882 0
M  V30 6234 C 574.161 3.48129 2.48978 0
M  V30 6235 C 573.487 3.68347 3.87588 0
M  V30 6236 C 574.787 4.82112 2.00911 0
M  V30 6237 H 576.481 2.85864 0.890068 0
M  V30 6238 H 574.027 1.37532 0.426714 0
M  V30 6239 H 575.98 2.60343 3.3136 0
M  V30 6240 H 574.704 1.41751 2.94235 0
M  V30 6241 H 573.363 3.20511 1.77956 0
M  V30 6242 H 573.011 2.74793 4.21305 0
M  V30 6243 H 572.711 4.46055 3.82503 0
M  V30 6244 H 574.235 3.98449 4.62678 0
M  V30 6245 H 575.649 5.08819 2.64151 0
M  V30 6246 H 574.046 5.63337 2.06814 0
M  V30 6247 H 575.116 4.75249 0.96262 0
M  V30 6248 N 576.459 -0.456382 1.50847 0
M  V30 6249 C 577.87 -1.03685 1.55262 0
M  V30 6250 C 578.221 -1.92779 0.364771 0
M  V30 6251 O 577.346 -2.10043 -0.52068 0
M  V30 6252 C 577.941 -1.88718 2.81374 0
M  V30 6253 C 576.5 -2.41847 2.88422 0
M  V30 6254 C 575.647 -1.20564 2.49719 0
M  V30 6255 H 578.598 -0.238399 1.56899 0
M  V30 6256 H 578.619 -2.73957 2.6406 0
M  V30 6257 H 578.131 -1.23847 3.67809 0
M  V30 6258 H 576.232 -3.10228 2.06372 0
M  V30 6259 H 576.345 -2.75947 3.9165 0
M  V30 6260 H 574.709 -1.54504 2.02486 0
M  V30 6261 H 575.492 -0.573326 3.38479 0
M  V30 6262 N 577.937 -1.40673 -0.710563 0
M  V30 6263 C 579.214 -1.29718 -1.46398 0
M  V30 6264 C 579.594 0.082177 -2.1094 0
M  V30 6265 O 578.942 1.09536 -2.00534 0
M  V30 6266 C 579.152 -2.43967 -2.49562 0
M  V30 6267 C 580.5 -2.84436 -3.15248 0
M  V30 6268 O 581.524 -2.43597 -2.59883 0
M  V30 6269 O 580.383 -3.55008 -4.1549 0
M  V30 6270 H 577.477 -0.509697 -0.651258 0
M  V30 6271 H 580.023 -1.52603 -0.742312 0
M  V30 6272 H 578.795 -3.36076 -2.0042 0
M  V30 6273 H 578.418 -2.22879 -3.29258 0
M  V30 6274 N 579.415 0.9433 -1.26252 0
M  V30 6275 C 580.325 2.07532 -1.09397 0
M  V30 6276 C 581.341 1.73977 -0.0280449 0
M  V30 6277 O 582.517 2.00067 -0.231337 0
M  V30 6278 C 579.582 3.39002 -0.726523 0
M  V30 6279 C 578.643 3.86353 -1.87163 0
M  V30 6280 C 577.876 5.11549 -1.52162 0
M  V30 6281 O 578.099 5.68834 -0.422385 0
M  V30 6282 O 577.033 5.53889 -2.35565 0
M  V30 6283 H 580.859 2.24658 -2.04359 0
M  V30 6284 H 578.444 1.05988 -1.05295 0
M  V30 6285 H 580.326 4.18 -0.534236 0
M  V30 6286 H 579.001 3.2312 0.193721 0
M  V30 6287 H 577.908 3.0831 -2.11886 0
M  V30 6288 H 579.241 4.06752 -2.77152 0
M  V30 6289 N 580.893 1.08022 1.14757 0
M  V30 6290 C 582.309 0.807072 1.3769 0
M  V30 6291 C 582.509 -0.585504 1.92806 0
M  V30 6292 O 581.565 -1.34301 2.13821 0
M  V30 6293 C 582.878 1.88651 2.34161 0
M  V30 6294 C 584.426 1.91206 2.47809 0
M  V30 6295 C 584.901 2.98253 3.47576 0
M  V30 6296 N 586.392 2.974 3.55117 0
M  V30 6297 C 587.127 3.76872 4.32152 0
M  V30 6298 N 586.623 4.66212 5.12463 0
M  V30 6299 N 588.416 3.6519 4.27309 0
M  V30 6300 H 580.567 1.97824 0.77326 0
M  V30 6301 H 582.83 0.85826 0.402608 0
M  V30 6302 H 582.536 2.88749 2.00791 0
M  V30 6303 H 582.41 1.75244 3.3402 0
M  V30 6304 H 584.797 0.917564 2.80472 0
M  V30 6305 H 584.878 2.08691 1.47925 0
M  V30 6306 H 584.522 3.97907 3.15646 0
M  V30 6307 H 584.452 2.78014 4.47231 0
M  V30 6308 H 586.943 2.32643 2.97801 0
M  V30 6309 H 587.256 5.23468 5.68508 0
M  V30 6310 H 585.601 4.70257 5.11745 0
M  V30 6311 H 588.792 2.94765 3.63636 0
M  V30 6312 H 588.965 4.27366 4.87095 0
M  V30 6313 N 582.371 -1.3172 0.865308 0
M  V30 6314 C 583.787 -1.4958 0.556596 0
M  V30 6315 C 583.987 -1.79763 -0.910353 0
M  V30 6316 O 583.043 -1.87351 -1.6928 0
M  V30 6317 C 584.356 -2.63277 1.45279 0
M  V30 6318 C 585.904 -2.77161 1.45433 0
M  V30 6319 C 586.379 -3.93949 2.33598 0
M  V30 6320 N 587.87 -4.01228 2.31453 0
M  V30 6321 C 588.605 -4.90855 2.96393 0
M  V30 6322 N 588.101 -5.85416 3.70486 0
M  V30 6323 N 589.894 -4.84063 2.85726 0
M  V30 6324 H 582.045 -1.10396 1.81456 0
M  V30 6325 H 584.308 -0.54507 0.775631 0
M  V30 6326 H 584.014 -2.47734 2.49641 0
M  V30 6327 H 583.888 -3.59309 1.14792 0
M  V30 6328 H 586.275 -2.9212 0.41831 0
M  V30 6329 H 586.356 -1.8181 1.79941 0
M  V30 6330 H 586 -3.79748 3.37274 0
M  V30 6331 H 585.93 -4.88598 1.96417 0
M  V30 6332 H 588.421 -3.3357 1.77593 0
M  V30 6333 H 588.734 -6.50525 4.17178 0
M  V30 6334 H 587.079 -5.85409 3.74594 0
M  V30 6335 H 590.27 -4.09163 2.27384 0
M  V30 6336 H 590.443 -5.53708 3.36617 0
M  V30 6337 N 583.85 -0.624285 -1.44708 0
M  V30 6338 C 585.266 -0.289322 -1.56956 0
M  V30 6339 C 585.466 1.20773 -1.61295 0
M  V30 6340 O 584.522 1.9915 -1.55227 0
M  V30 6341 C 585.835 -0.975215 -2.84447 0
M  V30 6342 C 587.383 -0.952709 -2.98148 0
M  V30 6343 C 587.858 -1.61893 -4.28433 0
M  V30 6344 N 589.349 -1.5852 -4.35231 0
M  V30 6345 C 590.084 -2.06969 -5.34744 0
M  V30 6346 N 589.58 -2.63579 -6.40701 0
M  V30 6347 N 591.373 -1.97638 -5.26209 0
M  V30 6348 H 583.524 -1.59612 -1.40135 0
M  V30 6349 H 585.787 -0.669592 -0.671081 0
M  V30 6350 H 585.493 -2.02999 -2.87201 0
M  V30 6351 H 585.367 -0.508749 -3.73753 0
M  V30 6352 H 587.754 0.093568 -2.94952 0
M  V30 6353 H 587.835 -1.4576 -2.10209 0
M  V30 6354 H 587.479 -2.66463 -4.32389 0
M  V30 6355 H 587.409 -1.08893 -5.15218 0
M  V30 6356 H 589.899 -1.17183 -3.59272 0
M  V30 6357 H 590.213 -2.98298 -7.12908 0
M  V30 6358 H 588.558 -2.67626 -6.41406 0
M  V30 6359 H 591.749 -1.5314 -4.42341 0
M  V30 6360 H 591.922 -2.35708 -6.03611 0
M  V30 6361 N 585.328 1.53329 -0.364422 0
M  V30 6362 C 586.744 1.59594 -0.0133165 0
M  V30 6363 C 586.944 1.37959 1.46865 0
M  V30 6364 O 586 1.18418 2.2301 0
M  V30 6365 C 587.313 2.97032 -0.468213 0
M  V30 6366 C 588.861 3.10138 -0.422334 0
M  V30 6367 C 589.336 4.49986 -0.853024 0
M  V30 6368 N 590.827 4.56098 -0.808037 0
M  V30 6369 C 591.562 5.62495 -1.11299 0
M  V30 6370 N 591.058 6.7665 -1.48717 0
M  V30 6371 N 592.851 5.52473 -1.03586 0
M  V30 6372 H 585.002 1.65644 -1.32951 0
M  V30 6373 H 587.265 0.77684 -0.543345 0
M  V30 6374 H 586.971 3.18 -1.5023 0
M  V30 6375 H 586.845 3.76918 0.145775 0
M  V30 6376 H 589.232 2.88881 0.602622 0
M  V30 6377 H 589.313 2.32263 -1.0718 0
M  V30 6378 H 588.957 4.7198 -1.87609 0
M  V30 6379 H 588.887 5.26289 -0.180819 0
M  V30 6380 H 591.378 3.74131 -0.532361 0
M  V30 6381 H 591.691 7.53776 -1.70415 0
M  V30 6382 H 590.036 6.78044 -1.52581 0
M  V30 6383 H 593.227 4.6217 -0.742736 0
M  V30 6384 H 593.4 6.35295 -1.27686 0
M  V30 6385 N 586.806 0.0935595 1.57322 0
M  V30 6386 C 588.083 -0.612692 1.85756 0
M  V30 6387 C 588.463 -1.86439 0.99013 0
M  V30 6388 O 587.811 -2.28416 0.0621362 0
M  V30 6389 C 588.021 -0.929547 3.36393 0
M  V30 6390 C 589.369 -1.29366 4.04413 0
M  V30 6391 O 590.393 -1.02061 3.41265 0
M  V30 6392 O 589.252 -1.80498 5.15832 0
M  V30 6393 H 586.346 -0.306444 0.768128 0
M  V30 6394 H 588.892 0.126141 1.69231 0
M  V30 6395 H 587.664 -0.0414766 3.91278 0
M  V30 6396 H 587.287 -1.72441 3.5826 0
M  V30 6397 N 588.284 -1.56567 -0.180126 0
M  V30 6398 C 589.247 -1.94852 -1.20686 0
M  V30 6399 C 590.247 -0.831212 -1.3765 0
M  V30 6400 O 591.437 -1.09841 -1.35206 0
M  V30 6401 C 588.569 -2.23565 -2.57355 0
M  V30 6402 H 589.762 -2.86722 -0.879225 0
M  V30 6403 H 587.315 -1.50489 -0.422237 0
M  V30 6404 H 588.05 -1.34381 -2.95148 0
M  V30 6405 H 587.835 -3.04999 -2.46411 0
M  V30 6406 H 589.325 -2.54137 -3.31367 0
M  V30 6407 N 589.762 0.448376 -1.51087 0
M  V30 6408 C 590.695 1.56298 -1.66272 0
M  V30 6409 C 591.673 1.54381 -0.510419 0
M  V30 6410 O 592.857 1.73671 -0.732854 0
M  V30 6411 C 589.984 2.94883 -1.66618 0
M  V30 6412 C 589.03 3.14868 -2.87681 0
M  V30 6413 S 589.863 2.9234 -4.48662 0
M  V30 6414 C 591.019 4.33227 -4.51735 0
M  V30 6415 H 591.252 1.43182 -2.6055 0
M  V30 6416 H 588.785 0.637309 -1.40633 0
M  V30 6417 H 590.743 3.74771 -1.67502 0
M  V30 6418 H 589.404 3.05371 -0.735358 0
M  V30 6419 H 588.597 4.16166 -2.84292 0
M  V30 6420 H 588.199 2.42788 -2.84482 0
M  V30 6421 H 590.491 5.26247 -4.26697 0
M  V30 6422 H 591.434 4.41653 -5.53487 0
M  V30 6423 H 591.842 4.16367 -3.81181 0
M  V30 6424 N 591.24 1.41047 0.703093 0
M  V30 6425 C 592.468 1.4334 1.49202 0
M  V30 6426 C 592.883 0.0365596 1.88765 0
M  V30 6427 O 592.24 -0.942419 1.56284 0
M  V30 6428 C 592.291 2.33538 2.75939 0
M  V30 6429 O 592.012 3.67786 2.38045 0
M  V30 6430 C 593.513 2.44555 3.6974 0
M  V30 6431 H 590.733 0.488472 0.460039 0
M  V30 6432 H 593.277 1.85245 0.86629 0
M  V30 6433 H 591.432 1.94962 3.34766 0
M  V30 6434 H 591.846 4.15816 3.19683 0
M  V30 6435 H 593.32 3.11849 4.55471 0
M  V30 6436 H 593.797 1.47447 4.1371 0
M  V30 6437 H 594.403 2.83735 3.16819 0
M  V30 6438 N 592.718 -0.936591 1.26751 0
M  V30 6439 C 593.665 -2.03597 1.08706 0
M  V30 6440 C 594.635 -1.66097 -0.00926542 0
M  V30 6441 O 595.82 -1.90199 0.151377 0
M  V30 6442 C 592.96 -3.3727 0.73094 0
M  V30 6443 C 592.073 -3.87778 1.90399 0
M  V30 6444 C 591.208 -5.09859 1.49056 0
M  V30 6445 C 590.247 -5.5264 2.63164 0
M  V30 6446 N 589.384 -6.65921 2.22471 0
M  V30 6447 H 594.224 -2.18364 2.02784 0
M  V30 6448 H 591.761 -1.06985 1.00958 0
M  V30 6449 H 593.719 -4.14128 0.505328 0
M  V30 6450 H 592.349 -3.22337 -0.172868 0
M  V30 6451 H 591.401 -3.07279 2.2424 0
M  V30 6452 H 592.713 -4.15464 2.76028 0
M  V30 6453 H 591.867 -5.9419 1.22567 0
M  V30 6454 H 590.606 -4.8393 0.60524 0
M  V30 6455 H 589.611 -4.66863 2.90377 0
M  V30 6456 H 590.836 -5.80568 3.52303 0
M  V30 6457 H 588.782 -6.41667 1.36379 0
M  V30 6458 H 588.699 -6.93216 3.01641 0
M  V30 6459 H 589.967 -7.53616 1.99205 0
M  V30 6460 N 594.196 -1.08629 -1.14182 0
M  V30 6461 C 595.444 -0.815731 -1.84906 0
M  V30 6462 C 595.765 0.660441 -1.83475 0
M  V30 6463 O 595.035 1.47888 -1.28476 0
M  V30 6464 H 593.615 -0.298773 -0.684648 0
M  V30 6465 H 596.277 -1.37274 -1.38354 0
M  V30 6466 H 595.373 -1.16193 -2.89665 0
M  V30 6467 N 595.674 1.31259 -0.872281 0
M  V30 6468 C 596.921 1.96622 -0.484365 0
M  V30 6469 C 597.249 1.68939 0.963841 0
M  V30 6470 O 596.504 0.97974 1.6941 0
M  V30 6471 C 596.803 3.50659 -0.690889 0
M  V30 6472 C 596.469 3.98366 -2.11224 0
M  V30 6473 C 595.131 4.11104 -2.50094 0
M  V30 6474 C 597.483 4.23425 -3.0391 0
M  V30 6475 C 594.811 4.46254 -3.80887 0
M  V30 6476 C 597.163 4.60039 -4.3422 0
M  V30 6477 C 595.827 4.70984 -4.73001 0
M  V30 6478 H 595.097 0.71949 -0.177242 0
M  V30 6479 H 597.744 1.56353 -1.10571 0
M  V30 6480 H 596.049 3.91798 0.0135782 0
M  V30 6481 H 597.746 3.99284 -0.370534 0
M  V30 6482 H 594.336 3.88949 -1.80047 0
M  V30 6483 H 598.52 4.13075 -2.75104 0
M  V30 6484 H 593.776 4.52926 -4.10692 0
M  V30 6485 H 597.95 4.78381 -5.06088 0
M  V30 6486 H 595.577 4.97977 -5.7439 0
M  V30 6487 N 597.152 0.631951 1.44375 0
M  V30 6488 C 598.568 0.297642 1.568 0
M  V30 6489 C 598.768 -1.19916 1.61934 0
M  V30 6490 O 597.824 -1.98324 1.56281 0
M  V30 6491 C 599.137 0.990286 2.83926 0
M  V30 6492 C 600.685 0.968507 2.97639 0
M  V30 6493 C 601.16 1.64163 4.27568 0
M  V30 6494 N 602.651 1.60826 4.34384 0
M  V30 6495 C 603.386 2.09802 5.33639 0
M  V30 6496 N 602.882 2.66973 6.39294 0
M  V30 6497 N 604.675 2.00426 5.25153 0
M  V30 6498 H 596.826 1.60353 1.39286 0
M  V30 6499 H 599.089 0.673142 0.667521 0
M  V30 6500 H 598.795 2.04519 2.8612 0
M  V30 6501 H 598.669 0.528563 3.73478 0
M  V30 6502 H 601.056 -0.0779247 2.94997 0
M  V30 6503 H 601.137 1.46873 2.09433 0
M  V30 6504 H 600.781 2.68752 4.3097 0
M  V30 6505 H 600.711 1.11624 5.14634 0
M  V30 6506 H 603.202 1.19087 3.58646 0
M  V30 6507 H 603.515 3.02074 7.11316 0
M  V30 6508 H 601.86 2.71024 6.39977 0
M  V30 6509 H 605.051 1.55483 4.41523 0
M  V30 6510 H 605.224 2.38906 6.02352 0
M  V30 6511 N 598.631 -1.53133 0.372548 0
M  V30 6512 C 599.877 -2.02336 -0.207823 0
M  V30 6513 C 600.232 -1.25477 -1.45853 0
M  V30 6514 O 599.525 -0.341971 -1.88524 0
M  V30 6515 C 599.719 -3.53206 -0.545938 0
M  V30 6516 C 599.548 -4.44674 0.670454 0
M  V30 6517 C 598.318 -4.91217 1.18465 0
M  V30 6518 C 600.516 -4.90772 1.53777 0
M  V30 6519 N 598.498 -5.66711 2.36034 0
M  V30 6520 C 599.869 -5.64678 2.56004 0
M  V30 6521 C 601.924 -4.72836 1.55983 0
M  V30 6522 C 600.627 -6.22555 3.60303 0
M  V30 6523 C 602.653 -5.31583 2.59179 0
M  V30 6524 C 602.015 -6.05381 3.6013 0
M  V30 6525 H 598.114 -0.781048 -0.0385783 0
M  V30 6526 H 600.698 -1.87665 0.518664 0
M  V30 6527 H 598.869 -3.68024 -1.24149 0
M  V30 6528 H 600.601 -3.89123 -1.112 0
M  V30 6529 H 597.356 -4.67652 0.748205 0
M  V30 6530 H 597.78 -6.09117 2.95475 0
M  V30 6531 H 602.422 -4.15299 0.792877 0
M  V30 6532 H 600.14 -6.79183 4.37876 0
M  V30 6533 H 603.726 -5.19595 2.61749 0
M  V30 6534 H 602.606 -6.50028 4.38672 0
M  V30 6535 N 600.109 -0.101901 -1.5727 0
M  V30 6536 C 601.358 0.559922 -1.93772 0
M  V30 6537 C 601.671 1.68913 -0.98629 0
M  V30 6538 O 602.877 2.41256 -1.24529 0
M  V30 6539 C 601.333 1.04739 -3.44322 0
M  V30 6540 C 600.941 -0.05243 -4.47969 0
M  V30 6541 C 602.685 1.68157 -3.89774 0
M  V30 6542 C 600.592 0.450781 -5.8968 0
M  V30 6543 H 599.522 0.212931 -0.723309 0
M  V30 6544 H 602.173 -0.179001 -1.82625 0
M  V30 6545 H 600.555 1.84021 -3.50645 0
M  V30 6546 H 601.729 -0.828157 -4.53297 0
M  V30 6547 H 600.044 -0.592202 -4.12167 0
M  V30 6548 H 602.641 2.0689 -4.93052 0
M  V30 6549 H 602.984 2.55338 -3.28798 0
M  V30 6550 H 603.517 0.954453 -3.8618 0
M  V30 6551 H 600.256 -0.38458 -6.54371 0
M  V30 6552 H 599.776 1.19336 -5.87809 0
M  V30 6553 H 601.455 0.917555 -6.40461 0
M  V30 6554 N 601.587 1.56661 0.17182 0
M  V30 6555 C 602.833 1.82235 0.889845 0
M  V30 6556 C 603.166 0.679673 1.81918 0
M  V30 6557 O 602.441 -0.318404 1.91876 0
M  V30 6558 C 602.724 3.18195 1.68595 0
M  V30 6559 C 602.577 4.42989 0.779773 0
M  V30 6560 C 603.896 3.5109 2.65375 0
M  V30 6561 H 601.015 0.66291 0.322056 0
M  V30 6562 H 603.657 1.89358 0.15608 0
M  V30 6563 H 601.807 3.12253 2.3115 0
M  V30 6564 H 603.479 4.60997 0.16714 0
M  V30 6565 H 601.722 4.33711 0.0877964 0
M  V30 6566 H 602.393 5.3467 1.3723 0
M  V30 6567 H 604.869 3.57482 2.12946 0
M  V30 6568 H 603.745 4.47298 3.18144 0
M  V30 6569 H 604.006 2.75768 3.45549 0
M  V30 6570 N 603.065 -0.440357 1.51323 0
M  V30 6571 C 604.313 -1.18769 1.63518 0
M  V30 6572 C 604.634 -1.91793 0.352201 0
M  V30 6573 O 603.904 -1.85432 -0.631811 0
M  V30 6574 H 602.484 -0.441408 0.602634 0
M  V30 6575 H 605.146 -0.505162 1.8824 0
M  V30 6576 H 604.242 -1.91892 2.46138 0
M  V30 6577 N 604.543 -1.41418 -0.695603 0
M  V30 6578 C 605.476 -1.3768 -1.81988 0
M  V30 6579 C 606.454 -0.244061 -1.60758 0
M  V30 6580 O 607.638 -0.430965 -1.83507 0
M  V30 6581 C 604.765 -1.1476 -3.18666 0
M  V30 6582 C 603.811 -2.30752 -3.58686 0
M  V30 6583 S 604.644 -3.9323 -3.63498 0
M  V30 6584 C 605.8 -3.72613 -5.02902 0
M  V30 6585 H 606.033 -2.32822 -1.84882 0
M  V30 6586 H 603.566 -1.27942 -0.86431 0
M  V30 6587 H 605.524 -1.02223 -3.97569 0
M  V30 6588 H 604.185 -0.212385 -3.13381 0
M  V30 6589 H 603.378 -2.10409 -4.57978 0
M  V30 6590 H 602.98 -2.39696 -2.87092 0
M  V30 6591 H 605.272 -3.32317 -5.904 0
M  V30 6592 H 606.215 -4.71507 -5.28286 0
M  V30 6593 H 606.623 -3.0589 -4.74438 0
M  V30 6594 N 606.021 0.929856 -1.27246 0
M  V30 6595 C 606.953 2.03434 -1.0558 0
M  V30 6596 C 607.966 1.62795 -0.0125762 0
M  V30 6597 O 609.155 1.76685 -0.2539 0
M  V30 6598 C 606.255 3.33915 -0.57912 0
M  V30 6599 C 605.428 4.03259 -1.69415 0
M  V30 6600 C 604.487 5.12014 -1.21357 0
M  V30 6601 O 603.513 5.36097 -1.91282 0
M  V30 6602 N 604.715 5.8046 -0.0680622 0
M  V30 6603 H 607.48 2.22583 -2.00691 0
M  V30 6604 H 605.041 1.1001 -1.18783 0
M  V30 6605 H 607.033 4.03978 -0.241563 0
M  V30 6606 H 605.603 3.11355 0.278703 0
M  V30 6607 H 604.823 3.26958 -2.20209 0
M  V30 6608 H 606.111 4.46337 -2.44255 0
M  V30 6609 H 605.509 5.63345 0.515626 0
M  V30 6610 H 604.066 6.51461 0.210332 0
M  V30 6611 N 607.499 1.09233 1.13605 0
M  V30 6612 C 608.724 0.849067 1.89224 0
M  V30 6613 C 609.149 -0.593875 1.78479 0
M  V30 6614 O 608.507 -1.41703 1.13092 0
M  V30 6615 C 608.555 1.28642 3.36873 0
M  V30 6616 O 607.659 0.44363 4.10007 0
M  V30 6617 H 607 0.30767 0.588417 0
M  V30 6618 H 609.53 1.45595 1.43748 0
M  V30 6619 H 609.54 1.27096 3.87699 0
M  V30 6620 H 608.215 2.33729 3.44011 0
M  V30 6621 H 606.792 0.523241 3.69211 0
M  V30 6622 N 608.977 -1.30795 0.87923 0
M  V30 6623 C 610.202 -2.01063 0.508769 0
M  V30 6624 C 610.627 -1.65508 -0.893803 0
M  V30 6625 O 609.985 -0.868616 -1.59138 0
M  V30 6626 C 610.033 -3.54054 0.683991 0
M  V30 6627 O 609.137 -4.11498 -0.272654 0
M  V30 6628 H 608.478 -0.632786 0.201191 0
M  V30 6629 H 611.008 -1.66776 1.18519 0
M  V30 6630 H 611.018 -4.03845 0.580798 0
M  V30 6631 H 609.693 -3.79271 1.70665 0
M  V30 6632 H 608.27 -3.72695 -0.12364 0
M  V30 6633 N 610.455 -0.639598 -1.44038 0
M  V30 6634 C 611.403 0.0723409 -2.32487 0
M  V30 6635 C 612.397 0.827129 -1.47834 0
M  V30 6636 O 613.603 0.73907 -1.64127 0
M  V30 6637 H 609.978 0.0421696 -0.750817 0
M  V30 6638 H 611.949 -0.691593 -2.90275 0
M  V30 6639 C 610.698 1.03452 -3.31953 0
M  V30 6640 H 610.021 0.46315 -3.97108 0
M  V30 6641 H 611.461 1.502 -3.96505 0
M  V30 6642 C 609.92 2.12392 -2.61518 0
M  V30 6643 O 610.45 3.2059 -2.42044 0
M  V30 6644 N 608.656 1.88563 -2.21116 0
M  V30 6645 H 608.203 1.00577 -2.37154 0
M  V30 6646 H 608.161 2.61651 -1.74316 0
M  V30 6647 N 611.933 1.52934 -0.380664 0
M  V30 6648 C 613.181 2.01069 0.203874 0
M  V30 6649 C 613.502 1.26922 1.4804 0
M  V30 6650 O 612.772 0.386787 1.92044 0
M  V30 6651 H 611.352 0.742882 0.0783279 0
M  V30 6652 H 614.014 1.88099 -0.510368 0
M  V30 6653 H 613.11 3.09258 0.42021 0
M  V30 6654 N 613.412 0.11024 1.57214 0
M  V30 6655 C 614.66 -0.548783 1.94506 0
M  V30 6656 C 614.981 -1.67772 0.99386 0
M  V30 6657 O 614.251 -1.9584 0.0485841 0
M  V30 6658 H 612.831 -0.205715 0.718116 0
M  V30 6659 H 615.493 0.177127 1.94093 0
M  V30 6660 H 614.589 -0.949096 2.97319 0
M  V30 6661 N 614.89 -1.56749 -0.16351 0
M  V30 6662 C 616.136 -1.83597 -0.875436 0
M  V30 6663 C 616.491 -0.691907 -1.79528 0
M  V30 6664 O 615.784 0.311193 -1.89056 0
M  V30 6665 C 615.978 -3.14342 -1.70071 0
M  V30 6666 C 615.807 -4.41356 -0.862265 0
M  V30 6667 C 614.577 -5.02467 -0.534299 0
M  V30 6668 C 616.775 -5.1391 -0.200203 0
M  V30 6669 N 614.757 -6.13068 0.31947 0
M  V30 6670 C 616.128 -6.17862 0.514398 0
M  V30 6671 C 618.183 -4.97757 -0.119171 0
M  V30 6672 C 616.886 -7.07412 1.30236 0
M  V30 6673 C 618.912 -5.87756 0.655477 0
M  V30 6674 C 618.274 -6.91178 1.35842 0
M  V30 6675 H 614.373 -0.722702 -0.298708 0
M  V30 6676 H 616.957 -1.94182 -0.141883 0
M  V30 6677 H 615.128 -3.04933 -2.40562 0
M  V30 6678 H 616.86 -3.29156 -2.35453 0
M  V30 6679 H 613.615 -4.65611 -0.866222 0
M  V30 6680 H 614.039 -6.72978 0.736893 0
M  V30 6681 H 618.681 -4.178 -0.648278 0
M  V30 6682 H 616.399 -7.86808 1.84278 0
M  V30 6683 H 619.985 -5.77328 0.719948 0
M  V30 6684 H 618.865 -7.59614 1.94822 0
M  V30 6685 N 616.368 0.432326 -1.51554 0
M  V30 6686 C 617.616 1.17901 -1.64146 0
M  V30 6687 C 617.937 1.91604 -0.362367 0
M  V30 6688 O 617.207 1.85764 0.621968 0
M  V30 6689 H 615.787 0.438206 -0.604966 0
M  V30 6690 H 618.449 0.495172 -1.88505 0
M  V30 6691 H 617.545 1.90584 -2.47152 0
M  V30 6692 N 617.846 1.41785 0.688094 0
M  V30 6693 C 618.809 1.43936 1.78368 0
M  V30 6694 C 619.809 0.328866 1.57401 0
M  V30 6695 O 620.999 0.589093 1.63937 0
M  V30 6696 C 618.131 1.25804 3.16838 0
M  V30 6697 H 619.324 2.41472 1.77852 0
M  V30 6698 H 616.877 1.28037 0.896448 0
M  V30 6699 H 617.612 0.291386 3.22988 0
M  V30 6700 H 617.397 2.06272 3.33458 0
M  V30 6701 H 618.887 1.30162 3.96797 0
M  V30 6702 N 619.324 -0.923095 1.27737 0
M  V30 6703 C 620.554 -1.70277 1.17001 0
M  V30 6704 C 620.962 -1.87188 -0.275199 0
M  V30 6705 O 620.305 -1.39195 -1.19877 0
M  V30 6706 C 620.367 -3.11976 1.78637 0
M  V30 6707 C 620.031 -3.18386 3.27841 0
M  V30 6708 C 621.028 -3.00287 4.2441 0
M  V30 6709 C 618.713 -3.41198 3.68632 0
M  V30 6710 C 620.707 -3.04896 5.59747 0
M  V30 6711 C 618.394 -3.4544 5.04097 0
M  V30 6712 C 619.392 -3.27309 5.99465 0
M  V30 6713 O 619.08 -3.31295 7.32461 0
M  V30 6714 H 618.812 -0.539366 0.407505 0
M  V30 6715 H 621.366 -1.16446 1.69202 0
M  V30 6716 H 619.596 -3.67308 1.20919 0
M  V30 6717 H 621.285 -3.7193 1.6255 0
M  V30 6718 H 622.051 -2.825 3.94232 0
M  V30 6719 H 617.93 -3.54359 2.94873 0
M  V30 6720 H 621.474 -2.90662 6.34162 0
M  V30 6721 H 617.371 -3.62753 5.33929 0
M  V30 6722 H 618.139 -3.47719 7.40968 0
M  V30 6723 N 620.802 -1.09834 -1.13024 0
M  V30 6724 C 622.079 -0.749225 -1.80682 0
M  V30 6725 C 622.459 0.765171 -1.96744 0
M  V30 6726 O 621.807 1.68912 -1.53886 0
M  V30 6727 C 622.017 -1.49311 -3.15448 0
M  V30 6728 C 623.365 -1.66162 -3.90737 0
M  V30 6729 O 624.389 -1.45597 -3.25085 0
M  V30 6730 O 623.248 -2.00211 -5.08505 0
M  V30 6731 H 620.342 -0.269614 -0.781817 0
M  V30 6732 H 622.888 -1.20078 -1.19914 0
M  V30 6733 H 621.66 -2.52407 -2.99009 0
M  V30 6734 H 621.283 -1.034 -3.8392 0
M  V30 6735 N 622.28 1.30327 -0.886154 0
M  V30 6736 C 623.526 1.96388 -0.505941 0
M  V30 6737 C 623.859 1.69784 0.942712 0
M  V30 6738 O 623.134 1.00322 1.6663 0
M  V30 6739 C 623.417 3.51488 -0.782826 0
M  V30 6740 C 623.27 3.87603 -2.28219 0
M  V30 6741 C 624.589 4.39331 -0.260128 0
M  V30 6742 H 621.708 0.713327 -0.185292 0
M  V30 6743 H 624.35 1.54178 -1.11036 0
M  V30 6744 H 622.5 3.87572 -0.268399 0
M  V30 6745 H 624.172 3.61537 -2.86512 0
M  V30 6746 H 622.415 3.3563 -2.74837 0
M  V30 6747 H 623.086 4.95806 -2.42653 0
M  V30 6748 H 625.562 4.10162 -0.700444 0
M  V30 6749 H 624.438 5.46769 -0.483179 0
M  V30 6750 H 624.699 4.34072 0.838674 0
M  V30 6751 N 623.758 0.647228 1.43697 0
M  V30 6752 C 625.035 0.0883758 1.954 0
M  V30 6753 C 625.415 -1.39006 1.58873 0
M  V30 6754 O 624.763 -2.11255 0.87083 0
M  V30 6755 C 624.973 0.328263 3.47453 0
M  V30 6756 C 626.321 0.230009 4.23977 0
M  V30 6757 O 627.345 0.260496 3.55246 0
M  V30 6758 O 626.204 0.148615 5.46298 0
M  V30 6759 H 623.298 -0.0130683 0.826897 0
M  V30 6760 H 625.844 0.72005 1.53666 0
M  V30 6761 H 624.616 1.3535 3.67146 0
M  V30 6762 H 624.239 -0.336772 3.96171 0
M  V30 6763 N 625.236 -1.5273 0.388769 0
M  V30 6764 C 626.184 -2.27975 -0.461527 0
M  V30 6765 C 627.178 -1.31854 -1.06352 0
M  V30 6766 O 628.384 -1.49394 -1.00406 0
M  V30 6767 H 624.759 -0.733088 -0.16759 0
M  V30 6768 H 626.73 -2.97765 0.194579 0
M  V30 6769 C 625.479 -3.09881 -1.577 0
M  V30 6770 H 624.802 -3.83701 -1.12309 0
M  V30 6771 H 626.242 -3.6567 -2.14619 0
M  V30 6772 C 624.701 -2.22159 -2.53272 0
M  V30 6773 O 625.231 -1.84802 -3.56667 0
M  V30 6774 N 623.437 -1.8633 -2.23001 0
M  V30 6775 H 622.984 -2.16909 -1.38954 0
M  V30 6776 H 622.942 -1.27927 -2.87197 0
M  V30 6777 N 626.714 -0.118576 -1.57153 0
M  V30 6778 C 627.942 0.54726 -1.99531 0
M  V30 6779 C 628.357 1.60251 -0.998246 0
M  V30 6780 O 627.714 1.82498 0.00893106 0
M  V30 6781 C 627.765 1.17378 -3.41913 0
M  V30 6782 O 627.486 0.160703 -4.37805 0
M  V30 6783 C 628.987 1.92297 -3.9942 0
M  V30 6784 H 626.207 0.144919 -0.655164 0
M  V30 6785 H 628.751 -0.20479 -2.03472 0
M  V30 6786 H 626.906 1.87661 -3.38913 0
M  V30 6787 H 627.32 0.61586 -5.20872 0
M  V30 6788 H 628.794 2.31462 -5.01128 0
M  V30 6789 H 629.271 2.79801 -3.38538 0
M  V30 6790 H 629.877 1.26777 -4.05965 0
M  V30 6791 N 628.193 1.56834 0.155195 0
M  V30 6792 C 629.418 1.87412 0.888337 0
M  V30 6793 C 629.843 0.70671 1.74319 0
M  V30 6794 O 629.201 -0.343892 1.78009 0
M  V30 6795 C 629.249 3.1652 1.72765 0
M  V30 6796 O 628.353 2.99877 2.83103 0
M  V30 6797 H 627.694 0.615983 0.247914 0
M  V30 6798 H 630.224 2.04061 0.148478 0
M  V30 6799 H 630.234 3.48334 2.12433 0
M  V30 6800 H 628.909 4.01094 1.09985 0
M  V30 6801 H 627.486 2.79453 2.46902 0
M  V30 6802 N 629.671 -0.424282 1.51781 0
M  V30 6803 C 630.948 -1.18464 1.55646 0
M  V30 6804 C 631.328 -2.08529 0.328438 0
M  V30 6805 O 630.676 -2.17969 -0.685693 0
M  V30 6806 C 630.886 -1.97514 2.87731 0
M  V30 6807 C 632.234 -2.54106 3.40169 0
M  V30 6808 O 633.258 -2.07711 2.89369 0
M  V30 6809 O 632.117 -3.38759 4.28841 0
M  V30 6810 H 629.211 -0.540055 0.626314 0
M  V30 6811 H 631.757 -0.432291 1.64102 0
M  V30 6812 H 630.529 -1.31444 3.68562 0
M  V30 6813 H 630.152 -2.79787 2.82498 0
M  V30 6814 N 631.149 -1.42148 -0.680565 0
M  V30 6815 C 632.079 -1.4796 -1.80638 0
M  V30 6816 C 633.06 -0.336728 -1.66734 0
M  V30 6817 O 634.245 -0.550247 -1.86242 0
M  V30 6818 C 631.375 -1.37569 -3.18892 0
M  V30 6819 C 630.329 -2.49823 -3.47524 0
M  V30 6820 C 629.655 -2.24491 -4.85291 0
M  V30 6821 C 630.955 -3.92144 -3.44994 0
M  V30 6822 H 632.649 -2.42184 -1.76032 0
M  V30 6823 H 630.195 -1.16566 -0.845481 0
M  V30 6824 H 632.148 -1.40243 -3.97379 0
M  V30 6825 H 630.872 -0.398357 -3.24162 0
M  V30 6826 H 629.531 -2.46455 -2.71395 0
M  V30 6827 H 629.179 -1.25066 -4.87204 0
M  V30 6828 H 628.879 -2.99722 -5.05411 0
M  V30 6829 H 630.403 -2.28906 -5.66069 0
M  V30 6830 H 631.817 -3.97145 -4.13459 0
M  V30 6831 H 630.214 -4.67179 -3.76648 0
M  V30 6832 H 631.284 -4.19225 -2.43676 0
M  V30 6833 N 632.627 0.916307 -1.28225 0
M  V30 6834 C 634.038 1.48024 -1.13779 0
M  V30 6835 C 634.389 1.94289 0.273139 0
M  V30 6836 O 633.514 1.82226 1.16716 0
M  V30 6837 C 634.109 2.69029 -2.05935 0
M  V30 6838 C 632.668 3.2161 -1.95561 0
M  V30 6839 C 631.815 1.94321 -1.97825 0
M  V30 6840 H 634.766 0.729272 -1.40951 0
M  V30 6841 H 634.787 3.44204 -1.62184 0
M  V30 6842 H 634.299 2.35325 -3.08616 0
M  V30 6843 H 632.4 3.60045 -0.959076 0
M  V30 6844 H 632.513 3.87032 -2.82388 0
M  V30 6845 H 630.877 2.1131 -1.42198 0
M  V30 6846 H 631.66 1.62917 -3.0218 0
M  V30 6847 N 634.105 1.10431 1.1244 0
M  V30 6848 C 635.053 0.747974 2.20246 0
M  V30 6849 C 636.047 -0.255848 1.67457 0
M  V30 6850 O 637.253 -0.116221 1.79624 0
M  V30 6851 H 633.628 0.223946 0.71788 0
M  V30 6852 H 635.599 1.6661 2.47556 0
M  V30 6853 C 634.348 0.195957 3.47147 0
M  V30 6854 H 633.671 0.959606 3.88113 0
M  V30 6855 H 635.111 -0.0153154 4.23997 0
M  V30 6856 C 633.57 -1.07132 3.19413 0
M  V30 6857 O 634.1 -2.15284 3.3914 0
M  V30 6858 N 632.306 -0.98994 2.73219 0
M  V30 6859 H 631.853 -0.109736 2.57366 0
M  V30 6860 H 631.811 -1.83856 2.55038 0
M  V30 6861 N 635.583 -1.29855 0.893053 0
M  V30 6862 C 636.533 -2.25493 0.337211 0
M  V30 6863 C 637.517 -1.51606 -0.53894 0
M  V30 6864 O 638.709 -1.72828 -0.382043 0
M  V30 6865 C 635.838 -3.40467 -0.440117 0
M  V30 6866 C 634.924 -4.217 0.450578 0
M  V30 6867 N 635.315 -4.81312 1.55476 0
M  V30 6868 C 633.613 -4.45315 0.247154 0
M  V30 6869 C 634.314 -5.42241 2.10593 0
M  V30 6870 N 633.29 -5.25267 1.39982 0
M  V30 6871 H 637.092 -2.69137 1.18079 0
M  V30 6872 H 634.606 -1.44388 0.743359 0
M  V30 6873 H 636.603 -4.08038 -0.855021 0
M  V30 6874 H 635.263 -2.98361 -1.28104 0
M  V30 6875 H 636.274 -4.80291 1.93755 0
M  V30 6876 H 632.951 -4.13782 -0.555939 0
M  V30 6877 H 634.341 -5.99517 3.03362 0
M  V30 6878 N 637.061 -0.65484 -1.43351 0
M  V30 6879 C 638.31 -0.166215 -2.01014 0
M  V30 6880 C 638.623 1.22764 -1.52278 0
M  V30 6881 O 639.829 1.81156 -2.02224 0
M  V30 6882 C 638.285 -0.246341 -3.59056 0
M  V30 6883 C 637.893 -1.64299 -4.16785 0
M  V30 6884 C 639.637 0.184597 -4.24098 0
M  V30 6885 C 637.544 -1.67695 -5.67126 0
M  V30 6886 H 636.474 -0.0583769 -0.751737 0
M  V30 6887 H 639.125 -0.817111 -1.64303 0
M  V30 6888 H 637.507 0.472092 -3.93176 0
M  V30 6889 H 638.681 -2.3869 -3.94162 0
M  V30 6890 H 636.996 -2.02004 -3.6412 0
M  V30 6891 H 639.593 0.179088 -5.344 0
M  V30 6892 H 639.936 1.21632 -3.98135 0
M  V30 6893 H 640.469 -0.482141 -3.94867 0
M  V30 6894 H 637.208 -2.68783 -5.9786 0
M  V30 6895 H 636.728 -0.976313 -5.91801 0
M  V30 6896 H 638.407 -1.42142 -6.31193 0
M  V30 6897 N 638.539 1.52521 -0.396863 0
M  V30 6898 C 639.95 1.86547 0.0754868 0
M  V30 6899 C 640.301 1.31621 1.45501 0
M  V30 6900 O 639.426 0.650563 2.0639 0
M  V30 6901 C 640.021 3.38495 0.143754 0
M  V30 6902 C 638.58 3.72205 0.560413 0
M  V30 6903 C 637.727 2.75954 -0.272856 0
M  V30 6904 H 640.678 1.46323 -0.614434 0
M  V30 6905 H 640.699 3.68153 0.961425 0
M  V30 6906 H 640.211 3.78442 -0.860415 0
M  V30 6907 H 638.312 3.3783 1.57167 0
M  V30 6908 H 638.425 4.78074 0.313314 0
M  V30 6909 H 636.789 2.53339 0.263 0
M  V30 6910 H 637.572 3.1874 -1.27515 0
M  V30 6911 N 640.017 0.126909 1.57088 0
M  V30 6912 C 641.264 -0.529168 1.95464 0
M  V30 6913 C 641.592 -1.6618 1.01067 0
M  V30 6914 O 640.847 -1.95667 0.0360254 0
M  V30 6915 C 641.146 -1.095 3.40212 0
M  V30 6916 C 640.812 -0.0829015 4.50824 0
M  V30 6917 C 639.474 0.195377 4.80803 0
M  V30 6918 C 641.826 0.606411 5.1766 0
M  V30 6919 C 639.154 1.16912 5.74933 0
M  V30 6920 C 641.506 1.56884 6.12838 0
M  V30 6921 C 640.17 1.85502 6.41206 0
M  V30 6922 H 639.44 -0.193636 0.715252 0
M  V30 6923 H 642.087 0.209489 1.90351 0
M  V30 6924 H 640.392 -1.91058 3.42059 0
M  V30 6925 H 642.089 -1.61087 3.67222 0
M  V30 6926 H 638.679 -0.309979 4.27478 0
M  V30 6927 H 642.863 0.404597 4.94648 0
M  V30 6928 H 638.119 1.3975 5.95214 0
M  V30 6929 H 642.293 2.10859 6.6371 0
M  V30 6930 H 639.92 2.61109 7.13951 0
M  V30 6931 N 641.495 -1.56914 -0.146875 0
M  V30 6932 C 642.735 -1.85163 -0.86568 0
M  V30 6933 C 643.099 -0.711215 -1.78342 0
M  V30 6934 O 644.3 -0.874754 -2.54168 0
M  V30 6935 C 642.571 -3.18593 -1.61967 0
M  V30 6936 S 644.13 -3.68397 -2.38388 0
M  V30 6937 H 640.948 -0.6494 -0.289483 0
M  V30 6938 H 643.55 -1.95096 -0.125679 0
M  V30 6939 H 642.254 -3.99562 -0.93694 0
M  V30 6940 H 641.785 -3.11666 -2.40058 0
M  V30 6941 H 643.8 -3.37672 -3.63582 0
M  V30 6942 N 642.974 0.416227 -1.52004 0
M  V30 6943 C 644.251 1.17637 -1.56272 0
M  V30 6944 C 644.631 2.08352 -0.339493 0
M  V30 6945 O 643.979 2.1833 0.674124 0
M  V30 6946 C 644.189 1.95986 -2.88774 0
M  V30 6947 C 645.537 2.52299 -3.41512 0
M  V30 6948 O 646.561 2.06174 -2.90467 0
M  V30 6949 O 645.42 3.3648 -4.30631 0
M  V30 6950 H 642.514 0.536726 -0.629169 0
M  V30 6951 H 645.06 0.423583 -1.64329 0
M  V30 6952 H 643.832 1.29487 -3.69254 0
M  V30 6953 H 643.455 2.78285 -2.83978 0
M  V30 6954 N 644.452 1.42507 0.673017 0
M  V30 6955 C 645.699 1.43072 1.43306 0
M  V30 6956 C 646.027 0.0478004 1.94441 0
M  V30 6957 O 645.282 -0.944106 1.71421 0
M  V30 6958 C 645.581 2.40351 2.64511 0
M  V30 6959 C 645.247 3.8669 2.31908 0
M  V30 6960 C 643.909 4.26551 2.22728 0
M  V30 6961 C 646.261 4.78991 2.05467 0
M  V30 6962 C 643.589 5.56691 1.85234 0
M  V30 6963 C 645.941 6.09476 1.69477 0
M  V30 6964 C 644.605 6.48334 1.58808 0
M  V30 6965 H 643.875 0.523536 0.524395 0
M  V30 6966 H 646.522 1.75459 0.76723 0
M  V30 6967 H 644.827 2.01297 3.36135 0
M  V30 6968 H 646.524 2.38051 3.22696 0
M  V30 6969 H 643.114 3.55132 2.39956 0
M  V30 6970 H 647.298 4.48982 2.11492 0
M  V30 6971 H 642.554 5.85657 1.75545 0
M  V30 6972 H 646.728 6.80482 1.48043 0
M  V30 6973 H 644.355 7.49084 1.29525 0
M  V30 6974 N 645.93 -0.909495 1.28709 0
M  V30 6975 C 647.178 -1.65577 1.15882 0
M  V30 6976 C 647.499 -1.928 -0.292108 0
M  V30 6977 O 646.769 -1.54716 -1.20166 0
M  V30 6978 H 645.349 -0.613714 0.425869 0
M  V30 6979 H 648.011 -1.09108 1.61498 0
M  V30 6980 H 647.107 -2.61634 1.70159 0
M  V30 6981 N 647.408 -1.11026 -1.11852 0
M  V30 6982 C 648.318 -0.777252 -2.2135 0
M  V30 6983 C 649.334 0.227821 -1.72502 0
M  V30 6984 O 650.51 0.0650587 -2.01295 0
M  V30 6985 C 647.575 -0.220668 -3.45997 0
M  V30 6986 C 646.636 -1.2838 -4.09655 0
M  V30 6987 C 645.869 -0.753678 -5.28352 0
M  V30 6988 O 646.092 0.417779 -5.68868 0
M  V30 6989 O 645.026 -1.51647 -5.82483 0
M  V30 6990 H 648.852 -1.69141 -2.5224 0
M  V30 6991 H 646.437 -0.885836 -1.20305 0
M  V30 6992 H 648.319 0.0855756 -4.21313 0
M  V30 6993 H 646.994 0.666262 -3.16769 0
M  V30 6994 H 645.901 -1.64299 -3.3609 0
M  V30 6995 H 647.234 -2.14396 -4.43052 0
M  V30 6996 N 648.886 1.2938 -0.899927 0
M  V30 6997 C 650.132 1.9584 -0.526742 0
M  V30 6998 C 650.465 1.70774 0.924651 0
M  V30 6999 O 649.74 1.02084 1.65557 0
M  V30 7000 C 650.023 3.50638 -0.820062 0
M  V30 7001 C 649.876 3.85161 -2.32317 0
M  V30 7002 C 651.195 4.3903 -0.30671 0
M  V30 7003 H 648.314 0.711322 -0.192848 0
M  V30 7004 H 650.956 1.52992 -1.12665 0
M  V30 7005 H 649.106 3.87265 -0.309491 0
M  V30 7006 H 650.778 3.58477 -2.9033 0
M  V30 7007 H 649.021 3.32696 -2.78381 0
M  V30 7008 H 649.692 4.93204 -2.47898 0
M  V30 7009 H 652.168 4.09396 -0.743908 0
M  V30 7010 H 651.044 5.46226 -0.541144 0
M  V30 7011 H 651.305 4.34937 0.792588 0
M  V30 7012 N 650.364 0.662433 1.43002 0
M  V30 7013 C 651.592 0.187615 2.06048 0
M  V30 7014 C 652.007 -1.15039 1.49705 0
M  V30 7015 O 651.364 -1.71209 0.631956 0
M  V30 7016 C 651.415 0.100498 3.6136 0
M  V30 7017 O 651.136 1.38562 4.15611 0
M  V30 7018 C 652.637 -0.399298 4.41498 0
M  V30 7019 H 649.857 0.0941675 0.664359 0
M  V30 7020 H 652.401 0.905681 1.83351 0
M  V30 7021 H 650.556 -0.568181 3.83211 0
M  V30 7022 H 650.97 1.25084 5.09366 0
M  V30 7023 H 652.444 -0.409187 5.50481 0
M  V30 7024 H 652.921 -1.43232 4.15188 0
M  V30 7025 H 653.527 0.23721 4.24638 0
M  V30 7026 N 651.842 -1.52309 0.404946 0
M  V30 7027 C 653.119 -1.94237 -0.230544 0
M  V30 7028 C 653.499 -1.34154 -1.6299 0
M  V30 7029 O 652.847 -0.515713 -2.22604 0
M  V30 7030 C 653.057 -3.48166 -0.241106 0
M  V30 7031 C 654.405 -4.22074 -0.462488 0
M  V30 7032 O 655.429 -3.54754 -0.320644 0
M  V30 7033 O 654.288 -5.41443 -0.741708 0
M  V30 7034 H 651.382 -0.813766 -0.147358 0
M  V30 7035 H 653.928 -1.6333 0.460587 0
M  V30 7036 H 652.7 -3.84269 0.738467 0
M  V30 7037 H 652.323 -3.85422 -0.97651 0
M  V30 7038 N 653.32 -0.135238 -1.57019 0
M  V30 7039 C 654.731 0.387521 -1.82634 0
M  V30 7040 C 655.082 1.65528 -1.05332 0
M  V30 7041 O 654.207 2.14381 -0.294926 0
M  V30 7042 C 654.802 0.709852 -3.3128 0
M  V30 7043 C 653.361 1.17718 -3.57518 0
M  V30 7044 C 652.508 0.194183 -2.76619 0
M  V30 7045 H 655.459 -0.360126 -1.5456 0
M  V30 7046 H 655.48 1.5657 -3.46794 0
M  V30 7047 H 654.992 -0.213024 -3.87515 0
M  V30 7048 H 653.093 2.1164 -3.06658 0
M  V30 7049 H 653.206 1.11128 -4.66034 0
M  V30 7050 H 651.57 0.684478 -2.4533 0
M  V30 7051 H 652.353 -0.722076 -3.3562 0
M  V30 7052 N 654.798 1.5699 0.138552 0
M  V30 7053 C 656.209 1.73171 0.697754 0
M  V30 7054 C 656.56 0.750952 1.8126 0
M  V30 7055 O 655.685 -0.080549 2.1625 0
M  V30 7056 C 656.28 3.13996 1.27248 0
M  V30 7057 C 654.839 3.3175 1.77816 0
M  V30 7058 C 653.986 2.69084 0.669991 0
M  V30 7059 H 656.937 1.5846 -0.0871979 0
M  V30 7060 H 656.958 3.14463 2.14227 0
M  V30 7061 H 656.47 3.85354 0.460855 0
M  V30 7062 H 654.571 2.65403 2.61519 0
M  V30 7063 H 654.684 4.39768 1.90107 0
M  V30 7064 H 653.048 2.29782 1.09874 0
M  V30 7065 H 653.831 3.43053 -0.130329 0
M  V30 7066 N 656.276 -0.40816 1.52223 0
M  V30 7067 C 657.501 -1.18127 1.70472 0
M  V30 7068 C 657.926 -1.83491 0.41384 0
M  V30 7069 O 657.284 -1.70047 -0.628778 0
M  V30 7070 C 657.332 -2.21935 2.84213 0
M  V30 7071 O 656.436 -3.28099 2.4985 0
M  V30 7072 H 655.777 -0.344781 0.56747 0
M  V30 7073 H 658.307 -0.478328 1.9893 0
M  V30 7074 H 658.317 -2.66248 3.09153 0
M  V30 7075 H 656.992 -1.73744 3.7787 0
M  V30 7076 H 655.569 -2.89058 2.35584 0
M  V30 7077 N 657.755 -1.42862 -0.66545 0
M  V30 7078 C 658.665 -1.49491 -1.80803 0
M  V30 7079 C 659.681 -0.382914 -1.69734 0
M  V30 7080 O 660.857 -0.635223 -1.9112 0
M  V30 7081 C 657.922 -1.40383 -3.17007 0
M  V30 7082 C 656.983 -2.62152 -3.39963 0
M  V30 7083 C 656.216 -2.53469 -4.69669 0
M  V30 7084 O 656.439 -1.57568 -5.48205 0
M  V30 7085 O 655.373 -3.43763 -4.94075 0
M  V30 7086 H 659.199 -2.45949 -1.78165 0
M  V30 7087 H 656.784 -1.24728 -0.822387 0
M  V30 7088 H 658.666 -1.377 -3.98267 0
M  V30 7089 H 657.341 -0.470546 -3.20262 0
M  V30 7090 H 656.248 -2.70409 -2.58515 0
M  V30 7091 H 657.581 -3.54411 -3.41546 0
M  V30 7092 N 659.233 0.902656 -1.29189 0
M  V30 7093 C 660.51 1.63296 -1.07674 0
M  V30 7094 C 660.89 2.07649 0.380137 0
M  V30 7095 O 660.238 1.82997 1.36837 0
M  V30 7096 C 660.448 2.81603 -2.06158 0
M  V30 7097 C 661.796 3.52359 -2.36914 0
M  V30 7098 O 662.82 2.91767 -2.04329 0
M  V30 7099 O 661.679 4.61586 -2.92576 0
M  V30 7100 H 658.773 0.716889 -0.41231 0
M  V30 7101 H 661.319 0.950984 -1.4055 0
M  V30 7102 H 660.091 2.46004 -3.04299 0
M  V30 7103 H 659.714 3.57508 -1.73993 0
M  V30 7104 N 660.711 1.11618 1.11262 0
M  V30 7105 C 661.957 0.867463 1.83311 0
M  V30 7106 C 662.29 -0.605366 1.84524 0
M  V30 7107 O 661.565 -1.44704 1.29965 0
M  V30 7108 C 661.848 1.43207 3.30399 0
M  V30 7109 C 661.701 2.97265 3.3757 0
M  V30 7110 C 663.02 1.08454 4.26528 0
M  V30 7111 H 660.139 0.316578 0.665543 0
M  V30 7112 H 662.781 1.38137 1.30454 0
M  V30 7113 H 660.931 0.994982 3.75543 0
M  V30 7114 H 662.603 3.49591 3.00971 0
M  V30 7115 H 660.846 3.33237 2.77733 0
M  V30 7116 H 661.517 3.31859 4.41105 0
M  V30 7117 H 663.993 1.4619 3.89574 0
M  V30 7118 H 662.869 1.50633 5.27826 0
M  V30 7119 H 663.13 -0.00444568 4.421 0
M  V30 7120 N 662.189 -1.289 0.906776 0
M  V30 7121 C 663.417 -1.99401 0.551969 0
M  V30 7122 C 663.832 -1.67816 -0.865048 0
M  V30 7123 O 663.189 -0.927078 -1.57199 0
M  V30 7124 C 663.24 -3.53779 0.743152 0
M  V30 7125 O 662.961 -3.84248 2.1044 0
M  V30 7126 C 664.462 -4.41543 0.39424 0
M  V30 7127 H 661.682 -0.636926 0.211106 0
M  V30 7128 H 664.226 -1.64266 1.21807 0
M  V30 7129 H 662.381 -3.87201 0.124143 0
M  V30 7130 H 662.795 -4.78904 2.13895 0
M  V30 7131 H 664.269 -5.48957 0.578814 0
M  V30 7132 H 664.746 -4.34073 -0.669137 0
M  V30 7133 H 665.352 -4.13605 0.990491 0
M  V30 7134 N 663.667 -0.670007 -1.42649 0
M  V30 7135 C 664.63 0.00204659 -2.292 0
M  V30 7136 C 665.63 0.733817 -1.4308 0
M  V30 7137 O 666.82 0.57254 -1.64522 0
M  V30 7138 C 663.952 1.01359 -3.25483 0
M  V30 7139 H 665.145 -0.759696 -2.90118 0
M  V30 7140 H 662.698 -0.432105 -1.50208 0
M  V30 7141 H 663.433 1.80399 -2.69493 0
M  V30 7142 H 663.218 0.492323 -3.88997 0
M  V30 7143 H 664.708 1.4824 -3.90403 0
M  V30 7144 N 665.145 1.52092 -0.413018 0
M  V30 7145 C 666.095 2.23947 0.427993 0
M  V30 7146 C 667.079 1.25229 1.01027 0
M  V30 7147 O 668.271 1.50448 0.932444 0
M  V30 7148 C 665.4 3.0672 1.542 0
M  V30 7149 C 664.486 4.12851 0.970307 0
M  V30 7150 N 664.877 5.05644 0.125611 0
M  V30 7151 C 663.175 4.28404 1.24042 0
M  V30 7152 C 663.876 5.8138 -0.192876 0
M  V30 7153 N 662.852 5.41996 0.417273 0
M  V30 7154 H 666.654 2.93048 -0.223628 0
M  V30 7155 H 664.168 1.60852 -0.223664 0
M  V30 7156 H 666.165 3.56754 2.15714 0
M  V30 7157 H 664.825 2.39159 2.19621 0
M  V30 7158 H 665.836 5.17348 -0.238995 0
M  V30 7159 H 662.513 3.72071 1.89391 0
M  V30 7160 H 663.903 6.66129 -0.878762 0
M  V30 7161 N 666.623 0.143563 1.56945 0
M  V30 7162 C 667.869 -0.50916 1.96304 0
M  V30 7163 C 668.202 -1.64741 1.0283 0
M  V30 7164 O 667.477 -1.94374 0.0700361 0
M  V30 7165 C 667.76 -1.0186 3.45393 0
M  V30 7166 C 667.613 0.117923 4.49645 0
M  V30 7167 C 668.932 -1.90151 3.96901 0
M  V30 7168 H 666.051 -0.183608 0.713763 0
M  V30 7169 H 668.693 0.224095 1.88674 0
M  V30 7170 H 666.843 -1.64345 3.52027 0
M  V30 7171 H 668.515 0.754145 4.55094 0
M  V30 7172 H 666.758 0.777568 4.26774 0
M  V30 7173 H 667.429 -0.280187 5.51288 0
M  V30 7174 H 669.905 -1.375 3.92725 0
M  V30 7175 H 668.781 -2.22707 5.0169 0
M  V30 7176 H 669.042 -2.83718 3.39052 0
M  V30 7177 N 668.101 -1.57061 -0.130224 0
M  V30 7178 C 669.031 -2.02552 -1.16168 0
M  V30 7179 C 670.012 -0.907971 -1.4384 0
M  V30 7180 O 671.197 -1.17693 -1.54473 0
M  V30 7181 C 668.327 -2.42035 -2.49071 0
M  V30 7182 C 667.281 -3.5713 -2.35886 0
M  V30 7183 C 666.607 -3.82478 -3.7365 0
M  V30 7184 C 667.907 -4.89236 -1.8288 0
M  V30 7185 H 669.601 -2.8897 -0.783359 0
M  V30 7186 H 667.147 -1.39021 -0.375376 0
M  V30 7187 H 669.1 -2.72462 -3.21469 0
M  V30 7188 H 667.824 -1.52573 -2.88771 0
M  V30 7189 H 666.483 -3.26895 -1.65938 0
M  V30 7190 H 666.131 -2.9024 -4.10816 0
M  V30 7191 H 665.831 -4.59944 -3.65685 0
M  V30 7192 H 667.355 -4.15347 -4.47571 0
M  V30 7193 H 668.769 -5.18272 -2.45085 0
M  V30 7194 H 667.166 -5.70624 -1.85763 0
M  V30 7195 H 668.236 -4.78494 -0.785571 0
M  V30 7196 N 669.579 0.400081 -1.52437 0
M  V30 7197 C 670.489 1.51253 -1.79331 0
M  V30 7198 C 671.505 1.60188 -0.679396 0
M  V30 7199 O 672.681 1.76733 -0.965791 0
M  V30 7200 C 669.746 2.869 -1.94652 0
M  V30 7201 C 668.807 2.87777 -3.18564 0
M  V30 7202 C 668.04 4.16954 -3.33145 0
M  V30 7203 O 668.263 5.11329 -2.52783 0
M  V30 7204 O 667.197 4.2487 -4.26343 0
M  V30 7205 H 671.023 1.31461 -2.73773 0
M  V30 7206 H 668.608 0.586834 -1.37392 0
M  V30 7207 H 670.49 3.67336 -2.065 0
M  V30 7208 H 669.165 3.06741 -1.034 0
M  V30 7209 H 668.072 2.06162 -3.12167 0
M  V30 7210 H 669.405 2.72886 -4.09627 0
M  V30 7211 N 671.057 1.43213 0.657864 0
M  V30 7212 C 672.297 1.46083 1.42965 0
M  V30 7213 C 672.661 0.0809712 1.91829 0
M  V30 7214 O 673.862 -0.0156305 2.68795 0
M  V30 7215 C 672.133 2.47044 2.58271 0
M  V30 7216 S 673.692 2.68753 3.46868 0
M  V30 7217 H 670.51 0.517015 0.488074 0
M  V30 7218 H 673.112 1.79945 0.764213 0
M  V30 7219 H 671.816 3.46044 2.20639 0
M  V30 7220 H 671.347 2.14665 3.2967 0
M  V30 7221 H 673.362 1.98329 4.54841 0
M  V30 7222 N 672.536 -0.895792 1.29666 0
M  V30 7223 C 673.783 -1.64664 1.17864 0
M  V30 7224 C 674.111 -1.92631 -0.26902 0
M  V30 7225 O 673.366 -1.53787 -1.21029 0
M  V30 7226 C 673.665 -3.00075 1.94139 0
M  V30 7227 C 673.331 -2.91702 3.43833 0
M  V30 7228 C 671.993 -2.89126 3.84656 0
M  V30 7229 C 674.345 -2.80622 4.39205 0
M  V30 7230 C 671.673 -2.73293 5.1916 0
M  V30 7231 C 674.025 -2.66329 5.73805 0
M  V30 7232 C 672.689 -2.62121 6.1388 0
M  V30 7233 H 671.959 -0.602549 0.431295 0
M  V30 7234 H 674.606 -1.04234 1.60648 0
M  V30 7235 H 672.911 -3.64394 1.43958 0
M  V30 7236 H 674.608 -3.57111 1.82408 0
M  V30 7237 H 671.198 -2.94511 3.11386 0
M  V30 7238 H 675.382 -2.81686 4.08615 0
M  V30 7239 H 670.638 -2.68443 5.49316 0
M  V30 7240 H 674.812 -2.56727 6.47352 0
M  V30 7241 H 672.439 -2.49611 7.18052 0
M  V30 7242 N 674.014 -1.12206 -1.10668 0
M  V30 7243 C 675.262 -0.874144 -1.82217 0
M  V30 7244 C 675.583 0.601736 -1.85484 0
M  V30 7245 O 674.853 1.43725 -1.33116 0
M  V30 7246 H 673.433 -0.320404 -0.674797 0
M  V30 7247 H 676.095 -1.41606 -1.33917 0
M  V30 7248 H 675.191 -1.25349 -2.85822 0
M  V30 7249 N 675.492 1.28418 -0.913599 0
M  V30 7250 C 676.717 1.99643 -0.561899 0
M  V30 7251 C 677.142 1.67819 0.849608 0
M  V30 7252 O 676.5 0.910503 1.56779 0
M  V30 7253 C 676.548 3.52116 -0.777622 0
M  V30 7254 O 675.652 4.12076 0.163457 0
M  V30 7255 H 674.993 0.627229 -0.217898 0
M  V30 7256 H 677.523 1.63575 -1.229 0
M  V30 7257 H 677.533 4.02163 -0.687666 0
M  V30 7258 H 676.208 3.74613 -1.8066 0
M  V30 7259 H 674.785 3.72892 0.0247827 0
M  V30 7260 N 676.97 0.677563 1.42291 0
M  V30 7261 C 678.217 0.200975 2.015 0
M  V30 7262 C 678.545 -1.19342 1.53583 0
M  V30 7263 O 677.8 -1.81579 0.7299 0
M  V30 7264 C 678.099 0.187229 3.56909 0
M  V30 7265 C 677.765 1.52667 4.24268 0
M  V30 7266 C 676.427 1.89341 4.42384 0
M  V30 7267 C 678.779 2.40869 4.62203 0
M  V30 7268 C 676.107 3.13836 4.95705 0
M  V30 7269 C 678.459 3.64679 5.16906 0
M  V30 7270 C 677.123 4.01519 5.33234 0
M  V30 7271 H 676.393 0.0735418 0.737342 0
M  V30 7272 H 679.04 0.873095 1.70439 0
M  V30 7273 H 677.345 -0.568407 3.87655 0
M  V30 7274 H 679.042 -0.198773 4.00507 0
M  V30 7275 H 675.632 1.23138 4.1053 0
M  V30 7276 H 679.816 2.1382 4.47878 0
M  V30 7277 H 675.072 3.42396 5.06532 0
M  V30 7278 H 679.246 4.33224 5.45243 0
M  V30 7279 H 676.873 4.98062 5.74316 0
M  V30 7280 N 678.448 -1.51871 0.421078 0
M  V30 7281 C 679.696 -2.01539 -0.150492 0
M  V30 7282 C 680.017 -1.30803 -1.44623 0
M  V30 7283 O 679.287 -0.437568 -1.90951 0
M  V30 7284 H 677.867 -0.744698 -0.0586041 0
M  V30 7285 H 680.529 -1.8668 0.560059 0
M  V30 7286 H 679.625 -3.10264 -0.338068 0
M  V30 7287 N 679.926 -0.151884 -1.56866 0
M  V30 7288 C 681.156 0.504081 -2.00356 0
M  V30 7289 C 681.564 1.58639 -1.03103 0
M  V30 7290 O 680.907 1.83688 -0.0207931 0
M  V30 7291 C 680.969 1.15975 -3.40279 0
M  V30 7292 C 680.633 0.221453 -4.56463 0
M  V30 7293 C 681.63 -0.552766 -5.16953 0
M  V30 7294 C 679.315 0.122936 -5.0215 0
M  V30 7295 C 681.309 -1.4129 -6.21543 0
M  V30 7296 C 678.996 -0.740801 -6.06593 0
M  V30 7297 C 679.994 -1.50732 -6.6616 0
M  V30 7298 O 679.682 -2.35666 -7.68581 0
M  V30 7299 H 679.414 0.135279 -0.662326 0
M  V30 7300 H 681.968 -0.244916 -2.03935 0
M  V30 7301 H 680.198 1.95649 -3.33554 0
M  V30 7302 H 681.887 1.71594 -3.67846 0
M  V30 7303 H 682.653 -0.486716 -4.82552 0
M  V30 7304 H 678.532 0.70931 -4.5551 0
M  V30 7305 H 682.076 -2.01166 -6.67966 0
M  V30 7306 H 677.973 -0.808125 -6.40421 0
M  V30 7307 H 678.741 -2.28967 -7.85822 0
M  V30 7308 N 681.404 1.57128 0.121893 0
M  V30 7309 C 682.681 1.75664 0.860327 0
M  V30 7310 C 683.061 0.726585 1.98202 0
M  V30 7311 O 682.409 -0.24999 2.27128 0
M  V30 7312 C 682.619 3.20571 1.37968 0
M  V30 7313 C 683.967 3.82988 1.83317 0
M  V30 7314 O 684.991 3.24156 1.47654 0
M  V30 7315 O 683.85 4.86393 2.49168 0
M  V30 7316 H 680.944 0.719153 0.408348 0
M  V30 7317 H 683.49 1.6937 0.105859 0
M  V30 7318 H 682.262 3.87056 0.57477 0
M  V30 7319 H 681.885 3.31392 2.19694 0
M  V30 7320 N 682.882 -0.391992 1.52647 0
M  V30 7321 C 684.159 -1.15136 1.58123 0
M  V30 7322 C 684.539 -2.07786 0.372597 0
M  V30 7323 O 683.887 -2.19374 -0.639304 0
M  V30 7324 C 684.097 -1.91367 2.91856 0
M  V30 7325 C 685.445 -2.46833 3.45483 0
M  V30 7326 O 686.469 -2.01527 2.9371 0
M  V30 7327 O 685.328 -3.29587 4.3593 0
M  V30 7328 H 682.422 -0.526649 0.637629 0
M  V30 7329 H 684.968 -0.397386 1.64982 0
M  V30 7330 H 683.74 -1.23597 3.71268 0
M  V30 7331 H 683.363 -2.73732 2.88369 0
M  V30 7332 N 684.36 -1.4356 -0.65026 0
M  V30 7333 C 685.323 -1.48615 -1.74489 0
M  V30 7334 C 686.323 -0.370483 -1.56474 0
M  V30 7335 O 687.513 -0.632351 -1.62317 0
M  V30 7336 C 684.645 -1.34161 -3.13391 0
M  V30 7337 H 685.838 -2.46103 -1.71387 0
M  V30 7338 H 683.391 -1.30369 -0.862186 0
M  V30 7339 H 684.126 -0.376918 -3.22102 0
M  V30 7340 H 683.911 -2.1504 -3.27872 0
M  V30 7341 H 685.401 -1.40637 -3.93206 0
M  V30 7342 N 685.838 0.888903 -1.30139 0
M  V30 7343 C 687.084 1.64288 -1.19922 0
M  V30 7344 C 687.439 1.90839 0.244561 0
M  V30 7345 O 686.732 1.51544 1.17239 0
M  V30 7346 C 686.926 2.99041 -1.95728 0
M  V30 7347 C 686.755 2.85644 -3.47329 0
M  V30 7348 C 685.525 2.85836 -4.16685 0
M  V30 7349 C 687.723 2.6188 -4.42632 0
M  V30 7350 N 685.705 2.63289 -5.54574 0
M  V30 7351 C 687.076 2.48418 -5.68057 0
M  V30 7352 C 689.131 2.47073 -4.32272 0
M  V30 7353 C 687.834 2.21655 -6.84296 0
M  V30 7354 C 689.86 2.21695 -5.48275 0
M  V30 7355 C 689.222 2.09007 -6.72678 0
M  V30 7356 H 685.321 0.606315 -0.493868 0
M  V30 7357 H 687.905 1.0478 -1.64102 0
M  V30 7358 H 686.076 3.56589 -1.53945 0
M  V30 7359 H 687.808 3.63607 -1.77685 0
M  V30 7360 H 684.563 2.97521 -3.68481 0
M  V30 7361 H 684.987 2.55039 -6.27124 0
M  V30 7362 H 689.629 2.55621 -3.36776 0
M  V30 7363 H 687.347 2.11845 -7.79838 0
M  V30 7364 H 690.933 2.11067 -5.42164 0
M  V30 7365 H 689.813 1.89643 -7.60924 0
M  V30 7366 N 687.317 1.12792 1.10072 0
M  V30 7367 C 688.264 0.79921 2.16521 0
M  V30 7368 C 689.234 -0.235726 1.64419 0
M  V30 7369 O 690.419 -0.109457 1.90486 0
M  V30 7370 C 687.559 0.264091 3.44088 0
M  V30 7371 C 686.672 1.35729 4.10124 0
M  V30 7372 C 685.807 0.781212 5.25424 0
M  V30 7373 C 684.846 1.85327 5.8337 0
M  V30 7374 N 683.983 1.29564 6.90042 0
M  V30 7375 H 688.823 1.71105 2.43981 0
M  V30 7376 H 686.36 0.854225 1.19756 0
M  V30 7377 H 688.318 -0.0642423 4.17151 0
M  V30 7378 H 686.948 -0.610901 3.16967 0
M  V30 7379 H 686 1.80234 3.34993 0
M  V30 7380 H 687.312 2.16782 4.4923 0
M  V30 7381 H 686.466 0.403769 6.05355 0
M  V30 7382 H 685.205 -0.0604686 4.87663 0
M  V30 7383 H 684.21 2.23986 5.02106 0
M  V30 7384 H 685.435 2.69824 6.23195 0
M  V30 7385 H 683.381 0.475844 6.54272 0
M  V30 7386 H 683.298 2.04271 7.2788 0
M  V30 7387 H 684.566 0.945545 7.73744 0
M  V30 7388 N 688.795 -1.27931 0.920396 0
M  V30 7389 C 690.041 -1.94977 0.557832 0
M  V30 7390 C 690.374 -1.72224 -0.897365 0
M  V30 7391 O 689.649 -1.04705 -1.63912 0
M  V30 7392 C 689.932 -3.49289 0.875741 0
M  V30 7393 C 689.785 -3.81416 2.38416 0
M  V30 7394 C 691.104 -4.38486 0.376517 0
M  V30 7395 H 688.223 -0.708164 0.20414 0
M  V30 7396 H 690.865 -1.5118 1.15085 0
M  V30 7397 H 689.015 -3.86724 0.371062 0
M  V30 7398 H 690.687 -3.53813 2.95997 0
M  V30 7399 H 688.93 -3.28225 2.83639 0
M  V30 7400 H 689.601 -4.89198 2.55713 0
M  V30 7401 H 692.077 -4.08161 0.808945 0
M  V30 7402 H 690.953 -5.45296 0.627976 0
M  V30 7403 H 691.214 -4.36143 -0.723293 0
M  V30 7404 N 690.273 -0.685099 -1.4193 0
M  V30 7405 C 691.522 -0.208816 -2.00616 0
M  V30 7406 C 691.835 1.19506 -1.54847 0
M  V30 7407 O 693.041 1.76826 -2.06021 0
M  V30 7408 C 691.497 -0.322446 -3.58453 0
M  V30 7409 C 691.105 -1.73102 -4.13206 0
M  V30 7410 C 692.849 0.0945979 -4.24395 0
M  V30 7411 C 690.756 -1.79687 -5.63442 0
M  V30 7412 H 689.686 -0.0743092 -0.750329 0
M  V30 7413 H 692.337 -0.851778 -1.62533 0
M  V30 7414 H 690.719 0.388588 -3.94089 0
M  V30 7415 H 691.893 -2.46997 -3.8901 0
M  V30 7416 H 690.208 -2.09682 -3.59753 0
M  V30 7417 H 692.805 0.0656937 -5.3466 0
M  V30 7418 H 693.148 1.1316 -4.00625 0
M  V30 7419 H 693.681 -0.56579 -3.93756 0
M  V30 7420 H 690.42 -2.81404 -5.92024 0
M  V30 7421 H 689.94 -1.10162 -5.89597 0
M  V30 7422 H 691.619 -1.55498 -6.28036 0
M  V30 7423 N 691.751 1.51645 -0.429126 0
M  V30 7424 C 693.167 1.59394 -0.080994 0
M  V30 7425 C 693.367 1.44064 1.40882 0
M  V30 7426 O 692.423 1.27771 2.17786 0
M  V30 7427 C 693.736 2.94779 -0.593773 0
M  V30 7428 C 695.284 3.08067 -0.553494 0
M  V30 7429 C 695.759 4.45963 -1.04311 0
M  V30 7430 N 697.25 4.5226 -1.00076 0
M  V30 7431 C 697.985 5.57268 -1.35056 0
M  V30 7432 N 697.481 6.69734 -1.77282 0
M  V30 7433 N 699.274 5.47582 -1.26925 0
M  V30 7434 H 691.425 1.59856 -1.39857 0
M  V30 7435 H 693.688 0.753095 -0.575805 0
M  V30 7436 H 693.394 3.11342 -1.63583 0
M  V30 7437 H 693.268 3.77197 -0.0142202 0
M  V30 7438 H 695.655 2.91177 0.479556 0
M  V30 7439 H 695.736 2.27508 -1.16935 0
M  V30 7440 H 695.38 4.63598 -2.07459 0
M  V30 7441 H 695.31 5.25049 -0.403873 0
M  V30 7442 H 697.801 3.71537 -0.690564 0
M  V30 7443 H 698.114 7.4587 -2.02232 0
M  V30 7444 H 696.459 6.70963 -1.81202 0
M  V30 7445 H 699.65 4.58604 -0.93809 0
M  V30 7446 H 699.823 6.29308 -1.54516 0
M  V30 7447 N 693.229 0.160201 1.56784 0
M  V30 7448 C 694.645 -0.196089 1.58391 0
M  V30 7449 C 694.845 -1.63689 1.17508 0
M  V30 7450 O 693.901 -2.36613 0.881506 0
M  V30 7451 C 695.214 0.0746449 3.00607 0
M  V30 7452 C 696.762 0.0119762 3.12998 0
M  V30 7453 C 697.237 0.255551 4.57286 0
M  V30 7454 N 698.728 0.202938 4.62755 0
M  V30 7455 C 699.463 0.365731 5.72232 0
M  V30 7456 N 698.959 0.586972 6.90309 0
M  V30 7457 N 700.752 0.302411 5.61286 0
M  V30 7458 H 692.903 1.1008 1.81648 0
M  V30 7459 H 695.166 0.436779 0.841384 0
M  V30 7460 H 694.872 1.07231 3.34954 0
M  V30 7461 H 694.746 -0.638802 3.71751 0
M  V30 7462 H 697.133 -0.976254 2.78484 0
M  V30 7463 H 697.214 0.75796 2.44313 0
M  V30 7464 H 696.858 1.24094 4.92507 0
M  V30 7465 H 696.788 -0.510912 5.24116 0
M  V30 7466 H 699.279 0.0371328 3.77882 0
M  V30 7467 H 699.592 0.700941 7.69615 0
M  V30 7468 H 697.937 0.623453 6.92198 0
M  V30 7469 H 701.128 0.130238 4.67919 0
M  V30 7470 H 701.301 0.432712 6.46554 0
M  V30 7471 N 694.707 -1.5719 -0.113559 0
M  V30 7472 C 695.67 -1.99796 -1.12314 0
M  V30 7473 C 696.67 -0.888847 -1.34001 0
M  V30 7474 O 697.86 -1.15476 -1.30426 0
M  V30 7475 C 694.992 -2.34279 -2.47641 0
M  V30 7476 H 696.185 -2.90193 -0.756825 0
M  V30 7477 H 693.738 -1.52144 -0.358029 0
M  V30 7478 H 694.473 -1.46778 -2.89183 0
M  V30 7479 H 694.258 -3.15175 -2.33253 0
M  V30 7480 H 695.748 -2.67963 -3.2029 0
M  V30 7481 N 696.185 0.383891 -1.52853 0
M  V30 7482 C 697.431 1.13009 -1.68395 0
M  V30 7483 C 697.764 1.89488 -0.425195 0
M  V30 7484 O 697.039 1.8574 0.577136 0
M  V30 7485 C 697.322 2.10419 -2.92226 0
M  V30 7486 C 697.175 1.3767 -4.28214 0
M  V30 7487 C 698.494 3.10781 -3.11614 0
M  V30 7488 H 695.613 0.409463 -0.612788 0
M  V30 7489 H 698.255 0.412895 -1.85459 0
M  V30 7490 H 696.405 2.71579 -2.77808 0
M  V30 7491 H 698.077 0.794352 -4.54409 0
M  V30 7492 H 696.32 0.678533 -4.2846 0
M  V30 7493 H 696.991 2.08874 -5.10956 0
M  V30 7494 H 699.467 2.59715 -3.25096 0
M  V30 7495 H 698.343 3.76179 -3.99725 0
M  V30 7496 H 698.604 3.79933 -2.2606 0
M  V30 7497 N 697.663 1.43903 0.642637 0
M  V30 7498 C 698.573 1.52349 1.78401 0
M  V30 7499 C 699.589 0.409869 1.69104 0
M  V30 7500 O 700.765 0.665548 1.90085 0
M  V30 7501 C 697.83 1.45408 3.14734 0
M  V30 7502 C 696.891 2.67528 3.35749 0
M  V30 7503 C 696.124 2.60909 4.65577 0
M  V30 7504 O 696.347 1.6627 5.45628 0
M  V30 7505 O 695.281 3.5158 4.88544 0
M  V30 7506 H 699.107 2.48752 1.7423 0
M  V30 7507 H 696.692 1.26021 0.802439 0
M  V30 7508 H 698.574 1.44019 3.96026 0
M  V30 7509 H 697.249 0.521437 3.19473 0
M  V30 7510 H 696.156 2.74487 2.5418 0
M  V30 7511 H 697.489 3.598 3.35864 0
M  V30 7512 N 699.141 -0.881989 1.30609 0
M  V30 7513 C 700.371 -1.66469 1.22359 0
M  V30 7514 C 700.779 -1.87969 -0.215507 0
M  V30 7515 O 700.122 -1.42938 -1.15388 0
M  V30 7516 C 700.184 -3.06135 1.88472 0
M  V30 7517 C 699.848 -3.07795 3.37804 0
M  V30 7518 C 700.845 -2.86633 4.33749 0
M  V30 7519 C 698.53 -3.29297 3.793 0
M  V30 7520 C 700.524 -2.86934 5.69164 0
M  V30 7521 C 698.211 -3.29228 5.14832 0
M  V30 7522 C 699.209 -3.08071 6.09574 0
M  V30 7523 O 698.897 -3.07824 7.4263 0
M  V30 7524 H 698.629 -0.526129 0.424458 0
M  V30 7525 H 701.183 -1.11004 1.72821 0
M  V30 7526 H 699.413 -3.63276 1.32543 0
M  V30 7527 H 701.102 -3.66571 1.74301 0
M  V30 7528 H 701.868 -2.69814 4.0302 0
M  V30 7529 H 697.747 -3.44799 3.05998 0
M  V30 7530 H 701.291 -2.70339 6.43088 0
M  V30 7531 H 697.188 -3.45583 5.452 0
M  V30 7532 H 697.956 -3.2397 7.51656 0
M  V30 7533 N 700.619 -1.13374 -1.09472 0
M  V30 7534 C 701.549 -0.833268 -2.18126 0
M  V30 7535 C 702.53 0.207169 -1.68834 0
M  V30 7536 O 703.715 0.0662012 -1.94087 0
M  V30 7537 C 700.845 -0.297979 -3.46019 0
M  V30 7538 C 699.799 -1.27261 -4.08642 0
M  V30 7539 C 699.125 -0.597104 -5.31356 0
M  V30 7540 C 700.425 -2.63095 -4.51197 0
M  V30 7541 H 702.119 -1.74182 -2.43518 0
M  V30 7542 H 699.665 -0.838921 -1.17039 0
M  V30 7543 H 701.618 -0.0754444 -4.21332 0
M  V30 7544 H 700.342 0.645959 -3.20148 0
M  V30 7545 H 699.001 -1.48113 -3.35348 0
M  V30 7546 H 698.649 0.352293 -5.01765 0
M  V30 7547 H 698.349 -1.24734 -5.74208 0
M  V30 7548 H 699.873 -0.38384 -6.09392 0
M  V30 7549 H 701.287 -2.46214 -5.17737 0
M  V30 7550 H 699.684 -3.2429 -5.04932 0
M  V30 7551 H 700.754 -3.20793 -3.6362 0
M  V30 7552 N 702.098 1.27442 -0.927168 0
M  V30 7553 C 703.045 2.26863 -0.424459 0
M  V30 7554 C 704.015 1.5813 0.508346 0
M  V30 7555 O 705.2 1.85946 0.42762 0
M  V30 7556 C 702.34 3.43639 0.31718 0
M  V30 7557 C 701.453 4.27087 -0.649675 0
M  V30 7558 C 700.588 5.31082 0.111753 0
M  V30 7559 C 699.627 6.062 -0.847843 0
M  V30 7560 N 698.764 7.01999 -0.119074 0
M  V30 7561 H 703.604 2.69239 -1.27728 0
M  V30 7562 H 701.141 1.32394 -0.641106 0
M  V30 7563 H 703.099 4.10155 0.763486 0
M  V30 7564 H 701.729 3.02217 1.13424 0
M  V30 7565 H 700.781 3.60491 -1.21451 0
M  V30 7566 H 702.093 4.79242 -1.38307 0
M  V30 7567 H 701.247 6.03544 0.618 0
M  V30 7568 H 699.986 4.7973 0.878114 0
M  V30 7569 H 698.991 5.32577 -1.36534 0
M  V30 7570 H 700.216 6.59642 -1.61398 0
M  V30 7571 H 698.162 6.52977 0.629051 0
M  V30 7572 H 698.079 7.5184 -0.792046 0
M  V30 7573 H 699.347 7.78638 0.366537 0
M  V30 7574 N 703.576 0.692616 1.41565 0
M  V30 7575 C 704.992 0.363878 1.55397 0
M  V30 7576 C 705.192 -1.1294 1.66874 0
M  V30 7577 O 704.248 -1.91517 1.64552 0
M  V30 7578 C 705.561 1.10982 2.7947 0
M  V30 7579 C 707.109 1.09387 2.93263 0
M  V30 7580 C 707.584 1.8215 4.20221 0
M  V30 7581 N 709.075 1.79105 4.27172 0
M  V30 7582 C 709.81 2.32247 5.2426 0
M  V30 7583 N 709.306 2.93847 6.27396 0
M  V30 7584 N 711.099 2.22519 5.1618 0
M  V30 7585 H 703.25 1.66116 1.3236 0
M  V30 7586 H 705.513 0.700848 0.63837 0
M  V30 7587 H 705.219 2.1647 2.77188 0
M  V30 7588 H 705.093 0.686492 3.709 0
M  V30 7589 H 707.48 0.0472638 2.95062 0
M  V30 7590 H 707.561 1.55623 2.03015 0
M  V30 7591 H 707.205 2.86789 4.19183 0
M  V30 7592 H 707.135 1.33351 5.09436 0
M  V30 7593 H 709.626 1.34191 3.53272 0
M  V30 7594 H 709.939 3.31972 6.97864 0
M  V30 7595 H 708.284 2.97924 6.27906 0
M  V30 7596 H 711.475 1.7407 4.34531 0
M  V30 7597 H 711.648 2.64239 5.91677 0
M  V30 7598 N 705.054 -1.51416 0.437162 0
M  V30 7599 C 705.964 -2.31493 -0.380537 0
M  V30 7600 C 706.98 -1.40399 -1.02782 0
M  V30 7601 O 708.156 -1.73471 -1.02323 0
M  V30 7602 C 705.221 -3.1413 -1.46709 0
M  V30 7603 C 704.282 -4.21003 -0.839953 0
M  V30 7604 C 703.515 -4.9969 -1.87473 0
M  V30 7605 O 703.738 -4.79008 -3.09689 0
M  V30 7606 O 702.672 -5.8379 -1.46536 0
M  V30 7607 H 706.498 -3.02469 0.273183 0
M  V30 7608 H 704.083 -1.48059 0.199706 0
M  V30 7609 H 705.965 -3.65505 -2.09724 0
M  V30 7610 H 704.64 -2.45919 -2.10489 0
M  V30 7611 H 703.547 -3.73706 -0.171752 0
M  V30 7612 H 704.88 -4.91587 -0.245638 0
M  V30 7613 N 706.532 -0.168513 -1.56696 0
M  V30 7614 C 707.464 0.794249 -2.14998 0
M  V30 7615 C 708.477 1.1957 -1.10485 0
M  V30 7616 O 709.666 1.13604 -1.37682 0
M  V30 7617 C 706.766 2.08018 -2.67547 0
M  V30 7618 C 705.939 1.84274 -3.96689 0
M  V30 7619 C 704.998 2.97059 -4.3433 0
M  V30 7620 O 704.024 2.67815 -5.02259 0
M  V30 7621 N 705.226 4.24775 -3.9566 0
M  V30 7622 H 707.991 0.295832 -2.98236 0
M  V30 7623 H 705.552 0.0143611 -1.61894 0
M  V30 7624 H 707.544 2.82559 -2.89729 0
M  V30 7625 H 706.114 2.49059 -1.88914 0
M  V30 7626 H 705.334 0.936528 -3.82914 0
M  V30 7627 H 706.622 1.65773 -4.81037 0
M  V30 7628 H 706.02 4.51395 -3.40968 0
M  V30 7629 H 704.577 4.96027 -4.22848 0
M  V30 7630 N 708.01 1.57248 0.105221 0
M  V30 7631 C 708.957 2.01338 1.12835 0
M  V30 7632 C 709.927 0.887897 1.40377 0
M  V30 7633 O 711.112 1.15315 1.5201 0
M  V30 7634 C 708.252 2.43432 2.44611 0
M  V30 7635 C 707.365 3.69457 2.23888 0
M  V30 7636 C 706.5 4.00473 3.48991 0
M  V30 7637 C 705.539 5.19638 3.23485 0
M  V30 7638 N 704.676 5.46457 4.40828 0
M  V30 7639 H 709.516 2.88527 0.745386 0
M  V30 7640 H 707.053 1.42714 0.356535 0
M  V30 7641 H 709.011 2.65879 3.21503 0
M  V30 7642 H 707.641 1.59266 2.80774 0
M  V30 7643 H 706.693 3.54545 1.37847 0
M  V30 7644 H 708.005 4.56497 2.01026 0
M  V30 7645 H 707.159 4.23642 4.34295 0
M  V30 7646 H 705.898 3.11935 3.74897 0
M  V30 7647 H 704.903 4.96299 2.36574 0
M  V30 7648 H 706.128 6.09766 2.98935 0
M  V30 7649 H 704.074 4.60876 4.66829 0
M  V30 7650 H 703.991 6.27849 4.2112 0
M  V30 7651 H 705.259 5.74155 5.27225 0
M  V30 7652 N 709.488 -0.375779 1.53054 0
M  V30 7653 C 710.899 -0.95309 1.6054 0
M  V30 7654 C 711.25 -1.90575 0.466446 0
M  V30 7655 O 710.375 -2.12507 -0.408609 0
M  V30 7656 C 710.97 -1.73537 2.90982 0
M  V30 7657 C 709.529 -2.26218 3.00836 0
M  V30 7658 C 708.676 -1.07157 2.55759 0
M  V30 7659 H 711.627 -0.154895 1.57942 0
M  V30 7660 H 711.648 -2.59574 2.78211 0
M  V30 7661 H 711.16 -1.04176 3.73857 0
M  V30 7662 H 709.261 -2.98852 2.22527 0
M  V30 7663 H 709.374 -2.54799 4.05727 0
M  V30 7664 H 707.738 -1.43553 2.10391 0
M  V30 7665 H 708.521 -0.393099 3.41042 0
M  V30 7666 N 710.966 -1.44241 -0.634997 0
M  V30 7667 C 712.243 -1.37296 -1.39317 0
M  V30 7668 C 712.623 -0.0297532 -2.11079 0
M  V30 7669 O 711.971 0.987524 -2.06059 0
M  V30 7670 C 712.181 -2.56853 -2.36279 0
M  V30 7671 C 713.529 -3.00747 -2.99728 0
M  V30 7672 O 714.553 -2.5703 -2.46605 0
M  V30 7673 O 713.412 -3.76533 -3.96087 0
M  V30 7674 H 710.506 -0.543503 -0.623325 0
M  V30 7675 H 713.052 -1.56324 -0.660376 0
M  V30 7676 H 711.824 -3.46228 -1.82324 0
M  V30 7677 H 711.447 -2.40019 -3.16981 0
M  V30 7678 N 712.444 0.87505 -1.31075 0
M  V30 7679 C 713.692 1.62447 -1.20231 0
M  V30 7680 C 714.013 1.93506 0.240888 0
M  V30 7681 O 713.283 1.57847 1.16022 0
M  V30 7682 H 711.863 0.602207 -0.441991 0
M  V30 7683 H 714.525 1.04788 -1.64334 0
M  V30 7684 H 713.621 2.57031 -1.77036 0
M  V30 7685 N 713.922 1.13953 1.08869 0
M  V30 7686 C 715.147 0.928559 1.85452 0
M  V30 7687 C 715.572 -0.517642 1.80837 0
M  V30 7688 O 714.93 -1.36779 1.19001 0
M  V30 7689 C 714.978 1.42814 3.31114 0
M  V30 7690 O 714.082 0.617129 4.07756 0
M  V30 7691 H 713.423 0.33235 0.574839 0
M  V30 7692 H 715.953 1.5156 1.37443 0
M  V30 7693 H 715.963 1.43425 3.8196 0
M  V30 7694 H 714.638 2.48109 3.33788 0
M  V30 7695 H 713.215 0.679365 3.66659 0
M  V30 7696 N 715.4 -1.26948 0.933913 0
M  V30 7697 C 716.646 -1.94716 0.587985 0
M  V30 7698 C 717.001 -1.71994 -0.862312 0
M  V30 7699 O 716.294 -1.04208 -1.60783 0
M  V30 7700 C 716.488 -3.46963 0.857406 0
M  V30 7701 C 716.317 -3.84489 2.33234 0
M  V30 7702 C 715.087 -4.07621 2.98618 0
M  V30 7703 C 717.285 -3.93602 3.31031 0
M  V30 7704 N 715.267 -4.31976 4.362 0
M  V30 7705 C 716.638 -4.22404 4.53845 0
M  V30 7706 C 718.693 -3.76201 3.26155 0
M  V30 7707 C 717.396 -4.35615 5.72391 0
M  V30 7708 C 719.422 -3.90641 4.4402 0
M  V30 7709 C 718.784 -4.19835 5.65613 0
M  V30 7710 H 714.883 -0.735586 0.2654 0
M  V30 7711 H 717.467 -1.53181 1.20182 0
M  V30 7712 H 715.638 -3.87442 0.27268 0
M  V30 7713 H 717.37 -4.01921 0.47348 0
M  V30 7714 H 714.125 -4.02696 2.49264 0
M  V30 7715 H 714.549 -4.48199 5.07392 0
M  V30 7716 H 719.191 -3.52665 2.3321 0
M  V30 7717 H 716.909 -4.57975 6.65796 0
M  V30 7718 H 720.495 -3.78589 4.41771 0
M  V30 7719 H 719.375 -4.30765 6.55295 0
M  V30 7720 N 716.879 -0.700114 -1.41195 0
M  V30 7721 C 718.126 -0.233006 -2.01155 0
M  V30 7722 C 718.454 1.16883 -1.55462 0
M  V30 7723 O 717.709 1.80395 -0.758695 0
M  V30 7724 C 718.008 -0.243986 -3.56566 0
M  V30 7725 C 717.674 -1.59397 -4.21786 0
M  V30 7726 C 716.336 -1.96355 -4.39316 0
M  V30 7727 C 718.688 -2.48192 -4.58312 0
M  V30 7728 C 716.016 -3.21683 -4.9065 0
M  V30 7729 C 718.368 -3.72857 -5.11039 0
M  V30 7730 C 717.032 -4.09951 -5.26779 0
M  V30 7731 H 716.302 -0.085263 -0.736078 0
M  V30 7732 H 718.949 -0.9001 -1.69028 0
M  V30 7733 H 717.254 0.506663 -3.8851 0
M  V30 7734 H 718.951 0.135031 -4.00773 0
M  V30 7735 H 715.541 -1.29654 -4.08519 0
M  V30 7736 H 719.725 -2.20918 -4.4442 0
M  V30 7737 H 714.981 -3.50412 -5.01021 0
M  V30 7738 H 719.155 -4.41844 -5.38282 0
M  V30 7739 H 716.782 -5.07136 -5.66319 0
M  V30 7740 N 718.357 1.51182 -0.445186 0
M  V30 7741 C 719.605 2.01753 0.11841 0
M  V30 7742 C 719.926 1.33087 1.42523 0
M  V30 7743 O 719.196 0.467891 1.9023 0
M  V30 7744 H 717.776 0.745536 0.0467492 0
M  V30 7745 H 720.438 1.85765 -0.589688 0
M  V30 7746 H 719.534 3.10762 0.288665 0
M  V30 7747 N 719.835 0.176821 1.56605 0
M  V30 7748 C 721.251 -0.179278 1.5859 0
M  V30 7749 C 721.451 -1.62433 1.19238 0
M  V30 7750 O 720.507 -2.35665 0.906552 0
M  V30 7751 C 721.82 0.106524 3.00511 0
M  V30 7752 C 723.368 0.0451731 3.12967 0
M  V30 7753 C 723.843 0.304038 4.5699 0
M  V30 7754 N 725.334 0.252008 4.62514 0
M  V30 7755 C 726.069 0.426404 5.71812 0
M  V30 7756 N 725.565 0.660155 6.89648 0
M  V30 7757 N 727.358 0.361926 5.60934 0
M  V30 7758 H 719.509 1.12001 1.8047 0
M  V30 7759 H 721.772 0.445679 0.836704 0
M  V30 7760 H 721.478 1.10778 3.33798 0
M  V30 7761 H 721.352 -0.599337 3.72408 0
M  V30 7762 H 723.739 -0.946662 2.79504 0
M  V30 7763 H 723.82 0.78383 2.43495 0
M  V30 7764 H 723.464 1.29311 4.91163 0
M  V30 7765 H 723.394 -0.455294 5.24628 0
M  V30 7766 H 725.885 0.0772102 3.77821 0
M  V30 7767 H 726.198 0.782529 7.68828 0
M  V30 7768 H 724.543 0.696835 6.91498 0
M  V30 7769 H 727.734 0.17986 4.67754 0
M  V30 7770 H 727.907 0.501263 6.46058 0
M  V30 7771 N 721.313 -1.57302 -0.09688 0
M  V30 7772 C 722.559 -1.87144 -0.796778 0
M  V30 7773 C 722.914 -0.767428 -1.76432 0
M  V30 7774 O 722.207 0.230728 -1.90206 0
M  V30 7775 C 722.401 -3.21272 -1.56586 0
M  V30 7776 C 722.23 -4.44616 -0.674295 0
M  V30 7777 C 721 -5.04281 -0.320705 0
M  V30 7778 C 723.198 -5.14297 0.0179445 0
M  V30 7779 N 721.18 -6.11162 0.579206 0
M  V30 7780 C 722.551 -6.15125 0.775992 0
M  V30 7781 C 724.606 -4.97815 0.0920521 0
M  V30 7782 C 723.309 -7.01251 1.60122 0
M  V30 7783 C 725.335 -5.84447 0.904175 0
M  V30 7784 C 724.697 -6.84794 1.65035 0
M  V30 7785 H 720.796 -0.734721 -0.267787 0
M  V30 7786 H 723.38 -1.94609 -0.0593955 0
M  V30 7787 H 721.551 -3.14862 -2.27413 0
M  V30 7788 H 723.283 -3.38846 -2.21281 0
M  V30 7789 H 720.038 -4.68866 -0.667961 0
M  V30 7790 H 720.462 -6.69247 1.02166 0
M  V30 7791 H 725.104 -4.20174 -0.470492 0
M  V30 7792 H 722.822 -7.78284 2.17484 0
M  V30 7793 H 726.408 -5.73755 0.964165 0
M  V30 7794 H 725.288 -7.50668 2.26864 0
M  V30 7795 N 722.791 0.367657 -1.53252 0
M  V30 7796 C 724.039 1.10832 -1.68999 0
M  V30 7797 C 724.36 1.89894 -0.443306 0
M  V30 7798 O 723.63 1.88235 0.54262 0
M  V30 7799 H 722.21 0.412153 -0.623008 0
M  V30 7800 H 724.872 0.414775 -1.90435 0
M  V30 7801 H 723.968 1.7993 -2.55013 0
M  V30 7802 N 724.269 1.44576 0.627338 0
M  V30 7803 C 725.515 1.47777 1.38888 0
M  V30 7804 C 725.848 0.111406 1.9388 0
M  V30 7805 O 725.123 -0.87149 1.73883 0
M  V30 7806 C 725.406 2.54119 2.55138 0
M  V30 7807 C 725.259 4.00128 2.0547 0
M  V30 7808 C 726.578 2.56929 3.57317 0
M  V30 7809 H 723.697 0.538048 0.50366 0
M  V30 7810 H 726.339 1.76277 0.708978 0
M  V30 7811 H 724.489 2.29948 3.13139 0
M  V30 7812 H 726.161 4.35444 1.5227 0
M  V30 7813 H 724.404 4.11724 1.36623 0
M  V30 7814 H 725.075 4.7019 2.89181 0
M  V30 7815 H 727.551 2.78536 3.09122 0
M  V30 7816 H 726.427 3.33234 4.36173 0
M  V30 7817 H 726.688 1.6127 4.11636 0
M  V30 7818 N 725.747 -0.868086 1.31537 0
M  V30 7819 C 726.695 -1.99688 1.1928 0
M  V30 7820 C 727.689 -1.69101 0.100656 0
M  V30 7821 O 728.895 -1.78073 0.262677 0
M  V30 7822 H 725.27 -0.655032 0.369374 0
M  V30 7823 H 727.241 -2.07157 2.14776 0
M  V30 7824 C 725.99 -3.35338 0.918892 0
M  V30 7825 H 725.313 -3.59396 1.75142 0
M  V30 7826 H 726.753 -4.14909 0.873311 0
M  V30 7827 C 725.212 -3.34769 -0.378366 0
M  V30 7828 O 725.742 -3.76716 -1.39456 0
M  V30 7829 N 723.948 -2.87895 -0.39557 0
M  V30 7830 H 723.495 -2.53954 0.431889 0
M  V30 7831 H 723.453 -2.87897 -1.26344 0
M  V30 7832 N 727.225 -1.14528 -1.08264 0
M  V30 7833 C 728.455 -0.936604 -1.8415 0
M  V30 7834 C 728.863 0.518298 -1.81962 0
M  V30 7835 O 728.206 1.37096 -1.22272 0
M  V30 7836 C 728.268 -1.36182 -3.32708 0
M  V30 7837 C 727.932 -2.83257 -3.58629 0
M  V30 7838 C 728.929 -3.81366 -3.5335 0
M  V30 7839 C 726.614 -3.20704 -3.86593 0
M  V30 7840 C 728.608 -5.14929 -3.75668 0
M  V30 7841 C 726.295 -4.54443 -4.08564 0
M  V30 7842 C 727.293 -5.51365 -4.03095 0
M  V30 7843 O 726.981 -6.8269 -4.24488 0
M  V30 7844 H 726.713 -0.333254 -0.588148 0
M  V30 7845 H 729.267 -1.5247 -1.3763 0
M  V30 7846 H 727.497 -0.717063 -3.79994 0
M  V30 7847 H 729.186 -1.12372 -3.90035 0
M  V30 7848 H 729.952 -3.53781 -3.31759 0
M  V30 7849 H 725.831 -2.45857 -3.89969 0
M  V30 7850 H 729.375 -5.90568 -3.71315 0
M  V30 7851 H 725.272 -4.81747 -4.29639 0
M  V30 7852 H 726.04 -6.8897 -4.41886 0
M  V30 7853 N 728.703 1.26451 -0.940633 0
M  V30 7854 C 729.633 2.28773 -0.467479 0
M  V30 7855 C 730.614 1.63218 0.478955 0
M  V30 7856 O 731.799 1.90427 0.380929 0
M  V30 7857 C 728.929 3.46259 0.268656 0
M  V30 7858 C 727.883 4.23898 -0.591171 0
M  V30 7859 C 727.209 5.33993 0.274891 0
M  V30 7860 C 728.509 4.87974 -1.86223 0
M  V30 7861 H 730.203 2.68601 -1.32265 0
M  V30 7862 H 727.749 1.29123 -0.637436 0
M  V30 7863 H 729.702 4.16951 0.610696 0
M  V30 7864 H 728.426 3.05383 1.15796 0
M  V30 7865 H 727.085 3.54969 -0.916098 0
M  V30 7866 H 726.733 4.89358 1.16353 0
M  V30 7867 H 726.433 5.86849 -0.297006 0
M  V30 7868 H 727.957 6.07523 0.612213 0
M  V30 7869 H 729.371 5.50883 -1.58747 0
M  V30 7870 H 727.768 5.50945 -2.37866 0
M  V30 7871 H 728.838 4.10945 -2.57394 0
M  V30 7872 N 730.181 0.707592 1.40822 0
M  V30 7873 C 731.411 0.252706 2.05049 0
M  V30 7874 C 731.819 -1.10758 1.53393 0
M  V30 7875 O 731.162 -1.70567 0.682097 0
M  V30 7876 C 731.224 0.146001 3.59203 0
M  V30 7877 C 730.888 1.44027 4.33711 0
M  V30 7878 C 731.885 2.38058 4.62195 0
M  V30 7879 C 729.57 1.69698 4.72766 0
M  V30 7880 C 731.564 3.56013 5.28709 0
M  V30 7881 C 729.251 2.87936 5.39014 0
M  V30 7882 C 730.249 3.80915 5.66915 0
M  V30 7883 O 729.937 4.9708 6.31796 0
M  V30 7884 H 729.669 0.112784 0.666525 0
M  V30 7885 H 732.223 0.96417 1.81364 0
M  V30 7886 H 730.453 -0.621338 3.81676 0
M  V30 7887 H 732.142 -0.273275 4.04979 0
M  V30 7888 H 732.908 2.19487 4.32493 0
M  V30 7889 H 728.787 0.981835 4.50423 0
M  V30 7890 H 732.331 4.28604 5.50404 0
M  V30 7891 H 728.228 3.06419 5.68135 0
M  V30 7892 H 728.996 4.97053 6.50293 0
M  V30 7893 N 731.66 -1.50943 0.453197 0
M  V30 7894 C 732.908 -2.01813 -0.107709 0
M  V30 7895 C 733.229 -1.33841 -1.41816 0
M  V30 7896 O 732.499 -0.477973 -1.8998 0
M  V30 7897 H 731.079 -0.745773 -0.0427948 0
M  V30 7898 H 733.741 -1.8545 0.599531 0
M  V30 7899 H 732.837 -3.10911 -0.27218 0
M  V30 7900 N 733.138 -0.185124 -1.56509 0
M  V30 7901 C 734.366 0.462139 -2.01673 0
M  V30 7902 C 734.781 1.55873 -1.06532 0
M  V30 7903 O 734.138 1.82371 -0.0684805 0
M  V30 7904 C 734.189 1.0277 -3.46584 0
M  V30 7905 O 733.91 -0.0251296 -4.38093 0
M  V30 7906 C 735.411 1.75183 -4.07217 0
M  V30 7907 H 732.631 0.117001 -0.660721 0
M  V30 7908 H 735.175 -0.290905 -2.0242 0
M  V30 7909 H 733.33 1.73118 -3.46568 0
M  V30 7910 H 733.744 0.394387 -5.23015 0
M  V30 7911 H 735.218 2.09999 -5.10494 0
M  V30 7912 H 735.695 2.6519 -3.50101 0
M  V30 7913 H 736.301 1.09445 -4.10977 0
M  V30 7914 N 734.616 1.57351 0.0885366 0
M  V30 7915 C 735.864 1.86051 0.789262 0
M  V30 7916 C 736.185 0.774763 1.78948 0
M  V30 7917 O 735.455 -0.198324 1.94894 0
M  V30 7918 H 734.035 0.686508 0.294475 0
M  V30 7919 H 736.697 1.94779 0.0686055 0
M  V30 7920 H 735.793 2.83007 1.31581 0
M  V30 7921 N 736.094 -0.359525 1.53444 0
M  V30 7922 C 737.057 -1.42357 1.7963 0
M  V30 7923 C 738.057 -1.46319 0.666884 0
M  V30 7924 O 739.247 -1.46974 0.935113 0
M  V30 7925 C 736.379 -2.81425 1.92387 0
M  V30 7926 H 737.572 -1.20409 2.74666 0
M  V30 7927 H 735.125 -0.593007 1.44614 0
M  V30 7928 H 735.86 -3.08679 0.994384 0
M  V30 7929 H 735.645 -2.79947 2.74539 0
M  V30 7930 H 737.135 -3.5847 2.14218 0
M  V30 7931 N 737.572 -1.44907 -0.619662 0
M  V30 7932 C 738.818 -1.48512 -1.38102 0
M  V30 7933 C 739.151 -0.121686 -1.93818 0
M  V30 7934 O 738.426 0.862256 -1.74343 0
M  V30 7935 C 738.709 -2.55469 -2.53787 0
M  V30 7936 C 738.562 -4.01212 -2.03345 0
M  V30 7937 C 739.881 -2.58821 -3.55949 0
M  V30 7938 H 737 -0.540712 -0.500799 0
M  V30 7939 H 739.642 -1.7665 -0.69962 0
M  V30 7940 H 737.792 -2.31606 -3.11915 0
M  V30 7941 H 739.464 -4.36245 -1.49959 0
M  V30 7942 H 737.707 -4.12443 -1.34438 0
M  V30 7943 H 738.378 -4.71717 -2.86683 0
M  V30 7944 H 740.854 -2.80172 -3.07641 0
M  V30 7945 H 739.73 -3.35542 -4.34399 0
M  V30 7946 H 739.991 -1.63451 -4.10775 0
M  V30 7947 N 739.05 0.861098 -1.31996 0
M  V30 7948 C 740.296 1.61721 -1.22369 0
M  V30 7949 C 740.629 1.93 0.215587 0
M  V30 7950 O 739.904 1.56789 1.15098 0
M  V30 7951 C 740.187 2.9417 -2.07691 0
M  V30 7952 C 740.04 2.69714 -3.59965 0
M  V30 7953 C 741.359 3.95372 -1.93312 0
M  V30 7954 H 738.478 0.586822 -0.44588 0
M  V30 7955 H 741.12 0.994788 -1.61876 0
M  V30 7956 H 739.27 3.47292 -1.74128 0
M  V30 7957 H 740.942 2.23196 -4.03709 0
M  V30 7958 H 739.185 2.03789 -3.82952 0
M  V30 7959 H 739.856 3.63996 -4.14983 0
M  V30 7960 H 742.332 3.51487 -2.22701 0
M  V30 7961 H 741.208 4.85916 -2.55298 0
M  V30 7962 H 741.469 4.32865 -0.898922 0
M  V30 7963 N 740.528 1.15101 1.07655 0
M  V30 7964 C 741.753 0.948177 1.84457 0
M  V30 7965 C 742.178 -0.498432 1.81376 0
M  V30 7966 O 741.536 -1.35509 1.20445 0
M  V30 7967 C 741.584 1.46318 3.29581 0
M  V30 7968 O 740.688 0.660342 4.07079 0
M  V30 7969 H 740.029 0.338428 0.571281 0
M  V30 7970 H 742.559 1.5301 1.35828 0
M  V30 7971 H 742.569 1.47468 3.80417 0
M  V30 7972 H 741.244 2.51635 3.31138 0
M  V30 7973 H 739.821 0.718216 3.65918 0
M  V30 7974 N 742.006 -1.2595 0.947325 0
M  V30 7975 C 742.969 -2.24407 0.466285 0
M  V30 7976 C 743.969 -1.55054 -0.426005 0
M  V30 7977 O 745.159 -1.7275 -0.224319 0
M  V30 7978 C 742.291 -3.39326 -0.327201 0
M  V30 7979 H 743.484 -2.68477 1.33642 0
M  V30 7980 H 741.037 -1.38211 0.729887 0
M  V30 7981 H 741.772 -3.00667 -1.21532 0
M  V30 7982 H 741.557 -3.9085 0.312839 0
M  V30 7983 H 743.047 -4.12455 -0.653477 0
M  V30 7984 N 743.484 -0.715051 -1.40445 0
M  V30 7985 C 744.414 -0.0768699 -2.33373 0
M  V30 7986 C 745.395 0.746109 -1.52863 0
M  V30 7987 O 746.58 0.695142 -1.81332 0
M  V30 7988 C 743.71 0.846014 -3.36838 0
M  V30 7989 C 742.664 0.128694 -4.27806 0
M  V30 7990 C 741.99 1.16726 -5.21804 0
M  V30 7991 C 743.29 -1.01679 -5.12307 0
M  V30 7992 H 744.984 -0.853061 -2.8699 0
M  V30 7993 H 742.53 -0.41167 -1.3799 0
M  V30 7994 H 744.483 1.30185 -4.00786 0
M  V30 7995 H 743.207 1.6541 -2.81615 0
M  V30 7996 H 741.866 -0.307314 -3.6531 0
M  V30 7997 H 741.514 1.96838 -4.62887 0
M  V30 7998 H 741.214 0.692188 -5.83509 0
M  V30 7999 H 742.738 1.62321 -5.88629 0
M  V30 8000 H 744.152 -0.640337 -5.69713 0
M  V30 8001 H 742.549 -1.4202 -5.83053 0
M  V30 8002 H 743.619 -1.84769 -4.48317 0
M  V30 8003 N 744.962 1.50701 -0.461195 0
M  V30 8004 C 745.909 2.2831 0.338094 0
M  V30 8005 C 746.879 1.32928 0.995957 0
M  V30 8006 O 748.064 1.61857 1.0103 0
M  V30 8007 C 745.204 3.14539 1.41983 0
M  V30 8008 C 744.317 4.24942 0.77773 0
M  V30 8009 C 743.452 4.98443 1.83652 0
M  V30 8010 C 742.491 6.00733 1.17413 0
M  V30 8011 N 741.628 6.6755 2.17533 0
M  V30 8012 H 746.468 2.96167 -0.330051 0
M  V30 8013 H 744.005 1.4606 -0.174611 0
M  V30 8014 H 745.963 3.62877 2.05855 0
M  V30 8015 H 744.593 2.48749 2.05727 0
M  V30 8016 H 743.645 3.80391 0.0266924 0
M  V30 8017 H 744.957 4.98151 0.254362 0
M  V30 8018 H 744.111 5.50449 2.55129 0
M  V30 8019 H 742.85 4.24917 2.39367 0
M  V30 8020 H 741.855 5.47997 0.444944 0
M  V30 8021 H 743.08 6.76227 0.624006 0
M  V30 8022 H 741.026 5.96823 2.72284 0
M  V30 8023 H 740.943 7.36603 1.70154 0
M  V30 8024 H 742.211 7.24178 2.88421 0
M  V30 8025 N 746.441 0.193421 1.56409 0
M  V30 8026 C 747.404 -0.714371 2.17783 0
M  V30 8027 C 748.404 -1.1422 1.13183 0
M  V30 8028 O 749.594 -1.05557 1.38576 0
M  V30 8029 C 746.726 -1.97509 2.77855 0
M  V30 8030 H 747.919 -0.179714 2.99361 0
M  V30 8031 H 745.472 -0.0561944 1.56199 0
M  V30 8032 H 746.207 -2.5523 2.0007 0
M  V30 8033 H 745.992 -1.67706 3.54425 0
M  V30 8034 H 747.482 -2.62246 3.24987 0
M  V30 8035 N 747.919 -1.57396 -0.0801906 0
M  V30 8036 C 749.165 -1.87113 -0.782083 0
M  V30 8037 C 749.498 -0.78458 -1.77646 0
M  V30 8038 O 748.773 0.205993 -1.93406 0
M  V30 8039 C 749.056 -3.27483 -1.49756 0
M  V30 8040 C 748.909 -4.46782 -0.520171 0
M  V30 8041 C 750.228 -3.65965 -2.44454 0
M  V30 8042 H 747.347 -0.680559 -0.282858 0
M  V30 8043 H 749.989 -1.89946 -0.0454139 0
M  V30 8044 H 748.139 -3.25199 -2.12551 0
M  V30 8045 H 749.811 -4.61187 0.101919 0
M  V30 8046 H 748.054 -4.33485 0.165219 0
M  V30 8047 H 748.725 -5.41761 -1.05824 0
M  V30 8048 H 751.201 -3.69289 -1.91742 0
M  V30 8049 H 750.077 -4.65086 -2.91524 0
M  V30 8050 H 750.338 -2.95446 -3.28883 0
M  V30 8051 N 749.397 0.351382 -1.53633 0
M  V30 8052 C 750.645 1.09034 -1.70165 0
M  V30 8053 C 750.966 1.89413 -0.463422 0
M  V30 8054 O 750.236 1.888 0.522624 0
M  V30 8055 H 748.816 0.405522 -0.627344 0
M  V30 8056 H 751.478 0.394554 -1.90865 0
M  V30 8057 H 750.574 1.77215 -2.56907 0
M  V30 8058 N 750.875 1.45233 0.611969 0
M  V30 8059 C 752.124 1.48296 1.36716 0
M  V30 8060 C 752.437 0.12706 1.95187 0
M  V30 8061 O 753.643 0.0353066 2.71477 0
M  V30 8062 C 752.099 2.61168 2.47627 0
M  V30 8063 C 751.707 4.03051 1.95587 0
M  V30 8064 C 753.451 2.73472 3.24674 0
M  V30 8065 C 751.358 5.07312 3.03954 0
M  V30 8066 H 750.288 0.5518 0.513841 0
M  V30 8067 H 752.939 1.7136 0.656359 0
M  V30 8068 H 751.321 2.31379 3.21372 0
M  V30 8069 H 752.495 4.42497 1.2858 0
M  V30 8070 H 750.81 3.95158 1.31298 0
M  V30 8071 H 753.407 3.48537 4.05494 0
M  V30 8072 H 753.75 1.79953 3.75397 0
M  V30 8073 H 754.283 3.02765 2.58028 0
M  V30 8074 H 751.022 6.02525 2.58154 0
M  V30 8075 H 750.542 4.7244 3.69541 0
M  V30 8076 H 752.221 5.31867 3.6841 0
M  V30 8077 N 752.353 -0.854086 1.3245 0
M  V30 8078 C 753.63 -1.59188 1.1366 0
M  V30 8079 C 754.01 -2.08917 -0.302807 0
M  V30 8080 O 753.358 -1.8795 -1.29951 0
M  V30 8081 C 753.568 -2.73757 2.16467 0
M  V30 8082 C 754.916 -3.43323 2.49829 0
M  V30 8083 O 755.94 -2.83983 2.15017 0
M  V30 8084 O 754.799 -4.50409 3.09506 0
M  V30 8085 H 751.893 -0.701092 0.438633 0
M  V30 8086 H 754.439 -0.898165 1.43983 0
M  V30 8087 H 753.211 -2.3454 3.1322 0
M  V30 8088 H 752.834 -3.50804 1.87142 0
M  V30 8089 N 753.831 -1.1567 -1.07043 0
M  V30 8090 C 755.059 -0.957471 -1.83412 0
M  V30 8091 C 755.474 0.494271 -1.82215 0
M  V30 8092 O 754.831 1.34288 -1.23584 0
M  V30 8093 C 754.882 -1.46784 -3.30359 0
M  V30 8094 O 754.603 -2.86271 -3.31633 0
M  V30 8095 C 756.104 -1.31054 -4.23485 0
M  V30 8096 H 753.324 -0.33986 -0.578564 0
M  V30 8097 H 755.868 -1.53518 -1.35102 0
M  V30 8098 H 754.023 -0.932586 -3.76007 0
M  V30 8099 H 754.437 -3.0948 -4.23465 0
M  V30 8100 H 755.911 -1.71605 -5.24648 0
M  V30 8101 H 756.388 -0.255107 -4.38458 0
M  V30 8102 H 756.994 -1.83503 -3.83676 0
M  V30 8103 N 755.309 1.25446 -0.953992 0
M  V30 8104 C 756.725 1.4539 -0.658316 0
M  V30 8105 C 756.925 1.85607 0.784356 0
M  V30 8106 O 755.981 1.98568 1.55972 0
M  V30 8107 C 757.294 2.52643 -1.6307 0
M  V30 8108 C 758.842 2.66484 -1.64181 0
M  V30 8109 C 759.317 3.76921 -2.60182 0
M  V30 8110 N 760.808 3.84331 -2.58542 0
M  V30 8111 C 761.543 4.69271 -3.29503 0
M  V30 8112 N 761.039 5.58503 -4.09934 0
M  V30 8113 N 762.832 4.6323 -3.18393 0
M  V30 8114 H 754.983 0.976337 -1.8863 0
M  V30 8115 H 757.246 0.490343 -0.811337 0
M  V30 8116 H 756.952 2.29949 -2.66114 0
M  V30 8117 H 756.826 3.50547 -1.39271 0
M  V30 8118 H 759.213 2.88545 -0.618552 0
M  V30 8119 H 759.294 1.68982 -1.92038 0
M  V30 8120 H 758.938 3.55612 -3.62633 0
M  V30 8121 H 758.868 4.73906 -2.29609 0
M  V30 8122 H 761.359 3.20544 -2.0015 0
M  V30 8123 H 761.672 6.20241 -4.61 0
M  V30 8124 H 760.017 5.58214 -4.14032 0
M  V30 8125 H 763.208 3.92527 -2.5503 0
M  V30 8126 H 763.381 5.29204 -3.73961 0
M  V30 8127 N 756.787 0.722489 1.40064 0
M  V30 8128 C 757.697 0.0755984 2.34478 0
M  V30 8129 C 758.713 -0.736046 1.57665 0
M  V30 8130 O 759.889 -0.667407 1.9002 0
M  V30 8131 C 756.954 -0.830075 3.36616 0
M  V30 8132 C 756.015 -0.00759884 4.29299 0
M  V30 8133 C 755.248 -0.870139 5.26559 0
M  V30 8134 O 755.471 -2.10921 5.2997 0
M  V30 8135 O 754.405 -0.305454 6.01124 0
M  V30 8136 H 758.231 0.854545 2.9143 0
M  V30 8137 H 755.816 0.483032 1.41376 0
M  V30 8138 H 757.698 -1.34864 3.99236 0
M  V30 8139 H 756.373 -1.58805 2.82069 0
M  V30 8140 H 755.28 0.556199 3.69942 0
M  V30 8141 H 756.613 0.712312 4.87018 0
M  V30 8142 N 758.265 -1.50454 0.469181 0
M  V30 8143 C 759.676 -1.86695 0.0136034 0
M  V30 8144 C 760.027 -1.38413 -1.39055 0
M  V30 8145 O 759.152 -0.748294 -2.03051 0
M  V30 8146 C 759.747 -3.38795 0.0179098 0
M  V30 8147 C 758.306 -3.74455 -0.382191 0
M  V30 8148 C 757.453 -2.74338 0.404207 0
M  V30 8149 H 760.404 -1.43225 0.683547 0
M  V30 8150 H 760.425 -3.72321 -0.78468 0
M  V30 8151 H 759.937 -3.73906 1.04 0
M  V30 8152 H 758.038 -3.44944 -1.4087 0
M  V30 8153 H 758.151 -4.79025 -0.084862 0
M  V30 8154 H 756.515 -2.54305 -0.141829 0
M  V30 8155 H 757.298 -3.12293 1.42577 0
M  V30 8156 N 759.743 -0.201713 -1.56304 0
M  V30 8157 C 760.973 0.440084 -2.01858 0
M  V30 8158 C 761.381 1.55279 -1.08098 0
M  V30 8159 O 760.724 1.83529 -0.0792216 0
M  V30 8160 C 760.786 1.05091 -3.43797 0
M  V30 8161 C 760.45 0.0761208 -4.56937 0
M  V30 8162 C 761.447 -0.716951 -5.14933 0
M  V30 8163 C 759.132 -0.0368815 -5.02286 0
M  V30 8164 C 761.126 -1.60993 -6.16733 0
M  V30 8165 C 758.813 -0.933409 -6.03929 0
M  V30 8166 C 759.811 -1.71849 -6.61027 0
M  V30 8167 O 759.499 -2.59998 -7.60695 0
M  V30 8168 H 759.231 0.114139 -0.666294 0
M  V30 8169 H 761.785 -0.309672 -2.03052 0
M  V30 8170 H 760.015 1.84938 -3.3961 0
M  V30 8171 H 761.704 1.59804 -3.73118 0
M  V30 8172 H 762.47 -0.63999 -4.80759 0
M  V30 8173 H 758.349 0.564034 -4.57537 0
M  V30 8174 H 761.893 -2.22315 -6.61227 0
M  V30 8175 H 757.79 -1.01146 -6.37526 0
M  V30 8176 H 758.558 -2.53851 -7.7814 0
M  V30 8177 N 761.222 1.57436 0.0718424 0
M  V30 8178 C 762.471 1.86431 0.769826 0
M  V30 8179 C 762.784 0.794355 1.78744 0
M  V30 8180 O 763.99 0.972148 2.53499 0
M  V30 8181 C 762.446 3.307 1.42006 0
M  V30 8182 C 762.054 4.45824 0.441017 0
M  V30 8183 C 763.798 3.68894 2.10041 0
M  V30 8184 C 761.705 5.81134 1.09717 0
M  V30 8185 H 760.635 0.695474 0.291259 0
M  V30 8186 H 763.286 1.83485 0.0231224 0
M  V30 8187 H 761.668 3.28257 2.21502 0
M  V30 8188 H 762.842 4.59659 -0.32413 0
M  V30 8189 H 761.157 4.16181 -0.134886 0
M  V30 8190 H 763.754 4.67281 2.59908 0
M  V30 8191 H 764.097 2.98692 2.89981 0
M  V30 8192 H 764.63 3.73326 1.37376 0
M  V30 8193 H 761.369 6.54628 0.338095 0
M  V30 8194 H 760.889 5.711 1.83317 0
M  V30 8195 H 762.568 6.26468 1.617 0
M  V30 8196 N 762.7 -0.34323 1.53817 0
M  V30 8197 C 763.632 -1.44216 1.78141 0
M  V30 8198 C 764.645 -1.48701 0.662721 0
M  V30 8199 O 765.834 -1.51778 0.939458 0
M  V30 8200 C 762.934 -2.82872 1.86646 0
M  V30 8201 C 762.107 -3.01824 3.16577 0
M  V30 8202 C 761.166 -4.20723 3.16036 0
M  V30 8203 O 760.192 -4.14824 3.89756 0
M  V30 8204 N 761.394 -5.29276 2.38427 0
M  V30 8205 H 764.159 -1.23721 2.72971 0
M  V30 8206 H 761.72 -0.53311 1.52871 0
M  V30 8207 H 763.712 -3.60588 1.83735 0
M  V30 8208 H 762.282 -2.96509 0.990014 0
M  V30 8209 H 761.502 -2.11575 3.3261 0
M  V30 8210 H 762.79 -3.11369 4.02402 0
M  V30 8211 H 762.188 -5.36938 1.78085 0
M  V30 8212 H 760.745 -6.05484 2.41313 0
M  V30 8213 N 764.178 -1.45556 -0.604258 0
M  V30 8214 C 765.125 -1.54482 -1.71476 0
M  V30 8215 C 766.095 -0.390479 -1.61445 0
M  V30 8216 O 767.28 -0.604371 -1.80975 0
M  V30 8217 C 764.42 -1.52064 -3.09791 0
M  V30 8218 C 763.533 -2.78073 -3.30604 0
M  V30 8219 C 762.668 -2.67304 -4.59044 0
M  V30 8220 C 761.707 -3.88352 -4.73127 0
M  V30 8221 N 760.844 -3.76098 -5.9287 0
M  V30 8222 H 765.684 -2.49349 -1.63184 0
M  V30 8223 H 763.221 -1.23725 -0.795641 0
M  V30 8224 H 765.179 -1.48649 -3.89819 0
M  V30 8225 H 763.809 -0.607442 -3.17033 0
M  V30 8226 H 762.861 -2.91561 -2.44329 0
M  V30 8227 H 764.173 -3.67847 -3.36883 0
M  V30 8228 H 763.327 -2.61875 -5.47272 0
M  V30 8229 H 762.066 -1.75135 -4.55169 0
M  V30 8230 H 761.071 -3.94137 -3.83322 0
M  V30 8231 H 762.296 -4.81591 -4.78797 0
M  V30 8232 H 760.242 -2.867 -5.90033 0
M  V30 8233 H 760.159 -4.59509 -6.00323 0
M  V30 8234 H 761.427 -3.74607 -6.83586 0
M  V30 8235 N 765.656 0.84705 -1.32902 0
M  V30 8236 C 766.619 1.9378 -1.224 0
M  V30 8237 C 767.619 1.60144 -0.145108 0
M  V30 8238 O 768.809 1.69638 -0.396058 0
M  V30 8239 C 765.941 3.29234 -0.884174 0
M  V30 8240 H 767.134 2.04518 -2.19345 0
M  V30 8241 H 764.687 1.03816 -1.16842 0
M  V30 8242 H 765.422 3.24193 0.0831277 0
M  V30 8243 H 765.207 3.55026 -1.6643 0
M  V30 8244 H 766.697 4.09162 -0.835226 0
M  V30 8245 N 767.134 1.16236 1.06428 0
M  V30 8246 C 768.064 0.890807 2.1584 0
M  V30 8247 C 769.045 -0.162333 1.69324 0
M  V30 8248 O 770.23 -0.0147191 1.94194 0
M  V30 8249 C 767.36 0.389615 3.45108 0
M  V30 8250 C 766.314 1.38051 4.05125 0
M  V30 8251 C 765.64 0.737773 5.29586 0
M  V30 8252 C 766.94 2.74965 4.44062 0
M  V30 8253 H 768.634 1.80577 2.38814 0
M  V30 8254 H 766.18 0.869657 1.14774 0
M  V30 8255 H 768.133 0.187127 4.20984 0
M  V30 8256 H 766.857 -0.560851 3.21748 0
M  V30 8257 H 765.516 1.56952 3.31303 0
M  V30 8258 H 765.164 -0.219135 5.02522 0
M  V30 8259 H 764.864 1.39914 5.70699 0
M  V30 8260 H 766.388 0.545275 6.0816 0
M  V30 8261 H 767.802 2.59855 5.11027 0
M  V30 8262 H 766.199 3.37563 4.96156 0
M  V30 8263 H 767.269 3.30321 3.54987 0
M  V30 8264 N 768.612 -1.24939 0.960631 0
M  V30 8265 C 769.889 -1.88118 0.535807 0
M  V30 8266 C 770.269 -1.86605 -0.987009 0
M  V30 8267 O 769.617 -1.33375 -1.85536 0
M  V30 8268 C 769.827 -3.30565 1.11927 0
M  V30 8269 C 771.175 -4.07296 1.19981 0
M  V30 8270 O 772.199 -3.39709 1.07126 0
M  V30 8271 O 771.058 -5.28206 1.40218 0
M  V30 8272 H 768.152 -0.807698 0.177631 0
M  V30 8273 H 770.698 -1.32964 1.05445 0
M  V30 8274 H 769.47 -3.26128 2.16231 0
M  V30 8275 H 769.093 -3.93284 0.584245 0
M  V30 8276 N 770.09 -0.729906 -1.39679 0
M  V30 8277 C 771.336 -0.284905 -2.01395 0
M  V30 8278 C 771.691 1.11394 -1.56873 0
M  V30 8279 O 770.984 1.74765 -0.785342 0
M  V30 8280 C 771.178 -0.319564 -3.55968 0
M  V30 8281 C 771.007 -1.72024 -4.15497 0
M  V30 8282 C 769.777 -2.33128 -4.48307 0
M  V30 8283 C 771.975 -2.67296 -4.39383 0
M  V30 8284 N 769.957 -3.65403 -4.93309 0
M  V30 8285 C 771.328 -3.84298 -4.86534 0
M  V30 8286 C 773.383 -2.65124 -4.21442 0
M  V30 8287 C 772.086 -4.99455 -5.17627 0
M  V30 8288 C 774.112 -3.7942 -4.53646 0
M  V30 8289 C 773.474 -4.95156 -5.00999 0
M  V30 8290 H 769.573 -0.1504 -0.767401 0
M  V30 8291 H 772.157 -0.954783 -1.69682 0
M  V30 8292 H 770.328 0.319938 -3.8708 0
M  V30 8293 H 772.06 0.143504 -4.04445 0
M  V30 8294 H 768.815 -1.85097 -4.35931 0
M  V30 8295 H 769.239 -4.33298 -5.20175 0
M  V30 8296 H 773.881 -1.76842 -3.8404 0
M  V30 8297 H 771.599 -5.88371 -5.53937 0
M  V30 8298 H 775.185 -3.79031 -4.41392 0
M  V30 8299 H 774.065 -5.82131 -5.25446 0
M  V30 8300 N 771.568 1.50203 -0.477153 0
M  V30 8301 C 772.814 2.02658 0.0758507 0
M  V30 8302 C 773.147 1.358 1.38824 0
M  V30 8303 O 772.422 0.485696 1.88338 0
M  V30 8304 C 772.705 3.59208 0.253339 0
M  V30 8305 C 772.558 4.36629 -1.0805 0
M  V30 8306 C 773.877 4.28469 1.00509 0
M  V30 8307 H 770.996 0.736538 0.0260921 0
M  V30 8308 H 773.638 1.79464 -0.623925 0
M  V30 8309 H 771.788 3.79101 0.849378 0
M  V30 8310 H 773.46 4.28292 -1.71358 0
M  V30 8311 H 771.703 4.0013 -1.67566 0
M  V30 8312 H 772.374 5.44449 -0.909883 0
M  V30 8313 H 774.85 4.13087 0.499818 0
M  V30 8314 H 773.726 5.37804 1.09808 0
M  V30 8315 H 773.987 3.92057 2.04314 0
M  V30 8316 N 773.046 0.209999 1.56195 0
M  V30 8317 C 773.956 -0.716459 2.23392 0
M  V30 8318 C 774.972 -1.22291 1.23778 0
M  V30 8319 O 776.148 -1.26694 1.56558 0
M  V30 8320 C 773.213 -1.91261 2.89172 0
M  V30 8321 C 772.274 -1.44927 4.04097 0
M  V30 8322 C 771.507 -2.5884 4.66731 0
M  V30 8323 O 771.73 -3.76693 4.2832 0
M  V30 8324 O 770.664 -2.30701 5.55932 0
M  V30 8325 H 774.49 -0.174089 3.03201 0
M  V30 8326 H 772.075 -0.0199505 1.49387 0
M  V30 8327 H 773.957 -2.6114 3.30733 0
M  V30 8328 H 772.632 -2.4433 2.12331 0
M  V30 8329 H 771.539 -0.718839 3.67129 0
M  V30 8330 H 772.872 -0.965084 4.82646 0
M  V30 8331 N 774.524 -1.57472 -0.0634922 0
M  V30 8332 C 775.456 -2.00999 -1.10145 0
M  V30 8333 C 776.469 -0.917219 -1.34503 0
M  V30 8334 O 777.658 -1.19501 -1.32596 0
M  V30 8335 C 774.758 -2.34089 -2.45063 0
M  V30 8336 C 773.931 -3.65317 -2.40546 0
M  V30 8337 C 772.99 -3.85982 -3.57637 0
M  V30 8338 O 772.016 -4.5747 -3.38689 0
M  V30 8339 N 773.218 -3.28971 -4.78287 0
M  V30 8340 H 775.983 -2.90656 -0.730714 0
M  V30 8341 H 773.544 -1.59926 -0.252017 0
M  V30 8342 H 775.536 -2.4508 -3.22053 0
M  V30 8343 H 774.106 -1.50279 -2.74107 0
M  V30 8344 H 773.326 -3.65003 -1.48885 0
M  V30 8345 H 774.614 -4.51468 -2.34636 0
M  V30 8346 H 774.012 -2.70962 -4.96584 0
M  V30 8347 H 772.569 -3.45398 -5.5276 0
M  V30 8348 N 776.003 0.335068 -1.53997 0
M  V30 8349 C 776.953 1.4127 -1.7896 0
M  V30 8350 C 777.937 1.474 -0.64513 0
M  V30 8351 O 779.129 1.52127 -0.904785 0
M  V30 8352 C 776.258 2.78292 -2.01018 0
M  V30 8353 C 775.344 2.7652 -3.21555 0
M  V30 8354 N 775.735 2.44374 -4.42849 0
M  V30 8355 C 774.033 3.0766 -3.22895 0
M  V30 8356 C 774.734 2.51049 -5.24737 0
M  V30 8357 N 773.71 2.8702 -4.6165 0
M  V30 8358 H 777.512 1.15327 -2.70327 0
M  V30 8359 H 775.026 0.543483 -1.53036 0
M  V30 8360 H 777.023 3.55949 -2.17039 0
M  V30 8361 H 775.683 3.05175 -1.10898 0
M  V30 8362 H 776.694 2.17422 -4.70051 0
M  V30 8363 H 773.371 3.3966 -2.42771 0
M  V30 8364 H 774.761 2.29283 -6.31569 0
M  V30 8365 N 777.481 1.45874 0.596531 0
M  V30 8366 C 778.413 1.51408 1.7207 0
M  V30 8367 C 779.426 0.403738 1.57714 0
M  V30 8368 O 780.615 0.671384 1.65393 0
M  V30 8369 C 777.715 1.3652 3.10186 0
M  V30 8370 C 776.888 2.61428 3.50677 0
M  V30 8371 C 775.947 2.40937 4.67799 0
M  V30 8372 O 774.973 3.14602 4.74357 0
M  V30 8373 N 776.175 1.4621 5.61785 0
M  V30 8374 H 778.94 2.48333 1.67782 0
M  V30 8375 H 776.501 1.41755 0.782129 0
M  V30 8376 H 778.493 1.20606 3.86311 0
M  V30 8377 H 777.063 0.478302 3.08919 0
M  V30 8378 H 776.283 2.92381 2.644 0
M  V30 8379 H 777.571 3.44432 3.74491 0
M  V30 8380 H 776.969 0.854382 5.59211 0
M  V30 8381 H 775.526 1.36264 6.37397 0
M  V30 8382 N 778.959 -0.83999 1.33349 0
M  V30 8383 C 779.907 -1.97113 1.23488 0
M  V30 8384 C 780.901 -1.68849 0.136503 0
M  V30 8385 O 782.107 -1.77476 0.300389 0
M  V30 8386 H 778.482 -0.647049 0.383185 0
M  V30 8387 H 780.453 -2.02554 2.19122 0
M  V30 8388 C 779.202 -3.33314 0.989815 0
M  V30 8389 H 778.525 -3.556 1.82726 0
M  V30 8390 H 779.965 -4.12963 0.961123 0
M  V30 8391 C 778.424 -3.35496 -0.307272 0
M  V30 8392 O 778.954 -3.79589 -1.31434 0
M  V30 8393 N 777.16 -2.88669 -0.334414 0
M  V30 8394 H 776.707 -2.5298 0.485659 0
M  V30 8395 H 776.665 -2.90512 -1.20209 0
M  V30 8396 N 780.437 -1.16799 -1.0581 0
M  V30 8397 C 781.848 -0.95945 -1.60161 0
M  V30 8398 C 782.199 0.49543 -1.89842 0
M  V30 8399 O 781.324 1.36957 -1.67546 0
M  V30 8400 C 781.919 -1.73527 -2.90987 0
M  V30 8401 C 780.478 -1.57158 -3.42021 0
M  V30 8402 C 779.625 -1.74089 -2.15843 0
M  V30 8403 H 782.576 -1.31598 -0.886992 0
M  V30 8404 H 782.597 -1.21397 -3.60615 0
M  V30 8405 H 782.109 -2.79411 -2.69353 0
M  V30 8406 H 780.21 -0.537361 -3.68705 0
M  V30 8407 H 780.323 -2.35858 -4.17022 0
M  V30 8408 H 778.687 -1.16874 -2.26302 0
M  V30 8409 H 779.47 -2.81371 -1.96686 0
M  V30 8410 N 781.915 1.24427 -0.967243 0
M  V30 8411 C 783.192 1.87831 -0.545776 0
M  V30 8412 C 783.572 1.87126 0.977099 0
M  V30 8413 O 782.92 1.34357 1.84826 0
M  V30 8414 C 783.13 3.29967 -1.13679 0
M  V30 8415 C 784.478 4.06654 -1.22139 0
M  V30 8416 O 785.502 3.39136 -1.08926 0
M  V30 8417 O 784.361 5.27455 -1.43017 0
M  V30 8418 H 781.455 0.806745 -0.181912 0
M  V30 8419 H 784.001 1.32403 -1.06148 0
M  V30 8420 H 782.773 3.24977 -2.17958 0
M  V30 8421 H 782.396 3.92969 -0.605093 0
M  V30 8422 N 783.393 0.737304 1.3929 0
M  V30 8423 C 784.641 0.285691 2.00071 0
M  V30 8424 C 784.962 -1.13169 1.58801 0
M  V30 8425 O 784.232 -1.77104 0.837308 0
M  V30 8426 H 782.812 0.102638 0.739915 0
M  V30 8427 H 785.474 0.947775 1.70303 0
M  V30 8428 H 784.57 0.335906 3.10287 0
M  V30 8429 N 784.871 -1.49948 0.485112 0
M  V30 8430 C 786.119 -2.01996 -0.0648775 0
M  V30 8431 C 786.44 -1.36819 -1.38945 0
M  V30 8432 O 785.71 -0.518163 -1.88923 0
M  V30 8433 H 784.29 -0.746513 -0.0269662 0
M  V30 8434 H 786.952 -1.84136 0.638733 0
M  V30 8435 H 786.048 -3.11418 -0.20617 0
M  V30 8436 N 786.349 -0.21828 -1.56081 0
M  V30 8437 C 787.595 0.408181 -1.99262 0
M  V30 8438 C 787.95 1.57618 -1.10337 0
M  V30 8439 O 787.243 1.90991 -0.15263 0
M  V30 8440 C 787.437 0.894782 -3.46018 0
M  V30 8441 C 787.266 -0.224528 -4.49139 0
M  V30 8442 C 786.036 -0.689843 -5.00569 0
M  V30 8443 C 788.234 -1.04165 -5.03641 0
M  V30 8444 N 786.216 -1.78455 -5.8739 0
M  V30 8445 C 787.587 -1.98529 -5.87355 0
M  V30 8446 C 789.642 -1.08146 -4.86013 0
M  V30 8447 C 788.345 -2.96549 -6.55325 0
M  V30 8448 C 790.371 -2.04982 -5.5474 0
M  V30 8449 C 789.733 -2.98086 -6.38219 0
M  V30 8450 H 785.832 0.116127 -0.77333 0
M  V30 8451 H 788.416 -0.3293 -1.91895 0
M  V30 8452 H 786.587 1.60163 -3.53839 0
M  V30 8453 H 788.319 1.49379 -3.76122 0
M  V30 8454 H 785.074 -0.279021 -4.72777 0
M  V30 8455 H 785.498 -2.33381 -6.35502 0
M  V30 8456 H 790.14 -0.375581 -4.21129 0
M  V30 8457 H 787.858 -3.68101 -7.19394 0
M  V30 8458 H 791.444 -2.08732 -5.43067 0
M  V30 8459 H 790.324 -3.71794 -6.90463 0
M  V30 8460 N 787.827 1.57504 0.0551401 0
M  V30 8461 C 789.075 1.87684 0.74962 0
M  V30 8462 C 789.396 0.812547 1.77264 0
M  V30 8463 O 788.666 -0.15694 1.9527 0
M  V30 8464 H 787.246 0.6926 0.279846 0
M  V30 8465 H 789.908 1.94881 0.0272745 0
M  V30 8466 H 789.004 2.85734 1.25548 0
M  V30 8467 N 789.305 -0.326896 1.54172 0
M  V30 8468 C 790.215 -1.42525 1.86343 0
M  V30 8469 C 791.231 -1.56764 0.75505 0
M  V30 8470 O 792.407 -1.71924 1.04901 0
M  V30 8471 C 789.472 -2.77286 2.08119 0
M  V30 8472 C 788.533 -2.7225 3.31931 0
M  V30 8473 C 787.766 -4.00584 3.52659 0
M  V30 8474 O 787.989 -4.98686 2.76891 0
M  V30 8475 O 786.923 -4.04045 4.46129 0
M  V30 8476 H 790.749 -1.18249 2.79734 0
M  V30 8477 H 788.334 -0.520614 1.40036 0
M  V30 8478 H 790.216 -3.57065 2.23791 0
M  V30 8479 H 788.891 -3.01459 1.17917 0
M  V30 8480 H 787.798 -1.91033 3.21647 0
M  V30 8481 H 789.131 -2.53032 4.2218 0
M  V30 8482 N 790.784 -1.46188 -0.588786 0
M  V30 8483 C 792.061 -1.41659 -1.34878 0
M  V30 8484 C 792.441 -0.0968913 -2.10878 0
M  V30 8485 O 791.789 0.921468 -2.09096 0
M  V30 8486 C 791.999 -2.6424 -2.27988 0
M  V30 8487 C 793.347 -3.1013 -2.90008 0
M  V30 8488 O 794.371 -2.64745 -2.38303 0
M  V30 8489 O 793.23 -3.88944 -3.83908 0
M  V30 8490 H 790.324 -0.563058 -0.605718 0
M  V30 8491 H 792.87 -1.58346 -0.610309 0
M  V30 8492 H 791.642 -3.51853 -1.71217 0
M  V30 8493 H 791.265 -2.49982 -3.09184 0
M  V30 8494 N 792.262 0.832906 -1.33792 0
M  V30 8495 C 793.502 1.60217 -1.26925 0
M  V30 8496 C 793.866 1.91323 0.161146 0
M  V30 8497 O 795.067 2.66461 0.353864 0
M  V30 8498 C 793.338 2.87314 -2.12568 0
M  V30 8499 S 794.897 3.77939 -2.22952 0
M  V30 8500 H 791.715 0.549273 -0.451464 0
M  V30 8501 H 794.317 0.984648 -1.68893 0
M  V30 8502 H 793.021 2.62444 -3.15518 0
M  V30 8503 H 792.552 3.5407 -1.71459 0
M  V30 8504 H 794.567 4.76188 -1.39496 0
M  V30 8505 N 793.74 1.17359 1.05189 0
M  V30 8506 C 795.156 0.920861 1.30355 0
M  V30 8507 C 795.356 -0.419993 1.97074 0
M  V30 8508 O 794.412 -1.15696 2.24434 0
M  V30 8509 C 795.725 2.07818 2.1733 0
M  V30 8510 C 797.273 2.1152 2.30712 0
M  V30 8511 C 797.748 3.26637 3.21048 0
M  V30 8512 N 799.239 3.26426 3.28634 0
M  V30 8513 C 799.974 4.12141 3.98657 0
M  V30 8514 N 799.47 5.07966 4.71107 0
M  V30 8515 N 801.263 4.00091 3.94821 0
M  V30 8516 H 793.414 2.03666 0.602821 0
M  V30 8517 H 795.677 0.889294 0.328421 0
M  V30 8518 H 795.383 3.04727 1.75597 0
M  V30 8519 H 795.257 2.02922 3.17966 0
M  V30 8520 H 797.644 1.15196 2.71687 0
M  V30 8521 H 797.725 2.20477 1.29706 0
M  V30 8522 H 797.369 4.23227 2.80788 0
M  V30 8523 H 797.299 3.14917 4.2206 0
M  V30 8524 H 799.79 2.57045 2.77013 0
M  V30 8525 H 800.103 5.69766 5.22099 0
M  V30 8526 H 798.448 5.11936 4.7005 0
M  V30 8527 H 801.639 3.24523 3.37346 0
M  V30 8528 H 801.812 4.6711 4.49123 0
M  V30 8529 N 795.218 -1.23913 0.973828 0
M  V30 8530 C 796.443 -1.96735 0.656511 0
M  V30 8531 C 796.868 -1.71682 -0.768571 0
M  V30 8532 O 796.226 -0.984267 -1.52256 0
M  V30 8533 C 796.274 -3.48004 0.944735 0
M  V30 8534 O 795.378 -4.12387 0.0333357 0
M  V30 8535 H 794.719 -0.616119 0.247575 0
M  V30 8536 H 797.249 -1.57525 1.30564 0
M  V30 8537 H 797.259 -3.98424 0.87876 0
M  V30 8538 H 795.934 -3.65567 1.98328 0
M  V30 8539 H 794.511 -3.72585 0.153157 0
M  V30 8540 N 796.696 -0.74468 -1.38897 0
M  V30 8541 C 797.926 -0.306982 -2.04307 0
M  V30 8542 C 798.334 1.06652 -1.56275 0
M  V30 8543 O 797.677 1.68699 -0.72708 0
M  V30 8544 C 797.739 -0.241186 -3.5869 0
M  V30 8545 C 797.403 -1.55476 -4.2974 0
M  V30 8546 C 798.4 -2.50229 -4.55721 0
M  V30 8547 C 796.085 -1.82173 -4.68101 0
M  V30 8548 C 798.079 -3.69905 -5.19085 0
M  V30 8549 C 795.766 -3.02125 -5.31191 0
M  V30 8550 C 796.764 -3.95812 -5.56616 0
M  V30 8551 O 796.452 -5.13656 -6.18395 0
M  V30 8552 H 796.184 -0.130416 -0.663301 0
M  V30 8553 H 798.738 -1.01192 -1.78744 0
M  V30 8554 H 796.968 0.519925 -3.83189 0
M  V30 8555 H 798.657 0.165806 -4.05561 0
M  V30 8556 H 799.423 -2.30877 -4.26522 0
M  V30 8557 H 795.302 -1.10091 -4.47662 0
M  V30 8558 H 798.846 -4.43047 -5.38846 0
M  V30 8559 H 794.743 -3.21374 -5.59811 0
M  V30 8560 H 795.511 -5.14119 -6.36886 0
M  V30 8561 N 798.174 1.49689 -0.493057 0
M  V30 8562 C 799.084 2.32746 0.294358 0
M  V30 8563 C 800.1 1.44117 0.975003 0
M  V30 8564 O 801.276 1.77149 0.958138 0
M  V30 8565 C 798.341 3.19358 1.34949 0
M  V30 8566 C 797.402 4.2383 0.683122 0
M  V30 8567 C 796.635 5.06303 1.68798 0
M  V30 8568 O 796.858 4.90172 2.91698 0
M  V30 8569 O 795.792 5.88826 1.24768 0
M  V30 8570 H 799.618 3.01247 -0.385254 0
M  V30 8571 H 797.203 1.47216 -0.254519 0
M  V30 8572 H 799.085 3.73037 1.96014 0
M  V30 8573 H 797.76 2.53561 2.01217 0
M  V30 8574 H 796.667 3.74086 0.0329351 0
M  V30 8575 H 798 4.9216 0.0630192 0
M  V30 8576 N 799.652 0.226554 1.55963 0
M  V30 8577 C 800.929 -0.453058 1.90281 0
M  V30 8578 C 801.309 -1.77377 1.14458 0
M  V30 8579 O 800.657 -2.27067 0.255496 0
M  V30 8580 C 800.867 -0.641108 3.43061 0
M  V30 8581 C 802.215 -0.946265 4.13921 0
M  V30 8582 O 803.239 -0.727713 3.48687 0
M  V30 8583 O 802.098 -1.36131 5.29274 0
M  V30 8584 H 799.192 -0.240242 0.791336 0
M  V30 8585 H 801.738 0.26911 1.67553 0
M  V30 8586 H 800.51 0.290283 3.90222 0
M  V30 8587 H 800.133 -1.41458 3.71585 0
M  V30 8588 N 801.13 -1.57531 -0.0467866 0
M  V30 8589 C 802.541 -1.76945 -0.595603 0
M  V30 8590 C 802.892 -0.855354 -1.76573 0
M  V30 8591 O 802.017 -0.045668 -2.16352 0
M  V30 8592 C 802.612 -3.20881 -1.08725 0
M  V30 8593 C 801.171 -3.41553 -1.58172 0
M  V30 8594 C 800.318 -2.72533 -0.511968 0
M  V30 8595 H 803.269 -1.57682 0.179436 0
M  V30 8596 H 803.29 -3.26419 -1.95528 0
M  V30 8597 H 802.802 -3.87385 -0.235398 0
M  V30 8598 H 800.903 -2.80199 -2.456 0
M  V30 8599 H 801.016 -4.50104 -1.64143 0
M  V30 8600 H 799.38 -2.35797 -0.962899 0
M  V30 8601 H 800.163 -3.41709 0.330117 0
M  V30 8602 N 802.608 0.318715 -1.54344 0
M  V30 8603 C 803.571 1.37545 -1.83342 0
M  V30 8604 C 804.571 1.445 -0.705444 0
M  V30 8605 O 805.761 1.44443 -0.973752 0
M  V30 8606 C 802.893 2.76225 -1.99781 0
M  V30 8607 H 804.086 1.13084 -2.77762 0
M  V30 8608 H 801.639 0.554457 -1.46135 0
M  V30 8609 H 802.374 3.05934 -1.07588 0
M  V30 8610 H 802.159 2.7257 -2.81865 0
M  V30 8611 H 803.649 3.52664 -2.23647 0
M  V30 8612 N 804.086 1.46499 0.581025 0
M  V30 8613 C 805.316 1.55244 1.36319 0
M  V30 8614 C 805.724 0.193059 1.88212 0
M  V30 8615 O 805.067 -0.820109 1.64377 0
M  V30 8616 C 805.129 2.498 2.58535 0
M  V30 8617 C 804.793 3.96007 2.28096 0
M  V30 8618 C 805.79 4.85171 1.8683 0
M  V30 8619 C 803.475 4.41152 2.40189 0
M  V30 8620 C 805.469 6.17493 1.58053 0
M  V30 8621 C 803.156 5.73508 2.11024 0
M  V30 8622 C 804.154 6.615 1.70021 0
M  V30 8623 O 803.842 7.914 1.41215 0
M  V30 8624 H 803.574 0.527513 0.422736 0
M  V30 8625 H 806.128 1.92623 0.713139 0
M  V30 8626 H 804.358 2.07443 3.2635 0
M  V30 8627 H 806.047 2.48934 3.20604 0
M  V30 8628 H 806.813 4.51548 1.77001 0
M  V30 8629 H 802.692 3.72886 2.71066 0
M  V30 8630 H 806.236 6.86131 1.25974 0
M  V30 8631 H 802.133 6.06679 2.20478 0
M  V30 8632 H 802.901 8.03681 1.55046 0
M  V30 8633 N 805.565 -0.825799 1.34232 0
M  V30 8634 C 806.528 -1.91808 1.25468 0
M  V30 8635 C 807.528 -1.59893 0.170567 0
M  V30 8636 O 808.718 -1.68986 0.422996 0
M  V30 8637 C 805.85 -3.27786 0.93644 0
M  V30 8638 H 807.043 -2.01003 2.22571 0
M  V30 8639 H 804.596 -1.01944 1.18479 0
M  V30 8640 H 805.331 -3.24285 -0.0315408 0
M  V30 8641 H 805.116 -3.52333 1.72057 0
M  V30 8642 H 806.606 -4.07782 0.900214 0
M  V30 8643 N 807.043 -1.17915 -1.04565 0
M  V30 8644 C 808.291 -0.969505 -1.77327 0
M  V30 8645 C 808.612 0.502569 -1.88412 0
M  V30 8646 O 807.882 1.36467 -1.40547 0
M  V30 8647 H 806.462 -0.355723 -0.656864 0
M  V30 8648 H 809.124 -1.48506 -1.26223 0
M  V30 8649 H 808.22 -1.40324 -2.78775 0
M  V30 8650 N 808.521 1.23394 -0.980386 0
M  V30 8651 C 809.468 2.24859 -0.520298 0
M  V30 8652 C 810.438 1.60144 0.440821 0
M  V30 8653 O 811.623 1.87593 0.348369 0
M  V30 8654 C 808.763 3.44675 0.171145 0
M  V30 8655 C 807.876 4.23947 -0.830233 0
M  V30 8656 C 807.011 5.31079 -0.113597 0
M  V30 8657 C 806.05 6.02058 -1.10419 0
M  V30 8658 N 805.187 7.00862 -0.416709 0
M  V30 8659 H 810.027 2.63579 -1.39032 0
M  V30 8660 H 807.564 1.29556 -0.696682 0
M  V30 8661 H 809.522 4.13024 0.588838 0
M  V30 8662 H 808.152 3.06755 1.00504 0
M  V30 8663 H 807.204 3.55016 -1.36631 0
M  V30 8664 H 808.516 4.72945 -1.58508 0
M  V30 8665 H 807.67 6.05622 0.36146 0
M  V30 8666 H 806.409 4.83022 0.673854 0
M  V30 8667 H 805.414 5.26307 -1.59 0
M  V30 8668 H 806.639 6.52203 -1.8923 0
M  V30 8669 H 804.585 6.55057 0.351535 0
M  V30 8670 H 804.502 7.47804 -1.11021 0
M  V30 8671 H 805.77 7.79492 0.0359606 0
M  V30 8672 N 809.999 0.752036 1.385 0
M  V30 8673 C 811.247 0.306895 1.99756 0
M  V30 8674 C 811.568 -1.11478 1.59992 0
M  V30 8675 O 810.838 -1.76206 0.856045 0
M  V30 8676 H 809.418 0.11048 0.738785 0
M  V30 8677 H 812.08 0.965785 1.69289 0
M  V30 8678 H 811.176 0.368797 3.09913 0
M  V30 8679 N 811.477 -1.49425 0.500989 0
M  V30 8680 C 812.44 -2.27646 -0.266416 0
M  V30 8681 C 813.44 -1.3366 -0.893961 0
M  V30 8682 O 814.63 -1.5682 -0.758495 0
M  V30 8683 C 811.762 -3.11618 -1.38227 0
M  V30 8684 H 812.955 -2.96945 0.419973 0
M  V30 8685 H 810.508 -1.5419 0.255954 0
M  V30 8686 H 811.243 -2.46885 -2.10281 0
M  V30 8687 H 811.028 -3.80721 -0.937746 0
M  V30 8688 H 812.518 -3.70698 -1.92283 0
M  V30 8689 N 812.955 -0.234822 -1.55841 0
M  V30 8690 C 814.18 0.400741 -2.03492 0
M  V30 8691 C 814.605 1.51618 -1.11327 0
M  V30 8692 O 813.963 1.81002 -0.103922 0
M  V30 8693 C 814.011 0.897184 -3.49261 0
M  V30 8694 O 813.115 2.00764 -3.60233 0
M  V30 8695 H 812.456 0.0890023 -0.658008 0
M  V30 8696 H 814.986 -0.357345 -2.01455 0
M  V30 8697 H 814.996 1.20356 -3.89844 0
M  V30 8698 H 813.671 0.0808639 -4.15821 0
M  V30 8699 H 812.248 1.70689 -3.31541 0
M  V30 8700 N 814.433 1.57553 0.0384317 0
M  V30 8701 C 815.661 1.93093 0.743141 0
M  V30 8702 C 816.076 0.833787 1.69391 0
M  V30 8703 O 815.433 -0.190532 1.81503 0
M  V30 8704 C 815.484 3.28533 1.50826 0
M  V30 8705 O 815.205 4.34032 0.595665 0
M  V30 8706 C 816.706 3.78297 2.31098 0
M  V30 8707 H 813.926 0.637486 0.20941 0
M  V30 8708 H 816.47 2.045 -0.00125154 0
M  V30 8709 H 814.625 3.18552 2.20462 0
M  V30 8710 H 815.039 5.12155 1.13124 0
M  V30 8711 H 816.513 4.75602 2.80191 0
M  V30 8712 H 816.99 3.09008 3.12107 0
M  V30 8713 H 817.596 3.91331 1.66555 0
M  V30 8714 N 815.911 -0.310526 1.54511 0
M  V30 8715 C 817.322 -0.884142 1.64438 0
M  V30 8716 C 817.673 -1.88425 0.546855 0
M  V30 8717 O 816.798 -2.14049 -0.31811 0
M  V30 8718 C 817.393 -1.6104 2.9808 0
M  V30 8719 C 815.952 -2.13255 3.1016 0
M  V30 8720 C 815.099 -0.96213 2.60074 0
M  V30 8721 H 818.05 -0.0877666 1.58457 0
M  V30 8722 H 818.071 -2.47541 2.8897 0
M  V30 8723 H 817.583 -0.882255 3.77939 0
M  V30 8724 H 815.684 -2.89145 2.35002 0
M  V30 8725 H 815.797 -2.37361 4.16169 0
M  V30 8726 H 814.161 -1.34501 2.16291 0
M  V30 8727 H 814.944 -0.248098 3.42402 0
M  V30 8728 N 817.389 -1.46805 -0.573248 0
M  V30 8729 C 818.614 -1.56433 -1.36175 0
M  V30 8730 C 819.039 -0.209336 -1.86932 0
M  V30 8731 O 818.397 0.812146 -1.62092 0
M  V30 8732 C 818.445 -2.58055 -2.51873 0
M  V30 8733 O 817.549 -2.12214 -3.53609 0
M  V30 8734 H 816.89 -0.526068 -0.405153 0
M  V30 8735 H 819.42 -1.92456 -0.694405 0
M  V30 8736 H 819.43 -2.77966 -2.98662 0
M  V30 8737 H 818.105 -3.56448 -2.14284 0
M  V30 8738 H 816.682 -2.02333 -3.13234 0
M  V30 8739 N 818.867 0.818669 -1.34668 0
M  V30 8740 C 819.799 1.93754 -1.22442 0
M  V30 8741 C 820.812 1.62103 -0.150501 0
M  V30 8742 O 822.001 1.73898 -0.402728 0
M  V30 8743 C 819.101 3.27806 -0.860031 0
M  V30 8744 C 818.274 3.8745 -2.02981 0
M  V30 8745 C 817.333 4.99887 -1.64314 0
M  V30 8746 O 816.359 5.17957 -2.36029 0
M  V30 8747 N 817.561 5.77795 -0.55976 0
M  V30 8748 H 820.326 2.04773 -2.18833 0
M  V30 8749 H 817.887 0.995472 -1.27679 0
M  V30 8750 H 819.879 4.00478 -0.583068 0
M  V30 8751 H 818.449 3.12597 0.0138253 0
M  V30 8752 H 817.669 3.07119 -2.47127 0
M  V30 8753 H 818.957 4.2403 -2.81204 0
M  V30 8754 H 818.355 5.65688 0.0363329 0
M  V30 8755 H 816.912 6.50899 -0.342541 0
M  V30 8756 N 820.346 1.18468 1.03938 0
M  V30 8757 C 821.574 1.00576 1.80809 0
M  V30 8758 C 821.989 -0.445786 1.83462 0
M  V30 8759 O 821.346 -1.30964 1.27101 0
M  V30 8760 C 821.397 1.55491 3.26351 0
M  V30 8761 O 821.118 2.94963 3.23926 0
M  V30 8762 C 822.619 1.42236 4.19862 0
M  V30 8763 H 819.839 0.35508 0.56935 0
M  V30 8764 H 822.383 1.57046 1.30984 0
M  V30 8765 H 820.538 1.03195 3.73403 0
M  V30 8766 H 820.952 3.20598 4.15111 0
M  V30 8767 H 822.426 1.85455 5.19914 0
M  V30 8768 H 822.903 0.371267 4.37628 0
M  V30 8769 H 823.509 1.9361 3.78675 0
M  V30 8770 N 821.824 -1.22873 0.986916 0
M  V30 8771 C 822.787 -2.2281 0.537442 0
M  V30 8772 C 823.787 -1.56331 -0.37646 0
M  V30 8773 O 824.977 -1.73376 -0.169247 0
M  V30 8774 C 822.109 -3.40195 -0.219082 0
M  V30 8775 H 823.302 -2.64089 1.42116 0
M  V30 8776 H 820.855 -1.35819 0.773488 0
M  V30 8777 H 821.59 -3.04381 -1.11905 0
M  V30 8778 H 821.375 -3.89657 0.437026 0
M  V30 8779 H 822.865 -4.14326 -0.521926 0
M  V30 8780 N 823.302 -0.75937 -1.38099 0
M  V30 8781 C 824.548 -0.327559 -2.00745 0
M  V30 8782 C 824.903 1.08042 -1.592 0
M  V30 8783 O 824.196 1.7306 -0.822236 0
M  V30 8784 C 824.39 -0.394999 -3.55211 0
M  V30 8785 C 824.219 -1.80798 -4.11755 0
M  V30 8786 C 822.989 -2.42585 -4.43262 0
M  V30 8787 C 825.187 -2.76556 -4.33614 0
M  V30 8788 N 823.169 -3.75784 -4.85448 0
M  V30 8789 C 824.54 -3.94532 -4.78273 0
M  V30 8790 C 826.595 -2.74004 -4.15724 0
M  V30 8791 C 825.298 -5.10322 -5.06916 0
M  V30 8792 C 827.324 -3.88957 -4.45496 0
M  V30 8793 C 826.686 -5.05672 -4.90383 0
M  V30 8794 H 822.785 -0.166644 -0.764038 0
M  V30 8795 H 825.369 -0.99056 -1.67619 0
M  V30 8796 H 823.54 0.237761 -3.87672 0
M  V30 8797 H 825.272 0.0576828 -4.04659 0
M  V30 8798 H 822.027 -1.94302 -4.31907 0
M  V30 8799 H 822.451 -4.44234 -5.10867 0
M  V30 8800 H 827.093 -1.84948 -3.80203 0
M  V30 8801 H 824.811 -5.99988 -5.41332 0
M  V30 8802 H 828.397 -3.88308 -4.33253 0
M  V30 8803 H 827.277 -5.93146 -5.1298 0
M  V30 8804 N 824.78 1.49157 -0.508906 0
M  V30 8805 C 825.743 2.27784 0.25434 0
M  V30 8806 C 826.743 1.34132 0.88686 0
M  V30 8807 O 827.933 1.5722 0.750168 0
M  V30 8808 C 825.065 3.12347 1.36573 0
M  V30 8809 H 826.258 2.96718 -0.435714 0
M  V30 8810 H 823.811 1.54052 -0.264128 0
M  V30 8811 H 824.546 2.47997 2.08969 0
M  V30 8812 H 824.331 3.81213 0.917543 0
M  V30 8813 H 825.821 3.71712 1.90315 0
M  V30 8814 N 826.258 0.243083 1.55714 0
M  V30 8815 C 827.188 -0.652336 2.24203 0
M  V30 8816 C 828.169 -1.1843 1.221 0
M  V30 8817 O 829.354 -1.22435 1.50743 0
M  V30 8818 C 826.484 -1.85111 2.93856 0
M  V30 8819 C 825.438 -1.45208 4.02615 0
M  V30 8820 C 824.764 -2.73137 4.59674 0
M  V30 8821 C 826.064 -0.625988 5.18535 0
M  V30 8822 H 827.758 -0.0812504 2.9929 0
M  V30 8823 H 825.304 -0.0376388 1.43951 0
M  V30 8824 H 827.257 -2.48314 3.40468 0
M  V30 8825 H 825.981 -2.44751 2.16251 0
M  V30 8826 H 824.64 -0.843406 3.56766 0
M  V30 8827 H 824.288 -3.30967 3.78774 0
M  V30 8828 H 823.988 -2.47163 5.33089 0
M  V30 8829 H 825.512 -3.37245 5.09017 0
M  V30 8830 H 826.926 -1.16223 5.61396 0
M  V30 8831 H 825.323 -0.462465 5.98315 0
M  V30 8832 H 826.393 0.362652 4.83542 0
M  V30 8833 N 827.736 -1.57571 -0.0300757 0
M  V30 8834 C 828.669 -2.01874 -1.06406 0
M  V30 8835 C 829.647 -0.902901 -1.35227 0
M  V30 8836 O 830.831 -1.16865 -1.47901 0
M  V30 8837 C 827.958 -2.39093 -2.39901 0
M  V30 8838 C 827.004 -3.61108 -2.26943 0
M  V30 8839 S 827.837 -5.10287 -1.62382 0
M  V30 8840 C 828.993 -5.50747 -2.97369 0
M  V30 8841 H 829.226 -2.89261 -0.686703 0
M  V30 8842 H 826.759 -1.52523 -0.240017 0
M  V30 8843 H 828.717 -2.61207 -3.16672 0
M  V30 8844 H 827.378 -1.52159 -2.74784 0
M  V30 8845 H 826.571 -3.84803 -3.25489 0
M  V30 8846 H 826.173 -3.3884 -1.58314 0
M  V30 8847 H 828.465 -5.51369 -3.93698 0
M  V30 8848 H 829.408 -6.51071 -2.78409 0
M  V30 8849 H 829.816 -4.7825 -2.99895 0
M  V30 8850 N 829.214 0.302327 -1.54673 0
M  V30 8851 C 830.177 1.35592 -1.8479 0
M  V30 8852 C 831.177 1.43743 -0.72073 0
M  V30 8853 O 832.367 1.43402 -0.989017 0
M  V30 8854 C 829.499 2.74091 -2.02699 0
M  V30 8855 H 830.692 1.10132 -2.78946 0
M  V30 8856 H 828.245 0.538926 -1.46715 0
M  V30 8857 H 828.98 3.04775 -1.10826 0
M  V30 8858 H 828.765 2.69565 -2.8474 0
M  V30 8859 H 830.255 3.50272 -2.27374 0
M  V30 8860 N 830.692 1.47107 0.565454 0
M  V30 8861 C 831.622 1.61846 1.68309 0
M  V30 8862 C 832.603 0.468159 1.63531 0
M  V30 8863 O 833.788 0.696504 1.8128 0
M  V30 8864 C 830.918 1.62474 3.06952 0
M  V30 8865 C 829.872 2.76649 3.26572 0
M  V30 8866 C 829.198 2.62345 4.65917 0
M  V30 8867 C 830.498 4.18319 3.12741 0
M  V30 8868 H 832.192 2.55407 1.5623 0
M  V30 8869 H 829.738 1.22916 0.750179 0
M  V30 8870 H 831.691 1.71378 3.84977 0
M  V30 8871 H 830.415 0.654692 3.19971 0
M  V30 8872 H 829.074 2.67242 2.50952 0
M  V30 8873 H 828.722 1.63386 4.75725 0
M  V30 8874 H 828.422 3.38936 4.79996 0
M  V30 8875 H 829.946 2.73165 5.46089 0
M  V30 8876 H 831.36 4.28745 3.80593 0
M  V30 8877 H 829.757 4.95632 3.38333 0
M  V30 8878 H 830.827 4.37263 2.09592 0
M  V30 8879 N 832.17 -0.811516 1.35101 0
M  V30 8880 C 833.419 -1.56343 1.27435 0
M  V30 8881 C 833.732 -1.95019 -0.150696 0
M  V30 8882 O 834.938 -2.6924 -0.349586 0
M  V30 8883 C 833.394 -2.82124 2.23459 0
M  V30 8884 C 833.002 -2.50706 3.71283 0
M  V30 8885 C 834.746 -3.60137 2.24726 0
M  V30 8886 C 832.653 -3.72748 4.59143 0
M  V30 8887 H 831.583 -0.58682 0.473453 0
M  V30 8888 H 834.234 -0.892465 1.60335 0
M  V30 8889 H 832.616 -3.50905 1.83525 0
M  V30 8890 H 833.79 -1.89962 4.19823 0
M  V30 8891 H 832.105 -1.85947 3.72576 0
M  V30 8892 H 834.702 -4.50775 2.87587 0
M  V30 8893 H 835.045 -3.97101 1.24965 0
M  V30 8894 H 835.578 -2.98311 2.63164 0
M  V30 8895 H 832.317 -3.40896 5.59884 0
M  V30 8896 H 831.837 -4.32735 4.15332 0
M  V30 8897 H 833.516 -4.40033 4.74321 0
M  V30 8898 N 833.648 -1.19017 -1.03309 0
M  V30 8899 C 834.611 -0.926076 -2.09658 0
M  V30 8900 C 835.611 0.0917077 -1.60538 0
M  V30 8901 O 836.801 -0.142574 -1.73616 0
M  V30 8902 C 833.933 -0.390958 -3.38651 0
M  V30 8903 H 835.126 -1.86923 -2.3452 0
M  V30 8904 H 832.679 -1.00325 -1.19853 0
M  V30 8905 H 833.414 0.558446 -3.19456 0
M  V30 8906 H 833.199 -1.12474 -3.75622 0
M  V30 8907 H 834.689 -0.225131 -4.16993 0
M  V30 8908 N 835.127 1.22348 -0.993418 0
M  V30 8909 C 836.375 1.90733 -0.668246 0
M  V30 8910 C 836.696 1.77732 0.802261 0
M  V30 8911 O 835.966 1.16486 1.57505 0
M  V30 8912 H 834.546 0.705966 -0.244174 0
M  V30 8913 H 837.208 1.48691 -1.26004 0
M  V30 8914 H 836.304 2.97883 -0.931239 0
M  V30 8915 N 836.605 0.766683 1.37694 0
M  V30 8916 C 837.853 0.328065 1.9942 0
M  V30 8917 C 838.174 -1.09775 1.61166 0
M  V30 8918 O 837.444 -1.75288 0.874686 0
M  V30 8919 H 836.024 0.11831 0.737572 0
M  V30 8920 H 838.686 0.983686 1.68255 0
M  V30 8921 H 837.782 0.401647 3.09505 0
M  V30 8922 N 838.083 -1.48885 0.516809 0
M  V30 8923 C 839.499 -1.58651 0.173788 0
M  V30 8924 C 839.699 -1.52033 -1.32243 0
M  V30 8925 O 838.755 -1.40251 -2.09967 0
M  V30 8926 C 840.068 -2.90816 0.764628 0
M  V30 8927 C 841.616 -3.04316 0.732164 0
M  V30 8928 C 842.091 -4.39123 1.30135 0
M  V30 8929 N 843.582 -4.45656 1.26273 0
M  V30 8930 C 844.317 -5.48446 1.67317 0
M  V30 8931 N 843.813 -6.58258 2.16028 0
M  V30 8932 N 845.606 -5.39251 1.58635 0
M  V30 8933 H 837.757 -1.5143 1.48939 0
M  V30 8934 H 840.02 -0.718243 0.618733 0
M  V30 8935 H 839.726 -3.01275 1.81456 0
M  V30 8936 H 839.6 -3.76473 0.234113 0
M  V30 8937 H 841.987 -2.93478 -0.308975 0
M  V30 8938 H 842.068 -2.20303 1.3 0
M  V30 8939 H 841.712 -4.50714 2.34135 0
M  V30 8940 H 841.642 -5.21801 0.709305 0
M  V30 8941 H 844.133 -3.66879 0.906006 0
M  V30 8942 H 844.446 -7.32811 2.45374 0
M  V30 8943 H 842.791 -6.59257 2.20013 0
M  V30 8944 H 845.982 -4.52354 1.20387 0
M  V30 8945 H 846.155 -6.19229 1.90944 0
M  V30 8946 N 839.561 -0.251338 -1.55583 0
M  V30 8947 C 840.524 0.63305 -2.20284 0
M  V30 8948 C 841.524 1.09941 -1.17344 0
M  V30 8949 O 842.714 1.00341 -1.42399 0
M  V30 8950 C 839.846 1.8706 -2.84993 0
M  V30 8951 H 841.039 0.0684846 -2.99822 0
M  V30 8952 H 838.592 -0.00181653 -1.563 0
M  V30 8953 H 839.327 2.47629 -2.09405 0
M  V30 8954 H 839.112 1.54436 -3.60405 0
M  V30 8955 H 840.602 2.50004 -3.34496 0
M  V30 8956 N 841.039 1.57585 0.0217189 0
M  V30 8957 C 841.949 2.10444 1.03684 0
M  V30 8958 C 842.965 1.04472 1.39146 0
M  V30 8959 O 844.141 1.36249 1.48317 0
M  V30 8960 C 841.206 2.5794 2.31664 0
M  V30 8961 C 840.267 3.78425 2.02714 0
M  V30 8962 C 839.5 4.23646 3.24592 0
M  V30 8963 O 839.723 3.6834 4.35525 0
M  V30 8964 O 838.657 5.16013 3.09862 0
M  V30 8965 H 842.483 2.97354 0.617584 0
M  V30 8966 H 840.068 1.47473 0.239174 0
M  V30 8967 H 841.95 2.88785 3.06889 0
M  V30 8968 H 840.625 1.74138 2.7287 0
M  V30 8969 H 839.532 3.52587 1.25033 0
M  V30 8970 H 840.865 4.63234 1.66359 0
M  V30 8971 N 842.517 -0.29412 1.54831 0
M  V30 8972 C 843.742 -1.05156 1.78765 0
M  V30 8973 C 844.167 -1.79916 0.548809 0
M  V30 8974 O 843.525 -1.74243 -0.500909 0
M  V30 8975 C 843.573 -2.00242 2.99893 0
M  V30 8976 O 842.677 -3.08662 2.73499 0
M  V30 8977 H 842.018 -0.301737 0.591482 0
M  V30 8978 H 844.548 -0.329449 2.0193 0
M  V30 8979 H 844.558 -2.42583 3.28051 0
M  V30 8980 H 843.233 -1.45235 3.89717 0
M  V30 8981 H 841.81 -2.70786 2.56377 0
M  V30 8982 N 843.995 -1.47404 -0.557645 0
M  V30 8983 C 844.905 -1.62491 -1.69216 0
M  V30 8984 C 845.921 -0.507764 -1.66426 0
M  V30 8985 O 847.097 -0.775241 -1.85882 0
M  V30 8986 C 844.162 -1.63511 -3.05721 0
M  V30 8987 C 843.223 -2.86648 -3.1958 0
M  V30 8988 C 842.456 -2.87609 -4.49574 0
M  V30 8989 O 842.679 -1.97799 -5.35006 0
M  V30 8990 O 841.613 -3.79465 -4.67215 0
M  V30 8991 H 845.439 -2.58487 -1.59431 0
M  V30 8992 H 843.024 -1.30485 -0.7276 0
M  V30 8993 H 844.906 -1.66863 -3.86956 0
M  V30 8994 H 843.581 -0.706812 -3.15889 0
M  V30 8995 H 842.488 -2.8884 -2.37744 0
M  V30 8996 H 843.821 -3.7877 -3.14316 0
M  V30 8997 N 845.473 0.80434 -1.35529 0
M  V30 8998 C 846.436 1.89788 -1.28503 0
M  V30 8999 C 847.436 1.59601 -0.195983 0
M  V30 9000 O 848.626 1.68292 -0.449827 0
M  V30 9001 C 845.758 3.26255 -0.98847 0
M  V30 9002 H 846.951 1.97436 -2.25741 0
M  V30 9003 H 844.504 1.00046 -1.20086 0
M  V30 9004 H 845.239 3.24294 -0.0200541 0
M  V30 9005 H 845.024 3.49551 -1.77641 0
M  V30 9006 H 846.514 4.06298 -0.964975 0
M  V30 9007 N 846.951 1.19563 1.02676 0
M  V30 9008 C 847.914 0.937182 2.09164 0
M  V30 9009 C 848.914 -0.0831927 1.60585 0
M  V30 9010 O 850.104 0.15178 1.73538 0
M  V30 9011 C 847.236 0.408912 3.38439 0
M  V30 9012 H 848.429 1.88164 2.33526 0
M  V30 9013 H 845.982 1.00959 1.19319 0
M  V30 9014 H 846.717 -0.541497 3.19747 0
M  V30 9015 H 846.502 1.14464 3.7502 0
M  V30 9016 H 847.992 0.247242 4.16867 0
M  V30 9017 N 848.429 -1.21819 0.999893 0
M  V30 9018 C 849.845 -1.42847 0.711824 0
M  V30 9019 C 850.045 -1.88391 -0.714928 0
M  V30 9020 O 849.101 -2.0422 -1.48494 0
M  V30 9021 C 850.414 -2.46417 1.72334 0
M  V30 9022 C 851.962 -2.60207 1.73958 0
M  V30 9023 C 852.437 -3.67005 2.73992 0
M  V30 9024 N 853.928 -3.7447 2.72628 0
M  V30 9025 C 854.663 -4.56718 3.46693 0
M  V30 9026 N 854.159 -5.42904 4.3038 0
M  V30 9027 N 855.952 -4.51094 3.35366 0
M  V30 9028 H 848.103 -0.905656 1.92124 0
M  V30 9029 H 850.366 -0.459893 0.828977 0
M  V30 9030 H 850.072 -2.19914 2.74465 0
M  V30 9031 H 849.946 -3.45137 1.52186 0
M  V30 9032 H 852.333 -2.8605 0.725217 0
M  V30 9033 H 852.414 -1.61739 1.98177 0
M  V30 9034 H 852.058 -3.41908 3.75582 0
M  V30 9035 H 851.988 -4.65058 2.4704 0
M  V30 9036 H 854.479 -3.12895 2.11909 0
M  V30 9037 H 854.792 -6.02704 4.83702 0
M  V30 9038 H 853.137 -5.42463 4.34464 0
M  V30 9039 H 856.328 -3.82791 2.69423 0
M  V30 9040 H 856.501 -5.1496 3.93344 0
M  V30 9041 N 849.908 -0.773975 -1.37286 0
M  V30 9042 C 851.324 -0.45386 -1.53011 0
M  V30 9043 C 851.524 1.03018 -1.73175 0
M  V30 9044 O 850.58 1.81597 -1.75438 0
M  V30 9045 C 851.893 -1.27087 -2.72524 0
M  V30 9046 C 853.441 -1.26299 -2.86387 0
M  V30 9047 C 853.916 -2.0634 -4.08886 0
M  V30 9048 N 855.407 -2.03706 -4.16003 0
M  V30 9049 C 856.142 -2.62418 -5.09828 0
M  V30 9050 N 855.638 -3.29926 -6.09197 0
M  V30 9051 N 857.431 -2.52236 -5.02328 0
M  V30 9052 H 849.582 -1.73551 -1.22449 0
M  V30 9053 H 851.845 -0.736874 -0.596423 0
M  V30 9054 H 851.551 -2.32263 -2.64096 0
M  V30 9055 H 851.425 -0.90157 -3.66267 0
M  V30 9056 H 853.812 -0.219213 -2.94285 0
M  V30 9057 H 853.893 -1.67195 -1.93596 0
M  V30 9058 H 853.537 -3.10741 -4.01749 0
M  V30 9059 H 853.467 -1.62825 -5.00795 0
M  V30 9060 H 855.958 -1.54559 -3.44848 0
M  V30 9061 H 856.271 -3.72095 -6.77322 0
M  V30 9062 H 854.616 -3.34026 -6.09469 0
M  V30 9063 H 857.807 -1.99108 -4.23643 0
M  V30 9064 H 857.98 -2.98286 -5.75265 0
M  V30 9065 N 851.386 1.48609 -0.524698 0
M  V30 9066 C 852.634 2.02097 0.0112991 0
M  V30 9067 C 852.955 1.40455 1.35268 0
M  V30 9068 O 852.225 0.56807 1.87483 0
M  V30 9069 H 850.805 0.746966 0.00716426 0
M  V30 9070 H 853.467 1.82378 -0.687329 0
M  V30 9071 H 852.563 3.11855 0.123531 0
M  V30 9072 N 852.864 0.259585 1.55447 0
M  V30 9073 C 854.11 -0.362143 1.9954 0
M  V30 9074 C 854.443 -1.5666 1.14767 0
M  V30 9075 O 853.718 -1.93319 0.214025 0
M  V30 9076 C 854.001 -0.759588 3.51998 0
M  V30 9077 C 853.854 0.451134 4.47532 0
M  V30 9078 C 855.173 -1.60186 4.09913 0
M  V30 9079 H 852.292 -0.130157 0.725416 0
M  V30 9080 H 854.934 0.363431 1.86492 0
M  V30 9081 H 853.084 -1.3778 3.63248 0
M  V30 9082 H 854.756 1.08965 4.48246 0
M  V30 9083 H 852.999 1.092 4.19831 0
M  V30 9084 H 853.67 0.129518 5.51848 0
M  V30 9085 H 856.146 -1.0799 4.01842 0
M  V30 9086 H 855.022 -1.84879 5.16828 0
M  V30 9087 H 855.283 -2.57787 3.59163 0
M  V30 9088 N 854.342 -1.57594 -0.0133615 0
M  V30 9089 C 855.274 -2.04402 -1.03695 0
M  V30 9090 C 856.287 -0.959546 -1.31516 0
M  V30 9091 O 857.476 -1.23659 -1.28727 0
M  V30 9092 C 854.576 -2.41766 -2.37491 0
M  V30 9093 C 853.749 -3.72785 -2.28802 0
M  V30 9094 C 852.808 -3.97165 -3.45176 0
M  V30 9095 O 851.834 -4.68013 -3.23963 0
M  V30 9096 N 853.036 -3.44021 -4.67579 0
M  V30 9097 H 855.801 -2.92833 -0.637874 0
M  V30 9098 H 853.362 -1.60647 -0.20101 0
M  V30 9099 H 855.354 -2.55201 -3.14093 0
M  V30 9100 H 853.924 -1.58924 -2.69188 0
M  V30 9101 H 853.144 -3.69555 -1.37197 0
M  V30 9102 H 854.432 -4.58704 -2.20154 0
M  V30 9103 H 853.83 -2.86623 -4.87713 0
M  V30 9104 H 852.387 -3.62808 -5.41492 0
M  V30 9105 N 855.82 0.285905 -1.54985 0
M  V30 9106 C 857.05 1.03626 -1.78732 0
M  V30 9107 C 857.458 1.80896 -0.554377 0
M  V30 9108 O 856.801 1.77161 0.48578 0
M  V30 9109 C 856.863 2.05185 -2.95193 0
M  V30 9110 C 856.527 1.46973 -4.32722 0
M  V30 9111 C 857.524 0.891986 -5.12191 0
M  V30 9112 C 855.209 1.50081 -4.79355 0
M  V30 9113 C 857.203 0.353078 -6.36421 0
M  V30 9114 C 854.89 0.958037 -6.03544 0
M  V30 9115 C 855.888 0.385157 -6.81913 0
M  V30 9116 O 855.576 -0.149341 -8.03761 0
M  V30 9117 H 855.308 0.312416 -0.599477 0
M  V30 9118 H 857.862 0.326067 -2.02795 0
M  V30 9119 H 856.092 2.79928 -2.66791 0
M  V30 9120 H 857.781 2.66244 -3.0638 0
M  V30 9121 H 858.547 0.860762 -4.77301 0
M  V30 9122 H 854.426 1.9361 -4.18373 0
M  V30 9123 H 857.97 -0.0947181 -6.97536 0
M  V30 9124 H 853.867 0.986458 -6.37918 0
M  V30 9125 H 854.635 -0.0374719 -8.18491 0
M  V30 9126 N 857.298 1.47698 0.54982 0
M  V30 9127 C 858.228 1.63622 1.66583 0
M  V30 9128 C 859.209 0.485477 1.63025 0
M  V30 9129 O 860.394 0.715692 1.80531 0
M  V30 9130 C 857.524 1.65721 3.05211 0
M  V30 9131 C 856.478 2.80097 3.2362 0
M  V30 9132 C 855.804 2.67272 4.63109 0
M  V30 9133 C 857.104 4.21612 3.08286 0
M  V30 9134 H 858.798 2.57049 1.53512 0
M  V30 9135 H 856.344 1.23705 0.737099 0
M  V30 9136 H 858.297 1.75451 3.83138 0
M  V30 9137 H 857.021 0.688593 3.19258 0
M  V30 9138 H 855.68 2.69889 2.48104 0
M  V30 9139 H 855.328 1.68422 4.73965 0
M  V30 9140 H 855.028 3.44008 4.76374 0
M  V30 9141 H 856.552 2.78942 5.43161 0
M  V30 9142 H 857.966 4.32758 3.76024 0
M  V30 9143 H 856.363 4.99193 3.33057 0
M  V30 9144 H 857.433 4.39462 2.04942 0
M  V30 9145 N 858.776 -0.797141 1.35954 0
M  V30 9146 C 860.022 -1.55698 1.29946 0
M  V30 9147 C 860.355 -1.93808 -0.123259 0
M  V30 9148 O 859.63 -1.62102 -1.07486 0
M  V30 9149 C 859.913 -2.83926 2.2149 0
M  V30 9150 C 859.766 -2.52232 3.72423 0
M  V30 9151 C 861.085 -3.85698 2.11955 0
M  V30 9152 H 858.204 -0.56488 0.47337 0
M  V30 9153 H 860.846 -0.916421 1.66438 0
M  V30 9154 H 858.996 -3.38588 1.905 0
M  V30 9155 H 860.668 -2.0368 4.13899 0
M  V30 9156 H 858.911 -1.85286 3.92239 0
M  V30 9157 H 859.582 -3.43782 4.31877 0
M  V30 9158 H 862.058 -3.40462 2.39218 0
M  V30 9159 H 860.934 -4.73182 2.78191 0
M  V30 9160 H 861.195 -4.28083 1.10442 0
M  V30 9161 N 860.254 -1.20106 -1.0204 0
M  V30 9162 C 861.164 -0.962051 -2.13967 0
M  V30 9163 C 862.18 0.0808053 -1.73812 0
M  V30 9164 O 863.356 -0.105774 -2.01122 0
M  V30 9165 C 860.421 -0.513108 -3.42882 0
M  V30 9166 C 859.482 -1.62636 -3.97301 0
M  V30 9167 C 858.715 -1.19875 -5.20063 0
M  V30 9168 O 858.938 -0.0658423 -5.70362 0
M  V30 9169 O 857.872 -2.00467 -5.67536 0
M  V30 9170 H 861.698 -1.8991 -2.36998 0
M  V30 9171 H 859.283 -0.984608 -1.12365 0
M  V30 9172 H 861.165 -0.271797 -4.20523 0
M  V30 9173 H 859.84 0.395402 -3.21276 0
M  V30 9174 H 858.747 -1.92192 -3.20957 0
M  V30 9175 H 860.08 -2.51174 -4.23288 0
M  V30 9176 N 861.732 1.21287 -1.00634 0
M  V30 9177 C 862.96 1.94385 -0.708678 0
M  V30 9178 C 863.375 1.7416 0.728957 0
M  V30 9179 O 862.732 1.04906 1.49335 0
M  V30 9180 C 862.783 3.46755 -1.02193 0
M  V30 9181 O 862.504 3.6631 -2.40309 0
M  V30 9182 C 864.005 4.37014 -0.743867 0
M  V30 9183 H 861.225 0.618136 -0.261052 0
M  V30 9184 H 863.769 1.54067 -1.34475 0
M  V30 9185 H 861.924 3.8499 -0.431441 0
M  V30 9186 H 862.338 4.60393 -2.51274 0
M  V30 9187 H 863.812 5.42621 -1.01321 0
M  V30 9188 H 864.289 4.38017 0.322084 0
M  V30 9189 H 864.895 4.04426 -1.31603 0
M  V30 9190 N 863.21 0.781244 1.36873 0
M  V30 9191 C 864.142 0.132075 2.28819 0
M  V30 9192 C 865.155 -0.653925 1.49089 0
M  V30 9193 O 866.344 -0.490453 1.7163 0
M  V30 9194 C 863.444 -0.836297 3.28419 0
M  V30 9195 C 862.617 -0.102097 4.37281 0
M  V30 9196 C 861.676 -0.985217 5.16894 0
M  V30 9197 O 860.702 -0.445478 5.67454 0
M  V30 9198 N 861.904 -2.31043 5.3254 0
M  V30 9199 H 864.669 0.921838 2.85171 0
M  V30 9200 H 862.23 0.634427 1.48952 0
M  V30 9201 H 864.222 -1.43074 3.78566 0
M  V30 9202 H 862.792 -1.52698 2.72767 0
M  V30 9203 H 862.012 0.67335 3.88407 0
M  V30 9204 H 863.3 0.404862 5.07187 0
M  V30 9205 H 862.698 -2.77318 4.93063 0
M  V30 9206 H 861.255 -2.85472 5.8596 0
M  V30 9207 N 864.689 -1.48329 0.532571 0
M  V30 9208 C 866.105 -1.58458 0.190605 0
M  V30 9209 C 866.305 -1.53427 -1.30623 0
M  V30 9210 O 865.361 -1.4247 -2.08467 0
M  V30 9211 C 866.674 -2.89989 0.79543 0
M  V30 9212 C 868.222 -3.03523 0.7644 0
M  V30 9213 C 868.697 -4.37718 1.34785 0
M  V30 9214 N 870.188 -4.44292 1.30993 0
M  V30 9215 C 870.923 -5.4664 1.73124 0
M  V30 9216 N 870.419 -6.5593 2.22997 0
M  V30 9217 N 872.212 -5.37538 1.64346 0
M  V30 9218 H 864.363 -1.49842 1.50537 0
M  V30 9219 H 866.626 -0.71164 0.626316 0
M  V30 9220 H 866.332 -2.99333 1.84642 0
M  V30 9221 H 866.206 -3.76203 0.27403 0
M  V30 9222 H 868.593 -2.93789 -0.277831 0
M  V30 9223 H 868.674 -2.18912 1.3233 0
M  V30 9224 H 868.318 -4.48206 2.38902 0
M  V30 9225 H 868.248 -5.21019 0.764609 0
M  V30 9226 H 870.739 -3.65897 0.944868 0
M  V30 9227 H 871.052 -7.30167 2.53133 0
M  V30 9228 H 869.397 -6.56886 2.26992 0
M  V30 9229 H 872.588 -4.51052 1.25178 0
M  V30 9230 H 872.761 -6.17169 1.97501 0
M  V30 9231 N 866.167 -0.267825 -1.55308 0
M  V30 9232 C 867.578 0.231344 -1.85261 0
M  V30 9233 C 867.929 1.56006 -1.18982 0
M  V30 9234 O 867.054 2.1111 -0.475554 0
M  V30 9235 C 867.649 0.426537 -3.36104 0
M  V30 9236 C 866.208 0.869945 -3.66209 0
M  V30 9237 C 865.355 -0.0409522 -2.7727 0
M  V30 9238 H 868.306 -0.489821 -1.50952 0
M  V30 9239 H 868.327 1.26616 -3.58816 0
M  V30 9240 H 867.839 -0.540678 -3.84315 0
M  V30 9241 H 865.94 1.84889 -3.23492 0
M  V30 9242 H 866.053 0.712316 -4.73775 0
M  V30 9243 H 864.417 0.474097 -2.50249 0
M  V30 9244 H 865.2 -1.00392 -3.28293 0
M  V30 9245 N 867.645 1.57599 0.00500368 0
M  V30 9246 C 868.922 1.81561 0.727654 0
M  V30 9247 C 869.302 0.871604 1.92266 0
M  V30 9248 O 868.65 -0.0808232 2.28357 0
M  V30 9249 C 868.86 3.29922 1.13809 0
M  V30 9250 C 870.208 3.95531 1.54403 0
M  V30 9251 O 871.232 3.34215 1.23202 0
M  V30 9252 O 870.091 5.03535 2.12402 0
M  V30 9253 H 867.185 0.747462 0.353878 0
M  V30 9254 H 869.731 1.69688 -0.0200667 0
M  V30 9255 H 868.503 3.90253 0.286078 0
M  V30 9256 H 868.126 3.46775 1.94507 0
M  V30 9257 N 869.123 -0.277682 1.55134 0
M  V30 9258 C 870.371 -1.00791 1.75173 0
M  V30 9259 C 870.692 -1.86987 0.553266 0
M  V30 9260 O 869.962 -1.91079 -0.43195 0
M  V30 9261 H 868.542 -0.375129 0.645978 0
M  V30 9262 H 871.204 -0.303041 1.9253 0
M  V30 9263 H 870.3 -1.64756 2.6507 0
M  V30 9264 N 870.601 -1.47988 -0.541979 0
M  V30 9265 C 871.849 -1.55086 -1.29587 0
M  V30 9266 C 872.17 -0.221304 -1.9374 0
M  V30 9267 O 871.44 0.756128 -1.80719 0
M  V30 9268 H 870.02 -0.571307 -0.481266 0
M  V30 9269 H 872.682 -1.8438 -0.631675 0
M  V30 9270 H 871.778 -2.32556 -2.08144 0
M  V30 9271 N 872.079 0.78992 -1.36375 0
M  V30 9272 C 873.325 1.54939 -1.31778 0
M  V30 9273 C 873.68 1.92128 0.102327 0
M  V30 9274 O 872.973 1.59823 1.05675 0
M  V30 9275 C 873.167 2.83698 -2.17371 0
M  V30 9276 C 872.996 2.59093 -3.67561 0
M  V30 9277 C 871.766 2.5414 -4.36739 0
M  V30 9278 C 873.964 2.28325 -4.60838 0
M  V30 9279 N 871.946 2.21427 -5.72576 0
M  V30 9280 C 873.317 2.05596 -5.84919 0
M  V30 9281 C 875.372 2.14328 -4.49409 0
M  V30 9282 C 874.075 1.70285 -6.98853 0
M  V30 9283 C 876.101 1.80415 -5.63209 0
M  V30 9284 C 875.463 1.58533 -6.86328 0
M  V30 9285 H 871.562 0.568011 -0.537483 0
M  V30 9286 H 874.146 0.923183 -1.71422 0
M  V30 9287 H 872.317 3.44187 -1.79972 0
M  V30 9288 H 874.049 3.49425 -2.04167 0
M  V30 9289 H 870.804 2.69368 -3.89535 0
M  V30 9290 H 871.228 2.07818 -6.44314 0
M  V30 9291 H 875.87 2.29935 -3.54809 0
M  V30 9292 H 873.588 1.53415 -7.93404 0
M  V30 9293 H 877.174 1.70269 -5.56327 0
M  V30 9294 H 876.054 1.32677 -7.72895 0
M  V30 9295 N 873.557 1.20646 1.01402 0
M  V30 9296 C 874.834 0.927176 1.72229 0
M  V30 9297 C 875.214 -0.563382 2.03443 0
M  V30 9298 O 874.562 -1.52576 1.70096 0
M  V30 9299 C 874.772 1.80285 2.98828 0
M  V30 9300 C 876.12 2.04624 3.72041 0
M  V30 9301 O 877.144 1.77559 3.0879 0
M  V30 9302 O 876.003 2.50347 4.85787 0
M  V30 9303 H 873.097 0.346891 0.75073 0
M  V30 9304 H 875.643 1.31532 1.07227 0
M  V30 9305 H 874.415 2.81204 2.72102 0
M  V30 9306 H 874.038 1.41495 3.71571 0
M  V30 9307 N 875.035 -1.20752 1.01276 0
M  V30 9308 C 875.945 -2.27079 0.589277 0
M  V30 9309 C 876.961 -1.6999 -0.371389 0
M  V30 9310 O 878.137 -2.00044 -0.233294 0
M  V30 9311 C 875.202 -3.4663 -0.0696715 0
M  V30 9312 C 874.263 -4.18962 0.936454 0
M  V30 9313 C 873.496 -5.32806 0.308856 0
M  V30 9314 O 873.719 -5.63376 -0.8924 0
M  V30 9315 O 872.653 -5.93131 1.02367 0
M  V30 9316 H 876.479 -2.6551 1.47438 0
M  V30 9317 H 874.064 -1.27297 0.782045 0
M  V30 9318 H 875.946 -4.19119 -0.437873 0
M  V30 9319 H 874.621 -3.10082 -0.929029 0
M  V30 9320 H 873.528 -3.48661 1.35595 0
M  V30 9321 H 874.861 -4.59441 1.76565 0
M  V30 9322 N 876.513 -0.788492 -1.36457 0
M  V30 9323 C 877.924 -0.423742 -1.81828 0
M  V30 9324 C 878.275 1.05221 -1.65599 0
M  V30 9325 O 877.4 1.8163 -1.17641 0
M  V30 9326 C 877.995 -0.762354 -3.30112 0
M  V30 9327 C 876.554 -0.450445 -3.73695 0
M  V30 9328 C 875.701 -0.997482 -2.58738 0
M  V30 9329 H 878.652 -0.981718 -1.24692 0
M  V30 9330 H 878.673 -0.0531136 -3.80463 0
M  V30 9331 H 878.185 -1.83662 -3.41891 0
M  V30 9332 H 876.286 0.615829 -3.67476 0
M  V30 9333 H 876.399 -0.970408 -4.69169 0
M  V30 9334 H 874.763 -0.420761 -2.51201 0
M  V30 9335 H 875.546 -2.07749 -2.73304 0
M  V30 9336 N 877.991 1.48044 -0.54043 0
M  V30 9337 C 879.221 2.06595 -0.0144943 0
M  V30 9338 C 879.629 1.39593 1.27713 0
M  V30 9339 O 878.972 0.480794 1.77297 0
M  V30 9340 C 879.034 3.5849 0.269316 0
M  V30 9341 C 878.698 4.47429 -0.930372 0
M  V30 9342 C 879.695 4.8657 -1.83155 0
M  V30 9343 C 877.38 4.89185 -1.14032 0
M  V30 9344 C 879.374 5.66246 -2.92649 0
M  V30 9345 C 877.061 5.6863 -2.23838 0
M  V30 9346 C 878.059 6.07069 -3.12979 0
M  V30 9347 O 877.747 6.84917 -4.20884 0
M  V30 9348 H 877.479 0.675086 -0.0351467 0
M  V30 9349 H 880.033 1.91275 -0.74853 0
M  V30 9350 H 878.263 3.71961 1.05745 0
M  V30 9351 H 879.952 3.99124 0.738595 0
M  V30 9352 H 880.718 4.54924 -1.68134 0
M  V30 9353 H 876.597 4.58742 -0.455717 0
M  V30 9354 H 880.141 5.96169 -3.62254 0
M  V30 9355 H 876.038 5.99688 -2.38839 0
M  V30 9356 H 876.806 7.03287 -4.18723 0
M  V30 9357 N 879.47 0.276058 1.55163 0
M  V30 9358 C 880.7 -0.343274 2.03728 0
M  V30 9359 C 881.108 -1.49945 1.15383 0
M  V30 9360 O 880.451 -1.82942 0.166696 0
M  V30 9361 C 880.513 -0.885683 3.48419 0
M  V30 9362 C 880.177 0.141976 4.56779 0
M  V30 9363 C 881.174 0.961816 5.10926 0
M  V30 9364 C 878.859 0.276487 5.01538 0
M  V30 9365 C 880.853 1.90234 6.0835 0
M  V30 9366 C 878.54 1.22049 5.98788 0
M  V30 9367 C 879.538 2.03192 6.52075 0
M  V30 9368 O 879.226 2.95996 7.47423 0
M  V30 9369 H 878.958 -0.0822192 0.670981 0
M  V30 9370 H 881.512 0.406199 2.01343 0
M  V30 9371 H 879.742 -1.68524 3.48047 0
M  V30 9372 H 881.431 -1.4182 3.80318 0
M  V30 9373 H 882.197 0.868637 4.77158 0
M  V30 9374 H 878.076 -0.345095 4.59707 0
M  V30 9375 H 881.62 2.5361 6.49867 0
M  V30 9376 H 877.517 1.31448 6.31974 0
M  V30 9377 H 878.285 2.90688 7.65142 0
M  V30 9378 N 880.948 -1.576 0.00335426 0
M  V30 9379 C 882.176 -1.94996 -0.691685 0
M  V30 9380 C 882.591 -0.878405 -1.67121 0
M  V30 9381 O 881.948 0.142343 -1.81944 0
M  V30 9382 C 881.999 -3.32416 -1.42063 0
M  V30 9383 O 881.72 -4.35458 -0.48038 0
M  V30 9384 C 883.221 -3.84291 -2.20987 0
M  V30 9385 H 880.441 -0.642814 -0.192434 0
M  V30 9386 H 882.985 -2.04425 0.0554706 0
M  V30 9387 H 881.14 -3.24285 -2.11939 0
M  V30 9388 H 881.554 -5.14975 -0.995054 0
M  V30 9389 H 883.028 -4.82863 -2.67483 0
M  V30 9390 H 883.505 -3.17174 -3.03805 0
M  V30 9391 H 884.111 -3.95609 -1.56121 0
M  V30 9392 N 882.426 0.269451 -1.5528 0
M  V30 9393 C 883.674 0.998604 -1.75705 0
M  V30 9394 C 883.995 1.86691 -0.563175 0
M  V30 9395 O 883.265 1.91305 0.421811 0
M  V30 9396 H 881.845 0.371698 -0.647958 0
M  V30 9397 H 884.507 0.292826 -1.92688 0
M  V30 9398 H 883.603 1.63348 -2.6594 0
M  V30 9399 N 883.904 1.48273 0.534124 0
M  V30 9400 C 885.132 1.59734 1.31501 0
M  V30 9401 C 885.547 0.256047 1.87056 0
M  V30 9402 O 884.904 -0.754086 1.66192 0
M  V30 9403 C 884.955 2.64072 2.46877 0
M  V30 9404 O 884.676 3.92995 1.93613 0
M  V30 9405 C 886.177 2.85933 3.38758 0
M  V30 9406 H 883.397 0.538703 0.40005 0
M  V30 9407 H 885.941 1.9407 0.644762 0
M  V30 9408 H 884.096 2.32606 3.09795 0
M  V30 9409 H 884.51 4.50203 2.69106 0
M  V30 9410 H 885.984 3.62749 4.16073 0
M  V30 9411 H 886.461 1.94603 3.93734 0
M  V30 9412 H 887.067 3.18687 2.81636 0
M  V30 9413 N 885.382 -0.782676 1.36792 0
M  V30 9414 C 886.63 -1.53778 1.31136 0
M  V30 9415 C 886.951 -1.94706 -0.107014 0
M  V30 9416 O 886.221 -1.65465 -1.04872 0
M  V30 9417 H 884.801 -0.570328 0.482426 0
M  V30 9418 H 887.463 -0.932181 1.71162 0
M  V30 9419 H 886.559 -2.44224 1.94321 0
M  V30 9420 N 886.86 -1.21182 -1.00761 0
M  V30 9421 C 888.107 -1.02746 -1.74498 0
M  V30 9422 C 888.435 0.439344 -1.89473 0
M  V30 9423 O 887.69 1.34232 -1.42409 0
M  V30 9424 C 887.989 -1.6667 -3.16158 0
M  V30 9425 C 887.655 -3.16515 -3.21137 0
M  V30 9426 C 886.317 -3.57405 -3.22203 0
M  V30 9427 C 888.669 -4.12495 -3.18587 0
M  V30 9428 C 885.997 -4.92786 -3.18401 0
M  V30 9429 C 888.349 -5.47833 -3.16326 0
M  V30 9430 C 887.013 -5.88124 -3.157 0
M  V30 9431 H 886.283 -0.375974 -0.638533 0
M  V30 9432 H 888.93 -1.50736 -1.18114 0
M  V30 9433 H 887.235 -1.10966 -3.75758 0
M  V30 9434 H 888.932 -1.49911 -3.71924 0
M  V30 9435 H 885.522 -2.83947 -3.21048 0
M  V30 9436 H 889.706 -3.81932 -3.16925 0
M  V30 9437 H 884.962 -5.23253 -3.16253 0
M  V30 9438 H 889.136 -6.21942 -3.13306 0
M  V30 9439 H 886.763 -6.92995 -3.12508 0
M  V30 9440 N 888.338 1.20213 -1.01915 0
M  V30 9441 C 889.749 1.7136 -0.741131 0
M  V30 9442 C 890.1 1.81705 0.740107 0
M  V30 9443 O 889.225 1.48139 1.57746 0
M  V30 9444 C 889.82 3.11231 -1.33869 0
M  V30 9445 C 888.379 3.59677 -1.10948 0
M  V30 9446 C 887.526 2.36809 -1.4428 0
M  V30 9447 H 890.477 1.05191 -1.1883 0
M  V30 9448 H 890.498 3.7342 -0.730585 0
M  V30 9449 H 890.01 3.03669 -2.41675 0
M  V30 9450 H 888.111 3.72568 -0.0492052 0
M  V30 9451 H 888.224 4.44351 -1.79134 0
M  V30 9452 H 886.588 2.39674 -0.861881 0
M  V30 9453 H 887.371 2.31886 -2.53148 0
M  V30 9454 N 889.816 0.795718 1.36037 0
M  V30 9455 C 891.064 0.370291 1.98679 0
M  V30 9456 C 891.385 -1.06332 1.63458 0
M  V30 9457 O 890.655 -1.73394 0.911671 0
M  V30 9458 H 889.235 0.133928 0.734896 0
M  V30 9459 H 891.897 1.01915 1.6613 0
M  V30 9460 H 890.993 0.467207 3.08583 0
M  V30 9461 N 891.294 -1.47756 0.548274 0
M  V30 9462 C 892.571 -1.9555 -0.0443603 0
M  V30 9463 C 892.951 -1.49079 -1.49462 0
M  V30 9464 O 892.299 -0.725538 -2.16675 0
M  V30 9465 C 892.509 -3.48879 0.0918425 0
M  V30 9466 C 893.857 -4.2456 -0.0580879 0
M  V30 9467 O 894.881 -3.56195 0.018946 0
M  V30 9468 O 893.74 -5.46048 -0.222261 0
M  V30 9469 H 890.834 -0.824106 -0.0691235 0
M  V30 9470 H 893.38 -1.58196 0.614166 0
M  V30 9471 H 892.152 -3.7548 1.10137 0
M  V30 9472 H 891.775 -3.92975 -0.604704 0
M  V30 9473 N 892.772 -0.284283 -1.55015 0
M  V30 9474 C 894.019 0.329864 -1.99795 0
M  V30 9475 C 894.347 1.55171 -1.1727 0
M  V30 9476 O 893.602 1.94312 -0.232667 0
M  V30 9477 C 893.901 0.747219 -3.49502 0
M  V30 9478 C 893.567 -0.37101 -4.49371 0
M  V30 9479 C 892.229 -0.678034 -4.76399 0
M  V30 9480 C 894.581 -1.12406 -5.08935 0
M  V30 9481 C 891.909 -1.74152 -5.60257 0
M  V30 9482 C 894.261 -2.17734 -5.93948 0
M  V30 9483 C 892.925 -2.49061 -6.19294 0
M  V30 9484 H 892.195 0.120706 -0.731103 0
M  V30 9485 H 894.842 -0.399904 -1.87278 0
M  V30 9486 H 893.147 1.55681 -3.59542 0
M  V30 9487 H 894.844 1.2333 -3.81563 0
M  V30 9488 H 891.434 -0.1216 -4.28427 0
M  V30 9489 H 895.618 -0.900119 -4.88069 0
M  V30 9490 H 890.874 -1.98915 -5.78137 0
M  V30 9491 H 895.048 -2.76553 -6.39133 0
M  V30 9492 H 892.675 -3.31602 -6.84064 0
M  V30 9493 N 894.251 1.57596 -0.0117121 0
M  V30 9494 C 895.481 1.95077 0.680346 0
M  V30 9495 C 895.889 0.885793 1.67184 0
M  V30 9496 O 895.232 -0.142723 1.83145 0
M  V30 9497 C 895.294 3.28611 1.45791 0
M  V30 9498 C 894.958 4.52682 0.626706 0
M  V30 9499 C 895.955 5.19821 -0.0906223 0
M  V30 9500 C 893.64 4.99064 0.569229 0
M  V30 9501 C 895.634 6.31649 -0.854289 0
M  V30 9502 C 893.321 6.10779 -0.198155 0
M  V30 9503 C 894.319 6.76929 -0.908636 0
M  V30 9504 O 894.007 7.86501 -1.66348 0
M  V30 9505 H 893.739 0.647663 0.193672 0
M  V30 9506 H 896.293 2.05305 -0.0624969 0
M  V30 9507 H 894.523 3.14824 2.2455 0
M  V30 9508 H 896.212 3.51119 2.03642 0
M  V30 9509 H 896.978 4.84968 -0.0554421 0
M  V30 9510 H 892.857 4.47393 1.11178 0
M  V30 9511 H 896.401 6.83215 -1.40937 0
M  V30 9512 H 892.298 6.45072 -0.235114 0
M  V30 9513 H 893.066 8.03078 -1.58141 0
M  V30 9514 N 895.729 -0.261212 1.5542 0
M  V30 9515 C 896.659 -1.32712 1.92119 0
M  V30 9516 C 897.64 -1.50934 0.784406 0
M  V30 9517 O 898.825 -1.63781 1.04352 0
M  V30 9518 C 895.955 -2.68453 2.20341 0
M  V30 9519 C 894.909 -2.64947 3.36136 0
M  V30 9520 C 894.235 -4.04349 3.49865 0
M  V30 9521 C 895.535 -2.23182 4.72215 0
M  V30 9522 H 897.229 -1.02245 2.81401 0
M  V30 9523 H 894.775 -0.490406 1.35392 0
M  V30 9524 H 896.728 -3.43144 2.44603 0
M  V30 9525 H 895.452 -3.00527 1.27871 0
M  V30 9526 H 894.111 -1.92714 3.11861 0
M  V30 9527 H 893.759 -4.33665 2.5484 0
M  V30 9528 H 893.459 -4.02895 4.27726 0
M  V30 9529 H 894.983 -4.80761 3.76432 0
M  V30 9530 H 896.397 -2.87599 4.95943 0
M  V30 9531 H 894.794 -2.32867 5.53076 0
M  V30 9532 H 895.864 -1.18327 4.70241 0
M  V30 9533 N 897.207 -1.48554 -0.526253 0
M  V30 9534 C 898.455 -1.56452 -1.27935 0
M  V30 9535 C 898.776 -0.24184 -1.93495 0
M  V30 9536 O 898.046 0.736917 -1.81511 0
M  V30 9537 H 896.626 -0.576379 -0.47518 0
M  V30 9538 H 899.288 -1.85039 -0.612083 0
M  V30 9539 H 898.384 -2.34751 -2.05666 0
M  V30 9540 N 898.685 0.775411 -1.37205 0
M  V30 9541 C 899.915 1.56219 -1.352 0
M  V30 9542 C 900.323 1.89087 0.065456 0
M  V30 9543 O 899.666 1.51655 1.03665 0
M  V30 9544 C 899.728 2.9019 -2.12203 0
M  V30 9545 C 899.392 2.79978 -3.61195 0
M  V30 9546 C 900.389 2.51258 -4.55154 0
M  V30 9547 C 898.074 2.98115 -4.04268 0
M  V30 9548 C 900.068 2.40798 -5.90165 0
M  V30 9549 C 897.755 2.87276 -5.39366 0
M  V30 9550 C 898.753 2.58657 -6.32128 0
M  V30 9551 O 898.441 2.47838 -7.64743 0
M  V30 9552 H 898.173 0.490735 -0.464925 0
M  V30 9553 H 900.727 0.969201 -1.81096 0
M  V30 9554 H 898.957 3.51594 -1.60992 0
M  V30 9555 H 900.646 3.51561 -2.02879 0
M  V30 9556 H 901.412 2.36935 -4.23186 0
M  V30 9557 H 897.291 3.19392 -3.3243 0
M  V30 9558 H 900.835 2.18381 -6.62537 0
M  V30 9559 H 896.732 3.01166 -5.70937 0
M  V30 9560 H 897.5 2.63215 -7.75023 0
M  V30 9561 N 900.163 1.21714 1.00117 0
M  V30 9562 C 901.391 1.06278 1.77518 0
M  V30 9563 C 901.806 -0.387193 1.84787 0
M  V30 9564 O 901.163 -1.26854 1.31203 0
M  V30 9565 C 901.214 1.65795 3.21239 0
M  V30 9566 O 900.935 3.05119 3.14378 0
M  V30 9567 C 902.436 1.55521 4.15124 0
M  V30 9568 H 899.656 0.373013 0.557765 0
M  V30 9569 H 902.2 1.61133 1.25922 0
M  V30 9570 H 900.355 1.15022 3.69931 0
M  V30 9571 H 900.769 3.33643 4.04701 0
M  V30 9572 H 902.243 2.01902 5.13751 0
M  V30 9573 H 902.72 0.510307 4.36225 0
M  V30 9574 H 903.326 2.0556 3.72324 0
M  V30 9575 N 901.641 -1.19671 1.02551 0
M  V30 9576 C 902.574 -2.21522 0.547998 0
M  V30 9577 C 903.552 -1.57363 -0.409349 0
M  V30 9578 O 904.736 -1.85638 -0.327248 0
M  V30 9579 C 901.863 -3.38101 -0.201375 0
M  V30 9580 C 900.909 -4.20601 0.706886 0
M  V30 9581 S 901.742 -4.89066 2.18116 0
M  V30 9582 C 902.898 -6.09058 1.4422 0
M  V30 9583 H 903.131 -2.61684 1.41099 0
M  V30 9584 H 900.664 -1.29864 0.835153 0
M  V30 9585 H 902.622 -4.05674 -0.627607 0
M  V30 9586 H 901.283 -2.96381 -1.04005 0
M  V30 9587 H 900.476 -5.03836 0.128554 0
M  V30 9588 H 900.078 -3.58329 1.07129 0
M  V30 9589 H 902.37 -6.73588 0.726975 0
M  V30 9590 H 903.313 -6.71368 2.25102 0
M  V30 9591 H 903.721 -5.56599 0.941176 0
M  V30 9592 N 903.119 -0.802921 -1.35613 0
M  V30 9593 C 904.349 -0.393359 -2.02821 0
M  V30 9594 C 904.757 0.999282 -1.60658 0
M  V30 9595 O 904.1 1.65463 -0.797977 0
M  V30 9596 C 904.162 -0.393102 -3.57344 0
M  V30 9597 C 903.826 -1.73563 -4.22759 0
M  V30 9598 C 904.823 -2.69333 -4.44698 0
M  V30 9599 C 902.508 -2.01863 -4.59953 0
M  V30 9600 C 904.502 -3.91589 -5.02928 0
M  V30 9601 C 902.189 -3.24383 -5.17898 0
M  V30 9602 C 903.187 -4.19064 -5.39328 0
M  V30 9603 O 902.875 -5.39422 -5.96053 0
M  V30 9604 H 902.607 -0.158431 -0.657172 0
M  V30 9605 H 905.161 -1.08682 -1.74291 0
M  V30 9606 H 903.391 0.356934 -3.85049 0
M  V30 9607 H 905.08 -0.00635596 -4.059 0
M  V30 9608 H 905.846 -2.48759 -4.16346 0
M  V30 9609 H 901.725 -1.28979 -4.42589 0
M  V30 9610 H 905.269 -4.65502 -5.1957 0
M  V30 9611 H 901.166 -3.44829 -5.45677 0
M  V30 9612 H 901.934 -5.40669 -6.14507 0
M  V30 9613 N 904.597 1.47463 -0.556102 0
M  V30 9614 C 906.013 1.58134 -0.21579 0
M  V30 9615 C 906.213 1.55486 1.28166 0
M  V30 9616 O 905.269 1.45768 2.06174 0
M  V30 9617 C 906.582 2.88686 -0.841464 0
M  V30 9618 C 908.13 3.02268 -0.812591 0
M  V30 9619 C 908.605 4.35518 -1.41731 0
M  V30 9620 N 910.096 4.42151 -1.38045 0
M  V30 9621 C 910.831 5.43817 -1.81799 0
M  V30 9622 N 910.327 6.52299 -2.33404 0
M  V30 9623 N 912.12 5.34855 -1.72877 0
M  V30 9624 H 904.271 1.47428 -1.52901 0
M  V30 9625 H 906.534 0.701586 -0.637559 0
M  V30 9626 H 906.24 2.96358 -1.8938 0
M  V30 9627 H 906.114 3.7572 -0.333846 0
M  V30 9628 H 908.501 2.94194 0.231056 0
M  V30 9629 H 908.582 2.16779 -1.35796 0
M  V30 9630 H 908.226 4.44348 -2.46002 0
M  V30 9631 H 908.156 5.19737 -0.847402 0
M  V30 9632 H 910.647 3.64348 -1.00296 0
M  V30 9633 H 910.96 7.26047 -2.64717 0
M  V30 9634 H 909.305 6.53192 -2.37414 0
M  V30 9635 H 912.496 4.49004 -1.32338 0
M  V30 9636 H 912.669 6.13949 -2.07294 0
M  V30 9637 N 906.075 0.2925 1.54862 0
M  V30 9638 C 907.025 -0.60226 2.19902 0
M  V30 9639 C 908.009 -1.10535 1.16923 0
M  V30 9640 O 909.201 -1.04753 1.42674 0
M  V30 9641 C 906.33 -1.77774 2.93686 0
M  V30 9642 C 905.416 -1.29101 4.03972 0
M  V30 9643 N 905.807 -0.521671 5.03103 0
M  V30 9644 C 904.105 -1.57248 4.17359 0
M  V30 9645 C 904.806 -0.263545 5.81103 0
M  V30 9646 N 903.782 -0.840937 5.37056 0
M  V30 9647 H 907.584 -0.00682274 2.93899 0
M  V30 9648 H 905.098 0.0968604 1.62111 0
M  V30 9649 H 907.095 -2.43021 3.38743 0
M  V30 9650 H 905.755 -2.37696 2.21203 0
M  V30 9651 H 906.766 -0.167364 5.1763 0
M  V30 9652 H 903.443 -2.1798 3.56077 0
M  V30 9653 H 904.833 0.353783 6.70968 0
M  V30 9654 N 907.553 -1.57587 0.0200696 0
M  V30 9655 C 908.799 -1.91708 -0.661503 0
M  V30 9656 C 909.132 -0.895968 -1.72296 0
M  V30 9657 O 908.407 0.082577 -1.94325 0
M  V30 9658 C 908.69 -3.36344 -1.28627 0
M  V30 9659 C 908.543 -4.49186 -0.234982 0
M  V30 9660 C 909.862 -3.80771 -2.20685 0
M  V30 9661 H 906.981 -0.69717 -0.239005 0
M  V30 9662 H 909.623 -1.8985 0.0754764 0
M  V30 9663 H 907.773 -3.38058 -1.91439 0
M  V30 9664 H 909.445 -4.59606 0.395011 0
M  V30 9665 H 907.688 -4.31557 0.440565 0
M  V30 9666 H 908.359 -5.47395 -0.711558 0
M  V30 9667 H 910.835 -3.80735 -1.67868 0
M  V30 9668 H 909.711 -4.82685 -2.61356 0
M  V30 9669 H 909.972 -3.15764 -3.09428 0
M  V30 9670 N 909.032 0.252966 -1.55557 0
M  V30 9671 C 910.279 0.981852 -1.77104 0
M  V30 9672 C 910.607 1.85547 -0.583305 0
M  V30 9673 O 909.862 1.90836 0.43359 0
M  V30 9674 C 910.161 1.87785 -3.04091 0
M  V30 9675 C 909.827 1.16009 -4.35721 0
M  V30 9676 C 908.489 0.961697 -4.71492 0
M  V30 9677 C 910.841 0.650884 -5.1712 0
M  V30 9678 C 908.169 0.241704 -5.86202 0
M  V30 9679 C 910.521 -0.0556124 -6.32576 0
M  V30 9680 C 909.185 -0.265536 -6.66972 0
M  V30 9681 H 908.455 0.359285 -0.64807 0
M  V30 9682 H 911.102 0.252443 -1.89829 0
M  V30 9683 H 909.407 2.67412 -2.86353 0
M  V30 9684 H 911.104 2.44339 -3.17961 0
M  V30 9685 H 907.694 1.32465 -4.07616 0
M  V30 9686 H 911.878 0.791719 -4.89944 0
M  V30 9687 H 907.134 0.0685292 -6.11362 0
M  V30 9688 H 911.308 -0.457839 -6.94893 0
M  V30 9689 H 908.935 -0.8254 -7.55706 0
M  V30 9690 N 910.51 1.48831 0.518367 0
M  V30 9691 C 911.921 1.50842 1.10016 0
M  V30 9692 C 912.272 0.284744 1.94123 0
M  V30 9693 O 911.397 -0.607088 2.0771 0
M  V30 9694 C 911.992 2.73329 2.00191 0
M  V30 9695 C 910.551 2.78175 2.53566 0
M  V30 9696 C 909.698 2.4452 1.30786 0
M  V30 9697 H 912.649 1.55779 0.303073 0
M  V30 9698 H 912.67 2.52506 2.84642 0
M  V30 9699 H 912.182 3.62374 1.3895 0
M  V30 9700 H 910.283 1.93368 3.18496 0
M  V30 9701 H 910.396 3.79905 2.91906 0
M  V30 9702 H 908.76 1.95924 1.62744 0
M  V30 9703 H 909.543 3.35819 0.712797 0
M  V30 9704 N 911.988 -0.768124 1.37614 0
M  V30 9705 C 913.216 -1.55726 1.36224 0
M  V30 9706 C 913.631 -1.8873 -0.0515357 0
M  V30 9707 O 912.988 -1.51718 -1.0143 0
M  V30 9708 C 913.039 -2.86533 2.20412 0
M  V30 9709 O 912.76 -2.54942 3.56281 0
M  V30 9710 C 914.261 -3.80745 2.27041 0
M  V30 9711 H 911.481 -0.482325 0.46648 0
M  V30 9712 H 914.025 -0.95176 1.81002 0
M  V30 9713 H 912.18 -3.43496 1.79134 0
M  V30 9714 H 912.594 -3.38732 4.00451 0
M  V30 9715 H 914.068 -4.69523 2.90263 0
M  V30 9716 H 914.545 -4.20138 1.27987 0
M  V30 9717 H 915.151 -3.2971 2.68647 0
M  V30 9718 N 913.466 -1.22244 -0.994698 0
M  V30 9719 C 914.396 -1.01513 -2.10279 0
M  V30 9720 C 915.377 0.0633365 -1.69982 0
M  V30 9721 O 916.562 -0.0985268 -1.9395 0
M  V30 9722 C 913.692 -0.59016 -3.42249 0
M  V30 9723 C 912.646 -1.61436 -3.96387 0
M  V30 9724 C 911.972 -1.04528 -5.24383 0
M  V30 9725 C 913.272 -3.00388 -4.27276 0
M  V30 9726 H 914.966 -1.94194 -2.2788 0
M  V30 9727 H 912.512 -0.935094 -1.09508 0
M  V30 9728 H 914.465 -0.432254 -4.19177 0
M  V30 9729 H 913.189 0.372308 -3.24471 0
M  V30 9730 H 911.848 -1.76001 -3.21589 0
M  V30 9731 H 911.496 -0.0742225 -5.02945 0
M  V30 9732 H 911.196 -1.72949 -5.61571 0
M  V30 9733 H 912.72 -0.898922 -6.03947 0
M  V30 9734 H 914.134 -2.89207 -4.95007 0
M  V30 9735 H 912.531 -3.65916 -4.75631 0
M  V30 9736 H 913.601 -3.50456 -3.35125 0
M  V30 9737 N 914.944 1.19125 -1.03184 0
M  V30 9738 C 915.907 2.20662 -0.619766 0
M  V30 9739 C 916.907 1.57621 0.318179 0
M  V30 9740 O 918.097 1.73885 0.104783 0
M  V30 9741 C 915.229 3.40774 0.0926696 0
M  V30 9742 H 916.422 2.58633 -1.5182 0
M  V30 9743 H 913.975 1.32855 -0.823364 0
M  V30 9744 H 914.71 3.08324 1.00531 0
M  V30 9745 H 914.495 3.87766 -0.581344 0
M  V30 9746 H 915.985 4.15977 0.367792 0
M  V30 9747 N 916.422 0.810101 1.35185 0
M  V30 9748 C 917.352 0.237453 2.32289 0
M  V30 9749 C 918.333 -0.639032 1.5764 0
M  V30 9750 O 919.518 -0.568575 1.8569 0
M  V30 9751 C 916.648 -0.611964 3.41866 0
M  V30 9752 C 915.602 0.166318 4.27677 0
M  V30 9753 C 914.928 -0.805024 5.28605 0
M  V30 9754 C 916.228 1.36729 5.04086 0
M  V30 9755 H 917.922 1.04874 2.80432 0
M  V30 9756 H 915.468 0.505751 1.34826 0
M  V30 9757 H 917.421 -1.02267 4.08802 0
M  V30 9758 H 916.145 -1.45617 2.92341 0
M  V30 9759 H 914.804 0.558238 3.62325 0
M  V30 9760 H 914.452 -1.64483 4.75347 0
M  V30 9761 H 914.152 -0.288577 5.86891 0
M  V30 9762 H 915.676 -1.21386 5.98413 0
M  V30 9763 H 917.09 1.03128 5.63948 0
M  V30 9764 H 915.487 1.81848 5.71884 0
M  V30 9765 H 916.557 2.15214 4.34524 0
M  V30 9766 N 917.9 -1.47166 0.563914 0
M  V30 9767 C 919.148 -2.02056 0.0422873 0
M  V30 9768 C 919.469 -1.43992 -1.31497 0
M  V30 9769 O 918.739 -0.617578 -1.85911 0
M  V30 9770 H 917.319 -0.746893 0.0126427 0
M  V30 9771 H 919.981 -1.80492 0.735441 0
M  V30 9772 H 919.077 -3.12073 -0.0408044 0
M  V30 9773 N 919.378 -0.300708 -1.54705 0
M  V30 9774 C 920.794 0.0526874 -1.59513 0
M  V30 9775 C 920.994 1.52444 -1.31769 0
M  V30 9776 O 920.05 2.27716 -1.09096 0
M  V30 9777 C 921.363 -0.344989 -2.98714 0
M  V30 9778 C 922.911 -0.29373 -3.11619 0
M  V30 9779 C 923.386 -0.666225 -4.53129 0
M  V30 9780 N 924.877 -0.618749 -4.59049 0
M  V30 9781 C 925.612 -0.879447 -5.66616 0
M  V30 9782 N 925.108 -1.2061 -6.82221 0
M  V30 9783 N 926.901 -0.806528 -5.56284 0
M  V30 9784 H 919.052 -1.25988 -1.71 0
M  V30 9785 H 921.315 -0.510758 -0.798643 0
M  V30 9786 H 921.021 -1.36953 -3.2394 0
M  V30 9787 H 920.895 0.301507 -3.75993 0
M  V30 9788 H 923.282 0.72156 -2.86142 0
M  V30 9789 H 923.363 -0.974844 -2.36496 0
M  V30 9790 H 923.007 -1.67932 -4.79334 0
M  V30 9791 H 922.937 0.0369575 -5.26587 0
M  V30 9792 H 925.428 -0.377202 -3.76013 0
M  V30 9793 H 925.741 -1.391 -7.60178 0
M  V30 9794 H 924.086 -1.24413 -6.83774 0
M  V30 9795 H 927.277 -0.550993 -4.64846 0
M  V30 9796 H 927.45 -1.01307 -6.40032 0
M  V30 9797 N 920.856 1.57574 -0.0284266 0
M  V30 9798 C 922.086 1.95787 0.659617 0
M  V30 9799 C 922.494 0.903475 1.66235 0
M  V30 9800 O 921.837 -0.12329 1.83286 0
M  V30 9801 C 921.899 3.30139 1.42298 0
M  V30 9802 C 921.563 4.53322 0.578658 0
M  V30 9803 C 922.56 5.19696 -0.145751 0
M  V30 9804 C 920.245 4.9964 0.516264 0
M  V30 9805 C 922.239 6.30708 -0.921235 0
M  V30 9806 C 919.926 6.10534 -0.262925 0
M  V30 9807 C 920.924 6.75927 -0.980382 0
M  V30 9808 O 920.612 7.84692 -1.7468 0
M  V30 9809 H 920.344 0.649681 0.186792 0
M  V30 9810 H 922.898 2.05227 -0.0842687 0
M  V30 9811 H 921.128 3.17188 2.21199 0
M  V30 9812 H 922.817 3.53259 1.99906 0
M  V30 9813 H 923.583 4.84882 -0.106876 0
M  V30 9814 H 919.462 4.48547 1.06427 0
M  V30 9815 H 923.006 6.81682 -1.48176 0
M  V30 9816 H 918.903 6.44786 -0.303519 0
M  V30 9817 H 919.671 8.01355 -1.6665 0
M  V30 9818 N 922.334 -0.244713 1.55689 0
M  V30 9819 C 923.281 -1.30301 1.905 0
M  V30 9820 C 924.251 -1.4772 0.759478 0
M  V30 9821 O 925.436 -1.61667 1.01333 0
M  V30 9822 C 922.576 -2.653 2.20703 0
M  V30 9823 C 921.689 -2.55872 3.48071 0
M  V30 9824 C 920.824 -3.83238 3.67834 0
M  V30 9825 C 919.863 -3.68436 4.88796 0
M  V30 9826 N 919 -4.877 5.05068 0
M  V30 9827 H 923.84 -0.999143 2.80751 0
M  V30 9828 H 921.377 -0.482099 1.38976 0
M  V30 9829 H 923.335 -3.43884 2.36219 0
M  V30 9830 H 921.965 -2.93831 1.33653 0
M  V30 9831 H 921.017 -1.68846 3.40874 0
M  V30 9832 H 922.329 -2.40845 4.36801 0
M  V30 9833 H 921.483 -4.70266 3.83321 0
M  V30 9834 H 920.222 -4.01165 2.77341 0
M  V30 9835 H 919.227 -2.79793 4.73282 0
M  V30 9836 H 920.452 -3.52003 5.8075 0
M  V30 9837 H 918.398 -5.05983 4.17513 0
M  V30 9838 H 918.315 -4.75312 5.8789 0
M  V30 9839 H 919.583 -5.76219 5.24969 0
M  V30 9840 N 923.813 -1.49104 -0.510467 0
M  V30 9841 C 924.745 -1.61183 -1.6295 0
M  V30 9842 C 925.758 -0.495003 -1.55092 0
M  V30 9843 O 926.947 -0.766671 -1.61197 0
M  V30 9844 C 924.047 -1.54373 -3.01699 0
M  V30 9845 C 923.22 -2.81428 -3.34838 0
M  V30 9846 C 922.279 -2.67802 -4.52956 0
M  V30 9847 O 921.305 -3.41723 -4.55208 0
M  V30 9848 N 922.507 -1.78715 -5.52305 0
M  V30 9849 H 925.272 -2.57693 -1.53018 0
M  V30 9850 H 922.833 -1.46073 -0.698152 0
M  V30 9851 H 924.825 -1.42924 -3.78622 0
M  V30 9852 H 923.395 -0.657597 -3.05605 0
M  V30 9853 H 922.615 -3.07299 -2.46903 0
M  V30 9854 H 923.903 -3.6568 -3.53773 0
M  V30 9855 H 923.301 -1.17897 -5.53278 0
M  V30 9856 H 921.858 -1.73194 -6.28369 0
M  V30 9857 N 925.291 0.760815 -1.38019 0
M  V30 9858 C 926.254 1.85604 -1.34476 0
M  V30 9859 C 927.254 1.58897 -0.24666 0
M  V30 9860 O 928.444 1.66776 -0.50314 0
M  V30 9861 C 925.576 3.22945 -1.09176 0
M  V30 9862 H 926.769 1.90155 -2.31908 0
M  V30 9863 H 924.322 0.961746 -1.23208 0
M  V30 9864 H 925.057 3.24066 -0.123216 0
M  V30 9865 H 924.842 3.43723 -1.88672 0
M  V30 9866 H 926.332 4.03022 -1.09375 0
M  V30 9867 N 926.769 1.22769 0.988202 0
M  V30 9868 C 928.018 1.0492 1.72263 0
M  V30 9869 C 928.331 -0.415282 1.91141 0
M  V30 9870 O 929.537 -0.713547 2.61956 0
M  V30 9871 C 927.993 1.82891 3.09966 0
M  V30 9872 C 927.601 3.33618 2.99003 0
M  V30 9873 C 929.345 1.73505 3.87423 0
M  V30 9874 C 927.252 4.04012 4.3189 0
M  V30 9875 H 926.182 0.38899 0.645912 0
M  V30 9876 H 928.833 1.46664 1.10281 0
M  V30 9877 H 927.215 1.33948 3.72658 0
M  V30 9878 H 928.389 3.8999 2.45448 0
M  V30 9879 H 926.704 3.43732 2.35027 0
M  V30 9880 H 929.301 2.23416 4.85787 0
M  V30 9881 H 929.644 0.696344 4.10435 0
M  V30 9882 H 930.177 2.20016 3.31418 0
M  V30 9883 H 926.916 5.08155 4.14075 0
M  V30 9884 H 926.436 3.52428 4.8534 0
M  V30 9885 H 928.115 4.0987 5.00615 0
M  V30 9886 N 928.247 -1.18576 1.03814 0
M  V30 9887 C 929.157 -2.25778 0.637311 0
M  V30 9888 C 930.173 -1.7074 -0.335248 0
M  V30 9889 O 931.349 -2.00494 -0.19081 0
M  V30 9890 C 928.414 -3.467 0.00386953 0
M  V30 9891 C 927.475 -4.16881 1.02511 0
M  V30 9892 C 926.708 -5.32031 0.421802 0
M  V30 9893 O 926.931 -5.65142 -0.772699 0
M  V30 9894 O 925.865 -5.90826 1.14925 0
M  V30 9895 H 929.691 -2.62323 1.53037 0
M  V30 9896 H 927.276 -1.25609 0.80887 0
M  V30 9897 H 929.158 -4.19953 -0.348873 0
M  V30 9898 H 927.833 -3.11983 -0.863047 0
M  V30 9899 H 926.74 -3.45707 1.4296 0
M  V30 9900 H 928.073 -4.55592 1.86271 0
M  V30 9901 N 929.725 -0.817259 -1.34754 0
M  V30 9902 C 931.141 -0.502309 -1.51489 0
M  V30 9903 C 931.341 0.974568 -1.76364 0
M  V30 9904 O 930.397 1.75924 -1.81127 0
M  V30 9905 C 931.71 -1.35693 -2.68343 0
M  V30 9906 C 933.258 -1.35347 -2.82224 0
M  V30 9907 C 933.733 -2.19244 -4.02114 0
M  V30 9908 N 935.224 -2.16837 -4.09311 0
M  V30 9909 C 935.959 -2.78505 -5.01221 0
M  V30 9910 N 935.455 -3.4914 -5.98392 0
M  V30 9911 N 937.248 -2.68089 -4.94049 0
M  V30 9912 H 929.399 -1.77359 -1.16866 0
M  V30 9913 H 931.662 -0.755476 -0.572678 0
M  V30 9914 H 931.368 -2.40548 -2.56573 0
M  V30 9915 H 931.242 -1.01764 -3.63213 0
M  V30 9916 H 933.629 -0.312727 -2.93438 0
M  V30 9917 H 933.71 -1.7327 -1.88179 0
M  V30 9918 H 933.354 -3.23365 -3.9166 0
M  V30 9919 H 933.284 -1.78675 -4.95361 0
M  V30 9920 H 935.775 -1.65452 -3.39756 0
M  V30 9921 H 936.088 -3.93455 -6.65141 0
M  V30 9922 H 934.433 -3.53246 -5.98533 0
M  V30 9923 H 937.624 -2.12485 -4.17094 0
M  V30 9924 H 937.797 -3.16436 -5.65484 0
M  V30 9925 N 931.203 1.46865 -0.571711 0
M  V30 9926 C 932.619 1.57897 -0.23255 0
M  V30 9927 C 932.819 1.56836 1.26509 0
M  V30 9928 O 931.875 1.47947 2.04617 0
M  V30 9929 C 933.188 2.87778 -0.872036 0
M  V30 9930 C 934.736 3.01389 -0.844605 0
M  V30 9931 C 935.211 4.33991 -1.46343 0
M  V30 9932 N 936.702 4.40662 -1.42727 0
M  V30 9933 C 937.437 5.41858 -1.87557 0
M  V30 9934 N 936.933 6.49787 -2.4031 0
M  V30 9935 N 938.726 5.32992 -1.7854 0
M  V30 9936 H 930.877 1.45798 -1.54457 0
M  V30 9937 H 933.14 0.694785 -0.644964 0
M  V30 9938 H 932.846 2.94332 -1.92513 0
M  V30 9939 H 932.72 3.75345 -0.373677 0
M  V30 9940 H 935.107 2.94423 0.19984 0
M  V30 9941 H 935.188 2.15327 -1.38087 0
M  V30 9942 H 934.832 4.41714 -2.50701 0
M  V30 9943 H 934.762 5.18809 -0.902479 0
M  V30 9944 H 937.253 3.63263 -1.04155 0
M  V30 9945 H 937.566 7.23199 -2.72403 0
M  V30 9946 H 935.911 6.50637 -2.44329 0
M  V30 9947 H 939.102 4.47575 -1.37093 0
M  V30 9948 H 939.275 6.11716 -2.13794 0
M  V30 9949 O 932.72 0.451008 1.55075 0
M  V30 9950 H 933.411 -0.0793462 1.93537 0
M  V30 END ATOM
M  V30 BEGIN BOND
M  V30 END BOND
M  V30 END CTAB
M  END
$$$$
