drugbank_target|P13569 Cystic fibrosis transmembrane conductance regulator (DB00171; DB00887; DB01016; DB01050; DB02587; DB04395; DB04522; DB04941; DB06266; DB08820; DB09213; DB09280; DB11712; DB15444)
 OpenBabel12092119493D

  0  0  0     0  0            999 V3000
M  V30 BEGIN CTAB
M  V30 COUNTS 23970 24210 0 0 0
M  V30 BEGIN ATOM
M  V30 1 H -0.908 1.98254 -0.117106 0
M  V30 2 N 0 1.576 0 0
M  V30 3 C 0.933 2.03868 1.02534 0
M  V30 4 C 1.911 0.928543 1.3348 0
M  V30 5 O 3.095 1.19667 1.45644 0
M  V30 6 C 0.222 2.43627 2.35294 0
M  V30 7 C -0.732 3.65373 2.2001 0
M  V30 8 S 0.101 5.13292 1.52614 0
M  V30 9 C 1.257 5.56322 2.86805 0
M  V30 10 H 1.49 2.90518 0.631377 0
M  V30 11 H -0.977 1.52953 0.210867 0
M  V30 12 H 0.981 2.67203 3.11629 0
M  V30 13 H -0.358 1.57376 2.7183 0
M  V30 14 H -1.165 3.90944 3.18086 0
M  V30 15 H -1.563 3.418 1.51819 0
M  V30 16 H 0.729 5.58782 3.83104 0
M  V30 17 H 1.672 6.56266 2.65933 0
M  V30 18 H 2.08 4.83886 2.90714 0
M  V30 19 N 1.4781 -0.272755 1.55222 0
M  V30 20 C 2.4101 -1.35946 1.8453 0
M  V30 21 C 3.4231 -1.45525 0.729818 0
M  V30 22 O 4.6121 -1.47337 1.00767 0
M  V30 23 C 1.7121 -2.74069 1.99347 0
M  V30 24 C 0.8851 -2.87079 3.30007 0
M  V30 25 C -0.0559 -4.05879 3.34886 0
M  V30 26 O -1.0299 -3.96626 4.08261 0
M  V30 27 N 0.1721 -5.17857 2.62307 0
M  V30 28 H 2.9371 -1.11149 2.78327 0
M  V30 29 H 0.4981 -0.462869 1.55142 0
M  V30 30 H 2.4901 -3.51838 1.99981 0
M  V30 31 H 1.0601 -2.91688 1.12415 0
M  V30 32 H 0.2801 -1.96193 3.41909 0
M  V30 33 H 1.5681 -2.92701 4.16177 0
M  V30 34 H 0.9661 -5.28261 2.02377 0
M  V30 35 H -0.4769 -5.93855 2.68663 0
M  V30 36 N 2.9562 -1.48159 -0.537278 0
M  V30 37 C 4.3722 -1.34118 -0.865129 0
M  V30 38 C 4.5722 -0.346678 -1.98495 0
M  V30 39 O 3.6282 0.234715 -2.51407 0
M  V30 40 C 4.9412 -2.73963 -1.23954 0
M  V30 41 C 6.4892 -2.82397 -1.34984 0
M  V30 42 C 6.9642 -4.22928 -1.75772 0
M  V30 43 N 8.4552 -4.25566 -1.82887 0
M  V30 44 C 9.1902 -5.31235 -2.15817 0
M  V30 45 N 8.6862 -6.47189 -2.47222 0
M  V30 46 N 10.4792 -5.18624 -2.16761 0
M  V30 47 H 2.6302 -2.1144 0.201715 0
M  V30 48 H 4.8932 -0.947598 0.0275949 0
M  V30 49 H 4.5992 -3.48264 -0.490381 0
M  V30 50 H 4.4732 -3.0702 -2.19132 0
M  V30 51 H 6.8602 -2.08356 -2.08978 0
M  V30 52 H 6.9412 -2.5297 -0.379448 0
M  V30 53 H 6.5852 -4.97482 -1.02341 0
M  V30 54 H 6.5152 -4.49794 -2.73848 0
M  V30 55 H 9.0062 -3.41924 -1.60924 0
M  V30 56 H 9.3192 -7.23564 -2.71433 0
M  V30 57 H 7.6642 -6.50476 -2.44757 0
M  V30 58 H 10.8552 -4.27056 -1.91679 0
M  V30 59 H 11.0282 -6.01078 -2.42093 0
M  V30 60 N 4.4343 0.785586 -1.36625 0
M  V30 61 C 5.6593 1.57963 -1.34397 0
M  V30 62 C 6.0843 1.87964 0.071526 0
M  V30 63 O 5.4423 1.48182 1.0446 0
M  V30 64 C 5.4903 2.87511 -2.17646 0
M  V30 65 O 4.5943 3.81281 -1.57158 0
M  V30 66 H 3.9353 0.479014 -0.459828 0
M  V30 67 H 6.4653 0.973411 -1.79961 0
M  V30 68 H 6.4753 3.36745 -2.30362 0
M  V30 69 H 5.1503 2.65002 -3.20541 0
M  V30 70 H 3.7273 3.39885 -1.53403 0
M  V30 71 N 5.9124 1.20967 1.01018 0
M  V30 72 C 7.3234 1.02319 1.56165 0
M  V30 73 C 7.6744 -0.418546 1.91684 0
M  V30 74 O 6.7994 -1.30096 1.72928 0
M  V30 75 C 7.3944 1.85109 2.8376 0
M  V30 76 C 5.9534 1.70809 3.35412 0
M  V30 77 C 5.1004 1.82643 2.08655 0
M  V30 78 H 8.0514 1.35065 0.833255 0
M  V30 79 H 8.0724 1.35827 3.55431 0
M  V30 80 H 7.5844 2.90035 2.57878 0
M  V30 81 H 5.6854 0.685464 3.66241 0
M  V30 82 H 5.7984 2.52467 4.07182 0
M  V30 83 H 4.1624 1.25896 2.21409 0
M  V30 84 H 4.9454 2.89066 1.85191 0
M  V30 85 N 7.3905 -1.2043 1.01659 0
M  V30 86 C 8.3205 -2.25466 0.607226 0
M  V30 87 C 9.3015 -1.65853 -0.377716 0
M  V30 88 O 10.4865 -1.92409 -0.263149 0
M  V30 89 C 7.6165 -3.47256 -0.0552949 0
M  V30 90 C 6.5705 -4.19462 0.850632 0
M  V30 91 C 5.8965 -5.34673 0.0538859 0
M  V30 92 C 7.1965 -4.75603 2.15868 0
M  V30 93 H 8.8905 -2.59962 1.48526 0
M  V30 94 H 6.4365 -1.2496 0.715605 0
M  V30 95 H 8.3895 -4.19917 -0.353233 0
M  V30 96 H 7.1135 -3.11924 -0.968045 0
M  V30 97 H 5.7725 -3.48667 1.13257 0
M  V30 98 H 5.4205 -4.95585 -0.860514 0
M  V30 99 H 5.1205 -5.83913 0.657192 0
M  V30 100 H 6.6445 -6.10138 -0.237598 0
M  V30 101 H 8.0585 -5.40083 1.92311 0
M  V30 102 H 6.4555 -5.3528 2.71284 0
M  V30 103 H 7.5255 -3.94346 2.82169 0
M  V30 104 N 8.8686 -0.792821 -1.36206 0
M  V30 105 C 9.7786 -0.194808 -2.3379 0
M  V30 106 C 10.7946 0.654869 -1.61206 0
M  V30 107 O 11.9706 0.569856 -1.9317 0
M  V30 108 C 9.0356 0.657721 -3.40404 0
M  V30 109 C 8.0966 -0.210849 -4.28782 0
M  V30 110 C 7.3296 0.601086 -5.30304 0
M  V30 111 O 7.5526 1.83682 -5.40016 0
M  V30 112 O 6.4866 -0.000808277 -6.019 0
M  V30 113 H 10.3126 -1.00172 -2.86704 0
M  V30 114 H 7.8976 -0.554341 -1.38735 0
M  V30 115 H 9.7796 1.14375 -4.05581 0
M  V30 116 H 8.4546 1.44247 -2.89784 0
M  V30 117 H 7.3616 -0.743714 -3.66633 0
M  V30 118 H 8.6946 -0.959195 -4.82763 0
M  V30 119 N 10.3467 1.47872 -0.545128 0
M  V30 120 C 11.2937 2.29849 0.2093 0
M  V30 121 C 12.2637 1.38313 0.919707 0
M  V30 122 O 13.4487 1.67277 0.917772 0
M  V30 123 C 10.5887 3.22019 1.24088 0
M  V30 124 C 9.7017 4.2864 0.537778 0
M  V30 125 C 8.8367 5.07973 1.5536 0
M  V30 126 C 7.8757 6.06381 0.8348 0
M  V30 127 N 7.0127 6.78717 1.79688 0
M  V30 128 H 11.8527 2.93845 -0.49591 0
M  V30 129 H 9.3897 1.44848 -0.256389 0
M  V30 130 H 11.3477 3.73868 1.85144 0
M  V30 131 H 9.9777 2.59914 1.91428 0
M  V30 132 H 9.0297 3.7994 -0.187046 0
M  V30 133 H 10.3417 4.98793 -0.0258907 0
M  V30 134 H 9.4957 5.63912 2.23803 0
M  V30 135 H 8.2347 4.37693 2.15118 0
M  V30 136 H 7.2397 5.49631 0.136388 0
M  V30 137 H 8.4647 6.78665 0.24313 0
M  V30 138 H 6.4107 6.11177 2.38326 0
M  V30 139 H 6.3277 7.44998 1.28505 0
M  V30 140 H 7.5957 7.39237 2.47282 0
M  V30 141 N 11.8248 0.280983 1.55075 0
M  V30 142 C 12.7878 -0.590896 2.21452 0
M  V30 143 C 13.7878 -1.07682 1.19421 0
M  V30 144 O 14.9778 -0.97605 1.44288 0
M  V30 145 C 12.1098 -1.81587 2.88511 0
M  V30 146 H 13.3028 -0.0112554 2.99898 0
M  V30 147 H 10.8558 0.0316438 1.56268 0
M  V30 148 H 11.5908 -2.43587 2.14093 0
M  V30 149 H 11.3758 -1.4753 3.63287 0
M  V30 150 H 12.8658 -2.43575 3.39206 0
M  V30 151 N 13.3029 -1.57598 0.00835791 0
M  V30 152 C 14.5279 -1.95617 -0.689103 0
M  V30 153 C 14.9529 -0.883753 -1.66046 0
M  V30 154 O 14.3109 0.157352 -1.80616 0
M  V30 155 C 14.3589 -3.32736 -1.38994 0
M  V30 156 O 13.4629 -3.27631 -2.50463 0
M  V30 157 H 12.8039 -0.638379 -0.182668 0
M  V30 158 H 15.3339 -2.045 0.064036 0
M  V30 159 H 15.3439 -3.68494 -1.75147 0
M  V30 160 H 14.0189 -4.1034 -0.677778 0
M  V30 161 H 12.5959 -3.03561 -2.16576 0
M  V30 162 N 14.781 0.264519 -1.55364 0
M  V30 163 C 16.027 0.99646 -1.76631 0
M  V30 164 C 16.36 1.85632 -0.570478 0
M  V30 165 O 15.635 1.89647 0.43175 0
M  V30 166 C 15.918 1.87187 -3.07625 0
M  V30 167 C 15.771 1.04138 -4.37579 0
M  V30 168 C 17.09 2.85749 -3.34717 0
M  V30 169 H 14.209 0.360841 -0.642622 0
M  V30 170 H 16.851 0.268218 -1.88097 0
M  V30 171 H 15.001 2.49279 -2.9798 0
M  V30 172 H 16.673 0.440517 -4.59192 0
M  V30 173 H 14.916 0.345115 -4.32425 0
M  V30 174 H 15.587 1.68729 -5.2558 0
M  V30 175 H 18.063 2.33793 -3.4421 0
M  V30 176 H 16.939 3.44136 -4.27623 0
M  V30 177 H 17.2 3.61311 -2.54768 0
M  V30 178 N 16.2591 1.48442 0.529413 0
M  V30 179 C 17.5051 1.5672 1.28711 0
M  V30 180 C 17.8381 0.2406 1.92704 0
M  V30 181 O 17.1131 -0.753454 1.79313 0
M  V30 182 C 17.3961 2.70587 2.37603 0
M  V30 183 C 17.2491 4.12953 1.78297 0
M  V30 184 C 18.5681 2.80212 3.39366 0
M  V30 185 H 15.6871 0.570474 0.466613 0
M  V30 186 H 18.3291 1.80617 0.589706 0
M  V30 187 H 16.4791 2.50342 2.97088 0
M  V30 188 H 18.1511 4.44639 1.22858 0
M  V30 189 H 16.3941 4.19927 1.0883 0
M  V30 190 H 17.0651 4.88448 2.57144 0
M  V30 191 H 19.5411 2.98553 2.89836 0
M  V30 192 H 18.4171 3.61611 4.12951 0
M  V30 193 H 18.6781 1.88393 3.99951 0
M  V30 194 N 17.7372 -0.778329 1.37039 0
M  V30 195 C 18.9622 -1.57248 1.35233 0
M  V30 196 C 19.3872 -1.87999 -0.0615568 0
M  V30 197 O 18.7452 -1.48734 -1.03672 0
M  V30 198 C 18.7932 -2.86353 2.19167 0
M  V30 199 O 17.8972 -3.80442 1.59178 0
M  V30 200 H 17.2382 -0.476569 0.462362 0
M  V30 201 H 19.7682 -0.963853 1.80474 0
M  V30 202 H 19.7782 -3.35519 2.32145 0
M  V30 203 H 18.4532 -2.63299 3.21942 0
M  V30 204 H 17.0302 -3.39067 1.55203 0
M  V30 205 N 19.2153 -1.21501 -1.00376 0
M  V30 206 C 20.1623 -0.975387 -2.09177 0
M  V30 207 C 21.1323 0.0990615 -1.65804 0
M  V30 208 O 22.3173 -0.0483147 -1.90739 0
M  V30 209 C 19.4573 -0.547507 -3.40729 0
M  V30 210 C 18.5703 -1.69153 -3.97506 0
M  V30 211 C 17.7053 -1.2127 -5.17172 0
M  V30 212 C 16.7443 -2.32897 -5.66061 0
M  V30 213 N 15.8813 -1.86138 -6.76976 0
M  V30 214 H 20.7213 -1.9068 -2.29009 0
M  V30 215 H 18.2583 -0.950257 -1.12288 0
M  V30 216 H 20.2163 -0.280667 -4.16255 0
M  V30 217 H 18.8463 0.346904 -3.20931 0
M  V30 218 H 17.8983 -2.07298 -3.18954 0
M  V30 219 H 19.2103 -2.5316 -4.29781 0
M  V30 220 H 18.3643 -0.902591 -5.99948 0
M  V30 221 H 17.1033 -0.342692 -4.86495 0
M  V30 222 H 16.1083 -2.64709 -4.81881 0
M  V30 223 H 17.3333 -3.20396 -5.98768 0
M  V30 224 H 15.2793 -1.01484 -6.48103 0
M  V30 225 H 15.1963 -2.63717 -7.08512 0
M  V30 226 H 16.4643 -1.58165 -7.63285 0
M  V30 227 N 20.6934 1.19889 -1.02296 0
M  V30 228 C 21.6234 2.25141 -0.619174 0
M  V30 229 C 22.6044 1.66051 0.368915 0
M  V30 230 O 23.7894 1.92546 0.252941 0
M  V30 231 C 20.9194 3.4728 0.0368783 0
M  V30 232 C 19.8734 4.19005 -0.872865 0
M  V30 233 C 19.1994 5.34637 -0.0822402 0
M  V30 234 C 20.4994 4.74452 -2.18387 0
M  V30 235 H 22.1934 2.59171 -1.49903 0
M  V30 236 H 19.7394 1.24579 -0.722222 0
M  V30 237 H 21.6924 4.20098 0.330958 0
M  V30 238 H 20.4164 3.12433 0.95149 0
M  V30 239 H 19.0754 3.48061 -1.15105 0
M  V30 240 H 18.7234 4.96034 0.83422 0
M  V30 241 H 18.4234 5.83557 -0.688149 0
M  V30 242 H 19.9474 6.10255 0.205238 0
M  V30 243 H 21.3614 5.39055 -1.95172 0
M  V30 244 H 19.7584 5.33834 -2.74119 0
M  V30 245 H 20.8284 3.92844 -2.84257 0
M  V30 246 N 22.1715 0.800033 1.35784 0
M  V30 247 C 23.4185 0.377342 1.98953 0
M  V30 248 C 23.7465 -1.05378 1.6348 0
M  V30 249 O 23.0015 -1.74459 0.886707 0
M  V30 250 C 23.3005 0.500276 3.53881 0
M  V30 251 C 22.9665 1.89375 4.09204 0
M  V30 252 C 21.6285 2.27499 4.24025 0
M  V30 253 C 23.9805 2.8057 4.39238 0
M  V30 254 C 21.3085 3.562 4.66195 0
M  V30 255 C 23.6605 4.0871 4.82844 0
M  V30 256 C 22.3245 4.46843 4.95871 0
M  V30 257 H 21.5945 0.138079 0.728021 0
M  V30 258 H 24.2415 1.01955 1.62103 0
M  V30 259 H 22.5465 -0.225405 3.91151 0
M  V30 260 H 24.2435 0.154097 4.00704 0
M  V30 261 H 20.8335 1.58753 3.98115 0
M  V30 262 H 25.0175 2.52367 4.27346 0
M  V30 263 H 20.2735 3.85602 4.74469 0
M  V30 264 H 24.4475 4.79481 5.05046 0
M  V30 265 H 22.0745 5.46623 5.28306 0
M  V30 266 N 23.6496 -1.47581 0.552962 0
M  V30 267 C 24.8966 -2.02482 0.0273243 0
M  V30 268 C 25.2246 -1.42776 -1.32081 0
M  V30 269 O 24.4796 -0.571393 -1.87173 0
M  V30 270 C 24.7786 -3.57199 -0.119728 0
M  V30 271 C 24.4446 -4.35804 1.15697 0
M  V30 272 C 23.1066 -4.57 1.50681 0
M  V30 273 C 25.4586 -4.81167 2.00319 0
M  V30 274 C 22.7866 -5.20807 2.70142 0
M  V30 275 C 25.1386 -5.46293 3.18978 0
M  V30 276 C 23.8026 -5.65722 3.54281 0
M  V30 277 H 23.0726 -0.740933 0.00999866 0
M  V30 278 H 25.7196 -1.77302 0.72362 0
M  V30 279 H 24.0246 -3.81348 -0.89896 0
M  V30 280 H 25.7216 -3.97324 -0.541718 0
M  V30 281 H 22.3116 -4.19582 0.874561 0
M  V30 282 H 26.4956 -4.64574 1.74599 0
M  V30 283 H 21.7516 -5.34045 2.97668 0
M  V30 284 H 25.9256 -5.80407 3.84838 0
M  V30 285 H 23.5526 -6.14936 4.46942 0
M  V30 286 N 25.1277 -0.289203 -1.54924 0
M  V30 287 C 26.3527 0.329299 -2.04769 0
M  V30 288 C 26.7777 1.4763 -1.16564 0
M  V30 289 O 26.1357 1.80527 -0.167186 0
M  V30 290 C 26.1837 0.774438 -3.52186 0
M  V30 291 O 25.2877 1.88038 -3.67036 0
M  V30 292 H 24.6287 0.0659259 -0.660719 0
M  V30 293 H 27.1587 -0.42761 -2.00082 0
M  V30 294 H 27.1687 1.06642 -3.93816 0
M  V30 295 H 25.8437 -0.0646707 -4.1585 0
M  V30 296 H 24.4207 1.58985 -3.3731 0
M  V30 297 N 26.6058 1.57591 -0.0167156 0
M  V30 298 C 27.8518 1.92399 0.659861 0
M  V30 299 C 28.2068 0.892561 1.70444 0
M  V30 300 O 27.4998 -0.0930755 1.91374 0
M  V30 301 C 27.6938 3.3172 1.33029 0
M  V30 302 C 27.5228 4.48319 0.352174 0
M  V30 303 C 26.2928 5.05281 -0.0434883 0
M  V30 304 C 28.4908 5.12831 -0.388474 0
M  V30 305 N 26.4728 6.05399 -1.01807 0
M  V30 306 C 27.8438 6.07934 -1.2172 0
M  V30 307 C 29.8988 4.95858 -0.450513 0
M  V30 308 C 28.6018 6.87891 -2.10235 0
M  V30 309 C 30.6278 5.76413 -1.32295 0
M  V30 310 C 29.9898 6.71123 -2.13948 0
M  V30 311 H 26.0888 0.752106 0.21415 0
M  V30 312 H 28.6728 1.94532 -0.0809846 0
M  V30 313 H 26.8438 3.3043 2.04134 0
M  V30 314 H 28.5758 3.5391 1.9629 0
M  V30 315 H 25.3308 4.7246 0.328384 0
M  V30 316 H 25.7548 6.60145 -1.50123 0
M  V30 317 H 30.3968 4.22472 0.166512 0
M  V30 318 H 28.1148 7.60591 -2.72997 0
M  V30 319 H 31.7008 5.65317 -1.37508 0
M  V30 320 H 30.5808 7.3237 -2.80364 0
M  V30 321 N 28.0839 -0.256276 1.55502 0
M  V30 322 C 29.3119 -1.00342 1.8094 0
M  V30 323 C 29.7269 -1.79307 0.59114 0
M  V30 324 O 29.0839 -1.77114 -0.440081 0
M  V30 325 C 29.1349 -1.94875 3.04476 0
M  V30 326 O 28.8559 -1.19107 4.21598 0
M  V30 327 C 30.3569 -2.81266 3.42644 0
M  V30 328 H 27.5769 -0.295685 0.602338 0
M  V30 329 H 30.1209 -0.281998 2.02546 0
M  V30 330 H 28.2759 -2.62457 2.84947 0
M  V30 331 H 28.6899 -1.82969 4.91551 0
M  V30 332 H 30.1639 -3.43362 4.32211 0
M  V30 333 H 30.6409 -3.51897 2.62802 0
M  V30 334 H 31.2469 -2.1915 3.64491 0
M  V30 335 N 29.562 -1.4872 -0.521534 0
M  V30 336 C 30.978 -1.35028 -0.850855 0
M  V30 337 C 31.178 -0.367712 -1.98116 0
M  V30 338 O 30.234 0.208037 -2.51642 0
M  V30 339 C 31.547 -2.75263 -1.21041 0
M  V30 340 C 33.095 -2.83813 -1.31981 0
M  V30 341 C 33.57 -4.24769 -1.71276 0
M  V30 342 N 35.061 -4.27482 -1.78363 0
M  V30 343 C 35.796 -5.33494 -2.1017 0
M  V30 344 N 35.292 -6.49775 -2.40343 0
M  V30 345 N 37.085 -5.20894 -2.11248 0
M  V30 346 H 29.236 -2.11214 0.22413 0
M  V30 347 H 31.499 -0.947252 0.0376439 0
M  V30 348 H 31.205 -3.48765 -0.453415 0
M  V30 349 H 31.079 -3.09327 -2.15863 0
M  V30 350 H 33.466 -2.10561 -2.06756 0
M  V30 351 H 33.547 -2.53358 -0.352596 0
M  V30 352 H 33.191 -4.9854 -0.970588 0
M  V30 353 H 33.121 -4.52673 -2.69062 0
M  V30 354 H 35.612 -3.43611 -1.57288 0
M  V30 355 H 35.925 -7.26402 -2.63743 0
M  V30 356 H 34.27 -6.53035 -2.37844 0
M  V30 357 H 37.461 -4.29065 -1.87139 0
M  V30 358 H 37.634 -6.03612 -2.35704 0
M  V30 359 N 31.0401 0.771051 -1.3745 0
M  V30 360 C 32.4511 1.34737 -1.29239 0
M  V30 361 C 32.8021 1.96109 0.0596908 0
M  V30 362 O 31.9271 1.93865 0.961534 0
M  V30 363 C 32.5221 2.44973 -2.34037 0
M  V30 364 C 31.0811 2.98372 -2.29458 0
M  V30 365 C 30.2281 1.71595 -2.17831 0
M  V30 366 H 33.1791 0.571256 -1.48062 0
M  V30 367 H 33.2001 3.24471 -1.98744 0
M  V30 368 H 32.7121 2.00276 -3.32432 0
M  V30 369 H 30.8131 3.47443 -1.34589 0
M  V30 370 H 30.9261 3.53939 -3.229 0
M  V30 371 H 29.2901 1.94547 -1.64388 0
M  V30 372 H 30.0731 1.29001 -3.18141 0
M  V30 373 N 32.5182 1.22032 0.997298 0
M  V30 374 C 33.7672 1.03637 1.73038 0
M  V30 375 C 34.0802 -0.429475 1.90827 0
M  V30 376 O 35.2862 -0.732995 2.61418 0
M  V30 377 C 33.7422 1.80582 3.11317 0
M  V30 378 C 33.3502 3.31387 3.01474 0
M  V30 379 C 35.0942 1.70621 3.88701 0
M  V30 380 C 33.0012 4.00791 4.3488 0
M  V30 381 H 31.9312 0.384179 0.648785 0
M  V30 382 H 34.5822 1.4584 1.11368 0
M  V30 383 H 32.9642 1.31175 3.73643 0
M  V30 384 H 34.1382 3.88155 2.4834 0
M  V30 385 H 32.4532 3.41976 2.37575 0
M  V30 386 H 35.0502 2.19799 4.87434 0
M  V30 387 H 35.3932 0.665823 4.10941 0
M  V30 388 H 35.9262 2.17547 3.33044 0
M  V30 389 H 32.6652 5.05064 4.1784 0
M  V30 390 H 32.1852 3.48811 4.87945 0
M  V30 391 H 33.8642 4.06139 5.03647 0
M  V30 392 N 33.9963 -1.19345 1.0293 0
M  V30 393 C 34.9263 -2.2481 0.631105 0
M  V30 394 C 35.9073 -1.66245 -0.360104 0
M  V30 395 O 37.0923 -1.92677 -0.242726 0
M  V30 396 C 34.2223 -3.47295 -0.0184607 0
M  V30 397 C 33.1763 -4.18536 0.895073 0
M  V30 398 C 32.5023 -5.34586 0.110592 0
M  V30 399 C 33.8023 -4.73287 2.209 0
M  V30 400 H 35.4963 -2.58372 1.51275 0
M  V30 401 H 33.0423 -1.24194 0.728818 0
M  V30 402 H 34.9953 -4.20268 -0.308675 0
M  V30 403 H 33.7193 -3.12933 -0.934907 0
M  V30 404 H 32.3783 -3.47446 1.16949 0
M  V30 405 H 32.0263 -4.96469 -0.807902 0
M  V30 406 H 31.7263 -5.83183 0.719087 0
M  V30 407 H 33.2503 -6.10355 -0.172871 0
M  V30 408 H 34.6643 -5.38013 1.98028 0
M  V30 409 H 33.0613 -5.32373 2.76946 0
M  V30 410 H 34.1313 -3.91331 2.86336 0
M  V30 411 N 35.4744 -0.807222 -1.35358 0
M  V30 412 C 36.8904 -0.491038 -1.51858 0
M  V30 413 C 37.0904 0.987648 -1.75635 0
M  V30 414 O 36.1464 1.77265 -1.79815 0
M  V30 415 C 37.4594 -1.33695 -2.69344 0
M  V30 416 C 39.0074 -1.33246 -2.83222 0
M  V30 417 C 39.4824 -2.1625 -4.03733 0
M  V30 418 N 40.9734 -2.1379 -4.10911 0
M  V30 419 C 41.7084 -2.74772 -5.03277 0
M  V30 420 N 41.2044 -3.44684 -6.0097 0
M  V30 421 N 42.9974 -2.6441 -4.96028 0
M  V30 422 H 35.1484 -1.76485 -1.18181 0
M  V30 423 H 37.4114 -0.751199 -0.578276 0
M  V30 424 H 37.1174 -2.38634 -2.58354 0
M  V30 425 H 36.9914 -0.990618 -3.6396 0
M  V30 426 H 39.3784 -0.290911 -2.93663 0
M  V30 427 H 39.4594 -1.71866 -1.89461 0
M  V30 428 H 39.1034 -3.20445 -3.94052 0
M  V30 429 H 39.0334 -1.74989 -4.96675 0
M  V30 430 H 41.5244 -1.62923 -3.40976 0
M  V30 431 H 41.8374 -3.88501 -6.68047 0
M  V30 432 H 40.1824 -3.48788 -6.01142 0
M  V30 433 H 43.3734 -2.0938 -4.18662 0
M  V30 434 H 43.5464 -3.12225 -5.6782 0
M  V30 435 N 36.9525 1.47285 -0.560781 0
M  V30 436 C 37.8995 2.30058 0.18491 0
M  V30 437 C 38.8695 1.39281 0.904986 0
M  V30 438 O 40.0545 1.68241 0.899979 0
M  V30 439 C 37.1945 3.23317 1.20666 0
M  V30 440 C 36.3075 4.29186 0.492285 0
M  V30 441 C 35.4425 5.09592 1.49964 0
M  V30 442 C 34.4815 6.07232 0.770439 0
M  V30 443 N 33.6185 6.80584 1.72479 0
M  V30 444 H 38.4585 2.93302 -0.527048 0
M  V30 445 H 35.9955 1.44568 -0.271738 0
M  V30 446 H 37.9535 3.75811 1.81168 0
M  V30 447 H 36.5835 2.61929 1.88661 0
M  V30 448 H 35.6355 3.7972 -0.227333 0
M  V30 449 H 36.9475 4.98738 -0.0787929 0
M  V30 450 H 36.1015 5.66254 2.17809 0
M  V30 451 H 34.8405 4.3995 2.10464 0
M  V30 452 H 33.8455 5.49745 0.0780846 0
M  V30 453 H 35.0705 6.78884 0.171134 0
M  V30 454 H 33.0165 6.1367 2.3183 0
M  V30 455 H 32.9335 7.46319 1.20596 0
M  V30 456 H 34.2015 7.41818 2.39428 0
M  V30 457 N 38.4306 0.297415 1.54768 0
M  V30 458 C 39.6786 -0.312295 1.99673 0
M  V30 459 C 39.9996 -1.54686 1.18732 0
M  V30 460 O 39.2696 -1.93854 0.282382 0
M  V30 461 H 37.8496 -0.118381 0.73756 0
M  V30 462 H 40.5116 0.407915 1.90583 0
M  V30 463 H 39.6076 -0.586813 3.06534 0
M  V30 464 N 39.9087 -1.5758 0.0250728 0
M  V30 465 C 41.1387 -1.95646 -0.663783 0
M  V30 466 C 41.5467 -0.899935 -1.66427 0
M  V30 467 O 40.8897 0.127191 -1.83259 0
M  V30 468 C 40.9517 -3.29835 -1.43 0
M  V30 469 C 40.6157 -4.53197 -0.588305 0
M  V30 470 C 41.6127 -5.19726 0.13469 0
M  V30 471 C 39.2977 -4.99529 -0.526897 0
M  V30 472 C 41.2917 -6.30902 0.90781 0
M  V30 473 C 38.9787 -6.10589 0.24993 0
M  V30 474 C 39.9767 -6.76134 0.965994 0
M  V30 475 O 39.6647 -7.85062 1.7301 0
M  V30 476 H 39.3967 -0.649282 -0.188174 0
M  V30 477 H 41.9507 -2.05245 0.0799006 0
M  V30 478 H 40.1807 -3.16716 -2.21873 0
M  V30 479 H 41.8697 -3.52833 -2.00658 0
M  V30 480 H 42.6357 -4.84904 0.0965562 0
M  V30 481 H 38.5147 -4.48319 -1.07381 0
M  V30 482 H 42.0587 -6.81995 1.46724 0
M  V30 483 H 37.9557 -6.44849 0.289795 0
M  V30 484 H 38.7237 -8.01708 1.64944 0
M  V30 485 N 41.3868 0.248026 -1.55636 0
M  V30 486 C 42.8028 0.596483 -1.48035 0
M  V30 487 C 43.0028 1.88386 -0.715039 0
M  V30 488 O 42.0588 2.51319 -0.243944 0
M  V30 489 C 43.3718 0.700258 -2.92433 0
M  V30 490 C 44.9198 0.792659 -3.02797 0
M  V30 491 C 45.3948 0.928005 -4.485 0
M  V30 492 N 46.8858 0.992903 -4.52433 0
M  V30 493 C 47.6208 1.11687 -5.62418 0
M  V30 494 N 47.1168 1.20645 -6.82214 0
M  V30 495 N 48.9098 1.14994 -5.50212 0
M  V30 496 H 41.0608 -0.597109 -2.03834 0
M  V30 497 H 43.3238 -0.205925 -0.925364 0
M  V30 498 H 43.0298 -0.175658 -3.51261 0
M  V30 499 H 42.9038 1.57255 -3.42857 0
M  V30 500 H 45.2908 1.65903 -2.4405 0
M  V30 501 H 45.3718 -0.104762 -2.55585 0
M  V30 502 H 45.0158 0.0661971 -5.07857 0
M  V30 503 H 44.9458 1.84045 -4.93391 0
M  V30 504 H 47.4368 0.935064 -3.66149 0
M  V30 505 H 47.7498 1.30008 -7.61786 0
M  V30 506 H 46.0948 1.17605 -6.84977 0
M  V30 507 H 49.2858 1.07643 -4.55555 0
M  V30 508 H 49.4588 1.24311 -6.35965 0
M  V30 509 N 42.8649 1.48995 0.513639 0
M  V30 510 C 43.7969 1.60836 1.63293 0
M  V30 511 C 44.8099 0.491701 1.55197 0
M  V30 512 O 45.9989 0.763238 1.6136 0
M  V30 513 C 43.0989 1.53731 3.02027 0
M  V30 514 C 42.2719 2.80715 3.35437 0
M  V30 515 C 41.3309 2.66837 4.53525 0
M  V30 516 O 40.3569 3.40753 4.55934 0
M  V30 517 N 41.5589 1.77539 5.52684 0
M  V30 518 H 44.3239 2.57366 1.53566 0
M  V30 519 H 41.8849 1.45925 0.701259 0
M  V30 520 H 43.8769 1.42118 3.78926 0
M  V30 521 H 42.4469 0.651092 3.05744 0
M  V30 522 H 41.6669 3.06772 2.47557 0
M  V30 523 H 42.9549 3.64927 3.54551 0
M  V30 524 H 42.3529 1.16719 5.53528 0
M  V30 525 H 40.9099 1.71856 6.28736 0
M  V30 526 N 44.343 -0.763751 1.37857 0
M  V30 527 C 45.759 -1.06542 1.18832 0
M  V30 528 C 45.959 -2.01478 0.0299722 0
M  V30 529 O 45.015 -2.4458 -0.627447 0
M  V30 530 C 46.328 -1.65525 2.51042 0
M  V30 531 C 47.876 -1.77745 2.57635 0
M  V30 532 C 48.351 -2.4014 3.89996 0
M  V30 533 N 49.842 -2.47582 3.91481 0
M  V30 534 C 50.577 -2.96732 4.9065 0
M  V30 535 N 50.073 -3.45993 6.00217 0
M  V30 536 N 51.866 -2.95679 4.78048 0
M  V30 537 H 44.017 -0.133556 2.1198 0
M  V30 538 H 46.28 -0.121879 0.940133 0
M  V30 539 H 45.986 -1.03236 3.36207 0
M  V30 540 H 45.86 -2.64719 2.68707 0
M  V30 541 H 48.247 -2.39164 1.72872 0
M  V30 542 H 48.328 -0.772836 2.43846 0
M  V30 543 H 47.972 -1.79358 4.75177 0
M  V30 544 H 47.902 -3.41223 4.01092 0
M  V30 545 H 50.393 -2.1273 3.12337 0
M  V30 546 H 50.706 -3.81922 6.7183 0
M  V30 547 H 49.051 -3.44077 6.03851 0
M  V30 548 H 52.242 -2.56499 3.91568 0
M  V30 549 H 52.415 -3.33672 5.55488 0
M  V30 550 N 45.8211 -1.22559 -0.990812 0
M  V30 551 C 46.7511 -1.0218 -2.09956 0
M  V30 552 C 47.7321 0.0579394 -1.70001 0
M  V30 553 O 48.9171 -0.104684 -1.93918 0
M  V30 554 C 46.0471 -0.601023 -3.4206 0
M  V30 555 C 45.0011 -1.62694 -3.95872 0
M  V30 556 C 44.3271 -1.06193 -5.24049 0
M  V30 557 C 45.6271 -3.01743 -4.2632 0
M  V30 558 H 47.3211 -1.94916 -2.27262 0
M  V30 559 H 44.8671 -0.938566 -1.09211 0
M  V30 560 H 46.8201 -0.445561 -4.19038 0
M  V30 561 H 45.5441 0.362005 -3.24588 0
M  V30 562 H 44.2031 -1.77021 -3.21028 0
M  V30 563 H 43.8511 -0.0901903 -5.02919 0
M  V30 564 H 43.5511 -1.74732 -5.61019 0
M  V30 565 H 45.0751 -0.918092 -6.03658 0
M  V30 566 H 46.4891 -2.90777 -4.94087 0
M  V30 567 H 44.8861 -3.67425 -4.74467 0
M  V30 568 H 45.9561 -3.51518 -3.34011 0
M  V30 569 N 47.2992 1.18797 -1.03562 0
M  V30 570 C 48.2092 2.25913 -0.632505 0
M  V30 571 C 49.2252 1.70668 0.338882 0
M  V30 572 O 50.4012 2.00453 0.195076 0
M  V30 573 C 47.4662 3.467 0.00350942 0
M  V30 574 C 46.5272 4.17098 -1.01624 0
M  V30 575 C 45.7602 5.32119 -0.410478 0
M  V30 576 O 45.9832 5.64976 0.784725 0
M  V30 577 O 44.9172 5.9107 -1.13667 0
M  V30 578 H 48.7432 2.62648 -1.52478 0
M  V30 579 H 46.3282 1.25781 -0.806195 0
M  V30 580 H 48.2102 4.19878 0.35781 0
M  V30 581 H 46.8852 3.11798 0.869686 0
M  V30 582 H 45.7922 3.4601 -1.42224 0
M  V30 583 H 47.1252 4.55987 -1.85301 0
M  V30 584 N 48.7773 0.814389 1.34928 0
M  V30 585 C 49.7073 0.244827 2.32213 0
M  V30 586 C 50.6883 -0.634024 1.57842 0
M  V30 587 O 51.8733 -0.562676 1.8587 0
M  V30 588 C 49.0033 -0.601106 3.42058 0
M  V30 589 C 47.9573 0.179896 4.27622 0
M  V30 590 C 47.2833 -0.788237 5.28858 0
M  V30 591 C 48.5833 1.38329 5.03649 0
M  V30 592 H 50.2773 1.05763 2.80097 0
M  V30 593 H 47.8233 0.510029 1.34665 0
M  V30 594 H 49.7763 -1.00968 4.09125 0
M  V30 595 H 48.5003 -1.44688 2.92802 0
M  V30 596 H 47.1593 0.569739 3.62146 0
M  V30 597 H 46.8073 -1.62973 4.75866 0
M  V30 598 H 46.5073 -0.269942 5.8698 0
M  V30 599 H 48.0313 -1.19485 5.98795 0
M  V30 600 H 49.4453 1.04918 5.63618 0
M  V30 601 H 47.8423 1.83662 5.71304 0
M  V30 602 H 48.9123 2.16592 4.33839 0
M  V30 603 N 50.2554 -1.46986 0.568584 0
M  V30 604 C 51.4804 -2.07335 0.0520528 0
M  V30 605 C 51.9054 -1.41675 -1.23733 0
M  V30 606 O 51.2634 -0.495623 -1.74394 0
M  V30 607 C 51.3114 -3.60417 -0.11501 0
M  V30 608 O 50.4154 -3.95309 -1.17492 0
M  V30 609 H 49.7564 -0.661597 0.0564385 0
M  V30 610 H 52.2864 -1.88837 0.787507 0
M  V30 611 H 52.2964 -4.06698 -0.325644 0
M  V30 612 H 50.9714 -4.07601 0.826675 0
M  V30 613 H 49.5484 -3.60757 -0.943869 0
M  V30 614 N 51.7335 -0.305618 -1.54608 0
M  V30 615 C 53.0105 0.355652 -1.92339 0
M  V30 616 C 53.3905 1.71324 -1.23335 0
M  V30 617 O 52.7385 2.25473 -0.370702 0
M  V30 618 C 52.9485 0.46572 -3.45879 0
M  V30 619 C 54.2965 0.734426 -4.182 0
M  V30 620 O 55.3205 0.54935 -3.51938 0
M  V30 621 O 54.1795 1.09024 -5.35515 0
M  V30 622 H 51.2735 0.199666 -0.802535 0
M  V30 623 H 53.8195 -0.354017 -1.65966 0
M  V30 624 H 52.5915 -0.488461 -3.88239 0
M  V30 625 H 52.2145 1.22367 -3.78301 0
M  V30 626 N 53.2116 1.57565 -0.0334293 0
M  V30 627 C 54.4606 1.91155 0.643639 0
M  V30 628 C 54.7736 0.91192 1.73042 0
M  V30 629 O 55.9796 1.13923 2.46442 0
M  V30 630 C 54.4356 3.39443 1.1961 0
M  V30 631 C 54.0436 4.47774 0.142381 0
M  V30 632 C 55.7876 3.82094 1.84944 0
M  V30 633 C 53.6946 5.87162 0.706727 0
M  V30 634 H 52.6246 0.713368 0.244176 0
M  V30 635 H 55.2756 1.8323 -0.0994323 0
M  V30 636 H 53.6576 3.42313 1.99092 0
M  V30 637 H 54.8316 4.56469 -0.630296 0
M  V30 638 H 53.1466 4.14352 -0.412446 0
M  V30 639 H 55.7436 4.83591 2.2813 0
M  V30 640 H 56.0866 3.17386 2.69392 0
M  V30 641 H 56.6196 3.81665 1.12145 0
M  V30 642 H 53.3586 6.55424 -0.0997178 0
M  V30 643 H 52.8786 5.82064 1.44779 0
M  V30 644 H 54.5576 6.35866 1.19514 0
M  V30 645 N 54.6897 -0.239769 1.55765 0
M  V30 646 C 55.9197 -0.982743 1.8173 0
M  V30 647 C 56.3277 -1.7917 0.607835 0
M  V30 648 O 55.6707 -1.78525 -0.432973 0
M  V30 649 C 55.7327 -1.96332 3.01155 0
M  V30 650 C 55.3967 -1.34062 4.36894 0
M  V30 651 C 56.3937 -0.739539 5.14613 0
M  V30 652 C 54.0787 -1.35784 4.83599 0
M  V30 653 C 56.0727 -0.163989 6.37189 0
M  V30 654 C 53.7597 -0.778441 6.06122 0
M  V30 655 C 54.7577 -0.182548 6.82756 0
M  V30 656 O 54.4457 0.387887 8.02964 0
M  V30 657 H 54.1777 -0.294481 0.608487 0
M  V30 658 H 56.7317 -0.26572 2.03674 0
M  V30 659 H 54.9617 -2.71884 2.74984 0
M  V30 660 H 56.6507 -2.57032 3.14149 0
M  V30 661 H 57.4167 -0.718687 4.79646 0
M  V30 662 H 53.2957 -1.81105 4.23936 0
M  V30 663 H 56.8397 0.301753 6.96947 0
M  V30 664 H 52.7367 -0.796645 6.40565 0
M  V30 665 H 53.5047 0.28044 8.18019 0
M  V30 666 N 56.1678 -1.49265 -0.50573 0
M  V30 667 C 57.0998 -1.617 -1.62437 0
M  V30 668 C 58.1128 -0.499924 -1.54934 0
M  V30 669 O 59.3018 -0.771785 -1.60953 0
M  V30 670 C 56.4018 -1.5533 -3.01207 0
M  V30 671 C 55.5748 -2.8249 -3.33943 0
M  V30 672 C 54.6338 -2.69238 -4.52103 0
M  V30 673 O 53.6598 -3.43167 -4.5412 0
M  V30 674 N 54.8618 -1.80468 -5.51735 0
M  V30 675 H 57.6268 -2.58177 -1.52199 0
M  V30 676 H 55.1878 -1.46294 -0.693511 0
M  V30 677 H 57.1798 -1.44125 -3.78167 0
M  V30 678 H 55.7498 -0.667297 -3.05395 0
M  V30 679 H 54.9698 -3.08081 -2.45926 0
M  V30 680 H 56.2578 -3.66802 -3.5261 0
M  V30 681 H 55.6558 -1.19653 -5.52901 0
M  V30 682 H 54.2128 -1.75188 -6.27816 0
M  V30 683 N 57.6459 0.756429 -1.3826 0
M  V30 684 C 58.8949 1.51082 -1.3363 0
M  V30 685 C 59.2079 1.95467 0.0720068 0
M  V30 686 O 60.4139 2.7043 0.240834 0
M  V30 687 C 58.8699 2.72893 -2.34644 0
M  V30 688 C 58.4779 2.35544 -3.81081 0
M  V30 689 C 60.2219 3.50791 -2.39052 0
M  V30 690 C 58.1289 3.53948 -4.73787 0
M  V30 691 H 57.0589 0.56727 -0.49671 0
M  V30 692 H 59.7099 0.827147 -1.638 0
M  V30 693 H 58.0919 3.43227 -1.97513 0
M  V30 694 H 59.2659 1.72894 -4.27135 0
M  V30 695 H 57.5809 1.70786 -3.79764 0
M  V30 696 H 60.1779 4.38823 -3.05513 0
M  V30 697 H 60.5209 3.91745 -1.40861 0
M  V30 698 H 61.0539 2.87467 -2.74968 0
M  V30 699 H 57.7929 3.18064 -5.73163 0
M  V30 700 H 57.3129 4.15651 -4.32428 0
M  V30 701 H 58.9919 4.20566 -4.91663 0
M  V30 702 N 59.124 1.23083 0.984299 0
M  V30 703 C 60.535 1.05609 1.5396 0
M  V30 704 C 60.886 -0.377793 1.92528 0
M  V30 705 O 60.011 -1.26398 1.75649 0
M  V30 706 C 60.606 1.91087 2.7977 0
M  V30 707 C 59.165 1.77885 3.31713 0
M  V30 708 C 58.312 1.87028 2.04733 0
M  V30 709 H 61.263 1.36802 0.804419 0
M  V30 710 H 61.284 1.43336 3.5247 0
M  V30 711 H 60.796 2.9544 2.51668 0
M  V30 712 H 58.897 0.762995 3.64704 0
M  V30 713 H 59.01 2.61047 4.01735 0
M  V30 714 H 57.374 1.30565 2.18689 0
M  V30 715 H 58.157 2.92929 1.79017 0
M  V30 716 N 60.6021 -1.18246 1.0419 0
M  V30 717 C 61.8271 -1.92736 0.765996 0
M  V30 718 C 62.2521 -1.75728 -0.67091 0
M  V30 719 O 61.6101 -1.06825 -1.46486 0
M  V30 720 C 61.6581 -3.42148 1.13875 0
M  V30 721 O 60.7621 -4.11548 0.264954 0
M  V30 722 H 60.1031 -0.601238 0.281797 0
M  V30 723 H 62.6331 -1.49942 1.39207 0
M  V30 724 H 62.6431 -3.92858 1.1012 0
M  V30 725 H 61.3181 -3.53848 2.18551 0
M  V30 726 H 59.8951 -3.71137 0.362226 0
M  V30 727 N 62.0802 -0.821533 -1.34494 0
M  V30 728 C 63.3262 -0.409552 -1.98622 0
M  V30 729 C 63.6592 1.0244 -1.64984 0
M  V30 730 O 62.9342 1.71325 -0.920758 0
M  V30 731 C 63.2172 -0.610458 -3.54888 0
M  V30 732 C 63.0702 -2.09043 -3.98273 0
M  V30 733 C 64.3892 -0.0455379 -4.40076 0
M  V30 734 H 61.5082 -0.15028 -0.721516 0
M  V30 735 H 64.1502 -1.03384 -1.59411 0
M  V30 736 H 62.3002 -0.079044 -3.8842 0
M  V30 737 H 63.9722 -2.68537 -3.75081 0
M  V30 738 H 62.2152 -2.58139 -3.48635 0
M  V30 739 H 62.8862 -2.18182 -5.07051 0
M  V30 740 H 65.3622 -0.499557 -4.1309 0
M  V30 741 H 64.2382 -0.215922 -5.48475 0
M  V30 742 H 64.4992 1.04939 -4.29465 0
M  V30 743 N 63.5583 1.46682 -0.576371 0
M  V30 744 C 64.8353 1.95599 0.00703437 0
M  V30 745 C 65.2153 1.51904 1.46589 0
M  V30 746 O 64.5633 0.766755 2.15251 0
M  V30 747 C 64.7733 3.4864 -0.158404 0
M  V30 748 C 66.1213 4.24594 -0.0229439 0
M  V30 749 O 67.1453 3.56094 -0.0869173 0
M  V30 750 O 66.0043 5.46373 0.118015 0
M  V30 751 H 63.0983 0.825275 0.053384 0
M  V30 752 H 65.6443 1.56996 -0.644244 0
M  V30 753 H 64.4163 3.7331 -1.17282 0
M  V30 754 H 64.0393 3.94057 0.5296 0
M  V30 755 N 65.0364 0.313813 1.54444 0
M  V30 756 C 66.2614 -0.296681 2.05267 0
M  V30 757 C 66.6864 -1.45757 1.18897 0
M  V30 758 O 66.0444 -1.80239 0.195886 0
M  V30 759 C 66.0924 -0.71831 3.53373 0
M  V30 760 O 65.1964 -1.82175 3.69981 0
M  V30 761 H 64.5374 -0.0554061 0.661684 0
M  V30 762 H 67.0674 0.459387 1.99376 0
M  V30 763 H 67.0774 -1.00364 3.95463 0
M  V30 764 H 65.7524 0.130821 4.15694 0
M  V30 765 H 64.3294 -1.53598 3.39797 0
M  V30 766 N 66.5145 -1.57545 0.0417849 0
M  V30 767 C 67.4775 -2.09885 -0.92093 0
M  V30 768 C 68.4775 -1.01648 -1.24596 0
M  V30 769 O 69.6675 -1.27759 -1.1842 0
M  V30 770 C 66.7995 -2.57527 -2.23367 0
M  V30 771 H 67.9925 -2.96236 -0.467382 0
M  V30 772 H 65.5455 -1.5493 -0.206467 0
M  V30 773 H 66.2805 -1.74542 -2.73323 0
M  V30 774 H 66.0655 -3.36613 -2.01083 0
M  V30 775 H 67.5555 -2.98201 -2.92346 0
M  V30 776 N 67.9926 0.231505 -1.5589 0
M  V30 777 C 69.2696 0.981096 -1.69215 0
M  V30 778 C 69.6496 2.02799 -0.586164 0
M  V30 779 O 68.9976 2.24823 0.408253 0
M  V30 780 C 69.2076 1.60054 -3.10135 0
M  V30 781 C 70.5556 2.09658 -3.69227 0
M  V30 782 O 71.5796 1.69967 -3.13033 0
M  V30 783 O 70.4386 2.8258 -4.67772 0
M  V30 784 H 67.5326 0.457653 -0.688827 0
M  V30 785 H 70.0786 0.224073 -1.68214 0
M  V30 786 H 68.8506 0.844105 -3.82087 0
M  V30 787 H 68.4736 2.42336 -3.15212 0
M  V30 788 N 69.4707 1.49531 0.497807 0
M  V30 789 C 70.4187 1.66926 1.61983 0
M  V30 790 C 71.4127 0.535167 1.60724 0
M  V30 791 O 72.6187 0.714896 1.65195 0
M  V30 792 H 68.9937 0.526415 0.537021 0
M  V30 793 H 70.9647 2.61098 1.44465 0
M  V30 794 C 69.7137 1.75602 3.00099 0
M  V30 795 H 69.0367 2.62244 3.01775 0
M  V30 796 H 70.4767 1.91807 3.78135 0
M  V30 797 C 68.9357 0.501543 3.33146 0
M  V30 798 O 69.4657 -0.371342 3.9998 0
M  V30 799 N 67.6717 0.363531 2.88317 0
M  V30 800 H 67.2187 1.07485 2.34104 0
M  V30 801 H 67.1767 -0.474728 3.10795 0
M  V30 802 N 70.9488 -0.749086 1.3866 0
M  V30 803 C 71.8788 -1.8764 1.38973 0
M  V30 804 C 72.8598 -1.68178 0.255004 0
M  V30 805 O 74.0448 -1.88704 0.458754 0
M  V30 806 C 71.1748 -3.25222 1.21851 0
M  V30 807 C 70.1288 -3.59295 2.32575 0
M  V30 808 C 69.4548 -4.95663 2.00555 0
M  V30 809 C 70.7548 -3.63709 3.7485 0
M  V30 810 H 72.4488 -1.87635 2.3331 0
M  V30 811 H 69.9948 -0.901329 1.12303 0
M  V30 812 H 71.9478 -4.03746 1.20695 0
M  V30 813 H 70.6718 -3.25719 0.239775 0
M  V30 814 H 69.3308 -2.83093 2.32925 0
M  V30 815 H 68.9788 -4.92724 1.01154 0
M  V30 816 H 68.6788 -5.19429 2.74714 0
M  V30 817 H 70.2028 -5.7656 2.01024 0
M  V30 818 H 71.6168 -4.32338 3.76506 0
M  V30 819 H 70.0138 -3.98986 4.48252 0
M  V30 820 H 71.0838 -2.63834 4.06841 0
M  V30 821 N 72.4269 -1.23603 -0.977757 0
M  V30 822 C 73.6519 -1.09735 -1.75991 0
M  V30 823 C 74.0769 0.346858 -1.84874 0
M  V30 824 O 73.4349 1.25093 -1.3123 0
M  V30 825 C 73.4829 -1.73051 -3.16363 0
M  V30 826 O 72.5869 -0.994452 -4.0023 0
M  V30 827 H 71.9279 -0.384476 -0.541364 0
M  V30 828 H 74.4579 -1.6371 -1.2272 0
M  V30 829 H 74.4679 -1.78398 -3.66931 0
M  V30 830 H 73.1429 -2.78137 -3.09213 0
M  V30 831 H 71.7199 -1.01812 -3.58732 0
M  V30 832 N 73.905 1.17692 -1.04816 0
M  V30 833 C 74.815 2.25229 -0.65643 0
M  V30 834 C 75.831 1.71018 0.320761 0
M  V30 835 O 77.007 2.00649 0.173805 0
M  V30 836 C 74.072 3.46684 -0.0332629 0
M  V30 837 C 73.133 4.15997 -1.06042 0
M  V30 838 C 72.366 5.31654 -0.466893 0
M  V30 839 O 72.589 5.65777 0.724758 0
M  V30 840 O 71.523 5.89831 -1.1993 0
M  V30 841 H 75.349 2.61016 -1.55255 0
M  V30 842 H 72.934 1.24919 -0.81949 0
M  V30 843 H 74.816 4.20234 0.313256 0
M  V30 844 H 73.491 3.12703 0.836566 0
M  V30 845 H 72.398 3.44482 -1.45886 0
M  V30 846 H 73.731 4.53996 -1.90127 0
M  V30 847 N 75.3831 0.828654 1.34056 0
M  V30 848 C 76.3301 0.252567 2.29414 0
M  V30 849 C 77.3001 -0.62588 1.53857 0
M  V30 850 O 78.4851 -0.566312 1.82202 0
M  V30 851 C 75.6251 -0.574831 3.40279 0
M  V30 852 C 74.7381 0.326499 4.30764 0
M  V30 853 C 73.8731 -0.511016 5.28736 0
M  V30 854 C 72.9121 0.389342 6.1086 0
M  V30 855 N 72.0491 -0.409439 7.00905 0
M  V30 856 H 76.8891 1.07108 2.78086 0
M  V30 857 H 74.4261 0.539677 1.36843 0
M  V30 858 H 76.3841 -1.06992 4.03248 0
M  V30 859 H 75.0141 -1.35841 2.92826 0
M  V30 860 H 74.0661 0.939837 3.68607 0
M  V30 861 H 75.3781 1.01857 4.88289 0
M  V30 862 H 74.5321 -1.07035 5.97184 0
M  V30 863 H 73.2711 -1.23657 4.71763 0
M  V30 864 H 72.2761 0.960769 5.4134 0
M  V30 865 H 73.5011 1.1131 6.69916 0
M  V30 866 H 71.4471 -1.11856 6.46393 0
M  V30 867 H 71.3641 0.224126 7.55668 0
M  V30 868 H 72.6321 -0.951336 7.73673 0
M  V30 869 N 76.8612 -1.46375 0.584142 0
M  V30 870 C 77.7912 -2.33103 -0.136037 0
M  V30 871 C 78.7722 -1.45431 -0.882255 0
M  V30 872 O 79.9572 -1.74246 -0.857434 0
M  V30 873 C 77.0872 -3.27731 -1.14933 0
M  V30 874 C 76.0412 -4.24855 -0.517862 0
M  V30 875 C 75.3672 -5.09001 -1.63773 0
M  V30 876 C 76.6672 -5.19439 0.545886 0
M  V30 877 H 78.3612 -2.93568 0.588086 0
M  V30 878 H 75.9072 -1.41166 0.284259 0
M  V30 879 H 77.8602 -3.87261 -1.66153 0
M  V30 880 H 76.5842 -2.65377 -1.90375 0
M  V30 881 H 75.2432 -3.6659 -0.0267361 0
M  V30 882 H 74.8912 -4.43031 -2.38185 0
M  V30 883 H 74.5912 -5.74777 -1.22085 0
M  V30 884 H 76.1152 -5.71396 -2.15266 0
M  V30 885 H 77.5292 -5.73177 0.118704 0
M  V30 886 H 75.9262 -5.93566 0.88317 0
M  V30 887 H 76.9962 -4.63285 1.43162 0
M  V30 888 N 78.3393 -0.321999 -1.54275 0
M  V30 889 C 79.2493 0.553631 -2.27974 0
M  V30 890 C 80.2653 1.13054 -1.32268 0
M  V30 891 O 81.4413 1.15084 -1.6528 0
M  V30 892 C 78.5063 1.69927 -3.02201 0
M  V30 893 C 77.5673 1.15433 -4.1349 0
M  V30 894 C 76.8003 2.24537 -4.84168 0
M  V30 895 O 77.0233 3.44852 -4.5435 0
M  V30 896 O 75.9573 1.90044 -5.7111 0
M  V30 897 H 79.7833 -0.0448345 -3.03667 0
M  V30 898 H 77.3683 -0.0877418 -1.49142 0
M  V30 899 H 79.2503 2.3663 -3.48689 0
M  V30 900 H 77.9253 2.28395 -2.29385 0
M  V30 901 H 76.8323 0.452436 -3.71354 0
M  V30 902 H 78.1653 0.614805 -4.88345 0
M  V30 903 N 79.8174 1.5752 -0.0501392 0
M  V30 904 C 81.2334 1.56631 0.306402 0
M  V30 905 C 81.4334 1.0577 1.71508 0
M  V30 906 O 80.4894 0.713837 2.422 0
M  V30 907 C 81.8024 3.00393 0.135811 0
M  V30 908 C 83.3504 3.12315 0.206993 0
M  V30 909 C 83.8254 4.57954 0.064944 0
M  V30 910 N 85.3164 4.63041 0.121254 0
M  V30 911 C 86.0514 5.73389 0.0354381 0
M  V30 912 N 85.5474 6.92724 -0.102666 0
M  V30 913 N 87.3404 5.62026 0.090946 0
M  V30 914 H 79.4914 1.88903 -0.971046 0
M  V30 915 H 81.7544 0.869876 -0.376855 0
M  V30 916 H 81.4604 3.41635 -0.835384 0
M  V30 917 H 81.3344 3.66373 0.897275 0
M  V30 918 H 83.7214 2.70973 1.16866 0
M  V30 919 H 83.8024 2.49016 -0.585208 0
M  V30 920 H 83.4464 4.99981 -0.893394 0
M  V30 921 H 83.3764 5.19258 0.876277 0
M  V30 922 H 85.8674 3.77216 0.227284 0
M  V30 923 H 86.1804 7.72633 -0.160882 0
M  V30 924 H 84.5254 6.94864 -0.137737 0
M  V30 925 H 87.7164 4.67684 0.197388 0
M  V30 926 H 87.8894 6.47997 0.0206089 0
M  V30 927 N 81.2955 -0.223234 1.56011 0
M  V30 928 C 82.2055 -1.29766 1.95443 0
M  V30 929 C 83.2215 -1.51373 0.858028 0
M  V30 930 O 84.3975 -1.64536 1.16146 0
M  V30 931 C 81.4625 -2.62772 2.26167 0
M  V30 932 C 80.5235 -2.49482 3.49367 0
M  V30 933 C 79.7565 -3.76145 3.78616 0
M  V30 934 O 79.9795 -4.79087 3.09568 0
M  V30 935 O 78.9135 -3.73358 4.72109 0
M  V30 936 H 82.7395 -0.99309 2.87004 0
M  V30 937 H 80.3245 -0.425958 1.43199 0
M  V30 938 H 82.2065 -3.41327 2.47131 0
M  V30 939 H 80.8815 -2.92913 1.37781 0
M  V30 940 H 79.7885 -1.69133 3.33684 0
M  V30 941 H 81.1215 -2.2428 4.38131 0
M  V30 942 N 82.7736 -1.49793 -0.48987 0
M  V30 943 C 84.0196 -1.61049 -1.24236 0
M  V30 944 C 84.3746 -0.298412 -1.90072 0
M  V30 945 O 83.6676 0.702262 -1.78266 0
M  V30 946 C 83.8616 -2.71488 -2.32441 0
M  V30 947 C 83.6906 -4.13308 -1.77218 0
M  V30 948 C 82.4606 -4.79955 -1.58023 0
M  V30 949 C 84.6586 -4.98176 -1.27772 0
M  V30 950 N 82.6406 -6.06052 -0.978465 0
M  V30 951 C 84.0116 -6.14843 -0.798 0
M  V30 952 C 86.0666 -4.84091 -1.16449 0
M  V30 953 C 84.7696 -7.18975 -0.216245 0
M  V30 954 C 86.7956 -5.88382 -0.596698 0
M  V30 955 C 86.1576 -7.04285 -0.127262 0
M  V30 956 H 82.2566 -0.643611 -0.444172 0
M  V30 957 H 84.8406 -1.86842 -0.54754 0
M  V30 958 H 83.0116 -2.47449 -2.99372 0
M  V30 959 H 84.7436 -2.72205 -2.99477 0
M  V30 960 H 81.4986 -4.36936 -1.82712 0
M  V30 961 H 81.9226 -6.73407 -0.696534 0
M  V30 962 H 86.5646 -3.94786 -1.5134 0
M  V30 963 H 84.2826 -8.0797 0.144903 0
M  V30 964 H 87.8686 -5.79545 -0.511716 0
M  V30 965 H 86.7486 -7.83606 0.30523 0
M  V30 966 N 84.2517 0.741722 -1.39055 0
M  V30 967 C 85.5287 1.49252 -1.26425 0
M  V30 968 C 85.9087 2.10705 0.129144 0
M  V30 969 O 85.2567 1.98045 1.13976 0
M  V30 970 C 85.4667 2.54934 -2.38347 0
M  V30 971 C 86.8147 3.21506 -2.77343 0
M  V30 972 O 87.8387 2.65245 -2.37747 0
M  V30 973 O 86.6977 4.23294 -3.45665 0
M  V30 974 H 83.7917 0.662451 -0.495064 0
M  V30 975 H 86.3377 0.776121 -1.50912 0
M  V30 976 H 85.1097 2.07857 -3.31529 0
M  V30 977 H 84.7327 3.34141 -2.15489 0
M  V30 978 N 85.7298 1.2412 0.971189 0
M  V30 979 C 87.1458 1.00584 1.23916 0
M  V30 980 C 87.3458 -0.287481 1.99439 0
M  V30 981 O 86.4018 -1.00454 2.31658 0
M  V30 982 C 87.7148 2.21864 2.0297 0
M  V30 983 C 89.2628 2.26452 2.16076 0
M  V30 984 C 89.7378 3.47343 2.98524 0
M  V30 985 N 91.2288 3.47639 3.06107 0
M  V30 986 C 91.9638 4.37837 3.70251 0
M  V30 987 N 91.4598 5.38286 4.36142 0
M  V30 988 N 93.2528 4.25558 3.67228 0
M  V30 989 H 85.4038 2.07236 0.465499 0
M  V30 990 H 87.6668 0.909236 0.268315 0
M  V30 991 H 87.3728 3.15771 1.54861 0
M  V30 992 H 87.2468 2.23698 3.03709 0
M  V30 993 H 89.6338 1.33078 2.6339 0
M  V30 994 H 89.7148 2.28645 1.14696 0
M  V30 995 H 89.3588 4.41029 2.51905 0
M  V30 996 H 89.2888 3.42393 4.00093 0
M  V30 997 H 91.7798 2.74966 2.59233 0
M  V30 998 H 92.0928 6.03352 4.82894 0
M  V30 999 H 90.4378 5.42176 4.34822 0
M  V30 1000 H 93.6288 3.46322 3.14927 0
M  V30 1001 H 93.8018 4.96054 4.16935 0
M  V30 1002 N 87.2079 -1.17134 1.05439 0
M  V30 1003 C 88.1179 -2.24878 0.668365 0
M  V30 1004 C 89.1339 -1.71186 -0.311687 0
M  V30 1005 O 90.3099 -2.00738 -0.163161 0
M  V30 1006 C 87.3749 -3.46662 0.051648 0
M  V30 1007 C 86.4359 -4.15429 1.08246 0
M  V30 1008 C 85.6689 -5.31399 0.495082 0
M  V30 1009 O 85.8919 -5.66153 -0.694743 0
M  V30 1010 O 84.8259 -5.89187 1.23056 0
M  V30 1011 H 88.6519 -2.60189 1.56637 0
M  V30 1012 H 86.2369 -1.24482 0.826104 0
M  V30 1013 H 88.1189 -4.20394 -0.290966 0
M  V30 1014 H 86.7939 -3.13142 -0.819971 0
M  V30 1015 H 85.7009 -3.43704 1.47711 0
M  V30 1016 H 87.0339 -4.52982 1.92532 0
M  V30 1017 N 88.686 -0.835752 -1.33615 0
M  V30 1018 C 89.616 -0.281739 -2.31794 0
M  V30 1019 C 90.597 0.608833 -1.58831 0
M  V30 1020 O 91.782 0.533035 -1.86741 0
M  V30 1021 C 88.912 0.546612 -3.42971 0
M  V30 1022 C 87.866 -0.247904 -4.27281 0
M  V30 1023 C 87.192 0.704001 -5.30045 0
M  V30 1024 C 88.492 -1.46324 -5.01385 0
M  V30 1025 H 90.186 -1.10206 -2.78379 0
M  V30 1026 H 87.732 -0.531388 -1.33837 0
M  V30 1027 H 89.685 0.944467 -4.1068 0
M  V30 1028 H 88.409 1.40011 -2.95067 0
M  V30 1029 H 87.068 -0.627281 -3.61194 0
M  V30 1030 H 86.716 1.55381 -4.78399 0
M  V30 1031 H 86.416 0.176524 -5.87335 0
M  V30 1032 H 87.94 1.09944 -6.0062 0
M  V30 1033 H 89.354 -1.13871 -5.61877 0
M  V30 1034 H 87.751 -1.92728 -5.6831 0
M  V30 1035 H 88.821 -2.23467 -4.30338 0
M  V30 1036 N 90.1641 1.46063 -0.591896 0
M  V30 1037 C 91.1271 2.28854 0.125973 0
M  V30 1038 C 92.1271 1.38903 0.810107 0
M  V30 1039 O 93.3171 1.61186 0.66066 0
M  V30 1040 C 90.4491 3.19526 1.1881 0
M  V30 1041 H 91.6421 2.93802 -0.601717 0
M  V30 1042 H 89.1951 1.52325 -0.350254 0
M  V30 1043 H 89.9301 2.59345 1.94707 0
M  V30 1044 H 89.7151 3.85766 0.701936 0
M  V30 1045 H 91.2051 3.81817 1.69132 0
M  V30 1046 N 91.6422 0.330177 1.54103 0
M  V30 1047 C 92.8672 -0.274893 2.0557 0
M  V30 1048 C 93.2922 -1.44487 1.20437 0
M  V30 1049 O 92.6502 -1.80021 0.214991 0
M  V30 1050 C 92.6982 -0.68079 3.54115 0
M  V30 1051 O 91.8022 -1.7824 3.71893 0
M  V30 1052 H 91.1432 -0.0483849 0.662235 0
M  V30 1053 H 93.6732 0.480508 1.98878 0
M  V30 1054 H 93.6832 -0.961635 3.96505 0
M  V30 1055 H 92.3582 0.174903 4.15532 0
M  V30 1056 H 90.9352 -1.49985 3.41407 0
M  V30 1057 N 93.1203 -1.57491 0.0584922 0
M  V30 1058 C 94.0673 -2.11958 -0.913376 0
M  V30 1059 C 95.0373 -1.02875 -1.30407 0
M  V30 1060 O 96.2223 -1.30464 -1.39226 0
M  V30 1061 C 93.3623 -2.67497 -2.18035 0
M  V30 1062 C 92.4753 -3.90691 -1.84349 0
M  V30 1063 C 91.6103 -4.3452 -3.05559 0
M  V30 1064 C 90.6493 -5.50395 -2.67827 0
M  V30 1065 N 89.7863 -5.89244 -3.81754 0
M  V30 1066 H 94.6263 -2.94704 -0.442017 0
M  V30 1067 H 92.1633 -1.45643 -0.206545 0
M  V30 1068 H 94.1213 -2.978 -2.92183 0
M  V30 1069 H 92.7513 -1.87537 -2.62735 0
M  V30 1070 H 91.8033 -3.66934 -1.00319 0
M  V30 1071 H 93.1153 -4.7489 -1.5258 0
M  V30 1072 H 92.2693 -4.66414 -3.87998 0
M  V30 1073 H 91.0083 -3.49147 -3.40511 0
M  V30 1074 H 90.0133 -5.18165 -1.83806 0
M  V30 1075 H 91.2383 -6.3749 -2.34059 0
M  V30 1076 H 89.1843 -5.06823 -4.16493 0
M  V30 1077 H 89.1013 -6.68151 -3.53708 0
M  V30 1078 H 90.3693 -6.25756 -4.64811 0
M  V30 1079 N 94.5984 0.214957 -1.56127 0
M  V30 1080 C 95.5454 1.26642 -1.92952 0
M  V30 1081 C 96.5154 1.46244 -0.78753 0
M  V30 1082 O 97.7004 1.59704 -1.04399 0
M  V30 1083 C 94.8404 2.6104 -2.25726 0
M  V30 1084 C 93.9534 2.49183 -3.52891 0
M  V30 1085 C 93.0884 3.76149 -3.7508 0
M  V30 1086 C 92.1274 3.59041 -4.95738 0
M  V30 1087 N 91.2644 4.77972 -5.14283 0
M  V30 1088 H 96.1044 0.945384 -2.82607 0
M  V30 1089 H 93.6414 0.455489 -1.3987 0
M  V30 1090 H 95.5994 3.39313 -2.42739 0
M  V30 1091 H 94.2294 2.91227 -1.39236 0
M  V30 1092 H 93.2814 1.6231 -3.44034 0
M  V30 1093 H 94.5934 2.32466 -4.41318 0
M  V30 1094 H 93.7474 4.62865 -3.92226 0
M  V30 1095 H 92.4864 3.95799 -2.84947 0
M  V30 1096 H 91.4914 2.7071 -4.78535 0
M  V30 1097 H 92.7164 3.40856 -5.87362 0
M  V30 1098 H 90.6624 4.97923 -4.27093 0
M  V30 1099 H 90.5794 4.64006 -5.96853 0
M  V30 1100 H 91.8474 5.66096 -5.35869 0
M  V30 1101 N 96.0765 1.50051 0.48192 0
M  V30 1102 C 97.0245 1.68635 1.60203 0
M  V30 1103 C 98.0185 0.552184 1.60148 0
M  V30 1104 O 99.2245 0.732377 1.64427 0
M  V30 1105 H 95.5995 0.532081 0.531407 0
M  V30 1106 H 97.5705 2.62616 1.41688 0
M  V30 1107 C 96.3195 1.78775 2.9822 0
M  V30 1108 H 95.6425 2.6543 2.98976 0
M  V30 1109 H 97.0825 1.95806 3.7608 0
M  V30 1110 C 95.5415 0.536849 3.32595 0
M  V30 1111 O 96.0715 -0.328897 4.00351 0
M  V30 1112 N 94.2775 0.394091 2.87915 0
M  V30 1113 H 93.8245 1.09962 2.32951 0
M  V30 1114 H 93.7825 -0.441737 3.11281 0
M  V30 1115 N 97.5546 -0.734337 1.39446 0
M  V30 1116 C 98.9656 -1.31264 1.32766 0
M  V30 1117 C 99.3166 -1.96198 -0.00767497 0
M  V30 1118 O 98.4416 -1.96346 -0.909796 0
M  V30 1119 C 99.0366 -2.38682 2.4045 0
M  V30 1120 C 97.5956 -2.92184 2.37288 0
M  V30 1121 C 96.7426 -1.6576 2.22304 0
M  V30 1122 H 99.6936 -0.531799 1.49525 0
M  V30 1123 H 99.7146 -3.19087 2.07276 0
M  V30 1124 H 99.2266 -1.91392 3.37625 0
M  V30 1125 H 97.3276 -3.43752 1.43754 0
M  V30 1126 H 97.4406 -3.45253 3.3217 0
M  V30 1127 H 95.8046 -1.9012 1.69489 0
M  V30 1128 H 96.5876 -1.20521 3.21449 0
M  V30 1129 N 99.0327 -1.24633 -0.964593 0
M  V30 1130 C 99.9797 -1.04144 -2.05968 0
M  V30 1131 C 100.95 0.046262 -1.66036 0
M  V30 1132 O 102.135 -0.108972 -1.90489 0
M  V30 1133 C 99.2747 -0.65563 -3.38815 0
M  V30 1134 C 98.3877 -1.81714 -3.91923 0
M  V30 1135 C 97.5227 -1.37662 -5.13052 0
M  V30 1136 C 96.5617 -2.50788 -5.58365 0
M  V30 1137 N 95.6987 -2.07582 -6.70712 0
M  V30 1138 H 100.539 -1.9787 -2.22827 0
M  V30 1139 H 98.0757 -0.9855 -1.09208 0
M  V30 1140 H 100.034 -0.412954 -4.15151 0
M  V30 1141 H 98.6637 0.244627 -3.21872 0
M  V30 1142 H 97.7157 -2.1734 -3.12198 0
M  V30 1143 H 99.0277 -2.66705 -4.21509 0
M  V30 1144 H 98.1817 -1.093 -5.96773 0
M  V30 1145 H 96.9207 -0.497293 -4.85158 0
M  V30 1146 H 95.9257 -2.79906 -4.73215 0
M  V30 1147 H 97.1507 -3.39283 -5.88272 0
M  V30 1148 H 95.0967 -1.22051 -6.44546 0
M  V30 1149 H 95.0137 -2.86125 -6.99763 0
M  V30 1150 H 96.2817 -1.82369 -7.57867 0
M  V30 1151 N 100.511 1.16574 -1.06058 0
M  V30 1152 C 101.441 2.23057 -0.690488 0
M  V30 1153 C 102.422 1.67141 0.315901 0
M  V30 1154 O 103.607 1.93253 0.191556 0
M  V30 1155 C 100.737 3.47222 -0.073625 0
M  V30 1156 C 99.6908 4.16016 -1.00573 0
M  V30 1157 C 99.0168 5.34104 -0.252289 0
M  V30 1158 C 100.317 4.67264 -2.33371 0
M  V30 1159 H 102.011 2.54271 -1.58072 0
M  V30 1160 H 99.5568 1.22218 -0.76149 0
M  V30 1161 H 101.51 4.20939 0.19714 0
M  V30 1162 H 100.234 3.15302 0.85161 0
M  V30 1163 H 98.8928 3.44223 -1.2612 0
M  V30 1164 H 98.5408 4.98437 0.675988 0
M  V30 1165 H 98.2408 5.81072 -0.873455 0
M  V30 1166 H 99.7648 6.10599 0.0109857 0
M  V30 1167 H 101.179 5.32573 -2.12223 0
M  V30 1168 H 99.5758 5.24843 -2.90963 0
M  V30 1169 H 100.646 3.83602 -2.96611 0
M  V30 1170 N 101.989 0.842826 1.3317 0
M  V30 1171 C 103.238 0.436738 1.96915 0
M  V30 1172 C 103.551 -1.01025 1.67491 0
M  V30 1173 O 104.757 -1.5212 2.24881 0
M  V30 1174 C 103.213 0.730021 3.52418 0
M  V30 1175 C 102.821 2.19195 3.90714 0
M  V30 1176 C 104.565 0.391076 4.22695 0
M  V30 1177 C 102.472 2.42907 5.39212 0
M  V30 1178 H 101.402 0.15958 0.736919 0
M  V30 1179 H 104.053 1.03196 1.51733 0
M  V30 1180 H 102.435 0.0643755 3.95948 0
M  V30 1181 H 103.609 2.8984 3.58231 0
M  V30 1182 H 101.924 2.49425 3.33431 0
M  V30 1183 H 104.521 0.545817 5.31907 0
M  V30 1184 H 104.864 -0.666294 4.10933 0
M  V30 1185 H 105.397 1.01212 3.84709 0
M  V30 1186 H 102.136 3.47224 5.55982 0
M  V30 1187 H 101.656 1.76827 5.73142 0
M  V30 1188 H 103.335 2.2626 6.06148 0
M  V30 1189 N 103.467 -1.45747 0.599634 0
M  V30 1190 C 104.415 -2.322 -0.136426 0
M  V30 1191 C 105.409 -1.45497 -0.867583 0
M  V30 1192 O 106.615 -1.62027 -0.78405 0
M  V30 1193 H 102.99 -0.749368 -0.0628588 0
M  V30 1194 H 104.961 -2.92072 0.611281 0
M  V30 1195 C 103.71 -3.28974 -1.12567 0
M  V30 1196 H 103.033 -3.9568 -0.572484 0
M  V30 1197 H 104.473 -3.92212 -1.61077 0
M  V30 1198 C 102.932 -2.55561 -2.19523 0
M  V30 1199 O 103.462 -2.33111 -3.27143 0
M  V30 1200 N 101.668 -2.15832 -1.94589 0
M  V30 1201 H 101.215 -2.3429 -1.07078 0
M  V30 1202 H 101.173 -1.67034 -2.66359 0
M  V30 1203 N 104.945 -0.338344 -1.53925 0
M  V30 1204 C 105.908 0.508299 -2.23493 0
M  V30 1205 C 106.908 1.03175 -1.23335 0
M  V30 1206 O 108.098 0.921826 -1.47811 0
M  V30 1207 C 105.23 1.70754 -2.95052 0
M  V30 1208 H 106.423 -0.100058 -2.99733 0
M  V30 1209 H 103.976 -0.0896198 -1.56043 0
M  V30 1210 H 104.711 2.35474 -2.22986 0
M  V30 1211 H 104.496 1.33946 -3.68512 0
M  V30 1212 H 105.986 2.30818 -3.48013 0
M  V30 1213 N 106.423 1.57458 -0.0668435 0
M  V30 1214 C 107.353 2.15468 0.899764 0
M  V30 1215 C 108.334 1.08042 1.31381 0
M  V30 1216 O 109.519 1.36054 1.38574 0
M  V30 1217 C 106.649 2.71232 2.16911 0
M  V30 1218 C 105.603 3.83781 1.89463 0
M  V30 1219 C 104.929 4.26127 3.22986 0
M  V30 1220 C 106.229 5.08238 1.20381 0
M  V30 1221 H 107.923 2.96488 0.416529 0
M  V30 1222 H 105.469 1.4262 0.198908 0
M  V30 1223 H 107.422 3.10458 2.84945 0
M  V30 1224 H 106.146 1.87426 2.67468 0
M  V30 1225 H 104.805 3.45051 1.23836 0
M  V30 1226 H 104.453 3.39249 3.71374 0
M  V30 1227 H 104.153 5.01993 3.05413 0
M  V30 1228 H 105.677 4.67966 3.92225 0
M  V30 1229 H 107.091 5.44811 1.78475 0
M  V30 1230 H 105.488 5.89349 1.13083 0
M  V30 1231 H 106.558 4.84558 0.182153 0
M  V30 1232 N 107.901 -0.206675 1.56239 0
M  V30 1233 C 109.317 -0.557025 1.49564 0
M  V30 1234 C 109.517 -1.86424 0.764735 0
M  V30 1235 O 108.573 -2.50584 0.310491 0
M  V30 1236 C 109.886 -0.622478 2.94186 0
M  V30 1237 C 111.434 -0.712099 3.04792 0
M  V30 1238 C 111.909 -0.808767 4.50803 0
M  V30 1239 N 113.4 -0.8726 4.54907 0
M  V30 1240 C 114.135 -0.967365 5.65181 0
M  V30 1241 N 113.631 -1.02515 6.85173 0
M  V30 1242 N 115.424 -1.00366 5.53067 0
M  V30 1243 H 107.575 0.650943 2.02179 0
M  V30 1244 H 109.838 0.230387 0.919579 0
M  V30 1245 H 109.544 0.268727 3.50672 0
M  V30 1246 H 109.418 -1.4811 3.46905 0
M  V30 1247 H 111.805 -1.59374 2.48363 0
M  V30 1248 H 111.886 0.172489 2.55218 0
M  V30 1249 H 111.53 0.0684754 5.07854 0
M  V30 1250 H 111.46 -1.70899 4.98098 0
M  V30 1251 H 113.951 -0.837657 3.68499 0
M  V30 1252 H 114.264 -1.09765 7.64965 0
M  V30 1253 H 112.609 -0.994026 6.87855 0
M  V30 1254 H 115.8 -0.95527 4.58249 0
M  V30 1255 H 115.973 -1.07405 6.39037 0
M  V30 1256 N 109.379 -1.50304 -0.473955 0
M  V30 1257 C 110.795 -1.37667 -0.807466 0
M  V30 1258 C 110.995 -0.430555 -1.96846 0
M  V30 1259 O 110.051 0.127874 -2.52176 0
M  V30 1260 C 111.364 -2.78974 -1.12223 0
M  V30 1261 C 112.912 -2.87868 -1.22885 0
M  V30 1262 C 113.387 -4.30003 -1.57676 0
M  V30 1263 N 114.878 -4.3294 -1.64673 0
M  V30 1264 C 115.613 -5.3991 -1.93091 0
M  V30 1265 N 115.109 -6.57092 -2.1955 0
M  V30 1266 N 116.902 -5.27351 -1.94569 0
M  V30 1267 H 109.053 -2.10394 0.291212 0
M  V30 1268 H 111.316 -0.945575 0.0677609 0
M  V30 1269 H 111.022 -3.50031 -0.342229 0
M  V30 1270 H 110.896 -3.16038 -2.05913 0
M  V30 1271 H 113.283 -2.17032 -1.99953 0
M  V30 1272 H 113.364 -2.54352 -0.271814 0
M  V30 1273 H 113.008 -5.01375 -0.81149 0
M  V30 1274 H 112.938 -4.61004 -2.54525 0
M  V30 1275 H 115.429 -3.48441 -1.46277 0
M  V30 1276 H 115.742 -7.34425 -2.405 0
M  V30 1277 H 114.087 -6.60272 -2.16948 0
M  V30 1278 H 117.278 -4.34801 -1.73394 0
M  V30 1279 H 117.451 -6.10805 -2.16381 0
M  V30 1280 N 110.857 0.726932 -1.39834 0
M  V30 1281 C 112.097 1.4992 -1.38936 0
M  V30 1282 C 112.461 1.91996 0.0126883 0
M  V30 1283 O 113.662 2.68399 0.146715 0
M  V30 1284 C 111.933 2.70013 -2.34153 0
M  V30 1285 S 113.492 3.59563 -2.51515 0
M  V30 1286 H 110.31 0.51271 -0.492595 0
M  V30 1287 H 112.912 0.85107 -1.76003 0
M  V30 1288 H 111.616 2.37254 -3.34871 0
M  V30 1289 H 111.147 3.39748 -1.98331 0
M  V30 1290 H 113.162 4.63973 -1.75909 0
M  V30 1291 N 112.336 1.25143 0.95797 0
M  V30 1292 C 113.583 1.09692 1.70217 0
M  V30 1293 C 113.911 -0.362654 1.91089 0
M  V30 1294 O 113.166 -1.28386 1.47701 0
M  V30 1295 C 113.465 1.79272 3.09187 0
M  V30 1296 C 113.131 3.29196 3.08125 0
M  V30 1297 C 111.793 3.70096 3.07543 0
M  V30 1298 C 114.145 4.24995 3.0171 0
M  V30 1299 C 111.473 5.05213 2.9829 0
M  V30 1300 C 113.825 5.60132 2.93999 0
M  V30 1301 C 112.489 6.00365 2.9175 0
M  V30 1302 H 111.759 0.401393 0.622868 0
M  V30 1303 H 114.406 1.55372 1.11945 0
M  V30 1304 H 112.711 1.26014 3.70982 0
M  V30 1305 H 114.408 1.64773 3.65583 0
M  V30 1306 H 110.998 2.96651 3.09348 0
M  V30 1307 H 115.182 3.9439 3.01281 0
M  V30 1308 H 110.438 5.35569 2.94916 0
M  V30 1309 H 114.612 6.3406 2.87996 0
M  V30 1310 H 112.239 7.05023 2.84336 0
M  V30 1311 N 113.814 -1.1601 1.06675 0
M  V30 1312 C 115.061 -1.86633 0.785781 0
M  V30 1313 C 115.389 -1.81929 -0.687896 0
M  V30 1314 O 114.644 -1.23253 -1.52011 0
M  V30 1315 C 114.943 -3.35547 1.23057 0
M  V30 1316 C 114.609 -3.60448 2.70902 0
M  V30 1317 C 113.271 -3.66954 3.11285 0
M  V30 1318 C 115.623 -3.7071 3.66365 0
M  V30 1319 C 112.951 -3.81225 4.45965 0
M  V30 1320 C 115.303 -3.86503 5.00797 0
M  V30 1321 C 113.967 -3.91252 5.40813 0
M  V30 1322 H 113.237 -0.682937 0.287538 0
M  V30 1323 H 115.884 -1.37146 1.33654 0
M  V30 1324 H 114.189 -3.87193 0.59907 0
M  V30 1325 H 115.886 -3.88583 0.990163 0
M  V30 1326 H 112.476 -3.56021 2.38636 0
M  V30 1327 H 116.66 -3.64991 3.36296 0
M  V30 1328 H 111.916 -3.83155 4.76447 0
M  V30 1329 H 116.09 -3.93385 5.74649 0
M  V30 1330 H 113.717 -4.02062 6.45174 0
M  V30 1331 N 115.292 -0.849877 -1.32721 0
M  V30 1332 C 116.538 -0.460855 -1.9811 0
M  V30 1333 C 116.893 0.971716 -1.66059 0
M  V30 1334 O 116.186 1.67184 -0.935944 0
M  V30 1335 C 116.38 -0.631272 -3.51781 0
M  V30 1336 C 116.209 -2.07886 -3.98765 0
M  V30 1337 C 114.979 -2.71637 -4.26077 0
M  V30 1338 C 117.177 -3.04889 -4.14182 0
M  V30 1339 N 115.159 -4.07356 -4.59276 0
M  V30 1340 C 116.53 -4.25583 -4.50865 0
M  V30 1341 C 118.585 -3.01148 -3.96503 0
M  V30 1342 C 117.288 -5.43027 -4.71714 0
M  V30 1343 C 119.314 -4.17832 -4.18533 0
M  V30 1344 C 118.676 -5.37284 -4.55528 0
M  V30 1345 H 114.775 -0.217283 -0.751207 0
M  V30 1346 H 117.359 -1.10026 -1.60631 0
M  V30 1347 H 115.53 -0.0215966 -3.88394 0
M  V30 1348 H 117.262 -0.212614 -4.04141 0
M  V30 1349 H 114.017 -2.22705 -4.17971 0
M  V30 1350 H 114.441 -4.77351 -4.80068 0
M  V30 1351 H 119.083 -2.0992 -3.67006 0
M  V30 1352 H 116.801 -6.34791 -5.00066 0
M  V30 1353 H 120.387 -4.16368 -4.06361 0
M  V30 1354 H 119.267 -6.26071 -4.72234 0
M  V30 1355 N 116.77 1.45427 -0.607355 0
M  V30 1356 C 118.186 1.57283 -0.270985 0
M  V30 1357 C 118.386 1.59875 1.22647 0
M  V30 1358 O 117.442 1.52893 2.00948 0
M  V30 1359 C 118.755 2.85566 -0.941952 0
M  V30 1360 C 120.303 2.9924 -0.917849 0
M  V30 1361 C 120.778 4.30293 -1.56882 0
M  V30 1362 N 122.269 4.37051 -1.5343 0
M  V30 1363 C 123.004 5.37123 -2.00715 0
M  V30 1364 N 122.5 6.43734 -2.56084 0
M  V30 1365 N 124.293 5.28479 -1.91484 0
M  V30 1366 H 116.444 1.41988 -1.57966 0
M  V30 1367 H 118.707 0.67885 -0.661715 0
M  V30 1368 H 118.413 2.8955 -1.99633 0
M  V30 1369 H 118.287 3.74322 -0.465096 0
M  V30 1370 H 120.674 2.94822 0.127984 0
M  V30 1371 H 120.755 2.11895 -1.43297 0
M  V30 1372 H 120.399 4.35469 -2.61398 0
M  V30 1373 H 120.329 5.16454 -1.02873 0
M  V30 1374 H 122.82 3.60615 -1.12982 0
M  V30 1375 H 123.133 7.16341 -2.89958 0
M  V30 1376 H 121.478 6.44485 -2.60122 0
M  V30 1377 H 124.669 4.44098 -1.47967 0
M  V30 1378 H 124.842 6.0632 -2.28648 0
M  V30 1379 N 118.248 0.346503 1.53744 0
M  V30 1380 C 119.495 -0.249104 2.00962 0
M  V30 1381 C 119.823 -1.5032 1.23426 0
M  V30 1382 O 119.078 -1.93217 0.310761 0
M  V30 1383 C 119.377 -0.605809 3.52228 0
M  V30 1384 C 119.043 0.551747 4.47512 0
M  V30 1385 C 117.705 0.86941 4.73281 0
M  V30 1386 C 120.057 1.32818 5.03993 0
M  V30 1387 C 117.385 1.96582 5.52786 0
M  V30 1388 C 119.737 2.41486 5.84694 0
M  V30 1389 C 118.401 2.73808 6.08757 0
M  V30 1390 H 117.671 -0.0911538 0.735372 0
M  V30 1391 H 120.318 0.475027 1.85515 0
M  V30 1392 H 118.623 -1.4107 3.65522 0
M  V30 1393 H 120.32 -1.07858 3.86222 0
M  V30 1394 H 116.91 0.294102 4.2759 0
M  V30 1395 H 121.094 1.09602 4.84047 0
M  V30 1396 H 116.35 2.22045 5.69654 0
M  V30 1397 H 120.524 3.02078 6.27473 0
M  V30 1398 H 118.151 3.58892 6.7015 0
M  V30 1399 N 119.726 -1.57421 0.075193 0
M  V30 1400 C 120.659 -2.08528 -0.926904 0
M  V30 1401 C 121.637 -0.991171 -1.28898 0
M  V30 1402 O 122.821 -1.26479 -1.39769 0
M  V30 1403 C 119.948 -2.54576 -2.23402 0
M  V30 1404 C 118.994 -3.75454 -2.02327 0
M  V30 1405 S 119.827 -5.19989 -1.27951 0
M  V30 1406 C 120.983 -5.69372 -2.59935 0
M  V30 1407 H 121.216 -2.932 -0.492048 0
M  V30 1408 H 118.749 -1.53785 -0.137651 0
M  V30 1409 H 120.707 -2.81767 -2.98526 0
M  V30 1410 H 119.368 -1.70166 -2.64012 0
M  V30 1411 H 118.561 -4.05675 -2.99071 0
M  V30 1412 H 118.163 -3.48654 -1.35339 0
M  V30 1413 H 120.455 -5.76424 -3.56008 0
M  V30 1414 H 121.398 -6.68207 -2.34319 0
M  V30 1415 H 121.806 -4.97205 -2.67296 0
M  V30 1416 N 121.204 0.198386 -1.56346 0
M  V30 1417 C 122.451 0.919286 -1.80431 0
M  V30 1418 C 122.779 1.83393 -0.647866 0
M  V30 1419 O 122.034 1.92236 0.366556 0
M  V30 1420 C 122.333 1.77031 -3.10475 0
M  V30 1421 C 121.999 1.00693 -4.39513 0
M  V30 1422 C 120.661 0.796145 -4.74568 0
M  V30 1423 C 123.013 0.469559 -5.19081 0
M  V30 1424 C 120.341 0.0364588 -5.86689 0
M  V30 1425 C 122.693 -0.2769 -6.31994 0
M  V30 1426 C 121.357 -0.49873 -6.65634 0
M  V30 1427 H 120.627 0.336391 -0.660244 0
M  V30 1428 H 123.274 0.185872 -1.90596 0
M  V30 1429 H 121.579 2.5723 -2.95533 0
M  V30 1430 H 123.276 2.33065 -3.26315 0
M  V30 1431 H 119.866 1.18122 -4.12001 0
M  V30 1432 H 124.05 0.619816 -4.92414 0
M  V30 1433 H 119.306 -0.145412 -6.11227 0
M  V30 1434 H 123.48 -0.700684 -6.92866 0
M  V30 1435 H 121.107 -1.0893 -7.52355 0
M  V30 1436 N 122.682 1.50554 0.465978 0
M  V30 1437 C 123.912 1.65323 1.23903 0
M  V30 1438 C 124.32 0.338051 1.86155 0
M  V30 1439 O 123.663 -0.690518 1.70228 0
M  V30 1440 C 123.725 2.69048 2.3844 0
M  V30 1441 C 123.389 4.12462 1.96784 0
M  V30 1442 C 124.386 4.98168 1.48745 0
M  V30 1443 C 122.071 4.58407 2.05349 0
M  V30 1444 C 124.065 6.27868 1.0982 0
M  V30 1445 C 121.752 5.88112 1.66035 0
M  V30 1446 C 122.75 6.72668 1.18349 0
M  V30 1447 O 122.438 7.99951 0.795825 0
M  V30 1448 H 122.17 0.558629 0.38067 0
M  V30 1449 H 124.724 1.97561 0.562022 0
M  V30 1450 H 122.954 2.32062 3.09328 0
M  V30 1451 H 124.643 2.72985 3.0039 0
M  V30 1452 H 125.409 4.63885 1.41546 0
M  V30 1453 H 121.288 3.92735 2.41414 0
M  V30 1454 H 124.832 6.93819 0.725293 0
M  V30 1455 H 120.729 6.21914 1.72895 0
M  V30 1456 H 121.497 8.13265 0.924222 0
M  V30 1457 N 124.16 -0.719506 1.40217 0
M  V30 1458 C 125.408 -1.47641 1.3801 0
M  V30 1459 C 125.729 -1.94992 -0.018145 0
M  V30 1460 O 124.999 -1.70073 -0.972207 0
M  V30 1461 H 123.579 -0.547744 0.507923 0
M  V30 1462 H 126.241 -0.853187 1.75233 0
M  V30 1463 H 125.337 -2.35112 2.05253 0
M  V30 1464 N 125.638 -1.25649 -0.95132 0
M  V30 1465 C 126.887 -1.09988 -1.69073 0
M  V30 1466 C 127.2 0.358355 -1.92289 0
M  V30 1467 O 128.406 0.635466 -2.63958 0
M  V30 1468 C 126.862 -1.92012 -3.044 0
M  V30 1469 C 126.47 -3.42347 -2.88968 0
M  V30 1470 C 128.214 -1.8493 -3.82101 0
M  V30 1471 C 126.121 -4.16655 -4.19705 0
M  V30 1472 H 125.051 -0.407993 -0.63408 0
M  V30 1473 H 127.702 -1.49873 -1.05879 0
M  V30 1474 H 126.084 -1.44952 -3.68517 0
M  V30 1475 H 127.258 -3.97104 -2.33762 0
M  V30 1476 H 125.573 -3.50557 -2.24719 0
M  V30 1477 H 128.17 -2.37739 -4.78941 0
M  V30 1478 H 128.513 -0.817883 -4.08187 0
M  V30 1479 H 129.046 -2.29758 -3.2474 0
M  V30 1480 H 125.785 -5.20224 -3.98807 0
M  V30 1481 H 125.305 -3.66681 -4.74663 0
M  V30 1482 H 126.984 -4.24551 -4.88227 0
M  V30 1483 N 127.117 1.15442 -1.07289 0
M  V30 1484 C 128.364 1.86213 -0.795668 0
M  V30 1485 C 128.692 1.82291 0.678238 0
M  V30 1486 O 127.947 1.24057 1.51355 0
M  V30 1487 C 128.246 3.3489 -1.24834 0
M  V30 1488 C 127.912 3.59007 -2.72809 0
M  V30 1489 C 126.574 3.65298 -3.13227 0
M  V30 1490 C 128.926 3.68762 -3.68326 0
M  V30 1491 C 126.254 3.78854 -4.4798 0
M  V30 1492 C 128.606 3.83842 -5.0284 0
M  V30 1493 C 127.27 3.88378 -5.4288 0
M  V30 1494 H 126.54 0.681403 -0.291155 0
M  V30 1495 H 129.187 1.36435 -1.34379 0
M  V30 1496 H 127.492 3.8687 -0.619595 0
M  V30 1497 H 129.189 3.88052 -1.01076 0
M  V30 1498 H 125.779 3.5475 -2.40521 0
M  V30 1499 H 129.963 3.63202 -3.38227 0
M  V30 1500 H 125.219 3.80623 -4.78472 0
M  V30 1501 H 129.393 3.90332 -5.76727 0
M  V30 1502 H 127.02 3.98635 -6.47298 0
M  V30 1503 N 128.595 0.856903 1.32268 0
M  V30 1504 C 129.525 0.31858 2.31316 0
M  V30 1505 C 130.506 -0.583487 1.59779 0
M  V30 1506 O 131.691 -0.503259 1.87566 0
M  V30 1507 C 128.821 -0.491979 3.43798 0
M  V30 1508 C 127.775 0.315849 4.26833 0
M  V30 1509 C 127.101 -0.619586 5.31098 0
M  V30 1510 C 128.401 1.54282 4.98993 0
M  V30 1511 H 130.095 1.14621 2.76591 0
M  V30 1512 H 127.641 0.552613 1.32974 0
M  V30 1513 H 129.594 -0.879012 4.1213 0
M  V30 1514 H 128.318 -1.35299 2.97257 0
M  V30 1515 H 126.977 0.684664 3.6015 0
M  V30 1516 H 126.625 -1.47751 4.8081 0
M  V30 1517 H 126.325 -0.0830621 5.87541 0
M  V30 1518 H 127.849 -1.00375 6.02293 0
M  V30 1519 H 129.263 1.22796 5.59995 0
M  V30 1520 H 127.66 2.01745 5.65172 0
M  V30 1521 H 128.73 2.30285 4.26728 0
M  V30 1522 N 130.073 -1.45103 0.615059 0
M  V30 1523 C 131.303 -2.06254 0.119596 0
M  V30 1524 C 131.711 -1.4591 -1.20445 0
M  V30 1525 O 131.054 -0.570384 -1.7462 0
M  V30 1526 C 131.116 -3.59396 -0.0865591 0
M  V30 1527 C 130.78 -4.42116 1.15683 0
M  V30 1528 C 131.777 -4.7662 2.07676 0
M  V30 1529 C 129.462 -4.82749 1.38775 0
M  V30 1530 C 131.456 -5.50622 3.21082 0
M  V30 1531 C 129.143 -5.56504 2.52481 0
M  V30 1532 C 130.141 -5.90358 3.43463 0
M  V30 1533 O 129.829 -6.62615 4.55189 0
M  V30 1534 H 129.561 -0.672423 0.0694512 0
M  V30 1535 H 132.115 -1.87219 0.844885 0
M  V30 1536 H 130.345 -3.76859 -0.866823 0
M  V30 1537 H 132.034 -4.02365 -0.534555 0
M  V30 1538 H 132.8 -4.4578 1.91063 0
M  V30 1539 H 128.679 -4.55829 0.688545 0
M  V30 1540 H 132.223 -5.76965 3.92119 0
M  V30 1541 H 128.12 -5.86759 2.69043 0
M  V30 1542 H 128.888 -6.81071 4.53966 0
M  V30 1543 N 131.551 -0.354651 -1.53558 0
M  V30 1544 C 132.481 0.489091 -2.2832 0
M  V30 1545 C 133.462 1.09324 -1.30316 0
M  V30 1546 O 134.647 1.11255 -1.59173 0
M  V30 1547 C 131.777 1.63456 -3.0643 0
M  V30 1548 C 130.731 1.1582 -4.12031 0
M  V30 1549 C 130.057 2.39305 -4.7816 0
M  V30 1550 C 131.357 0.250731 -5.21698 0
M  V30 1551 H 133.051 -0.134614 -2.99097 0
M  V30 1552 H 130.597 -0.0661826 -1.43848 0
M  V30 1553 H 132.55 2.23136 -3.57475 0
M  V30 1554 H 131.274 2.28533 -2.33325 0
M  V30 1555 H 129.933 0.584146 -3.61916 0
M  V30 1556 H 129.581 3.02814 -4.01637 0
M  V30 1557 H 129.281 2.08109 -5.49513 0
M  V30 1558 H 130.805 2.99691 -5.31994 0
M  V30 1559 H 132.219 0.754695 -5.68311 0
M  V30 1560 H 130.616 0.0301468 -6.00092 0
M  V30 1561 H 131.686 -0.710125 -4.79672 0
M  V30 1562 N 133.029 1.57378 -0.0835403 0
M  V30 1563 C 134.277 1.93547 0.581718 0
M  V30 1564 C 134.598 0.96524 1.69435 0
M  V30 1565 O 133.868 0.0153369 1.95894 0
M  V30 1566 H 132.448 0.714521 0.217874 0
M  V30 1567 H 135.11 1.94366 -0.144158 0
M  V30 1568 H 134.206 2.95665 0.999423 0
M  V30 1569 N 134.507 -0.190092 1.56449 0
M  V30 1570 C 135.417 -1.25591 1.98152 0
M  V30 1571 C 136.433 -1.49519 0.889944 0
M  V30 1572 O 137.609 -1.62036 1.19609 0
M  V30 1573 C 134.674 -2.57916 2.3169 0
M  V30 1574 C 133.735 -2.42015 3.5458 0
M  V30 1575 C 132.968 -3.6803 3.8651 0
M  V30 1576 O 133.191 -4.72413 3.1966 0
M  V30 1577 O 132.125 -3.6326 4.79923 0
M  V30 1578 H 135.951 -0.931988 2.89046 0
M  V30 1579 H 133.536 -0.395488 1.4407 0
M  V30 1580 H 135.418 -3.36008 2.54316 0
M  V30 1581 H 134.093 -2.89925 1.43963 0
M  V30 1582 H 133 -1.62017 3.37196 0
M  V30 1583 H 134.333 -2.14937 4.4279 0
M  V30 1584 N 135.985 -1.50799 -0.457987 0
M  V30 1585 C 137.231 -1.62683 -1.21088 0
M  V30 1586 C 137.564 -0.332268 -1.91336 0
M  V30 1587 O 136.839 0.667043 -1.82704 0
M  V30 1588 C 137.122 -2.81615 -2.24422 0
M  V30 1589 C 136.975 -4.20989 -1.58392 0
M  V30 1590 C 138.294 -2.96085 -3.2561 0
M  V30 1591 H 135.413 -0.592087 -0.438864 0
M  V30 1592 H 138.055 -1.83225 -0.50286 0
M  V30 1593 H 136.205 -2.64231 -2.84806 0
M  V30 1594 H 137.877 -4.49994 -1.01504 0
M  V30 1595 H 136.12 -4.24641 -0.886704 0
M  V30 1596 H 136.791 -5.0016 -2.33547 0
M  V30 1597 H 139.267 -3.12042 -2.75262 0
M  V30 1598 H 138.143 -3.80902 -3.95228 0
M  V30 1599 H 138.404 -2.0726 -3.90507 0
M  V30 1600 N 137.463 0.71206 -1.40597 0
M  V30 1601 C 138.691 1.50111 -1.42388 0
M  V30 1602 C 139.106 1.88784 -0.0245395 0
M  V30 1603 O 138.463 1.55681 0.952351 0
M  V30 1604 C 138.514 2.7742 -2.31776 0
M  V30 1605 O 138.235 2.40382 -3.66262 0
M  V30 1606 C 139.736 3.7129 -2.42196 0
M  V30 1607 H 136.956 0.46314 -0.485533 0
M  V30 1608 H 139.5 0.878068 -1.8469 0
M  V30 1609 H 137.655 3.36001 -1.92827 0
M  V30 1610 H 138.069 3.22324 -4.13772 0
M  V30 1611 H 139.543 4.57448 -3.08943 0
M  V30 1612 H 140.02 4.14641 -1.44809 0
M  V30 1613 H 140.626 3.18619 -2.81712 0
M  V30 1614 N 138.941 1.26152 0.944643 0
M  V30 1615 C 139.888 1.07408 2.04285 0
M  V30 1616 C 140.858 -0.0198413 1.66088 0
M  V30 1617 O 142.043 0.139264 1.90291 0
M  V30 1618 C 139.183 0.70945 3.37729 0
M  V30 1619 C 138.296 1.87926 3.88983 0
M  V30 1620 C 137.431 1.45807 5.10797 0
M  V30 1621 C 136.47 2.5964 5.54305 0
M  V30 1622 N 135.607 2.18226 6.67324 0
M  V30 1623 H 140.447 2.01389 2.1965 0
M  V30 1624 H 137.984 1.00275 1.07626 0
M  V30 1625 H 139.942 0.478948 4.14442 0
M  V30 1626 H 138.572 -0.193389 3.2222 0
M  V30 1627 H 137.624 2.22279 3.08701 0
M  V30 1628 H 138.936 2.73377 4.17213 0
M  V30 1629 H 138.09 1.18781 5.94959 0
M  V30 1630 H 136.829 0.574414 4.84305 0
M  V30 1631 H 135.834 2.87399 4.68702 0
M  V30 1632 H 137.059 3.48599 5.828 0
M  V30 1633 H 135.005 1.3229 6.42523 0
M  V30 1634 H 134.922 2.97221 6.95123 0
M  V30 1635 H 136.19 1.94403 7.54869 0
M  V30 1636 N 140.419 -1.14872 1.07899 0
M  V30 1637 C 141.382 -2.17986 0.708161 0
M  V30 1638 C 142.382 -1.58775 -0.25442 0
M  V30 1639 O 143.572 -1.74166 -0.034645 0
M  V30 1640 C 140.704 -3.40871 0.0446929 0
M  V30 1641 H 141.897 -2.52306 1.62116 0
M  V30 1642 H 139.45 -1.2943 0.876218 0
M  V30 1643 H 140.185 -3.12124 -0.880281 0
M  V30 1644 H 139.97 -3.8511 0.737091 0
M  V30 1645 H 141.46 -4.17121 -0.19991 0
M  V30 1646 N 141.898 -0.863906 -1.31812 0
M  V30 1647 C 143.144 -0.472535 -1.97218 0
M  V30 1648 C 143.477 0.971394 -1.68159 0
M  V30 1649 O 142.752 1.68309 -0.974798 0
M  V30 1650 C 143.035 -0.723054 -3.52766 0
M  V30 1651 C 142.888 -2.21608 -3.91421 0
M  V30 1652 C 144.207 -0.185522 -4.39709 0
M  V30 1653 H 141.326 -0.173158 -0.71637 0
M  V30 1654 H 143.968 -1.08403 -1.56041 0
M  V30 1655 H 142.118 -0.202577 -3.87971 0
M  V30 1656 H 143.79 -2.80334 -3.66347 0
M  V30 1657 H 142.033 -2.691 -3.40246 0
M  V30 1658 H 142.704 -2.34203 -4.99853 0
M  V30 1659 H 145.18 -0.630726 -4.11292 0
M  V30 1660 H 144.056 -0.390306 -5.47511 0
M  V30 1661 H 144.317 0.912229 -4.32586 0
M  V30 1662 N 143.376 1.44774 -0.622745 0
M  V30 1663 C 144.308 2.28856 0.125485 0
M  V30 1664 C 145.321 1.40811 0.817069 0
M  V30 1665 O 146.51 1.65044 0.679918 0
M  V30 1666 C 143.61 3.16963 1.19949 0
M  V30 1667 C 142.783 4.33374 0.592064 0
M  V30 1668 C 141.842 5.02577 1.55893 0
M  V30 1669 O 140.868 5.58873 1.07933 0
M  V30 1670 N 142.07 5.03256 2.89334 0
M  V30 1671 H 144.835 2.93713 -0.596068 0
M  V30 1672 H 142.396 1.55129 -0.463303 0
M  V30 1673 H 144.388 3.60123 1.84644 0
M  V30 1674 H 142.958 2.53913 1.82337 0
M  V30 1675 H 142.178 3.93509 -0.233322 0
M  V30 1676 H 143.466 5.08527 0.166738 0
M  V30 1677 H 142.864 4.58836 3.30887 0
M  V30 1678 H 141.421 5.50232 3.49412 0
M  V30 1679 N 144.854 0.36279 1.53368 0
M  V30 1680 C 146.265 -0.117022 1.86333 0
M  V30 1681 C 146.616 -1.48397 1.28347 0
M  V30 1682 O 145.741 -2.07787 0.604428 0
M  V30 1683 C 146.336 -0.21912 3.38091 0
M  V30 1684 C 144.895 -0.643184 3.70864 0
M  V30 1685 C 144.042 0.211318 2.76494 0
M  V30 1686 H 146.993 0.581687 1.47655 0
M  V30 1687 H 147.014 -1.04319 3.6592 0
M  V30 1688 H 146.526 0.775902 3.80265 0
M  V30 1689 H 144.627 -1.64654 3.34245 0
M  V30 1690 H 144.74 -0.41973 4.77258 0
M  V30 1691 H 143.104 -0.319367 2.5269 0
M  V30 1692 H 143.887 1.20383 3.21501 0
M  V30 1693 N 146.332 -1.57332 0.0918853 0
M  V30 1694 C 147.262 -2.16872 -0.865371 0
M  V30 1695 C 148.243 -1.10118 -1.29646 0
M  V30 1696 O 149.428 -1.38242 -1.36392 0
M  V30 1697 C 146.558 -2.74649 -2.12569 0
M  V30 1698 C 145.512 -3.86747 -1.83333 0
M  V30 1699 C 144.838 -4.31212 -3.16166 0
M  V30 1700 C 146.138 -5.10089 -1.1228 0
M  V30 1701 H 147.832 -2.97114 -0.369307 0
M  V30 1702 H 145.378 -1.42918 -0.176194 0
M  V30 1703 H 147.331 -3.14952 -2.7997 0
M  V30 1704 H 146.055 -1.91657 -2.64452 0
M  V30 1705 H 144.714 -3.46978 -1.18331 0
M  V30 1706 H 144.362 -3.45115 -3.6593 0
M  V30 1707 H 144.062 -5.06788 -2.97388 0
M  V30 1708 H 145.586 -4.74146 -3.84731 0
M  V30 1709 H 147 -5.47582 -1.69785 0
M  V30 1710 H 145.397 -5.91073 -1.03693 0
M  V30 1711 H 146.467 -4.84786 -0.105041 0
M  V30 1712 N 147.81 0.181792 -1.56548 0
M  V30 1713 C 148.74 1.22765 -1.98623 0
M  V30 1714 C 149.721 1.46747 -0.860189 0
M  V30 1715 O 150.906 1.58259 -1.12551 0
M  V30 1716 C 148.036 2.56894 -2.33715 0
M  V30 1717 C 146.99 2.475 -3.49182 0
M  V30 1718 C 146.316 3.86023 -3.69986 0
M  V30 1719 C 147.616 1.98866 -4.82959 0
M  V30 1720 H 149.31 0.877942 -2.86239 0
M  V30 1721 H 146.856 0.42088 -1.37712 0
M  V30 1722 H 148.809 3.30253 -2.61746 0
M  V30 1723 H 147.533 2.93632 -1.42997 0
M  V30 1724 H 146.192 1.76596 -3.21262 0
M  V30 1725 H 145.84 4.20136 -2.76576 0
M  V30 1726 H 145.54 3.80609 -4.47672 0
M  V30 1727 H 147.064 4.60984 -4.00407 0
M  V30 1728 H 148.478 2.61992 -5.09934 0
M  V30 1729 H 146.875 2.04424 -5.64208 0
M  V30 1730 H 147.945 0.942465 -4.75653 0
M  V30 1731 N 149.288 1.51039 0.449983 0
M  V30 1732 C 150.218 1.74379 1.55288 0
M  V30 1733 C 151.199 0.593236 1.5942 0
M  V30 1734 O 152.384 0.834625 1.7535 0
M  V30 1735 C 149.514 1.85728 2.93466 0
M  V30 1736 C 148.468 3.01078 3.04197 0
M  V30 1737 C 147.794 2.97595 4.44231 0
M  V30 1738 C 149.094 4.41254 2.7945 0
M  V30 1739 H 150.788 2.66725 1.36008 0
M  V30 1740 H 148.334 1.2835 0.652864 0
M  V30 1741 H 150.287 2.0064 3.70569 0
M  V30 1742 H 149.011 0.900207 3.13949 0
M  V30 1743 H 147.67 2.85851 2.29531 0
M  V30 1744 H 147.318 1.99691 4.61663 0
M  V30 1745 H 147.018 3.75046 4.52343 0
M  V30 1746 H 148.542 3.14583 5.23326 0
M  V30 1747 H 149.956 4.56897 3.46292 0
M  V30 1748 H 148.353 5.20315 2.98985 0
M  V30 1749 H 149.423 4.52164 1.75144 0
M  V30 1750 N 150.766 -0.704594 1.40972 0
M  V30 1751 C 152.014 -1.46169 1.39568 0
M  V30 1752 C 152.335 -1.95 0.00253745 0
M  V30 1753 O 151.605 -1.71095 -0.954114 0
M  V30 1754 H 150.185 -0.542326 0.513704 0
M  V30 1755 H 152.847 -0.834553 1.76128 0
M  V30 1756 H 151.943 -2.32922 2.07735 0
M  V30 1757 N 152.244 -1.26651 -0.937939 0
M  V30 1758 C 153.66 -1.03834 -1.21205 0
M  V30 1759 C 153.86 0.234502 -2.00131 0
M  V30 1760 O 152.916 0.942767 -2.3424 0
M  V30 1761 C 154.229 -2.27167 -1.97017 0
M  V30 1762 C 155.777 -2.32101 -2.09996 0
M  V30 1763 C 156.252 -3.55136 -2.8921 0
M  V30 1764 N 157.743 -3.55632 -2.96783 0
M  V30 1765 C 158.478 -4.475 -3.58512 0
M  V30 1766 N 157.974 -5.4966 -4.21717 0
M  V30 1767 N 159.767 -4.35145 -3.55816 0
M  V30 1768 H 151.918 -2.08398 -0.410391 0
M  V30 1769 H 154.181 -0.916031 -0.244114 0
M  V30 1770 H 153.887 -3.19765 -1.46434 0
M  V30 1771 H 153.761 -2.31672 -2.97671 0
M  V30 1772 H 156.148 -1.40015 -2.59769 0
M  V30 1773 H 156.229 -2.31605 -1.08594 0
M  V30 1774 H 155.873 -4.47553 -2.40123 0
M  V30 1775 H 155.803 -3.5288 -3.90875 0
M  V30 1776 H 158.294 -2.81743 -2.51852 0
M  V30 1777 H 158.607 -6.15943 -4.66727 0
M  V30 1778 H 156.952 -5.53514 -4.20294 0
M  V30 1779 H 160.143 -3.5455 -3.05634 0
M  V30 1780 H 160.316 -5.06934 -4.03636 0
M  V30 1781 N 153.722 1.14298 -1.08507 0
M  V30 1782 C 154.971 1.84708 -0.810305 0
M  V30 1783 C 155.284 1.83903 0.666271 0
M  V30 1784 O 156.49 2.50112 1.05624 0
M  V30 1785 C 154.946 3.31572 -1.39957 0
M  V30 1786 C 154.554 3.40791 -2.90801 0
M  V30 1787 C 156.298 4.07087 -1.20334 0
M  V30 1788 C 154.205 4.81872 -3.4286 0
M  V30 1789 H 153.135 0.691985 -0.299454 0
M  V30 1790 H 155.786 1.28841 -1.30661 0
M  V30 1791 H 154.168 3.87183 -0.830976 0
M  V30 1792 H 155.342 2.95225 -3.53806 0
M  V30 1793 H 153.657 2.78732 -3.0935 0
M  V30 1794 H 156.254 5.11225 -1.56693 0
M  V30 1795 H 156.597 4.16054 -0.143237 0
M  V30 1796 H 157.13 3.57779 -1.73893 0
M  V30 1797 H 153.869 4.78094 -4.48449 0
M  V30 1798 H 153.389 5.27972 -2.84615 0
M  V30 1799 H 155.068 5.50765 -3.39509 0
M  V30 1800 N 155.201 0.870884 1.31352 0
M  V30 1801 C 156.45 0.478408 1.95944 0
M  V30 1802 C 156.763 -0.974493 1.69597 0
M  V30 1803 O 157.969 -1.47316 2.28058 0
M  V30 1804 C 156.425 0.804609 3.50791 0
M  V30 1805 C 156.033 2.27433 3.85977 0
M  V30 1806 C 157.777 0.480648 4.2177 0
M  V30 1807 C 155.684 2.5429 5.33939 0
M  V30 1808 H 154.614 0.175175 0.733369 0
M  V30 1809 H 157.265 1.06391 1.4951 0
M  V30 1810 H 155.647 0.148347 3.95722 0
M  V30 1811 H 156.821 2.97373 3.52002 0
M  V30 1812 H 155.136 2.56442 3.28065 0
M  V30 1813 H 157.733 0.658519 5.30629 0
M  V30 1814 H 158.076 -0.578979 4.12254 0
M  V30 1815 H 158.609 1.09349 3.82476 0
M  V30 1816 H 155.348 3.58939 5.48491 0
M  V30 1817 H 154.868 1.88945 5.69263 0
M  V30 1818 H 156.547 2.39066 6.01212 0
M  V30 1819 N 156.679 -1.44442 0.630414 0
M  V30 1820 C 157.642 -2.29107 -0.0652523 0
M  V30 1821 C 158.642 -1.41002 -0.772995 0
M  V30 1822 O 159.832 -1.62881 -0.617692 0
M  V30 1823 C 156.964 -3.22564 -1.10296 0
M  V30 1824 H 158.157 -2.92103 0.679401 0
M  V30 1825 H 155.71 -1.51343 0.390517 0
M  V30 1826 H 156.445 -2.64416 -1.87762 0
M  V30 1827 H 156.23 -3.87491 -0.59941 0
M  V30 1828 H 157.72 -3.86167 -1.5895 0
M  V30 1829 N 158.157 -0.370918 -1.53173 0
M  V30 1830 C 159.382 0.220293 -2.06227 0
M  V30 1831 C 159.807 1.41243 -1.24225 0
M  V30 1832 O 159.165 1.79387 -0.262645 0
M  V30 1833 C 159.213 0.586663 -3.55796 0
M  V30 1834 O 158.317 1.68317 -3.76488 0
M  V30 1835 H 157.658 0.0308099 -0.663285 0
M  V30 1836 H 160.188 -0.533068 -1.97534 0
M  V30 1837 H 160.198 0.85617 -3.98916 0
M  V30 1838 H 158.873 -0.285013 -4.14922 0
M  V30 1839 H 157.45 1.40881 -3.45264 0
M  V30 1840 N 159.635 1.57281 -0.100228 0
M  V30 1841 C 160.865 1.98591 0.569681 0
M  V30 1842 C 161.273 0.978315 1.61943 0
M  V30 1843 O 160.616 -0.0396108 1.83657 0
M  V30 1844 C 160.678 3.36282 1.271 0
M  V30 1845 C 160.342 4.55488 0.371409 0
M  V30 1846 C 161.339 5.18491 -0.382504 0
M  V30 1847 C 159.024 5.01474 0.287965 0
M  V30 1848 C 161.018 6.25852 -1.20779 0
M  V30 1849 C 158.705 6.08701 -0.540965 0
M  V30 1850 C 159.703 6.70755 -1.28749 0
M  V30 1851 O 159.391 7.75914 -2.10269 0
M  V30 1852 H 159.123 0.65752 0.156982 0
M  V30 1853 H 161.677 2.0463 -0.177734 0
M  V30 1854 H 159.907 3.26941 2.0651 0
M  V30 1855 H 161.596 3.62005 1.83595 0
M  V30 1856 H 162.362 4.83891 -0.3278 0
M  V30 1857 H 158.241 4.52932 0.858689 0
M  V30 1858 H 161.785 6.74218 -1.79096 0
M  V30 1859 H 157.682 6.42732 -0.597131 0
M  V30 1860 H 158.45 7.92925 -2.03007 0
M  V30 1861 N 161.113 -0.173488 1.56642 0
M  V30 1862 C 162.39 -0.917617 1.7274 0
M  V30 1863 C 162.77 -2.00484 0.661027 0
M  V30 1864 O 162.118 -2.26184 -0.32453 0
M  V30 1865 C 162.328 -1.48433 3.15862 0
M  V30 1866 C 163.676 -1.95809 3.76754 0
M  V30 1867 O 164.7 -1.58231 3.19126 0
M  V30 1868 O 163.559 -2.65024 4.77938 0
M  V30 1869 H 160.653 -0.431772 0.705338 0
M  V30 1870 H 163.199 -0.161487 1.6893 0
M  V30 1871 H 161.971 -0.701715 3.84957 0
M  V30 1872 H 161.594 -2.30471 3.23989 0
M  V30 1873 N 162.591 -1.51276 -0.441967 0
M  V30 1874 C 164.002 -1.56244 -1.02199 0
M  V30 1875 C 164.353 -0.383149 -1.92422 0
M  V30 1876 O 163.478 0.500613 -2.1053 0
M  V30 1877 C 164.073 -2.83162 -1.86024 0
M  V30 1878 C 162.632 -2.90716 -2.39084 0
M  V30 1879 C 161.779 -2.50858 -1.18175 0
M  V30 1880 H 164.73 -1.5712 -0.223416 0
M  V30 1881 H 164.751 -2.66663 -2.71425 0
M  V30 1882 H 164.263 -3.68974 -1.20331 0
M  V30 1883 H 162.364 -2.09323 -3.08244 0
M  V30 1884 H 162.477 -3.94266 -2.72198 0
M  V30 1885 H 160.841 -2.03951 -1.52565 0
M  V30 1886 H 161.624 -3.3901 -0.541001 0
M  V30 1887 N 164.069 0.697108 -1.41344 0
M  V30 1888 C 165.346 1.45154 -1.31109 0
M  V30 1889 C 165.726 2.11009 0.0620449 0
M  V30 1890 O 165.074 2.01571 1.07618 0
M  V30 1891 C 165.284 2.47223 -2.46337 0
M  V30 1892 C 166.632 3.1252 -2.87431 0
M  V30 1893 O 167.656 2.57547 -2.46065 0
M  V30 1894 O 166.515 4.12083 -3.58957 0
M  V30 1895 H 163.609 0.646365 -0.515889 0
M  V30 1896 H 166.155 0.727716 -1.53305 0
M  V30 1897 H 164.927 1.97204 -3.37974 0
M  V30 1898 H 164.55 3.27116 -2.2601 0
M  V30 1899 N 165.547 1.27147 0.931209 0
M  V30 1900 C 166.495 1.09398 2.05268 0
M  V30 1901 C 167.489 0.0180591 1.6939 0
M  V30 1902 O 168.695 0.17551 1.79142 0
M  V30 1903 H 165.07 0.336986 0.672268 0
M  V30 1904 H 167.041 2.04416 2.17386 0
M  V30 1905 C 165.79 0.75424 3.39421 0
M  V30 1906 H 165.113 1.57404 3.67511 0
M  V30 1907 H 166.553 0.669903 4.18674 0
M  V30 1908 C 165.012 -0.541197 3.32525 0
M  V30 1909 O 165.542 -1.57664 3.69466 0
M  V30 1910 N 163.748 -0.535517 2.85623 0
M  V30 1911 H 163.295 0.307511 2.55758 0
M  V30 1912 H 163.253 -1.40236 2.81392 0
M  V30 1913 N 167.025 -1.13721 1.09112 0
M  V30 1914 C 167.972 -2.19031 0.727591 0
M  V30 1915 C 168.942 -1.63555 -0.289656 0
M  V30 1916 O 170.127 -1.90023 -0.172026 0
M  V30 1917 C 167.267 -3.4477 0.15082 0
M  V30 1918 C 166.38 -4.14365 1.22172 0
M  V30 1919 C 165.515 -5.27709 0.608042 0
M  V30 1920 C 164.554 -5.89147 1.66047 0
M  V30 1921 N 163.691 -6.93929 1.06806 0
M  V30 1922 H 168.531 -2.49475 1.62991 0
M  V30 1923 H 166.068 -1.22499 0.81439 0
M  V30 1924 H 168.026 -4.16714 -0.201358 0
M  V30 1925 H 166.656 -3.14787 -0.714783 0
M  V30 1926 H 165.708 -3.40737 1.69122 0
M  V30 1927 H 167.02 -4.56114 2.01895 0
M  V30 1928 H 166.174 -6.06355 0.204523 0
M  V30 1929 H 164.913 -4.872 -0.220769 0
M  V30 1930 H 163.918 -5.09198 2.07357 0
M  V30 1931 H 165.143 -6.31729 2.49189 0
M  V30 1932 H 163.089 -6.55483 0.260476 0
M  V30 1933 H 163.006 -7.34202 1.8023 0
M  V30 1934 H 164.274 -7.76434 0.690644 0
M  V30 1935 N 168.503 -0.877838 -1.30888 0
M  V30 1936 C 169.413 -0.343096 -2.32078 0
M  V30 1937 C 170.429 0.551022 -1.65045 0
M  V30 1938 O 171.605 0.445854 -1.96403 0
M  V30 1939 C 168.67 0.439905 -3.43898 0
M  V30 1940 C 167.731 -0.483111 -4.26573 0
M  V30 1941 C 166.964 0.262616 -5.33053 0
M  V30 1942 O 167.187 1.48967 -5.50604 0
M  V30 1943 O 166.121 -0.383593 -6.00676 0
M  V30 1944 H 169.947 -1.18203 -2.79753 0
M  V30 1945 H 167.532 -0.64145 -1.34929 0
M  V30 1946 H 169.414 0.883504 -4.12034 0
M  V30 1947 H 168.089 1.25526 -2.98371 0
M  V30 1948 H 166.996 -0.975374 -3.61161 0
M  V30 1949 H 168.329 -1.26427 -4.75686 0
M  V30 1950 N 169.982 1.44106 -0.638065 0
M  V30 1951 C 170.892 2.34513 0.0637334 0
M  V30 1952 C 171.908 1.53018 0.828346 0
M  V30 1953 O 173.084 1.85723 0.779036 0
M  V30 1954 C 170.149 3.31095 1.02844 0
M  V30 1955 C 169.21 4.28497 0.26244 0
M  V30 1956 C 168.443 5.20465 1.1812 0
M  V30 1957 O 168.666 5.16514 2.42011 0
M  V30 1958 O 167.6 5.98251 0.661774 0
M  V30 1959 H 171.426 2.95989 -0.68003 0
M  V30 1960 H 169.011 1.43994 -0.398252 0
M  V30 1961 H 170.893 3.90526 1.58327 0
M  V30 1962 H 169.568 2.72144 1.7527 0
M  V30 1963 H 168.475 3.72592 -0.335602 0
M  V30 1964 H 169.808 4.90388 -0.421936 0
M  V30 1965 N 171.46 0.379036 1.52974 0
M  V30 1966 C 172.876 0.0285448 1.59574 0
M  V30 1967 C 173.076 -1.45542 1.39355 0
M  V30 1968 O 172.132 -2.2187 1.20541 0
M  V30 1969 C 173.445 0.496535 2.96572 0
M  V30 1970 C 174.993 0.451909 3.0972 0
M  V30 1971 C 175.468 0.895924 4.49152 0
M  V30 1972 N 176.959 0.851522 4.55306 0
M  V30 1973 C 177.694 1.16661 5.61407 0
M  V30 1974 N 177.19 1.55166 6.752 0
M  V30 1975 N 178.983 1.08853 5.51459 0
M  V30 1976 H 171.134 1.34525 1.64367 0
M  V30 1977 H 173.397 0.550733 0.771619 0
M  V30 1978 H 173.103 1.53258 3.16552 0
M  V30 1979 H 172.977 -0.109802 3.7704 0
M  V30 1980 H 175.364 -0.575029 2.89443 0
M  V30 1981 H 175.445 1.09392 2.3123 0
M  V30 1982 H 175.089 1.92104 4.70168 0
M  V30 1983 H 175.019 0.23103 5.26093 0
M  V30 1984 H 177.51 0.568038 3.73606 0
M  V30 1985 H 177.823 1.776 7.52116 0
M  V30 1986 H 176.168 1.59044 6.76557 0
M  V30 1987 H 179.359 0.786803 4.6144 0
M  V30 1988 H 179.532 1.33742 6.34048 0
M  V30 1989 N 172.938 -1.57226 0.108567 0
M  V30 1990 C 174.163 -1.99604 -0.563303 0
M  V30 1991 C 174.588 -0.987563 -1.6009 0
M  V30 1992 O 173.946 0.0421687 -1.81251 0
M  V30 1993 C 173.994 -3.40902 -1.17552 0
M  V30 1994 O 173.098 -3.42896 -2.2912 0
M  V30 1995 H 172.439 -0.648704 -0.1417 0
M  V30 1996 H 174.969 -2.03679 0.193961 0
M  V30 1997 H 174.979 -3.78886 -1.51357 0
M  V30 1998 H 173.654 -4.1382 -0.415445 0
M  V30 1999 H 172.231 -3.1672 -1.96832 0
M  V30 2000 N 174.416 0.165178 -1.56732 0
M  V30 2001 C 175.665 0.879143 -1.81532 0
M  V30 2002 C 175.978 1.83144 -0.686842 0
M  V30 2003 O 177.184 2.58823 -0.819944 0
M  V30 2004 C 175.64 1.61388 -3.21686 0
M  V30 2005 C 175.248 0.704904 -4.4242 0
M  V30 2006 C 176.992 2.3157 -3.55774 0
M  V30 2007 C 174.899 1.44022 -5.73595 0
M  V30 2008 H 173.829 0.332033 -0.676957 0
M  V30 2009 H 176.48 0.132008 -1.83025 0
M  V30 2010 H 174.862 2.40599 -3.14529 0
M  V30 2011 H 176.036 -0.0506815 -4.60772 0
M  V30 2012 H 174.351 0.112419 -4.16248 0
M  V30 2013 H 176.948 2.8719 -4.51028 0
M  V30 2014 H 177.291 3.07201 -2.8095 0
M  V30 2015 H 177.824 1.59297 -3.64513 0
M  V30 2016 H 174.563 0.72612 -6.51466 0
M  V30 2017 H 174.083 2.16898 -5.5921 0
M  V30 2018 H 175.762 1.98606 -6.15764 0
M  V30 2019 N 175.894 1.51508 0.433938 0
M  V30 2020 C 176.857 1.72473 1.50949 0
M  V30 2021 C 177.857 0.594725 1.49398 0
M  V30 2022 O 179.047 0.862315 1.5136 0
M  V30 2023 C 176.179 1.78431 2.90474 0
M  V30 2024 H 177.372 2.68467 1.33662 0
M  V30 2025 H 174.925 1.41549 0.662836 0
M  V30 2026 H 175.66 0.842645 3.13161 0
M  V30 2027 H 175.445 2.60558 2.93005 0
M  V30 2028 H 176.935 1.96479 3.68491 0
M  V30 2029 N 177.372 -0.689602 1.41712 0
M  V30 2030 C 178.621 -1.44534 1.40686 0
M  V30 2031 C 178.934 -1.95588 0.0213352 0
M  V30 2032 O 180.14 -2.71271 -0.111534 0
M  V30 2033 C 178.596 -2.61387 2.47396 0
M  V30 2034 C 178.204 -2.17094 3.91885 0
M  V30 2035 C 179.948 -3.38986 2.55517 0
M  V30 2036 C 177.855 -3.3094 4.90135 0
M  V30 2037 H 176.785 -0.542925 0.52321 0
M  V30 2038 H 179.436 -0.748054 1.6756 0
M  V30 2039 H 177.818 -3.33412 2.13664 0
M  V30 2040 H 178.992 -1.52318 4.34897 0
M  V30 2041 H 177.307 -1.52473 3.8748 0
M  V30 2042 H 179.904 -4.23747 3.26102 0
M  V30 2043 H 180.247 -3.84578 1.59391 0
M  V30 2044 H 180.78 -2.74021 2.8837 0
M  V30 2045 H 177.519 -2.90355 5.87685 0
M  V30 2046 H 177.039 -3.94546 4.51767 0
M  V30 2047 H 178.718 -3.9663 5.11169 0
M  V30 2048 N 178.85 -1.27639 -0.924453 0
M  V30 2049 C 180.08 -1.16819 -1.70402 0
M  V30 2050 C 180.488 0.277191 -1.87158 0
M  V30 2051 O 179.831 1.20025 -1.39067 0
M  V30 2052 C 179.893 -1.78305 -3.12166 0
M  V30 2053 C 179.557 -3.27502 -3.18734 0
M  V30 2054 C 180.554 -4.2409 -3.00738 0
M  V30 2055 C 178.239 -3.68269 -3.4159 0
M  V30 2056 C 180.233 -5.59422 -3.05492 0
M  V30 2057 C 177.92 -5.0373 -3.45977 0
M  V30 2058 C 178.918 -5.99116 -3.27946 0
M  V30 2059 O 178.606 -7.32108 -3.32074 0
M  V30 2060 H 178.338 -0.406931 -0.539799 0
M  V30 2061 H 180.892 -1.69078 -1.16626 0
M  V30 2062 H 179.122 -1.20528 -3.67437 0
M  V30 2063 H 180.811 -1.62154 -3.72103 0
M  V30 2064 H 181.577 -3.93931 -2.82919 0
M  V30 2065 H 177.456 -2.94496 -3.54673 0
M  V30 2066 H 181 -6.33852 -2.91337 0
M  V30 2067 H 176.897 -5.33543 -3.63321 0
M  V30 2068 H 177.665 -7.40598 -3.48507 0
M  V30 2069 N 180.328 1.1314 -1.09713 0
M  V30 2070 C 181.258 2.20748 -0.761102 0
M  V30 2071 C 182.239 1.68061 0.262566 0
M  V30 2072 O 183.424 1.93765 0.129977 0
M  V30 2073 C 180.554 3.46812 -0.184054 0
M  V30 2074 C 179.508 4.12606 -1.13757 0
M  V30 2075 C 178.834 5.33031 -0.422083 0
M  V30 2076 C 180.134 4.59603 -2.48118 0
M  V30 2077 H 181.828 2.49113 -1.66082 0
M  V30 2078 H 179.374 1.19734 -0.799987 0
M  V30 2079 H 181.327 4.21353 0.0631215 0
M  V30 2080 H 180.051 3.17851 0.750868 0
M  V30 2081 H 178.71 3.40036 -1.37007 0
M  V30 2082 H 178.358 5.00335 0.517072 0
M  V30 2083 H 178.058 5.77999 -1.05788 0
M  V30 2084 H 179.582 6.10325 -0.183277 0
M  V30 2085 H 180.996 5.25552 -2.29059 0
M  V30 2086 H 179.393 5.15321 -3.07514 0
M  V30 2087 H 180.463 3.73971 -3.08665 0
M  V30 2088 N 181.806 0.884767 1.30421 0
M  V30 2089 C 183.054 0.502112 1.95763 0
M  V30 2090 C 183.375 -0.951815 1.70192 0
M  V30 2091 O 182.645 -1.6692 1.0254 0
M  V30 2092 H 181.225 0.182694 0.724315 0
M  V30 2093 H 183.887 1.1278 1.58955 0
M  V30 2094 H 182.983 0.672188 3.04775 0
M  V30 2095 N 183.284 -1.43765 0.645699 0
M  V30 2096 C 184.533 -2.01116 0.153412 0
M  V30 2097 C 184.846 -1.51493 -1.23731 0
M  V30 2098 O 186.052 -2.01067 -1.8244 0
M  V30 2099 C 184.508 -3.59206 0.223473 0
M  V30 2100 C 184.116 -4.17823 1.61642 0
M  V30 2101 C 185.86 -4.23972 -0.211597 0
M  V30 2102 C 183.767 -5.68183 1.64081 0
M  V30 2103 H 182.697 -0.752093 0.0535891 0
M  V30 2104 H 185.348 -1.6482 0.806633 0
M  V30 2105 H 183.73 -3.92867 -0.497118 0
M  V30 2106 H 184.904 -3.95674 2.36176 0
M  V30 2107 H 183.219 -3.65399 1.99681 0
M  V30 2108 H 185.816 -5.34275 -0.213112 0
M  V30 2109 H 186.159 -3.97352 -1.24165 0
M  V30 2110 H 186.692 -3.95166 0.456988 0
M  V30 2111 H 183.431 -5.99559 2.64971 0
M  V30 2112 H 182.951 -5.9241 0.938611 0
M  V30 2113 H 184.63 -6.32085 1.3812 0
M  V30 2114 N 184.763 -0.387143 -1.52771 0
M  V30 2115 C 186.011 0.195349 -2.01154 0
M  V30 2116 C 186.332 1.475 -1.27549 0
M  V30 2117 O 185.602 1.91878 -0.394924 0
M  V30 2118 H 184.182 0.075178 -0.743207 0
M  V30 2119 H 186.844 -0.518337 -1.87881 0
M  V30 2120 H 185.94 0.407096 -3.09434 0
M  V30 2121 N 186.241 1.57166 -0.116904 0
M  V30 2122 C 187.171 2.18222 0.830759 0
M  V30 2123 C 188.152 1.12167 1.27877 0
M  V30 2124 O 189.337 1.40394 1.34176 0
M  V30 2125 C 186.467 2.77996 2.08172 0
M  V30 2126 C 185.421 3.89614 1.77157 0
M  V30 2127 C 184.747 4.36187 3.09265 0
M  V30 2128 C 186.047 5.1181 1.04151 0
M  V30 2129 H 187.741 2.97664 0.321992 0
M  V30 2130 H 185.287 1.4318 0.153434 0
M  V30 2131 H 187.24 3.19366 2.74924 0
M  V30 2132 H 185.964 1.9584 2.6137 0
M  V30 2133 H 184.623 3.48816 1.12796 0
M  V30 2134 H 184.271 3.50893 3.60393 0
M  V30 2135 H 183.971 5.11455 2.89288 0
M  V30 2136 H 185.495 4.80207 3.77139 0
M  V30 2137 H 186.909 5.50214 1.61052 0
M  V30 2138 H 185.306 5.92648 0.942762 0
M  V30 2139 H 186.376 4.84892 0.0279022 0
M  V30 2140 N 187.719 -0.156864 1.56817 0
M  V30 2141 C 188.959 -0.877453 1.84608 0
M  V30 2142 C 189.323 -1.78791 0.699845 0
M  V30 2143 O 190.524 -2.5472 0.858553 0
M  V30 2144 C 188.795 -1.63992 3.17555 0
M  V30 2145 S 190.354 -2.40729 3.66872 0
M  V30 2146 H 187.172 -0.293612 0.647544 0
M  V30 2147 H 189.774 -0.138099 1.95012 0
M  V30 2148 H 188.478 -0.962363 3.98957 0
M  V30 2149 H 188.009 -2.42038 3.10131 0
M  V30 2150 H 190.024 -3.65725 3.3535 0
M  V30 2151 N 189.197 -1.51736 -0.425897 0
M  V30 2152 C 190.127 -1.76827 -1.52494 0
M  V30 2153 C 191.108 -0.618524 -1.58456 0
M  V30 2154 O 192.293 -0.862416 -1.74 0
M  V30 2155 C 189.423 -1.90374 -2.90474 0
M  V30 2156 C 188.377 -3.0588 -2.99369 0
M  V30 2157 C 187.703 -3.04625 -4.3944 0
M  V30 2158 C 189.003 -4.45644 -2.72394 0
M  V30 2159 H 190.697 -2.68855 -1.31748 0
M  V30 2160 H 188.243 -1.29372 -0.632362 0
M  V30 2161 H 190.196 -2.0651 -3.6733 0
M  V30 2162 H 188.92 -0.95004 -3.12477 0
M  V30 2163 H 187.579 -2.89467 -2.24954 0
M  V30 2164 H 187.227 -2.0701 -4.58428 0
M  V30 2165 H 186.927 -3.82195 -4.46319 0
M  V30 2166 H 188.451 -3.22869 -5.18255 0
M  V30 2167 H 189.865 -4.62348 -3.38979 0
M  V30 2168 H 188.262 -5.25006 -2.9067 0
M  V30 2169 H 189.332 -4.54893 -1.67929 0
M  V30 2170 N 190.675 0.682077 -1.42076 0
M  V30 2171 C 191.605 1.80796 -1.47767 0
M  V30 2172 C 192.586 1.6677 -0.334954 0
M  V30 2173 O 193.771 1.863 -0.548264 0
M  V30 2174 C 190.901 3.19038 -1.37229 0
M  V30 2175 C 189.855 3.47789 -2.49453 0
M  V30 2176 C 189.181 4.8553 -2.23975 0
M  V30 2177 C 190.481 3.45411 -3.91776 0
M  V30 2178 H 192.175 1.7629 -2.41997 0
M  V30 2179 H 189.721 0.846721 -1.16476 0
M  V30 2180 H 191.674 3.97528 -1.39821 0
M  V30 2181 H 190.398 3.24204 -0.394907 0
M  V30 2182 H 189.057 2.71657 -2.46166 0
M  V30 2183 H 188.705 4.87337 -1.24547 0
M  V30 2184 H 188.405 5.0573 -2.99184 0
M  V30 2185 H 189.929 5.66312 -2.28304 0
M  V30 2186 H 191.343 4.13882 -3.96705 0
M  V30 2187 H 189.74 3.77145 -4.66778 0
M  V30 2188 H 190.81 2.44122 -4.18966 0
M  V30 2189 N 192.153 1.28127 0.917671 0
M  V30 2190 C 193.4 1.15052 1.66641 0
M  V30 2191 C 193.728 -0.301677 1.92146 0
M  V30 2192 O 192.983 -1.23622 1.51711 0
M  V30 2193 C 193.282 1.89018 3.03327 0
M  V30 2194 C 192.948 3.38832 2.97496 0
M  V30 2195 C 191.61 3.79693 2.95613 0
M  V30 2196 C 193.962 4.34378 2.88036 0
M  V30 2197 C 191.29 5.14447 2.82066 0
M  V30 2198 C 193.642 5.69201 2.7603 0
M  V30 2199 C 192.306 6.09343 2.72502 0
M  V30 2200 H 191.576 0.421006 0.609783 0
M  V30 2201 H 194.223 1.58855 1.06945 0
M  V30 2202 H 192.528 1.37752 3.66785 0
M  V30 2203 H 194.225 1.76321 3.60156 0
M  V30 2204 H 190.815 3.06342 2.99754 0
M  V30 2205 H 194.999 4.03775 2.88581 0
M  V30 2206 H 190.255 5.44681 2.77728 0
M  V30 2207 H 194.429 6.42901 2.67678 0
M  V30 2208 H 192.056 7.13712 2.61762 0
M  V30 2209 N 193.631 -1.12557 1.10312 0
M  V30 2210 C 194.88 -1.83395 0.839588 0
M  V30 2211 C 195.193 -1.84939 -0.636929 0
M  V30 2212 O 196.399 -2.51761 -1.01631 0
M  V30 2213 C 194.855 -3.29303 1.45215 0
M  V30 2214 C 194.463 -3.36122 2.96186 0
M  V30 2215 C 196.207 -4.05121 1.26796 0
M  V30 2216 C 194.114 -4.76357 3.50483 0
M  V30 2217 H 193.044 -0.687133 0.310425 0
M  V30 2218 H 195.695 -1.26746 1.32694 0
M  V30 2219 H 194.077 -3.85812 0.892469 0
M  V30 2220 H 195.251 -2.89559 3.58458 0
M  V30 2221 H 193.566 -2.73776 3.13745 0
M  V30 2222 H 196.163 -5.08668 1.64806 0
M  V30 2223 H 196.506 -4.15773 0.209409 0
M  V30 2224 H 197.039 -3.54967 1.79563 0
M  V30 2225 H 193.778 -4.70899 4.55998 0
M  V30 2226 H 193.298 -5.23377 2.92978 0
M  V30 2227 H 194.977 -5.45294 3.48228 0
M  V30 2228 N 195.109 -0.891671 -1.2995 0
M  V30 2229 C 196.355 -0.514261 -1.96171 0
M  V30 2230 C 196.688 0.935506 -1.70182 0
M  V30 2231 O 195.963 1.66204 -1.01028 0
M  V30 2232 C 196.246 -0.797719 -3.51153 0
M  V30 2233 C 196.099 -2.2986 -3.86632 0
M  V30 2234 C 197.418 -0.278749 -4.39216 0
M  V30 2235 H 194.537 -0.188314 -0.712535 0
M  V30 2236 H 197.179 -1.11689 -1.53706 0
M  V30 2237 H 195.329 -0.284826 -3.87455 0
M  V30 2238 H 197.001 -2.88042 -3.60319 0
M  V30 2239 H 195.244 -2.76257 -3.34462 0
M  V30 2240 H 195.915 -2.44753 -4.94773 0
M  V30 2241 H 198.391 -0.717825 -4.09862 0
M  V30 2242 H 197.267 -0.506353 -5.46559 0
M  V30 2243 H 197.528 0.820266 -4.34424 0
M  V30 2244 N 196.587 1.43421 -0.653314 0
M  V30 2245 C 198.003 1.56341 -0.320886 0
M  V30 2246 C 198.203 1.63696 1.17499 0
M  V30 2247 O 197.259 1.59208 1.95982 0
M  V30 2248 C 198.572 2.82424 -1.03233 0
M  V30 2249 C 200.12 2.96168 -1.01259 0
M  V30 2250 C 200.595 4.25084 -1.70492 0
M  V30 2251 N 202.086 4.31948 -1.67257 0
M  V30 2252 C 202.821 5.30466 -2.17701 0
M  V30 2253 N 202.317 6.35261 -2.76434 0
M  V30 2254 N 204.11 5.2212 -2.082 0
M  V30 2255 H 196.261 1.3689 -1.62403 0
M  V30 2256 H 198.524 0.657455 -0.682977 0
M  V30 2257 H 198.23 2.83053 -2.08744 0
M  V30 2258 H 198.104 3.72653 -0.583948 0
M  V30 2259 H 200.491 2.9508 0.0341235 0
M  V30 2260 H 200.572 2.07229 -1.49966 0
M  V30 2261 H 200.216 4.26932 -2.7512 0
M  V30 2262 H 200.146 5.1292 -1.19251 0
M  V30 2263 H 202.637 3.56838 -1.24398 0
M  V30 2264 H 202.95 7.06754 -3.12601 0
M  V30 2265 H 201.295 6.35884 -2.80495 0
M  V30 2266 H 204.486 4.39166 -1.62021 0
M  V30 2267 H 204.659 5.98739 -2.47822 0
M  V30 2268 N 198.065 0.39524 1.52563 0
M  V30 2269 C 199.293 -0.184943 2.06072 0
M  V30 2270 C 199.708 -1.40021 1.26647 0
M  V30 2271 O 199.065 -1.79767 0.314672 0
M  V30 2272 C 199.116 -0.549179 3.57304 0
M  V30 2273 O 198.837 0.617813 4.33722 0
M  V30 2274 C 200.338 -1.18459 4.2718 0
M  V30 2275 H 197.558 -0.0265025 0.670476 0
M  V30 2276 H 200.102 0.562184 1.96621 0
M  V30 2277 H 198.257 -1.2462 3.66809 0
M  V30 2278 H 198.671 0.317091 5.23541 0
M  V30 2279 H 200.145 -1.38976 5.34219 0
M  V30 2280 H 200.622 -2.15368 3.82771 0
M  V30 2281 H 201.228 -0.528163 4.22008 0
M  V30 2282 N 199.544 -1.57102 0.125237 0
M  V30 2283 C 200.474 -2.18659 -0.819174 0
M  V30 2284 C 201.455 -1.12843 -1.27281 0
M  V30 2285 O 202.64 -1.41104 -1.33429 0
M  V30 2286 C 199.77 -2.79096 -2.06695 0
M  V30 2287 C 198.724 -3.90548 -1.75088 0
M  V30 2288 C 198.05 -4.37821 -3.06948 0
M  V30 2289 C 199.35 -5.12356 -1.01435 0
M  V30 2290 H 201.044 -2.9783 -0.306202 0
M  V30 2291 H 198.59 -1.4326 -0.145839 0
M  V30 2292 H 200.543 -3.2082 -2.73226 0
M  V30 2293 H 199.267 -1.97223 -2.60328 0
M  V30 2294 H 197.926 -3.49409 -1.10944 0
M  V30 2295 H 197.574 -3.52799 -3.58527 0
M  V30 2296 H 197.274 -5.12982 -2.86571 0
M  V30 2297 H 198.798 -4.822 -3.74587 0
M  V30 2298 H 200.212 -5.5106 -1.58132 0
M  V30 2299 H 198.609 -5.9314 -0.911319 0
M  V30 2300 H 199.679 -4.849 -0.00218681 0
M  V30 2301 N 201.022 0.148545 -1.56898 0
M  V30 2302 C 201.952 1.18524 -2.01182 0
M  V30 2303 C 202.933 1.4489 -0.891123 0
M  V30 2304 O 204.118 1.55836 -1.15882 0
M  V30 2305 C 201.248 2.51879 -2.39112 0
M  V30 2306 C 200.202 2.40038 -3.54353 0
M  V30 2307 C 199.528 3.78089 -3.78091 0
M  V30 2308 C 200.828 1.88577 -4.87069 0
M  V30 2309 H 202.522 0.817029 -2.88036 0
M  V30 2310 H 200.068 0.391575 -1.38574 0
M  V30 2311 H 202.021 3.24627 -2.68692 0
M  V30 2312 H 200.745 2.90532 -1.49193 0
M  V30 2313 H 199.404 1.69742 -3.24936 0
M  V30 2314 H 199.052 4.14175 -2.85426 0
M  V30 2315 H 198.752 3.71028 -4.55645 0
M  V30 2316 H 200.276 4.52387 -4.10095 0
M  V30 2317 H 201.69 2.51117 -5.15377 0
M  V30 2318 H 200.087 1.9241 -5.68417 0
M  V30 2319 H 201.157 0.84136 -4.77545 0
M  V30 2320 N 202.5 1.5196 0.417844 0
M  V30 2321 C 203.43 1.77634 1.51554 0
M  V30 2322 C 204.411 0.626918 1.58126 0
M  V30 2323 O 205.596 0.871632 1.7354 0
M  V30 2324 C 202.726 1.91911 2.8946 0
M  V30 2325 C 201.68 3.07463 2.97743 0
M  V30 2326 C 201.006 3.06951 4.37819 0
M  V30 2327 C 202.306 4.47082 2.70027 0
M  V30 2328 H 204 2.6955 1.3032 0
M  V30 2329 H 201.546 1.29706 0.625492 0
M  V30 2330 H 203.499 2.08455 3.6623 0
M  V30 2331 H 202.223 0.966598 3.11969 0
M  V30 2332 H 200.882 2.90656 2.23416 0
M  V30 2333 H 200.53 2.09438 4.57323 0
M  V30 2334 H 200.23 3.84556 4.44286 0
M  V30 2335 H 201.754 3.25613 5.16535 0
M  V30 2336 H 203.168 4.6414 3.36522 0
M  V30 2337 H 201.565 5.2654 2.87881 0
M  V30 2338 H 202.635 4.55777 1.65514 0
M  V30 2339 N 203.978 -0.674533 1.42435 0
M  V30 2340 C 204.928 -1.7807 1.4239 0
M  V30 2341 C 205.912 -1.58169 0.295202 0
M  V30 2342 O 207.104 -1.68643 0.537449 0
M  V30 2343 C 204.233 -3.16532 1.32901 0
M  V30 2344 C 203.319 -3.42055 2.50717 0
M  V30 2345 N 203.71 -3.38162 3.76139 0
M  V30 2346 C 202.008 -3.72692 2.44983 0
M  V30 2347 C 202.709 -3.63177 4.54398 0
M  V30 2348 N 201.685 -3.83954 3.84812 0
M  V30 2349 H 205.487 -1.73454 2.37257 0
M  V30 2350 H 203.001 -0.875381 1.36788 0
M  V30 2351 H 204.998 -3.958 1.30951 0
M  V30 2352 H 203.658 -3.22345 0.390363 0
M  V30 2353 H 204.669 -3.18057 4.0873 0
M  V30 2354 H 201.346 -3.85749 1.59699 0
M  V30 2355 H 202.736 -3.66125 5.63384 0
M  V30 2356 N 205.456 -1.28612 -0.910864 0
M  V30 2357 C 206.867 -1.14406 -1.47541 0
M  V30 2358 C 207.218 0.264901 -1.94403 0
M  V30 2359 O 206.343 1.15942 -1.82719 0
M  V30 2360 C 206.938 -2.07073 -2.68153 0
M  V30 2361 C 205.497 -1.96923 -3.20778 0
M  V30 2362 C 204.644 -1.98646 -1.93481 0
M  V30 2363 H 207.595 -1.41259 -0.723291 0
M  V30 2364 H 207.616 -1.63642 -3.43514 0
M  V30 2365 H 207.128 -3.09611 -2.34015 0
M  V30 2366 H 205.229 -0.97433 -3.59635 0
M  V30 2367 H 205.342 -2.84026 -3.85832 0
M  V30 2368 H 203.706 -1.43093 -2.10705 0
M  V30 2369 H 204.489 -3.02868 -1.61634 0
M  V30 2370 N 206.934 1.1197 -1.10907 0
M  V30 2371 C 207.897 2.16031 -0.765707 0
M  V30 2372 C 208.897 1.59393 0.212235 0
M  V30 2373 O 210.087 1.74196 -0.0115441 0
M  V30 2374 C 207.219 3.40632 -0.135053 0
M  V30 2375 H 208.412 2.47919 -1.68748 0
M  V30 2376 H 205.965 1.27061 -0.910226 0
M  V30 2377 H 206.7 3.14348 0.797218 0
M  V30 2378 H 206.485 3.8302 -0.838937 0
M  V30 2379 H 207.975 4.17505 0.0892469 0
M  V30 2380 N 208.412 0.89855 1.29475 0
M  V30 2381 C 209.661 0.519863 1.94885 0
M  V30 2382 C 209.974 -0.9383 1.71625 0
M  V30 2383 O 211.18 -1.42445 2.31131 0
M  V30 2384 C 209.636 0.878836 3.49005 0
M  V30 2385 C 209.244 2.35569 3.81066 0
M  V30 2386 C 210.988 0.570004 4.20656 0
M  V30 2387 C 208.895 2.65558 5.28425 0
M  V30 2388 H 207.825 0.190692 0.729488 0
M  V30 2389 H 210.476 1.09539 1.47219 0
M  V30 2390 H 208.858 0.232253 3.95318 0
M  V30 2391 H 210.032 3.04773 3.45616 0
M  V30 2392 H 208.347 2.63343 3.22552 0
M  V30 2393 H 210.944 0.770925 5.29113 0
M  V30 2394 H 211.287 -0.491404 4.1339 0
M  V30 2395 H 211.82 1.17438 3.8007 0
M  V30 2396 H 208.559 3.70493 5.40754 0
M  V30 2397 H 208.079 2.00977 5.65127 0
M  V30 2398 H 209.758 2.51765 5.96006 0
M  V30 2399 N 209.89 -1.43072 0.660911 0
M  V30 2400 C 211.137 -2.01721 0.177445 0
M  V30 2401 C 211.465 -1.5218 -1.21126 0
M  V30 2402 O 210.72 -0.708659 -1.82419 0
M  V30 2403 C 211.019 -3.57103 0.145563 0
M  V30 2404 C 210.685 -4.26021 1.47705 0
M  V30 2405 C 209.347 -4.44563 1.84165 0
M  V30 2406 C 211.699 -4.64983 2.35458 0
M  V30 2407 C 209.027 -4.99334 3.0803 0
M  V30 2408 C 211.379 -5.21127 3.58622 0
M  V30 2409 C 210.043 -5.37884 3.95268 0
M  V30 2410 H 209.313 -0.73815 0.0649317 0
M  V30 2411 H 211.96 -1.71446 0.853144 0
M  V30 2412 H 210.265 -3.86965 -0.61361 0
M  V30 2413 H 211.962 -4.00248 -0.2455 0
M  V30 2414 H 208.552 -4.11939 1.18339 0
M  V30 2415 H 212.736 -4.50343 2.08579 0
M  V30 2416 H 207.992 -5.10493 3.36462 0
M  V30 2417 H 212.166 -5.50262 4.26831 0
M  V30 2418 H 209.793 -5.80089 4.91325 0
M  V30 2419 N 211.368 -0.403325 -1.52352 0
M  V30 2420 C 212.616 0.174003 -2.0135 0
M  V30 2421 C 212.937 1.46139 -1.29106 0
M  V30 2422 O 212.207 1.91448 -0.415253 0
M  V30 2423 H 210.787 0.0672911 -0.743963 0
M  V30 2424 H 213.449 -0.538235 -1.87321 0
M  V30 2425 H 212.545 0.374254 -3.09848 0
M  V30 2426 N 212.846 1.57033 -0.133567 0
M  V30 2427 C 213.776 2.1909 0.807567 0
M  V30 2428 C 214.757 1.13517 1.26681 0
M  V30 2429 O 215.942 1.41809 1.32679 0
M  V30 2430 C 213.072 2.80188 2.05212 0
M  V30 2431 C 212.026 3.91471 1.73015 0
M  V30 2432 C 211.352 4.39443 3.04622 0
M  V30 2433 C 212.652 5.12886 0.987168 0
M  V30 2434 H 214.346 2.97988 0.290403 0
M  V30 2435 H 211.892 1.43335 0.138239 0
M  V30 2436 H 213.845 3.22264 2.71521 0
M  V30 2437 H 212.569 1.98601 2.59278 0
M  V30 2438 H 211.228 3.49993 1.0909 0
M  V30 2439 H 210.876 3.54695 3.56651 0
M  V30 2440 H 210.576 5.14495 2.83847 0
M  V30 2441 H 212.1 4.8418 3.72024 0
M  V30 2442 H 213.514 5.51891 1.55208 0
M  V30 2443 H 211.911 5.93615 0.87985 0
M  V30 2444 H 212.981 4.84894 -0.0235286 0
M  V30 2445 N 214.325 -0.140222 1.56975 0
M  V30 2446 C 215.275 -1.17827 1.95194 0
M  V30 2447 C 216.259 -1.38195 0.824075 0
M  V30 2448 O 217.451 -1.39643 1.0876 0
M  V30 2449 C 214.58 -2.51024 2.34184 0
M  V30 2450 C 213.666 -2.3422 3.53556 0
M  V30 2451 N 214.057 -1.87185 4.69889 0
M  V30 2452 C 212.355 -2.64949 3.58773 0
M  V30 2453 C 213.056 -1.83586 5.5197 0
M  V30 2454 N 212.032 -2.2715 4.93866 0
M  V30 2455 H 215.834 -0.806817 2.82609 0
M  V30 2456 H 213.348 -0.348208 1.58623 0
M  V30 2457 H 215.345 -3.26074 2.59772 0
M  V30 2458 H 214.005 -2.88945 1.48124 0
M  V30 2459 H 215.016 -1.57048 4.93514 0
M  V30 2460 H 211.693 -3.067 2.8327 0
M  V30 2461 H 213.083 -1.48655 6.55249 0
M  V30 2462 N 215.803 -1.52179 -0.40978 0
M  V30 2463 C 216.753 -1.71857 -1.49831 0
M  V30 2464 C 217.737 -0.572469 -1.50372 0
M  V30 2465 O 218.929 -0.829509 -1.56359 0
M  V30 2466 C 216.058 -1.87206 -2.87765 0
M  V30 2467 C 215.144 -3.07685 -2.91875 0
M  V30 2468 N 215.535 -4.30403 -2.65683 0
M  V30 2469 C 213.833 -3.07505 -3.23043 0
M  V30 2470 C 214.534 -5.11868 -2.76344 0
M  V30 2471 N 213.51 -4.47101 -3.09195 0
M  V30 2472 H 217.312 -2.64381 -1.28375 0
M  V30 2473 H 214.826 -1.50203 -0.617479 0
M  V30 2474 H 216.823 -1.99419 -3.66111 0
M  V30 2475 H 215.483 -0.958814 -3.10221 0
M  V30 2476 H 216.494 -4.58887 -2.4009 0
M  V30 2477 H 213.171 -2.25915 -3.51096 0
M  V30 2478 H 214.561 -6.19634 -2.59814 0
M  V30 2479 N 217.281 0.66697 -1.42791 0
M  V30 2480 C 218.53 1.42278 -1.42968 0
M  V30 2481 C 218.843 1.9553 -0.0524489 0
M  V30 2482 O 220.049 2.71414 0.068363 0
M  V30 2483 C 218.505 2.57418 -2.51524 0
M  V30 2484 C 218.113 2.10832 -3.9529 0
M  V30 2485 C 219.857 3.34878 -2.60877 0
M  V30 2486 C 217.764 3.23101 -4.95338 0
M  V30 2487 H 216.694 0.534533 -0.531781 0
M  V30 2488 H 219.345 0.721302 -1.68729 0
M  V30 2489 H 217.727 3.29971 -2.18941 0
M  V30 2490 H 218.901 1.4538 -4.37266 0
M  V30 2491 H 217.216 1.46289 -3.89857 0
M  V30 2492 H 219.813 4.18505 -3.32802 0
M  V30 2493 H 220.156 3.81993 -1.6549 0
M  V30 2494 H 220.689 2.69398 -2.92693 0
M  V30 2495 H 217.428 2.80969 -5.9223 0
M  V30 2496 H 216.948 3.87309 -4.57987 0
M  V30 2497 H 218.627 3.88447 -5.17415 0
M  V30 2498 N 218.759 1.29093 0.90403 0
M  V30 2499 C 220.007 1.16583 1.65085 0
M  V30 2500 C 220.328 -0.283933 1.92922 0
M  V30 2501 O 219.598 -1.19509 1.55224 0
M  V30 2502 H 218.178 0.428467 0.611903 0
M  V30 2503 H 220.84 1.61959 1.08422 0
M  V30 2504 H 219.936 1.71266 2.6091 0
M  V30 2505 N 220.237 -1.11381 1.11499 0
M  V30 2506 C 221.17 -2.16621 0.71769 0
M  V30 2507 C 222.148 -1.60058 -0.286413 0
M  V30 2508 O 223.332 -1.87613 -0.182689 0
M  V30 2509 C 220.459 -3.38646 0.0607265 0
M  V30 2510 C 219.505 -4.13874 1.03008 0
M  V30 2511 S 220.338 -4.70731 2.55289 0
M  V30 2512 C 221.494 -5.96079 1.90895 0
M  V30 2513 H 221.727 -2.49987 1.60915 0
M  V30 2514 H 219.26 -1.23015 0.933092 0
M  V30 2515 H 221.218 -4.09313 -0.311965 0
M  V30 2516 H 219.879 -3.03537 -0.807702 0
M  V30 2517 H 219.072 -5.01333 0.517853 0
M  V30 2518 H 218.674 -3.4897 1.34522 0
M  V30 2519 H 220.966 -6.65948 1.24577 0
M  V30 2520 H 221.909 -6.51946 2.76354 0
M  V30 2521 H 222.317 -5.47652 1.36885 0
M  V30 2522 N 221.715 -0.905404 -1.28997 0
M  V30 2523 C 222.647 -0.344748 -2.26592 0
M  V30 2524 C 223.66 0.512135 -1.54535 0
M  V30 2525 O 224.849 0.328368 -1.75454 0
M  V30 2526 C 221.949 0.526587 -3.34784 0
M  V30 2527 C 221.122 -0.305871 -4.36329 0
M  V30 2528 C 220.181 0.499209 -5.23827 0
M  V30 2529 O 219.207 -0.0853004 -5.69136 0
M  V30 2530 N 220.409 1.80408 -5.51755 0
M  V30 2531 H 223.174 -1.18359 -2.75338 0
M  V30 2532 H 220.735 -0.770481 -1.42391 0
M  V30 2533 H 222.727 1.07171 -3.90252 0
M  V30 2534 H 221.297 1.26613 -2.85811 0
M  V30 2535 H 220.517 -1.0324 -3.80441 0
M  V30 2536 H 221.805 -0.875773 -5.01206 0
M  V30 2537 H 221.203 2.3016 -5.16762 0
M  V30 2538 H 219.76 2.29621 -6.10014 0
M  V30 2539 N 223.193 1.4272 -0.668489 0
M  V30 2540 C 224.126 2.28111 0.0637898 0
M  V30 2541 C 225.104 1.40705 0.814912 0
M  V30 2542 O 226.288 1.70146 0.81134 0
M  V30 2543 C 223.415 3.20429 1.0974 0
M  V30 2544 C 222.461 4.24197 0.442579 0
M  V30 2545 S 223.294 5.29563 -0.795173 0
M  V30 2546 C 224.45 6.25449 0.237516 0
M  V30 2547 H 224.683 2.8987 -0.660521 0
M  V30 2548 H 222.216 1.47456 -0.457821 0
M  V30 2549 H 224.174 3.74158 1.68868 0
M  V30 2550 H 222.835 2.57818 1.79411 0
M  V30 2551 H 222.028 4.88954 1.22227 0
M  V30 2552 H 221.63 3.73925 -0.0749554 0
M  V30 2553 H 223.922 6.68524 1.09915 0
M  V30 2554 H 224.865 7.07104 -0.375421 0
M  V30 2555 H 225.273 5.61511 0.580167 0
M  V30 2556 N 224.671 0.411399 1.52136 0
M  V30 2557 C 226.087 0.0623865 1.59478 0
M  V30 2558 C 226.287 -1.42554 1.4241 0
M  V30 2559 O 225.343 -2.19263 1.2522 0
M  V30 2560 C 226.656 0.559331 2.95452 0
M  V30 2561 C 228.204 0.517503 3.08692 0
M  V30 2562 C 228.679 0.990994 4.4715 0
M  V30 2563 N 230.17 0.947908 4.53397 0
M  V30 2564 C 230.905 1.28544 5.58806 0
M  V30 2565 N 230.401 1.69454 6.71757 0
M  V30 2566 N 232.194 1.20526 5.49026 0
M  V30 2567 H 224.345 1.37982 1.61477 0
M  V30 2568 H 226.608 0.566977 0.759764 0
M  V30 2569 H 226.314 1.59938 3.1323 0
M  V30 2570 H 226.188 -0.0298014 3.77188 0
M  V30 2571 H 228.575 -0.513505 2.90598 0
M  V30 2572 H 228.656 1.14272 2.28857 0
M  V30 2573 H 228.3 2.02034 4.65988 0
M  V30 2574 H 228.23 0.34257 5.25485 0
M  V30 2575 H 230.721 0.647157 3.72317 0
M  V30 2576 H 231.034 1.93513 7.48179 0
M  V30 2577 H 229.379 1.73359 6.73032 0
M  V30 2578 H 232.57 0.884505 4.59667 0
M  V30 2579 H 232.743 1.47161 6.31069 0
M  V30 2580 N 226.149 -1.5696 0.141893 0
M  V30 2581 C 227.398 -1.95135 -0.510427 0
M  V30 2582 C 227.711 -1.02896 -1.66348 0
M  V30 2583 O 228.917 -1.30629 -2.38009 0
M  V30 2584 C 227.373 -3.46876 -0.959427 0
M  V30 2585 C 226.981 -4.47691 0.166419 0
M  V30 2586 C 228.725 -3.93927 -1.58183 0
M  V30 2587 C 226.632 -5.90636 -0.300565 0
M  V30 2588 H 225.562 -0.728494 -0.194454 0
M  V30 2589 H 228.213 -1.8211 0.22542 0
M  V30 2590 H 226.595 -3.55215 -1.75038 0
M  V30 2591 H 227.769 -4.51043 0.94325 0
M  V30 2592 H 226.084 -4.10527 0.696905 0
M  V30 2593 H 228.681 -4.98158 -1.94275 0
M  V30 2594 H 229.024 -3.3519 -2.46888 0
M  V30 2595 H 229.557 -3.88484 -0.855863 0
M  V30 2596 H 226.296 -6.5318 0.550989 0
M  V30 2597 H 225.816 -5.90655 -1.04338 0
M  V30 2598 H 227.495 -6.42588 -0.754265 0
M  V30 2599 N 227.627 0.131896 -1.57047 0
M  V30 2600 C 228.59 1.14638 -1.98471 0
M  V30 2601 C 229.59 1.35029 -0.873148 0
M  V30 2602 O 230.78 1.31764 -1.13946 0
M  V30 2603 C 227.912 2.50358 -2.31373 0
M  V30 2604 H 229.105 0.79064 -2.8929 0
M  V30 2605 H 226.658 0.375761 -1.51716 0
M  V30 2606 H 227.393 2.90876 -1.43393 0
M  V30 2607 H 227.178 2.36915 -3.12432 0
M  V30 2608 H 228.668 3.23395 -2.64207 0
M  V30 2609 N 229.106 1.52395 0.401703 0
M  V30 2610 C 230.039 1.70999 1.51111 0
M  V30 2611 C 231.017 0.55765 1.52738 0
M  V30 2612 O 232.201 0.785912 1.71335 0
M  V30 2613 C 229.328 1.75607 2.8962 0
M  V30 2614 C 228.374 2.97227 3.05873 0
M  V30 2615 S 229.207 4.57439 2.78405 0
M  V30 2616 C 230.363 4.64844 4.19131 0
M  V30 2617 H 230.596 2.6483 1.35102 0
M  V30 2618 H 228.129 1.42527 0.593762 0
M  V30 2619 H 230.087 1.78947 3.69443 0
M  V30 2620 H 228.748 0.828914 3.02965 0
M  V30 2621 H 227.941 2.96955 4.07227 0
M  V30 2622 H 227.543 2.91813 2.33925 0
M  V30 2623 H 229.835 4.42677 5.12877 0
M  V30 2624 H 230.778 5.66807 4.24424 0
M  V30 2625 H 231.186 3.93804 4.04448 0
M  V30 2626 N 230.584 -0.659388 1.43143 0
M  V30 2627 C 231.831 -1.41935 1.44433 0
M  V30 2628 C 232.159 -1.94387 0.0663522 0
M  V30 2629 O 231.414 -1.72314 -0.927706 0
M  V30 2630 C 231.713 -2.62206 2.42864 0
M  V30 2631 C 231.379 -2.28208 3.88886 0
M  V30 2632 C 230.041 -2.18647 4.28657 0
M  V30 2633 C 232.393 -2.00887 4.8093 0
M  V30 2634 C 229.721 -1.79914 5.58433 0
M  V30 2635 C 232.073 -1.63653 6.11065 0
M  V30 2636 C 230.737 -1.52614 6.49819 0
M  V30 2637 H 230.007 -0.519376 0.528517 0
M  V30 2638 H 232.654 -0.750453 1.76183 0
M  V30 2639 H 230.959 -3.34199 2.04495 0
M  V30 2640 H 232.656 -3.2041 2.41119 0
M  V30 2641 H 229.246 -2.36557 3.57406 0
M  V30 2642 H 233.43 -2.07198 4.5098 0
M  V30 2643 H 228.686 -1.69948 5.87305 0
M  V30 2644 H 232.86 -1.41543 6.81864 0
M  V30 2645 H 230.487 -1.22371 7.50286 0
M  V30 2646 N 232.062 -1.29571 -0.897171 0
M  V30 2647 C 233.287 -1.20705 -1.68656 0
M  V30 2648 C 233.712 0.228582 -1.86706 0
M  V30 2649 O 233.07 1.16494 -1.3892 0
M  V30 2650 C 233.118 -1.9282 -3.04717 0
M  V30 2651 O 232.222 -1.24697 -3.93096 0
M  V30 2652 H 231.563 -0.418126 -0.515816 0
M  V30 2653 H 234.093 -1.71183 -1.12061 0
M  V30 2654 H 234.103 -2.01372 -3.54843 0
M  V30 2655 H 232.778 -2.97239 -2.90899 0
M  V30 2656 H 231.355 -1.2442 -3.51531 0
M  V30 2657 N 233.54 1.10788 -1.12088 0
M  V30 2658 C 234.47 2.19083 -0.807755 0
M  V30 2659 C 235.451 1.6858 0.226859 0
M  V30 2660 O 236.636 1.93997 0.0888475 0
M  V30 2661 C 233.766 3.46344 -0.257576 0
M  V30 2662 C 232.72 4.101 -1.22483 0
M  V30 2663 C 232.046 5.32016 -0.535052 0
M  V30 2664 C 233.346 4.54236 -2.57811 0
M  V30 2665 H 235.04 2.45534 -1.71328 0
M  V30 2666 H 232.586 1.1801 -0.825205 0
M  V30 2667 H 234.539 4.21392 -0.0262679 0
M  V30 2668 H 233.263 3.19373 0.683278 0
M  V30 2669 H 231.922 3.37054 -1.44189 0
M  V30 2670 H 231.57 5.01319 0.410827 0
M  V30 2671 H 231.27 5.75625 -1.18024 0
M  V30 2672 H 232.794 6.09799 -0.312695 0
M  V30 2673 H 234.208 5.20575 -2.40155 0
M  V30 2674 H 232.605 5.08682 -3.18375 0
M  V30 2675 H 233.675 3.6734 -3.16528 0
M  V30 2676 N 235.018 0.912232 1.28515 0
M  V30 2677 C 236.267 0.540504 1.94323 0
M  V30 2678 C 236.58 -0.920044 1.72611 0
M  V30 2679 O 237.786 -1.39986 2.32629 0
M  V30 2680 C 236.242 0.915803 3.48053 0
M  V30 2681 C 235.85 2.39598 3.78546 0
M  V30 2682 C 237.594 0.614588 4.20027 0
M  V30 2683 C 235.501 2.71148 5.25578 0
M  V30 2684 H 234.431 0.198418 0.727424 0
M  V30 2685 H 237.082 1.11094 1.46049 0
M  V30 2686 H 235.464 0.274168 3.9505 0
M  V30 2687 H 236.638 3.08422 3.42364 0
M  V30 2688 H 234.953 2.66749 3.1974 0
M  V30 2689 H 237.55 0.827002 5.28266 0
M  V30 2690 H 237.893 -0.447531 4.13887 0
M  V30 2691 H 238.426 1.21462 3.78803 0
M  V30 2692 H 235.165 3.76207 5.36794 0
M  V30 2693 H 234.685 2.0696 5.62963 0
M  V30 2694 H 236.364 2.58072 5.93302 0
M  V30 2695 N 236.496 -1.42363 0.676048 0
M  V30 2696 C 237.726 -2.05561 0.206967 0
M  V30 2697 C 238.134 -1.50887 -1.14148 0
M  V30 2698 O 237.477 -0.643933 -1.72044 0
M  V30 2699 C 237.539 -3.5944 0.0659508 0
M  V30 2700 C 237.203 -4.36812 1.34331 0
M  V30 2701 C 238.2 -4.67383 2.27704 0
M  V30 2702 C 235.885 -4.76429 1.59125 0
M  V30 2703 C 237.879 -5.36509 3.44147 0
M  V30 2704 C 235.566 -5.45294 2.75857 0
M  V30 2705 C 236.564 -5.75259 3.68193 0
M  V30 2706 O 236.252 -6.42712 4.82883 0
M  V30 2707 H 235.984 -0.668872 0.0979084 0
M  V30 2708 H 238.538 -1.83467 0.923531 0
M  V30 2709 H 236.768 -3.80197 -0.706204 0
M  V30 2710 H 238.457 -4.0427 -0.363418 0
M  V30 2711 H 239.223 -4.37275 2.09799 0
M  V30 2712 H 235.102 -4.52498 0.881258 0
M  V30 2713 H 238.646 -5.59814 4.16238 0
M  V30 2714 H 234.543 -5.7482 2.93688 0
M  V30 2715 H 235.311 -6.61204 4.82444 0
M  V30 2716 N 237.974 -0.419461 -1.51915 0
M  V30 2717 C 238.921 0.400927 -2.27291 0
M  V30 2718 C 239.891 1.03224 -1.30131 0
M  V30 2719 O 241.076 1.05455 -1.59009 0
M  V30 2720 C 238.216 1.50603 -3.10504 0
M  V30 2721 C 237.329 0.89462 -4.22635 0
M  V30 2722 C 236.464 1.97328 -4.93189 0
M  V30 2723 C 235.503 1.33935 -5.97267 0
M  V30 2724 N 234.64 2.3586 -6.61298 0
M  V30 2725 H 239.48 -0.248251 -2.96964 0
M  V30 2726 H 237.017 -0.134266 -1.46486 0
M  V30 2727 H 238.975 2.15783 -3.57062 0
M  V30 2728 H 237.605 2.12509 -2.42981 0
M  V30 2729 H 236.657 0.131583 -3.80172 0
M  V30 2730 H 237.969 0.391641 -4.9726 0
M  V30 2731 H 237.123 2.70211 -5.43204 0
M  V30 2732 H 235.862 2.50994 -4.18155 0
M  V30 2733 H 234.867 0.595896 -5.46561 0
M  V30 2734 H 236.092 0.810252 -6.74249 0
M  V30 2735 H 234.038 2.88639 -5.89087 0
M  V30 2736 H 233.955 1.90403 -7.3163 0
M  V30 2737 H 235.223 3.08282 -7.15949 0
M  V30 2738 N 239.452 1.56882 -0.150215 0
M  V30 2739 C 240.399 2.16922 0.788244 0
M  V30 2740 C 241.369 1.10303 1.24187 0
M  V30 2741 O 242.554 1.38359 1.31383 0
M  V30 2742 C 239.694 2.79754 2.02068 0
M  V30 2743 C 238.807 4.00775 1.61257 0
M  V30 2744 C 237.942 4.51595 2.79705 0
M  V30 2745 C 236.981 5.65074 2.35282 0
M  V30 2746 N 236.118 6.10499 3.4675 0
M  V30 2747 H 240.958 2.96779 0.269444 0
M  V30 2748 H 238.495 1.46599 0.12128 0
M  V30 2749 H 240.453 3.14329 2.74323 0
M  V30 2750 H 239.083 2.02536 2.51354 0
M  V30 2751 H 238.135 3.72158 0.787553 0
M  V30 2752 H 239.447 4.82978 1.24633 0
M  V30 2753 H 238.601 4.88242 3.60145 0
M  V30 2754 H 237.34 3.68406 3.19576 0
M  V30 2755 H 236.345 5.28 1.53283 0
M  V30 2756 H 237.57 6.50052 1.96493 0
M  V30 2757 H 235.516 5.30243 3.86236 0
M  V30 2758 H 235.433 6.87637 3.14152 0
M  V30 2759 H 236.701 6.51791 4.27537 0
M  V30 2760 N 240.93 -0.123565 1.57115 0
M  V30 2761 C 242.158 -0.846461 1.88793 0
M  V30 2762 C 242.573 -1.73652 0.740976 0
M  V30 2763 O 241.93 -1.80207 -0.288393 0
M  V30 2764 C 241.981 -1.6837 3.19897 0
M  V30 2765 O 241.702 -0.829477 4.30176 0
M  V30 2766 C 243.203 -2.51214 3.65248 0
M  V30 2767 H 240.423 -0.243573 0.625231 0
M  V30 2768 H 242.967 -0.109324 2.04208 0
M  V30 2769 H 241.122 -2.37364 3.06165 0
M  V30 2770 H 241.536 -1.40651 5.0529 0
M  V30 2771 H 243.01 -3.05497 4.59756 0
M  V30 2772 H 243.487 -3.28359 2.9168 0
M  V30 2773 H 244.093 -1.8747 3.81752 0
M  V30 2774 N 242.408 -1.52605 -0.393616 0
M  V30 2775 C 243.338 -1.80022 -1.48709 0
M  V30 2776 C 244.319 -0.651995 -1.57108 0
M  V30 2777 O 245.504 -0.89913 -1.72132 0
M  V30 2778 C 242.634 -1.96492 -2.86371 0
M  V30 2779 C 241.588 -3.12161 -2.92813 0
M  V30 2780 C 240.914 -3.13877 -4.3288 0
M  V30 2781 C 242.214 -4.51322 -2.6288 0
M  V30 2782 H 243.908 -2.71589 -1.26015 0
M  V30 2783 H 241.454 -1.30684 -0.604778 0
M  V30 2784 H 243.407 -2.14255 -3.62867 0
M  V30 2785 H 242.131 -1.01611 -3.10391 0
M  V30 2786 H 240.79 -2.94173 -2.18764 0
M  V30 2787 H 240.438 -2.16687 -4.53933 0
M  V30 2788 H 240.138 -3.91576 -4.38112 0
M  V30 2789 H 241.662 -3.33789 -5.1129 0
M  V30 2790 H 243.076 -4.69435 -3.29096 0
M  V30 2791 H 241.473 -5.31053 -2.79468 0
M  V30 2792 H 242.543 -4.58353 -1.58242 0
M  V30 2793 N 243.887 0.651787 -1.4349 0
M  V30 2794 C 244.834 1.76462 -1.4876 0
M  V30 2795 C 245.804 1.62641 -0.337189 0
M  V30 2796 O 246.989 1.82864 -0.544544 0
M  V30 2797 C 244.129 3.14623 -1.41796 0
M  V30 2798 C 243.242 3.39568 -2.67053 0
M  V30 2799 C 242.377 4.67585 -2.52068 0
M  V30 2800 C 241.416 4.85639 -3.72587 0
M  V30 2801 N 240.553 6.04915 -3.56402 0
M  V30 2802 H 245.393 1.71293 -2.43849 0
M  V30 2803 H 242.93 0.835889 -1.21043 0
M  V30 2804 H 244.888 3.94496 -1.35753 0
M  V30 2805 H 243.518 3.18859 -0.50288 0
M  V30 2806 H 242.57 2.53783 -2.8337 0
M  V30 2807 H 243.882 3.48795 -3.56572 0
M  V30 2808 H 243.036 5.55586 -2.4374 0
M  V30 2809 H 241.775 4.60681 -1.60075 0
M  V30 2810 H 240.78 3.96073 -3.81321 0
M  V30 2811 H 242.005 4.94372 -4.65589 0
M  V30 2812 H 239.951 5.9914 -2.67146 0
M  V30 2813 H 239.868 6.15106 -4.39524 0
M  V30 2814 H 241.136 6.95533 -3.51929 0
M  V30 2815 N 245.365 1.30045 0.890287 0
M  V30 2816 C 246.295 1.18541 2.01172 0
M  V30 2817 C 247.276 0.0773356 1.69924 0
M  V30 2818 O 248.461 0.25845 1.92473 0
M  V30 2819 C 245.591 0.870941 3.36202 0
M  V30 2820 C 244.545 1.93637 3.81692 0
M  V30 2821 C 243.871 1.475 5.13953 0
M  V30 2822 C 245.171 3.34666 4.00994 0
M  V30 2823 H 246.865 2.12359 2.11054 0
M  V30 2824 H 244.411 1.02238 1.01407 0
M  V30 2825 H 246.364 0.777141 4.14172 0
M  V30 2826 H 245.088 -0.102926 3.26438 0
M  V30 2827 H 243.747 2.01972 3.05946 0
M  V30 2828 H 243.395 0.489551 5.00612 0
M  V30 2829 H 243.095 2.1876 5.4536 0
M  V30 2830 H 244.619 1.39489 5.94454 0
M  V30 2831 H 246.033 3.2912 4.69417 0
M  V30 2832 H 244.43 4.03966 4.43769 0
M  V30 2833 H 245.5 3.76949 3.05021 0
M  V30 2834 N 246.843 -1.10192 1.12674 0
M  V30 2835 C 248.068 -1.86523 0.906853 0
M  V30 2836 C 248.493 -1.80221 -0.538711 0
M  V30 2837 O 247.851 -1.17396 -1.38158 0
M  V30 2838 C 247.899 -3.32758 1.3894 0
M  V30 2839 O 247.003 -4.08449 0.5695 0
M  V30 2840 H 246.344 -0.578678 0.325619 0
M  V30 2841 H 248.874 -1.39203 1.49946 0
M  V30 2842 H 248.884 -3.83608 1.38958 0
M  V30 2843 H 247.559 -3.36661 2.44197 0
M  V30 2844 H 246.136 -3.67427 0.636528 0
M  V30 2845 N 248.321 -0.919034 -1.28029 0
M  V30 2846 C 249.546 -0.570357 -1.99403 0
M  V30 2847 C 249.971 0.842486 -1.68178 0
M  V30 2848 O 249.329 1.56391 -0.917141 0
M  V30 2849 C 249.377 -0.792541 -3.51783 0
M  V30 2850 O 248.481 0.145988 -4.12142 0
M  V30 2851 H 247.822 -0.220555 -0.6263 0
M  V30 2852 H 250.352 -1.23592 -1.63053 0
M  V30 2853 H 250.362 -0.704708 -4.01868 0
M  V30 2854 H 249.037 -1.82247 -3.73844 0
M  V30 2855 H 247.614 0.00897528 -3.72899 0
M  V30 2856 N 249.799 1.42003 -0.683588 0
M  V30 2857 C 251.215 1.55625 -0.353976 0
M  V30 2858 C 251.415 1.66151 1.14 0
M  V30 2859 O 250.471 1.63329 1.92561 0
M  V30 2860 C 251.784 2.80171 -1.092 0
M  V30 2861 C 253.332 2.93954 -1.07518 0
M  V30 2862 C 253.807 4.21372 -1.79471 0
M  V30 2863 N 255.298 4.28303 -1.76381 0
M  V30 2864 C 256.033 5.25729 -2.28904 0
M  V30 2865 N 255.529 6.29254 -2.89846 0
M  V30 2866 N 257.322 5.17586 -2.19228 0
M  V30 2867 H 249.473 1.33415 -1.6527 0
M  V30 2868 H 251.736 0.64282 -0.696769 0
M  V30 2869 H 251.442 2.78561 -2.14701 0
M  V30 2870 H 251.316 3.7133 -0.662862 0
M  V30 2871 H 253.703 2.95086 -0.028475 0
M  V30 2872 H 253.784 2.04002 -1.54328 0
M  V30 2873 H 253.428 4.21001 -2.84114 0
M  V30 2874 H 253.358 5.10275 -1.30104 0
M  V30 2875 H 255.849 3.54119 -1.31939 0
M  V30 2876 H 256.162 6.99964 -3.27522 0
M  V30 2877 H 254.507 6.29791 -2.93919 0
M  V30 2878 H 257.698 4.35631 -1.71299 0
M  V30 2879 H 257.871 5.93348 -2.60466 0
M  V30 2880 N 251.277 0.427512 1.51691 0
M  V30 2881 C 252.523 -0.142439 2.02299 0
M  V30 2882 C 252.856 -1.43214 1.31162 0
M  V30 2883 O 252.131 -1.89833 0.423511 0
M  V30 2884 C 252.414 -0.371301 3.58181 0
M  V30 2885 C 252.267 0.936358 4.39946 0
M  V30 2886 C 253.586 -1.14542 4.24933 0
M  V30 2887 H 250.705 -0.0502937 0.735282 0
M  V30 2888 H 253.347 0.564584 1.81418 0
M  V30 2889 H 251.497 -0.973559 3.76104 0
M  V30 2890 H 253.169 1.57184 4.33694 0
M  V30 2891 H 251.412 1.5432 4.05423 0
M  V30 2892 H 252.083 0.730388 5.47147 0
M  V30 2893 H 254.559 -0.635362 4.11221 0
M  V30 2894 H 253.435 -1.27431 5.33903 0
M  V30 2895 H 253.696 -2.17093 3.85127 0
M  V30 2896 N 252.755 -1.56801 0.158532 0
M  V30 2897 C 253.685 -2.20347 -0.772609 0
M  V30 2898 C 254.666 -1.15518 -1.24859 0
M  V30 2899 O 255.851 -1.43902 -1.30406 0
M  V30 2900 C 252.981 -2.83417 -2.00729 0
M  V30 2901 C 251.935 -3.94174 -1.66765 0
M  V30 2902 C 251.261 -4.44233 -2.97592 0
M  V30 2903 C 252.561 -5.14392 -0.905447 0
M  V30 2904 H 254.255 -2.98413 -0.242959 0
M  V30 2905 H 251.801 -1.43537 -0.115419 0
M  V30 2906 H 253.754 -3.26543 -2.6636 0
M  V30 2907 H 252.478 -2.02701 -2.56086 0
M  V30 2908 H 251.137 -3.51684 -1.03508 0
M  V30 2909 H 250.785 -3.60325 -3.50963 0
M  V30 2910 H 250.485 -5.18945 -2.75626 0
M  V30 2911 H 252.009 -4.90037 -3.64274 0
M  V30 2912 H 253.423 -5.5429 -1.46408 0
M  V30 2913 H 251.82 -5.9494 -0.7853 0
M  V30 2914 H 252.89 -4.84795 0.100668 0
M  V30 2915 N 254.233 0.115231 -1.57178 0
M  V30 2916 C 255.51 0.852873 -1.76027 0
M  V30 2917 C 255.89 1.97892 -0.73498 0
M  V30 2918 O 255.238 2.27232 0.24036 0
M  V30 2919 C 255.448 1.36608 -3.21153 0
M  V30 2920 C 256.796 1.81692 -3.83762 0
M  V30 2921 O 257.82 1.46278 -3.24779 0
M  V30 2922 O 256.679 2.47104 -4.87444 0
M  V30 2923 H 253.773 0.405296 -0.720877 0
M  V30 2924 H 256.319 0.0986785 -1.69413 0
M  V30 2925 H 255.091 0.558357 -3.87296 0
M  V30 2926 H 254.714 2.18287 -3.3232 0
M  V30 2927 N 255.711 1.52812 0.385517 0
M  V30 2928 C 256.658 1.77838 1.47113 0
M  V30 2929 C 257.628 0.621757 1.54024 0
M  V30 2930 O 258.813 0.861846 1.70226 0
M  V30 2931 C 255.953 1.95618 2.84302 0
M  V30 2932 C 255.066 3.23316 2.86515 0
M  V30 2933 C 254.201 3.31394 4.15152 0
M  V30 2934 C 253.24 4.53201 4.1143 0
M  V30 2935 N 252.377 4.58542 5.3168 0
M  V30 2936 H 257.217 2.70482 1.25073 0
M  V30 2937 H 254.754 1.34006 0.606692 0
M  V30 2938 H 256.712 2.03912 3.63972 0
M  V30 2939 H 255.342 1.06331 3.04784 0
M  V30 2940 H 254.394 3.24076 1.99195 0
M  V30 2941 H 255.706 4.13045 2.79634 0
M  V30 2942 H 254.86 3.3889 5.03228 0
M  V30 2943 H 253.599 2.39645 4.24761 0
M  V30 2944 H 252.604 4.45827 3.21742 0
M  V30 2945 H 253.829 5.46271 4.03442 0
M  V30 2946 H 251.775 3.69686 5.41912 0
M  V30 2947 H 251.692 5.42148 5.26889 0
M  V30 2948 H 252.96 4.70296 6.21644 0
M  V30 2949 N 257.189 -0.644168 1.43834 0
M  V30 2950 C 258.438 -1.39985 1.45214 0
M  V30 2951 C 258.751 -1.95421 0.0835494 0
M  V30 2952 O 259.957 -2.71488 -0.0251748 0
M  V30 2953 C 258.413 -2.53384 2.55587 0
M  V30 2954 C 258.021 -2.04517 3.98594 0
M  V30 2955 C 259.765 -3.30685 2.66172 0
M  V30 2956 C 257.672 -3.1518 5.00416 0
M  V30 2957 H 256.602 -0.526005 0.540218 0
M  V30 2958 H 259.253 -0.694367 1.69855 0
M  V30 2959 H 257.635 -3.26446 2.24163 0
M  V30 2960 H 258.809 -1.38405 4.39523 0
M  V30 2961 H 257.124 -1.40068 3.92135 0
M  V30 2962 H 259.721 -4.13158 3.39418 0
M  V30 2963 H 260.064 -3.79312 1.71546 0
M  V30 2964 H 260.597 -2.64708 2.96942 0
M  V30 2965 H 257.336 -2.71511 5.96625 0
M  V30 2966 H 256.856 -3.79974 4.64091 0
M  V30 2967 H 258.535 -3.80166 5.23529 0
M  V30 2968 N 258.668 -1.30515 -0.883378 0
M  V30 2969 C 259.893 -1.22487 -1.67367 0
M  V30 2970 C 260.318 0.208767 -1.86938 0
M  V30 2971 O 259.676 1.15015 -1.40148 0
M  V30 2972 C 259.724 -1.96041 -3.02655 0
M  V30 2973 O 258.828 -1.28859 -3.91751 0
M  V30 2974 H 258.169 -0.423573 -0.511353 0
M  V30 2975 H 260.699 -1.72362 -1.10239 0
M  V30 2976 H 260.709 -2.05124 -3.52687 0
M  V30 2977 H 259.384 -3.00307 -2.8773 0
M  V30 2978 H 257.961 -1.28141 -3.50192 0
M  V30 2979 N 260.146 1.09593 -1.13257 0
M  V30 2980 C 261.395 1.81105 -0.887917 0
M  V30 2981 C 261.708 1.86563 0.587672 0
M  V30 2982 O 262.914 2.54367 0.949204 0
M  V30 2983 C 261.37 3.25338 -1.53895 0
M  V30 2984 C 260.978 3.28151 -3.04994 0
M  V30 2985 C 262.722 4.01617 -1.37492 0
M  V30 2986 C 260.629 4.66897 -3.6299 0
M  V30 2987 H 259.559 0.678661 -0.328534 0
M  V30 2988 H 262.21 1.23183 -1.36008 0
M  V30 2989 H 260.592 3.8331 -0.994446 0
M  V30 2990 H 261.766 2.79953 -3.66009 0
M  V30 2991 H 260.081 2.65361 -3.20893 0
M  V30 2992 H 262.678 5.04119 -1.78235 0
M  V30 2993 H 263.021 4.15072 -0.31957 0
M  V30 2994 H 263.554 3.50082 -1.88912 0
M  V30 2995 H 260.293 4.58643 -4.68323 0
M  V30 2996 H 259.813 5.15426 -3.06752 0
M  V30 2997 H 261.492 5.3587 -3.62563 0
M  V30 2998 N 261.624 0.925811 1.2754 0
M  V30 2999 C 262.872 0.564138 1.94067 0
M  V30 3000 C 263.193 -0.897188 1.73134 0
M  V30 3001 O 262.463 -1.63573 1.07799 0
M  V30 3002 H 261.043 0.205645 0.718136 0
M  V30 3003 H 263.705 1.1778 1.55287 0
M  V30 3004 H 262.801 0.76881 3.02483 0
M  V30 3005 N 263.102 -1.41638 0.69111 0
M  V30 3006 C 264.034 -2.29194 -0.0161523 0
M  V30 3007 C 265.047 -1.44549 -0.748955 0
M  V30 3008 O 266.236 -1.681 -0.6004 0
M  V30 3009 C 263.336 -3.22325 -1.0469 0
M  V30 3010 C 262.509 -4.35706 -0.384621 0
M  V30 3011 C 261.568 -5.09443 -1.31737 0
M  V30 3012 O 260.594 -5.63386 -0.811451 0
M  V30 3013 N 261.796 -5.16487 -2.64993 0
M  V30 3014 H 264.561 -2.90534 0.735523 0
M  V30 3015 H 262.122 -1.52742 0.53679 0
M  V30 3016 H 264.114 -3.68522 -1.67252 0
M  V30 3017 H 262.684 -2.62323 -1.70015 0
M  V30 3018 H 261.904 -3.91948 0.420804 0
M  V30 3019 H 263.192 -5.08743 0.0760765 0
M  V30 3020 H 262.59 -4.741 -3.08619 0
M  V30 3021 H 261.147 -5.66276 -3.22761 0
M  V30 3022 N 264.58 -0.43555 -1.51462 0
M  V30 3023 C 265.51 0.367376 -2.30592 0
M  V30 3024 C 266.491 1.02263 -1.35928 0
M  V30 3025 O 267.676 1.02661 -1.64847 0
M  V30 3026 C 264.806 1.46983 -3.14664 0
M  V30 3027 C 263.76 0.938161 -4.17591 0
M  V30 3028 C 263.086 2.13622 -4.90173 0
M  V30 3029 C 264.386 -0.0261621 -5.22293 0
M  V30 3030 H 266.08 -0.292969 -2.97963 0
M  V30 3031 H 263.626 -0.14234 -1.43295 0
M  V30 3032 H 265.579 2.03873 -3.688 0
M  V30 3033 H 264.303 2.15843 -2.4511 0
M  V30 3034 H 262.962 0.391481 -3.64504 0
M  V30 3035 H 262.61 2.81098 -4.17124 0
M  V30 3036 H 262.31 1.78688 -5.59772 0
M  V30 3037 H 263.834 2.7107 -5.47132 0
M  V30 3038 H 265.248 0.452384 -5.71512 0
M  V30 3039 H 263.645 -0.287992 -5.99409 0
M  V30 3040 H 264.715 -0.963391 -4.75233 0
M  V30 3041 N 266.058 1.56714 -0.166846 0
M  V30 3042 C 267.304 1.97039 0.479962 0
M  V30 3043 C 267.637 1.05264 1.63197 0
M  V30 3044 O 266.912 0.0988833 1.94248 0
M  V30 3045 C 267.195 3.46867 0.967212 0
M  V30 3046 C 267.048 4.49421 -0.18466 0
M  V30 3047 C 268.367 3.9968 1.84238 0
M  V30 3048 H 265.486 0.71641 0.172992 0
M  V30 3049 H 268.128 1.8832 -0.252079 0
M  V30 3050 H 266.278 3.54428 1.59101 0
M  V30 3051 H 267.95 4.53924 -0.821621 0
M  V30 3052 H 266.193 4.25573 -0.840837 0
M  V30 3053 H 266.864 5.51644 0.198317 0
M  V30 3054 H 269.34 3.94723 1.31655 0
M  V30 3055 H 268.216 5.04941 2.15234 0
M  V30 3056 H 268.477 3.43226 2.78654 0
M  V30 3057 N 267.536 -0.106894 1.57237 0
M  V30 3058 C 268.761 -0.830287 1.90055 0
M  V30 3059 C 269.186 -1.72064 0.75998 0
M  V30 3060 O 268.544 -1.78982 -0.288991 0
M  V30 3061 C 268.592 -1.6295 3.21683 0
M  V30 3062 O 267.696 -2.73748 3.08441 0
M  V30 3063 H 267.037 -0.228855 0.623315 0
M  V30 3064 H 269.567 -0.085658 2.04421 0
M  V30 3065 H 269.577 -2.01621 3.54701 0
M  V30 3066 H 268.252 -0.975989 4.04286 0
M  V30 3067 H 266.829 -2.38192 2.86913 0
M  V30 3068 N 269.014 -1.53014 -0.377408 0
M  V30 3069 C 269.944 -1.81589 -1.46791 0
M  V30 3070 C 270.925 -0.668622 -1.56408 0
M  V30 3071 O 272.11 -0.917337 -1.71168 0
M  V30 3072 C 269.24 -1.99519 -2.8427 0
M  V30 3073 C 268.194 -3.15249 -2.89486 0
M  V30 3074 C 267.52 -3.18451 -4.29527 0
M  V30 3075 C 268.82 -4.54084 -2.58079 0
M  V30 3076 H 270.514 -2.7291 -1.23127 0
M  V30 3077 H 268.06 -1.31319 -0.590883 0
M  V30 3078 H 270.013 -2.18092 -3.60575 0
M  V30 3079 H 268.737 -1.04897 -3.09296 0
M  V30 3080 H 267.396 -2.96477 -2.15631 0
M  V30 3081 H 267.044 -2.2149 -4.5161 0
M  V30 3082 H 266.744 -3.962 -4.33934 0
M  V30 3083 H 268.268 -3.39193 -5.07721 0
M  V30 3084 H 269.682 -4.72899 -3.24098 0
M  V30 3085 H 268.079 -5.33987 -2.7382 0
M  V30 3086 H 269.149 -4.60006 -1.53372 0
M  V30 3087 N 270.492 0.636531 -1.44174 0
M  V30 3088 C 271.422 1.76003 -1.53444 0
M  V30 3089 C 272.403 1.65619 -0.387841 0
M  V30 3090 O 273.588 1.84461 -0.607257 0
M  V30 3091 C 270.718 3.14511 -1.4731 0
M  V30 3092 C 269.672 3.39677 -2.60391 0
M  V30 3093 C 268.998 4.78159 -2.39308 0
M  V30 3094 C 270.298 3.32772 -4.02567 0
M  V30 3095 H 271.992 1.68501 -2.47483 0
M  V30 3096 H 269.538 0.809237 -1.19111 0
M  V30 3097 H 271.491 3.92878 -1.52397 0
M  V30 3098 H 270.215 3.22783 -0.49785 0
M  V30 3099 H 268.874 2.63688 -2.54684 0
M  V30 3100 H 268.522 4.83128 -1.39988 0
M  V30 3101 H 268.222 4.95956 -3.15122 0
M  V30 3102 H 269.746 5.58762 -2.46205 0
M  V30 3103 H 271.16 4.01051 -4.09672 0
M  V30 3104 H 269.557 3.62104 -4.7854 0
M  V30 3105 H 270.627 2.30669 -4.2652 0
M  V30 3106 N 271.97 1.30982 0.876444 0
M  V30 3107 C 273.195 1.23373 1.66715 0
M  V30 3108 C 273.62 -0.19885 1.87046 0
M  V30 3109 O 272.978 -1.1427 1.40756 0
M  V30 3110 C 273.026 1.97644 3.01611 0
M  V30 3111 O 272.13 1.30935 3.91062 0
M  V30 3112 H 271.471 0.426279 0.509099 0
M  V30 3113 H 274.001 1.72944 1.09323 0
M  V30 3114 H 274.011 2.06992 3.51594 0
M  V30 3115 H 272.686 3.01829 2.86133 0
M  V30 3116 H 271.263 1.29996 3.49507 0
M  V30 3117 N 273.449 -1.08991 1.13837 0
M  V30 3118 C 274.397 -2.17841 0.815347 0
M  V30 3119 C 275.391 -1.68164 -0.204233 0
M  V30 3120 O 276.597 -1.79897 -0.0609304 0
M  V30 3121 H 272.972 -0.710654 0.245915 0
M  V30 3122 H 274.943 -2.42315 1.74143 0
M  V30 3123 C 273.692 -3.46381 0.302614 0
M  V30 3124 H 273.015 -3.84979 1.0785 0
M  V30 3125 H 274.455 -4.23844 0.115074 0
M  V30 3126 C 272.914 -3.22556 -0.972591 0
M  V30 3127 O 273.444 -3.45599 -2.04754 0
M  V30 3128 N 271.65 -2.76134 -0.905455 0
M  V30 3129 H 271.197 -2.57582 -0.0305421 0
M  V30 3130 H 271.155 -2.60571 -1.75926 0
M  V30 3131 N 274.927 -0.932562 -1.27047 0
M  V30 3132 C 275.875 -0.42603 -2.28665 0
M  V30 3133 C 276.869 0.49219 -1.62092 0
M  V30 3134 O 278.075 0.371355 -1.76128 0
M  V30 3135 H 274.45 -0.119213 -0.742491 0
M  V30 3136 H 276.421 -1.29579 -2.68797 0
M  V30 3137 C 275.17 0.301426 -3.46391 0
M  V30 3138 H 274.493 -0.39595 -3.97834 0
M  V30 3139 H 275.933 0.6202 -4.1944 0
M  V30 3140 C 274.392 1.51616 -3.00856 0
M  V30 3141 O 274.922 2.61476 -3.04948 0
M  V30 3142 N 273.128 1.36969 -2.56296 0
M  V30 3143 H 272.675 0.475873 -2.53166 0
M  V30 3144 H 272.633 2.18368 -2.26192 0
M  V30 3145 N 276.405 1.4127 -0.698611 0
M  V30 3146 C 277.335 2.33447 -0.049629 0
M  V30 3147 C 278.316 1.51982 0.763898 0
M  V30 3148 O 279.501 1.80509 0.716257 0
M  V30 3149 C 276.631 3.35828 0.885267 0
M  V30 3150 C 275.585 4.27627 0.178613 0
M  V30 3151 C 274.911 5.20406 1.22807 0
M  V30 3152 C 276.211 5.13459 -0.956933 0
M  V30 3153 H 277.905 2.87966 -0.81951 0
M  V30 3154 H 275.451 1.38461 -0.395538 0
M  V30 3155 H 277.404 3.9924 1.34854 0
M  V30 3156 H 276.128 2.79666 1.68685 0
M  V30 3157 H 274.787 3.65643 -0.26466 0
M  V30 3158 H 274.435 4.60558 2.02226 0
M  V30 3159 H 274.135 5.82661 0.760239 0
M  V30 3160 H 275.659 5.86695 1.69179 0
M  V30 3161 H 277.073 5.70421 -0.573805 0
M  V30 3162 H 275.47 5.8467 -1.35205 0
M  V30 3163 H 276.54 4.50443 -1.79524 0
M  V30 3164 N 277.883 0.443576 1.51229 0
M  V30 3165 C 278.831 -0.37904 2.29491 0
M  V30 3166 C 279.825 -1.0153 1.35603 0
M  V30 3167 O 281.031 -0.94955 1.52917 0
M  V30 3168 H 277.406 -0.141053 0.738653 0
M  V30 3169 H 279.377 0.301799 2.9687 0
M  V30 3170 C 278.126 -1.46426 3.15364 0
M  V30 3171 H 277.449 -0.984037 3.87501 0
M  V30 3172 H 278.889 -2.01297 3.7317 0
M  V30 3173 C 277.348 -2.45099 2.31146 0
M  V30 3174 O 277.878 -3.49773 1.9754 0
M  V30 3175 N 276.084 -2.16139 1.94249 0
M  V30 3176 H 275.631 -1.31044 2.21777 0
M  V30 3177 H 275.589 -2.82398 1.38198 0
M  V30 3178 N 279.361 -1.56624 0.175154 0
M  V30 3179 C 280.308 -2.18149 -0.753634 0
M  V30 3180 C 281.278 -1.12265 -1.22417 0
M  V30 3181 O 282.463 -1.40432 -1.29165 0
M  V30 3182 C 279.603 -2.82933 -1.97592 0
M  V30 3183 C 278.716 -4.03289 -1.5486 0
M  V30 3184 C 277.851 -4.55988 -2.72485 0
M  V30 3185 C 276.89 -5.68746 -2.26262 0
M  V30 3186 N 276.027 -6.15938 -3.36994 0
M  V30 3187 H 280.867 -2.9717 -0.222195 0
M  V30 3188 H 278.404 -1.46774 -0.0979422 0
M  V30 3189 H 280.362 -3.18653 -2.69288 0
M  V30 3190 H 278.992 -2.06509 -2.481 0
M  V30 3191 H 278.044 -3.73364 -0.728246 0
M  V30 3192 H 279.356 -4.849 -1.16933 0
M  V30 3193 H 278.51 -4.9391 -3.52332 0
M  V30 3194 H 277.249 -3.73443 -3.13674 0
M  V30 3195 H 276.254 -5.30372 -1.44863 0
M  V30 3196 H 277.479 -6.53095 -1.86127 0
M  V30 3197 H 275.425 -5.36321 -3.77751 0
M  V30 3198 H 275.342 -6.92548 -3.03172 0
M  V30 3199 H 276.61 -6.58511 -4.17114 0
M  V30 3200 N 280.839 0.0985539 -1.57292 0
M  V30 3201 C 282.086 0.802678 -1.85912 0
M  V30 3202 C 282.414 1.78901 -0.763186 0
M  V30 3203 O 281.669 1.94178 0.243559 0
M  V30 3204 C 281.968 1.56927 -3.21105 0
M  V30 3205 C 281.634 0.725376 -4.45027 0
M  V30 3206 C 280.296 0.492726 -4.78671 0
M  V30 3207 C 282.648 0.138493 -5.21016 0
M  V30 3208 C 279.976 -0.336727 -5.85733 0
M  V30 3209 C 282.328 -0.678264 -6.28953 0
M  V30 3210 C 280.992 -0.921039 -6.61115 0
M  V30 3211 H 280.262 0.293721 -0.680301 0
M  V30 3212 H 282.909 0.0642841 -1.91392 0
M  V30 3213 H 281.214 2.37914 -3.11294 0
M  V30 3214 H 282.911 2.11841 -3.40477 0
M  V30 3215 H 279.501 0.916815 -4.18679 0
M  V30 3216 H 283.685 0.305404 -4.95359 0
M  V30 3217 H 278.941 -0.533836 -6.09065 0
M  V30 3218 H 283.115 -1.1399 -6.87007 0
M  V30 3219 H 280.742 -1.56556 -7.43905 0
M  V30 3220 N 282.317 1.53212 0.369288 0
M  V30 3221 C 283.594 1.59815 1.12776 0
M  V30 3222 C 283.974 0.403402 2.0721 0
M  V30 3223 O 283.322 -0.606667 2.20299 0
M  V30 3224 C 283.532 2.94664 1.87013 0
M  V30 3225 C 284.88 3.49109 2.41677 0
M  V30 3226 O 285.904 2.96669 1.97144 0
M  V30 3227 O 284.763 4.40775 3.23079 0
M  V30 3228 H 281.857 0.645376 0.517125 0
M  V30 3229 H 284.403 1.65553 0.37285 0
M  V30 3230 H 283.175 3.73061 1.18071 0
M  V30 3231 H 282.798 2.92401 2.69421 0
M  V30 3232 N 283.795 -0.628877 1.44509 0
M  V30 3233 C 284.705 -1.7694 1.54044 0
M  V30 3234 C 285.721 -1.68705 0.425987 0
M  V30 3235 O 286.897 -1.89442 0.683656 0
M  V30 3236 C 283.962 -3.13332 1.48405 0
M  V30 3237 C 283.023 -3.33181 2.70719 0
M  V30 3238 C 282.256 -4.63067 2.6534 0
M  V30 3239 O 282.479 -5.44017 1.71469 0
M  V30 3240 O 281.413 -4.85167 3.56226 0
M  V30 3241 H 285.239 -1.71848 2.50403 0
M  V30 3242 H 282.824 -0.790378 1.26781 0
M  V30 3243 H 284.706 -3.94634 1.47791 0
M  V30 3244 H 283.381 -3.1896 0.551898 0
M  V30 3245 H 282.288 -2.51549 2.769 0
M  V30 3246 H 283.621 -3.32416 3.62988 0
M  V30 3247 N 285.273 -1.31445 -0.869486 0
M  V30 3248 C 286.521 -1.20918 -1.61936 0
M  V30 3249 C 286.842 0.232683 -1.93607 0
M  V30 3250 O 286.112 1.15352 -1.58338 0
M  V30 3251 H 284.692 -0.44454 -0.600328 0
M  V30 3252 H 287.354 -1.64776 -1.0409 0
M  V30 3253 H 286.45 -1.78124 -2.56278 0
M  V30 3254 N 286.751 1.08385 -1.14413 0
M  V30 3255 C 287.681 2.17321 -0.854044 0
M  V30 3256 C 288.662 1.69024 0.191049 0
M  V30 3257 O 289.847 1.94141 0.0476779 0
M  V30 3258 C 286.977 3.45719 -0.330983 0
M  V30 3259 C 285.931 4.07409 -1.31155 0
M  V30 3260 C 285.257 5.30762 -0.64778 0
M  V30 3261 C 286.557 4.48665 -2.67388 0
M  V30 3262 H 288.251 2.41845 -1.76498 0
M  V30 3263 H 285.797 1.16233 -0.850051 0
M  V30 3264 H 287.75 4.21241 -0.115645 0
M  V30 3265 H 286.474 3.2075 0.615381 0
M  V30 3266 H 285.133 3.33919 -1.51306 0
M  V30 3267 H 284.781 5.02078 0.304398 0
M  V30 3268 H 284.481 5.72992 -1.30207 0
M  V30 3269 H 286.005 6.08998 -0.441972 0
M  V30 3270 H 287.419 5.15364 -2.51143 0
M  V30 3271 H 285.816 5.01814 -3.29093 0
M  V30 3272 H 286.886 3.60543 -3.24248 0
M  V30 3273 N 288.23 0.939286 1.26551 0
M  V30 3274 C 289.193 0.451987 2.24699 0
M  V30 3275 C 290.193 -0.435869 1.5478 0
M  V30 3276 O 291.383 -0.235314 1.72603 0
M  V30 3277 C 288.515 -0.348801 3.39111 0
M  V30 3278 H 289.708 1.3193 2.69322 0
M  V30 3279 H 287.261 0.721072 1.38673 0
M  V30 3280 H 287.996 -1.23444 2.99887 0
M  V30 3281 H 287.781 0.287945 3.91041 0
M  V30 3282 H 289.271 -0.679726 4.12031 0
M  V30 3283 N 289.708 -1.40897 0.706093 0
M  V30 3284 C 290.638 -2.33418 0.0620085 0
M  V30 3285 C 291.619 -1.52385 -0.755827 0
M  V30 3286 O 292.804 -1.80886 -0.706674 0
M  V30 3287 C 289.934 -3.36293 -0.867445 0
M  V30 3288 C 288.888 -4.27716 -0.155932 0
M  V30 3289 C 288.214 -5.2105 -1.20046 0
M  V30 3290 C 289.514 -5.12944 0.984149 0
M  V30 3291 H 291.208 -2.87527 0.83477 0
M  V30 3292 H 288.754 -1.38249 0.402875 0
M  V30 3293 H 290.707 -3.99949 -1.32735 0
M  V30 3294 H 289.431 -2.80556 -1.67199 0
M  V30 3295 H 288.09 -3.65498 0.284047 0
M  V30 3296 H 287.738 -4.61624 -1.99781 0
M  V30 3297 H 287.438 -5.83056 -0.729328 0
M  V30 3298 H 288.962 -5.87584 -1.66066 0
M  V30 3299 H 290.376 -5.70109 0.604048 0
M  V30 3300 H 288.773 -5.83945 1.38304 0
M  V30 3301 H 289.843 -4.49485 1.81911 0
M  V30 3302 N 291.186 -0.45159 -1.50991 0
M  V30 3303 C 292.149 0.341117 -2.26647 0
M  V30 3304 C 293.149 0.937422 -1.30649 0
M  V30 3305 O 294.339 0.809644 -1.54241 0
M  V30 3306 C 291.471 1.48398 -3.06905 0
M  V30 3307 H 292.664 -0.322117 -2.98165 0
M  V30 3308 H 290.217 -0.205122 -1.54948 0
M  V30 3309 H 290.952 2.18284 -2.39838 0
M  V30 3310 H 290.737 1.06241 -3.77432 0
M  V30 3311 H 292.227 2.04367 -3.64176 0
M  V30 3312 N 292.664 1.56529 -0.183458 0
M  V30 3313 C 293.614 2.1515 0.754605 0
M  V30 3314 C 294.598 1.08904 1.18443 0
M  V30 3315 O 295.79 1.34997 1.14476 0
M  V30 3316 C 292.919 2.80531 1.97881 0
M  V30 3317 C 292.005 3.93952 1.57043 0
M  V30 3318 N 292.396 4.98221 0.87231 0
M  V30 3319 C 290.694 4.05338 1.86057 0
M  V30 3320 C 291.395 5.77836 0.669377 0
M  V30 3321 N 290.371 5.29858 1.21454 0
M  V30 3322 H 294.173 2.93132 0.212387 0
M  V30 3323 H 291.687 1.62391 0.0167725 0
M  V30 3324 H 293.684 3.20914 2.6612 0
M  V30 3325 H 292.344 2.04035 2.52586 0
M  V30 3326 H 293.355 5.15191 0.529033 0
M  V30 3327 H 290.032 3.39957 2.42354 0
M  V30 3328 H 291.422 6.71799 0.116422 0
M  V30 3329 N 294.142 -0.090211 1.57342 0
M  V30 3330 C 295.389 -0.792807 1.86335 0
M  V30 3331 C 295.717 -1.78494 0.772662 0
M  V30 3332 O 294.972 -1.94305 -0.233258 0
M  V30 3333 C 295.271 -1.55222 3.21933 0
M  V30 3334 C 294.937 -0.701765 4.45406 0
M  V30 3335 C 293.599 -0.467334 4.78925 0
M  V30 3336 C 295.951 -0.11086 5.21082 0
M  V30 3337 C 293.279 0.367785 5.85546 0
M  V30 3338 C 295.631 0.711609 6.28585 0
M  V30 3339 C 294.295 0.956086 6.60617 0
M  V30 3340 H 293.565 -0.290109 0.681849 0
M  V30 3341 H 296.212 -0.0541332 1.91423 0
M  V30 3342 H 294.517 -2.3626 3.12551 0
M  V30 3343 H 296.214 -2.10032 3.41595 0
M  V30 3344 H 292.804 -0.894598 4.1916 0
M  V30 3345 H 296.988 -0.279129 4.95514 0
M  V30 3346 H 292.244 0.566128 6.08773 0
M  V30 3347 H 296.418 1.17632 6.86393 0
M  V30 3348 H 294.045 1.60499 7.43064 0
M  V30 3349 N 295.62 -1.53406 -0.361157 0
M  V30 3350 C 296.866 -1.70054 -1.10496 0
M  V30 3351 C 297.199 -0.453278 -1.88836 0
M  V30 3352 O 296.474 0.5495 -1.86576 0
M  V30 3353 C 296.757 -2.95317 -2.06058 0
M  V30 3354 C 296.61 -4.3021 -1.31298 0
M  V30 3355 C 297.929 -3.16193 -3.06121 0
M  V30 3356 H 295.048 -0.618799 -0.400321 0
M  V30 3357 H 297.69 -1.86052 -0.385318 0
M  V30 3358 H 295.84 -2.81809 -2.67425 0
M  V30 3359 H 297.512 -4.55538 -0.726807 0
M  V30 3360 H 295.755 -4.29421 -0.614853 0
M  V30 3361 H 296.426 -5.14 -2.01265 0
M  V30 3362 H 298.902 -3.28916 -2.5486 0
M  V30 3363 H 297.778 -4.05266 -3.70204 0
M  V30 3364 H 298.039 -2.31676 -3.76535 0
M  V30 3365 N 297.098 0.621204 -1.44841 0
M  V30 3366 C 298.344 1.38073 -1.49357 0
M  V30 3367 C 298.699 1.91973 -0.128115 0
M  V30 3368 O 297.992 1.71311 0.858087 0
M  V30 3369 C 298.186 2.55675 -2.4973 0
M  V30 3370 C 298.015 2.13289 -3.95901 0
M  V30 3371 C 296.785 2.001 -4.63991 0
M  V30 3372 C 298.983 1.7159 -4.84831 0
M  V30 3373 N 296.965 1.51381 -5.94943 0
M  V30 3374 C 298.336 1.34188 -6.05304 0
M  V30 3375 C 300.391 1.59059 -4.7181 0
M  V30 3376 C 299.094 0.855085 -7.14199 0
M  V30 3377 C 301.12 1.11784 -5.8074 0
M  V30 3378 C 300.482 0.753385 -7.0036 0
M  V30 3379 H 296.581 0.499675 -0.601539 0
M  V30 3380 H 299.165 0.711609 -1.8123 0
M  V30 3381 H 297.336 3.20201 -2.19832 0
M  V30 3382 H 299.068 3.22509 -2.4448 0
M  V30 3383 H 295.823 2.20863 -4.18947 0
M  V30 3384 H 296.247 1.29293 -6.64539 0
M  V30 3385 H 300.889 1.85865 -3.79755 0
M  V30 3386 H 298.607 0.574552 -8.06055 0
M  V30 3387 H 302.193 1.02533 -5.72694 0
M  V30 3388 H 301.073 0.393183 -7.83214 0
M  V30 3389 N 298.576 1.31904 0.862503 0
M  V30 3390 C 299.825 1.21373 1.61094 0
M  V30 3391 C 300.138 -0.22504 1.94301 0
M  V30 3392 O 301.344 -0.452121 2.67709 0
M  V30 3393 C 299.8 2.12525 2.9045 0
M  V30 3394 C 299.408 3.61441 2.64697 0
M  V30 3395 C 301.152 2.10813 3.68454 0
M  V30 3396 C 299.059 4.44578 3.90006 0
M  V30 3397 H 297.989 0.450705 0.604468 0
M  V30 3398 H 300.64 1.56811 0.953027 0
M  V30 3399 H 299.022 1.69994 3.57656 0
M  V30 3400 H 300.196 4.12264 2.05851 0
M  V30 3401 H 298.511 3.65205 2.00036 0
M  V30 3402 H 301.108 2.70167 4.61426 0
M  V30 3403 H 301.451 1.09713 4.01583 0
M  V30 3404 H 301.984 2.51583 3.08141 0
M  V30 3405 H 298.723 5.46461 3.62023 0
M  V30 3406 H 298.243 3.98508 4.48276 0
M  V30 3407 H 299.922 4.57176 4.5782 0
M  V30 3408 N 300.054 -1.07777 1.14986 0
M  V30 3409 C 301.017 -2.13041 0.845358 0
M  V30 3410 C 302.017 -1.60071 -0.152931 0
M  V30 3411 O 303.207 -1.74033 0.0761879 0
M  V30 3412 C 300.339 -3.39896 0.261383 0
M  V30 3413 H 301.532 -2.41485 1.77834 0
M  V30 3414 H 299.085 -1.23595 0.956757 0
M  V30 3415 H 299.82 -3.17091 -0.68 0
M  V30 3416 H 299.605 -3.79642 0.980514 0
M  V30 3417 H 301.095 -4.17548 0.0657687 0
M  V30 3418 N 301.532 -0.945985 -1.26051 0
M  V30 3419 C 302.943 -0.638096 -1.75457 0
M  V30 3420 C 303.294 0.846672 -1.76991 0
M  V30 3421 O 302.419 1.66262 -1.38513 0
M  V30 3422 C 303.014 -1.15157 -3.18629 0
M  V30 3423 C 301.573 -0.894004 -3.65629 0
M  V30 3424 C 300.72 -1.29967 -2.44957 0
M  V30 3425 H 303.671 -1.12376 -1.1206 0
M  V30 3426 H 303.692 -0.507615 -3.77099 0
M  V30 3427 H 303.204 -2.23222 -3.1748 0
M  V30 3428 H 301.305 0.172057 -3.72203 0
M  V30 3429 H 301.418 -1.52439 -4.54202 0
M  V30 3430 H 299.782 -0.718078 -2.44368 0
M  V30 3431 H 300.565 -2.38935 -2.46505 0
M  V30 3432 N 303.011 1.40521 -0.713556 0
M  V30 3433 C 303.941 2.33381 -0.0743864 0
M  V30 3434 C 304.922 1.52784 0.747735 0
M  V30 3435 O 306.107 1.81258 0.697071 0
M  V30 3436 C 303.237 3.36748 0.849598 0
M  V30 3437 C 302.191 4.27793 0.133247 0
M  V30 3438 C 301.517 5.21679 1.17281 0
M  V30 3439 C 302.817 5.12415 -1.01134 0
M  V30 3440 H 304.511 2.87081 -0.850007 0
M  V30 3441 H 302.057 1.38034 -0.410201 0
M  V30 3442 H 304.01 4.00648 1.30612 0
M  V30 3443 H 302.734 2.81439 1.65709 0
M  V30 3444 H 301.393 3.65342 -0.303426 0
M  V30 3445 H 301.041 4.62677 1.9733 0
M  V30 3446 H 300.741 5.83435 0.698397 0
M  V30 3447 H 302.265 5.88456 1.62947 0
M  V30 3448 H 303.679 5.69781 -0.634274 0
M  V30 3449 H 302.076 5.83203 -1.41399 0
M  V30 3450 H 303.146 4.48514 -1.84292 0
M  V30 3451 N 304.489 0.459591 1.5075 0
M  V30 3452 C 305.421 -0.37665 2.26084 0
M  V30 3453 C 306.434 -0.967109 1.30961 0
M  V30 3454 O 307.623 -0.857468 1.56556 0
M  V30 3455 C 304.723 -1.54112 3.01832 0
M  V30 3456 C 303.896 -1.06553 4.24223 0
M  V30 3457 C 302.955 -2.1027 4.82362 0
M  V30 3458 O 301.981 -1.68798 5.43595 0
M  V30 3459 N 303.183 -3.42974 4.68347 0
M  V30 3460 H 305.948 0.269124 2.98489 0
M  V30 3461 H 303.509 0.28972 1.59287 0
M  V30 3462 H 305.501 -2.23165 3.37608 0
M  V30 3463 H 304.071 -2.0918 2.32298 0
M  V30 3464 H 303.291 -0.201274 3.93686 0
M  V30 3465 H 304.579 -0.725516 5.03601 0
M  V30 3466 H 303.977 -3.79385 4.19623 0
M  V30 3467 H 302.534 -4.07858 5.08424 0
M  V30 3468 N 305.967 -1.56429 0.191757 0
M  V30 3469 C 307.213 -1.97777 -0.448554 0
M  V30 3470 C 307.546 -1.07847 -1.61501 0
M  V30 3471 O 306.821 -0.129774 -1.94067 0
M  V30 3472 C 307.104 -3.48362 -0.911906 0
M  V30 3473 C 306.957 -4.4907 0.256136 0
M  V30 3474 C 308.276 -4.02561 -1.77857 0
M  V30 3475 H 305.395 -0.719071 -0.161572 0
M  V30 3476 H 308.037 -1.87896 0.282007 0
M  V30 3477 H 306.187 -3.56914 -1.53442 0
M  V30 3478 H 307.859 -4.5256 0.893733 0
M  V30 3479 H 306.102 -4.24181 0.908436 0
M  V30 3480 H 306.773 -5.51889 -0.11053 0
M  V30 3481 H 309.249 -3.96767 -1.25359 0
M  V30 3482 H 308.125 -5.08301 -2.07174 0
M  V30 3483 H 308.386 -3.47616 -2.73158 0
M  V30 3484 N 307.445 0.0818655 -1.57387 0
M  V30 3485 C 308.408 1.08265 -2.02018 0
M  V30 3486 C 309.408 1.32183 -0.915664 0
M  V30 3487 O 310.598 1.28073 -1.18081 0
M  V30 3488 C 307.73 2.42871 -2.39221 0
M  V30 3489 H 308.923 0.698204 -2.91659 0
M  V30 3490 H 306.476 0.327303 -1.52835 0
M  V30 3491 H 307.211 2.86167 -1.52575 0
M  V30 3492 H 306.996 2.26855 -3.19811 0
M  V30 3493 H 308.486 3.14826 -2.74362 0
M  V30 3494 N 308.923 1.53595 0.353017 0
M  V30 3495 C 309.853 1.83902 1.43883 0
M  V30 3496 C 310.834 0.693421 1.55324 0
M  V30 3497 O 312.019 0.944452 1.69687 0
M  V30 3498 C 309.149 2.04016 2.8106 0
M  V30 3499 C 308.103 3.19814 2.84434 0
M  V30 3500 C 307.429 3.25244 4.24406 0
M  V30 3501 C 308.729 4.58133 2.50822 0
M  V30 3502 H 310.423 2.74835 1.1877 0
M  V30 3503 H 307.969 1.32242 0.569917 0
M  V30 3504 H 309.922 2.238 3.57059 0
M  V30 3505 H 308.646 1.09804 3.07588 0
M  V30 3506 H 307.305 2.9987 2.10887 0
M  V30 3507 H 306.953 2.28646 4.48029 0
M  V30 3508 H 306.653 4.03054 4.27576 0
M  V30 3509 H 308.177 3.47228 5.0226 0
M  V30 3510 H 309.591 4.77995 3.16534 0
M  V30 3511 H 307.988 5.38276 2.6529 0
M  V30 3512 H 309.058 4.62387 1.46034 0
M  V30 3513 N 310.401 -0.613514 1.45168 0
M  V30 3514 C 311.331 -1.7354 1.56225 0
M  V30 3515 C 312.312 -1.64981 0.41414 0
M  V30 3516 O 313.497 -1.83472 0.636526 0
M  V30 3517 C 310.627 -3.12128 1.52295 0
M  V30 3518 C 309.581 -3.35491 2.65762 0
M  V30 3519 C 308.907 -4.74291 2.46885 0
M  V30 3520 C 310.207 -3.26325 4.0781 0
M  V30 3521 H 311.901 -1.64543 2.50132 0
M  V30 3522 H 309.447 -0.790185 1.20383 0
M  V30 3523 H 311.4 -3.90404 1.58628 0
M  V30 3524 H 310.124 -3.2195 0.549139 0
M  V30 3525 H 308.783 -2.59603 2.58847 0
M  V30 3526 H 308.431 -4.80839 1.47657 0
M  V30 3527 H 308.131 -4.9088 3.22972 0
M  V30 3528 H 309.655 -5.54775 2.55063 0
M  V30 3529 H 311.069 -3.94483 4.16 0
M  V30 3530 H 309.466 -3.54445 4.8424 0
M  V30 3531 H 310.536 -2.23855 4.30136 0
M  V30 3532 N 311.879 -1.3236 -0.855495 0
M  V30 3533 C 312.812 -1.15559 -1.96777 0
M  V30 3534 C 313.79 -0.0552681 -1.62506 0
M  V30 3535 O 314.974 -0.214419 -1.87277 0
M  V30 3536 C 312.101 -0.768851 -3.29858 0
M  V30 3537 C 311.147 -1.87429 -3.83109 0
M  V30 3538 S 311.98 -3.48243 -4.06801 0
M  V30 3539 C 313.136 -3.11539 -5.42858 0
M  V30 3540 H 313.369 -2.09717 -2.10727 0
M  V30 3541 H 310.902 -1.17011 -1.00737 0
M  V30 3542 H 312.86 -0.55248 -4.06765 0
M  V30 3543 H 311.521 0.153857 -3.13723 0
M  V30 3544 H 310.714 -1.55667 -4.79358 0
M  V30 3545 H 310.316 -2.04647 -3.13042 0
M  V30 3546 H 312.608 -2.61331 -6.2507 0
M  V30 3547 H 313.551 -4.06806 -5.79582 0
M  V30 3548 H 313.959 -2.48582 -5.06821 0
M  V30 3549 N 313.357 1.07166 -1.15556 0
M  V30 3550 C 314.605 1.79443 -0.929764 0
M  V30 3551 C 314.926 1.87246 0.544414 0
M  V30 3552 O 314.196 1.37473 1.39564 0
M  V30 3553 H 312.776 0.664625 -0.341003 0
M  V30 3554 H 315.438 1.29499 -1.45657 0
M  V30 3555 H 314.534 2.81832 -1.34079 0
M  V30 3556 N 314.835 0.952656 1.25548 0
M  V30 3557 C 315.765 0.489287 2.28316 0
M  V30 3558 C 316.746 -0.463359 1.63667 0
M  V30 3559 O 317.931 -0.36274 1.90782 0
M  V30 3560 C 315.061 -0.235603 3.465 0
M  V30 3561 C 314.015 0.631593 4.23314 0
M  V30 3562 C 313.341 -0.223923 5.34231 0
M  V30 3563 C 314.641 1.90871 4.86174 0
M  V30 3564 H 316.335 1.34822 2.67326 0
M  V30 3565 H 313.881 0.649728 1.28509 0
M  V30 3566 H 315.834 -0.570882 4.17515 0
M  V30 3567 H 314.558 -1.12877 3.06474 0
M  V30 3568 H 313.217 0.949929 3.54079 0
M  V30 3569 H 312.865 -1.11678 4.90446 0
M  V30 3570 H 312.565 0.35299 5.86539 0
M  V30 3571 H 314.089 -0.554214 6.0808 0
M  V30 3572 H 315.503 1.63997 5.49343 0
M  V30 3573 H 313.9 2.43112 5.4865 0
M  V30 3574 H 314.97 2.61304 4.08471 0
M  V30 3575 N 316.313 -1.40141 0.720998 0
M  V30 3576 C 317.562 -2.0002 0.259804 0
M  V30 3577 C 317.875 -1.57839 -1.15526 0
M  V30 3578 O 319.081 -2.10455 -1.71525 0
M  V30 3579 C 317.537 -3.57516 0.413566 0
M  V30 3580 C 317.145 -4.08667 1.83562 0
M  V30 3581 C 318.889 -4.24498 0.0134387 0
M  V30 3582 C 316.796 -5.58686 1.93968 0
M  V30 3583 H 315.726 -0.748195 0.0933806 0
M  V30 3584 H 318.377 -1.60313 0.892866 0
M  V30 3585 H 316.759 -3.9495 -0.288169 0
M  V30 3586 H 317.933 -3.82598 2.56817 0
M  V30 3587 H 316.248 -3.543 2.1877 0
M  V30 3588 H 318.845 -5.34654 0.0703954 0
M  V30 3589 H 319.188 -4.03375 -1.02927 0
M  V30 3590 H 319.721 -3.92188 0.665815 0
M  V30 3591 H 316.46 -5.8467 2.96379 0
M  V30 3592 H 315.98 -5.86602 1.25131 0
M  V30 3593 H 317.659 -6.23875 1.71431 0
M  V30 3594 N 317.792 -0.46758 -1.50504 0
M  V30 3595 C 319.038 0.0808869 -2.03239 0
M  V30 3596 C 319.393 1.37721 -1.34353 0
M  V30 3597 O 318.686 1.86016 -0.459194 0
M  V30 3598 C 318.88 0.323995 -3.55928 0
M  V30 3599 C 318.709 -0.947215 -4.39611 0
M  V30 3600 C 317.479 -1.48951 -4.82848 0
M  V30 3601 C 319.677 -1.84166 -4.80195 0
M  V30 3602 N 317.659 -2.71011 -5.50842 0
M  V30 3603 C 319.03 -2.90815 -5.47564 0
M  V30 3604 C 321.085 -1.85246 -4.62156 0
M  V30 3605 C 319.788 -3.98529 -5.98805 0
M  V30 3606 C 321.814 -2.91914 -5.14335 0
M  V30 3607 C 321.176 -3.97282 -5.81676 0
M  V30 3608 H 317.275 -0.0103394 -0.781932 0
M  V30 3609 H 319.859 -0.635003 -1.84054 0
M  V30 3610 H 318.03 1.00892 -3.75067 0
M  V30 3611 H 319.762 0.866492 -3.95315 0
M  V30 3612 H 316.517 -1.03918 -4.62058 0
M  V30 3613 H 316.941 -3.32988 -5.89447 0
M  V30 3614 H 321.583 -1.05103 -4.09528 0
M  V30 3615 H 319.301 -4.79491 -6.50472 0
M  V30 3616 H 322.887 -2.93729 -5.0221 0
M  V30 3617 H 321.767 -4.78462 -6.21324 0
M  V30 3618 N 319.27 1.56325 -0.20005 0
M  V30 3619 C 320.18 2.22931 0.730668 0
M  V30 3620 C 321.196 1.22997 1.23076 0
M  V30 3621 O 322.372 1.55748 1.27689 0
M  V30 3622 C 319.437 2.87948 1.93098 0
M  V30 3623 C 318.498 4.03166 1.47497 0
M  V30 3624 C 317.731 4.65073 2.61807 0
M  V30 3625 O 317.954 4.25913 3.79413 0
M  V30 3626 O 316.888 5.54452 2.34237 0
M  V30 3627 H 320.714 3.03084 0.193391 0
M  V30 3628 H 318.299 1.49371 0.0294621 0
M  V30 3629 H 320.181 3.29063 2.6324 0
M  V30 3630 H 318.856 2.10771 2.45677 0
M  V30 3631 H 317.763 3.66664 0.742201 0
M  V30 3632 H 319.096 4.82022 0.995796 0
M  V30 3633 N 320.748 -0.0735177 1.57428 0
M  V30 3634 C 321.678 -1.0879 2.06608 0
M  V30 3635 C 322.659 -1.40473 0.959237 0
M  V30 3636 O 323.844 -1.5013 1.23185 0
M  V30 3637 C 320.974 -2.40183 2.50857 0
M  V30 3638 C 319.928 -2.22858 3.65402 0
M  V30 3639 C 319.254 -3.59619 3.957 0
M  V30 3640 C 320.554 -1.65123 4.95511 0
M  V30 3641 H 322.248 -0.678673 2.91607 0
M  V30 3642 H 319.794 -0.325013 1.40284 0
M  V30 3643 H 321.747 -3.11437 2.83874 0
M  V30 3644 H 320.471 -2.83083 1.62885 0
M  V30 3645 H 319.13 -1.54045 3.32664 0
M  V30 3646 H 318.778 -4.00086 3.04861 0
M  V30 3647 H 318.478 -3.48866 4.72828 0
M  V30 3648 H 320.002 -4.32306 4.31212 0
M  V30 3649 H 321.416 -2.26241 5.26771 0
M  V30 3650 H 319.813 -1.65071 5.7695 0
M  V30 3651 H 320.883 -0.612559 4.81015 0
M  V30 3652 N 322.226 -1.5378 -0.344866 0
M  V30 3653 C 323.156 -1.84662 -1.42906 0
M  V30 3654 C 324.137 -0.701648 -1.54955 0
M  V30 3655 O 325.322 -0.953438 -1.69184 0
M  V30 3656 C 322.452 -2.05503 -2.79974 0
M  V30 3657 C 321.406 -3.21318 -2.82734 0
M  V30 3658 C 320.732 -3.2749 -4.22675 0
M  V30 3659 C 322.032 -4.59456 -2.48389 0
M  V30 3660 H 323.726 -2.75461 -1.17311 0
M  V30 3661 H 321.272 -1.32542 -0.562896 0
M  V30 3662 H 323.225 -2.25691 -3.55867 0
M  V30 3663 H 321.949 -1.11434 -3.07002 0
M  V30 3664 H 320.608 -3.00984 -2.09294 0
M  V30 3665 H 320.256 -2.31019 -4.4681 0
M  V30 3666 H 319.956 -4.05316 -4.25433 0
M  V30 3667 H 321.48 -3.49887 -5.00412 0
M  V30 3668 H 322.894 -4.79667 -3.13995 0
M  V30 3669 H 321.291 -5.39675 -2.62432 0
M  V30 3670 H 322.361 -4.63155 -1.4358 0
M  V30 3671 N 323.704 0.605807 -1.45491 0
M  V30 3672 C 324.636 1.73031 -1.5031 0
M  V30 3673 C 325.649 1.57968 -0.393687 0
M  V30 3674 O 326.838 1.65817 -0.660839 0
M  V30 3675 C 323.938 3.11049 -1.34543 0
M  V30 3676 C 323.111 3.52334 -2.59189 0
M  V30 3677 C 322.17 4.69323 -2.37954 0
M  V30 3678 O 321.196 4.7635 -3.11575 0
M  V30 3679 N 322.398 5.62705 -1.4263 0
M  V30 3680 H 325.163 1.6936 -2.4726 0
M  V30 3681 H 322.724 0.79114 -1.41254 0
M  V30 3682 H 324.716 3.87071 -1.18144 0
M  V30 3683 H 323.286 3.09217 -0.458623 0
M  V30 3684 H 322.506 2.66256 -2.90691 0
M  V30 3685 H 323.794 3.76677 -3.42041 0
M  V30 3686 H 323.192 5.59744 -0.818758 0
M  V30 3687 H 321.749 6.38252 -1.32202 0
M  V30 3688 N 325.182 1.32811 0.848464 0
M  V30 3689 C 326.145 1.22194 1.9391 0
M  V30 3690 C 327.145 0.143404 1.60159 0
M  V30 3691 O 328.335 0.394253 1.6968 0
M  V30 3692 C 325.467 0.88067 3.29328 0
M  V30 3693 H 326.66 2.19127 2.04752 0
M  V30 3694 H 324.213 1.16731 1.0394 0
M  V30 3695 H 324.948 -0.0865776 3.24184 0
M  V30 3696 H 324.733 1.66052 3.55203 0
M  V30 3697 H 326.223 0.830871 4.09251 0
M  V30 3698 N 326.66 -1.06551 1.16123 0
M  V30 3699 C 327.885 -1.83544 0.965735 0
M  V30 3700 C 328.31 -1.81843 -0.481102 0
M  V30 3701 O 327.668 -1.21732 -1.34354 0
M  V30 3702 C 327.716 -3.28169 1.49457 0
M  V30 3703 O 326.82 -4.0643 0.699157 0
M  V30 3704 H 326.161 -0.568026 0.343864 0
M  V30 3705 H 328.691 -1.34362 1.54299 0
M  V30 3706 H 328.701 -3.78992 1.51092 0
M  V30 3707 H 327.376 -3.28722 2.54784 0
M  V30 3708 H 325.953 -3.65216 0.7531 0
M  V30 3709 N 328.138 -0.959301 -1.25041 0
M  V30 3710 C 329.101 -0.487677 -2.23952 0
M  V30 3711 C 330.101 0.41119 -1.55454 0
M  V30 3712 O 331.291 0.207825 -1.72956 0
M  V30 3713 C 328.423 0.294807 -3.39623 0
M  V30 3714 H 329.616 -1.36198 -2.67189 0
M  V30 3715 H 327.169 -0.743042 -1.37508 0
M  V30 3716 H 327.904 1.18658 -3.01813 0
M  V30 3717 H 327.689 -0.35012 -3.90534 0
M  V30 3718 H 329.179 0.614089 -4.1306 0
M  V30 3719 N 329.616 1.39756 -0.72842 0
M  V30 3720 C 330.863 2.00645 -0.273487 0
M  V30 3721 C 331.191 1.57786 1.13727 0
M  V30 3722 O 330.446 0.794886 1.7883 0
M  V30 3723 C 330.745 3.56002 -0.315776 0
M  V30 3724 C 330.411 4.18489 -1.67863 0
M  V30 3725 C 329.073 4.3527 -2.05166 0
M  V30 3726 C 331.425 4.53219 -2.57375 0
M  V30 3727 C 328.753 4.84069 -3.31503 0
M  V30 3728 C 331.105 5.03423 -3.83077 0
M  V30 3729 C 329.769 5.18413 -4.20481 0
M  V30 3730 H 329.039 0.734211 -0.100076 0
M  V30 3731 H 331.686 1.6718 -0.933972 0
M  V30 3732 H 329.991 3.89452 0.428285 0
M  V30 3733 H 331.688 4.00963 0.0542575 0
M  V30 3734 H 328.278 4.05824 -1.37858 0
M  V30 3735 H 332.462 4.39878 -2.29827 0
M  V30 3736 H 327.718 4.93859 -3.60435 0
M  V30 3737 H 331.892 5.2927 -4.52599 0
M  V30 3738 H 329.519 5.55987 -5.18443 0
M  V30 3739 N 331.094 0.475555 1.50254 0
M  V30 3740 C 332.334 -0.0765802 2.04256 0
M  V30 3741 C 332.698 -1.36587 1.34937 0
M  V30 3742 O 333.899 -2.00066 1.79519 0
M  V30 3743 C 332.17 -0.251668 3.56513 0
M  V30 3744 S 333.729 -0.761716 4.32138 0
M  V30 3745 H 330.547 -0.0138456 0.710865 0
M  V30 3746 H 333.149 0.643714 1.84598 0
M  V30 3747 H 331.853 0.692404 4.04517 0
M  V30 3748 H 331.384 -0.997946 3.80532 0
M  V30 3749 H 333.399 -2.03451 4.52573 0
M  V30 3750 N 332.573 -1.56217 0.208337 0
M  V30 3751 C 333.821 -1.97558 -0.426076 0
M  V30 3752 C 334.142 -1.09683 -1.61229 0
M  V30 3753 O 333.412 -0.170956 -1.95153 0
M  V30 3754 H 331.992 -0.729575 -0.160405 0
M  V30 3755 H 334.654 -1.92606 0.298155 0
M  V30 3756 H 333.75 -3.02672 -0.761312 0
M  V30 3757 N 334.051 0.0651679 -1.57465 0
M  V30 3758 C 334.981 1.07693 -2.07182 0
M  V30 3759 C 335.962 1.39962 -0.966673 0
M  V30 3760 O 337.147 1.49475 -1.2398 0
M  V30 3761 C 334.277 2.3885 -2.52127 0
M  V30 3762 C 333.231 2.20917 -3.66579 0
M  V30 3763 C 332.557 3.57515 -3.97601 0
M  V30 3764 C 333.857 1.62493 -4.9638 0
M  V30 3765 H 335.551 0.663199 -2.91962 0
M  V30 3766 H 333.097 0.317569 -1.40455 0
M  V30 3767 H 335.05 3.09928 -2.85522 0
M  V30 3768 H 333.774 2.82215 -1.64384 0
M  V30 3769 H 332.433 1.52279 -3.33477 0
M  V30 3770 H 332.081 3.98463 -3.06979 0
M  V30 3771 H 331.781 3.46353 -4.74672 0
M  V30 3772 H 333.305 4.30013 -4.33499 0
M  V30 3773 H 334.719 2.23445 -5.27963 0
M  V30 3774 H 333.116 1.62009 -5.77818 0
M  V30 3775 H 334.186 0.587041 -4.81333 0
M  V30 3776 N 335.529 1.53961 0.336706 0
M  V30 3777 C 336.777 1.71197 1.07405 0
M  V30 3778 C 337.098 0.481475 1.88962 0
M  V30 3779 O 336.368 -0.504585 1.8929 0
M  V30 3780 H 334.948 0.631185 0.399517 0
M  V30 3781 H 337.61 1.91232 0.376323 0
M  V30 3782 H 336.706 2.58587 1.74755 0
M  V30 3783 N 337.007 -0.598083 1.45811 0
M  V30 3784 C 338.254 -1.35681 1.50323 0
M  V30 3785 C 338.582 -1.9393 0.148739 0
M  V30 3786 O 337.837 -1.76094 -0.853787 0
M  V30 3787 C 338.136 -2.51669 2.53766 0
M  V30 3788 C 337.802 -2.11508 3.98215 0
M  V30 3789 C 336.464 -2.0027 4.37545 0
M  V30 3790 C 338.816 -1.80308 4.89018 0
M  V30 3791 C 336.144 -1.56067 5.65562 0
M  V30 3792 C 338.496 -1.37589 6.17456 0
M  V30 3793 C 337.16 -1.24916 6.55708 0
M  V30 3794 H 336.43 -0.496492 0.550069 0
M  V30 3795 H 339.077 -0.675052 1.79207 0
M  V30 3796 H 337.382 -3.25225 2.18486 0
M  V30 3797 H 339.079 -3.09895 2.54492 0
M  V30 3798 H 335.669 -2.21185 3.67117 0
M  V30 3799 H 339.853 -1.87884 4.59362 0
M  V30 3800 H 335.109 -1.44886 5.93985 0
M  V30 3801 H 339.283 -1.12495 6.87254 0
M  V30 3802 H 336.91 -0.904386 7.54801 0
M  V30 3803 N 338.485 -1.33259 -0.841409 0
M  V30 3804 C 339.415 -1.25926 -1.96634 0
M  V30 3805 C 340.396 -0.140349 -1.6952 0
M  V30 3806 O 341.581 -0.329707 -1.91381 0
M  V30 3807 C 338.711 -0.99512 -3.32738 0
M  V30 3808 C 337.665 -2.0767 -3.74242 0
M  V30 3809 C 336.991 -1.66474 -5.08125 0
M  V30 3810 C 338.291 -3.49318 -3.88297 0
M  V30 3811 H 339.985 -2.20046 -2.03027 0
M  V30 3812 H 337.531 -1.05931 -0.975425 0
M  V30 3813 H 339.484 -0.930323 -4.11002 0
M  V30 3814 H 338.208 -0.0183004 -3.26595 0
M  V30 3815 H 336.867 -2.13187 -2.98239 0
M  V30 3816 H 336.515 -0.675012 -4.9845 0
M  V30 3817 H 336.215 -2.3885 -5.36865 0
M  V30 3818 H 337.739 -1.61455 -5.88867 0
M  V30 3819 H 339.153 -3.46316 -4.56879 0
M  V30 3820 H 337.55 -4.20158 -4.28471 0
M  V30 3821 H 338.62 -3.8801 -2.9082 0
M  V30 3822 N 339.963 1.05934 -1.16686 0
M  V30 3823 C 341.212 1.78188 -0.945085 0
M  V30 3824 C 341.525 1.88338 0.528021 0
M  V30 3825 O 342.731 2.57258 0.867799 0
M  V30 3826 C 341.187 3.20277 -1.64167 0
M  V30 3827 C 340.795 3.18281 -3.15279 0
M  V30 3828 C 342.539 3.97039 -1.502 0
M  V30 3829 C 340.446 4.55112 -3.7766 0
M  V30 3830 H 339.376 0.667866 -0.349959 0
M  V30 3831 H 342.027 1.18794 -1.39858 0
M  V30 3832 H 340.409 3.79952 -1.11589 0
M  V30 3833 H 341.583 2.68167 -3.74731 0
M  V30 3834 H 339.898 2.55018 -3.29173 0
M  V30 3835 H 342.495 4.98194 -1.94183 0
M  V30 3836 H 342.838 4.13845 -0.451461 0
M  V30 3837 H 343.371 3.43894 -1.99954 0
M  V30 3838 H 340.11 4.43512 -4.82677 0
M  V30 3839 H 339.63 5.05406 -3.22994 0
M  V30 3840 H 341.309 5.24064 -3.79428 0
M  V30 3841 N 341.441 0.965919 1.2453 0
M  V30 3842 C 342.687 0.62776 1.92839 0
M  V30 3843 C 343.02 -0.834694 1.75347 0
M  V30 3844 O 342.295 -1.60031 1.10546 0
M  V30 3845 C 342.578 1.00109 3.45905 0
M  V30 3846 C 342.431 2.52011 3.72573 0
M  V30 3847 C 343.75 0.53435 4.36844 0
M  V30 3848 H 340.869 0.229537 0.700344 0
M  V30 3849 H 343.511 1.2046 1.46933 0
M  V30 3850 H 341.661 0.510238 3.85135 0
M  V30 3851 H 343.333 3.08559 3.42912 0
M  V30 3852 H 341.576 2.95287 3.17786 0
M  V30 3853 H 342.247 2.73183 4.79661 0
M  V30 3854 H 344.723 0.955565 4.04979 0
M  V30 3855 H 343.599 0.824152 5.42678 0
M  V30 3856 H 343.86 -0.565589 4.38467 0
M  V30 3857 N 342.919 -1.39368 0.735821 0
M  V30 3858 C 343.849 -2.33234 0.111506 0
M  V30 3859 C 344.83 -1.53954 -0.723334 0
M  V30 3860 O 346.015 -1.82344 -0.668147 0
M  V30 3861 C 343.145 -3.38057 -0.795917 0
M  V30 3862 C 342.099 -4.2795 -0.065172 0
M  V30 3863 C 341.425 -5.23479 -1.08967 0
M  V30 3864 C 342.725 -5.10741 1.09273 0
M  V30 3865 H 344.419 -2.85692 0.895571 0
M  V30 3866 H 341.965 -1.37364 0.432109 0
M  V30 3867 H 343.918 -4.02675 -1.24221 0
M  V30 3868 H 342.642 -2.8404 -1.61211 0
M  V30 3869 H 341.301 -3.64813 0.361511 0
M  V30 3870 H 340.949 -4.65758 -1.89944 0
M  V30 3871 H 340.649 -5.84472 -0.605489 0
M  V30 3872 H 342.173 -5.90974 -1.53565 0
M  V30 3873 H 343.587 -5.68699 0.724841 0
M  V30 3874 H 341.984 -5.8088 1.50659 0
M  V30 3875 H 343.054 -4.45525 1.91404 0
M  V30 3876 N 344.397 -0.483516 -1.5 0
M  V30 3877 C 345.36 0.292965 -2.2732 0
M  V30 3878 C 346.36 0.909499 -1.32608 0
M  V30 3879 O 347.55 0.776745 -1.55924 0
M  V30 3880 C 344.682 1.41854 -3.09984 0
M  V30 3881 H 345.875 -0.385289 -2.97415 0
M  V30 3882 H 343.428 -0.237942 -1.54478 0
M  V30 3883 H 344.163 2.13148 -2.44414 0
M  V30 3884 H 343.948 0.982114 -3.79601 0
M  V30 3885 H 345.438 1.96597 -3.68429 0
M  V30 3886 N 345.875 1.56104 -0.216619 0
M  V30 3887 C 346.805 2.23063 0.690296 0
M  V30 3888 C 347.786 1.20072 1.20485 0
M  V30 3889 O 348.971 1.48643 1.24976 0
M  V30 3890 C 346.101 2.90672 1.90072 0
M  V30 3891 C 345.055 4.00092 1.5202 0
M  V30 3892 C 344.381 4.54972 2.80899 0
M  V30 3893 C 345.681 5.17398 0.71391 0
M  V30 3894 H 347.375 2.99109 0.132038 0
M  V30 3895 H 344.921 1.43866 0.0620664 0
M  V30 3896 H 346.874 3.36204 2.54057 0
M  V30 3897 H 345.598 2.12066 2.48386 0
M  V30 3898 H 344.257 3.55283 0.903839 0
M  V30 3899 H 343.905 3.73102 3.37348 0
M  V30 3900 H 343.605 5.28817 2.56176 0
M  V30 3901 H 345.129 5.0322 3.45836 0
M  V30 3902 H 346.543 5.59342 1.25735 0
M  V30 3903 H 344.94 5.97444 0.563951 0
M  V30 3904 H 346.01 4.84088 -0.280527 0
M  V30 3905 N 347.353 -0.0568162 1.57498 0
M  V30 3906 C 348.6 -0.753104 1.87975 0
M  V30 3907 C 348.928 -1.76815 0.81035 0
M  V30 3908 O 348.183 -1.94756 -0.19199 0
M  V30 3909 C 348.482 -1.48359 3.25153 0
M  V30 3910 C 348.148 -0.60713 4.46794 0
M  V30 3911 C 346.81 -0.365642 4.79809 0
M  V30 3912 C 349.162 -0.000305978 5.212 0
M  V30 3913 C 346.49 0.491905 5.84634 0
M  V30 3914 C 348.842 0.844781 6.26934 0
M  V30 3915 C 347.506 1.096 6.58441 0
M  V30 3916 H 346.776 -0.27558 0.687849 0
M  V30 3917 H 349.423 -0.0135173 1.91495 0
M  V30 3918 H 347.728 -2.29577 3.17492 0
M  V30 3919 H 349.425 -2.02739 3.45974 0
M  V30 3920 H 346.015 -0.805487 4.20963 0
M  V30 3921 H 350.199 -0.173961 4.95995 0
M  V30 3922 H 345.455 0.695131 6.07436 0
M  V30 3923 H 349.629 1.32165 6.83744 0
M  V30 3924 H 347.256 1.76224 7.39492 0
M  V30 3925 N 348.832 -1.54138 -0.328536 0
M  V30 3926 C 349.764 -1.79509 -1.4251 0
M  V30 3927 C 350.777 -0.67688 -1.48061 0
M  V30 3928 O 351.966 -0.953898 -1.50874 0
M  V30 3929 C 349.066 -1.89337 -2.81078 0
M  V30 3930 C 348.239 -3.19443 -2.98789 0
M  V30 3931 C 347.298 -3.20036 -4.17688 0
M  V30 3932 O 346.324 -3.93697 -4.11086 0
M  V30 3933 N 347.526 -2.43467 -5.26976 0
M  V30 3934 H 350.291 -2.74139 -1.21111 0
M  V30 3935 H 347.852 -1.53373 -0.518499 0
M  V30 3936 H 349.844 -1.87167 -3.58818 0
M  V30 3937 H 348.414 -1.01826 -2.95551 0
M  V30 3938 H 347.634 -3.34614 -2.08391 0
M  V30 3939 H 348.922 -4.05354 -3.07515 0
M  V30 3940 H 348.32 -1.83201 -5.35214 0
M  V30 3941 H 346.877 -2.4708 -6.03154 0
M  V30 3942 N 350.31 0.590341 -1.46126 0
M  V30 3943 C 351.273 1.68194 -1.55703 0
M  V30 3944 C 352.273 1.54808 -0.434868 0
M  V30 3945 O 353.463 1.59564 -0.698928 0
M  V30 3946 C 350.595 3.07575 -1.47005 0
M  V30 3947 H 351.788 1.61064 -2.52979 0
M  V30 3948 H 349.341 0.807541 -1.33823 0
M  V30 3949 H 350.076 3.20268 -0.509785 0
M  V30 3950 H 349.861 3.187 -2.28414 0
M  V30 3951 H 351.351 3.87055 -1.56776 0
M  V30 3952 N 351.788 1.33704 0.83433 0
M  V30 3953 C 353.036 1.25169 1.58673 0
M  V30 3954 C 353.357 -0.18127 1.94156 0
M  V30 3955 O 352.627 -1.11113 1.6134 0
M  V30 3956 H 351.207 0.4603 0.58833 0
M  V30 3957 H 353.869 1.67478 0.996847 0
M  V30 3958 H 352.965 1.84856 2.51465 0
M  V30 3959 N 353.266 -1.05314 1.17247 0
M  V30 3960 C 354.196 -2.1498 0.911362 0
M  V30 3961 C 355.177 -1.69471 -0.146169 0
M  V30 3962 O 356.362 -1.942 0.003812 0
M  V30 3963 C 353.492 -3.4472 0.422528 0
M  V30 3964 C 352.446 -4.03789 1.4191 0
M  V30 3965 C 351.772 -5.28858 0.788274 0
M  V30 3966 C 353.072 -4.41418 2.7919 0
M  V30 3967 H 354.766 -2.3708 1.82848 0
M  V30 3968 H 352.312 -1.13938 0.880569 0
M  V30 3969 H 354.265 -4.20787 0.227289 0
M  V30 3970 H 352.989 -3.22269 -0.530123 0
M  V30 3971 H 351.648 -3.2979 1.60106 0
M  V30 3972 H 351.296 -5.02709 -0.171173 0
M  V30 3973 H 350.996 -5.69338 1.45353 0
M  V30 3974 H 352.52 -6.07612 0.603282 0
M  V30 3975 H 353.934 -5.08524 2.64719 0
M  V30 3976 H 352.331 -4.92913 3.42282 0
M  V30 3977 H 353.401 -3.51819 3.33693 0
M  V30 3978 N 354.744 -0.972509 -1.24016 0
M  V30 3979 C 355.992 -0.635776 -1.91839 0
M  V30 3980 C 356.313 0.832312 -1.76345 0
M  V30 3981 O 355.583 1.5946 -1.13795 0
M  V30 3982 H 354.163 -0.232157 -0.710009 0
M  V30 3983 H 356.825 -1.23462 -1.50809 0
M  V30 3984 H 355.921 -0.880545 -2.99421 0
M  V30 3985 N 356.222 1.38976 -0.743202 0
M  V30 3986 C 357.638 1.53984 -0.419664 0
M  V30 3987 C 357.838 1.70837 1.0685 0
M  V30 3988 O 356.894 1.7135 1.8546 0
M  V30 3989 C 358.207 2.75287 -1.20985 0
M  V30 3990 C 359.755 2.89129 -1.19889 0
M  V30 3991 C 360.23 4.13381 -1.97181 0
M  V30 3992 N 361.721 4.20437 -1.94389 0
M  V30 3993 C 362.456 5.15547 -2.50996 0
M  V30 3994 N 361.952 6.16395 -3.16274 0
M  V30 3995 N 363.745 5.07822 -2.40984 0
M  V30 3996 H 355.896 1.26285 -1.7078 0
M  V30 3997 H 358.159 0.612689 -0.723406 0
M  V30 3998 H 357.865 2.69204 -2.26323 0
M  V30 3999 H 357.739 3.68184 -0.819759 0
M  V30 4000 H 360.126 2.947 -0.153606 0
M  V30 4001 H 360.207 1.97272 -1.62841 0
M  V30 4002 H 359.851 4.08572 -3.01714 0
M  V30 4003 H 359.781 5.04298 -1.51629 0
M  V30 4004 H 362.272 3.48205 -1.46839 0
M  V30 4005 H 362.585 6.85443 -3.56915 0
M  V30 4006 H 360.93 6.16758 -3.20367 0
M  V30 4007 H 364.121 4.27973 -1.89622 0
M  V30 4008 H 364.294 5.81767 -2.85397 0
M  V30 4009 N 357.7 0.491464 1.49741 0
M  V30 4010 C 358.633 -0.338464 2.25676 0
M  V30 4011 C 359.611 -0.978676 1.29849 0
M  V30 4012 O 360.795 -1.01064 1.59117 0
M  V30 4013 C 357.922 -1.47588 3.04853 0
M  V30 4014 C 356.968 -0.951 4.15762 0
M  V30 4015 S 357.801 0.150626 5.35288 0
M  V30 4016 C 358.957 -0.990178 6.18018 0
M  V30 4017 H 359.19 0.306068 2.9572 0
M  V30 4018 H 356.723 0.276622 1.51902 0
M  V30 4019 H 358.681 -2.12764 3.51058 0
M  V30 4020 H 357.342 -2.09199 2.34296 0
M  V30 4021 H 356.535 -1.80311 4.70642 0
M  V30 4022 H 356.137 -0.376607 3.72099 0
M  V30 4023 H 358.429 -1.89748 6.50386 0
M  V30 4024 H 359.372 -0.480205 7.0647 0
M  V30 4025 H 359.78 -1.25321 5.50413 0
M  V30 4026 N 359.178 -1.55987 0.224894 0
M  V30 4027 C 360.111 -2.16413 -0.723929 0
M  V30 4028 C 361.089 -1.10952 -1.18863 0
M  V30 4029 O 362.273 -1.39225 -1.27077 0
M  V30 4030 C 359.4 -2.74711 -1.98121 0
M  V30 4031 C 358.446 -3.9303 -1.6562 0
M  V30 4032 S 359.279 -5.29817 -0.778058 0
M  V30 4033 C 360.435 -5.91555 -2.04483 0
M  V30 4034 H 360.668 -2.96555 -0.210347 0
M  V30 4035 H 358.201 -1.54397 0.00955457 0
M  V30 4036 H 360.159 -3.08938 -2.70311 0
M  V30 4037 H 358.82 -1.94555 -2.46591 0
M  V30 4038 H 358.013 -4.32334 -2.59043 0
M  V30 4039 H 357.615 -3.59966 -1.01491 0
M  V30 4040 H 359.907 -6.07732 -2.99446 0
M  V30 4041 H 360.85 -6.87498 -1.69563 0
M  V30 4042 H 361.258 -5.20419 -2.18688 0
M  V30 4043 N 360.656 0.0484629 -1.57525 0
M  V30 4044 C 361.589 1.08755 -2.00618 0
M  V30 4045 C 362.567 1.36272 -0.887058 0
M  V30 4046 O 363.751 1.49255 -1.15131 0
M  V30 4047 C 360.878 2.42675 -2.36277 0
M  V30 4048 C 359.924 2.31142 -3.58435 0
M  V30 4049 S 360.757 1.68326 -5.08357 0
M  V30 4050 C 361.913 3.03776 -5.47239 0
M  V30 4051 H 362.146 0.720415 -2.88439 0
M  V30 4052 H 359.679 0.257801 -1.52233 0
M  V30 4053 H 361.637 3.19699 -2.57494 0
M  V30 4054 H 360.298 2.76541 -1.48942 0
M  V30 4055 H 359.491 3.29957 -3.80978 0
M  V30 4056 H 359.093 1.62258 -3.36969 0
M  V30 4057 H 361.385 4.00106 -5.46737 0
M  V30 4058 H 362.328 2.85988 -6.47778 0
M  V30 4059 H 362.736 3.05456 -4.74718 0
M  V30 4060 N 362.134 1.5431 0.320358 0
M  V30 4061 C 363.081 1.83918 1.39438 0
M  V30 4062 C 364.051 0.686525 1.51248 0
M  V30 4063 O 365.236 0.933269 1.66417 0
M  V30 4064 C 362.376 2.075 2.75749 0
M  V30 4065 C 361.489 3.35177 2.72544 0
M  V30 4066 C 360.624 3.48704 4.00723 0
M  V30 4067 C 359.663 4.70244 3.91838 0
M  V30 4068 N 358.8 4.80679 5.11754 0
M  V30 4069 H 363.64 2.75544 1.13489 0
M  V30 4070 H 361.177 1.36459 0.549309 0
M  V30 4071 H 363.135 2.19166 3.54996 0
M  V30 4072 H 361.765 1.19163 3 0
M  V30 4073 H 360.817 3.32233 1.85271 0
M  V30 4074 H 362.129 4.24534 2.61863 0
M  V30 4075 H 361.283 3.59928 4.88402 0
M  V30 4076 H 360.022 2.57445 4.14214 0
M  V30 4077 H 359.027 4.59072 3.02544 0
M  V30 4078 H 360.252 5.6289 3.7991 0
M  V30 4079 H 358.198 3.92337 5.25745 0
M  V30 4080 H 358.115 5.64007 5.0342 0
M  V30 4081 H 359.383 4.96239 6.01138 0
M  V30 4082 N 363.613 -0.582584 1.46437 0
M  V30 4083 C 364.843 -1.36484 1.55099 0
M  V30 4084 C 365.251 -1.88233 0.191056 0
M  V30 4085 O 364.594 -1.6429 -0.821858 0
M  V30 4086 C 364.656 -2.588 2.49525 0
M  V30 4087 C 364.32 -2.28517 3.95764 0
M  V30 4088 C 365.317 -1.87346 4.84972 0
M  V30 4089 C 363.002 -2.40658 4.40896 0
M  V30 4090 C 364.996 -1.5871 6.17325 0
M  V30 4091 C 362.683 -2.11635 5.73284 0
M  V30 4092 C 363.681 -1.70725 6.61318 0
M  V30 4093 O 363.369 -1.42057 7.91249 0
M  V30 4094 H 363.101 -0.423297 0.527063 0
M  V30 4095 H 365.655 -0.715188 1.92547 0
M  V30 4096 H 363.885 -3.26571 2.07095 0
M  V30 4097 H 365.574 -3.20868 2.48593 0
M  V30 4098 H 366.34 -1.77481 4.5136 0
M  V30 4099 H 362.219 -2.71463 3.72598 0
M  V30 4100 H 365.763 -1.26704 6.85997 0
M  V30 4101 H 361.66 -2.21124 6.06444 0
M  V30 4102 H 362.428 -1.55901 8.03515 0
M  V30 4103 N 365.091 -1.34144 -0.827227 0
M  V30 4104 C 366.507 -1.13732 -1.11969 0
M  V30 4105 C 366.707 0.0640463 -2.01398 0
M  V30 4106 O 365.763 0.740856 -2.41387 0
M  V30 4107 C 367.076 -2.43047 -1.77055 0
M  V30 4108 C 368.624 -2.49063 -1.89569 0
M  V30 4109 C 369.099 -3.78369 -2.58072 0
M  V30 4110 N 370.59 -3.79505 -2.65575 0
M  V30 4111 C 371.325 -4.76274 -3.19297 0
M  V30 4112 N 370.821 -5.83424 -3.73616 0
M  V30 4113 N 372.614 -4.63735 -3.17658 0
M  V30 4114 H 364.765 -2.11126 -0.232296 0
M  V30 4115 H 367.028 -0.933424 -0.165602 0
M  V30 4116 H 366.734 -3.31025 -1.18807 0
M  V30 4117 H 366.608 -2.56066 -2.76966 0
M  V30 4118 H 368.995 -1.61527 -2.46968 0
M  V30 4119 H 369.076 -2.39975 -0.885745 0
M  V30 4120 H 368.72 -4.66293 -2.01329 0
M  V30 4121 H 368.65 -3.84737 -3.59562 0
M  V30 4122 H 371.141 -3.02074 -2.27068 0
M  V30 4123 H 371.454 -6.53282 -4.12846 0
M  V30 4124 H 369.799 -5.87143 -3.71871 0
M  V30 4125 H 372.99 -3.79177 -2.74486 0
M  V30 4126 H 373.163 -5.39318 -3.59221 0
M  V30 4127 N 366.569 1.04691 -1.17803 0
M  V30 4128 C 367.846 1.7472 -0.879328 0
M  V30 4129 C 368.226 2.01812 0.619271 0
M  V30 4130 O 367.574 1.65824 1.57209 0
M  V30 4131 C 367.784 3.03686 -1.71976 0
M  V30 4132 C 369.132 3.77542 -1.94286 0
M  V30 4133 O 370.156 3.13569 -1.68976 0
M  V30 4134 O 369.015 4.92506 -2.36855 0
M  V30 4135 H 366.109 0.760011 -0.326056 0
M  V30 4136 H 368.655 1.10813 -1.28525 0
M  V30 4137 H 367.427 2.79754 -2.73594 0
M  V30 4138 H 367.05 3.75332 -1.31194 0
M  V30 4139 N 368.047 0.979072 1.23499 0
M  V30 4140 C 368.979 0.476271 2.24197 0
M  V30 4141 C 369.992 -0.421166 1.57258 0
M  V30 4142 O 371.181 -0.225515 1.7707 0
M  V30 4143 C 368.281 -0.330503 3.37285 0
M  V30 4144 C 367.454 0.559744 4.33804 0
M  V30 4145 C 366.513 -0.192954 5.25846 0
M  V30 4146 O 365.539 0.416978 5.67671 0
M  V30 4147 N 366.741 -1.47932 5.61334 0
M  V30 4148 H 369.506 1.34211 2.67969 0
M  V30 4149 H 367.067 0.852189 1.37657 0
M  V30 4150 H 369.059 -0.842361 3.95836 0
M  V30 4151 H 367.629 -1.09734 2.92707 0
M  V30 4152 H 366.849 1.25245 3.73775 0
M  V30 4153 H 368.137 1.1665 4.95248 0
M  V30 4154 H 367.535 -1.9964 5.29302 0
M  V30 4155 H 366.092 -1.93664 6.22364 0
M  V30 4156 N 369.525 -1.3858 0.750561 0
M  V30 4157 C 370.941 -1.53759 0.427824 0
M  V30 4158 C 371.141 -1.71401 -1.05943 0
M  V30 4159 O 370.197 -1.72331 -1.84549 0
M  V30 4160 C 371.51 -2.74642 1.22443 0
M  V30 4161 C 373.058 -2.88489 1.2142 0
M  V30 4162 C 373.533 -4.12329 1.9937 0
M  V30 4163 N 375.024 -4.194 1.96616 0
M  V30 4164 C 375.759 -5.14209 2.53727 0
M  V30 4165 N 375.255 -6.14709 3.19539 0
M  V30 4166 N 377.048 -5.06537 2.43673 0
M  V30 4167 H 369.199 -1.25377 1.71447 0
M  V30 4168 H 371.462 -0.608844 0.726645 0
M  V30 4169 H 371.168 -2.68 2.27747 0
M  V30 4170 H 371.042 -3.67745 0.839273 0
M  V30 4171 H 373.429 -2.94614 0.169232 0
M  V30 4172 H 373.51 -1.96406 1.63885 0
M  V30 4173 H 373.154 -4.06966 3.03877 0
M  V30 4174 H 373.084 -5.03486 1.54302 0
M  V30 4175 H 375.575 -3.47421 1.48684 0
M  V30 4176 H 375.888 -6.8354 3.60545 0
M  V30 4177 H 374.233 -6.1505 3.23633 0
M  V30 4178 H 377.424 -4.26962 1.91889 0
M  V30 4179 H 377.597 -5.80245 2.88479 0
M  V30 4180 N 371.003 -0.499398 -1.49478 0
M  V30 4181 C 371.966 0.268838 -2.27618 0
M  V30 4182 C 372.966 0.895383 -1.33565 0
M  V30 4183 O 374.156 0.760164 -1.56739 0
M  V30 4184 C 371.288 1.38559 -3.11471 0
M  V30 4185 H 372.481 -0.416812 -2.96989 0
M  V30 4186 H 370.034 -0.254313 -1.54217 0
M  V30 4187 H 370.769 2.10544 -2.46661 0
M  V30 4188 H 370.554 0.941797 -3.80621 0
M  V30 4189 H 372.044 1.92678 -3.70493 0
M  V30 4190 N 372.481 1.55866 -0.233164 0
M  V30 4191 C 373.729 1.9821 0.394593 0
M  V30 4192 C 374.05 1.12234 1.59463 0
M  V30 4193 O 373.32 0.201981 1.94856 0
M  V30 4194 H 371.9 0.732034 0.148778 0
M  V30 4195 H 374.562 1.92107 -0.32876 0
M  V30 4196 H 373.658 3.03845 0.713063 0
M  V30 4197 N 373.959 -0.0401083 1.57549 0
M  V30 4198 C 374.906 -1.04413 2.05831 0
M  V30 4199 C 375.876 -1.36585 0.945184 0
M  V30 4200 O 377.061 -1.47112 1.21502 0
M  V30 4201 C 374.201 -2.34336 2.53339 0
M  V30 4202 C 373.314 -2.08419 3.78398 0
M  V30 4203 C 372.449 -3.32133 4.14561 0
M  V30 4204 C 371.488 -3.01721 5.3257 0
M  V30 4205 N 370.625 -4.17855 5.64218 0
M  V30 4206 H 375.465 -0.625442 2.91363 0
M  V30 4207 H 373.002 -0.297218 1.44066 0
M  V30 4208 H 374.96 -3.10234 2.78946 0
M  V30 4209 H 373.59 -2.73948 1.7074 0
M  V30 4210 H 372.642 -1.23069 3.59942 0
M  V30 4211 H 373.954 -1.81978 4.64419 0
M  V30 4212 H 373.108 -4.16406 4.41238 0
M  V30 4213 H 371.847 -3.61678 3.2717 0
M  V30 4214 H 370.852 -2.15849 5.05657 0
M  V30 4215 H 372.077 -2.73466 6.21605 0
M  V30 4216 H 370.023 -4.47372 4.79786 0
M  V30 4217 H 369.94 -3.94798 6.44725 0
M  V30 4218 H 371.208 -5.03033 5.95465 0
M  V30 4219 N 375.437 -1.54477 -0.31217 0
M  V30 4220 C 376.686 -1.72438 -1.04633 0
M  V30 4221 C 376.999 -0.511163 -1.88803 0
M  V30 4222 O 378.205 -0.572341 -2.65399 0
M  V30 4223 C 376.661 -3.05043 -1.9099 0
M  V30 4224 C 376.269 -4.33806 -1.11877 0
M  V30 4225 C 378.013 -3.32364 -2.64073 0
M  V30 4226 C 375.92 -5.57467 -1.97445 0
M  V30 4227 H 374.85 -0.642647 -0.394361 0
M  V30 4228 H 377.501 -1.80966 -0.303929 0
M  V30 4229 H 375.883 -2.90451 -2.69173 0
M  V30 4230 H 377.057 -4.59199 -0.383843 0
M  V30 4231 H 375.372 -4.13336 -0.504252 0
M  V30 4232 H 377.969 -4.21951 -3.28423 0
M  V30 4233 H 378.312 -2.50745 -3.32314 0
M  V30 4234 H 378.845 -3.47875 -1.92944 0
M  V30 4235 H 375.584 -6.41722 -1.33692 0
M  V30 4236 H 375.104 -5.36277 -2.6864 0
M  V30 4237 H 376.783 -5.94303 -2.5576 0
M  V30 4238 N 376.915 0.57481 -1.46744 0
M  V30 4239 C 378.14 1.36341 -1.56288 0
M  V30 4240 C 378.565 1.86954 -0.207347 0
M  V30 4241 O 377.923 1.62006 0.813871 0
M  V30 4242 C 377.971 2.52147 -2.57787 0
M  V30 4243 O 377.075 3.53834 -2.11838 0
M  V30 4244 H 376.416 0.405713 -0.525636 0
M  V30 4245 H 378.946 0.696453 -1.92382 0
M  V30 4246 H 378.956 2.98958 -2.77648 0
M  V30 4247 H 377.631 2.14663 -3.5622 0
M  V30 4248 H 376.208 3.1345 -2.01999 0
M  V30 4249 N 378.394 1.34581 0.820102 0
M  V30 4250 C 379.304 1.28471 1.96297 0
M  V30 4251 C 380.32 0.191902 1.72939 0
M  V30 4252 O 381.496 0.418879 1.96996 0
M  V30 4253 C 378.561 1.04281 3.30645 0
M  V30 4254 C 377.622 2.22745 3.66992 0
M  V30 4255 C 376.855 1.997 4.9493 0
M  V30 4256 O 377.078 0.956656 5.6232 0
M  V30 4257 O 376.012 2.86723 5.2922 0
M  V30 4258 H 379.838 2.24624 2.04396 0
M  V30 4259 H 377.423 1.14816 0.955913 0
M  V30 4260 H 379.305 0.925841 4.11104 0
M  V30 4261 H 377.98 0.111697 3.23507 0
M  V30 4262 H 376.887 2.40003 2.86966 0
M  V30 4263 H 378.22 3.14257 3.78819 0
M  V30 4264 N 379.872 -1.04064 1.18357 0
M  V30 4265 C 381.288 -1.2947 0.933258 0
M  V30 4266 C 381.488 -1.97466 -0.401169 0
M  V30 4267 O 380.544 -2.25528 -1.13549 0
M  V30 4268 C 381.857 -2.15337 2.09882 0
M  V30 4269 C 383.405 -2.28683 2.13712 0
M  V30 4270 C 383.88 -3.17917 3.29686 0
M  V30 4271 N 385.371 -3.25504 3.29547 0
M  V30 4272 C 386.106 -3.94706 4.15926 0
M  V30 4273 N 385.602 -4.66239 5.12439 0
M  V30 4274 N 387.395 -3.90986 4.0384 0
M  V30 4275 H 379.546 -0.583359 2.04232 0
M  V30 4276 H 381.809 -0.319921 0.892387 0
M  V30 4277 H 381.515 -1.72682 3.06389 0
M  V30 4278 H 381.389 -3.16015 2.05947 0
M  V30 4279 H 383.776 -2.70575 1.17784 0
M  V30 4280 H 383.857 -1.27596 2.21705 0
M  V30 4281 H 383.501 -2.76736 4.25887 0
M  V30 4282 H 383.431 -4.19036 3.1893 0
M  V30 4283 H 385.922 -2.74547 2.59677 0
M  V30 4284 H 386.235 -5.16638 5.74722 0
M  V30 4285 H 384.58 -4.65143 5.16398 0
M  V30 4286 H 387.771 -3.34234 3.27727 0
M  V30 4287 H 387.944 -4.44646 4.71375 0
M  V30 4288 N 381.35 -0.985608 -1.22978 0
M  V30 4289 C 382.28 -0.549649 -2.26939 0
M  V30 4290 C 383.261 0.419803 -1.64838 0
M  V30 4291 O 384.446 0.31203 -1.91677 0
M  V30 4292 C 381.576 0.143652 -3.47003 0
M  V30 4293 C 380.53 -0.743606 -4.21491 0
M  V30 4294 C 379.856 0.0822027 -5.34637 0
M  V30 4295 C 381.156 -2.03694 -4.80943 0
M  V30 4296 H 382.85 -1.41862 -2.63658 0
M  V30 4297 H 380.396 -0.683571 -1.26741 0
M  V30 4298 H 382.349 0.459985 -4.18882 0
M  V30 4299 H 381.073 1.04711 -3.09359 0
M  V30 4300 H 379.732 -1.04347 -3.51436 0
M  V30 4301 H 379.38 0.986359 -4.93234 0
M  V30 4302 H 379.08 -0.508377 -5.85397 0
M  V30 4303 H 380.604 0.392797 -6.09335 0
M  V30 4304 H 382.018 -1.78504 -5.44802 0
M  V30 4305 H 380.415 -2.57573 -5.42011 0
M  V30 4306 H 381.485 -2.72042 -4.01399 0
M  V30 4307 N 382.828 1.3818 -0.7579 0
M  V30 4308 C 384.074 2.00316 -0.316453 0
M  V30 4309 C 384.407 1.60026 1.10025 0
M  V30 4310 O 383.682 0.839835 1.75434 0
M  V30 4311 C 383.965 3.57349 -0.444245 0
M  V30 4312 C 383.818 4.07591 -1.90236 0
M  V30 4313 C 385.137 4.3981 0.1598 0
M  V30 4314 H 382.256 0.727741 -0.116459 0
M  V30 4315 H 384.898 1.6406 -0.958352 0
M  V30 4316 H 383.048 3.88365 0.102233 0
M  V30 4317 H 384.72 3.87199 -2.50748 0
M  V30 4318 H 382.963 3.60297 -2.41595 0
M  V30 4319 H 383.634 5.16677 -1.94291 0
M  V30 4320 H 386.11 4.14971 -0.306314 0
M  V30 4321 H 384.986 5.48885 0.0401675 0
M  V30 4322 H 385.247 4.24102 1.24859 0
M  V30 4323 N 384.306 0.507319 1.49211 0
M  V30 4324 C 385.555 -0.0368315 2.01666 0
M  V30 4325 C 385.868 -1.37459 1.39156 0
M  V30 4326 O 387.074 -2.00579 1.82976 0
M  V30 4327 C 385.53 -0.116089 3.59713 0
M  V30 4328 C 385.138 1.2154 4.31198 0
M  V30 4329 C 386.882 -0.610268 4.2009 0
M  V30 4330 C 384.789 1.09796 5.81119 0
M  V30 4331 H 383.719 -0.0175376 0.753796 0
M  V30 4332 H 386.37 0.647691 1.71689 0
M  V30 4333 H 384.752 -0.8652 3.86433 0
M  V30 4334 H 385.926 1.9783 4.16173 0
M  V30 4335 H 384.241 1.64352 3.82593 0
M  V30 4336 H 386.838 -0.715742 5.29888 0
M  V30 4337 H 387.181 -1.61064 3.8388 0
M  V30 4338 H 387.714 0.0824916 3.97714 0
M  V30 4339 H 384.453 2.0728 6.21864 0
M  V30 4340 H 383.973 0.376058 5.9862 0
M  V30 4341 H 385.652 0.779281 6.4229 0
M  V30 4342 N 385.784 -1.5574 0.241426 0
M  V30 4343 C 387.012 -2.03208 -0.389134 0
M  V30 4344 C 387.427 -1.12082 -1.51931 0
M  V30 4345 O 386.784 -0.134183 -1.82006 0
M  V30 4346 C 386.835 -3.50064 -0.902087 0
M  V30 4347 O 386.556 -4.37717 0.18305 0
M  V30 4348 C 388.057 -4.13268 -1.60389 0
M  V30 4349 H 385.277 -0.664509 -0.0931053 0
M  V30 4350 H 387.821 -2.0124 0.36369 0
M  V30 4351 H 385.976 -3.52583 -1.60511 0
M  V30 4352 H 386.39 -5.24097 -0.205579 0
M  V30 4353 H 387.864 -5.17733 -1.91458 0
M  V30 4354 H 388.341 -3.59434 -2.52397 0
M  V30 4355 H 388.947 -4.14655 -0.945576 0
M  V30 4356 N 387.262 0.0317525 -1.57568 0
M  V30 4357 C 388.487 0.738664 -1.938 0
M  V30 4358 C 388.912 1.68242 -0.841208 0
M  V30 4359 O 388.27 1.80157 0.203267 0
M  V30 4360 C 388.318 1.47417 -3.29091 0
M  V30 4361 O 387.422 2.5872 -3.2115 0
M  V30 4362 H 386.763 0.198856 -0.633524 0
M  V30 4363 H 389.293 -0.0119713 -2.04596 0
M  V30 4364 H 389.303 1.84468 -3.63917 0
M  V30 4365 H 387.978 0.781988 -4.08482 0
M  V30 4366 H 386.555 2.24231 -2.97951 0
M  V30 4367 N 388.74 1.54641 0.303973 0
M  V30 4368 C 389.65 1.88439 1.39743 0
M  V30 4369 C 390.666 0.778239 1.55626 0
M  V30 4370 O 391.842 1.07442 1.70347 0
M  V30 4371 C 388.907 2.12212 2.74166 0
M  V30 4372 C 387.968 3.35936 2.67293 0
M  V30 4373 C 387.201 3.58566 3.95305 0
M  V30 4374 O 387.424 2.84263 4.9452 0
M  V30 4375 O 386.358 4.52078 3.97378 0
M  V30 4376 H 390.184 2.81458 1.14083 0
M  V30 4377 H 387.769 1.40793 0.499768 0
M  V30 4378 H 389.651 2.29067 3.53704 0
M  V30 4379 H 388.326 1.22379 2.99675 0
M  V30 4380 H 387.233 3.24448 1.86237 0
M  V30 4381 H 388.566 4.2589 2.46736 0
M  V30 4382 N 390.218 -0.567019 1.47046 0
M  V30 4383 C 391.151 -1.69016 1.53326 0
M  V30 4384 C 392.129 -1.57949 0.386126 0
M  V30 4385 O 393.313 -1.78945 0.592529 0
M  V30 4386 C 390.44 -3.07191 1.42658 0
M  V30 4387 C 389.486 -3.36733 2.6175 0
M  V30 4388 S 390.319 -3.27069 4.24012 0
M  V30 4389 C 391.475 -4.67755 4.1588 0
M  V30 4390 H 391.708 -1.63434 2.48348 0
M  V30 4391 H 389.241 -0.747048 1.35124 0
M  V30 4392 H 391.199 -3.86897 1.37191 0
M  V30 4393 H 389.86 -3.10249 0.490369 0
M  V30 4394 H 389.053 -4.37441 2.50323 0
M  V30 4395 H 388.655 -2.64627 2.64289 0
M  V30 4396 H 390.947 -5.58491 3.83529 0
M  V30 4397 H 391.89 -4.84239 5.16641 0
M  V30 4398 H 392.298 -4.45341 3.46889 0
M  V30 4399 N 391.696 -1.35014 -0.812953 0
M  V30 4400 C 392.945 -1.27269 -1.56479 0
M  V30 4401 C 393.258 0.152771 -1.95002 0
M  V30 4402 O 394.464 0.352451 -2.69203 0
M  V30 4403 C 392.92 -2.23159 -2.82362 0
M  V30 4404 C 392.528 -3.71016 -2.511 0
M  V30 4405 C 394.272 -2.24342 -3.60376 0
M  V30 4406 C 392.179 -4.58746 -3.73237 0
M  V30 4407 H 391.109 -0.472829 -0.587324 0
M  V30 4408 H 393.76 -1.6024 -0.894171 0
M  V30 4409 H 392.142 -1.83151 -3.51101 0
M  V30 4410 H 393.316 -4.1962 -1.90409 0
M  V30 4411 H 391.631 -3.72378 -1.86343 0
M  V30 4412 H 394.228 -2.87107 -4.51081 0
M  V30 4413 H 394.571 -1.24542 -3.97234 0
M  V30 4414 H 395.104 -2.62846 -2.98591 0
M  V30 4415 H 391.843 -5.59521 -3.41492 0
M  V30 4416 H 391.363 -4.14871 -4.33176 0
M  V30 4417 H 393.042 -4.73852 -4.40537 0
M  V30 4418 N 393.175 1.03435 -1.18907 0
M  V30 4419 C 394.085 2.15075 -0.937015 0
M  V30 4420 C 395.101 1.73706 0.101085 0
M  V30 4421 O 396.277 2.01232 -0.0822948 0
M  V30 4422 C 393.342 3.43458 -0.473057 0
M  V30 4423 C 392.403 3.99172 -1.57989 0
M  V30 4424 C 391.636 5.21427 -1.13797 0
M  V30 4425 O 391.859 5.704 0.000725941 0
M  V30 4426 O 390.793 5.69837 -1.9383 0
M  V30 4427 H 394.619 2.39198 -1.87131 0
M  V30 4428 H 392.204 1.13506 -0.971427 0
M  V30 4429 H 394.086 4.20811 -0.222702 0
M  V30 4430 H 392.761 3.20793 0.432869 0
M  V30 4431 H 391.668 3.23178 -1.88433 0
M  V30 4432 H 393.001 4.2619 -2.46217 0
M  V30 4433 N 394.653 0.992116 1.22453 0
M  V30 4434 C 395.601 0.534644 2.26372 0
M  V30 4435 C 396.595 -0.414293 1.64256 0
M  V30 4436 O 397.801 -0.286899 1.77699 0
M  V30 4437 H 394.176 0.154502 0.735957 0
M  V30 4438 H 396.147 1.42256 2.62309 0
M  V30 4439 C 394.896 -0.135815 3.47435 0
M  V30 4440 H 394.219 0.585311 3.95492 0
M  V30 4441 H 395.659 -0.419374 4.21921 0
M  V30 4442 C 394.118 -1.37089 3.07747 0
M  V30 4443 O 394.648 -2.46629 3.17076 0
M  V30 4444 N 392.854 -1.24585 2.62539 0
M  V30 4445 H 392.401 -0.354542 2.55149 0
M  V30 4446 H 392.359 -2.07327 2.36353 0
M  V30 4447 N 396.131 -1.37776 0.765217 0
M  V30 4448 C 397.38 -1.99092 0.323307 0
M  V30 4449 C 397.693 -1.61434 -1.10446 0
M  V30 4450 O 398.899 -2.15805 -1.64743 0
M  V30 4451 C 397.355 -3.56019 0.527098 0
M  V30 4452 C 396.963 -4.0262 1.96471 0
M  V30 4453 C 398.707 -4.2424 0.148483 0
M  V30 4454 C 396.614 -5.52233 2.11644 0
M  V30 4455 H 395.544 -0.744846 0.117137 0
M  V30 4456 H 398.195 -1.57391 0.943417 0
M  V30 4457 H 396.577 -3.95667 -0.162372 0
M  V30 4458 H 397.751 -3.74234 2.68859 0
M  V30 4459 H 396.066 -3.47161 2.29931 0
M  V30 4460 H 398.663 -5.34159 0.240456 0
M  V30 4461 H 399.006 -4.06446 -0.900422 0
M  V30 4462 H 399.539 -3.89872 0.79025 0
M  V30 4463 H 396.278 -5.74945 3.1483 0
M  V30 4464 H 395.798 -5.82324 1.4373 0
M  V30 4465 H 397.477 -6.18106 1.91193 0
M  V30 4466 N 397.609 -0.515225 -1.4894 0
M  V30 4467 C 398.541 0.292481 -2.27326 0
M  V30 4468 C 399.554 0.917838 -1.3446 0
M  V30 4469 O 400.743 0.798772 -1.5963 0
M  V30 4470 C 397.843 1.42803 -3.07344 0
M  V30 4471 C 397.016 0.907347 -4.27885 0
M  V30 4472 C 396.075 1.92222 -4.89834 0
M  V30 4473 O 395.101 1.48506 -5.49486 0
M  V30 4474 N 396.303 3.25355 -4.80754 0
M  V30 4475 H 399.068 -0.379721 -2.97285 0
M  V30 4476 H 396.629 -0.348638 -1.58102 0
M  V30 4477 H 398.621 2.10481 -3.45658 0
M  V30 4478 H 397.191 2.00414 -2.39902 0
M  V30 4479 H 396.411 0.0550218 -3.94162 0
M  V30 4480 H 397.699 0.538108 -5.05946 0
M  V30 4481 H 397.097 3.6355 -4.33414 0
M  V30 4482 H 395.654 3.88707 -5.23211 0
M  V30 4483 N 399.087 1.5561 -0.249682 0
M  V30 4484 C 400.312 2.03865 0.381305 0
M  V30 4485 C 400.737 1.12769 1.50548 0
M  V30 4486 O 400.095 0.121189 1.80895 0
M  V30 4487 C 400.143 3.50101 0.863816 0
M  V30 4488 O 399.247 3.62132 1.97318 0
M  V30 4489 H 398.588 0.658827 0.0827194 0
M  V30 4490 H 401.118 2.01105 -0.376552 0
M  V30 4491 H 401.128 3.90975 1.1663 0
M  V30 4492 H 399.803 4.1588 0.0411816 0
M  V30 4493 H 398.38 3.33155 1.67517 0
M  V30 4494 N 400.565 -0.0233959 1.57583 0
M  V30 4495 C 401.811 -0.714119 1.89811 0
M  V30 4496 C 402.144 -1.74702 0.848113 0
M  V30 4497 O 401.419 -1.94023 -0.136135 0
M  V30 4498 C 401.702 -1.37853 3.32669 0
M  V30 4499 C 401.555 -0.358764 4.48367 0
M  V30 4500 C 402.874 -2.31101 3.7454 0
M  V30 4501 H 399.993 -0.25814 0.690314 0
M  V30 4502 H 402.635 0.0230927 1.89986 0
M  V30 4503 H 400.785 -2.00689 3.3265 0
M  V30 4504 H 402.457 0.268115 4.6052 0
M  V30 4505 H 400.7 0.321387 4.32608 0
M  V30 4506 H 401.371 -0.862242 5.45224 0
M  V30 4507 H 403.847 -1.78304 3.75961 0
M  V30 4508 H 402.723 -2.74567 4.75294 0
M  V30 4509 H 402.984 -3.18018 3.0711 0
M  V30 4510 N 402.043 -1.548 -0.295768 0
M  V30 4511 C 402.99 -1.86113 -1.36494 0
M  V30 4512 C 403.96 -0.7105 -1.50137 0
M  V30 4513 O 405.145 -0.959626 -1.64912 0
M  V30 4514 C 402.285 -2.11861 -2.72413 0
M  V30 4515 C 401.398 -3.39471 -2.67177 0
M  V30 4516 C 400.533 -3.55035 -3.95125 0
M  V30 4517 C 399.572 -4.76418 -3.84308 0
M  V30 4518 N 398.709 -4.8876 -5.04042 0
M  V30 4519 H 403.549 -2.77314 -1.09091 0
M  V30 4520 H 401.086 -1.37315 -0.52753 0
M  V30 4521 H 403.044 -2.24786 -3.51464 0
M  V30 4522 H 401.674 -1.2392 -2.98066 0
M  V30 4523 H 400.726 -3.35139 -1.79962 0
M  V30 4524 H 402.038 -4.28646 -2.55076 0
M  V30 4525 H 401.192 -3.67653 -4.82614 0
M  V30 4526 H 399.931 -2.64002 -4.10066 0
M  V30 4527 H 398.936 -4.63827 -2.95202 0
M  V30 4528 H 400.161 -5.68863 -3.70906 0
M  V30 4529 H 398.107 -4.00652 -5.19436 0
M  V30 4530 H 398.024 -5.71945 -4.94384 0
M  V30 4531 H 399.292 -5.0574 -5.93167 0
M  V30 4532 N 403.521 0.559213 -1.47345 0
M  V30 4533 C 404.484 1.64854 -1.59235 0
M  V30 4534 C 405.484 1.53851 -0.467607 0
M  V30 4535 O 406.674 1.58045 -0.732617 0
M  V30 4536 C 403.806 3.04388 -1.53496 0
M  V30 4537 H 404.999 1.55662 -2.56339 0
M  V30 4538 H 402.552 0.778973 -1.35505 0
M  V30 4539 H 403.287 3.19115 -0.577604 0
M  V30 4540 H 403.072 3.13783 -2.35123 0
M  V30 4541 H 404.562 3.83642 -1.6495 0
M  V30 4542 N 404.999 1.35443 0.805782 0
M  V30 4543 C 406.229 1.31687 1.59192 0
M  V30 4544 C 406.637 -0.10756 1.88894 0
M  V30 4545 O 405.98 -1.07017 1.49309 0
M  V30 4546 C 406.042 2.05686 2.94845 0
M  V30 4547 C 405.706 3.54868 2.87954 0
M  V30 4548 C 406.703 4.49444 2.61335 0
M  V30 4549 C 404.388 3.97528 3.07046 0
M  V30 4550 C 406.382 5.84655 2.53885 0
M  V30 4551 C 404.069 5.32833 2.99219 0
M  V30 4552 C 405.067 6.26209 2.72674 0
M  V30 4553 O 404.755 7.59032 2.64811 0
M  V30 4554 H 404.487 0.453878 0.50097 0
M  V30 4555 H 407.041 1.78892 1.0093 0
M  V30 4556 H 405.271 1.5312 3.55093 0
M  V30 4557 H 406.96 1.94998 3.55993 0
M  V30 4558 H 407.726 4.17804 2.46303 0
M  V30 4559 H 403.605 3.25233 3.26718 0
M  V30 4560 H 407.149 6.57508 2.33086 0
M  V30 4561 H 403.046 5.64087 3.13809 0
M  V30 4562 H 403.814 7.68967 2.80413 0
M  V30 4563 N 406.477 -1.02803 1.19454 0
M  V30 4564 C 407.717 -1.77769 1.00883 0
M  V30 4565 C 408.081 -1.86596 -0.45233 0
M  V30 4566 O 409.282 -2.57895 -0.757877 0
M  V30 4567 C 407.553 -3.16486 1.66046 0
M  V30 4568 S 409.112 -4.07632 1.62424 0
M  V30 4569 H 405.93 -0.611949 0.361993 0
M  V30 4570 H 408.532 -1.23175 1.51816 0
M  V30 4571 H 407.236 -3.0768 2.7159 0
M  V30 4572 H 406.767 -3.76156 1.15196 0
M  V30 4573 H 408.782 -4.91937 0.64903 0
M  V30 4574 N 407.956 -0.998596 -1.21925 0
M  V30 4575 C 409.202 -0.688337 -1.91399 0
M  V30 4576 C 409.557 0.771805 -1.76241 0
M  V30 4577 O 408.85 1.55153 -1.1242 0
M  V30 4578 C 409.044 -1.03648 -3.42041 0
M  V30 4579 C 408.873 -2.52892 -3.71855 0
M  V30 4580 C 407.643 -3.19389 -3.91559 0
M  V30 4581 C 409.841 -3.5103 -3.75875 0
M  V30 4582 N 407.823 -4.5805 -4.08734 0
M  V30 4583 C 409.194 -4.75174 -3.98259 0
M  V30 4584 C 411.249 -3.45257 -3.58751 0
M  V30 4585 C 409.952 -5.94247 -4.05294 0
M  V30 4586 C 411.978 -4.63712 -3.67049 0
M  V30 4587 C 411.34 -5.86658 -3.89887 0
M  V30 4588 H 407.439 -0.303251 -0.720807 0
M  V30 4589 H 410.023 -1.27977 -1.46731 0
M  V30 4590 H 408.194 -0.473569 -3.85502 0
M  V30 4591 H 409.926 -0.681619 -3.98919 0
M  V30 4592 H 406.681 -2.69846 -3.89205 0
M  V30 4593 H 407.105 -5.29989 -4.21237 0
M  V30 4594 H 411.747 -2.51215 -3.40075 0
M  V30 4595 H 409.465 -6.88687 -4.22772 0
M  V30 4596 H 413.051 -4.6084 -3.5513 0
M  V30 4597 H 411.931 -6.76786 -3.96144 0
M  V30 4598 N 409.434 1.37368 -0.772513 0
M  V30 4599 C 410.344 2.34053 -0.160081 0
M  V30 4600 C 411.36 1.60216 0.678728 0
M  V30 4601 O 412.536 1.92303 0.59847 0
M  V30 4602 C 409.601 3.3939 0.708182 0
M  V30 4603 C 408.662 4.29048 -0.147172 0
M  V30 4604 C 407.895 5.29354 0.679744 0
M  V30 4605 O 408.118 5.3723 1.91678 0
M  V30 4606 O 407.052 6.01835 0.0885444 0
M  V30 4607 H 410.878 2.88159 -0.959053 0
M  V30 4608 H 408.463 1.39543 -0.533685 0
M  V30 4609 H 410.345 4.03839 1.20384 0
M  V30 4610 H 409.02 2.8761 1.48533 0
M  V30 4611 H 407.927 3.67697 -0.689205 0
M  V30 4612 H 409.26 4.84134 -0.887423 0
M  V30 4613 N 410.912 0.523116 1.48665 0
M  V30 4614 C 411.822 -0.247406 2.33292 0
M  V30 4615 C 412.838 -0.945769 1.46052 0
M  V30 4616 O 414.014 -0.922253 1.79043 0
M  V30 4617 C 411.079 -1.28487 3.22012 0
M  V30 4618 C 410.14 -0.597592 4.2512 0
M  V30 4619 C 409.373 -1.58563 5.09601 0
M  V30 4620 O 409.596 -2.81763 4.95949 0
M  V30 4621 O 408.53 -1.12879 5.91221 0
M  V30 4622 H 412.356 0.445869 3.00409 0
M  V30 4623 H 409.941 0.284128 1.46673 0
M  V30 4624 H 411.823 -1.88459 3.7691 0
M  V30 4625 H 410.498 -1.96068 2.57564 0
M  V30 4626 H 409.405 0.0424407 3.74076 0
M  V30 4627 H 410.738 0.0361517 4.92187 0
M  V30 4628 N 412.39 -1.55475 0.257931 0
M  V30 4629 C 413.353 -2.20551 -0.623706 0
M  V30 4630 C 414.353 -1.17809 -1.09443 0
M  V30 4631 O 415.543 -1.42823 -0.997362 0
M  V30 4632 C 412.675 -2.85784 -1.8585 0
M  V30 4633 H 413.868 -2.99848 -0.0557743 0
M  V30 4634 H 411.421 -1.56298 0.0084422 0
M  V30 4635 H 412.156 -2.10453 -2.46739 0
M  V30 4636 H 411.941 -3.61057 -1.52907 0
M  V30 4637 H 413.431 -3.35553 -2.48584 0
M  V30 4638 N 413.868 0.0150385 -1.57593 0
M  V30 4639 C 414.801 1.04475 -2.0288 0
M  V30 4640 C 415.779 1.3436 -0.915764 0
M  V30 4641 O 416.963 1.46779 -1.18271 0
M  V30 4642 C 414.09 2.37608 -2.41371 0
M  V30 4643 C 413.136 2.23487 -3.63257 0
M  V30 4644 S 413.969 1.57505 -5.11813 0
M  V30 4645 C 415.125 2.921 -5.5356 0
M  V30 4646 H 415.358 0.65907 -2.89903 0
M  V30 4647 H 412.891 0.225452 -1.52745 0
M  V30 4648 H 414.849 3.14165 -2.64217 0
M  V30 4649 H 413.51 2.7332 -1.54775 0
M  V30 4650 H 412.703 3.21802 -3.87891 0
M  V30 4651 H 412.305 1.55074 -3.40335 0
M  V30 4652 H 414.597 3.88419 -5.55101 0
M  V30 4653 H 415.54 2.72184 -6.53698 0
M  V30 4654 H 415.948 2.95318 -4.8109 0
M  V30 4655 N 415.346 1.54954 0.287554 0
M  V30 4656 C 416.256 1.8991 1.37736 0
M  V30 4657 C 417.272 0.794701 1.54792 0
M  V30 4658 O 418.448 1.09243 1.69198 0
M  V30 4659 C 415.513 2.15108 2.71899 0
M  V30 4660 C 414.574 3.38752 2.63715 0
M  V30 4661 C 413.807 3.62739 3.91479 0
M  V30 4662 O 414.03 2.89492 4.91478 0
M  V30 4663 O 412.964 4.56267 3.92561 0
M  V30 4664 H 416.79 2.82652 1.11092 0
M  V30 4665 H 414.375 1.41315 0.484807 0
M  V30 4666 H 416.257 2.32806 3.51254 0
M  V30 4667 H 414.932 1.25551 2.9836 0
M  V30 4668 H 413.839 3.26405 1.82786 0
M  V30 4669 H 415.172 4.28483 2.42205 0
M  V30 4670 N 416.824 -0.551391 1.4764 0
M  V30 4671 C 417.771 -1.65796 1.60563 0
M  V30 4672 C 418.741 -1.59932 0.448428 0
M  V30 4673 O 419.926 -1.78679 0.669222 0
M  V30 4674 C 417.066 -3.04108 1.63133 0
M  V30 4675 C 416.179 -3.20365 2.89811 0
M  V30 4676 C 415.314 -4.49109 2.8368 0
M  V30 4677 C 414.353 -4.58819 4.05156 0
M  V30 4678 N 413.49 -5.78926 3.97227 0
M  V30 4679 H 418.33 -1.54088 2.5507 0
M  V30 4680 H 415.867 -0.75052 1.26513 0
M  V30 4681 H 417.825 -3.84207 1.62606 0
M  V30 4682 H 416.455 -3.14637 0.721341 0
M  V30 4683 H 415.507 -2.33659 3.00179 0
M  V30 4684 H 416.819 -3.23402 3.79753 0
M  V30 4685 H 415.973 -5.37475 2.81434 0
M  V30 4686 H 414.712 -4.4856 1.91431 0
M  V30 4687 H 413.717 -3.68864 4.077 0
M  V30 4688 H 414.942 -4.61124 4.98539 0
M  V30 4689 H 412.888 -5.79314 3.07785 0
M  V30 4690 H 412.805 -5.83367 4.80853 0
M  V30 4691 H 414.073 -6.69637 3.99007 0
M  V30 4692 N 418.302 -1.35869 -0.798587 0
M  V30 4693 C 419.235 -1.23801 -1.91699 0
M  V30 4694 C 420.213 -0.124143 -1.62125 0
M  V30 4695 O 421.397 -0.293656 -1.86199 0
M  V30 4696 C 418.524 -0.908063 -3.263 0
M  V30 4697 C 417.57 -2.0351 -3.74815 0
M  V30 4698 S 418.403 -3.65183 -3.91665 0
M  V30 4699 C 419.559 -3.34283 -5.29156 0
M  V30 4700 H 419.792 -2.18466 -2.01643 0
M  V30 4701 H 417.325 -1.21178 -0.956833 0
M  V30 4702 H 419.283 -0.724506 -4.04056 0
M  V30 4703 H 417.944 0.0206584 -3.14093 0
M  V30 4704 H 417.137 -1.75858 -4.72324 0
M  V30 4705 H 416.739 -2.1774 -3.04081 0
M  V30 4706 H 419.031 -2.87607 -6.13424 0
M  V30 4707 H 419.974 -4.31022 -5.61806 0
M  V30 4708 H 420.382 -2.69854 -4.95822 0
M  V30 4709 N 419.78 1.02168 -1.19998 0
M  V30 4710 C 421.029 1.75091 -1.0013 0
M  V30 4711 C 421.342 1.89923 0.467835 0
M  V30 4712 O 422.548 2.59888 0.785515 0
M  V30 4713 C 421.004 3.14892 -1.74273 0
M  V30 4714 C 420.612 3.0809 -3.25245 0
M  V30 4715 C 422.356 3.9206 -1.62755 0
M  V30 4716 C 420.263 4.42867 -3.91948 0
M  V30 4717 H 419.193 0.656394 -0.37103 0
M  V30 4718 H 421.844 1.14284 -1.43567 0
M  V30 4719 H 420.226 3.7621 -1.2362 0
M  V30 4720 H 421.4 2.5611 -3.83072 0
M  V30 4721 H 419.715 2.44416 -3.3712 0
M  V30 4722 H 422.312 4.91764 -2.09934 0
M  V30 4723 H 422.655 4.12199 -0.582894 0
M  V30 4724 H 423.188 3.37359 -2.10793 0
M  V30 4725 H 419.927 4.27931 -4.96543 0
M  V30 4726 H 419.447 4.94874 -3.3891 0
M  V30 4727 H 421.126 5.11728 -3.95909 0
M  V30 4728 N 421.258 1.00505 1.21394 0
M  V30 4729 C 422.168 0.574806 2.27449 0
M  V30 4730 C 423.184 -0.382206 1.6975 0
M  V30 4731 O 424.36 -0.246027 1.99892 0
M  V30 4732 C 421.425 -0.0917414 3.46579 0
M  V30 4733 C 420.486 0.909758 4.1955 0
M  V30 4734 C 419.719 0.274924 5.32991 0
M  V30 4735 O 419.942 -0.928254 5.62796 0
M  V30 4736 O 418.876 0.985877 5.93771 0
M  V30 4737 H 422.702 1.45744 2.66444 0
M  V30 4738 H 420.287 0.773923 1.27792 0
M  V30 4739 H 422.169 -0.464551 4.18832 0
M  V30 4740 H 420.844 -0.948755 3.09484 0
M  V30 4741 H 419.751 1.33372 3.49518 0
M  V30 4742 H 421.084 1.73636 4.60555 0
M  V30 4743 N 422.737 -1.36956 0.779787 0
M  V30 4744 C 423.685 -2.32053 0.15942 0
M  V30 4745 C 424.679 -1.55333 -0.675878 0
M  V30 4746 O 425.885 -1.70668 -0.57204 0
M  V30 4747 H 422.26 -0.751286 0.0327707 0
M  V30 4748 H 424.231 -2.8195 0.977078 0
M  V30 4749 C 422.98 -3.40602 -0.698977 0
M  V30 4750 H 422.303 -3.99746 -0.0655966 0
M  V30 4751 H 423.743 -4.09486 -1.09989 0
M  V30 4752 C 422.202 -2.81359 -1.85307 0
M  V30 4753 O 422.732 -2.72751 -2.94906 0
M  V30 4754 N 420.938 -2.38786 -1.65619 0
M  V30 4755 H 420.485 -2.45987 -0.764725 0
M  V30 4756 H 420.443 -1.99493 -2.43002 0
M  V30 4757 N 424.215 -0.530993 -1.48385 0
M  V30 4758 C 425.145 0.219985 -2.32461 0
M  V30 4759 C 426.126 0.934111 -1.42156 0
M  V30 4760 O 427.311 0.919694 -1.71042 0
M  V30 4761 C 424.441 1.26674 -3.23375 0
M  V30 4762 C 423.395 0.67069 -4.22712 0
M  V30 4763 C 422.721 1.82017 -5.02766 0
M  V30 4764 C 424.021 -0.358268 -5.2107 0
M  V30 4765 H 425.715 -0.48187 -2.95497 0
M  V30 4766 H 423.261 -0.233182 -1.42099 0
M  V30 4767 H 425.214 1.80006 -3.81019 0
M  V30 4768 H 423.938 1.99818 -2.58341 0
M  V30 4769 H 422.597 0.158878 -3.66256 0
M  V30 4770 H 422.245 2.54002 -4.34157 0
M  V30 4771 H 421.945 1.42727 -5.70003 0
M  V30 4772 H 423.469 2.35725 -5.63264 0
M  V30 4773 H 424.883 0.0880081 -5.73232 0
M  V30 4774 H 423.28 -0.66861 -5.96364 0
M  V30 4775 H 424.35 -1.26367 -4.68145 0
M  V30 4776 N 425.693 1.55336 -0.266172 0
M  V30 4777 C 427.109 1.59356 0.0882065 0
M  V30 4778 C 427.309 1.2834 1.55342 0
M  V30 4779 O 426.365 1.03996 2.30089 0
M  V30 4780 C 427.678 2.99409 -0.278364 0
M  V30 4781 C 429.226 3.12196 -0.224243 0
M  V30 4782 C 429.701 4.545 -0.565123 0
M  V30 4783 N 431.192 4.60313 -0.51634 0
M  V30 4784 C 431.927 5.68434 -0.753013 0
M  V30 4785 N 431.423 6.84738 -1.05383 0
M  V30 4786 N 433.216 5.57942 -0.682414 0
M  V30 4787 H 425.367 1.73764 -1.22147 0
M  V30 4788 H 427.63 0.809822 -0.492841 0
M  V30 4789 H 427.336 3.2691 -1.29703 0
M  V30 4790 H 427.21 3.75228 0.385186 0
M  V30 4791 H 429.597 2.84464 0.78512 0
M  V30 4792 H 429.678 2.38609 -0.921922 0
M  V30 4793 H 429.322 4.82956 -1.57213 0
M  V30 4794 H 429.252 5.26374 0.154248 0
M  V30 4795 H 431.743 3.7676 -0.29335 0
M  V30 4796 H 432.056 7.63088 -1.22133 0
M  V30 4797 H 430.401 6.86375 -1.09151 0
M  V30 4798 H 433.592 4.65958 -0.44731 0
M  V30 4799 H 433.765 6.4213 -0.870248 0
M  V30 4800 N 427.171 -0.0066808 1.57599 0
M  V30 4801 C 428.103 -1.02827 2.04839 0
M  V30 4802 C 429.116 -1.31108 0.965113 0
M  V30 4803 O 430.305 -1.28202 1.24203 0
M  V30 4804 C 427.405 -2.36464 2.42771 0
M  V30 4805 C 426.578 -2.27219 3.73751 0
M  V30 4806 C 425.637 -3.43489 3.98625 0
M  V30 4807 O 424.663 -3.21976 4.69382 0
M  V30 4808 N 425.865 -4.66116 3.46 0
M  V30 4809 H 428.63 -0.625455 2.93101 0
M  V30 4810 H 426.191 -0.194198 1.60731 0
M  V30 4811 H 428.183 -3.13008 2.56531 0
M  V30 4812 H 426.753 -2.68512 1.60063 0
M  V30 4813 H 425.973 -1.35629 3.70133 0
M  V30 4814 H 427.261 -2.18208 4.59633 0
M  V30 4815 H 426.659 -4.86493 2.88688 0
M  V30 4816 H 425.216 -5.39949 3.65101 0
M  V30 4817 N 428.649 -1.55105 -0.279332 0
M  V30 4818 C 429.877 -1.7943 -1.03017 0
M  V30 4819 C 430.292 -0.564456 -1.80165 0
M  V30 4820 O 429.649 0.466326 -1.76442 0
M  V30 4821 C 429.7 -3.0155 -1.99374 0
M  V30 4822 O 429.421 -4.19784 -1.25352 0
M  V30 4823 C 430.922 -3.3843 -2.86321 0
M  V30 4824 H 428.142 -0.597882 -0.304594 0
M  V30 4825 H 430.686 -2.02105 -0.312035 0
M  V30 4826 H 428.841 -2.81019 -2.66659 0
M  V30 4827 H 429.255 -4.88781 -1.90246 0
M  V30 4828 H 430.729 -4.27066 -3.49741 0
M  V30 4829 H 431.206 -2.57549 -3.5576 0
M  V30 4830 H 431.812 -3.61197 -2.24536 0
M  V30 4831 N 430.127 0.543554 -1.4793 0
M  V30 4832 C 431.037 1.67657 -1.64098 0
M  V30 4833 C 432.053 1.65934 -0.523622 0
M  V30 4834 O 433.229 1.85133 -0.792943 0
M  V30 4835 C 430.294 3.04146 -1.66421 0
M  V30 4836 C 429.355 3.16831 -2.89684 0
M  V30 4837 C 428.588 4.46809 -2.91886 0
M  V30 4838 O 428.811 5.33095 -2.02895 0
M  V30 4839 O 427.745 4.63573 -3.83906 0
M  V30 4840 H 431.571 1.56957 -2.59997 0
M  V30 4841 H 429.156 0.715116 -1.31173 0
M  V30 4842 H 431.038 3.85346 -1.70548 0
M  V30 4843 H 429.713 3.152 -0.736923 0
M  V30 4844 H 428.62 2.34977 -2.91095 0
M  V30 4845 H 429.953 3.10687 -3.81752 0
M  V30 4846 N 431.605 1.3629 0.791371 0
M  V30 4847 C 432.535 1.33137 1.91825 0
M  V30 4848 C 433.516 0.203168 1.68882 0
M  V30 4849 O 434.701 0.400509 1.90025 0
M  V30 4850 C 431.831 1.11793 3.28816 0
M  V30 4851 C 430.785 2.21417 3.66277 0
M  V30 4852 C 430.111 1.85218 5.01596 0
M  V30 4853 C 431.411 3.63489 3.75064 0
M  V30 4854 H 433.105 2.2743 1.9472 0
M  V30 4855 H 430.651 1.09479 0.935437 0
M  V30 4856 H 432.604 1.08222 4.07266 0
M  V30 4857 H 431.328 0.139501 3.26302 0
M  V30 4858 H 429.987 2.2411 2.90121 0
M  V30 4859 H 429.635 0.859544 4.95602 0
M  V30 4860 H 429.335 2.58611 5.27631 0
M  V30 4861 H 430.859 1.832 5.82469 0
M  V30 4862 H 432.273 3.63034 4.43711 0
M  V30 4863 H 430.67 4.35771 4.12582 0
M  V30 4864 H 431.74 3.98536 2.76219 0
M  V30 4865 N 433.083 -1.0153 1.20538 0
M  V30 4866 C 434.03 -2.10098 0.955383 0
M  V30 4867 C 435 -1.65702 -0.114878 0
M  V30 4868 O 436.185 -1.90776 0.0301118 0
M  V30 4869 C 433.325 -3.41236 0.514969 0
M  V30 4870 C 432.438 -3.99102 1.65353 0
M  V30 4871 C 431.573 -5.18306 1.16329 0
M  V30 4872 C 430.612 -5.68258 2.27485 0
M  V30 4873 N 429.749 -6.78722 1.7967 0
M  V30 4874 H 434.589 -2.30818 1.88486 0
M  V30 4875 H 432.126 -1.13189 0.939499 0
M  V30 4876 H 434.084 -4.16504 0.240935 0
M  V30 4877 H 432.714 -3.20585 -0.377512 0
M  V30 4878 H 431.766 -3.20918 2.04245 0
M  V30 4879 H 433.078 -4.32177 2.49047 0
M  V30 4880 H 432.232 -6.00782 0.845302 0
M  V30 4881 H 430.971 -4.86799 0.296254 0
M  V30 4882 H 429.976 -4.84385 2.60099 0
M  V30 4883 H 431.201 -6.01798 3.14667 0
M  V30 4884 H 429.147 -6.49042 0.95295 0
M  V30 4885 H 429.064 -7.10996 2.56944 0
M  V30 4886 H 430.332 -7.64759 1.50875 0
M  V30 4887 N 434.561 -1.01147 -1.20859 0
M  V30 4888 C 435.491 -0.597663 -2.25722 0
M  V30 4889 C 436.472 0.384744 -1.65692 0
M  V30 4890 O 437.657 0.271303 -1.92296 0
M  V30 4891 C 434.787 0.0700149 -3.47229 0
M  V30 4892 C 433.741 -0.832843 -4.19819 0
M  V30 4893 C 433.067 -0.0312202 -5.34691 0
M  V30 4894 C 434.367 -2.1385 -4.76514 0
M  V30 4895 H 436.061 -1.47423 -2.60589 0
M  V30 4896 H 433.607 -0.710301 -1.25263 0
M  V30 4897 H 435.56 0.37103 -4.19763 0
M  V30 4898 H 434.284 0.981259 -3.11511 0
M  V30 4899 H 432.943 -1.11778 -3.49144 0
M  V30 4900 H 432.591 0.881515 -4.95215 0
M  V30 4901 H 432.291 -0.632434 -5.84187 0
M  V30 4902 H 433.815 0.26346 -6.10031 0
M  V30 4903 H 435.229 -1.9002 -5.40893 0
M  V30 4904 H 433.626 -2.69012 -5.36426 0
M  V30 4905 H 434.696 -2.80495 -3.95538 0
M  V30 4906 N 436.039 1.36541 -0.78704 0
M  V30 4907 C 437.267 2.03561 -0.370199 0
M  V30 4908 C 437.682 1.59347 1.01263 0
M  V30 4909 O 437.039 0.781781 1.64907 0
M  V30 4910 C 437.09 3.59033 -0.421614 0
M  V30 4911 O 436.811 4.01634 -1.7499 0
M  V30 4912 C 438.312 4.433 0.00489763 0
M  V30 4913 H 435.532 0.653346 -0.152904 0
M  V30 4914 H 438.076 1.74566 -1.06522 0
M  V30 4915 H 436.231 3.86746 0.224971 0
M  V30 4916 H 436.645 4.96217 -1.69909 0
M  V30 4917 H 438.119 5.51939 -0.0822184 0
M  V30 4918 H 438.596 4.26285 1.05723 0
M  V30 4919 H 439.202 4.20843 -0.614085 0
M  V30 4920 N 437.518 0.538854 1.48102 0
M  V30 4921 C 438.934 0.19732 1.58376 0
M  V30 4922 C 439.134 -1.29971 1.5398 0
M  V30 4923 O 438.19 -2.07861 1.43352 0
M  V30 4924 C 439.503 0.807716 2.89649 0
M  V30 4925 C 441.051 0.77726 3.03196 0
M  V30 4926 C 441.526 1.36639 4.37143 0
M  V30 4927 N 443.017 1.32875 4.43732 0
M  V30 4928 C 443.752 1.7544 5.45901 0
M  V30 4929 N 443.248 2.25776 6.54979 0
M  V30 4930 N 445.041 1.66623 5.36836 0
M  V30 4931 H 437.192 1.5117 1.49202 0
M  V30 4932 H 439.455 0.629327 0.708979 0
M  V30 4933 H 439.161 1.85909 2.98548 0
M  V30 4934 H 439.035 0.289975 3.76084 0
M  V30 4935 H 441.422 -0.265374 2.93904 0
M  V30 4936 H 441.503 1.33256 2.18349 0
M  V30 4937 H 441.147 2.408 4.47189 0
M  V30 4938 H 441.077 0.786689 5.20691 0
M  V30 4939 H 443.568 0.96037 3.65493 0
M  V30 4940 H 443.881 2.56226 7.29087 0
M  V30 4941 H 442.226 2.29775 6.55918 0
M  V30 4942 H 445.417 1.27089 4.50517 0
M  V30 4943 H 445.59 2.00115 6.16326 0
M  V30 4944 N 438.996 -1.55193 0.274407 0
M  V30 4945 C 439.943 -2.225 -0.613374 0
M  V30 4946 C 440.913 -1.19823 -1.15029 0
M  V30 4947 O 442.098 -1.48362 -1.19973 0
M  V30 4948 C 439.238 -2.94927 -1.79199 0
M  V30 4949 C 438.351 -4.12322 -1.28899 0
M  V30 4950 C 437.486 -4.72394 -2.42934 0
M  V30 4951 C 436.525 -5.81984 -1.89634 0
M  V30 4952 N 435.662 -6.36123 -2.9714 0
M  V30 4953 H 440.502 -2.97982 -0.032756 0
M  V30 4954 H 438.039 -1.47099 -0.00440146 0
M  V30 4955 H 439.997 -3.35134 -2.48478 0
M  V30 4956 H 438.627 -2.2187 -2.34465 0
M  V30 4957 H 437.679 -3.7724 -0.489327 0
M  V30 4958 H 438.991 -4.91355 -0.858587 0
M  V30 4959 H 438.145 -5.15317 -3.20208 0
M  V30 4960 H 436.884 -3.92636 -2.8929 0
M  V30 4961 H 435.889 -5.38511 -1.1084 0
M  V30 4962 H 437.114 -6.6361 -1.44215 0
M  V30 4963 H 435.06 -5.59259 -3.42878 0
M  V30 4964 H 434.977 -7.10427 -2.58515 0
M  V30 4965 H 436.245 -6.83704 -3.74391 0
M  V30 4966 N 440.474 -0.00167713 -1.576 0
M  V30 4967 C 441.437 0.974046 -2.07473 0
M  V30 4968 C 442.437 1.27143 -0.984444 0
M  V30 4969 O 443.627 1.21633 -1.24703 0
M  V30 4970 C 440.759 2.29849 -2.51759 0
M  V30 4971 H 441.952 0.54262 -2.9495 0
M  V30 4972 H 439.505 0.245829 -1.54355 0
M  V30 4973 H 440.24 2.77677 -1.67529 0
M  V30 4974 H 440.025 2.09584 -3.31386 0
M  V30 4975 H 441.515 2.9984 -2.90664 0
M  V30 4976 N 441.952 1.55251 0.271103 0
M  V30 4977 C 442.915 1.87484 1.31842 0
M  V30 4978 C 443.915 0.749545 1.42262 0
M  V30 4979 O 445.105 1.01771 1.4138 0
M  V30 4980 C 442.237 2.0818 2.69951 0
M  V30 4981 H 443.43 2.81108 1.0449 0
M  V30 4982 H 440.983 1.47771 0.509258 0
M  V30 4983 H 441.718 1.16944 3.02481 0
M  V30 4984 H 441.503 2.90114 2.63774 0
M  V30 4985 H 442.993 2.34385 3.4562 0
M  V30 4986 N 443.43 -0.535701 1.48216 0
M  V30 4987 C 444.66 -1.3148 1.59363 0
M  V30 4988 C 445.068 -1.8753 0.250844 0
M  V30 4989 O 444.411 -1.66821 -0.769174 0
M  V30 4990 C 444.473 -2.50731 2.57632 0
M  V30 4991 C 444.137 -2.15811 4.02833 0
M  V30 4992 C 445.134 -1.71822 4.90686 0
M  V30 4993 C 442.819 -2.26509 4.48329 0
M  V30 4994 C 444.813 -1.3899 6.22062 0
M  V30 4995 C 442.5 -1.93289 5.79726 0
M  V30 4996 C 443.498 -1.49599 6.66415 0
M  V30 4997 O 443.186 -1.16812 7.95368 0
M  V30 4998 H 442.918 -0.406315 0.540263 0
M  V30 4999 H 445.472 -0.653569 1.94725 0
M  V30 5000 H 443.702 -3.19817 2.1738 0
M  V30 5001 H 445.391 -3.12797 2.58675 0
M  V30 5002 H 446.157 -1.63031 4.56778 0
M  V30 5003 H 442.036 -2.59471 3.81045 0
M  V30 5004 H 445.58 -1.04816 6.89681 0
M  V30 5005 H 441.477 -2.01718 6.13172 0
M  V30 5006 H 442.245 -1.30259 8.08069 0
M  V30 5007 N 444.908 -1.36708 -0.784132 0
M  V30 5008 C 446.154 -1.31426 -1.54451 0
M  V30 5009 C 446.487 0.10476 -1.93917 0
M  V30 5010 O 445.762 1.05934 -1.6312 0
M  V30 5011 C 446.045 -2.24189 -2.818 0
M  V30 5012 C 445.898 -3.74813 -2.48667 0
M  V30 5013 C 447.217 -2.15626 -3.83658 0
M  V30 5014 H 444.336 -0.478739 -0.560337 0
M  V30 5015 H 446.978 -1.67305 -0.900498 0
M  V30 5016 H 445.128 -1.93722 -3.36755 0
M  V30 5017 H 446.8 -4.15823 -1.99722 0
M  V30 5018 H 445.043 -3.93989 -1.81535 0
M  V30 5019 H 445.714 -4.35138 -3.39646 0
M  V30 5020 H 448.19 -2.42456 -3.38163 0
M  V30 5021 H 447.066 -2.82694 -4.70506 0
M  V30 5022 H 447.327 -1.14522 -4.27009 0
M  V30 5023 N 446.386 1.0089 -1.21074 0
M  V30 5024 C 447.802 1.2695 -0.967257 0
M  V30 5025 C 448.002 1.9846 0.348673 0
M  V30 5026 O 447.058 2.28459 1.0753 0
M  V30 5027 C 448.371 2.09697 -2.15517 0
M  V30 5028 C 449.919 2.22937 -2.197 0
M  V30 5029 C 450.394 3.09064 -3.37999 0
M  V30 5030 N 451.885 3.16653 -3.38061 0
M  V30 5031 C 452.62 3.8354 -4.26245 0
M  V30 5032 N 452.116 4.52488 -5.2462 0
M  V30 5033 N 453.909 3.80141 -4.14064 0
M  V30 5034 H 446.06 0.529005 -2.05707 0
M  V30 5035 H 448.323 0.296148 -0.900556 0
M  V30 5036 H 448.029 1.64497 -3.10859 0
M  V30 5037 H 447.903 3.10444 -2.14253 0
M  V30 5038 H 450.29 2.67357 -1.24916 0
M  V30 5039 H 450.371 1.21673 -2.2501 0
M  V30 5040 H 450.015 2.65347 -4.33074 0
M  V30 5041 H 449.945 4.10433 -3.29928 0
M  V30 5042 H 452.436 2.67566 -2.66865 0
M  V30 5043 H 452.749 5.01219 -5.88217 0
M  V30 5044 H 451.094 4.51288 -5.28549 0
M  V30 5045 H 454.285 3.25427 -3.36474 0
M  V30 5046 H 454.458 4.31992 -4.82998 0
M  V30 5047 N 447.864 1.01787 1.20321 0
M  V30 5048 C 449.094 0.72614 1.93419 0
M  V30 5049 C 449.502 -0.717317 1.75075 0
M  V30 5050 O 448.845 -1.49836 1.06278 0
M  V30 5051 C 448.907 0.983621 3.45782 0
M  V30 5052 C 448.571 2.41645 3.87888 0
M  V30 5053 C 449.568 3.39732 3.93545 0
M  V30 5054 C 447.253 2.75752 4.19841 0
M  V30 5055 C 449.247 4.69988 4.30569 0
M  V30 5056 C 446.934 4.06221 4.56539 0
M  V30 5057 C 447.932 5.0315 4.61876 0
M  V30 5058 O 447.62 6.31284 4.97731 0
M  V30 5059 H 447.352 0.265824 0.621541 0
M  V30 5060 H 449.906 1.3623 1.53722 0
M  V30 5061 H 448.136 0.290301 3.85609 0
M  V30 5062 H 449.825 0.683279 4.00108 0
M  V30 5063 H 450.591 3.14718 3.69022 0
M  V30 5064 H 446.47 2.00993 4.14877 0
M  V30 5065 H 450.014 5.45642 4.3465 0
M  V30 5066 H 445.911 4.31013 4.80518 0
M  V30 5067 H 446.679 6.35591 5.15719 0
M  V30 5068 N 449.342 -1.36122 0.79427 0
M  V30 5069 C 450.589 -1.99111 0.368905 0
M  V30 5070 C 450.917 -1.63032 -1.0607 0
M  V30 5071 O 450.172 -0.879303 -1.74833 0
M  V30 5072 C 450.471 -3.5409 0.48527 0
M  V30 5073 C 450.137 -4.10003 1.87638 0
M  V30 5074 C 448.799 -4.24986 2.257 0
M  V30 5075 C 451.151 -4.40423 2.78706 0
M  V30 5076 C 448.479 -4.67701 3.54221 0
M  V30 5077 C 450.831 -4.84573 4.0666 0
M  V30 5078 C 449.495 -4.97761 4.44737 0
M  V30 5079 H 448.765 -0.7286 0.134992 0
M  V30 5080 H 451.412 -1.62534 1.01267 0
M  V30 5081 H 449.717 -3.91052 -0.241984 0
M  V30 5082 H 451.414 -4.00766 0.137109 0
M  V30 5083 H 448.004 -3.98784 1.57064 0
M  V30 5084 H 452.188 -4.28412 2.50553 0
M  V30 5085 H 447.444 -4.761 3.83587 0
M  V30 5086 H 451.618 -5.07074 4.77336 0
M  V30 5087 H 449.245 -5.30618 5.44379 0
M  V30 5088 N 450.82 -0.546701 -1.47814 0
M  V30 5089 C 451.768 0.220048 -2.31557 0
M  V30 5090 C 452.762 0.919472 -1.42275 0
M  V30 5091 O 453.968 0.841953 -1.59095 0
M  V30 5092 H 450.343 0.0898334 -0.746615 0
M  V30 5093 H 452.314 -0.505589 -2.94086 0
M  V30 5094 C 451.063 1.24353 -3.24702 0
M  V30 5095 H 450.386 0.714758 -3.93359 0
M  V30 5096 H 451.826 1.75112 -3.8615 0
M  V30 5097 C 450.285 2.28593 -2.47481 0
M  V30 5098 O 450.815 3.35334 -2.21165 0
M  V30 5099 N 449.021 2.02244 -2.08676 0
M  V30 5100 H 448.568 1.15455 -2.30278 0
M  V30 5101 H 448.526 2.72207 -1.57323 0
M  V30 5102 N 452.299 1.55045 -0.282633 0
M  V30 5103 C 453.524 2.04628 0.337977 0
M  V30 5104 C 453.949 1.15937 1.48123 0
M  V30 5105 O 453.307 0.159532 1.80597 0
M  V30 5106 C 453.355 3.51854 0.78936 0
M  V30 5107 O 452.459 3.66236 1.89592 0
M  V30 5108 H 451.8 0.660434 0.0687261 0
M  V30 5109 H 454.33 2.00261 -0.419124 0
M  V30 5110 H 454.34 3.93361 1.08311 0
M  V30 5111 H 453.015 4.15873 -0.0470419 0
M  V30 5112 H 451.592 3.36633 1.60413 0
M  V30 5113 N 453.777 0.010035 1.57597 0
M  V30 5114 C 455.002 -0.687021 1.95691 0
M  V30 5115 C 455.427 -1.65952 0.885519 0
M  V30 5116 O 454.785 -1.80633 -0.15543 0
M  V30 5117 C 454.833 -1.3864 3.32884 0
M  V30 5118 O 453.937 -2.50115 3.27897 0
M  V30 5119 H 453.278 -0.181989 0.638573 0
M  V30 5120 H 455.808 0.0662122 2.04493 0
M  V30 5121 H 455.818 -1.74754 3.6868 0
M  V30 5122 H 454.493 -0.673411 4.10412 0
M  V30 5123 H 453.07 -2.16253 3.03791 0
M  V30 5124 N 455.255 -1.55392 -0.262866 0
M  V30 5125 C 456.218 -1.88181 -1.30846 0
M  V30 5126 C 457.218 -0.757079 -1.41862 0
M  V30 5127 O 458.408 -1.02519 -1.40838 0
M  V30 5128 C 455.54 -2.09609 -2.68844 0
M  V30 5129 H 456.733 -2.81659 -1.02997 0
M  V30 5130 H 454.286 -1.48039 -0.501414 0
M  V30 5131 H 455.021 -1.18547 -3.01856 0
M  V30 5132 H 454.806 -2.91508 -2.62231 0
M  V30 5133 H 456.296 -2.36215 -3.44372 0
M  V30 5134 N 456.733 0.527833 -1.48498 0
M  V30 5135 C 457.98 1.28354 -1.56625 0
M  V30 5136 C 458.308 1.93 -0.241096 0
M  V30 5137 O 457.563 1.79967 0.768798 0
M  V30 5138 C 457.862 2.39275 -2.65485 0
M  V30 5139 C 457.528 1.92268 -4.07853 0
M  V30 5140 C 456.19 1.79166 -4.46602 0
M  V30 5141 C 458.542 1.56771 -4.97064 0
M  V30 5142 C 455.87 1.28905 -5.72364 0
M  V30 5143 C 458.222 1.07972 -6.23318 0
M  V30 5144 C 456.886 0.934887 -6.60921 0
M  V30 5145 H 456.156 0.469682 -0.573131 0
M  V30 5146 H 458.803 0.588781 -1.82224 0
M  V30 5147 H 457.108 3.1443 -2.33754 0
M  V30 5148 H 458.805 2.974 -2.68988 0
M  V30 5149 H 455.395 2.03417 -3.77252 0
M  V30 5150 H 459.579 1.65753 -4.67803 0
M  V30 5151 H 454.835 1.16381 -6.00221 0
M  V30 5152 H 459.009 0.795775 -6.91838 0
M  V30 5153 H 456.636 0.543231 -7.58257 0
M  V30 5154 N 458.211 1.37122 0.776871 0
M  V30 5155 C 459.458 1.32047 1.53524 0
M  V30 5156 C 459.786 -0.0965631 1.9426 0
M  V30 5157 O 459.041 -1.06866 1.63945 0
M  V30 5158 C 459.34 2.20068 2.81611 0
M  V30 5159 C 459.006 3.68423 2.59953 0
M  V30 5160 C 457.668 4.08854 2.53755 0
M  V30 5161 C 460.02 4.62431 2.40431 0
M  V30 5162 C 457.348 5.41417 2.26018 0
M  V30 5163 C 459.7 5.95225 2.14219 0
M  V30 5164 C 458.364 6.34767 2.06462 0
M  V30 5165 H 457.634 0.483196 0.561785 0
M  V30 5166 H 460.281 1.69284 0.895268 0
M  V30 5167 H 458.586 1.75809 3.50141 0
M  V30 5168 H 460.283 2.13458 3.39465 0
M  V30 5169 H 456.873 3.36354 2.65638 0
M  V30 5170 H 461.057 4.32057 2.44213 0
M  V30 5171 H 456.313 5.71022 2.18504 0
M  V30 5172 H 460.487 6.67626 1.98112 0
M  V30 5173 H 458.114 7.37413 1.84733 0
M  V30 5174 N 459.689 -1.00246 1.21608 0
M  V30 5175 C 460.936 -1.74061 1.03485 0
M  V30 5176 C 461.264 -1.89658 -0.431308 0
M  V30 5177 O 460.519 -1.42976 -1.33627 0
M  V30 5178 C 460.818 -3.15448 1.68009 0
M  V30 5179 C 460.484 -3.19792 3.17874 0
M  V30 5180 C 459.146 -3.20685 3.58768 0
M  V30 5181 C 461.498 -3.16835 4.13842 0
M  V30 5182 C 458.826 -3.16309 4.94131 0
M  V30 5183 C 461.178 -3.14001 5.49169 0
M  V30 5184 C 459.842 -3.13204 5.89457 0
M  V30 5185 H 459.112 -0.636934 0.378677 0
M  V30 5186 H 461.759 -1.17473 1.51236 0
M  V30 5187 H 460.064 -3.75284 1.12557 0
M  V30 5188 H 461.761 -3.71285 1.51487 0
M  V30 5189 H 458.351 -3.19842 2.85305 0
M  V30 5190 H 462.535 -3.15303 3.83272 0
M  V30 5191 H 457.791 -3.14032 5.24589 0
M  V30 5192 H 461.965 -3.10667 6.23265 0
M  V30 5193 H 459.592 -3.09568 6.94314 0
M  V30 5194 N 461.167 -1.02423 -1.1978 0
M  V30 5195 C 462.392 -0.7373 -1.93852 0
M  V30 5196 C 462.817 0.696923 -1.74713 0
M  V30 5197 O 462.175 1.48056 -1.04638 0
M  V30 5198 C 462.223 -1.08783 -3.438 0
M  V30 5199 O 461.327 -0.20383 -4.11896 0
M  V30 5200 H 460.668 -0.27284 -0.605355 0
M  V30 5201 H 463.198 -1.36966 -1.51992 0
M  V30 5202 H 463.208 -1.04276 -3.9445 0
M  V30 5203 H 461.883 -2.13274 -3.57053 0
M  V30 5204 H 460.46 -0.307091 -3.71633 0
M  V30 5205 N 462.645 1.35699 -0.801477 0
M  V30 5206 C 463.893 1.9852 -0.37871 0
M  V30 5207 C 464.214 1.63907 1.05638 0
M  V30 5208 O 463.484 0.919013 1.73006 0
M  V30 5209 H 462.064 0.734322 -0.137042 0
M  V30 5210 H 464.726 1.65697 -1.02619 0
M  V30 5211 H 463.822 3.08382 -0.480284 0
M  V30 5212 N 464.123 0.554532 1.47522 0
M  V30 5213 C 465.37 0.029479 2.02479 0
M  V30 5214 C 465.698 -1.31929 1.42916 0
M  V30 5215 O 464.953 -1.87112 0.573385 0
M  V30 5216 C 465.252 -0.115927 3.57212 0
M  V30 5217 C 464.918 1.16161 4.3568 0
M  V30 5218 C 463.58 1.51168 4.56839 0
M  V30 5219 C 465.932 2.0083 4.80954 0
M  V30 5220 C 463.26 2.70696 5.2052 0
M  V30 5221 C 465.612 3.19559 5.45953 0
M  V30 5222 C 464.276 3.54882 5.65345 0
M  V30 5223 H 463.546 0.0107871 0.740921 0
M  V30 5224 H 466.193 0.725506 1.77225 0
M  V30 5225 H 464.498 -0.894902 3.81443 0
M  V30 5226 H 466.195 -0.53749 3.97381 0
M  V30 5227 H 462.785 0.879026 4.19489 0
M  V30 5228 H 466.969 1.75093 4.64388 0
M  V30 5229 H 462.225 2.98236 5.33728 0
M  V30 5230 H 466.399 3.85456 5.79997 0
M  V30 5231 H 464.026 4.47596 6.1446 0
M  V30 5232 N 465.601 -1.54893 0.290851 0
M  V30 5233 C 466.848 -1.99933 -0.321391 0
M  V30 5234 C 467.176 -1.17927 -1.54672 0
M  V30 5235 O 466.431 -0.240902 -1.94212 0
M  V30 5236 C 466.73 -3.49815 -0.732397 0
M  V30 5237 C 466.396 -4.4921 0.390056 0
M  V30 5238 C 465.058 -4.76107 0.698223 0
M  V30 5239 C 467.41 -5.08453 1.14562 0
M  V30 5240 C 464.738 -5.59514 1.76526 0
M  V30 5241 C 467.09 -5.9302 2.2025 0
M  V30 5242 C 465.754 -6.18232 2.51684 0
M  V30 5243 H 465.024 -0.731608 -0.117605 0
M  V30 5244 H 467.671 -1.87107 0.407839 0
M  V30 5245 H 465.976 -3.60199 -1.54155 0
M  V30 5246 H 467.673 -3.82083 -1.21712 0
M  V30 5247 H 464.263 -4.28372 0.13976 0
M  V30 5248 H 468.447 -4.87683 0.920801 0
M  V30 5249 H 463.703 -5.77289 2.01364 0
M  V30 5250 H 467.877 -6.37955 2.7926 0
M  V30 5251 H 465.504 -6.82653 3.34499 0
M  V30 5252 N 467.08 -0.0183926 -1.57589 0
M  V30 5253 C 468.326 0.663543 -1.91638 0
M  V30 5254 C 468.659 1.72392 -0.894134 0
M  V30 5255 O 467.934 1.94316 0.0846449 0
M  V30 5256 C 468.217 1.28984 -3.36207 0
M  V30 5257 C 468.07 0.239761 -4.49161 0
M  V30 5258 C 469.389 2.2109 -3.80536 0
M  V30 5259 H 466.508 0.239746 -0.696915 0
M  V30 5260 H 469.15 -0.073456 -1.89858 0
M  V30 5261 H 467.3 1.91799 -3.37854 0
M  V30 5262 H 468.972 -0.390119 -4.59647 0
M  V30 5263 H 467.215 -0.435972 -4.31604 0
M  V30 5264 H 467.886 0.717383 -5.47319 0
M  V30 5265 H 470.362 1.68273 -3.80557 0
M  V30 5266 H 469.238 2.61869 -4.82406 0
M  V30 5267 H 469.499 3.09764 -3.15434 0
M  V30 5268 N 468.558 1.5553 0.254621 0
M  V30 5269 C 469.804 1.77262 0.985193 0
M  V30 5270 C 470.137 0.582286 1.85265 0
M  V30 5271 O 469.412 -0.419666 1.89919 0
M  V30 5272 C 469.695 3.0881 1.85225 0
M  V30 5273 C 469.548 4.38233 1.0135 0
M  V30 5274 C 470.867 3.3653 2.83612 0
M  V30 5275 H 467.986 0.644906 0.356742 0
M  V30 5276 H 470.628 1.88264 0.256236 0
M  V30 5277 H 468.778 2.99562 2.47376 0
M  V30 5278 H 470.45 4.59463 0.411269 0
M  V30 5279 H 468.693 4.32636 0.317574 0
M  V30 5280 H 469.364 5.26644 1.65379 0
M  V30 5281 H 471.84 3.45691 2.31596 0
M  V30 5282 H 470.716 4.29805 3.41407 0
M  V30 5283 H 470.977 2.57064 3.59681 0
M  V30 5284 N 470.036 -0.519951 1.48776 0
M  V30 5285 C 471.283 -1.27522 1.57303 0
M  V30 5286 C 471.611 -1.92869 0.251328 0
M  V30 5287 O 470.866 -1.80372 -0.759243 0
M  V30 5288 C 471.165 -2.37864 2.6675 0
M  V30 5289 C 470.831 -1.90103 4.08867 0
M  V30 5290 C 469.493 -1.76795 4.47546 0
M  V30 5291 C 471.845 -1.54133 4.97888 0
M  V30 5292 C 469.173 -1.25868 5.73039 0
M  V30 5293 C 471.525 -1.04665 6.23881 0
M  V30 5294 C 470.189 -0.899823 6.61407 0
M  V30 5295 H 469.459 -0.466636 0.575614 0
M  V30 5296 H 472.106 -0.579109 1.82534 0
M  V30 5297 H 470.411 -3.13186 2.35418 0
M  V30 5298 H 472.108 -2.95969 2.70561 0
M  V30 5299 H 468.698 -2.01414 3.78326 0
M  V30 5300 H 472.882 -1.6327 4.68675 0
M  V30 5301 H 468.138 -1.13196 6.0083 0
M  V30 5302 H 472.312 -0.759074 6.92251 0
M  V30 5303 H 469.939 -0.503011 7.58534 0
M  V30 5304 N 471.514 -1.37532 -0.769588 0
M  V30 5305 C 472.444 -1.36172 -1.89682 0
M  V30 5306 C 473.425 -0.23001 -1.68538 0
M  V30 5307 O 474.61 -0.43069 -1.89364 0
M  V30 5308 C 471.74 -1.1701 -3.26995 0
M  V30 5309 C 470.694 -2.27216 -3.62708 0
M  V30 5310 C 470.02 -1.93174 -4.98586 0
M  V30 5311 C 471.32 -3.6941 -3.69234 0
M  V30 5312 H 473.014 -2.30499 -1.91078 0
M  V30 5313 H 470.56 -1.10953 -0.917902 0
M  V30 5314 H 472.513 -1.14688 -4.05493 0
M  V30 5315 H 471.237 -0.191395 -3.26039 0
M  V30 5316 H 469.896 -2.28697 -2.86519 0
M  V30 5317 H 469.544 -0.938281 -4.94171 0
M  V30 5318 H 469.244 -2.66973 -5.23449 0
M  V30 5319 H 470.768 -1.92443 -5.79481 0
M  V30 5320 H 472.182 -3.70047 -4.37879 0
M  V30 5321 H 470.579 -4.4228 -4.05597 0
M  V30 5322 H 471.649 -4.0288 -2.69844 0
M  V30 5323 N 472.992 0.995999 -1.22138 0
M  V30 5324 C 474.217 1.77601 -1.0711 0
M  V30 5325 C 474.642 1.84339 0.374264 0
M  V30 5326 O 474 1.29359 1.27028 0
M  V30 5327 C 474.048 3.18897 -1.68336 0
M  V30 5328 O 473.152 4.01663 -0.934928 0
M  V30 5329 H 472.493 0.547011 -0.376397 0
M  V30 5330 H 475.023 1.25137 -1.6187 0
M  V30 5331 H 475.033 3.69539 -1.72931 0
M  V30 5332 H 473.708 3.13308 -2.73516 0
M  V30 5333 H 472.285 3.60204 -0.964751 0
M  V30 5334 N 474.47 1.03057 1.19235 0
M  V30 5335 C 475.716 0.729098 1.89241 0
M  V30 5336 C 476.049 -0.740573 1.79525 0
M  V30 5337 O 475.324 -1.53946 1.18874 0
M  V30 5338 C 475.607 1.18304 3.40112 0
M  V30 5339 C 475.46 2.71406 3.5869 0
M  V30 5340 C 476.779 0.765161 4.33397 0
M  V30 5341 H 473.898 0.266338 0.687192 0
M  V30 5342 H 476.54 1.28079 1.40341 0
M  V30 5343 H 474.69 0.713672 3.81889 0
M  V30 5344 H 476.362 3.26303 3.26074 0
M  V30 5345 H 474.605 3.11717 3.01687 0
M  V30 5346 H 475.276 2.98225 4.64506 0
M  V30 5347 H 477.752 1.16889 3.99345 0
M  V30 5348 H 476.628 1.11065 5.37546 0
M  V30 5349 H 476.889 -0.332372 4.40849 0
M  V30 5350 N 475.948 -1.35272 0.808662 0
M  V30 5351 C 476.878 -2.32315 0.234981 0
M  V30 5352 C 477.859 -1.57572 -0.64071 0
M  V30 5353 O 479.044 -1.8563 -0.570551 0
M  V30 5354 C 476.174 -3.41801 -0.615601 0
M  V30 5355 C 475.128 -4.27694 0.161767 0
M  V30 5356 C 474.454 -5.28519 -0.810649 0
M  V30 5357 C 475.754 -5.04231 1.36193 0
M  V30 5358 H 477.448 -2.80543 1.04575 0
M  V30 5359 H 474.994 -1.3488 0.504315 0
M  V30 5360 H 476.947 -4.08693 -1.02702 0
M  V30 5361 H 475.671 -2.92186 -1.45928 0
M  V30 5362 H 474.33 -3.62384 0.554382 0
M  V30 5363 H 473.978 -4.75171 -1.64988 0
M  V30 5364 H 473.678 -5.8686 -0.294822 0
M  V30 5365 H 475.202 -5.98283 -1.22023 0
M  V30 5366 H 476.616 -5.64058 1.02528 0
M  V30 5367 H 475.013 -5.72077 1.81239 0
M  V30 5368 H 476.083 -4.34753 2.14751 0
M  V30 5369 N 477.426 -0.562348 -1.47226 0
M  V30 5370 C 478.837 -0.130325 -1.86245 0
M  V30 5371 C 479.188 1.30128 -1.46838 0
M  V30 5372 O 478.313 1.97974 -0.873805 0
M  V30 5373 C 478.908 -0.229738 -3.3802 0
M  V30 5374 C 477.467 0.14728 -3.76112 0
M  V30 5375 C 476.614 -0.574971 -2.71274 0
M  V30 5376 H 479.565 -0.771773 -1.3867 0
M  V30 5377 H 479.586 0.550316 -3.76499 0
M  V30 5378 H 479.098 -1.27178 -3.66671 0
M  V30 5379 H 477.199 1.19023 -3.53078 0
M  V30 5380 H 477.312 -0.214858 -4.78618 0
M  V30 5381 H 475.676 -0.0174756 -2.54694 0
M  V30 5382 H 476.459 -1.61827 -3.02766 0
M  V30 5383 N 478.904 1.54736 -0.299062 0
M  V30 5384 C 480.134 2.04215 0.312992 0
M  V30 5385 C 480.542 1.17596 1.48215 0
M  V30 5386 O 479.885 0.193835 1.82674 0
M  V30 5387 C 479.947 3.49696 0.833862 0
M  V30 5388 C 479.611 4.56518 -0.20977 0
M  V30 5389 C 480.608 5.09442 -1.03756 0
M  V30 5390 C 478.293 5.01073 -0.35091 0
M  V30 5391 C 480.287 6.05459 -1.99244 0
M  V30 5392 C 477.974 5.9691 -1.30924 0
M  V30 5393 C 478.972 6.48987 -2.1285 0
M  V30 5394 O 478.66 7.42947 -3.07059 0
M  V30 5395 H 478.392 0.672128 0.0722494 0
M  V30 5396 H 480.946 2.00718 -0.436043 0
M  V30 5397 H 479.176 3.5051 1.63339 0
M  V30 5398 H 480.865 3.82381 1.36159 0
M  V30 5399 H 481.631 4.75816 -0.939376 0
M  V30 5400 H 477.51 4.60168 0.276813 0
M  V30 5401 H 481.054 6.46031 -2.63229 0
M  V30 5402 H 476.951 6.29953 -1.40815 0
M  V30 5403 H 477.719 7.60743 -3.02015 0
M  V30 5404 N 480.382 0.0267497 1.57577 0
M  V30 5405 C 481.345 -0.940916 2.08996 0
M  V30 5406 C 482.345 -1.25561 1.00455 0
M  V30 5407 O 483.535 -1.19634 1.26623 0
M  V30 5408 C 480.667 -2.25814 2.55384 0
M  V30 5409 H 481.86 -0.495628 2.95776 0
M  V30 5410 H 479.413 -0.221241 1.54726 0
M  V30 5411 H 480.148 -2.74976 1.71926 0
M  V30 5412 H 479.933 -2.04285 3.34679 0
M  V30 5413 H 481.423 -2.95178 2.95398 0
M  V30 5414 N 481.861 -1.55662 -0.24637 0
M  V30 5415 C 482.791 -1.93377 -1.30873 0
M  V30 5416 C 483.772 -0.798773 -1.50179 0
M  V30 5417 O 484.957 -1.0591 -1.62778 0
M  V30 5418 C 482.087 -2.22893 -2.66338 0
M  V30 5419 C 481.041 -3.38649 -2.61727 0
M  V30 5420 C 480.367 -3.53708 -4.00992 0
M  V30 5421 C 481.667 -4.74323 -2.18666 0
M  V30 5422 H 483.361 -2.82363 -0.995552 0
M  V30 5423 H 480.907 -1.35854 -0.477464 0
M  V30 5424 H 482.86 -2.47866 -3.40794 0
M  V30 5425 H 481.584 -1.30733 -2.99293 0
M  V30 5426 H 480.243 -3.13685 -1.89729 0
M  V30 5427 H 479.891 -2.58967 -4.31214 0
M  V30 5428 H 479.591 -4.31551 -3.98795 0
M  V30 5429 H 481.115 -3.81003 -4.77147 0
M  V30 5430 H 482.529 -4.98665 -2.82854 0
M  V30 5431 H 480.926 -5.55273 -2.27579 0
M  V30 5432 H 481.996 -4.71349 -1.13834 0
M  V30 5433 N 483.339 0.512053 -1.4905 0
M  V30 5434 C 484.588 1.26343 -1.57227 0
M  V30 5435 C 484.901 1.93876 -0.259155 0
M  V30 5436 O 486.107 2.70612 -0.219358 0
M  V30 5437 C 484.563 2.29343 -2.77362 0
M  V30 5438 C 484.171 1.67799 -4.15388 0
M  V30 5439 C 485.915 3.05378 -2.94864 0
M  V30 5440 C 483.822 2.68845 -5.2676 0
M  V30 5441 H 482.752 0.475231 -0.585382 0
M  V30 5442 H 485.403 0.53862 -1.75417 0
M  V30 5443 H 483.785 3.04938 -2.52643 0
M  V30 5444 H 484.959 0.982715 -4.50199 0
M  V30 5445 H 483.274 1.04194 -4.03153 0
M  V30 5446 H 485.871 3.80921 -3.75238 0
M  V30 5447 H 486.214 3.62327 -2.05 0
M  V30 5448 H 486.747 2.36898 -3.19569 0
M  V30 5449 H 483.486 2.16692 -6.18647 0
M  V30 5450 H 483.006 3.36647 -4.96416 0
M  V30 5451 H 484.685 3.31487 -5.5563 0
M  V30 5452 N 484.817 1.37938 0.762283 0
M  V30 5453 C 485.764 1.34467 1.87583 0
M  V30 5454 C 486.734 0.208633 1.64785 0
M  V30 5455 O 487.919 0.399494 1.86571 0
M  V30 5456 C 485.059 1.16692 3.24772 0
M  V30 5457 C 484.172 2.39608 3.59461 0
M  V30 5458 C 483.307 2.14631 4.85908 0
M  V30 5459 C 482.346 3.33364 5.13357 0
M  V30 5460 N 481.483 3.07877 6.30996 0
M  V30 5461 H 486.323 2.29669 1.89885 0
M  V30 5462 H 483.86 1.14116 0.928219 0
M  V30 5463 H 485.818 1.04405 4.03925 0
M  V30 5464 H 484.448 0.251333 3.2182 0
M  V30 5465 H 483.5 2.626 2.75219 0
M  V30 5466 H 484.812 3.28128 3.75678 0
M  V30 5467 H 483.966 1.99429 5.72986 0
M  V30 5468 H 482.705 1.23463 4.71814 0
M  V30 5469 H 481.71 3.49094 4.24751 0
M  V30 5470 H 482.935 4.25395 5.29354 0
M  V30 5471 H 480.881 2.19348 6.18241 0
M  V30 5472 H 480.798 3.89944 6.47673 0
M  V30 5473 H 482.066 2.96313 7.20985 0
M  V30 5474 N 486.295 -0.989507 1.22664 0
M  V30 5475 C 487.543 -1.72612 1.05117 0
M  V30 5476 C 487.864 -1.90552 -0.414131 0
M  V30 5477 O 487.134 -1.4676 -1.29762 0
M  V30 5478 H 485.714 -0.639555 0.385977 0
M  V30 5479 H 488.376 -1.19158 1.54232 0
M  V30 5480 H 487.472 -2.71926 1.53175 0
M  V30 5481 N 487.773 -1.03688 -1.18687 0
M  V30 5482 C 489.022 -0.733235 -1.879 0
M  V30 5483 C 489.335 0.741745 -1.8099 0
M  V30 5484 O 490.541 1.15875 -2.4553 0
M  V30 5485 C 488.997 -1.26127 -3.37076 0
M  V30 5486 C 488.605 -2.76461 -3.52524 0
M  V30 5487 C 490.349 -1.03398 -4.11715 0
M  V30 5488 C 488.256 -3.22642 -4.95637 0
M  V30 5489 H 487.186 -0.270584 -0.703776 0
M  V30 5490 H 489.837 -1.25222 -1.34133 0
M  V30 5491 H 488.219 -0.670165 -3.90288 0
M  V30 5492 H 489.393 -3.41296 -3.09602 0
M  V30 5493 H 487.708 -2.97559 -2.91286 0
M  V30 5494 H 490.305 -1.3542 -5.17267 0
M  V30 5495 H 490.648 0.0289246 -4.1629 0
M  V30 5496 H 491.181 -1.5895 -3.64664 0
M  V30 5497 H 487.92 -4.28296 -4.96228 0
M  V30 5498 H 487.44 -2.62539 -5.39289 0
M  V30 5499 H 489.119 -3.16444 -5.64333 0
M  V30 5500 N 489.251 1.34841 -0.815825 0
M  V30 5501 C 490.5 1.97755 -0.396976 0
M  V30 5502 C 490.813 1.65422 1.04379 0
M  V30 5503 O 492.019 2.21771 1.5662 0
M  V30 5504 C 490.475 3.53818 -0.658869 0
M  V30 5505 C 490.083 3.95051 -2.11278 0
M  V30 5506 C 491.827 4.23397 -0.305834 0
M  V30 5507 C 489.734 5.43997 -2.31994 0
M  V30 5508 H 488.664 0.739985 -0.1447 0
M  V30 5509 H 491.315 1.53781 -1.00118 0
M  V30 5510 H 489.697 3.95997 0.0154112 0
M  V30 5511 H 490.871 3.63998 -2.82564 0
M  V30 5512 H 489.186 3.38388 -2.42657 0
M  V30 5513 H 491.783 5.32899 -0.43854 0
M  V30 5514 H 492.126 4.09508 0.748952 0
M  V30 5515 H 492.659 3.8667 -0.934403 0
M  V30 5516 H 489.398 5.62865 -3.35952 0
M  V30 5517 H 488.918 5.76589 -1.65244 0
M  V30 5518 H 490.597 6.10584 -2.14001 0
M  V30 5519 N 490.729 0.570148 1.46925 0
M  V30 5520 C 491.659 -0.158274 2.32963 0
M  V30 5521 C 492.64 -0.896093 1.44583 0
M  V30 5522 O 493.825 -0.874022 1.7342 0
M  V30 5523 C 490.955 -1.18055 3.26619 0
M  V30 5524 C 489.909 -0.558379 4.24342 0
M  V30 5525 C 489.235 -1.68623 5.07415 0
M  V30 5526 C 490.535 0.496295 5.19937 0
M  V30 5527 H 492.229 0.560046 2.94115 0
M  V30 5528 H 489.775 0.270775 1.41431 0
M  V30 5529 H 491.728 -1.69841 3.85658 0
M  V30 5530 H 490.452 -1.92899 2.63548 0
M  V30 5531 H 489.111 -0.0617157 3.66548 0
M  V30 5532 H 488.759 -2.42402 4.40738 0
M  V30 5533 H 488.459 -1.27564 5.73586 0
M  V30 5534 H 489.983 -2.20709 5.69315 0
M  V30 5535 H 491.397 0.0640052 5.73264 0
M  V30 5536 H 489.794 0.82649 5.94381 0
M  V30 5537 H 490.864 1.38735 4.6463 0
M  V30 5538 N 492.207 -1.54576 0.307264 0
M  V30 5539 C 493.623 -1.59534 -0.0459251 0
M  V30 5540 C 493.823 -1.32414 -1.51884 0
M  V30 5541 O 492.879 -1.1006 -2.27251 0
M  V30 5542 C 494.192 -2.98566 0.357649 0
M  V30 5543 C 495.74 -3.11491 0.306937 0
M  V30 5544 C 496.215 -4.52842 0.685427 0
M  V30 5545 N 497.706 -4.58782 0.638203 0
M  V30 5546 C 498.441 -5.66238 0.903458 0
M  V30 5547 N 497.937 -6.81703 1.23501 0
M  V30 5548 N 499.73 -5.55937 0.830102 0
M  V30 5549 H 491.881 -1.70464 1.26712 0
M  V30 5550 H 494.144 -0.79647 0.514139 0
M  V30 5551 H 493.85 -3.23356 1.38325 0
M  V30 5552 H 493.724 -3.76117 -0.285565 0
M  V30 5553 H 496.111 -2.86446 -0.709424 0
M  V30 5554 H 496.192 -2.36081 0.984861 0
M  V30 5555 H 495.836 -4.78618 1.69963 0
M  V30 5556 H 495.766 -5.26598 -0.0146346 0
M  V30 5557 H 498.257 -3.75849 0.393138 0
M  V30 5558 H 498.57 -7.59582 1.42322 0
M  V30 5559 H 496.915 -6.8324 1.27311 0
M  V30 5560 H 500.106 -4.64608 0.570693 0
M  V30 5561 H 500.279 -6.39597 1.04019 0
M  V30 5562 N 493.685 -0.035106 -1.57561 0
M  V30 5563 C 494.632 0.94474 -2.10578 0
M  V30 5564 C 495.602 1.3192 -1.00927 0
M  V30 5565 O 496.787 1.41147 -1.28382 0
M  V30 5566 C 493.927 2.21982 -2.64231 0
M  V30 5567 C 493.04 1.90128 -3.87911 0
M  V30 5568 C 492.175 3.11975 -4.29936 0
M  V30 5569 C 491.214 2.75968 -5.46359 0
M  V30 5570 N 490.351 3.90459 -5.83512 0
M  V30 5571 H 495.191 0.485717 -2.94015 0
M  V30 5572 H 492.728 0.228143 -1.4532 0
M  V30 5573 H 494.686 2.96572 -2.9343 0
M  V30 5574 H 493.316 2.6549 -1.83616 0
M  V30 5575 H 492.368 1.05755 -3.65404 0
M  V30 5576 H 493.68 1.59613 -4.72573 0
M  V30 5577 H 492.834 3.9488 -4.60603 0
M  V30 5578 H 491.573 3.45657 -3.44053 0
M  V30 5579 H 490.578 1.91478 -5.1538 0
M  V30 5580 H 491.803 2.43497 -6.33945 0
M  V30 5581 H 489.749 4.23971 -5.00584 0
M  V30 5582 H 489.666 3.63588 -6.62827 0
M  V30 5583 H 490.934 4.7405 -6.18787 0
M  V30 5584 N 495.163 1.55791 0.238111 0
M  V30 5585 C 496.412 1.77234 0.962868 0
M  V30 5586 C 496.725 0.600661 1.86149 0
M  V30 5587 O 497.931 0.698315 2.62366 0
M  V30 5588 C 496.387 3.13808 1.76218 0
M  V30 5589 C 495.995 4.3865 0.910518 0
M  V30 5590 C 497.739 3.44585 2.47914 0
M  V30 5591 C 495.646 5.66252 1.70623 0
M  V30 5592 H 494.576 0.660731 0.36325 0
M  V30 5593 H 497.227 1.8221 0.217242 0
M  V30 5594 H 495.609 3.02963 2.55009 0
M  V30 5595 H 496.783 4.60507 0.164316 0
M  V30 5596 H 495.098 4.15271 0.30647 0
M  V30 5597 H 497.695 4.3714 3.07917 0
M  V30 5598 H 498.038 2.66314 3.19973 0
M  V30 5599 H 498.571 3.56685 1.76127 0
M  V30 5600 H 495.31 6.47369 1.02923 0
M  V30 5601 H 494.83 5.48483 2.42748 0
M  V30 5602 H 496.509 6.05829 2.27114 0
M  V30 5603 N 496.642 -0.504142 1.49319 0
M  V30 5604 C 497.889 -1.25846 1.58647 0
M  V30 5605 C 498.217 -1.92592 0.27177 0
M  V30 5606 O 497.472 -1.81167 -0.74007 0
M  V30 5607 C 497.771 -2.35021 2.69258 0
M  V30 5608 C 497.437 -1.85755 4.1086 0
M  V30 5609 C 496.099 -1.72038 4.49395 0
M  V30 5610 C 498.451 -1.48844 4.99495 0
M  V30 5611 C 495.779 -1.19783 5.74342 0
M  V30 5612 C 498.131 -0.980422 6.24956 0
M  V30 5613 C 496.795 -0.829622 6.62324 0
M  V30 5614 H 496.065 -0.460505 0.580531 0
M  V30 5615 H 498.712 -0.559716 1.83138 0
M  V30 5616 H 497.017 -3.10672 2.38726 0
M  V30 5617 H 498.714 -2.93083 2.73685 0
M  V30 5618 H 495.304 -1.9739 3.80441 0
M  V30 5619 H 499.488 -1.5829 4.70381 0
M  V30 5620 H 494.744 -1.06817 6.01997 0
M  V30 5621 H 498.918 -0.685608 6.93017 0
M  V30 5622 H 496.545 -0.42253 7.59025 0
M  V30 5623 N 498.12 -1.38341 -0.754957 0
M  V30 5624 C 499.348 -1.37704 -1.54419 0
M  V30 5625 C 499.763 0.0335243 -1.8877 0
M  V30 5626 O 499.12 0.999773 -1.52679 0
M  V30 5627 C 499.171 -2.23136 -2.84416 0
M  V30 5628 O 498.892 -3.58697 -2.51531 0
M  V30 5629 C 500.393 -2.30664 -3.78562 0
M  V30 5630 H 497.613 -0.471061 -0.477852 0
M  V30 5631 H 500.157 -1.81902 -0.934446 0
M  V30 5632 H 498.312 -1.82403 -3.41772 0
M  V30 5633 H 498.726 -4.03665 -3.34896 0
M  V30 5634 H 500.2 -2.9473 -4.66732 0
M  V30 5635 H 500.677 -1.3199 -4.18898 0
M  V30 5636 H 501.283 -2.71781 -3.27131 0
M  V30 5637 N 499.598 0.982988 -1.23187 0
M  V30 5638 C 500.826 1.75921 -1.08901 0
M  V30 5639 C 501.241 1.85341 0.359719 0
M  V30 5640 O 500.598 1.33072 1.24892 0
M  V30 5641 C 500.649 3.18742 -1.70545 0
M  V30 5642 O 500.37 3.09814 -3.09753 0
M  V30 5643 C 501.871 4.1277 -1.61667 0
M  V30 5644 H 499.091 0.552166 -0.381252 0
M  V30 5645 H 501.635 1.23516 -1.62985 0
M  V30 5646 H 499.79 3.68182 -1.20501 0
M  V30 5647 H 500.204 3.99703 -3.39614 0
M  V30 5648 H 501.678 5.10697 -2.09506 0
M  V30 5649 H 502.155 4.3542 -0.575009 0
M  V30 5650 H 502.761 3.69232 -2.11064 0
M  V30 5651 N 501.076 1.04316 1.18135 0
M  V30 5652 C 502.325 0.74319 1.87509 0
M  V30 5653 C 502.638 -0.732136 1.81381 0
M  V30 5654 O 503.844 -1.14572 2.46141 0
M  V30 5655 C 502.3 1.27913 3.36402 0
M  V30 5656 C 501.908 2.78326 3.51053 0
M  V30 5657 C 503.652 1.0558 4.11161 0
M  V30 5658 C 501.559 3.25266 4.93919 0
M  V30 5659 H 500.489 0.274313 0.702331 0
M  V30 5660 H 503.14 1.25931 1.33467 0
M  V30 5661 H 501.522 0.690853 3.89927 0
M  V30 5662 H 502.696 3.42933 3.07788 0
M  V30 5663 H 501.011 2.991 2.89704 0
M  V30 5664 H 503.608 1.38161 5.16542 0
M  V30 5665 H 503.951 -0.00684729 4.16299 0
M  V30 5666 H 504.484 1.60882 3.63816 0
M  V30 5667 H 501.223 4.30922 4.9395 0
M  V30 5668 H 500.743 2.65396 5.3789 0
M  V30 5669 H 502.422 3.19433 5.62647 0
M  V30 5670 N 502.554 -1.34406 0.822964 0
M  V30 5671 C 503.779 -2.0304 0.423034 0
M  V30 5672 C 504.204 -1.61568 -0.963196 0
M  V30 5673 O 503.562 -0.800339 -1.62678 0
M  V30 5674 C 503.61 -3.56636 0.53321 0
M  V30 5675 O 502.714 -4.09971 -0.446939 0
M  V30 5676 H 502.055 -0.64075 0.174171 0
M  V30 5677 H 504.585 -1.71653 1.11339 0
M  V30 5678 H 504.595 -4.05945 0.408991 0
M  V30 5679 H 503.27 -3.86168 1.54425 0
M  V30 5680 H 501.847 -3.71835 -0.281601 0
M  V30 5681 N 504.032 -0.577932 -1.46621 0
M  V30 5682 C 505.279 -0.0616879 -2.02406 0
M  V30 5683 C 505.607 1.29638 -1.44997 0
M  V30 5684 O 504.862 1.86176 -0.60308 0
M  V30 5685 C 505.161 0.0590832 -3.57351 0
M  V30 5686 C 504.827 -1.23077 -4.33777 0
M  V30 5687 C 503.489 -1.58416 -4.54376 0
M  V30 5688 C 505.841 -2.08457 -4.77698 0
M  V30 5689 C 503.169 -2.78943 -5.16147 0
M  V30 5690 C 505.521 -3.28204 -5.408 0
M  V30 5691 C 504.185 -3.63832 -5.59627 0
M  V30 5692 H 503.455 -0.0225732 -0.740656 0
M  V30 5693 H 506.102 -0.753609 -1.76048 0
M  V30 5694 H 504.407 0.834104 -3.82818 0
M  V30 5695 H 506.104 0.474202 -3.98186 0
M  V30 5696 H 502.694 -0.945652 -4.18038 0
M  V30 5697 H 506.878 -1.82459 -4.61544 0
M  V30 5698 H 502.134 -3.06689 -5.28916 0
M  V30 5699 H 506.308 -3.94634 -5.73792 0
M  V30 5700 H 503.935 -4.57315 -6.07262 0
M  V30 5701 N 505.51 1.54411 -0.315457 0
M  V30 5702 C 506.75 2.02329 0.290236 0
M  V30 5703 C 507.114 1.19878 1.49977 0
M  V30 5704 O 508.315 1.57562 2.17779 0
M  V30 5705 C 506.586 3.51912 0.623937 0
M  V30 5706 S 508.145 4.21775 1.21044 0
M  V30 5707 H 504.963 0.705499 0.0882739 0
M  V30 5708 H 507.565 1.90328 -0.446694 0
M  V30 5709 H 506.269 4.09546 -0.264624 0
M  V30 5710 H 505.8 3.67977 1.39128 0
M  V30 5711 H 507.815 4.28757 2.49764 0
M  V30 5712 N 506.988 0.0434614 1.5754 0
M  V30 5713 C 508.237 -0.631454 1.91561 0
M  V30 5714 C 508.55 -1.72457 0.92292 0
M  V30 5715 O 509.756 -2.45712 1.15489 0
M  V30 5716 C 508.212 -1.17447 3.40197 0
M  V30 5717 C 507.82 -0.113867 4.47855 0
M  V30 5718 C 509.564 -1.82507 3.83264 0
M  V30 5719 C 507.471 -0.669326 5.876 0
M  V30 5720 H 506.401 -0.239629 0.714908 0
M  V30 5721 H 509.052 0.111097 1.83163 0
M  V30 5722 H 507.434 -1.96909 3.43574 0
M  V30 5723 H 508.608 0.659348 4.56058 0
M  V30 5724 H 506.923 0.438821 4.14081 0
M  V30 5725 H 509.52 -2.25047 4.85034 0
M  V30 5726 H 509.863 -2.67365 3.19095 0
M  V30 5727 H 510.396 -1.09712 3.82372 0
M  V30 5728 H 507.135 0.141449 6.55347 0
M  V30 5729 H 506.655 -1.4107 5.82974 0
M  V30 5730 H 508.334 -1.15463 6.36614 0
M  V30 5731 N 508.466 -1.55915 -0.229846 0
M  V30 5732 C 509.712 -1.78807 -0.956868 0
M  V30 5733 C 510.045 -0.611687 -1.84315 0
M  V30 5734 O 509.32 0.389398 -1.90562 0
M  V30 5735 C 509.603 -3.11718 -1.80288 0
M  V30 5736 C 509.456 -4.3979 -0.943649 0
M  V30 5737 C 510.775 -3.40999 -2.78222 0
M  V30 5738 H 507.894 -0.6505 -0.346437 0
M  V30 5739 H 510.536 -1.88648 -0.226252 0
M  V30 5740 H 508.686 -3.03459 -2.42579 0
M  V30 5741 H 510.358 -4.60059 -0.338121 0
M  V30 5742 H 508.601 -4.33086 -0.248705 0
M  V30 5743 H 509.272 -5.29208 -1.5698 0
M  V30 5744 H 511.748 -3.49332 -2.26067 0
M  V30 5745 H 510.624 -4.35183 -3.34526 0
M  V30 5746 H 510.885 -2.62754 -3.55546 0
M  V30 5747 N 509.944 0.496216 -1.49584 0
M  V30 5748 C 510.874 1.60576 -1.69521 0
M  V30 5749 C 511.855 1.61169 -0.543933 0
M  V30 5750 O 513.04 1.77834 -0.78031 0
M  V30 5751 C 510.17 2.99038 -1.76616 0
M  V30 5752 C 509.124 3.13312 -2.91581 0
M  V30 5753 C 508.45 4.53172 -2.83794 0
M  V30 5754 C 509.75 2.92886 -4.32452 0
M  V30 5755 H 511.444 1.44146 -2.62416 0
M  V30 5756 H 508.99 0.692024 -1.26282 0
M  V30 5757 H 510.943 3.76564 -1.8915 0
M  V30 5758 H 509.667 3.16568 -0.80324 0
M  V30 5759 H 508.326 2.38213 -2.78658 0
M  V30 5760 H 507.974 4.67585 -1.854 0
M  V30 5761 H 507.674 4.63662 -3.60958 0
M  V30 5762 H 509.198 5.32752 -2.98342 0
M  V30 5763 H 510.612 3.60178 -4.46032 0
M  V30 5764 H 509.009 3.14844 -5.10875 0
M  V30 5765 H 510.079 1.88966 -4.46565 0
M  V30 5766 N 511.423 1.38739 0.74761 0
M  V30 5767 C 512.839 1.20067 1.05148 0
M  V30 5768 C 513.039 0.0534835 2.01429 0
M  V30 5769 O 512.095 -0.59886 2.45296 0
M  V30 5770 C 513.408 2.52957 1.62584 0
M  V30 5771 C 514.956 2.59692 1.74726 0
M  V30 5772 C 515.431 3.92772 2.35573 0
M  V30 5773 N 516.922 3.94343 2.42997 0
M  V30 5774 C 517.657 4.9408 2.90985 0
M  V30 5775 N 517.153 6.04214 3.38965 0
M  V30 5776 N 518.946 4.81466 2.9008 0
M  V30 5777 H 511.097 2.12121 0.108808 0
M  V30 5778 H 513.36 0.941491 0.110899 0
M  V30 5779 H 513.066 3.37389 0.993051 0
M  V30 5780 H 512.94 2.71779 2.61565 0
M  V30 5781 H 515.327 1.75651 2.3713 0
M  V30 5782 H 515.408 2.44731 0.744326 0
M  V30 5783 H 515.052 4.77238 1.738 0
M  V30 5784 H 514.982 4.05046 3.36519 0
M  V30 5785 H 517.473 3.14799 2.0907 0
M  V30 5786 H 517.786 6.76241 3.74056 0
M  V30 5787 H 516.131 6.07825 3.37007 0
M  V30 5788 H 519.322 3.94535 2.51912 0
M  V30 5789 H 519.495 5.59344 3.27166 0
M  V30 5790 N 512.901 -0.976442 1.23707 0
M  V30 5791 C 513.834 -2.06793 0.964973 0
M  V30 5792 C 514.812 -1.62304 -0.0981472 0
M  V30 5793 O 515.996 -1.88464 0.0369477 0
M  V30 5794 C 513.123 -3.35636 0.454522 0
M  V30 5795 C 512.169 -3.99069 1.50485 0
M  V30 5796 S 513.002 -4.37814 3.0835 0
M  V30 5797 C 514.158 -5.69805 2.58985 0
M  V30 5798 H 514.391 -2.29556 1.88922 0
M  V30 5799 H 511.924 -1.11317 1.06995 0
M  V30 5800 H 513.882 -4.10162 0.166626 0
M  V30 5801 H 512.543 -3.10876 -0.448871 0
M  V30 5802 H 511.736 -4.91896 1.09792 0
M  V30 5803 H 511.338 -3.30938 1.7423 0
M  V30 5804 H 513.63 -6.46919 2.01252 0
M  V30 5805 H 514.573 -6.15345 3.50366 0
M  V30 5806 H 514.981 -5.27994 1.99705 0
M  V30 5807 N 514.379 -1.04941 -1.1758 0
M  V30 5808 C 515.342 -0.652456 -2.19717 0
M  V30 5809 C 516.342 0.294745 -1.58076 0
M  V30 5810 O 517.532 0.0789579 -1.74021 0
M  V30 5811 C 514.664 0.0420712 -3.40874 0
M  V30 5812 H 515.857 -1.55642 -2.5635 0
M  V30 5813 H 513.41 -0.842995 -1.31618 0
M  V30 5814 H 514.145 0.95943 -3.09783 0
M  V30 5815 H 513.93 -0.638844 -3.86861 0
M  V30 5816 H 515.42 0.306 -4.16477 0
M  V30 5817 N 515.857 1.33968 -0.830081 0
M  V30 5818 C 517.103 1.98357 -0.422191 0
M  V30 5819 C 517.436 1.65633 1.01387 0
M  V30 5820 O 516.711 0.931648 1.70735 0
M  V30 5821 C 516.994 3.54492 -0.633043 0
M  V30 5822 C 516.847 3.96934 -2.11574 0
M  V30 5823 C 518.166 4.40039 -0.0735584 0
M  V30 5824 H 515.285 0.720544 -0.154871 0
M  V30 5825 H 517.927 1.58749 -1.04397 0
M  V30 5826 H 516.077 3.88361 -0.103775 0
M  V30 5827 H 517.749 3.73363 -2.7092 0
M  V30 5828 H 515.992 3.46984 -2.60354 0
M  V30 5829 H 516.663 5.05651 -2.21406 0
M  V30 5830 H 519.139 4.12764 -0.52585 0
M  V30 5831 H 518.015 5.48327 -0.250841 0
M  V30 5832 H 518.276 4.30124 1.02202 0
M  V30 5833 N 517.335 0.585699 1.46312 0
M  V30 5834 C 518.563 0.0781299 2.06752 0
M  V30 5835 C 518.978 -1.22812 1.43396 0
M  V30 5836 O 518.335 -1.74318 0.540314 0
M  V30 5837 C 518.386 -0.0911927 3.61385 0
M  V30 5838 O 518.107 1.16336 4.22371 0
M  V30 5839 C 519.608 -0.632765 4.38761 0
M  V30 5840 H 516.828 0.0588188 0.668417 0
M  V30 5841 H 519.372 0.807218 1.87894 0
M  V30 5842 H 517.527 -0.770514 3.7966 0
M  V30 5843 H 517.941 0.979082 5.15281 0
M  V30 5844 H 519.415 -0.70041 5.47538 0
M  V30 5845 H 519.892 -1.65039 4.07012 0
M  V30 5846 H 520.498 0.0117856 4.25298 0
M  V30 5847 N 518.813 -1.54241 0.323641 0
M  V30 5848 C 520.229 -1.59574 -0.0290018 0
M  V30 5849 C 520.429 -1.34017 -1.50472 0
M  V30 5850 O 519.485 -1.12464 -2.26071 0
M  V30 5851 C 520.798 -2.98169 0.389295 0
M  V30 5852 C 522.346 -3.11148 0.339958 0
M  V30 5853 C 522.821 -4.5209 0.733418 0
M  V30 5854 N 524.312 -4.5808 0.686827 0
M  V30 5855 C 525.047 -5.65248 0.963464 0
M  V30 5856 N 524.543 -6.80355 1.30724 0
M  V30 5857 N 526.336 -5.55025 0.88902 0
M  V30 5858 H 518.487 -1.6911 1.28512 0
M  V30 5859 H 520.75 -0.790972 0.522558 0
M  V30 5860 H 520.456 -3.21871 1.41746 0
M  V30 5861 H 520.33 -3.76399 -0.245657 0
M  V30 5862 H 522.717 -2.87182 -0.679002 0
M  V30 5863 H 522.798 -2.35023 1.00985 0
M  V30 5864 H 522.442 -4.76788 1.75029 0
M  V30 5865 H 522.372 -5.26584 0.0412189 0
M  V30 5866 H 524.863 -3.75411 0.43298 0
M  V30 5867 H 525.176 -7.58029 1.5037 0
M  V30 5868 H 523.521 -6.81851 1.3455 0
M  V30 5869 H 526.712 -4.63977 0.619939 0
M  V30 5870 H 526.885 -6.38458 1.10797 0
M  V30 5871 N 520.291 -0.0518155 -1.57515 0
M  V30 5872 C 521.223 0.951542 -2.08515 0
M  V30 5873 C 522.236 1.27436 -1.01311 0
M  V30 5874 O 523.425 1.23504 -1.28876 0
M  V30 5875 C 520.525 2.27291 -2.5138 0
M  V30 5876 C 519.698 2.13191 -3.81927 0
M  V30 5877 C 518.757 3.28458 -4.11098 0
M  V30 5878 O 517.783 3.04334 -4.81009 0
M  V30 5879 N 518.985 4.52954 -3.63061 0
M  V30 5880 H 521.75 0.516242 -2.9522 0
M  V30 5881 H 519.311 0.13441 -1.61341 0
M  V30 5882 H 521.303 3.03272 -2.67971 0
M  V30 5883 H 519.873 2.62386 -1.69919 0
M  V30 5884 H 519.093 1.21798 -3.74912 0
M  V30 5885 H 520.381 2.00999 -4.67415 0
M  V30 5886 H 519.779 4.75444 -3.06545 0
M  V30 5887 H 518.336 5.26026 -3.84889 0
M  V30 5888 N 521.769 1.56035 0.221574 0
M  V30 5889 C 523.016 1.79047 0.94597 0
M  V30 5890 C 523.344 0.62057 1.84334 0
M  V30 5891 O 522.599 -0.395053 1.91671 0
M  V30 5892 C 522.898 3.07813 1.8162 0
M  V30 5893 C 522.564 4.3797 1.07206 0
M  V30 5894 C 521.226 4.73334 0.866508 0
M  V30 5895 C 523.578 5.18326 0.546565 0
M  V30 5896 C 520.906 5.8657 0.123549 0
M  V30 5897 C 523.258 6.32335 -0.18305 0
M  V30 5898 C 521.922 6.66301 -0.399861 0
M  V30 5899 H 521.192 0.655178 0.346155 0
M  V30 5900 H 523.839 1.90299 0.214146 0
M  V30 5901 H 522.144 2.91682 2.61589 0
M  V30 5902 H 523.841 3.2282 2.37884 0
M  V30 5903 H 520.431 4.10202 1.24226 0
M  V30 5904 H 524.615 4.9144 0.692847 0
M  V30 5905 H 519.871 6.11376 -0.0546591 0
M  V30 5906 H 524.045 6.9383 -0.59775 0
M  V30 5907 H 521.672 7.53889 -0.977489 0
M  V30 5908 N 523.247 -0.488276 1.49845 0
M  V30 5909 C 524.658 -1.06955 1.53028 0
M  V30 5910 C 525.009 -1.9351 0.323797 0
M  V30 5911 O 524.134 -2.08891 -0.565116 0
M  V30 5912 C 524.729 -1.94643 2.77307 0
M  V30 5913 C 523.288 -2.4791 2.83227 0
M  V30 5914 C 522.435 -1.25833 2.47106 0
M  V30 5915 H 525.386 -0.271626 1.56358 0
M  V30 5916 H 525.407 -2.79496 2.5819 0
M  V30 5917 H 524.919 -1.31621 3.65099 0
M  V30 5918 H 523.02 -3.14535 1.99745 0
M  V30 5919 H 523.133 -2.84193 3.85709 0
M  V30 5920 H 521.497 -1.58764 1.99163 0
M  V30 5921 H 522.28 -0.644993 3.37186 0
M  V30 5922 N 524.725 -1.39134 -0.740242 0
M  V30 5923 C 525.971 -1.37278 -1.50088 0
M  V30 5924 C 526.326 0.0329967 -1.92372 0
M  V30 5925 O 525.619 0.998447 -1.63529 0
M  V30 5926 C 525.813 -2.27457 -2.75678 0
M  V30 5927 C 525.642 -3.76662 -2.45674 0
M  V30 5928 C 524.412 -4.45617 -2.38229 0
M  V30 5929 C 526.61 -4.6877 -2.11563 0
M  V30 5930 N 524.592 -5.80187 -2.00641 0
M  V30 5931 C 525.963 -5.91951 -1.84376 0
M  V30 5932 C 528.018 -4.56843 -1.97987 0
M  V30 5933 C 526.721 -7.04538 -1.4498 0
M  V30 5934 C 528.747 -5.69347 -1.59994 0
M  V30 5935 C 528.109 -6.91597 -1.33687 0
M  V30 5936 H 524.208 -0.557611 -0.548265 0
M  V30 5937 H 526.792 -1.74638 -0.860784 0
M  V30 5938 H 524.963 -1.92263 -3.37475 0
M  V30 5939 H 526.695 -2.16631 -3.41838 0
M  V30 5940 H 523.45 -3.98993 -2.5515 0
M  V30 5941 H 523.874 -6.51387 -1.84454 0
M  V30 5942 H 528.516 -3.62868 -2.16995 0
M  V30 5943 H 526.234 -7.98419 -1.24712 0
M  V30 5944 H 529.82 -5.62104 -1.50102 0
M  V30 5945 H 528.7 -7.77176 -1.04728 0
M  V30 5946 N 526.204 0.969867 -1.24223 0
M  V30 5947 C 527.167 2.04564 -1.03373 0
M  V30 5948 C 528.167 1.60798 0.00819206 0
M  V30 5949 O 529.357 1.72641 -0.232567 0
M  V30 5950 C 526.489 3.36163 -0.566343 0
M  V30 5951 H 527.682 2.24494 -1.98853 0
M  V30 5952 H 525.235 1.1448 -1.06415 0
M  V30 5953 H 525.97 3.21925 0.391751 0
M  V30 5954 H 525.755 3.69273 -1.31834 0
M  V30 5955 H 527.245 4.1526 -0.441435 0
M  V30 5956 N 527.682 1.05563 1.17022 0
M  V30 5957 C 528.928 0.769074 1.87652 0
M  V30 5958 C 529.261 -0.702326 1.81055 0
M  V30 5959 O 528.536 -1.5139 1.22112 0
M  V30 5960 C 528.819 1.25492 3.37526 0
M  V30 5961 C 528.672 2.78953 3.52853 0
M  V30 5962 C 529.991 0.856919 4.31677 0
M  V30 5963 H 527.11 0.280854 0.681388 0
M  V30 5964 H 529.752 1.31027 1.37593 0
M  V30 5965 H 527.902 0.794516 3.80289 0
M  V30 5966 H 529.574 3.33146 3.19079 0
M  V30 5967 H 527.817 3.18046 2.95007 0
M  V30 5968 H 528.488 3.08011 4.58076 0
M  V30 5969 H 530.964 1.25334 3.96775 0
M  V30 5970 H 529.84 1.22443 5.35069 0
M  V30 5971 H 530.101 -0.238787 4.41455 0
M  V30 5972 N 529.16 -1.33526 0.837174 0
M  V30 5973 C 530.092 -2.28077 0.226579 0
M  V30 5974 C 531.105 -1.51666 -0.591717 0
M  V30 5975 O 532.294 -1.73511 -0.419064 0
M  V30 5976 C 529.394 -3.31597 -0.69978 0
M  V30 5977 C 528.567 -4.37329 0.0788067 0
M  V30 5978 C 527.626 -5.20526 -0.770637 0
M  V30 5979 O 526.652 -5.68811 -0.210453 0
M  V30 5980 N 527.854 -5.41639 -2.08825 0
M  V30 5981 H 530.619 -2.81115 1.03897 0
M  V30 5982 H 528.18 -1.46201 0.695476 0
M  V30 5983 H 530.172 -3.84158 -1.27298 0
M  V30 5984 H 528.742 -2.78848 -1.41288 0
M  V30 5985 H 527.962 -3.8529 0.833381 0
M  V30 5986 H 529.25 -5.05079 0.614238 0
M  V30 5987 H 528.648 -5.04108 -2.56693 0
M  V30 5988 H 527.205 -5.97263 -2.60998 0
M  V30 5989 N 530.638 -0.59345 -1.46 0
M  V30 5990 C 531.866 -0.0890934 -2.06708 0
M  V30 5991 C 532.281 1.2205 -1.44046 0
M  V30 5992 O 531.638 1.74029 -0.549551 0
M  V30 5993 C 531.689 0.0720263 -3.61428 0
M  V30 5994 O 531.41 -1.18574 -4.21748 0
M  V30 5995 C 532.911 0.609487 -4.3909 0
M  V30 5996 H 530.131 -0.0623628 -0.668096 0
M  V30 5997 H 532.675 -0.817171 -1.87464 0
M  V30 5998 H 530.83 0.750369 -3.80063 0
M  V30 5999 H 531.244 -1.0064 -5.14754 0
M  V30 6000 H 532.718 0.671363 -5.47902 0
M  V30 6001 H 533.195 1.62878 -4.07882 0
M  V30 6002 H 533.801 -0.03434 -4.25286 0
M  V30 6003 N 532.116 1.54067 -0.331816 0
M  V30 6004 C 533.362 2.01713 0.261395 0
M  V30 6005 C 533.717 1.21566 1.49129 0
M  V30 6006 O 533.01 0.291867 1.89364 0
M  V30 6007 C 533.204 3.51634 0.639392 0
M  V30 6008 C 533.033 4.46295 -0.552321 0
M  V30 6009 C 531.803 4.94185 -1.05399 0
M  V30 6010 C 534.001 4.94677 -1.40711 0
M  V30 6011 N 531.983 5.7277 -2.20925 0
M  V30 6012 C 533.354 5.71267 -2.40943 0
M  V30 6013 C 535.409 4.76805 -1.43392 0
M  V30 6014 C 534.112 6.31889 -3.4367 0
M  V30 6015 C 536.138 5.38268 -2.44994 0
M  V30 6016 C 535.5 6.14716 -3.43952 0
M  V30 6017 H 531.599 0.77975 0.0592729 0
M  V30 6018 H 534.183 1.88974 -0.468726 0
M  V30 6019 H 532.354 3.64603 1.33863 0
M  V30 6020 H 534.086 3.86038 1.21478 0
M  V30 6021 H 530.841 4.69472 -0.623952 0
M  V30 6022 H 531.265 6.16737 -2.79222 0
M  V30 6023 H 535.907 4.17255 -0.682489 0
M  V30 6024 H 533.625 6.90554 -4.19715 0
M  V30 6025 H 537.211 5.26352 -2.4788 0
M  V30 6026 H 536.091 6.6143 -4.21283 0
M  V30 6027 N 533.594 0.0601682 1.57485 0
M  V30 6028 C 534.824 -0.620037 1.97076 0
M  V30 6029 C 535.232 -1.64381 0.936784 0
M  V30 6030 O 534.575 -1.83497 -0.0863377 0
M  V30 6031 C 534.637 -1.35617 3.32939 0
M  V30 6032 C 534.301 -0.487208 4.54396 0
M  V30 6033 C 535.298 0.250428 5.19297 0
M  V30 6034 C 532.983 -0.415494 5.00579 0
M  V30 6035 C 534.977 1.04812 6.28723 0
M  V30 6036 C 532.664 0.385879 6.0988 0
M  V30 6037 C 533.662 1.11637 6.73815 0
M  V30 6038 O 533.35 1.90454 7.81014 0
M  V30 6039 H 533.082 -0.173664 0.653312 0
M  V30 6040 H 535.636 0.1256 2.05016 0
M  V30 6041 H 533.866 -2.14763 3.2158 0
M  V30 6042 H 535.555 -1.92749 3.57215 0
M  V30 6043 H 536.321 0.204546 4.84568 0
M  V30 6044 H 532.2 -0.973679 4.506 0
M  V30 6045 H 535.744 1.6188 6.78558 0
M  V30 6046 H 531.641 0.433366 6.44044 0
M  V30 6047 H 532.409 1.82762 7.97835 0
M  V30 6048 N 535.072 -1.5615 -0.213296 0
M  V30 6049 C 536.349 -1.70349 -0.961281 0
M  V30 6050 C 536.729 -0.609791 -2.02101 0
M  V30 6051 O 536.077 0.381987 -2.25285 0
M  V30 6052 C 536.287 -3.11982 -1.56424 0
M  V30 6053 C 537.635 -3.71649 -2.05334 0
M  V30 6054 O 538.659 -3.14995 -1.66302 0
M  V30 6055 O 537.518 -4.71038 -2.77102 0
M  V30 6056 H 534.612 -0.694121 -0.449582 0
M  V30 6057 H 537.158 -1.68464 -0.204426 0
M  V30 6058 H 535.93 -3.83046 -0.799457 0
M  V30 6059 H 535.553 -3.18019 -2.38641 0
M  V30 6060 N 536.55 0.480323 -1.50102 0
M  V30 6061 C 537.775 1.26126 -1.64642 0
M  V30 6062 C 538.2 1.85257 -0.325823 0
M  V30 6063 O 537.558 1.66854 0.709194 0
M  V30 6064 C 537.606 2.35243 -2.73301 0
M  V30 6065 O 536.71 3.39646 -2.33911 0
M  V30 6066 H 536.051 0.371463 -0.550374 0
M  V30 6067 H 538.581 0.572696 -1.96421 0
M  V30 6068 H 538.591 2.80695 -2.96098 0
M  V30 6069 H 537.266 1.91574 -3.6915 0
M  V30 6070 H 535.843 2.99969 -2.21525 0
M  V30 6071 N 538.028 1.39524 0.732853 0
M  V30 6072 C 538.958 1.41153 1.86005 0
M  V30 6073 C 539.939 0.274614 1.67869 0
M  V30 6074 O 541.124 0.480745 1.88155 0
M  V30 6075 C 538.254 1.25638 3.23778 0
M  V30 6076 C 537.208 2.36752 3.56556 0
M  V30 6077 C 536.534 2.06326 4.93289 0
M  V30 6078 C 537.834 3.79069 3.5931 0
M  V30 6079 H 539.528 2.35484 1.84899 0
M  V30 6080 H 537.074 1.13348 0.888162 0
M  V30 6081 H 539.027 1.25398 4.0231 0
M  V30 6082 H 537.751 0.277772 3.25417 0
M  V30 6083 H 536.41 2.36213 2.80355 0
M  V30 6084 H 536.058 1.06897 4.9151 0
M  V30 6085 H 535.758 2.80757 5.16187 0
M  V30 6086 H 537.282 2.07739 5.74175 0
M  V30 6087 H 538.696 3.81526 4.27914 0
M  V30 6088 H 537.093 4.52878 3.93728 0
M  V30 6089 H 538.163 4.09893 2.59068 0
M  V30 6090 N 539.506 -0.963266 1.24736 0
M  V30 6091 C 540.754 -1.70343 1.08755 0
M  V30 6092 C 541.075 -1.91387 -0.373619 0
M  V30 6093 O 540.345 -1.4948 -1.2662 0
M  V30 6094 H 538.925 -0.631224 0.399456 0
M  V30 6095 H 541.587 -1.15859 1.56725 0
M  V30 6096 H 540.683 -2.68616 1.58909 0
M  V30 6097 N 540.985 -1.06182 -1.16461 0
M  V30 6098 C 541.948 -0.675723 -2.19013 0
M  V30 6099 C 542.948 0.277963 -1.58379 0
M  V30 6100 O 544.138 0.0604962 -1.74095 0
M  V30 6101 C 541.27 0.00591459 -3.40899 0
M  V30 6102 H 542.463 -1.58353 -2.54685 0
M  V30 6103 H 540.016 -0.856908 -1.30716 0
M  V30 6104 H 540.751 0.92652 -3.10783 0
M  V30 6105 H 540.536 -0.67984 -3.86161 0
M  V30 6106 H 542.026 0.26181 -4.16778 0
M  V30 6107 N 542.463 1.3308 -0.844243 0
M  V30 6108 C 543.712 1.96868 -0.438833 0
M  V30 6109 C 544.025 1.67599 1.00846 0
M  V30 6110 O 545.231 2.25043 1.51881 0
M  V30 6111 C 543.687 3.5234 -0.73377 0
M  V30 6112 C 543.295 3.90481 -2.1961 0
M  V30 6113 C 545.039 4.22653 -0.395574 0
M  V30 6114 C 542.946 5.38954 -2.43481 0
M  V30 6115 H 541.876 0.736749 -0.160364 0
M  V30 6116 H 544.527 1.51623 -1.03358 0
M  V30 6117 H 542.909 3.95941 -0.068589 0
M  V30 6118 H 544.083 3.57922 -2.90221 0
M  V30 6119 H 542.398 3.33165 -2.4978 0
M  V30 6120 H 544.995 5.31848 -0.551477 0
M  V30 6121 H 545.338 4.11004 0.661921 0
M  V30 6122 H 545.871 3.84601 -1.01621 0
M  V30 6123 H 542.61 5.55612 -3.47816 0
M  V30 6124 H 542.13 5.72954 -1.77437 0
M  V30 6125 H 543.809 6.05907 -2.26905 0
M  V30 6126 N 543.941 0.601185 1.45683 0
M  V30 6127 C 544.889 -0.133955 2.32214 0
M  V30 6128 C 545.883 -0.866034 1.45589 0
M  V30 6129 O 547.089 -0.782326 1.6211 0
M  V30 6130 H 543.464 -0.0620613 0.749435 0
M  V30 6131 H 545.435 0.614389 2.92007 0
M  V30 6132 C 544.184 -1.12216 3.29094 0
M  V30 6133 H 543.507 -0.568273 3.95741 0
M  V30 6134 H 544.947 -1.60659 3.92383 0
M  V30 6135 C 543.406 -2.19251 2.55794 0
M  V30 6136 O 543.936 -3.26894 2.33459 0
M  V30 6137 N 542.142 -1.9436 2.16039 0
M  V30 6138 H 541.689 -1.06829 2.34404 0
M  V30 6139 H 541.647 -2.66181 1.67318 0
M  V30 6140 N 545.419 -1.53889 0.339982 0
M  V30 6141 C 546.366 -2.24902 -0.518452 0
M  V30 6142 C 547.336 -1.24593 -1.09844 0
M  V30 6143 O 548.521 -1.53317 -1.13572 0
M  V30 6144 C 545.661 -3.02262 -1.66529 0
M  V30 6145 C 544.774 -4.17418 -1.11295 0
M  V30 6146 C 543.909 -4.82273 -2.2268 0
M  V30 6147 C 542.948 -5.89503 -1.6478 0
M  V30 6148 N 542.085 -6.48153 -2.69893 0
M  V30 6149 H 546.925 -2.97853 0.0936579 0
M  V30 6150 H 544.462 -1.46986 0.0579924 0
M  V30 6151 H 546.42 -3.45371 -2.3404 0
M  V30 6152 H 545.05 -2.31614 -2.24844 0
M  V30 6153 H 544.102 -3.78976 -0.328886 0
M  V30 6154 H 545.414 -4.94554 -0.649414 0
M  V30 6155 H 544.568 -5.28435 -2.98063 0
M  V30 6156 H 543.307 -4.04552 -2.72376 0
M  V30 6157 H 542.312 -5.42728 -0.879004 0
M  V30 6158 H 543.537 -6.6913 -1.1594 0
M  V30 6159 H 541.483 -5.73298 -3.1885 0
M  V30 6160 H 541.4 -7.20752 -2.28151 0
M  V30 6161 H 542.668 -6.98968 -3.45056 0
M  V30 6162 N 546.897 -0.0685191 -1.57451 0
M  V30 6163 C 548.146 0.600898 -1.92541 0
M  V30 6164 C 548.459 1.70967 -0.950239 0
M  V30 6165 O 549.665 2.43844 -1.19384 0
M  V30 6166 C 548.121 1.12019 -3.42023 0
M  V30 6167 C 547.729 0.0426028 -4.4798 0
M  V30 6168 C 549.473 1.76386 -3.86119 0
M  V30 6169 C 547.38 0.575759 -5.88591 0
M  V30 6170 H 546.31 0.228225 -0.71863 0
M  V30 6171 H 548.961 -0.140223 -1.82963 0
M  V30 6172 H 547.343 1.91418 -3.46663 0
M  V30 6173 H 548.517 -0.73182 -4.54952 0
M  V30 6174 H 546.832 -0.504642 -4.13331 0
M  V30 6175 H 549.429 2.17302 -4.88553 0
M  V30 6176 H 549.772 2.62255 -3.23308 0
M  V30 6177 H 550.305 1.03615 -3.84069 0
M  V30 6178 H 547.044 -0.245691 -6.55039 0
M  V30 6179 H 546.564 1.31778 -5.85145 0
M  V30 6180 H 548.243 1.0532 -6.3837 0
M  V30 6181 N 548.375 1.56261 0.205012 0
M  V30 6182 C 549.307 1.90266 1.27795 0
M  V30 6183 C 550.32 0.792397 1.42214 0
M  V30 6184 O 551.509 1.07077 1.42817 0
M  V30 6185 C 548.609 2.11074 2.65143 0
M  V30 6186 C 547.782 3.42176 2.7246 0
M  V30 6187 C 546.841 3.52216 3.90936 0
M  V30 6188 O 545.867 4.25119 3.78501 0
M  V30 6189 N 547.069 2.84573 5.05963 0
M  V30 6190 H 549.834 2.82896 0.989434 0
M  V30 6191 H 547.395 1.57008 0.394981 0
M  V30 6192 H 549.387 2.15089 3.4281 0
M  V30 6193 H 547.957 1.2499 2.86524 0
M  V30 6194 H 547.177 3.50116 1.81142 0
M  V30 6195 H 548.465 4.28509 2.74331 0
M  V30 6196 H 547.863 2.25152 5.18963 0
M  V30 6197 H 546.42 2.94228 5.81613 0
M  V30 6198 N 549.853 -0.472356 1.50355 0
M  V30 6199 C 551.13 -1.23356 1.51798 0
M  V30 6200 C 551.51 -2.09469 0.26193 0
M  V30 6201 O 550.858 -2.15677 -0.754691 0
M  V30 6202 C 551.068 -2.06568 2.81302 0
M  V30 6203 C 552.416 -2.648 3.31913 0
M  V30 6204 O 553.44 -2.16812 2.82614 0
M  V30 6205 O 552.299 -3.52231 4.17846 0
M  V30 6206 H 549.393 -0.559707 0.608816 0
M  V30 6207 H 551.939 -0.48428 1.62643 0
M  V30 6208 H 550.711 -1.43103 3.64194 0
M  V30 6209 H 550.334 -2.88633 2.73454 0
M  V30 6210 N 551.331 -1.39911 -0.725443 0
M  V30 6211 C 552.578 -1.37654 -1.48518 0
M  V30 6212 C 552.906 0.0243982 -1.94485 0
M  V30 6213 O 552.161 1.00708 -1.67799 0
M  V30 6214 C 552.46 -2.30368 -2.7325 0
M  V30 6215 C 552.126 -3.77817 -2.461 0
M  V30 6216 C 550.788 -4.17991 -2.38405 0
M  V30 6217 C 553.14 -4.71036 -2.23103 0
M  V30 6218 C 550.468 -5.49433 -2.05768 0
M  V30 6219 C 552.82 -6.02766 -1.9198 0
M  V30 6220 C 551.484 -6.41993 -1.82761 0
M  V30 6221 H 550.754 -0.503713 -0.543465 0
M  V30 6222 H 553.401 -1.7249 -0.831822 0
M  V30 6223 H 551.706 -1.88683 -3.43375 0
M  V30 6224 H 553.403 -2.2591 -3.31309 0
M  V30 6225 H 549.993 -3.45982 -2.52972 0
M  V30 6226 H 554.177 -4.40823 -2.2801 0
M  V30 6227 H 549.433 -5.78738 -1.9716 0
M  V30 6228 H 553.607 -6.74519 -1.73197 0
M  V30 6229 H 551.234 -7.43761 -1.57237 0
M  V30 6230 N 552.809 0.956637 -1.25245 0
M  V30 6231 C 553.739 2.07058 -1.07931 0
M  V30 6232 C 554.72 1.70096 0.0110361 0
M  V30 6233 O 555.905 1.93555 -0.158121 0
M  V30 6234 C 553.035 3.40272 -0.695124 0
M  V30 6235 C 551.989 3.91235 -1.73549 0
M  V30 6236 C 551.315 5.20921 -1.20604 0
M  V30 6237 C 552.615 4.17837 -3.13385 0
M  V30 6238 H 554.309 2.218 -2.01109 0
M  V30 6239 H 551.855 1.06581 -0.968326 0
M  V30 6240 H 553.808 4.1765 -0.560949 0
M  V30 6241 H 552.532 3.25462 0.272355 0
M  V30 6242 H 551.191 3.16025 -1.85807 0
M  V30 6243 H 550.839 5.02479 -0.228846 0
M  V30 6244 H 550.539 5.55987 -1.90136 0
M  V30 6245 H 552.063 6.00897 -1.08421 0
M  V30 6246 H 553.477 4.8588 -3.04292 0
M  V30 6247 H 551.874 4.64154 -3.80369 0
M  V30 6248 H 552.944 3.2419 -3.60595 0
M  V30 6249 N 554.287 1.06798 1.15896 0
M  V30 6250 C 555.219 0.641263 2.20046 0
M  V30 6251 C 556.232 -0.303355 1.59949 0
M  V30 6252 O 557.421 -0.0935478 1.78255 0
M  V30 6253 C 554.521 -0.0794029 3.38807 0
M  V30 6254 C 553.694 0.879986 4.28457 0
M  V30 6255 C 552.753 0.197638 5.25829 0
M  V30 6256 O 551.779 0.836913 5.63014 0
M  V30 6257 N 552.981 -1.05886 5.70761 0
M  V30 6258 H 555.746 1.53718 2.57276 0
M  V30 6259 H 553.307 0.951951 1.30956 0
M  V30 6260 H 555.299 -0.546418 4.00994 0
M  V30 6261 H 553.869 -0.877193 3.0004 0
M  V30 6262 H 553.089 1.52625 3.63454 0
M  V30 6263 H 554.377 1.53065 4.8523 0
M  V30 6264 H 553.775 -1.59828 5.42652 0
M  V30 6265 H 552.332 -1.46965 6.35015 0
M  V30 6266 N 555.766 -1.3263 0.851289 0
M  V30 6267 C 556.713 -2.28952 0.291469 0
M  V30 6268 C 557.683 -1.54897 -0.599676 0
M  V30 6269 O 558.868 -1.83137 -0.535305 0
M  V30 6270 C 556.008 -3.41206 -0.516992 0
M  V30 6271 C 555.121 -4.30148 0.399566 0
M  V30 6272 C 554.256 -5.29527 -0.4212 0
M  V30 6273 C 553.295 -6.10112 0.492969 0
M  V30 6274 N 552.432 -7.01499 -0.290414 0
M  V30 6275 H 557.272 -2.76228 1.11813 0
M  V30 6276 H 554.809 -1.35907 0.562826 0
M  V30 6277 H 556.767 -4.05005 -1.00132 0
M  V30 6278 H 555.397 -2.9509 -1.30851 0
M  V30 6279 H 554.449 -3.66959 1.00227 0
M  V30 6280 H 555.761 -4.8649 1.1013 0
M  V30 6281 H 554.915 -5.98914 -0.968832 0
M  V30 6282 H 553.654 -4.73794 -1.15632 0
M  V30 6283 H 552.659 -5.39632 1.05251 0
M  V30 6284 H 553.884 -6.6793 1.22664 0
M  V30 6285 H 551.83 -6.48199 -1.00868 0
M  V30 6286 H 551.747 -7.55178 0.352354 0
M  V30 6287 H 553.015 -7.75176 -0.819882 0
M  V30 6288 N 557.244 -0.608902 -1.45362 0
M  V30 6289 C 558.176 0.147318 -2.28726 0
M  V30 6290 C 559.189 0.830468 -1.40025 0
M  V30 6291 O 560.378 0.695636 -1.64387 0
M  V30 6292 C 557.478 1.22968 -3.15804 0
M  V30 6293 C 556.651 0.633391 -4.3279 0
M  V30 6294 C 555.71 1.60682 -5.01067 0
M  V30 6295 O 554.736 1.13261 -5.57818 0
M  V30 6296 N 555.938 2.94123 -5.00472 0
M  V30 6297 H 558.703 -0.568014 -2.94268 0
M  V30 6298 H 556.264 -0.448479 -1.55564 0
M  V30 6299 H 558.256 1.88072 -3.58345 0
M  V30 6300 H 556.826 1.84752 -2.52162 0
M  V30 6301 H 556.046 -0.195762 -3.93714 0
M  V30 6302 H 557.334 0.215255 -5.08344 0
M  V30 6303 H 556.732 3.3525 -4.55657 0
M  V30 6304 H 555.289 3.54646 -5.46872 0
M  V30 6305 N 558.722 1.53707 -0.348139 0
M  V30 6306 C 559.632 2.28881 0.514857 0
M  V30 6307 C 560.648 1.34168 1.10793 0
M  V30 6308 O 561.824 1.6721 1.12262 0
M  V30 6309 C 558.889 3.05042 1.64774 0
M  V30 6310 C 557.95 4.15389 1.08398 0
M  V30 6311 C 557.183 4.87909 2.16287 0
M  V30 6312 O 557.406 4.60137 3.3709 0
M  V30 6313 O 556.34 5.74254 1.80323 0
M  V30 6314 H 560.166 3.03547 -0.0963699 0
M  V30 6315 H 557.751 1.48972 -0.113043 0
M  V30 6316 H 559.633 3.52656 2.30677 0
M  V30 6317 H 558.308 2.33228 2.24469 0
M  V30 6318 H 557.215 3.72068 0.389341 0
M  V30 6319 H 558.548 4.89318 0.531829 0
M  V30 6320 N 560.2 0.0768682 1.57412 0
M  V30 6321 C 561.43 -0.5991 1.97723 0
M  V30 6322 C 561.838 -1.63378 0.954166 0
M  V30 6323 O 561.181 -1.83578 -0.0668706 0
M  V30 6324 C 561.243 -1.32078 3.34358 0
M  V30 6325 C 560.907 -0.438985 4.54887 0
M  V30 6326 C 561.904 0.305492 5.19002 0
M  V30 6327 C 559.589 -0.362378 5.00991 0
M  V30 6328 C 561.583 1.11475 6.27576 0
M  V30 6329 C 559.27 0.450543 6.09437 0
M  V30 6330 C 560.268 1.18777 6.72593 0
M  V30 6331 O 559.956 1.98727 7.7895 0
M  V30 6332 H 559.688 -0.166725 0.655117 0
M  V30 6333 H 562.242 0.147337 2.04871 0
M  V30 6334 H 560.472 -2.1134 3.2384 0
M  V30 6335 H 562.161 -1.88949 3.5924 0
M  V30 6336 H 562.927 0.25593 4.84324 0
M  V30 6337 H 558.806 -0.925832 4.51608 0
M  V30 6338 H 562.35 1.69068 6.76803 0
M  V30 6339 H 558.247 0.501651 6.43548 0
M  V30 6340 H 559.015 1.91214 7.95851 0
M  V30 6341 N 561.678 -1.56367 -0.196722 0
M  V30 6342 C 562.625 -1.94417 -1.24382 0
M  V30 6343 C 563.595 -0.804543 -1.45315 0
M  V30 6344 O 564.78 -1.06256 -1.58475 0
M  V30 6345 C 561.92 -2.28757 -2.58388 0
M  V30 6346 C 561.033 -3.55775 -2.45047 0
M  V30 6347 C 560.168 -3.79445 -3.71746 0
M  V30 6348 C 559.207 -4.99894 -3.53231 0
M  V30 6349 N 558.344 -5.19826 -4.71938 0
M  V30 6350 H 563.184 -2.83691 -0.912338 0
M  V30 6351 H 560.721 -1.40392 -0.439135 0
M  V30 6352 H 562.679 -2.46682 -3.36457 0
M  V30 6353 H 561.309 -1.42625 -2.89582 0
M  V30 6354 H 560.361 -3.45905 -1.58284 0
M  V30 6355 H 561.673 -4.44 -2.27299 0
M  V30 6356 H 560.827 -3.97601 -4.58256 0
M  V30 6357 H 559.566 -2.89546 -3.92446 0
M  V30 6358 H 558.571 -4.81662 -2.65107 0
M  V30 6359 H 559.796 -5.913 -3.33978 0
M  V30 6360 H 557.742 -4.32875 -4.92905 0
M  V30 6361 H 557.659 -6.02228 -4.57009 0
M  V30 6362 H 558.927 -5.42439 -5.59803 0
M  V30 6363 N 563.156 0.464375 -1.50603 0
M  V30 6364 C 564.384 1.23907 -1.65695 0
M  V30 6365 C 564.799 1.85658 -0.343027 0
M  V30 6366 O 564.156 1.69529 0.675739 0
M  V30 6367 C 564.207 2.3429 -2.75301 0
M  V30 6368 O 563.928 1.7507 -4.01599 0
M  V30 6369 C 565.429 3.25051 -3.01424 0
M  V30 6370 H 562.649 0.374485 -0.556778 0
M  V30 6371 H 565.193 0.55353 -1.96866 0
M  V30 6372 H 563.348 2.98607 -2.46804 0
M  V30 6373 H 563.762 2.47812 -4.62266 0
M  V30 6374 H 565.236 3.98699 -3.81763 0
M  V30 6375 H 565.713 3.84227 -2.12758 0
M  V30 6376 H 566.319 2.66463 -3.31477 0
M  V30 6377 N 564.634 1.40294 0.718013 0
M  V30 6378 C 565.564 1.43118 1.84498 0
M  V30 6379 C 566.545 0.292403 1.67568 0
M  V30 6380 O 567.73 0.500675 1.87635 0
M  V30 6381 C 564.86 1.29065 3.22427 0
M  V30 6382 C 563.814 2.40521 3.54025 0
M  V30 6383 C 563.14 2.11546 4.91073 0
M  V30 6384 C 564.44 3.82859 3.55269 0
M  V30 6385 H 566.134 2.37432 1.82391 0
M  V30 6386 H 563.68 1.14283 0.87609 0
M  V30 6387 H 565.633 1.29658 4.00957 0
M  V30 6388 H 564.357 0.312271 3.25104 0
M  V30 6389 H 563.016 2.39173 2.77834 0
M  V30 6390 H 562.664 1.12104 4.90348 0
M  V30 6391 H 562.364 2.86216 5.1318 0
M  V30 6392 H 563.888 2.13817 5.71939 0
M  V30 6393 H 565.302 3.86044 4.23843 0
M  V30 6394 H 563.699 4.57029 3.88902 0
M  V30 6395 H 564.769 4.12617 2.54706 0
M  V30 6396 N 566.112 -0.949982 1.2575 0
M  V30 6397 C 567.022 -2.08109 1.08295 0
M  V30 6398 C 568.038 -1.7399 0.0188181 0
M  V30 6399 O 569.214 -2.00187 0.220724 0
M  V30 6400 C 566.279 -3.39383 0.708534 0
M  V30 6401 C 565.34 -3.8734 1.85111 0
M  V30 6402 C 564.573 -5.12349 1.49447 0
M  V30 6403 O 564.796 -5.6905 0.392212 0
M  V30 6404 O 563.73 -5.5513 2.32624 0
M  V30 6405 H 567.556 -2.25738 2.03165 0
M  V30 6406 H 565.141 -1.06545 1.04731 0
M  V30 6407 H 567.023 -4.18277 0.512061 0
M  V30 6408 H 565.698 -3.23013 -0.210854 0
M  V30 6409 H 564.605 -3.09429 2.10248 0
M  V30 6410 H 565.938 -4.08216 2.74991 0
M  V30 6411 N 567.59 -1.07411 -1.15328 0
M  V30 6412 C 568.82 -0.817595 -1.89734 0
M  V30 6413 C 569.228 0.63297 -1.78298 0
M  V30 6414 O 568.571 1.44594 -1.13306 0
M  V30 6415 C 568.633 -1.14748 -3.40695 0
M  V30 6416 C 568.297 -2.59876 -3.75917 0
M  V30 6417 C 569.294 -3.58122 -3.76888 0
M  V30 6418 C 566.979 -2.95469 -4.06206 0
M  V30 6419 C 568.973 -4.89996 -4.07655 0
M  V30 6420 C 566.66 -4.2754 -4.36638 0
M  V30 6421 C 567.658 -5.24614 -4.37344 0
M  V30 6422 O 567.346 -6.54312 -4.67045 0
M  V30 6423 H 567.078 -0.295175 -0.608151 0
M  V30 6424 H 569.632 -1.43409 -1.47048 0
M  V30 6425 H 567.862 -0.47395 -3.83785 0
M  V30 6426 H 569.551 -0.873397 -3.96392 0
M  V30 6427 H 570.317 -3.31966 -3.53587 0
M  V30 6428 H 566.196 -2.20558 -4.04815 0
M  V30 6429 H 569.74 -5.65759 -4.08121 0
M  V30 6430 H 565.637 -4.53449 -4.59407 0
M  V30 6431 H 566.405 -6.59473 -4.84807 0
M  V30 6432 N 569.068 1.32177 -0.85831 0
M  V30 6433 C 570.016 2.30729 -0.294442 0
M  V30 6434 C 571.01 1.59009 0.584165 0
M  V30 6435 O 572.216 1.73713 0.471562 0
M  V30 6436 H 568.591 0.748097 -0.0765171 0
M  V30 6437 H 570.562 2.75774 -1.1398 0
M  V30 6438 C 569.311 3.44098 0.499208 0
M  V30 6439 H 568.634 3.99449 -0.167579 0
M  V30 6440 H 570.074 4.15202 0.859273 0
M  V30 6441 C 568.533 2.91684 1.68588 0
M  V30 6442 O 569.063 2.89481 2.78503 0
M  V30 6443 N 567.269 2.48036 1.51415 0
M  V30 6444 H 566.816 2.50027 0.620006 0
M  V30 6445 H 566.774 2.13322 2.30957 0
M  V30 6446 N 570.547 0.616602 1.45037 0
M  V30 6447 C 571.477 -0.0840787 2.33349 0
M  V30 6448 C 572.458 -0.849641 1.4736 0
M  V30 6449 O 573.643 -0.818407 1.76113 0
M  V30 6450 C 570.773 -1.07604 3.3021 0
M  V30 6451 C 569.727 -0.423096 4.25904 0
M  V30 6452 C 569.053 -1.52394 5.12523 0
M  V30 6453 C 570.353 0.661457 5.18095 0
M  V30 6454 H 572.047 0.653333 2.92185 0
M  V30 6455 H 569.593 0.315634 1.40498 0
M  V30 6456 H 571.546 -1.57485 3.90866 0
M  V30 6457 H 570.27 -1.84416 2.69552 0
M  V30 6458 H 568.929 0.05493 3.66559 0
M  V30 6459 H 568.577 -2.28257 4.48227 0
M  V30 6460 H 568.277 -1.09251 5.77354 0
M  V30 6461 H 569.801 -2.02485 5.76049 0
M  V30 6462 H 571.215 0.246353 5.7277 0
M  V30 6463 H 569.612 1.01517 5.91451 0
M  V30 6464 H 570.682 1.53446 4.59981 0
M  V30 6465 N 572.025 -1.5352 0.356285 0
M  V30 6466 C 573.253 -2.05534 -0.237328 0
M  V30 6467 C 573.668 -1.23043 -1.43199 0
M  V30 6468 O 573.025 -0.268821 -1.80509 0
M  V30 6469 C 573.076 -3.55791 -0.639933 0
M  V30 6470 O 572.797 -4.35154 0.507233 0
M  V30 6471 C 574.298 -4.24027 -1.29292 0
M  V30 6472 H 571.518 -0.669585 -0.0435572 0
M  V30 6473 H 574.062 -1.97988 0.511963 0
M  V30 6474 H 572.217 -3.63518 -1.33915 0
M  V30 6475 H 572.631 -5.24178 0.18375 0
M  V30 6476 H 574.105 -5.30509 -1.52527 0
M  V30 6477 H 574.582 -3.77166 -2.25039 0
M  V30 6478 H 575.188 -4.20527 -0.63539 0
M  V30 6479 N 573.503 -0.0852151 -1.57369 0
M  V30 6480 C 574.731 0.58946 -1.98325 0
M  V30 6481 C 575.146 1.62333 -0.96403 0
M  V30 6482 O 574.503 1.82438 0.0476395 0
M  V30 6483 C 574.554 1.24604 -3.39347 0
M  V30 6484 O 574.275 0.253532 -4.37366 0
M  V30 6485 C 575.776 2.00726 -3.95252 0
M  V30 6486 H 572.996 0.158783 -0.651942 0
M  V30 6487 H 575.54 -0.161584 -2.03861 0
M  V30 6488 H 573.695 1.94808 -3.34856 0
M  V30 6489 H 574.109 0.726207 -5.19448 0
M  V30 6490 H 575.583 2.42039 -4.96106 0
M  V30 6491 H 576.06 2.86919 -3.32527 0
M  V30 6492 H 576.666 1.3536 -4.03185 0
M  V30 6493 N 574.981 1.5647 0.188427 0
M  V30 6494 C 576.209 1.85131 0.923803 0
M  V30 6495 C 576.624 0.668537 1.76567 0
M  V30 6496 O 575.981 -0.362662 1.7886 0
M  V30 6497 C 576.032 3.12661 1.81453 0
M  V30 6498 O 575.753 4.26378 1.00665 0
M  V30 6499 C 577.254 3.54548 2.66103 0
M  V30 6500 H 574.474 0.614624 0.269218 0
M  V30 6501 H 577.018 2.03581 0.193671 0
M  V30 6502 H 575.173 2.96088 2.49821 0
M  V30 6503 H 575.587 4.99041 1.61425 0
M  V30 6504 H 577.061 4.4673 3.24247 0
M  V30 6505 H 577.538 2.77853 3.40139 0
M  V30 6506 H 578.144 3.73674 2.03096 0
M  V30 6507 N 576.459 -0.456382 1.50847 0
M  V30 6508 C 577.369 -1.57805 1.73594 0
M  V30 6509 C 578.385 -1.62599 0.619476 0
M  V30 6510 O 579.561 -1.80195 0.899532 0
M  V30 6511 C 576.626 -2.93926 1.8387 0
M  V30 6512 C 575.687 -2.99402 3.07663 0
M  V30 6513 C 574.92 -4.29031 3.1744 0
M  V30 6514 O 575.143 -5.20358 2.33631 0
M  V30 6515 O 574.077 -4.40401 4.10281 0
M  V30 6516 H 577.903 -1.41531 2.68705 0
M  V30 6517 H 575.488 -0.637422 1.3512 0
M  V30 6518 H 577.37 -3.74747 1.92725 0
M  V30 6519 H 576.045 -3.10368 0.91944 0
M  V30 6520 H 574.952 -2.17606 3.043 0
M  V30 6521 H 576.285 -2.87901 3.99216 0
M  V30 6522 N 577.937 -1.40673 -0.710563 0
M  V30 6523 C 579.183 -1.39428 -1.47267 0
M  V30 6524 C 579.516 0.00182129 -1.942 0
M  V30 6525 O 578.791 0.971387 -1.68506 0
M  V30 6526 C 579.074 -2.38812 -2.6952 0
M  V30 6527 C 578.927 -3.87467 -2.28449 0
M  V30 6528 C 580.246 -2.3566 -3.71689 0
M  V30 6529 H 577.365 -0.507768 -0.534173 0
M  V30 6530 H 580.007 -1.71843 -0.810547 0
M  V30 6531 H 578.157 -2.113 -3.26013 0
M  V30 6532 H 579.829 -4.25825 -1.77399 0
M  V30 6533 H 578.072 -4.03058 -1.60395 0
M  V30 6534 H 578.743 -4.5253 -3.16103 0
M  V30 6535 H 581.219 -2.6004 -3.24836 0
M  V30 6536 H 580.095 -3.07237 -4.54859 0
M  V30 6537 H 580.356 -1.36996 -4.20339 0
M  V30 6538 N 579.415 0.9433 -1.26252 0
M  V30 6539 C 580.661 1.69175 -1.11837 0
M  V30 6540 C 580.994 1.91238 0.337891 0
M  V30 6541 O 580.269 1.49152 1.24836 0
M  V30 6542 C 580.552 3.06783 -1.88563 0
M  V30 6543 C 580.405 2.9206 -3.42083 0
M  V30 6544 C 581.724 4.06865 -1.67776 0
M  V30 6545 H 578.843 0.61399 -0.407658 0
M  V30 6546 H 581.485 1.09572 -1.55222 0
M  V30 6547 H 579.635 3.57663 -1.51689 0
M  V30 6548 H 581.307 2.48419 -3.88698 0
M  V30 6549 H 579.55 2.27731 -3.69217 0
M  V30 6550 H 580.221 3.89651 -3.90994 0
M  V30 6551 H 582.697 3.64939 -1.99897 0
M  V30 6552 H 581.573 5.01168 -2.23879 0
M  V30 6553 H 581.834 4.37705 -0.621816 0
M  V30 6554 N 580.893 1.08022 1.14757 0
M  V30 6555 C 581.826 0.650738 2.18725 0
M  V30 6556 C 582.804 -0.335496 1.59101 0
M  V30 6557 O 583.988 -0.240295 1.86962 0
M  V30 6558 C 581.115 -0.0434377 3.38672 0
M  V30 6559 C 580.161 0.90232 4.16846 0
M  V30 6560 S 580.994 2.40693 4.78359 0
M  V30 6561 C 582.15 1.72475 6.01667 0
M  V30 6562 H 582.383 1.53152 2.54817 0
M  V30 6563 H 579.916 0.894823 1.25826 0
M  V30 6564 H 581.874 -0.437684 4.0816 0
M  V30 6565 H 580.535 -0.900659 3.0091 0
M  V30 6566 H 579.728 0.363445 5.02688 0
M  V30 6567 H 579.33 1.23728 3.52941 0
M  V30 6568 H 581.622 1.0404 6.69464 0
M  V30 6569 H 582.565 2.56175 6.60136 0
M  V30 6570 H 582.973 1.19979 5.51602 0
M  V30 6571 N 582.371 -1.3172 0.865308 0
M  V30 6572 C 583.281 -2.32394 0.320935 0
M  V30 6573 C 584.297 -1.64511 -0.566746 0
M  V30 6574 O 585.473 -1.95969 -0.464575 0
M  V30 6575 C 582.538 -3.43462 -0.472701 0
M  V30 6576 C 581.599 -4.27015 0.442385 0
M  V30 6577 C 580.832 -5.32779 -0.313469 0
M  V30 6578 O 581.055 -5.49158 -1.54214 0
M  V30 6579 O 579.989 -6.01015 0.326257 0
M  V30 6580 H 583.815 -2.80868 1.15528 0
M  V30 6581 H 581.4 -1.35535 0.628545 0
M  V30 6582 H 583.282 -4.11172 -0.922781 0
M  V30 6583 H 581.957 -2.97159 -1.28367 0
M  V30 6584 H 580.864 -3.62075 0.940866 0
M  V30 6585 H 582.197 -4.76871 1.21882 0
M  V30 6586 N 583.85 -0.624285 -1.44708 0
M  V30 6587 C 584.798 0.0969952 -2.32398 0
M  V30 6588 C 585.792 0.842762 -1.46949 0
M  V30 6589 O 586.998 0.756436 -1.63334 0
M  V30 6590 H 583.373 0.0501306 -0.750327 0
M  V30 6591 H 585.344 -0.660767 -2.90992 0
M  V30 6592 C 584.093 1.06967 -3.30837 0
M  V30 6593 H 583.416 0.505242 -3.96595 0
M  V30 6594 H 584.856 1.54397 -3.94889 0
M  V30 6595 C 583.315 2.15153 -2.5925 0
M  V30 6596 O 583.845 3.23139 -2.3863 0
M  V30 6597 N 582.051 1.90898 -2.19103 0
M  V30 6598 H 581.598 1.03086 -2.36074 0
M  V30 6599 H 581.556 2.63485 -1.71531 0
M  V30 6600 N 585.328 1.53329 -0.364422 0
M  V30 6601 C 586.574 2.01537 0.225969 0
M  V30 6602 C 586.907 1.25128 1.48515 0
M  V30 6603 O 586.182 0.344653 1.91422 0
M  V30 6604 C 586.465 3.56339 0.519092 0
M  V30 6605 C 586.318 4.43441 -0.753639 0
M  V30 6606 C 587.637 4.19833 1.32015 0
M  V30 6607 H 584.756 0.732573 0.0806548 0
M  V30 6608 H 587.398 1.83597 -0.489084 0
M  V30 6609 H 585.548 3.71756 1.12825 0
M  V30 6610 H 587.22 4.39823 -1.39116 0
M  V30 6611 H 585.463 4.11457 -1.37424 0
M  V30 6612 H 586.134 5.49699 -0.503517 0
M  V30 6613 H 588.61 4.08242 0.804859 0
M  V30 6614 H 587.486 5.28177 1.49399 0
M  V30 6615 H 587.747 3.75821 2.32832 0
M  V30 6616 N 586.806 0.0935595 1.57322 0
M  V30 6617 C 588.034 -0.578934 1.98635 0
M  V30 6618 C 588.449 -1.61819 0.972626 0
M  V30 6619 O 587.806 -1.82461 -0.0379638 0
M  V30 6620 C 587.857 -1.22802 3.40003 0
M  V30 6621 O 587.578 -0.230334 4.37494 0
M  V30 6622 C 589.079 -1.98627 3.96311 0
M  V30 6623 H 586.299 -0.155324 0.652775 0
M  V30 6624 H 588.843 0.172393 2.03772 0
M  V30 6625 H 586.998 -1.93029 3.35885 0
M  V30 6626 H 587.412 -0.698649 5.19826 0
M  V30 6627 H 588.886 -2.39405 4.97382 0
M  V30 6628 H 589.363 -2.85151 3.34044 0
M  V30 6629 H 589.969 -1.3322 4.03897 0
M  V30 6630 N 588.284 -1.56567 -0.180126 0
M  V30 6631 C 589.247 -1.94852 -1.20686 0
M  V30 6632 C 590.247 -0.831212 -1.3765 0
M  V30 6633 O 591.437 -1.09841 -1.35206 0
M  V30 6634 C 588.569 -2.23565 -2.57355 0
M  V30 6635 H 589.762 -2.86722 -0.879225 0
M  V30 6636 H 587.315 -1.50489 -0.422237 0
M  V30 6637 H 588.05 -1.34381 -2.95148 0
M  V30 6638 H 587.835 -3.04999 -2.46411 0
M  V30 6639 H 589.325 -2.54137 -3.31367 0
M  V30 6640 N 589.762 0.448376 -1.51087 0
M  V30 6641 C 591.009 1.19872 -1.63209 0
M  V30 6642 C 591.337 1.91451 -0.343062 0
M  V30 6643 O 590.592 1.83789 0.672321 0
M  V30 6644 C 590.891 2.24866 -2.77795 0
M  V30 6645 C 590.557 1.70378 -4.17471 0
M  V30 6646 C 589.219 1.55241 -4.55471 0
M  V30 6647 C 591.571 1.30203 -5.04675 0
M  V30 6648 C 588.899 0.983844 -5.78392 0
M  V30 6649 C 591.251 0.747798 -6.28165 0
M  V30 6650 C 589.915 0.583233 -6.64947 0
M  V30 6651 H 589.185 0.438642 -0.597222 0
M  V30 6652 H 591.832 0.49136 -1.85089 0
M  V30 6653 H 590.137 3.01598 -2.50092 0
M  V30 6654 H 591.834 2.82723 -2.84374 0
M  V30 6655 H 588.424 1.83134 -3.87505 0
M  V30 6656 H 592.608 1.40723 -4.75932 0
M  V30 6657 H 587.864 0.844007 -6.05546 0
M  V30 6658 H 592.038 0.427927 -6.95084 0
M  V30 6659 H 589.665 0.140532 -7.6007 0
M  V30 6660 N 591.24 1.41047 0.703093 0
M  V30 6661 C 592.486 1.41209 1.46396 0
M  V30 6662 C 592.841 0.0180188 1.92392 0
M  V30 6663 O 592.134 -0.954739 1.66118 0
M  V30 6664 C 592.328 2.34686 2.6955 0
M  V30 6665 C 592.157 3.83044 2.35601 0
M  V30 6666 C 590.927 4.51777 2.26331 0
M  V30 6667 C 593.125 4.74215 1.9906 0
M  V30 6668 N 591.107 5.85302 1.85188 0
M  V30 6669 C 592.478 5.96631 1.68616 0
M  V30 6670 C 594.533 4.61932 1.85805 0
M  V30 6671 C 593.236 7.08134 1.26249 0
M  V30 6672 C 595.262 5.73389 1.44842 0
M  V30 6673 C 594.624 6.94899 1.15304 0
M  V30 6674 H 590.723 0.571951 0.533288 0
M  V30 6675 H 593.307 1.76859 0.814179 0
M  V30 6676 H 591.478 2.01143 3.32259 0
M  V30 6677 H 593.21 2.25618 3.35974 0
M  V30 6678 H 589.965 4.05618 2.44482 0
M  V30 6679 H 590.389 6.56049 1.67119 0
M  V30 6680 H 595.031 3.68494 2.07298 0
M  V30 6681 H 592.749 8.01445 1.035 0
M  V30 6682 H 596.335 5.65886 1.35146 0
M  V30 6683 H 595.215 7.79679 0.840854 0
M  V30 6684 N 592.718 -0.936591 1.26751 0
M  V30 6685 C 593.628 -2.06949 1.10496 0
M  V30 6686 C 594.644 -1.7396 0.037271 0
M  V30 6687 O 595.82 -1.99941 0.241944 0
M  V30 6688 C 592.885 -3.38612 0.744491 0
M  V30 6689 C 591.946 -3.85355 1.89209 0
M  V30 6690 C 591.179 -5.10735 1.54873 0
M  V30 6691 O 591.402 -5.68602 0.452546 0
M  V30 6692 O 590.336 -5.52632 2.38499 0
M  V30 6693 H 594.162 -2.23571 2.05547 0
M  V30 6694 H 591.747 -1.05428 1.05855 0
M  V30 6695 H 593.629 -4.17711 0.556396 0
M  V30 6696 H 592.304 -3.23218 -0.176582 0
M  V30 6697 H 591.211 -3.07182 2.13518 0
M  V30 6698 H 592.544 -4.05277 2.79305 0
M  V30 6699 N 594.196 -1.08629 -1.14182 0
M  V30 6700 C 595.106 -0.730126 -2.22949 0
M  V30 6701 C 596.122 0.26436 -1.7198 0
M  V30 6702 O 597.298 0.107742 -2.01112 0
M  V30 6703 C 594.363 -0.147227 -3.46387 0
M  V30 6704 C 593.424 -1.19662 -4.12286 0
M  V30 6705 C 592.657 -0.641437 -5.29831 0
M  V30 6706 O 592.88 0.538351 -5.67854 0
M  V30 6707 O 591.814 -1.39257 -5.85569 0
M  V30 6708 H 595.64 -1.63753 -2.55771 0
M  V30 6709 H 593.225 -0.860118 -1.22157 0
M  V30 6710 H 595.107 0.174923 -4.21037 0
M  V30 6711 H 593.782 0.733304 -3.15285 0
M  V30 6712 H 592.689 -1.57133 -3.395 0
M  V30 6713 H 594.022 -2.0495 -4.475 0
M  V30 6714 N 595.674 1.31259 -0.872281 0
M  V30 6715 C 596.922 1.96233 -0.483409 0
M  V30 6716 C 597.243 1.69276 0.968012 0
M  V30 6717 O 596.513 1.00943 1.67891 0
M  V30 6718 H 595.093 0.726025 -0.175774 0
M  V30 6719 H 597.755 1.60024 -1.11258 0
M  V30 6720 H 596.851 3.05403 -0.643075 0
M  V30 6721 N 597.152 0.631951 1.44375 0
M  V30 6722 C 598.399 0.136767 2.02038 0
M  V30 6723 C 598.727 -1.24168 1.49709 0
M  V30 6724 O 597.982 -1.83809 0.671763 0
M  V30 6725 C 598.281 0.0735861 3.57324 0
M  V30 6726 C 597.947 1.39092 4.28911 0
M  V30 6727 C 596.609 1.75171 4.48184 0
M  V30 6728 C 598.961 2.26042 4.69632 0
M  V30 6729 C 596.289 2.97907 5.05439 0
M  V30 6730 C 598.641 3.4805 5.28246 0
M  V30 6731 C 597.305 3.84351 5.45738 0
M  V30 6732 H 596.575 0.0500466 0.739308 0
M  V30 6733 H 599.222 0.818429 1.7313 0
M  V30 6734 H 597.527 -0.691449 3.8565 0
M  V30 6735 H 599.224 -0.326091 3.99672 0
M  V30 6736 H 595.814 1.10015 4.1424 0
M  V30 6737 H 599.998 1.99463 4.54454 0
M  V30 6738 H 595.254 3.26108 5.17169 0
M  V30 6739 H 599.428 4.15658 5.5875 0
M  V30 6740 H 597.055 4.79538 5.8987 0
M  V30 6741 N 598.631 -1.53133 0.372548 0
M  V30 6742 C 599.879 -2.00958 -0.214534 0
M  V30 6743 C 600.2 -1.26135 -1.48711 0
M  V30 6744 O 599.47 -0.376597 -1.92246 0
M  V30 6745 H 598.05 -0.742456 -0.0822664 0
M  V30 6746 H 600.712 -1.88367 0.500385 0
M  V30 6747 H 599.808 -3.09031 -0.436605 0
M  V30 6748 N 600.109 -0.101901 -1.5727 0
M  V30 6749 C 601.019 0.868647 -2.17926 0
M  V30 6750 C 602.035 1.30527 -1.1506 0
M  V30 6751 O 603.211 1.37178 -1.47459 0
M  V30 6752 C 600.276 2.10727 -2.75309 0
M  V30 6753 C 599.337 1.7242 -3.93154 0
M  V30 6754 C 598.57 2.90377 -4.47791 0
M  V30 6755 O 598.793 4.05305 -4.01353 0
M  V30 6756 O 597.727 2.6845 -5.38719 0
M  V30 6757 H 601.553 0.382544 -3.01281 0
M  V30 6758 H 599.138 0.122812 -1.48894 0
M  V30 6759 H 601.02 2.83303 -3.11958 0
M  V30 6760 H 599.695 2.58376 -1.94996 0
M  V30 6761 H 598.602 0.970039 -3.61305 0
M  V30 6762 H 599.935 1.29528 -4.74851 0
M  V30 6763 N 601.587 1.56661 0.17182 0
M  V30 6764 C 602.517 1.99401 1.21498 0
M  V30 6765 C 603.498 0.869516 1.46197 0
M  V30 6766 O 604.683 1.13556 1.57539 0
M  V30 6767 C 601.813 2.35346 2.55401 0
M  V30 6768 C 600.767 3.5075 2.45272 0
M  V30 6769 C 600.093 3.72437 3.8366 0
M  V30 6770 C 601.393 4.84216 1.95787 0
M  V30 6771 H 603.087 2.86792 0.859699 0
M  V30 6772 H 600.633 1.37977 0.412103 0
M  V30 6773 H 602.586 2.63843 3.2858 0
M  V30 6774 H 601.31 1.44864 2.92715 0
M  V30 6775 H 599.969 3.2238 1.74547 0
M  V30 6776 H 599.617 2.79246 4.18367 0
M  V30 6777 H 599.317 4.50087 3.77751 0
M  V30 6778 H 600.841 4.03334 4.58426 0
M  V30 6779 H 602.255 5.11592 2.5874 0
M  V30 6780 H 600.652 5.65498 2.00827 0
M  V30 6781 H 601.722 4.76243 0.912159 0
M  V30 6782 N 603.065 -0.440357 1.51323 0
M  V30 6783 C 604.312 -1.19004 1.63842 0
M  V30 6784 C 604.64 -1.91266 0.35321 0
M  V30 6785 O 603.895 -1.84143 -0.662565 0
M  V30 6786 C 604.194 -2.2339 2.78984 0
M  V30 6787 C 603.86 -1.68162 4.18369 0
M  V30 6788 C 602.522 -1.52823 4.56288 0
M  V30 6789 C 604.874 -1.27524 5.05358 0
M  V30 6790 C 602.202 -0.953157 5.78906 0
M  V30 6791 C 604.554 -0.714474 6.28552 0
M  V30 6792 C 603.218 -0.547961 6.65247 0
M  V30 6793 H 602.488 -0.435468 0.59954 0
M  V30 6794 H 605.135 -0.481538 1.85347 0
M  V30 6795 H 603.44 -3.00267 2.51688 0
M  V30 6796 H 605.137 -2.81211 2.85869 0
M  V30 6797 H 601.727 -1.81077 3.8847 0
M  V30 6798 H 605.911 -1.38197 4.76671 0
M  V30 6799 H 601.167 -0.811882 6.05986 0
M  V30 6800 H 605.341 -0.391059 6.95301 0
M  V30 6801 H 602.968 -0.100222 7.60134 0
M  V30 6802 N 604.543 -1.41418 -0.695603 0
M  V30 6803 C 605.453 -1.45622 -1.83933 0
M  V30 6804 C 606.469 -0.346825 -1.70508 0
M  V30 6805 O 607.645 -0.59454 -1.92424 0
M  V30 6806 C 604.71 -1.33627 -3.19914 0
M  V30 6807 C 603.771 -2.54882 -3.45447 0
M  V30 6808 C 603.004 -2.43449 -4.7494 0
M  V30 6809 O 603.227 -1.45905 -5.51424 0
M  V30 6810 O 602.161 -3.33206 -5.01256 0
M  V30 6811 H 605.987 -2.42114 -1.83342 0
M  V30 6812 H 603.572 -1.22956 -0.848658 0
M  V30 6813 H 605.454 -1.29221 -4.01098 0
M  V30 6814 H 604.129 -0.402508 -3.21188 0
M  V30 6815 H 603.036 -2.64865 -2.64192 0
M  V30 6816 H 604.369 -3.47087 -3.48987 0
M  V30 6817 N 606.021 0.929856 -1.27246 0
M  V30 6818 C 606.968 2.03017 -1.09785 0
M  V30 6819 C 607.938 1.661 0.000456744 0
M  V30 6820 O 609.123 1.90116 -0.161462 0
M  V30 6821 C 606.263 3.36878 -0.748816 0
M  V30 6822 C 605.376 3.86763 -1.92453 0
M  V30 6823 C 604.511 5.09061 -1.51758 0
M  V30 6824 C 603.55 5.51237 -2.66091 0
M  V30 6825 N 602.687 6.64732 -2.25999 0
M  V30 6826 H 607.527 2.17285 -2.03939 0
M  V30 6827 H 605.064 1.06448 -1.01524 0
M  V30 6828 H 607.022 4.13855 -0.527283 0
M  V30 6829 H 605.652 3.22424 0.155771 0
M  V30 6830 H 604.704 3.06086 -2.25867 0
M  V30 6831 H 606.016 4.13994 -2.78227 0
M  V30 6832 H 605.17 5.93532 -1.25716 0
M  V30 6833 H 603.909 4.83602 -0.630896 0
M  V30 6834 H 602.914 4.65316 -2.92849 0
M  V30 6835 H 604.139 5.78692 -3.55377 0
M  V30 6836 H 602.085 6.40935 -1.3978 0
M  V30 6837 H 602.002 6.91607 -3.05313 0
M  V30 6838 H 603.27 7.52549 -2.03199 0
M  V30 6839 N 607.499 1.09233 1.13605 0
M  V30 6840 C 608.462 0.733553 2.17144 0
M  V30 6841 C 609.462 -0.235873 1.59061 0
M  V30 6842 O 610.652 -0.0143167 1.74194 0
M  V30 6843 C 607.784 0.084471 3.40795 0
M  V30 6844 H 608.977 1.65049 2.50397 0
M  V30 6845 H 606.53 0.891264 1.28399 0
M  V30 6846 H 607.265 -0.843795 3.1313 0
M  V30 6847 H 607.05 0.781985 3.84223 0
M  V30 6848 H 608.54 -0.151216 4.17326 0
M  V30 6849 N 608.977 -1.30795 0.87923 0
M  V30 6850 C 609.924 -2.28282 0.339968 0
M  V30 6851 C 610.894 -1.56134 -0.566685 0
M  V30 6852 O 612.079 -1.84231 -0.496338 0
M  V30 6853 C 609.219 -3.42225 -0.444501 0
M  V30 6854 C 608.332 -4.29204 0.490717 0
M  V30 6855 C 607.467 -5.30302 -0.308784 0
M  V30 6856 C 606.506 -6.08929 0.622272 0
M  V30 6857 N 605.643 -7.01957 -0.14155 0
M  V30 6858 H 610.483 -2.73794 1.17647 0
M  V30 6859 H 608.02 -1.34682 0.591527 0
M  V30 6860 H 609.978 -4.07038 -0.915186 0
M  V30 6861 H 608.608 -2.97799 -1.24562 0
M  V30 6862 H 607.66 -3.6475 1.07988 0
M  V30 6863 H 608.972 -4.84045 1.20425 0
M  V30 6864 H 608.126 -6.00835 -0.841575 0
M  V30 6865 H 606.865 -4.7614 -1.05556 0
M  V30 6866 H 605.87 -5.37278 1.16674 0
M  V30 6867 H 607.095 -6.65178 1.36804 0
M  V30 6868 H 605.041 -6.50192 -0.870966 0
M  V30 6869 H 604.958 -7.54261 0.51246 0
M  V30 6870 H 606.226 -7.76741 -0.655271 0
M  V30 6871 N 610.455 -0.639598 -1.44038 0
M  V30 6872 C 611.387 0.0987684 -2.28987 0
M  V30 6873 C 612.4 0.80058 -1.41755 0
M  V30 6874 O 613.589 0.660611 -1.65826 0
M  V30 6875 C 610.689 1.16242 -3.18341 0
M  V30 6876 C 609.862 0.541447 -4.34036 0
M  V30 6877 C 608.921 1.50017 -5.04362 0
M  V30 6878 O 607.947 1.01403 -5.60095 0
M  V30 6879 N 609.149 2.83441 -5.06598 0
M  V30 6880 H 611.914 -0.630305 -2.92997 0
M  V30 6881 H 609.475 -0.481376 -1.54578 0
M  V30 6882 H 611.467 1.80429 -3.62253 0
M  V30 6883 H 610.037 1.79362 -2.56024 0
M  V30 6884 H 609.257 -0.27923 -3.9321 0
M  V30 6885 H 610.545 0.107379 -5.08687 0
M  V30 6886 H 609.943 3.2551 -4.62666 0
M  V30 6887 H 608.5 3.42966 -5.54272 0
M  V30 6888 N 611.933 1.52934 -0.380664 0
M  V30 6889 C 612.881 2.27727 0.47361 0
M  V30 6890 C 613.875 1.31288 1.0705 0
M  V30 6891 O 615.081 1.4886 1.01197 0
M  V30 6892 H 611.456 0.732189 0.171475 0
M  V30 6893 H 613.427 2.97864 -0.178785 0
M  V30 6894 C 612.176 3.0904 1.59341 0
M  V30 6895 H 611.499 3.831 1.14343 0
M  V30 6896 H 612.939 3.64527 2.16555 0
M  V30 6897 C 611.398 2.20813 2.54447 0
M  V30 6898 O 611.928 1.82907 3.57642 0
M  V30 6899 N 610.134 1.85145 2.23986 0
M  V30 6900 H 609.681 2.16169 1.40103 0
M  V30 6901 H 609.639 1.26402 2.87871 0
M  V30 6902 N 613.412 0.11024 1.57214 0
M  V30 6903 C 614.36 -0.860586 2.16094 0
M  V30 6904 C 615.354 -1.28156 1.1078 0
M  V30 6905 O 616.56 -1.25433 1.29099 0
M  V30 6906 H 612.935 -0.295606 0.691463 0
M  V30 6907 H 614.906 -0.33942 2.96463 0
M  V30 6908 C 613.655 -2.10421 2.768 0
M  V30 6909 H 612.978 -1.7892 3.5753 0
M  V30 6910 H 614.418 -2.76375 3.21547 0
M  V30 6911 C 612.877 -2.88823 1.73444 0
M  V30 6912 O 613.407 -3.839 1.18251 0
M  V30 6913 N 611.613 -2.52649 1.43586 0
M  V30 6914 H 611.16 -1.754 1.8866 0
M  V30 6915 H 611.118 -3.05403 0.746735 0
M  V30 6916 N 614.89 -1.56749 -0.16351 0
M  V30 6917 C 615.838 -1.97939 -1.22159 0
M  V30 6918 C 616.832 -0.869288 -1.45395 0
M  V30 6919 O 618.038 -1.05443 -1.45883 0
M  V30 6920 H 614.413 -0.629869 -0.410815 0
M  V30 6921 H 616.384 -2.86115 -0.847381 0
M  V30 6922 C 615.133 -2.36206 -2.55151 0
M  V30 6923 H 614.456 -3.2117 -2.38097 0
M  V30 6924 H 615.896 -2.68863 -3.27854 0
M  V30 6925 C 614.355 -1.20841 -3.14482 0
M  V30 6926 O 614.885 -0.500258 -3.98573 0
M  V30 6927 N 613.091 -0.976943 -2.73686 0
M  V30 6928 H 612.638 -1.55457 -2.05404 0
M  V30 6929 H 612.596 -0.206912 -3.13718 0
M  V30 6930 N 616.368 0.432326 -1.51554 0
M  V30 6931 C 617.316 1.54572 -1.73811 0
M  V30 6932 C 618.31 1.58246 -0.604539 0
M  V30 6933 O 619.516 1.6193 -0.786041 0
M  V30 6934 H 615.891 0.513626 -0.549265 0
M  V30 6935 H 617.862 1.32977 -2.67132 0
M  V30 6936 C 616.611 2.92181 -1.88483 0
M  V30 6937 H 615.934 2.90088 -2.75116 0
M  V30 6938 H 617.374 3.69439 -2.08065 0
M  V30 6939 C 615.833 3.3065 -0.645909 0
M  V30 6940 O 616.363 4.01216 0.197093 0
M  V30 6941 N 614.569 2.86464 -0.488538 0
M  V30 6942 H 614.116 2.29209 -1.17562 0
M  V30 6943 H 614.074 3.12565 0.339156 0
M  V30 6944 N 617.846 1.41785 0.688094 0
M  V30 6945 C 619.262 1.24419 0.999608 0
M  V30 6946 C 619.462 0.138868 2.01021 0
M  V30 6947 O 618.518 -0.494283 2.47615 0
M  V30 6948 C 619.831 2.59625 1.51709 0
M  V30 6949 C 621.379 2.66869 1.63554 0
M  V30 6950 C 621.854 4.0241 2.18702 0
M  V30 6951 N 623.345 4.04295 2.26053 0
M  V30 6952 C 624.08 5.05977 2.69768 0
M  V30 6953 N 623.576 6.18047 3.13033 0
M  V30 6954 N 625.369 4.93336 2.69398 0
M  V30 6955 H 617.52 2.12392 0.0187427 0
M  V30 6956 H 619.783 0.945347 0.0708673 0
M  V30 6957 H 619.489 3.41297 0.849059 0
M  V30 6958 H 619.363 2.82628 2.49803 0
M  V30 6959 H 621.75 1.8555 2.29467 0
M  V30 6960 H 621.831 2.47668 0.639857 0
M  V30 6961 H 621.475 4.8418 1.53402 0
M  V30 6962 H 621.405 4.18955 3.19037 0
M  V30 6963 H 623.896 3.23383 1.9553 0
M  V30 6964 H 624.209 6.91498 3.45038 0
M  V30 6965 H 622.554 6.21572 3.10923 0
M  V30 6966 H 625.745 4.04865 2.34952 0
M  V30 6967 H 625.918 5.72717 3.03148 0
M  V30 6968 N 619.324 -0.923095 1.27737 0
M  V30 6969 C 620.271 -2.02432 1.1086 0
M  V30 6970 C 621.241 -1.66098 0.00835195 0
M  V30 6971 O 622.426 -1.90027 0.171542 0
M  V30 6972 C 619.566 -3.36476 0.766671 0
M  V30 6973 C 618.679 -3.85737 1.94501 0
M  V30 6974 C 617.814 -5.08249 1.54455 0
M  V30 6975 C 616.853 -5.49818 2.6901 0
M  V30 6976 N 615.99 -6.63524 2.29521 0
M  V30 6977 H 620.83 -2.16201 2.05089 0
M  V30 6978 H 618.367 -1.05909 1.02087 0
M  V30 6979 H 620.325 -4.13569 0.549223 0
M  V30 6980 H 618.955 -3.22502 -0.13867 0
M  V30 6981 H 618.007 -3.04883 2.27487 0
M  V30 6982 H 619.319 -4.12513 2.80419 0
M  V30 6983 H 618.473 -5.92857 1.28862 0
M  V30 6984 H 617.212 -4.83261 0.656534 0
M  V30 6985 H 616.217 -4.63757 2.95313 0
M  V30 6986 H 617.442 -5.76799 3.5844 0
M  V30 6987 H 615.388 -6.40185 1.43177 0
M  V30 6988 H 615.305 -6.89978 3.08977 0
M  V30 6989 H 616.573 -7.51461 2.07187 0
M  V30 6990 N 620.802 -1.09834 -1.13024 0
M  V30 6991 C 622.03 -0.858902 -1.8823 0
M  V30 6992 C 622.445 0.590164 -1.79339 0
M  V30 6993 O 621.802 1.4065 -1.16292 0
M  V30 6994 C 621.853 -1.29066 -3.37675 0
M  V30 6995 O 621.574 -2.6829 -3.46341 0
M  V30 6996 C 623.075 -1.08421 -4.29837 0
M  V30 6997 H 620.295 -0.308713 -0.595766 0
M  V30 6998 H 622.839 -1.4614 -1.4305 0
M  V30 6999 H 620.994 -0.731961 -3.80422 0
M  V30 7000 H 621.408 -2.86598 -4.39274 0
M  V30 7001 H 622.882 -1.43553 -5.33007 0
M  V30 7002 H 623.359 -0.0223315 -4.39194 0
M  V30 7003 H 623.965 -1.62907 -3.92863 0
M  V30 7004 N 622.28 1.30327 -0.886154 0
M  V30 7005 C 623.505 2.0079 -0.519425 0
M  V30 7006 C 623.93 1.65979 0.885013 0
M  V30 7007 O 623.288 0.877043 1.58675 0
M  V30 7008 C 623.336 3.53686 -0.702758 0
M  V30 7009 O 622.44 4.11637 0.250828 0
M  V30 7010 H 621.781 0.63171 -0.204544 0
M  V30 7011 H 624.311 1.66145 -1.19402 0
M  V30 7012 H 624.321 4.03531 -0.602207 0
M  V30 7013 H 622.996 3.78361 -1.72673 0
M  V30 7014 H 621.573 3.72755 0.103873 0
M  V30 7015 N 623.758 0.647228 1.43697 0
M  V30 7016 C 624.706 -0.0600105 2.32523 0
M  V30 7017 C 625.7 -0.819277 1.48271 0
M  V30 7018 O 626.906 -0.730356 1.64517 0
M  V30 7019 H 623.281 -0.0381872 0.75103 0
M  V30 7020 H 625.252 0.706978 2.89904 0
M  V30 7021 C 624.001 -1.0169 3.32497 0
M  V30 7022 H 623.324 -0.442083 3.97348 0
M  V30 7023 H 624.764 -1.48095 3.97296 0
M  V30 7024 C 623.223 -2.11002 2.6264 0
M  V30 7025 O 623.753 -3.19302 2.4374 0
M  V30 7026 N 621.959 -1.87388 2.22113 0
M  V30 7027 H 621.506 -0.993174 2.37684 0
M  V30 7028 H 621.464 -2.60723 1.75701 0
M  V30 7029 N 625.236 -1.5273 0.388769 0
M  V30 7030 C 626.484 -2.01174 -0.193208 0
M  V30 7031 C 626.805 -1.27705 -1.47365 0
M  V30 7032 O 626.075 -0.396966 -1.91836 0
M  V30 7033 H 624.655 -0.743287 -0.0743871 0
M  V30 7034 H 627.317 -1.87826 0.520336 0
M  V30 7035 H 626.413 -3.09477 -0.403803 0
M  V30 7036 N 626.714 -0.118576 -1.57153 0
M  V30 7037 C 627.991 0.583062 -1.86708 0
M  V30 7038 C 628.371 1.84841 -1.01967 0
M  V30 7039 O 627.719 2.28288 -0.0984673 0
M  V30 7040 C 627.929 0.875912 -3.3783 0
M  V30 7041 C 629.277 1.22916 -4.0642 0
M  V30 7042 O 630.301 0.966188 -3.42846 0
M  V30 7043 O 629.16 1.72269 -5.18638 0
M  V30 7044 H 626.254 0.294185 -0.772906 0
M  V30 7045 H 628.8 -0.153048 -1.69008 0
M  V30 7046 H 627.572 -0.0207776 -3.91294 0
M  V30 7047 H 627.195 1.66719 -3.60958 0
M  V30 7048 N 628.193 1.56834 0.155195 0
M  V30 7049 C 629.47 1.73799 0.897395 0
M  V30 7050 C 629.85 0.684379 1.99698 0
M  V30 7051 O 629.198 -0.298111 2.26547 0
M  V30 7052 C 629.408 3.17572 1.44737 0
M  V30 7053 C 630.756 3.79014 1.91399 0
M  V30 7054 O 631.78 3.20951 1.54496 0
M  V30 7055 O 630.639 4.80998 2.59429 0
M  V30 7056 H 627.733 0.710329 0.423511 0
M  V30 7057 H 630.279 1.69107 0.141761 0
M  V30 7058 H 629.051 3.85749 0.656741 0
M  V30 7059 H 628.674 3.26657 2.26674 0
M  V30 7060 N 629.671 -0.424282 1.51781 0
M  V30 7061 C 630.896 -1.19928 1.6921 0
M  V30 7062 C 631.321 -1.8392 0.394355 0
M  V30 7063 O 630.679 -1.69371 -0.646778 0
M  V30 7064 C 630.727 -2.24937 2.81843 0
M  V30 7065 O 629.831 -3.3073 2.46356 0
M  V30 7066 H 629.172 -0.35078 0.563781 0
M  V30 7067 H 631.702 -0.499401 1.98412 0
M  V30 7068 H 631.712 -2.69512 3.06312 0
M  V30 7069 H 630.387 -1.77742 3.76006 0
M  V30 7070 H 628.964 -2.9154 2.32505 0
M  V30 7071 N 631.149 -1.42148 -0.680565 0
M  V30 7072 C 632.079 -1.4796 -1.80638 0
M  V30 7073 C 633.06 -0.336728 -1.66734 0
M  V30 7074 O 634.245 -0.550247 -1.86242 0
M  V30 7075 C 631.375 -1.37569 -3.18892 0
M  V30 7076 C 630.329 -2.49823 -3.47524 0
M  V30 7077 C 629.655 -2.24491 -4.85291 0
M  V30 7078 C 630.955 -3.92144 -3.44994 0
M  V30 7079 H 632.649 -2.42184 -1.76032 0
M  V30 7080 H 630.195 -1.16566 -0.845481 0
M  V30 7081 H 632.148 -1.40243 -3.97379 0
M  V30 7082 H 630.872 -0.398357 -3.24162 0
M  V30 7083 H 629.531 -2.46455 -2.71395 0
M  V30 7084 H 629.179 -1.25066 -4.87204 0
M  V30 7085 H 628.879 -2.99722 -5.05411 0
M  V30 7086 H 630.403 -2.28906 -5.66069 0
M  V30 7087 H 631.817 -3.97145 -4.13459 0
M  V30 7088 H 630.214 -4.67179 -3.76648 0
M  V30 7089 H 631.284 -4.19225 -2.43676 0
M  V30 7090 N 632.627 0.916307 -1.28225 0
M  V30 7091 C 633.874 1.66518 -1.1523 0
M  V30 7092 C 634.202 1.92178 0.299632 0
M  V30 7093 O 633.457 1.51842 1.2346 0
M  V30 7094 C 633.756 3.03125 -1.8934 0
M  V30 7095 C 633.422 2.97135 -3.39148 0
M  V30 7096 C 632.084 2.95208 -3.80007 0
M  V30 7097 C 634.436 2.87574 -4.34685 0
M  V30 7098 C 631.764 2.81518 -5.14747 0
M  V30 7099 C 634.116 2.75424 -5.69495 0
M  V30 7100 C 632.78 2.71854 -6.09632 0
M  V30 7101 H 632.05 0.609334 -0.421655 0
M  V30 7102 H 634.697 1.06776 -1.58969 0
M  V30 7103 H 633.002 3.66639 -1.38143 0
M  V30 7104 H 634.699 3.59968 -1.76704 0
M  V30 7105 H 631.289 2.99428 -3.06661 0
M  V30 7106 H 635.473 2.88152 -4.04082 0
M  V30 7107 H 630.729 2.77148 -5.44976 0
M  V30 7108 H 634.903 2.66993 -6.43185 0
M  V30 7109 H 632.53 2.61003 -7.1399 0
M  V30 7110 N 634.105 1.10431 1.1244 0
M  V30 7111 C 635.352 0.846717 1.83948 0
M  V30 7112 C 635.68 -0.627709 1.84093 0
M  V30 7113 O 634.935 -1.47876 1.28184 0
M  V30 7114 C 635.234 1.34022 3.3132 0
M  V30 7115 C 634.9 2.82606 3.51347 0
M  V30 7116 C 633.562 3.23182 3.56521 0
M  V30 7117 C 635.914 3.78356 3.58464 0
M  V30 7118 C 633.242 4.58258 3.66356 0
M  V30 7119 C 635.594 5.13234 3.69829 0
M  V30 7120 C 634.258 5.53384 3.73259 0
M  V30 7121 H 633.528 0.309836 0.673114 0
M  V30 7122 H 636.175 1.38091 1.32677 0
M  V30 7123 H 634.48 0.726047 3.85014 0
M  V30 7124 H 636.177 1.11739 3.85118 0
M  V30 7125 H 632.767 2.50212 3.47983 0
M  V30 7126 H 636.951 3.48115 3.53737 0
M  V30 7127 H 632.207 4.88787 3.67284 0
M  V30 7128 H 636.381 5.87272 3.74279 0
M  V30 7129 H 634.008 6.58045 3.80633 0
M  V30 7130 N 635.583 -1.29855 0.893053 0
M  V30 7131 C 636.808 -2.00512 0.530066 0
M  V30 7132 C 637.233 -1.66446 -0.876199 0
M  V30 7133 O 636.591 -0.885446 -1.58207 0
M  V30 7134 C 636.639 -3.53308 0.721505 0
M  V30 7135 O 635.743 -4.11764 -0.228994 0
M  V30 7136 H 635.084 -0.630617 0.207891 0
M  V30 7137 H 637.614 -1.6551 1.20282 0
M  V30 7138 H 637.624 -4.03206 0.623599 0
M  V30 7139 H 636.299 -3.77439 1.74678 0
M  V30 7140 H 634.876 -3.72805 -0.0841034 0
M  V30 7141 N 637.061 -0.65484 -1.43351 0
M  V30 7142 C 638.009 0.0476784 -2.32551 0
M  V30 7143 C 639.003 0.811403 -1.48703 0
M  V30 7144 O 640.209 0.721621 -1.64902 0
M  V30 7145 H 636.584 0.0342038 -0.751222 0
M  V30 7146 H 638.555 -0.722342 -2.89525 0
M  V30 7147 C 637.304 0.999251 -3.33032 0
M  V30 7148 H 636.627 0.421005 -3.97577 0
M  V30 7149 H 638.067 1.45986 -3.98076 0
M  V30 7150 C 636.526 2.09606 -2.63756 0
M  V30 7151 O 637.056 3.18004 -2.4543 0
M  V30 7152 N 635.262 1.86207 -2.23103 0
M  V30 7153 H 634.809 0.980555 -2.38208 0
M  V30 7154 H 634.767 2.59787 -1.77081 0
M  V30 7155 N 638.539 1.52521 -0.396863 0
M  V30 7156 C 639.786 2.01672 0.182898 0
M  V30 7157 C 640.114 1.28302 1.46181 0
M  V30 7158 O 639.369 0.374118 1.92091 0
M  V30 7159 C 639.668 3.5403 0.489677 0
M  V30 7160 C 639.334 4.45456 -0.698581 0
M  V30 7161 C 637.996 4.70166 -1.02454 0
M  V30 7162 C 640.348 4.99354 -1.49316 0
M  V30 7163 C 637.676 5.46024 -2.1465 0
M  V30 7164 C 640.028 5.76439 -2.60579 0
M  V30 7165 C 638.692 5.99426 -2.93675 0
M  V30 7166 H 637.962 0.737971 0.066927 0
M  V30 7167 H 640.609 1.83853 -0.535764 0
M  V30 7168 H 638.914 3.69963 1.28976 0
M  V30 7169 H 640.611 3.8956 0.951018 0
M  V30 7170 H 637.201 4.26392 -0.434525 0
M  V30 7171 H 641.385 4.80182 -1.25457 0
M  V30 7172 H 636.641 5.62046 -2.40654 0
M  V30 7173 H 640.815 6.17202 -3.22544 0
M  V30 7174 H 638.442 6.57988 -3.80731 0
M  V30 7175 N 640.017 0.126909 1.57088 0
M  V30 7176 C 641.242 -0.53997 2.00248 0
M  V30 7177 C 641.667 -1.58927 1.00618 0
M  V30 7178 O 641.025 -1.81288 -0.0210131 0
M  V30 7179 C 641.073 -1.13565 3.4225 0
M  V30 7180 O 640.177 -2.25103 3.45547 0
M  V30 7181 H 639.518 -0.13412 0.650314 0
M  V30 7182 H 642.048 0.217718 2.03438 0
M  V30 7183 H 642.058 -1.46925 3.80627 0
M  V30 7184 H 640.733 -0.367122 4.14277 0
M  V30 7185 H 639.31 -1.93123 3.18995 0
M  V30 7186 N 641.495 -1.56914 -0.146875 0
M  V30 7187 C 642.425 -2.01308 -1.1831 0
M  V30 7188 C 643.406 -0.892664 -1.44795 0
M  V30 7189 O 644.591 -1.16048 -1.55713 0
M  V30 7190 C 641.721 -2.3938 -2.51624 0
M  V30 7191 C 640.675 -3.54608 -2.3966 0
M  V30 7192 C 640.001 -3.78493 -3.77686 0
M  V30 7193 C 641.301 -4.87269 -1.88058 0
M  V30 7194 H 642.995 -2.88123 -0.813964 0
M  V30 7195 H 640.541 -1.38615 -0.3901 0
M  V30 7196 H 642.494 -2.69037 -3.24341 0
M  V30 7197 H 641.218 -1.49502 -2.90373 0
M  V30 7198 H 639.877 -3.25116 -1.69396 0
M  V30 7199 H 639.525 -2.85866 -4.13871 0
M  V30 7200 H 639.225 -4.56039 -3.70543 0
M  V30 7201 H 640.749 -4.10576 -4.51951 0
M  V30 7202 H 642.163 -5.15644 -2.50568 0
M  V30 7203 H 640.56 -5.68622 -1.91805 0
M  V30 7204 H 641.63 -4.77634 -0.836277 0
M  V30 7205 N 642.974 0.416227 -1.52004 0
M  V30 7206 C 643.904 1.51365 -1.77795 0
M  V30 7207 C 644.885 1.58059 -0.628601 0
M  V30 7208 O 646.07 1.73447 -0.873478 0
M  V30 7209 C 643.2 2.89256 -1.92219 0
M  V30 7210 C 642.154 2.97415 -3.0778 0
M  V30 7211 C 641.48 4.37492 -3.07417 0
M  V30 7212 C 642.78 2.69551 -4.47369 0
M  V30 7213 H 644.474 1.30033 -2.69688 0
M  V30 7214 H 642.02 0.624112 -1.29772 0
M  V30 7215 H 643.973 3.66008 -2.08845 0
M  V30 7216 H 642.697 3.11866 -0.969917 0
M  V30 7217 H 641.356 2.23107 -2.90893 0
M  V30 7218 H 641.004 4.571 -2.09925 0
M  V30 7219 H 640.704 4.43877 -3.85029 0
M  V30 7220 H 642.228 5.16188 -3.26162 0
M  V30 7221 H 643.642 3.36028 -4.64497 0
M  V30 7222 H 642.039 2.87321 -5.26846 0
M  V30 7223 H 643.109 1.65029 -4.55953 0
M  V30 7224 N 644.452 1.42507 0.673017 0
M  V30 7225 C 645.7 1.42789 1.43023 0
M  V30 7226 C 646.021 0.0459738 1.94946 0
M  V30 7227 O 645.291 -0.915765 1.73178 0
M  V30 7228 H 643.871 0.525657 0.530748 0
M  V30 7229 H 646.533 1.77944 0.795113 0
M  V30 7230 H 645.629 2.12872 2.28237 0
M  V30 7231 N 645.93 -0.909495 1.28709 0
M  V30 7232 C 647.158 -1.69272 1.18973 0
M  V30 7233 C 647.573 -1.87123 -0.251048 0
M  V30 7234 O 646.93 -1.40127 -1.16922 0
M  V30 7235 C 646.981 -3.08257 1.88839 0
M  V30 7236 O 646.702 -2.91228 3.27289 0
M  V30 7237 C 648.203 -4.02642 1.85457 0
M  V30 7238 H 645.423 -0.528999 0.412797 0
M  V30 7239 H 647.967 -1.13803 1.69909 0
M  V30 7240 H 646.122 -3.6053 1.41762 0
M  V30 7241 H 646.536 -3.79223 3.6234 0
M  V30 7242 H 648.01 -4.97613 2.38925 0
M  V30 7243 H 648.487 -4.31327 0.827893 0
M  V30 7244 H 649.093 -3.56298 2.32233 0
M  V30 7245 N 647.408 -1.11026 -1.11852 0
M  V30 7246 C 648.819 -0.873203 -1.65021 0
M  V30 7247 C 649.17 0.595364 -1.86949 0
M  V30 7248 O 648.295 1.45645 -1.60051 0
M  V30 7249 C 648.89 -1.57859 -2.99777 0
M  V30 7250 C 647.449 -1.38807 -3.49871 0
M  V30 7251 C 646.596 -1.62403 -2.24768 0
M  V30 7252 H 649.547 -1.26712 -0.955503 0
M  V30 7253 H 649.568 -1.02111 -3.66543 0
M  V30 7254 H 649.08 -2.6474 -2.83786 0
M  V30 7255 H 647.181 -0.341163 -3.71035 0
M  V30 7256 H 647.294 -2.13421 -4.28938 0
M  V30 7257 H 645.658 -1.04714 -2.32179 0
M  V30 7258 H 646.441 -2.70549 -2.11324 0
M  V30 7259 N 648.886 1.2938 -0.899927 0
M  V30 7260 C 650.132 1.9584 -0.526742 0
M  V30 7261 C 650.465 1.70774 0.924651 0
M  V30 7262 O 649.74 1.02084 1.65557 0
M  V30 7263 C 650.023 3.50638 -0.820062 0
M  V30 7264 C 649.876 3.85161 -2.32317 0
M  V30 7265 C 651.195 4.3903 -0.30671 0
M  V30 7266 H 648.314 0.711322 -0.192848 0
M  V30 7267 H 650.956 1.52992 -1.12665 0
M  V30 7268 H 649.106 3.87265 -0.309491 0
M  V30 7269 H 650.778 3.58477 -2.9033 0
M  V30 7270 H 649.021 3.32696 -2.78381 0
M  V30 7271 H 649.692 4.93204 -2.47898 0
M  V30 7272 H 652.168 4.09396 -0.743908 0
M  V30 7273 H 651.044 5.46226 -0.541144 0
M  V30 7274 H 651.305 4.34937 0.792588 0
M  V30 7275 N 650.364 0.662433 1.43002 0
M  V30 7276 C 651.294 -0.00979809 2.33498 0
M  V30 7277 C 652.275 -0.802329 1.49989 0
M  V30 7278 O 653.46 -0.761964 1.78627 0
M  V30 7279 C 650.59 -0.970446 3.33466 0
M  V30 7280 C 649.544 -0.287383 4.27034 0
M  V30 7281 C 648.87 -1.36012 5.17112 0
M  V30 7282 C 650.17 0.82595 5.15728 0
M  V30 7283 H 651.864 0.745959 2.89958 0
M  V30 7284 H 649.41 0.360172 1.39423 0
M  V30 7285 H 651.363 -1.44971 3.95679 0
M  V30 7286 H 650.087 -1.75748 2.75282 0
M  V30 7287 H 648.746 0.17152 3.66199 0
M  V30 7288 H 648.394 -2.13882 4.55262 0
M  V30 7289 H 648.094 -0.908276 5.80538 0
M  V30 7290 H 649.618 -1.84056 5.82199 0
M  V30 7291 H 651.032 0.42845 5.71697 0
M  V30 7292 H 649.429 1.20282 5.87922 0
M  V30 7293 H 650.499 1.68003 4.54866 0
M  V30 7294 N 651.842 -1.52309 0.404946 0
M  V30 7295 C 652.789 -2.26898 -0.422597 0
M  V30 7296 C 653.759 -1.2914 -1.04461 0
M  V30 7297 O 654.944 -1.57996 -1.06967 0
M  V30 7298 C 652.084 -3.09053 -1.53559 0
M  V30 7299 C 651.197 -4.21762 -0.934908 0
M  V30 7300 C 650.332 -4.91283 -2.02025 0
M  V30 7301 C 649.371 -5.95962 -1.39628 0
M  V30 7302 N 648.508 -6.59017 -2.42159 0
M  V30 7303 H 653.348 -2.97188 0.219903 0
M  V30 7304 H 650.885 -1.46607 0.120282 0
M  V30 7305 H 652.843 -3.54987 -2.19181 0
M  V30 7306 H 651.473 -2.40942 -2.14818 0
M  V30 7307 H 650.525 -3.80029 -0.167854 0
M  V30 7308 H 651.837 -4.96864 -0.439073 0
M  V30 7309 H 650.991 -5.40601 -2.75383 0
M  V30 7310 H 649.73 -4.15741 -2.54973 0
M  V30 7311 H 648.735 -5.45968 -0.648023 0
M  V30 7312 H 649.96 -6.73445 -0.874553 0
M  V30 7313 H 647.906 -5.86306 -2.94247 0
M  V30 7314 H 647.823 -7.2978 -1.97376 0
M  V30 7315 H 649.091 -7.12974 -3.15099 0
M  V30 7316 N 653.32 -0.135238 -1.57019 0
M  V30 7317 C 654.597 0.563227 -1.87316 0
M  V30 7318 C 654.977 1.83749 -1.03921 0
M  V30 7319 O 654.325 2.2817 -0.122675 0
M  V30 7320 C 654.535 0.840031 -3.3874 0
M  V30 7321 C 655.883 1.18598 -4.077 0
M  V30 7322 O 656.907 0.92977 -3.43851 0
M  V30 7323 O 655.766 1.66758 -5.20436 0
M  V30 7324 H 652.86 0.285971 -0.775983 0
M  V30 7325 H 655.406 -0.170965 -1.68837 0
M  V30 7326 H 654.178 -0.0622785 -3.9125 0
M  V30 7327 H 653.801 1.62882 -3.62706 0
M  V30 7328 N 654.798 1.5699 0.138552 0
M  V30 7329 C 656.047 1.82998 0.848205 0
M  V30 7330 C 656.36 0.717829 1.81952 0
M  V30 7331 O 657.566 0.863756 2.57394 0
M  V30 7332 C 656.022 3.24379 1.55904 0
M  V30 7333 C 655.63 4.43552 0.62971 0
M  V30 7334 C 657.374 3.59654 2.25498 0
M  V30 7335 C 655.281 5.75957 1.34266 0
M  V30 7336 H 654.211 0.682495 0.320495 0
M  V30 7337 H 656.862 1.83222 0.100924 0
M  V30 7338 H 655.244 3.18567 2.35226 0
M  V30 7339 H 656.418 4.6062 -0.128882 0
M  V30 7340 H 654.733 4.16379 0.0417526 0
M  V30 7341 H 657.33 4.55837 2.79493 0
M  V30 7342 H 657.673 2.86124 3.02388 0
M  V30 7343 H 658.206 3.67164 1.53087 0
M  V30 7344 H 654.945 6.52604 0.615441 0
M  V30 7345 H 654.465 5.62811 2.07375 0
M  V30 7346 H 656.144 6.19046 1.88126 0
M  V30 7347 N 656.276 -0.40816 1.52223 0
M  V30 7348 C 657.224 -1.51788 1.76248 0
M  V30 7349 C 658.218 -1.57264 0.629638 0
M  V30 7350 O 659.424 -1.60659 0.811704 0
M  V30 7351 H 655.799 -0.504823 0.557367 0
M  V30 7352 H 657.77 -1.2871 2.69214 0
M  V30 7353 C 656.519 -2.89145 1.93107 0
M  V30 7354 H 655.842 -2.85674 2.79697 0
M  V30 7355 H 657.282 -3.66082 2.13916 0
M  V30 7356 C 655.741 -3.29581 0.698431 0
M  V30 7357 O 656.271 -4.01479 -0.133238 0
M  V30 7358 N 654.477 -2.85651 0.53405 0
M  V30 7359 H 654.024 -2.2731 1.21194 0
M  V30 7360 H 653.982 -3.13065 -0.289387 0
M  V30 7361 N 657.755 -1.42862 -0.66545 0
M  V30 7362 C 659.002 -1.4383 -1.42546 0
M  V30 7363 C 659.33 -0.0581114 -1.94413 0
M  V30 7364 O 658.585 0.935002 -1.71919 0
M  V30 7365 C 658.884 -2.4175 -2.63233 0
M  V30 7366 C 658.55 -3.87915 -2.29854 0
M  V30 7367 C 657.212 -4.27726 -2.20463 0
M  V30 7368 C 659.564 -4.80074 -2.02924 0
M  V30 7369 C 656.892 -5.57666 -1.82279 0
M  V30 7370 C 659.244 -6.10366 -1.66242 0
M  V30 7371 C 657.908 -6.49167 -1.55367 0
M  V30 7372 H 657.178 -0.52631 -0.521612 0
M  V30 7373 H 659.825 -1.75863 -0.757914 0
M  V30 7374 H 658.13 -2.03077 -3.35063 0
M  V30 7375 H 659.827 -2.39759 -3.21429 0
M  V30 7376 H 656.417 -3.564 -2.3807 0
M  V30 7377 H 660.601 -4.50097 -2.09108 0
M  V30 7378 H 655.857 -5.8658 -1.72436 0
M  V30 7379 H 660.031 -6.81258 -1.44432 0
M  V30 7380 H 657.658 -7.49761 -1.2555 0
M  V30 7381 N 659.233 0.902656 -1.29189 0
M  V30 7382 C 660.18 2.00643 -1.14066 0
M  V30 7383 C 661.15 1.66064 -0.0347756 0
M  V30 7384 O 662.335 1.8973 -0.201752 0
M  V30 7385 C 659.475 3.35214 -0.820104 0
M  V30 7386 C 658.588 3.82594 -2.00614 0
M  V30 7387 C 657.723 5.05727 -1.62522 0
M  V30 7388 C 656.762 5.45469 -2.77724 0
M  V30 7389 N 655.899 6.59789 -2.40048 0
M  V30 7390 H 660.739 2.1291 -2.08502 0
M  V30 7391 H 658.276 1.04271 -1.03759 0
M  V30 7392 H 660.234 4.12643 -0.614949 0
M  V30 7393 H 658.864 3.22682 0.0873452 0
M  V30 7394 H 657.916 3.01226 -2.32308 0
M  V30 7395 H 659.228 4.07999 -2.86946 0
M  V30 7396 H 658.382 5.90732 -1.38277 0
M  V30 7397 H 657.121 4.82155 -0.733333 0
M  V30 7398 H 656.126 4.59 -3.02653 0
M  V30 7399 H 657.351 5.71024 -3.67572 0
M  V30 7400 H 655.297 6.37826 -1.53343 0
M  V30 7401 H 655.214 6.84975 -3.19914 0
M  V30 7402 H 656.482 7.4807 -2.19116 0
M  V30 7403 N 660.711 1.11618 1.11262 0
M  V30 7404 C 661.96 0.860934 1.82403 0
M  V30 7405 C 662.273 -0.615303 1.8567 0
M  V30 7406 O 663.479 -0.986861 2.52929 0
M  V30 7407 C 661.935 1.49048 3.27586 0
M  V30 7408 C 661.543 3.00089 3.32642 0
M  V30 7409 C 663.287 1.31515 4.03614 0
M  V30 7410 C 661.194 3.56019 4.72234 0
M  V30 7411 H 660.124 0.318423 0.683464 0
M  V30 7412 H 662.775 1.34165 1.25188 0
M  V30 7413 H 661.157 0.937434 3.84744 0
M  V30 7414 H 662.331 3.61813 2.85356 0
M  V30 7415 H 660.646 3.16919 2.70096 0
M  V30 7416 H 663.243 1.70732 5.0671 0
M  V30 7417 H 663.586 0.257917 4.155 0
M  V30 7418 H 664.119 1.83694 3.52848 0
M  V30 7419 H 660.858 4.61463 4.65545 0
M  V30 7420 H 660.378 2.99066 5.19923 0
M  V30 7421 H 662.057 3.54568 5.41193 0
M  V30 7422 N 662.189 -1.289 0.906776 0
M  V30 7423 C 663.099 -2.31256 0.394707 0
M  V30 7424 C 664.115 -1.66231 -0.514121 0
M  V30 7425 O 665.291 -1.97347 -0.401994 0
M  V30 7426 C 662.356 -3.44792 -0.363191 0
M  V30 7427 C 661.417 -4.25391 0.578012 0
M  V30 7428 C 660.65 -5.33506 -0.143811 0
M  V30 7429 O 660.873 -5.53786 -1.36665 0
M  V30 7430 O 659.807 -5.99673 0.5173 0
M  V30 7431 H 663.633 -2.77051 1.24405 0
M  V30 7432 H 661.218 -1.33466 0.671346 0
M  V30 7433 H 663.1 -4.139 -0.791503 0
M  V30 7434 H 661.775 -3.01093 -1.18848 0
M  V30 7435 H 660.682 -3.58899 1.05558 0
M  V30 7436 H 662.015 -4.72752 1.36992 0
M  V30 7437 N 663.667 -0.670007 -1.42649 0
M  V30 7438 C 665.083 -0.33911 -1.55956 0
M  V30 7439 C 665.283 1.1558 -1.65056 0
M  V30 7440 O 664.339 1.94111 -1.61485 0
M  V30 7441 C 665.652 -1.06522 -2.812 0
M  V30 7442 C 667.2 -1.04708 -2.94966 0
M  V30 7443 C 667.675 -1.75442 -4.23065 0
M  V30 7444 N 669.166 -1.72286 -4.29967 0
M  V30 7445 C 669.901 -2.23877 -5.27889 0
M  V30 7446 N 669.397 -2.83829 -6.31991 0
M  V30 7447 N 671.19 -2.14279 -5.19654 0
M  V30 7448 H 663.341 -1.6399 -1.34986 0
M  V30 7449 H 665.604 -0.690603 -0.649439 0
M  V30 7450 H 665.31 -2.12033 -2.80597 0
M  V30 7451 H 665.184 -0.627398 -3.71946 0
M  V30 7452 H 667.571 -0.000315966 -2.951 0
M  V30 7453 H 667.652 -1.52374 -2.05465 0
M  V30 7454 H 667.296 -2.80084 -4.23693 0
M  V30 7455 H 667.226 -1.25229 -5.11493 0
M  V30 7456 H 669.717 -1.28554 -3.55362 0
M  V30 7457 H 670.03 -3.20827 -7.03057 0
M  V30 7458 H 668.375 -2.87896 -6.32567 0
M  V30 7459 H 671.566 -1.67135 -4.37245 0
M  V30 7460 H 671.739 -2.54792 -5.95806 0
M  V30 7461 N 665.145 1.52092 -0.413018 0
M  V30 7462 C 666.393 2.01456 0.161178 0
M  V30 7463 C 666.714 1.30034 1.45314 0
M  V30 7464 O 665.984 0.427435 1.9118 0
M  V30 7465 H 664.564 0.744376 0.0625526 0
M  V30 7466 H 667.226 1.86974 -0.550151 0
M  V30 7467 H 666.322 3.1008 0.354517 0
M  V30 7468 N 666.623 0.143563 1.56945 0
M  V30 7469 C 667.555 -0.828353 2.13708 0
M  V30 7470 C 668.568 -1.21313 1.08568 0
M  V30 7471 O 669.757 -1.1578 1.35857 0
M  V30 7472 C 666.857 -2.12248 2.64204 0
M  V30 7473 C 666.03 -1.90561 3.93707 0
M  V30 7474 C 665.089 -3.03931 4.29549 0
M  V30 7475 O 664.115 -2.75772 4.97934 0
M  V30 7476 N 665.317 -4.31016 3.88852 0
M  V30 7477 H 668.082 -0.343242 2.97728 0
M  V30 7478 H 665.643 -0.0401152 1.6185 0
M  V30 7479 H 667.635 -2.87132 2.85197 0
M  V30 7480 H 666.205 -2.52033 1.84928 0
M  V30 7481 H 665.425 -0.997327 3.81375 0
M  V30 7482 H 666.713 -1.73405 4.78339 0
M  V30 7483 H 666.111 -4.56762 3.33743 0
M  V30 7484 H 664.668 -5.02691 4.14903 0
M  V30 7485 N 668.101 -1.57061 -0.130224 0
M  V30 7486 C 669.031 -2.02552 -1.16168 0
M  V30 7487 C 670.012 -0.907971 -1.4384 0
M  V30 7488 O 671.197 -1.17693 -1.54473 0
M  V30 7489 C 668.327 -2.42035 -2.49071 0
M  V30 7490 C 667.281 -3.5713 -2.35886 0
M  V30 7491 C 666.607 -3.82478 -3.7365 0
M  V30 7492 C 667.907 -4.89236 -1.8288 0
M  V30 7493 H 669.601 -2.8897 -0.783359 0
M  V30 7494 H 667.147 -1.39021 -0.375376 0
M  V30 7495 H 669.1 -2.72462 -3.21469 0
M  V30 7496 H 667.824 -1.52573 -2.88771 0
M  V30 7497 H 666.483 -3.26895 -1.65938 0
M  V30 7498 H 666.131 -2.9024 -4.10816 0
M  V30 7499 H 665.831 -4.59944 -3.65685 0
M  V30 7500 H 667.355 -4.15347 -4.47571 0
M  V30 7501 H 668.769 -5.18272 -2.45085 0
M  V30 7502 H 667.166 -5.70624 -1.85763 0
M  V30 7503 H 668.236 -4.78494 -0.785571 0
M  V30 7504 N 669.579 0.400081 -1.52437 0
M  V30 7505 C 670.509 1.4947 -1.7939 0
M  V30 7506 C 671.49 1.57383 -0.645329 0
M  V30 7507 O 672.675 1.72511 -0.891826 0
M  V30 7508 C 669.805 2.87201 -1.95276 0
M  V30 7509 C 668.759 2.94134 -3.10917 0
M  V30 7510 C 668.085 4.34207 -3.1204 0
M  V30 7511 C 669.385 2.64791 -4.50203 0
M  V30 7512 H 671.079 1.27165 -2.71052 0
M  V30 7513 H 668.625 0.610312 -1.30427 0
M  V30 7514 H 670.578 3.63772 -2.12715 0
M  V30 7515 H 669.302 3.10819 -1.00294 0
M  V30 7516 H 667.961 2.20009 -2.93243 0
M  V30 7517 H 667.609 4.54848 -2.14761 0
M  V30 7518 H 667.309 4.39768 -3.89715 0
M  V30 7519 H 668.833 5.127 -3.31619 0
M  V30 7520 H 670.247 3.31083 -4.68035 0
M  V30 7521 H 668.644 2.81717 -5.29864 0
M  V30 7522 H 669.714 1.60184 -4.57678 0
M  V30 7523 N 671.057 1.43213 0.657864 0
M  V30 7524 C 672.02 1.47687 1.75275 0
M  V30 7525 C 673.02 0.362179 1.56668 0
M  V30 7526 O 674.21 0.623734 1.62651 0
M  V30 7527 C 671.342 1.32497 3.14098 0
M  V30 7528 H 672.535 2.4519 1.7269 0
M  V30 7529 H 670.088 1.2991 0.869087 0
M  V30 7530 H 670.823 0.359831 3.22298 0
M  V30 7531 H 670.608 2.13299 3.29008 0
M  V30 7532 H 672.098 1.38549 3.93946 0
M  V30 7533 N 672.536 -0.895792 1.29666 0
M  V30 7534 C 673.782 -1.64908 1.18039 0
M  V30 7535 C 674.115 -1.9236 -0.266682 0
M  V30 7536 O 673.39 -1.53682 -1.19214 0
M  V30 7537 C 673.673 -2.99574 1.99819 0
M  V30 7538 C 673.526 -2.79163 3.52687 0
M  V30 7539 C 674.845 -4.00358 1.82761 0
M  V30 7540 H 671.964 -0.598437 0.430165 0
M  V30 7541 H 674.606 -1.03736 1.59182 0
M  V30 7542 H 672.756 -3.51786 1.64859 0
M  V30 7543 H 674.428 -2.33821 3.9765 0
M  V30 7544 H 672.671 -2.13871 3.77414 0
M  V30 7545 H 673.342 -3.74871 4.05186 0
M  V30 7546 H 675.818 -3.57268 2.13304 0
M  V30 7547 H 674.694 -4.92514 2.42325 0
M  V30 7548 H 674.955 -4.35096 0.783839 0
M  V30 7549 N 674.014 -1.12206 -1.10668 0
M  V30 7550 C 674.977 -0.790867 -2.15123 0
M  V30 7551 C 675.977 0.193618 -1.5963 0
M  V30 7552 O 677.167 -0.0318728 -1.74171 0
M  V30 7553 C 674.299 -0.174797 -3.40452 0
M  V30 7554 H 675.492 -1.7163 -2.45933 0
M  V30 7555 H 673.045 -0.924993 -1.2599 0
M  V30 7556 H 673.78 0.760478 -3.15257 0
M  V30 7557 H 673.565 -0.88358 -3.82015 0
M  V30 7558 H 675.055 0.0405162 -4.1758 0
M  V30 7559 N 675.492 1.28418 -0.913599 0
M  V30 7560 C 676.74 1.94596 -0.545594 0
M  V30 7561 C 677.061 1.7227 0.913668 0
M  V30 7562 O 676.331 1.06233 1.64595 0
M  V30 7563 H 674.911 0.720065 -0.198783 0
M  V30 7564 H 677.573 1.56404 -1.16292 0
M  V30 7565 H 676.669 3.03202 -0.739911 0
M  V30 7566 N 676.97 0.677563 1.42291 0
M  V30 7567 C 678.195 0.207901 2.06355 0
M  V30 7568 C 678.62 -1.12723 1.50583 0
M  V30 7569 O 677.978 -1.70171 0.62543 0
M  V30 7570 C 678.026 0.156489 3.6026 0
M  V30 7571 O 677.13 -0.874162 4.03029 0
M  V30 7572 H 676.471 0.106056 0.655475 0
M  V30 7573 H 679.001 0.927354 1.82377 0
M  V30 7574 H 679.011 -0.0187258 4.07996 0
M  V30 7575 H 677.686 1.13101 4.00226 0
M  V30 7576 H 676.263 -0.669764 3.66836 0
M  V30 7577 N 678.448 -1.51871 0.421078 0
M  V30 7578 C 679.676 -2.06356 -0.14994 0
M  V30 7579 C 680.091 -1.29006 -1.37851 0
M  V30 7580 O 679.448 -0.345139 -1.79207 0
M  V30 7581 C 679.499 -3.58185 -0.488454 0
M  V30 7582 O 679.22 -4.32611 0.691341 0
M  V30 7583 C 680.721 -4.29129 -1.11191 0
M  V30 7584 H 677.941 -0.67083 -0.0151186 0
M  V30 7585 H 680.485 -1.95638 0.595476 0
M  V30 7586 H 678.64 -3.68871 -1.18376 0
M  V30 7587 H 679.054 -5.22927 0.405906 0
M  V30 7588 H 680.528 -5.36501 -1.29889 0
M  V30 7589 H 681.005 -3.86371 -2.0884 0
M  V30 7590 H 681.611 -4.22843 -0.456458 0
M  V30 7591 N 679.926 -0.151884 -1.56866 0
M  V30 7592 C 681.174 0.497021 -1.95893 0
M  V30 7593 C 681.495 1.65078 -1.03799 0
M  V30 7594 O 680.765 1.95642 -0.10049 0
M  V30 7595 H 679.345 0.186603 -0.723318 0
M  V30 7596 H 682.007 -0.228525 -1.93556 0
M  V30 7597 H 681.103 0.869933 -2.99731 0
M  V30 7598 N 681.404 1.57128 0.121893 0
M  V30 7599 C 682.367 1.99197 1.13372 0
M  V30 7600 C 683.367 0.881728 1.3447 0
M  V30 7601 O 684.557 1.14783 1.31036 0
M  V30 7602 C 681.689 2.32963 2.4888 0
M  V30 7603 H 682.882 2.89788 0.772204 0
M  V30 7604 H 680.435 1.51952 0.366093 0
M  V30 7605 H 681.17 1.45243 2.89957 0
M  V30 7606 H 680.955 3.13934 2.34921 0
M  V30 7607 H 682.445 2.66261 3.21706 0
M  V30 7608 N 682.882 -0.391992 1.52647 0
M  V30 7609 C 684.13 -1.13507 1.67214 0
M  V30 7610 C 684.451 -1.90575 0.41304 0
M  V30 7611 O 683.721 -1.87348 -0.572498 0
M  V30 7612 H 682.301 -0.422013 0.616372 0
M  V30 7613 H 684.963 -0.44502 1.89751 0
M  V30 7614 H 684.059 -1.83964 2.52118 0
M  V30 7615 N 684.36 -1.4356 -0.65026 0
M  V30 7616 C 685.307 -1.48948 -1.76304 0
M  V30 7617 C 686.277 -0.338919 -1.62605 0
M  V30 7618 O 687.462 -0.54649 -1.82806 0
M  V30 7619 C 684.602 -1.42131 -3.14472 0
M  V30 7620 C 683.715 -2.67415 -3.39284 0
M  V30 7621 C 682.85 -2.52565 -4.67316 0
M  V30 7622 C 681.889 -3.73103 -4.85243 0
M  V30 7623 N 681.026 -3.57046 -6.04535 0
M  V30 7624 H 685.866 -2.44032 -1.71034 0
M  V30 7625 H 683.403 -1.21131 -0.834601 0
M  V30 7626 H 685.361 -1.36172 -3.94351 0
M  V30 7627 H 683.991 -0.506273 -3.18805 0
M  V30 7628 H 683.043 -2.8364 -2.53481 0
M  V30 7629 H 684.355 -3.56943 -3.48415 0
M  V30 7630 H 683.509 -2.44331 -5.55326 0
M  V30 7631 H 682.248 -1.60566 -4.60511 0
M  V30 7632 H 681.253 -3.81743 -3.95667 0
M  V30 7633 H 682.478 -4.66115 -4.93876 0
M  V30 7634 H 680.424 -2.67783 -5.98856 0
M  V30 7635 H 680.341 -4.40178 -6.14638 0
M  V30 7636 H 681.609 -3.52669 -6.95158 0
M  V30 7637 N 685.838 0.888903 -1.30139 0
M  V30 7638 C 687.066 1.67358 -1.21651 0
M  V30 7639 C 687.481 1.87499 0.221246 0
M  V30 7640 O 686.838 1.41969 1.14677 0
M  V30 7641 C 686.889 3.05213 -1.93719 0
M  V30 7642 O 686.61 2.85984 -3.31881 0
M  V30 7643 C 688.111 3.9964 -1.9184 0
M  V30 7644 H 685.331 0.522365 -0.42116 0
M  V30 7645 H 687.875 1.11086 -1.71698 0
M  V30 7646 H 686.03 3.5823 -1.4748 0
M  V30 7647 H 686.444 3.73411 -3.68327 0
M  V30 7648 H 687.918 4.93749 -2.46811 0
M  V30 7649 H 688.395 4.29955 -0.896409 0
M  V30 7650 H 689.001 3.52558 -2.37872 0
M  V30 7651 N 687.317 1.12792 1.10072 0
M  V30 7652 C 688.542 0.908838 1.86427 0
M  V30 7653 C 688.967 -0.536793 1.80278 0
M  V30 7654 O 688.325 -1.38033 1.17543 0
M  V30 7655 C 688.373 1.39295 3.3261 0
M  V30 7656 O 687.477 0.573846 4.08388 0
M  V30 7657 H 686.818 0.326234 0.578331 0
M  V30 7658 H 689.348 1.50094 1.39043 0
M  V30 7659 H 689.358 1.39366 3.83459 0
M  V30 7660 H 688.033 2.44555 3.36401 0
M  V30 7661 H 686.61 0.640438 3.67359 0
M  V30 7662 N 688.795 -1.27931 0.920396 0
M  V30 7663 C 689.725 -2.29487 0.431024 0
M  V30 7664 C 690.706 -1.62435 -0.504861 0
M  V30 7665 O 691.891 -1.89797 -0.411176 0
M  V30 7666 C 689.021 -3.45788 -0.323709 0
M  V30 7667 C 687.975 -4.24784 0.523658 0
M  V30 7668 C 687.301 -5.33488 -0.359809 0
M  V30 7669 C 688.601 -4.90874 1.78437 0
M  V30 7670 H 690.295 -2.70671 1.27975 0
M  V30 7671 H 687.841 -1.30121 0.616813 0
M  V30 7672 H 689.794 -4.15927 -0.676952 0
M  V30 7673 H 688.518 -3.03502 -1.2064 0
M  V30 7674 H 687.177 -3.56382 0.85951 0
M  V30 7675 H 686.825 -4.87445 -1.24124 0
M  V30 7676 H 686.525 -5.87247 0.203605 0
M  V30 7677 H 688.049 -6.06472 -0.708787 0
M  V30 7678 H 689.463 -5.53339 1.49963 0
M  V30 7679 H 687.86 -5.54659 2.29071 0
M  V30 7680 H 688.93 -4.14988 2.50824 0
M  V30 7681 N 690.273 -0.685099 -1.4193 0
M  V30 7682 C 691.203 -0.0273506 -2.33484 0
M  V30 7683 C 692.184 0.778366 -1.51246 0
M  V30 7684 O 693.369 0.733449 -1.79817 0
M  V30 7685 C 690.499 0.917272 -3.34968 0
M  V30 7686 C 689.453 0.21941 -4.27437 0
M  V30 7687 C 688.779 1.27768 -5.1921 0
M  V30 7688 C 690.079 -0.907894 -5.14349 0
M  V30 7689 H 691.773 -0.791994 -2.88735 0
M  V30 7690 H 689.319 -0.382308 -1.38832 0
M  V30 7691 H 691.272 1.38657 -3.97935 0
M  V30 7692 H 689.996 1.71346 -2.78043 0
M  V30 7693 H 688.655 -0.229757 -3.65879 0
M  V30 7694 H 688.303 2.06612 -4.58607 0
M  V30 7695 H 688.003 0.815803 -5.81909 0
M  V30 7696 H 689.527 1.7477 -5.85054 0
M  V30 7697 H 690.941 -0.519348 -5.70943 0
M  V30 7698 H 689.338 -1.2962 -5.85934 0
M  V30 7699 H 690.408 -1.75218 -4.52136 0
M  V30 7700 N 691.751 1.51645 -0.429126 0
M  V30 7701 C 692.684 2.24083 0.431492 0
M  V30 7702 C 693.662 1.25691 1.03153 0
M  V30 7703 O 694.846 1.54802 1.07557 0
M  V30 7704 C 691.973 2.9849 1.60067 0
M  V30 7705 C 691.019 4.11474 1.12211 0
M  V30 7706 S 691.852 5.35453 0.0708449 0
M  V30 7707 C 693.008 6.13395 1.24488 0
M  V30 7708 H 693.241 2.96733 -0.183525 0
M  V30 7709 H 690.774 1.52916 -0.213574 0
M  V30 7710 H 692.732 3.4196 2.27099 0
M  V30 7711 H 691.393 2.25445 2.18708 0
M  V30 7712 H 690.586 4.62784 1.99618 0
M  V30 7713 H 690.188 3.70223 0.530149 0
M  V30 7714 H 692.48 6.41984 2.16479 0
M  V30 7715 H 693.423 7.0388 0.771921 0
M  V30 7716 H 693.831 5.44761 1.47973 0
M  V30 7717 N 693.229 0.160201 1.56784 0
M  V30 7718 C 694.475 -0.48831 1.96833 0
M  V30 7719 C 694.808 -1.63641 1.04571 0
M  V30 7720 O 694.083 -1.94289 0.0906481 0
M  V30 7721 C 694.366 -0.981908 3.46454 0
M  V30 7722 C 694.219 0.165607 4.49495 0
M  V30 7723 C 695.538 -1.85931 3.98896 0
M  V30 7724 H 692.657 -0.176027 0.71567 0
M  V30 7725 H 695.299 0.244093 1.88426 0
M  V30 7726 H 693.449 -1.60602 3.5375 0
M  V30 7727 H 695.121 0.802372 4.54268 0
M  V30 7728 H 693.364 0.822789 4.25926 0
M  V30 7729 H 694.035 -0.221699 5.51555 0
M  V30 7730 H 696.511 -1.33327 3.94161 0
M  V30 7731 H 695.387 -2.17373 5.04024 0
M  V30 7732 H 695.648 -2.80106 3.42042 0
M  V30 7733 N 694.707 -1.5719 -0.113559 0
M  V30 7734 C 695.956 -1.84325 -0.818984 0
M  V30 7735 C 696.269 -0.746685 -1.80787 0
M  V30 7736 O 697.475 -0.904596 -2.55987 0
M  V30 7737 C 695.931 -3.26818 -1.50724 0
M  V30 7738 C 695.539 -4.44498 -0.559065 0
M  V30 7739 C 697.283 -3.63196 -2.19748 0
M  V30 7740 C 695.19 -5.7802 -1.25086 0
M  V30 7741 H 694.12 -0.687507 -0.309596 0
M  V30 7742 H 696.771 -1.8336 -0.0717621 0
M  V30 7743 H 695.153 -3.22269 -2.30128 0
M  V30 7744 H 696.327 -4.60356 0.202146 0
M  V30 7745 H 694.642 -4.16393 0.024495 0
M  V30 7746 H 697.239 -4.60226 -2.72206 0
M  V30 7747 H 697.582 -2.90899 -2.97798 0
M  V30 7748 H 698.115 -3.69553 -1.47226 0
M  V30 7749 H 694.854 -6.53501 -0.511539 0
M  V30 7750 H 694.374 -5.66038 -1.98395 0
M  V30 7751 H 696.053 -6.2196 -1.78253 0
M  V30 7752 N 696.185 0.383891 -1.52853 0
M  V30 7753 C 697.118 1.49105 -1.72751 0
M  V30 7754 C 698.096 1.52077 -0.575438 0
M  V30 7755 O 699.28 1.70406 -0.805854 0
M  V30 7756 C 696.407 2.87551 -1.78975 0
M  V30 7757 C 695.453 3.02383 -3.00777 0
M  V30 7758 S 696.286 2.73048 -4.60657 0
M  V30 7759 C 697.442 4.13678 -4.69704 0
M  V30 7760 H 697.675 1.32002 -2.66388 0
M  V30 7761 H 695.208 0.577088 -1.4321 0
M  V30 7762 H 697.166 3.6733 -1.83246 0
M  V30 7763 H 695.827 3.01977 -0.864215 0
M  V30 7764 H 695.02 4.03733 -3.01688 0
M  V30 7765 H 694.622 2.30504 -2.94523 0
M  V30 7766 H 696.914 5.07676 -4.48633 0
M  V30 7767 H 697.857 4.1778 -5.71721 0
M  V30 7768 H 698.265 3.99825 -3.98497 0
M  V30 7769 N 697.663 1.43903 0.642637 0
M  V30 7770 C 698.911 1.45791 1.39962 0
M  V30 7771 C 699.232 0.0873144 1.94804 0
M  V30 7772 O 698.502 -0.878825 1.75081 0
M  V30 7773 H 697.082 0.536797 0.519479 0
M  V30 7774 H 699.744 1.7959 0.757189 0
M  V30 7775 H 698.84 2.17665 2.2367 0
M  V30 7776 N 699.141 -0.881989 1.30609 0
M  V30 7777 C 700.051 -2.02076 1.19174 0
M  V30 7778 C 701.067 -1.73645 0.11102 0
M  V30 7779 O 702.243 -1.98735 0.326528 0
M  V30 7780 C 699.308 -3.3515 0.887438 0
M  V30 7781 C 698.369 -3.76983 2.05383 0
M  V30 7782 C 697.602 -5.03707 1.76395 0
M  V30 7783 O 697.825 -5.66171 0.693302 0
M  V30 7784 O 696.759 -5.42019 2.61723 0
M  V30 7785 H 700.585 -2.14652 2.14845 0
M  V30 7786 H 698.17 -1.00843 1.10232 0
M  V30 7787 H 700.052 -4.14975 0.73306 0
M  V30 7788 H 698.727 -3.23676 -0.0393354 0
M  V30 7789 H 697.634 -2.97849 2.26355 0
M  V30 7790 H 698.967 -3.93066 2.96243 0
M  V30 7791 N 700.619 -1.13374 -1.09472 0
M  V30 7792 C 701.549 -0.833268 -2.18126 0
M  V30 7793 C 702.53 0.207169 -1.68834 0
M  V30 7794 O 703.715 0.0662012 -1.94087 0
M  V30 7795 C 700.845 -0.297979 -3.46019 0
M  V30 7796 C 699.799 -1.27261 -4.08642 0
M  V30 7797 C 699.125 -0.597104 -5.31356 0
M  V30 7798 C 700.425 -2.63095 -4.51197 0
M  V30 7799 H 702.119 -1.74182 -2.43518 0
M  V30 7800 H 699.665 -0.838921 -1.17039 0
M  V30 7801 H 701.618 -0.0754444 -4.21332 0
M  V30 7802 H 700.342 0.645959 -3.20148 0
M  V30 7803 H 699.001 -1.48113 -3.35348 0
M  V30 7804 H 698.649 0.352293 -5.01765 0
M  V30 7805 H 698.349 -1.24734 -5.74208 0
M  V30 7806 H 699.873 -0.38384 -6.09392 0
M  V30 7807 H 701.287 -2.46214 -5.17737 0
M  V30 7808 H 699.684 -3.2429 -5.04932 0
M  V30 7809 H 700.754 -3.20793 -3.6362 0
M  V30 7810 N 702.098 1.27442 -0.927168 0
M  V30 7811 C 703.008 2.30599 -0.431448 0
M  V30 7812 C 704.024 1.67028 0.48761 0
M  V30 7813 O 705.2 1.97962 0.370546 0
M  V30 7814 C 702.265 3.45327 0.308292 0
M  V30 7815 C 701.326 4.24418 -0.645615 0
M  V30 7816 C 700.559 5.33667 0.0589164 0
M  V30 7817 O 700.782 5.5589 1.27838 0
M  V30 7818 O 699.716 5.98774 -0.612638 0
M  V30 7819 H 703.542 2.75036 -1.28797 0
M  V30 7820 H 701.127 1.32382 -0.692495 0
M  V30 7821 H 703.009 4.15107 0.725555 0
M  V30 7822 H 701.684 3.02945 1.14043 0
M  V30 7823 H 700.591 3.57174 -1.11255 0
M  V30 7824 H 701.924 4.70512 -1.44496 0
M  V30 7825 N 703.576 0.692616 1.41565 0
M  V30 7826 C 704.987 0.297478 1.84315 0
M  V30 7827 C 705.338 -1.16379 1.57957 0
M  V30 7828 O 704.463 -1.89303 1.0485 0
M  V30 7829 C 705.058 0.533136 3.34579 0
M  V30 7830 C 703.617 0.191944 3.7591 0
M  V30 7831 C 702.764 0.816873 2.64995 0
M  V30 7832 H 705.715 0.893488 1.31158 0
M  V30 7833 H 705.736 -0.209105 3.79925 0
M  V30 7834 H 705.248 1.59674 3.53731 0
M  V30 7835 H 703.349 -0.867512 3.6236 0
M  V30 7836 H 703.462 0.644902 4.7474 0
M  V30 7837 H 701.826 0.246715 2.53502 0
M  V30 7838 H 702.609 1.88429 2.86966 0
M  V30 7839 N 705.054 -1.51416 0.437162 0
M  V30 7840 C 706.279 -2.0699 -0.130424 0
M  V30 7841 C 706.704 -1.30249 -1.35709 0
M  V30 7842 O 706.062 -0.340388 -1.78076 0
M  V30 7843 C 706.11 -3.5801 -0.43142 0
M  V30 7844 O 705.214 -3.8345 -1.5179 0
M  V30 7845 H 704.555 -0.663997 -0.00194339 0
M  V30 7846 H 707.085 -1.95029 0.618445 0
M  V30 7847 H 707.095 -4.02261 -0.681926 0
M  V30 7848 H 705.77 -4.13291 0.465137 0
M  V30 7849 H 704.347 -3.51062 -1.25737 0
M  V30 7850 N 706.532 -0.168513 -1.56696 0
M  V30 7851 C 707.442 0.775435 -2.21414 0
M  V30 7852 C 708.458 1.25529 -1.20492 0
M  V30 7853 O 709.634 1.30801 -1.53144 0
M  V30 7854 C 706.699 1.9886 -2.83999 0
M  V30 7855 C 705.76 1.5559 -4.00113 0
M  V30 7856 C 704.993 2.71124 -4.59704 0
M  V30 7857 O 705.216 3.87917 -4.18182 0
M  V30 7858 O 704.15 2.4536 -5.4962 0
M  V30 7859 H 707.976 0.254416 -3.02632 0
M  V30 7860 H 705.561 0.0595507 -1.49281 0
M  V30 7861 H 707.443 2.69816 -3.23693 0
M  V30 7862 H 706.118 2.49874 -2.05779 0
M  V30 7863 H 705.025 0.815924 -3.65094 0
M  V30 7864 H 706.358 1.09271 -4.79917 0
M  V30 7865 N 708.01 1.57248 0.105221 0
M  V30 7866 C 709.258 1.85204 0.808951 0
M  V30 7867 C 709.579 0.75574 1.7976 0
M  V30 7868 O 708.849 -0.218984 1.94672 0
M  V30 7869 H 707.429 0.683346 0.301739 0
M  V30 7870 H 710.091 1.94695 0.0892605 0
M  V30 7871 H 709.187 2.81595 1.34575 0
M  V30 7872 N 709.488 -0.375779 1.53054 0
M  V30 7873 C 710.435 -1.45978 1.78771 0
M  V30 7874 C 711.405 -1.53625 0.631552 0
M  V30 7875 O 712.59 -1.69674 0.872667 0
M  V30 7876 C 709.73 -2.8305 1.97425 0
M  V30 7877 C 708.843 -2.84451 3.25134 0
M  V30 7878 C 707.978 -4.13034 3.34031 0
M  V30 7879 C 707.017 -4.08536 4.55812 0
M  V30 7880 N 706.154 -5.2875 4.61918 0
M  V30 7881 H 710.994 -1.23349 2.71273 0
M  V30 7882 H 708.531 -0.598147 1.3439 0
M  V30 7883 H 710.489 -3.62666 2.06225 0
M  V30 7884 H 709.119 -3.04101 1.0827 0
M  V30 7885 H 708.171 -1.97127 3.25338 0
M  V30 7886 H 709.483 -2.76998 4.14818 0
M  V30 7887 H 708.637 -5.0106 3.42087 0
M  V30 7888 H 707.376 -4.23226 2.42345 0
M  V30 7889 H 706.381 -3.18897 4.47867 0
M  V30 7890 H 707.606 -3.99955 5.48828 0
M  V30 7891 H 705.552 -5.39547 3.73129 0
M  V30 7892 H 705.469 -5.23426 5.45492 0
M  V30 7893 H 706.737 -6.18637 4.74245 0
M  V30 7894 N 710.966 -1.44241 -0.634997 0
M  V30 7895 C 712.215 -1.46102 -1.39058 0
M  V30 7896 C 712.528 -0.0959909 -1.95364 0
M  V30 7897 O 713.734 0.00788751 -2.71499 0
M  V30 7898 C 712.19 -2.57195 -2.51751 0
M  V30 7899 C 711.798 -3.99888 -2.01974 0
M  V30 7900 C 713.542 -2.68272 -3.28984 0
M  V30 7901 C 711.449 -5.02412 -3.11987 0
M  V30 7902 H 710.379 -0.543556 -0.522554 0
M  V30 7903 H 713.03 -1.70294 -0.683538 0
M  V30 7904 H 711.412 -2.26237 -3.25012 0
M  V30 7905 H 712.586 -4.40396 -1.35604 0
M  V30 7906 H 710.901 -3.93019 -1.37568 0
M  V30 7907 H 713.498 -3.42042 -4.10988 0
M  V30 7908 H 713.841 -1.73957 -3.78212 0
M  V30 7909 H 714.374 -2.98622 -2.62812 0
M  V30 7910 H 711.113 -5.98342 -2.67707 0
M  V30 7911 H 710.633 -4.66501 -3.77011 0
M  V30 7912 H 712.312 -5.25939 -3.76825 0
M  V30 7913 N 712.444 0.87505 -1.31075 0
M  V30 7914 C 713.391 1.98178 -1.18296 0
M  V30 7915 C 714.361 1.65952 -0.0699923 0
M  V30 7916 O 715.546 1.8926 -0.241951 0
M  V30 7917 C 712.686 3.33399 -0.891024 0
M  V30 7918 C 711.799 3.78253 -2.08684 0
M  V30 7919 C 710.934 5.02166 -1.73212 0
M  V30 7920 C 709.973 5.39455 -2.89231 0
M  V30 7921 N 709.11 6.54549 -2.53989 0
M  V30 7922 H 713.95 2.0844 -2.12971 0
M  V30 7923 H 711.487 1.02047 -1.05948 0
M  V30 7924 H 713.445 4.11246 -0.702338 0
M  V30 7925 H 712.075 3.22794 0.0188799 0
M  V30 7926 H 711.127 2.9623 -2.38646 0
M  V30 7927 H 712.439 4.01821 -2.95536 0
M  V30 7928 H 711.593 5.87666 -1.50777 0
M  V30 7929 H 710.332 4.80491 -0.83544 0
M  V30 7930 H 709.337 4.52477 -3.12321 0
M  V30 7931 H 710.562 5.63098 -3.79601 0
M  V30 7932 H 708.508 6.3443 -1.66838 0
M  V30 7933 H 708.425 6.78035 -3.34372 0
M  V30 7934 H 709.693 7.43254 -2.34934 0
M  V30 7935 N 713.922 1.13953 1.08869 0
M  V30 7936 C 714.872 0.790812 2.13846 0
M  V30 7937 C 715.856 -0.217819 1.59419 0
M  V30 7938 O 717.048 -0.0208723 1.76988 0
M  V30 7939 C 714.177 0.26479 3.42277 0
M  V30 7940 C 713.263 1.30267 4.03598 0
M  V30 7941 N 713.654 2.50535 4.39393 0
M  V30 7942 C 711.952 1.15178 4.30871 0
M  V30 7943 C 712.653 3.16938 4.87776 0
M  V30 7944 N 711.629 2.44349 4.85587 0
M  V30 7945 H 715.431 1.70577 2.39334 0
M  V30 7946 H 712.945 1.02268 1.26154 0
M  V30 7947 H 714.942 -0.00330398 4.169 0
M  V30 7948 H 713.602 -0.644419 3.18241 0
M  V30 7949 H 714.613 2.87798 4.30572 0
M  V30 7950 H 711.29 0.301204 4.16412 0
M  V30 7951 H 712.68 4.19453 5.2489 0
M  V30 7952 N 715.4 -1.26948 0.933913 0
M  V30 7953 C 716.625 -1.98724 0.593589 0
M  V30 7954 C 717.05 -1.6915 -0.822801 0
M  V30 7955 O 716.408 -0.93533 -1.5531 0
M  V30 7956 C 716.456 -3.50834 0.833542 0
M  V30 7957 O 715.56 -4.12284 -0.0978788 0
M  V30 7958 H 714.901 -0.623683 0.227849 0
M  V30 7959 H 717.431 -1.61599 1.25486 0
M  V30 7960 H 717.441 -4.01018 0.75156 0
M  V30 7961 H 716.116 -3.71691 1.86597 0
M  V30 7962 H 714.693 -3.72884 0.0345443 0
M  V30 7963 N 716.879 -0.700114 -1.41195 0
M  V30 7964 C 718.127 -0.232546 -2.00758 0
M  V30 7965 C 718.448 1.1734 -1.55745 0
M  V30 7966 O 717.718 1.79262 -0.790058 0
M  V30 7967 H 716.298 -0.0829845 -0.742376 0
M  V30 7968 H 718.96 -0.902289 -1.72756 0
M  V30 7969 H 718.056 -0.253521 -3.11069 0
M  V30 7970 N 718.357 1.51182 -0.445186 0
M  V30 7971 C 719.773 1.59299 -0.0978954 0
M  V30 7972 C 719.973 1.4555 1.39346 0
M  V30 7973 O 719.029 1.30073 2.16419 0
M  V30 7974 C 720.342 2.94133 -0.625005 0
M  V30 7975 C 721.89 3.07463 -0.586137 0
M  V30 7976 C 722.365 4.44832 -1.09035 0
M  V30 7977 N 723.856 4.51173 -1.04867 0
M  V30 7978 C 724.591 5.55804 -1.40959 0
M  V30 7979 N 724.087 6.67816 -1.84375 0
M  V30 7980 N 725.88 5.46205 -1.32726 0
M  V30 7981 H 718.031 1.58363 -1.41544 0
M  V30 7982 H 720.294 0.746946 -0.58376 0
M  V30 7983 H 720 3.09589 -1.66876 0
M  V30 7984 H 719.874 3.77161 -0.0542262 0
M  V30 7985 H 722.261 2.9167 0.448646 0
M  V30 7986 H 722.342 2.26255 -1.19341 0
M  V30 7987 H 721.986 4.61372 -2.12364 0
M  V30 7988 H 721.916 5.24591 -0.459539 0
M  V30 7989 H 724.407 3.70783 -0.729932 0
M  V30 7990 H 724.72 7.43683 -2.10131 0
M  V30 7991 H 723.065 6.69003 -1.88308 0
M  V30 7992 H 726.256 4.57583 -0.986678 0
M  V30 7993 H 726.429 6.27634 -1.61182 0
M  V30 7994 N 719.835 0.176821 1.56605 0
M  V30 7995 C 721.084 -0.466833 1.96223 0
M  V30 7996 C 721.397 -1.64015 1.06576 0
M  V30 7997 O 722.603 -2.3504 1.35898 0
M  V30 7998 C 721.059 -0.881921 3.48927 0
M  V30 7999 C 720.667 0.266102 4.47209 0
M  V30 8000 C 722.411 -1.49368 3.97353 0
M  V30 8001 C 720.318 -0.168923 5.91159 0
M  V30 8002 H 719.248 -0.178178 0.732645 0
M  V30 8003 H 721.899 0.265929 1.81563 0
M  V30 8004 H 720.281 -1.67082 3.59026 0
M  V30 8005 H 721.455 1.04349 4.4883 0
M  V30 8006 H 719.77 0.788178 4.08872 0
M  V30 8007 H 722.367 -1.8313 5.02362 0
M  V30 8008 H 722.71 -2.3936 3.40606 0
M  V30 8009 H 723.243 -0.769114 3.90294 0
M  V30 8010 H 719.982 0.696351 6.51791 0
M  V30 8011 H 719.502 -0.911552 5.92833 0
M  V30 8012 H 721.181 -0.610938 6.44109 0
M  V30 8013 N 721.313 -1.57302 -0.09688 0
M  V30 8014 C 722.538 -1.9058 -0.818169 0
M  V30 8015 C 722.963 -0.770921 -1.71576 0
M  V30 8016 O 722.321 0.277588 -1.79162 0
M  V30 8017 C 722.369 -3.22714 -1.60898 0
M  V30 8018 O 721.473 -3.10178 -2.71779 0
M  V30 8019 H 720.814 -0.624759 -0.224882 0
M  V30 8020 H 723.344 -2.04471 -0.07264 0
M  V30 8021 H 723.354 -3.55978 -1.99358 0
M  V30 8022 H 722.029 -4.04899 -0.950227 0
M  V30 8023 H 720.606 -2.88424 -2.3636 0
M  V30 8024 N 722.791 0.367657 -1.53252 0
M  V30 8025 C 724.038 1.11052 -1.69333 0
M  V30 8026 C 724.366 1.89363 -0.444064 0
M  V30 8027 O 723.621 1.87094 0.573953 0
M  V30 8028 C 723.92 2.09825 -2.89324 0
M  V30 8029 C 723.586 1.4801 -4.25915 0
M  V30 8030 C 722.248 1.30879 -4.6306 0
M  V30 8031 C 724.6 1.03268 -5.10867 0
M  V30 8032 C 721.928 0.675868 -5.82794 0
M  V30 8033 C 724.28 0.41377 -6.31245 0
M  V30 8034 C 722.944 0.229939 -6.67104 0
M  V30 8035 H 722.214 0.406367 -0.619634 0
M  V30 8036 H 724.861 0.392558 -1.87433 0
M  V30 8037 H 723.166 2.87917 -2.65728 0
M  V30 8038 H 724.863 2.67252 -2.98961 0
M  V30 8039 H 721.453 1.62336 -3.96667 0
M  V30 8040 H 725.637 1.15297 -4.82722 0
M  V30 8041 H 720.893 0.521833 -6.09169 0
M  V30 8042 H 725.067 0.0588768 -6.96375 0
M  V30 8043 H 722.694 -0.262562 -7.59746 0
M  V30 8044 N 724.269 1.44576 0.627338 0
M  V30 8045 C 725.509 1.49083 1.39834 0
M  V30 8046 C 725.873 0.121643 1.91614 0
M  V30 8047 O 727.074 0.0413885 2.68768 0
M  V30 8048 C 725.345 2.52467 2.52973 0
M  V30 8049 S 726.904 2.7605 3.41089 0
M  V30 8050 H 723.722 0.527252 0.476997 0
M  V30 8051 H 726.324 1.81525 0.725872 0
M  V30 8052 H 725.028 3.50646 2.13249 0
M  V30 8053 H 724.559 2.2161 3.25042 0
M  V30 8054 H 726.574 2.07932 4.50531 0
M  V30 8055 N 725.747 -0.868086 1.31537 0
M  V30 8056 C 726.972 -1.65926 1.24432 0
M  V30 8057 C 727.397 -1.87169 -0.186936 0
M  V30 8058 O 726.755 -1.4148 -1.13371 0
M  V30 8059 C 726.803 -3.00347 1.9956 0
M  V30 8060 O 725.907 -3.90221 1.33422 0
M  V30 8061 H 725.248 -0.506375 0.429512 0
M  V30 8062 H 727.778 -1.0822 1.73637 0
M  V30 8063 H 727.788 -3.50269 2.09226 0
M  V30 8064 H 726.463 -2.84205 3.03645 0
M  V30 8065 H 725.04 -3.48672 1.32219 0
M  V30 8066 N 727.225 -1.14528 -1.08264 0
M  V30 8067 C 728.157 -0.791325 -2.15106 0
M  V30 8068 C 729.17 0.192449 -1.61659 0
M  V30 8069 O 730.359 -0.0294704 -1.78476 0
M  V30 8070 C 727.459 -0.154183 -3.38549 0
M  V30 8071 C 726.632 -1.17305 -4.21377 0
M  V30 8072 C 725.691 -0.559401 -5.23218 0
M  V30 8073 O 724.717 -1.22277 -5.55911 0
M  V30 8074 N 725.919 0.663159 -5.767 0
M  V30 8075 H 728.684 -1.71076 -2.46075 0
M  V30 8076 H 726.245 -1.0399 -1.24087 0
M  V30 8077 H 728.237 0.268884 -4.03806 0
M  V30 8078 H 726.807 0.668418 -3.0537 0
M  V30 8079 H 726.027 -1.773 -3.52077 0
M  V30 8080 H 727.315 -1.86128 -4.73533 0
M  V30 8081 H 726.713 1.22066 -5.52373 0
M  V30 8082 H 725.27 1.02871 -6.43631 0
M  V30 8083 N 728.703 1.26451 -0.940633 0
M  V30 8084 C 729.95 1.93778 -0.587909 0
M  V30 8085 C 730.278 1.73811 0.872935 0
M  V30 8086 O 729.533 1.06816 1.63978 0
M  V30 8087 C 729.832 3.46503 -0.875794 0
M  V30 8088 C 729.498 3.86609 -2.32043 0
M  V30 8089 C 728.16 3.97269 -2.71534 0
M  V30 8090 C 730.512 4.0672 -3.25927 0
M  V30 8091 C 727.84 4.25436 -4.04006 0
M  V30 8092 C 730.192 4.36375 -4.57995 0
M  V30 8093 C 728.856 4.45249 -4.97302 0
M  V30 8094 H 728.126 0.709084 -0.215131 0
M  V30 8095 H 730.773 1.50272 -1.18704 0
M  V30 8096 H 729.078 3.91319 -0.194124 0
M  V30 8097 H 730.775 3.96759 -0.581665 0
M  V30 8098 H 727.365 3.78858 -2.00411 0
M  V30 8099 H 731.549 3.97912 -2.96614 0
M  V30 8100 H 726.805 4.30519 -4.34124 0
M  V30 8101 H 730.979 4.50882 -5.30734 0
M  V30 8102 H 728.606 4.66829 -5.99979 0
M  V30 8103 N 730.181 0.707592 1.40822 0
M  V30 8104 C 731.406 0.251626 2.05868 0
M  V30 8105 C 731.831 -1.09503 1.5294 0
M  V30 8106 O 731.189 -1.68806 0.661385 0
M  V30 8107 C 731.237 0.23287 3.59847 0
M  V30 8108 O 730.341 -0.788477 4.04792 0
M  V30 8109 H 729.682 0.119936 0.653078 0
M  V30 8110 H 732.212 0.96583 1.80369 0
M  V30 8111 H 732.222 0.0678204 4.07944 0
M  V30 8112 H 730.897 1.21565 3.97737 0
M  V30 8113 H 729.474 -0.591802 3.68174 0
M  V30 8114 N 731.66 -1.50943 0.453197 0
M  V30 8115 C 732.906 -2.03153 -0.100277 0
M  V30 8116 C 733.261 -1.33032 -1.38997 0
M  V30 8117 O 732.554 -0.441423 -1.86446 0
M  V30 8118 C 732.748 -3.55603 -0.357944 0
M  V30 8119 C 732.577 -4.40495 0.905223 0
M  V30 8120 C 731.347 -4.84247 1.44337 0
M  V30 8121 C 733.545 -4.81931 1.79575 0
M  V30 8122 N 731.527 -5.53403 2.65742 0
M  V30 8123 C 732.898 -5.50314 2.85577 0
M  V30 8124 C 734.953 -4.63903 1.80828 0
M  V30 8125 C 733.656 -6.02581 3.92797 0
M  V30 8126 C 735.682 -5.17097 2.86993 0
M  V30 8127 C 735.044 -5.8544 3.91713 0
M  V30 8128 H 731.143 -0.781995 0.00287755 0
M  V30 8129 H 733.727 -1.84651 0.617411 0
M  V30 8130 H 731.898 -3.74087 -1.04467 0
M  V30 8131 H 733.63 -3.9447 -0.904175 0
M  V30 8132 H 730.385 -4.63029 0.995045 0
M  V30 8133 H 730.809 -5.92598 3.27348 0
M  V30 8134 H 735.451 -4.10512 1.0119 0
M  V30 8135 H 733.169 -6.55018 4.73262 0
M  V30 8136 H 736.755 -5.0499 2.88923 0
M  V30 8137 H 735.635 -6.25861 4.72512 0
M  V30 8138 N 733.138 -0.185124 -1.56509 0
M  V30 8139 C 734.387 0.456421 -1.96468 0
M  V30 8140 C 734.7 1.63448 -1.07444 0
M  V30 8141 O 735.906 2.34316 -1.37143 0
M  V30 8142 C 734.362 0.863404 -3.4939 0
M  V30 8143 C 733.97 -0.289815 -4.47062 0
M  V30 8144 C 735.714 1.47259 -3.98139 0
M  V30 8145 C 733.621 0.137571 -5.9124 0
M  V30 8146 H 732.551 0.17429 -0.733579 0
M  V30 8147 H 735.202 -0.275554 -1.81419 0
M  V30 8148 H 733.584 1.65176 -3.59907 0
M  V30 8149 H 734.758 -1.06728 -4.4827 0
M  V30 8150 H 733.073 -0.809851 -4.08449 0
M  V30 8151 H 735.67 1.80463 -5.03326 0
M  V30 8152 H 736.013 2.3755 -3.41871 0
M  V30 8153 H 736.546 0.748405 -3.90696 0
M  V30 8154 H 733.285 -0.730907 -6.51412 0
M  V30 8155 H 732.805 0.8801 -5.93308 0
M  V30 8156 H 734.484 0.576771 -6.44424 0
M  V30 8157 N 734.616 1.57351 0.0885366 0
M  V30 8158 C 735.549 1.97786 1.13825 0
M  V30 8159 C 736.527 0.852091 1.38485 0
M  V30 8160 O 737.711 1.11296 1.52137 0
M  V30 8161 C 734.838 2.30024 2.48609 0
M  V30 8162 C 733.884 3.52437 2.40189 0
M  V30 8163 S 734.717 5.03908 1.81209 0
M  V30 8164 C 735.873 5.39331 3.17605 0
M  V30 8165 H 736.106 2.86513 0.793587 0
M  V30 8166 H 733.639 1.51527 0.29646 0
M  V30 8167 H 735.597 2.49274 3.26148 0
M  V30 8168 H 734.258 1.41856 2.80242 0
M  V30 8169 H 733.451 3.72457 3.39546 0
M  V30 8170 H 733.053 3.32731 1.70781 0
M  V30 8171 H 735.345 5.36378 4.13891 0
M  V30 8172 H 736.288 6.4029 3.02381 0
M  V30 8173 H 736.696 4.6679 3.17438 0
M  V30 8174 N 736.094 -0.359525 1.53444 0
M  V30 8175 C 737.505 -0.936009 1.61542 0
M  V30 8176 C 737.856 -1.90069 0.486633 0
M  V30 8177 O 736.981 -2.12929 -0.386047 0
M  V30 8178 C 737.576 -1.70441 2.92806 0
M  V30 8179 C 736.135 -2.23015 3.03218 0
M  V30 8180 C 735.282 -1.04438 2.56881 0
M  V30 8181 H 738.233 -0.138134 1.58098 0
M  V30 8182 H 738.254 -2.56609 2.80948 0
M  V30 8183 H 737.766 -1.00205 3.74941 0
M  V30 8184 H 735.867 -2.96475 2.25684 0
M  V30 8185 H 735.98 -2.50481 4.08407 0
M  V30 8186 H 734.344 -1.41314 2.11902 0
M  V30 8187 H 735.127 -0.356905 3.4144 0
M  V30 8188 N 737.572 -1.44907 -0.619662 0
M  V30 8189 C 738.82 -1.47999 -1.37625 0
M  V30 8190 C 739.141 -0.118295 -1.94641 0
M  V30 8191 O 738.411 0.85086 -1.76457 0
M  V30 8192 H 736.991 -0.544993 -0.510873 0
M  V30 8193 H 739.653 -1.80772 -0.728522 0
M  V30 8194 H 738.749 -2.21196 -2.20179 0
M  V30 8195 N 739.05 0.861098 -1.31996 0
M  V30 8196 C 740.278 1.6474 -1.25173 0
M  V30 8197 C 740.693 1.87926 0.181425 0
M  V30 8198 O 740.05 1.4437 1.1164 0
M  V30 8199 C 740.101 3.01036 -2.0015 0
M  V30 8200 O 739.822 2.7888 -3.37872 0
M  V30 8201 C 741.323 3.95481 -2.00273 0
M  V30 8202 H 738.543 0.513314 -0.432146 0
M  V30 8203 H 741.087 1.07419 -1.74016 0
M  V30 8204 H 739.242 3.55021 -1.55046 0
M  V30 8205 H 739.656 3.65514 -3.76165 0
M  V30 8206 H 741.13 4.88403 -2.57229 0
M  V30 8207 H 741.607 4.27957 -0.987407 0
M  V30 8208 H 742.213 3.47433 -2.45296 0
M  V30 8209 N 740.528 1.15101 1.07655 0
M  V30 8210 C 741.777 0.918528 1.79572 0
M  V30 8211 C 742.09 -0.555922 1.87534 0
M  V30 8212 O 743.296 -0.905893 2.55941 0
M  V30 8213 C 741.752 1.59394 3.22679 0
M  V30 8214 C 741.36 3.1052 3.22927 0
M  V30 8215 C 743.104 1.44289 3.99225 0
M  V30 8216 C 741.011 3.70862 4.60668 0
M  V30 8217 H 739.941 0.340006 0.672987 0
M  V30 8218 H 742.592 1.38079 1.20857 0
M  V30 8219 H 740.974 1.05936 3.81567 0
M  V30 8220 H 742.148 3.70708 2.737 0
M  V30 8221 H 740.463 3.25351 2.59876 0
M  V30 8222 H 743.06 1.86766 5.01022 0
M  V30 8223 H 743.403 0.389975 4.14469 0
M  V30 8224 H 743.936 1.94826 3.46825 0
M  V30 8225 H 740.675 4.7604 4.50628 0
M  V30 8226 H 740.195 3.15456 5.10145 0
M  V30 8227 H 741.874 3.71607 5.29639 0
M  V30 8228 N 742.006 -1.2595 0.947325 0
M  V30 8229 C 742.953 -2.26159 0.460497 0
M  V30 8230 C 743.923 -1.58919 -0.483125 0
M  V30 8231 O 745.108 -1.86603 -0.397983 0
M  V30 8232 C 742.248 -3.441 -0.26247 0
M  V30 8233 C 741.361 -4.25999 0.717539 0
M  V30 8234 C 740.496 -5.31193 -0.0272486 0
M  V30 8235 C 739.535 -6.04774 0.944177 0
M  V30 8236 N 738.672 -7.01721 0.230741 0
M  V30 8237 H 743.512 -2.67173 1.31995 0
M  V30 8238 H 741.049 -1.31358 0.662088 0
M  V30 8239 H 743.007 -4.11317 -0.698137 0
M  V30 8240 H 741.637 -3.03983 -1.08602 0
M  V30 8241 H 740.689 -3.58513 1.27171 0
M  V30 8242 H 742.001 -4.76981 1.45913 0
M  V30 8243 H 741.155 -6.04451 -0.521903 0
M  V30 8244 H 739.894 -4.81066 -0.801682 0
M  V30 8245 H 738.899 -5.30338 1.4499 0
M  V30 8246 H 740.124 -6.56991 1.71872 0
M  V30 8247 H 738.07 -6.53895 -0.525088 0
M  V30 8248 H 737.987 -7.50484 0.911556 0
M  V30 8249 H 739.255 -7.79122 -0.242616 0
M  V30 8250 N 743.484 -0.715051 -1.40445 0
M  V30 8251 C 744.394 -0.0631624 -2.34515 0
M  V30 8252 C 745.41 0.744397 -1.57273 0
M  V30 8253 O 746.586 0.677475 -1.89663 0
M  V30 8254 C 743.651 0.847915 -3.36172 0
M  V30 8255 C 742.712 0.0303655 -4.29289 0
M  V30 8256 C 741.945 0.898051 -5.2609 0
M  V30 8257 O 742.168 2.13729 -5.28844 0
M  V30 8258 O 741.102 0.337328 -6.00954 0
M  V30 8259 H 744.928 -0.839078 -2.91879 0
M  V30 8260 H 742.513 -0.475527 -1.4163 0
M  V30 8261 H 744.395 1.3698 -3.98515 0
M  V30 8262 H 743.07 1.60299 -2.81222 0
M  V30 8263 H 741.977 -0.536573 -3.70232 0
M  V30 8264 H 743.31 -0.686474 -4.87389 0
M  V30 8265 N 744.962 1.50701 -0.461195 0
M  V30 8266 C 745.91 2.29918 0.352231 0
M  V30 8267 C 746.904 1.36778 0.999403 0
M  V30 8268 O 748.11 1.54015 0.931639 0
M  V30 8269 H 744.485 0.740249 0.132423 0
M  V30 8270 H 746.456 2.96497 -0.336424 0
M  V30 8271 C 745.205 3.17052 1.42736 0
M  V30 8272 H 744.528 3.88623 0.938747 0
M  V30 8273 H 745.968 3.75493 1.96928 0
M  V30 8274 C 744.427 2.3399 2.42384 0
M  V30 8275 O 744.957 2.01608 3.47444 0
M  V30 8276 N 743.163 1.96758 2.13857 0
M  V30 8277 H 742.71 2.23292 1.28447 0
M  V30 8278 H 742.668 1.41484 2.80766 0
M  V30 8279 N 746.441 0.193421 1.56409 0
M  V30 8280 C 747.69 -0.445995 1.96707 0
M  V30 8281 C 748.003 -1.62876 1.08309 0
M  V30 8282 O 749.209 -2.33586 1.38383 0
M  V30 8283 C 747.665 -0.844863 3.49843 0
M  V30 8284 C 747.273 0.31352 4.46902 0
M  V30 8285 C 749.017 -1.45146 3.98915 0
M  V30 8286 C 746.924 -0.106214 5.91305 0
M  V30 8287 H 745.854 -0.170398 0.734493 0
M  V30 8288 H 748.505 0.285172 1.81271 0
M  V30 8289 H 746.887 -1.63265 3.60778 0
M  V30 8290 H 748.061 1.09103 4.47698 0
M  V30 8291 H 746.376 0.8315 4.08014 0
M  V30 8292 H 748.973 -1.77792 5.04276 0
M  V30 8293 H 749.316 -2.35734 3.43126 0
M  V30 8294 H 749.849 -0.727675 3.91088 0
M  V30 8295 H 746.588 0.765442 6.51016 0
M  V30 8296 H 746.108 -0.848623 5.93766 0
M  V30 8297 H 747.787 -0.542588 6.44721 0
M  V30 8298 N 747.919 -1.57396 -0.0801906 0
M  V30 8299 C 749.168 -1.8602 -0.779702 0
M  V30 8300 C 749.481 -0.784864 -1.79163 0
M  V30 8301 O 750.687 -0.958691 -2.54011 0
M  V30 8302 C 749.143 -3.29942 -1.43758 0
M  V30 8303 C 748.751 -4.45584 -0.464654 0
M  V30 8304 C 750.495 -3.67775 -2.11995 0
M  V30 8305 C 748.402 -5.80544 -1.12797 0
M  V30 8306 H 747.332 -0.69392 -0.294943 0
M  V30 8307 H 749.983 -1.83471 -0.0328527 0
M  V30 8308 H 748.365 -3.27078 -2.2324 0
M  V30 8309 H 749.539 -4.59824 0.299749 0
M  V30 8310 H 747.854 -4.16247 0.112813 0
M  V30 8311 H 750.451 -4.65896 -2.62383 0
M  V30 8312 H 750.794 -2.9715 -2.91561 0
M  V30 8313 H 751.327 -3.72593 -1.39354 0
M  V30 8314 H 748.066 -6.54439 -0.372807 0
M  V30 8315 H 747.586 -5.70119 -1.86344 0
M  V30 8316 H 749.265 -6.25602 -1.6502 0
M  V30 8317 N 749.397 0.351382 -1.53633 0
M  V30 8318 C 750.644 1.0925 -1.70502 0
M  V30 8319 C 750.972 1.88881 -0.464123 0
M  V30 8320 O 750.227 1.87693 0.554077 0
M  V30 8321 C 750.526 2.06744 -2.91533 0
M  V30 8322 C 750.192 1.43484 -4.27461 0
M  V30 8323 C 748.854 1.2596 -4.64422 0
M  V30 8324 C 751.206 0.978436 -5.11934 0
M  V30 8325 C 748.534 0.614017 -5.83478 0
M  V30 8326 C 750.886 0.346795 -6.31649 0
M  V30 8327 C 749.55 0.15917 -6.6731 0
M  V30 8328 H 748.82 0.399773 -0.623909 0
M  V30 8329 H 751.467 0.372656 -1.87839 0
M  V30 8330 H 749.772 2.85082 -2.68767 0
M  V30 8331 H 751.469 2.64066 -3.01778 0
M  V30 8332 H 748.059 1.5812 -3.98367 0
M  V30 8333 H 752.243 1.1017 -4.83918 0
M  V30 8334 H 747.499 0.457194 -6.09688 0
M  V30 8335 H 751.673 -0.0149864 -6.96398 0
M  V30 8336 H 749.3 -0.343129 -7.59425 0
M  V30 8337 N 750.875 1.45233 0.611969 0
M  V30 8338 C 752.123 1.48727 1.36838 0
M  V30 8339 C 752.444 0.128616 1.94575 0
M  V30 8340 O 751.714 -0.84149 1.76906 0
M  V30 8341 H 750.294 0.547695 0.507976 0
M  V30 8342 H 752.956 1.81156 0.718925 0
M  V30 8343 H 752.052 2.2236 2.19003 0
M  V30 8344 N 752.353 -0.854086 1.3245 0
M  V30 8345 C 753.599 -1.61069 1.23225 0
M  V30 8346 C 753.932 -1.93111 -0.205349 0
M  V30 8347 O 753.207 -1.57397 -1.14265 0
M  V30 8348 C 753.49 -2.93065 2.09249 0
M  V30 8349 C 753.343 -2.67801 3.6139 0
M  V30 8350 C 754.662 -3.94341 1.95406 0
M  V30 8351 H 751.781 -0.584449 0.448986 0
M  V30 8352 H 754.423 -0.986189 1.62402 0
M  V30 8353 H 752.573 -3.46364 1.75967 0
M  V30 8354 H 754.245 -2.21052 4.04887 0
M  V30 8355 H 752.488 -2.01756 3.84027 0
M  V30 8356 H 753.159 -3.6179 4.16907 0
M  V30 8357 H 755.635 -3.50301 2.24562 0
M  V30 8358 H 754.511 -4.84555 2.57872 0
M  V30 8359 H 754.772 -4.32382 0.921865 0
M  V30 8360 N 753.831 -1.1567 -1.07043 0
M  V30 8361 C 755.056 -0.957946 -1.83952 0
M  V30 8362 C 755.481 0.488807 -1.81638 0
M  V30 8363 O 754.839 1.34869 -1.21162 0
M  V30 8364 C 754.887 -1.48064 -3.288 0
M  V30 8365 O 753.991 -0.681921 -4.06723 0
M  V30 8366 H 753.332 -0.341453 -0.569479 0
M  V30 8367 H 755.862 -1.53728 -1.35015 0
M  V30 8368 H 755.872 -1.49484 -3.7963 0
M  V30 8369 H 754.547 -2.53388 -3.29799 0
M  V30 8370 H 753.124 -0.737612 -3.65532 0
M  V30 8371 N 755.309 1.25446 -0.953992 0
M  V30 8372 C 756.539 1.96929 -0.624688 0
M  V30 8373 C 756.947 1.71112 0.807292 0
M  V30 8374 O 756.29 0.983512 1.55154 0
M  V30 8375 C 756.352 3.50425 -0.802676 0
M  V30 8376 C 756.016 3.99916 -2.21169 0
M  V30 8377 C 757.013 4.10662 -3.18831 0
M  V30 8378 C 754.698 4.33598 -2.53571 0
M  V30 8379 C 756.692 4.54401 -4.46988 0
M  V30 8380 C 754.379 4.77024 -3.81958 0
M  V30 8381 C 755.377 4.87388 -4.78478 0
M  V30 8382 O 755.065 5.29851 -6.04577 0
M  V30 8383 H 754.797 0.634511 -0.233179 0
M  V30 8384 H 757.351 1.60591 -1.28061 0
M  V30 8385 H 755.581 3.86596 -0.0896044 0
M  V30 8386 H 757.27 4.03117 -0.47452 0
M  V30 8387 H 758.036 3.84872 -2.95124 0
M  V30 8388 H 753.915 4.24757 -1.79171 0
M  V30 8389 H 757.459 4.62406 -5.22328 0
M  V30 8390 H 753.356 5.02258 -4.05471 0
M  V30 8391 H 754.124 5.48039 -6.07944 0
M  V30 8392 N 756.787 0.722489 1.40064 0
M  V30 8393 C 758.064 0.191829 1.94657 0
M  V30 8394 C 758.444 -1.30389 1.66018 0
M  V30 8395 O 757.792 -2.06342 0.981588 0
M  V30 8396 C 758.002 0.511978 3.45224 0
M  V30 8397 C 759.35 0.454426 4.22161 0
M  V30 8398 O 760.374 0.448438 3.53366 0
M  V30 8399 O 759.233 0.437986 5.44742 0
M  V30 8400 H 756.327 0.0307821 0.826427 0
M  V30 8401 H 758.873 0.800493 1.49634 0
M  V30 8402 H 757.645 1.54622 3.59455 0
M  V30 8403 H 757.268 -0.126296 3.97399 0
M  V30 8404 N 758.265 -1.50454 0.469181 0
M  V30 8405 C 759.175 -2.32248 -0.331349 0
M  V30 8406 C 760.191 -1.42548 -0.997807 0
M  V30 8407 O 761.367 -1.75602 -0.9862 0
M  V30 8408 C 758.432 -3.17171 -1.40012 0
M  V30 8409 C 757.493 -4.2269 -0.750463 0
M  V30 8410 C 756.726 -5.03554 -1.76831 0
M  V30 8411 O 756.949 -4.85469 -2.99459 0
M  V30 8412 O 755.883 -5.86767 -1.3412 0
M  V30 8413 H 759.709 -3.01821 0.337279 0
M  V30 8414 H 757.294 -1.47602 0.231066 0
M  V30 8415 H 759.176 -3.69871 -2.01924 0
M  V30 8416 H 757.851 -2.50328 -2.05226 0
M  V30 8417 H 756.758 -3.73986 -0.0924446 0
M  V30 8418 H 758.091 -4.91997 -0.14131 0
M  V30 8419 N 759.743 -0.201713 -1.56304 0
M  V30 8420 C 760.973 0.440084 -2.01858 0
M  V30 8421 C 761.381 1.55279 -1.08098 0
M  V30 8422 O 760.724 1.83529 -0.0792216 0
M  V30 8423 C 760.786 1.05091 -3.43797 0
M  V30 8424 C 760.45 0.0761208 -4.56937 0
M  V30 8425 C 761.447 -0.716951 -5.14933 0
M  V30 8426 C 759.132 -0.0368815 -5.02286 0
M  V30 8427 C 761.126 -1.60993 -6.16733 0
M  V30 8428 C 758.813 -0.933409 -6.03929 0
M  V30 8429 C 759.811 -1.71849 -6.61027 0
M  V30 8430 O 759.499 -2.59998 -7.60695 0
M  V30 8431 H 759.231 0.114139 -0.666294 0
M  V30 8432 H 761.785 -0.309672 -2.03052 0
M  V30 8433 H 760.015 1.84938 -3.3961 0
M  V30 8434 H 761.704 1.59804 -3.73118 0
M  V30 8435 H 762.47 -0.63999 -4.80759 0
M  V30 8436 H 758.349 0.564034 -4.57537 0
M  V30 8437 H 761.893 -2.22315 -6.61227 0
M  V30 8438 H 757.79 -1.01146 -6.37526 0
M  V30 8439 H 758.558 -2.53851 -7.7814 0
M  V30 8440 N 761.222 1.57436 0.0718424 0
M  V30 8441 C 762.638 1.53792 0.426628 0
M  V30 8442 C 762.838 0.921887 1.79174 0
M  V30 8443 O 761.894 0.524374 2.46995 0
M  V30 8444 C 763.207 2.98443 0.367739 0
M  V30 8445 C 764.755 3.09778 0.447928 0
M  V30 8446 C 765.23 4.5608 0.418946 0
M  V30 8447 N 766.721 4.60716 0.479022 0
M  V30 8448 C 767.456 5.71397 0.47881 0
M  V30 8449 N 766.952 6.91443 0.433417 0
M  V30 8450 N 768.745 5.59639 0.525364 0
M  V30 8451 H 760.896 1.95848 -0.822033 0
M  V30 8452 H 763.159 0.896418 -0.308447 0
M  V30 8453 H 762.865 3.47072 -0.56865 0
M  V30 8454 H 762.739 3.58335 1.17795 0
M  V30 8455 H 765.126 2.61122 1.37474 0
M  V30 8456 H 765.207 2.52796 -0.390857 0
M  V30 8457 H 764.851 5.05393 -0.504016 0
M  V30 8458 H 764.781 5.10925 1.27526 0
M  V30 8459 H 767.272 3.74328 0.518355 0
M  V30 8460 H 767.585 7.71562 0.43718 0
M  V30 8461 H 765.93 6.93847 0.400106 0
M  V30 8462 H 769.121 4.64756 0.558519 0
M  V30 8463 H 769.294 6.45896 0.52173 0
M  V30 8464 N 762.7 -0.34323 1.53817 0
M  V30 8465 C 763.93 -1.10188 1.74763 0
M  V30 8466 C 764.338 -1.82829 0.486856 0
M  V30 8467 O 763.681 -1.75236 -0.551198 0
M  V30 8468 C 763.743 -2.16 2.87375 0
M  V30 8469 C 763.407 -1.62931 4.26969 0
M  V30 8470 C 764.404 -1.08147 5.08528 0
M  V30 8471 C 762.089 -1.67769 4.73454 0
M  V30 8472 C 764.083 -0.589039 6.34672 0
M  V30 8473 C 761.77 -1.18138 5.99572 0
M  V30 8474 C 762.768 -0.637979 6.80014 0
M  V30 8475 O 762.456 -0.149073 8.03762 0
M  V30 8476 H 762.188 -0.33445 0.587469 0
M  V30 8477 H 764.742 -0.401109 2.01445 0
M  V30 8478 H 762.972 -2.89637 2.56218 0
M  V30 8479 H 764.661 -2.77432 2.96287 0
M  V30 8480 H 765.427 -1.03732 4.73777 0
M  V30 8481 H 761.306 -2.09004 4.10899 0
M  V30 8482 H 764.85 -0.164233 6.97407 0
M  V30 8483 H 760.747 -1.22254 6.33817 0
M  V30 8484 H 761.515 -0.266332 8.18067 0
M  V30 8485 N 764.178 -1.45556 -0.604258 0
M  V30 8486 C 765.594 -1.30035 -0.925368 0
M  V30 8487 C 765.794 -0.255833 -1.99869 0
M  V30 8488 O 764.85 0.349076 -2.50075 0
M  V30 8489 C 766.163 -2.68028 -1.36314 0
M  V30 8490 C 767.711 -2.75951 -1.47717 0
M  V30 8491 C 768.186 -4.14476 -1.94868 0
M  V30 8492 N 769.677 -4.16787 -2.02097 0
M  V30 8493 C 770.412 -5.20845 -2.39809 0
M  V30 8494 N 769.908 -6.35246 -2.76467 0
M  V30 8495 N 771.701 -5.08204 -2.40177 0
M  V30 8496 H 763.852 -2.1214 0.10512 0
M  V30 8497 H 766.115 -0.947871 -0.0156303 0
M  V30 8498 H 765.821 -3.45667 -0.648628 0
M  V30 8499 H 765.695 -2.96711 -2.329 0
M  V30 8500 H 768.082 -1.98613 -2.18258 0
M  V30 8501 H 768.163 -2.50977 -0.494371 0
M  V30 8502 H 767.807 -4.923 -1.24912 0
M  V30 8503 H 767.737 -4.36843 -2.94068 0
M  V30 8504 H 770.228 -3.34233 -1.76343 0
M  V30 8505 H 770.541 -7.10438 -3.04134 0
M  V30 8506 H 768.886 -6.38642 -2.74155 0
M  V30 8507 H 772.077 -4.17874 -2.10947 0
M  V30 8508 H 772.25 -5.89417 -2.69242 0
M  V30 8509 N 765.656 0.84705 -1.32902 0
M  V30 8510 C 766.881 1.63925 -1.27056 0
M  V30 8511 C 767.306 1.87443 0.157136 0
M  V30 8512 O 766.664 1.43266 1.11106 0
M  V30 8513 C 766.712 2.97134 -2.04313 0
M  V30 8514 O 765.816 3.88049 -1.39614 0
M  V30 8515 H 765.157 0.499477 -0.437514 0
M  V30 8516 H 767.687 1.05443 -1.75336 0
M  V30 8517 H 767.697 3.46896 -2.14772 0
M  V30 8518 H 766.372 2.79339 -3.08128 0
M  V30 8519 H 764.949 3.46525 -1.3775 0
M  V30 8520 N 767.134 1.16236 1.06428 0
M  V30 8521 C 768.38 0.944431 1.79467 0
M  V30 8522 C 768.713 -0.526558 1.86925 0
M  V30 8523 O 767.988 -1.39061 1.35986 0
M  V30 8524 C 768.271 1.57092 3.24028 0
M  V30 8525 C 768.124 3.11315 3.24658 0
M  V30 8526 C 769.443 1.26447 4.21544 0
M  V30 8527 H 766.562 0.344521 0.651517 0
M  V30 8528 H 769.204 1.43545 1.24478 0
M  V30 8529 H 767.354 1.15337 3.70985 0
M  V30 8530 H 769.026 3.62042 2.85873 0
M  V30 8531 H 767.269 3.44716 2.6335 0
M  V30 8532 H 767.94 3.50269 4.26633 0
M  V30 8533 H 770.416 1.62581 3.83023 0
M  V30 8534 H 769.292 1.72885 5.20963 0
M  V30 8535 H 769.553 0.183068 4.41721 0
M  V30 8536 N 768.612 -1.24939 0.960631 0
M  V30 8537 C 769.861 -1.92118 0.614298 0
M  V30 8538 C 770.174 -1.75998 -0.853474 0
M  V30 8539 O 771.38 -2.37804 -1.31003 0
M  V30 8540 C 769.836 -3.44303 1.04801 0
M  V30 8541 C 769.444 -3.69123 2.53875 0
M  V30 8542 C 771.188 -4.17375 0.774497 0
M  V30 8543 C 769.095 -5.14843 2.91016 0
M  V30 8544 H 768.025 -0.719319 0.226045 0
M  V30 8545 H 770.676 -1.41701 1.16589 0
M  V30 8546 H 769.058 -3.93715 0.42479 0
M  V30 8547 H 770.232 -3.30339 3.21267 0
M  V30 8548 H 768.547 -3.09323 2.78762 0
M  V30 8549 H 771.144 -5.24723 1.02808 0
M  V30 8550 H 771.487 -4.15294 -0.289192 0
M  V30 8551 H 772.02 -3.7389 1.35835 0
M  V30 8552 H 768.759 -5.2204 3.96427 0
M  V30 8553 H 768.279 -5.54652 2.28302 0
M  V30 8554 H 769.958 -5.83017 2.80535 0
M  V30 8555 N 770.09 -0.729906 -1.39679 0
M  V30 8556 C 771.037 -0.0866063 -2.30637 0
M  V30 8557 C 772.007 0.735115 -1.48947 0
M  V30 8558 O 773.192 0.696125 -1.77648 0
M  V30 8559 C 770.332 0.818524 -3.35252 0
M  V30 8560 C 769.445 -0.0152635 -4.31997 0
M  V30 8561 C 768.58 0.890669 -5.2368 0
M  V30 8562 C 767.619 0.0518246 -6.12078 0
M  V30 8563 N 766.756 0.913411 -6.96133 0
M  V30 8564 H 771.596 -0.867925 -2.85081 0
M  V30 8565 H 769.133 -0.439673 -1.40376 0
M  V30 8566 H 771.091 1.3577 -3.9449 0
M  V30 8567 H 769.721 1.56587 -2.82277 0
M  V30 8568 H 768.773 -0.671794 -3.74421 0
M  V30 8569 H 770.085 -0.664086 -4.9436 0
M  V30 8570 H 769.239 1.49787 -5.87919 0
M  V30 8571 H 767.978 1.57328 -4.61627 0
M  V30 8572 H 766.983 -0.568209 -5.46856 0
M  V30 8573 H 768.208 -0.627497 -6.76195 0
M  V30 8574 H 766.154 1.58141 -6.36653 0
M  V30 8575 H 766.071 0.320952 -7.55318 0
M  V30 8576 H 767.339 1.50633 -7.64807 0
M  V30 8577 N 771.568 1.50203 -0.477153 0
M  V30 8578 C 772.531 2.27194 0.302599 0
M  V30 8579 C 773.531 1.32221 0.915112 0
M  V30 8580 O 774.721 1.55593 0.783348 0
M  V30 8581 C 771.853 3.0938 1.43167 0
M  V30 8582 H 773.046 2.97575 -0.372678 0
M  V30 8583 H 770.599 1.54578 -0.231392 0
M  V30 8584 H 771.334 2.43509 2.14182 0
M  V30 8585 H 771.119 3.79181 0.998197 0
M  V30 8586 H 772.609 3.67592 1.98157 0
M  V30 8587 N 773.046 0.209999 1.56195 0
M  V30 8588 C 774.286 -0.4268 1.99894 0
M  V30 8589 C 774.65 -1.57763 1.0943 0
M  V30 8590 O 775.851 -2.27964 1.42428 0
M  V30 8591 C 774.122 -0.861188 3.46869 0
M  V30 8592 S 775.681 -1.49372 4.12593 0
M  V30 8593 H 772.499 -0.135922 0.697887 0
M  V30 8594 H 775.101 0.316573 1.9292 0
M  V30 8595 H 773.805 -0.0137653 4.10398 0
M  V30 8596 H 773.336 -1.63766 3.57693 0
M  V30 8597 H 775.351 -2.7827 4.10829 0
M  V30 8598 N 774.524 -1.57472 -0.0634922 0
M  V30 8599 C 775.456 -2.00999 -1.10145 0
M  V30 8600 C 776.469 -0.917219 -1.34503 0
M  V30 8601 O 777.658 -1.19501 -1.32596 0
M  V30 8602 C 774.758 -2.34089 -2.45063 0
M  V30 8603 C 773.931 -3.65317 -2.40546 0
M  V30 8604 C 772.99 -3.85982 -3.57637 0
M  V30 8605 O 772.016 -4.5747 -3.38689 0
M  V30 8606 N 773.218 -3.28971 -4.78287 0
M  V30 8607 H 775.983 -2.90656 -0.730714 0
M  V30 8608 H 773.544 -1.59926 -0.252017 0
M  V30 8609 H 775.536 -2.4508 -3.22053 0
M  V30 8610 H 774.106 -1.50279 -2.74107 0
M  V30 8611 H 773.326 -3.65003 -1.48885 0
M  V30 8612 H 774.614 -4.51468 -2.34636 0
M  V30 8613 H 774.012 -2.70962 -4.96584 0
M  V30 8614 H 772.569 -3.45398 -5.5276 0
M  V30 8615 N 776.003 0.335068 -1.53997 0
M  V30 8616 C 776.933 1.41727 -1.85568 0
M  V30 8617 C 777.914 1.54505 -0.7115 0
M  V30 8618 O 779.099 1.68573 -0.964191 0
M  V30 8619 C 776.229 2.7866 -2.07282 0
M  V30 8620 C 775.183 2.80682 -3.23112 0
M  V30 8621 C 774.509 4.20581 -3.30175 0
M  V30 8622 C 775.809 2.45458 -4.61029 0
M  V30 8623 H 777.503 1.15555 -2.76202 0
M  V30 8624 H 775.049 0.554445 -1.32898 0
M  V30 8625 H 777.002 3.54423 -2.27952 0
M  V30 8626 H 775.726 3.06286 -1.13387 0
M  V30 8627 H 774.385 2.07373 -3.02311 0
M  V30 8628 H 774.033 4.4533 -2.33859 0
M  V30 8629 H 773.733 4.22843 -4.08016 0
M  V30 8630 H 775.257 4.98174 -3.53066 0
M  V30 8631 H 776.671 3.10934 -4.81656 0
M  V30 8632 H 775.068 2.5899 -5.41336 0
M  V30 8633 H 776.138 1.40628 -4.6406 0
M  V30 8634 N 777.481 1.45874 0.596531 0
M  V30 8635 C 778.391 1.57947 1.73464 0
M  V30 8636 C 779.407 0.463461 1.67714 0
M  V30 8637 O 780.583 0.725685 1.87872 0
M  V30 8638 C 777.648 1.55348 3.09948 0
M  V30 8639 C 776.709 2.78074 3.27068 0
M  V30 8640 C 775.942 2.75589 4.57041 0
M  V30 8641 O 776.165 1.83545 5.40063 0
M  V30 8642 O 775.099 3.66945 4.77111 0
M  V30 8643 H 778.925 2.54169 1.66228 0
M  V30 8644 H 776.51 1.2851 0.76194 0
M  V30 8645 H 778.392 1.56545 3.91244 0
M  V30 8646 H 777.067 0.622811 3.17652 0
M  V30 8647 H 775.974 2.82435 2.45319 0
M  V30 8648 H 777.307 3.70303 3.24248 0
M  V30 8649 N 778.959 -0.83999 1.33349 0
M  V30 8650 C 779.869 -1.98182 1.25543 0
M  V30 8651 C 780.885 -1.73204 0.166208 0
M  V30 8652 O 782.061 -1.97596 0.389589 0
M  V30 8653 C 779.126 -3.32157 0.993614 0
M  V30 8654 C 778.187 -3.70258 2.17273 0
M  V30 8655 C 777.42 -4.9784 1.92331 0
M  V30 8656 O 777.643 -5.63679 0.873074 0
M  V30 8657 O 776.577 -5.33418 2.78835 0
M  V30 8658 H 780.403 -2.07708 2.21565 0
M  V30 8659 H 777.988 -0.972852 1.13384 0
M  V30 8660 H 779.87 -4.12433 0.864711 0
M  V30 8661 H 778.545 -3.23637 0.0636596 0
M  V30 8662 H 777.452 -2.90497 2.35716 0
M  V30 8663 H 778.785 -3.83442 3.08598 0
M  V30 8664 N 780.437 -1.16799 -1.0581 0
M  V30 8665 C 781.714 -0.862616 -1.75551 0
M  V30 8666 C 782.094 0.6385 -2.01212 0
M  V30 8667 O 781.442 1.58784 -1.64317 0
M  V30 8668 C 781.652 -1.6907 -3.05314 0
M  V30 8669 C 783 -1.90675 -3.79379 0
M  V30 8670 O 784.024 -1.65976 -3.15167 0
M  V30 8671 O 782.883 -2.32145 -4.94743 0
M  V30 8672 H 779.977 -0.318789 -0.763088 0
M  V30 8673 H 782.523 -1.27461 -1.12034 0
M  V30 8674 H 781.295 -2.70912 -2.82352 0
M  V30 8675 H 780.918 -1.27606 -3.76567 0
M  V30 8676 N 781.915 1.24427 -0.967243 0
M  V30 8677 C 783.164 1.91789 -0.624478 0
M  V30 8678 C 783.477 1.76448 0.844129 0
M  V30 8679 O 784.683 2.38495 1.2974 0
M  V30 8680 C 783.139 3.43743 -1.06626 0
M  V30 8681 C 782.747 3.67771 -2.55829 0
M  V30 8682 C 784.491 4.16958 -0.79662 0
M  V30 8683 C 782.398 5.13293 -2.93742 0
M  V30 8684 H 781.328 0.71811 -0.229856 0
M  V30 8685 H 783.979 1.41081 -1.17339 0
M  V30 8686 H 782.361 3.93484 -0.445663 0
M  V30 8687 H 783.535 3.28631 -3.23015 0
M  V30 8688 H 781.85 3.07841 -2.80398 0
M  V30 8689 H 784.447 5.24171 -1.05589 0
M  V30 8690 H 784.79 4.15442 0.267163 0
M  V30 8691 H 785.323 3.73164 -1.37816 0
M  V30 8692 H 782.062 5.19931 -3.9919 0
M  V30 8693 H 781.582 5.53433 -2.3124 0
M  V30 8694 H 783.261 5.81521 -2.83623 0
M  V30 8695 N 783.393 0.737304 1.3929 0
M  V30 8696 C 784.618 0.295237 2.05288 0
M  V30 8697 C 785.043 -1.06235 1.55228 0
M  V30 8698 O 784.401 -1.67365 0.697043 0
M  V30 8699 C 784.449 0.309146 3.59272 0
M  V30 8700 O 783.553 -0.702437 4.06374 0
M  V30 8701 H 782.894 0.133762 0.650387 0
M  V30 8702 H 785.424 1.00387 1.78279 0
M  V30 8703 H 785.434 0.154336 4.07708 0
M  V30 8704 H 784.109 1.29974 3.95069 0
M  V30 8705 H 782.686 -0.513574 3.69346 0
M  V30 8706 N 784.871 -1.49948 0.485112 0
M  V30 8707 C 785.818 -2.28819 -0.301729 0
M  V30 8708 C 786.788 -1.34496 -0.974683 0
M  V30 8709 O 787.973 -1.63444 -0.984418 0
M  V30 8710 C 785.113 -3.16758 -1.36961 0
M  V30 8711 C 784.226 -4.26125 -0.710027 0
M  V30 8712 C 783.361 -5.01302 -1.75699 0
M  V30 8713 C 782.4 -6.02525 -1.07841 0
M  V30 8714 N 781.537 -6.70927 -2.06886 0
M  V30 8715 H 786.377 -2.95604 0.377127 0
M  V30 8716 H 783.914 -1.45764 0.197826 0
M  V30 8717 H 785.872 -3.66106 -2.00056 0
M  V30 8718 H 784.502 -2.51991 -2.01744 0
M  V30 8719 H 783.554 -3.80385 0.0338278 0
M  V30 8720 H 784.866 -4.98493 -0.175079 0
M  V30 8721 H 784.02 -5.54438 -2.46339 0
M  V30 8722 H 782.759 -4.28672 -2.32577 0
M  V30 8723 H 781.764 -5.48635 -0.357706 0
M  V30 8724 H 782.989 -6.77134 -0.516345 0
M  V30 8725 H 780.935 -6.01079 -2.62755 0
M  V30 8726 H 780.852 -7.39216 -1.58414 0
M  V30 8727 H 782.12 -7.28675 -2.76863 0
M  V30 8728 N 786.349 -0.21828 -1.56081 0
M  V30 8729 C 787.596 0.414307 -1.98216 0
M  V30 8730 C 787.924 1.60005 -1.10584 0
M  V30 8731 O 787.179 1.95124 -0.150043 0
M  V30 8732 C 787.478 0.894782 -3.46018 0
M  V30 8733 C 787.144 -0.180083 -4.5054 0
M  V30 8734 C 785.806 -0.475367 -4.78846 0
M  V30 8735 C 788.158 -0.907191 -5.13244 0
M  V30 8736 C 785.486 -1.50233 -5.67139 0
M  V30 8737 C 787.838 -1.92347 -6.02649 0
M  V30 8738 C 786.502 -2.22571 -6.293 0
M  V30 8739 H 785.772 0.151606 -0.725325 0
M  V30 8740 H 788.419 -0.320113 -1.88806 0
M  V30 8741 H 786.724 1.7079 -3.52616 0
M  V30 8742 H 788.421 1.39403 -3.75989 0
M  V30 8743 H 785.011 0.06022 -4.28558 0
M  V30 8744 H 789.195 -0.692303 -4.91448 0
M  V30 8745 H 784.451 -1.74215 -5.86054 0
M  V30 8746 H 788.625 -2.49197 -6.50288 0
M  V30 8747 H 786.252 -3.0229 -6.97513 0
M  V30 8748 N 787.827 1.57504 0.0551401 0
M  V30 8749 C 788.79 2.03826 1.04821 0
M  V30 8750 C 789.79 0.937968 1.30609 0
M  V30 8751 O 790.98 1.20237 1.2605 0
M  V30 8752 C 788.112 2.43309 2.38775 0
M  V30 8753 H 789.305 2.92802 0.6486 0
M  V30 8754 H 786.858 1.53368 0.301315 0
M  V30 8755 H 787.593 1.5741 2.83536 0
M  V30 8756 H 787.378 3.23615 2.21395 0
M  V30 8757 H 788.868 2.79666 3.10124 0
M  V30 8758 N 789.305 -0.326896 1.54172 0
M  V30 8759 C 790.215 -1.42525 1.86343 0
M  V30 8760 C 791.231 -1.56764 0.75505 0
M  V30 8761 O 792.407 -1.71924 1.04901 0
M  V30 8762 C 789.472 -2.77286 2.08119 0
M  V30 8763 C 788.533 -2.7225 3.31931 0
M  V30 8764 C 787.766 -4.00584 3.52659 0
M  V30 8765 O 787.989 -4.98686 2.76891 0
M  V30 8766 O 786.923 -4.04045 4.46129 0
M  V30 8767 H 790.749 -1.18249 2.79734 0
M  V30 8768 H 788.334 -0.520614 1.40036 0
M  V30 8769 H 790.216 -3.57065 2.23791 0
M  V30 8770 H 788.891 -3.01459 1.17917 0
M  V30 8771 H 787.798 -1.91033 3.21647 0
M  V30 8772 H 789.131 -2.53032 4.2218 0
M  V30 8773 N 790.784 -1.46188 -0.588786 0
M  V30 8774 C 791.731 -1.56292 -1.69828 0
M  V30 8775 C 792.701 -0.407581 -1.61022 0
M  V30 8776 O 793.886 -0.623532 -1.80324 0
M  V30 8777 C 791.026 -1.55341 -3.08161 0
M  V30 8778 C 790.139 -2.81564 -3.27636 0
M  V30 8779 C 789.274 -2.72158 -4.56183 0
M  V30 8780 C 788.313 -3.93348 -4.68981 0
M  V30 8781 N 787.45 -3.82365 -5.88848 0
M  V30 8782 H 792.29 -2.51066 -1.6053 0
M  V30 8783 H 789.827 -1.24562 -0.782474 0
M  V30 8784 H 791.785 -1.52776 -3.88221 0
M  V30 8785 H 790.415 -0.641034 -3.16371 0
M  V30 8786 H 789.467 -2.94136 -2.41223 0
M  V30 8787 H 790.779 -3.714 -3.32962 0
M  V30 8788 H 789.933 -2.67665 -5.44464 0
M  V30 8789 H 788.672 -1.79953 -4.53286 0
M  V30 8790 H 787.677 -3.98181 -3.7912 0
M  V30 8791 H 788.902 -4.86643 -4.73662 0
M  V30 8792 H 786.848 -2.92942 -5.86959 0
M  V30 8793 H 786.765 -4.65851 -5.95415 0
M  V30 8794 H 788.033 -3.81836 -6.79575 0
M  V30 8795 N 792.262 0.832906 -1.33792 0
M  V30 8796 C 793.539 1.57359 -1.16178 0
M  V30 8797 C 793.919 2.09372 0.269532 0
M  V30 8798 O 793.267 1.89993 1.26944 0
M  V30 8799 C 793.477 2.70279 -2.20795 0
M  V30 8800 C 794.825 3.39305 -2.55259 0
M  V30 8801 O 795.849 2.80526 -2.19508 0
M  V30 8802 O 794.708 4.45428 -3.16632 0
M  V30 8803 H 791.802 0.694025 -0.449731 0
M  V30 8804 H 794.348 0.875144 -1.45394 0
M  V30 8805 H 793.12 2.29527 -3.16911 0
M  V30 8806 H 792.743 3.47782 -1.927 0
M  V30 8807 N 793.74 1.17359 1.05189 0
M  V30 8808 C 794.688 0.886527 2.15043 0
M  V30 8809 C 795.682 -0.148834 1.68745 0
M  V30 8810 O 796.888 -0.00175123 1.8 0
M  V30 8811 H 793.263 0.269147 0.702185 0
M  V30 8812 H 795.234 1.82016 2.36459 0
M  V30 8813 C 793.983 0.416333 3.45198 0
M  V30 8814 H 793.306 1.20449 3.81225 0
M  V30 8815 H 794.746 0.254362 4.23236 0
M  V30 8816 C 793.205 -0.866016 3.25579 0
M  V30 8817 O 793.735 -1.9328 3.52144 0
M  V30 8818 N 791.941 -0.814179 2.78961 0
M  V30 8819 H 791.488 0.0541618 2.57543 0
M  V30 8820 H 791.446 -1.67264 2.66214 0
M  V30 8821 N 795.218 -1.23913 0.973828 0
M  V30 8822 C 796.467 -1.91455 0.63464 0
M  V30 8823 C 796.78 -1.76893 -0.834759 0
M  V30 8824 O 797.986 -2.3918 -1.28473 0
M  V30 8825 C 796.442 -3.43172 1.08447 0
M  V30 8826 C 796.05 -3.66409 2.57776 0
M  V30 8827 C 797.794 -4.1653 0.818721 0
M  V30 8828 C 795.701 -5.11728 2.9646 0
M  V30 8829 H 794.631 -0.716881 0.233661 0
M  V30 8830 H 797.282 -1.40457 1.18085 0
M  V30 8831 H 795.664 -3.93242 0.466524 0
M  V30 8832 H 796.838 -3.26913 3.24753 0
M  V30 8833 H 795.153 -3.06349 2.82027 0
M  V30 8834 H 797.75 -5.23603 1.08367 0
M  V30 8835 H 798.093 -4.15578 -0.245128 0
M  V30 8836 H 798.626 -3.72428 1.39793 0
M  V30 8837 H 795.365 -5.17806 4.01941 0
M  V30 8838 H 794.885 -5.52199 2.34172 0
M  V30 8839 H 796.564 -5.80009 2.86703 0
M  V30 8840 N 796.696 -0.74468 -1.38897 0
M  V30 8841 C 797.942 -0.297324 -2.00609 0
M  V30 8842 C 798.275 1.11547 -1.58968 0
M  V30 8843 O 797.55 1.76227 -0.823057 0
M  V30 8844 C 797.833 -0.410125 -3.57757 0
M  V30 8845 C 797.686 -1.86338 -4.09387 0
M  V30 8846 C 799.005 0.20176 -4.39637 0
M  V30 8847 H 796.124 -0.109509 -0.728819 0
M  V30 8848 H 798.766 -0.942653 -1.64967 0
M  V30 8849 H 796.916 0.139287 -3.8825 0
M  V30 8850 H 798.588 -2.47042 -3.89574 0
M  V30 8851 H 796.831 -2.38146 -3.62586 0
M  V30 8852 H 797.502 -1.89352 -5.18507 0
M  V30 8853 H 799.978 -0.266703 -4.15244 0
M  V30 8854 H 798.854 0.0925415 -5.48822 0
M  V30 8855 H 799.115 1.289 -4.22891 0
M  V30 8856 N 798.174 1.49689 -0.493057 0
M  V30 8857 C 799.104 2.31826 0.279073 0
M  V30 8858 C 800.085 1.39733 0.969987 0
M  V30 8859 O 801.27 1.68646 0.962925 0
M  V30 8860 C 798.4 3.20046 1.34862 0
M  V30 8861 C 797.354 4.20869 0.77805 0
M  V30 8862 C 796.68 4.97971 1.94753 0
M  V30 8863 C 797.98 5.21813 -0.225543 0
M  V30 8864 H 799.674 2.96627 -0.406512 0
M  V30 8865 H 797.22 1.42647 -0.196943 0
M  V30 8866 H 799.173 3.76315 1.89645 0
M  V30 8867 H 797.897 2.53172 2.06328 0
M  V30 8868 H 796.556 3.65733 0.252036 0
M  V30 8869 H 796.204 4.27552 2.64969 0
M  V30 8870 H 795.904 5.66186 1.57187 0
M  V30 8871 H 797.428 5.57082 2.49984 0
M  V30 8872 H 798.842 5.72823 0.233864 0
M  V30 8873 H 797.239 5.97872 -0.516622 0
M  V30 8874 H 798.309 4.71209 -1.14412 0
M  V30 8875 N 799.652 0.226554 1.55963 0
M  V30 8876 C 800.9 -0.402991 1.98041 0
M  V30 8877 C 801.221 -1.59938 1.11557 0
M  V30 8878 O 800.491 -1.9494 0.193719 0
M  V30 8879 H 799.071 -0.15188 0.731397 0
M  V30 8880 H 801.733 0.320613 1.92245 0
M  V30 8881 H 800.829 -0.725937 3.0354 0
M  V30 8882 N 801.13 -1.57531 -0.0467866 0
M  V30 8883 C 802.04 -2.08768 -1.07018 0
M  V30 8884 C 803.056 -1.02245 -1.40791 0
M  V30 8885 O 804.232 -1.33873 -1.50466 0
M  V30 8886 C 801.297 -2.54221 -2.35738 0
M  V30 8887 C 800.358 -3.75152 -2.08709 0
M  V30 8888 C 799.591 -4.18428 -3.31291 0
M  V30 8889 O 799.814 -3.61365 -4.4133 0
M  V30 8890 O 798.748 -5.11018 -3.18032 0
M  V30 8891 H 802.574 -2.96334 -0.664812 0
M  V30 8892 H 800.159 -1.47074 -0.262605 0
M  V30 8893 H 802.041 -2.83866 -3.11445 0
M  V30 8894 H 800.716 -1.69774 -2.75605 0
M  V30 8895 H 799.623 -3.50553 -1.30627 0
M  V30 8896 H 800.956 -4.60528 -1.73708 0
M  V30 8897 N 802.608 0.318715 -1.54344 0
M  V30 8898 C 803.856 1.054 -1.72439 0
M  V30 8899 C 804.177 1.88388 -0.503495 0
M  V30 8900 O 803.447 1.89866 0.48246 0
M  V30 8901 H 802.027 0.392124 -0.635805 0
M  V30 8902 H 804.689 0.35398 -1.91659 0
M  V30 8903 H 803.785 1.71726 -2.60608 0
M  V30 8904 N 804.086 1.46499 0.581025 0
M  V30 8905 C 805.334 1.51596 1.33653 0
M  V30 8906 C 805.655 0.169859 1.94259 0
M  V30 8907 O 804.925 -0.803776 1.78651 0
M  V30 8908 H 803.505 0.558346 0.496244 0
M  V30 8909 H 806.167 1.8264 0.680338 0
M  V30 8910 H 805.263 2.26956 2.14237 0
M  V30 8911 N 805.565 -0.825799 1.34232 0
M  V30 8912 C 806.814 -1.57686 1.2577 0
M  V30 8913 C 807.127 -1.94848 -0.171372 0
M  V30 8914 O 808.333 -2.68854 -0.378123 0
M  V30 8915 C 806.789 -2.84478 2.20454 0
M  V30 8916 C 806.397 -2.54629 3.68603 0
M  V30 8917 C 808.141 -3.625 2.20893 0
M  V30 8918 C 806.048 -3.77597 4.55164 0
M  V30 8919 H 804.978 -0.591809 0.467203 0
M  V30 8920 H 807.629 -0.909421 1.59379 0
M  V30 8921 H 806.011 -3.52832 1.79793 0
M  V30 8922 H 807.185 -1.94404 4.17784 0
M  V30 8923 H 805.5 -1.89888 3.70582 0
M  V30 8924 H 808.097 -4.538 2.82789 0
M  V30 8925 H 808.44 -3.98404 1.20746 0
M  V30 8926 H 808.973 -3.01086 2.59985 0
M  V30 8927 H 805.712 -3.46815 5.56237 0
M  V30 8928 H 805.232 -4.37116 4.10719 0
M  V30 8929 H 806.911 -4.45039 4.69627 0
M  V30 8930 N 807.043 -1.17915 -1.04565 0
M  V30 8931 C 808.271 -0.99616 -1.8134 0
M  V30 8932 C 808.686 0.455509 -1.83223 0
M  V30 8933 O 808.043 1.31636 -1.26405 0
M  V30 8934 C 808.094 -1.53758 -3.27171 0
M  V30 8935 O 807.815 -2.93241 -3.25486 0
M  V30 8936 C 809.316 -1.40007 -4.2061 0
M  V30 8937 H 806.536 -0.352055 -0.571225 0
M  V30 8938 H 809.08 -1.56349 -1.31815 0
M  V30 8939 H 807.235 -1.01213 -3.73945 0
M  V30 8940 H 807.649 -3.18392 -4.16805 0
M  V30 8941 H 809.123 -1.82695 -5.2089 0
M  V30 8942 H 809.6 -0.348054 -4.37819 0
M  V30 8943 H 810.206 -1.916 -3.79697 0
M  V30 8944 N 808.521 1.23394 -0.980386 0
M  V30 8945 C 809.451 2.2717 -0.540024 0
M  V30 8946 C 810.432 1.64659 0.426787 0
M  V30 8947 O 811.617 1.91543 0.320153 0
M  V30 8948 C 808.747 3.46939 0.15836 0
M  V30 8949 C 807.701 4.21802 -0.725732 0
M  V30 8950 C 807.027 5.34597 0.104866 0
M  V30 8951 C 808.327 4.81802 -2.01654 0
M  V30 8952 H 810.021 2.64257 -1.40743 0
M  V30 8953 H 807.567 1.2703 -0.678193 0
M  V30 8954 H 809.52 4.18683 0.477737 0
M  V30 8955 H 808.244 3.08912 1.06022 0
M  V30 8956 H 806.903 3.51875 -1.02857 0
M  V30 8957 H 806.551 4.92812 1.00726 0
M  V30 8958 H 806.251 5.85607 -0.483557 0
M  V30 8959 H 807.775 6.09163 0.418624 0
M  V30 8960 H 809.189 5.45554 -1.76193 0
M  V30 8961 H 807.586 5.43098 -2.55273 0
M  V30 8962 H 808.656 4.02549 -2.70338 0
M  V30 8963 N 809.999 0.752036 1.385 0
M  V30 8964 C 811.224 0.316993 2.04963 0
M  V30 8965 C 811.649 -1.04582 1.56346 0
M  V30 8966 O 811.007 -1.66616 0.714755 0
M  V30 8967 C 811.055 0.347235 3.58924 0
M  V30 8968 O 810.159 -0.659296 4.07096 0
M  V30 8969 H 809.5 0.140652 0.648932 0
M  V30 8970 H 812.03 1.02272 1.77205 0
M  V30 8971 H 812.04 0.19757 4.07521 0
M  V30 8972 H 810.715 1.34157 3.93668 0
M  V30 8973 H 809.292 -0.474371 3.6987 0
M  V30 8974 N 811.477 -1.49425 0.500989 0
M  V30 8975 C 812.725 -2.02053 -0.0434495 0
M  V30 8976 C 813.046 -1.38285 -1.37486 0
M  V30 8977 O 812.316 -0.538171 -1.88363 0
M  V30 8978 H 810.896 -0.746757 -0.0190469 0
M  V30 8979 H 813.558 -1.83449 0.658227 0
M  V30 8980 H 812.654 -3.11619 -0.173129 0
M  V30 8981 N 812.955 -0.234822 -1.55841 0
M  V30 8982 C 814.203 0.392483 -1.98252 0
M  V30 8983 C 814.524 1.59344 -1.12404 0
M  V30 8984 O 813.794 1.94834 -0.204055 0
M  V30 8985 H 812.374 0.147999 -0.732192 0
M  V30 8986 H 815.036 -0.330804 -1.92072 0
M  V30 8987 H 814.132 0.709829 -3.03921 0
M  V30 8988 N 814.433 1.57553 0.0384317 0
M  V30 8989 C 815.365 2.02726 1.06934 0
M  V30 8990 C 816.378 0.938502 1.33026 0
M  V30 8991 O 817.567 1.21595 1.30678 0
M  V30 8992 C 814.667 2.37958 2.41308 0
M  V30 8993 C 813.84 3.69098 2.34703 0
M  V30 8994 C 812.899 3.91623 3.51451 0
M  V30 8995 O 811.925 4.628 3.31368 0
M  V30 8996 N 813.127 3.36538 4.72993 0
M  V30 8997 H 815.892 2.91781 0.684381 0
M  V30 8998 H 813.453 1.60307 0.226542 0
M  V30 8999 H 815.445 2.50172 3.18113 0
M  V30 9000 H 814.015 1.54621 2.71682 0
M  V30 9001 H 813.235 3.67325 1.43059 0
M  V30 9002 H 814.523 4.55144 2.27424 0
M  V30 9003 H 813.921 2.78828 4.92211 0
M  V30 9004 H 812.478 3.54148 5.47195 0
M  V30 9005 N 815.911 -0.310526 1.54511 0
M  V30 9006 C 817.327 -0.655637 1.45511 0
M  V30 9007 C 817.527 -1.91114 0.638564 0
M  V30 9008 O 816.583 -2.52098 0.142497 0
M  V30 9009 C 817.896 -0.817501 2.89374 0
M  V30 9010 C 819.444 -0.914003 2.99358 0
M  V30 9011 C 819.919 -1.10794 4.44397 0
M  V30 9012 N 821.41 -1.17437 4.48066 0
M  V30 9013 C 822.145 -1.34255 5.57461 0
M  V30 9014 N 821.641 -1.48032 6.768 0
M  V30 9015 N 823.434 -1.37067 5.45132 0
M  V30 9016 H 815.585 0.514506 2.06074 0
M  V30 9017 H 817.848 0.168478 0.932909 0
M  V30 9018 H 817.554 0.034003 3.51684 0
M  V30 9019 H 817.428 -1.7094 3.36243 0
M  V30 9020 H 819.815 -1.756 2.37168 0
M  V30 9021 H 819.896 0.00170958 2.558 0
M  V30 9022 H 819.54 -0.270743 5.07178 0
M  V30 9023 H 819.47 -2.03773 4.85576 0
M  V30 9024 H 821.961 -1.08181 3.62084 0
M  V30 9025 H 822.274 -1.60593 7.5593 0
M  V30 9026 H 820.619 -1.45105 6.79683 0
M  V30 9027 H 823.81 -1.25909 4.50849 0
M  V30 9028 H 823.983 -1.49831 6.3044 0
M  V30 9029 N 817.389 -1.46805 -0.573248 0
M  V30 9030 C 818.352 -1.57655 -1.66366 0
M  V30 9031 C 819.352 -0.452905 -1.5429 0
M  V30 9032 O 820.542 -0.717502 -1.58737 0
M  V30 9033 C 817.674 -1.50584 -3.05839 0
M  V30 9034 H 818.867 -2.54842 -1.581 0
M  V30 9035 H 816.42 -1.34756 -0.791868 0
M  V30 9036 H 817.155 -0.547127 -3.19651 0
M  V30 9037 H 816.94 -2.32118 -3.16012 0
M  V30 9038 H 818.43 -1.61282 -3.85199 0
M  V30 9039 N 818.867 0.818669 -1.34668 0
M  V30 9040 C 820.283 1.11243 -1.14443 0
M  V30 9041 C 820.483 2.01435 0.0512212 0
M  V30 9042 O 819.539 2.41854 0.725471 0
M  V30 9043 C 820.852 1.75504 -2.4417 0
M  V30 9044 C 822.4 1.8798 -2.50265 0
M  V30 9045 C 822.875 2.55657 -3.80004 0
M  V30 9046 N 824.366 2.63153 -3.81189 0
M  V30 9047 C 825.101 3.16258 -4.78298 0
M  V30 9048 N 824.597 3.69893 -5.85791 0
M  V30 9049 N 826.39 3.14698 -4.65748 0
M  V30 9050 H 818.541 0.218848 -2.1127 0
M  V30 9051 H 820.804 0.159655 -0.934459 0
M  V30 9052 H 820.51 1.16697 -3.31775 0
M  V30 9053 H 820.384 2.75329 -2.57825 0
M  V30 9054 H 822.771 2.45934 -1.63096 0
M  V30 9055 H 822.852 0.870447 -2.40535 0
M  V30 9056 H 822.496 1.98356 -4.67565 0
M  V30 9057 H 822.426 3.57105 -3.87019 0
M  V30 9058 H 824.917 2.2514 -3.03513 0
M  V30 9059 H 825.23 4.08678 -6.55898 0
M  V30 9060 H 823.575 3.68125 -5.89499 0
M  V30 9061 H 826.766 2.72066 -3.80917 0
M  V30 9062 H 826.939 3.5578 -5.41594 0
M  V30 9063 N 820.346 1.18468 1.03938 0
M  V30 9064 C 821.595 0.975193 1.76558 0
M  V30 9065 C 821.908 -0.495978 1.89207 0
M  V30 9066 O 823.114 -0.824009 2.58694 0
M  V30 9067 C 821.57 1.69579 3.17444 0
M  V30 9068 C 821.178 3.20636 3.12884 0
M  V30 9069 C 822.922 1.56917 3.94433 0
M  V30 9070 C 820.829 3.8533 4.48636 0
M  V30 9071 H 819.759 0.361244 0.66183 0
M  V30 9072 H 822.41 1.41854 1.16403 0
M  V30 9073 H 820.792 1.18022 3.78004 0
M  V30 9074 H 821.966 3.79228 2.61768 0
M  V30 9075 H 820.281 3.33454 2.49394 0
M  V30 9076 H 822.878 2.02611 4.94826 0
M  V30 9077 H 823.221 0.521638 4.13019 0
M  V30 9078 H 823.754 2.05762 3.40451 0
M  V30 9079 H 820.493 4.90136 4.35255 0
M  V30 9080 H 820.013 3.31526 4.99851 0
M  V30 9081 H 821.692 3.88269 5.17549 0
M  V30 9082 N 821.824 -1.22873 0.986916 0
M  V30 9083 C 823.049 -1.96028 0.677341 0
M  V30 9084 C 823.474 -1.72487 -0.750319 0
M  V30 9085 O 822.832 -1.00036 -1.51203 0
M  V30 9086 C 822.88 -3.46983 0.981593 0
M  V30 9087 O 821.984 -4.12328 0.0770729 0
M  V30 9088 H 821.325 -0.613458 0.254096 0
M  V30 9089 H 823.855 -1.56132 1.32227 0
M  V30 9090 H 823.865 -3.9747 0.920969 0
M  V30 9091 H 822.54 -3.63442 2.02194 0
M  V30 9092 H 821.117 -3.72402 0.192666 0
M  V30 9093 N 823.302 -0.75937 -1.38099 0
M  V30 9094 C 824.232 -0.151077 -2.33011 0
M  V30 9095 C 825.213 0.697099 -1.5516 0
M  V30 9096 O 826.398 0.637101 -1.83452 0
M  V30 9097 C 823.528 0.738423 -3.39359 0
M  V30 9098 C 822.482 -0.0074741 -4.27999 0
M  V30 9099 C 821.808 1.00066 -5.25253 0
M  V30 9100 C 823.108 -1.17926 -5.08813 0
M  V30 9101 H 824.802 -0.943933 -2.84131 0
M  V30 9102 H 822.348 -0.455362 -1.36611 0
M  V30 9103 H 824.301 1.17369 -4.04725 0
M  V30 9104 H 823.025 1.56366 -2.86735 0
M  V30 9105 H 821.684 -0.423379 -3.64147 0
M  V30 9106 H 821.332 1.82012 -4.68914 0
M  V30 9107 H 821.032 0.506199 -5.85416 0
M  V30 9108 H 822.556 1.43512 -5.93495 0
M  V30 9109 H 823.97 -0.821262 -5.67387 0
M  V30 9110 H 822.367 -1.60497 -5.78239 0
M  V30 9111 H 823.437 -1.98938 -4.42212 0
M  V30 9112 N 824.78 1.49157 -0.508906 0
M  V30 9113 C 825.743 2.27784 0.25434 0
M  V30 9114 C 826.743 1.34132 0.88686 0
M  V30 9115 O 827.933 1.5722 0.750168 0
M  V30 9116 C 825.065 3.12347 1.36573 0
M  V30 9117 H 826.258 2.96718 -0.435714 0
M  V30 9118 H 823.811 1.54052 -0.264128 0
M  V30 9119 H 824.546 2.47997 2.08969 0
M  V30 9120 H 824.331 3.81213 0.917543 0
M  V30 9121 H 825.821 3.71712 1.90315 0
M  V30 9122 N 826.258 0.243083 1.55714 0
M  V30 9123 C 827.674 -0.111853 1.59208 0
M  V30 9124 C 827.874 -1.5723 1.2602 0
M  V30 9125 O 826.93 -2.31608 1.00569 0
M  V30 9126 C 828.243 0.233885 2.99789 0
M  V30 9127 C 829.791 0.177873 3.12494 0
M  V30 9128 C 830.266 0.49759 4.55289 0
M  V30 9129 N 831.757 0.447949 4.61029 0
M  V30 9130 C 832.492 0.668545 5.69489 0
M  V30 9131 N 831.988 0.952064 6.86227 0
M  V30 9132 N 833.781 0.599512 5.58894 0
M  V30 9133 H 825.932 1.19554 1.75558 0
M  V30 9134 H 828.195 0.480765 0.817049 0
M  V30 9135 H 827.901 1.24835 3.28799 0
M  V30 9136 H 827.775 -0.440846 3.74615 0
M  V30 9137 H 830.162 -0.827263 2.83267 0
M  V30 9138 H 830.243 0.886399 2.39951 0
M  V30 9139 H 829.887 1.50026 4.85237 0
M  V30 9140 H 829.817 -0.232371 5.26087 0
M  V30 9141 H 832.308 0.237388 3.77154 0
M  V30 9142 H 832.621 1.10791 7.64817 0
M  V30 9143 H 830.966 0.989496 6.8792 0
M  V30 9144 H 834.157 0.378088 4.66571 0
M  V30 9145 H 834.33 0.774828 6.43351 0
M  V30 9146 N 827.736 -1.57571 -0.0300757 0
M  V30 9147 C 828.699 -2.05468 -1.01565 0
M  V30 9148 C 829.699 -0.958628 -1.29101 0
M  V30 9149 O 830.889 -1.22228 -1.24121 0
M  V30 9150 C 828.021 -2.47077 -2.34874 0
M  V30 9151 H 829.214 -2.93797 -0.601936 0
M  V30 9152 H 826.767 -1.53828 -0.276878 0
M  V30 9153 H 827.502 -1.61901 -2.80996 0
M  V30 9154 H 827.287 -3.27097 -2.16218 0
M  V30 9155 H 828.777 -2.84564 -3.05635 0
M  V30 9156 N 829.214 0.302327 -1.54673 0
M  V30 9157 C 830.46 1.03924 -1.74149 0
M  V30 9158 C 830.793 1.86968 -0.525041 0
M  V30 9159 O 830.068 1.88538 0.477868 0
M  V30 9160 C 830.351 1.94633 -3.02969 0
M  V30 9161 C 830.204 1.14778 -4.34909 0
M  V30 9162 C 831.523 2.93826 -3.27649 0
M  V30 9163 H 828.642 0.376405 -0.633631 0
M  V30 9164 H 831.284 0.314007 -1.87387 0
M  V30 9165 H 829.434 2.56471 -2.91813 0
M  V30 9166 H 831.106 0.552363 -4.57981 0
M  V30 9167 H 829.349 0.450462 -4.31455 0
M  V30 9168 H 830.02 1.81495 -5.21309 0
M  V30 9169 H 832.496 2.42117 -3.38406 0
M  V30 9170 H 831.372 3.54462 -4.19104 0
M  V30 9171 H 831.633 3.67416 -2.45882 0
M  V30 9172 N 830.692 1.47107 0.565454 0
M  V30 9173 C 831.922 1.56681 1.34664 0
M  V30 9174 C 832.33 0.213011 1.87997 0
M  V30 9175 O 831.673 -0.802629 1.65238 0
M  V30 9176 C 831.735 2.52528 2.55871 0
M  V30 9177 C 831.399 3.98403 2.23883 0
M  V30 9178 C 832.396 4.87125 1.81673 0
M  V30 9179 C 830.081 4.43674 2.35496 0
M  V30 9180 C 832.075 6.19135 1.51494 0
M  V30 9181 C 829.762 5.75714 2.0493 0
M  V30 9182 C 830.76 6.63266 1.62996 0
M  V30 9183 O 830.448 7.92853 1.32813 0
M  V30 9184 H 830.18 0.531967 0.417117 0
M  V30 9185 H 832.734 1.93368 0.692669 0
M  V30 9186 H 830.964 2.10893 3.24131 0
M  V30 9187 H 832.653 2.5232 3.17945 0
M  V30 9188 H 833.419 4.534 1.72201 0
M  V30 9189 H 829.298 3.7574 2.67096 0
M  V30 9190 H 832.842 6.87429 1.1869 0
M  V30 9191 H 828.739 6.08983 2.14031 0
M  V30 9192 H 829.507 8.0528 1.46513 0
M  V30 9193 N 832.17 -0.811516 1.35101 0
M  V30 9194 C 833.117 -1.92308 1.27617 0
M  V30 9195 C 834.087 -1.6543 0.149091 0
M  V30 9196 O 835.272 -1.8789 0.331974 0
M  V30 9197 C 832.412 -3.28768 1.04908 0
M  V30 9198 C 831.525 -3.67865 2.26493 0
M  V30 9199 C 830.66 -4.9333 1.96974 0
M  V30 9200 C 829.699 -5.25041 3.1464 0
M  V30 9201 N 828.836 -6.41685 2.84929 0
M  V30 9202 H 833.676 -1.98041 2.22674 0
M  V30 9203 H 831.213 -0.968755 1.10696 0
M  V30 9204 H 833.171 -4.07426 0.897749 0
M  V30 9205 H 831.801 -3.22517 0.135151 0
M  V30 9206 H 830.853 -2.84507 2.52507 0
M  V30 9207 H 832.165 -3.87263 3.14371 0
M  V30 9208 H 831.319 -5.79803 1.78643 0
M  V30 9209 H 830.058 -4.75958 1.06374 0
M  V30 9210 H 829.063 -4.3706 3.33554 0
M  V30 9211 H 830.288 -5.44346 4.06035 0
M  V30 9212 H 828.234 -6.25747 1.96918 0
M  V30 9213 H 828.151 -6.6131 3.66341 0
M  V30 9214 H 829.419 -7.31198 2.70128 0
M  V30 9215 N 833.648 -1.19017 -1.03309 0
M  V30 9216 C 834.925 -0.899659 -1.73682 0
M  V30 9217 C 835.305 0.595677 -2.02521 0
M  V30 9218 O 834.653 1.55263 -1.67648 0
M  V30 9219 C 834.863 -1.75508 -3.01659 0
M  V30 9220 C 836.211 -1.98679 -3.75249 0
M  V30 9221 O 837.235 -1.72624 -3.11576 0
M  V30 9222 O 836.094 -2.42587 -4.89708 0
M  V30 9223 H 833.188 -0.334903 -0.756154 0
M  V30 9224 H 835.734 -1.29809 -1.09305 0
M  V30 9225 H 834.506 -2.7684 -2.76542 0
M  V30 9226 H 834.129 -1.35565 -3.73775 0
M  V30 9227 N 835.127 1.22348 -0.993418 0
M  V30 9228 C 836.09 2.22522 -0.549251 0
M  V30 9229 C 837.09 1.56529 0.368164 0
M  V30 9230 O 838.28 1.73463 0.16005 0
M  V30 9231 C 835.412 3.40307 0.201037 0
M  V30 9232 H 836.605 2.63332 -1.43515 0
M  V30 9233 H 834.158 1.35407 -0.78068 0
M  V30 9234 H 834.893 3.0497 1.10289 0
M  V30 9235 H 834.678 3.8942 -0.457685 0
M  V30 9236 H 836.168 4.14597 0.499946 0
M  V30 9237 N 836.605 0.766683 1.37694 0
M  V30 9238 C 837.882 0.25366 1.93948 0
M  V30 9239 C 838.262 -1.25041 1.70082 0
M  V30 9240 O 837.61 -2.03115 1.04674 0
M  V30 9241 C 837.82 0.621549 3.43421 0
M  V30 9242 C 839.168 0.588504 4.20502 0
M  V30 9243 O 840.192 0.560632 3.5176 0
M  V30 9244 O 839.051 0.61107 5.43073 0
M  V30 9245 H 836.145 0.0570586 0.825029 0
M  V30 9246 H 838.691 0.847693 1.47011 0
M  V30 9247 H 837.463 1.65979 3.54354 0
M  V30 9248 H 837.086 0.000197027 3.976 0
M  V30 9249 N 838.083 -1.48885 0.516809 0
M  V30 9250 C 839.013 -2.32241 -0.242157 0
M  V30 9251 C 839.994 -1.41258 -0.947633 0
M  V30 9252 O 841.179 -1.70156 -0.935973 0
M  V30 9253 C 838.309 -3.22151 -1.29754 0
M  V30 9254 C 837.263 -4.22053 -0.710995 0
M  V30 9255 C 836.589 -5.01007 -1.86806 0
M  V30 9256 C 837.889 -5.21388 0.30853 0
M  V30 9257 H 839.583 -2.95943 0.453651 0
M  V30 9258 H 837.129 -1.42316 0.219612 0
M  V30 9259 H 839.082 -3.79284 -1.83634 0
M  V30 9260 H 837.806 -2.56423 -2.02274 0
M  V30 9261 H 836.465 -3.66087 -0.193819 0
M  V30 9262 H 836.113 -4.31713 -2.58133 0
M  V30 9263 H 835.813 -5.68615 -1.48159 0
M  V30 9264 H 837.337 -5.60989 -2.4109 0
M  V30 9265 H 838.751 -5.73122 -0.142703 0
M  V30 9266 H 837.148 -5.96975 0.611673 0
M  V30 9267 H 838.218 -4.69329 1.21894 0
M  V30 9268 N 839.561 -0.251338 -1.55583 0
M  V30 9269 C 840.791 0.375642 -2.03156 0
M  V30 9270 C 841.199 1.51761 -1.12983 0
M  V30 9271 O 840.542 1.83184 -0.13757 0
M  V30 9272 C 840.604 0.941001 -3.46966 0
M  V30 9273 C 840.268 -0.0692886 -4.56947 0
M  V30 9274 C 841.265 -0.88041 -5.12391 0
M  V30 9275 C 838.95 -0.196661 -5.01915 0
M  V30 9276 C 840.944 -1.80532 -6.11299 0
M  V30 9277 C 838.631 -1.12507 -6.00654 0
M  V30 9278 C 839.629 -1.92792 -6.55225 0
M  V30 9279 O 839.317 -2.84067 -7.52038 0
M  V30 9280 H 839.049 0.0928836 -0.669588 0
M  V30 9281 H 841.603 -0.374115 -2.01964 0
M  V30 9282 H 839.833 1.7404 -3.45322 0
M  V30 9283 H 841.522 1.47853 -3.78014 0
M  V30 9284 H 842.288 -0.792615 -4.78479 0
M  V30 9285 H 838.167 0.418187 -4.59099 0
M  V30 9286 H 841.711 -2.43239 -6.5382 0
M  V30 9287 H 837.608 -1.21377 -6.33986 0
M  V30 9288 H 838.376 -2.78479 -7.6967 0
M  V30 9289 N 841.039 1.57585 0.0217189 0
M  V30 9290 C 841.969 2.10073 1.01939 0
M  V30 9291 C 842.95 1.0049 1.37243 0
M  V30 9292 O 844.135 1.28055 1.45999 0
M  V30 9293 C 841.265 2.58618 2.31806 0
M  V30 9294 C 840.219 3.72531 2.10724 0
M  V30 9295 C 839.545 4.07309 3.46415 0
M  V30 9296 C 840.845 5.00672 1.48743 0
M  V30 9297 H 842.539 2.9368 0.582432 0
M  V30 9298 H 840.085 1.41277 0.278715 0
M  V30 9299 H 842.038 2.9396 3.01936 0
M  V30 9300 H 840.762 1.72104 2.77575 0
M  V30 9301 H 839.421 3.37549 1.43025 0
M  V30 9302 H 839.069 3.17851 3.89846 0
M  V30 9303 H 838.769 4.84042 3.33132 0
M  V30 9304 H 840.293 4.45192 4.17895 0
M  V30 9305 H 841.707 5.33925 2.088 0
M  V30 9306 H 840.104 5.82065 1.46013 0
M  V30 9307 H 841.174 4.82769 0.45408 0
M  V30 9308 N 842.517 -0.29412 1.54831 0
M  V30 9309 C 843.447 -1.36757 1.89261 0
M  V30 9310 C 844.428 -1.52564 0.752214 0
M  V30 9311 O 845.613 -1.65958 1.00855 0
M  V30 9312 C 842.743 -2.73066 2.14597 0
M  V30 9313 C 841.697 -2.72017 3.3044 0
M  V30 9314 C 841.023 -4.11679 3.4121 0
M  V30 9315 C 842.323 -2.33149 4.67375 0
M  V30 9316 H 844.017 -1.08191 2.79169 0
M  V30 9317 H 841.563 -0.519014 1.34321 0
M  V30 9318 H 843.516 -3.48255 2.37269 0
M  V30 9319 H 842.24 -3.03172 1.21467 0
M  V30 9320 H 840.899 -1.99285 3.07703 0
M  V30 9321 H 840.547 -4.38973 2.45584 0
M  V30 9322 H 840.247 -4.11877 4.19084 0
M  V30 9323 H 841.771 -4.88637 3.6615 0
M  V30 9324 H 843.185 -2.98054 4.89731 0
M  V30 9325 H 841.582 -2.44546 5.48012 0
M  V30 9326 H 842.652 -1.28275 4.67626 0
M  V30 9327 N 843.995 -1.47404 -0.557645 0
M  V30 9328 C 845.272 -1.44488 -1.31843 0
M  V30 9329 C 845.652 -0.1416 -2.10625 0
M  V30 9330 O 845 0.876908 -2.11004 0
M  V30 9331 C 845.21 -2.69016 -2.22331 0
M  V30 9332 C 846.558 -3.16212 -2.83364 0
M  V30 9333 O 847.582 -2.69741 -2.32634 0
M  V30 9334 O 846.441 -3.96999 -3.75571 0
M  V30 9335 H 843.535 -0.57578 -0.593639 0
M  V30 9336 H 846.081 -1.59605 -0.576584 0
M  V30 9337 H 844.853 -3.55406 -1.63715 0
M  V30 9338 H 844.476 -2.56484 -3.03812 0
M  V30 9339 N 845.473 0.80434 -1.35529 0
M  V30 9340 C 846.698 1.598 -1.32207 0
M  V30 9341 C 847.123 1.87848 0.0974226 0
M  V30 9342 O 846.481 1.46728 1.06492 0
M  V30 9343 C 846.529 2.90483 -2.13663 0
M  V30 9344 O 845.633 3.83411 -1.51888 0
M  V30 9345 H 844.974 0.485305 -0.453183 0
M  V30 9346 H 847.504 0.998119 -1.78602 0
M  V30 9347 H 847.514 3.39888 -2.257 0
M  V30 9348 H 846.189 2.69395 -3.16859 0
M  V30 9349 H 844.766 3.41967 -1.48704 0
M  V30 9350 N 846.951 1.19563 1.02676 0
M  V30 9351 C 848.362 1.00158 1.57561 0
M  V30 9352 C 848.713 -0.444922 1.91089 0
M  V30 9353 O 847.838 -1.32466 1.71119 0
M  V30 9354 C 848.433 1.81181 2.86284 0
M  V30 9355 C 846.992 1.66171 3.37734 0
M  V30 9356 C 846.139 1.7975 2.11152 0
M  V30 9357 H 849.09 1.33904 0.85179 0
M  V30 9358 H 849.111 1.30916 3.57269 0
M  V30 9359 H 848.623 2.86454 2.6185 0
M  V30 9360 H 846.724 0.634927 3.6715 0
M  V30 9361 H 846.837 2.46832 4.10622 0
M  V30 9362 H 845.201 1.22833 2.23123 0
M  V30 9363 H 845.984 2.86487 1.89157 0
M  V30 9364 N 848.429 -1.21819 0.999893 0
M  V30 9365 C 849.676 -1.90752 0.679694 0
M  V30 9366 C 850.004 -1.77777 -0.789014 0
M  V30 9367 O 849.259 -1.14518 -1.58695 0
M  V30 9368 C 849.558 -3.4193 1.04012 0
M  V30 9369 C 849.224 -3.75098 2.50225 0
M  V30 9370 C 847.886 -3.83861 2.90179 0
M  V30 9371 C 850.238 -3.90706 3.44961 0
M  V30 9372 C 847.566 -4.05676 4.23844 0
M  V30 9373 C 849.918 -4.14027 4.78294 0
M  V30 9374 C 848.582 -4.21016 5.17979 0
M  V30 9375 H 847.852 -0.698012 0.248718 0
M  V30 9376 H 850.499 -1.44437 1.25738 0
M  V30 9377 H 848.804 -3.89947 0.380606 0
M  V30 9378 H 850.501 -3.93532 0.770301 0
M  V30 9379 H 847.091 -3.68865 2.18258 0
M  V30 9380 H 851.275 -3.83307 3.15261 0
M  V30 9381 H 846.531 -4.09316 4.5417 0
M  V30 9382 H 850.705 -4.25046 5.51642 0
M  V30 9383 H 848.332 -4.37672 6.21568 0
M  V30 9384 N 849.908 -0.773975 -1.37286 0
M  V30 9385 C 851.156 -0.338636 -1.99243 0
M  V30 9386 C 851.477 1.08919 -1.61746 0
M  V30 9387 O 850.747 1.74822 -0.88397 0
M  V30 9388 H 849.327 -0.12222 -0.736934 0
M  V30 9389 H 851.989 -0.992595 -1.67731 0
M  V30 9390 H 851.085 -0.418055 -3.09287 0
M  V30 9391 N 851.386 1.48609 -0.524698 0
M  V30 9392 C 852.616 2.06599 0.00741868 0
M  V30 9393 C 853.024 1.3823 1.29186 0
M  V30 9394 O 852.367 0.461962 1.77797 0
M  V30 9395 C 852.429 3.58184 0.307324 0
M  V30 9396 C 852.093 4.48391 -0.882864 0
M  V30 9397 C 853.09 4.88485 -1.77984 0
M  V30 9398 C 850.775 4.90367 -1.08837 0
M  V30 9399 C 852.769 5.69319 -2.86627 0
M  V30 9400 C 850.456 5.70972 -2.17794 0
M  V30 9401 C 851.454 6.10355 -3.06523 0
M  V30 9402 O 851.142 6.89343 -4.13596 0
M  V30 9403 H 850.874 0.675421 -0.0279846 0
M  V30 9404 H 853.428 1.92058 -0.7282 0
M  V30 9405 H 851.658 3.70818 1.09685 0
M  V30 9406 H 853.347 3.98318 0.780886 0
M  V30 9407 H 854.113 4.56682 -1.63299 0
M  V30 9408 H 849.992 4.592 -0.407035 0
M  V30 9409 H 853.536 5.99978 -3.55911 0
M  V30 9410 H 849.433 6.02188 -2.32465 0
M  V30 9411 H 850.201 7.07689 -4.1124 0
M  V30 9412 N 852.864 0.259585 1.55447 0
M  V30 9413 C 853.794 -0.62852 2.24882 0
M  V30 9414 C 854.775 -1.17128 1.23349 0
M  V30 9415 O 855.96 -1.20829 1.52033 0
M  V30 9416 C 853.09 -1.81983 2.95803 0
M  V30 9417 C 852.044 -1.40929 4.04132 0
M  V30 9418 C 851.37 -2.68246 4.62545 0
M  V30 9419 C 852.67 -0.570956 5.1917 0
M  V30 9420 H 854.364 -0.0495021 2.99359 0
M  V30 9421 H 851.91 -0.0223688 1.43983 0
M  V30 9422 H 853.863 -2.44689 3.43082 0
M  V30 9423 H 852.587 -2.42444 2.18835 0
M  V30 9424 H 851.246 -0.805519 3.57641 0
M  V30 9425 H 850.894 -3.26931 3.82263 0
M  V30 9426 H 850.594 -2.41495 5.35681 0
M  V30 9427 H 852.118 -3.31827 5.12565 0
M  V30 9428 H 853.532 -1.10262 5.62597 0
M  V30 9429 H 851.929 -0.398979 5.98772 0
M  V30 9430 H 852.999 0.413918 4.8313 0
M  V30 9431 N 854.342 -1.57594 -0.0133615 0
M  V30 9432 C 855.619 -1.81173 -0.737273 0
M  V30 9433 C 855.999 -0.861395 -1.92726 0
M  V30 9434 O 855.347 0.0929324 -2.28311 0
M  V30 9435 C 855.557 -3.29314 -1.15557 0
M  V30 9436 C 856.905 -3.94707 -1.56498 0
M  V30 9437 O 857.929 -3.33557 -1.24973 0
M  V30 9438 O 856.788 -5.02402 -2.15069 0
M  V30 9439 H 853.882 -0.745575 -0.357837 0
M  V30 9440 H 856.428 -1.69696 0.0110674 0
M  V30 9441 H 855.2 -3.90096 -0.30677 0
M  V30 9442 H 854.823 -3.45739 -1.96343 0
M  V30 9443 N 855.82 0.285905 -1.54985 0
M  V30 9444 C 857.066 1.02071 -1.75241 0
M  V30 9445 C 857.399 1.864 -0.544842 0
M  V30 9446 O 856.674 1.89034 0.457844 0
M  V30 9447 C 856.957 1.91409 -3.05016 0
M  V30 9448 C 856.81 1.10158 -4.36102 0
M  V30 9449 C 858.129 2.90335 -3.30747 0
M  V30 9450 H 855.248 0.369663 -0.637588 0
M  V30 9451 H 857.89 0.294114 -1.8771 0
M  V30 9452 H 856.04 2.53362 -2.94517 0
M  V30 9453 H 857.712 0.503756 -4.58541 0
M  V30 9454 H 855.955 0.404675 -4.31908 0
M  V30 9455 H 856.626 1.75956 -5.23205 0
M  V30 9456 H 859.102 2.38514 -3.40955 0
M  V30 9457 H 857.978 3.49997 -4.2284 0
M  V30 9458 H 858.239 3.64787 -2.49765 0
M  V30 9459 N 857.298 1.47698 0.54982 0
M  V30 9460 C 858.228 1.63622 1.66583 0
M  V30 9461 C 859.209 0.485477 1.63025 0
M  V30 9462 O 860.394 0.715692 1.80531 0
M  V30 9463 C 857.524 1.65721 3.05211 0
M  V30 9464 C 856.478 2.80097 3.2362 0
M  V30 9465 C 855.804 2.67272 4.63109 0
M  V30 9466 C 857.104 4.21612 3.08286 0
M  V30 9467 H 858.798 2.57049 1.53512 0
M  V30 9468 H 856.344 1.23705 0.737099 0
M  V30 9469 H 858.297 1.75451 3.83138 0
M  V30 9470 H 857.021 0.688593 3.19258 0
M  V30 9471 H 855.68 2.69889 2.48104 0
M  V30 9472 H 855.328 1.68422 4.73965 0
M  V30 9473 H 855.028 3.44008 4.76374 0
M  V30 9474 H 856.552 2.78942 5.43161 0
M  V30 9475 H 857.966 4.32758 3.76024 0
M  V30 9476 H 856.363 4.99193 3.33057 0
M  V30 9477 H 857.433 4.39462 2.04942 0
M  V30 9478 N 858.776 -0.797141 1.35954 0
M  V30 9479 C 860.004 -1.5858 1.32891 0
M  V30 9480 C 860.419 -1.88578 -0.0915564 0
M  V30 9481 O 859.776 -1.49532 -1.04625 0
M  V30 9482 C 859.827 -2.91143 2.14284 0
M  V30 9483 O 859.548 -2.62442 3.50793 0
M  V30 9484 C 861.049 -3.85476 2.18914 0
M  V30 9485 H 858.269 -0.492111 0.456144 0
M  V30 9486 H 860.813 -0.98994 1.78943 0
M  V30 9487 H 858.968 -3.47219 1.71807 0
M  V30 9488 H 859.382 -3.4715 3.93175 0
M  V30 9489 H 860.856 -4.75574 2.80238 0
M  V30 9490 H 861.333 -4.22758 1.19047 0
M  V30 9491 H 861.939 -3.35334 2.61593 0
M  V30 9492 N 860.254 -1.20106 -1.0204 0
M  V30 9493 C 861.164 -0.962051 -2.13967 0
M  V30 9494 C 862.18 0.0808053 -1.73812 0
M  V30 9495 O 863.356 -0.105774 -2.01122 0
M  V30 9496 C 860.421 -0.513108 -3.42882 0
M  V30 9497 C 859.482 -1.62636 -3.97301 0
M  V30 9498 C 858.715 -1.19875 -5.20063 0
M  V30 9499 O 858.938 -0.0658423 -5.70362 0
M  V30 9500 O 857.872 -2.00467 -5.67536 0
M  V30 9501 H 861.698 -1.8991 -2.36998 0
M  V30 9502 H 859.283 -0.984608 -1.12365 0
M  V30 9503 H 861.165 -0.271797 -4.20523 0
M  V30 9504 H 859.84 0.395402 -3.21276 0
M  V30 9505 H 858.747 -1.92192 -3.20957 0
M  V30 9506 H 860.08 -2.51174 -4.23288 0
M  V30 9507 N 861.732 1.21287 -1.00634 0
M  V30 9508 C 862.679 2.23705 -0.567876 0
M  V30 9509 C 863.649 1.61043 0.406753 0
M  V30 9510 O 864.834 1.88289 0.308499 0
M  V30 9511 C 861.974 3.44961 0.097996 0
M  V30 9512 C 861.087 4.22091 -0.919972 0
M  V30 9513 C 860.222 5.30718 -0.226222 0
M  V30 9514 C 859.261 5.99581 -1.23165 0
M  V30 9515 N 858.398 6.99821 -0.565278 0
M  V30 9516 H 863.238 2.60571 -1.44592 0
M  V30 9517 H 860.775 1.28049 -0.724006 0
M  V30 9518 H 862.733 4.1418 0.501097 0
M  V30 9519 H 861.363 3.08818 0.939744 0
M  V30 9520 H 860.415 3.52038 -1.44131 0
M  V30 9521 H 861.727 4.69476 -1.68505 0
M  V30 9522 H 860.881 6.06253 0.232917 0
M  V30 9523 H 859.62 4.84343 0.571247 0
M  V30 9524 H 858.625 5.22816 -1.70128 0
M  V30 9525 H 859.85 6.48042 -2.03022 0
M  V30 9526 H 857.796 6.55656 0.212508 0
M  V30 9527 H 857.713 7.4528 -1.26858 0
M  V30 9528 H 858.981 7.79393 -0.129389 0
M  V30 9529 N 863.21 0.781244 1.36873 0
M  V30 9530 C 864.12 0.174981 2.33947 0
M  V30 9531 C 865.136 -0.668512 1.60645 0
M  V30 9532 O 866.312 -0.586213 1.9268 0
M  V30 9533 C 863.377 -0.686557 3.39834 0
M  V30 9534 C 862.438 0.174489 4.28945 0
M  V30 9535 C 861.671 -0.646024 5.29776 0
M  V30 9536 O 861.894 -1.88254 5.38439 0
M  V30 9537 O 860.828 -0.0502214 6.01879 0
M  V30 9538 H 864.654 0.977382 2.87543 0
M  V30 9539 H 862.239 0.542559 1.392 0
M  V30 9540 H 864.121 -1.1781 4.04597 0
M  V30 9541 H 862.796 -1.46699 2.8855 0
M  V30 9542 H 861.703 0.712604 3.6725 0
M  V30 9543 H 863.036 0.918232 4.83559 0
M  V30 9544 N 864.689 -1.48329 0.532571 0
M  V30 9545 C 865.938 -2.017 -0.00259705 0
M  V30 9546 C 866.251 -1.41469 -1.35077 0
M  V30 9547 O 867.457 -1.86354 -1.97445 0
M  V30 9548 C 865.913 -3.59858 -0.0550179 0
M  V30 9549 C 865.521 -4.29073 1.28842 0
M  V30 9550 C 867.265 -4.21066 -0.538878 0
M  V30 9551 C 865.172 -5.79171 1.19644 0
M  V30 9552 H 864.102 -0.753985 -0.00474081 0
M  V30 9553 H 866.753 -1.70565 0.676739 0
M  V30 9554 H 865.135 -3.87846 -0.799486 0
M  V30 9555 H 866.309 -4.12755 2.04865 0
M  V30 9556 H 864.624 -3.79748 1.70822 0
M  V30 9557 H 867.221 -5.31026 -0.6257 0
M  V30 9558 H 867.564 -3.86559 -1.54525 0
M  V30 9559 H 868.097 -3.97517 0.149984 0
M  V30 9560 H 864.836 -6.18257 2.17805 0
M  V30 9561 H 864.356 -5.97895 0.477609 0
M  V30 9562 H 866.035 -6.40875 0.888186 0
M  V30 9563 N 866.167 -0.267825 -1.55308 0
M  V30 9564 C 867.414 0.351036 -1.99434 0
M  V30 9565 C 867.742 1.56406 -1.15618 0
M  V30 9566 O 866.997 1.94548 -0.212045 0
M  V30 9567 C 867.296 0.784247 -3.48689 0
M  V30 9568 C 866.962 -0.323328 -4.49739 0
M  V30 9569 C 865.624 -0.627467 -4.77091 0
M  V30 9570 C 867.976 -1.07002 -5.10098 0
M  V30 9571 C 865.304 -1.682 -5.62073 0
M  V30 9572 C 867.656 -2.11422 -5.96224 0
M  V30 9573 C 866.32 -2.42479 -6.21901 0
M  V30 9574 H 865.59 0.128453 -0.729781 0
M  V30 9575 H 868.237 -0.380018 -1.87692 0
M  V30 9576 H 866.542 1.59485 -3.57871 0
M  V30 9577 H 868.239 1.2737 -3.80234 0
M  V30 9578 H 864.829 -0.0761528 -4.28532 0
M  V30 9579 H 869.013 -0.848302 -4.88996 0
M  V30 9580 H 864.269 -1.92772 -5.80215 0
M  V30 9581 H 868.443 -2.69759 -6.4203 0
M  V30 9582 H 866.07 -3.24328 -6.87543 0
M  V30 9583 N 867.645 1.57599 0.00500368 0
M  V30 9584 C 868.555 2.11532 1.01446 0
M  V30 9585 C 869.571 1.05941 1.3803 0
M  V30 9586 O 870.747 1.37815 1.46864 0
M  V30 9587 C 867.812 2.60382 2.28915 0
M  V30 9588 C 866.873 3.80554 1.98689 0
M  V30 9589 C 866.106 4.27064 3.20081 0
M  V30 9590 O 866.329 3.72939 4.31593 0
M  V30 9591 O 865.263 5.1927 3.04371 0
M  V30 9592 H 869.089 2.97993 0.586011 0
M  V30 9593 H 866.674 1.47718 0.223519 0
M  V30 9594 H 868.556 2.92024 3.03809 0
M  V30 9595 H 867.231 1.77022 2.71007 0
M  V30 9596 H 866.138 3.53893 1.21286 0
M  V30 9597 H 867.471 4.64972 1.61437 0
M  V30 9598 N 869.123 -0.277682 1.55134 0
M  V30 9599 C 870.348 -1.03254 1.7987 0
M  V30 9600 C 870.773 -1.79324 0.567861 0
M  V30 9601 O 870.131 -1.74764 -0.4824 0
M  V30 9602 C 870.179 -1.9705 3.02 0
M  V30 9603 O 869.283 -3.05744 2.76757 0
M  V30 9604 H 868.624 -0.295447 0.594649 0
M  V30 9605 H 871.154 -0.308013 2.02268 0
M  V30 9606 H 871.164 -2.3909 3.30606 0
M  V30 9607 H 869.839 -1.41094 3.91236 0
M  V30 9608 H 868.416 -2.68052 2.59235 0
M  V30 9609 N 870.601 -1.47988 -0.541979 0
M  V30 9610 C 871.841 -1.56982 -1.30905 0
M  V30 9611 C 872.205 -0.233153 -1.90579 0
M  V30 9612 O 873.406 -0.198018 -2.6807 0
M  V30 9613 C 871.677 -2.66787 -2.37823 0
M  V30 9614 S 873.236 -2.95467 -3.24414 0
M  V30 9615 H 870.054 -0.554165 -0.445446 0
M  V30 9616 H 872.656 -1.85448 -0.618803 0
M  V30 9617 H 871.36 -3.62483 -1.92443 0
M  V30 9618 H 870.891 -2.40184 -3.11569 0
M  V30 9619 H 872.906 -2.33846 -4.37642 0
M  V30 9620 N 872.079 0.78992 -1.36375 0
M  V30 9621 C 873.325 1.55007 -1.3077 0
M  V30 9622 C 873.658 1.93871 0.112979 0
M  V30 9623 O 872.933 1.6267 1.06625 0
M  V30 9624 C 873.216 2.82748 -2.22993 0
M  V30 9625 C 873.069 2.50253 -3.73756 0
M  V30 9626 C 874.388 3.84569 -2.13998 0
M  V30 9627 H 871.507 0.562362 -0.476359 0
M  V30 9628 H 874.149 0.907582 -1.66922 0
M  V30 9629 H 872.299 3.37573 -1.92292 0
M  V30 9630 H 873.971 2.01482 -4.14973 0
M  V30 9631 H 872.214 1.83203 -3.93216 0
M  V30 9632 H 872.885 3.41487 -4.33694 0
M  V30 9633 H 875.361 3.39188 -2.4102 0
M  V30 9634 H 874.237 4.717 -2.80697 0
M  V30 9635 H 874.498 4.27491 -1.12711 0
M  V30 9636 N 873.557 1.20646 1.01402 0
M  V30 9637 C 874.797 1.02951 1.7658 0
M  V30 9638 C 875.161 -0.430522 1.87111 0
M  V30 9639 O 876.362 -0.727727 2.58762 0
M  V30 9640 C 874.633 1.69728 3.14527 0
M  V30 9641 S 876.192 1.6717 4.05709 0
M  V30 9642 H 873.01 0.36911 0.607683 0
M  V30 9643 H 875.612 1.53243 1.21395 0
M  V30 9644 H 874.316 2.75162 3.0449 0
M  V30 9645 H 873.847 1.19578 3.74786 0
M  V30 9646 H 875.862 0.706397 4.91146 0
M  V30 9647 N 875.035 -1.20752 1.01276 0
M  V30 9648 C 875.982 -2.234 0.579732 0
M  V30 9649 C 876.952 -1.61256 -0.398206 0
M  V30 9650 O 878.137 -1.8845 -0.29851 0
M  V30 9651 C 875.277 -3.45008 -0.0797006 0
M  V30 9652 C 874.39 -4.21597 0.942343 0
M  V30 9653 C 873.525 -5.30591 0.254364 0
M  V30 9654 C 872.564 -5.98919 1.26343 0
M  V30 9655 N 871.701 -6.99511 0.602384 0
M  V30 9656 H 876.541 -2.59801 1.45971 0
M  V30 9657 H 874.078 -1.27663 0.730787 0
M  V30 9658 H 876.036 -4.1444 -0.479125 0
M  V30 9659 H 874.666 -3.09312 -0.923354 0
M  V30 9660 H 873.718 -3.51268 1.45996 0
M  V30 9661 H 875.03 -4.68576 1.70992 0
M  V30 9662 H 874.184 -6.06368 -0.200763 0
M  V30 9663 H 872.923 -4.84639 -0.545553 0
M  V30 9664 H 871.928 -5.21906 1.72898 0
M  V30 9665 H 873.153 -6.46957 2.06456 0
M  V30 9666 H 871.099 -6.55759 -0.177734 0
M  V30 9667 H 871.016 -7.44597 1.30809 0
M  V30 9668 H 872.284 -7.79313 0.17072 0
M  V30 9669 N 876.513 -0.788492 -1.36457 0
M  V30 9670 C 877.443 -0.200468 -2.32638 0
M  V30 9671 C 878.424 0.664031 -1.56603 0
M  V30 9672 O 879.609 0.598045 -1.84762 0
M  V30 9673 C 876.739 0.666274 -3.40849 0
M  V30 9674 C 875.693 -0.0982574 -4.27887 0
M  V30 9675 C 875.019 0.889018 -5.27258 0
M  V30 9676 C 876.319 -1.28692 -5.06197 0
M  V30 9677 H 878.013 -1.00399 -2.82065 0
M  V30 9678 H 875.559 -0.484237 -1.35614 0
M  V30 9679 H 877.512 1.08757 -4.07124 0
M  V30 9680 H 876.236 1.50249 -2.89987 0
M  V30 9681 H 874.895 -0.500525 -3.63167 0
M  V30 9682 H 874.543 1.72024 -4.7267 0
M  V30 9683 H 874.243 0.381909 -5.86358 0
M  V30 9684 H 875.767 1.30891 -5.96406 0
M  V30 9685 H 877.181 -0.941429 -5.65517 0
M  V30 9686 H 875.578 -1.72726 -5.74705 0
M  V30 9687 H 876.648 -2.08273 -4.37893 0
M  V30 9688 N 877.991 1.48044 -0.54043 0
M  V30 9689 C 878.924 2.26667 0.264083 0
M  V30 9690 C 879.902 1.32996 0.935456 0
M  V30 9691 O 881.086 1.62354 0.95778 0
M  V30 9692 C 878.213 3.09541 1.37485 0
M  V30 9693 C 877.259 4.18664 0.813792 0
M  V30 9694 S 878.092 5.34503 -0.326536 0
M  V30 9695 C 879.248 6.20939 0.786452 0
M  V30 9696 H 879.481 2.94554 -0.403129 0
M  V30 9697 H 877.014 1.5091 -0.326415 0
M  V30 9698 H 878.972 3.57863 2.01107 0
M  V30 9699 H 877.633 2.41048 2.01382 0
M  V30 9700 H 876.826 4.76316 1.6474 0
M  V30 9701 H 876.428 3.73136 0.254066 0
M  V30 9702 H 878.72 6.56273 1.68262 0
M  V30 9703 H 879.663 7.07667 0.247673 0
M  V30 9704 H 880.071 5.54236 1.07156 0
M  V30 9705 N 879.47 0.276058 1.55163 0
M  V30 9706 C 880.433 -0.597924 2.21263 0
M  V30 9707 C 881.433 -1.0806 1.19078 0
M  V30 9708 O 882.623 -0.980626 1.43977 0
M  V30 9709 C 879.755 -1.82503 2.87933 0
M  V30 9710 H 880.948 -0.0207769 2.99893 0
M  V30 9711 H 878.501 0.0266823 1.56277 0
M  V30 9712 H 879.236 -2.44266 2.13318 0
M  V30 9713 H 879.021 -1.48683 3.62816 0
M  V30 9714 H 880.511 -2.44651 3.38431 0
M  V30 9715 N 880.948 -1.576 0.00335426 0
M  V30 9716 C 881.896 -2.09759 -1.00517 0
M  V30 9717 C 882.89 -1.01833 -1.35375 0
M  V30 9718 O 884.096 -1.20294 -1.339 0
M  V30 9719 H 880.471 -0.669821 -0.341825 0
M  V30 9720 H 882.442 -2.93478 -0.539718 0
M  V30 9721 C 881.191 -2.6189 -2.28711 0
M  V30 9722 H 880.514 -3.44571 -2.02758 0
M  V30 9723 H 881.954 -3.02061 -2.97548 0
M  V30 9724 C 880.413 -1.53455 -2.99922 0
M  V30 9725 O 880.943 -0.919402 -3.91037 0
M  V30 9726 N 879.149 -1.2612 -2.61806 0
M  V30 9727 H 878.696 -1.76329 -1.87792 0
M  V30 9728 H 878.654 -0.537872 -3.09765 0
M  V30 9729 N 882.426 0.269451 -1.5528 0
M  V30 9730 C 883.373 1.33316 -1.88403 0
M  V30 9731 C 884.343 1.48909 -0.735881 0
M  V30 9732 O 885.528 1.63259 -0.987479 0
M  V30 9733 C 882.668 2.68778 -2.16454 0
M  V30 9734 C 881.781 2.61377 -3.43956 0
M  V30 9735 C 880.916 3.89042 -3.6169 0
M  V30 9736 C 879.955 3.76166 -4.82872 0
M  V30 9737 N 879.092 4.95673 -4.97245 0
M  V30 9738 H 883.932 1.04368 -2.79126 0
M  V30 9739 H 881.469 0.504147 -1.38191 0
M  V30 9740 H 883.427 3.47599 -2.30719 0
M  V30 9741 H 882.057 2.9592 -1.28961 0
M  V30 9742 H 881.109 1.74247 -3.38145 0
M  V30 9743 H 882.421 2.47764 -4.32914 0
M  V30 9744 H 881.575 4.76304 -3.75791 0
M  V30 9745 H 880.314 4.05526 -2.70924 0
M  V30 9746 H 879.319 2.87287 -4.68771 0
M  V30 9747 H 880.544 3.61198 -5.75077 0
M  V30 9748 H 878.49 5.12561 -4.09411 0
M  V30 9749 H 878.407 4.84605 -5.80254 0
M  V30 9750 H 879.675 5.84498 -5.15735 0
M  V30 9751 N 883.904 1.48273 0.534124 0
M  V30 9752 C 885.132 1.59734 1.31501 0
M  V30 9753 C 885.547 0.256047 1.87056 0
M  V30 9754 O 884.904 -0.754086 1.66192 0
M  V30 9755 C 884.955 2.64072 2.46877 0
M  V30 9756 O 884.676 3.92995 1.93613 0
M  V30 9757 C 886.177 2.85933 3.38758 0
M  V30 9758 H 883.397 0.538703 0.40005 0
M  V30 9759 H 885.941 1.9407 0.644762 0
M  V30 9760 H 884.096 2.32606 3.09795 0
M  V30 9761 H 884.51 4.50203 2.69106 0
M  V30 9762 H 885.984 3.62749 4.16073 0
M  V30 9763 H 886.461 1.94603 3.93734 0
M  V30 9764 H 887.067 3.18687 2.81636 0
M  V30 9765 N 885.382 -0.782676 1.36792 0
M  V30 9766 C 886.798 -1.08169 1.17352 0
M  V30 9767 C 886.998 -2.015 0.0022037 0
M  V30 9768 O 886.054 -2.43692 -0.661093 0
M  V30 9769 C 887.367 -1.68969 2.48737 0
M  V30 9770 C 888.915 -1.81278 2.55161 0
M  V30 9771 C 889.39 -2.45492 3.86649 0
M  V30 9772 N 890.881 -2.52954 3.88032 0
M  V30 9773 C 891.616 -3.03465 4.86515 0
M  V30 9774 N 891.112 -3.54232 5.95392 0
M  V30 9775 N 892.905 -3.02239 4.73928 0
M  V30 9776 H 885.056 -0.162757 2.11775 0
M  V30 9777 H 887.319 -0.134823 0.938364 0
M  V30 9778 H 887.025 -1.07859 3.34753 0
M  V30 9779 H 886.899 -2.68397 2.65034 0
M  V30 9780 H 889.286 -2.41524 1.69559 0
M  V30 9781 H 889.367 -0.806367 2.42758 0
M  V30 9782 H 889.011 -1.85889 4.7266 0
M  V30 9783 H 888.941 -3.46718 3.96351 0
M  V30 9784 H 891.432 -2.17014 3.09376 0
M  V30 9785 H 891.745 -3.91145 6.66503 0
M  V30 9786 H 890.09 -3.52366 5.99052 0
M  V30 9787 H 893.281 -2.61871 3.87996 0
M  V30 9788 H 893.454 -3.41295 5.50837 0
M  V30 9789 N 886.86 -1.21182 -1.00761 0
M  V30 9790 C 888.109 -1.02166 -1.73911 0
M  V30 9791 C 888.422 0.445638 -1.90456 0
M  V30 9792 O 889.628 0.755132 -2.60787 0
M  V30 9793 C 888.084 -1.77936 -3.12837 0
M  V30 9794 C 887.692 -3.28819 -3.04273 0
M  V30 9795 C 889.436 -1.67319 -3.90134 0
M  V30 9796 C 887.343 -3.97089 -4.38262 0
M  V30 9797 H 886.273 -0.378665 -0.652019 0
M  V30 9798 H 888.924 -1.44891 -1.12601 0
M  V30 9799 H 887.306 -1.28003 -3.74742 0
M  V30 9800 H 888.48 -3.86035 -2.51622 0
M  V30 9801 H 886.795 -3.39949 -2.40465 0
M  V30 9802 H 889.392 -2.15659 -4.8928 0
M  V30 9803 H 889.735 -0.630959 -4.11491 0
M  V30 9804 H 890.268 -2.14716 -3.34876 0
M  V30 9805 H 887.007 -5.01503 -4.22107 0
M  V30 9806 H 886.527 -3.44662 -4.90885 0
M  V30 9807 H 888.206 -4.01854 -5.07072 0
M  V30 9808 N 888.338 1.20213 -1.01915 0
M  V30 9809 C 889.268 2.25336 -0.612023 0
M  V30 9810 C 890.249 1.65933 0.374186 0
M  V30 9811 O 891.434 1.92464 0.259053 0
M  V30 9812 C 888.564 3.47267 0.047904 0
M  V30 9813 C 887.518 4.1928 -0.859557 0
M  V30 9814 C 886.844 5.3466 -0.0652655 0
M  V30 9815 C 888.144 4.75143 -2.1688 0
M  V30 9816 H 889.838 2.59645 -1.49079 0
M  V30 9817 H 887.384 1.24808 -0.718263 0
M  V30 9818 H 889.337 4.19991 0.344294 0
M  V30 9819 H 888.061 3.12129 0.961404 0
M  V30 9820 H 886.72 3.48425 -1.13999 0
M  V30 9821 H 886.368 4.95767 0.849964 0
M  V30 9822 H 886.068 5.83772 -0.669618 0
M  V30 9823 H 887.592 6.10187 0.224612 0
M  V30 9824 H 889.006 5.39672 -1.9346 0
M  V30 9825 H 887.403 5.34702 -2.72422 0
M  V30 9826 H 888.473 3.93744 -2.83008 0
M  V30 9827 N 889.816 0.795718 1.36037 0
M  V30 9828 C 891.062 0.371574 1.99367 0
M  V30 9829 C 891.395 -1.0557 1.62999 0
M  V30 9830 O 890.67 -1.73051 0.887895 0
M  V30 9831 C 890.953 0.542622 3.55988 0
M  V30 9832 C 890.806 2.01404 4.0219 0
M  V30 9833 C 892.125 -0.0384527 4.40083 0
M  V30 9834 H 889.244 0.136483 0.724252 0
M  V30 9835 H 891.886 1.00323 1.61355 0
M  V30 9836 H 890.036 0.0049053 3.885 0
M  V30 9837 H 891.708 2.6133 3.80137 0
M  V30 9838 H 889.951 2.51439 3.53498 0
M  V30 9839 H 890.622 2.08466 5.11122 0
M  V30 9840 H 893.098 0.420634 4.13968 0
M  V30 9841 H 891.974 0.111214 5.48787 0
M  V30 9842 H 892.235 -1.13116 4.27384 0
M  V30 9843 N 891.294 -1.47756 0.548274 0
M  V30 9844 C 892.522 -2.06884 0.0254873 0
M  V30 9845 C 892.937 -1.40225 -1.26422 0
M  V30 9846 O 892.294 -0.495776 -1.75637 0
M  V30 9847 C 892.345 -3.61036 -0.183134 0
M  V30 9848 O 892.066 -4.25195 1.05549 0
M  V30 9849 C 893.567 -4.37008 -0.744222 0
M  V30 9850 H 890.787 -0.669697 0.041789 0
M  V30 9851 H 893.331 -1.89888 0.759138 0
M  V30 9852 H 891.486 -3.77576 -0.866886 0
M  V30 9853 H 891.9 -5.17606 0.847629 0
M  V30 9854 H 893.374 -5.45579 -0.839529 0
M  V30 9855 H 893.851 -4.0268 -1.75344 0
M  V30 9856 H 894.457 -4.25191 -0.0964542 0
M  V30 9857 N 892.772 -0.284283 -1.55015 0
M  V30 9858 C 893.997 0.335799 -2.04664 0
M  V30 9859 C 894.422 1.47999 -1.16094 0
M  V30 9860 O 893.78 1.8058 -0.161454 0
M  V30 9861 C 893.828 0.785615 -3.51938 0
M  V30 9862 O 892.932 1.89202 -3.66437 0
M  V30 9863 H 892.273 0.0680233 -0.660506 0
M  V30 9864 H 894.803 -0.421255 -2.00216 0
M  V30 9865 H 894.813 1.07892 -3.93476 0
M  V30 9866 H 893.488 -0.0514675 -4.15868 0
M  V30 9867 H 892.065 1.60055 -3.36804 0
M  V30 9868 N 894.251 1.57596 -0.0117121 0
M  V30 9869 C 895.198 2.09153 0.975897 0
M  V30 9870 C 896.168 0.989579 1.33404 0
M  V30 9871 O 897.353 1.26273 1.43038 0
M  V30 9872 C 894.493 2.60906 2.2588 0
M  V30 9873 C 893.606 3.85046 1.95866 0
M  V30 9874 C 892.741 4.25257 3.18323 0
M  V30 9875 C 891.78 5.42202 2.84049 0
M  V30 9876 N 890.917 5.77651 3.99079 0
M  V30 9877 H 895.757 2.93261 0.52931 0
M  V30 9878 H 893.294 1.44965 0.249691 0
M  V30 9879 H 895.252 2.88995 3.00895 0
M  V30 9880 H 893.882 1.79654 2.68187 0
M  V30 9881 H 892.934 3.63794 1.11168 0
M  V30 9882 H 894.246 4.70151 1.66611 0
M  V30 9883 H 893.4 4.5469 4.01674 0
M  V30 9884 H 892.139 3.38884 3.50726 0
M  V30 9885 H 891.144 5.1248 1.99107 0
M  V30 9886 H 892.369 6.3026 2.52881 0
M  V30 9887 H 890.315 4.94235 4.31356 0
M  V30 9888 H 890.232 6.57356 3.73388 0
M  V30 9889 H 891.5 6.11681 4.83183 0
M  V30 9890 N 895.729 -0.261212 1.5542 0
M  V30 9891 C 896.662 -1.34906 1.84054 0
M  V30 9892 C 897.64 -1.47024 0.694466 0
M  V30 9893 O 898.824 -1.63463 0.938719 0
M  V30 9894 C 895.951 -2.7242 2.01259 0
M  V30 9895 C 894.997 -2.77526 3.23855 0
M  V30 9896 S 895.83 -2.35578 4.80898 0
M  V30 9897 C 896.986 -3.75045 5.01091 0
M  V30 9898 H 897.219 -1.10416 2.76035 0
M  V30 9899 H 894.752 -0.461461 1.47343 0
M  V30 9900 H 896.71 -3.51606 2.11857 0
M  V30 9901 H 895.371 -2.94155 1.10145 0
M  V30 9902 H 894.564 -3.78483 3.32816 0
M  V30 9903 H 894.166 -2.0637 3.11909 0
M  V30 9904 H 896.458 -4.7042 4.87556 0
M  V30 9905 H 897.401 -3.71027 6.03112 0
M  V30 9906 H 897.809 -3.66894 4.29009 0
M  V30 9907 N 897.207 -1.48554 -0.526253 0
M  V30 9908 C 898.117 -1.66044 -1.65731 0
M  V30 9909 C 899.133 -0.542951 -1.65312 0
M  V30 9910 O 900.309 -0.814495 -1.84195 0
M  V30 9911 C 897.374 -1.69959 -3.02184 0
M  V30 9912 C 896.435 -2.93362 -3.13428 0
M  V30 9913 C 895.668 -2.97081 -4.43372 0
M  V30 9914 O 895.891 -2.09103 -5.3069 0
M  V30 9915 O 894.825 -3.8929 -4.59061 0
M  V30 9916 H 898.651 -2.61811 -1.53912 0
M  V30 9917 H 896.236 -1.31999 -0.699759 0
M  V30 9918 H 898.118 -1.75033 -3.83329 0
M  V30 9919 H 896.793 -0.773658 -3.14319 0
M  V30 9920 H 895.7 -2.93818 -2.31564 0
M  V30 9921 H 897.033 -3.85352 -3.06211 0
M  V30 9922 N 898.685 0.775411 -1.37205 0
M  V30 9923 C 899.635 1.87867 -1.29189 0
M  V30 9924 C 900.619 1.59885 -0.180466 0
M  V30 9925 O 901.811 1.72077 -0.414536 0
M  V30 9926 C 898.94 3.25285 -1.09748 0
M  V30 9927 C 898.026 3.59231 -2.25419 0
M  V30 9928 N 898.417 3.64386 -3.50795 0
M  V30 9929 C 896.715 3.89375 -2.17492 0
M  V30 9930 C 897.416 3.94974 -4.27048 0
M  V30 9931 N 896.392 4.10684 -3.56146 0
M  V30 9932 H 900.194 1.90099 -2.24142 0
M  V30 9933 H 897.708 0.971667 -1.30125 0
M  V30 9934 H 899.705 4.04207 -1.02091 0
M  V30 9935 H 898.365 3.2432 -0.157083 0
M  V30 9936 H 899.376 3.46682 -3.8475 0
M  V30 9937 H 896.053 3.96254 -1.31489 0
M  V30 9938 H 897.443 4.05768 -5.35539 0
M  V30 9939 N 900.163 1.21714 1.00117 0
M  V30 9940 C 901.093 1.00397 2.10815 0
M  V30 9941 C 902.074 -0.0723502 1.69946 0
M  V30 9942 O 903.259 0.0882398 1.93999 0
M  V30 9943 C 900.389 0.572001 3.42557 0
M  V30 9944 C 899.343 1.59331 3.97237 0
M  V30 9945 C 898.669 1.01746 5.2493 0
M  V30 9946 C 899.969 2.98117 4.28863 0
M  V30 9947 H 901.663 1.92983 2.28906 0
M  V30 9948 H 899.209 0.929273 1.10002 0
M  V30 9949 H 901.162 0.410018 4.19401 0
M  V30 9950 H 899.886 -0.38951 3.24269 0
M  V30 9951 H 898.545 1.74293 3.22518 0
M  V30 9952 H 898.193 0.0475491 5.02978 0
M  V30 9953 H 897.893 1.69969 5.62481 0
M  V30 9954 H 899.417 0.866881 6.04415 0
M  V30 9955 H 900.831 2.86578 4.96534 0
M  V30 9956 H 899.228 3.63389 4.77565 0
M  V30 9957 H 900.298 3.48674 3.36979 0
M  V30 9958 N 901.641 -1.19671 1.02551 0
M  V30 9959 C 902.588 -2.22773 0.603394 0
M  V30 9960 C 903.558 -1.61669 -0.381081 0
M  V30 9961 O 904.743 -1.88756 -0.278505 0
M  V30 9962 C 901.883 -3.45073 -0.0431034 0
M  V30 9963 C 900.996 -4.20574 0.987006 0
M  V30 9964 C 900.131 -5.30291 0.310626 0
M  V30 9965 C 899.17 -5.97545 1.32688 0
M  V30 9966 N 898.307 -6.98833 0.676542 0
M  V30 9967 H 903.147 -2.58238 1.48719 0
M  V30 9968 H 900.684 -1.26881 0.744286 0
M  V30 9969 H 902.642 -4.14925 -0.435141 0
M  V30 9970 H 901.272 -3.10274 -0.890495 0
M  V30 9971 H 900.324 -3.497 1.49713 0
M  V30 9972 H 901.636 -4.66736 1.75952 0
M  V30 9973 H 900.79 -6.06547 -0.136438 0
M  V30 9974 H 899.529 -4.8519 -0.49412 0
M  V30 9975 H 898.534 -5.20043 1.78424 0
M  V30 9976 H 899.759 -6.4473 2.13306 0
M  V30 9977 H 897.705 -6.55911 -0.108172 0
M  V30 9978 H 897.622 -7.43168 1.38699 0
M  V30 9979 H 898.89 -7.79088 0.253367 0
M  V30 9980 N 903.119 -0.802921 -1.35613 0
M  V30 9981 C 904.066 -0.20874 -2.29854 0
M  V30 9982 C 905.036 0.655128 -1.52634 0
M  V30 9983 O 906.221 0.600979 -1.81088 0
M  V30 9984 C 903.361 0.639663 -3.3912 0
M  V30 9985 C 902.474 -0.244234 -4.31309 0
M  V30 9986 C 901.609 0.611825 -5.27665 0
M  V30 9987 C 900.648 -0.272698 -6.11492 0
M  V30 9988 N 899.785 0.543122 -6.99996 0
M  V30 9989 H 904.625 -1.01782 -2.80079 0
M  V30 9990 H 902.162 -0.513465 -1.37848 0
M  V30 9991 H 904.12 1.14668 -4.01132 0
M  V30 9992 H 902.75 1.41404 -2.9018 0
M  V30 9993 H 901.802 -0.869322 -3.70334 0
M  V30 9994 H 903.114 -0.925202 -4.90144 0
M  V30 9995 H 902.268 1.18412 -5.95032 0
M  V30 9996 H 901.007 1.32637 -4.69317 0
M  V30 9997 H 900.012 -0.857287 -5.43075 0
M  V30 9998 H 901.237 -0.985051 -6.71918 0
M  V30 9999 H 899.183 1.24171 -6.44141 0
M  V30 10000 H 899.1 -0.0798767 -7.55958 0
M  V30 10001 H 900.368 1.09881 -7.71717 0
M  V30 10002 N 904.597 1.47463 -0.556102 0
M  V30 10003 C 905.56 2.28478 0.181743 0
M  V30 10004 C 906.56 1.36886 0.843738 0
M  V30 10005 O 907.75 1.59527 0.69977 0
M  V30 10006 C 904.882 3.16534 1.26566 0
M  V30 10007 H 906.075 2.95182 -0.529892 0
M  V30 10008 H 903.628 1.53134 -0.313005 0
M  V30 10009 H 904.363 2.5452 2.00973 0
M  V30 10010 H 904.148 3.83939 0.795798 0
M  V30 10011 H 905.638 3.77579 1.78393 0
M  V30 10012 N 906.075 0.2925 1.54862 0
M  V30 10013 C 907.352 -0.371946 1.92031 0
M  V30 10014 C 907.732 -1.72363 1.21878 0
M  V30 10015 O 907.08 -2.25779 0.351573 0
M  V30 10016 C 907.29 -0.495027 3.45471 0
M  V30 10017 C 908.638 -0.769855 4.17562 0
M  V30 10018 O 909.662 -0.579168 3.5146 0
M  V30 10019 O 908.521 -1.13561 5.34571 0
M  V30 10020 H 905.615 -0.206463 0.800813 0
M  V30 10021 H 908.161 0.339933 1.6626 0
M  V30 10022 H 906.933 0.455528 3.88639 0
M  V30 10023 H 906.556 -1.2557 3.7725 0
M  V30 10024 N 907.553 -1.57587 0.0200696 0
M  V30 10025 C 908.5 -2.09667 -0.964791 0
M  V30 10026 C 909.47 -0.99664 -1.32877 0
M  V30 10027 O 910.655 -1.2703 -1.42366 0
M  V30 10028 C 907.795 -2.62101 -2.24493 0
M  V30 10029 C 906.908 -3.8608 -1.93821 0
M  V30 10030 C 906.043 -4.26939 -3.16064 0
M  V30 10031 C 905.082 -5.43701 -2.81169 0
M  V30 10032 N 904.219 -5.79759 -3.9601 0
M  V30 10033 H 909.059 -2.93538 -0.513751 0
M  V30 10034 H 906.596 -1.45096 -0.242 0
M  V30 10035 H 908.554 -2.90587 -2.99358 0
M  V30 10036 H 907.184 -1.81074 -2.6723 0
M  V30 10037 H 906.236 -3.64378 -1.09237 0
M  V30 10038 H 907.548 -4.71028 -1.64115 0
M  V30 10039 H 906.702 -4.56814 -3.99257 0
M  V30 10040 H 905.441 -3.40739 -3.48924 0
M  V30 10041 H 904.446 -5.13529 -1.96387 0
M  V30 10042 H 905.671 -6.31593 -2.49535 0
M  V30 10043 H 903.617 -4.96516 -4.28729 0
M  V30 10044 H 903.534 -6.59327 -3.69896 0
M  V30 10045 H 904.802 -6.14235 -4.79933 0
M  V30 10046 N 909.032 0.252966 -1.55557 0
M  V30 10047 C 910.281 0.979736 -1.76307 0
M  V30 10048 C 910.594 1.86714 -0.582871 0
M  V30 10049 O 911.8 2.6302 -0.673247 0
M  V30 10050 C 910.256 1.79205 -3.12112 0
M  V30 10051 C 909.864 0.952333 -4.37761 0
M  V30 10052 C 911.608 2.51191 -3.42203 0
M  V30 10053 C 909.515 1.76018 -5.64599 0
M  V30 10054 H 908.445 0.369538 -0.657235 0
M  V30 10055 H 911.096 0.234619 -1.81994 0
M  V30 10056 H 909.478 2.57888 -3.00515 0
M  V30 10057 H 910.652 0.208251 -4.60329 0
M  V30 10058 H 908.967 0.346082 -4.14959 0
M  V30 10059 H 911.564 3.12074 -4.34182 0
M  V30 10060 H 911.907 3.22499 -2.63249 0
M  V30 10061 H 912.44 1.79523 -3.54988 0
M  V30 10062 H 909.179 1.09095 -6.46358 0
M  V30 10063 H 908.699 2.4797 -5.46142 0
M  V30 10064 H 910.378 2.32884 -6.03634 0
M  V30 10065 N 910.51 1.48831 0.518367 0
M  V30 10066 C 911.44 1.67119 1.63075 0
M  V30 10067 C 912.421 0.519948 1.61958 0
M  V30 10068 O 913.606 0.753824 1.78972 0
M  V30 10069 C 910.736 1.72158 3.01627 0
M  V30 10070 C 909.69 2.86898 3.17606 0
M  V30 10071 C 909.016 2.77035 4.57335 0
M  V30 10072 C 910.316 4.28057 2.99274 0
M  V30 10073 H 912.01 2.60248 1.48025 0
M  V30 10074 H 909.556 1.2524 0.710694 0
M  V30 10075 H 911.509 1.83539 3.7933 0
M  V30 10076 H 910.233 0.756157 3.17726 0
M  V30 10077 H 908.892 2.75091 2.42323 0
M  V30 10078 H 908.54 1.78438 4.70286 0
M  V30 10079 H 908.24 3.54036 4.6897 0
M  V30 10080 H 909.764 2.904 5.37122 0
M  V30 10081 H 911.178 4.40636 3.6676 0
M  V30 10082 H 909.575 5.06145 3.22393 0
M  V30 10083 H 910.645 4.4371 1.95574 0
M  V30 10084 N 911.988 -0.768124 1.37614 0
M  V30 10085 C 913.237 -1.5221 1.32345 0
M  V30 10086 C 913.55 -1.95399 -0.0885761 0
M  V30 10087 O 914.756 -2.70216 -0.263752 0
M  V30 10088 C 913.212 -2.74872 2.32322 0
M  V30 10089 C 912.82 -2.38767 3.79071 0
M  V30 10090 C 914.564 -3.52805 2.36069 0
M  V30 10091 C 912.471 -3.57953 4.7077 0
M  V30 10092 H 911.401 -0.571461 0.491883 0
M  V30 10093 H 914.052 -0.841004 1.63093 0
M  V30 10094 H 912.434 -3.44889 1.94596 0
M  V30 10095 H 913.608 -1.7651 4.25654 0
M  V30 10096 H 911.923 -1.74 3.78303 0
M  V30 10097 H 914.52 -4.41397 3.01782 0
M  V30 10098 H 914.863 -3.92925 1.37535 0
M  V30 10099 H 915.396 -2.89788 2.72521 0
M  V30 10100 H 912.135 -3.22911 5.70446 0
M  V30 10101 H 911.655 -4.19302 4.28889 0
M  V30 10102 H 913.334 -4.2472 4.8808 0
M  V30 10103 N 913.466 -1.22244 -0.994698 0
M  V30 10104 C 914.396 -1.01513 -2.10279 0
M  V30 10105 C 915.377 0.0633365 -1.69982 0
M  V30 10106 O 916.562 -0.0985268 -1.9395 0
M  V30 10107 C 913.692 -0.59016 -3.42249 0
M  V30 10108 C 912.646 -1.61436 -3.96387 0
M  V30 10109 C 911.972 -1.04528 -5.24383 0
M  V30 10110 C 913.272 -3.00388 -4.27276 0
M  V30 10111 H 914.966 -1.94194 -2.2788 0
M  V30 10112 H 912.512 -0.935094 -1.09508 0
M  V30 10113 H 914.465 -0.432254 -4.19177 0
M  V30 10114 H 913.189 0.372308 -3.24471 0
M  V30 10115 H 911.848 -1.76001 -3.21589 0
M  V30 10116 H 911.496 -0.0742225 -5.02945 0
M  V30 10117 H 911.196 -1.72949 -5.61571 0
M  V30 10118 H 912.72 -0.898922 -6.03947 0
M  V30 10119 H 914.134 -2.89207 -4.95007 0
M  V30 10120 H 912.531 -3.65916 -4.75631 0
M  V30 10121 H 913.601 -3.50456 -3.35125 0
M  V30 10122 N 914.944 1.19125 -1.03184 0
M  V30 10123 C 915.894 2.20348 -0.585731 0
M  V30 10124 C 916.878 1.56656 0.367109 0
M  V30 10125 O 918.07 1.76003 0.187598 0
M  V30 10126 C 915.199 3.43249 0.0590006 0
M  V30 10127 C 914.285 4.1408 -0.916457 0
M  V30 10128 N 914.676 4.61051 -2.08005 0
M  V30 10129 C 912.974 4.39809 -0.74054 0
M  V30 10130 C 913.675 5.15477 -2.69552 0
M  V30 10131 N 912.651 5.06456 -1.97493 0
M  V30 10132 H 916.453 2.54346 -1.47259 0
M  V30 10133 H 913.967 1.35232 -0.899225 0
M  V30 10134 H 915.964 4.15013 0.396236 0
M  V30 10135 H 914.624 3.1075 0.941507 0
M  V30 10136 H 915.635 4.55782 -2.45934 0
M  V30 10137 H 912.312 4.17397 0.0926238 0
M  V30 10138 H 913.702 5.62088 -3.68112 0
M  V30 10139 N 916.422 0.810101 1.35185 0
M  V30 10140 C 917.332 0.224565 2.33523 0
M  V30 10141 C 918.348 -0.634287 1.62027 0
M  V30 10142 O 919.524 -0.545211 1.9388 0
M  V30 10143 C 916.589 -0.614319 3.41214 0
M  V30 10144 C 915.65 0.265435 4.28479 0
M  V30 10145 C 914.883 -0.533506 5.31027 0
M  V30 10146 O 915.106 -1.7679 5.42311 0
M  V30 10147 O 914.04 0.0774573 6.0185 0
M  V30 10148 H 917.866 1.03815 2.85405 0
M  V30 10149 H 915.451 0.571964 1.38018 0
M  V30 10150 H 917.333 -1.09201 4.07005 0
M  V30 10151 H 916.008 -1.40545 2.91597 0
M  V30 10152 H 914.915 0.790343 3.65656 0
M  V30 10153 H 916.248 1.0206 4.81503 0
M  V30 10154 N 917.9 -1.47166 0.563914 0
M  V30 10155 C 919.148 -2.02056 0.0422873 0
M  V30 10156 C 919.469 -1.43992 -1.31497 0
M  V30 10157 O 918.739 -0.617578 -1.85911 0
M  V30 10158 H 917.319 -0.746893 0.0126427 0
M  V30 10159 H 919.981 -1.80492 0.735441 0
M  V30 10160 H 919.077 -3.12073 -0.0408044 0
M  V30 10161 N 919.378 -0.300708 -1.54705 0
M  V30 10162 C 920.603 0.314073 -2.05008 0
M  V30 10163 C 921.028 1.46759 -1.17657 0
M  V30 10164 O 920.386 1.80398 -0.180598 0
M  V30 10165 C 920.434 0.748243 -3.52752 0
M  V30 10166 O 919.538 1.85305 -3.68424 0
M  V30 10167 H 918.879 0.0610139 -0.661191 0
M  V30 10168 H 921.409 -0.442467 -1.99758 0
M  V30 10169 H 921.419 1.03713 -3.94598 0
M  V30 10170 H 920.094 -0.095573 -4.1579 0
M  V30 10171 H 918.671 1.56473 -3.38483 0
M  V30 10172 N 920.856 1.57574 -0.0284266 0
M  V30 10173 C 922.081 1.96479 0.664137 0
M  V30 10174 C 922.506 0.904826 1.64908 0
M  V30 10175 O 921.864 -0.134339 1.80802 0
M  V30 10176 C 921.912 3.34479 1.34745 0
M  V30 10177 O 921.016 3.30794 2.46271 0
M  V30 10178 H 920.357 0.640654 0.174524 0
M  V30 10179 H 922.887 2.04402 -0.0900729 0
M  V30 10180 H 922.897 3.70694 1.7044 0
M  V30 10181 H 921.572 4.1117 0.625468 0
M  V30 10182 H 920.149 3.06294 2.12693 0
M  V30 10183 N 922.334 -0.244713 1.55689 0
M  V30 10184 C 923.564 -0.988508 1.81417 0
M  V30 10185 C 923.972 -1.79362 0.602143 0
M  V30 10186 O 923.315 -1.78386 -0.438639 0
M  V30 10187 C 923.377 -1.97287 3.0053 0
M  V30 10188 C 923.041 -1.35448 4.36466 0
M  V30 10189 C 924.038 -0.755874 5.14376 0
M  V30 10190 C 921.723 -1.37319 4.83165 0
M  V30 10191 C 923.717 -0.184218 6.37134 0
M  V30 10192 C 921.404 -0.797681 6.05871 0
M  V30 10193 C 922.402 -0.204224 6.82695 0
M  V30 10194 O 922.09 0.362392 8.03083 0
M  V30 10195 H 921.822 -0.296412 0.607549 0
M  V30 10196 H 924.376 -0.272185 2.03589 0
M  V30 10197 H 922.606 -2.72756 2.74119 0
M  V30 10198 H 924.295 -2.58028 3.13331 0
M  V30 10199 H 925.061 -0.733912 4.79415 0
M  V30 10200 H 920.94 -1.8245 4.23359 0
M  V30 10201 H 924.484 0.279624 6.97039 0
M  V30 10202 H 920.381 -0.816978 6.40309 0
M  V30 10203 H 921.149 0.254467 8.18104 0
M  V30 10204 N 923.813 -1.49104 -0.510467 0
M  V30 10205 C 925.06 -1.58112 -1.26518 0
M  V30 10206 C 925.388 -0.263603 -1.92705 0
M  V30 10207 O 924.643 0.747743 -1.80852 0
M  V30 10208 C 924.942 -2.68259 -2.36161 0
M  V30 10209 C 924.608 -4.10069 -1.87495 0
M  V30 10210 C 923.27 -4.48662 -1.73942 0
M  V30 10211 C 925.622 -4.98859 -1.5096 0
M  V30 10212 C 922.95 -5.73829 -1.22217 0
M  V30 10213 C 925.302 -6.24535 -1.00691 0
M  V30 10214 C 923.966 -6.61967 -0.857691 0
M  V30 10215 H 923.236 -0.578574 -0.462962 0
M  V30 10216 H 925.883 -1.82899 -0.567475 0
M  V30 10217 H 924.188 -2.37407 -3.11681 0
M  V30 10218 H 925.885 -2.7244 -2.9424 0
M  V30 10219 H 922.475 -3.79601 -1.99001 0
M  V30 10220 H 926.659 -4.69706 -1.60282 0
M  V30 10221 H 921.915 -6.01539 -1.09368 0
M  V30 10222 H 926.089 -6.9272 -0.71498 0
M  V30 10223 H 923.716 -7.58839 -0.454702 0
M  V30 10224 N 925.291 0.760815 -1.38019 0
M  V30 10225 C 926.521 1.54776 -1.3685 0
M  V30 10226 C 926.929 1.89146 0.0453971 0
M  V30 10227 O 926.272 1.52746 1.0205 0
M  V30 10228 C 926.334 2.87923 -2.15269 0
M  V30 10229 C 925.998 2.76131 -3.64144 0
M  V30 10230 C 926.995 2.46417 -4.57794 0
M  V30 10231 C 924.68 2.9381 -4.07408 0
M  V30 10232 C 926.674 2.34525 -5.92686 0
M  V30 10233 C 924.361 2.81539 -5.42383 0
M  V30 10234 C 925.359 2.51938 -6.34836 0
M  V30 10235 O 925.047 2.39713 -7.67329 0
M  V30 10236 H 924.779 0.485776 -0.470104 0
M  V30 10237 H 927.333 0.949939 -1.82113 0
M  V30 10238 H 925.563 3.49867 -1.64712 0
M  V30 10239 H 927.252 3.49389 -2.06596 0
M  V30 10240 H 928.018 2.32433 -4.25676 0
M  V30 10241 H 923.897 3.15849 -3.35799 0
M  V30 10242 H 927.441 2.11342 -6.64816 0
M  V30 10243 H 923.338 2.95093 -5.741 0
M  V30 10244 H 924.106 2.5498 -7.77771 0
M  V30 10245 N 926.769 1.22769 0.988202 0
M  V30 10246 C 928.017 1.05301 1.725 0
M  V30 10247 C 928.338 -0.412103 1.90596 0
M  V30 10248 O 927.608 -1.29606 1.46898 0
M  V30 10249 H 926.188 0.386658 0.639144 0
M  V30 10250 H 928.85 1.54359 1.18993 0
M  V30 10251 H 927.946 1.53465 2.71763 0
M  V30 10252 N 928.247 -1.18576 1.03814 0
M  V30 10253 C 929.475 -1.92437 0.759966 0
M  V30 10254 C 929.89 -1.76031 -0.682526 0
M  V30 10255 O 929.247 -1.08829 -1.46501 0
M  V30 10256 C 929.298 -3.43923 1.11351 0
M  V30 10257 O 929.019 -3.5981 2.49937 0
M  V30 10258 C 930.52 -4.34888 0.859472 0
M  V30 10259 H 927.74 -0.610998 0.277349 0
M  V30 10260 H 930.284 -1.50448 1.38512 0
M  V30 10261 H 928.439 -3.83711 0.533362 0
M  V30 10262 H 928.853 -4.53569 2.63393 0
M  V30 10263 H 930.327 -5.39744 1.15672 0
M  V30 10264 H 930.804 -4.38717 -0.205839 0
M  V30 10265 H 931.41 -4.00795 1.42279 0
M  V30 10266 N 929.725 -0.817259 -1.34754 0
M  V30 10267 C 930.972 -0.402648 -1.98457 0
M  V30 10268 C 931.3 1.03287 -1.64809 0
M  V30 10269 O 930.555 1.73316 -0.908851 0
M  V30 10270 C 930.854 -0.5453 -3.53216 0
M  V30 10271 C 930.52 -1.9457 -4.06759 0
M  V30 10272 C 929.182 -2.32881 -4.21094 0
M  V30 10273 C 931.534 -2.86141 -4.35629 0
M  V30 10274 C 928.862 -3.62108 -4.61622 0
M  V30 10275 C 931.214 -4.14826 -4.776 0
M  V30 10276 C 929.878 -4.53121 -4.9014 0
M  V30 10277 H 929.148 -0.147339 -0.726204 0
M  V30 10278 H 931.795 -1.04011 -1.60791 0
M  V30 10279 H 930.1 0.175576 -3.91406 0
M  V30 10280 H 931.797 -0.205112 -4.00475 0
M  V30 10281 H 928.387 -1.6381 -3.96061 0
M  V30 10282 H 932.571 -2.57788 -4.24098 0
M  V30 10283 H 927.827 -3.91613 -4.69521 0
M  V30 10284 H 932.001 -4.85874 -4.98899 0
M  V30 10285 H 929.628 -5.53307 -5.21302 0
M  V30 10286 N 931.203 1.46865 -0.571711 0
M  V30 10287 C 932.428 2.07323 -0.0564655 0
M  V30 10288 C 932.853 1.41938 1.23431 0
M  V30 10289 O 932.211 0.499334 1.74288 0
M  V30 10290 C 932.259 3.6044 0.107339 0
M  V30 10291 O 931.363 3.95558 1.1665 0
M  V30 10292 H 930.704 0.661475 -0.0578465 0
M  V30 10293 H 933.234 1.88669 -0.791524 0
M  V30 10294 H 933.244 4.06767 0.316987 0
M  V30 10295 H 931.919 4.07425 -0.835348 0
M  V30 10296 H 930.496 3.60957 0.936189 0
M  V30 10297 N 932.681 0.308908 1.54543 0
M  V30 10298 C 933.591 -0.572939 2.27496 0
M  V30 10299 C 934.607 -1.14171 1.31305 0
M  V30 10300 O 935.783 -1.16481 1.64299 0
M  V30 10301 C 932.848 -1.72483 3.0075 0
M  V30 10302 C 931.909 -1.18934 4.12496 0
M  V30 10303 C 931.142 -2.28634 4.82247 0
M  V30 10304 O 931.365 -3.48691 4.5141 0
M  V30 10305 O 930.299 -1.94879 5.69478 0
M  V30 10306 H 934.125 0.0190877 3.03694 0
M  V30 10307 H 931.71 0.0750943 1.49211 0
M  V30 10308 H 933.592 -2.39578 3.46671 0
M  V30 10309 H 932.267 -2.30332 2.2744 0
M  V30 10310 H 931.174 -0.483904 3.70957 0
M  V30 10311 H 932.507 -0.656185 4.87806 0
M  V30 10312 N 934.159 -1.57557 0.0367827 0
M  V30 10313 C 935.089 -2.13712 -0.940719 0
M  V30 10314 C 936.07 -1.05515 -1.33419 0
M  V30 10315 O 937.255 -1.33385 -1.41146 0
M  V30 10316 C 934.385 -2.67043 -2.22048 0
M  V30 10317 C 933.339 -3.80096 -1.96752 0
M  V30 10318 C 932.665 -4.19886 -3.31059 0
M  V30 10319 C 933.965 -5.05848 -1.30058 0
M  V30 10320 H 935.659 -2.9564 -0.473033 0
M  V30 10321 H 933.205 -1.42214 -0.226089 0
M  V30 10322 H 935.158 -3.04964 -2.90818 0
M  V30 10323 H 933.882 -1.82287 -2.70996 0
M  V30 10324 H 932.541 -3.42625 -1.30398 0
M  V30 10325 H 932.189 -3.32101 -3.77781 0
M  V30 10326 H 931.889 -4.96073 -3.14937 0
M  V30 10327 H 933.413 -4.60395 -4.01084 0
M  V30 10328 H 934.827 -5.41306 -1.8884 0
M  V30 10329 H 933.224 -5.87084 -1.24309 0
M  V30 10330 H 934.294 -4.84122 -0.274591 0
M  V30 10331 N 935.637 0.236453 -1.55816 0
M  V30 10332 C 936.569 1.31602 -1.87653 0
M  V30 10333 C 937.582 1.43782 -0.763584 0
M  V30 10334 O 938.771 1.44945 -1.04178 0
M  V30 10335 C 935.871 2.69342 -2.05689 0
M  V30 10336 C 935.044 2.79298 -3.36617 0
M  V30 10337 C 934.103 3.97952 -3.44268 0
M  V30 10338 O 933.129 3.86989 -4.17406 0
M  V30 10339 N 934.331 5.11594 -2.74321 0
M  V30 10340 H 937.096 1.04623 -2.80845 0
M  V30 10341 H 934.657 0.426534 -1.5618 0
M  V30 10342 H 936.649 3.47074 -2.08138 0
M  V30 10343 H 935.219 2.88984 -1.19192 0
M  V30 10344 H 934.439 1.8816 -3.46395 0
M  V30 10345 H 935.727 2.82908 -4.22895 0
M  V30 10346 H 935.125 5.23394 -2.14651 0
M  V30 10347 H 933.682 5.87422 -2.8245 0
M  V30 10348 N 937.115 1.49373 0.502552 0
M  V30 10349 C 938.063 1.66411 1.62512 0
M  V30 10350 C 939.057 0.530062 1.60893 0
M  V30 10351 O 940.263 0.709648 1.65421 0
M  V30 10352 H 936.638 0.524707 0.538689 0
M  V30 10353 H 938.609 2.60639 1.45293 0
M  V30 10354 C 937.358 1.74648 3.00655 0
M  V30 10355 H 936.681 2.61285 3.02606 0
M  V30 10356 H 938.121 1.90605 3.78742 0
M  V30 10357 C 936.58 0.490963 3.33303 0
M  V30 10358 O 937.11 -0.384039 3.9986 0
M  V30 10359 N 935.316 0.354375 2.88431 0
M  V30 10360 H 934.863 1.06742 2.34444 0
M  V30 10361 H 934.821 -0.484593 3.10643 0
M  V30 10362 N 938.594 -0.753485 1.38421 0
M  V30 10363 C 939.524 -1.8808 1.38377 0
M  V30 10364 C 940.505 -1.68258 0.249664 0
M  V30 10365 O 941.69 -1.88848 0.45276 0
M  V30 10366 C 938.82 -3.25608 1.20818 0
M  V30 10367 C 937.774 -3.60032 2.31433 0
M  V30 10368 C 937.1 -4.96297 1.9898 0
M  V30 10369 C 938.4 -3.64898 3.73694 0
M  V30 10370 H 940.094 -1.88375 2.32713 0
M  V30 10371 H 937.64 -0.90489 1.12017 0
M  V30 10372 H 939.593 -4.04127 1.19412 0
M  V30 10373 H 938.317 -3.25793 0.229433 0
M  V30 10374 H 936.976 -2.83831 2.32025 0
M  V30 10375 H 936.624 -4.93043 0.995889 0
M  V30 10376 H 936.324 -5.20298 2.73063 0
M  V30 10377 H 937.848 -5.77196 1.99193 0
M  V30 10378 H 939.262 -4.33531 3.75132 0
M  V30 10379 H 937.659 -4.00407 4.46983 0
M  V30 10380 H 938.729 -2.65124 4.06002 0
M  V30 10381 N 940.072 -1.23292 -0.981677 0
M  V30 10382 C 941.004 -0.970782 -2.07626 0
M  V30 10383 C 942.017 0.0547506 -1.62708 0
M  V30 10384 O 943.206 -0.180623 -1.77584 0
M  V30 10385 C 940.306 -0.44055 -3.36024 0
M  V30 10386 C 939.479 -1.52595 -4.09919 0
M  V30 10387 C 938.538 -1.00082 -5.16595 0
M  V30 10388 O 937.564 -1.68951 -5.43548 0
M  V30 10389 N 938.766 0.172017 -5.80245 0
M  V30 10390 H 941.531 -1.91316 -2.30691 0
M  V30 10391 H 939.092 -1.14133 -1.14828 0
M  V30 10392 H 941.084 -0.0743111 -4.04632 0
M  V30 10393 H 939.654 0.407211 -3.09936 0
M  V30 10394 H 938.874 -2.06501 -3.35784 0
M  V30 10395 H 940.162 -2.2559 -4.56055 0
M  V30 10396 H 939.56 0.748129 -5.60731 0
M  V30 10397 H 938.117 0.479532 -6.50034 0
M  V30 10398 N 941.55 1.18024 -1.04442 0
M  V30 10399 C 942.961 1.69749 -0.777312 0
M  V30 10400 C 943.312 1.83234 0.701399 0
M  V30 10401 O 942.437 1.51452 1.54568 0
M  V30 10402 C 943.032 3.08321 -1.40441 0
M  V30 10403 C 941.591 3.57243 -1.18553 0
M  V30 10404 C 940.738 2.33695 -1.49271 0
M  V30 10405 H 943.689 1.02647 -1.21035 0
M  V30 10406 H 943.71 3.71787 -0.809628 0
M  V30 10407 H 943.222 2.98474 -2.48062 0
M  V30 10408 H 941.323 3.72379 -0.128221 0
M  V30 10409 H 941.436 4.40451 -1.88519 0
M  V30 10410 H 939.8 2.37792 -0.912526 0
M  V30 10411 H 940.583 2.26464 -2.5801 0
M  V30 10412 N 943.028 0.824394 1.34319 0
M  V30 10413 C 944.305 0.335692 1.92698 0
M  V30 10414 C 944.685 -1.17715 1.75232 0
M  V30 10415 O 944.033 -1.98493 1.13194 0
M  V30 10416 C 944.243 0.766647 3.40475 0
M  V30 10417 C 945.591 0.766323 4.17627 0
M  V30 10418 O 946.615 0.709321 3.49066 0
M  V30 10419 O 945.474 0.840856 5.39992 0
M  V30 10420 H 942.568 0.0919996 0.821867 0
M  V30 10421 H 945.114 0.909282 1.43283 0
M  V30 10422 H 943.886 1.80859 3.46995 0
M  V30 10423 H 943.509 0.168833 3.97241 0
M  V30 10424 N 944.506 -1.46559 0.579492 0
M  V30 10425 C 945.753 -2.02399 0.0638418 0
M  V30 10426 C 946.081 -1.45135 -1.29484 0
M  V30 10427 O 945.336 -0.605061 -1.86112 0
M  V30 10428 C 945.635 -3.57357 -0.0552803 0
M  V30 10429 C 945.301 -4.33646 1.23539 0
M  V30 10430 C 943.963 -4.54207 1.589 0
M  V30 10431 C 946.315 -4.77476 2.08965 0
M  V30 10432 C 943.643 -5.1585 2.79492 0
M  V30 10433 C 945.995 -5.4045 3.2878 0
M  V30 10434 C 944.659 -5.5924 3.64427 0
M  V30 10435 H 943.929 -0.740632 0.0233614 0
M  V30 10436 H 946.576 -1.75968 0.755482 0
M  V30 10437 H 944.881 -3.82907 -0.83003 0
M  V30 10438 H 946.578 -3.98237 -0.469964 0
M  V30 10439 H 943.168 -4.17937 0.9501 0
M  V30 10440 H 947.352 -4.61349 1.8295 0
M  V30 10441 H 942.608 -5.28589 3.07252 0
M  V30 10442 H 946.782 -5.73371 3.95245 0
M  V30 10443 H 944.409 -6.06775 4.57961 0
M  V30 10444 N 945.984 -0.3171 -1.54377 0
M  V30 10445 C 947.209 0.292311 -2.0533 0
M  V30 10446 C 947.634 1.45503 -1.19207 0
M  V30 10447 O 946.992 1.80197 -0.199721 0
M  V30 10448 C 947.04 0.710787 -3.53525 0
M  V30 10449 O 946.144 1.81387 -3.70368 0
M  V30 10450 H 945.485 0.0539976 -0.661801 0
M  V30 10451 H 948.015 -0.463629 -1.99278 0
M  V30 10452 H 948.025 0.995216 -3.95676 0
M  V30 10453 H 946.7 -0.139668 -4.15665 0
M  V30 10454 H 945.277 1.52875 -3.40123 0
M  V30 10455 N 947.462 1.57535 -0.0451378 0
M  V30 10456 C 948.687 1.97172 0.64326 0
M  V30 10457 C 949.112 0.922266 1.63939 0
M  V30 10458 O 948.47 -0.115155 1.80934 0
M  V30 10459 C 948.518 3.35889 1.3119 0
M  V30 10460 O 947.622 3.33387 2.42748 0
M  V30 10461 H 946.963 0.642469 0.167719 0
M  V30 10462 H 949.493 2.04295 -0.111747 0
M  V30 10463 H 949.503 3.72481 1.66499 0
M  V30 10464 H 948.178 4.1181 0.581823 0
M  V30 10465 H 946.755 3.08533 2.09432 0
M  V30 10466 N 948.94 -0.228186 1.55939 0
M  V30 10467 C 949.887 -1.28274 1.91871 0
M  V30 10468 C 950.857 -1.46906 0.775103 0
M  V30 10469 O 952.042 -1.60583 1.03042 0
M  V30 10470 C 949.182 -2.62945 2.23504 0
M  V30 10471 C 948.295 -2.52166 3.50766 0
M  V30 10472 C 947.43 -3.79316 3.71878 0
M  V30 10473 C 946.469 -3.63231 4.92676 0
M  V30 10474 N 945.606 -4.82315 5.10212 0
M  V30 10475 H 950.446 -0.96931 2.81795 0
M  V30 10476 H 947.983 -0.467331 1.39479 0
M  V30 10477 H 949.941 -3.41359 2.39854 0
M  V30 10478 H 948.571 -2.92397 1.36762 0
M  V30 10479 H 947.623 -1.65221 3.42646 0
M  V30 10480 H 948.935 -2.36199 4.39331 0
M  V30 10481 H 948.089 -4.66173 3.88288 0
M  V30 10482 H 946.828 -3.982 2.81581 0
M  V30 10483 H 945.833 -2.74757 4.76223 0
M  V30 10484 H 947.058 -3.45823 5.84451 0
M  V30 10485 H 945.004 -5.01526 4.22856 0
M  V30 10486 H 944.921 -4.6905 5.92898 0
M  V30 10487 H 946.189 -5.70618 5.31051 0
M  V30 10488 N 950.418 -1.49637 -0.494624 0
M  V30 10489 C 951.348 -1.69692 -1.60396 0
M  V30 10490 C 952.329 -0.545648 -1.61111 0
M  V30 10491 O 953.514 -0.782202 -1.77751 0
M  V30 10492 C 950.644 -1.76934 -2.9885 0
M  V30 10493 C 949.598 -2.91915 -3.13001 0
M  V30 10494 C 948.924 -2.84276 -4.5287 0
M  V30 10495 C 950.224 -4.32764 -2.92426 0
M  V30 10496 H 951.918 -2.6257 -1.43866 0
M  V30 10497 H 949.464 -1.26355 -0.690679 0
M  V30 10498 H 951.417 -1.8955 -3.76362 0
M  V30 10499 H 950.141 -0.806609 -3.16483 0
M  V30 10500 H 948.8 -2.78911 -2.37916 0
M  V30 10501 H 948.448 -1.85897 -4.67388 0
M  V30 10502 H 948.148 -3.61452 -4.63278 0
M  V30 10503 H 949.672 -2.98909 -5.32434 0
M  V30 10504 H 951.086 -4.46415 -3.59703 0
M  V30 10505 H 949.483 -5.1121 -3.143 0
M  V30 10506 H 950.553 -4.46765 -1.88491 0
M  V30 10507 N 951.896 0.746133 -1.38819 0
M  V30 10508 C 952.829 1.86833 -1.31029 0
M  V30 10509 C 953.807 1.61533 -0.185948 0
M  V30 10510 O 954.991 1.84942 -0.364529 0
M  V30 10511 C 952.118 3.22596 -1.03198 0
M  V30 10512 C 951.164 3.66772 -2.17671 0
M  V30 10513 S 951.997 3.77438 -3.7987 0
M  V30 10514 C 953.153 5.16008 -3.54241 0
M  V30 10515 H 953.386 1.93155 -2.26005 0
M  V30 10516 H 950.919 0.909872 -1.24742 0
M  V30 10517 H 952.877 4.00995 -0.878237 0
M  V30 10518 H 951.538 3.13943 -0.0992704 0
M  V30 10519 H 950.731 4.65266 -1.93762 0
M  V30 10520 H 950.333 2.95547 -2.2919 0
M  V30 10521 H 952.625 6.01996 -3.10816 0
M  V30 10522 H 953.568 5.44941 -4.52156 0
M  V30 10523 H 953.976 4.85158 -2.88587 0
M  V30 10524 N 953.375 1.23811 0.975125 0
M  V30 10525 C 954.623 1.07124 1.71373 0
M  V30 10526 C 954.944 -0.391864 1.91022 0
M  V30 10527 O 954.214 -1.28041 1.48265 0
M  V30 10528 H 952.794 0.393415 0.635007 0
M  V30 10529 H 955.456 1.55612 1.17349 0
M  V30 10530 H 954.552 1.56338 2.7012 0
M  V30 10531 N 954.853 -1.17469 1.05066 0
M  V30 10532 C 956.093 -1.89382 0.769012 0
M  V30 10533 C 956.457 -1.79126 -0.691217 0
M  V30 10534 O 957.658 -2.45845 -1.08692 0
M  V30 10535 C 955.929 -3.35397 1.23465 0
M  V30 10536 S 957.488 -4.25297 1.08018 0
M  V30 10537 H 954.306 -0.653839 0.279312 0
M  V30 10538 H 956.908 -1.41877 1.34503 0
M  V30 10539 H 955.612 -3.40395 2.29258 0
M  V30 10540 H 955.143 -3.87945 0.652853 0
M  V30 10541 H 957.158 -4.962 0.00358573 0
M  V30 10542 N 956.331 -0.831506 -1.3388 0
M  V30 10543 C 957.608 -0.345907 -1.92517 0
M  V30 10544 C 957.988 1.16784 -1.75854 0
M  V30 10545 O 957.336 1.97889 -1.14245 0
M  V30 10546 C 957.546 -0.784692 -3.40064 0
M  V30 10547 C 958.894 -0.78846 -4.17215 0
M  V30 10548 O 959.918 -0.727823 -3.48685 0
M  V30 10549 O 958.777 -0.869481 -5.39539 0
M  V30 10550 H 955.871 -0.0963568 -0.821367 0
M  V30 10551 H 958.417 -0.916868 -1.42799 0
M  V30 10552 H 957.189 -1.82697 -3.46031 0
M  V30 10553 H 956.812 -0.189897 -3.97146 0
M  V30 10554 N 957.809 1.4625 -0.587256 0
M  V30 10555 C 959.034 2.07252 -0.0784517 0
M  V30 10556 C 959.459 1.43239 1.21919 0
M  V30 10557 O 958.817 0.517791 1.73749 0
M  V30 10558 C 958.865 3.60534 0.0691037 0
M  V30 10559 O 957.969 3.96773 1.12448 0
M  V30 10560 H 957.31 0.660825 -0.064859 0
M  V30 10561 H 959.84 1.87819 -0.811491 0
M  V30 10562 H 959.85 4.0708 0.273826 0
M  V30 10563 H 958.525 4.06516 -0.878514 0
M  V30 10564 H 957.102 3.6193 0.897852 0
M  V30 10565 N 959.287 0.325282 1.54207 0
M  V30 10566 C 960.534 -0.276775 2.006 0
M  V30 10567 C 960.862 -1.52007 1.21343 0
M  V30 10568 O 960.117 -1.93627 0.284104 0
M  V30 10569 C 960.416 -0.654292 3.5136 0
M  V30 10570 C 960.082 0.490023 4.48229 0
M  V30 10571 C 958.744 0.804104 4.74434 0
M  V30 10572 C 961.096 1.2586 5.05775 0
M  V30 10573 C 958.424 1.88945 5.55443 0
M  V30 10574 C 960.776 2.33405 5.87967 0
M  V30 10575 C 959.44 2.65393 6.12473 0
M  V30 10576 H 958.71 -0.101279 0.734046 0
M  V30 10577 H 961.357 0.449416 1.86152 0
M  V30 10578 H 959.662 -1.46093 3.63544 0
M  V30 10579 H 961.359 -1.13171 3.84699 0
M  V30 10580 H 957.949 0.235147 4.27954 0
M  V30 10581 H 962.133 1.02921 4.85511 0
M  V30 10582 H 957.389 2.14174 5.7266 0
M  V30 10583 H 961.563 2.93402 6.31576 0
M  V30 10584 H 959.19 3.49622 6.75032 0
M  V30 10585 N 960.765 -1.57509 0.0534917 0
M  V30 10586 C 962.042 -1.84137 -0.659767 0
M  V30 10587 C 962.422 -0.942362 -1.88899 0
M  V30 10588 O 961.77 -0.00398566 -2.285 0
M  V30 10589 C 961.98 -3.33919 -1.01486 0
M  V30 10590 C 963.328 -4.00989 -1.39616 0
M  V30 10591 O 964.352 -3.38557 -1.10713 0
M  V30 10592 O 963.211 -5.11071 -1.93567 0
M  V30 10593 H 960.305 -0.760081 -0.325893 0
M  V30 10594 H 962.851 -1.69497 0.0830315 0
M  V30 10595 H 961.623 -3.91046 -0.141041 0
M  V30 10596 H 961.246 -3.53755 -1.81503 0
M  V30 10597 N 962.243 0.219913 -1.56058 0
M  V30 10598 C 963.175 1.29604 -1.89038 0
M  V30 10599 C 964.188 1.42964 -0.778791 0
M  V30 10600 O 965.377 1.43832 -1.0571 0
M  V30 10601 C 962.477 2.67145 -2.08534 0
M  V30 10602 C 961.65 2.75712 -3.39561 0
M  V30 10603 C 960.709 3.94279 -3.48469 0
M  V30 10604 O 959.735 3.8254 -4.21487 0
M  V30 10605 N 960.937 5.08655 -2.79732 0
M  V30 10606 H 963.702 1.01638 -2.81939 0
M  V30 10607 H 961.263 0.409945 -1.56624 0
M  V30 10608 H 963.255 3.44847 -2.11808 0
M  V30 10609 H 961.825 2.87704 -1.2225 0
M  V30 10610 H 961.045 1.84475 -3.48371 0
M  V30 10611 H 962.333 2.78407 -4.25872 0
M  V30 10612 H 961.731 5.21088 -2.2019 0
M  V30 10613 H 960.288 5.84394 -2.88665 0
M  V30 10614 N 963.721 1.49897 0.486681 0
M  V30 10615 C 964.968 1.60105 1.23986 0
M  V30 10616 C 965.296 0.294228 1.92262 0
M  V30 10617 O 964.551 -0.718876 1.82018 0
M  V30 10618 C 964.85 2.71982 2.31863 0
M  V30 10619 C 964.516 4.13 1.80948 0
M  V30 10620 C 963.178 4.51373 1.66782 0
M  V30 10621 C 965.53 5.01198 1.43004 0
M  V30 10622 C 962.858 5.75701 1.13072 0
M  V30 10623 C 965.21 6.26058 0.90742 0
M  V30 10624 C 963.874 6.63247 0.752269 0
M  V30 10625 H 963.144 0.585866 0.453698 0
M  V30 10626 H 965.791 1.83778 0.538305 0
M  V30 10627 H 964.096 2.42336 3.07865 0
M  V30 10628 H 965.793 2.77087 2.89869 0
M  V30 10629 H 962.383 3.82718 1.92937 0
M  V30 10630 H 966.567 4.72196 1.52789 0
M  V30 10631 H 961.823 6.03202 0.997842 0
M  V30 10632 H 965.997 6.9377 0.604684 0
M  V30 10633 H 963.624 7.59466 0.33392 0
M  V30 10634 N 965.199 -0.738761 1.39212 0
M  V30 10635 C 966.424 -1.5331 1.39681 0
M  V30 10636 C 966.849 -1.88098 -0.00768715 0
M  V30 10637 O 966.207 -1.51642 -0.993699 0
M  V30 10638 C 966.255 -2.79958 2.27279 0
M  V30 10639 O 965.359 -3.75727 1.70008 0
M  V30 10640 H 964.7 -0.463131 0.475821 0
M  V30 10641 H 967.23 -0.911768 1.83161 0
M  V30 10642 H 967.24 -3.28732 2.41659 0
M  V30 10643 H 965.915 -2.5397 3.29351 0
M  V30 10644 H 964.492 -3.34483 1.64851 0
M  V30 10645 N 966.677 -1.24326 -0.968545 0
M  V30 10646 C 967.64 -1.03591 -2.04454 0
M  V30 10647 C 968.64 0.0064809 -1.60799 0
M  V30 10648 O 969.83 -0.234404 -1.72616 0
M  V30 10649 C 966.962 -0.56992 -3.36102 0
M  V30 10650 H 968.155 -1.99092 -2.24282 0
M  V30 10651 H 965.708 -1.06537 -1.14366 0
M  V30 10652 H 966.443 0.388325 -3.21967 0
M  V30 10653 H 966.228 -1.32227 -3.69132 0
M  V30 10654 H 967.718 -0.445854 -4.15213 0
M  V30 10655 N 968.156 1.1691 -1.05688 0
M  V30 10656 C 969.066 2.24735 -0.67315 0
M  V30 10657 C 970.082 1.71252 0.308043 0
M  V30 10658 O 971.258 2.00772 0.158889 0
M  V30 10659 C 968.323 3.4665 -0.059026 0
M  V30 10660 C 967.384 4.15198 -1.0913 0
M  V30 10661 C 966.617 5.31292 -0.50639 0
M  V30 10662 O 966.84 5.663 0.682692 0
M  V30 10663 O 965.774 5.88923 -1.2431 0
M  V30 10664 H 969.6 2.59855 -1.57191 0
M  V30 10665 H 967.185 1.24306 -0.828751 0
M  V30 10666 H 969.067 4.20455 0.282018 0
M  V30 10667 H 967.742 3.13316 0.813304 0
M  V30 10668 H 966.649 3.43389 -1.48442 0
M  V30 10669 H 967.982 4.52571 -1.93495 0
M  V30 10670 N 969.634 0.838594 1.33437 0
M  V30 10671 C 971.05 0.526347 1.50671 0
M  V30 10672 C 971.25 -0.946387 1.77893 0
M  V30 10673 O 970.306 -1.7302 1.83903 0
M  V30 10674 C 971.619 1.39945 2.6615 0
M  V30 10675 C 973.167 1.3982 2.80035 0
M  V30 10676 C 973.642 2.25614 3.98576 0
M  V30 10677 N 975.133 2.23322 4.0581 0
M  V30 10678 C 975.868 2.86443 4.96727 0
M  V30 10679 N 975.364 3.58616 5.92762 0
M  V30 10680 N 977.157 2.75915 4.89722 0
M  V30 10681 H 969.308 1.79195 1.1403 0
M  V30 10682 H 971.571 0.764491 0.560586 0
M  V30 10683 H 971.277 2.44599 2.52714 0
M  V30 10684 H 971.151 1.07529 3.61548 0
M  V30 10685 H 973.538 0.35937 2.92904 0
M  V30 10686 H 973.619 1.76241 1.85399 0
M  V30 10687 H 973.263 3.29555 3.86466 0
M  V30 10688 H 973.193 1.86533 4.92456 0
M  V30 10689 H 975.684 1.70836 3.37081 0
M  V30 10690 H 975.997 4.03987 6.58798 0
M  V30 10691 H 974.342 3.62724 5.92838 0
M  V30 10692 H 977.533 2.19094 4.13661 0
M  V30 10693 H 977.706 3.25393 5.60378 0
M  V30 10694 N 971.112 -1.45937 0.595003 0
M  V30 10695 C 972.528 -1.57507 0.257641 0
M  V30 10696 C 972.728 -1.58829 -1.23998 0
M  V30 10697 O 971.784 -1.51183 -2.02237 0
M  V30 10698 C 973.097 -2.86354 0.917708 0
M  V30 10699 C 974.645 -3.00007 0.892446 0
M  V30 10700 C 975.12 -4.31607 1.53229 0
M  V30 10701 N 976.611 -4.38336 1.49719 0
M  V30 10702 C 977.346 -5.38805 1.96154 0
M  V30 10703 N 976.842 -6.45882 2.50617 0
M  V30 10704 N 978.635 -5.30084 1.86997 0
M  V30 10705 H 970.786 -1.43322 1.56756 0
M  V30 10706 H 973.049 -0.684436 0.655936 0
M  V30 10707 H 972.755 -2.91233 1.97171 0
M  V30 10708 H 972.629 -3.74703 0.433344 0
M  V30 10709 H 975.016 -2.94703 -0.152975 0
M  V30 10710 H 975.097 -2.13103 1.41495 0
M  V30 10711 H 974.741 -4.3767 2.57697 0
M  V30 10712 H 974.671 -5.17308 0.984903 0
M  V30 10713 H 977.162 -3.6156 1.09921 0
M  V30 10714 H 977.475 -7.18774 2.83874 0
M  V30 10715 H 975.82 -6.46668 2.54649 0
M  V30 10716 H 979.011 -4.45337 1.44196 0
M  V30 10717 H 979.184 -6.08237 2.23499 0
M  V30 10718 N 972.59 -0.333456 -1.54032 0
M  V30 10719 C 973.538 0.543414 -2.26163 0
M  V30 10720 C 974.532 1.11037 -1.27934 0
M  V30 10721 O 975.738 1.05727 -1.45677 0
M  V30 10722 H 972.113 0.19391 -0.726569 0
M  V30 10723 H 974.084 -0.0871052 -2.98273 0
M  V30 10724 C 972.833 1.68769 -3.03994 0
M  V30 10725 H 972.156 1.26069 -3.79403 0
M  V30 10726 H 973.596 2.27662 -3.57695 0
M  V30 10727 C 972.055 2.61117 -2.12884 0
M  V30 10728 O 972.585 3.63097 -1.71823 0
M  V30 10729 N 970.791 2.29573 -1.7817 0
M  V30 10730 H 970.338 1.46684 -2.11759 0
M  V30 10731 H 970.296 2.91622 -1.1749 0
M  V30 10732 N 974.068 1.57479 -0.061844 0
M  V30 10733 C 975.293 1.97843 0.622311 0
M  V30 10734 C 975.718 0.939602 1.62951 0
M  V30 10735 O 975.076 -0.095958 1.81046 0
M  V30 10736 C 975.124 3.37262 1.2762 0
M  V30 10737 O 974.228 3.35943 2.39199 0
M  V30 10738 H 973.569 0.644212 0.160896 0
M  V30 10739 H 976.099 2.04165 -0.133409 0
M  V30 10740 H 976.109 3.74226 1.62539 0
M  V30 10741 H 974.784 4.12404 0.538112 0
M  V30 10742 H 973.361 3.10737 2.06148 0
M  V30 10743 N 975.546 -0.211634 1.56173 0
M  V30 10744 C 976.795 -0.932647 1.78842 0
M  V30 10745 C 977.108 -1.85103 0.63217 0
M  V30 10746 O 978.314 -2.61143 0.742746 0
M  V30 10747 C 976.77 -1.70866 3.16753 0
M  V30 10748 C 976.378 -0.835934 4.40132 0
M  V30 10749 C 978.122 -2.4203 3.48743 0
M  V30 10750 C 976.029 -1.60987 5.69067 0
M  V30 10751 H 974.959 -0.351983 0.666801 0
M  V30 10752 H 977.61 -0.186284 1.82552 0
M  V30 10753 H 975.992 -2.4983 3.07247 0
M  V30 10754 H 977.166 -0.0861298 4.60719 0
M  V30 10755 H 975.481 -0.235941 4.15731 0
M  V30 10756 H 978.078 -3.00453 4.42303 0
M  V30 10757 H 978.421 -3.15406 2.71707 0
M  V30 10758 H 978.954 -1.70048 3.59623 0
M  V30 10759 H 975.693 -0.9192 6.49023 0
M  V30 10760 H 975.213 -2.33403 5.52524 0
M  V30 10761 H 976.892 -2.16798 6.09596 0
M  V30 10762 N 977.024 -1.50153 -0.478725 0
M  V30 10763 C 977.954 -1.71384 -1.58587 0
M  V30 10764 C 978.935 -0.562705 -1.60523 0
M  V30 10765 O 980.12 -0.80101 -1.76911 0
M  V30 10766 C 977.25 -1.80094 -2.96957 0
M  V30 10767 C 976.204 -2.95218 -3.09888 0
M  V30 10768 C 975.53 -2.89063 -4.49829 0
M  V30 10769 C 976.83 -4.35841 -2.8782 0
M  V30 10770 H 978.524 -2.64081 -1.41073 0
M  V30 10771 H 976.07 -1.27081 -0.677239 0
M  V30 10772 H 978.023 -1.93531 -3.74331 0
M  V30 10773 H 976.747 -0.840131 -3.1561 0
M  V30 10774 H 975.406 -2.81419 -2.34944 0
M  V30 10775 H 975.054 -1.90844 -4.6539 0
M  V30 10776 H 974.754 -3.66345 -4.59418 0
M  V30 10777 H 976.278 -3.04539 -5.29234 0
M  V30 10778 H 977.692 -4.50205 -3.54948 0
M  V30 10779 H 976.089 -5.14515 -3.0886 0
M  V30 10780 H 977.159 -4.48739 -1.83742 0
M  V30 10781 N 978.502 0.731368 -1.39602 0
M  V30 10782 C 979.73 1.52059 -1.40305 0
M  V30 10783 C 980.145 1.888 0.00147921 0
M  V30 10784 O 979.502 1.54354 0.973715 0
M  V30 10785 C 979.553 2.80588 -2.27931 0
M  V30 10786 O 979.274 2.45406 -3.62915 0
M  V30 10787 C 980.775 3.74592 -2.37056 0
M  V30 10788 H 977.995 0.469787 -0.479104 0
M  V30 10789 H 980.539 0.903436 -1.83462 0
M  V30 10790 H 978.694 3.38626 -1.88178 0
M  V30 10791 H 979.108 3.27996 -4.09291 0
M  V30 10792 H 980.582 4.61662 -3.02609 0
M  V30 10793 H 981.059 4.16597 -1.39081 0
M  V30 10794 H 981.665 3.22471 -2.77295 0
M  V30 10795 N 979.98 1.24838 0.961938 0
M  V30 10796 C 980.89 1.06304 2.09133 0
M  V30 10797 C 981.906 0.00221475 1.74 0
M  V30 10798 O 983.082 0.201611 2.00388 0
M  V30 10799 C 980.147 0.676117 3.40043 0
M  V30 10800 C 979.208 1.81407 3.89089 0
M  V30 10801 C 978.441 1.44551 5.13752 0
M  V30 10802 O 978.664 0.337894 5.69398 0
M  V30 10803 O 977.598 2.27316 5.57325 0
M  V30 10804 H 981.424 2.01001 2.27667 0
M  V30 10805 H 979.009 1.0371 1.07539 0
M  V30 10806 H 980.891 0.472124 4.18747 0
M  V30 10807 H 979.566 -0.241667 3.22797 0
M  V30 10808 H 978.473 2.07286 3.11421 0
M  V30 10809 H 979.806 2.71083 4.10822 0
M  V30 10810 N 981.458 -1.16348 1.06306 0
M  V30 10811 C 982.686 -1.90782 0.800614 0
M  V30 10812 C 983.101 -1.77439 -0.645033 0
M  V30 10813 O 982.458 -1.11912 -1.4416 0
M  V30 10814 C 982.509 -3.41484 1.18621 0
M  V30 10815 O 982.23 -3.54428 2.57512 0
M  V30 10816 C 983.731 -4.32968 0.951525 0
M  V30 10817 H 980.951 -0.604977 0.290247 0
M  V30 10818 H 983.495 -1.47476 1.41672 0
M  V30 10819 H 981.65 -3.82493 0.614633 0
M  V30 10820 H 982.064 -4.4788 2.72954 0
M  V30 10821 H 983.538 -5.37169 1.27095 0
M  V30 10822 H 984.015 -4.39055 -0.112734 0
M  V30 10823 H 984.621 -3.97687 1.50749 0
M  V30 10824 N 982.937 -0.845659 -1.3299 0
M  V30 10825 C 983.867 -0.298957 -2.31578 0
M  V30 10826 C 984.848 0.597012 -1.59279 0
M  V30 10827 O 986.033 0.519142 -1.87132 0
M  V30 10828 C 983.163 0.521109 -3.43368 0
M  V30 10829 C 982.117 -0.279651 -4.27085 0
M  V30 10830 C 981.443 0.664591 -5.30554 0
M  V30 10831 C 982.743 -1.50046 -5.00283 0
M  V30 10832 H 984.437 -1.12272 -2.77552 0
M  V30 10833 H 981.983 -0.54132 -1.33438 0
M  V30 10834 H 983.936 0.913921 -4.1137 0
M  V30 10835 H 982.66 1.37815 -2.96099 0
M  V30 10836 H 981.319 -0.654106 -3.60717 0
M  V30 10837 H 980.967 1.51822 -4.79541 0
M  V30 10838 H 980.667 0.132871 -5.8745 0
M  V30 10839 H 982.191 1.05477 -6.01421 0
M  V30 10840 H 983.605 -1.18044 -5.61016 0
M  V30 10841 H 982.002 -1.96946 -5.66862 0
M  V30 10842 H 983.072 -2.26659 -4.28665 0
M  V30 10843 N 984.415 1.45619 -0.602734 0
M  V30 10844 C 985.365 2.27568 0.140264 0
M  V30 10845 C 986.349 1.3704 0.84314 0
M  V30 10846 O 987.541 1.61067 0.733931 0
M  V30 10847 C 984.67 3.23812 1.14019 0
M  V30 10848 C 983.756 4.21828 0.438406 0
M  V30 10849 N 984.147 5.03148 -0.517245 0
M  V30 10850 C 982.445 4.40684 0.686588 0
M  V30 10851 C 983.146 5.74229 -0.929291 0
M  V30 10852 N 982.122 5.42909 -0.274086 0
M  V30 10853 H 985.924 2.87839 -0.5938 0
M  V30 10854 H 983.438 1.56712 -0.426033 0
M  V30 10855 H 985.435 3.8125 1.68684 0
M  V30 10856 H 984.095 2.65102 1.87486 0
M  V30 10857 H 985.106 5.1013 -0.893758 0
M  V30 10858 H 981.783 3.93102 1.4063 0
M  V30 10859 H 983.173 6.49586 -1.7172 0
M  V30 10860 N 985.893 0.34162 1.53853 0
M  V30 10861 C 987.309 -0.0103769 1.59597 0
M  V30 10862 C 987.509 -1.48897 1.35764 0
M  V30 10863 O 986.565 -2.24743 1.15095 0
M  V30 10864 C 987.878 0.424067 2.97695 0
M  V30 10865 C 989.426 0.376247 3.1073 0
M  V30 10866 C 989.901 0.786129 4.51203 0
M  V30 10867 N 991.392 0.74024 4.57247 0
M  V30 10868 C 992.127 1.02937 5.64085 0
M  V30 10869 N 991.623 1.38655 6.78783 0
M  V30 10870 N 993.416 0.953734 5.5395 0
M  V30 10871 H 985.567 1.30477 1.67599 0
M  V30 10872 H 987.83 0.531753 0.78482 0
M  V30 10873 H 987.536 1.45493 3.20195 0
M  V30 10874 H 987.41 -0.201713 3.7666 0
M  V30 10875 H 989.797 -0.645441 2.87955 0
M  V30 10876 H 989.878 1.0372 2.33828 0
M  V30 10877 H 989.522 1.80582 4.74713 0
M  V30 10878 H 989.452 0.102671 5.265 0
M  V30 10879 H 991.943 0.476763 3.7488 0
M  V30 10880 H 992.256 1.59206 7.56223 0
M  V30 10881 H 990.601 1.42498 6.80235 0
M  V30 10882 H 993.792 0.674044 4.63222 0
M  V30 10883 H 993.965 1.18241 6.37121 0
M  V30 10884 N 987.371 -1.57444 0.0701946 0
M  V30 10885 C 988.618 -1.93429 -0.59929 0
M  V30 10886 C 988.946 -0.9501 -1.69715 0
M  V30 10887 O 988.201 0.0345377 -1.9567 0
M  V30 10888 C 988.5 -3.36044 -1.21694 0
M  V30 10889 C 988.166 -4.50232 -0.245374 0
M  V30 10890 C 986.828 -4.81195 0.0219161 0
M  V30 10891 C 989.18 -5.1951 0.419396 0
M  V30 10892 C 986.508 -5.78775 0.96109 0
M  V30 10893 C 988.86 -6.18095 1.34688 0
M  V30 10894 C 987.524 -6.47477 1.62265 0
M  V30 10895 H 986.794 -0.707807 -0.219296 0
M  V30 10896 H 989.441 -1.90982 0.14073 0
M  V30 10897 H 987.746 -3.34948 -2.03265 0
M  V30 10898 H 989.443 -3.61176 -1.74221 0
M  V30 10899 H 986.033 -4.26082 -0.463887 0
M  V30 10900 H 990.217 -4.95785 0.226009 0
M  V30 10901 H 985.473 -5.99865 1.18202 0
M  V30 10902 H 989.647 -6.7088 1.86795 0
M  V30 10903 H 987.274 -7.229 2.352 0
M  V30 10904 N 988.849 0.203349 -1.56283 0
M  V30 10905 C 990.074 0.945548 -1.84592 0
M  V30 10906 C 990.499 1.7641 -0.652772 0
M  V30 10907 O 989.857 1.76867 0.398468 0
M  V30 10908 C 989.905 1.82416 -3.11057 0
M  V30 10909 O 989.009 2.92191 -2.9103 0
M  V30 10910 H 988.35 0.266739 -0.608068 0
M  V30 10911 H 990.88 0.211158 -2.03507 0
M  V30 10912 H 990.89 2.23044 -3.41636 0
M  V30 10913 H 989.565 1.22267 -3.97522 0
M  V30 10914 H 988.142 2.55378 -2.71728 0
M  V30 10915 N 990.327 1.50405 0.470755 0
M  V30 10916 C 991.257 1.72222 1.57676 0
M  V30 10917 C 992.238 0.57121 1.60222 0
M  V30 10918 O 993.423 0.810381 1.76484 0
M  V30 10919 C 990.553 1.81666 2.95998 0
M  V30 10920 C 989.507 2.96857 3.08318 0
M  V30 10921 C 988.833 2.91445 4.4829 0
M  V30 10922 C 990.133 4.37361 2.85504 0
M  V30 10923 H 991.827 2.64825 1.39671 0
M  V30 10924 H 989.373 1.27438 0.67049 0
M  V30 10925 H 991.326 1.95514 3.73299 0
M  V30 10926 H 990.05 0.856856 3.1516 0
M  V30 10927 H 988.709 2.82661 2.33449 0
M  V30 10928 H 988.357 1.93309 4.64371 0
M  V30 10929 H 988.057 3.68776 4.57469 0
M  V30 10930 H 989.581 3.07341 5.27611 0
M  V30 10931 H 990.995 4.52081 3.52555 0
M  V30 10932 H 989.392 5.16145 3.06127 0
M  V30 10933 H 990.462 4.49708 1.81359 0
M  V30 10934 N 991.805 -0.723954 1.39988 0
M  V30 10935 C 992.715 -1.86829 1.41887 0
M  V30 10936 C 993.731 -1.71173 0.312401 0
M  V30 10937 O 994.907 -1.93583 0.555651 0
M  V30 10938 C 991.972 -3.22541 1.27154 0
M  V30 10939 C 991.033 -3.50512 2.47871 0
M  V30 10940 C 990.266 -4.79749 2.33831 0
M  V30 10941 O 990.489 -5.54251 1.34765 0
M  V30 10942 O 989.423 -5.07868 3.23039 0
M  V30 10943 H 993.249 -1.88183 2.38371 0
M  V30 10944 H 990.834 -0.873259 1.21221 0
M  V30 10945 H 992.716 -4.0362 1.21114 0
M  V30 10946 H 991.391 -3.21933 0.337715 0
M  V30 10947 H 990.298 -2.69475 2.59488 0
M  V30 10948 H 991.631 -3.55909 3.39985 0
M  V30 10949 N 993.283 -1.25346 -0.955304 0
M  V30 10950 C 994.531 -1.09837 -1.69647 0
M  V30 10951 C 994.852 0.361425 -1.91621 0
M  V30 10952 O 994.122 1.25666 -1.50283 0
M  V30 10953 H 992.702 -0.403467 -0.628668 0
M  V30 10954 H 995.364 -1.57459 -1.14859 0
M  V30 10955 H 994.46 -1.60616 -2.67598 0
M  V30 10956 N 994.761 1.15782 -1.06922 0
M  V30 10957 C 996.038 1.8253 -0.703 0
M  V30 10958 C 996.418 1.94733 0.814994 0
M  V30 10959 O 995.766 1.49537 1.72774 0
M  V30 10960 C 995.976 3.19145 -1.41234 0
M  V30 10961 C 997.324 3.94839 -1.56164 0
M  V30 10962 O 998.348 3.28685 -1.37277 0
M  V30 10963 O 997.207 5.13436 -1.87205 0
M  V30 10964 H 994.301 0.788425 -0.24963 0
M  V30 10965 H 996.847 1.22931 -1.16988 0
M  V30 10966 H 995.619 3.05336 -2.44715 0
M  V30 10967 H 995.242 3.86427 -0.935959 0
M  V30 10968 N 996.239 0.8527 1.3254 0
M  V30 10969 C 997.202 0.300959 2.27215 0
M  V30 10970 C 998.202 -0.538235 1.51525 0
M  V30 10971 O 999.392 -0.350027 1.70647 0
M  V30 10972 C 996.524 -0.574428 3.36025 0
M  V30 10973 H 997.717 1.13655 2.77529 0
M  V30 10974 H 995.27 0.626878 1.43178 0
M  V30 10975 H 996.005 -1.43191 2.90976 0
M  V30 10976 H 995.79 0.0262265 3.92091 0
M  V30 10977 H 997.28 -0.9533 4.06573 0
M  V30 10978 N 997.718 -1.45297 0.610449 0
M  V30 10979 C 999.129 -1.85715 0.191488 0
M  V30 10980 C 999.48 -1.51036 -1.25229 0
M  V30 10981 O 998.605 -0.938422 -1.94994 0
M  V30 10982 C 999.2 -3.37082 0.340747 0
M  V30 10983 C 997.759 -3.76393 -0.0235433 0
M  V30 10984 C 996.906 -2.69237 0.663849 0
M  V30 10985 H 999.857 -1.36058 0.816948 0
M  V30 10986 H 999.878 -3.78105 -0.426233 0
M  V30 10987 H 999.39 -3.62291 1.39164 0
M  V30 10988 H 997.491 -3.56801 -1.07351 0
M  V30 10989 H 997.604 -4.77653 0.372102 0
M  V30 10990 H 995.968 -2.54499 0.101204 0
M  V30 10991 H 996.751 -2.97281 1.71694 0
M  V30 10992 N 999.196 -0.349774 -1.5367 0
M  V30 10993 C 1000.44 0.245189 -2.01312 0
M  V30 10994 C 1000.77 1.49702 -1.23705 0
M  V30 10995 O 1000.05 1.91742 -0.326371 0
M  V30 10996 C 1000.33 0.553071 -3.55827 0
M  V30 10997 C 1000.19 -0.71129 -4.4414 0
M  V30 10998 C 1001.5 1.36015 -4.18555 0
M  V30 10999 H 998.624 0.0876415 -0.73177 0
M  V30 11000 H 1001.27 -0.471543 -1.84056 0
M  V30 11001 H 999.416 1.16367 -3.70663 0
M  V30 11002 H 1001.09 -1.34913 -4.41131 0
M  V30 11003 H 999.331 -1.33491 -4.1275 0
M  V30 11004 H 1000 -0.45104 -5.50154 0
M  V30 11005 H 1002.48 0.843778 -4.07455 0
M  V30 11006 H 1001.35 1.54432 -5.26728 0
M  V30 11007 H 1001.61 2.36408 -3.73582 0
M  V30 11008 N 1000.67 1.57404 -0.0785433 0
M  V30 11009 C 1001.9 1.98492 0.601292 0
M  V30 11010 C 1002.32 0.956832 1.61945 0
M  V30 11011 O 1001.68 -0.0767502 1.81137 0
M  V30 11012 C 1001.73 3.38596 1.24036 0
M  V30 11013 O 1000.83 3.38461 2.35622 0
M  V30 11014 H 1000.17 0.645882 0.154054 0
M  V30 11015 H 1002.7 2.04012 -0.155056 0
M  V30 11016 H 1002.71 3.75929 1.5856 0
M  V30 11017 H 1001.39 4.12952 0.494341 0
M  V30 11018 H 999.967 3.12906 2.02841 0
M  V30 11019 N 1002.15 -0.195058 1.56388 0
M  V30 11020 C 1003.4 -0.912248 1.81795 0
M  V30 11021 C 1003.75 -1.80886 0.655596 0
M  V30 11022 O 1003.05 -1.88391 -0.34922 0
M  V30 11023 C 1003.24 -1.7637 3.10851 0
M  V30 11024 C 1003.07 -0.951012 4.39529 0
M  V30 11025 C 1001.84 -0.635425 5.01289 0
M  V30 11026 C 1004.04 -0.303702 5.13403 0
M  V30 11027 N 1002.02 0.195887 6.13587 0
M  V30 11028 C 1003.39 0.38981 6.18773 0
M  V30 11029 C 1005.44 -0.219433 4.97416 0
M  V30 11030 C 1004.15 1.15957 7.09892 0
M  V30 11031 C 1006.17 0.536925 5.88958 0
M  V30 11032 C 1005.54 1.21888 6.93774 0
M  V30 11033 H 1001.63 -0.313208 0.716537 0
M  V30 11034 H 1004.22 -0.180977 1.93857 0
M  V30 11035 H 1002.39 -2.46657 3.00025 0
M  V30 11036 H 1004.12 -2.42037 3.24346 0
M  V30 11037 H 1000.88 -0.959855 4.63771 0
M  V30 11038 H 1001.3 0.601155 6.74326 0
M  V30 11039 H 1005.94 -0.732323 4.16409 0
M  V30 11040 H 1003.66 1.68389 7.90361 0
M  V30 11041 H 1007.25 0.603485 5.78662 0
M  V30 11042 H 1006.13 1.79478 7.63385 0
M  V30 11043 N 1003.63 -1.50653 -0.462772 0
M  V30 11044 C 1004.86 -1.65826 -1.23731 0
M  V30 11045 C 1005.27 -0.345002 -1.85621 0
M  V30 11046 O 1004.63 0.673935 -1.69601 0
M  V30 11047 C 1004.68 -2.7555 -2.33997 0
M  V30 11048 O 1004.4 -4.01785 -1.74643 0
M  V30 11049 C 1005.9 -3.0177 -3.2473 0
M  V30 11050 H 1003.12 -0.557177 -0.373892 0
M  V30 11051 H 1005.67 -1.96925 -0.551434 0
M  V30 11052 H 1003.82 -2.47122 -2.98345 0
M  V30 11053 H 1004.24 -4.62529 -2.4732 0
M  V30 11054 H 1005.71 -3.82188 -3.98292 0
M  V30 11055 H 1006.19 -2.13167 -3.84001 0
M  V30 11056 H 1006.79 -3.31761 -2.66111 0
M  V30 11057 N 1005.11 0.71652 -1.4037 0
M  V30 11058 C 1006.02 1.86074 -1.42876 0
M  V30 11059 C 1007.03 1.71005 -0.321475 0
M  V30 11060 O 1008.21 1.93286 -0.565909 0
M  V30 11061 C 1005.28 3.21862 -1.28863 0
M  V30 11062 C 1004.34 3.49193 -2.49726 0
M  V30 11063 C 1003.57 4.78502 -2.36372 0
M  V30 11064 O 1003.79 5.53529 -1.37703 0
M  V30 11065 O 1002.73 5.06147 -3.25728 0
M  V30 11066 H 1006.55 1.86916 -2.39366 0
M  V30 11067 H 1004.14 0.866818 -1.21683 0
M  V30 11068 H 1006.02 4.02972 -1.23253 0
M  V30 11069 H 1004.69 3.2175 -0.354783 0
M  V30 11070 H 1003.6 2.68095 -2.60913 0
M  V30 11071 H 1004.93 3.54101 -3.41868 0
M  V30 11072 N 1006.59 1.25851 0.948643 0
M  V30 11073 C 1007.81 1.13711 1.72851 0
M  V30 11074 C 1008.23 -0.308471 1.86263 0
M  V30 11075 O 1007.59 -1.21175 1.36465 0
M  V30 11076 C 1007.64 1.79271 3.13918 0
M  V30 11077 O 1007.36 3.18179 3.01154 0
M  V30 11078 C 1008.86 1.72988 4.08154 0
M  V30 11079 H 1006.08 0.396334 0.541443 0
M  V30 11080 H 1008.62 1.66329 1.18974 0
M  V30 11081 H 1006.78 1.30609 3.64719 0
M  V30 11082 H 1007.19 3.50507 3.90186 0
M  V30 11083 H 1008.67 2.2351 5.04725 0
M  V30 11084 H 1009.14 0.694866 4.33668 0
M  V30 11085 H 1009.75 2.21166 3.63271 0
M  V30 11086 N 1008.06 -1.15214 1.07534 0
M  V30 11087 C 1009.01 -2.20013 0.697337 0
M  V30 11088 C 1009.98 -1.6314 -0.312168 0
M  V30 11089 O 1011.17 -1.89768 -0.198196 0
M  V30 11090 C 1008.31 -3.44945 0.103293 0
M  V30 11091 C 1007.42 -4.16009 1.1645 0
M  V30 11092 C 1006.55 -5.28496 0.535261 0
M  V30 11093 C 1005.59 -5.9138 1.57912 0
M  V30 11094 N 1004.73 -6.95335 0.972332 0
M  V30 11095 H 1009.57 -2.51698 1.59538 0
M  V30 11096 H 1007.11 -1.2361 0.797431 0
M  V30 11097 H 1009.07 -4.16397 -0.258766 0
M  V30 11098 H 1007.7 -3.13772 -0.758096 0
M  V30 11099 H 1006.75 -3.43035 1.64411 0
M  V30 11100 H 1008.06 -4.58853 1.9559 0
M  V30 11101 H 1007.21 -6.06579 0.120942 0
M  V30 11102 H 1005.95 -4.8685 -0.287889 0
M  V30 11103 H 1004.96 -5.12008 2.0032 0
M  V30 11104 H 1006.18 -6.35103 2.40459 0
M  V30 11105 H 1004.13 -6.55779 0.170119 0
M  V30 11106 H 1004.05 -7.36616 1.70095 0
M  V30 11107 H 1005.31 -7.77312 0.583577 0
M  V30 11108 N 1009.54 -0.859717 -1.32086 0
M  V30 11109 C 1010.49 -0.306042 -2.28762 0
M  V30 11110 C 1011.46 0.589801 -1.55276 0
M  V30 11111 O 1012.64 0.523633 -1.83474 0
M  V30 11112 C 1009.78 0.495256 -3.41528 0
M  V30 11113 C 1008.9 -0.426947 -4.29885 0
M  V30 11114 C 1008.03 0.387474 -5.29785 0
M  V30 11115 C 1007.07 -0.531807 -6.09785 0
M  V30 11116 N 1006.21 0.245741 -7.0167 0
M  V30 11117 H 1011.05 -1.1357 -2.7551 0
M  V30 11118 H 1008.59 -0.571468 -1.35546 0
M  V30 11119 H 1010.54 0.97551 -4.05635 0
M  V30 11120 H 1009.17 1.28969 -2.95917 0
M  V30 11121 H 1008.23 -1.02561 -3.66313 0
M  V30 11122 H 1009.54 -1.13226 -4.85779 0
M  V30 11123 H 1008.69 0.930677 -5.99519 0
M  V30 11124 H 1007.43 1.12612 -4.74521 0
M  V30 11125 H 1006.44 -1.08685 -5.3895 0
M  V30 11126 H 1007.66 -1.26915 -6.67135 0
M  V30 11127 H 1005.61 0.967391 -6.48828 0
M  V30 11128 H 1005.52 -0.400432 -7.54939 0
M  V30 11129 H 1006.79 0.770507 -7.75683 0
M  V30 11130 N 1011.02 1.44971 -0.618145 0
M  V30 11131 C 1011.95 2.28815 0.132751 0
M  V30 11132 C 1012.97 1.40551 0.821535 0
M  V30 11133 O 1014.15 1.64827 0.685155 0
M  V30 11134 C 1011.25 3.1658 1.20955 0
M  V30 11135 C 1010.43 4.33184 0.605821 0
M  V30 11136 C 1009.49 5.0208 1.57488 0
M  V30 11137 O 1008.51 5.58528 1.09706 0
M  V30 11138 N 1009.71 5.02335 2.9093 0
M  V30 11139 H 1012.48 2.939 -0.58674 0
M  V30 11140 H 1010.04 1.55276 -0.458375 0
M  V30 11141 H 1012.03 3.59535 1.85787 0
M  V30 11142 H 1010.6 2.53333 1.83143 0
M  V30 11143 H 1009.82 3.93581 -0.220827 0
M  V30 11144 H 1011.11 5.08471 0.182883 0
M  V30 11145 H 1010.51 4.57783 3.32342 0
M  V30 11146 H 1009.07 5.49119 3.51157 0
M  V30 11147 N 1012.5 0.357919 1.53482 0
M  V30 11148 C 1013.72 -0.237769 2.06033 0
M  V30 11149 C 1014.15 -1.42292 1.23023 0
M  V30 11150 O 1013.51 -1.79604 0.247427 0
M  V30 11151 C 1013.55 -0.616806 3.55286 0
M  V30 11152 O 1012.66 -1.71503 3.75047 0
M  V30 11153 H 1012 -0.0364322 0.663 0
M  V30 11154 H 1014.53 0.516301 1.97979 0
M  V30 11155 H 1014.54 -0.88996 3.98175 0
M  V30 11156 H 1013.21 0.249825 4.15149 0
M  V30 11157 H 1011.79 -1.43803 3.44057 0
M  V30 11158 N 1013.98 -1.5736 0.0868897 0
M  V30 11159 C 1015.22 -1.94054 -0.578741 0
M  V30 11160 C 1015.55 -0.968047 -1.68698 0
M  V30 11161 O 1014.81 0.0137824 -1.95695 0
M  V30 11162 C 1015.11 -3.37316 -1.18123 0
M  V30 11163 C 1014.77 -4.50467 -0.197607 0
M  V30 11164 C 1013.43 -4.81145 0.072952 0
M  V30 11165 C 1015.79 -5.19036 0.474473 0
M  V30 11166 C 1013.11 -5.77723 1.02242 0
M  V30 11167 C 1015.47 -6.16632 1.41236 0
M  V30 11168 C 1014.13 -6.45719 1.69124 0
M  V30 11169 H 1013.4 -0.710093 -0.211776 0
M  V30 11170 H 1016.05 -1.90822 0.160978 0
M  V30 11171 H 1014.35 -3.37085 -1.99701 0
M  V30 11172 H 1016.05 -3.63003 -1.7038 0
M  V30 11173 H 1012.64 -4.2655 -0.418669 0
M  V30 11174 H 1016.82 -4.95518 0.278581 0
M  V30 11175 H 1012.08 -5.98578 1.24557 0
M  V30 11176 H 1016.25 -6.68862 1.939 0
M  V30 11177 H 1013.88 -7.20365 2.42855 0
M  V30 11178 N 1015.45 0.186762 -1.56489 0
M  V30 11179 C 1016.4 1.23141 -1.95205 0
M  V30 11180 C 1017.37 1.44799 -0.81378 0
M  V30 11181 O 1018.56 1.57795 -1.07263 0
M  V30 11182 C 1015.7 2.56926 -2.30397 0
M  V30 11183 C 1014.81 2.42777 -3.57328 0
M  V30 11184 C 1013.94 3.69323 -3.81804 0
M  V30 11185 C 1012.98 3.50041 -5.02133 0
M  V30 11186 N 1012.12 4.68619 -5.2282 0
M  V30 11187 H 1016.96 0.894256 -2.84266 0
M  V30 11188 H 1014.5 0.430187 -1.40669 0
M  V30 11189 H 1016.46 3.3488 -2.4882 0
M  V30 11190 H 1015.09 2.88668 -1.44466 0
M  V30 11191 H 1014.14 1.56078 -3.46906 0
M  V30 11192 H 1015.45 2.24468 -4.45439 0
M  V30 11193 H 1014.6 4.55715 -4.00511 0
M  V30 11194 H 1013.34 3.90595 -2.92039 0
M  V30 11195 H 1012.35 2.62034 -4.8334 0
M  V30 11196 H 1013.57 3.30206 -5.93414 0
M  V30 11197 H 1011.52 4.90139 -4.36005 0
M  V30 11198 H 1011.44 4.53165 -6.05126 0
M  V30 11199 H 1012.7 5.56338 -5.45993 0
M  V30 11200 N 1016.93 1.50896 0.454776 0
M  V30 11201 C 1017.86 1.6712 1.56855 0
M  V30 11202 C 1018.88 0.552223 1.53148 0
M  V30 11203 O 1020.07 0.825969 1.5824 0
M  V30 11204 C 1017.17 1.65464 2.95762 0
M  V30 11205 C 1016.34 2.93662 3.24163 0
M  V30 11206 C 1015.4 2.84428 4.42704 0
M  V30 11207 O 1014.42 3.58382 4.42211 0
M  V30 11208 N 1015.63 1.9909 5.45292 0
M  V30 11209 H 1018.39 2.63194 1.43349 0
M  V30 11210 H 1015.95 1.48564 0.643457 0
M  V30 11211 H 1017.94 1.56878 3.73057 0
M  V30 11212 H 1016.51 0.770568 3.02954 0
M  V30 11213 H 1015.73 3.16251 2.35328 0
M  V30 11214 H 1017.02 3.78558 3.39957 0
M  V30 11215 H 1016.42 1.3835 5.48521 0
M  V30 11216 H 1014.98 1.96396 6.21508 0
M  V30 11217 N 1018.41 -0.709066 1.40748 0
M  V30 11218 C 1019.64 -1.49808 1.42707 0
M  V30 11219 C 1020.05 -1.88778 0.0285574 0
M  V30 11220 O 1019.41 -1.55883 -0.949035 0
M  V30 11221 C 1019.46 -2.76926 2.32366 0
M  V30 11222 O 1019.18 -2.39602 3.66773 0
M  V30 11223 C 1020.68 -3.70773 2.42986 0
M  V30 11224 H 1017.9 -0.462106 0.486517 0
M  V30 11225 H 1020.45 -0.874135 1.84876 0
M  V30 11226 H 1018.6 -3.3559 1.93541 0
M  V30 11227 H 1019.02 -3.21443 4.14457 0
M  V30 11228 H 1020.49 -4.56789 3.09916 0
M  V30 11229 H 1020.97 -4.14332 1.45691 0
M  V30 11230 H 1021.57 -3.18019 2.8239 0
M  V30 11231 N 1019.89 -1.26353 -0.941956 0
M  V30 11232 C 1021.14 -1.1163 -1.68473 0
M  V30 11233 C 1021.46 0.34108 -1.91994 0
M  V30 11234 O 1020.73 1.24065 -1.51607 0
M  V30 11235 H 1019.31 -0.410113 -0.624353 0
M  V30 11236 H 1021.97 -1.58669 -1.13182 0
M  V30 11237 H 1021.07 -1.63445 -2.6588 0
M  V30 11238 N 1021.37 1.14642 -1.08144 0
M  V30 11239 C 1022.28 2.23257 -0.720668 0
M  V30 11240 C 1023.29 1.71866 0.271648 0
M  V30 11241 O 1024.47 2.01064 0.116266 0
M  V30 11242 C 1021.53 3.46447 -0.132542 0
M  V30 11243 C 1020.6 4.12789 -1.17913 0
M  V30 11244 C 1019.83 5.30099 -0.618971 0
M  V30 11245 O 1020.05 5.6762 0.562418 0
M  V30 11246 O 1018.99 5.86154 -1.36774 0
M  V30 11247 H 1022.81 2.56463 -1.62667 0
M  V30 11248 H 1020.4 1.22521 -0.854932 0
M  V30 11249 H 1022.28 4.20959 0.19277 0
M  V30 11250 H 1020.95 3.14971 0.746662 0
M  V30 11251 H 1019.86 3.40163 -1.55693 0
M  V30 11252 H 1021.19 4.48365 -2.03051 0
M  V30 11253 N 1022.85 0.866709 1.31628 0
M  V30 11254 C 1024.09 0.476026 1.96825 0
M  V30 11255 C 1024.42 -0.970994 1.68529 0
M  V30 11256 O 1023.68 -1.69823 0.97255 0
M  V30 11257 C 1023.97 0.676018 3.50948 0
M  V30 11258 C 1023.64 2.09533 3.99258 0
M  V30 11259 C 1022.3 2.48349 4.1216 0
M  V30 11260 C 1024.65 3.02112 4.24709 0
M  V30 11261 C 1021.98 3.78991 4.47864 0
M  V30 11262 C 1024.33 4.32266 4.61875 0
M  V30 11263 C 1023 4.71 4.72985 0
M  V30 11264 H 1022.27 0.17419 0.720235 0
M  V30 11265 H 1024.92 1.09907 1.5682 0
M  V30 11266 H 1023.22 -0.0301867 3.91788 0
M  V30 11267 H 1024.92 0.353604 3.99438 0
M  V30 11268 H 1021.51 1.78396 3.89709 0
M  V30 11269 H 1025.69 2.73351 4.14238 0
M  V30 11270 H 1020.95 4.08769 4.54663 0
M  V30 11271 H 1025.12 5.04055 4.80522 0
M  V30 11272 H 1022.75 5.72273 5.00407 0
M  V30 11273 N 1024.32 -1.44642 0.625825 0
M  V30 11274 C 1025.57 -2.01695 0.127948 0
M  V30 11275 C 1025.89 -1.49439 -1.25271 0
M  V30 11276 O 1025.16 -0.695873 -1.83124 0
M  V30 11277 H 1023.74 -0.745685 0.0443096 0
M  V30 11278 H 1026.4 -1.7721 0.811332 0
M  V30 11279 H 1025.5 -3.11966 0.0915933 0
M  V30 11280 N 1025.8 -0.366053 -1.5329 0
M  V30 11281 C 1026.71 0.488111 -2.29466 0
M  V30 11282 C 1027.73 1.09219 -1.35452 0
M  V30 11283 O 1028.9 1.10303 -1.68509 0
M  V30 11284 C 1025.97 1.61202 -3.06944 0
M  V30 11285 C 1025.03 1.03543 -4.16626 0
M  V30 11286 C 1024.26 2.10578 -4.904 0
M  V30 11287 O 1024.49 3.31697 -4.6404 0
M  V30 11288 O 1023.42 1.73609 -5.76319 0
M  V30 11289 H 1027.25 -0.131789 -3.03414 0
M  V30 11290 H 1024.83 -0.130421 -1.4883 0
M  V30 11291 H 1026.71 2.26546 -3.55324 0
M  V30 11292 H 1025.39 2.21732 -2.35832 0
M  V30 11293 H 1024.29 0.345892 -3.72498 0
M  V30 11294 H 1025.63 0.474687 -4.89906 0
M  V30 11295 N 1027.28 1.57312 -0.0952337 0
M  V30 11296 C 1028.23 2.14032 0.863657 0
M  V30 11297 C 1029.2 1.0589 1.27971 0
M  V30 11298 O 1030.38 1.33678 1.36143 0
M  V30 11299 C 1027.52 2.72513 2.11733 0
M  V30 11300 C 1026.63 3.94887 1.7518 0
M  V30 11301 C 1025.77 4.41533 2.95334 0
M  V30 11302 C 1024.81 5.56496 2.54908 0
M  V30 11303 N 1023.95 5.97993 3.67897 0
M  V30 11304 H 1028.79 2.95655 0.373115 0
M  V30 11305 H 1026.32 1.46085 0.172497 0
M  V30 11306 H 1028.28 3.04539 2.85153 0
M  V30 11307 H 1026.91 1.93618 2.58287 0
M  V30 11308 H 1025.96 3.69175 0.917279 0
M  V30 11309 H 1027.27 4.78322 1.41455 0
M  V30 11310 H 1026.43 4.75343 3.77007 0
M  V30 11311 H 1025.17 3.56999 3.3227 0
M  V30 11312 H 1024.17 5.22314 1.71662 0
M  V30 11313 H 1025.4 6.42779 2.19117 0
M  V30 11314 H 1023.34 5.16405 4.04551 0
M  V30 11315 H 1023.26 6.76225 3.38018 0
M  V30 11316 H 1024.53 6.36434 4.5008 0
M  V30 11317 N 1028.76 -0.17846 1.56586 0
M  V30 11318 C 1030.17 -0.529957 1.50544 0
M  V30 11319 C 1030.37 -1.85015 0.798237 0
M  V30 11320 O 1029.43 -2.49983 0.355639 0
M  V30 11321 C 1030.74 -0.569314 2.95261 0
M  V30 11322 C 1032.29 -0.657008 3.06027 0
M  V30 11323 C 1032.77 -0.727323 4.52188 0
M  V30 11324 N 1034.26 -0.790406 4.56406 0
M  V30 11325 C 1034.99 -0.865265 5.66834 0
M  V30 11326 N 1034.49 -0.901398 6.86911 0
M  V30 11327 N 1036.28 -0.903736 5.54787 0
M  V30 11328 H 1028.43 0.687304 2.00972 0
M  V30 11329 H 1030.69 0.246936 0.915274 0
M  V30 11330 H 1030.4 0.331934 3.5013 0
M  V30 11331 H 1030.27 -1.41828 3.4952 0
M  V30 11332 H 1032.66 -1.54868 2.51197 0
M  V30 11333 H 1032.74 0.218495 2.54865 0
M  V30 11334 H 1032.39 0.160067 5.07648 0
M  V30 11335 H 1032.32 -1.61887 5.01099 0
M  V30 11336 H 1034.81 -0.771054 3.6995 0
M  V30 11337 H 1035.12 -0.959494 7.6682 0
M  V30 11338 H 1033.47 -0.869795 6.89536 0
M  V30 11339 H 1036.66 -0.872459 4.59898 0
M  V30 11340 H 1036.83 -0.958615 6.4087 0
M  V30 11341 N 1030.24 -1.51135 -0.446768 0
M  V30 11342 C 1031.18 -1.71767 -1.54158 0
M  V30 11343 C 1032.15 -0.559201 -1.56404 0
M  V30 11344 O 1033.34 -0.792567 -1.7356 0
M  V30 11345 C 1030.48 -1.84006 -2.91952 0
M  V30 11346 C 1029.59 -3.11511 -2.99308 0
M  V30 11347 C 1028.73 -3.144 -4.28166 0
M  V30 11348 C 1027.76 -4.36258 -4.29355 0
M  V30 11349 N 1026.9 -4.3675 -5.49722 0
M  V30 11350 H 1031.74 -2.65224 -1.35869 0
M  V30 11351 H 1029.28 -1.31453 -0.660186 0
M  V30 11352 H 1031.24 -1.89083 -3.71892 0
M  V30 11353 H 1029.87 -0.939661 -3.08821 0
M  V30 11354 H 1028.92 -3.15788 -2.12089 0
M  V30 11355 H 1030.23 -4.01445 -2.96047 0
M  V30 11356 H 1029.38 -3.18341 -5.16473 0
M  V30 11357 H 1028.12 -2.22338 -4.3407 0
M  V30 11358 H 1027.13 -4.32503 -3.39442 0
M  V30 11359 H 1028.35 -5.29574 -4.25122 0
M  V30 11360 H 1026.3 -3.47554 -5.56365 0
M  V30 11361 H 1026.22 -5.20481 -5.48302 0
M  V30 11362 H 1027.48 -4.4487 -6.40086 0
M  V30 11363 N 1031.71 0.701592 -1.41122 0
M  V30 11364 C 1032.66 1.83691 -1.4269 0
M  V30 11365 C 1033.66 1.6662 -0.305658 0
M  V30 11366 O 1034.86 1.73554 -0.477392 0
M  V30 11367 H 1031.24 0.605222 -0.44633 0
M  V30 11368 H 1033.21 1.79485 -2.38386 0
M  V30 11369 C 1031.96 3.21666 -1.32008 0
M  V30 11370 H 1031.28 3.35416 -2.17569 0
M  V30 11371 H 1032.72 4.012 -1.37165 0
M  V30 11372 C 1031.18 3.36885 -0.0317678 0
M  V30 11373 O 1031.71 3.90885 0.925836 0
M  V30 11374 N 1029.91 2.90569 0.0423401 0
M  V30 11375 H 1029.46 2.46812 -0.737673 0
M  V30 11376 H 1029.42 3.0113 0.903764 0
M  V30 11377 N 1033.19 1.2685 0.935242 0
M  V30 11378 C 1034.42 1.15645 1.72165 0
M  V30 11379 C 1034.84 -0.283909 1.85945 0
M  V30 11380 O 1034.2 -1.20567 1.354 0
M  V30 11381 C 1034.25 1.83689 3.10307 0
M  V30 11382 O 1033.35 1.12972 3.96625 0
M  V30 11383 H 1032.69 0.402629 0.528002 0
M  V30 11384 H 1035.22 1.67781 1.17093 0
M  V30 11385 H 1035.23 1.90749 3.60664 0
M  V30 11386 H 1033.91 2.88472 2.99595 0
M  V30 11387 H 1032.48 1.13929 3.5507 0
M  V30 11388 N 1034.67 -1.14067 1.0875 0
M  V30 11389 C 1035.92 -1.84535 0.814235 0
M  V30 11390 C 1036.23 -1.84044 -0.662355 0
M  V30 11391 O 1037.44 -2.50336 -1.05091 0
M  V30 11392 C 1035.89 -3.31273 1.40663 0
M  V30 11393 C 1035.5 -3.40171 2.91526 0
M  V30 11394 C 1037.25 -4.0683 1.21201 0
M  V30 11395 C 1035.15 -4.81141 3.43885 0
M  V30 11396 H 1034.08 -0.691346 0.300926 0
M  V30 11397 H 1036.73 -1.28562 1.30935 0
M  V30 11398 H 1035.12 -3.87005 0.839215 0
M  V30 11399 H 1036.29 -2.94471 3.54434 0
M  V30 11400 H 1034.61 -2.78073 3.09942 0
M  V30 11401 H 1037.2 -5.10891 1.57781 0
M  V30 11402 H 1037.55 -4.16022 0.152092 0
M  V30 11403 H 1038.08 -3.57408 1.74655 0
M  V30 11404 H 1034.82 -4.77138 4.49466 0
M  V30 11405 H 1034.34 -5.27365 2.85738 0
M  V30 11406 H 1036.02 -5.50042 3.40681 0
M  V30 11407 N 1036.15 -0.873678 -1.31166 0
M  V30 11408 C 1037.08 -0.348011 -2.30892 0
M  V30 11409 C 1038.06 0.563092 -1.60509 0
M  V30 11410 O 1039.24 0.479332 -1.88192 0
M  V30 11411 C 1036.37 0.448158 -3.44396 0
M  V30 11412 C 1035.33 -0.370179 -4.26396 0
M  V30 11413 C 1034.65 0.551903 -5.31844 0
M  V30 11414 C 1035.95 -1.60624 -4.96988 0
M  V30 11415 H 1037.65 -1.18134 -2.75109 0
M  V30 11416 H 1035.19 -0.569502 -1.3226 0
M  V30 11417 H 1037.15 0.826458 -4.13216 0
M  V30 11418 H 1035.87 1.31503 -2.98956 0
M  V30 11419 H 1034.53 -0.730472 -3.59249 0
M  V30 11420 H 1034.18 1.41616 -4.82653 0
M  V30 11421 H 1033.88 0.00823478 -5.87599 0
M  V30 11422 H 1035.4 0.926965 -6.03523 0
M  V30 11423 H 1036.82 -1.29917 -5.58386 0
M  V30 11424 H 1035.21 -2.08926 -5.62557 0
M  V30 11425 H 1036.28 -2.357 -4.23761 0
M  V30 11426 N 1037.63 1.44308 -0.633487 0
M  V30 11427 C 1038.57 2.32455 0.0821956 0
M  V30 11428 C 1039.57 1.47482 0.833388 0
M  V30 11429 O 1040.77 1.63812 0.746021 0
M  V30 11430 H 1037.15 0.750631 0.045352 0
M  V30 11431 H 1039.12 2.90566 -0.679282 0
M  V30 11432 C 1037.87 3.31512 1.04858 0
M  V30 11433 H 1037.19 3.96908 0.479979 0
M  V30 11434 H 1038.63 3.95865 1.51879 0
M  V30 11435 C 1037.09 2.60615 2.13498 0
M  V30 11436 O 1037.62 2.40682 3.21613 0
M  V30 11437 N 1035.83 2.20315 1.89499 0
M  V30 11438 H 1035.37 2.36726 1.01581 0
M  V30 11439 H 1035.33 1.73205 2.62388 0
M  V30 11440 N 1039.1 0.374177 1.53094 0
M  V30 11441 C 1040.52 -0.103172 1.86415 0
M  V30 11442 C 1040.87 -1.47439 1.29446 0
M  V30 11443 O 1039.99 -2.07333 0.619853 0
M  V30 11444 C 1040.59 -0.193988 3.38244 0
M  V30 11445 C 1039.15 -0.615605 3.71332 0
M  V30 11446 C 1038.29 0.23186 2.76329 0
M  V30 11447 H 1041.24 0.592644 1.47219 0
M  V30 11448 H 1041.26 -1.01597 3.66686 0
M  V30 11449 H 1040.78 0.80414 3.79678 0
M  V30 11450 H 1038.88 -1.62165 3.3546 0
M  V30 11451 H 1038.99 -0.38425 4.77557 0
M  V30 11452 H 1037.35 -0.300579 2.5292 0
M  V30 11453 H 1038.14 1.22769 3.20597 0
M  V30 11454 N 1040.58 -1.57259 0.103575 0
M  V30 11455 C 1041.83 -1.93832 -0.55786 0
M  V30 11456 C 1042.14 -0.988087 -1.68808 0
M  V30 11457 O 1043.35 -1.24786 -2.41124 0
M  V30 11458 C 1041.81 -3.44433 -1.04373 0
M  V30 11459 C 1041.41 -4.47963 0.0571971 0
M  V30 11460 C 1043.16 -3.89953 -1.67742 0
M  V30 11461 C 1041.07 -5.89727 -0.444505 0
M  V30 11462 H 1040 -0.723536 -0.212161 0
M  V30 11463 H 1042.65 -1.82606 0.180944 0
M  V30 11464 H 1041.03 -3.50841 -1.83648 0
M  V30 11465 H 1042.2 -4.53209 0.83298 0
M  V30 11466 H 1040.52 -4.12104 0.596588 0
M  V30 11467 H 1043.11 -4.93272 -2.06365 0
M  V30 11468 H 1043.46 -3.2907 -2.54988 0
M  V30 11469 H 1043.99 -3.86281 -0.950342 0
M  V30 11470 H 1040.73 -6.5433 0.391543 0
M  V30 11471 H 1040.25 -5.87935 -1.18711 0
M  V30 11472 H 1041.93 -6.40558 -0.910739 0
M  V30 11473 N 1042.06 0.170153 -1.56679 0
M  V30 11474 C 1043.01 1.22997 -1.9742 0
M  V30 11475 C 1044 1.45762 -0.863117 0
M  V30 11476 O 1045.21 1.46328 -1.04824 0
M  V30 11477 H 1041.58 0.413482 -0.628122 0
M  V30 11478 H 1043.55 0.859502 -2.85754 0
M  V30 11479 C 1042.3 2.5615 -2.35122 0
M  V30 11480 H 1041.63 2.39456 -3.20158 0
M  V30 11481 H 1043.07 3.28991 -2.67471 0
M  V30 11482 C 1041.53 3.14992 -1.19507 0
M  V30 11483 O 1042.06 3.98781 -0.483357 0
M  V30 11484 N 1040.26 2.74098 -0.965332 0
M  V30 11485 H 1039.81 2.06062 -1.54585 0
M  V30 11486 H 1039.77 3.13803 -0.193611 0
M  V30 11487 N 1043.54 1.5137 0.438746 0
M  V30 11488 C 1044.76 1.68058 1.21537 0
M  V30 11489 C 1045.19 0.376787 1.84288 0
M  V30 11490 O 1044.55 -0.662911 1.68746 0
M  V30 11491 C 1044.59 2.79684 2.27616 0
M  V30 11492 O 1043.7 2.43189 3.33066 0
M  V30 11493 H 1043.04 0.560408 0.356144 0
M  V30 11494 H 1045.57 1.97926 0.518311 0
M  V30 11495 H 1045.58 3.03726 2.72423 0
M  V30 11496 H 1044.25 3.74293 1.81321 0
M  V30 11497 H 1042.83 2.29713 2.93746 0
M  V30 11498 N 1045.02 -0.694098 1.41492 0
M  V30 11499 C 1046.27 -1.4498 1.40227 0
M  V30 11500 C 1046.58 -1.95594 0.0151253 0
M  V30 11501 O 1047.78 -2.71234 -0.120146 0
M  V30 11502 C 1046.24 -2.62171 2.46565 0
M  V30 11503 C 1045.85 -2.18337 3.91194 0
M  V30 11504 C 1047.59 -3.39796 2.54439 0
M  V30 11505 C 1045.5 -3.32495 4.89082 0
M  V30 11506 H 1044.43 -0.544584 0.521483 0
M  V30 11507 H 1047.08 -0.75337 1.67322 0
M  V30 11508 H 1045.46 -3.34089 2.12604 0
M  V30 11509 H 1046.64 -1.53698 4.34412 0
M  V30 11510 H 1044.95 -1.53702 3.86994 0
M  V30 11511 H 1047.55 -4.2478 3.24755 0
M  V30 11512 H 1047.89 -3.85082 1.5817 0
M  V30 11513 H 1048.42 -2.74935 2.87499 0
M  V30 11514 H 1045.16 -2.92219 5.86761 0
M  V30 11515 H 1044.68 -3.95978 4.50512 0
M  V30 11516 H 1046.36 -3.98251 5.09907 0
M  V30 11517 N 1046.49 -1.27344 -0.928501 0
M  V30 11518 C 1047.91 -1.04732 -1.2043 0
M  V30 11519 C 1048.11 0.219623 -2.003 0
M  V30 11520 O 1047.17 0.925333 -2.34934 0
M  V30 11521 C 1048.48 -2.28625 -1.95323 0
M  V30 11522 C 1050.03 -2.33655 -2.08265 0
M  V30 11523 C 1050.5 -3.57275 -2.86563 0
M  V30 11524 N 1051.99 -3.57828 -2.94132 0
M  V30 11525 C 1052.73 -4.50152 -3.55177 0
M  V30 11526 N 1052.22 -5.52779 -4.17621 0
M  V30 11527 N 1054.02 -4.37777 -3.52573 0
M  V30 11528 H 1046.17 -2.08697 -0.394892 0
M  V30 11529 H 1048.43 -0.91782 -0.2373 0
M  V30 11530 H 1048.14 -3.20845 -1.44054 0
M  V30 11531 H 1048.01 -2.33878 -2.95941 0
M  V30 11532 H 1050.4 -1.41942 -2.58721 0
M  V30 11533 H 1050.48 -2.32406 -1.0687 0
M  V30 11534 H 1050.12 -4.49325 -2.3679 0
M  V30 11535 H 1050.05 -3.55775 -3.88242 0
M  V30 11536 H 1052.54 -2.83607 -2.49751 0
M  V30 11537 H 1052.86 -6.19394 -4.62137 0
M  V30 11538 H 1051.2 -5.56622 -4.16169 0
M  V30 11539 H 1054.39 -3.56811 -3.02991 0
M  V30 11540 H 1054.57 -5.09919 -3.99858 0
M  V30 11541 N 1047.97 1.13488 -1.09353 0
M  V30 11542 C 1048.92 2.18876 -0.732251 0
M  V30 11543 C 1049.89 1.63616 0.286175 0
M  V30 11544 O 1051.07 1.90059 0.167981 0
M  V30 11545 C 1048.21 3.44737 -0.158157 0
M  V30 11546 C 1047.33 4.14104 -1.23053 0
M  V30 11547 C 1046.46 5.27578 -0.619272 0
M  V30 11548 C 1045.5 5.88793 -1.67301 0
M  V30 11549 N 1044.64 6.937 -1.08283 0
M  V30 11550 H 1049.48 2.49128 -1.63522 0
M  V30 11551 H 1047.02 1.22326 -0.816995 0
M  V30 11552 H 1048.97 4.16756 0.192488 0
M  V30 11553 H 1047.6 3.14938 0.708082 0
M  V30 11554 H 1046.66 3.40376 -1.69847 0
M  V30 11555 H 1047.97 4.55683 -2.02865 0
M  V30 11556 H 1047.12 6.0631 -0.217428 0
M  V30 11557 H 1045.86 4.87246 0.210399 0
M  V30 11558 H 1044.87 5.08756 -2.0844 0
M  V30 11559 H 1046.09 6.31197 -2.50533 0
M  V30 11560 H 1044.04 6.55426 -0.274426 0
M  V30 11561 H 1043.95 7.33817 -1.81792 0
M  V30 11562 H 1045.22 7.76286 -0.707167 0
M  V30 11563 N 1049.45 0.880621 1.30701 0
M  V30 11564 C 1050.7 0.496875 1.96309 0
M  V30 11565 C 1051.03 -0.953064 1.69549 0
M  V30 11566 O 1050.28 -1.68782 0.990507 0
M  V30 11567 C 1050.58 0.713203 3.50212 0
M  V30 11568 C 1050.25 2.13756 3.97013 0
M  V30 11569 C 1048.91 2.52706 4.09503 0
M  V30 11570 C 1051.26 3.066 4.21481 0
M  V30 11571 C 1048.59 3.8372 4.43819 0
M  V30 11572 C 1050.94 4.3714 4.57265 0
M  V30 11573 C 1049.6 4.7599 4.67963 0
M  V30 11574 H 1048.87 0.18182 0.718347 0
M  V30 11575 H 1051.52 1.11564 1.55646 0
M  V30 11576 H 1049.83 0.0113694 3.91798 0
M  V30 11577 H 1051.52 0.39595 3.9904 0
M  V30 11578 H 1048.11 1.8252 3.87794 0
M  V30 11579 H 1052.3 2.77729 4.11315 0
M  V30 11580 H 1047.55 4.13568 4.50301 0
M  V30 11581 H 1051.73 5.09123 4.75149 0
M  V30 11582 H 1049.35 5.77549 4.94309 0
M  V30 11583 N 1050.93 -1.4397 0.641131 0
M  V30 11584 C 1052.15 -2.06818 0.155318 0
M  V30 11585 C 1052.58 -1.47665 -1.16519 0
M  V30 11586 O 1051.94 -0.58192 -1.71707 0
M  V30 11587 C 1051.99 -3.60542 0.0647537 0
M  V30 11588 O 1051.09 -4.00674 -0.976447 0
M  V30 11589 H 1050.43 -0.657962 0.0893404 0
M  V30 11590 H 1052.96 -1.84678 0.88064 0
M  V30 11591 H 1052.97 -4.07816 -0.122552 0
M  V30 11592 H 1051.65 -4.02975 1.02878 0
M  V30 11593 H 1050.22 -3.65013 -0.762905 0
M  V30 11594 N 1052.41 -0.382291 -1.52893 0
M  V30 11595 C 1053.66 0.203342 -2.00672 0
M  V30 11596 C 1053.97 1.48487 -1.27322 0
M  V30 11597 O 1055.18 2.15013 -1.65776 0
M  V30 11598 C 1053.63 0.412922 -3.57523 0
M  V30 11599 C 1053.24 -0.854949 -4.39767 0
M  V30 11600 C 1054.98 0.955301 -4.13611 0
M  V30 11601 C 1052.89 -0.614033 -5.88204 0
M  V30 11602 H 1051.82 0.0797635 -0.749769 0
M  V30 11603 H 1054.47 -0.50361 -1.76454 0
M  V30 11604 H 1052.85 1.18155 -3.77962 0
M  V30 11605 H 1054.03 -1.62765 -4.31096 0
M  V30 11606 H 1052.34 -1.32176 -3.94865 0
M  V30 11607 H 1054.94 1.15114 -5.22162 0
M  V30 11608 H 1055.28 1.92233 -3.69259 0
M  V30 11609 H 1055.82 0.24642 -3.97036 0
M  V30 11610 H 1052.55 -1.55187 -6.36865 0
M  V30 11611 H 1052.07 0.119865 -5.9968 0
M  V30 11612 H 1053.75 -0.245895 -6.46533 0
M  V30 11613 N 1053.89 1.57202 -0.111913 0
M  V30 11614 C 1055.13 1.95239 0.548607 0
M  V30 11615 C 1055.46 0.994897 1.6678 0
M  V30 11616 O 1054.74 0.0308603 1.94476 0
M  V30 11617 C 1055.02 3.43271 1.08798 0
M  V30 11618 C 1054.88 4.49792 -0.0273064 0
M  V30 11619 C 1056.19 3.92989 1.98109 0
M  V30 11620 H 1053.31 0.709919 0.197951 0
M  V30 11621 H 1055.96 1.89087 -0.186036 0
M  V30 11622 H 1054.11 3.48644 1.71404 0
M  V30 11623 H 1055.78 4.56521 -0.662302 0
M  V30 11624 H 1054.02 4.28254 -0.691426 0
M  V30 11625 H 1054.69 5.50612 0.391201 0
M  V30 11626 H 1057.17 3.89875 1.45385 0
M  V30 11627 H 1056.04 4.97101 2.32769 0
M  V30 11628 H 1056.3 3.33267 2.90492 0
M  V30 11629 N 1055.36 -0.161842 1.56767 0
M  V30 11630 C 1056.3 -1.22499 1.93718 0
M  V30 11631 C 1057.31 -1.39975 0.831314 0
M  V30 11632 O 1058.5 -1.3981 1.10975 0
M  V30 11633 C 1055.6 -2.59222 2.18306 0
M  V30 11634 C 1054.77 -2.6292 3.4956 0
M  V30 11635 C 1053.83 -3.81074 3.62863 0
M  V30 11636 O 1052.86 -3.66633 4.35395 0
M  V30 11637 N 1054.06 -4.97923 2.98418 0
M  V30 11638 H 1056.82 -0.911043 2.85517 0
M  V30 11639 H 1054.38 -0.351533 1.58038 0
M  V30 11640 H 1056.38 -3.36749 2.24461 0
M  V30 11641 H 1054.95 -2.82969 1.32844 0
M  V30 11642 H 1054.17 -1.71418 3.54978 0
M  V30 11643 H 1055.45 -2.62409 4.35911 0
M  V30 11644 H 1054.85 -5.12557 2.39378 0
M  V30 11645 H 1053.41 -5.73277 3.10155 0
M  V30 11646 N 1056.84 -1.516 -0.430713 0
M  V30 11647 C 1057.79 -1.73392 -1.52328 0
M  V30 11648 C 1058.76 -0.575758 -1.55802 0
M  V30 11649 O 1059.94 -0.810931 -1.72709 0
M  V30 11650 C 1057.08 -1.87092 -2.89984 0
M  V30 11651 C 1056.2 -3.14668 -2.95987 0
M  V30 11652 C 1055.33 -3.18923 -4.24807 0
M  V30 11653 C 1054.37 -4.40787 -4.24703 0
M  V30 11654 N 1053.51 -4.42556 -5.45059 0
M  V30 11655 H 1058.35 -2.6665 -1.33048 0
M  V30 11656 H 1055.88 -1.32146 -0.646207 0
M  V30 11657 H 1057.84 -1.93017 -3.69865 0
M  V30 11658 H 1056.47 -0.972363 -3.07807 0
M  V30 11659 H 1055.52 -3.1802 -2.08728 0
M  V30 11660 H 1056.84 -4.04562 -2.91772 0
M  V30 11661 H 1055.99 -3.23801 -5.13067 0
M  V30 11662 H 1054.73 -2.2693 -4.31688 0
M  V30 11663 H 1053.73 -4.36079 -3.34836 0
M  V30 11664 H 1054.96 -5.34053 -4.19481 0
M  V30 11665 H 1052.91 -3.53435 -5.52648 0
M  V30 11666 H 1052.82 -5.26267 -5.42751 0
M  V30 11667 H 1054.09 -4.51634 -6.35332 0
M  V30 11668 N 1058.32 0.686584 -1.41858 0
M  V30 11669 C 1059.55 1.47519 -1.45072 0
M  V30 11670 C 1059.96 1.88709 -0.0585868 0
M  V30 11671 O 1059.32 1.57373 0.924116 0
M  V30 11672 C 1059.37 2.73195 -2.36742 0
M  V30 11673 O 1059.09 2.33736 -3.70539 0
M  V30 11674 C 1060.59 3.66861 -2.48854 0
M  V30 11675 H 1057.81 0.454307 -0.493808 0
M  V30 11676 H 1060.36 0.844612 -1.86243 0
M  V30 11677 H 1058.51 3.32468 -1.98856 0
M  V30 11678 H 1058.93 3.14809 -4.19518 0
M  V30 11679 H 1060.4 4.51801 -3.17143 0
M  V30 11680 H 1060.88 4.11961 -1.52265 0
M  V30 11681 H 1061.48 3.13486 -2.87414 0
M  V30 11682 N 1059.8 1.27835 0.921735 0
M  V30 11683 C 1061.21 1.13151 1.48505 0
M  V30 11684 C 1061.56 -0.281373 1.94172 0
M  V30 11685 O 1060.68 -1.17487 1.8173 0
M  V30 11686 C 1061.28 2.04792 2.69899 0
M  V30 11687 C 1059.84 1.94196 3.22436 0
M  V30 11688 C 1058.99 1.96999 1.95158 0
M  V30 11689 H 1061.94 1.40641 0.735241 0
M  V30 11690 H 1061.96 1.60724 3.44889 0
M  V30 11691 H 1061.47 3.07615 2.36631 0
M  V30 11692 H 1059.57 0.943805 3.60448 0
M  V30 11693 H 1059.68 2.80744 3.88226 0
M  V30 11694 H 1058.05 1.41301 2.11911 0
M  V30 11695 H 1058.83 3.01487 1.64196 0
M  V30 11696 N 1061.28 -1.12907 1.09954 0
M  V30 11697 C 1062.21 -2.20585 0.765799 0
M  V30 11698 C 1063.19 -1.68117 -0.258989 0
M  V30 11699 O 1064.37 -1.93792 -0.125853 0
M  V30 11700 C 1061.5 -3.46772 0.191435 0
M  V30 11701 C 1060.46 -4.12363 1.14635 0
M  V30 11702 C 1059.78 -5.3294 0.433426 0
M  V30 11703 C 1061.08 -4.59073 2.49096 0
M  V30 11704 H 1062.78 -2.48759 1.66612 0
M  V30 11705 H 1060.32 -1.19563 0.802534 0
M  V30 11706 H 1062.27 -4.21365 -0.0541535 0
M  V30 11707 H 1061 -3.18011 -0.744101 0
M  V30 11708 H 1059.66 -3.39744 1.37731 0
M  V30 11709 H 1059.31 -5.00444 -0.506422 0
M  V30 11710 H 1059.01 -5.77772 1.07018 0
M  V30 11711 H 1060.53 -6.10284 0.196267 0
M  V30 11712 H 1061.94 -5.25063 2.30177 0
M  V30 11713 H 1060.34 -5.14665 3.0861 0
M  V30 11714 H 1061.41 -3.73313 3.0946 0
M  V30 11715 N 1062.75 -0.88754 -1.30232 0
M  V30 11716 C 1063.69 -0.313488 -2.27046 0
M  V30 11717 C 1064.7 0.533383 -1.53814 0
M  V30 11718 O 1065.89 0.352516 -1.74984 0
M  V30 11719 C 1062.99 0.572674 -3.34026 0
M  V30 11720 C 1062.16 -0.245712 -4.36709 0
M  V30 11721 C 1061.22 0.57135 -5.23089 0
M  V30 11722 O 1060.25 -0.00685948 -5.692 0
M  V30 11723 N 1061.45 1.87994 -5.49216 0
M  V30 11724 H 1064.21 -1.14553 -2.76943 0
M  V30 11725 H 1061.77 -0.750785 -1.43439 0
M  V30 11726 H 1063.77 1.12539 -3.88738 0
M  V30 11727 H 1062.34 1.3054 -2.84039 0
M  V30 11728 H 1061.56 -0.979869 -3.81827 0
M  V30 11729 H 1062.84 -0.806618 -5.02366 0
M  V30 11730 H 1062.24 2.3726 -5.13541 0
M  V30 11731 H 1060.8 2.38005 -6.06792 0
M  V30 11732 N 1064.23 1.43628 -0.648757 0
M  V30 11733 C 1065.17 2.28001 0.0952198 0
M  V30 11734 C 1066.14 1.39569 0.834225 0
M  V30 11735 O 1067.33 1.69011 0.834711 0
M  V30 11736 C 1064.45 3.18886 1.14145 0
M  V30 11737 C 1063.5 4.23547 0.500996 0
M  V30 11738 S 1064.33 5.30609 -0.722118 0
M  V30 11739 C 1065.49 6.25062 0.323687 0
M  V30 11740 H 1065.72 2.90752 -0.620511 0
M  V30 11741 H 1063.26 1.48073 -0.437457 0
M  V30 11742 H 1065.21 3.71795 1.74008 0
M  V30 11743 H 1063.87 2.55322 1.82947 0
M  V30 11744 H 1063.07 4.87224 1.28954 0
M  V30 11745 H 1062.67 3.73993 -0.0234176 0
M  V30 11746 H 1064.96 6.66946 1.19118 0
M  V30 11747 H 1065.9 7.07554 -0.277939 0
M  V30 11748 H 1066.31 5.60658 0.657493 0
M  V30 11749 N 1065.71 0.390394 1.52688 0
M  V30 11750 C 1066.66 -0.4591 2.28024 0
M  V30 11751 C 1067.65 -1.06212 1.31967 0
M  V30 11752 O 1068.86 -1.00247 1.49501 0
M  V30 11753 H 1065.23 -0.16681 0.733266 0
M  V30 11754 H 1067.2 0.197747 2.97744 0
M  V30 11755 C 1065.95 -1.5737 3.10048 0
M  V30 11756 H 1065.28 -1.11901 3.83821 0
M  V30 11757 H 1066.72 -2.1423 3.65898 0
M  V30 11758 C 1065.18 -2.53036 2.22429 0
M  V30 11759 O 1065.71 -3.5647 1.85181 0
M  V30 11760 N 1063.91 -2.22802 1.86567 0
M  V30 11761 H 1063.46 -1.38723 2.17057 0
M  V30 11762 H 1063.42 -2.87061 1.28233 0
M  V30 11763 N 1067.19 -1.57141 0.120249 0
M  V30 11764 C 1068.44 -1.94852 -0.536387 0
M  V30 11765 C 1068.76 -1.00452 -1.67136 0
M  V30 11766 O 1068.03 -0.061053 -1.95805 0
M  V30 11767 H 1066.61 -0.719411 -0.201138 0
M  V30 11768 H 1069.27 -1.93977 0.189482 0
M  V30 11769 H 1068.37 -2.97917 -0.930145 0
M  V30 11770 N 1068.67 0.153526 -1.5685 0
M  V30 11771 C 1069.92 0.865628 -1.82181 0
M  V30 11772 C 1070.23 1.82629 -0.700434 0
M  V30 11773 O 1071.43 2.58206 -0.839155 0
M  V30 11774 C 1069.89 1.58993 -3.22877 0
M  V30 11775 C 1069.5 0.672006 -4.42931 0
M  V30 11776 C 1071.24 2.2892 -3.57486 0
M  V30 11777 C 1069.15 1.39755 -5.7465 0
M  V30 11778 H 1068.08 0.326993 -0.679406 0
M  V30 11779 H 1070.73 0.118403 -1.83118 0
M  V30 11780 H 1069.11 2.38255 -3.16308 0
M  V30 11781 H 1070.29 -0.0849226 -4.60722 0
M  V30 11782 H 1068.6 0.0814825 -4.1632 0
M  V30 11783 H 1071.2 2.8383 -4.5315 0
M  V30 11784 H 1071.54 3.05105 -2.83226 0
M  V30 11785 H 1072.07 1.56583 -3.65686 0
M  V30 11786 H 1068.81 0.677686 -6.51987 0
M  V30 11787 H 1068.33 2.12736 -5.60806 0
M  V30 11788 H 1070.01 1.94024 -6.17223 0
M  V30 11789 N 1070.14 1.51827 0.422667 0
M  V30 11790 C 1071.05 1.77066 1.53899 0
M  V30 11791 C 1072.07 0.655541 1.61179 0
M  V30 11792 O 1073.25 0.939448 1.78147 0
M  V30 11793 C 1070.31 1.90372 2.89758 0
M  V30 11794 C 1069.37 3.14256 2.92475 0
M  V30 11795 C 1068.61 3.26918 4.21853 0
M  V30 11796 O 1068.83 2.45164 5.15025 0
M  V30 11797 O 1067.76 4.19989 4.31153 0
M  V30 11798 H 1071.59 2.71791 1.35511 0
M  V30 11799 H 1069.17 1.36506 0.607165 0
M  V30 11800 H 1071.06 2.01024 3.70361 0
M  V30 11801 H 1069.73 0.988347 3.08242 0
M  V30 11802 H 1068.64 3.09072 2.10773 0
M  V30 11803 H 1069.97 4.0553 2.78937 0
M  V30 11804 N 1071.62 -0.679052 1.4222 0
M  V30 11805 C 1072.53 -1.82221 1.47759 0
M  V30 11806 C 1073.55 -1.70092 0.3667 0
M  V30 11807 O 1074.72 -1.91718 0.616957 0
M  V30 11808 C 1071.79 -3.18332 1.37351 0
M  V30 11809 C 1070.85 -3.42449 2.58896 0
M  V30 11810 C 1070.08 -4.72067 2.48976 0
M  V30 11811 O 1070.31 -5.49683 1.5233 0
M  V30 11812 O 1069.24 -4.97333 3.39033 0
M  V30 11813 H 1073.07 -1.80504 2.44238 0
M  V30 11814 H 1070.65 -0.834251 1.23938 0
M  V30 11815 H 1072.53 -3.99563 1.33893 0
M  V30 11816 H 1071.21 -3.20696 0.439965 0
M  V30 11817 H 1070.12 -2.61083 2.6793 0
M  V30 11818 H 1071.45 -3.44912 3.51136 0
M  V30 11819 N 1073.1 -1.28322 -0.914942 0
M  V30 11820 C 1074.38 -1.06111 -1.64316 0
M  V30 11821 C 1074.76 0.399934 -2.07277 0
M  V30 11822 O 1074.11 1.38577 -1.81683 0
M  V30 11823 C 1074.32 -2.03461 -2.83557 0
M  V30 11824 C 1075.66 -2.33541 -3.54604 0
M  V30 11825 O 1076.69 -2.01536 -2.93704 0
M  V30 11826 O 1075.55 -2.88158 -4.64357 0
M  V30 11827 H 1072.64 -0.405451 -0.72079 0
M  V30 11828 H 1075.19 -1.39636 -0.964352 0
M  V30 11829 H 1073.96 -3.01938 -2.48896 0
M  V30 11830 H 1073.58 -1.70574 -3.59152 0
M  V30 11831 N 1074.58 1.12322 -1.10551 0
M  V30 11832 C 1075.8 1.8822 -0.871093 0
M  V30 11833 C 1076.23 1.7916 0.573005 0
M  V30 11834 O 1075.59 1.14738 1.40374 0
M  V30 11835 C 1075.63 3.35349 -1.32565 0
M  V30 11836 O 1074.74 4.09461 -0.49145 0
M  V30 11837 H 1074.08 0.584787 -0.314516 0
M  V30 11838 H 1076.61 1.42039 -1.47262 0
M  V30 11839 H 1076.62 3.86189 -1.31612 0
M  V30 11840 H 1075.29 3.4126 -2.37728 0
M  V30 11841 H 1073.87 3.68575 -0.566294 0
M  V30 11842 N 1076.06 0.894434 1.2976 0
M  V30 11843 C 1077.33 0.437365 1.90648 0
M  V30 11844 C 1077.71 -1.08261 1.81226 0
M  V30 11845 O 1077.06 -1.92213 1.23557 0
M  V30 11846 C 1077.27 0.946047 3.35933 0
M  V30 11847 C 1078.62 0.986621 4.12978 0
M  V30 11848 O 1079.64 0.893356 3.44815 0
M  V30 11849 O 1078.5 1.12591 5.34776 0
M  V30 11850 H 1075.6 0.135436 0.815835 0
M  V30 11851 H 1078.14 0.983955 1.38262 0
M  V30 11852 H 1076.91 1.98998 3.3692 0
M  V30 11853 H 1076.54 0.379164 3.95788 0
M  V30 11854 N 1077.53 -1.43282 0.656365 0
M  V30 11855 C 1078.44 -2.34576 -0.033864 0
M  V30 11856 C 1079.46 -1.5406 -0.808793 0
M  V30 11857 O 1080.64 -1.867 -0.755322 0
M  V30 11858 C 1077.7 -3.32378 -0.986197 0
M  V30 11859 C 1076.76 -4.28797 -0.207851 0
M  V30 11860 C 1076 -5.21927 -1.11482 0
M  V30 11861 O 1076.22 -5.19554 -2.35414 0
M  V30 11862 O 1075.15 -5.99045 -0.585536 0
M  V30 11863 H 1078.98 -2.95099 0.717668 0
M  V30 11864 H 1076.56 -1.43475 0.416556 0
M  V30 11865 H 1078.45 -3.9251 -1.53341 0
M  V30 11866 H 1077.12 -2.74354 -1.7179 0
M  V30 11867 H 1076.03 -3.72134 0.383022 0
M  V30 11868 H 1077.36 -4.89811 0.48435 0
M  V30 11869 N 1079.01 -0.398486 -1.52479 0
M  V30 11870 C 1080.42 0.0735015 -1.86555 0
M  V30 11871 C 1080.78 1.45361 -1.31775 0
M  V30 11872 O 1079.9 2.0632 -0.652759 0
M  V30 11873 C 1080.5 0.140152 -3.3851 0
M  V30 11874 C 1079.05 0.556451 -3.72264 0
M  V30 11875 C 1078.2 -0.275792 -2.75925 0
M  V30 11876 H 1081.15 -0.615991 -1.46257 0
M  V30 11877 H 1081.17 0.957507 -3.68255 0
M  V30 11878 H 1080.69 -0.864442 -3.7835 0
M  V30 11879 H 1078.79 1.56808 -3.37997 0
M  V30 11880 H 1078.9 0.308227 -4.78107 0
M  V30 11881 H 1077.26 0.260304 -2.53366 0
M  V30 11882 H 1078.05 -1.27854 -3.18604 0
M  V30 11883 N 1080.49 1.57075 -0.12858 0
M  V30 11884 C 1081.42 2.18833 0.814519 0
M  V30 11885 C 1082.4 1.13114 1.2704 0
M  V30 11886 O 1083.59 1.41387 1.33129 0
M  V30 11887 C 1080.72 2.79535 2.06101 0
M  V30 11888 C 1079.67 3.9092 1.74257 0
M  V30 11889 C 1079 4.38473 3.06015 0
M  V30 11890 C 1080.3 5.1257 1.00345 0
M  V30 11891 H 1081.99 2.97895 0.299862 0
M  V30 11892 H 1079.54 1.4329 0.14279 0
M  V30 11893 H 1081.49 3.21401 2.72543 0
M  V30 11894 H 1080.21 1.97777 2.59907 0
M  V30 11895 H 1078.87 3.49645 1.102 0
M  V30 11896 H 1078.52 3.53561 3.57776 0
M  V30 11897 H 1078.22 5.13591 2.85479 0
M  V30 11898 H 1079.75 4.82997 3.7356 0
M  V30 11899 H 1081.16 5.51395 1.56959 0
M  V30 11900 H 1079.56 5.93333 0.898693 0
M  V30 11901 H 1080.63 4.84899 -0.0081335 0
M  V30 11902 N 1081.97 -0.145205 1.5693 0
M  V30 11903 C 1082.88 -1.19864 2.01667 0
M  V30 11904 C 1083.9 -1.46909 0.932402 0
M  V30 11905 O 1085.07 -1.58543 1.24201 0
M  V30 11906 C 1082.14 -2.51174 2.38982 0
M  V30 11907 C 1081.2 -2.3176 3.61366 0
M  V30 11908 C 1080.43 -3.56809 3.96892 0
M  V30 11909 O 1080.65 -4.63063 3.33059 0
M  V30 11910 O 1079.59 -3.49366 4.9013 0
M  V30 11911 H 1083.41 -0.848821 2.91597 0
M  V30 11912 H 1081 -0.354063 1.45144 0
M  V30 11913 H 1082.88 -3.28587 2.63835 0
M  V30 11914 H 1081.56 -2.85683 1.52207 0
M  V30 11915 H 1080.46 -1.52293 3.41698 0
M  V30 11916 H 1081.8 -2.02167 4.48764 0
M  V30 11917 N 1083.45 -1.52049 -0.414609 0
M  V30 11918 C 1084.86 -1.40729 -0.752822 0
M  V30 11919 C 1085.06 -0.507468 -1.95005 0
M  V30 11920 O 1084.12 0.0288189 -2.52484 0
M  V30 11921 C 1085.43 -2.83163 -1.01189 0
M  V30 11922 C 1086.98 -2.92469 -1.11494 0
M  V30 11923 C 1087.46 -4.35859 -1.4068 0
M  V30 11924 N 1088.95 -4.39069 -1.47557 0
M  V30 11925 C 1089.68 -5.47072 -1.71756 0
M  V30 11926 N 1089.18 -6.65201 -1.93595 0
M  V30 11927 N 1090.97 -5.3458 -1.73726 0
M  V30 11928 H 1083.12 -2.09089 0.373549 0
M  V30 11929 H 1085.38 -0.942188 0.104814 0
M  V30 11930 H 1085.09 -3.51104 -0.204609 0
M  V30 11931 H 1084.96 -3.23874 -1.93353 0
M  V30 11932 H 1087.35 -2.24711 -1.91282 0
M  V30 11933 H 1087.43 -2.55222 -0.171794 0
M  V30 11934 H 1087.08 -5.04174 -0.614119 0
M  V30 11935 H 1087.01 -4.70637 -2.36238 0
M  V30 11936 H 1089.5 -3.53913 -1.32491 0
M  V30 11937 H 1089.81 -7.43297 -2.11495 0
M  V30 11938 H 1088.16 -6.68276 -1.90871 0
M  V30 11939 H 1091.35 -4.41271 -1.56198 0
M  V30 11940 H 1091.52 -6.18826 -1.92246 0
M  V30 11941 N 1084.93 0.6715 -1.42579 0
M  V30 11942 C 1086.34 0.985019 -1.25577 0
M  V30 11943 C 1086.54 2.00845 -0.162319 0
M  V30 11944 O 1085.6 2.48175 0.465352 0
M  V30 11945 C 1086.91 1.48668 -2.61377 0
M  V30 11946 C 1088.46 1.60429 -2.68759 0
M  V30 11947 C 1088.93 2.13991 -4.04935 0
M  V30 11948 N 1090.42 2.21319 -4.06906 0
M  V30 11949 C 1091.16 2.63845 -5.09091 0
M  V30 11950 N 1090.66 3.05799 -6.21658 0
M  V30 11951 N 1092.45 2.63623 -4.96447 0
M  V30 11952 H 1084.6 -0.00604561 -2.12399 0
M  V30 11953 H 1086.86 0.0598299 -0.94611 0
M  V30 11954 H 1086.57 0.80917 -3.42265 0
M  V30 11955 H 1086.44 2.46487 -2.85524 0
M  V30 11956 H 1088.83 2.27286 -1.88216 0
M  V30 11957 H 1088.91 0.610909 -2.48398 0
M  V30 11958 H 1088.55 1.47741 -4.85937 0
M  V30 11959 H 1088.48 3.14126 -4.2265 0
M  V30 11960 H 1090.98 1.91743 -3.25643 0
M  V30 11961 H 1091.29 3.36944 -6.95477 0
M  V30 11962 H 1089.63 3.03648 -6.25158 0
M  V30 11963 H 1092.82 2.30211 -4.07579 0
M  V30 11964 H 1093 2.96444 -5.76216 0
M  V30 11965 N 1086.4 1.28806 0.908124 0
M  V30 11966 C 1087.33 1.15758 2.02787 0
M  V30 11967 C 1088.31 0.053911 1.70015 0
M  V30 11968 O 1089.5 0.231901 1.9281 0
M  V30 11969 C 1086.63 0.824526 3.37371 0
M  V30 11970 C 1085.58 1.88359 3.84324 0
M  V30 11971 C 1084.91 1.40404 5.15937 0
M  V30 11972 C 1086.21 3.29108 4.05568 0
M  V30 11973 H 1087.9 2.09431 2.13961 0
M  V30 11974 H 1085.45 1.00831 1.02806 0
M  V30 11975 H 1087.4 0.71999 4.15204 0
M  V30 11976 H 1086.13 -0.147902 3.26265 0
M  V30 11977 H 1084.79 1.97736 3.087 0
M  V30 11978 H 1084.43 0.420515 5.01239 0
M  V30 11979 H 1084.13 2.11224 5.48323 0
M  V30 11980 H 1085.66 1.31283 5.9632 0
M  V30 11981 H 1087.07 3.2262 4.73909 0
M  V30 11982 H 1085.47 3.97812 4.49294 0
M  V30 11983 H 1086.54 3.72709 3.10187 0
M  V30 11984 N 1087.88 -1.11734 1.11145 0
M  V30 11985 C 1089.11 -1.87755 0.881062 0
M  V30 11986 C 1089.53 -1.79461 -0.563496 0
M  V30 11987 O 1088.89 -1.15481 -1.39763 0
M  V30 11988 C 1088.94 -3.34641 1.34342 0
M  V30 11989 O 1088.04 -4.09195 0.513157 0
M  V30 11990 H 1087.38 -0.583111 0.317613 0
M  V30 11991 H 1089.91 -1.41256 1.48013 0
M  V30 11992 H 1089.92 -3.85486 1.33658 0
M  V30 11993 H 1088.6 -3.39994 2.39534 0
M  V30 11994 H 1087.17 -3.68269 0.585833 0
M  V30 11995 N 1089.36 -0.901303 -1.29284 0
M  V30 11996 C 1090.29 -0.396909 -2.30102 0
M  V30 11997 C 1091.27 0.528919 -1.61668 0
M  V30 11998 O 1092.46 0.439306 -1.89166 0
M  V30 11999 C 1089.59 0.375006 -3.45269 0
M  V30 12000 C 1088.54 -0.46054 -4.25515 0
M  V30 12001 C 1087.87 0.438967 -5.32895 0
M  V30 12002 C 1089.17 -1.7113 -4.93469 0
M  V30 12003 H 1090.86 -1.23943 -2.72541 0
M  V30 12004 H 1088.41 -0.597428 -1.31022 0
M  V30 12005 H 1090.36 0.738622 -4.14876 0
M  V30 12006 H 1089.08 1.25132 -3.01678 0
M  V30 12007 H 1087.74 -0.80651 -3.57618 0
M  V30 12008 H 1087.39 1.31346 -4.85548 0
M  V30 12009 H 1087.09 -0.116406 -5.87485 0
M  V30 12010 H 1088.61 0.79874 -6.05353 0
M  V30 12011 H 1090.03 -1.41732 -5.55504 0
M  V30 12012 H 1088.42 -2.20811 -5.57999 0
M  V30 12013 H 1089.49 -2.44636 -4.18666 0
M  V30 12014 N 1090.84 1.42931 -0.663954 0
M  V30 12015 C 1092.08 2.01982 -0.182007 0
M  V30 12016 C 1092.42 1.52323 1.20463 0
M  V30 12017 O 1091.69 0.720834 1.80649 0
M  V30 12018 C 1091.97 3.59518 -0.204671 0
M  V30 12019 C 1091.83 4.19382 -1.62599 0
M  V30 12020 C 1093.15 4.37762 0.45308 0
M  V30 12021 H 1090.27 0.733892 -0.0676115 0
M  V30 12022 H 1092.91 1.70092 -0.84668 0
M  V30 12023 H 1091.06 3.86816 0.361295 0
M  V30 12024 H 1092.73 4.03076 -2.24337 0
M  V30 12025 H 1090.97 3.75623 -2.17001 0
M  V30 12026 H 1091.64 5.28496 -1.59362 0
M  V30 12027 H 1094.12 4.1609 -0.0285774 0
M  V30 12028 H 1093 5.47392 0.406538 0
M  V30 12029 H 1093.26 4.1482 1.52895 0
M  V30 12030 N 1092.32 0.406567 1.52266 0
M  V30 12031 C 1093.73 -0.063607 1.86592 0
M  V30 12032 C 1094.08 -1.4466 1.32544 0
M  V30 12033 O 1093.2 -2.05971 0.663692 0
M  V30 12034 C 1093.8 -0.122198 3.3858 0
M  V30 12035 C 1092.36 -0.536701 3.72554 0
M  V30 12036 C 1091.5 0.290422 2.75775 0
M  V30 12037 H 1094.45 0.623738 1.45929 0
M  V30 12038 H 1094.48 -0.937964 3.68758 0
M  V30 12039 H 1093.99 0.884495 3.77887 0
M  V30 12040 H 1092.09 -1.55013 3.38824 0
M  V30 12041 H 1092.2 -0.282867 4.78264 0
M  V30 12042 H 1090.57 -0.246864 2.53501 0
M  V30 12043 H 1091.35 1.29541 3.17921 0
M  V30 12044 N 1093.79 -1.57004 0.136909 0
M  V30 12045 C 1095.07 -1.87375 -0.561233 0
M  V30 12046 C 1095.45 -1.04117 -1.83638 0
M  V30 12047 O 1094.8 -0.125103 -2.28157 0
M  V30 12048 C 1095.01 -3.38829 -0.836426 0
M  V30 12049 C 1096.36 -4.07826 -1.18164 0
M  V30 12050 O 1097.38 -3.4395 -0.92611 0
M  V30 12051 O 1096.24 -5.20614 -1.66204 0
M  V30 12052 H 1093.33 -0.776287 -0.285145 0
M  V30 12053 H 1095.88 -1.68818 0.172761 0
M  V30 12054 H 1094.65 -3.91244 0.066442 0
M  V30 12055 H 1094.28 -3.62879 -1.62496 0
M  V30 12056 N 1095.27 0.136881 -1.57004 0
M  V30 12057 C 1096.5 0.866405 -1.88436 0
M  V30 12058 C 1096.92 1.73483 -0.727006 0
M  V30 12059 O 1096.28 1.78398 0.323094 0
M  V30 12060 C 1096.33 1.69059 -3.18514 0
M  V30 12061 O 1095.43 2.79584 -3.03161 0
M  V30 12062 H 1094.77 0.240709 -0.618834 0
M  V30 12063 H 1097.3 0.124653 -2.0422 0
M  V30 12064 H 1097.31 2.08353 -3.50789 0
M  V30 12065 H 1095.99 1.05296 -4.0235 0
M  V30 12066 H 1094.57 2.43623 -2.82315 0
M  V30 12067 N 1096.75 1.52266 0.40654 0
M  V30 12068 C 1097.66 1.78688 1.52012 0
M  V30 12069 C 1098.68 0.6726 1.60475 0
M  V30 12070 O 1099.85 0.95829 1.77141 0
M  V30 12071 C 1096.92 1.93434 2.87722 0
M  V30 12072 C 1095.98 3.17341 2.89125 0
M  V30 12073 C 1095.21 3.31374 4.18362 0
M  V30 12074 O 1095.43 2.50613 5.12396 0
M  V30 12075 O 1094.37 4.24539 4.26674 0
M  V30 12076 H 1098.19 2.73213 1.3262 0
M  V30 12077 H 1095.78 1.37142 0.592653 0
M  V30 12078 H 1097.66 2.04941 3.68208 0
M  V30 12079 H 1096.34 1.02099 3.07177 0
M  V30 12080 H 1095.24 3.1129 2.07483 0
M  V30 12081 H 1096.58 4.08466 2.7462 0
M  V30 12082 N 1098.23 -0.663929 1.42933 0
M  V30 12083 C 1099.16 -1.78946 1.43217 0
M  V30 12084 C 1100.17 -1.59426 0.329727 0
M  V30 12085 O 1101.36 -1.68344 0.5935 0
M  V30 12086 C 1098.46 -3.16217 1.21902 0
M  V30 12087 C 1097.64 -3.6249 2.44785 0
M  V30 12088 C 1096.69 -4.78529 2.18853 0
M  V30 12089 O 1095.72 -4.88516 2.92131 0
M  V30 12090 N 1096.92 -5.67994 1.19845 0
M  V30 12091 H 1099.69 -1.79184 2.40236 0
M  V30 12092 H 1097.25 -0.847404 1.37952 0
M  V30 12093 H 1099.24 -3.91517 1.02454 0
M  V30 12094 H 1097.81 -3.10814 0.333676 0
M  V30 12095 H 1097.03 -2.77751 2.79729 0
M  V30 12096 H 1098.32 -3.90151 3.26588 0
M  V30 12097 H 1097.72 -5.62588 0.59259 0
M  V30 12098 H 1096.27 -6.4306 1.06382 0
M  V30 12099 N 1099.71 -1.29285 -0.901281 0
M  V30 12100 C 1100.95 -1.16934 -1.64836 0
M  V30 12101 C 1101.28 0.279826 -1.92982 0
M  V30 12102 O 1100.55 1.19179 -1.55478 0
M  V30 12103 H 1099.13 -0.429768 -0.61099 0
M  V30 12104 H 1101.79 -1.62189 -1.08077 0
M  V30 12105 H 1100.88 -1.71821 -2.60545 0
M  V30 12106 N 1101.18 1.11143 -1.11736 0
M  V30 12107 C 1102.09 2.20851 -0.791331 0
M  V30 12108 C 1103.11 1.72644 0.216833 0
M  V30 12109 O 1104.29 2.01332 0.0522401 0
M  V30 12110 C 1101.35 3.4585 -0.242694 0
M  V30 12111 C 1100.41 4.08829 -1.30986 0
M  V30 12112 C 1099.65 5.27861 -0.787305 0
M  V30 12113 O 1099.87 5.69122 0.381549 0
M  V30 12114 O 1098.8 5.81506 -1.55352 0
M  V30 12115 H 1102.63 2.51158 -1.70744 0
M  V30 12116 H 1100.21 1.19739 -0.893478 0
M  V30 12117 H 1102.1 4.21359 0.0587472 0
M  V30 12118 H 1100.77 3.17187 0.646079 0
M  V30 12119 H 1099.68 3.35037 -1.66436 0
M  V30 12120 H 1101.01 4.41678 -2.17213 0
M  V30 12121 N 1102.66 0.908147 1.28804 0
M  V30 12122 C 1103.63 0.397058 2.25735 0
M  V30 12123 C 1104.63 -0.473483 1.53671 0
M  V30 12124 O 1105.82 -0.277335 1.71978 0
M  V30 12125 C 1102.95 -0.431392 3.38159 0
M  V30 12126 H 1104.14 1.25323 2.72459 0
M  V30 12127 H 1101.69 0.687041 1.4039 0
M  V30 12128 H 1102.43 -1.3072 2.96787 0
M  V30 12129 H 1102.21 0.192502 3.91627 0
M  V30 12130 H 1103.7 -0.78 4.10251 0
M  V30 12131 N 1104.14 -1.42577 0.671525 0
M  V30 12132 C 1105.39 -2.00806 0.189663 0
M  V30 12133 C 1105.7 -1.537 -1.20978 0
M  V30 12134 O 1106.91 -2.04325 -1.78784 0
M  V30 12135 C 1105.36 -3.58744 0.288227 0
M  V30 12136 C 1104.97 -4.14839 1.69152 0
M  V30 12137 C 1106.72 -4.24285 -0.13509 0
M  V30 12138 C 1104.62 -5.65131 1.74302 0
M  V30 12139 H 1103.55 -0.751004 0.067146 0
M  V30 12140 H 1106.2 -1.63338 0.83623 0
M  V30 12141 H 1104.59 -3.937 -0.426175 0
M  V30 12142 H 1105.76 -3.91349 2.43274 0
M  V30 12143 H 1104.08 -3.61738 2.0624 0
M  V30 12144 H 1106.67 -5.34573 -0.116709 0
M  V30 12145 H 1107.02 -3.99527 -1.16977 0
M  V30 12146 H 1107.55 -3.94278 0.528191 0
M  V30 12147 H 1104.29 -5.94682 2.75742 0
M  V30 12148 H 1103.81 -5.90621 1.04531 0
M  V30 12149 H 1105.49 -6.29491 1.49498 0
M  V30 12150 N 1105.62 -0.414636 -1.52048 0
M  V30 12151 C 1106.55 0.399119 -2.30064 0
M  V30 12152 C 1107.53 1.04126 -1.34506 0
M  V30 12153 O 1108.71 1.04923 -1.63416 0
M  V30 12154 C 1105.84 1.51305 -3.12608 0
M  V30 12155 C 1104.8 0.995621 -4.16259 0
M  V30 12156 C 1104.12 2.20357 -4.87183 0
M  V30 12157 C 1105.42 0.0458178 -5.2228 0
M  V30 12158 H 1107.12 -0.251879 -2.98339 0
M  V30 12159 H 1104.66 -0.122579 -1.43477 0
M  V30 12160 H 1106.62 2.08936 -3.65956 0
M  V30 12161 H 1105.34 2.19201 -2.42113 0
M  V30 12162 H 1104 0.441676 -3.6393 0
M  V30 12163 H 1103.65 2.8682 -4.13211 0
M  V30 12164 H 1103.35 1.86385 -5.57256 0
M  V30 12165 H 1104.87 2.78584 -5.43345 0
M  V30 12166 H 1106.29 0.531102 -5.70835 0
M  V30 12167 H 1104.68 -0.20536 -5.99749 0
M  V30 12168 H 1105.75 -0.897807 -4.76516 0
M  V30 12169 N 1107.1 1.56929 -0.145233 0
M  V30 12170 C 1108.51 1.82877 0.375884 0
M  V30 12171 C 1108.86 1.06384 1.64854 0
M  V30 12172 O 1107.98 0.30857 2.14189 0
M  V30 12173 C 1108.58 3.31725 0.688744 0
M  V30 12174 C 1107.14 3.58261 1.15439 0
M  V30 12175 C 1106.28 2.76737 0.176565 0
M  V30 12176 H 1109.24 1.54328 -0.36996 0
M  V30 12177 H 1109.26 3.47784 1.54359 0
M  V30 12178 H 1108.77 3.87371 -0.237694 0
M  V30 12179 H 1106.87 3.08 2.09683 0
M  V30 12180 H 1106.98 4.66732 1.08158 0
M  V30 12181 H 1105.35 2.45761 0.668843 0
M  V30 12182 H 1106.13 3.35154 -0.743432 0
M  V30 12183 N 1108.58 -0.128553 1.57075 0
M  V30 12184 C 1109.99 -0.481794 1.52154 0
M  V30 12185 C 1110.19 -1.82381 0.856694 0
M  V30 12186 O 1109.25 -2.48725 0.434989 0
M  V30 12187 C 1110.56 -0.475091 2.96923 0
M  V30 12188 C 1112.11 -0.559315 3.07962 0
M  V30 12189 C 1112.58 -0.583095 4.54273 0
M  V30 12190 N 1114.07 -0.644803 4.5869 0
M  V30 12191 C 1114.81 -0.684493 5.693 0
M  V30 12192 N 1114.31 -0.682407 6.89431 0
M  V30 12193 N 1116.1 -0.726777 5.57382 0
M  V30 12194 H 1108.25 0.750894 1.98684 0
M  V30 12195 H 1110.51 0.27593 0.906955 0
M  V30 12196 H 1110.22 0.443157 3.48897 0
M  V30 12197 H 1110.09 -1.30637 3.53856 0
M  V30 12198 H 1112.48 -1.46798 2.55997 0
M  V30 12199 H 1112.56 0.299468 2.54041 0
M  V30 12200 H 1112.2 0.32149 5.06881 0
M  V30 12201 H 1112.13 -1.45863 5.05996 0
M  V30 12202 H 1114.63 -0.652967 3.72216 0
M  V30 12203 H 1114.94 -0.715051 7.69485 0
M  V30 12204 H 1113.28 -0.649984 6.91954 0
M  V30 12205 H 1116.47 -0.725704 4.6244 0
M  V30 12206 H 1116.65 -0.754242 6.43596 0
M  V30 12207 N 1110.05 -1.5248 -0.398459 0
M  V30 12208 C 1111.3 -1.66287 -1.14155 0
M  V30 12209 C 1111.62 -0.40429 -1.91376 0
M  V30 12210 O 1112.82 -0.422341 -2.68195 0
M  V30 12211 C 1111.28 -2.93831 -2.07825 0
M  V30 12212 C 1110.89 -4.26836 -1.3607 0
M  V30 12213 C 1112.63 -3.17004 -2.82327 0
M  V30 12214 C 1110.54 -5.45495 -2.28451 0
M  V30 12215 H 1109.47 -0.619478 -0.42984 0
M  V30 12216 H 1112.12 -1.78972 -0.405112 0
M  V30 12217 H 1110.5 -2.7487 -2.85065 0
M  V30 12218 H 1111.67 -4.56317 -0.641205 0
M  V30 12219 H 1109.99 -4.0985 -0.735659 0
M  V30 12220 H 1112.59 -4.02834 -3.51609 0
M  V30 12221 H 1112.93 -2.3168 -3.45876 0
M  V30 12222 H 1113.46 -3.36487 -2.12183 0
M  V30 12223 H 1110.2 -6.33198 -1.69532 0
M  V30 12224 H 1109.72 -5.20338 -2.98343 0
M  V30 12225 H 1111.4 -5.78996 -2.88743 0
M  V30 12226 N 1111.53 0.65634 -1.43283 0
M  V30 12227 C 1112.76 1.44906 -1.48382 0
M  V30 12228 C 1113.18 1.87823 -0.101993 0
M  V30 12229 O 1112.54 1.57178 0.903597 0
M  V30 12230 C 1112.59 2.66231 -2.43215 0
M  V30 12231 O 1111.69 3.65176 -1.91625 0
M  V30 12232 H 1111.03 0.434601 -0.502014 0
M  V30 12233 H 1113.56 0.803429 -1.88165 0
M  V30 12234 H 1113.57 3.14083 -2.60414 0
M  V30 12235 H 1112.25 2.34336 -3.43598 0
M  V30 12236 H 1110.82 3.24302 -1.84072 0
M  V30 12237 N 1113.01 1.29761 0.894412 0
M  V30 12238 C 1114.26 1.18214 1.64782 0
M  V30 12239 C 1114.59 -0.264635 1.92388 0
M  V30 12240 O 1113.86 -1.19051 1.53809 0
M  V30 12241 C 1114.15 2.00138 2.99361 0
M  V30 12242 C 1114 3.52984 2.78787 0
M  V30 12243 C 1115.32 1.83187 4.00163 0
M  V30 12244 H 1112.44 0.430802 0.597979 0
M  V30 12245 H 1115.08 1.59292 1.03566 0
M  V30 12246 H 1113.23 1.65233 3.51611 0
M  V30 12247 H 1114.9 3.97898 2.33398 0
M  V30 12248 H 1113.14 3.77642 2.13469 0
M  V30 12249 H 1113.82 4.05585 3.7444 0
M  V30 12250 H 1116.29 2.13684 3.57041 0
M  V30 12251 H 1115.17 2.42849 4.92255 0
M  V30 12252 H 1115.43 0.788469 4.35012 0
M  V30 12253 N 1114.49 -1.10549 1.12324 0
M  V30 12254 C 1115.74 -1.81851 0.872531 0
M  V30 12255 C 1116.05 -1.86058 -0.603468 0
M  V30 12256 O 1117.26 -2.53553 -0.970736 0
M  V30 12257 C 1115.71 -3.26631 1.51131 0
M  V30 12258 C 1115.32 -3.30725 3.02201 0
M  V30 12259 C 1117.06 -4.02768 1.34082 0
M  V30 12260 C 1114.97 -4.69957 3.59018 0
M  V30 12261 H 1113.9 -0.681422 0.322769 0
M  V30 12262 H 1116.55 -1.24332 1.34959 0
M  V30 12263 H 1114.93 -3.8414 0.961913 0
M  V30 12264 H 1116.11 -2.83046 3.63623 0
M  V30 12265 H 1114.42 -2.68072 3.18632 0
M  V30 12266 H 1117.02 -5.05612 1.73955 0
M  V30 12267 H 1117.36 -4.15328 0.284369 0
M  V30 12268 H 1117.9 -3.51671 1.85937 0
M  V30 12269 H 1114.63 -4.62597 4.64418 0
M  V30 12270 H 1114.15 -5.18008 3.02371 0
M  V30 12271 H 1115.83 -5.38925 3.58007 0
M  V30 12272 N 1115.97 -0.914965 -1.28321 0
M  V30 12273 C 1117.19 -0.564023 -1.99583 0
M  V30 12274 C 1117.62 0.847821 -1.6791 0
M  V30 12275 O 1116.97 1.56682 -0.912171 0
M  V30 12276 C 1117.02 -0.781368 -3.52033 0
M  V30 12277 O 1116.13 0.159072 -4.12093 0
M  V30 12278 H 1115.47 -0.218565 -0.626997 0
M  V30 12279 H 1118 -1.23074 -1.63444 0
M  V30 12280 H 1118.01 -0.691946 -4.0209 0
M  V30 12281 H 1116.68 -1.81059 -3.7442 0
M  V30 12282 H 1115.26 0.0208145 -3.72894 0
M  V30 12283 N 1117.44 1.42219 -0.679077 0
M  V30 12284 C 1118.67 2.05815 -0.211649 0
M  V30 12285 C 1119.09 1.51037 1.13284 0
M  V30 12286 O 1118.44 0.651894 1.7046 0
M  V30 12287 C 1118.49 3.61218 -0.142663 0
M  V30 12288 O 1118.22 4.13965 -1.43402 0
M  V30 12289 C 1119.72 4.41934 0.347746 0
M  V30 12290 H 1116.94 0.663215 -0.101914 0
M  V30 12291 H 1119.48 1.82282 -0.927017 0
M  V30 12292 H 1117.64 3.83848 0.52342 0
M  V30 12293 H 1118.05 5.07872 -1.31021 0
M  V30 12294 H 1119.52 5.50921 0.344916 0
M  V30 12295 H 1120 4.16832 1.38377 0
M  V30 12296 H 1120.61 4.24332 -0.286751 0
M  V30 12297 N 1118.92 0.422693 1.51826 0
M  V30 12298 C 1120.17 -0.148348 2.01555 0
M  V30 12299 C 1120.49 -1.44483 1.30956 0
M  V30 12300 O 1119.76 -1.90904 0.439599 0
M  V30 12301 H 1118.34 -0.0578116 0.74476 0
M  V30 12302 H 1121 0.562046 1.8662 0
M  V30 12303 H 1120.1 -0.334766 3.10299 0
M  V30 12304 N 1120.4 -1.5685 0.153553 0
M  V30 12305 C 1121.81 -1.83074 -0.36618 0
M  V30 12306 C 1122.16 -1.07257 -1.64288 0
M  V30 12307 O 1121.29 -0.319925 -2.14022 0
M  V30 12308 C 1121.88 -3.32086 -0.671142 0
M  V30 12309 C 1120.44 -3.58868 -1.13537 0
M  V30 12310 C 1119.59 -2.76827 -0.161887 0
M  V30 12311 H 1122.54 -1.54129 0.378139 0
M  V30 12312 H 1122.56 -3.48598 -1.52512 0
M  V30 12313 H 1122.07 -3.8724 0.258234 0
M  V30 12314 H 1120.17 -3.09107 -2.08047 0
M  V30 12315 H 1120.29 -4.67299 -1.05682 0
M  V30 12316 H 1118.65 -2.46112 -0.6558 0
M  V30 12317 H 1119.43 -3.34755 0.761195 0
M  V30 12318 N 1121.88 0.120221 -1.57141 0
M  V30 12319 C 1123.11 0.842441 -1.88972 0
M  V30 12320 C 1123.52 1.73494 -0.744671 0
M  V30 12321 O 1122.88 1.80268 0.284557 0
M  V30 12322 C 1122.93 1.67688 -3.20254 0
M  V30 12323 O 1122.65 0.820319 -4.30351 0
M  V30 12324 C 1124.15 2.50436 -3.65782 0
M  V30 12325 H 1121.37 0.242241 -0.625748 0
M  V30 12326 H 1123.91 0.104978 -2.0423 0
M  V30 12327 H 1122.07 2.36712 -3.0667 0
M  V30 12328 H 1122.48 1.39575 -5.05588 0
M  V30 12329 H 1123.96 3.04518 -4.60405 0
M  V30 12330 H 1124.43 3.27737 -2.92378 0
M  V30 12331 H 1125.04 1.86657 -3.82151 0
M  V30 12332 N 1123.36 1.52689 0.390367 0
M  V30 12333 C 1124.29 1.80338 1.48325 0
M  V30 12334 C 1125.27 0.655338 1.56969 0
M  V30 12335 O 1126.45 0.902792 1.7194 0
M  V30 12336 C 1123.58 1.97101 2.85952 0
M  V30 12337 C 1122.54 3.12783 2.92148 0
M  V30 12338 C 1121.86 3.14798 4.32211 0
M  V30 12339 C 1123.16 4.5188 2.61919 0
M  V30 12340 H 1124.86 2.71857 1.25437 0
M  V30 12341 H 1122.4 1.30813 0.601995 0
M  V30 12342 H 1124.36 2.15027 3.62411 0
M  V30 12343 H 1123.08 1.02271 3.10174 0
M  V30 12344 H 1121.74 2.94638 2.18137 0
M  V30 12345 H 1121.39 2.17653 4.53471 0
M  V30 12346 H 1121.09 3.92507 4.37278 0
M  V30 12347 H 1122.61 3.34877 5.10578 0
M  V30 12348 H 1124.02 4.70134 3.28096 0
M  V30 12349 H 1122.42 5.31647 2.78337 0
M  V30 12350 H 1123.49 4.58689 1.57266 0
M  V30 12351 N 1124.83 -0.648732 1.43629 0
M  V30 12352 C 1125.77 -1.77417 1.45107 0
M  V30 12353 C 1126.78 -1.59067 0.346618 0
M  V30 12354 O 1127.97 -1.67705 0.611322 0
M  V30 12355 C 1125.07 -3.14906 1.25249 0
M  V30 12356 C 1124.24 -3.59874 2.48616 0
M  V30 12357 C 1123.3 -4.76181 2.23916 0
M  V30 12358 O 1122.33 -4.8539 2.97296 0
M  V30 12359 N 1123.53 -5.66691 1.25862 0
M  V30 12360 H 1126.29 -1.76626 2.42123 0
M  V30 12361 H 1123.85 -0.832725 1.38843 0
M  V30 12362 H 1125.85 -3.90408 1.06601 0
M  V30 12363 H 1124.42 -3.10443 0.366623 0
M  V30 12364 H 1123.64 -2.74768 2.82659 0
M  V30 12365 H 1124.92 -3.86665 3.30708 0
M  V30 12366 H 1124.32 -5.61927 0.652227 0
M  V30 12367 H 1122.88 -6.41895 1.13196 0
M  V30 12368 N 1126.31 -1.30234 -0.887518 0
M  V30 12369 C 1127.28 -1.16384 -1.97452 0
M  V30 12370 C 1128.28 -0.0957942 -1.60514 0
M  V30 12371 O 1129.47 -0.343706 -1.70776 0
M  V30 12372 C 1126.6 -0.782514 -3.31797 0
M  V30 12373 H 1127.79 -2.12952 -2.11167 0
M  V30 12374 H 1125.34 -1.13594 -1.07359 0
M  V30 12375 H 1126.08 0.18278 -3.23785 0
M  V30 12376 H 1125.86 -1.55434 -3.59976 0
M  V30 12377 H 1127.35 -0.709011 -4.11537 0
M  V30 12378 N 1127.79 1.09952 -1.12909 0
M  V30 12379 C 1129.21 1.34051 -0.866172 0
M  V30 12380 C 1129.41 1.95169 0.501125 0
M  V30 12381 O 1128.46 2.19458 1.24878 0
M  V30 12382 C 1129.78 2.25738 -1.98653 0
M  V30 12383 C 1131.32 2.39261 -2.01799 0
M  V30 12384 C 1131.8 3.3428 -3.13083 0
M  V30 12385 N 1133.29 3.41851 -3.12558 0
M  V30 12386 C 1134.02 4.15358 -3.95304 0
M  V30 12387 N 1133.52 4.91709 -4.88051 0
M  V30 12388 N 1135.31 4.11027 -3.83423 0
M  V30 12389 H 1127.46 0.686521 -2.00999 0
M  V30 12390 H 1129.73 0.364913 -0.874953 0
M  V30 12391 H 1129.43 1.88048 -2.97205 0
M  V30 12392 H 1129.31 3.26085 -1.89601 0
M  V30 12393 H 1131.69 2.76218 -1.03864 0
M  V30 12394 H 1131.78 1.38712 -2.14925 0
M  V30 12395 H 1131.42 2.98048 -4.11254 0
M  V30 12396 H 1131.35 4.34721 -2.97195 0
M  V30 12397 H 1133.84 2.87405 -2.45371 0
M  V30 12398 H 1134.15 5.45212 -5.47689 0
M  V30 12399 H 1132.5 4.90816 -4.92061 0
M  V30 12400 H 1135.69 3.50477 -3.10296 0
M  V30 12401 H 1135.86 4.68054 -4.4814 0
M  V30 12402 N 1129.27 0.921757 1.27833 0
M  V30 12403 C 1130.68 0.621102 1.47019 0
M  V30 12404 C 1130.88 -0.831338 1.83551 0
M  V30 12405 O 1129.94 -1.60974 1.94534 0
M  V30 12406 C 1131.25 1.56588 2.56712 0
M  V30 12407 C 1132.8 1.57346 2.70576 0
M  V30 12408 C 1133.28 2.50505 3.8342 0
M  V30 12409 N 1134.77 2.48678 3.90786 0
M  V30 12410 C 1135.5 3.17454 4.77505 0
M  V30 12411 N 1135 3.95588 5.68755 0
M  V30 12412 N 1136.79 3.06501 4.71183 0
M  V30 12413 H 1128.94 1.86085 1.02403 0
M  V30 12414 H 1131.21 0.798595 0.510833 0
M  V30 12415 H 1130.91 2.60175 2.36647 0
M  V30 12416 H 1130.79 1.30305 3.53978 0
M  V30 12417 H 1133.17 0.544919 2.90025 0
M  V30 12418 H 1133.25 1.87675 1.73815 0
M  V30 12419 H 1132.9 3.53466 3.64725 0
M  V30 12420 H 1132.83 2.17474 4.79596 0
M  V30 12421 H 1135.32 1.91928 3.25534 0
M  V30 12422 H 1135.63 4.45066 6.31772 0
M  V30 12423 H 1133.98 3.99692 5.6857 0
M  V30 12424 H 1137.17 2.44958 3.9889 0
M  V30 12425 H 1137.34 3.60372 5.3855 0
M  V30 12426 N 1130.75 -1.41857 0.686609 0
M  V30 12427 C 1132.16 -1.55549 0.357288 0
M  V30 12428 C 1132.36 -1.66394 -1.13646 0
M  V30 12429 O 1131.42 -1.63739 -1.92213 0
M  V30 12430 C 1132.73 -2.79938 1.09796 0
M  V30 12431 C 1134.28 -2.93724 1.08143 0
M  V30 12432 C 1134.75 -4.20989 1.80367 0
M  V30 12433 N 1136.25 -4.27927 1.77293 0
M  V30 12434 C 1136.98 -5.2524 2.30022 0
M  V30 12435 N 1136.48 -6.28636 2.91185 0
M  V30 12436 N 1138.27 -5.17118 2.20329 0
M  V30 12437 H 1130.42 -1.33063 1.65554 0
M  V30 12438 H 1132.68 -0.641335 0.698135 0
M  V30 12439 H 1132.39 -2.78104 2.15293 0
M  V30 12440 H 1132.26 -3.71188 0.670763 0
M  V30 12441 H 1134.65 -2.9508 0.0347554 0
M  V30 12442 H 1134.73 -2.03673 1.54761 0
M  V30 12443 H 1134.38 -4.20395 2.85009 0
M  V30 12444 H 1134.31 -5.09997 1.3119 0
M  V30 12445 H 1136.8 -3.53838 1.32692 0
M  V30 12446 H 1137.11 -6.99265 3.29011 0
M  V30 12447 H 1135.45 -6.29164 2.95259 0
M  V30 12448 H 1138.65 -4.35265 1.72226 0
M  V30 12449 H 1138.82 -5.92792 2.61728 0
M  V30 12450 N 1132.22 -0.430739 -1.51599 0
M  V30 12451 C 1133.16 0.419726 -2.25324 0
M  V30 12452 C 1134.17 0.991925 -1.29092 0
M  V30 12453 O 1135.36 0.887188 -1.54891 0
M  V30 12454 C 1132.46 1.59844 -2.98836 0
M  V30 12455 C 1131.63 1.14629 -4.22112 0
M  V30 12456 C 1130.69 2.19437 -4.78261 0
M  V30 12457 O 1129.72 1.79141 -5.40275 0
M  V30 12458 N 1130.92 3.51849 -4.61717 0
M  V30 12459 H 1133.68 -0.212112 -2.98948 0
M  V30 12460 H 1131.24 -0.259269 -1.59811 0
M  V30 12461 H 1133.24 2.29567 -3.33288 0
M  V30 12462 H 1131.81 2.13575 -2.28264 0
M  V30 12463 H 1131.03 0.276367 -3.9323 0
M  V30 12464 H 1132.31 0.821488 -5.02124 0
M  V30 12465 H 1131.71 3.87324 -4.12306 0
M  V30 12466 H 1130.27 4.17486 -5.00548 0
M  V30 12467 N 1133.7 1.56767 -0.161869 0
M  V30 12468 C 1134.93 2.01401 0.49523 0
M  V30 12469 C 1135.35 1.04133 1.56646 0
M  V30 12470 O 1134.71 0.0193747 1.8129 0
M  V30 12471 C 1134.76 3.44695 1.05913 0
M  V30 12472 O 1133.86 3.50475 2.1735 0
M  V30 12473 H 1133.2 0.65314 0.1196 0
M  V30 12474 H 1135.73 2.02903 -0.26298 0
M  V30 12475 H 1135.74 3.83805 1.3841 0
M  V30 12476 H 1134.42 4.14991 0.274749 0
M  V30 12477 H 1133 3.23218 1.85969 0
M  V30 12478 N 1135.18 -0.111886 1.57202 0
M  V30 12479 C 1136.43 -0.819623 1.85499 0
M  V30 12480 C 1136.76 -1.7919 0.748629 0
M  V30 12481 O 1136.03 -1.92952 -0.244918 0
M  V30 12482 C 1136.32 -1.56324 3.24399 0
M  V30 12483 C 1136.17 -0.610081 4.45643 0
M  V30 12484 C 1137.49 -2.51777 3.60966 0
M  V30 12485 H 1134.61 -0.296512 0.674722 0
M  V30 12486 H 1137.25 -0.0836741 1.89816 0
M  V30 12487 H 1135.4 -2.1906 3.2085 0
M  V30 12488 H 1137.07 0.00898038 4.61299 0
M  V30 12489 H 1135.32 0.0778488 4.3373 0
M  V30 12490 H 1135.99 -1.16718 5.39519 0
M  V30 12491 H 1138.46 -1.99143 3.65351 0
M  V30 12492 H 1137.34 -3.00835 4.59118 0
M  V30 12493 H 1137.6 -3.34769 2.8876 0
M  V30 12494 N 1136.66 -1.52894 -0.382264 0
M  V30 12495 C 1137.59 -1.81122 -1.47367 0
M  V30 12496 C 1138.57 -0.663653 -1.56619 0
M  V30 12497 O 1139.75 -0.911898 -1.71459 0
M  V30 12498 C 1136.88 -1.98615 -2.84902 0
M  V30 12499 C 1135.84 -3.14328 -2.90485 0
M  V30 12500 C 1135.16 -3.17086 -4.30535 0
M  V30 12501 C 1136.46 -4.53263 -2.59519 0
M  V30 12502 H 1138.16 -2.72518 -1.23993 0
M  V30 12503 H 1135.7 -1.3113 -0.595049 0
M  V30 12504 H 1137.66 -2.16946 -3.61265 0
M  V30 12505 H 1136.38 -1.03915 -3.09628 0
M  V30 12506 H 1135.04 -2.95791 -2.16572 0
M  V30 12507 H 1134.69 -2.20055 -4.52311 0
M  V30 12508 H 1134.39 -3.94821 -4.3519 0
M  V30 12509 H 1135.91 -3.3758 -5.08795 0
M  V30 12510 H 1137.33 -4.71867 -3.25598 0
M  V30 12511 H 1135.72 -5.33115 -2.75514 0
M  V30 12512 H 1136.79 -4.59516 -1.54831 0
M  V30 12513 N 1138.14 0.641106 -1.43971 0
M  V30 12514 C 1139.09 1.77474 -1.50352 0
M  V30 12515 C 1140.08 1.65173 -0.376052 0
M  V30 12516 O 1141.29 1.71373 -0.550572 0
M  V30 12517 H 1137.66 0.585747 -0.471597 0
M  V30 12518 H 1139.63 1.69213 -2.45784 0
M  V30 12519 C 1138.38 3.15778 -1.45532 0
M  V30 12520 H 1137.7 3.25886 -2.316 0
M  V30 12521 H 1139.14 3.95022 -1.54058 0
M  V30 12522 C 1137.6 3.36447 -0.174624 0
M  V30 12523 O 1138.13 3.9446 0.759215 0
M  V30 12524 N 1136.34 2.90487 -0.0809383 0
M  V30 12525 H 1135.89 2.43461 -0.841691 0
M  V30 12526 H 1135.84 3.04693 0.775231 0
M  V30 12527 N 1139.62 1.30703 0.880598 0
M  V30 12528 C 1140.55 1.20033 2.00286 0
M  V30 12529 C 1141.53 0.0899614 1.69862 0
M  V30 12530 O 1142.71 0.272747 1.92275 0
M  V30 12531 C 1139.84 0.895902 3.35546 0
M  V30 12532 C 1138.8 1.96468 3.80242 0
M  V30 12533 C 1138.12 1.51316 5.12843 0
M  V30 12534 C 1139.42 3.37637 3.98496 0
M  V30 12535 H 1141.12 2.13922 2.0947 0
M  V30 12536 H 1138.66 1.02989 1.00644 0
M  V30 12537 H 1140.61 0.807899 4.13583 0
M  V30 12538 H 1139.34 -0.0786636 3.26505 0
M  V30 12539 H 1138 2.0424 3.04437 0
M  V30 12540 H 1137.65 0.52674 5.00234 0
M  V30 12541 H 1137.35 2.22807 5.43719 0
M  V30 12542 H 1138.87 1.43903 5.93401 0
M  V30 12543 H 1140.28 3.326 4.66959 0
M  V30 12544 H 1138.68 4.07253 4.40755 0
M  V30 12545 H 1139.75 3.79205 3.02211 0
M  V30 12546 N 1141.09 -1.09351 1.1349 0
M  V30 12547 C 1142.03 -2.15291 0.756645 0
M  V30 12548 C 1143 -1.60548 -0.257497 0
M  V30 12549 O 1144.19 -1.87912 -0.14882 0
M  V30 12550 C 1141.32 -3.38481 0.121799 0
M  V30 12551 C 1140.36 -4.11949 1.10456 0
M  V30 12552 S 1141.19 -4.6605 2.63738 0
M  V30 12553 C 1142.35 -5.92539 2.01615 0
M  V30 12554 H 1142.58 -2.47044 1.65398 0
M  V30 12555 H 1140.12 -1.21312 0.955129 0
M  V30 12556 H 1142.07 -4.09809 -0.238086 0
M  V30 12557 H 1140.74 -3.04945 -0.752821 0
M  V30 12558 H 1139.93 -5.00317 0.608195 0
M  V30 12559 H 1139.53 -3.46486 1.40795 0
M  V30 12560 H 1141.82 -6.63593 1.36569 0
M  V30 12561 H 1142.77 -6.46856 2.88068 0
M  V30 12562 H 1143.17 -5.45094 1.46741 0
M  V30 12563 N 1142.57 -0.928524 -1.27343 0
M  V30 12564 C 1143.8 -0.585734 -1.98436 0
M  V30 12565 C 1144.21 0.83644 -1.69261 0
M  V30 12566 O 1143.57 1.55603 -0.953626 0
M  V30 12567 C 1143.62 -0.803092 -3.52467 0
M  V30 12568 O 1143.34 -2.16932 -3.80621 0
M  V30 12569 C 1144.84 -0.469127 -4.40811 0
M  V30 12570 H 1142.06 -0.221887 -0.633251 0
M  V30 12571 H 1144.61 -1.24577 -1.62175 0
M  V30 12572 H 1142.76 -0.189846 -3.86935 0
M  V30 12573 H 1143.18 -2.21992 -4.75205 0
M  V30 12574 H 1144.65 -0.671906 -5.47895 0
M  V30 12575 H 1145.13 0.595365 -4.35146 0
M  V30 12576 H 1145.73 -1.06055 -4.11865 0
M  V30 12577 N 1144.05 1.41491 -0.694123 0
M  V30 12578 C 1145 2.28 -0.00474478 0
M  V30 12579 C 1145.98 1.42125 0.754281 0
M  V30 12580 O 1147.18 1.65408 0.630012 0
M  V30 12581 C 1144.3 3.30408 0.931953 0
M  V30 12582 C 1143.39 4.23762 0.169251 0
M  V30 12583 N 1143.78 4.9884 -0.836181 0
M  V30 12584 C 1142.08 4.44158 0.40494 0
M  V30 12585 C 1142.78 5.67157 -1.2926 0
M  V30 12586 N 1141.76 5.40066 -0.6188 0
M  V30 12587 H 1145.56 2.8348 -0.775652 0
M  V30 12588 H 1143.07 1.53686 -0.524834 0
M  V30 12589 H 1145.07 3.91206 1.44097 0
M  V30 12590 H 1143.73 2.76489 1.70247 0
M  V30 12591 H 1144.74 5.03413 -1.21637 0
M  V30 12592 H 1141.42 4.0125 1.15346 0
M  V30 12593 H 1142.81 6.3735 -2.12684 0
M  V30 12594 N 1145.53 0.438773 1.51369 0
M  V30 12595 C 1146.75 -0.128221 2.07003 0
M  V30 12596 C 1147.18 -1.3557 1.30393 0
M  V30 12597 O 1146.54 -1.7804 0.342283 0
M  V30 12598 C 1146.58 -0.42761 3.58056 0
M  V30 12599 O 1145.69 -1.51382 3.83611 0
M  V30 12600 H 1145.03 -0.00123679 0.663999 0
M  V30 12601 H 1147.56 0.62052 1.94963 0
M  V30 12602 H 1147.57 -0.677645 4.02333 0
M  V30 12603 H 1146.24 0.469535 4.13241 0
M  V30 12604 H 1144.82 -1.25363 3.51196 0
M  V30 12605 N 1147.01 -1.56678 0.170181 0
M  V30 12606 C 1148.25 -1.9714 -0.475767 0
M  V30 12607 C 1148.58 -1.05611 -1.62972 0
M  V30 12608 O 1147.86 -0.103017 -1.94227 0
M  V30 12609 C 1148.14 -3.47072 -0.959828 0
M  V30 12610 C 1148 -4.4938 0.194225 0
M  V30 12611 C 1149.31 -4.00071 -1.83387 0
M  V30 12612 H 1146.43 -0.716776 -0.171466 0
M  V30 12613 H 1149.08 -1.88266 0.256086 0
M  V30 12614 H 1147.23 -3.54766 -1.58346 0
M  V30 12615 H 1148.9 -4.53748 0.83128 0
M  V30 12616 H 1147.14 -4.25393 0.849893 0
M  V30 12617 H 1147.81 -5.51685 -0.186575 0
M  V30 12618 H 1150.29 -3.95002 -1.30815 0
M  V30 12619 H 1149.16 -5.05398 -2.14159 0
M  V30 12620 H 1149.42 -3.43819 -2.77923 0
M  V30 12621 N 1148.48 0.103547 -1.57259 0
M  V30 12622 C 1149.43 1.14513 -2.02459 0
M  V30 12623 C 1150.43 1.4197 -0.924163 0
M  V30 12624 O 1151.63 1.41751 -1.10936 0
M  V30 12625 H 1148.01 0.386469 -0.645094 0
M  V30 12626 H 1149.98 0.737531 -2.89142 0
M  V30 12627 C 1148.73 2.45948 -2.45775 0
M  V30 12628 H 1148.05 2.25662 -3.30026 0
M  V30 12629 H 1149.49 3.17351 -2.81184 0
M  V30 12630 C 1147.95 3.09639 -1.32759 0
M  V30 12631 O 1148.48 3.96372 -0.652059 0
M  V30 12632 N 1146.68 2.69757 -1.08072 0
M  V30 12633 H 1146.23 1.9932 -1.63185 0
M  V30 12634 H 1146.19 3.127 -0.326532 0
M  V30 12635 N 1149.96 1.53094 0.37415 0
M  V30 12636 C 1150.89 1.75199 1.47776 0
M  V30 12637 C 1151.91 0.632627 1.50006 0
M  V30 12638 O 1153.1 0.908688 1.5364 0
M  V30 12639 C 1150.2 1.80909 2.86575 0
M  V30 12640 C 1149.37 3.10432 3.08141 0
M  V30 12641 C 1148.43 3.07495 4.27005 0
M  V30 12642 O 1147.45 3.81319 4.22592 0
M  V30 12643 N 1148.66 2.27715 5.33972 0
M  V30 12644 H 1151.42 2.70423 1.29196 0
M  V30 12645 H 1148.98 1.51766 0.563802 0
M  V30 12646 H 1150.97 1.76432 3.64217 0
M  V30 12647 H 1149.54 0.930074 2.98443 0
M  V30 12648 H 1148.76 3.2828 2.18233 0
M  V30 12649 H 1150.05 3.96047 3.19413 0
M  V30 12650 H 1149.45 1.67231 5.40417 0
M  V30 12651 H 1148.01 2.29065 6.10223 0
M  V30 12652 N 1151.44 -0.633461 1.44309 0
M  V30 12653 C 1152.69 -1.39031 1.46679 0
M  V30 12654 C 1153.01 -1.94745 0.0997165 0
M  V30 12655 O 1152.28 -1.75637 -0.867659 0
M  V30 12656 H 1150.86 -0.516051 0.540093 0
M  V30 12657 H 1153.52 -0.745739 1.80069 0
M  V30 12658 H 1152.62 -2.2228 2.19085 0
M  V30 12659 N 1152.92 -1.31168 -0.873655 0
M  V30 12660 C 1153.85 -1.14325 -1.98651 0
M  V30 12661 C 1154.86 -0.0833421 -1.62587 0
M  V30 12662 O 1156.05 -0.330477 -1.75414 0
M  V30 12663 C 1153.15 -0.723747 -3.31082 0
M  V30 12664 C 1152.33 -1.86787 -3.95512 0
M  V30 12665 C 1151.38 -1.43503 -5.06254 0
M  V30 12666 O 1150.41 -2.14409 -5.27273 0
M  V30 12667 N 1151.61 -0.320362 -5.79615 0
M  V30 12668 H 1154.38 -2.10179 -2.13647 0
M  V30 12669 H 1151.94 -1.23454 -1.04742 0
M  V30 12670 H 1153.93 -0.416971 -4.02546 0
M  V30 12671 H 1152.5 0.143073 -3.12272 0
M  V30 12672 H 1151.72 -2.34216 -3.17075 0
M  V30 12673 H 1153.01 -2.6343 -4.35296 0
M  V30 12674 H 1152.41 0.270215 -5.65054 0
M  V30 12675 H 1150.96 -0.0731 -6.51759 0
M  V30 12676 N 1154.4 1.08748 -1.14068 0
M  V30 12677 C 1155.34 2.17667 -0.819981 0
M  V30 12678 C 1156.34 1.68207 0.200654 0
M  V30 12679 O 1157.54 1.79909 0.0571014 0
M  V30 12680 H 1153.92 0.710129 -0.247427 0
M  V30 12681 H 1155.89 2.41944 -1.74659 0
M  V30 12682 C 1154.64 3.46315 -0.309985 0
M  V30 12683 H 1153.96 3.84748 -1.08669 0
M  V30 12684 H 1155.4 4.23818 -0.124094 0
M  V30 12685 C 1153.86 3.22762 0.965724 0
M  V30 12686 O 1154.39 3.46034 2.04018 0
M  V30 12687 N 1152.6 2.76326 0.899576 0
M  V30 12688 H 1152.14 2.57588 0.0250598 0
M  V30 12689 H 1152.1 2.60945 1.75371 0
M  V30 12690 N 1155.87 0.935264 1.26849 0
M  V30 12691 C 1157.12 0.575467 1.93317 0
M  V30 12692 C 1157.44 -0.88876 1.74242 0
M  V30 12693 O 1158.64 -1.35767 2.35116 0
M  V30 12694 C 1157.1 0.978433 3.46345 0
M  V30 12695 C 1156.71 2.46386 3.74163 0
M  V30 12696 C 1158.45 0.690249 4.18851 0
M  V30 12697 C 1156.36 2.80584 5.20602 0
M  V30 12698 H 1155.29 0.211506 0.723727 0
M  V30 12699 H 1157.94 1.1371 1.44022 0
M  V30 12700 H 1156.32 0.345379 3.94491 0
M  V30 12701 H 1157.49 3.14547 3.36745 0
M  V30 12702 H 1155.81 2.72473 3.14877 0
M  V30 12703 H 1158.41 0.922151 5.26688 0
M  V30 12704 H 1158.75 -0.372805 4.14627 0
M  V30 12705 H 1159.28 1.28275 3.76551 0
M  V30 12706 H 1156.02 3.85828 5.29921 0
M  V30 12707 H 1155.54 2.1708 5.59139 0
M  V30 12708 H 1157.22 2.68732 5.88551 0
M  V30 12709 N 1157.35 -1.41121 0.701616 0
M  V30 12710 C 1158.3 -2.27994 0.0168361 0
M  V30 12711 C 1159.29 -1.42523 -0.746733 0
M  V30 12712 O 1160.48 -1.6574 -0.621232 0
M  V30 12713 C 1157.61 -3.30898 -0.914417 0
M  V30 12714 C 1156.69 -4.23846 -0.146776 0
M  V30 12715 N 1157.08 -4.9839 0.862624 0
M  V30 12716 C 1155.38 -4.44366 -0.38138 0
M  V30 12717 C 1156.08 -5.66463 1.32266 0
M  V30 12718 N 1155.06 -5.39731 0.647433 0
M  V30 12719 H 1158.86 -2.83065 0.790675 0
M  V30 12720 H 1156.38 -1.53405 0.532977 0
M  V30 12721 H 1158.37 -3.91964 -1.4202 0
M  V30 12722 H 1157.03 -2.77387 -1.68779 0
M  V30 12723 H 1158.04 -5.02761 1.24305 0
M  V30 12724 H 1154.72 -4.01856 -1.13216 0
M  V30 12725 H 1156.11 -6.36213 2.16061 0
M  V30 12726 N 1158.83 -0.446794 -1.51134 0
M  V30 12727 C 1160.25 -0.0995905 -1.59289 0
M  V30 12728 C 1160.45 1.39191 -1.45699 0
M  V30 12729 O 1159.5 2.1628 -1.30303 0
M  V30 12730 C 1160.82 -0.628135 -2.94066 0
M  V30 12731 C 1162.36 -0.589409 -3.074 0
M  V30 12732 C 1162.84 -1.09509 -4.44715 0
M  V30 12733 N 1164.33 -1.05347 -4.51061 0
M  V30 12734 C 1165.06 -1.41551 -5.55654 0
M  V30 12735 N 1164.56 -1.85086 -6.67619 0
M  V30 12736 N 1166.35 -1.33307 -5.46064 0
M  V30 12737 H 1158.5 -1.41713 -1.58213 0
M  V30 12738 H 1160.77 -0.584555 -0.746324 0
M  V30 12739 H 1160.47 -1.67205 -3.09411 0
M  V30 12740 H 1160.35 -0.0582398 -3.77155 0
M  V30 12741 H 1162.73 0.445541 -2.91717 0
M  V30 12742 H 1162.82 -1.19582 -2.26128 0
M  V30 12743 H 1162.46 -2.12855 -4.61146 0
M  V30 12744 H 1162.39 -0.465122 -5.24542 0
M  V30 12745 H 1164.88 -0.733877 -3.70706 0
M  V30 12746 H 1165.19 -2.10923 -7.43459 0
M  V30 12747 H 1163.54 -1.8902 -6.68802 0
M  V30 12748 H 1166.73 -0.991547 -4.57478 0
M  V30 12749 H 1166.9 -1.6185 -6.27462 0
M  V30 12750 N 1160.31 1.56586 -0.178487 0
M  V30 12751 C 1161.26 2.18309 0.74899 0
M  V30 12752 C 1162.23 1.12525 1.22178 0
M  V30 12753 O 1163.41 1.40706 1.28866 0
M  V30 12754 C 1160.55 2.83353 1.9699 0
M  V30 12755 C 1159.66 4.03618 1.54002 0
M  V30 12756 C 1158.8 4.56567 2.71514 0
M  V30 12757 C 1157.84 5.69226 2.25051 0
M  V30 12758 N 1156.97 6.16654 3.35682 0
M  V30 12759 H 1161.81 2.97217 0.21587 0
M  V30 12760 H 1159.35 1.46794 0.0948182 0
M  V30 12761 H 1161.31 3.19226 2.68609 0
M  V30 12762 H 1159.94 2.07037 2.4766 0
M  V30 12763 H 1158.99 3.73518 0.720298 0
M  V30 12764 H 1160.3 4.85148 1.15901 0
M  V30 12765 H 1159.46 4.94659 3.5128 0
M  V30 12766 H 1158.2 3.7411 3.12879 0
M  V30 12767 H 1157.2 5.30679 1.43734 0
M  V30 12768 H 1158.43 6.5349 1.84736 0
M  V30 12769 H 1156.37 5.37124 3.76609 0
M  V30 12770 H 1156.29 6.93192 3.01697 0
M  V30 12771 H 1157.56 6.59397 4.15711 0
M  V30 12772 N 1161.79 -0.095206 1.57312 0
M  V30 12773 C 1163.01 -0.81227 1.90289 0
M  V30 12774 C 1163.43 -1.72287 0.772178 0
M  V30 12775 O 1162.79 -1.80698 -0.255841 0
M  V30 12776 C 1162.84 -1.62572 3.22882 0
M  V30 12777 O 1162.56 -0.75175 4.31602 0
M  V30 12778 C 1164.06 -2.44585 3.6972 0
M  V30 12779 H 1161.28 -0.232256 0.629522 0
M  V30 12780 H 1163.82 -0.0724733 2.04372 0
M  V30 12781 H 1161.98 -2.31803 3.10397 0
M  V30 12782 H 1162.39 -1.31514 5.07744 0
M  V30 12783 H 1163.87 -2.97155 4.65191 0
M  V30 12784 H 1164.34 -3.23044 2.97555 0
M  V30 12785 H 1164.95 -1.80554 3.85072 0
M  V30 12786 N 1163.26 -1.53291 -0.366026 0
M  V30 12787 C 1164.49 -1.73359 -1.12934 0
M  V30 12788 C 1164.91 -0.462352 -1.83051 0
M  V30 12789 O 1164.26 0.564711 -1.73543 0
M  V30 12790 C 1164.32 -2.89873 -2.15999 0
M  V30 12791 O 1164.04 -4.12079 -1.48737 0
M  V30 12792 C 1165.54 -3.21811 -3.04881 0
M  V30 12793 H 1162.76 -0.579827 -0.337701 0
M  V30 12794 H 1165.3 -2.00033 -0.425081 0
M  V30 12795 H 1163.46 -2.65595 -2.82025 0
M  V30 12796 H 1163.87 -4.77322 -2.17404 0
M  V30 12797 H 1165.34 -4.06744 -3.7318 0
M  V30 12798 H 1165.82 -2.37156 -3.69667 0
M  V30 12799 H 1166.43 -3.48013 -2.44473 0
M  V30 12800 N 1164.74 0.6258 -1.44643 0
M  V30 12801 C 1165.71 1.71941 -1.51555 0
M  V30 12802 C 1166.71 1.55822 -0.396988 0
M  V30 12803 O 1167.9 1.61221 -0.65981 0
M  V30 12804 C 1165.03 3.11068 -1.39461 0
M  V30 12805 H 1166.22 1.67185 -2.48976 0
M  V30 12806 H 1163.77 0.839934 -1.31814 0
M  V30 12807 H 1164.51 3.21416 -0.431534 0
M  V30 12808 H 1164.29 3.24175 -2.20574 0
M  V30 12809 H 1165.78 3.90762 -1.4729 0
M  V30 12810 N 1166.22 1.31629 0.866686 0
M  V30 12811 C 1167.45 1.24609 1.65793 0
M  V30 12812 C 1167.87 -0.184944 1.87189 0
M  V30 12813 O 1167.23 -1.1322 1.41601 0
M  V30 12814 C 1167.28 1.9988 3.00134 0
M  V30 12815 O 1166.38 1.33838 3.90079 0
M  V30 12816 H 1165.72 0.430051 0.505917 0
M  V30 12817 H 1168.25 1.73752 1.08035 0
M  V30 12818 H 1168.26 2.09599 3.50046 0
M  V30 12819 H 1166.94 3.03947 2.83882 0
M  V30 12820 H 1165.51 1.3259 3.48532 0
M  V30 12821 N 1167.7 -1.08142 1.14644 0
M  V30 12822 C 1168.93 -1.84318 0.939926 0
M  V30 12823 C 1169.34 -1.81735 -0.511636 0
M  V30 12824 O 1168.7 -1.22297 -1.35461 0
M  V30 12825 C 1168.75 -3.31744 1.43625 0
M  V30 12826 O 1168.47 -3.3435 2.83094 0
M  V30 12827 C 1169.97 -4.24717 1.27007 0
M  V30 12828 H 1167.19 -0.581781 0.334323 0
M  V30 12829 H 1169.74 -1.36561 1.52221 0
M  V30 12830 H 1167.89 -3.7688 0.896664 0
M  V30 12831 H 1168.31 -4.26399 3.05425 0
M  V30 12832 H 1169.78 -5.26262 1.66591 0
M  V30 12833 H 1170.26 -4.38682 0.213257 0
M  V30 12834 H 1170.86 -3.85409 1.79833 0
M  V30 12835 N 1169.18 -0.941978 -1.26351 0
M  V30 12836 C 1170.59 -0.644413 -1.46012 0
M  V30 12837 C 1170.79 0.802031 -1.84851 0
M  V30 12838 O 1169.85 1.57859 -1.9707 0
M  V30 12839 C 1171.16 -1.60652 -2.54188 0
M  V30 12840 C 1172.71 -1.6163 -2.68038 0
M  V30 12841 C 1173.19 -2.56573 -3.79387 0
M  V30 12842 N 1174.68 -2.54863 -3.8678 0
M  V30 12843 C 1175.41 -3.2501 -4.72394 0
M  V30 12844 N 1174.91 -4.04586 -5.6239 0
M  V30 12845 N 1176.7 -3.13958 -4.66247 0
M  V30 12846 H 1168.85 -1.8769 -0.994293 0
M  V30 12847 H 1171.11 -0.806621 -0.498063 0
M  V30 12848 H 1170.82 -2.63907 -2.32478 0
M  V30 12849 H 1170.69 -1.3592 -3.5186 0
M  V30 12850 H 1173.08 -0.59099 -2.89122 0
M  V30 12851 H 1173.16 -1.90417 -1.70807 0
M  V30 12852 H 1172.81 -3.59223 -3.59056 0
M  V30 12853 H 1172.74 -2.25077 -4.76076 0
M  V30 12854 H 1175.23 -1.97082 -3.22439 0
M  V30 12855 H 1175.54 -4.55061 -6.24612 0
M  V30 12856 H 1173.89 -4.08687 -5.62139 0
M  V30 12857 H 1177.08 -2.51273 -3.94943 0
M  V30 12858 H 1177.25 -3.68894 -5.32749 0
M  V30 12859 N 1170.66 1.40747 -0.709091 0
M  V30 12860 C 1171.6 2.30741 -0.0523584 0
M  V30 12861 C 1172.57 1.4784 0.757145 0
M  V30 12862 O 1173.76 1.76595 0.72242 0
M  V30 12863 C 1170.9 3.34 0.868203 0
M  V30 12864 C 1170.01 4.31972 0.0488686 0
M  V30 12865 C 1169.15 5.223 0.968311 0
M  V30 12866 C 1168.18 6.11934 0.142682 0
M  V30 12867 N 1167.32 6.947 1.01665 0
M  V30 12868 H 1172.16 2.86338 -0.825509 0
M  V30 12869 H 1169.7 1.41013 -0.418785 0
M  V30 12870 H 1171.66 3.92431 1.41611 0
M  V30 12871 H 1170.29 2.79921 1.6076 0
M  V30 12872 H 1169.34 3.75377 -0.616137 0
M  V30 12873 H 1170.65 4.95291 -0.590625 0
M  V30 12874 H 1169.8 5.85631 1.58498 0
M  V30 12875 H 1168.54 4.5924 1.64164 0
M  V30 12876 H 1167.55 5.47639 -0.486965 0
M  V30 12877 H 1168.77 6.77052 -0.527046 0
M  V30 12878 H 1166.72 6.34236 1.67575 0
M  V30 12879 H 1166.64 7.54759 0.433045 0
M  V30 12880 H 1167.9 7.62487 1.6197 0
M  V30 12881 N 1172.13 0.454803 1.50895 0
M  V30 12882 C 1173.38 -0.105927 2.02523 0
M  V30 12883 C 1173.71 -1.40825 1.33724 0
M  V30 12884 O 1172.99 -1.89038 0.457683 0
M  V30 12885 C 1173.27 -0.306635 3.58792 0
M  V30 12886 C 1173.12 1.01556 4.38185 0
M  V30 12887 C 1174.44 -1.06858 4.2693 0
M  V30 12888 H 1171.56 -0.0370232 0.736069 0
M  V30 12889 H 1174.2 0.597215 1.8037 0
M  V30 12890 H 1172.35 -0.905563 3.77799 0
M  V30 12891 H 1174.03 1.64981 4.30789 0
M  V30 12892 H 1172.27 1.61608 4.02574 0
M  V30 12893 H 1172.94 0.828959 5.4574 0
M  V30 12894 H 1175.42 -0.561086 4.123 0
M  V30 12895 H 1174.29 -1.1778 5.36115 0
M  V30 12896 H 1174.55 -2.10111 3.8898 0
M  V30 12897 N 1173.61 -1.56489 0.186789 0
M  V30 12898 C 1174.84 -2.02163 -0.463126 0
M  V30 12899 C 1175.26 -1.06612 -1.54969 0
M  V30 12900 O 1174.62 -0.0482139 -1.81236 0
M  V30 12901 C 1174.67 -3.46337 -1.00416 0
M  V30 12902 O 1173.77 -3.53889 -2.11747 0
M  V30 12903 H 1173.11 -0.65496 -0.109194 0
M  V30 12904 H 1175.64 -2.02459 0.295227 0
M  V30 12905 H 1175.65 -3.85959 -1.32287 0
M  V30 12906 H 1174.33 -4.15376 -0.208693 0
M  V30 12907 H 1172.9 -3.26136 -1.80803 0
M  V30 12908 N 1175.09 0.086862 -1.5736 0
M  V30 12909 C 1176.02 1.10538 -2.05678 0
M  V30 12910 C 1177 1.41281 -0.947293 0
M  V30 12911 O 1178.19 1.51169 -1.21908 0
M  V30 12912 C 1175.32 2.42302 -2.48812 0
M  V30 12913 C 1174.27 2.25948 -3.63499 0
M  V30 12914 C 1173.6 3.62961 -3.92637 0
M  V30 12915 C 1174.9 1.69319 -4.94094 0
M  V30 12916 H 1176.59 0.703371 -2.91021 0
M  V30 12917 H 1174.14 0.336895 -1.40004 0
M  V30 12918 H 1176.09 3.13833 -2.81224 0
M  V30 12919 H 1174.81 2.84454 -1.60479 0
M  V30 12920 H 1173.47 1.5686 -3.31347 0
M  V30 12921 H 1173.12 4.02656 -3.01459 0
M  V30 12922 H 1172.82 3.52862 -4.69853 0
M  V30 12923 H 1174.34 4.35946 -4.27531 0
M  V30 12924 H 1175.76 2.30699 -5.24834 0
M  V30 12925 H 1174.15 1.69957 -5.7553 0
M  V30 12926 H 1175.22 0.653318 -4.80479 0
M  V30 12927 N 1176.57 1.53483 0.357892 0
M  V30 12928 C 1177.53 1.79782 1.42166 0
M  V30 12929 C 1178.53 0.668441 1.46248 0
M  V30 12930 O 1179.72 0.936677 1.46874 0
M  V30 12931 C 1176.85 1.92686 2.8122 0
M  V30 12932 H 1178.05 2.74794 1.20117 0
M  V30 12933 H 1175.6 1.44677 0.591468 0
M  V30 12934 H 1176.33 0.997669 3.08573 0
M  V30 12935 H 1176.12 2.74837 2.79655 0
M  V30 12936 H 1177.61 2.14599 3.58242 0
M  V30 12937 N 1178.05 -0.61812 1.44973 0
M  V30 12938 C 1179.46 -1.19994 1.43033 0
M  V30 12939 C 1179.81 -1.95607 0.152422 0
M  V30 12940 O 1178.93 -2.03114 -0.746571 0
M  V30 12941 C 1179.53 -2.18269 2.59122 0
M  V30 12942 C 1178.09 -2.7185 2.60336 0
M  V30 12943 C 1177.23 -1.4707 2.35086 0
M  V30 12944 H 1180.18 -0.408034 1.53365 0
M  V30 12945 H 1180.21 -3.01113 2.32619 0
M  V30 12946 H 1179.72 -1.63208 3.52115 0
M  V30 12947 H 1177.82 -3.30878 1.7132 0
M  V30 12948 H 1177.93 -3.17001 3.59231 0
M  V30 12949 H 1176.3 -1.75658 1.84435 0
M  V30 12950 H 1177.08 -0.938928 3.30211 0
M  V30 12951 N 1179.52 -1.32087 -0.859693 0
M  V30 12952 C 1180.46 -1.16426 -1.97428 0
M  V30 12953 C 1181.47 -0.100582 -1.62489 0
M  V30 12954 O 1182.66 -0.349063 -1.75054 0
M  V30 12955 C 1179.76 -0.758822 -3.30295 0
M  V30 12956 C 1178.93 -1.90971 -3.93508 0
M  V30 12957 C 1177.99 -1.48865 -5.04704 0
M  V30 12958 O 1177.02 -2.1999 -5.2497 0
M  V30 12959 N 1178.22 -0.38182 -5.79243 0
M  V30 12960 H 1180.98 -2.12433 -2.11406 0
M  V30 12961 H 1178.54 -1.24558 -1.03426 0
M  V30 12962 H 1180.54 -0.459643 -4.02081 0
M  V30 12963 H 1179.11 0.109944 -3.12407 0
M  V30 12964 H 1178.33 -2.37566 -3.14573 0
M  V30 12965 H 1179.61 -2.68032 -4.32477 0
M  V30 12966 H 1179.01 0.210268 -5.65309 0
M  V30 12967 H 1177.57 -0.142224 -6.51645 0
M  V30 12968 N 1181 1.07532 -1.15215 0
M  V30 12969 C 1181.96 2.1286 -0.84989 0
M  V30 12970 C 1182.96 1.60103 0.149524 0
M  V30 12971 O 1184.15 1.74017 -0.0798918 0
M  V30 12972 C 1181.29 3.3984 -0.268617 0
M  V30 12973 H 1182.48 2.41106 -1.78347 0
M  V30 12974 H 1180.03 1.23392 -0.959386 0
M  V30 12975 H 1180.77 3.17235 0.67325 0
M  V30 12976 H 1180.55 3.79433 -0.988592 0
M  V30 12977 H 1182.04 4.17533 -0.0746554 0
M  V30 12978 N 1182.48 0.948665 1.2585 0
M  V30 12979 C 1183.43 0.455115 2.28104 0
M  V30 12980 C 1184.42 -0.471508 1.62706 0
M  V30 12981 O 1185.63 -0.348895 1.76586 0
M  V30 12982 H 1182 0.128659 0.740912 0
M  V30 12983 H 1183.97 1.32991 2.67125 0
M  V30 12984 C 1182.72 -0.25729 3.46747 0
M  V30 12985 H 1182.05 0.44658 3.97298 0
M  V30 12986 H 1183.49 -0.566736 4.20195 0
M  V30 12987 C 1181.95 -1.47772 3.02762 0
M  V30 12988 O 1182.48 -2.57571 3.08253 0
M  V30 12989 N 1180.68 -1.33694 2.5802 0
M  V30 12990 H 1180.23 -0.443595 2.53752 0
M  V30 12991 H 1180.19 -2.1547 2.28954 0
M  V30 12992 N 1183.96 -1.40369 0.716545 0
M  V30 12993 C 1184.89 -2.33365 0.0793533 0
M  V30 12994 C 1185.87 -1.52943 -0.744482 0
M  V30 12995 O 1187.05 -1.81406 -0.693212 0
M  V30 12996 C 1184.18 -3.36928 -0.842429 0
M  V30 12997 C 1183.14 -4.2782 -0.124142 0
M  V30 12998 C 1182.46 -5.21928 -1.1617 0
M  V30 12999 C 1183.76 -5.12199 1.02224 0
M  V30 13000 H 1185.46 -2.86899 0.856115 0
M  V30 13001 H 1183 -1.37946 0.413138 0
M  V30 13002 H 1184.96 -4.00925 -1.29759 0
M  V30 13003 H 1183.68 -2.81791 -1.6511 0
M  V30 13004 H 1182.34 -3.65277 0.311201 0
M  V30 13005 H 1181.99 -4.63096 -1.96345 0
M  V30 13006 H 1181.69 -5.83582 -0.685978 0
M  V30 13007 H 1183.21 -5.88802 -1.61694 0
M  V30 13008 H 1184.63 -5.69644 0.646399 0
M  V30 13009 H 1183.02 -5.82901 1.4264 0
M  V30 13010 H 1184.09 -4.4812 1.85246 0
M  V30 13011 N 1185.44 -0.462799 -1.50652 0
M  V30 13012 C 1186.66 0.0929761 -2.06691 0
M  V30 13013 C 1187.08 1.34241 -1.32758 0
M  V30 13014 O 1186.44 1.78187 -0.394427 0
M  V30 13015 C 1186.49 0.389492 -3.59396 0
M  V30 13016 O 1186.21 -0.810379 -4.3054 0
M  V30 13017 C 1187.71 0.993147 -4.32032 0
M  V30 13018 H 1184.93 -0.00338664 -0.670991 0
M  V30 13019 H 1187.47 -0.649201 -1.93922 0
M  V30 13020 H 1185.63 1.08159 -3.71995 0
M  V30 13021 H 1186.04 -0.54996 -5.21609 0
M  V30 13022 H 1187.52 1.15044 -5.39878 0
M  V30 13023 H 1187.99 1.98106 -3.91983 0
M  V30 13024 H 1188.6 0.339677 -4.23941 0
M  V30 13025 N 1186.91 1.56388 -0.195085 0
M  V30 13026 C 1187.82 2.22698 0.737743 0
M  V30 13027 C 1188.84 1.22605 1.23466 0
M  V30 13028 O 1190.02 1.55342 1.28183 0
M  V30 13029 C 1187.08 2.87333 1.94011 0
M  V30 13030 C 1186.14 4.02696 1.48776 0
M  V30 13031 C 1185.38 4.64239 2.63282 0
M  V30 13032 O 1185.6 4.24706 3.80763 0
M  V30 13033 O 1184.53 5.53705 2.35996 0
M  V30 13034 H 1188.36 3.03021 0.203013 0
M  V30 13035 H 1185.94 1.49361 0.0342044 0
M  V30 13036 H 1187.83 3.28226 2.64284 0
M  V30 13037 H 1186.5 2.0999 2.46345 0
M  V30 13038 H 1185.41 3.66426 0.753839 0
M  V30 13039 H 1186.74 4.81703 1.01109 0
M  V30 13040 N 1188.39 -0.0785156 1.57404 0
M  V30 13041 C 1189.32 -1.09446 2.06262 0
M  V30 13042 C 1190.3 -1.40777 0.954772 0
M  V30 13043 O 1191.49 -1.5052 1.22708 0
M  V30 13044 C 1188.62 -2.40979 2.50093 0
M  V30 13045 C 1187.57 -2.24017 3.64692 0
M  V30 13046 C 1186.9 -3.60873 3.94556 0
M  V30 13047 C 1188.2 -1.66696 4.94985 0
M  V30 13048 H 1189.89 -0.687928 2.9139 0
M  V30 13049 H 1187.44 -0.329466 1.4018 0
M  V30 13050 H 1189.39 -3.12337 2.82884 0
M  V30 13051 H 1188.12 -2.83599 1.61985 0
M  V30 13052 H 1186.77 -1.55101 3.32174 0
M  V30 13053 H 1186.42 -4.01051 3.0359 0
M  V30 13054 H 1186.12 -3.50365 4.71718 0
M  V30 13055 H 1187.65 -4.33673 4.29837 0
M  V30 13056 H 1189.06 -2.27913 5.2605 0
M  V30 13057 H 1187.46 -1.66902 5.76423 0
M  V30 13058 H 1188.53 -0.627827 4.80818 0
M  V30 13059 N 1189.87 -1.5367 -0.349747 0
M  V30 13060 C 1191.15 -1.61238 -1.10732 0
M  V30 13061 C 1191.53 -0.429756 -2.06679 0
M  V30 13062 O 1190.88 0.578564 -2.21054 0
M  V30 13063 C 1191.09 -2.97022 -1.83245 0
M  V30 13064 C 1192.43 -3.52158 -2.37212 0
M  V30 13065 O 1193.46 -2.99156 -1.9335 0
M  V30 13066 O 1192.32 -4.44853 -3.1744 0
M  V30 13067 H 1189.41 -0.65191 -0.508864 0
M  V30 13068 H 1191.96 -1.66015 -0.351738 0
M  V30 13069 H 1190.73 -3.74535 -1.13311 0
M  V30 13070 H 1190.35 -2.95808 -2.65675 0
M  V30 13071 N 1191.35 0.610423 -1.45298 0
M  V30 13072 C 1192.6 1.36558 -1.48441 0
M  V30 13073 C 1192.91 1.95173 -0.129137 0
M  V30 13074 O 1194.12 2.71473 -0.0381956 0
M  V30 13075 C 1192.57 2.47349 -2.61431 0
M  V30 13076 C 1192.18 1.95158 -4.03258 0
M  V30 13077 C 1193.92 3.24383 -2.73817 0
M  V30 13078 C 1191.83 3.03414 -5.07635 0
M  V30 13079 H 1190.76 0.513253 -0.552347 0
M  V30 13080 H 1193.41 0.654535 -1.7143 0
M  V30 13081 H 1191.79 3.21125 -2.31721 0
M  V30 13082 H 1192.97 1.2811 -4.42634 0
M  V30 13083 H 1191.28 1.30878 -3.95297 0
M  V30 13084 H 1193.88 4.05123 -3.48969 0
M  V30 13085 H 1194.22 3.75205 -1.80352 0
M  V30 13086 H 1194.76 2.57705 -3.03039 0
M  V30 13087 H 1191.5 2.57512 -6.028 0
M  V30 13088 H 1191.02 3.69039 -4.72833 0
M  V30 13089 H 1192.69 3.67844 -5.32259 0
M  V30 13090 N 1192.83 1.32541 0.852676 0
M  V30 13091 C 1194.06 1.26037 1.63702 0
M  V30 13092 C 1194.46 -0.173583 1.88402 0
M  V30 13093 O 1193.81 -1.12175 1.45473 0
M  V30 13094 C 1193.87 1.95245 3.01861 0
M  V30 13095 C 1193.53 3.44576 3.00193 0
M  V30 13096 C 1194.53 4.40026 2.76899 0
M  V30 13097 C 1192.22 3.86541 3.20766 0
M  V30 13098 C 1194.21 5.75414 2.74185 0
M  V30 13099 C 1191.9 5.22038 3.17678 0
M  V30 13100 C 1192.89 6.16286 2.94416 0
M  V30 13101 O 1192.58 7.49303 2.91206 0
M  V30 13102 H 1192.31 0.436073 0.516543 0
M  V30 13103 H 1194.87 1.75251 1.07127 0
M  V30 13104 H 1193.1 1.40603 3.60233 0
M  V30 13105 H 1194.79 1.82423 3.62597 0
M  V30 13106 H 1195.55 4.0893 2.6077 0
M  V30 13107 H 1191.43 3.13603 3.37897 0
M  V30 13108 H 1194.98 6.4895 2.55947 0
M  V30 13109 H 1190.87 5.52762 3.33353 0
M  V30 13110 H 1191.64 7.58686 3.07146 0
M  V30 13111 N 1194.3 -1.0692 1.15784 0
M  V30 13112 C 1195.53 -1.83849 0.959903 0
M  V30 13113 C 1195.95 -1.8169 -0.486873 0
M  V30 13114 O 1195.31 -1.21305 -1.34739 0
M  V30 13115 C 1195.36 -3.28642 1.48414 0
M  V30 13116 O 1194.46 -4.0665 0.686249 0
M  V30 13117 H 1193.81 -0.569115 0.342059 0
M  V30 13118 H 1196.34 -1.34851 1.53871 0
M  V30 13119 H 1196.35 -3.7947 1.49888 0
M  V30 13120 H 1195.02 -3.29529 2.53739 0
M  V30 13121 H 1193.6 -3.65453 0.741501 0
M  V30 13122 N 1195.78 -0.955326 -1.25345 0
M  V30 13123 C 1197.2 -0.659863 -1.4532 0
M  V30 13124 C 1197.4 0.78238 -1.85691 0
M  V30 13125 O 1196.45 1.5576 -1.98734 0
M  V30 13126 C 1197.77 -1.63339 -2.5247 0
M  V30 13127 C 1199.32 -1.64464 -2.66309 0
M  V30 13128 C 1199.79 -2.60583 -3.76644 0
M  V30 13129 N 1201.28 -2.58951 -3.84055 0
M  V30 13130 C 1202.02 -3.30002 -4.6892 0
M  V30 13131 N 1201.51 -4.10528 -5.58067 0
M  V30 13132 N 1203.31 -3.18886 -4.62891 0
M  V30 13133 H 1195.46 -1.88734 -0.97433 0
M  V30 13134 H 1197.72 -0.811858 -0.48948 0
M  V30 13135 H 1197.43 -2.66358 -2.29665 0
M  V30 13136 H 1197.3 -1.39644 -3.50399 0
M  V30 13137 H 1199.69 -0.621622 -2.88479 0
M  V30 13138 H 1199.77 -1.92218 -1.68778 0
M  V30 13139 H 1199.41 -3.63011 -3.55226 0
M  V30 13140 H 1199.34 -2.30113 -4.73662 0
M  V30 13141 H 1201.83 -2.00491 -3.20331 0
M  V30 13142 H 1202.15 -4.6166 -6.1975 0
M  V30 13143 H 1200.49 -4.14626 -5.57773 0
M  V30 13144 H 1203.68 -2.55447 -3.92255 0
M  V30 13145 H 1203.85 -3.74524 -5.28806 0
M  V30 13146 N 1197.26 1.39987 -0.723979 0
M  V30 13147 C 1198.68 1.54547 -0.398403 0
M  V30 13148 C 1198.88 1.69348 1.09194 0
M  V30 13149 O 1197.93 1.68778 1.87804 0
M  V30 13150 C 1199.25 2.76929 -1.1718 0
M  V30 13151 C 1200.79 2.90754 -1.15893 0
M  V30 13152 C 1201.27 4.16059 -1.91465 0
M  V30 13153 N 1202.76 4.23076 -1.88576 0
M  V30 13154 C 1203.5 5.18957 -2.43867 0
M  V30 13155 N 1202.99 6.20695 -3.0775 0
M  V30 13156 N 1204.78 5.11095 -2.33962 0
M  V30 13157 H 1196.94 1.28626 -1.69024 0
M  V30 13158 H 1199.2 0.6226 -0.714894 0
M  V30 13159 H 1198.9 2.72298 -2.22591 0
M  V30 13160 H 1198.78 3.69279 -0.768941 0
M  V30 13161 H 1201.17 2.94884 -0.112978 0
M  V30 13162 H 1201.25 1.99498 -1.60107 0
M  V30 13163 H 1200.89 4.12691 -2.96055 0
M  V30 13164 H 1200.82 5.06339 -1.44665 0
M  V30 13165 H 1203.31 3.50195 -1.42027 0
M  V30 13166 H 1203.62 6.90296 -3.47435 0
M  V30 13167 H 1201.97 6.21114 -3.11837 0
M  V30 13168 H 1205.16 4.30546 -1.83706 0
M  V30 13169 H 1205.33 5.85644 -2.77353 0
M  V30 13170 N 1198.74 0.470782 1.50404 0
M  V30 13171 C 1199.67 -0.313458 2.31386 0
M  V30 13172 C 1200.65 -0.990623 1.38278 0
M  V30 13173 O 1201.84 -0.987854 1.67198 0
M  V30 13174 C 1198.97 -1.39599 3.18009 0
M  V30 13175 C 1197.92 -0.840443 4.19667 0
M  V30 13176 C 1197.25 -2.02124 4.95025 0
M  V30 13177 C 1198.55 0.148055 5.2209 0
M  V30 13178 H 1200.24 0.362432 2.97198 0
M  V30 13179 H 1197.79 0.175745 1.42924 0
M  V30 13180 H 1199.74 -1.9521 3.73458 0
M  V30 13181 H 1198.46 -2.10064 2.50081 0
M  V30 13182 H 1197.12 -0.306302 3.65318 0
M  V30 13183 H 1196.77 -2.71286 4.23571 0
M  V30 13184 H 1196.47 -1.65574 5.6379 0
M  V30 13185 H 1197.99 -2.58226 5.5331 0
M  V30 13186 H 1199.41 -0.318874 5.72413 0
M  V30 13187 H 1197.8 0.427811 5.98573 0
M  V30 13188 H 1198.87 1.07404 4.72855 0
M  V30 13189 N 1200.22 -1.56282 0.203376 0
M  V30 13190 C 1201.44 -2.02643 -0.441658 0
M  V30 13191 C 1201.87 -1.0825 -1.5383 0
M  V30 13192 O 1201.23 -0.0674337 -1.81175 0
M  V30 13193 C 1201.27 -3.47382 -0.967369 0
M  V30 13194 O 1200.38 -3.56115 -2.07981 0
M  V30 13195 H 1199.72 -0.656081 -0.102242 0
M  V30 13196 H 1202.25 -2.02134 0.316684 0
M  V30 13197 H 1202.26 -3.8734 -1.28186 0
M  V30 13198 H 1200.93 -4.15574 -0.164625 0
M  V30 13199 H 1199.51 -3.28035 -1.77334 0
M  V30 13200 N 1201.7 0.070167 -1.57444 0
M  V30 13201 C 1202.63 1.10996 -2.0053 0
M  V30 13202 C 1203.64 1.3489 -0.91151 0
M  V30 13203 O 1204.83 1.33102 -1.18938 0
M  V30 13204 C 1201.93 2.46053 -2.33048 0
M  V30 13205 C 1201.1 2.42092 -3.64294 0
M  V30 13206 C 1200.16 3.5927 -3.84463 0
M  V30 13207 O 1199.19 3.40625 -4.5603 0
M  V30 13208 N 1200.39 4.79677 -3.26941 0
M  V30 13209 H 1203.15 0.743029 -2.90343 0
M  V30 13210 H 1200.72 0.258794 -1.59818 0
M  V30 13211 H 1202.71 3.23089 -2.43712 0
M  V30 13212 H 1201.28 2.74742 -1.49116 0
M  V30 13213 H 1200.5 1.5043 -3.64368 0
M  V30 13214 H 1201.79 2.36548 -4.50469 0
M  V30 13215 H 1201.18 4.97729 -2.68855 0
M  V30 13216 H 1199.74 5.54219 -3.43051 0
M  V30 13217 N 1203.17 1.53854 0.341593 0
M  V30 13218 C 1204.08 1.84975 1.44297 0
M  V30 13219 C 1205.1 0.740057 1.57477 0
M  V30 13220 O 1206.28 1.03256 1.72917 0
M  V30 13221 C 1203.34 2.05464 2.79259 0
M  V30 13222 C 1202.4 3.29318 2.75405 0
M  V30 13223 C 1201.63 3.4882 4.03931 0
M  V30 13224 O 1201.86 2.7212 5.01305 0
M  V30 13225 O 1200.79 4.42253 4.08284 0
M  V30 13226 H 1204.62 2.78592 1.20913 0
M  V30 13227 H 1202.2 1.39532 0.533953 0
M  V30 13228 H 1204.08 2.20374 3.59184 0
M  V30 13229 H 1202.76 1.15035 3.0257 0
M  V30 13230 H 1201.67 3.1981 1.94094 0
M  V30 13231 H 1203 4.19746 2.57049 0
M  V30 13232 N 1204.65 -0.602709 1.4562 0
M  V30 13233 C 1205.88 -1.3881 1.53426 0
M  V30 13234 C 1206.29 -1.88046 0.16851 0
M  V30 13235 O 1205.65 -1.62493 -0.830791 0
M  V30 13236 C 1205.7 -2.58927 2.52268 0
M  V30 13237 O 1205.42 -2.11735 3.83536 0
M  V30 13238 C 1206.92 -3.51728 2.69819 0
M  V30 13239 H 1204.14 -0.424744 0.519455 0
M  V30 13240 H 1206.69 -0.73459 1.90851 0
M  V30 13241 H 1204.84 -3.20309 2.17902 0
M  V30 13242 H 1205.26 -2.89814 4.37159 0
M  V30 13243 H 1206.73 -4.32542 3.42945 0
M  V30 13244 H 1207.21 -4.02383 1.76024 0
M  V30 13245 H 1207.81 -2.96196 3.05202 0
M  V30 13246 N 1206.13 -1.32992 -0.845635 0
M  V30 13247 C 1207.38 -1.2382 -1.59728 0
M  V30 13248 C 1207.7 0.197724 -1.93995 0
M  V30 13249 O 1206.97 1.12477 -1.60392 0
M  V30 13250 H 1205.55 -0.455296 -0.592212 0
M  V30 13251 H 1208.21 -1.66627 -1.01101 0
M  V30 13252 H 1207.31 -1.82717 -2.53023 0
M  V30 13253 N 1207.61 1.06304 -1.1635 0
M  V30 13254 C 1208.54 2.15745 -0.893103 0
M  V30 13255 C 1209.52 1.69341 0.160531 0
M  V30 13256 O 1210.7 1.94196 0.0126526 0
M  V30 13257 C 1207.83 3.45066 -0.393287 0
M  V30 13258 C 1206.79 4.04978 -1.38482 0
M  V30 13259 C 1206.11 5.29507 -0.743409 0
M  V30 13260 C 1207.41 4.4377 -2.75438 0
M  V30 13261 H 1209.11 2.38622 -1.80831 0
M  V30 13262 H 1206.65 1.14681 -0.870878 0
M  V30 13263 H 1208.61 4.20964 -0.191607 0
M  V30 13264 H 1207.33 3.21808 0.557426 0
M  V30 13265 H 1205.99 3.31136 -1.57304 0
M  V30 13266 H 1205.64 5.02545 0.213787 0
M  V30 13267 H 1205.34 5.7055 -1.40521 0
M  V30 13268 H 1206.86 6.08102 -0.551746 0
M  V30 13269 H 1208.28 5.1075 -2.60398 0
M  V30 13270 H 1206.67 4.95797 -3.38091 0
M  V30 13271 H 1207.74 3.54636 -3.30699 0
M  V30 13272 N 1209.09 0.96196 1.24836 0
M  V30 13273 C 1210 0.494876 2.29321 0
M  V30 13274 C 1211.01 -0.441363 1.68309 0
M  V30 13275 O 1212.19 -0.315814 1.98908 0
M  V30 13276 C 1209.25 -0.212944 3.46045 0
M  V30 13277 C 1208.31 0.762411 4.22476 0
M  V30 13278 C 1207.55 0.0882756 5.33627 0
M  V30 13279 O 1207.77 -1.12459 5.59204 0
M  V30 13280 O 1206.7 0.777529 5.96857 0
M  V30 13281 H 1210.53 1.36333 2.7138 0
M  V30 13282 H 1208.11 0.728738 1.30421 0
M  V30 13283 H 1210 -0.610805 4.1695 0
M  V30 13284 H 1208.67 -1.05645 3.05975 0
M  V30 13285 H 1207.58 1.21062 3.5397 0
M  V30 13286 H 1208.91 1.57416 4.66349 0
M  V30 13287 N 1210.56 -1.39601 0.731392 0
M  V30 13288 C 1211.81 -1.99821 0.274661 0
M  V30 13289 C 1212.13 -1.58693 -1.1435 0
M  V30 13290 O 1213.33 -2.11724 -1.69957 0
M  V30 13291 C 1211.79 -3.57199 0.440124 0
M  V30 13292 C 1211.4 -4.07292 1.86594 0
M  V30 13293 C 1213.14 -4.24476 0.0449851 0
M  V30 13294 C 1211.05 -5.57229 1.98115 0
M  V30 13295 H 1209.98 -0.747481 0.0989383 0
M  V30 13296 H 1212.63 -1.59645 0.904755 0
M  V30 13297 H 1211.01 -3.95153 -0.25881 0
M  V30 13298 H 1212.18 -3.80679 2.59654 0
M  V30 13299 H 1210.5 -3.52665 2.21397 0
M  V30 13300 H 1213.1 -5.34587 0.110126 0
M  V30 13301 H 1213.44 -4.04129 -0.999269 0
M  V30 13302 H 1213.97 -3.91683 0.694942 0
M  V30 13303 H 1210.71 -5.82452 3.00716 0
M  V30 13304 H 1210.23 -5.85656 1.29487 0
M  V30 13305 H 1211.91 -6.22584 1.76063 0
M  V30 13306 N 1212.04 -0.478751 -1.50152 0
M  V30 13307 C 1213.27 0.0732929 -2.0727 0
M  V30 13308 C 1213.69 1.32066 -1.33941 0
M  V30 13309 O 1213.05 1.7707 -0.389367 0
M  V30 13310 C 1213.1 0.332528 -3.59064 0
M  V30 13311 O 1212.2 1.41158 -3.8749 0
M  V30 13312 H 1211.54 -0.0163684 -0.663798 0
M  V30 13313 H 1214.07 -0.671993 -1.9325 0
M  V30 13314 H 1214.08 0.570735 -4.03988 0
M  V30 13315 H 1212.76 -0.578934 -4.11851 0
M  V30 13316 H 1211.34 1.16008 -3.54396 0
M  V30 13317 N 1213.52 1.56172 -0.211661 0
M  V30 13318 C 1214.43 2.23468 0.714081 0
M  V30 13319 C 1215.45 1.23908 1.22159 0
M  V30 13320 O 1216.62 1.56693 1.26528 0
M  V30 13321 C 1213.69 2.89375 1.90953 0
M  V30 13322 C 1212.75 4.04251 1.44497 0
M  V30 13323 C 1211.98 4.67006 2.58343 0
M  V30 13324 O 1212.2 4.28721 3.76237 0
M  V30 13325 O 1211.14 5.56177 2.3011 0
M  V30 13326 H 1214.96 3.03219 0.170862 0
M  V30 13327 H 1212.55 1.49389 0.0183607 0
M  V30 13328 H 1214.43 3.3101 2.60787 0
M  V30 13329 H 1213.11 2.12591 2.44104 0
M  V30 13330 H 1212.01 3.67205 0.714932 0
M  V30 13331 H 1213.35 4.82748 0.959947 0
M  V30 13332 N 1215 -0.0618163 1.57479 0
M  V30 13333 C 1215.91 -1.09006 2.07738 0
M  V30 13334 C 1216.92 -1.4176 1.00896 0
M  V30 13335 O 1218.1 -1.51737 1.32431 0
M  V30 13336 C 1215.17 -2.38153 2.5196 0
M  V30 13337 C 1214.23 -2.12279 3.73143 0
M  V30 13338 C 1213.46 -3.35269 4.15248 0
M  V30 13339 O 1213.68 -4.44758 3.57137 0
M  V30 13340 O 1212.62 -3.22894 5.0796 0
M  V30 13341 H 1216.44 -0.693059 2.95686 0
M  V30 13342 H 1214.03 -0.276628 1.46817 0
M  V30 13343 H 1215.91 -3.14139 2.80882 0
M  V30 13344 H 1214.58 -2.77213 1.67137 0
M  V30 13345 H 1213.49 -1.33966 3.49291 0
M  V30 13346 H 1214.82 -1.78094 4.5885 0
M  V30 13347 N 1216.48 -1.54033 -0.333429 0
M  V30 13348 C 1217.73 -1.70979 -1.07 0
M  V30 13349 C 1218.04 -0.485095 -1.89489 0
M  V30 13350 O 1219.24 -0.535712 -2.66162 0
M  V30 13351 C 1217.7 -3.02382 -1.95175 0
M  V30 13352 C 1217.31 -4.32223 -1.17844 0
M  V30 13353 C 1219.05 -3.28693 -2.68628 0
M  V30 13354 C 1216.96 -5.54693 -2.05109 0
M  V30 13355 H 1215.89 -0.637152 -0.403179 0
M  V30 13356 H 1218.54 -1.80529 -0.328839 0
M  V30 13357 H 1216.92 -2.86714 -2.73151 0
M  V30 13358 H 1218.1 -4.58626 -0.447089 0
M  V30 13359 H 1216.41 -4.12601 -0.561166 0
M  V30 13360 H 1219.01 -4.17385 -3.34207 0
M  V30 13361 H 1219.35 -2.46141 -3.35738 0
M  V30 13362 H 1219.88 -3.45183 -1.9772 0
M  V30 13363 H 1216.62 -6.39818 -1.42523 0
M  V30 13364 H 1216.14 -5.32524 -2.76005 0
M  V30 13365 H 1217.82 -5.90722 -2.63926 0
M  V30 13366 N 1217.95 0.594978 -1.45938 0
M  V30 13367 C 1218.9 1.726 -1.55923 0
M  V30 13368 C 1219.9 1.63893 -0.428411 0
M  V30 13369 O 1221.1 1.69535 -0.604815 0
M  V30 13370 H 1217.48 0.570447 -0.489994 0
M  V30 13371 H 1219.45 1.61308 -2.51043 0
M  V30 13372 C 1218.2 3.10988 -1.55505 0
M  V30 13373 H 1217.52 3.18353 -2.4185 0
M  V30 13374 H 1218.96 3.8992 -1.66548 0
M  V30 13375 C 1217.42 3.35721 -0.281573 0
M  V30 13376 O 1217.95 3.96676 0.633336 0
M  V30 13377 N 1216.16 2.90083 -0.173314 0
M  V30 13378 H 1215.7 2.4066 -0.91872 0
M  V30 13379 H 1215.66 3.07005 0.677903 0
M  V30 13380 N 1219.43 1.33438 0.838571 0
M  V30 13381 C 1220.34 1.25753 1.98049 0
M  V30 13382 C 1221.36 0.168051 1.73187 0
M  V30 13383 O 1222.53 0.391691 1.97554 0
M  V30 13384 C 1219.6 0.997148 3.32051 0
M  V30 13385 C 1218.66 2.17667 3.70027 0
M  V30 13386 C 1217.89 1.92861 4.97635 0
M  V30 13387 O 1218.12 0.879072 5.63585 0
M  V30 13388 O 1217.05 2.79402 5.33121 0
M  V30 13389 H 1220.88 2.21786 2.07472 0
M  V30 13390 H 1218.46 1.13488 0.971645 0
M  V30 13391 H 1220.34 0.869099 4.1234 0
M  V30 13392 H 1219.02 0.0671036 3.2363 0
M  V30 13393 H 1217.93 2.36025 2.90246 0
M  V30 13394 H 1219.26 3.09006 3.83114 0
M  V30 13395 N 1220.91 -1.05686 1.16912 0
M  V30 13396 C 1221.82 -2.16824 0.8958 0
M  V30 13397 C 1222.84 -1.73482 -0.134215 0
M  V30 13398 O 1224.01 -2.01352 0.0438776 0
M  V30 13399 C 1221.08 -3.44298 0.407427 0
M  V30 13400 C 1220.14 -4.02114 1.50342 0
M  V30 13401 C 1219.37 -5.23503 1.03826 0
M  V30 13402 O 1219.59 -5.70295 -0.109579 0
M  V30 13403 O 1218.53 -5.73432 1.8292 0
M  V30 13404 H 1222.35 -2.42725 1.82533 0
M  V30 13405 H 1219.94 -1.15339 0.949589 0
M  V30 13406 H 1221.82 -4.21159 0.142356 0
M  V30 13407 H 1220.5 -3.19908 -0.494009 0
M  V30 13408 H 1219.4 -3.26715 1.82231 0
M  V30 13409 H 1220.74 -4.30811 2.38039 0
M  V30 13410 N 1222.39 -0.968567 -1.24324 0
M  V30 13411 C 1223.67 -0.547774 -1.87773 0
M  V30 13412 C 1224.05 0.975107 -1.87229 0
M  V30 13413 O 1223.39 1.84683 -1.34553 0
M  V30 13414 C 1223.6 -1.1403 -3.29846 0
M  V30 13415 C 1224.95 -1.22572 -4.06523 0
M  V30 13416 O 1225.98 -1.09287 -3.3902 0
M  V30 13417 O 1224.83 -1.43579 -5.27302 0
M  V30 13418 H 1221.93 -0.182771 -0.806551 0
M  V30 13419 H 1224.47 -1.06289 -1.3229 0
M  V30 13420 H 1223.25 -2.18303 -3.24745 0
M  V30 13421 H 1222.87 -0.609275 -3.92904 0
M  V30 13422 N 1223.87 1.39211 -0.738786 0
M  V30 13423 C 1224.8 2.33209 -0.11647 0
M  V30 13424 C 1225.78 1.54108 0.720056 0
M  V30 13425 O 1226.96 1.82486 0.664264 0
M  V30 13426 C 1224.09 3.38226 0.78872 0
M  V30 13427 C 1223.05 4.27963 0.0560636 0
M  V30 13428 C 1222.37 5.2371 1.07852 0
M  V30 13429 C 1223.67 5.10508 -1.1036 0
M  V30 13430 H 1225.37 2.85501 -0.901649 0
M  V30 13431 H 1222.91 1.37272 -0.435032 0
M  V30 13432 H 1224.87 4.02938 1.23364 0
M  V30 13433 H 1223.59 2.84382 1.60606 0
M  V30 13434 H 1222.25 3.64735 -0.369274 0
M  V30 13435 H 1221.9 4.66161 1.88953 0
M  V30 13436 H 1221.6 5.846 0.593048 0
M  V30 13437 H 1223.12 5.91299 1.52307 0
M  V30 13438 H 1224.53 5.68544 -0.736943 0
M  V30 13439 H 1222.93 5.80558 -1.51895 0
M  V30 13440 H 1224 4.45117 -1.92352 0
M  V30 13441 N 1225.34 0.486708 1.49896 0
M  V30 13442 C 1226.29 -0.299294 2.28851 0
M  V30 13443 C 1227.26 -0.973251 1.346 0
M  V30 13444 O 1228.45 -0.982678 1.63548 0
M  V30 13445 C 1225.59 -1.36624 3.16904 0
M  V30 13446 C 1224.7 -0.705492 4.262 0
M  V30 13447 C 1223.83 -1.75165 5.01488 0
M  V30 13448 C 1222.87 -1.072 6.0264 0
M  V30 13449 N 1222.01 -2.06172 6.71147 0
M  V30 13450 H 1226.85 0.380272 2.95564 0
M  V30 13451 H 1224.39 0.199377 1.45743 0
M  V30 13452 H 1226.35 -1.99666 3.66319 0
M  V30 13453 H 1224.98 -2.01476 2.52205 0
M  V30 13454 H 1224.03 0.0378757 3.80381 0
M  V30 13455 H 1225.34 -0.169774 4.98511 0
M  V30 13456 H 1224.49 -2.45749 5.547 0
M  V30 13457 H 1223.23 -2.3212 4.28919 0
M  V30 13458 H 1222.24 -0.351868 5.48673 0
M  V30 13459 H 1223.46 -0.509139 6.77189 0
M  V30 13460 H 1221.41 -2.62115 6.01358 0
M  V30 13461 H 1221.33 -1.57627 7.39385 0
M  V30 13462 H 1222.59 -2.76088 7.28969 0
M  V30 13463 N 1226.82 -1.56058 0.219941 0
M  V30 13464 C 1227.73 -2.23844 -0.70222 0
M  V30 13465 C 1228.75 -1.24554 -1.215 0
M  V30 13466 O 1229.93 -1.57362 -1.25695 0
M  V30 13467 C 1226.99 -2.90384 -1.89416 0
M  V30 13468 C 1226.05 -4.05012 -1.42351 0
M  V30 13469 C 1225.28 -4.68369 -2.55863 0
M  V30 13470 O 1225.51 -4.3071 -3.73958 0
M  V30 13471 O 1224.44 -5.5739 -2.27157 0
M  V30 13472 H 1228.27 -3.03305 -0.15478 0
M  V30 13473 H 1225.85 -1.49396 -0.010438 0
M  V30 13474 H 1227.73 -3.32389 -2.59028 0
M  V30 13475 H 1226.41 -2.13883 -2.42973 0
M  V30 13476 H 1225.32 -3.67579 -0.695448 0
M  V30 13477 H 1226.65 -4.83251 -0.934332 0
M  V30 13478 N 1228.3 0.053464 -1.57509 0
M  V30 13479 C 1229.54 0.754231 -1.89976 0
M  V30 13480 C 1229.91 1.73805 -0.815833 0
M  V30 13481 O 1231.11 2.48527 -1.0241 0
M  V30 13482 C 1229.38 1.42768 -3.27646 0
M  V30 13483 S 1230.94 2.16098 -3.81899 0
M  V30 13484 H 1227.75 0.250421 -0.66544 0
M  V30 13485 H 1230.36 0.00963883 -1.95498 0
M  V30 13486 H 1229.06 0.698087 -4.04419 0
M  V30 13487 H 1228.59 2.21133 -3.25367 0
M  V30 13488 H 1230.61 3.42895 -3.5866 0
M  V30 13489 N 1229.78 1.54207 0.325255 0
M  V30 13490 C 1231.03 1.72331 1.0634 0
M  V30 13491 C 1231.35 0.496115 1.88066 0
M  V30 13492 O 1230.61 -0.52214 1.88606 0
M  V30 13493 C 1230.91 2.95 2.01766 0
M  V30 13494 C 1230.57 4.29835 1.36208 0
M  V30 13495 C 1229.24 4.66493 1.18059 0
M  V30 13496 C 1231.59 5.13521 0.891404 0
M  V30 13497 C 1228.92 5.84436 0.514894 0
M  V30 13498 C 1231.27 6.32146 0.239534 0
M  V30 13499 C 1229.93 6.67484 0.0458839 0
M  V30 13500 H 1229.2 0.630605 0.389125 0
M  V30 13501 H 1231.85 1.88445 0.34072 0
M  V30 13502 H 1230.15 2.73567 2.80479 0
M  V30 13503 H 1231.85 3.06217 2.58906 0
M  V30 13504 H 1228.44 4.00993 1.51335 0
M  V30 13505 H 1232.63 4.85718 1.01941 0
M  V30 13506 H 1227.88 6.10376 0.353644 0
M  V30 13507 H 1232.06 6.96273 -0.133185 0
M  V30 13508 H 1229.68 7.58733 -0.471978 0
M  V30 13509 N 1231.26 -0.58723 1.46251 0
M  V30 13510 C 1232.5 -1.3456 1.51327 0
M  V30 13511 C 1232.83 -1.93815 0.163146 0
M  V30 13512 O 1232.09 -1.76723 -0.840677 0
M  V30 13513 C 1232.39 -2.49776 2.5563 0
M  V30 13514 C 1232.05 -2.08543 3.99776 0
M  V30 13515 C 1230.71 -1.97013 4.39021 0
M  V30 13516 C 1233.07 -1.76669 4.90344 0
M  V30 13517 C 1230.39 -1.5186 5.66706 0
M  V30 13518 C 1232.75 -1.32996 6.18462 0
M  V30 13519 C 1231.41 -1.20039 6.56618 0
M  V30 13520 H 1230.68 -0.492391 0.553744 0
M  V30 13521 H 1233.33 -0.661715 1.79704 0
M  V30 13522 H 1231.63 -3.23592 2.20897 0
M  V30 13523 H 1233.33 -3.07995 2.56788 0
M  V30 13524 H 1229.92 -2.18451 3.68751 0
M  V30 13525 H 1234.1 -1.84465 4.60746 0
M  V30 13526 H 1229.36 -1.40467 5.95045 0
M  V30 13527 H 1233.53 -1.07385 6.88071 0
M  V30 13528 H 1231.16 -0.848268 7.55452 0
M  V30 13529 N 1232.74 -1.33881 -0.831482 0
M  V30 13530 C 1234.01 -1.16346 -1.57236 0
M  V30 13531 C 1234.39 0.267304 -2.09401 0
M  V30 13532 O 1233.74 1.26742 -1.90128 0
M  V30 13533 C 1233.95 -2.21082 -2.70044 0
M  V30 13534 C 1235.3 -2.5562 -3.39033 0
M  V30 13535 O 1236.32 -2.19806 -2.80292 0
M  V30 13536 O 1235.18 -3.17106 -4.45091 0
M  V30 13537 H 1232.28 -0.450469 -0.693546 0
M  V30 13538 H 1234.82 -1.45487 -0.873597 0
M  V30 13539 H 1233.59 -3.17155 -2.2919 0
M  V30 13540 H 1233.22 -1.9307 -3.47577 0
M  V30 13541 N 1234.21 1.05064 -1.1747 0
M  V30 13542 C 1235.49 1.74999 -0.873776 0
M  V30 13543 C 1235.87 2.01615 0.625676 0
M  V30 13544 O 1235.22 1.65324 1.57734 0
M  V30 13545 C 1235.43 3.04231 -1.7101 0
M  V30 13546 C 1236.78 3.78157 -1.93087 0
M  V30 13547 O 1237.8 3.14104 -1.6798 0
M  V30 13548 O 1236.66 4.93255 -2.3529 0
M  V30 13549 H 1233.75 0.761042 -0.323641 0
M  V30 13550 H 1236.3 1.1122 -1.28172 0
M  V30 13551 H 1235.07 2.80621 -2.72704 0
M  V30 13552 H 1234.69 3.75746 -1.30002 0
M  V30 13553 N 1235.69 0.975146 1.23809 0
M  V30 13554 C 1236.62 0.45593 2.23599 0
M  V30 13555 C 1237.6 -0.474069 1.55536 0
M  V30 13556 O 1238.79 -0.40373 1.84126 0
M  V30 13557 C 1235.91 -0.341008 3.36979 0
M  V30 13558 C 1234.96 0.532362 4.23164 0
M  V30 13559 S 1235.79 1.97706 4.97667 0
M  V30 13560 C 1236.95 1.18912 6.145 0
M  V30 13561 H 1237.18 1.30157 2.67295 0
M  V30 13562 H 1234.71 0.78074 1.33206 0
M  V30 13563 H 1236.67 -0.794817 4.02732 0
M  V30 13564 H 1235.33 -1.16171 2.91827 0
M  V30 13565 H 1234.53 -0.0798928 5.03937 0
M  V30 13566 H 1234.13 0.922202 3.62452 0
M  V30 13567 H 1236.42 0.447823 6.76018 0
M  V30 13568 H 1237.36 1.97148 6.80102 0
M  V30 13569 H 1237.77 0.710216 5.60014 0
M  V30 13570 N 1237.17 -1.38817 0.746158 0
M  V30 13571 C 1238.08 -2.34316 0.115386 0
M  V30 13572 C 1239.1 -1.58892 -0.709179 0
M  V30 13573 O 1240.27 -1.91126 -0.635059 0
M  V30 13574 C 1237.34 -3.37977 -0.772821 0
M  V30 13575 C 1236.4 -4.2925 0.0652679 0
M  V30 13576 C 1235.63 -5.2796 -0.78064 0
M  V30 13577 O 1235.85 -5.33474 -2.01896 0
M  V30 13578 O 1234.79 -6.01556 -0.20338 0
M  V30 13579 H 1238.61 -2.89937 0.903887 0
M  V30 13580 H 1236.2 -1.40536 0.506958 0
M  V30 13581 H 1238.08 -4.01468 -1.28068 0
M  V30 13582 H 1236.76 -2.84723 -1.53994 0
M  V30 13583 H 1235.66 -3.68945 0.61891 0
M  V30 13584 H 1237 -4.85739 0.794871 0
M  V30 13585 N 1238.65 -0.49465 -1.49636 0
M  V30 13586 C 1239.87 0.051305 -2.07337 0
M  V30 13587 C 1240.3 1.30637 -1.35335 0
M  V30 13588 O 1239.66 1.76647 -0.408126 0
M  V30 13589 C 1239.7 0.294425 -3.59396 0
M  V30 13590 O 1238.81 1.3704 -3.88965 0
M  V30 13591 H 1238.15 -0.023408 -0.663587 0
M  V30 13592 H 1240.68 -0.692451 -1.92526 0
M  V30 13593 H 1240.69 0.527854 -4.04571 0
M  V30 13594 H 1239.36 -0.622583 -4.11214 0
M  V30 13595 H 1237.94 1.12242 -3.55607 0
M  V30 13596 N 1240.13 1.55939 -0.228214 0
M  V30 13597 C 1241.37 1.97652 0.402067 0
M  V30 13598 C 1241.69 1.11911 1.60422 0
M  V30 13599 O 1242.89 1.43552 2.30445 0
M  V30 13600 C 1241.35 3.51638 0.766724 0
M  V30 13601 C 1240.96 4.46092 -0.412991 0
M  V30 13602 C 1242.7 4.02049 1.36224 0
M  V30 13603 C 1240.61 5.91394 -0.0255281 0
M  V30 13604 H 1239.54 0.738107 0.153994 0
M  V30 13605 H 1242.19 1.8059 -0.32548 0
M  V30 13606 H 1240.57 3.64325 1.55188 0
M  V30 13607 H 1241.75 4.45156 -1.19049 0
M  V30 13608 H 1240.06 4.0606 -0.92218 0
M  V30 13609 H 1242.66 5.08111 1.66514 0
M  V30 13610 H 1243 3.48292 2.28032 0
M  V30 13611 H 1243.53 3.92612 0.640378 0
M  V30 13612 H 1240.27 6.49149 -0.910269 0
M  V30 13613 H 1239.79 5.95509 0.716149 0
M  V30 13614 H 1241.47 6.4577 0.398839 0
M  V30 13615 N 1241.6 -0.0451101 1.57535 0
M  V30 13616 C 1243.02 -0.59372 1.77008 0
M  V30 13617 C 1243.37 -1.76482 0.857233 0
M  V30 13618 O 1242.49 -2.16347 0.0479703 0
M  V30 13619 C 1243.09 -1.08383 3.20996 0
M  V30 13620 C 1241.65 -1.57808 3.41721 0
M  V30 13621 C 1240.79 -0.509067 2.72587 0
M  V30 13622 H 1243.74 0.181114 1.57663 0
M  V30 13623 H 1243.76 -1.95181 3.26626 0
M  V30 13624 H 1243.28 -0.231276 3.8741 0
M  V30 13625 H 1241.38 -2.45302 2.8046 0
M  V30 13626 H 1241.49 -1.63664 4.50279 0
M  V30 13627 H 1239.85 -0.960389 2.359 0
M  V30 13628 H 1240.64 0.333753 3.41674 0
M  V30 13629 N 1243.08 -1.54377 -0.317073 0
M  V30 13630 C 1244.05 -1.83488 -1.37349 0
M  V30 13631 C 1245.05 -0.706981 -1.44424 0
M  V30 13632 O 1246.24 -0.975289 -1.44339 0
M  V30 13633 C 1243.37 -2.00074 -2.76013 0
M  V30 13634 H 1244.56 -2.77883 -1.12789 0
M  V30 13635 H 1242.11 -1.46194 -0.552902 0
M  V30 13636 H 1242.85 -1.07913 -3.05819 0
M  V30 13637 H 1242.63 -2.82155 -2.7227 0
M  V30 13638 H 1244.12 -2.24022 -3.52426 0
M  V30 13639 N 1244.56 0.579466 -1.4656 0
M  V30 13640 C 1245.81 1.33954 -1.52264 0
M  V30 13641 C 1246.14 1.93409 -0.175089 0
M  V30 13642 O 1245.41 1.76654 0.81385 0
M  V30 13643 C 1245.7 2.46645 -2.6237 0
M  V30 13644 C 1245.55 1.92204 -4.06667 0
M  V30 13645 C 1246.87 3.48676 -2.68538 0
M  V30 13646 H 1243.99 0.485697 -0.554317 0
M  V30 13647 H 1246.63 0.650639 -1.78512 0
M  V30 13648 H 1244.78 3.0541 -2.40119 0
M  V30 13649 H 1246.45 1.37871 -4.40215 0
M  V30 13650 H 1244.7 1.23012 -4.15993 0
M  V30 13651 H 1245.37 2.73566 -4.79443 0
M  V30 13652 H 1247.84 2.99798 -2.88549 0
M  V30 13653 H 1246.72 4.24981 -3.47394 0
M  V30 13654 H 1246.98 4.06112 -1.74716 0
M  V30 13655 N 1246.04 1.3432 0.824371 0
M  V30 13656 C 1247.27 1.29669 1.61226 0
M  V30 13657 C 1247.68 -0.129532 1.88355 0
M  V30 13658 O 1247.04 -1.07616 1.47394 0
M  V30 13659 C 1247.09 2.08375 2.95402 0
M  V30 13660 O 1246.81 3.45434 2.69456 0
M  V30 13661 C 1248.31 2.11103 3.89808 0
M  V30 13662 H 1245.53 0.446137 0.501201 0
M  V30 13663 H 1248.08 1.76912 1.02579 0
M  V30 13664 H 1246.23 1.64777 3.5061 0
M  V30 13665 H 1246.64 3.86101 3.55001 0
M  V30 13666 H 1248.12 2.706 4.81124 0
M  V30 13667 H 1248.6 1.10505 4.25071 0
M  V30 13668 H 1249.2 2.54784 3.40537 0
M  V30 13669 N 1247.52 -1.0444 1.18026 0
M  V30 13670 C 1248.74 -1.81234 0.998089 0
M  V30 13671 C 1249.16 -1.83271 -0.453559 0
M  V30 13672 O 1248.52 -1.26545 -1.31502 0
M  V30 13673 C 1248.57 -3.27007 1.54106 0
M  V30 13674 O 1248.29 -3.25174 2.93587 0
M  V30 13675 C 1249.79 -4.20461 1.40455 0
M  V30 13676 H 1247.01 -0.57085 0.352663 0
M  V30 13677 H 1249.55 -1.31649 1.56489 0
M  V30 13678 H 1247.71 -3.73837 1.01611 0
M  V30 13679 H 1248.12 -4.16466 3.18836 0
M  V30 13680 H 1249.6 -5.20695 1.83249 0
M  V30 13681 H 1250.07 -4.37781 0.352713 0
M  V30 13682 H 1250.68 -3.79493 1.92004 0
M  V30 13683 N 1248.99 -0.981699 -1.2329 0
M  V30 13684 C 1250.24 -0.661895 -1.92329 0
M  V30 13685 C 1250.6 0.79602 -1.75161 0
M  V30 13686 O 1249.89 1.56687 -1.10271 0
M  V30 13687 C 1250.08 -0.989244 -3.43437 0
M  V30 13688 C 1249.91 -2.47743 -3.75305 0
M  V30 13689 C 1248.68 -3.13963 -3.95924 0
M  V30 13690 C 1250.88 -3.45817 -3.80677 0
M  V30 13691 N 1248.86 -4.52374 -4.15008 0
M  V30 13692 C 1250.23 -4.6964 -4.04769 0
M  V30 13693 C 1252.29 -3.4028 -3.63475 0
M  V30 13694 C 1250.99 -5.88605 -4.13445 0
M  V30 13695 C 1253.02 -4.5861 -3.73405 0
M  V30 13696 C 1252.38 -5.81229 -3.97935 0
M  V30 13697 H 1248.48 -0.293289 -0.724918 0
M  V30 13698 H 1251.06 -1.25942 -1.48481 0
M  V30 13699 H 1249.23 -0.420398 -3.86118 0
M  V30 13700 H 1250.96 -0.626579 -3.9982 0
M  V30 13701 H 1247.72 -2.64456 -3.92887 0
M  V30 13702 H 1248.14 -5.24134 -4.28501 0
M  V30 13703 H 1252.79 -2.46504 -3.43505 0
M  V30 13704 H 1250.5 -6.82795 -4.32223 0
M  V30 13705 H 1254.09 -4.55903 -3.61447 0
M  V30 13706 H 1252.97 -6.71263 -4.05433 0
M  V30 13707 N 1250.47 1.3842 -0.753509 0
M  V30 13708 C 1251.42 2.32315 -0.115107 0
M  V30 13709 C 1252.41 1.54015 0.705398 0
M  V30 13710 O 1253.62 1.69546 0.604505 0
M  V30 13711 H 1250 0.751774 -0.0184276 0
M  V30 13712 H 1251.97 2.83763 -0.923094 0
M  V30 13713 C 1250.72 3.39206 0.763849 0
M  V30 13714 H 1250.04 3.99548 0.14187 0
M  V30 13715 H 1251.48 4.07312 1.17783 0
M  V30 13716 C 1249.94 2.77771 1.90643 0
M  V30 13717 O 1250.47 2.67073 3.00058 0
M  V30 13718 N 1248.67 2.35582 1.70145 0
M  V30 13719 H 1248.22 2.44483 0.811528 0
M  V30 13720 H 1248.18 1.9482 2.46764 0
M  V30 13721 N 1251.95 0.502579 1.49372 0
M  V30 13722 C 1253.18 -0.0381429 2.06865 0
M  V30 13723 C 1253.59 -1.30674 1.36271 0
M  V30 13724 O 1252.95 -1.77078 0.441532 0
M  V30 13725 C 1253 -0.294068 3.60302 0
M  V30 13726 O 1252.72 0.924244 4.2824 0
M  V30 13727 C 1254.22 -0.878253 4.34513 0
M  V30 13728 H 1251.44 0.0211756 0.670666 0
M  V30 13729 H 1253.99 0.700387 1.92132 0
M  V30 13730 H 1252.14 -0.982583 3.74732 0
M  V30 13731 H 1252.56 0.688062 5.19967 0
M  V30 13732 H 1254.03 -1.0069 5.42739 0
M  V30 13733 H 1254.51 -1.87643 3.97098 0
M  V30 13734 H 1255.11 -0.227157 4.24693 0
M  V30 13735 N 1253.43 -1.55816 0.23648 0
M  V30 13736 C 1254.66 -2.02789 -0.39501 0
M  V30 13737 C 1255.07 -1.1153 -1.52832 0
M  V30 13738 O 1254.41 -0.120084 -1.83307 0
M  V30 13739 C 1254.47 -3.46052 -0.974066 0
M  V30 13740 C 1254.14 -4.56993 0.0256825 0
M  V30 13741 C 1255.13 -5.13208 0.831477 0
M  V30 13742 C 1252.82 -5.0208 0.148759 0
M  V30 13743 C 1254.81 -6.12994 1.74691 0
M  V30 13744 C 1252.5 -6.017 1.0677 0
M  V30 13745 C 1253.5 -6.57035 1.86531 0
M  V30 13746 O 1253.18 -7.54714 2.76878 0
M  V30 13747 H 1252.92 -0.668672 -0.0992687 0
M  V30 13748 H 1255.47 -2.02312 0.354826 0
M  V30 13749 H 1253.7 -3.43645 -1.77327 0
M  V30 13750 H 1255.39 -3.76586 -1.51453 0
M  V30 13751 H 1256.16 -4.79214 0.746922 0
M  V30 13752 H 1252.03 -4.58679 -0.461976 0
M  V30 13753 H 1255.58 -6.56111 2.36989 0
M  V30 13754 H 1251.48 -6.35115 1.15322 0
M  V30 13755 H 1252.24 -7.72292 2.71122 0
M  V30 13756 N 1254.91 0.036755 -1.57557 0
M  V30 13757 C 1255.84 1.03939 -2.09091 0
M  V30 13758 C 1256.82 1.38196 -0.991761 0
M  V30 13759 O 1258 1.47214 -1.26656 0
M  V30 13760 C 1255.13 2.34263 -2.56394 0
M  V30 13761 C 1254.09 2.14269 -3.70504 0
M  V30 13762 C 1253.41 3.50286 -4.03985 0
M  V30 13763 C 1254.71 1.53514 -4.9923 0
M  V30 13764 H 1256.41 0.610429 -2.93111 0
M  V30 13765 H 1253.95 0.292183 -1.41005 0
M  V30 13766 H 1255.91 3.04727 -2.91066 0
M  V30 13767 H 1254.63 2.79205 -1.69447 0
M  V30 13768 H 1253.29 1.46239 -3.36169 0
M  V30 13769 H 1252.94 3.92861 -3.14116 0
M  V30 13770 H 1252.64 3.37735 -4.80842 0
M  V30 13771 H 1254.16 4.22124 -4.41184 0
M  V30 13772 H 1255.57 2.13885 -5.31908 0
M  V30 13773 H 1253.97 1.51561 -5.80646 0
M  V30 13774 H 1255.04 0.500126 -4.82314 0
M  V30 13775 N 1256.39 1.54543 0.308881 0
M  V30 13776 C 1257.8 1.45581 0.654088 0
M  V30 13777 C 1258 0.640597 1.91046 0
M  V30 13778 O 1257.06 0.14518 2.52082 0
M  V30 13779 C 1258.37 2.89461 0.814422 0
M  V30 13780 C 1259.92 2.99455 0.910817 0
M  V30 13781 C 1260.39 4.44515 1.10321 0
M  V30 13782 N 1261.88 4.4819 1.1696 0
M  V30 13783 C 1262.62 5.57604 1.33661 0
M  V30 13784 N 1262.12 6.76957 1.47311 0
M  V30 13785 N 1263.91 5.45278 1.36487 0
M  V30 13786 H 1256.06 2.06019 -0.516699 0
M  V30 13787 H 1258.32 0.932729 -0.169471 0
M  V30 13788 H 1258.03 3.5168 -0.0377455 0
M  V30 13789 H 1257.9 3.36425 1.70582 0
M  V30 13790 H 1260.29 2.37355 1.75348 0
M  V30 13791 H 1260.37 2.558 -0.00443172 0
M  V30 13792 H 1260.01 5.07206 0.265346 0
M  V30 13793 H 1259.94 4.85793 2.03256 0
M  V30 13794 H 1262.44 3.62199 1.07796 0
M  V30 13795 H 1262.75 7.561 1.59788 0
M  V30 13796 H 1261.09 6.79837 1.44382 0
M  V30 13797 H 1264.28 4.50983 1.25429 0
M  V30 13798 H 1264.46 6.30599 1.4916 0
M  V30 13799 N 1257.86 -0.571685 1.46866 0
M  V30 13800 C 1259.09 -1.35327 1.56109 0
M  V30 13801 C 1259.5 -1.88086 0.20504 0
M  V30 13802 O 1258.84 -1.64896 -0.809626 0
M  V30 13803 C 1258.91 -2.56939 2.51441 0
M  V30 13804 C 1258.57 -2.2557 3.97451 0
M  V30 13805 C 1259.57 -1.83737 4.86351 0
M  V30 13806 C 1257.25 -2.37375 4.42672 0
M  V30 13807 C 1259.25 -1.54118 6.18487 0
M  V30 13808 C 1256.93 -2.07368 5.7484 0
M  V30 13809 C 1257.93 -1.65806 6.62569 0
M  V30 13810 O 1257.62 -1.36173 7.92283 0
M  V30 13811 H 1257.35 -0.419368 0.530194 0
M  V30 13812 H 1259.91 -0.700859 1.93073 0
M  V30 13813 H 1258.14 -3.25023 2.09517 0
M  V30 13814 H 1259.82 -3.19012 2.5097 0
M  V30 13815 H 1260.59 -1.74122 4.52666 0
M  V30 13816 H 1256.47 -2.68686 3.74605 0
M  V30 13817 H 1260.01 -1.21603 6.8692 0
M  V30 13818 H 1255.91 -2.16611 6.08071 0
M  V30 13819 H 1256.68 -1.49926 8.04652 0
M  V30 13820 N 1259.34 -1.34755 -0.817236 0
M  V30 13821 C 1260.59 -1.26771 -1.56882 0
M  V30 13822 C 1260.9 0.158962 -1.94953 0
M  V30 13823 O 1262.11 0.360996 -2.69089 0
M  V30 13824 C 1260.57 -2.22261 -2.83069 0
M  V30 13825 C 1260.17 -3.70216 -2.52277 0
M  V30 13826 C 1261.92 -2.23197 -3.61086 0
M  V30 13827 C 1259.82 -4.57559 -3.74691 0
M  V30 13828 H 1258.75 -0.470961 -0.588822 0
M  V30 13829 H 1261.41 -1.59955 -0.899254 0
M  V30 13830 H 1259.79 -1.82036 -3.5168 0
M  V30 13831 H 1260.96 -4.19014 -1.9174 0
M  V30 13832 H 1259.28 -3.71784 -1.87525 0
M  V30 13833 H 1261.87 -2.85673 -4.5199 0
M  V30 13834 H 1262.22 -1.2328 -3.97628 0
M  V30 13835 H 1262.75 -2.61897 -2.99424 0
M  V30 13836 H 1259.49 -5.58434 -3.43267 0
M  V30 13837 H 1259.01 -4.13494 -4.34491 0
M  V30 13838 H 1260.69 -4.72451 -4.42039 0
M  V30 13839 N 1260.82 1.03812 -1.18578 0
M  V30 13840 C 1262.05 1.80702 -1.00769 0
M  V30 13841 C 1262.46 1.83509 0.443833 0
M  V30 13842 O 1261.82 1.2724 1.30829 0
M  V30 13843 C 1261.87 3.26185 -1.55838 0
M  V30 13844 O 1261.59 3.23612 -2.95308 0
M  V30 13845 C 1263.09 4.1971 -1.42682 0
M  V30 13846 H 1260.31 0.568972 -0.355685 0
M  V30 13847 H 1262.86 1.30817 -1.57185 0
M  V30 13848 H 1261.01 3.73293 -1.03592 0
M  V30 13849 H 1261.43 4.14769 -3.2104 0
M  V30 13850 H 1262.9 5.19716 -1.86008 0
M  V30 13851 H 1263.38 4.37588 -0.375924 0
M  V30 13852 H 1263.98 3.78469 -1.94013 0
M  V30 13853 N 1262.3 0.988223 1.22768 0
M  V30 13854 C 1263.54 0.662441 1.91676 0
M  V30 13855 C 1263.88 -0.802931 1.76824 0
M  V30 13856 O 1263.15 -1.58011 1.13415 0
M  V30 13857 C 1263.43 1.06332 3.44043 0
M  V30 13858 C 1263.29 2.5869 3.67967 0
M  V30 13859 C 1264.61 0.613058 4.35809 0
M  V30 13860 H 1261.73 0.242132 0.69609 0
M  V30 13861 H 1264.37 1.23091 1.44736 0
M  V30 13862 H 1262.52 0.579623 3.84152 0
M  V30 13863 H 1264.19 3.14694 3.37291 0
M  V30 13864 H 1262.43 3.00971 3.12408 0
M  V30 13865 H 1263.1 2.8179 4.74656 0
M  V30 13866 H 1265.58 1.02846 4.0319 0
M  V30 13867 H 1264.46 0.921901 5.41103 0
M  V30 13868 H 1264.72 -0.48641 4.39416 0
M  V30 13869 N 1263.78 -1.38018 0.760839 0
M  V30 13870 C 1264.73 -2.27717 0.113521 0
M  V30 13871 C 1265.71 -1.45562 -0.685613 0
M  V30 13872 O 1266.9 -1.68226 -0.550377 0
M  V30 13873 C 1264.03 -3.34478 -0.77325 0
M  V30 13874 C 1263.12 -4.24087 0.0331238 0
M  V30 13875 N 1263.51 -4.94283 1.07323 0
M  V30 13876 C 1261.81 -4.45584 -0.192565 0
M  V30 13877 C 1262.51 -5.60344 1.56172 0
M  V30 13878 N 1261.48 -5.36499 0.875768 0
M  V30 13879 H 1265.28 -2.79456 0.910021 0
M  V30 13880 H 1262.8 -1.51006 0.597561 0
M  V30 13881 H 1264.8 -3.97635 -1.25268 0
M  V30 13882 H 1263.46 -2.84296 -1.56862 0
M  V30 13883 H 1264.47 -4.97036 1.45517 0
M  V30 13884 H 1261.14 -4.06296 -0.960704 0
M  V30 13885 H 1262.53 -6.26477 2.42851 0
M  V30 13886 N 1265.25 -0.510493 -1.49103 0
M  V30 13887 C 1266.2 0.262848 -2.29298 0
M  V30 13888 C 1267.17 0.951714 -1.36131 0
M  V30 13889 O 1268.36 0.956534 -1.65091 0
M  V30 13890 C 1265.5 1.31565 -3.19037 0
M  V30 13891 C 1264.61 0.637598 -4.27269 0
M  V30 13892 C 1263.74 1.67165 -5.04212 0
M  V30 13893 C 1262.78 0.975992 -6.04269 0
M  V30 13894 N 1261.92 1.95468 -6.74342 0
M  V30 13895 H 1266.76 -0.427246 -2.94921 0
M  V30 13896 H 1264.3 -0.222538 -1.45407 0
M  V30 13897 H 1266.25 1.93813 -3.69449 0
M  V30 13898 H 1264.88 1.97438 -2.55379 0
M  V30 13899 H 1263.94 -0.0983863 -3.80273 0
M  V30 13900 H 1265.25 0.0904435 -4.98718 0
M  V30 13901 H 1264.4 2.36893 -5.5854 0
M  V30 13902 H 1263.14 2.25267 -4.32557 0
M  V30 13903 H 1262.15 0.264534 -5.49163 0
M  V30 13904 H 1263.37 0.40134 -6.77913 0
M  V30 13905 H 1261.32 2.52515 -6.05452 0
M  V30 13906 H 1261.23 1.45845 -7.41799 0
M  V30 13907 H 1262.5 2.64455 -7.33269 0
M  V30 13908 N 1266.73 1.55688 -0.24474 0
M  V30 13909 C 1267.96 2.03743 0.387776 0
M  V30 13910 C 1268.38 1.1229 1.50906 0
M  V30 13911 O 1267.74 0.115445 1.80932 0
M  V30 13912 C 1267.79 3.49825 0.874927 0
M  V30 13913 O 1266.89 3.61504 1.98466 0
M  V30 13914 H 1266.23 0.658561 0.0848107 0
M  V30 13915 H 1268.76 2.01224 -0.370165 0
M  V30 13916 H 1268.77 3.90603 1.17871 0
M  V30 13917 H 1267.45 4.15864 0.0543852 0
M  V30 13918 H 1266.02 3.32622 1.68574 0
M  V30 13919 N 1268.21 -0.0283989 1.57574 0
M  V30 13920 C 1269.14 -1.02828 2.09639 0
M  V30 13921 C 1270.12 -1.37668 0.999076 0
M  V30 13922 O 1271.31 -1.4654 1.27435 0
M  V30 13923 C 1268.44 -2.329 2.57633 0
M  V30 13924 C 1267.39 -2.12301 3.71635 0
M  V30 13925 C 1266.72 -3.48138 4.05837 0
M  V30 13926 C 1268.02 -1.50864 5.00037 0
M  V30 13927 H 1269.71 -0.594876 2.93431 0
M  V30 13928 H 1267.26 -0.284701 1.41158 0
M  V30 13929 H 1269.21 -3.03179 2.92678 0
M  V30 13930 H 1267.93 -2.78302 1.70926 0
M  V30 13931 H 1266.59 -1.44454 3.3694 0
M  V30 13932 H 1266.24 -3.9119 3.16195 0
M  V30 13933 H 1265.94 -3.3518 4.82626 0
M  V30 13934 H 1267.46 -4.19779 4.43417 0
M  V30 13935 H 1268.88 -2.11062 5.33035 0
M  V30 13936 H 1267.27 -1.48479 5.81441 0
M  V30 13937 H 1268.34 -0.474541 4.82572 0
M  V30 13938 N 1269.69 -1.54705 -0.300681 0
M  V30 13939 C 1270.94 -1.73211 -1.03349 0
M  V30 13940 C 1271.25 -0.52518 -1.88418 0
M  V30 13941 O 1272.46 -0.592049 -2.64966 0
M  V30 13942 C 1270.91 -3.06453 -1.88717 0
M  V30 13943 C 1270.52 -4.34625 -1.0865 0
M  V30 13944 C 1272.26 -3.34317 -2.61595 0
M  V30 13945 C 1270.17 -5.58919 -1.93297 0
M  V30 13946 H 1269.1 -0.64556 -0.389574 0
M  V30 13947 H 1271.75 -1.81186 -0.290472 0
M  V30 13948 H 1270.13 -2.92443 -2.67008 0
M  V30 13949 H 1271.31 -4.59471 -0.349707 0
M  V30 13950 H 1269.62 -4.13699 -0.473521 0
M  V30 13951 H 1272.22 -4.2438 -3.25278 0
M  V30 13952 H 1272.56 -2.53207 -3.30442 0
M  V30 13953 H 1273.1 -3.493 -1.90354 0
M  V30 13954 H 1269.83 -6.42697 -1.2892 0
M  V30 13955 H 1269.35 -5.38258 -2.64647 0
M  V30 13956 H 1271.03 -5.96187 -2.51336 0
M  V30 13957 N 1271.17 0.563888 -1.47167 0
M  V30 13958 C 1272.41 1.32136 -1.53448 0
M  V30 13959 C 1272.74 1.9353 -0.19396 0
M  V30 13960 O 1272 1.78038 0.812456 0
M  V30 13961 C 1272.3 2.45678 -2.59571 0
M  V30 13962 C 1271.96 2.02157 -4.03043 0
M  V30 13963 C 1270.62 1.90003 -4.421 0
M  V30 13964 C 1272.98 1.68846 -4.93093 0
M  V30 13965 C 1270.3 1.42825 -5.6905 0
M  V30 13966 C 1272.66 1.2314 -6.20499 0
M  V30 13967 C 1271.32 1.09578 -6.58444 0
M  V30 13968 H 1270.59 0.483519 -0.561507 0
M  V30 13969 H 1273.24 0.633042 -1.80734 0
M  V30 13970 H 1271.54 3.20037 -2.26017 0
M  V30 13971 H 1273.24 3.03871 -2.61655 0
M  V30 13972 H 1269.83 2.12557 -3.7218 0
M  V30 13973 H 1274.01 1.77111 -4.63622 0
M  V30 13974 H 1269.27 1.30983 -5.97205 0
M  V30 13975 H 1273.44 0.964247 -6.89692 0
M  V30 13976 H 1271.07 0.727975 -7.56706 0
M  V30 13977 N 1272.64 1.35187 0.810078 0
M  V30 13978 C 1273.89 1.28454 1.56931 0
M  V30 13979 C 1274.22 -0.141747 1.93682 0
M  V30 13980 O 1273.5 -1.09028 1.61069 0
M  V30 13981 C 1273.78 2.18771 2.86027 0
M  V30 13982 C 1273.63 3.69999 2.55774 0
M  V30 13983 C 1274.95 2.08265 3.87703 0
M  V30 13984 H 1272.07 0.467959 0.569371 0
M  V30 13985 H 1274.71 1.65556 0.932262 0
M  V30 13986 H 1272.86 1.8726 3.40391 0
M  V30 13987 H 1274.54 4.11936 2.07621 0
M  V30 13988 H 1272.78 3.90453 1.89021 0
M  V30 13989 H 1273.45 4.28577 3.47888 0
M  V30 13990 H 1275.93 2.35958 3.42729 0
M  V30 13991 H 1274.8 2.73663 4.75815 0
M  V30 13992 H 1275.06 1.06352 4.29117 0
M  V30 13993 N 1274.12 -1.03182 1.19127 0
M  V30 13994 C 1275.05 -2.13301 0.94999 0
M  V30 13995 C 1276.03 -1.69707 -0.115577 0
M  V30 13996 O 1277.22 -1.94161 0.0388395 0
M  V30 13997 C 1274.35 -3.43902 0.484637 0
M  V30 13998 C 1273.3 -4.01164 1.4917 0
M  V30 13999 C 1272.63 -5.2735 0.883537 0
M  V30 14000 C 1273.93 -4.36311 2.87107 0
M  V30 14001 H 1275.62 -2.33743 1.87095 0
M  V30 14002 H 1273.17 -1.12332 0.900977 0
M  V30 14003 H 1275.12 -4.20308 0.30315 0
M  V30 14004 H 1273.85 -3.23173 -0.471909 0
M  V30 14005 H 1272.5 -3.26849 1.66028 0
M  V30 14006 H 1272.15 -5.02936 -0.0804712 0
M  V30 14007 H 1271.85 -5.66624 1.55599 0
M  V30 14008 H 1273.38 -6.06425 0.71278 0
M  V30 14009 H 1274.79 -5.03666 2.73848 0
M  V30 14010 H 1273.19 -4.86659 3.51117 0
M  V30 14011 H 1274.26 -3.45743 3.39985 0
M  V30 14012 N 1275.6 -0.99472 -1.22242 0
M  V30 14013 C 1276.85 -0.667045 -1.90351 0
M  V30 14014 C 1277.16 0.804615 -1.78284 0
M  V30 14015 O 1278.37 1.24395 -2.41326 0
M  V30 14016 C 1276.82 -1.14256 -3.41282 0
M  V30 14017 C 1276.43 -2.63958 -3.61981 0
M  V30 14018 C 1278.18 -0.889302 -4.1508 0
M  V30 14019 C 1276.08 -3.05103 -5.06622 0
M  V30 14020 H 1275.01 -0.245795 -0.712812 0
M  V30 14021 H 1277.66 -1.20452 -1.38432 0
M  V30 14022 H 1276.05 -0.533203 -3.92394 0
M  V30 14023 H 1277.22 -3.30255 -3.21354 0
M  V30 14024 H 1275.54 -2.87186 -3.01518 0
M  V30 14025 H 1278.13 -1.17239 -5.21689 0
M  V30 14026 H 1278.48 0.174556 -4.15934 0
M  V30 14027 H 1279.01 -1.46095 -3.70002 0
M  V30 14028 H 1275.75 -4.10672 -5.1091 0
M  V30 14029 H 1275.27 -2.4351 -5.48145 0
M  V30 14030 H 1276.95 -2.96506 -5.75059 0
M  V30 14031 N 1277.08 1.37613 -0.768148 0
M  V30 14032 C 1278.32 2.00532 -0.340335 0
M  V30 14033 C 1278.68 1.59885 1.07026 0
M  V30 14034 O 1277.97 0.833239 1.72533 0
M  V30 14035 C 1278.17 3.54952 -0.417608 0
M  V30 14036 C 1278 4.10595 -1.83417 0
M  V30 14037 C 1276.77 4.41708 -2.45402 0
M  V30 14038 C 1278.96 4.31844 -2.79312 0
M  V30 14039 N 1276.95 4.83045 -3.78868 0
M  V30 14040 C 1278.32 4.75751 -3.97569 0
M  V30 14041 C 1280.37 4.13971 -2.76645 0
M  V30 14042 C 1279.07 5.03656 -5.13539 0
M  V30 14043 C 1281.1 4.4301 -3.91786 0
M  V30 14044 C 1280.46 4.87153 -5.08784 0
M  V30 14045 H 1276.56 0.762961 -0.171505 0
M  V30 14046 H 1279.15 1.66984 -1.00121 0
M  V30 14047 H 1277.32 3.87815 0.213071 0
M  V30 14048 H 1279.05 4.04687 0.0319154 0
M  V30 14049 H 1275.8 4.30661 -1.97048 0
M  V30 14050 H 1276.23 5.08028 -4.47478 0
M  V30 14051 H 1280.87 3.79017 -1.87365 0
M  V30 14052 H 1278.59 5.375 -6.03423 0
M  V30 14053 H 1282.17 4.30772 -3.91059 0
M  V30 14054 H 1281.05 5.09192 -5.964 0
M  V30 14055 N 1278.56 0.518393 1.4883 0
M  V30 14056 C 1279.8 -0.0180482 2.04392 0
M  V30 14057 C 1280.16 -1.32666 1.38794 0
M  V30 14058 O 1281.36 -1.94842 1.85176 0
M  V30 14059 C 1279.63 -0.149457 3.57087 0
M  V30 14060 S 1281.19 -0.637636 4.34142 0
M  V30 14061 H 1278.01 0.00651981 0.71097 0
M  V30 14062 H 1280.61 0.69632 1.82679 0
M  V30 14063 H 1279.32 0.807977 4.02368 0
M  V30 14064 H 1278.85 -0.888549 3.83234 0
M  V30 14065 H 1280.86 -1.90406 4.58214 0
M  V30 14066 N 1280.03 -1.55556 0.252993 0
M  V30 14067 C 1280.96 -2.24613 -0.638047 0
M  V30 14068 C 1281.95 -1.22852 -1.1765 0
M  V30 14069 O 1283.13 -1.51519 -1.21472 0
M  V30 14070 C 1280.26 -2.95029 -1.83236 0
M  V30 14071 C 1279.21 -4.03531 -1.42641 0
M  V30 14072 C 1278.54 -4.61404 -2.70204 0
M  V30 14073 C 1279.84 -5.18923 -0.592958 0
M  V30 14074 H 1281.53 -2.99335 -0.0621918 0
M  V30 14075 H 1279.08 -1.43972 -0.0284722 0
M  V30 14076 H 1281.03 -3.42042 -2.46141 0
M  V30 14077 H 1279.76 -2.17805 -2.43369 0
M  V30 14078 H 1278.42 -3.57296 -0.820672 0
M  V30 14079 H 1278.06 -3.80874 -3.28548 0
M  V30 14080 H 1277.76 -5.34652 -2.43764 0
M  V30 14081 H 1279.29 -5.11154 -3.33997 0
M  V30 14082 H 1280.7 -5.62124 -1.12646 0
M  V30 14083 H 1279.1 -5.98598 -0.424358 0
M  V30 14084 H 1280.17 -4.83301 0.393434 0
M  V30 14085 N 1281.51 0.0200419 -1.57587 0
M  V30 14086 C 1282.76 0.710078 -1.89962 0
M  V30 14087 C 1283.09 1.74521 -0.851829 0
M  V30 14088 O 1282.37 1.94052 0.132005 0
M  V30 14089 C 1282.65 1.37145 -3.32961 0
M  V30 14090 C 1282.5 0.349221 -4.48442 0
M  V30 14091 C 1283.82 2.30304 -3.75031 0
M  V30 14092 H 1280.94 0.25667 -0.690862 0
M  V30 14093 H 1283.58 -0.0271362 -1.89981 0
M  V30 14094 H 1281.73 1.99981 -3.33076 0
M  V30 14095 H 1283.4 -0.277916 -4.60462 0
M  V30 14096 H 1281.65 -0.330594 -4.32538 0
M  V30 14097 H 1282.32 0.850636 -5.45406 0
M  V30 14098 H 1284.79 1.77503 -3.7634 0
M  V30 14099 H 1283.67 2.73555 -4.75877 0
M  V30 14100 H 1283.93 3.17364 -3.07786 0
M  V30 14101 N 1282.99 1.54862 0.292472 0
M  V30 14102 C 1284.24 1.73756 1.02429 0
M  V30 14103 C 1284.55 0.535164 1.88137 0
M  V30 14104 O 1285.76 0.606092 2.64648 0
M  V30 14105 C 1284.21 3.0745 1.8709 0
M  V30 14106 C 1283.82 4.35195 1.06343 0
M  V30 14107 C 1285.57 3.357 2.59819 0
M  V30 14108 C 1283.47 5.59936 1.9033 0
M  V30 14109 H 1282.4 0.647617 0.386145 0
M  V30 14110 H 1285.05 1.81338 0.28086 0
M  V30 14111 H 1283.44 2.93855 2.65453 0
M  V30 14112 H 1284.61 4.5965 0.325335 0
M  V30 14113 H 1282.93 4.13944 0.451574 0
M  V30 14114 H 1285.52 4.26099 3.23023 0
M  V30 14115 H 1285.87 2.54956 3.29094 0
M  V30 14116 H 1286.4 3.50304 1.88499 0
M  V30 14117 H 1283.14 6.43372 1.25509 0
M  V30 14118 H 1282.66 5.39654 2.61789 0
M  V30 14119 H 1284.34 5.97512 2.48171 0
M  V30 14120 N 1284.47 -0.556076 1.47464 0
M  V30 14121 C 1285.72 -1.3132 1.54147 0
M  V30 14122 C 1286.04 -1.93425 0.204221 0
M  V30 14123 O 1285.3 -1.78467 -0.803002 0
M  V30 14124 C 1285.6 -2.44298 2.6087 0
M  V30 14125 C 1285.26 -2.00016 4.04109 0
M  V30 14126 C 1283.93 -1.87656 4.43101 0
M  V30 14127 C 1286.28 -1.66228 4.93981 0
M  V30 14128 C 1283.61 -1.39805 5.698 0
M  V30 14129 C 1285.96 -1.19848 6.21144 0
M  V30 14130 C 1284.62 -1.06084 6.59016 0
M  V30 14131 H 1283.89 -0.480534 0.564064 0
M  V30 14132 H 1286.54 -0.623449 1.81067 0
M  V30 14133 H 1284.84 -3.18834 2.27711 0
M  V30 14134 H 1286.54 -3.02479 2.63263 0
M  V30 14135 H 1283.13 -2.1058 3.73302 0
M  V30 14136 H 1287.31 -1.7465 4.64555 0
M  V30 14137 H 1282.57 -1.27814 5.97891 0
M  V30 14138 H 1286.74 -0.927657 6.90194 0
M  V30 14139 H 1284.37 -0.687834 7.57082 0
M  V30 14140 N 1285.95 -1.35615 -0.802897 0
M  V30 14141 C 1286.88 -1.31506 -1.92947 0
M  V30 14142 C 1287.86 -0.188843 -1.69048 0
M  V30 14143 O 1289.04 -0.384384 -1.90358 0
M  V30 14144 C 1286.17 -1.09001 -3.29752 0
M  V30 14145 C 1285.13 -2.18303 -3.68141 0
M  V30 14146 C 1284.45 -1.80959 -5.03148 0
M  V30 14147 C 1285.75 -3.60296 -3.78132 0
M  V30 14148 H 1287.45 -2.25771 -1.96642 0
M  V30 14149 H 1284.99 -1.08682 -0.944685 0
M  V30 14150 H 1286.95 -1.04766 -4.08169 0
M  V30 14151 H 1285.67 -0.111832 -3.26408 0
M  V30 14152 H 1284.33 -2.21642 -2.92011 0
M  V30 14153 H 1283.98 -0.817495 -4.96312 0
M  V30 14154 H 1283.68 -2.54129 -5.29804 0
M  V30 14155 H 1285.2 -1.78255 -5.84001 0
M  V30 14156 H 1286.62 -3.59259 -4.46773 0
M  V30 14157 H 1285.01 -4.32258 -4.16261 0
M  V30 14158 H 1286.08 -3.9618 -2.79588 0
M  V30 14159 N 1287.43 1.02549 -1.19673 0
M  V30 14160 C 1288.39 2.09064 -0.939407 0
M  V30 14161 C 1289.39 1.60593 0.0814837 0
M  V30 14162 O 1290.58 1.73521 -0.153626 0
M  V30 14163 C 1287.71 3.38395 -0.412513 0
M  V30 14164 H 1288.9 2.33325 -1.88413 0
M  V30 14165 H 1286.46 1.19211 -1.01086 0
M  V30 14166 H 1287.19 3.19805 0.538094 0
M  V30 14167 H 1286.98 3.74898 -1.14863 0
M  V30 14168 H 1288.47 4.16841 -0.251678 0
M  V30 14169 N 1288.9 1.00119 1.21713 0
M  V30 14170 C 1289.81 0.567582 2.27631 0
M  V30 14171 C 1290.83 -0.387593 1.69628 0
M  V30 14172 O 1292.01 -0.252372 1.99813 0
M  V30 14173 C 1289.07 -0.102745 3.46548 0
M  V30 14174 C 1288.13 0.896433 4.19836 0
M  V30 14175 C 1287.36 0.258 5.33076 0
M  V30 14176 O 1287.59 -0.946118 5.62499 0
M  V30 14177 O 1286.52 0.967021 5.94081 0
M  V30 14178 H 1290.35 1.44898 2.66905 0
M  V30 14179 H 1287.93 0.769862 1.28037 0
M  V30 14180 H 1289.81 -0.477846 4.18682 0
M  V30 14181 H 1288.49 -0.958576 3.09181 0
M  V30 14182 H 1287.4 1.32262 3.49939 0
M  V30 14183 H 1288.73 1.72173 4.61104 0
M  V30 14184 N 1290.38 -1.37203 0.775435 0
M  V30 14185 C 1291.63 -1.99897 0.341936 0
M  V30 14186 C 1291.96 -1.61414 -1.07978 0
M  V30 14187 O 1291.24 -0.862108 -1.7435 0
M  V30 14188 C 1291.52 -3.56755 0.489715 0
M  V30 14189 C 1291.37 -4.05135 1.95411 0
M  V30 14190 C 1292.69 -4.39978 -0.103779 0
M  V30 14191 H 1289.81 -0.726199 0.125717 0
M  V30 14192 H 1292.45 -1.62826 0.979167 0
M  V30 14193 H 1290.6 -3.88464 -0.0527684 0
M  V30 14194 H 1292.27 -3.83975 2.55658 0
M  V30 14195 H 1290.52 -3.57192 2.46164 0
M  V30 14196 H 1291.19 -5.14161 2.00855 0
M  V30 14197 H 1293.66 -4.14547 0.359134 0
M  V30 14198 H 1292.54 -5.48892 0.0297337 0
M  V30 14199 H 1292.8 -4.25658 -1.19448 0
M  V30 14200 N 1291.86 -0.526279 -1.48553 0
M  V30 14201 C 1292.82 0.227739 -2.28066 0
M  V30 14202 C 1293.82 0.871146 -1.35158 0
M  V30 14203 O 1295.01 0.731769 -1.58085 0
M  V30 14204 C 1292.14 1.32918 -3.1392 0
M  V30 14205 H 1293.34 -0.470313 -2.96189 0
M  V30 14206 H 1290.89 -0.282089 -1.53733 0
M  V30 14207 H 1291.63 2.0606 -2.50419 0
M  V30 14208 H 1291.41 0.872991 -3.82258 0
M  V30 14209 H 1292.9 1.85964 -3.73908 0
M  V30 14210 N 1293.34 1.5542 -0.261239 0
M  V30 14211 C 1294.3 2.20683 0.619011 0
M  V30 14212 C 1295.3 1.18042 1.09192 0
M  V30 14213 O 1296.49 1.43035 0.99432 0
M  V30 14214 C 1293.62 2.86179 1.85242 0
M  V30 14215 H 1294.82 2.99859 0.0493924 0
M  V30 14216 H 1292.37 1.56296 -0.0117687 0
M  V30 14217 H 1293.1 2.10978 2.4629 0
M  V30 14218 H 1292.89 3.61381 1.52138 0
M  V30 14219 H 1294.38 3.36081 2.47869 0
M  V30 14220 N 1294.82 -0.0116844 1.57596 0
M  V30 14221 C 1296.04 -0.713924 1.94725 0
M  V30 14222 C 1296.47 -1.67157 0.862565 0
M  V30 14223 O 1295.82 -1.80401 -0.180308 0
M  V30 14224 C 1295.87 -1.43214 3.30941 0
M  V30 14225 O 1294.98 -2.5461 3.24419 0
M  V30 14226 H 1294.32 -0.190772 0.636005 0
M  V30 14227 H 1296.85 0.0380247 2.04565 0
M  V30 14228 H 1296.86 -1.79819 3.66237 0
M  V30 14229 H 1295.53 -0.729906 4.09445 0
M  V30 14230 H 1294.11 -2.20419 3.00782 0
M  V30 14231 N 1296.29 -1.55015 -0.284256 0
M  V30 14232 C 1297.22 -1.90128 -1.3555 0
M  V30 14233 C 1298.2 -0.761914 -1.52082 0
M  V30 14234 O 1299.39 -1.01909 -1.65312 0
M  V30 14235 C 1296.52 -2.16332 -2.71695 0
M  V30 14236 C 1295.47 -3.32166 -2.69907 0
M  V30 14237 C 1294.8 -3.43824 -4.09498 0
M  V30 14238 C 1296.1 -4.6885 -2.30168 0
M  V30 14239 H 1297.79 -2.79852 -1.06411 0
M  V30 14240 H 1295.34 -1.34649 -0.510451 0
M  V30 14241 H 1297.29 -2.39482 -3.46737 0
M  V30 14242 H 1296.02 -1.23395 -3.02392 0
M  V30 14243 H 1294.68 -3.08965 -1.97322 0
M  V30 14244 H 1294.32 -2.48375 -4.374 0
M  V30 14245 H 1294.02 -4.21698 -4.092 0
M  V30 14246 H 1295.55 -3.69254 -4.86296 0
M  V30 14247 H 1296.96 -4.91619 -2.9493 0
M  V30 14248 H 1295.36 -5.49558 -2.41052 0
M  V30 14249 H 1296.43 -4.68433 -1.25294 0
M  V30 14250 N 1297.77 0.548248 -1.47757 0
M  V30 14251 C 1299.02 1.30694 -1.55071 0
M  V30 14252 C 1299.35 1.92994 -0.216075 0
M  V30 14253 O 1298.63 1.78341 0.776196 0
M  V30 14254 C 1298.91 2.41024 -2.67543 0
M  V30 14255 C 1298.76 1.83534 -4.10652 0
M  V30 14256 C 1300.08 3.42902 -2.75874 0
M  V30 14257 H 1297.2 0.47383 -0.564494 0
M  V30 14258 H 1299.84 0.612628 -1.79852 0
M  V30 14259 H 1297.99 3.00248 -2.46543 0
M  V30 14260 H 1299.66 1.28503 -4.4304 0
M  V30 14261 H 1297.91 1.14161 -4.18509 0
M  V30 14262 H 1298.58 2.63335 -4.85138 0
M  V30 14263 H 1301.05 2.9361 -2.94843 0
M  V30 14264 H 1299.93 4.17516 -3.5633 0
M  V30 14265 H 1300.19 4.02314 -1.83291 0
M  V30 14266 N 1299.25 1.36039 0.795694 0
M  V30 14267 C 1300.5 1.30112 1.5556 0
M  V30 14268 C 1300.83 -0.121197 1.93821 0
M  V30 14269 O 1300.1 -1.07313 1.62216 0
M  V30 14270 C 1300.39 2.21792 2.8369 0
M  V30 14271 C 1300.24 3.72691 2.51836 0
M  V30 14272 C 1301.56 2.12365 3.85472 0
M  V30 14273 H 1298.68 0.473971 0.564376 0
M  V30 14274 H 1301.32 1.66536 0.91465 0
M  V30 14275 H 1299.47 1.9086 3.38386 0
M  V30 14276 H 1301.14 4.14115 2.0324 0
M  V30 14277 H 1299.38 3.92436 1.84869 0
M  V30 14278 H 1300.06 4.32242 3.43323 0
M  V30 14279 H 1302.53 2.3958 3.40207 0
M  V30 14280 H 1301.41 2.78695 4.72885 0
M  V30 14281 H 1301.67 1.10898 4.27965 0
M  V30 14282 N 1300.73 -1.01913 1.20215 0
M  V30 14283 C 1301.66 -2.12282 0.97256 0
M  V30 14284 C 1302.64 -1.6982 -0.0975709 0
M  V30 14285 O 1303.82 -1.94109 0.0594307 0
M  V30 14286 C 1300.95 -3.43369 0.521085 0
M  V30 14287 C 1299.91 -3.99559 1.53417 0
M  V30 14288 C 1299.23 -5.26383 0.93942 0
M  V30 14289 C 1300.53 -4.33241 2.91718 0
M  V30 14290 H 1302.23 -2.31746 1.89563 0
M  V30 14291 H 1299.77 -1.1137 0.912841 0
M  V30 14292 H 1301.73 -4.19963 0.347713 0
M  V30 14293 H 1300.45 -3.23655 -0.437605 0
M  V30 14294 H 1299.11 -3.25069 1.69486 0
M  V30 14295 H 1298.76 -5.02993 -0.0271236 0
M  V30 14296 H 1298.46 -5.64942 1.616 0
M  V30 14297 H 1299.98 -6.05635 0.777059 0
M  V30 14298 H 1301.4 -5.00734 2.79175 0
M  V30 14299 H 1299.79 -4.82907 3.56259 0
M  V30 14300 H 1300.86 -3.42118 3.43633 0
M  V30 14301 N 1302.21 -1.00763 -1.2118 0
M  V30 14302 C 1303.45 -0.702542 -1.90882 0
M  V30 14303 C 1303.81 0.758686 -1.7681 0
M  V30 14304 O 1303.1 1.54313 -1.1357 0
M  V30 14305 C 1303.29 -1.06187 -3.41261 0
M  V30 14306 C 1303.12 -2.55648 -3.69965 0
M  V30 14307 C 1301.89 -3.2229 -3.89175 0
M  V30 14308 C 1304.09 -3.53814 -3.73256 0
M  V30 14309 N 1302.07 -4.61075 -4.05319 0
M  V30 14310 C 1303.44 -4.7812 -3.94716 0
M  V30 14311 C 1305.5 -3.47913 -3.56175 0
M  V30 14312 C 1304.2 -5.97242 -4.00867 0
M  V30 14313 C 1306.23 -4.66427 -3.63593 0
M  V30 14314 C 1305.59 -5.89539 -3.85517 0
M  V30 14315 H 1301.69 -0.3086 -0.718533 0
M  V30 14316 H 1304.27 -1.29063 -1.45776 0
M  V30 14317 H 1302.44 -0.502205 -3.8514 0
M  V30 14318 H 1304.18 -0.711246 -3.98401 0
M  V30 14319 H 1300.93 -2.7273 -3.87189 0
M  V30 14320 H 1301.36 -5.33105 -4.17287 0
M  V30 14321 H 1306 -2.53735 -3.38199 0
M  V30 14322 H 1303.72 -6.9181 -4.17642 0
M  V30 14323 H 1307.3 -4.63467 -3.51695 0
M  V30 14324 H 1306.18 -6.79711 -3.91104 0
M  V30 14325 N 1303.68 1.3679 -0.7827 0
M  V30 14326 C 1304.61 2.32721 -0.190604 0
M  V30 14327 C 1305.6 1.56321 0.670663 0
M  V30 14328 O 1306.78 1.84507 0.605871 0
M  V30 14329 C 1303.91 3.40564 0.680717 0
M  V30 14330 C 1302.86 4.27925 -0.080118 0
M  V30 14331 C 1302.19 5.26876 0.911361 0
M  V30 14332 C 1303.49 5.06738 -1.26545 0
M  V30 14333 H 1305.18 2.82488 -0.992023 0
M  V30 14334 H 1302.73 1.35818 -0.478484 0
M  V30 14335 H 1304.68 4.06659 1.10482 0
M  V30 14336 H 1303.41 2.89348 1.51477 0
M  V30 14337 H 1302.07 3.63376 -0.485125 0
M  V30 14338 H 1301.71 4.71936 1.74026 0
M  V30 14339 H 1301.41 5.8619 0.406762 0
M  V30 14340 H 1302.94 5.95846 1.33418 0
M  V30 14341 H 1304.35 5.65911 -0.917448 0
M  V30 14342 H 1302.75 5.75432 -1.70289 0
M  V30 14343 H 1303.82 4.38772 -2.06415 0
M  V30 14344 N 1305.16 0.53415 1.48272 0
M  V30 14345 C 1306.09 -0.215037 2.32508 0
M  V30 14346 C 1307.07 -0.931083 1.42355 0
M  V30 14347 O 1308.26 -0.916051 1.71237 0
M  V30 14348 C 1305.39 -1.25985 3.23643 0
M  V30 14349 C 1304.34 -0.661692 4.22854 0
M  V30 14350 C 1303.67 -1.80946 5.03153 0
M  V30 14351 C 1304.97 0.369358 5.20992 0
M  V30 14352 H 1306.66 0.488158 2.95394 0
M  V30 14353 H 1304.21 0.236206 1.4205 0
M  V30 14354 H 1306.16 -1.79195 3.81402 0
M  V30 14355 H 1304.89 -1.99268 2.58766 0
M  V30 14356 H 1303.54 -0.151082 3.66289 0
M  V30 14357 H 1303.19 -2.53077 4.34696 0
M  V30 14358 H 1302.89 -1.41513 5.70305 0
M  V30 14359 H 1304.42 -2.34526 5.63764 0
M  V30 14360 H 1305.83 -0.0758076 5.7325 0
M  V30 14361 H 1304.23 0.681301 5.9622 0
M  V30 14362 H 1305.3 1.27363 4.67875 0
M  V30 14363 N 1306.64 -1.55279 0.269478 0
M  V30 14364 C 1307.89 -1.99077 -0.348224 0
M  V30 14365 C 1308.21 -1.15925 -1.568 0
M  V30 14366 O 1307.48 -0.247404 -1.94331 0
M  V30 14367 H 1306.06 -0.735307 -0.131653 0
M  V30 14368 H 1308.72 -1.91288 0.373506 0
M  V30 14369 H 1307.82 -3.05427 -0.641953 0
M  V30 14370 N 1308.12 0.00332656 -1.576 0
M  V30 14371 C 1309.07 1.01406 -2.09331 0
M  V30 14372 C 1310.06 1.35806 -1.01258 0
M  V30 14373 O 1311.27 1.34409 -1.19726 0
M  V30 14374 H 1307.64 0.344661 -0.668366 0
M  V30 14375 H 1309.61 0.552154 -2.93247 0
M  V30 14376 C 1308.36 2.29819 -2.60918 0
M  V30 14377 H 1307.68 2.04216 -3.43709 0
M  V30 14378 H 1309.12 2.98826 -3.00797 0
M  V30 14379 C 1307.58 3.0057 -1.52182 0
M  V30 14380 O 1308.11 3.91423 -0.902817 0
M  V30 14381 N 1306.32 2.62338 -1.25009 0
M  V30 14382 H 1305.87 1.88538 -1.75531 0
M  V30 14383 H 1305.82 3.0999 -0.524736 0
M  V30 14384 N 1309.6 1.55164 0.276031 0
M  V30 14385 C 1310.82 1.79649 1.02635 0
M  V30 14386 C 1311.24 0.568289 1.80044 0
M  V30 14387 O 1310.6 -0.462569 1.7654 0
M  V30 14388 C 1310.65 3.01974 1.98731 0
M  V30 14389 O 1310.37 4.2005 1.24459 0
M  V30 14390 C 1311.87 3.39039 2.856 0
M  V30 14391 H 1309.09 0.598529 0.303321 0
M  V30 14392 H 1311.63 2.02171 0.307733 0
M  V30 14393 H 1309.79 2.81586 2.6606 0
M  V30 14394 H 1310.2 4.89185 1.89205 0
M  V30 14395 H 1311.68 4.27809 3.48831 0
M  V30 14396 H 1312.15 2.58306 3.55211 0
M  V30 14397 H 1312.76 3.61674 2.23767 0
M  V30 14398 N 1311.07 -0.540404 1.48045 0
M  V30 14399 C 1312.49 -1.12243 1.49192 0
M  V30 14400 C 1312.84 -1.94524 0.255895 0
M  V30 14401 O 1311.96 -2.06786 -0.637855 0
M  V30 14402 C 1312.56 -2.04227 2.70327 0
M  V30 14403 C 1311.12 -2.57668 2.7438 0
M  V30 14404 C 1310.26 -1.34402 2.42552 0
M  V30 14405 H 1313.21 -0.326165 1.55312 0
M  V30 14406 H 1313.23 -2.88359 2.48253 0
M  V30 14407 H 1312.75 -1.44314 3.60271 0
M  V30 14408 H 1310.85 -3.21331 1.88618 0
M  V30 14409 H 1310.96 -2.97514 3.7553 0
M  V30 14410 H 1309.32 -1.65635 1.93487 0
M  V30 14411 H 1310.11 -0.762571 3.34723 0
M  V30 14412 N 1312.55 -1.36459 -0.788468 0
M  V30 14413 C 1313.48 -1.33545 -1.91541 0
M  V30 14414 C 1314.46 -0.206762 -1.68839 0
M  V30 14415 O 1315.65 -0.404553 -1.89939 0
M  V30 14416 C 1312.78 -1.12492 -3.28577 0
M  V30 14417 C 1311.73 -2.22196 -3.65805 0
M  V30 14418 C 1311.06 -1.86285 -5.01201 0
M  V30 14419 C 1312.36 -3.64286 -3.7429 0
M  V30 14420 H 1314.05 -2.27844 -1.94236 0
M  V30 14421 H 1311.6 -1.09677 -0.933105 0
M  V30 14422 H 1313.55 -1.09089 -4.07035 0
M  V30 14423 H 1312.28 -0.146446 -3.26272 0
M  V30 14424 H 1310.93 -2.24727 -2.89644 0
M  V30 14425 H 1310.58 -0.87009 -4.95417 0
M  V30 14426 H 1310.28 -2.59734 -5.27079 0
M  V30 14427 H 1311.81 -1.84439 -5.82078 0
M  V30 14428 H 1313.22 -3.63977 -4.42937 0
M  V30 14429 H 1311.62 -4.36648 -4.11653 0
M  V30 14430 H 1312.69 -3.99123 -2.75371 0
M  V30 14431 N 1314.03 1.01274 -1.20754 0
M  V30 14432 C 1314.96 2.10029 -0.917628 0
M  V30 14433 C 1315.98 1.62516 0.0961411 0
M  V30 14434 O 1317.16 1.77986 -0.135371 0
M  V30 14435 C 1314.26 3.37037 -0.354891 0
M  V30 14436 C 1313.44 4.1367 -1.42113 0
M  V30 14437 C 1312.5 5.18974 -0.869023 0
M  V30 14438 O 1311.52 5.47671 -1.55063 0
M  V30 14439 N 1312.72 5.79619 0.319631 0
M  V30 14440 H 1315.49 2.35485 -1.85383 0
M  V30 14441 H 1313.05 1.17695 -1.11173 0
M  V30 14442 H 1315.04 4.0469 0.0286895 0
M  V30 14443 H 1313.61 3.088 0.485956 0
M  V30 14444 H 1312.83 3.40931 -1.97889 0
M  V30 14445 H 1314.12 4.61649 -2.13911 0
M  V30 14446 H 1313.52 5.58646 0.89059 0
M  V30 14447 H 1312.08 6.48603 0.644807 0
M  V30 14448 N 1315.51 1.01404 1.20644 0
M  V30 14449 C 1316.79 0.617088 1.85611 0
M  V30 14450 C 1317.17 -0.904947 1.9072 0
M  V30 14451 O 1316.51 -1.79562 1.41315 0
M  V30 14452 C 1316.72 1.26193 3.25386 0
M  V30 14453 C 1318.07 1.37575 4.01694 0
M  V30 14454 O 1319.1 1.21795 3.34731 0
M  V30 14455 O 1317.96 1.6305 5.2161 0
M  V30 14456 H 1315.05 0.212579 0.799211 0
M  V30 14457 H 1317.6 1.11126 1.28254 0
M  V30 14458 H 1316.37 2.30206 3.16419 0
M  V30 14459 H 1315.99 0.754679 3.90372 0
M  V30 14460 N 1316.99 -1.36373 0.789944 0
M  V30 14461 C 1317.93 -2.30043 0.186798 0
M  V30 14462 C 1318.9 -1.52002 -0.669663 0
M  V30 14463 O 1320.09 -1.80506 -0.618232 0
M  V30 14464 C 1317.23 -3.38494 -0.671994 0
M  V30 14465 C 1316.34 -4.31522 0.203067 0
M  V30 14466 C 1315.48 -5.27057 -0.662148 0
M  V30 14467 C 1314.52 -6.11725 0.214335 0
M  V30 14468 N 1313.65 -6.99446 -0.609892 0
M  V30 14469 H 1318.49 -2.81038 0.991048 0
M  V30 14470 H 1316.03 -1.38331 0.500288 0
M  V30 14471 H 1317.99 -4.0002 -1.1849 0
M  V30 14472 H 1316.62 -2.88818 -1.44167 0
M  V30 14473 H 1315.67 -3.71146 0.833945 0
M  V30 14474 H 1316.98 -4.91005 0.878389 0
M  V30 14475 H 1316.14 -5.93875 -1.24084 0
M  V30 14476 H 1314.88 -4.6803 -1.37109 0
M  V30 14477 H 1313.88 -5.43868 0.805426 0
M  V30 14478 H 1315.11 -6.72827 0.92089 0
M  V30 14479 H 1313.05 -6.42927 -1.30312 0
M  V30 14480 H 1312.97 -7.56 0.00773786 0
M  V30 14481 H 1314.24 -7.70633 -1.1724 0
M  V30 14482 N 1318.47 -0.542005 -1.47987 0
M  V30 14483 C 1319.71 -0.0122873 -2.02096 0
M  V30 14484 C 1320.03 1.3362 -1.42024 0
M  V30 14485 O 1319.3 1.86807 -0.589911 0
M  V30 14486 H 1317.88 -0.00155365 -0.746998 0
M  V30 14487 H 1320.55 -0.708566 -1.81564 0
M  V30 14488 H 1319.64 0.0871275 -3.11978 0
M  V30 14489 N 1319.94 1.55134 -0.277709 0
M  V30 14490 C 1320.89 2.24057 0.624594 0
M  V30 14491 C 1321.89 1.23848 1.15577 0
M  V30 14492 O 1323.09 1.41771 1.1091 0
M  V30 14493 H 1319.47 0.719106 0.219977 0
M  V30 14494 H 1321.44 2.98393 0.0204815 0
M  V30 14495 C 1320.19 2.97712 1.79618 0
M  V30 14496 H 1319.51 3.74611 1.39665 0
M  V30 14497 H 1320.95 3.49255 2.4041 0
M  V30 14498 C 1319.41 2.03332 2.68622 0
M  V30 14499 O 1319.94 1.58622 3.69056 0
M  V30 14500 N 1318.14 1.69778 2.35847 0
M  V30 14501 H 1317.69 2.06333 1.54222 0
M  V30 14502 H 1317.65 1.06901 2.95668 0
M  V30 14503 N 1321.42 0.00503138 1.57599 0
M  V30 14504 C 1322.65 -0.693231 1.95471 0
M  V30 14505 C 1323.07 -1.66233 0.880246 0
M  V30 14506 O 1322.43 -1.80582 -0.161164 0
M  V30 14507 C 1322.48 -1.39696 3.32442 0
M  V30 14508 O 1321.58 -2.51154 3.27101 0
M  V30 14509 H 1320.92 -0.184015 0.637992 0
M  V30 14510 H 1323.45 0.0597194 2.04513 0
M  V30 14511 H 1323.46 -1.75924 3.68123 0
M  V30 14512 H 1322.14 -0.686438 4.10196 0
M  V30 14513 H 1320.71 -2.17216 3.03103 0
M  V30 14514 N 1322.9 -1.55308 -0.267798 0
M  V30 14515 C 1324.13 -1.80191 -1.01681 0
M  V30 14516 C 1324.54 -0.57783 -1.7974 0
M  V30 14517 O 1323.9 0.4532 -1.76783 0
M  V30 14518 C 1323.95 -3.03023 -1.97127 0
M  V30 14519 O 1323.67 -4.20704 -1.22229 0
M  V30 14520 C 1325.17 -3.40549 -2.83798 0
M  V30 14521 H 1322.39 -0.60013 -0.300142 0
M  V30 14522 H 1324.94 -2.02332 -0.297007 0
M  V30 14523 H 1323.09 -2.82993 -2.64563 0
M  V30 14524 H 1323.51 -4.90181 -1.86608 0
M  V30 14525 H 1324.98 -4.29653 -3.46557 0
M  V30 14526 H 1325.46 -2.60186 -3.53836 0
M  V30 14527 H 1326.06 -3.62856 -2.21846 0
M  V30 14528 N 1324.38 0.532545 -1.4833 0
M  V30 14529 C 1325.33 1.6335 -1.59062 0
M  V30 14530 C 1326.31 1.5454 -0.447905 0
M  V30 14531 O 1327.5 1.62604 -0.699205 0
M  V30 14532 C 1324.63 3.02077 -1.63109 0
M  V30 14533 C 1323.72 3.16 -2.82851 0
M  V30 14534 N 1324.11 2.99905 -4.07297 0
M  V30 14535 C 1322.41 3.47049 -2.8013 0
M  V30 14536 C 1323.11 3.17176 -4.87621 0
M  V30 14537 N 1322.08 3.44634 -4.20391 0
M  V30 14538 H 1325.89 1.49512 -2.53028 0
M  V30 14539 H 1323.4 0.73794 -1.44666 0
M  V30 14540 H 1325.4 3.81158 -1.68891 0
M  V30 14541 H 1324.06 3.17008 -0.702574 0
M  V30 14542 H 1325.07 2.76721 -4.37774 0
M  V30 14543 H 1321.75 3.68354 -1.96524 0
M  V30 14544 H 1323.14 3.09491 -5.96376 0
M  V30 14545 N 1325.86 1.36875 0.78122 0
M  V30 14546 C 1327.08 1.349 1.57533 0
M  V30 14547 C 1327.51 -0.0655249 1.87986 0
M  V30 14548 O 1326.86 -1.03986 1.48515 0
M  V30 14549 C 1326.91 2.18562 2.86815 0
M  V30 14550 O 1326.02 1.58374 3.80777 0
M  V30 14551 H 1325.36 0.461355 0.477543 0
M  V30 14552 H 1327.89 1.80271 0.96766 0
M  V30 14553 H 1327.9 2.31436 3.36008 0
M  V30 14554 H 1326.57 3.21385 2.63978 0
M  V30 14555 H 1325.15 1.54487 3.39394 0
M  V30 14556 N 1327.33 -1.00632 1.21289 0
M  V30 14557 C 1328.75 -1.26744 0.969956 0
M  V30 14558 C 1328.95 -1.98534 -0.344449 0
M  V30 14559 O 1328.01 -2.28687 -1.07044 0
M  V30 14560 C 1329.32 -2.09238 2.15963 0
M  V30 14561 C 1330.87 -2.22469 2.20174 0
M  V30 14562 C 1331.34 -3.08344 3.38656 0
M  V30 14563 N 1332.83 -3.15932 3.38734 0
M  V30 14564 C 1333.57 -3.82632 4.2706 0
M  V30 14565 N 1333.06 -4.51371 5.25582 0
M  V30 14566 N 1334.86 -3.79259 4.14872 0
M  V30 14567 H 1327.01 -0.524626 2.05819 0
M  V30 14568 H 1329.27 -0.294231 0.901184 0
M  V30 14569 H 1328.98 -1.63835 3.11209 0
M  V30 14570 H 1328.85 -3.09987 2.14914 0
M  V30 14571 H 1331.24 -2.67091 1.25485 0
M  V30 14572 H 1331.32 -1.21194 2.25268 0
M  V30 14573 H 1330.96 -2.64425 4.33638 0
M  V30 14574 H 1330.89 -4.0973 3.30801 0
M  V30 14575 H 1333.38 -2.66998 2.67434 0
M  V30 14576 H 1333.7 -4.99966 5.89283 0
M  V30 14577 H 1332.04 -4.50162 5.29508 0
M  V30 14578 H 1335.23 -3.2471 3.37166 0
M  V30 14579 H 1335.41 -4.30963 4.83916 0
M  V30 14580 N 1328.81 -1.02043 -1.20104 0
M  V30 14581 C 1329.76 -0.587332 -2.25063 0
M  V30 14582 C 1330.75 0.375844 -1.65178 0
M  V30 14583 O 1331.96 0.245347 -1.7832 0
M  V30 14584 H 1328.33 -0.171637 -0.732151 0
M  V30 14585 H 1330.31 -1.48339 -2.58917 0
M  V30 14586 C 1329.05 0.0546893 -3.47657 0
M  V30 14587 H 1328.38 -0.677457 -3.94018 0
M  V30 14588 H 1329.82 0.320786 -4.22785 0
M  V30 14589 C 1328.28 1.29869 -3.10863 0
M  V30 14590 O 1328.81 2.39161 -3.22746 0
M  V30 14591 N 1327.01 1.18423 -2.65376 0
M  V30 14592 H 1326.56 0.294895 -2.55906 0
M  V30 14593 H 1326.52 2.01755 -2.41128 0
M  V30 14594 N 1330.29 1.35952 -0.797165 0
M  V30 14595 C 1331.24 2.31831 -0.188958 0
M  V30 14596 C 1332.23 1.56181 0.656042 0
M  V30 14597 O 1333.44 1.71383 0.550259 0
M  V30 14598 H 1329.81 0.750807 -0.0423354 0
M  V30 14599 H 1331.78 2.80683 -1.0129 0
M  V30 14600 C 1330.53 3.41464 0.655547 0
M  V30 14601 H 1329.86 3.99797 0.0146854 0
M  V30 14602 H 1331.3 4.10853 1.04765 0
M  V30 14603 C 1329.76 2.83696 1.81709 0
M  V30 14604 O 1330.29 2.76484 2.91409 0
M  V30 14605 N 1328.49 2.40876 1.62564 0
M  V30 14606 H 1328.04 2.46941 0.733337 0
M  V30 14607 H 1328 2.02572 2.40441 0
M  V30 14608 N 1331.77 0.549846 1.47697 0
M  V30 14609 C 1332.99 0.0256819 2.07384 0
M  V30 14610 C 1333.42 -1.25525 1.4009 0
M  V30 14611 O 1332.78 -1.7501 0.473406 0
M  V30 14612 C 1332.82 -0.160835 3.60241 0
M  V30 14613 O 1331.93 -1.22509 3.93783 0
M  V30 14614 H 1331.27 0.0480204 0.662261 0
M  V30 14615 H 1333.8 0.763429 1.89823 0
M  V30 14616 H 1333.81 -0.377337 4.06251 0
M  V30 14617 H 1332.48 0.774774 4.0862 0
M  V30 14618 H 1331.06 -0.98967 3.59527 0
M  V30 14619 N 1333.25 -1.54984 0.285932 0
M  V30 14620 C 1334.48 -2.03943 -0.330295 0
M  V30 14621 C 1334.88 -1.16336 -1.49207 0
M  V30 14622 O 1334.23 -0.178341 -1.82832 0
M  V30 14623 C 1334.29 -3.48976 -0.863479 0
M  V30 14624 C 1333.95 -4.5668 0.171058 0
M  V30 14625 C 1334.95 -5.10303 0.994329 0
M  V30 14626 C 1332.64 -5.01352 0.308416 0
M  V30 14627 C 1334.63 -6.07126 1.94104 0
M  V30 14628 C 1332.32 -5.97999 1.25859 0
M  V30 14629 C 1333.31 -6.50768 2.0734 0
M  V30 14630 O 1333 -7.45524 3.00749 0
M  V30 14631 H 1332.73 -0.671491 -0.0779452 0
M  V30 14632 H 1335.29 -2.01081 0.419011 0
M  V30 14633 H 1333.52 -3.49113 -1.66305 0
M  V30 14634 H 1335.21 -3.81213 -1.39396 0
M  V30 14635 H 1335.97 -4.76595 0.899002 0
M  V30 14636 H 1331.85 -4.59917 -0.315817 0
M  V30 14637 H 1335.4 -6.48239 2.57743 0
M  V30 14638 H 1331.29 -6.31125 1.35469 0
M  V30 14639 H 1332.06 -7.63276 2.95554 0
M  V30 14640 N 1334.72 -0.0133892 -1.57594 0
M  V30 14641 C 1335.69 0.958601 -2.08191 0
M  V30 14642 C 1336.69 1.26408 -0.993865 0
M  V30 14643 O 1337.88 1.20703 -1.25604 0
M  V30 14644 C 1335.01 2.27971 -2.5346 0
M  V30 14645 H 1336.2 0.520686 -2.95345 0
M  V30 14646 H 1333.76 0.234351 -1.54533 0
M  V30 14647 H 1334.49 2.76424 -1.69588 0
M  V30 14648 H 1334.28 2.07116 -3.32935 0
M  V30 14649 H 1335.77 2.97672 -2.92884 0
M  V30 14650 N 1336.2 1.55448 0.259558 0
M  V30 14651 C 1337.45 1.76948 0.990816 0
M  V30 14652 C 1337.78 0.576401 1.85449 0
M  V30 14653 O 1337.06 -0.425693 1.89784 0
M  V30 14654 C 1337.34 3.08221 1.86204 0
M  V30 14655 C 1337.19 4.37909 1.0274 0
M  V30 14656 C 1338.51 3.35627 2.84679 0
M  V30 14657 H 1335.63 0.64377 0.358788 0
M  V30 14658 H 1338.27 1.88182 0.262211 0
M  V30 14659 H 1336.42 2.98775 2.48326 0
M  V30 14660 H 1338.09 4.5933 0.425855 0
M  V30 14661 H 1336.34 4.32533 0.331308 0
M  V30 14662 H 1337.01 5.26116 1.6705 0
M  V30 14663 H 1339.48 3.44954 2.32693 0
M  V30 14664 H 1338.36 4.28719 3.42769 0
M  V30 14665 H 1338.62 2.55921 3.60496 0
M  V30 14666 N 1337.68 -0.524672 1.4861 0
M  V30 14667 C 1338.93 -1.27671 1.5615 0
M  V30 14668 C 1339.24 -1.94088 0.242709 0
M  V30 14669 O 1340.45 -2.70789 0.196407 0
M  V30 14670 C 1338.9 -2.31686 2.75408 0
M  V30 14671 C 1338.51 -1.71315 4.13951 0
M  V30 14672 C 1340.26 -3.07867 2.92264 0
M  V30 14673 C 1338.16 -2.73302 5.24462 0
M  V30 14674 H 1337.09 -0.480177 0.581332 0
M  V30 14675 H 1339.74 -0.553473 1.74954 0
M  V30 14676 H 1338.13 -3.07069 2.50049 0
M  V30 14677 H 1339.3 -1.02085 4.4935 0
M  V30 14678 H 1337.62 -1.07608 4.02255 0
M  V30 14679 H 1340.21 -3.84088 3.71995 0
M  V30 14680 H 1340.56 -3.64052 2.01921 0
M  V30 14681 H 1341.09 -2.39599 3.17549 0
M  V30 14682 H 1337.83 -2.21929 6.16788 0
M  V30 14683 H 1337.35 -3.40843 4.93544 0
M  V30 14684 H 1339.03 -3.36186 5.528 0
M  V30 14685 N 1339.16 -1.37287 -0.77395 0
M  V30 14686 C 1340.41 -1.31698 -1.52769 0
M  V30 14687 C 1340.72 0.0968585 -1.9536 0
M  V30 14688 O 1341.93 0.275205 -2.70102 0
M  V30 14689 C 1340.38 -2.31154 -2.75854 0
M  V30 14690 C 1339.99 -3.78055 -2.40371 0
M  V30 14691 C 1341.73 -2.34572 -3.53803 0
M  V30 14692 C 1339.64 -4.69248 -3.59945 0
M  V30 14693 H 1338.57 -0.489456 -0.573541 0
M  V30 14694 H 1341.22 -1.62735 -0.84791 0
M  V30 14695 H 1339.6 -1.93132 -3.45711 0
M  V30 14696 H 1340.78 -4.24902 -1.78312 0
M  V30 14697 H 1339.09 -3.77562 -1.75602 0
M  V30 14698 H 1341.69 -2.99908 -4.42673 0
M  V30 14699 H 1342.03 -1.35868 -3.93504 0
M  V30 14700 H 1342.57 -2.7129 -2.90941 0
M  V30 14701 H 1339.31 -5.69072 -3.25327 0
M  V30 14702 H 1338.83 -4.27108 -4.21117 0
M  V30 14703 H 1340.5 -4.86275 -4.26785 0
M  V30 14704 N 1340.64 0.999871 -1.21821 0
M  V30 14705 C 1341.86 1.77405 -1.06467 0
M  V30 14706 C 1342.28 1.84828 0.385227 0
M  V30 14707 O 1341.64 1.31338 1.26714 0
M  V30 14708 C 1341.69 3.21062 -1.66137 0
M  V30 14709 O 1341.41 3.14054 -3.05454 0
M  V30 14710 C 1342.91 4.14958 -1.55963 0
M  V30 14711 H 1340.13 0.557368 -0.373607 0
M  V30 14712 H 1342.67 1.2575 -1.61267 0
M  V30 14713 H 1340.83 3.69808 -1.15416 0
M  V30 14714 H 1341.24 4.04346 -3.34073 0
M  V30 14715 H 1342.72 5.13536 -2.02448 0
M  V30 14716 H 1343.19 4.36171 -0.514949 0
M  V30 14717 H 1343.8 3.72105 -2.05956 0
M  V30 14718 N 1342.11 1.02678 1.19562 0
M  V30 14719 C 1343.34 0.741424 1.93695 0
M  V30 14720 C 1343.76 -0.693203 1.74861 0
M  V30 14721 O 1343.12 -1.47833 1.04953 0
M  V30 14722 C 1343.17 1.09514 3.43568 0
M  V30 14723 O 1342.27 0.212596 4.11852 0
M  V30 14724 H 1341.62 0.274128 0.604773 0
M  V30 14725 H 1344.15 1.37289 1.517 0
M  V30 14726 H 1344.16 1.05115 3.94227 0
M  V30 14727 H 1342.83 2.14034 3.56598 0
M  V30 14728 H 1341.41 0.315 3.71567 0
M  V30 14729 N 1343.59 -1.35528 0.804364 0
M  V30 14730 C 1344.82 -2.03073 0.396091 0
M  V30 14731 C 1345.24 -1.60623 -0.992252 0
M  V30 14732 O 1344.59 -0.802718 -1.63898 0
M  V30 14733 C 1344.64 -3.58467 0.467301 0
M  V30 14734 O 1344.36 -3.99373 1.80091 0
M  V30 14735 C 1345.87 -4.4327 0.0515549 0
M  V30 14736 H 1343.09 -0.651346 0.161212 0
M  V30 14737 H 1345.63 -1.73195 1.08737 0
M  V30 14738 H 1343.78 -3.87001 -0.175703 0
M  V30 14739 H 1344.2 -4.94013 1.76214 0
M  V30 14740 H 1345.67 -5.51789 0.152499 0
M  V30 14741 H 1346.15 -4.27597 -1.00286 0
M  V30 14742 H 1346.76 -4.20027 0.667628 0
M  V30 14743 N 1345.07 -0.557671 -1.47404 0
M  V30 14744 C 1346.3 -0.0366797 -2.07368 0
M  V30 14745 C 1346.72 1.2478 -1.40754 0
M  V30 14746 O 1346.08 1.74757 -0.48268 0
M  V30 14747 C 1346.13 0.141728 -3.60321 0
M  V30 14748 O 1345.23 1.20419 -3.94427 0
M  V30 14749 H 1344.57 -0.0515319 -0.661997 0
M  V30 14750 H 1347.1 -0.773485 -1.89416 0
M  V30 14751 H 1347.11 0.355787 -4.06446 0
M  V30 14752 H 1345.79 -0.796433 -4.08203 0
M  V30 14753 H 1344.36 0.970589 -3.60047 0
M  V30 14754 N 1346.55 1.54831 -0.294147 0
M  V30 14755 C 1347.77 2.04873 0.32276 0
M  V30 14756 C 1348.2 1.17034 1.47257 0
M  V30 14757 O 1347.56 0.172949 1.80473 0
M  V30 14758 C 1347.61 3.52431 0.76319 0
M  V30 14759 O 1346.71 3.67635 1.86865 0
M  V30 14760 H 1346.05 0.660926 0.0638162 0
M  V30 14761 H 1348.58 1.99944 -0.433995 0
M  V30 14762 H 1348.59 3.94155 1.05385 0
M  V30 14763 H 1347.27 4.15827 -0.0779464 0
M  V30 14764 H 1345.84 3.37816 1.57907 0
M  V30 14765 N 1348.03 0.0217466 1.57585 0
M  V30 14766 C 1349.26 -0.667911 1.95506 0
M  V30 14767 C 1349.67 -1.66616 0.89642 0
M  V30 14768 O 1349.01 -1.83232 -0.131059 0
M  V30 14769 C 1349.07 -1.43696 3.29533 0
M  V30 14770 C 1348.73 -0.59787 4.53072 0
M  V30 14771 C 1349.73 0.12372 5.19753 0
M  V30 14772 C 1347.42 -0.53744 4.99417 0
M  V30 14773 C 1349.41 0.894491 6.31092 0
M  V30 14774 C 1347.1 0.237041 6.1064 0
M  V30 14775 C 1348.1 0.95172 6.76337 0
M  V30 14776 O 1347.78 1.71352 7.85426 0
M  V30 14777 H 1347.52 -0.189544 0.648883 0
M  V30 14778 H 1350.07 0.0755682 2.05261 0
M  V30 14779 H 1348.3 -2.22541 3.16247 0
M  V30 14780 H 1349.99 -2.01402 3.52409 0
M  V30 14781 H 1350.75 0.0863208 4.84923 0
M  V30 14782 H 1346.63 -1.08327 4.48092 0
M  V30 14783 H 1350.18 1.45285 6.82304 0
M  V30 14784 H 1346.07 0.276183 6.44909 0
M  V30 14785 H 1346.84 1.63252 8.02054 0
M  V30 14786 N 1349.51 -1.55583 -0.251311 0
M  V30 14787 C 1350.74 -1.80996 -0.99619 0
M  V30 14788 C 1351.14 -0.594534 -1.79616 0
M  V30 14789 O 1350.49 0.446197 -1.78199 0
M  V30 14790 C 1350.55 -2.99691 -1.98559 0
M  V30 14791 C 1350.21 -4.35888 -1.37297 0
M  V30 14792 C 1351.21 -5.14051 -0.777672 0
M  V30 14793 C 1348.89 -4.82579 -1.39366 0
M  V30 14794 C 1350.89 -6.3705 -0.211225 0
M  V30 14795 C 1348.58 -6.05528 -0.823357 0
M  V30 14796 C 1349.57 -6.82602 -0.233163 0
M  V30 14797 O 1349.26 -8.03229 0.328345 0
M  V30 14798 H 1348.99 -0.606287 -0.298985 0
M  V30 14799 H 1351.55 -2.03471 -0.280813 0
M  V30 14800 H 1349.78 -2.7296 -2.73915 0
M  V30 14801 H 1351.47 -3.12235 -2.59354 0
M  V30 14802 H 1352.23 -4.791 -0.754228 0
M  V30 14803 H 1348.11 -4.22582 -1.84243 0
M  V30 14804 H 1351.66 -6.97152 0.250073 0
M  V30 14805 H 1347.55 -6.39957 -0.844114 0
M  V30 14806 H 1348.32 -8.18205 0.219785 0
M  V30 14807 N 1350.98 0.516783 -1.48886 0
M  V30 14808 C 1352.23 1.27375 -1.57808 0
M  V30 14809 C 1352.56 1.92492 -0.256963 0
M  V30 14810 O 1351.84 1.79947 0.738193 0
M  V30 14811 C 1352.12 2.35295 -2.72595 0
M  V30 14812 C 1351.97 1.74783 -4.14453 0
M  V30 14813 C 1353.29 3.36973 -2.83085 0
M  V30 14814 H 1350.41 0.46175 -0.574418 0
M  V30 14815 H 1353.05 0.57434 -1.81111 0
M  V30 14816 H 1351.2 2.94951 -2.52857 0
M  V30 14817 H 1352.88 1.19076 -4.45666 0
M  V30 14818 H 1351.12 1.05258 -4.20836 0
M  V30 14819 H 1351.79 2.52985 -4.90615 0
M  V30 14820 H 1354.27 2.87289 -3.01005 0
M  V30 14821 H 1353.14 4.09864 -3.65106 0
M  V30 14822 H 1353.4 3.98336 -1.91784 0
M  V30 14823 N 1352.46 1.37696 0.766659 0
M  V30 14824 C 1353.71 1.33185 1.52539 0
M  V30 14825 C 1354.04 -0.0821239 1.94327 0
M  V30 14826 O 1353.29 -1.05645 1.64735 0
M  V30 14827 C 1353.59 2.22154 2.79968 0
M  V30 14828 C 1353.26 3.70344 2.57208 0
M  V30 14829 C 1351.92 4.10729 2.50709 0
M  V30 14830 C 1354.27 4.64205 2.36988 0
M  V30 14831 C 1351.6 5.43082 2.21988 0
M  V30 14832 C 1353.95 5.96801 2.0979 0
M  V30 14833 C 1352.61 6.36284 2.01739 0
M  V30 14834 H 1351.88 0.487357 0.558179 0
M  V30 14835 H 1354.53 1.69945 0.882662 0
M  V30 14836 H 1352.84 1.78406 3.48825 0
M  V30 14837 H 1354.53 2.15975 3.37869 0
M  V30 14838 H 1351.12 3.38319 2.63131 0
M  V30 14839 H 1355.31 4.3386 2.40996 0
M  V30 14840 H 1350.56 5.7263 2.14254 0
M  V30 14841 H 1354.74 6.6908 1.93145 0
M  V30 14842 H 1352.36 7.38765 1.79248 0
M  V30 14843 N 1353.94 -0.993397 1.22349 0
M  V30 14844 C 1355.17 -1.76581 1.0725 0
M  V30 14845 C 1355.58 -1.85346 -0.379923 0
M  V30 14846 O 1354.92 -1.3224 -1.27508 0
M  V30 14847 C 1354.98 -3.21519 1.60829 0
M  V30 14848 C 1354.65 -3.363 3.09437 0
M  V30 14849 C 1355.64 -3.23655 4.0687 0
M  V30 14850 C 1353.33 -3.61368 3.48882 0
M  V30 14851 C 1355.32 -3.3586 5.41735 0
M  V30 14852 C 1353.01 -3.73214 4.83895 0
M  V30 14853 C 1354.01 -3.60468 5.80131 0
M  V30 14854 O 1353.7 -3.7192 7.12693 0
M  V30 14855 H 1353.43 -0.561407 0.376561 0
M  V30 14856 H 1355.98 -1.25768 1.62393 0
M  V30 14857 H 1354.21 -3.73521 1.00093 0
M  V30 14858 H 1355.9 -3.80475 1.41399 0
M  V30 14859 H 1356.67 -3.04201 3.77739 0
M  V30 14860 H 1352.55 -3.70365 2.74501 0
M  V30 14861 H 1356.09 -3.25829 6.16832 0
M  V30 14862 H 1351.99 -3.92175 5.12707 0
M  V30 14863 H 1352.75 -3.88796 7.20264 0
M  V30 14864 N 1355.42 -1.03311 -1.19015 0
M  V30 14865 C 1356.67 -0.727266 -1.88132 0
M  V30 14866 C 1356.98 0.747488 -1.80754 0
M  V30 14867 O 1358.19 1.16654 -2.45161 0
M  V30 14868 C 1356.64 -1.25056 -3.37474 0
M  V30 14869 C 1356.25 -2.7534 -3.534 0
M  V30 14870 C 1357.99 -1.02091 -4.12041 0
M  V30 14871 C 1355.9 -3.21066 -4.96659 0
M  V30 14872 H 1354.83 -0.268349 -0.704631 0
M  V30 14873 H 1357.48 -1.24795 -1.3453 0
M  V30 14874 H 1355.86 -0.65777 -3.90499 0
M  V30 14875 H 1357.04 -3.40311 -3.10684 0
M  V30 14876 H 1355.35 -2.96633 -2.92229 0
M  V30 14877 H 1357.95 -1.33777 -5.17695 0
M  V30 14878 H 1358.29 0.0421413 -4.16279 0
M  V30 14879 H 1358.83 -1.57792 -3.65166 0
M  V30 14880 H 1355.56 -4.26719 -4.97586 0
M  V30 14881 H 1355.08 -2.60826 -5.4012 0
M  V30 14882 H 1356.76 -3.14651 -5.65335 0
M  V30 14883 N 1356.9 1.35099 -0.81154 0
M  V30 14884 C 1358.13 2.02566 -0.406265 0
M  V30 14885 C 1358.53 1.61291 0.989032 0
M  V30 14886 O 1357.88 0.808496 1.64952 0
M  V30 14887 C 1357.94 3.57087 -0.415847 0
M  V30 14888 C 1357.6 4.21645 -1.76251 0
M  V30 14889 C 1358.6 4.42974 -2.72159 0
M  V30 14890 C 1356.28 4.58658 -2.04787 0
M  V30 14891 C 1358.28 5.00425 -3.94783 0
M  V30 14892 C 1355.97 5.15822 -3.27674 0
M  V30 14893 C 1356.96 5.36648 -4.2249 0
M  V30 14894 O 1356.65 5.92606 -5.43207 0
M  V30 14895 H 1356.38 0.65615 -0.162612 0
M  V30 14896 H 1358.94 1.73596 -1.09789 0
M  V30 14897 H 1357.17 3.85269 0.332409 0
M  V30 14898 H 1358.86 4.05887 -0.0322011 0
M  V30 14899 H 1359.62 4.14753 -2.51405 0
M  V30 14900 H 1355.5 4.41759 -1.31795 0
M  V30 14901 H 1359.05 5.16596 -4.68801 0
M  V30 14902 H 1354.94 5.4347 -3.48296 0
M  V30 14903 H 1355.71 6.11052 -5.44571 0
M  V30 14904 N 1358.37 0.56548 1.47106 0
M  V30 14905 C 1359.62 0.0445914 2.02751 0
M  V30 14906 C 1359.95 -1.30517 1.43801 0
M  V30 14907 O 1359.23 -1.85123 0.596646 0
M  V30 14908 C 1359.51 -0.0396474 3.60078 0
M  V30 14909 C 1359.36 1.3378 4.29445 0
M  V30 14910 C 1360.68 -0.748954 4.3368 0
M  V30 14911 H 1357.8 0.0176787 0.736788 0
M  V30 14912 H 1360.44 0.729363 1.75443 0
M  V30 14913 H 1358.59 -0.622826 3.83475 0
M  V30 14914 H 1360.27 1.96482 4.17364 0
M  V30 14915 H 1358.51 1.91024 3.89477 0
M  V30 14916 H 1359.18 1.23149 5.38088 0
M  V30 14917 H 1361.66 -0.253707 4.15326 0
M  V30 14918 H 1360.53 -0.776877 5.43374 0
M  V30 14919 H 1360.79 -1.80679 4.03494 0
M  V30 14920 N 1359.85 -1.54672 0.302354 0
M  V30 14921 C 1361.1 -1.99771 -0.305919 0
M  V30 14922 C 1361.42 -1.19225 -1.54306 0
M  V30 14923 O 1360.69 -0.288569 -1.93763 0
M  V30 14924 H 1359.27 -0.737934 -0.116026 0
M  V30 14925 H 1361.93 -1.90452 0.413997 0
M  V30 14926 H 1361.03 -3.06719 -0.577024 0
M  V30 14927 N 1361.33 -0.0301034 -1.57571 0
M  V30 14928 C 1362.58 0.649283 -1.92125 0
M  V30 14929 C 1362.91 1.71722 -0.90692 0
M  V30 14930 O 1362.18 1.94373 0.0702019 0
M  V30 14931 C 1362.47 1.26482 -3.37156 0
M  V30 14932 C 1362.32 0.206375 -4.49326 0
M  V30 14933 C 1363.64 2.18256 -3.82168 0
M  V30 14934 H 1360.76 0.234561 -0.698678 0
M  V30 14935 H 1363.4 -0.0875634 -1.89798 0
M  V30 14936 H 1361.55 1.89283 -3.3927 0
M  V30 14937 H 1363.22 -0.424268 -4.59345 0
M  V30 14938 H 1361.47 -0.468035 -4.31268 0
M  V30 14939 H 1362.14 0.676689 -5.47837 0
M  V30 14940 H 1364.61 1.65441 -3.81797 0
M  V30 14941 H 1363.49 2.58277 -4.84339 0
M  V30 14942 H 1363.75 3.07411 -3.17727 0
M  V30 14943 N 1362.81 1.55714 0.243056 0
M  V30 14944 C 1363.77 1.89832 1.28438 0
M  V30 14945 C 1364.77 0.775083 1.40887 0
M  V30 14946 O 1365.96 1.04304 1.39521 0
M  V30 14947 C 1363.09 2.13016 2.66153 0
M  V30 14948 H 1364.29 2.82947 0.994022 0
M  V30 14949 H 1361.84 1.48665 0.482521 0
M  V30 14950 H 1362.57 1.22381 3.00322 0
M  V30 14951 H 1362.36 2.94824 2.58498 0
M  V30 14952 H 1363.85 2.40581 3.41336 0
M  V30 14953 N 1364.29 -0.50888 1.49158 0
M  V30 14954 C 1365.56 -1.27021 1.48745 0
M  V30 14955 C 1365.94 -2.10045 0.210772 0
M  V30 14956 O 1365.29 -2.13773 -0.807061 0
M  V30 14957 C 1365.5 -2.13367 2.76181 0
M  V30 14958 C 1366.85 -2.72815 3.25357 0
M  V30 14959 O 1367.87 -2.23639 2.77243 0
M  V30 14960 O 1366.73 -3.62316 4.09133 0
M  V30 14961 H 1363.83 -0.574387 0.594986 0
M  V30 14962 H 1366.37 -0.523798 1.61414 0
M  V30 14963 H 1365.14 -1.51941 3.60596 0
M  V30 14964 H 1364.77 -2.95215 2.66334 0
M  V30 14965 N 1365.76 -1.381 -0.759346 0
M  V30 14966 C 1366.99 -1.37213 -1.54855 0
M  V30 14967 C 1367.41 0.0395175 -1.88759 0
M  V30 14968 O 1366.76 1.00462 -1.5236 0
M  V30 14969 C 1366.82 -2.22232 -2.85123 0
M  V30 14970 O 1366.54 -3.57897 -2.52668 0
M  V30 14971 C 1368.04 -2.29461 -3.79292 0
M  V30 14972 H 1365.26 -0.469542 -0.479345 0
M  V30 14973 H 1367.8 -1.81604 -0.940216 0
M  V30 14974 H 1365.96 -1.81317 -3.42349 0
M  V30 14975 H 1366.37 -4.02599 -3.36176 0
M  V30 14976 H 1367.84 -2.93246 -4.67665 0
M  V30 14977 H 1368.32 -1.3066 -4.19315 0
M  V30 14978 H 1368.93 -2.70741 -3.27993 0
M  V30 14979 N 1367.24 0.986894 -1.22875 0
M  V30 14980 C 1368.17 2.09628 -1.0285 0
M  V30 14981 C 1369.15 1.70019 0.0525118 0
M  V30 14982 O 1370.34 1.93883 -0.110874 0
M  V30 14983 C 1367.47 3.41866 -0.61194 0
M  V30 14984 C 1366.42 3.95351 -1.63956 0
M  V30 14985 C 1365.75 5.23707 -1.07865 0
M  V30 14986 C 1367.05 4.25354 -3.03102 0
M  V30 14987 H 1368.74 2.26639 -1.95641 0
M  V30 14988 H 1366.29 1.0891 -0.942048 0
M  V30 14989 H 1368.24 4.18893 -0.458936 0
M  V30 14990 H 1366.97 3.24701 0.35164 0
M  V30 14991 H 1365.62 3.20462 -1.78045 0
M  V30 14992 H 1365.27 5.02888 -0.106246 0
M  V30 14993 H 1364.97 5.60459 -1.76522 0
M  V30 14994 H 1366.5 6.03362 -0.937359 0
M  V30 14995 H 1367.91 4.93156 -2.92353 0
M  V30 14996 H 1366.31 4.73292 -3.68938 0
M  V30 14997 H 1367.38 3.32887 -3.52583 0
M  V30 14998 N 1368.72 1.0394 1.18466 0
M  V30 14999 C 1369.65 0.650182 2.24265 0
M  V30 15000 C 1370.63 -0.345968 1.66545 0
M  V30 15001 O 1371.82 -0.226348 1.92876 0
M  V30 15002 C 1368.95 0.0110451 3.47298 0
M  V30 15003 C 1367.9 0.930599 4.17761 0
M  V30 15004 C 1367.23 0.156005 5.34472 0
M  V30 15005 C 1368.53 2.24913 4.71393 0
M  V30 15006 H 1370.22 1.53465 2.57078 0
M  V30 15007 H 1367.77 0.739343 1.23571 0
M  V30 15008 H 1369.72 -0.272959 4.20515 0
M  V30 15009 H 1368.44 -0.908288 3.13716 0
M  V30 15010 H 1367.1 1.19897 3.4644 0
M  V30 15011 H 1366.75 -0.765695 4.97138 0
M  V30 15012 H 1366.45 0.768606 5.82551 0
M  V30 15013 H 1367.97 -0.121011 6.1048 0
M  V30 15014 H 1369.39 2.02592 5.36311 0
M  V30 15015 H 1367.79 2.81459 5.30001 0
M  V30 15016 H 1368.86 2.8965 3.88884 0
M  V30 15017 N 1370.2 -1.34667 0.818693 0
M  V30 15018 C 1371.16 -2.27908 0.243037 0
M  V30 15019 C 1372.16 -1.50106 -0.576622 0
M  V30 15020 O 1373.35 -1.69701 -0.393342 0
M  V30 15021 C 1370.48 -3.34455 -0.659759 0
M  V30 15022 H 1371.68 -2.80332 1.06555 0
M  V30 15023 H 1369.23 -1.44727 0.590237 0
M  V30 15024 H 1369.96 -2.87238 -1.50549 0
M  V30 15025 H 1369.75 -3.92031 -0.073567 0
M  V30 15026 H 1371.24 -4.04016 -1.05646 0
M  V30 15027 N 1371.68 -0.573274 -1.46804 0
M  V30 15028 C 1372.61 0.213527 -2.27199 0
M  V30 15029 C 1373.59 0.905598 -1.35047 0
M  V30 15030 O 1374.77 0.921377 -1.64447 0
M  V30 15031 C 1371.9 1.30556 -3.12527 0
M  V30 15032 C 1370.94 0.720331 -4.20373 0
M  V30 15033 S 1371.78 -0.445518 -5.33644 0
M  V30 15034 C 1372.93 0.64794 -6.22537 0
M  V30 15035 H 1373.17 -0.468642 -2.93583 0
M  V30 15036 H 1370.7 -0.359949 -1.50146 0
M  V30 15037 H 1372.66 1.93086 -3.62254 0
M  V30 15038 H 1371.32 1.95963 -2.45474 0
M  V30 15039 H 1370.51 1.54089 -4.79867 0
M  V30 15040 H 1370.11 0.170885 -3.73609 0
M  V30 15041 H 1372.41 1.53602 -6.59858 0
M  V30 15042 H 1373.35 0.0899764 -7.08043 0
M  V30 15043 H 1373.76 0.94784 -5.56486 0
M  V30 15044 N 1373.15 1.5451 -0.310553 0
M  V30 15045 C 1374.4 1.99931 0.29532 0
M  V30 15046 C 1374.72 1.20042 1.53672 0
M  V30 15047 O 1373.99 0.298841 1.93607 0
M  V30 15048 H 1372.57 0.738539 0.112111 0
M  V30 15049 H 1375.24 1.9023 -0.424092 0
M  V30 15050 H 1374.33 3.07021 0.560749 0
M  V30 15051 N 1374.63 0.0384594 1.57553 0
M  V30 15052 C 1375.88 -0.63814 1.92182 0
M  V30 15053 C 1376.21 -1.71595 0.915714 0
M  V30 15054 O 1375.46 -1.9556 -0.0739533 0
M  V30 15055 C 1375.76 -1.28439 3.33524 0
M  V30 15056 C 1375.43 -0.336034 4.49646 0
M  V30 15057 C 1374.09 -0.0750373 4.81141 0
M  V30 15058 C 1376.44 0.314642 5.20249 0
M  V30 15059 C 1373.77 0.844286 5.80593 0
M  V30 15060 C 1376.12 1.22208 6.20684 0
M  V30 15061 C 1374.79 1.49187 6.50615 0
M  V30 15062 H 1374.06 -0.233512 0.703245 0
M  V30 15063 H 1376.7 0.102223 1.91227 0
M  V30 15064 H 1375.01 -2.09973 3.30785 0
M  V30 15065 H 1376.71 -1.81462 3.57593 0
M  V30 15066 H 1373.3 -0.549638 4.25061 0
M  V30 15067 H 1377.48 0.126074 4.9614 0
M  V30 15068 H 1372.74 1.06092 6.02125 0
M  V30 15069 H 1376.91 1.7324 6.74508 0
M  V30 15070 H 1374.54 2.20588 7.27492 0
M  V30 15071 N 1376.11 -1.55841 -0.234795 0
M  V30 15072 C 1377.36 -1.78238 -0.961116 0
M  V30 15073 C 1377.69 -0.604919 -1.84854 0
M  V30 15074 O 1376.94 0.411289 -1.91329 0
M  V30 15075 C 1377.24 -3.06262 -1.84223 0
M  V30 15076 C 1376.91 -4.37045 -1.10916 0
M  V30 15077 C 1375.57 -4.72582 -0.906606 0
M  V30 15078 C 1377.92 -5.17844 -0.59049 0
M  V30 15079 C 1375.25 -5.86444 -0.173275 0
M  V30 15080 C 1377.6 -6.32468 0.129433 0
M  V30 15081 C 1376.26 -6.66616 0.343357 0
M  V30 15082 H 1375.53 -0.652219 -0.351697 0
M  V30 15083 H 1378.18 -1.9011 -0.230272 0
M  V30 15084 H 1376.49 -2.89454 -2.64052 0
M  V30 15085 H 1378.18 -3.20791 -2.40612 0
M  V30 15086 H 1374.77 -4.09134 -1.27699 0
M  V30 15087 H 1378.96 -4.90835 -0.734487 0
M  V30 15088 H 1374.21 -6.114 0.00282409 0
M  V30 15089 H 1378.39 -6.94312 0.538905 0
M  V30 15090 H 1376.01 -7.54691 0.913538 0
M  V30 15091 N 1377.59 0.500963 -1.49426 0
M  V30 15092 C 1379.01 0.832142 -1.36189 0
M  V30 15093 C 1379.21 1.9759 -0.395014 0
M  V30 15094 O 1378.26 2.51905 0.173294 0
M  V30 15095 C 1379.57 1.17232 -2.76907 0
M  V30 15096 C 1381.12 1.28052 -2.85607 0
M  V30 15097 C 1381.6 1.65399 -4.27092 0
M  V30 15098 N 1383.09 1.72448 -4.29902 0
M  V30 15099 C 1383.82 2.02789 -5.36343 0
M  V30 15100 N 1383.32 2.31354 -6.53029 0
M  V30 15101 N 1385.11 2.0404 -5.23759 0
M  V30 15102 H 1377.26 -0.253253 -2.10885 0
M  V30 15103 H 1379.53 -0.0507111 -0.946643 0
M  V30 15104 H 1379.23 0.405247 -3.49357 0
M  V30 15105 H 1379.11 2.11574 -3.12276 0
M  V30 15106 H 1381.49 2.03831 -2.13394 0
M  V30 15107 H 1381.57 0.317603 -2.53821 0
M  V30 15108 H 1381.22 0.901704 -4.99832 0
M  V30 15109 H 1381.15 2.6279 -4.56343 0
M  V30 15110 H 1383.64 1.52532 -3.45749 0
M  V30 15111 H 1383.95 2.53695 -7.29972 0
M  V30 15112 H 1382.3 2.28811 -6.56255 0
M  V30 15113 H 1385.49 1.812 -4.31606 0
M  V30 15114 H 1385.66 2.27353 -6.06807 0
M  V30 15115 N 1379.07 1.38501 0.752011 0
M  V30 15116 C 1380.32 1.34529 1.50819 0
M  V30 15117 C 1380.64 -0.0636155 1.94896 0
M  V30 15118 O 1379.91 -1.01161 1.6776 0
M  V30 15119 H 1378.49 0.49501 0.559441 0
M  V30 15120 H 1381.15 1.73196 0.893822 0
M  V30 15121 H 1380.24 1.99713 2.39835 0
M  V30 15122 N 1380.55 -0.980364 1.23396 0
M  V30 15123 C 1381.48 -2.0908 1.0396 0
M  V30 15124 C 1382.46 -1.70044 -0.0434946 0
M  V30 15125 O 1383.64 -1.93822 0.121155 0
M  V30 15126 C 1380.77 -3.41537 0.630061 0
M  V30 15127 C 1379.73 -3.94476 1.66051 0
M  V30 15128 C 1379.05 -5.23128 1.10641 0
M  V30 15129 C 1380.35 -4.23741 3.05354 0
M  V30 15130 H 1382.05 -2.25598 1.9684 0
M  V30 15131 H 1379.59 -1.08409 0.94781 0
M  V30 15132 H 1381.54 -4.18644 0.481145 0
M  V30 15133 H 1380.27 -3.24883 -0.334416 0
M  V30 15134 H 1378.93 -3.19513 1.79742 0
M  V30 15135 H 1378.58 -5.02824 0.132913 0
M  V30 15136 H 1378.28 -5.59515 1.79492 0
M  V30 15137 H 1379.8 -6.02857 0.969344 0
M  V30 15138 H 1381.21 -4.91598 2.94964 0
M  V30 15139 H 1379.61 -4.71329 3.71442 0
M  V30 15140 H 1380.68 -3.31012 3.54343 0
M  V30 15141 N 1382.02 -1.04567 -1.17913 0
M  V30 15142 C 1383.43 -0.779118 -1.69666 0
M  V30 15143 C 1383.79 0.699448 -1.83309 0
M  V30 15144 O 1382.91 1.54407 -1.51616 0
M  V30 15145 C 1383.51 -1.40769 -3.08171 0
M  V30 15146 C 1382.06 -1.18933 -3.57116 0
M  V30 15147 C 1381.21 -1.49519 -2.33536 0
M  V30 15148 H 1384.16 -1.21144 -1.02518 0
M  V30 15149 H 1384.18 -0.813584 -3.717 0
M  V30 15150 H 1383.7 -2.4838 -2.9821 0
M  V30 15151 H 1381.8 -0.132184 -3.72365 0
M  V30 15152 H 1381.91 -1.88987 -4.40251 0
M  V30 15153 H 1380.27 -0.915056 -2.37695 0
M  V30 15154 H 1381.06 -2.5825 -2.26189 0
M  V30 15155 N 1383.5 1.34231 -0.825823 0
M  V30 15156 C 1384.43 2.31997 -0.264546 0
M  V30 15157 C 1385.41 1.58375 0.620592 0
M  V30 15158 O 1386.6 1.86341 0.546865 0
M  V30 15159 C 1383.73 3.42557 0.572025 0
M  V30 15160 C 1382.68 4.27454 -0.216219 0
M  V30 15161 C 1382.01 5.29509 0.743279 0
M  V30 15162 C 1383.31 5.02456 -1.42603 0
M  V30 15163 H 1385 2.79189 -1.08139 0
M  V30 15164 H 1382.55 1.34227 -0.521451 0
M  V30 15165 H 1384.5 4.09968 0.974889 0
M  V30 15166 H 1383.22 2.94021 1.42195 0
M  V30 15167 H 1381.88 3.61649 -0.600485 0
M  V30 15168 H 1381.53 4.77234 1.58924 0
M  V30 15169 H 1381.23 5.87188 0.220064 0
M  V30 15170 H 1382.76 5.99789 1.14394 0
M  V30 15171 H 1384.17 5.62706 -1.09702 0
M  V30 15172 H 1382.57 5.69723 -1.88509 0
M  V30 15173 H 1383.64 4.31983 -2.2027 0
M  V30 15174 N 1384.98 0.581051 1.46498 0
M  V30 15175 C 1386.23 0.0660934 2.02692 0
M  V30 15176 C 1386.56 -1.28985 1.45178 0
M  V30 15177 O 1385.83 -1.84479 0.616247 0
M  V30 15178 C 1386.12 -0.00145411 3.601 0
M  V30 15179 C 1385.97 1.38327 4.28002 0
M  V30 15180 C 1387.29 -0.702914 4.3445 0
M  V30 15181 H 1384.41 0.0254923 0.736559 0
M  V30 15182 H 1387.05 0.74793 1.7466 0
M  V30 15183 H 1385.2 -0.582118 3.84114 0
M  V30 15184 H 1386.87 2.00897 4.15257 0
M  V30 15185 H 1385.11 1.95144 3.87429 0
M  V30 15186 H 1385.79 1.28849 5.36751 0
M  V30 15187 H 1388.26 -0.209641 4.15572 0
M  V30 15188 H 1387.14 -0.719202 5.44168 0
M  V30 15189 H 1387.4 -1.76389 4.05388 0
M  V30 15190 N 1386.46 -1.54343 0.318742 0
M  V30 15191 C 1387.41 -2.20892 -0.564849 0
M  V30 15192 C 1388.39 -1.18782 -1.08534 0
M  V30 15193 O 1389.58 -1.44431 -1.02316 0
M  V30 15194 C 1386.71 -2.96661 -1.72763 0
M  V30 15195 C 1385.8 -4.06105 -1.22226 0
M  V30 15196 N 1386.19 -5.03916 -0.436203 0
M  V30 15197 C 1384.49 -4.19968 -1.50142 0
M  V30 15198 C 1385.19 -5.81466 -0.164875 0
M  V30 15199 N 1384.16 -5.38406 -0.74966 0
M  V30 15200 H 1387.97 -2.93868 0.0430622 0
M  V30 15201 H 1385.48 -1.61923 0.124362 0
M  V30 15202 H 1387.48 -3.42819 -2.37236 0
M  V30 15203 H 1386.14 -2.25206 -2.33907 0
M  V30 15204 H 1387.15 -5.17839 -0.0794815 0
M  V30 15205 H 1383.83 -3.59726 -2.11905 0
M  V30 15206 H 1385.22 -6.70271 0.467617 0
M  V30 15207 N 1387.94 -0.0468143 -1.5753 0
M  V30 15208 C 1389.16 0.637648 -1.96829 0
M  V30 15209 C 1389.58 1.64635 -0.924158 0
M  V30 15210 O 1388.94 1.82267 0.0921139 0
M  V30 15211 C 1388.99 1.32842 -3.36207 0
M  V30 15212 O 1388.71 0.360111 -4.36617 0
M  V30 15213 C 1390.21 2.10305 -3.90239 0
M  V30 15214 H 1387.43 0.174634 -0.647876 0
M  V30 15215 H 1389.97 -0.111824 -2.04194 0
M  V30 15216 H 1388.13 2.02915 -3.30006 0
M  V30 15217 H 1388.54 0.852661 -5.17523 0
M  V30 15218 H 1390.02 2.54065 -4.90056 0
M  V30 15219 H 1390.49 2.94942 -3.25432 0
M  V30 15220 H 1391.1 1.45152 -3.99764 0
M  V30 15221 N 1389.41 1.55964 0.226527 0
M  V30 15222 C 1390.34 1.95028 1.284 0
M  V30 15223 C 1391.33 0.817833 1.49149 0
M  V30 15224 O 1392.51 1.07975 1.61416 0
M  V30 15225 C 1389.64 2.26266 2.63478 0
M  V30 15226 C 1388.59 3.41954 2.57393 0
M  V30 15227 C 1387.92 3.58786 3.96456 0
M  V30 15228 C 1389.22 4.77069 2.12608 0
M  V30 15229 H 1390.91 2.83608 0.959513 0
M  V30 15230 H 1388.46 1.36451 0.460125 0
M  V30 15231 H 1390.41 2.52186 3.3761 0
M  V30 15232 H 1389.14 1.34533 2.97604 0
M  V30 15233 H 1387.8 3.16076 1.85719 0
M  V30 15234 H 1387.44 2.64437 4.27881 0
M  V30 15235 H 1387.14 4.36595 3.93267 0
M  V30 15236 H 1388.67 3.87048 4.72256 0
M  V30 15237 H 1390.08 5.02226 2.76481 0
M  V30 15238 H 1388.48 5.58126 2.2049 0
M  V30 15239 H 1389.55 4.7276 1.07823 0
M  V30 15240 N 1390.89 -0.493031 1.4969 0
M  V30 15241 C 1392.14 -1.2433 1.58823 0
M  V30 15242 C 1392.45 -1.9353 0.283823 0
M  V30 15243 O 1393.66 -2.70311 0.253801 0
M  V30 15244 C 1392.12 -2.25792 2.8026 0
M  V30 15245 C 1391.72 -1.62496 4.17491 0
M  V30 15246 C 1393.47 -3.01598 2.98729 0
M  V30 15247 C 1391.38 -2.62115 5.30141 0
M  V30 15248 H 1390.31 -0.467738 0.591386 0
M  V30 15249 H 1392.96 -0.516238 1.76089 0
M  V30 15250 H 1391.34 -3.01696 2.56506 0
M  V30 15251 H 1392.51 -0.925305 4.51414 0
M  V30 15252 H 1390.83 -0.990516 4.04447 0
M  V30 15253 H 1393.42 -3.76111 3.80058 0
M  V30 15254 H 1393.77 -3.59687 2.09597 0
M  V30 15255 H 1394.3 -2.32809 3.2256 0
M  V30 15256 H 1391.04 -2.08797 6.21357 0
M  V30 15257 H 1390.56 -3.30298 5.00663 0
M  V30 15258 H 1392.24 -3.24385 5.59807 0
M  V30 15259 N 1392.37 -1.38898 -0.744656 0
M  V30 15260 C 1393.6 -1.38848 -1.53391 0
M  V30 15261 C 1394.01 0.0194949 -1.8879 0
M  V30 15262 O 1393.37 0.988399 -1.53417 0
M  V30 15263 C 1393.42 -2.25243 -2.8275 0
M  V30 15264 O 1393.14 -3.60557 -2.48858 0
M  V30 15265 C 1394.64 -2.33471 -3.76837 0
M  V30 15266 H 1391.86 -0.4746 -0.474338 0
M  V30 15267 H 1394.41 -1.82591 -0.920902 0
M  V30 15268 H 1392.56 -1.84938 -3.40407 0
M  V30 15269 H 1392.98 -4.06142 -3.31887 0
M  V30 15270 H 1394.45 -2.9819 -4.64528 0
M  V30 15271 H 1394.93 -1.351 -4.17905 0
M  V30 15272 H 1395.53 -2.74205 -3.25103 0
M  V30 15273 N 1393.85 0.973806 -1.23914 0
M  V30 15274 C 1395.09 1.71852 -1.07678 0
M  V30 15275 C 1395.43 1.90357 0.384425 0
M  V30 15276 O 1394.7 1.46063 1.28436 0
M  V30 15277 C 1394.99 3.1129 -1.81026 0
M  V30 15278 C 1394.84 3.00315 -3.3486 0
M  V30 15279 C 1396.16 4.10835 -1.57805 0
M  V30 15280 H 1393.28 0.623749 -0.392564 0
M  V30 15281 H 1395.92 1.13325 -1.52504 0
M  V30 15282 H 1394.07 3.61255 -1.42922 0
M  V30 15283 H 1395.74 2.57823 -3.82524 0
M  V30 15284 H 1393.98 2.36667 -3.63553 0
M  V30 15285 H 1394.65 3.9907 -3.81376 0
M  V30 15286 H 1397.13 3.69705 -1.90939 0
M  V30 15287 H 1396.01 5.06478 -2.11591 0
M  V30 15288 H 1396.27 4.39091 -0.514894 0
M  V30 15289 N 1395.33 1.05191 1.17357 0
M  V30 15290 C 1396.55 0.782343 1.92079 0
M  V30 15291 C 1396.98 -0.655957 1.76292 0
M  V30 15292 O 1396.33 -1.45573 1.08065 0
M  V30 15293 C 1396.38 1.16777 3.41168 0
M  V30 15294 O 1395.49 0.299908 4.11308 0
M  V30 15295 H 1394.83 0.286894 0.598822 0
M  V30 15296 H 1397.36 1.40476 1.48754 0
M  V30 15297 H 1397.37 1.13454 3.91909 0
M  V30 15298 H 1396.04 2.2155 3.51978 0
M  V30 15299 H 1394.62 0.393744 3.70815 0
M  V30 15300 N 1396.8 -1.33791 0.83293 0
M  V30 15301 C 1397.75 -2.29332 0.25989 0
M  V30 15302 C 1398.72 -1.54056 -0.620965 0
M  V30 15303 O 1399.91 -1.82382 -0.560492 0
M  V30 15304 C 1397.05 -3.40461 -0.563964 0
M  V30 15305 C 1396.16 -4.30658 0.34025 0
M  V30 15306 C 1395.29 -5.28897 -0.494134 0
M  V30 15307 C 1394.33 -6.10733 0.408842 0
M  V30 15308 N 1393.47 -7.01032 -0.38706 0
M  V30 15309 H 1398.31 -2.77743 1.07996 0
M  V30 15310 H 1395.85 -1.3667 0.544043 0
M  V30 15311 H 1397.81 -4.03587 -1.05704 0
M  V30 15312 H 1396.44 -2.93258 -1.34905 0
M  V30 15313 H 1395.49 -3.68305 0.9516 0
M  V30 15314 H 1396.8 -4.87962 1.03415 0
M  V30 15315 H 1395.95 -5.97522 -1.05128 0
M  V30 15316 H 1394.69 -4.72155 -1.2215 0
M  V30 15317 H 1393.7 -5.41031 0.978046 0
M  V30 15318 H 1394.92 -6.69557 1.13448 0
M  V30 15319 H 1392.87 -6.46747 -1.09792 0
M  V30 15320 H 1392.79 -7.55592 0.248249 0
M  V30 15321 H 1394.05 -7.73973 -0.926631 0
M  V30 15322 N 1398.28 -0.588812 -1.46187 0
M  V30 15323 C 1399.53 -0.0744093 -2.01563 0
M  V30 15324 C 1399.84 1.29578 -1.46523 0
M  V30 15325 O 1401.05 1.90186 -1.93756 0
M  V30 15326 C 1399.51 -0.082408 -3.59806 0
M  V30 15327 C 1399.11 -1.45129 -4.23842 0
M  V30 15328 C 1400.86 0.377732 -4.22816 0
M  V30 15329 C 1398.77 -1.41668 -5.74181 0
M  V30 15330 H 1397.7 -0.0240481 -0.753616 0
M  V30 15331 H 1400.35 -0.741364 -1.67857 0
M  V30 15332 H 1398.73 0.650832 -3.90615 0
M  V30 15333 H 1399.9 -2.20474 -4.04633 0
M  V30 15334 H 1398.22 -1.85196 -3.7295 0
M  V30 15335 H 1400.81 0.42251 -5.33028 0
M  V30 15336 H 1401.16 1.39655 -3.92176 0
M  V30 15337 H 1401.69 -0.301638 -3.96655 0
M  V30 15338 H 1398.43 -2.4125 -6.09491 0
M  V30 15339 H 1397.95 -0.705524 -5.95636 0
M  V30 15340 H 1399.63 -1.13221 -6.37016 0
M  V30 15341 N 1399.76 1.54172 -0.326923 0
M  V30 15342 C 1400.69 2.27402 0.530154 0
M  V30 15343 C 1401.67 1.28325 1.11655 0
M  V30 15344 O 1402.86 1.57142 1.14105 0
M  V30 15345 C 1399.99 3.03435 1.68951 0
M  V30 15346 C 1398.94 4.09877 1.23226 0
M  V30 15347 C 1398.27 4.7377 2.47882 0
M  V30 15348 C 1399.57 5.21161 0.344698 0
M  V30 15349 H 1401.26 2.99291 -0.0806959 0
M  V30 15350 H 1398.81 1.43944 -0.0402511 0
M  V30 15351 H 1400.76 3.53396 2.29541 0
M  V30 15352 H 1399.48 2.29169 2.327 0
M  V30 15353 H 1398.14 3.60805 0.649267 0
M  V30 15354 H 1397.79 3.96116 3.10002 0
M  V30 15355 H 1397.49 5.45674 2.17977 0
M  V30 15356 H 1399.01 5.26507 3.09229 0
M  V30 15357 H 1400.43 5.66859 0.856979 0
M  V30 15358 H 1398.83 5.99941 0.138276 0
M  V30 15359 H 1399.9 4.80874 -0.623575 0
M  V30 15360 N 1401.24 0.0551678 1.57503 0
M  V30 15361 C 1402.19 -0.927586 2.08278 0
M  V30 15362 C 1403.17 -1.26931 0.988802 0
M  V30 15363 O 1404.36 -1.25107 1.25209 0
M  V30 15364 C 1401.49 -2.20105 2.63456 0
M  V30 15365 C 1400.58 -1.88654 3.7983 0
M  V30 15366 N 1400.97 -1.2758 4.89446 0
M  V30 15367 C 1399.27 -2.185 3.8881 0
M  V30 15368 C 1399.97 -1.13848 5.7045 0
M  V30 15369 N 1398.95 -1.6427 5.18186 0
M  V30 15370 H 1402.75 -0.450784 2.90422 0
M  V30 15371 H 1400.26 -0.149178 1.61713 0
M  V30 15372 H 1402.26 -2.9141 2.98137 0
M  V30 15373 H 1400.92 -2.68388 1.82752 0
M  V30 15374 H 1401.93 -0.947506 5.09159 0
M  V30 15375 H 1398.61 -2.69276 3.19056 0
M  V30 15376 H 1400 -0.664014 6.68611 0
M  V30 15377 N 1402.72 -1.56081 -0.218252 0
M  V30 15378 C 1403.67 -1.89082 -1.27405 0
M  V30 15379 C 1404.65 -0.754204 -1.42129 0
M  V30 15380 O 1405.84 -1.01668 -1.44888 0
M  V30 15381 C 1402.97 -2.21387 -2.62379 0
M  V30 15382 C 1402.06 -3.41448 -2.51543 0
M  V30 15383 N 1402.45 -4.5998 -2.10362 0
M  V30 15384 C 1400.75 -3.45128 -2.82494 0
M  V30 15385 C 1401.45 -5.42139 -2.10857 0
M  V30 15386 N 1400.42 -4.81936 -2.51472 0
M  V30 15387 H 1404.23 -2.78238 -0.946609 0
M  V30 15388 H 1401.74 -1.56691 -0.426801 0
M  V30 15389 H 1403.74 -2.43205 -3.38611 0
M  V30 15390 H 1402.4 -1.33545 -2.95966 0
M  V30 15391 H 1403.41 -4.85077 -1.8144 0
M  V30 15392 H 1400.08 -2.67638 -3.20431 0
M  V30 15393 H 1401.47 -6.47029 -1.81114 0
M  V30 15394 N 1404.2 0.485086 -1.49949 0
M  V30 15395 C 1405.14 1.5848 -1.67788 0
M  V30 15396 C 1406.11 1.57776 -0.519216 0
M  V30 15397 O 1407.3 1.75521 -0.748141 0
M  V30 15398 C 1404.44 2.9654 -1.76516 0
M  V30 15399 C 1403.55 3.07139 -3.03792 0
M  V30 15400 C 1402.69 4.36029 -3.03401 0
M  V30 15401 C 1401.72 4.40318 -4.2519 0
M  V30 15402 N 1400.86 5.60659 -4.22618 0
M  V30 15403 H 1405.7 1.42575 -2.6168 0
M  V30 15404 H 1403.24 0.693426 -1.29731 0
M  V30 15405 H 1405.2 3.76583 -1.79557 0
M  V30 15406 H 1403.83 3.11112 -0.860764 0
M  V30 15407 H 1402.88 2.20057 -3.10289 0
M  V30 15408 H 1404.19 3.06167 -3.9378 0
M  V30 15409 H 1403.34 5.24407 -3.05094 0
M  V30 15410 H 1402.08 4.39588 -2.11219 0
M  V30 15411 H 1401.09 3.50339 -4.23725 0
M  V30 15412 H 1402.31 4.38461 -5.18583 0
M  V30 15413 H 1400.26 5.6503 -3.33282 0
M  V30 15414 H 1400.18 5.61371 -5.06359 0
M  V30 15415 H 1401.44 6.51201 -4.28436 0
M  V30 15416 N 1405.67 1.39291 0.737279 0
M  V30 15417 C 1406.61 1.32216 1.85995 0
M  V30 15418 C 1407.58 0.19623 1.61412 0
M  V30 15419 O 1408.77 0.376297 1.84706 0
M  V30 15420 C 1405.9 1.0525 3.21932 0
M  V30 15421 C 1404.94 2.20002 3.65378 0
M  V30 15422 S 1405.77 3.82265 3.75011 0
M  V30 15423 C 1406.93 3.57519 5.13742 0
M  V30 15424 H 1407.16 2.27231 1.91712 0
M  V30 15425 H 1404.7 1.25319 0.901911 0
M  V30 15426 H 1406.65 0.903753 4.00428 0
M  V30 15427 H 1405.32 0.119258 3.13874 0
M  V30 15428 H 1404.51 1.9672 4.64023 0
M  V30 15429 H 1404.11 2.31068 2.94081 0
M  V30 15430 H 1406.4 3.14643 6.00005 0
M  V30 15431 H 1407.35 4.55616 5.42051 0
M  V30 15432 H 1407.75 2.9167 4.8331 0
M  V30 15433 N 1407.15 -0.967221 1.24429 0
M  V30 15434 C 1408.08 -2.07966 1.06172 0
M  V30 15435 C 1409.06 -1.70081 -0.0254566 0
M  V30 15436 O 1410.25 -1.93682 0.141705 0
M  V30 15437 C 1407.38 -3.4085 0.666251 0
M  V30 15438 C 1406.33 -3.92692 1.70225 0
M  V30 15439 C 1405.66 -5.21925 1.16183 0
M  V30 15440 C 1406.96 -4.20478 3.09831 0
M  V30 15441 H 1408.65 -2.23497 1.99222 0
M  V30 15442 H 1406.2 -1.07398 0.959255 0
M  V30 15443 H 1408.15 -4.1811 0.52552 0
M  V30 15444 H 1406.87 -3.2522 -0.299939 0
M  V30 15445 H 1405.53 -3.17588 1.83121 0
M  V30 15446 H 1405.18 -5.02655 0.186237 0
M  V30 15447 H 1404.88 -5.57579 1.85416 0
M  V30 15448 H 1406.41 -6.01795 1.03323 0
M  V30 15449 H 1407.82 -4.88442 3.00162 0
M  V30 15450 H 1406.22 -4.67362 3.7642 0
M  V30 15451 H 1407.29 -3.27235 3.57834 0
M  V30 15452 N 1408.63 -1.05812 -1.16797 0
M  V30 15453 C 1409.58 -0.634669 -2.18988 0
M  V30 15454 C 1410.56 0.332122 -1.57435 0
M  V30 15455 O 1411.76 0.148346 -1.76377 0
M  V30 15456 C 1408.88 -0.0174742 -3.43296 0
M  V30 15457 C 1407.97 -1.00847 -4.11935 0
M  V30 15458 N 1408.36 -2.18223 -4.56303 0
M  V30 15459 C 1406.66 -0.838325 -4.3805 0
M  V30 15460 C 1407.36 -2.80967 -5.09345 0
M  V30 15461 N 1406.34 -2.08725 -5.01931 0
M  V30 15462 H 1410.14 -1.52888 -2.51003 0
M  V30 15463 H 1407.65 -0.929125 -1.33195 0
M  V30 15464 H 1409.65 0.303692 -4.15792 0
M  V30 15465 H 1408.31 0.872052 -3.1277 0
M  V30 15466 H 1409.32 -2.56025 -4.5019 0
M  V30 15467 H 1406 -0.000376066 -4.175 0
M  V30 15468 H 1407.39 -3.80541 -5.53749 0
M  V30 15469 N 1410.11 1.33347 -0.840014 0
M  V30 15470 C 1411.33 2.02485 -0.448856 0
M  V30 15471 C 1411.76 1.62781 0.942543 0
M  V30 15472 O 1411.12 0.82099 1.61646 0
M  V30 15473 C 1411.16 3.55928 -0.578582 0
M  V30 15474 O 1410.27 4.10507 0.394695 0
M  V30 15475 H 1409.61 0.63848 -0.182317 0
M  V30 15476 H 1412.14 1.70221 -1.13516 0
M  V30 15477 H 1412.15 4.05391 -0.460653 0
M  V30 15478 H 1410.82 3.8417 -1.5933 0
M  V30 15479 H 1409.4 3.72164 0.234227 0
M  V30 15480 N 1411.59 0.596556 1.45873 0
M  V30 15481 C 1412.83 0.0875879 2.02611 0
M  V30 15482 C 1413.16 -1.27438 1.46538 0
M  V30 15483 O 1412.44 -1.83815 0.635779 0
M  V30 15484 C 1412.72 0.0367394 3.60081 0
M  V30 15485 C 1412.58 1.42859 4.26511 0
M  V30 15486 C 1413.89 -0.656795 4.35171 0
M  V30 15487 H 1411.01 0.0333031 0.736247 0
M  V30 15488 H 1413.66 0.766413 1.73857 0
M  V30 15489 H 1411.81 -0.541345 3.8471 0
M  V30 15490 H 1413.48 2.0529 4.13102 0
M  V30 15491 H 1411.72 1.99243 3.85337 0
M  V30 15492 H 1412.39 1.34535 5.35354 0
M  V30 15493 H 1414.87 -0.165553 4.15771 0
M  V30 15494 H 1413.74 -0.661445 5.449 0
M  V30 15495 H 1414 -1.72079 4.07236 0
M  V30 15496 N 1413.06 -1.53996 0.335095 0
M  V30 15497 C 1413.99 -2.2768 -0.518087 0
M  V30 15498 C 1414.97 -1.28915 -1.10972 0
M  V30 15499 O 1416.16 -1.57745 -1.1327 0
M  V30 15500 C 1413.29 -3.04327 -1.67339 0
M  V30 15501 C 1412.24 -4.10525 -1.2105 0
M  V30 15502 C 1411.57 -4.75078 -2.45366 0
M  V30 15503 C 1412.87 -5.21337 -0.317055 0
M  V30 15504 H 1414.56 -2.99244 0.0965669 0
M  V30 15505 H 1412.11 -1.4392 0.0478842 0
M  V30 15506 H 1414.06 -3.54608 -2.27664 0
M  V30 15507 H 1412.79 -2.30399 -2.31481 0
M  V30 15508 H 1411.45 -3.61144 -0.630124 0
M  V30 15509 H 1411.09 -3.97754 -3.07897 0
M  V30 15510 H 1410.79 -5.46822 -2.1508 0
M  V30 15511 H 1412.32 -5.2814 -3.06432 0
M  V30 15512 H 1413.73 -5.67305 -0.826905 0
M  V30 15513 H 1412.13 -6.00006 -0.106458 0
M  V30 15514 H 1413.2 -4.80536 0.649068 0
M  V30 15515 N 1414.54 -0.0635198 -1.57472 0
M  V30 15516 C 1415.47 0.93602 -2.09216 0
M  V30 15517 C 1416.49 1.2668 -1.02255 0
M  V30 15518 O 1417.68 1.22543 -1.2979 0
M  V30 15519 C 1414.78 2.25417 -2.53062 0
M  V30 15520 C 1413.95 2.10347 -3.83501 0
M  V30 15521 C 1413.01 3.25394 -4.13528 0
M  V30 15522 O 1412.03 3.00751 -4.83257 0
M  V30 15523 N 1413.24 4.50243 -3.66417 0
M  V30 15524 H 1416 0.494288 -2.95596 0
M  V30 15525 H 1413.56 0.122416 -1.61437 0
M  V30 15526 H 1415.55 3.01272 -2.70217 0
M  V30 15527 H 1414.12 2.61116 -1.71864 0
M  V30 15528 H 1413.34 1.19009 -3.75807 0
M  V30 15529 H 1414.63 1.97519 -4.68896 0
M  V30 15530 H 1414.03 4.73152 -3.1007 0
M  V30 15531 H 1412.59 5.23152 -3.88787 0
M  V30 15532 N 1416.02 1.56195 0.209972 0
M  V30 15533 C 1416.98 1.92514 1.24383 0
M  V30 15534 C 1417.98 0.804793 1.39211 0
M  V30 15535 O 1419.17 1.0724 1.37278 0
M  V30 15536 C 1416.3 2.18613 2.61574 0
M  V30 15537 H 1417.5 2.84992 0.933781 0
M  V30 15538 H 1415.05 1.49656 0.450878 0
M  V30 15539 H 1415.79 1.28724 2.97659 0
M  V30 15540 H 1415.57 3.00241 2.52186 0
M  V30 15541 H 1417.06 2.47767 3.36156 0
M  V30 15542 N 1417.5 -0.477127 1.50204 0
M  V30 15543 C 1418.91 -1.05815 1.53819 0
M  V30 15544 C 1419.26 -1.93264 0.338169 0
M  V30 15545 O 1418.38 -2.09305 -0.549576 0
M  V30 15546 C 1418.98 -1.92577 2.78746 0
M  V30 15547 C 1417.54 -2.45799 2.85061 0
M  V30 15548 C 1416.69 -1.23994 2.48034 0
M  V30 15549 H 1419.64 -0.259998 1.56556 0
M  V30 15550 H 1419.66 -2.7757 2.6026 0
M  V30 15551 H 1419.17 -1.28904 3.66068 0
M  V30 15552 H 1417.27 -3.13042 2.02077 0
M  V30 15553 H 1417.38 -2.81318 3.8781 0
M  V30 15554 H 1415.75 -1.5728 2.00338 0
M  V30 15555 H 1416.53 -0.619917 3.37657 0
M  V30 15556 N 1418.98 -1.3968 -0.729882 0
M  V30 15557 C 1419.91 -1.33201 -1.85291 0
M  V30 15558 C 1420.89 -0.204787 -1.61305 0
M  V30 15559 O 1422.07 -0.386087 -1.84504 0
M  V30 15560 C 1419.2 -1.06955 -3.21369 0
M  V30 15561 C 1418.24 -2.21937 -3.64207 0
M  V30 15562 S 1419.08 -3.84249 -3.72979 0
M  V30 15563 C 1420.23 -3.60239 -5.11839 0
M  V30 15564 H 1420.47 -2.28244 -1.90504 0
M  V30 15565 H 1418 -1.25796 -0.895252 0
M  V30 15566 H 1419.96 -0.924975 -3.99943 0
M  V30 15567 H 1418.62 -0.135902 -3.13806 0
M  V30 15568 H 1417.81 -1.99179 -4.62973 0
M  V30 15569 H 1417.41 -2.32624 -2.92852 0
M  V30 15570 H 1419.71 -3.17821 -5.98328 0
M  V30 15571 H 1420.65 -4.58485 -5.39627 0
M  V30 15572 H 1421.06 -2.94229 -4.81757 0
M  V30 15573 N 1420.45 0.960609 -1.2494 0
M  V30 15574 C 1421.68 1.7446 -1.12153 0
M  V30 15575 C 1422.1 1.85335 0.321315 0
M  V30 15576 O 1421.46 1.32944 1.23271 0
M  V30 15577 C 1421.51 3.13945 -1.774 0
M  V30 15578 O 1420.61 3.9882 -1.04958 0
M  V30 15579 H 1419.96 0.536007 -0.391909 0
M  V30 15580 H 1422.49 1.2045 -1.65388 0
M  V30 15581 H 1422.5 3.64434 -1.83444 0
M  V30 15582 H 1421.17 3.05346 -2.82377 0
M  V30 15583 H 1419.75 3.57293 -1.06752 0
M  V30 15584 N 1421.93 1.0643 1.16234 0
M  V30 15585 C 1423.16 0.802644 1.90697 0
M  V30 15586 C 1423.58 -0.643145 1.77508 0
M  V30 15587 O 1422.93 -1.4404 1.12065 0
M  V30 15588 C 1422.98 1.18984 3.41358 0
M  V30 15589 O 1422.7 2.5789 3.54153 0
M  V30 15590 C 1424.21 0.956132 4.32866 0
M  V30 15591 H 1421.43 0.290891 0.604668 0
M  V30 15592 H 1423.97 1.41829 1.47325 0
M  V30 15593 H 1422.12 0.618703 3.82428 0
M  V30 15594 H 1422.54 2.73431 4.47589 0
M  V30 15595 H 1424.01 1.27667 5.37034 0
M  V30 15596 H 1424.49 -0.108062 4.39067 0
M  V30 15597 H 1425.1 1.51172 3.97526 0
M  V30 15598 N 1423.41 -1.329 0.847073 0
M  V30 15599 C 1424.34 -2.31546 0.301422 0
M  V30 15600 C 1425.32 -1.59342 -0.595317 0
M  V30 15601 O 1426.51 -1.87188 -0.517151 0
M  V30 15602 C 1423.64 -3.43423 -0.517454 0
M  V30 15603 C 1422.59 -4.27055 0.284195 0
M  V30 15604 C 1421.92 -5.30624 -0.658944 0
M  V30 15605 C 1423.22 -5.00123 1.50578 0
M  V30 15606 H 1424.91 -2.77433 1.12567 0
M  V30 15607 H 1422.46 -1.3338 0.542739 0
M  V30 15608 H 1424.41 -4.11467 -0.909543 0
M  V30 15609 H 1423.13 -2.96246 -1.37499 0
M  V30 15610 H 1421.79 -3.60648 0.657944 0
M  V30 15611 H 1421.44 -4.79702 -1.51311 0
M  V30 15612 H 1421.14 -5.87464 -0.12662 0
M  V30 15613 H 1422.66 -6.01533 -1.04837 0
M  V30 15614 H 1424.08 -5.6089 1.18641 0
M  V30 15615 H 1422.48 -5.66652 1.97549 0
M  V30 15616 H 1423.55 -4.28424 2.27115 0
M  V30 15617 N 1424.89 -0.604284 -1.45555 0
M  V30 15618 C 1425.84 0.129013 -2.32242 0
M  V30 15619 C 1426.83 0.862933 -1.45773 0
M  V30 15620 O 1428.04 0.778874 -1.62276 0
M  V30 15621 H 1424.41 0.0604661 -0.749565 0
M  V30 15622 H 1426.38 -0.620603 -2.91875 0
M  V30 15623 C 1425.13 1.11516 -3.29332 0
M  V30 15624 H 1424.45 0.559849 -3.95861 0
M  V30 15625 H 1425.89 1.59824 -3.92724 0
M  V30 15626 C 1424.35 2.18706 -2.5626 0
M  V30 15627 O 1424.88 3.26397 -2.34154 0
M  V30 15628 N 1423.09 1.93899 -2.16452 0
M  V30 15629 H 1422.64 1.0633 -2.34631 0
M  V30 15630 H 1422.59 2.65824 -1.67884 0
M  V30 15631 N 1426.37 1.53816 -0.343257 0
M  V30 15632 C 1427.59 2.05326 0.254744 0
M  V30 15633 C 1428.01 1.21824 1.44237 0
M  V30 15634 O 1427.37 0.253507 1.80731 0
M  V30 15635 C 1427.42 3.55235 0.670075 0
M  V30 15636 O 1427.14 4.35568 -0.470322 0
M  V30 15637 C 1428.64 4.22915 1.32882 0
M  V30 15638 H 1425.86 0.669191 0.0492324 0
M  V30 15639 H 1428.4 1.98415 -0.495159 0
M  V30 15640 H 1426.56 3.6237 1.36992 0
M  V30 15641 H 1426.97 5.24315 -0.139303 0
M  V30 15642 H 1428.45 5.29197 1.57019 0
M  V30 15643 H 1428.92 3.75244 2.28229 0
M  V30 15644 H 1429.53 4.19973 0.67102 0
M  V30 15645 N 1427.84 0.0718701 1.57436 0
M  V30 15646 C 1428.77 -0.89288 2.15754 0
M  V30 15647 C 1429.76 -1.31036 1.0846 0
M  V30 15648 O 1430.94 -1.38139 1.36496 0
M  V30 15649 C 1428.07 -2.16044 2.71923 0
M  V30 15650 C 1427.02 -1.88236 3.84384 0
M  V30 15651 C 1426.35 -3.21624 4.27156 0
M  V30 15652 C 1427.65 -1.18758 5.0862 0
M  V30 15653 H 1429.34 -0.407061 2.9662 0
M  V30 15654 H 1426.89 -0.194354 1.42682 0
M  V30 15655 H 1428.84 -2.83952 3.11366 0
M  V30 15656 H 1427.57 -2.66868 1.88279 0
M  V30 15657 H 1426.23 -1.22734 3.45445 0
M  V30 15658 H 1425.87 -3.70289 3.40433 0
M  V30 15659 H 1425.57 -3.03809 5.02965 0
M  V30 15660 H 1427.1 -3.90729 4.69215 0
M  V30 15661 H 1428.51 -1.76735 5.45378 0
M  V30 15662 H 1426.91 -1.11201 5.89707 0
M  V30 15663 H 1427.98 -0.166682 4.84613 0
M  V30 15664 N 1429.32 -1.56304 -0.201686 0
M  V30 15665 C 1430.27 -1.94021 -1.24999 0
M  V30 15666 C 1431.24 -0.799926 -1.45569 0
M  V30 15667 O 1432.42 -1.05752 -1.58811 0
M  V30 15668 C 1429.56 -2.27935 -2.59113 0
M  V30 15669 C 1428.68 -3.54995 -2.46176 0
M  V30 15670 C 1427.81 -3.78262 -3.72949 0
M  V30 15671 C 1426.85 -4.9877 -3.54817 0
M  V30 15672 N 1425.99 -5.18325 -4.73586 0
M  V30 15673 H 1430.83 -2.834 -0.92134 0
M  V30 15674 H 1428.37 -1.40252 -0.44359 0
M  V30 15675 H 1430.32 -2.45613 -3.37239 0
M  V30 15676 H 1428.95 -1.41705 -2.90034 0
M  V30 15677 H 1428.01 -3.45401 -1.59381 0
M  V30 15678 H 1429.32 -4.43277 -2.28708 0
M  V30 15679 H 1428.47 -3.96144 -4.59516 0
M  V30 15680 H 1427.21 -2.88299 -3.93364 0
M  V30 15681 H 1426.22 -4.80818 -2.66635 0
M  V30 15682 H 1427.44 -5.90237 -3.35854 0
M  V30 15683 H 1425.39 -4.31308 -4.94277 0
M  V30 15684 H 1425.3 -6.00774 -4.58919 0
M  V30 15685 H 1426.57 -5.40659 -5.61523 0
M  V30 15686 N 1430.8 0.469154 -1.50455 0
M  V30 15687 C 1431.76 1.5493 -1.68906 0
M  V30 15688 C 1432.76 1.50744 -0.559721 0
M  V30 15689 O 1433.95 1.5333 -0.826781 0
M  V30 15690 C 1431.09 2.94556 -1.71609 0
M  V30 15691 H 1432.28 1.39887 -2.65276 0
M  V30 15692 H 1429.83 0.695667 -1.39965 0
M  V30 15693 H 1430.57 3.15041 -0.769382 0
M  V30 15694 H 1430.35 2.99002 -2.53654 0
M  V30 15695 H 1431.84 3.72973 -1.87831 0
M  V30 15696 N 1432.28 1.40065 0.722464 0
M  V30 15697 C 1433.53 1.37698 1.47932 0
M  V30 15698 C 1433.85 -0.0222608 1.94987 0
M  V30 15699 O 1433.12 -0.975795 1.69868 0
M  V30 15700 H 1431.7 0.506766 0.548815 0
M  V30 15701 H 1434.36 1.75053 0.856884 0
M  V30 15702 H 1433.46 2.04756 2.35545 0
M  V30 15703 N 1433.76 -0.95397 1.25448 0
M  V30 15704 C 1435.01 -1.6953 1.10018 0
M  V30 15705 C 1435.33 -1.9166 -0.359385 0
M  V30 15706 O 1434.6 -1.50417 -1.25506 0
M  V30 15707 H 1433.18 -0.628238 0.404136 0
M  V30 15708 H 1435.84 -1.14691 1.57581 0
M  V30 15709 H 1434.93 -2.67427 1.60901 0
M  V30 15710 N 1435.24 -1.07045 -1.15668 0
M  V30 15711 C 1436.48 -0.786751 -1.85723 0
M  V30 15712 C 1436.8 0.689604 -1.83041 0
M  V30 15713 O 1438 1.08796 -2.48748 0
M  V30 15714 C 1436.46 -1.35729 -3.33325 0
M  V30 15715 C 1436.07 -2.86444 -3.44462 0
M  V30 15716 C 1437.81 -1.15148 -4.08584 0
M  V30 15717 C 1435.72 -3.36705 -4.86193 0
M  V30 15718 H 1434.65 -0.29063 -0.695737 0
M  V30 15719 H 1437.3 -1.29012 -1.30492 0
M  V30 15720 H 1435.68 -0.781671 -3.88209 0
M  V30 15721 H 1436.86 -3.50023 -2.997 0
M  V30 15722 H 1435.17 -3.0578 -2.82644 0
M  V30 15723 H 1437.77 -1.50179 -5.13177 0
M  V30 15724 H 1438.11 -0.0903159 -4.16202 0
M  V30 15725 H 1438.64 -1.6933 -3.59962 0
M  V30 15726 H 1435.38 -4.42333 -4.83758 0
M  V30 15727 H 1434.9 -2.77877 -5.31549 0
M  V30 15728 H 1436.58 -3.32478 -5.55038 0
M  V30 15729 N 1436.71 1.32449 -0.85411 0
M  V30 15730 C 1437.64 2.31383 -0.313697 0
M  V30 15731 C 1438.62 1.59656 0.586858 0
M  V30 15732 O 1439.81 1.87459 0.507216 0
M  V30 15733 C 1436.94 3.43693 0.499235 0
M  V30 15734 C 1435.89 4.26899 -0.306839 0
M  V30 15735 C 1435.22 5.30966 0.630795 0
M  V30 15736 C 1436.52 4.99318 -1.53229 0
M  V30 15737 H 1438.21 2.76832 -1.14037 0
M  V30 15738 H 1435.76 1.33091 -0.549805 0
M  V30 15739 H 1437.71 4.11944 0.887709 0
M  V30 15740 H 1436.44 2.96971 1.35926 0
M  V30 15741 H 1435.1 3.60294 -0.677061 0
M  V30 15742 H 1434.74 4.80498 1.48765 0
M  V30 15743 H 1434.44 5.87522 0.0954635 0
M  V30 15744 H 1435.97 6.0208 1.01646 0
M  V30 15745 H 1437.38 5.60253 -1.21614 0
M  V30 15746 H 1435.78 5.65596 -2.00552 0
M  V30 15747 H 1436.85 4.27213 -2.29383 0
M  V30 15748 N 1438.19 0.611994 1.45232 0
M  V30 15749 C 1439.14 -0.116695 2.32307 0
M  V30 15750 C 1440.13 -0.85519 1.46229 0
M  V30 15751 O 1441.34 -0.770257 1.62687 0
M  V30 15752 H 1437.71 -0.0564902 0.749875 0
M  V30 15753 H 1439.69 0.636073 2.91542 0
M  V30 15754 C 1438.43 -1.09768 3.29919 0
M  V30 15755 H 1437.76 -0.538848 3.96152 0
M  V30 15756 H 1439.2 -1.57739 3.93566 0
M  V30 15757 C 1437.66 -2.17344 2.57417 0
M  V30 15758 O 1438.19 -3.2515 2.35882 0
M  V30 15759 N 1436.39 -1.92749 2.17477 0
M  V30 15760 H 1435.94 -1.05084 2.35192 0
M  V30 15761 H 1435.9 -2.6493 1.69291 0
M  V30 15762 N 1439.67 -1.53632 0.351409 0
M  V30 15763 C 1441.09 -1.596 -0.000214515 0
M  V30 15764 C 1441.29 -1.36709 -1.4803 0
M  V30 15765 O 1440.34 -1.16524 -2.24006 0
M  V30 15766 C 1441.65 -2.97419 0.443013 0
M  V30 15767 C 1443.2 -3.10485 0.396025 0
M  V30 15768 C 1443.68 -4.50693 0.814843 0
M  V30 15769 N 1445.17 -4.56766 0.76934 0
M  V30 15770 C 1445.9 -5.63418 1.06526 0
M  V30 15771 N 1445.4 -6.77887 1.42974 0
M  V30 15772 N 1447.19 -5.53331 0.988986 0
M  V30 15773 H 1439.34 -1.66765 1.31542 0
M  V30 15774 H 1441.61 -0.781418 0.53674 0
M  V30 15775 H 1441.31 -3.19262 1.47529 0
M  V30 15776 H 1441.19 -3.76781 -0.177725 0
M  V30 15777 H 1443.57 -2.8836 -0.627092 0
M  V30 15778 H 1443.65 -2.33163 1.05207 0
M  V30 15779 H 1443.3 -4.73554 1.83601 0
M  V30 15780 H 1443.23 -5.26424 0.136193 0
M  V30 15781 H 1445.72 -3.74569 0.500623 0
M  V30 15782 H 1446.03 -7.55194 1.64018 0
M  V30 15783 H 1444.38 -6.79314 1.46827 0
M  V30 15784 H 1447.57 -4.62783 0.703526 0
M  V30 15785 H 1447.74 -6.36355 1.22295 0
M  V30 15786 N 1441.15 -0.0802183 -1.57396 0
M  V30 15787 C 1442.39 0.586962 -1.93807 0
M  V30 15788 C 1442.72 1.69107 -0.960887 0
M  V30 15789 O 1441.98 1.95688 0.0220779 0
M  V30 15790 C 1442.28 1.19551 -3.36812 0
M  V30 15791 C 1441.94 0.216701 -4.50379 0
M  V30 15792 C 1440.6 -0.0525552 -4.81171 0
M  V30 15793 C 1442.96 -0.452467 -5.19232 0
M  V30 15794 C 1440.28 -0.997923 -5.78151 0
M  V30 15795 C 1442.64 -1.38621 -6.17225 0
M  V30 15796 C 1441.3 -1.66385 -6.4643 0
M  V30 15797 H 1440.57 0.214785 -0.709189 0
M  V30 15798 H 1443.22 -0.152888 -1.90889 0
M  V30 15799 H 1441.52 2.01129 -3.36236 0
M  V30 15800 H 1443.22 1.71918 -3.62278 0
M  V30 15801 H 1439.81 0.436747 -4.26369 0
M  V30 15802 H 1443.99 -0.257573 -4.95631 0
M  V30 15803 H 1439.25 -1.22019 -5.991 0
M  V30 15804 H 1443.42 -1.91063 -6.69677 0
M  V30 15805 H 1441.05 -2.39799 -7.21388 0
M  V30 15806 N 1442.63 1.56409 0.193394 0
M  V30 15807 C 1443.85 1.8519 0.933775 0
M  V30 15808 C 1444.28 0.663991 1.75991 0
M  V30 15809 O 1443.63 -0.387198 1.77117 0
M  V30 15810 C 1443.68 3.12212 1.80432 0
M  V30 15811 O 1442.79 2.92884 2.90332 0
M  V30 15812 H 1442.13 0.609754 0.262862 0
M  V30 15813 H 1444.66 2.03638 0.198195 0
M  V30 15814 H 1444.67 3.4305 2.20864 0
M  V30 15815 H 1443.34 3.98292 1.19733 0
M  V30 15816 H 1441.92 2.73349 2.53643 0
M  V30 15817 N 1444.1 -0.461169 1.50702 0
M  V30 15818 C 1445.05 -1.5579 1.70288 0
M  V30 15819 C 1446.02 -1.5693 0.544251 0
M  V30 15820 O 1447.21 -1.74308 0.77597 0
M  V30 15821 C 1444.35 -2.93694 1.81212 0
M  V30 15822 C 1443.46 -3.02267 3.0864 0
M  V30 15823 C 1442.59 -4.31147 3.103 0
M  V30 15824 C 1441.63 -4.33498 4.32141 0
M  V30 15825 N 1440.77 -5.53864 4.31484 0
M  V30 15826 H 1445.61 -1.38393 2.63915 0
M  V30 15827 H 1443.15 -0.6727 1.30817 0
M  V30 15828 H 1445.1 -3.73679 1.85526 0
M  V30 15829 H 1443.73 -3.09703 0.91015 0
M  V30 15830 H 1442.79 -2.15093 3.1375 0
M  V30 15831 H 1444.1 -2.99864 3.98601 0
M  V30 15832 H 1443.25 -5.19487 3.13398 0
M  V30 15833 H 1441.99 -4.36172 2.18186 0
M  V30 15834 H 1441 -3.43554 4.29245 0
M  V30 15835 H 1442.22 -4.30156 5.25493 0
M  V30 15836 H 1440.17 -5.59657 3.42229 0
M  V30 15837 H 1440.08 -5.53244 5.15225 0
M  V30 15838 H 1441.35 -6.44302 4.38742 0
M  V30 15839 N 1445.58 -1.40446 -0.715026 0
M  V30 15840 C 1446.86 -1.29253 -1.4681 0
M  V30 15841 C 1447.24 0.0888738 -2.10913 0
M  V30 15842 O 1446.59 1.10172 -2.00186 0
M  V30 15843 C 1446.8 -2.43173 -2.50335 0
M  V30 15844 C 1448.14 -2.83433 -3.1615 0
M  V30 15845 O 1449.17 -2.4277 -2.60655 0
M  V30 15846 O 1448.03 -3.53687 -4.16615 0
M  V30 15847 H 1445.12 -0.507627 -0.652873 0
M  V30 15848 H 1447.67 -1.52367 -0.747153 0
M  V30 15849 H 1446.44 -3.35438 -2.01486 0
M  V30 15850 H 1446.06 -2.21832 -3.29964 0
M  V30 15851 N 1447.06 0.947303 -1.25952 0
M  V30 15852 C 1448.31 1.68721 -1.10527 0
M  V30 15853 C 1448.62 1.92403 0.352215 0
M  V30 15854 O 1449.83 2.6416 0.627036 0
M  V30 15855 C 1448.28 3.03785 -1.92983 0
M  V30 15856 C 1447.89 2.87873 -3.43268 0
M  V30 15857 C 1449.64 3.81509 -1.86149 0
M  V30 15858 C 1447.54 4.18373 -4.17993 0
M  V30 15859 H 1446.47 0.632774 -0.410016 0
M  V30 15860 H 1449.12 1.054 -1.5021 0
M  V30 15861 H 1447.51 3.68052 -1.46128 0
M  V30 15862 H 1448.68 2.32493 -3.97848 0
M  V30 15863 H 1446.99 2.23598 -3.51273 0
M  V30 15864 H 1449.59 4.78179 -2.39267 0
M  V30 15865 H 1449.93 4.07923 -0.83091 0
M  V30 15866 H 1450.47 3.24005 -2.30794 0
M  V30 15867 H 1447.21 3.97145 -5.21494 0
M  V30 15868 H 1446.73 4.7349 -3.68194 0
M  V30 15869 H 1448.41 4.86869 -4.26108 0
M  V30 15870 N 1448.54 1.07657 1.15099 0
M  V30 15871 C 1449.5 0.703558 2.18135 0
M  V30 15872 C 1450.5 -0.257771 1.5872 0
M  V30 15873 O 1451.69 -0.0383211 1.74158 0
M  V30 15874 C 1448.82 0.0374978 3.40879 0
M  V30 15875 H 1450.02 1.61583 2.52648 0
M  V30 15876 H 1447.57 0.873484 1.29615 0
M  V30 15877 H 1448.3 -0.886868 3.11938 0
M  V30 15878 H 1448.09 0.728961 3.85264 0
M  V30 15879 H 1449.58 -0.208714 4.17078 0
M  V30 15880 N 1450.02 -1.31994 0.861122 0
M  V30 15881 C 1451.27 -1.96294 0.463868 0
M  V30 15882 C 1451.58 -1.68869 -0.98704 0
M  V30 15883 O 1452.78 -2.26959 -1.49003 0
M  V30 15884 C 1451.24 -3.51377 0.77858 0
M  V30 15885 C 1450.85 -3.87653 2.24565 0
M  V30 15886 C 1452.59 -4.22115 0.449365 0
M  V30 15887 C 1450.5 -5.35809 2.50324 0
M  V30 15888 H 1449.43 -0.734647 0.169733 0
M  V30 15889 H 1452.08 -1.50294 1.0528 0
M  V30 15890 H 1450.46 -3.95821 0.119005 0
M  V30 15891 H 1451.64 -3.54197 2.94755 0
M  V30 15892 H 1449.95 -3.29957 2.54003 0
M  V30 15893 H 1452.55 -5.31103 0.61916 0
M  V30 15894 H 1452.89 -4.11814 -0.609528 0
M  V30 15895 H 1453.42 -3.83276 1.06511 0
M  V30 15896 H 1450.16 -5.51138 3.54863 0
M  V30 15897 H 1449.68 -5.70648 1.84719 0
M  V30 15898 H 1451.36 -6.02968 2.34602 0
M  V30 15899 N 1451.49 -0.619688 -1.44906 0
M  V30 15900 C 1452.42 0.0791121 -2.33366 0
M  V30 15901 C 1453.41 0.846503 -1.47541 0
M  V30 15902 O 1454.59 0.814657 -1.76287 0
M  V30 15903 C 1451.72 1.06901 -3.30438 0
M  V30 15904 C 1450.67 0.41403 -4.25993 0
M  V30 15905 C 1450 1.51303 -5.12846 0
M  V30 15906 C 1451.3 -0.672483 -5.17953 0
M  V30 15907 H 1452.99 -0.659551 -2.92045 0
M  V30 15908 H 1450.54 -0.318623 -1.40431 0
M  V30 15909 H 1452.49 1.56653 -3.912 0
M  V30 15910 H 1451.22 1.83842 -2.69944 0
M  V30 15911 H 1449.88 -0.0627315 -3.66546 0
M  V30 15912 H 1449.52 2.27303 -4.48712 0
M  V30 15913 H 1449.22 1.08022 -5.77586 0
M  V30 15914 H 1450.75 2.01258 -5.76479 0
M  V30 15915 H 1452.16 -0.258542 -5.72717 0
M  V30 15916 H 1450.56 -1.02776 -5.91234 0
M  V30 15917 H 1451.63 -1.54425 -4.59653 0
M  V30 15918 N 1452.97 1.53444 -0.359552 0
M  V30 15919 C 1454.25 1.93467 0.288106 0
M  V30 15920 C 1454.63 1.29256 1.66901 0
M  V30 15921 O 1453.98 0.449402 2.24037 0
M  V30 15922 C 1454.19 3.47297 0.344359 0
M  V30 15923 C 1455.54 4.20515 0.587585 0
M  V30 15924 O 1456.56 3.53646 0.425818 0
M  V30 15925 O 1455.42 5.39003 0.902119 0
M  V30 15926 H 1452.51 0.809033 0.171451 0
M  V30 15927 H 1455.06 1.64625 -0.411896 0
M  V30 15928 H 1453.83 3.86292 -0.624064 0
M  V30 15929 H 1453.45 3.82353 1.0905 0
M  V30 15930 N 1454.45 0.0885642 1.57351 0
M  V30 15931 C 1455.73 -0.618587 1.85561 0
M  V30 15932 C 1456.11 -1.86753 0.984206 0
M  V30 15933 O 1455.46 -2.28434 0.0548839 0
M  V30 15934 C 1455.67 -0.940222 3.36096 0
M  V30 15935 C 1457.01 -1.30649 4.04 0
M  V30 15936 O 1458.04 -1.03144 3.4094 0
M  V30 15937 O 1456.9 -1.82135 5.15256 0
M  V30 15938 H 1453.99 -0.308881 0.767152 0
M  V30 15939 H 1456.54 0.120767 1.6927 0
M  V30 15940 H 1455.31 -0.0538991 3.91263 0
M  V30 15941 H 1454.93 -1.73577 3.5771 0
M  V30 15942 N 1455.93 -1.56509 -0.185096 0
M  V30 15943 C 1456.86 -1.98363 -1.23184 0
M  V30 15944 C 1457.84 -0.85709 -1.46929 0
M  V30 15945 O 1459.02 -1.12216 -1.58497 0
M  V30 15946 C 1456.15 -2.33172 -2.57387 0
M  V30 15947 C 1455.11 -3.48658 -2.48236 0
M  V30 15948 C 1454.43 -3.69171 -3.86804 0
M  V30 15949 C 1455.73 -4.82538 -1.99885 0
M  V30 15950 H 1457.43 -2.86053 -0.883982 0
M  V30 15951 H 1454.97 -1.37623 -0.423786 0
M  V30 15952 H 1456.93 -2.61048 -3.30805 0
M  V30 15953 H 1455.65 -1.42377 -2.93933 0
M  V30 15954 H 1454.31 -3.20889 -1.77273 0
M  V30 15955 H 1453.96 -2.75689 -4.20719 0
M  V30 15956 H 1453.66 -4.46868 -3.81553 0
M  V30 15957 H 1455.18 -3.99433 -4.61829 0
M  V30 15958 H 1456.6 -5.0938 -2.63068 0
M  V30 15959 H 1454.99 -5.63775 -2.05614 0
M  V30 15960 H 1456.06 -4.75453 -0.952503 0
M  V30 15961 N 1457.41 0.45317 -1.50944 0
M  V30 15962 C 1458.34 1.55655 -1.74051 0
M  V30 15963 C 1459.32 1.59545 -0.58987 0
M  V30 15964 O 1460.5 1.75526 -0.830922 0
M  V30 15965 C 1457.63 2.93857 -1.85109 0
M  V30 15966 C 1456.59 3.04832 -3.00435 0
M  V30 15967 C 1455.91 4.44858 -2.96657 0
M  V30 15968 C 1457.21 2.80381 -4.40663 0
M  V30 15969 H 1458.91 1.36571 -2.66437 0
M  V30 15970 H 1456.45 0.655572 -1.28212 0
M  V30 15971 H 1458.41 3.70992 -1.99857 0
M  V30 15972 H 1457.13 3.14138 -0.893579 0
M  V30 15973 H 1455.79 2.30134 -2.85366 0
M  V30 15974 H 1455.44 4.62083 -1.98716 0
M  V30 15975 H 1455.14 4.53134 -3.7409 0
M  V30 15976 H 1456.66 5.23989 -3.13478 0
M  V30 15977 H 1458.07 3.47255 -4.56165 0
M  V30 15978 H 1456.47 3.00083 -5.19683 0
M  V30 15979 H 1457.54 1.76099 -4.51793 0
M  V30 15980 N 1458.88 1.40823 0.707568 0
M  V30 15981 C 1460.3 1.35249 1.28704 0
M  V30 15982 C 1460.65 0.0298026 1.96177 0
M  V30 15983 O 1459.77 -0.872126 1.98048 0
M  V30 15984 C 1460.37 2.44965 2.34046 0
M  V30 15985 C 1458.93 2.42826 2.87598 0
M  V30 15986 C 1458.07 2.25429 1.61483 0
M  V30 15987 H 1461.02 1.50513 0.503141 0
M  V30 15988 H 1461.04 2.13334 3.1507 0
M  V30 15989 H 1460.56 3.41219 1.84908 0
M  V30 15990 H 1458.66 1.50294 3.40944 0
M  V30 15991 H 1458.77 3.38704 3.38845 0
M  V30 15992 H 1457.13 1.73089 1.86848 0
M  V30 15993 H 1457.92 3.23693 1.14359 0
M  V30 15994 N 1460.36 -0.94061 1.26453 0
M  V30 15995 C 1461.29 -2.05667 1.10559 0
M  V30 15996 C 1462.27 -1.70097 0.0106258 0
M  V30 15997 O 1463.46 -1.93338 0.182756 0
M  V30 15998 C 1460.59 -3.3936 0.7384 0
M  V30 15999 C 1459.54 -3.88993 1.78517 0
M  V30 16000 C 1458.87 -5.19343 1.27228 0
M  V30 16001 C 1460.17 -4.13812 3.1868 0
M  V30 16002 H 1461.86 -2.19221 2.03918 0
M  V30 16003 H 1459.41 -1.05339 0.98182 0
M  V30 16004 H 1461.36 -4.16902 0.61409 0
M  V30 16005 H 1460.09 -3.25783 -0.230887 0
M  V30 16006 H 1458.74 -3.13633 1.89816 0
M  V30 16007 H 1458.39 -5.02147 0.292816 0
M  V30 16008 H 1458.09 -5.53521 1.97201 0
M  V30 16009 H 1459.62 -5.99468 1.16065 0
M  V30 16010 H 1461.03 -4.81966 3.10455 0
M  V30 16011 H 1459.43 -4.59273 3.86249 0
M  V30 16012 H 1460.5 -3.19571 3.64695 0
M  V30 16013 N 1461.84 -1.08266 -1.14527 0
M  V30 16014 C 1463.07 -0.83288 -1.89396 0
M  V30 16015 C 1463.48 0.614823 -1.78509 0
M  V30 16016 O 1462.84 1.42239 -1.14343 0
M  V30 16017 C 1462.89 -1.244 -3.39421 0
M  V30 16018 O 1462.61 -2.63491 -3.50006 0
M  V30 16019 C 1464.11 -1.02488 -4.3129 0
M  V30 16020 H 1461.33 -0.300474 -0.599964 0
M  V30 16021 H 1463.88 -1.44155 -1.4505 0
M  V30 16022 H 1462.03 -0.679466 -3.81395 0
M  V30 16023 H 1462.45 -2.80517 -4.43182 0
M  V30 16024 H 1463.92 -1.36194 -5.34935 0
M  V30 16025 H 1464.4 0.0381961 -4.39183 0
M  V30 16026 H 1465 -1.57477 -3.95071 0
M  V30 16027 N 1463.32 1.31536 -0.86811 0
M  V30 16028 C 1464.57 1.96045 -0.474271 0
M  V30 16029 C 1464.88 1.6939 0.978071 0
M  V30 16030 O 1466.09 2.27746 1.47797 0
M  V30 16031 C 1464.54 3.5096 -0.797203 0
M  V30 16032 C 1464.15 3.86456 -2.26618 0
M  V30 16033 C 1465.9 4.21871 -0.471745 0
M  V30 16034 C 1463.8 5.34474 -2.53162 0
M  V30 16035 H 1462.73 0.733737 -0.173627 0
M  V30 16036 H 1465.38 1.49734 -1.06076 0
M  V30 16037 H 1463.77 3.95752 -0.139994 0
M  V30 16038 H 1464.94 3.52629 -2.9663 0
M  V30 16039 H 1463.25 3.28605 -2.55749 0
M  V30 16040 H 1465.85 5.30767 -0.647317 0
M  V30 16041 H 1466.19 4.12131 0.58768 0
M  V30 16042 H 1466.73 3.82706 -1.08542 0
M  V30 16043 H 1463.47 5.49248 -3.57781 0
M  V30 16044 H 1462.99 5.6966 -1.87743 0
M  V30 16045 H 1464.67 6.01716 -2.37797 0
M  V30 16046 N 1464.8 0.627364 1.44575 0
M  V30 16047 C 1466.04 0.130352 2.0208 0
M  V30 16048 C 1466.37 -1.24642 1.49314 0
M  V30 16049 O 1465.63 -1.84022 0.665923 0
M  V30 16050 C 1465.93 0.0622409 3.57346 0
M  V30 16051 C 1465.59 1.37729 4.2935 0
M  V30 16052 C 1464.25 1.73747 4.48737 0
M  V30 16053 C 1466.61 2.2455 4.70347 0
M  V30 16054 C 1463.93 2.96301 5.06382 0
M  V30 16055 C 1466.29 3.46371 5.29349 0
M  V30 16056 C 1464.95 3.82616 5.46956 0
M  V30 16057 H 1464.22 0.0476991 0.739463 0
M  V30 16058 H 1466.87 0.812928 1.73389 0
M  V30 16059 H 1465.17 -0.70369 3.85429 0
M  V30 16060 H 1466.87 -0.338778 3.99566 0
M  V30 16061 H 1463.46 1.08699 4.14587 0
M  V30 16062 H 1467.64 1.98019 4.55085 0
M  V30 16063 H 1462.9 3.24465 5.18201 0
M  V30 16064 H 1467.07 4.13882 5.60067 0
M  V30 16065 H 1464.7 4.77663 5.9139 0
M  V30 16066 N 1466.28 -1.53251 0.367684 0
M  V30 16067 C 1467.55 -1.93617 -0.277842 0
M  V30 16068 C 1467.93 -1.3014 -1.66213 0
M  V30 16069 O 1467.28 -0.461277 -2.23796 0
M  V30 16070 C 1467.49 -3.47475 -0.325937 0
M  V30 16071 C 1468.84 -4.2082 -0.565276 0
M  V30 16072 O 1469.86 -3.53866 -0.407057 0
M  V30 16073 O 1468.72 -5.39474 -0.873522 0
M  V30 16074 H 1465.82 -0.80993 -0.167158 0
M  V30 16075 H 1468.36 -1.64405 0.420621 0
M  V30 16076 H 1467.13 -3.85955 0.644542 0
M  V30 16077 H 1466.76 -3.82926 -1.07021 0
M  V30 16078 N 1467.75 -0.0969077 -1.57302 0
M  V30 16079 C 1469 0.566373 -1.94418 0
M  V30 16080 C 1469.33 1.68078 -0.978769 0
M  V30 16081 O 1468.58 1.957 0.0013214 0
M  V30 16082 C 1468.88 1.15972 -3.38061 0
M  V30 16083 C 1468.55 0.16892 -4.50583 0
M  V30 16084 C 1467.21 -0.103587 -4.81088 0
M  V30 16085 C 1469.56 -0.507513 -5.18723 0
M  V30 16086 C 1466.89 -1.05919 -5.7706 0
M  V30 16087 C 1469.24 -1.4516 -6.1572 0
M  V30 16088 C 1467.91 -1.73232 -6.44629 0
M  V30 16089 H 1467.18 0.207251 -0.711427 0
M  V30 16090 H 1469.82 -0.173125 -1.90716 0
M  V30 16091 H 1468.13 1.97551 -3.3835 0
M  V30 16092 H 1469.83 1.68066 -3.64081 0
M  V30 16093 H 1466.42 0.391501 -4.26808 0
M  V30 16094 H 1470.6 -0.310127 -4.9533 0
M  V30 16095 H 1465.86 -1.28366 -5.97773 0
M  V30 16096 H 1470.03 -1.98155 -6.67613 0
M  V30 16097 H 1467.66 -2.47436 -7.18804 0
M  V30 16098 N 1469.23 1.56605 0.176793 0
M  V30 16099 C 1470.48 1.80875 0.892578 0
M  V30 16100 C 1470.79 0.673245 1.83648 0
M  V30 16101 O 1472 0.800732 2.59423 0
M  V30 16102 C 1470.46 3.20481 1.63768 0
M  V30 16103 C 1470.06 4.41885 0.737685 0
M  V30 16104 C 1471.81 3.54048 2.34202 0
M  V30 16105 C 1469.71 5.72512 1.48271 0
M  V30 16106 H 1468.64 0.674476 0.337042 0
M  V30 16107 H 1471.3 1.82922 0.145574 0
M  V30 16108 H 1469.68 3.12736 2.42924 0
M  V30 16109 H 1470.85 4.60797 -0.0165186 0
M  V30 16110 H 1469.17 4.16153 0.143277 0
M  V30 16111 H 1471.76 4.48886 2.90526 0
M  V30 16112 H 1472.11 2.78665 3.09276 0
M  V30 16113 H 1472.64 3.63322 1.61995 0
M  V30 16114 H 1469.38 6.5091 0.774399 0
M  V30 16115 H 1468.9 5.57586 2.21038 0
M  V30 16116 H 1470.58 6.14274 2.03165 0
M  V30 16117 N 1470.71 -0.445159 1.51182 0
M  V30 16118 C 1471.64 -1.55788 1.68115 0
M  V30 16119 C 1472.65 -1.52793 0.561964 0
M  V30 16120 O 1473.84 -1.57711 0.836029 0
M  V30 16121 C 1470.94 -2.94702 1.67344 0
M  V30 16122 C 1470.12 -3.22286 2.9572 0
M  V30 16123 C 1469.18 -4.40884 2.87241 0
M  V30 16124 O 1468.2 -4.3992 3.61191 0
M  V30 16125 N 1469.4 -5.44013 2.02558 0
M  V30 16126 H 1472.17 -1.4167 2.64102 0
M  V30 16127 H 1469.73 -0.633984 1.48971 0
M  V30 16128 H 1471.72 -3.7205 1.5925 0
M  V30 16129 H 1470.29 -3.02457 0.789842 0
M  V30 16130 H 1469.51 -2.33309 3.17743 0
M  V30 16131 H 1470.8 -3.3754 3.80715 0
M  V30 16132 H 1470.2 -5.47629 1.4184 0
M  V30 16133 H 1468.75 -6.20245 2.0035 0
M  V30 16134 N 1472.19 -1.41197 -0.700089 0
M  V30 16135 C 1473.12 -1.45456 -1.8266 0
M  V30 16136 C 1474.1 -0.313719 -1.67182 0
M  V30 16137 O 1475.28 -0.524528 -1.86982 0
M  V30 16138 C 1472.41 -1.33161 -3.20758 0
M  V30 16139 C 1471.37 -2.4501 -3.50933 0
M  V30 16140 C 1470.69 -2.17782 -4.88339 0
M  V30 16141 C 1471.99 -3.87352 -3.50365 0
M  V30 16142 H 1473.69 -2.39735 -1.79353 0
M  V30 16143 H 1471.23 -1.1539 -0.861465 0
M  V30 16144 H 1473.19 -1.34754 -3.99274 0
M  V30 16145 H 1471.91 -0.353646 -3.2468 0
M  V30 16146 H 1470.57 -2.42692 -2.74766 0
M  V30 16147 H 1470.22 -1.1834 -4.88881 0
M  V30 16148 H 1469.92 -2.92728 -5.09494 0
M  V30 16149 H 1471.44 -2.21083 -5.6917 0
M  V30 16150 H 1472.86 -3.9141 -4.18893 0
M  V30 16151 H 1471.25 -4.61944 -3.83051 0
M  V30 16152 H 1472.32 -4.15827 -2.4943 0
M  V30 16153 N 1473.67 0.933891 -1.2695 0
M  V30 16154 C 1474.6 2.05078 -1.11649 0
M  V30 16155 C 1475.58 1.70089 -0.0196463 0
M  V30 16156 O 1476.76 1.93239 -0.193007 0
M  V30 16157 C 1473.89 3.38963 -0.756387 0
M  V30 16158 C 1472.85 3.88041 -1.80577 0
M  V30 16159 C 1472.17 5.18661 -1.2998 0
M  V30 16160 C 1473.47 4.12116 -3.2087 0
M  V30 16161 H 1475.17 2.18137 -2.05077 0
M  V30 16162 H 1472.71 1.04817 -0.987392 0
M  V30 16163 H 1474.66 4.1657 -0.63619 0
M  V30 16164 H 1473.39 3.25901 0.213607 0
M  V30 16165 H 1472.05 3.12622 -1.91477 0
M  V30 16166 H 1471.7 5.01985 -0.319442 0
M  V30 16167 H 1471.4 5.52467 -2.00134 0
M  V30 16168 H 1472.92 5.98844 -1.19242 0
M  V30 16169 H 1474.33 4.80312 -3.13006 0
M  V30 16170 H 1472.73 4.57218 -3.88679 0
M  V30 16171 H 1473.8 3.17633 -3.66384 0
M  V30 16172 N 1475.14 1.08871 1.13951 0
M  V30 16173 C 1476.07 0.744715 2.21306 0
M  V30 16174 C 1477.05 -0.275019 1.67862 0
M  V30 16175 O 1478.24 -0.144339 1.93663 0
M  V30 16176 C 1475.37 0.158336 3.46939 0
M  V30 16177 C 1474.32 1.10695 4.13438 0
M  V30 16178 C 1473.65 0.382552 5.3333 0
M  V30 16179 C 1474.95 2.44704 4.61429 0
M  V30 16180 H 1476.64 1.6423 2.50337 0
M  V30 16181 H 1474.19 0.791088 1.20324 0
M  V30 16182 H 1476.14 -0.0943587 4.21294 0
M  V30 16183 H 1474.87 -0.774413 3.17286 0
M  V30 16184 H 1473.53 1.34482 3.41043 0
M  V30 16185 H 1473.17 -0.554153 4.99938 0
M  V30 16186 H 1472.87 1.01499 5.78767 0
M  V30 16187 H 1474.4 0.138023 6.10444 0
M  V30 16188 H 1475.81 2.25156 5.27236 0
M  V30 16189 H 1474.21 3.03684 5.17586 0
M  V30 16190 H 1475.28 3.05883 3.76249 0
M  V30 16191 N 1476.62 -1.31073 0.875073 0
M  V30 16192 C 1477.87 -1.95791 0.484661 0
M  V30 16193 C 1478.18 -1.69907 -0.969074 0
M  V30 16194 O 1479.39 -2.28527 -1.46587 0
M  V30 16195 C 1477.85 -3.50532 0.815804 0
M  V30 16196 C 1477.45 -3.85249 2.28664 0
M  V30 16197 C 1479.2 -4.21615 0.494111 0
M  V30 16198 C 1477.1 -5.33124 2.55993 0
M  V30 16199 H 1476.03 -0.732806 0.177516 0
M  V30 16200 H 1478.69 -1.49169 1.06868 0
M  V30 16201 H 1477.07 -3.95673 0.16098 0
M  V30 16202 H 1478.24 -3.51051 2.98496 0
M  V30 16203 H 1476.56 -3.27244 2.57488 0
M  V30 16204 H 1479.15 -5.30417 0.675456 0
M  V30 16205 H 1479.5 -4.12437 -0.565815 0
M  V30 16206 H 1480.03 -3.82125 1.1057 0
M  V30 16207 H 1476.77 -5.47343 3.60688 0
M  V30 16208 H 1476.29 -5.68657 1.90761 0
M  V30 16209 H 1477.97 -6.00446 2.40984 0
M  V30 16210 N 1478.1 -0.635022 -1.4424 0
M  V30 16211 C 1479.35 -0.141276 -2.02307 0
M  V30 16212 C 1479.68 1.23508 -1.49865 0
M  V30 16213 O 1478.95 1.82065 -0.684291 0
M  V30 16214 C 1479.24 -0.132196 -3.59857 0
M  V30 16215 C 1479.09 -1.54117 -4.22573 0
M  V30 16216 C 1480.41 0.541186 -4.3676 0
M  V30 16217 H 1477.53 -0.0528117 -0.735105 0
M  V30 16218 H 1480.17 -0.812239 -1.71763 0
M  V30 16219 H 1478.32 0.439156 -3.8601 0
M  V30 16220 H 1479.99 -2.16171 -4.07514 0
M  V30 16221 H 1478.24 -2.09389 -3.79919 0
M  V30 16222 H 1478.91 -1.48682 -5.31599 0
M  V30 16223 H 1481.38 0.0552603 -4.16063 0
M  V30 16224 H 1480.26 0.516742 -5.46462 0
M  V30 16225 H 1480.52 1.61222 -4.11655 0
M  V30 16226 N 1479.58 1.53054 -0.375806 0
M  V30 16227 C 1480.83 2.00584 0.211847 0
M  V30 16228 C 1481.14 1.26692 1.49025 0
M  V30 16229 O 1482.35 1.64863 2.15713 0
M  V30 16230 C 1480.8 3.57345 0.428074 0
M  V30 16231 C 1480.41 4.40125 -0.836299 0
M  V30 16232 C 1482.15 4.13203 0.972825 0
M  V30 16233 C 1480.06 5.88459 -0.589093 0
M  V30 16234 H 1478.99 0.749424 0.0829412 0
M  V30 16235 H 1481.64 1.76666 -0.496126 0
M  V30 16236 H 1480.02 3.77458 1.19756 0
M  V30 16237 H 1481.2 4.31782 -1.60936 0
M  V30 16238 H 1479.51 3.95422 -1.30501 0
M  V30 16239 H 1482.11 5.21669 1.17326 0
M  V30 16240 H 1482.45 3.68441 1.93797 0
M  V30 16241 H 1482.99 3.96928 0.263249 0
M  V30 16242 H 1479.73 6.37517 -1.52485 0
M  V30 16243 H 1479.25 5.99624 0.145285 0
M  V30 16244 H 1480.92 6.46631 -0.218485 0
M  V30 16245 N 1481.06 0.105248 1.57248 0
M  V30 16246 C 1482.3 -0.554956 1.94331 0
M  V30 16247 C 1482.63 -1.68087 0.988528 0
M  V30 16248 O 1481.9 -1.95854 0.042366 0
M  V30 16249 H 1480.48 -0.207994 0.717459 0
M  V30 16250 H 1483.14 0.170964 1.94149 0
M  V30 16251 H 1482.23 -0.95853 2.97016 0
M  V30 16252 N 1482.53 -1.56697 -0.168486 0
M  V30 16253 C 1483.5 -1.95744 -1.19235 0
M  V30 16254 C 1484.5 -0.841419 -1.37028 0
M  V30 16255 O 1485.69 -1.10842 -1.34386 0
M  V30 16256 C 1482.82 -2.25471 -2.55686 0
M  V30 16257 H 1484.01 -2.87368 -0.857892 0
M  V30 16258 H 1481.57 -1.50798 -0.411041 0
M  V30 16259 H 1482.3 -1.36571 -2.94141 0
M  V30 16260 H 1482.09 -3.06822 -2.44137 0
M  V30 16261 H 1483.58 -2.56593 -3.29469 0
M  V30 16262 N 1484.01 0.437135 -1.51416 0
M  V30 16263 C 1485.26 1.1835 -1.63328 0
M  V30 16264 C 1485.57 1.92343 -0.355455 0
M  V30 16265 O 1486.78 2.69183 -0.353951 0
M  V30 16266 C 1485.24 2.15235 -2.88447 0
M  V30 16267 C 1484.84 1.46889 -4.23235 0
M  V30 16268 C 1486.59 2.90303 -3.09716 0
M  V30 16269 C 1484.5 2.42259 -5.39504 0
M  V30 16270 H 1483.43 0.445467 -0.608338 0
M  V30 16271 H 1486.08 0.450528 -1.77883 0
M  V30 16272 H 1484.46 2.91968 -2.67527 0
M  V30 16273 H 1485.63 0.757128 -4.54537 0
M  V30 16274 H 1483.95 0.839725 -4.07845 0
M  V30 16275 H 1486.54 3.61747 -3.93756 0
M  V30 16276 H 1486.89 3.5166 -2.22802 0
M  V30 16277 H 1487.42 2.20677 -3.30978 0
M  V30 16278 H 1484.16 1.85591 -6.28678 0
M  V30 16279 H 1483.68 3.11488 -5.12577 0
M  V30 16280 H 1485.36 3.03384 -5.7146 0
M  V30 16281 N 1485.49 1.41566 0.692592 0
M  V30 16282 C 1486.45 1.43369 1.78824 0
M  V30 16283 C 1487.45 0.323867 1.57505 0
M  V30 16284 O 1488.64 0.583885 1.64123 0
M  V30 16285 C 1485.78 1.24798 3.17235 0
M  V30 16286 H 1486.97 2.40906 1.78617 0
M  V30 16287 H 1484.52 1.27752 0.900508 0
M  V30 16288 H 1485.26 0.281129 3.23079 0
M  V30 16289 H 1485.04 2.05212 3.34111 0
M  V30 16290 H 1486.53 1.28902 3.97208 0
M  V30 16291 N 1486.97 -0.927146 1.27443 0
M  V30 16292 C 1488.21 -1.67738 1.13982 0
M  V30 16293 C 1488.55 -1.91653 -0.313511 0
M  V30 16294 O 1487.82 -1.50729 -1.22926 0
M  V30 16295 C 1488.11 -3.04357 1.92454 0
M  V30 16296 C 1487.96 -2.8768 3.45775 0
M  V30 16297 C 1489.28 -4.04696 1.72944 0
M  V30 16298 H 1486.4 -0.608749 0.415444 0
M  V30 16299 H 1489.04 -1.07587 1.56605 0
M  V30 16300 H 1487.19 -3.55702 1.56232 0
M  V30 16301 H 1488.86 -2.43449 3.9183 0
M  V30 16302 H 1487.1 -2.23011 3.72087 0
M  V30 16303 H 1487.77 -3.8464 3.95924 0
M  V30 16304 H 1490.25 -3.62364 2.04528 0
M  V30 16305 H 1489.13 -4.98276 2.30243 0
M  V30 16306 H 1489.39 -4.36878 0.677505 0
M  V30 16307 N 1488.45 -1.09474 -1.13372 0
M  V30 16308 C 1489.69 -0.832323 -1.84933 0
M  V30 16309 C 1490.03 0.640469 -1.83335 0
M  V30 16310 O 1489.3 1.47158 -1.2718 0
M  V30 16311 C 1489.58 -1.36876 -3.33072 0
M  V30 16312 C 1489.44 -2.90769 -3.43181 0
M  V30 16313 C 1490.76 -1.00294 -4.2852 0
M  V30 16314 H 1487.87 -0.30382 -0.671463 0
M  V30 16315 H 1490.52 -1.35622 -1.33066 0
M  V30 16316 H 1488.67 -0.923134 -3.77373 0
M  V30 16317 H 1490.34 -3.43784 -3.07588 0
M  V30 16318 H 1488.58 -3.27876 -2.84042 0
M  V30 16319 H 1489.25 -3.23381 -4.47358 0
M  V30 16320 H 1491.73 -1.38729 -3.92293 0
M  V30 16321 H 1490.6 -1.40533 -5.30605 0
M  V30 16322 H 1490.87 0.0888133 -4.42011 0
M  V30 16323 N 1489.92 1.30607 -0.882012 0
M  V30 16324 C 1490.89 2.26489 -0.351498 0
M  V30 16325 C 1491.89 1.52686 0.504348 0
M  V30 16326 O 1493.08 1.71385 0.311928 0
M  V30 16327 C 1490.21 3.37222 0.499435 0
M  V30 16328 H 1491.4 2.74929 -1.19809 0
M  V30 16329 H 1488.96 1.41746 -0.658616 0
M  V30 16330 H 1489.69 2.94093 1.36673 0
M  V30 16331 H 1489.48 3.91936 -0.11356 0
M  V30 16332 H 1490.97 4.08596 0.862497 0
M  V30 16333 N 1491.4 0.642663 1.43901 0
M  V30 16334 C 1492.65 0.152003 2.0223 0
M  V30 16335 C 1492.98 -1.22711 1.50518 0
M  V30 16336 O 1492.26 -1.817 0.693937 0
M  V30 16337 C 1492.54 0.151278 3.59782 0
M  V30 16338 C 1492.39 1.56356 4.2175 0
M  V30 16339 C 1493.71 -0.518016 4.37041 0
M  V30 16340 H 1490.83 0.0567094 0.734815 0
M  V30 16341 H 1493.47 0.821337 1.7133 0
M  V30 16342 H 1491.62 -0.418679 3.86237 0
M  V30 16343 H 1493.29 2.18329 4.06362 0
M  V30 16344 H 1491.54 2.11401 3.78803 0
M  V30 16345 H 1492.21 1.51499 5.30803 0
M  V30 16346 H 1494.68 -0.0331947 4.16087 0
M  V30 16347 H 1493.56 -0.487754 5.46729 0
M  V30 16348 H 1493.82 -1.59036 4.12504 0
M  V30 16349 N 1492.88 -1.52852 0.383918 0
M  V30 16350 C 1493.81 -2.29213 -0.44539 0
M  V30 16351 C 1494.79 -1.3238 -1.06815 0
M  V30 16352 O 1495.98 -1.61269 -1.08194 0
M  V30 16353 C 1493.11 -3.09497 -1.57573 0
M  V30 16354 C 1492.06 -4.14168 -1.07928 0
M  V30 16355 C 1491.39 -4.82644 -2.30128 0
M  V30 16356 C 1492.69 -5.22082 -0.151035 0
M  V30 16357 H 1494.38 -2.98786 0.19172 0
M  V30 16358 H 1491.93 -1.43695 0.0936471 0
M  V30 16359 H 1493.88 -3.61672 -2.16267 0
M  V30 16360 H 1492.6 -2.37647 -2.24034 0
M  V30 16361 H 1491.26 -3.62966 -0.514909 0
M  V30 16362 H 1490.91 -4.07348 -2.95087 0
M  V30 16363 H 1490.61 -5.53388 -1.97574 0
M  V30 16364 H 1492.14 -5.37621 -2.89475 0
M  V30 16365 H 1493.55 -5.69649 -0.646003 0
M  V30 16366 H 1491.95 -6.00041 0.0844833 0
M  V30 16367 H 1493.02 -4.78228 0.801618 0
M  V30 16368 N 1494.36 -0.113586 -1.5719 0
M  V30 16369 C 1495.29 0.868985 -2.12088 0
M  V30 16370 C 1496.3 1.23362 -1.06233 0
M  V30 16371 O 1497.49 1.18352 -1.33623 0
M  V30 16372 C 1494.59 2.17252 -2.60106 0
M  V30 16373 C 1493.77 1.9804 -3.89999 0
M  V30 16374 C 1492.83 3.12073 -4.23671 0
M  V30 16375 O 1491.85 2.85224 -4.92581 0
M  V30 16376 N 1493.05 4.38358 -3.80556 0
M  V30 16377 H 1495.82 0.399996 -2.97019 0
M  V30 16378 H 1493.38 0.0709947 -1.61744 0
M  V30 16379 H 1495.37 2.92523 -2.79665 0
M  V30 16380 H 1493.94 2.55516 -1.80084 0
M  V30 16381 H 1493.16 1.06993 -3.79402 0
M  V30 16382 H 1494.45 1.82502 -4.74943 0
M  V30 16383 H 1493.85 4.63048 -3.24966 0
M  V30 16384 H 1492.4 5.10518 -4.05234 0
M  V30 16385 N 1495.84 1.56784 0.160173 0
M  V30 16386 C 1497.25 1.72193 0.721552 0
M  V30 16387 C 1497.6 0.725901 1.82278 0
M  V30 16388 O 1496.72 -0.110343 2.16118 0
M  V30 16389 C 1497.32 3.12212 1.31563 0
M  V30 16390 C 1495.88 3.29268 1.82371 0
M  V30 16391 C 1495.03 2.68136 0.70701 0
M  V30 16392 H 1497.98 1.58565 -0.0653521 0
M  V30 16393 H 1498 3.11481 2.1854 0
M  V30 16394 H 1497.51 3.84682 0.513917 0
M  V30 16395 H 1495.61 2.61774 2.65152 0
M  V30 16396 H 1495.72 4.37107 1.96149 0
M  V30 16397 H 1494.09 2.28246 1.1303 0
M  V30 16398 H 1494.87 3.432 -0.0830407 0
M  V30 16399 N 1497.32 -0.429099 1.51646 0
M  V30 16400 C 1498.55 -1.19832 1.68297 0
M  V30 16401 C 1498.95 -1.85275 0.383378 0
M  V30 16402 O 1498.3 -1.71862 -0.648771 0
M  V30 16403 C 1498.36 -2.31803 2.74786 0
M  V30 16404 C 1498.02 -1.8666 4.17141 0
M  V30 16405 C 1499.02 -1.36544 5.01649 0
M  V30 16406 C 1496.7 -1.94101 4.63282 0
M  V30 16407 C 1498.7 -0.944655 6.30361 0
M  V30 16408 C 1496.39 -1.51634 5.91988 0
M  V30 16409 C 1497.38 -1.01899 6.75356 0
M  V30 16410 O 1497.07 -0.600375 8.01655 0
M  V30 16411 H 1496.8 -0.366924 0.567752 0
M  V30 16412 H 1499.36 -0.513643 1.98874 0
M  V30 16413 H 1497.59 -3.03573 2.39542 0
M  V30 16414 H 1499.28 -2.93639 2.80234 0
M  V30 16415 H 1500.04 -1.30184 4.67201 0
M  V30 16416 H 1495.92 -2.31758 3.98509 0
M  V30 16417 H 1499.47 -0.555763 6.95383 0
M  V30 16418 H 1495.36 -1.57667 6.25948 0
M  V30 16419 H 1496.13 -0.725485 8.15278 0
M  V30 16420 N 1498.79 -1.41931 -0.685074 0
M  V30 16421 C 1500.04 -1.41147 -1.44085 0
M  V30 16422 C 1500.36 -0.0275793 -1.95581 0
M  V30 16423 O 1501.56 0.102873 -2.71305 0
M  V30 16424 C 1500.02 -2.4823 -2.60596 0
M  V30 16425 C 1499.63 -3.92576 -2.15842 0
M  V30 16426 C 1501.37 -2.56597 -3.38169 0
M  V30 16427 C 1499.28 -4.91189 -3.29374 0
M  V30 16428 H 1498.21 -0.52494 -0.541252 0
M  V30 16429 H 1500.86 -1.67798 -0.7427 0
M  V30 16430 H 1499.24 -2.14727 -3.32729 0
M  V30 16431 H 1500.41 -4.35381 -1.50929 0
M  V30 16432 H 1498.73 -3.87965 -1.51235 0
M  V30 16433 H 1501.33 -3.27453 -4.22704 0
M  V30 16434 H 1501.67 -1.60618 -3.84067 0
M  V30 16435 H 1502.2 -2.89244 -2.73099 0
M  V30 16436 H 1498.94 -5.88609 -2.88477 0
M  V30 16437 H 1498.46 -4.53024 -3.93102 0
M  V30 16438 H 1500.14 -5.12433 -3.94996 0
M  V30 16439 N 1500.27 0.920374 -1.27933 0
M  V30 16440 C 1501.52 1.66883 -1.147 0
M  V30 16441 C 1501.85 1.92082 0.305732 0
M  V30 16442 O 1501.1 1.51449 1.23942 0
M  V30 16443 C 1501.4 3.03725 -1.88377 0
M  V30 16444 C 1501.07 2.9821 -3.38203 0
M  V30 16445 C 1499.73 2.96413 -3.79068 0
M  V30 16446 C 1502.08 2.88952 -4.3377 0
M  V30 16447 C 1499.41 2.83151 -5.13851 0
M  V30 16448 C 1501.76 2.77231 -5.68618 0
M  V30 16449 C 1500.42 2.73788 -6.08766 0
M  V30 16450 H 1499.69 0.61067 -0.419718 0
M  V30 16451 H 1502.34 1.0728 -1.58629 0
M  V30 16452 H 1500.65 3.67075 -1.36978 0
M  V30 16453 H 1502.34 3.60527 -1.7556 0
M  V30 16454 H 1498.93 3.004 -3.05709 0
M  V30 16455 H 1503.12 2.89433 -4.03165 0
M  V30 16456 H 1498.37 2.78877 -5.44093 0
M  V30 16457 H 1502.55 2.69034 -6.42335 0
M  V30 16458 H 1500.17 2.63268 -7.13158 0
M  V30 16459 N 1501.75 1.10074 1.1279 0
M  V30 16460 C 1503 0.842118 1.84489 0
M  V30 16461 C 1503.33 -0.630737 1.83672 0
M  V30 16462 O 1502.6 -1.46481 1.27959 0
M  V30 16463 C 1502.89 1.3864 3.32342 0
M  V30 16464 C 1502.74 2.92585 3.41635 0
M  V30 16465 C 1504.06 1.02565 4.27982 0
M  V30 16466 H 1501.18 0.307376 0.669842 0
M  V30 16467 H 1503.82 1.36326 1.32345 0
M  V30 16468 H 1501.97 0.943134 3.76878 0
M  V30 16469 H 1503.64 3.4541 3.0576 0
M  V30 16470 H 1501.88 3.29378 2.82299 0
M  V30 16471 H 1502.56 3.25749 4.45636 0
M  V30 16472 H 1505.03 1.40807 3.91552 0
M  V30 16473 H 1503.91 1.43345 5.29852 0
M  V30 16474 H 1504.17 -0.0653712 4.42052 0
M  V30 16475 N 1503.23 -1.30138 0.888926 0
M  V30 16476 C 1504.19 -2.26299 0.363504 0
M  V30 16477 C 1505.19 -1.52951 -0.496244 0
M  V30 16478 O 1506.38 -1.71548 -0.302834 0
M  V30 16479 C 1503.51 -3.37482 -0.481544 0
M  V30 16480 H 1504.71 -2.7429 1.21265 0
M  V30 16481 H 1502.26 -1.41395 0.666124 0
M  V30 16482 H 1502.99 -2.94814 -1.35112 0
M  V30 16483 H 1502.78 -3.9187 0.134344 0
M  V30 16484 H 1504.27 -4.09048 -0.840816 0
M  V30 16485 N 1504.71 -0.650285 -1.43559 0
M  V30 16486 C 1505.93 -0.170139 -2.06199 0
M  V30 16487 C 1506.35 1.16304 -1.48724 0
M  V30 16488 O 1505.71 1.71739 -0.617418 0
M  V30 16489 C 1505.76 -0.0698577 -3.61432 0
M  V30 16490 O 1505.48 -1.35033 -4.16771 0
M  V30 16491 C 1506.98 0.436714 -4.41144 0
M  V30 16492 H 1504.2 -0.0885316 -0.665134 0
M  V30 16493 H 1506.74 -0.890104 -1.84112 0
M  V30 16494 H 1504.9 0.60065 -3.82715 0
M  V30 16495 H 1505.31 -1.20762 -5.10409 0
M  V30 16496 H 1506.79 0.455843 -5.50115 0
M  V30 16497 H 1507.26 1.46747 -4.13959 0
M  V30 16498 H 1507.87 -0.201201 -4.24824 0
M  V30 16499 N 1506.18 1.52647 -0.392018 0
M  V30 16500 C 1507.43 2.01912 0.18958 0
M  V30 16501 C 1507.76 1.27786 1.46234 0
M  V30 16502 O 1507.04 0.379124 1.90769 0
M  V30 16503 C 1507.32 3.57217 0.454734 0
M  V30 16504 C 1507.17 4.4201 -0.833501 0
M  V30 16505 C 1508.49 4.22146 1.24421 0
M  V30 16506 H 1505.61 0.733909 0.0674281 0
M  V30 16507 H 1508.25 1.82685 -0.52212 0
M  V30 16508 H 1506.4 3.73731 1.06101 0
M  V30 16509 H 1508.08 4.37242 -1.47027 0
M  V30 16510 H 1506.32 4.08912 -1.44823 0
M  V30 16511 H 1506.99 5.48701 -0.602585 0
M  V30 16512 H 1509.47 4.09627 0.731093 0
M  V30 16513 H 1508.34 5.30786 1.39848 0
M  V30 16514 H 1508.6 3.7996 2.26016 0
M  V30 16515 N 1507.66 0.121921 1.57128 0
M  V30 16516 C 1509.07 -0.402991 1.82299 0
M  V30 16517 C 1509.42 -1.66415 1.03925 0
M  V30 16518 O 1508.55 -2.14623 0.27674 0
M  V30 16519 C 1509.14 -0.737913 3.30666 0
M  V30 16520 C 1507.7 -1.20745 3.56508 0
M  V30 16521 C 1506.85 -0.217628 2.76445 0
M  V30 16522 H 1509.8 0.347009 1.5486 0
M  V30 16523 H 1509.82 -1.59505 3.45454 0
M  V30 16524 H 1509.33 0.180162 3.87682 0
M  V30 16525 H 1507.44 -2.14232 3.04853 0
M  V30 16526 H 1507.55 -1.15075 4.65075 0
M  V30 16527 H 1505.91 -0.705253 2.44741 0
M  V30 16528 H 1506.7 0.693596 3.3622 0
M  V30 16529 N 1509.14 -1.56867 -0.151857 0
M  V30 16530 C 1510.39 -1.83353 -0.866566 0
M  V30 16531 C 1510.72 -0.702784 -1.81038 0
M  V30 16532 O 1509.99 0.293944 -1.92266 0
M  V30 16533 C 1510.28 -3.20316 -1.64529 0
M  V30 16534 C 1510.13 -4.43946 -0.723297 0
M  V30 16535 C 1511.45 -3.54441 -2.60882 0
M  V30 16536 H 1508.57 -0.666957 -0.313588 0
M  V30 16537 H 1511.21 -1.89541 -0.131954 0
M  V30 16538 H 1509.36 -3.15172 -2.27154 0
M  V30 16539 H 1511.03 -4.61173 -0.10842 0
M  V30 16540 H 1509.28 -4.33788 -0.0325582 0
M  V30 16541 H 1509.95 -5.36374 -1.3041 0
M  V30 16542 H 1512.42 -3.60164 -2.08377 0
M  V30 16543 H 1511.3 -4.51314 -3.12422 0
M  V30 16544 H 1511.56 -2.80146 -3.42009 0
M  V30 16545 N 1510.62 0.421051 -1.51871 0
M  V30 16546 C 1511.87 1.16611 -1.64574 0
M  V30 16547 C 1512.18 1.91955 -0.375835 0
M  V30 16548 O 1513.39 2.68792 -0.382481 0
M  V30 16549 C 1511.84 2.12164 -2.90714 0
M  V30 16550 C 1511.45 1.42392 -4.24769 0
M  V30 16551 C 1513.19 2.87002 -3.12778 0
M  V30 16552 C 1511.1 2.36523 -5.42043 0
M  V30 16553 H 1510.03 0.438989 -0.613029 0
M  V30 16554 H 1512.68 0.431636 -1.78351 0
M  V30 16555 H 1511.06 2.89114 -2.70608 0
M  V30 16556 H 1512.24 0.708875 -4.55315 0
M  V30 16557 H 1510.55 0.796421 -4.08713 0
M  V30 16558 H 1513.15 3.5755 -3.9757 0
M  V30 16559 H 1513.49 3.49277 -2.2652 0
M  V30 16560 H 1514.03 2.17154 -3.333 0
M  V30 16561 H 1510.77 1.78913 -6.30611 0
M  V30 16562 H 1510.29 3.06034 -5.15852 0
M  V30 16563 H 1511.96 2.97306 -5.74646 0
M  V30 16564 N 1512.1 1.42293 0.677538 0
M  V30 16565 C 1513.34 1.42827 1.43973 0
M  V30 16566 C 1513.68 0.0435041 1.94151 0
M  V30 16567 O 1512.95 -0.931794 1.70727 0
M  V30 16568 C 1513.23 2.45037 2.63873 0
M  V30 16569 C 1513.09 3.92694 2.19344 0
M  V30 16570 C 1514.41 2.4427 3.66087 0
M  V30 16571 H 1511.52 0.520097 0.522176 0
M  V30 16572 H 1514.17 1.73688 0.770219 0
M  V30 16573 H 1512.32 2.18851 3.20993 0
M  V30 16574 H 1513.99 4.2985 1.67412 0
M  V30 16575 H 1512.23 4.06692 1.50944 0
M  V30 16576 H 1512.9 4.59784 3.05455 0
M  V30 16577 H 1515.38 2.67551 3.18678 0
M  V30 16578 H 1514.25 3.17769 4.47564 0
M  V30 16579 H 1514.52 1.46769 4.17027 0
M  V30 16580 N 1513.57 -0.913576 1.28419 0
M  V30 16581 C 1514.54 -1.99757 1.12382 0
M  V30 16582 C 1515.54 -1.60675 0.063435 0
M  V30 16583 O 1516.73 -1.71433 0.30923 0
M  V30 16584 C 1513.86 -3.33307 0.715506 0
M  V30 16585 H 1515.05 -2.15414 2.08655 0
M  V30 16586 H 1512.61 -1.09626 1.11408 0
M  V30 16587 H 1513.34 -3.23351 -0.247977 0
M  V30 16588 H 1513.13 -3.63034 1.4815 0
M  V30 16589 H 1514.62 -4.12882 0.625953 0
M  V30 16590 N 1515.05 -1.1067 -1.12204 0
M  V30 16591 C 1516.3 -0.85063 -1.83768 0
M  V30 16592 C 1516.63 0.62379 -1.84226 0
M  V30 16593 O 1515.88 1.47603 -1.28498 0
M  V30 16594 C 1516.18 -1.34727 -3.31034 0
M  V30 16595 C 1515.85 -2.83353 -3.50745 0
M  V30 16596 C 1514.51 -3.2394 -3.55832 0
M  V30 16597 C 1516.86 -3.79118 -3.57658 0
M  V30 16598 C 1514.19 -4.59036 -3.6538 0
M  V30 16599 C 1516.54 -5.1402 -3.68736 0
M  V30 16600 C 1515.21 -5.54177 -3.72081 0
M  V30 16601 H 1514.48 -0.311268 -0.672453 0
M  V30 16602 H 1517.12 -1.38373 -1.32383 0
M  V30 16603 H 1515.43 -0.73424 -3.84859 0
M  V30 16604 H 1517.12 -1.12558 -3.84879 0
M  V30 16605 H 1513.71 -2.50952 -3.47449 0
M  V30 16606 H 1517.9 -3.48867 -3.52995 0
M  V30 16607 H 1513.15 -4.89568 -3.66243 0
M  V30 16608 H 1517.33 -5.88067 -3.73028 0
M  V30 16609 H 1514.96 -6.58853 -3.79232 0
M  V30 16610 N 1516.53 1.29665 -0.895815 0
M  V30 16611 C 1517.78 1.94995 -0.515749 0
M  V30 16612 C 1518.09 1.71427 0.94192 0
M  V30 16613 O 1519.3 2.3083 1.42933 0
M  V30 16614 C 1517.75 3.4919 -0.871468 0
M  V30 16615 C 1517.36 3.81562 -2.34764 0
M  V30 16616 C 1519.11 4.20775 -0.561123 0
M  V30 16617 C 1517.01 5.28984 -2.64442 0
M  V30 16618 H 1515.94 0.729889 -0.189151 0
M  V30 16619 H 1518.59 1.4745 -1.09228 0
M  V30 16620 H 1516.98 3.95366 -0.223908 0
M  V30 16621 H 1518.15 3.46258 -3.04043 0
M  V30 16622 H 1516.47 3.23107 -2.62661 0
M  V30 16623 H 1519.06 5.29275 -0.759755 0
M  V30 16624 H 1519.41 4.13285 0.500129 0
M  V30 16625 H 1519.94 3.80317 -1.16635 0
M  V30 16626 H 1516.68 5.41535 -3.69351 0
M  V30 16627 H 1516.2 5.6555 -1.99784 0
M  V30 16628 H 1517.88 5.96536 -2.50506 0
M  V30 16629 N 1518.01 0.657889 1.43212 0
M  V30 16630 C 1518.94 -0.0807001 2.28057 0
M  V30 16631 C 1519.92 -0.825321 1.40097 0
M  V30 16632 O 1521.1 -0.823932 1.69539 0
M  V30 16633 C 1518.23 -1.12112 3.19607 0
M  V30 16634 C 1517.28 -0.474017 4.23858 0
M  V30 16635 S 1518.11 0.75589 5.30138 0
M  V30 16636 C 1519.27 -0.28388 6.25256 0
M  V30 16637 H 1519.5 0.639012 2.90351 0
M  V30 16638 H 1517.03 0.446876 1.47792 0
M  V30 16639 H 1518.99 -1.71637 3.72895 0
M  V30 16640 H 1517.65 -1.81318 2.56481 0
M  V30 16641 H 1516.84 -1.25849 4.88035 0
M  V30 16642 H 1516.45 0.0472307 3.7397 0
M  V30 16643 H 1518.74 -1.14869 6.67691 0
M  V30 16644 H 1519.68 0.322986 7.07363 0
M  V30 16645 H 1520.09 -0.621781 5.61065 0
M  V30 16646 N 1519.49 -1.52437 0.400108 0
M  V30 16647 C 1520.42 -2.29672 -0.421054 0
M  V30 16648 C 1521.4 -1.33506 -1.05405 0
M  V30 16649 O 1522.58 -1.62408 -1.06477 0
M  V30 16650 C 1519.71 -3.1115 -1.54281 0
M  V30 16651 C 1518.67 -4.1529 -1.0353 0
M  V30 16652 C 1517.99 -4.85058 -2.24996 0
M  V30 16653 C 1519.29 -5.22212 -0.0956529 0
M  V30 16654 H 1520.99 -2.98565 0.2234 0
M  V30 16655 H 1518.53 -1.43588 0.108883 0
M  V30 16656 H 1520.49 -3.63945 -2.12419 0
M  V30 16657 H 1519.21 -2.4001 -2.21501 0
M  V30 16658 H 1517.87 -3.63492 -0.476383 0
M  V30 16659 H 1517.52 -4.10455 -2.9075 0
M  V30 16660 H 1517.22 -5.55452 -1.91694 0
M  V30 16661 H 1518.74 -5.40661 -2.83756 0
M  V30 16662 H 1520.15 -5.70302 -0.585548 0
M  V30 16663 H 1518.55 -5.99917 0.148121 0
M  V30 16664 H 1519.62 -4.77351 0.852296 0
M  V30 16665 N 1520.96 -0.130252 -1.57061 0
M  V30 16666 C 1522.38 0.226279 -1.57988 0
M  V30 16667 C 1522.58 1.65902 -1.14363 0
M  V30 16668 O 1521.64 2.38252 -0.836191 0
M  V30 16669 C 1522.95 -0.0172647 -3.00695 0
M  V30 16670 C 1524.5 0.0477572 -3.12964 0
M  V30 16671 C 1524.97 -0.168238 -4.57691 0
M  V30 16672 N 1526.46 -0.114591 -4.63058 0
M  V30 16673 C 1527.2 -0.256462 -5.72826 0
M  V30 16674 N 1526.69 -0.455129 -6.91303 0
M  V30 16675 N 1528.49 -0.195243 -5.61761 0
M  V30 16676 H 1520.64 -1.06594 -1.83716 0
M  V30 16677 H 1522.9 -0.420643 -0.849567 0
M  V30 16678 H 1522.61 -1.00819 -3.3694 0
M  V30 16679 H 1522.48 0.709629 -3.70465 0
M  V30 16680 H 1524.87 1.02922 -2.7657 0
M  V30 16681 H 1524.95 -0.711198 -2.45714 0
M  V30 16682 H 1524.59 -1.14673 -4.94785 0
M  V30 16683 H 1524.52 0.610839 -5.23045 0
M  V30 16684 H 1527.01 0.0349873 -3.77884 0
M  V30 16685 H 1527.33 -0.553943 -7.70812 0
M  V30 16686 H 1525.67 -0.491244 -6.93262 0
M  V30 16687 H 1528.86 -0.0409186 -4.68082 0
M  V30 16688 H 1529.04 -0.309248 -6.47262 0
M  V30 16689 N 1522.44 1.56945 0.143535 0
M  V30 16690 C 1523.41 1.97616 1.16106 0
M  V30 16691 C 1524.41 0.863113 1.35672 0
M  V30 16692 O 1525.6 1.12966 1.32606 0
M  V30 16693 C 1522.73 2.29511 2.52067 0
M  V30 16694 H 1523.92 2.88696 0.812066 0
M  V30 16695 H 1521.47 1.51433 0.386999 0
M  V30 16696 H 1522.21 1.41233 2.91931 0
M  V30 16697 H 1521.99 3.10667 2.39225 0
M  V30 16698 H 1523.48 2.61802 3.25345 0
M  V30 16699 N 1523.92 -0.412991 1.52093 0
M  V30 16700 C 1525.15 -1.1804 1.69558 0
M  V30 16701 C 1525.56 -1.84858 0.403007 0
M  V30 16702 O 1524.9 -1.72541 -0.630506 0
M  V30 16703 C 1524.96 -2.28876 2.7723 0
M  V30 16704 C 1524.63 -1.82226 4.19098 0
M  V30 16705 C 1525.63 -1.31216 5.03069 0
M  V30 16706 C 1523.31 -1.89177 4.65314 0
M  V30 16707 C 1525.3 -0.877743 6.31328 0
M  V30 16708 C 1522.99 -1.45347 5.93563 0
M  V30 16709 C 1523.99 -0.947302 6.76399 0
M  V30 16710 O 1523.68 -0.515315 8.02247 0
M  V30 16711 H 1523.41 -0.360882 0.571612 0
M  V30 16712 H 1525.96 -0.492521 1.99408 0
M  V30 16713 H 1524.19 -3.01015 2.42748 0
M  V30 16714 H 1525.88 -2.9065 2.83333 0
M  V30 16715 H 1526.65 -1.25221 4.68556 0
M  V30 16716 H 1522.53 -2.27518 4.00945 0
M  V30 16717 H 1526.07 -0.481977 6.95933 0
M  V30 16718 H 1521.97 -1.51019 6.27585 0
M  V30 16719 H 1522.74 -0.638973 8.16002 0
M  V30 16720 N 1525.4 -1.4265 -0.669982 0
M  V30 16721 C 1526.65 -1.43376 -1.43002 0
M  V30 16722 C 1526.97 -0.0519386 -1.94431 0
M  V30 16723 O 1526.23 0.940456 -1.71621 0
M  V30 16724 C 1526.53 -2.40913 -2.63999 0
M  V30 16725 C 1526.19 -3.87183 -2.31085 0
M  V30 16726 C 1524.86 -4.27024 -2.21819 0
M  V30 16727 C 1527.21 -4.79428 -2.04447 0
M  V30 16728 C 1524.54 -5.57084 -1.84049 0
M  V30 16729 C 1526.89 -6.09835 -1.68179 0
M  V30 16730 C 1525.55 -6.4867 -1.57428 0
M  V30 16731 H 1524.82 -0.524651 -0.52328 0
M  V30 16732 H 1527.47 -1.75622 -0.763494 0
M  V30 16733 H 1525.77 -2.02012 -3.35706 0
M  V30 16734 H 1527.47 -2.38737 -3.22189 0
M  V30 16735 H 1524.06 -3.55642 -2.392 0
M  V30 16736 H 1528.25 -4.49431 -2.10535 0
M  V30 16737 H 1523.5 -5.86029 -1.74298 0
M  V30 16738 H 1527.68 -6.80796 -1.46594 0
M  V30 16739 H 1525.3 -7.49358 -1.2793 0
M  V30 16740 N 1526.88 0.906753 -1.28902 0
M  V30 16741 C 1527.81 2.02663 -1.15974 0
M  V30 16742 C 1528.79 1.70009 -0.0557202 0
M  V30 16743 O 1529.97 1.92786 -0.233952 0
M  V30 16744 C 1527.1 3.37283 -0.828115 0
M  V30 16745 C 1526.06 3.84123 -1.88767 0
M  V30 16746 C 1525.38 5.15787 -1.40953 0
M  V30 16747 C 1526.68 4.05217 -3.2954 0
M  V30 16748 H 1528.38 2.13738 -2.09658 0
M  V30 16749 H 1525.92 1.02699 -1.0094 0
M  V30 16750 H 1527.88 4.15127 -0.724408 0
M  V30 16751 H 1526.6 3.2628 0.14443 0
M  V30 16752 H 1525.26 3.0849 -1.98065 0
M  V30 16753 H 1524.91 5.01194 -0.425848 0
M  V30 16754 H 1524.61 5.48098 -2.11807 0
M  V30 16755 H 1526.13 5.9618 -1.31918 0
M  V30 16756 H 1527.55 4.73565 -3.23124 0
M  V30 16757 H 1525.94 4.48871 -3.9829 0
M  V30 16758 H 1527.01 3.0979 -3.73039 0
M  V30 16759 N 1528.36 1.11264 1.11616 0
M  V30 16760 C 1529.29 0.727118 2.17361 0
M  V30 16761 C 1530.3 -0.240356 1.61016 0
M  V30 16762 O 1531.49 -0.0235265 1.78484 0
M  V30 16763 C 1528.59 0.05361 3.38858 0
M  V30 16764 C 1527.76 1.04744 4.24673 0
M  V30 16765 C 1526.82 0.403827 5.24648 0
M  V30 16766 O 1525.85 1.0572 5.59296 0
M  V30 16767 N 1527.05 -0.834071 5.74477 0
M  V30 16768 H 1529.81 1.63696 2.51045 0
M  V30 16769 H 1527.38 1.00261 1.2712 0
M  V30 16770 H 1529.37 -0.388643 4.0283 0
M  V30 16771 H 1527.94 -0.758778 3.03251 0
M  V30 16772 H 1527.16 1.6677 3.57185 0
M  V30 16773 H 1528.45 1.71988 4.7885 0
M  V30 16774 H 1527.84 -1.3841 5.48506 0
M  V30 16775 H 1526.4 -1.21933 6.40293 0
M  V30 16776 N 1529.83 -1.29188 0.902679 0
M  V30 16777 C 1531.06 -1.99576 0.545635 0
M  V30 16778 C 1531.48 -1.67541 -0.870372 0
M  V30 16779 O 1530.83 -0.922082 -1.57493 0
M  V30 16780 C 1530.88 -3.54013 0.731916 0
M  V30 16781 O 1530.61 -3.84914 2.09219 0
M  V30 16782 C 1532.11 -4.41666 0.38022 0
M  V30 16783 H 1529.33 -0.637593 0.209083 0
M  V30 16784 H 1531.87 -1.64652 1.21284 0
M  V30 16785 H 1530.03 -3.87239 0.111849 0
M  V30 16786 H 1530.44 -4.79581 2.12373 0
M  V30 16787 H 1531.91 -5.49138 0.561382 0
M  V30 16788 H 1532.39 -4.33858 -0.682915 0
M  V30 16789 H 1533 -4.13918 0.977354 0
M  V30 16790 N 1531.31 -0.665475 -1.42861 0
M  V30 16791 C 1532.54 -0.190399 -2.06524 0
M  V30 16792 C 1532.96 1.13995 -1.49622 0
M  V30 16793 O 1532.32 1.70695 -0.610981 0
M  V30 16794 C 1532.37 -0.12594 -3.6038 0
M  V30 16795 O 1531.47 0.908299 -4.02273 0
M  V30 16796 H 1530.81 -0.100495 -0.656351 0
M  V30 16797 H 1533.34 -0.911858 -1.83156 0
M  V30 16798 H 1533.35 0.0533153 -4.07965 0
M  V30 16799 H 1532.03 -1.09703 -4.01171 0
M  V30 16800 H 1530.6 0.700841 -3.66255 0
M  V30 16801 N 1532.79 1.52222 -0.408187 0
M  V30 16802 C 1533.72 2.24676 0.453129 0
M  V30 16803 C 1534.73 1.27605 1.01098 0
M  V30 16804 O 1535.92 1.53557 0.910084 0
M  V30 16805 C 1533.02 2.96431 1.64262 0
M  V30 16806 C 1532.2 4.20364 1.20883 0
M  V30 16807 C 1531.26 4.74951 2.26512 0
M  V30 16808 O 1530.28 5.37556 1.87142 0
M  V30 16809 N 1531.48 4.56443 3.58665 0
M  V30 16810 H 1534.25 2.9923 -0.16771 0
M  V30 16811 H 1531.81 1.60178 -0.235517 0
M  V30 16812 H 1533.8 3.29844 2.3449 0
M  V30 16813 H 1532.37 2.25068 2.1694 0
M  V30 16814 H 1531.59 3.92776 0.334712 0
M  V30 16815 H 1532.88 5.0085 0.895939 0
M  V30 16816 H 1532.28 4.06511 3.93402 0
M  V30 16817 H 1530.83 4.94295 4.24871 0
M  V30 16818 N 1534.27 0.138579 1.5699 0
M  V30 16819 C 1535.2 -0.835134 2.13444 0
M  V30 16820 C 1536.21 -1.21657 1.08183 0
M  V30 16821 O 1537.4 -1.16211 1.35489 0
M  V30 16822 C 1534.5 -2.13086 2.63529 0
M  V30 16823 C 1533.67 -1.9181 3.931 0
M  V30 16824 C 1532.73 -3.05293 4.28582 0
M  V30 16825 O 1531.76 -2.77351 4.97056 0
M  V30 16826 N 1532.96 -4.32248 3.87482 0
M  V30 16827 H 1535.73 -0.352693 2.97617 0
M  V30 16828 H 1533.29 -0.0452536 1.61837 0
M  V30 16829 H 1535.28 -2.88036 2.84284 0
M  V30 16830 H 1533.85 -2.52619 1.84127 0
M  V30 16831 H 1533.07 -1.00943 3.81057 0
M  V30 16832 H 1534.36 -1.74923 4.77786 0
M  V30 16833 H 1533.76 -4.5782 3.32292 0
M  V30 16834 H 1532.31 -5.04006 4.13305 0
M  V30 16835 N 1535.75 -1.57019 -0.13521 0
M  V30 16836 C 1536.68 -2.02182 -1.16811 0
M  V30 16837 C 1537.66 -0.9034 -1.44127 0
M  V30 16838 O 1538.84 -1.17202 -1.54846 0
M  V30 16839 C 1535.97 -2.41243 -2.49838 0
M  V30 16840 C 1534.93 -3.56379 -2.37018 0
M  V30 16841 C 1534.25 -3.8129 -3.74863 0
M  V30 16842 C 1535.55 -4.88653 -1.84432 0
M  V30 16843 H 1537.25 -2.8872 -0.792529 0
M  V30 16844 H 1534.79 -1.38901 -0.379788 0
M  V30 16845 H 1536.74 -2.7144 -3.22332 0
M  V30 16846 H 1535.47 -1.51656 -2.89254 0
M  V30 16847 H 1534.13 -3.26366 -1.66975 0
M  V30 16848 H 1533.78 -2.88934 -4.11735 0
M  V30 16849 H 1533.48 -4.58781 -3.67143 0
M  V30 16850 H 1535 -4.13924 -4.48887 0
M  V30 16851 H 1536.41 -5.17492 -2.46729 0
M  V30 16852 H 1534.81 -5.70032 -1.87574 0
M  V30 16853 H 1535.88 -4.78242 -0.800759 0
M  V30 16854 N 1537.22 0.404919 -1.52309 0
M  V30 16855 C 1538.17 1.49363 -1.75953 0
M  V30 16856 C 1539.14 1.54802 -0.60212 0
M  V30 16857 O 1540.33 1.71308 -0.840128 0
M  V30 16858 C 1537.47 2.86767 -1.91987 0
M  V30 16859 C 1536.58 2.90603 -3.19646 0
M  V30 16860 C 1535.71 4.19333 -3.26088 0
M  V30 16861 C 1534.75 4.17161 -4.47932 0
M  V30 16862 N 1533.89 5.37469 -4.51743 0
M  V30 16863 H 1538.73 1.28503 -2.6887 0
M  V30 16864 H 1536.27 0.623684 -1.33224 0
M  V30 16865 H 1538.23 3.66536 -1.99267 0
M  V30 16866 H 1536.86 3.06112 -1.02447 0
M  V30 16867 H 1535.91 2.033 -3.21517 0
M  V30 16868 H 1537.22 2.84864 -4.09456 0
M  V30 16869 H 1536.37 5.07497 -3.32463 0
M  V30 16870 H 1535.11 4.27774 -2.34224 0
M  V30 16871 H 1534.12 3.27386 -4.417 0
M  V30 16872 H 1535.34 4.10356 -5.41096 0
M  V30 16873 H 1533.29 5.46569 -3.62764 0
M  V30 16874 H 1533.21 5.3374 -5.35404 0
M  V30 16875 H 1534.47 6.27575 -4.62353 0
M  V30 16876 N 1538.7 1.43003 0.662408 0
M  V30 16877 C 1539.63 1.43407 1.78793 0
M  V30 16878 C 1540.65 0.331423 1.59391 0
M  V30 16879 O 1541.84 0.595291 1.68281 0
M  V30 16880 C 1538.94 1.22239 3.16087 0
M  V30 16881 C 1538.11 2.4517 3.6223 0
M  V30 16882 C 1537.17 2.19362 4.78296 0
M  V30 16883 O 1536.19 2.92651 4.88205 0
M  V30 16884 N 1537.4 1.20449 5.67866 0
M  V30 16885 H 1540.16 2.40426 1.78928 0
M  V30 16886 H 1537.72 1.38042 0.845936 0
M  V30 16887 H 1539.71 1.02871 3.91407 0
M  V30 16888 H 1538.28 0.336983 3.10778 0
M  V30 16889 H 1537.5 2.80024 2.77453 0
M  V30 16890 H 1538.79 3.27003 3.89803 0
M  V30 16891 H 1538.19 0.598577 5.62524 0
M  V30 16892 H 1536.75 1.07066 6.42946 0
M  V30 16893 N 1540.18 -0.899904 1.29381 0
M  V30 16894 C 1541.11 -2.02045 1.17047 0
M  V30 16895 C 1542.09 -1.69977 0.0647354 0
M  V30 16896 O 1543.28 -1.92659 0.244173 0
M  V30 16897 C 1540.41 -3.36839 0.845991 0
M  V30 16898 C 1539.36 -3.83117 1.90802 0
M  V30 16899 C 1538.69 -5.15032 1.43686 0
M  V30 16900 C 1539.99 -4.03464 3.31684 0
M  V30 16901 H 1541.68 -2.12623 2.10789 0
M  V30 16902 H 1539.23 -1.02162 1.01484 0
M  V30 16903 H 1541.18 -4.14737 0.746413 0
M  V30 16904 H 1539.9 -3.26352 -0.127125 0
M  V30 16905 H 1538.56 -3.07435 1.99698 0
M  V30 16906 H 1538.21 -5.00961 0.452422 0
M  V30 16907 H 1537.91 -5.46967 2.14711 0
M  V30 16908 H 1539.43 -5.95472 1.35078 0
M  V30 16909 H 1540.85 -4.71845 3.25631 0
M  V30 16910 H 1539.25 -4.46752 4.00665 0
M  V30 16911 H 1540.32 -3.07807 3.74677 0
M  V30 16912 N 1541.66 -1.11854 -1.11024 0
M  V30 16913 C 1542.57 -0.79368 -2.20767 0
M  V30 16914 C 1543.58 0.214996 -1.72667 0
M  V30 16915 O 1544.76 0.0500976 -2.01338 0
M  V30 16916 C 1541.83 -0.246375 -3.45823 0
M  V30 16917 C 1540.89 -1.31421 -4.0869 0
M  V30 16918 C 1540.12 -0.792922 -5.27777 0
M  V30 16919 O 1540.34 0.375492 -5.69163 0
M  V30 16920 O 1539.28 -1.55971 -5.8134 0
M  V30 16921 H 1543.1 -1.71011 -2.50976 0
M  V30 16922 H 1540.69 -0.894752 -1.19643 0
M  V30 16923 H 1542.57 0.0542632 -4.21365 0
M  V30 16924 H 1541.24 0.642703 -3.17255 0
M  V30 16925 H 1540.15 -1.66792 -3.3486 0
M  V30 16926 H 1541.48 -2.17683 -4.41446 0
M  V30 16927 N 1543.14 1.28707 -0.909517 0
M  V30 16928 C 1544.36 1.99821 -0.555557 0
M  V30 16929 C 1544.79 1.67549 0.854931 0
M  V30 16930 O 1544.14 0.905521 1.57067 0
M  V30 16931 C 1544.19 3.52361 -0.766438 0
M  V30 16932 O 1543.3 4.12022 0.17654 0
M  V30 16933 H 1542.64 0.627918 -0.215905 0
M  V30 16934 H 1545.17 1.63965 -1.2238 0
M  V30 16935 H 1545.18 4.02379 -0.674894 0
M  V30 16936 H 1543.85 3.75184 -1.7947 0
M  V30 16937 H 1542.43 3.72882 0.0366216 0
M  V30 16938 N 1544.61 0.673042 1.42506 0
M  V30 16939 C 1545.52 -0.00648572 2.34599 0
M  V30 16940 C 1546.54 -0.790758 1.54994 0
M  V30 16941 O 1547.72 -0.733482 1.87569 0
M  V30 16942 C 1544.78 -0.94734 3.33506 0
M  V30 16943 C 1543.84 -0.157795 4.2901 0
M  V30 16944 C 1543.08 -1.05384 5.23192 0
M  V30 16945 O 1543.3 -2.29334 5.22266 0
M  V30 16946 O 1542.23 -0.515584 5.99688 0
M  V30 16947 H 1546.06 0.752059 2.94241 0
M  V30 16948 H 1543.64 0.433272 1.42979 0
M  V30 16949 H 1545.53 -1.4875 3.94273 0
M  V30 16950 H 1544.2 -1.68577 2.7634 0
M  V30 16951 H 1543.11 0.426426 3.71662 0
M  V30 16952 H 1544.44 0.54148 4.89212 0
M  V30 16953 N 1546.09 -1.52004 0.416254 0
M  V30 16954 C 1547.34 -2.0149 -0.15689 0
M  V30 16955 C 1547.66 -1.30343 -1.45037 0
M  V30 16956 O 1546.93 -0.431503 -1.91089 0
M  V30 16957 H 1545.51 -0.744508 -0.0609682 0
M  V30 16958 H 1548.17 -1.86857 0.55413 0
M  V30 16959 H 1547.27 -3.10155 -0.347917 0
M  V30 16960 N 1547.57 -0.146903 -1.56914 0
M  V30 16961 C 1548.99 0.20951 -1.58219 0
M  V30 16962 C 1549.19 1.64679 -1.16116 0
M  V30 16963 O 1548.24 2.37352 -0.861414 0
M  V30 16964 C 1549.56 -0.0491564 -3.0066 0
M  V30 16965 C 1551.1 0.0145605 -3.12997 0
M  V30 16966 C 1551.58 -0.216773 -4.57487 0
M  V30 16967 N 1553.07 -0.163698 -4.62911 0
M  V30 16968 C 1553.8 -0.317204 -5.72522 0
M  V30 16969 N 1553.3 -0.528426 -6.90782 0
M  V30 16970 N 1555.09 -0.254814 -5.61522 0
M  V30 16971 H 1547.24 -1.08536 -1.82575 0
M  V30 16972 H 1549.51 -0.42963 -0.845057 0
M  V30 16973 H 1549.21 -1.04387 -3.35851 0
M  V30 16974 H 1549.09 0.670296 -3.71197 0
M  V30 16975 H 1551.47 0.999829 -2.77646 0
M  V30 16976 H 1551.56 -0.737219 -2.44946 0
M  V30 16977 H 1551.2 -1.19914 -4.93541 0
M  V30 16978 H 1551.13 0.555329 -5.23664 0
M  V30 16979 H 1553.62 -0.00509433 -3.779 0
M  V30 16980 H 1553.93 -0.635667 -7.70181 0
M  V30 16981 H 1552.28 -0.564746 -6.92702 0
M  V30 16982 H 1555.47 -0.0905626 -4.68012 0
M  V30 16983 H 1555.64 -0.377881 -6.46897 0
M  V30 16984 N 1549.05 1.57088 0.126881 0
M  V30 16985 C 1550.27 1.88984 0.854389 0
M  V30 16986 C 1550.7 0.738037 1.73016 0
M  V30 16987 O 1550.06 -0.311728 1.786 0
M  V30 16988 C 1550.1 3.19584 1.67028 0
M  V30 16989 O 1549.21 3.04935 2.77648 0
M  V30 16990 H 1548.55 0.620354 0.236763 0
M  V30 16991 H 1551.08 2.04295 0.111647 0
M  V30 16992 H 1551.09 3.52109 2.06115 0
M  V30 16993 H 1549.76 4.03012 1.02732 0
M  V30 16994 H 1548.34 2.83861 2.41821 0
M  V30 16995 N 1550.53 -0.396836 1.52522 0
M  V30 16996 C 1551.94 -0.975124 1.59211 0
M  V30 16997 C 1552.29 -1.91199 0.440138 0
M  V30 16998 O 1551.41 -2.11924 -0.437856 0
M  V30 16999 C 1552.01 -1.77531 2.88562 0
M  V30 17000 C 1550.57 -2.30343 2.9769 0
M  V30 17001 C 1549.71 -1.10671 2.54258 0
M  V30 17002 H 1552.67 -0.176646 1.57714 0
M  V30 17003 H 1552.69 -2.63384 2.74607 0
M  V30 17004 H 1552.2 -1.09318 3.72386 0
M  V30 17005 H 1550.3 -3.01891 2.18387 0
M  V30 17006 H 1550.41 -2.60366 4.02177 0
M  V30 17007 H 1548.78 -1.46439 2.08393 0
M  V30 17008 H 1549.56 -0.440061 3.40468 0
M  V30 17009 N 1552.01 -1.43353 -0.654814 0
M  V30 17010 C 1553.25 -1.44172 -1.41058 0
M  V30 17011 C 1553.57 -0.0690586 -1.95478 0
M  V30 17012 O 1554.77 0.0453021 -2.71462 0
M  V30 17013 C 1553.23 -2.53701 -2.55272 0
M  V30 17014 C 1552.84 -3.97066 -2.07466 0
M  V30 17015 C 1554.58 -2.63713 -3.3265 0
M  V30 17016 C 1552.49 -4.98065 -3.18881 0
M  V30 17017 H 1551.42 -0.536303 -0.529995 0
M  V30 17018 H 1554.07 -1.69336 -0.706941 0
M  V30 17019 H 1552.45 -2.21736 -3.28099 0
M  V30 17020 H 1553.63 -4.38485 -1.4166 0
M  V30 17021 H 1551.94 -3.91086 -1.42972 0
M  V30 17022 H 1554.54 -3.36346 -4.15663 0
M  V30 17023 H 1554.88 -1.68729 -3.80574 0
M  V30 17024 H 1555.41 -2.94971 -2.66902 0
M  V30 17025 H 1552.15 -5.94596 -2.75927 0
M  V30 17026 H 1551.67 -4.61261 -3.83404 0
M  V30 17027 H 1553.35 -5.20696 -3.84037 0
M  V30 17028 N 1553.48 0.89303 -1.29857 0
M  V30 17029 C 1554.73 1.64413 -1.18214 0
M  V30 17030 C 1555.06 1.92687 0.26492 0
M  V30 17031 O 1554.31 1.54044 1.20702 0
M  V30 17032 C 1554.61 2.99661 -1.94777 0
M  V30 17033 C 1554.28 2.90969 -3.44453 0
M  V30 17034 C 1552.94 2.88306 -3.8527 0
M  V30 17035 C 1555.29 2.79686 -4.39801 0
M  V30 17036 C 1552.62 2.72188 -5.19741 0
M  V30 17037 C 1554.97 2.65107 -5.7437 0
M  V30 17038 C 1553.64 2.60814 -6.14437 0
M  V30 17039 H 1552.91 0.60163 -0.432577 0
M  V30 17040 H 1555.55 1.03891 -1.60869 0
M  V30 17041 H 1553.86 3.64087 -1.44733 0
M  V30 17042 H 1555.56 3.56722 -1.83168 0
M  V30 17043 H 1552.15 2.93848 -3.12012 0
M  V30 17044 H 1556.33 2.80816 -4.09214 0
M  V30 17045 H 1551.59 2.67273 -5.49886 0
M  V30 17046 H 1555.76 2.55349 -6.47897 0
M  V30 17047 H 1553.39 2.48082 -7.18582 0
M  V30 17048 N 1554.96 1.12442 1.10429 0
M  V30 17049 C 1556.19 0.902599 1.86174 0
M  V30 17050 C 1556.6 -0.548147 1.80668 0
M  V30 17051 O 1555.96 -1.37898 1.19543 0
M  V30 17052 C 1556.01 1.36912 3.34571 0
M  V30 17053 O 1555.73 2.763 3.39985 0
M  V30 17054 C 1557.23 1.18424 4.27189 0
M  V30 17055 H 1554.45 0.322534 0.588399 0
M  V30 17056 H 1557 1.49439 1.396 0
M  V30 17057 H 1555.15 0.82055 3.7861 0
M  V30 17058 H 1555.57 2.96772 4.32466 0
M  V30 17059 H 1557.04 1.55954 5.29511 0
M  V30 17060 H 1557.52 0.12483 4.39023 0
M  V30 17061 H 1558.12 1.72032 3.88954 0
M  V30 17062 N 1556.44 -1.28223 0.91633 0
M  V30 17063 C 1557.39 -2.24848 0.377829 0
M  V30 17064 C 1558.37 -1.52553 -0.511507 0
M  V30 17065 O 1559.57 -1.73489 -0.350808 0
M  V30 17066 C 1556.69 -3.41206 -0.378635 0
M  V30 17067 C 1555.78 -4.20818 0.526567 0
M  V30 17068 N 1556.17 -4.78429 1.64132 0
M  V30 17069 C 1554.47 -4.44796 0.327436 0
M  V30 17070 C 1555.17 -5.38355 2.20339 0
M  V30 17071 N 1554.15 -5.22657 1.49434 0
M  V30 17072 H 1557.95 -2.66963 1.22914 0
M  V30 17073 H 1555.46 -1.43024 0.769282 0
M  V30 17074 H 1557.46 -4.09514 -0.781283 0
M  V30 17075 H 1556.12 -3.00623 -1.22701 0
M  V30 17076 H 1557.13 -4.76718 2.02387 0
M  V30 17077 H 1553.81 -4.14717 -0.481214 0
M  V30 17078 H 1555.2 -5.93948 3.14126 0
M  V30 17079 N 1557.92 -0.68059 -1.42147 0
M  V30 17080 C 1558.85 -0.0199376 -2.33491 0
M  V30 17081 C 1559.83 0.783164 -1.50999 0
M  V30 17082 O 1561.01 0.739154 -1.79583 0
M  V30 17083 C 1558.14 0.927902 -3.34675 0
M  V30 17084 C 1557.1 0.232979 -4.27365 0
M  V30 17085 C 1556.42 1.29415 -5.18802 0
M  V30 17086 C 1557.72 -0.891559 -5.14634 0
M  V30 17087 H 1559.42 -0.782823 -2.88985 0
M  V30 17088 H 1556.96 -0.377898 -1.38953 0
M  V30 17089 H 1558.92 1.3992 -3.97493 0
M  V30 17090 H 1557.64 1.72228 -2.77498 0
M  V30 17091 H 1556.3 -0.21814 -3.6595 0
M  V30 17092 H 1555.95 2.08067 -4.57949 0
M  V30 17093 H 1555.65 0.834274 -5.81647 0
M  V30 17094 H 1557.17 1.76627 -5.84496 0
M  V30 17095 H 1558.59 -0.501219 -5.71105 0
M  V30 17096 H 1556.98 -1.27759 -5.86343 0
M  V30 17097 H 1558.05 -1.73781 -4.5269 0
M  V30 17098 N 1559.4 1.51781 -0.424309 0
M  V30 17099 C 1560.64 2.02269 0.146709 0
M  V30 17100 C 1560.97 1.30859 1.4349 0
M  V30 17101 O 1560.25 0.419504 1.89922 0
M  V30 17102 C 1560.53 3.58101 0.378861 0
M  V30 17103 C 1560.39 4.40143 -0.92707 0
M  V30 17104 C 1561.7 4.2469 1.15438 0
M  V30 17105 H 1558.82 0.735174 0.0518456 0
M  V30 17106 H 1561.47 1.81537 -0.560753 0
M  V30 17107 H 1559.62 3.75897 0.981496 0
M  V30 17108 H 1561.29 4.34025 -1.56268 0
M  V30 17109 H 1559.53 4.05748 -1.53464 0
M  V30 17110 H 1560.2 5.47299 -0.718837 0
M  V30 17111 H 1562.68 4.11086 0.644041 0
M  V30 17112 H 1561.55 5.33633 1.28557 0
M  V30 17113 H 1561.81 3.84668 2.17905 0
M  V30 17114 N 1560.87 0.155222 1.56834 0
M  V30 17115 C 1562.1 -0.500542 2.00754 0
M  V30 17116 C 1562.52 -1.57878 1.03538 0
M  V30 17117 O 1561.87 -1.82469 0.0336651 0
M  V30 17118 C 1561.92 -1.09366 3.4456 0
M  V30 17119 O 1561.65 -0.0584788 4.38061 0
M  V30 17120 C 1563.15 -1.82923 4.038 0
M  V30 17121 H 1560.37 -0.129589 0.658368 0
M  V30 17122 H 1562.91 0.252223 2.02939 0
M  V30 17123 H 1561.07 -1.797 3.43201 0
M  V30 17124 H 1561.48 -0.494125 5.22167 0
M  V30 17125 H 1562.95 -2.19703 5.06394 0
M  V30 17126 H 1563.43 -2.71823 3.44976 0
M  V30 17127 H 1564.04 -1.17268 4.08813 0
M  V30 17128 N 1562.35 -1.57153 -0.118549 0
M  V30 17129 C 1563.58 -1.89434 -0.844355 0
M  V30 17130 C 1564 -0.747203 -1.72622 0
M  V30 17131 O 1563.36 0.302252 -1.78763 0
M  V30 17132 C 1563.41 -3.20466 -1.65331 0
M  V30 17133 O 1562.51 -3.06403 -2.76027 0
M  V30 17134 H 1561.85 -0.621601 -0.23347 0
M  V30 17135 H 1564.38 -2.04351 -0.100811 0
M  V30 17136 H 1564.39 -3.53197 -2.04245 0
M  V30 17137 H 1563.07 -4.03551 -1.00594 0
M  V30 17138 H 1561.64 -2.85139 -2.40312 0
M  V30 17139 N 1563.83 0.388742 -1.5273 0
M  V30 17140 C 1564.76 1.48133 -1.80496 0
M  V30 17141 C 1565.74 1.56899 -0.657008 0
M  V30 17142 O 1566.93 1.71844 -0.904621 0
M  V30 17143 C 1564.06 2.85742 -1.97405 0
M  V30 17144 C 1563.01 2.91815 -3.13094 0
M  V30 17145 C 1562.34 4.31876 -3.15258 0
M  V30 17146 C 1563.64 2.61438 -4.52159 0
M  V30 17147 H 1565.33 1.25147 -2.7199 0
M  V30 17148 H 1562.88 0.600603 -1.30877 0
M  V30 17149 H 1564.83 3.62182 -2.15412 0
M  V30 17150 H 1563.55 3.10065 -1.02601 0
M  V30 17151 H 1562.21 2.17824 -2.9487 0
M  V30 17152 H 1561.86 4.53239 -2.18135 0
M  V30 17153 H 1561.56 4.3686 -3.92972 0
M  V30 17154 H 1563.08 5.10221 -3.3542 0
M  V30 17155 H 1564.5 3.27596 -4.70483 0
M  V30 17156 H 1562.89 2.77771 -5.31943 0
M  V30 17157 H 1563.96 1.56778 -4.58856 0
M  V30 17158 N 1565.31 1.43698 0.647203 0
M  V30 17159 C 1566.25 1.49323 1.75987 0
M  V30 17160 C 1567.22 0.342379 1.62533 0
M  V30 17161 O 1568.41 0.550379 1.8269 0
M  V30 17162 C 1565.55 1.428 3.14169 0
M  V30 17163 C 1564.66 2.68136 3.38714 0
M  V30 17164 C 1563.8 2.53559 4.66778 0
M  V30 17165 C 1562.84 3.74135 4.84447 0
M  V30 17166 N 1561.97 3.58332 6.03774 0
M  V30 17167 H 1566.81 2.44395 1.70514 0
M  V30 17168 H 1564.35 1.21309 0.832021 0
M  V30 17169 H 1566.31 1.37011 3.94061 0
M  V30 17170 H 1564.94 0.513057 3.18697 0
M  V30 17171 H 1563.99 2.84179 2.52877 0
M  V30 17172 H 1565.3 3.57684 3.47654 0
M  V30 17173 H 1564.46 2.45513 5.54805 0
M  V30 17174 H 1563.2 1.61545 4.60168 0
M  V30 17175 H 1562.2 3.82584 3.94854 0
M  V30 17176 H 1563.43 4.67165 4.92883 0
M  V30 17177 H 1561.37 2.69057 5.98284 0
M  V30 17178 H 1561.29 4.41485 6.13699 0
M  V30 17179 H 1562.56 3.54148 6.94406 0
M  V30 17180 N 1566.79 -0.886131 1.30328 0
M  V30 17181 C 1568.03 -1.6346 1.18849 0
M  V30 17182 C 1568.36 -1.93295 -0.257285 0
M  V30 17183 O 1567.63 -1.56858 -1.17356 0
M  V30 17184 H 1566.21 -0.605932 0.43687 0
M  V30 17185 H 1568.87 -1.06177 1.63439 0
M  V30 17186 H 1567.96 -2.58522 1.7485 0
M  V30 17187 N 1568.26 -1.13026 -1.09832 0
M  V30 17188 C 1569.19 -0.826338 -2.18389 0
M  V30 17189 C 1570.18 0.212529 -1.68767 0
M  V30 17190 O 1571.36 0.072363 -1.94065 0
M  V30 17191 C 1568.49 -0.286991 -3.46112 0
M  V30 17192 C 1567.44 -1.25963 -4.09044 0
M  V30 17193 C 1566.77 -0.580231 -5.31542 0
M  V30 17194 C 1568.07 -2.61661 -4.5203 0
M  V30 17195 H 1569.76 -1.73408 -2.4407 0
M  V30 17196 H 1567.31 -0.835201 -1.17305 0
M  V30 17197 H 1569.26 -0.062067 -4.21354 0
M  V30 17198 H 1567.99 0.656121 -3.19942 0
M  V30 17199 H 1566.65 -1.47047 -3.35816 0
M  V30 17200 H 1566.29 0.368222 -5.0165 0
M  V30 17201 H 1565.99 -1.2291 -5.74601 0
M  V30 17202 H 1567.52 -0.36449 -6.09511 0
M  V30 17203 H 1568.93 -2.44569 -5.18516 0
M  V30 17204 H 1567.33 -3.22685 -5.05959 0
M  V30 17205 H 1568.4 -3.19637 -3.64637 0
M  V30 17206 N 1569.74 1.27735 -0.923117 0
M  V30 17207 C 1570.99 1.95207 -0.571456 0
M  V30 17208 C 1571.34 1.71257 0.876863 0
M  V30 17209 O 1570.64 1.02842 1.61661 0
M  V30 17210 C 1570.83 3.47677 -0.827959 0
M  V30 17211 C 1570.66 3.86453 -2.29966 0
M  V30 17212 C 1569.43 4.10138 -2.95152 0
M  V30 17213 C 1571.63 3.96395 -3.27683 0
M  V30 17214 N 1569.61 4.35658 -4.32522 0
M  V30 17215 C 1570.98 4.26236 -4.50247 0
M  V30 17216 C 1573.04 3.78953 -3.22954 0
M  V30 17217 C 1571.74 4.40453 -5.68677 0
M  V30 17218 C 1573.76 3.94391 -4.40692 0
M  V30 17219 C 1573.13 4.24615 -5.62033 0
M  V30 17220 H 1569.23 0.73781 -0.259154 0
M  V30 17221 H 1571.81 1.54194 -1.18879 0
M  V30 17222 H 1569.98 3.87659 -0.239823 0
M  V30 17223 H 1571.71 4.02308 -0.439388 0
M  V30 17224 H 1568.47 4.04795 -2.45841 0
M  V30 17225 H 1568.89 4.52484 -5.03574 0
M  V30 17226 H 1573.53 3.5463 -2.30212 0
M  V30 17227 H 1571.25 4.63603 -6.61889 0
M  V30 17228 H 1574.84 3.82321 -4.38545 0
M  V30 17229 H 1573.72 4.36305 -6.51619 0
M  V30 17230 N 1571.22 0.688118 1.41784 0
M  V30 17231 C 1572.45 0.22475 2.05676 0
M  V30 17232 C 1572.86 -1.1232 1.51755 0
M  V30 17233 O 1572.22 -1.70041 0.662735 0
M  V30 17234 C 1572.27 0.165661 3.6112 0
M  V30 17235 O 1571.99 1.46035 4.13044 0
M  V30 17236 C 1573.49 -0.319599 4.42146 0
M  V30 17237 H 1570.71 0.106135 0.662553 0
M  V30 17238 H 1573.26 0.938605 1.81688 0
M  V30 17239 H 1571.41 -0.498968 3.84173 0
M  V30 17240 H 1571.83 1.34252 5.07027 0
M  V30 17241 H 1573.3 -0.30983 5.5113 0
M  V30 17242 H 1573.78 -1.3572 4.17704 0
M  V30 17243 H 1574.38 0.313764 4.24141 0
M  V30 17244 N 1572.7 -1.51554 0.432352 0
M  V30 17245 C 1573.63 -2.30514 -0.372243 0
M  V30 17246 C 1574.61 -1.35712 -1.02549 0
M  V30 17247 O 1575.79 -1.6463 -1.03009 0
M  V30 17248 C 1572.92 -3.14353 -1.47646 0
M  V30 17249 C 1571.88 -4.17392 -0.946974 0
M  V30 17250 C 1571.2 -4.89721 -2.14656 0
M  V30 17251 C 1572.5 -5.22298 0.0151377 0
M  V30 17252 H 1574.2 -2.98024 0.28668 0
M  V30 17253 H 1571.74 -1.43325 0.139315 0
M  V30 17254 H 1573.7 -3.68369 -2.04651 0
M  V30 17255 H 1572.42 -2.44654 -2.1636 0
M  V30 17256 H 1571.08 -3.6442 -0.399174 0
M  V30 17257 H 1570.73 -4.1653 -2.81978 0
M  V30 17258 H 1570.43 -5.59393 -1.79869 0
M  V30 17259 H 1571.95 -5.46559 -2.72224 0
M  V30 17260 H 1573.37 -5.71416 -0.464447 0
M  V30 17261 H 1571.76 -5.99468 0.275339 0
M  V30 17262 H 1572.83 -4.75436 0.953357 0
M  V30 17263 N 1574.18 -0.163538 -1.56749 0
M  V30 17264 C 1575.59 0.192717 -1.58432 0
M  V30 17265 C 1575.79 1.63438 -1.17856 0
M  V30 17266 O 1574.85 2.36425 -0.88654 0
M  V30 17267 C 1576.16 -0.0810427 -3.00591 0
M  V30 17268 C 1577.71 -0.0186378 -3.12994 0
M  V30 17269 C 1578.18 -0.265283 -4.57231 0
M  V30 17270 N 1579.68 -0.212787 -4.62711 0
M  V30 17271 C 1580.41 -0.37791 -5.72153 0
M  V30 17272 N 1579.91 -0.601663 -6.90182 0
M  V30 17273 N 1581.7 -0.314357 -5.6122 0
M  V30 17274 H 1573.85 -1.10467 -1.81413 0
M  V30 17275 H 1576.11 -0.438569 -0.840453 0
M  V30 17276 H 1575.82 -1.07944 -3.34725 0
M  V30 17277 H 1575.69 0.630888 -3.71887 0
M  V30 17278 H 1578.08 0.970324 -2.78691 0
M  V30 17279 H 1578.16 -0.763158 -2.44151 0
M  V30 17280 H 1577.81 -1.25142 -4.92242 0
M  V30 17281 H 1577.74 0.499756 -5.24223 0
M  V30 17282 H 1580.23 -0.0451754 -3.77873 0
M  V30 17283 H 1580.54 -0.717319 -7.69464 0
M  V30 17284 H 1578.88 -0.638184 -6.92064 0
M  V30 17285 H 1582.08 -0.140197 -4.6789 0
M  V30 17286 H 1582.25 -0.446472 -6.4646 0
M  V30 17287 N 1575.65 1.57214 0.110213 0
M  V30 17288 C 1576.62 2.00034 1.11888 0
M  V30 17289 C 1577.62 0.891697 1.33811 0
M  V30 17290 O 1578.81 1.15754 1.3018 0
M  V30 17291 C 1575.94 2.34806 2.47142 0
M  V30 17292 H 1577.13 2.90354 0.750647 0
M  V30 17293 H 1574.69 1.5222 0.35479 0
M  V30 17294 H 1575.42 1.47393 2.8887 0
M  V30 17295 H 1575.21 3.15671 2.32581 0
M  V30 17296 H 1576.7 2.68644 3.19719 0
M  V30 17297 N 1577.13 -0.380637 1.52934 0
M  V30 17298 C 1578.38 -1.12483 1.68386 0
M  V30 17299 C 1578.71 -1.89733 0.427993 0
M  V30 17300 O 1577.96 -1.86601 -0.589795 0
M  V30 17301 C 1578.26 -2.1227 2.87535 0
M  V30 17302 C 1577.93 -1.51615 4.24645 0
M  V30 17303 C 1576.59 -1.348 4.61933 0
M  V30 17304 C 1578.94 -1.07595 5.09973 0
M  V30 17305 C 1576.27 -0.725254 5.822 0
M  V30 17306 C 1578.62 -0.467273 6.30872 0
M  V30 17307 C 1577.29 -0.286488 6.66885 0
M  V30 17308 H 1576.56 -0.411606 0.616167 0
M  V30 17309 H 1579.2 -0.408435 1.87094 0
M  V30 17310 H 1577.51 -2.90159 2.63277 0
M  V30 17311 H 1579.2 -2.69777 2.96684 0
M  V30 17312 H 1575.79 -1.65693 3.95277 0
M  V30 17313 H 1579.98 -1.19385 4.81727 0
M  V30 17314 H 1575.23 -0.573461 6.08705 0
M  V30 17315 H 1579.41 -0.117914 6.963 0
M  V30 17316 H 1577.04 0.198141 7.59942 0
M  V30 17317 N 1578.61 -1.44039 -0.639573 0
M  V30 17318 C 1579.86 -1.46088 -1.39652 0
M  V30 17319 C 1580.18 -0.0914602 -1.94785 0
M  V30 17320 O 1579.45 0.875097 -1.75268 0
M  V30 17321 H 1578.03 -0.537901 -0.518335 0
M  V30 17322 H 1580.69 -1.79751 -0.753365 0
M  V30 17323 H 1579.79 -2.1814 -2.23207 0
M  V30 17324 N 1580.09 0.879207 -1.30796 0
M  V30 17325 C 1581.5 1.16344 -1.09253 0
M  V30 17326 C 1581.7 2.00992 0.142993 0
M  V30 17327 O 1580.76 2.38295 0.834966 0
M  V30 17328 C 1582.07 1.86452 -2.35915 0
M  V30 17329 C 1583.62 1.99193 -2.41436 0
M  V30 17330 C 1584.1 2.72714 -3.67955 0
M  V30 17331 N 1585.59 2.80256 -3.68796 0
M  V30 17332 C 1586.32 3.37732 -4.63384 0
M  V30 17333 N 1585.82 3.96212 -5.6832 0
M  V30 17334 N 1587.61 3.35602 -4.50918 0
M  V30 17335 H 1579.76 0.314928 -2.10052 0
M  V30 17336 H 1582.03 0.202087 -0.92621 0
M  V30 17337 H 1581.73 1.31699 -3.26111 0
M  V30 17338 H 1581.61 2.86796 -2.45006 0
M  V30 17339 H 1583.99 2.53113 -1.51716 0
M  V30 17340 H 1584.07 0.97919 -2.36317 0
M  V30 17341 H 1583.72 2.19464 -4.58037 0
M  V30 17342 H 1583.65 3.74376 -3.70338 0
M  V30 17343 H 1586.14 2.38742 -2.92935 0
M  V30 17344 H 1586.45 4.38153 -6.36586 0
M  V30 17345 H 1584.8 3.94615 -5.72105 0
M  V30 17346 H 1587.99 2.89147 -3.68119 0
M  V30 17347 H 1588.16 3.80099 -5.24813 0
M  V30 17348 N 1581.57 1.13606 1.09231 0
M  V30 17349 C 1582.5 0.77306 2.15769 0
M  V30 17350 C 1583.51 -0.206148 1.6149 0
M  V30 17351 O 1584.7 0.014338 1.78494 0
M  V30 17352 C 1581.8 0.125475 3.38668 0
M  V30 17353 C 1580.97 1.13728 4.22356 0
M  V30 17354 C 1580.03 0.515021 5.23674 0
M  V30 17355 O 1579.06 1.1756 5.56928 0
M  V30 17356 N 1580.26 -0.712028 5.76117 0
M  V30 17357 H 1583.03 1.68984 2.47517 0
M  V30 17358 H 1580.59 1.02935 1.24964 0
M  V30 17359 H 1582.58 -0.303109 4.03563 0
M  V30 17360 H 1581.15 -0.694284 3.04792 0
M  V30 17361 H 1580.37 1.74309 3.53568 0
M  V30 17362 H 1581.66 1.82106 4.75094 0
M  V30 17363 H 1581.06 -1.26745 5.51319 0
M  V30 17364 H 1579.61 -1.08324 6.42736 0
M  V30 17365 N 1583.05 -1.27244 0.929878 0
M  V30 17366 C 1584.46 -1.76254 0.615732 0
M  V30 17367 C 1584.81 -1.759 -0.869111 0
M  V30 17368 O 1583.93 -1.36388 -1.6801 0
M  V30 17369 C 1584.53 -3.20068 1.11095 0
M  V30 17370 C 1583.09 -3.66736 0.847435 0
M  V30 17371 C 1582.23 -2.4659 1.26842 0
M  V30 17372 H 1585.18 -1.1348 1.10942 0
M  V30 17373 H 1585.21 -3.77714 0.459618 0
M  V30 17374 H 1584.72 -3.20293 2.19166 0
M  V30 17375 H 1582.82 -3.71954 -0.219376 0
M  V30 17376 H 1582.93 -4.56104 1.4665 0
M  V30 17377 H 1581.3 -2.45261 0.686944 0
M  V30 17378 H 1582.08 -2.49524 2.35781 0
M  V30 17379 N 1584.52 -0.695628 -1.41417 0
M  V30 17380 C 1585.75 -0.235312 -2.05256 0
M  V30 17381 C 1586.16 1.12055 -1.52448 0
M  V30 17382 O 1585.5 1.71139 -0.667612 0
M  V30 17383 C 1585.57 -0.115542 -3.59314 0
M  V30 17384 C 1585.23 -1.40345 -4.34916 0
M  V30 17385 C 1586.23 -2.34131 -4.64197 0
M  V30 17386 C 1583.91 -1.65684 -4.74188 0
M  V30 17387 C 1585.91 -3.51518 -5.31709 0
M  V30 17388 C 1583.59 -2.83355 -5.41436 0
M  V30 17389 C 1584.59 -3.76095 -5.70124 0
M  V30 17390 O 1584.28 -4.91706 -6.35988 0
M  V30 17391 H 1584.01 -0.107129 -0.667457 0
M  V30 17392 H 1586.57 -0.948759 -1.82175 0
M  V30 17393 H 1584.8 0.653675 -3.81135 0
M  V30 17394 H 1586.48 0.307599 -4.04733 0
M  V30 17395 H 1587.25 -2.15812 -4.34339 0
M  V30 17396 H 1583.13 -0.943613 -4.51239 0
M  V30 17397 H 1586.67 -4.23923 -5.54017 0
M  V30 17398 H 1582.57 -3.01591 -5.70713 0
M  V30 17399 H 1583.34 -4.91522 -6.54484 0
M  V30 17400 N 1586 1.51322 -0.440383 0
M  V30 17401 C 1587.25 2.02113 0.125062 0
M  V30 17402 C 1587.58 1.32436 1.42446 0
M  V30 17403 O 1586.83 0.428981 1.9094 0
M  V30 17404 C 1587.13 3.55287 0.388079 0
M  V30 17405 C 1586.8 4.43272 -0.825876 0
M  V30 17406 C 1585.46 4.67039 -1.15878 0
M  V30 17407 C 1587.81 4.94872 -1.63557 0
M  V30 17408 C 1585.14 5.39652 -2.30201 0
M  V30 17409 C 1587.49 5.68739 -2.76981 0
M  V30 17410 C 1586.15 5.90769 -3.10722 0
M  V30 17411 H 1585.42 0.739585 0.0457635 0
M  V30 17412 H 1588.07 1.82243 -0.588201 0
M  V30 17413 H 1586.38 3.73505 1.18327 0
M  V30 17414 H 1588.07 3.92124 0.839055 0
M  V30 17415 H 1584.66 4.24972 -0.556468 0
M  V30 17416 H 1588.85 4.76391 -1.39158 0
M  V30 17417 H 1584.1 5.54923 -2.56653 0
M  V30 17418 H 1588.28 6.07711 -3.40089 0
M  V30 17419 H 1585.9 6.46814 -3.9942 0
M  V30 17420 N 1587.48 0.171848 1.5666 0
M  V30 17421 C 1588.39 -0.770721 2.21579 0
M  V30 17422 C 1589.41 -1.25273 1.20759 0
M  V30 17423 O 1590.58 -1.30474 1.53422 0
M  V30 17424 C 1587.65 -1.98256 2.84422 0
M  V30 17425 C 1586.71 -1.54738 4.00443 0
M  V30 17426 C 1585.94 -2.70145 4.6028 0
M  V30 17427 O 1586.16 -3.87026 4.19007 0
M  V30 17428 O 1585.1 -2.44189 5.50141 0
M  V30 17429 H 1588.92 -0.247974 3.02686 0
M  V30 17430 H 1586.51 -0.0563734 1.49294 0
M  V30 17431 H 1588.39 -2.69127 3.24266 0
M  V30 17432 H 1587.07 -2.49435 2.0631 0
M  V30 17433 H 1585.97 -0.808152 3.65267 0
M  V30 17434 H 1587.31 -1.08249 4.80149 0
M  V30 17435 N 1588.96 -1.5727 -0.101874 0
M  V30 17436 C 1590.19 -1.89943 -0.820329 0
M  V30 17437 C 1590.6 -0.764867 -1.72613 0
M  V30 17438 O 1589.96 0.263499 -1.80588 0
M  V30 17439 C 1590.01 -3.2219 -1.63939 0
M  V30 17440 O 1589.73 -4.31279 -0.770039 0
M  V30 17441 C 1591.23 -3.6868 -2.46151 0
M  V30 17442 H 1588.45 -0.628532 -0.234922 0
M  V30 17443 H 1590.99 -2.04339 -0.0811362 0
M  V30 17444 H 1589.15 -3.09411 -2.33117 0
M  V30 17445 H 1589.56 -5.07182 -1.33665 0
M  V30 17446 H 1591.04 -4.63928 -2.99124 0
M  V30 17447 H 1591.51 -2.96183 -3.24303 0
M  V30 17448 H 1592.12 -3.84303 -1.82185 0
M  V30 17449 N 1590.44 0.372521 -1.53134 0
M  V30 17450 C 1591.37 1.4621 -1.82057 0
M  V30 17451 C 1592.35 1.56194 -0.673612 0
M  V30 17452 O 1593.53 1.70875 -0.922797 0
M  V30 17453 C 1590.66 2.83632 -2.00425 0
M  V30 17454 C 1589.62 2.88478 -3.16171 0
M  V30 17455 C 1588.94 4.28508 -3.19821 0
M  V30 17456 C 1590.24 2.56628 -4.54906 0
M  V30 17457 H 1591.94 1.22256 -2.73302 0
M  V30 17458 H 1589.48 0.586688 -1.31507 0
M  V30 17459 H 1591.43 3.59876 -2.19242 0
M  V30 17460 H 1590.16 3.0896 -1.05884 0
M  V30 17461 H 1588.82 2.14684 -2.97164 0
M  V30 17462 H 1588.47 4.509 -2.2293 0
M  V30 17463 H 1588.17 4.32667 -3.97584 0
M  V30 17464 H 1589.69 5.06635 -3.40813 0
M  V30 17465 H 1591.1 3.22587 -4.73931 0
M  V30 17466 H 1589.5 2.72114 -5.34859 0
M  V30 17467 H 1590.57 1.51902 -4.60493 0
M  V30 17468 N 1591.91 1.44376 0.631925 0
M  V30 17469 C 1593.16 1.47117 1.3915 0
M  V30 17470 C 1593.49 0.10347 1.94225 0
M  V30 17471 O 1592.74 -0.894623 1.74055 0
M  V30 17472 C 1593.04 2.47828 2.57519 0
M  V30 17473 C 1592.71 3.93174 2.20738 0
M  V30 17474 C 1591.37 4.32755 2.1042 0
M  V30 17475 C 1593.72 4.8468 1.91664 0
M  V30 17476 C 1591.05 5.61768 1.69214 0
M  V30 17477 C 1593.4 6.14079 1.51951 0
M  V30 17478 C 1592.07 6.52616 1.40174 0
M  V30 17479 H 1591.34 0.538341 0.509186 0
M  V30 17480 H 1593.98 1.77584 0.716663 0
M  V30 17481 H 1592.29 2.10841 3.30232 0
M  V30 17482 H 1593.99 2.47196 3.15746 0
M  V30 17483 H 1590.58 3.61859 2.29687 0
M  V30 17484 H 1594.76 4.54855 1.98546 0
M  V30 17485 H 1590.02 5.90444 1.58699 0
M  V30 17486 H 1594.19 6.84443 1.28493 0
M  V30 17487 H 1591.82 7.52487 1.08017 0
M  V30 17488 N 1593.39 -0.872258 1.31261 0
M  V30 17489 C 1594.34 -1.96688 1.15317 0
M  V30 17490 C 1595.33 -1.60769 0.0647922 0
M  V30 17491 O 1596.52 -1.74617 0.289469 0
M  V30 17492 C 1593.65 -3.32347 0.860242 0
M  V30 17493 C 1592.73 -3.7454 1.98948 0
M  V30 17494 N 1593.12 -3.88715 3.23627 0
M  V30 17495 C 1591.42 -4.04035 1.88871 0
M  V30 17496 C 1592.12 -4.24718 3.97478 0
M  V30 17497 N 1591.1 -4.35278 3.25629 0
M  V30 17498 H 1594.9 -2.05755 2.09862 0
M  V30 17499 H 1592.41 -1.0629 1.22785 0
M  V30 17500 H 1594.41 -4.10512 0.727004 0
M  V30 17501 H 1593.07 -3.24609 -0.0770132 0
M  V30 17502 H 1594.08 -3.73504 3.58769 0
M  V30 17503 H 1590.76 -4.04698 1.02595 0
M  V30 17504 H 1592.15 -4.43302 5.04909 0
M  V30 17505 N 1594.87 -1.14184 -1.08627 0
M  V30 17506 C 1595.82 -0.826718 -2.15486 0
M  V30 17507 C 1596.79 0.214769 -1.64706 0
M  V30 17508 O 1597.97 0.0851909 -1.9061 0
M  V30 17509 C 1595.11 -0.307888 -3.43724 0
M  V30 17510 C 1594.22 -1.40941 -4.08362 0
M  V30 17511 C 1593.36 -0.848059 -5.24387 0
M  V30 17512 C 1592.4 -1.92741 -5.80962 0
M  V30 17513 N 1591.54 -1.3834 -6.88336 0
M  V30 17514 H 1596.38 -1.74198 -2.41783 0
M  V30 17515 H 1593.91 -0.869406 -1.18658 0
M  V30 17516 H 1595.87 0.0111149 -4.17199 0
M  V30 17517 H 1594.5 0.570488 -3.17719 0
M  V30 17518 H 1593.55 -1.84485 -3.3267 0
M  V30 17519 H 1594.86 -2.22485 -4.46433 0
M  V30 17520 H 1594.02 -0.480826 -6.04792 0
M  V30 17521 H 1592.76 -0.00163783 -4.877 0
M  V30 17522 H 1591.76 -2.30362 -4.99213 0
M  V30 17523 H 1592.99 -2.77738 -6.19708 0
M  V30 17524 H 1590.93 -0.559124 -6.53613 0
M  V30 17525 H 1590.85 -2.13524 -7.2522 0
M  V30 17526 H 1592.12 -1.044 -7.72477 0
M  V30 17527 N 1596.35 1.26749 -0.936613 0
M  V30 17528 C 1597.31 2.24794 -0.447243 0
M  V30 17529 C 1598.31 1.54688 0.439135 0
M  V30 17530 O 1599.5 1.72553 0.238957 0
M  V30 17531 C 1596.63 3.39036 0.355958 0
M  V30 17532 H 1597.83 2.696 -1.31361 0
M  V30 17533 H 1595.38 1.38825 -0.718143 0
M  V30 17534 H 1596.11 2.99625 1.24077 0
M  V30 17535 H 1595.9 3.91101 -0.279691 0
M  V30 17536 H 1597.39 4.11887 0.688421 0
M  V30 17537 N 1597.83 0.703118 1.41046 0
M  V30 17538 C 1598.76 0.0570815 2.3343 0
M  V30 17539 C 1599.74 -0.759042 1.52225 0
M  V30 17540 O 1600.92 -0.710491 1.80736 0
M  V30 17541 C 1598.05 -0.874541 3.36109 0
M  V30 17542 C 1597.01 -0.16496 4.27682 0
M  V30 17543 C 1596.33 -1.21145 5.20795 0
M  V30 17544 C 1597.63 0.97332 5.13151 0
M  V30 17545 H 1599.33 0.828699 2.87703 0
M  V30 17546 H 1596.87 0.399956 1.38334 0
M  V30 17547 H 1598.83 -1.33579 3.99668 0
M  V30 17548 H 1597.55 -1.67791 2.80203 0
M  V30 17549 H 1596.21 0.276332 3.65557 0
M  V30 17550 H 1595.86 -2.00755 4.61201 0
M  V30 17551 H 1595.56 -0.741633 5.82901 0
M  V30 17552 H 1597.08 -1.67305 5.87232 0
M  V30 17553 H 1598.49 0.592013 5.70235 0
M  V30 17554 H 1596.89 1.37071 5.84236 0
M  V30 17555 H 1597.96 1.80961 4.49868 0
M  V30 17556 N 1599.3 -1.51086 0.448402 0
M  V30 17557 C 1600.25 -2.29611 -0.371711 0
M  V30 17558 C 1601.25 -1.35926 -1.01096 0
M  V30 17559 O 1602.45 -1.53219 -0.944663 0
M  V30 17560 H 1598.83 -0.739099 -0.138694 0
M  V30 17561 H 1600.8 -2.96772 0.311275 0
M  V30 17562 C 1599.55 -3.1583 -1.45418 0
M  V30 17563 H 1598.87 -3.87813 -0.971661 0
M  V30 17564 H 1600.31 -3.7381 -2.00105 0
M  V30 17565 C 1598.77 -2.31927 -2.44359 0
M  V30 17566 O 1599.3 -1.98655 -3.4914 0
M  V30 17567 N 1597.51 -1.94938 -2.15517 0
M  V30 17568 H 1597.05 -2.22195 -1.30335 0
M  V30 17569 H 1597.01 -1.39098 -2.81956 0
M  V30 17570 N 1600.78 -0.180154 -1.56567 0
M  V30 17571 C 1601.71 0.742131 -2.21393 0
M  V30 17572 C 1602.69 1.23253 -1.1723 0
M  V30 17573 O 1603.88 1.28408 -1.45688 0
M  V30 17574 C 1601.01 1.96799 -2.8616 0
M  V30 17575 C 1599.96 1.6131 -3.96438 0
M  V30 17576 C 1599.29 2.91434 -4.48297 0
M  V30 17577 C 1600.59 0.834382 -5.15592 0
M  V30 17578 H 1602.28 0.201759 -2.98719 0
M  V30 17579 H 1599.83 0.0956016 -1.43682 0
M  V30 17580 H 1601.78 2.61828 -3.30188 0
M  V30 17581 H 1600.51 2.53264 -2.06215 0
M  V30 17582 H 1599.16 0.986451 -3.53079 0
M  V30 17583 H 1598.81 3.45958 -3.65133 0
M  V30 17584 H 1598.51 2.68439 -5.22699 0
M  V30 17585 H 1600.04 3.57478 -4.95017 0
M  V30 17586 H 1601.45 1.38745 -5.56258 0
M  V30 17587 H 1599.85 0.703132 -5.95966 0
M  V30 17588 H 1600.92 -0.167554 -4.8461 0
M  V30 17589 N 1602.26 1.57322 0.0935319 0
M  V30 17590 C 1603.21 1.98608 1.11977 0
M  V30 17591 C 1604.19 0.864762 1.35686 0
M  V30 17592 O 1605.39 1.1286 1.36351 0
M  V30 17593 C 1602.52 2.41537 2.43957 0
M  V30 17594 C 1601.6 3.60357 2.23615 0
M  V30 17595 N 1601.99 4.75242 1.73144 0
M  V30 17596 C 1600.29 3.66485 2.54175 0
M  V30 17597 C 1600.99 5.5718 1.67109 0
M  V30 17598 N 1599.97 5.00396 2.1238 0
M  V30 17599 H 1603.77 2.84881 0.722513 0
M  V30 17600 H 1601.28 1.59587 0.300936 0
M  V30 17601 H 1603.28 2.69343 3.18213 0
M  V30 17602 H 1601.94 1.56641 2.84418 0
M  V30 17603 H 1602.95 4.97961 1.42319 0
M  V30 17604 H 1599.63 2.92255 2.9815 0
M  V30 17605 H 1601.02 6.59376 1.29125 0
M  V30 17606 N 1603.74 -0.364395 1.53329 0
M  V30 17607 C 1604.97 -1.1275 1.7348 0
M  V30 17608 C 1605.38 -1.83002 0.4643 0
M  V30 17609 O 1604.74 -1.73603 -0.562864 0
M  V30 17610 C 1604.79 -2.15691 2.90103 0
M  V30 17611 O 1604.51 -1.48298 4.12237 0
M  V30 17612 C 1606.01 -3.04539 3.22135 0
M  V30 17613 H 1603.23 -0.337084 0.580186 0
M  V30 17614 H 1605.78 -0.422952 2.00078 0
M  V30 17615 H 1603.93 -2.81742 2.65895 0
M  V30 17616 H 1604.34 -2.16896 4.77553 0
M  V30 17617 H 1605.82 -3.72747 4.07141 0
M  V30 17618 H 1606.3 -3.69414 2.3755 0
M  V30 17619 H 1606.9 -2.44103 3.48273 0
M  V30 17620 N 1605.22 -1.44709 -0.62426 0
M  V30 17621 C 1606.18 -1.51738 -1.7178 0
M  V30 17622 C 1607.18 -0.398646 -1.5578 0
M  V30 17623 O 1608.37 -0.661525 -1.61151 0
M  V30 17624 C 1605.5 -1.39792 -3.1092 0
M  V30 17625 H 1606.69 -2.49154 -1.6692 0
M  V30 17626 H 1604.25 -1.31903 -0.838531 0
M  V30 17627 H 1604.98 -0.434955 -3.2137 0
M  V30 17628 H 1604.77 -2.20919 -3.2394 0
M  V30 17629 H 1606.26 -1.47706 -3.90606 0
M  V30 17630 N 1606.69 0.865285 -1.31722 0
M  V30 17631 C 1607.64 1.99433 -1.19704 0
M  V30 17632 C 1608.64 1.69079 -0.104255 0
M  V30 17633 O 1609.84 1.78017 -0.266466 0
M  V30 17634 H 1606.22 0.654244 -0.370768 0
M  V30 17635 H 1608.19 2.06699 -2.15216 0
M  V30 17636 C 1606.94 3.35142 -0.926027 0
M  V30 17637 H 1606.26 3.59022 -1.75906 0
M  V30 17638 H 1607.7 4.14722 -0.88214 0
M  V30 17639 C 1606.16 3.34848 0.37124 0
M  V30 17640 O 1606.69 3.77012 1.38654 0
M  V30 17641 N 1604.9 2.87979 0.389441 0
M  V30 17642 H 1604.44 2.53861 -0.437293 0
M  V30 17643 H 1604.4 2.88165 1.25731 0
M  V30 17644 N 1608.17 1.14759 1.0802 0
M  V30 17645 C 1609.42 0.929574 1.80916 0
M  V30 17646 C 1609.77 -0.53792 1.84727 0
M  V30 17647 O 1609.07 -1.39348 1.31501 0
M  V30 17648 C 1609.26 1.4692 3.25805 0
M  V30 17649 C 1609.09 2.98763 3.36111 0
M  V30 17650 C 1607.86 3.67248 3.47069 0
M  V30 17651 C 1610.06 3.966 3.27433 0
M  V30 17652 N 1608.04 5.06965 3.46207 0
M  V30 17653 C 1609.41 5.22594 3.33609 0
M  V30 17654 C 1611.47 3.88665 3.11197 0
M  V30 17655 C 1610.17 6.41579 3.25221 0
M  V30 17656 C 1612.19 5.07201 3.0414 0
M  V30 17657 C 1611.56 6.32066 3.10921 0
M  V30 17658 H 1607.66 0.393733 0.675647 0
M  V30 17659 H 1610.24 1.45842 1.2899 0
M  V30 17660 H 1608.41 0.967084 3.76168 0
M  V30 17661 H 1610.14 1.19071 3.86787 0
M  V30 17662 H 1606.9 3.17815 3.51128 0
M  V30 17663 H 1607.32 5.79917 3.49322 0
M  V30 17664 H 1611.96 2.93 3.04813 0
M  V30 17665 H 1609.68 7.37485 3.30365 0
M  V30 17666 H 1613.27 5.02815 2.92691 0
M  V30 17667 H 1612.15 7.22248 3.05495 0
M  V30 17668 N 1609.65 -1.26251 0.943322 0
M  V30 17669 C 1610.9 -1.93652 0.592032 0
M  V30 17670 C 1611.23 -1.73996 -0.869234 0
M  V30 17671 O 1610.48 -1.07165 -1.6375 0
M  V30 17672 C 1610.78 -3.46316 0.883167 0
M  V30 17673 C 1610.45 -3.86115 2.32866 0
M  V30 17674 C 1609.11 -3.9669 2.72379 0
M  V30 17675 C 1611.46 -4.06025 3.26792 0
M  V30 17676 C 1608.79 -4.24575 4.04911 0
M  V30 17677 C 1611.14 -4.35399 4.58923 0
M  V30 17678 C 1609.8 -4.4419 4.98248 0
M  V30 17679 H 1609.07 -0.708624 0.21664 0
M  V30 17680 H 1611.72 -1.50019 1.19023 0
M  V30 17681 H 1610.03 -3.91277 0.202452 0
M  V30 17682 H 1611.72 -3.96634 0.590108 0
M  V30 17683 H 1608.31 -3.78431 2.01217 0
M  V30 17684 H 1612.5 -3.9728 2.9746 0
M  V30 17685 H 1607.75 -4.29594 4.35039 0
M  V30 17686 H 1611.93 -4.49751 5.31692 0
M  V30 17687 H 1609.55 -4.65551 6.00971 0
M  V30 17688 N 1611.13 -0.710588 -1.40671 0
M  V30 17689 C 1612.06 -0.0694601 -2.33397 0
M  V30 17690 C 1613.04 0.750959 -1.52626 0
M  V30 17691 O 1614.23 0.700896 -1.81111 0
M  V30 17692 C 1611.36 0.856704 -3.36568 0
M  V30 17693 C 1610.31 0.142276 -4.27763 0
M  V30 17694 C 1609.64 1.18382 -5.21431 0
M  V30 17695 C 1610.94 -1.00052 -5.12627 0
M  V30 17696 H 1612.63 -0.843945 -2.87259 0
M  V30 17697 H 1610.18 -0.407287 -1.3812 0
M  V30 17698 H 1612.13 1.31457 -4.00371 0
M  V30 17699 H 1610.85 1.66303 -2.81089 0
M  V30 17700 H 1609.51 -0.295714 -3.65405 0
M  V30 17701 H 1609.16 1.98306 -4.62259 0
M  V30 17702 H 1608.86 0.71071 -5.83286 0
M  V30 17703 H 1610.38 1.64189 -5.88111 0
M  V30 17704 H 1611.8 -0.622246 -5.69913 0
M  V30 17705 H 1610.19 -1.40168 -5.83501 0
M  V30 17706 H 1611.26 -1.83345 -4.48902 0
M  V30 17707 N 1612.61 1.50847 -0.456408 0
M  V30 17708 C 1613.84 2.0635 0.10159 0
M  V30 17709 C 1614.25 1.32198 1.35353 0
M  V30 17710 O 1613.59 0.380433 1.79718 0
M  V30 17711 C 1613.65 3.56411 0.470283 0
M  V30 17712 C 1613.31 4.51949 -0.677546 0
M  V30 17713 C 1614.31 4.96091 -1.55531 0
M  V30 17714 C 1612 4.94819 -0.863701 0
M  V30 17715 C 1613.99 5.81793 -2.60377 0
M  V30 17716 C 1611.68 5.80306 -1.9154 0
M  V30 17717 C 1612.68 6.23693 -2.78381 0
M  V30 17718 O 1612.36 7.0748 -3.81742 0
M  V30 17719 H 1612.1 0.675994 0.00283373 0
M  V30 17720 H 1614.65 1.95178 -0.639893 0
M  V30 17721 H 1612.88 3.65433 1.26475 0
M  V30 17722 H 1614.57 3.94344 0.961649 0
M  V30 17723 H 1615.33 4.63651 -1.42311 0
M  V30 17724 H 1611.21 4.60578 -0.197285 0
M  V30 17725 H 1614.76 6.15578 -3.2819 0
M  V30 17726 H 1610.65 6.12159 -2.04773 0
M  V30 17727 H 1611.42 7.257 -3.78553 0
M  V30 17728 N 1614.09 0.188454 1.56469 0
M  V30 17729 C 1615.02 -0.730379 2.21783 0
M  V30 17730 C 1616 -1.22629 1.17882 0
M  V30 17731 O 1617.18 -1.27634 1.46367 0
M  V30 17732 C 1614.31 -1.95278 2.872 0
M  V30 17733 C 1613.27 -1.59205 3.97288 0
M  V30 17734 C 1612.59 -2.89052 4.49836 0
M  V30 17735 C 1613.89 -0.807027 5.16027 0
M  V30 17736 H 1615.59 -0.185914 2.98822 0
M  V30 17737 H 1613.13 -0.0879804 1.43731 0
M  V30 17738 H 1615.08 -2.60074 3.31571 0
M  V30 17739 H 1613.81 -2.52167 2.07556 0
M  V30 17740 H 1612.47 -0.967713 3.53597 0
M  V30 17741 H 1612.12 -3.44017 3.66963 0
M  V30 17742 H 1611.82 -2.65663 5.24115 0
M  V30 17743 H 1613.34 -3.54847 4.96906 0
M  V30 17744 H 1614.75 -1.35794 5.56986 0
M  V30 17745 H 1613.15 -0.671516 5.96331 0
M  V30 17746 H 1614.22 0.193251 4.84515 0
M  V30 17747 N 1615.56 -1.5737 -0.0851874 0
M  V30 17748 C 1616.79 -1.91183 -0.803983 0
M  V30 17749 C 1617.21 -0.78365 -1.70999 0
M  V30 17750 O 1616.57 0.264266 -1.79364 0
M  V30 17751 C 1616.62 -3.239 -1.58496 0
M  V30 17752 O 1615.72 -3.12189 -2.69466 0
M  V30 17753 H 1615.06 -0.626413 -0.220233 0
M  V30 17754 H 1617.59 -2.04519 -0.0574426 0
M  V30 17755 H 1617.6 -3.5745 -1.96707 0
M  V30 17756 H 1616.28 -4.05594 -0.920111 0
M  V30 17757 H 1614.86 -2.90173 -2.3421 0
M  V30 17758 N 1617.04 0.356258 -1.53521 0
M  V30 17759 C 1618.27 1.11828 -1.74075 0
M  V30 17760 C 1618.68 1.82753 -0.473998 0
M  V30 17761 O 1618.04 1.73899 0.553649 0
M  V30 17762 C 1618.09 2.14149 -2.91243 0
M  V30 17763 O 1617.81 1.4611 -4.13017 0
M  V30 17764 C 1619.31 3.02826 -3.23746 0
M  V30 17765 H 1616.53 0.334002 -0.581965 0
M  V30 17766 H 1619.08 0.412336 -2.003 0
M  V30 17767 H 1617.23 2.80328 -2.67386 0
M  V30 17768 H 1617.65 2.1436 -4.78696 0
M  V30 17769 H 1619.12 3.70583 -4.09112 0
M  V30 17770 H 1619.6 3.68149 -2.39505 0
M  V30 17771 H 1620.2 2.42252 -3.49563 0
M  V30 17772 N 1618.52 1.45038 0.616577 0
M  V30 17773 C 1619.45 1.55858 1.73869 0
M  V30 17774 C 1620.43 0.410657 1.65069 0
M  V30 17775 O 1621.62 0.632652 1.83606 0
M  V30 17776 C 1618.75 1.51635 3.12448 0
M  V30 17777 C 1617.7 2.65053 3.36052 0
M  V30 17778 C 1617.03 2.45883 4.74811 0
M  V30 17779 C 1618.33 4.07121 3.27185 0
M  V30 17780 H 1620.02 2.49784 1.6507 0
M  V30 17781 H 1617.57 1.20216 0.792724 0
M  V30 17782 H 1619.52 1.57803 3.90738 0
M  V30 17783 H 1618.24 0.542342 3.22066 0
M  V30 17784 H 1616.9 2.58299 2.60149 0
M  V30 17785 H 1616.55 1.46641 4.8115 0
M  V30 17786 H 1616.25 3.21935 4.9156 0
M  V30 17787 H 1617.77 2.53892 5.55312 0
M  V30 17788 H 1619.19 4.15167 3.9536 0
M  V30 17789 H 1617.58 4.83491 3.55466 0
M  V30 17790 H 1618.65 4.29663 2.24762 0
M  V30 17791 N 1620 -0.858287 1.32179 0
M  V30 17792 C 1621.41 -1.14591 1.1109 0
M  V30 17793 C 1621.61 -2.01194 -0.110998 0
M  V30 17794 O 1620.67 -2.39593 -0.79695 0
M  V30 17795 C 1621.98 -1.82675 2.38852 0
M  V30 17796 C 1623.53 -1.95326 2.44574 0
M  V30 17797 C 1624.01 -2.66826 3.72247 0
M  V30 17798 N 1625.5 -2.74353 3.73208 0
M  V30 17799 C 1626.23 -3.30317 4.68698 0
M  V30 17800 N 1625.73 -3.87121 5.74552 0
M  V30 17801 N 1627.52 -3.28386 4.562 0
M  V30 17802 H 1619.67 -0.281471 2.10527 0
M  V30 17803 H 1621.93 -0.187326 0.929308 0
M  V30 17804 H 1621.64 -1.26495 3.28165 0
M  V30 17805 H 1621.51 -2.82862 2.49537 0
M  V30 17806 H 1623.9 -2.50668 1.55723 0
M  V30 17807 H 1623.98 -0.94147 2.37844 0
M  V30 17808 H 1623.63 -2.12149 4.61471 0
M  V30 17809 H 1623.56 -3.68437 3.76247 0
M  V30 17810 H 1626.05 -2.34051 2.96696 0
M  V30 17811 H 1626.36 -4.2797 6.43476 0
M  V30 17812 H 1624.71 -3.85463 5.78311 0
M  V30 17813 H 1627.9 -2.83254 3.72672 0
M  V30 17814 H 1628.07 -3.71701 5.30794 0
M  V30 17815 N 1621.48 -1.1533 -1.07409 0
M  V30 17816 C 1622.72 -0.939155 -1.8042 0
M  V30 17817 C 1623.08 0.528116 -1.8501 0
M  V30 17818 O 1622.37 1.38649 -1.32239 0
M  V30 17819 C 1622.56 -1.48646 -3.25022 0
M  V30 17820 C 1622.39 -3.00542 -3.34522 0
M  V30 17821 C 1621.16 -3.69083 -3.45117 0
M  V30 17822 C 1623.36 -3.98331 -3.25326 0
M  V30 17823 N 1621.34 -5.08794 -3.43513 0
M  V30 17824 C 1622.71 -5.24356 -3.30833 0
M  V30 17825 C 1624.77 -3.9031 -3.09132 0
M  V30 17826 C 1623.47 -6.43295 -3.21813 0
M  V30 17827 C 1625.5 -5.08807 -3.01446 0
M  V30 17828 C 1624.86 -6.33706 -3.07565 0
M  V30 17829 H 1620.96 -0.397311 -0.673549 0
M  V30 17830 H 1623.54 -1.46524 -1.28214 0
M  V30 17831 H 1621.71 -0.987019 -3.75649 0
M  V30 17832 H 1623.45 -1.2112 -3.8615 0
M  V30 17833 H 1620.2 -3.19672 -3.49438 0
M  V30 17834 H 1620.62 -5.81761 -3.46242 0
M  V30 17835 H 1625.27 -2.94612 -3.03255 0
M  V30 17836 H 1622.98 -7.39227 -3.26449 0
M  V30 17837 H 1626.57 -5.0436 -2.9002 0
M  V30 17838 H 1625.45 -7.23858 -3.01661 0
M  V30 17839 N 1622.95 1.25748 -0.950004 0
M  V30 17840 C 1624.2 1.93336 -0.602294 0
M  V30 17841 C 1624.53 1.74454 0.859994 0
M  V30 17842 O 1623.78 1.08032 1.6318 0
M  V30 17843 C 1624.08 3.45843 -0.901521 0
M  V30 17844 C 1623.75 3.84874 -2.3491 0
M  V30 17845 C 1622.41 3.9524 -2.74479 0
M  V30 17846 C 1624.76 4.04286 -3.28941 0
M  V30 17847 C 1622.09 4.22422 -4.07157 0
M  V30 17848 C 1624.44 4.32959 -4.61225 0
M  V30 17849 C 1623.11 4.41541 -5.00597 0
M  V30 17850 H 1622.38 0.707465 -0.220395 0
M  V30 17851 H 1625.02 1.49386 -1.19817 0
M  V30 17852 H 1623.33 3.91164 -0.2232 0
M  V30 17853 H 1625.03 3.96316 -0.611134 0
M  V30 17854 H 1621.62 3.77358 -2.03221 0
M  V30 17855 H 1625.8 3.95697 -2.99563 0
M  V30 17856 H 1621.06 4.27281 -4.37311 0
M  V30 17857 H 1625.23 4.46925 -5.3407 0
M  V30 17858 H 1622.86 4.62358 -6.03431 0
M  V30 17859 N 1624.43 0.718038 1.40292 0
M  V30 17860 C 1625.36 0.0276294 2.29183 0
M  V30 17861 C 1626.38 -0.721208 1.45954 0
M  V30 17862 O 1627.57 -0.568181 1.69216 0
M  V30 17863 C 1624.67 -0.985139 3.24266 0
M  V30 17864 C 1623.84 -0.301327 4.36361 0
M  V30 17865 C 1622.9 -1.21982 5.11866 0
M  V30 17866 O 1621.92 -0.70369 5.64833 0
M  V30 17867 N 1623.13 -2.55079 5.21455 0
M  V30 17868 H 1625.89 0.790884 2.89076 0
M  V30 17869 H 1623.45 0.565867 1.51689 0
M  V30 17870 H 1625.44 -1.60183 3.7165 0
M  V30 17871 H 1624.01 -1.64973 2.65523 0
M  V30 17872 H 1623.23 0.495594 3.91072 0
M  V30 17873 H 1624.52 0.173238 5.08505 0
M  V30 17874 H 1623.92 -2.99506 4.79909 0
M  V30 17875 H 1622.48 -3.11886 5.72338 0
M  V30 17876 N 1625.91 -1.50602 0.464402 0
M  V30 17877 C 1626.84 -2.25029 -0.379075 0
M  V30 17878 C 1627.82 -1.28064 -1.00192 0
M  V30 17879 O 1629.01 -1.5727 -1.03915 0
M  V30 17880 C 1626.13 -3.02144 -1.53057 0
M  V30 17881 C 1625.18 -4.13981 -1.02576 0
M  V30 17882 S 1626.01 -5.35473 0.0541453 0
M  V30 17883 C 1627.17 -6.16133 -1.10138 0
M  V30 17884 H 1627.4 -2.96224 0.252731 0
M  V30 17885 H 1624.93 -1.52376 0.249205 0
M  V30 17886 H 1626.89 -3.47167 -2.19056 0
M  V30 17887 H 1625.55 -2.30489 -2.13387 0
M  V30 17888 H 1624.75 -4.67316 -1.88763 0
M  V30 17889 H 1624.35 -3.7136 -0.443597 0
M  V30 17890 H 1626.64 -6.46861 -2.01437 0
M  V30 17891 H 1627.58 -7.0549 -0.60743 0
M  V30 17892 H 1627.99 -5.48066 -1.35218 0
M  V30 17893 N 1627.39 -0.19675 -1.56367 0
M  V30 17894 C 1628.8 0.159068 -1.58805 0
M  V30 17895 C 1629 1.60902 -1.21297 0
M  V30 17896 O 1628.06 2.34491 -0.93649 0
M  V30 17897 C 1629.37 -0.144784 -3.00351 0
M  V30 17898 C 1630.92 -0.0850243 -3.12884 0
M  V30 17899 C 1631.4 -0.362209 -4.56565 0
M  V30 17900 N 1632.89 -0.310887 -4.62156 0
M  V30 17901 C 1633.62 -0.499187 -5.71223 0
M  V30 17902 N 1633.12 -0.747925 -6.88751 0
M  V30 17903 N 1634.91 -0.433329 -5.60427 0
M  V30 17904 H 1627.06 -1.1429 -1.79029 0
M  V30 17905 H 1629.33 -0.456298 -0.830961 0
M  V30 17906 H 1629.03 -1.15019 -3.3236 0
M  V30 17907 H 1628.91 0.551864 -3.73141 0
M  V30 17908 H 1631.29 0.910992 -2.80687 0
M  V30 17909 H 1631.37 -0.814774 -2.42477 0
M  V30 17910 H 1631.02 -1.35555 -4.89477 0
M  V30 17911 H 1630.95 0.388448 -5.25165 0
M  V30 17912 H 1633.44 -0.125318 -3.77692 0
M  V30 17913 H 1633.75 -0.880372 -7.67769 0
M  V30 17914 H 1632.1 -0.784838 -6.90554 0
M  V30 17915 H 1635.29 -0.239411 -4.67487 0
M  V30 17916 H 1635.46 -0.583495 -6.45368 0
M  V30 17917 N 1628.87 1.57413 0.0768405 0
M  V30 17918 C 1630.12 1.86186 0.775741 0
M  V30 17919 C 1630.43 0.788676 1.78995 0
M  V30 17920 O 1631.63 0.964095 2.53806 0
M  V30 17921 C 1630.09 3.30247 1.43055 0
M  V30 17922 C 1629.7 4.45682 0.45517 0
M  V30 17923 C 1631.44 3.68225 2.11211 0
M  V30 17924 C 1629.35 5.80782 1.11561 0
M  V30 17925 H 1628.28 0.694546 0.293466 0
M  V30 17926 H 1630.93 1.83477 0.0289478 0
M  V30 17927 H 1629.31 3.27552 2.22544 0
M  V30 17928 H 1630.49 4.59759 -0.309535 0
M  V30 17929 H 1628.8 4.16222 -0.121671 0
M  V30 17930 H 1631.4 4.66454 2.6139 0
M  V30 17931 H 1631.74 2.9777 2.90928 0
M  V30 17932 H 1632.27 3.72888 1.38561 0
M  V30 17933 H 1629.01 6.54517 0.358877 0
M  V30 17934 H 1628.53 5.70515 1.8513 0
M  V30 17935 H 1630.21 6.25951 1.63689 0
M  V30 17936 N 1630.34 -0.348112 1.53707 0
M  V30 17937 C 1631.25 -1.45079 1.84361 0
M  V30 17938 C 1632.27 -1.5779 0.733375 0
M  V30 17939 O 1633.45 -1.73353 1.02522 0
M  V30 17940 C 1630.51 -2.80127 2.04278 0
M  V30 17941 C 1629.57 -2.76799 3.28148 0
M  V30 17942 C 1628.81 -4.05406 3.47105 0
M  V30 17943 O 1629.03 -5.02454 2.69992 0
M  V30 17944 O 1627.96 -4.10155 4.40519 0
M  V30 17945 H 1631.79 -1.22093 2.78077 0
M  V30 17946 H 1629.37 -0.539863 1.39305 0
M  V30 17947 H 1631.26 -3.60115 2.18849 0
M  V30 17948 H 1629.93 -3.03055 1.13751 0
M  V30 17949 H 1628.84 -1.95448 3.18984 0
M  V30 17950 H 1630.17 -2.58826 4.18653 0
M  V30 17951 N 1631.82 -1.45363 -0.608876 0
M  V30 17952 C 1632.76 -1.48425 -1.73336 0
M  V30 17953 C 1633.73 -0.340757 -1.58989 0
M  V30 17954 O 1634.92 -0.541066 -1.80568 0
M  V30 17955 C 1632.04 -1.33807 -3.11149 0
M  V30 17956 C 1631.09 -2.52005 -3.44087 0
M  V30 17957 S 1631.92 -4.14477 -3.39071 0
M  V30 17958 C 1633.08 -4.02321 -4.79467 0
M  V30 17959 H 1633.31 -2.43568 -1.70475 0
M  V30 17960 H 1630.85 -1.32931 -0.785418 0
M  V30 17961 H 1632.8 -1.2606 -3.90665 0
M  V30 17962 H 1631.46 -0.401365 -3.11525 0
M  V30 17963 H 1630.66 -2.37699 -4.44427 0
M  V30 17964 H 1630.26 -2.56606 -2.72083 0
M  V30 17965 H 1632.55 -3.67386 -5.6924 0
M  V30 17966 H 1633.49 -5.02569 -4.98829 0
M  V30 17967 H 1633.9 -3.34 -4.55087 0
M  V30 17968 N 1633.3 0.851265 -1.32632 0
M  V30 17969 C 1634.55 1.60057 -1.22738 0
M  V30 17970 C 1634.86 1.94485 0.208525 0
M  V30 17971 O 1636.07 2.68083 0.429361 0
M  V30 17972 C 1634.52 2.88634 -2.14985 0
M  V30 17973 C 1634.13 2.61617 -3.63676 0
M  V30 17974 C 1635.88 3.6665 -2.13935 0
M  V30 17975 C 1633.78 3.86215 -4.47875 0
M  V30 17976 H 1632.71 0.600617 -0.455824 0
M  V30 17977 H 1635.36 0.939671 -1.57615 0
M  V30 17978 H 1633.75 3.56199 -1.73027 0
M  V30 17979 H 1634.92 2.02342 -4.13998 0
M  V30 17980 H 1633.24 1.96926 -3.66891 0
M  V30 17981 H 1635.83 4.59114 -2.74078 0
M  V30 17982 H 1636.18 4.00636 -1.13121 0
M  V30 17983 H 1636.71 3.05993 -2.54192 0
M  V30 17984 H 1633.45 3.57367 -5.49517 0
M  V30 17985 H 1632.97 4.44874 -4.02302 0
M  V30 17986 H 1634.65 4.5392 -4.61049 0
M  V30 17987 N 1634.78 1.15898 1.06796 0
M  V30 17988 C 1636.03 0.937339 1.795 0
M  V30 17989 C 1636.35 -0.535183 1.86992 0
M  V30 17990 O 1635.61 -1.41304 1.35394 0
M  V30 17991 C 1635.91 1.50368 3.24229 0
M  V30 17992 C 1635.57 2.99765 3.36826 0
M  V30 17993 C 1634.24 3.40548 3.39971 0
M  V30 17994 C 1636.59 3.9575 3.39163 0
M  V30 17995 C 1633.92 4.75946 3.43063 0
M  V30 17996 C 1636.27 5.31028 3.43791 0
M  V30 17997 C 1634.93 5.71298 3.45216 0
M  V30 17998 H 1634.2 0.342997 0.656837 0
M  V30 17999 H 1636.85 1.44531 1.2563 0
M  V30 18000 H 1635.15 0.917024 3.80917 0
M  V30 18001 H 1636.85 1.30793 3.7907 0
M  V30 18002 H 1633.44 2.67244 3.3508 0
M  V30 18003 H 1637.62 3.65311 3.35948 0
M  V30 18004 H 1632.88 5.06484 3.42468 0
M  V30 18005 H 1637.05 6.05195 3.44546 0
M  V30 18006 H 1634.68 6.76196 3.47365 0
M  V30 18007 N 1636.26 -1.25243 0.956659 0
M  V30 18008 C 1637.5 -1.93299 0.613446 0
M  V30 18009 C 1637.84 -1.74723 -0.847671 0
M  V30 18010 O 1637.11 -1.09357 -1.60846 0
M  V30 18011 C 1637.39 -3.46637 0.975421 0
M  V30 18012 C 1637.25 -3.74431 2.49242 0
M  V30 18013 C 1638.57 -4.37228 0.501948 0
M  V30 18014 H 1635.68 -0.702027 0.224338 0
M  V30 18015 H 1638.33 -1.47822 1.19368 0
M  V30 18016 H 1636.48 -3.85503 0.48167 0
M  V30 18017 H 1638.15 -3.4519 3.06009 0
M  V30 18018 H 1636.39 -3.19967 2.92923 0
M  V30 18019 H 1637.06 -4.81674 2.69619 0
M  V30 18020 H 1639.54 -4.05677 0.925514 0
M  V30 18021 H 1638.41 -5.43274 0.783895 0
M  V30 18022 H 1638.68 -4.38036 -0.598082 0
M  V30 18023 N 1637.73 -0.725468 -1.3991 0
M  V30 18024 C 1638.98 -0.266188 -1.99936 0
M  V30 18025 C 1639.3 1.15022 -1.58207 0
M  V30 18026 O 1640.5 1.70853 -2.11001 0
M  V30 18027 C 1638.96 -0.424978 -3.57382 0
M  V30 18028 C 1638.57 -1.84866 -4.08079 0
M  V30 18029 C 1640.31 -0.0269907 -4.24491 0
M  V30 18030 C 1638.22 -1.95751 -5.58064 0
M  V30 18031 H 1637.15 -0.0957688 -0.747893 0
M  V30 18032 H 1639.8 -0.89798 -1.60027 0
M  V30 18033 H 1638.18 0.275558 -3.9504 0
M  V30 18034 H 1639.35 -2.58037 -3.81776 0
M  V30 18035 H 1637.67 -2.199 -3.536 0
M  V30 18036 H 1640.27 -0.0874638 -5.34628 0
M  V30 18037 H 1640.61 1.01639 -4.03702 0
M  V30 18038 H 1641.14 -0.678332 -3.91974 0
M  V30 18039 H 1637.88 -2.98244 -5.83721 0
M  V30 18040 H 1637.4 -1.27004 -5.862 0
M  V30 18041 H 1639.08 -1.73422 -6.23325 0
M  V30 18042 N 1639.21 1.50354 -0.472382 0
M  V30 18043 C 1640.46 2.02333 0.0821629 0
M  V30 18044 C 1640.79 1.35428 1.39605 0
M  V30 18045 O 1640.04 0.469386 1.89988 0
M  V30 18046 C 1640.34 3.5603 0.31263 0
M  V30 18047 C 1640.01 4.41421 -0.919715 0
M  V30 18048 C 1638.67 4.64476 -1.25759 0
M  V30 18049 C 1641.02 4.91292 -1.74017 0
M  V30 18050 C 1638.35 5.34648 -2.41596 0
M  V30 18051 C 1640.7 5.62736 -2.88983 0
M  V30 18052 C 1639.37 5.84045 -3.23184 0
M  V30 18053 H 1638.64 0.74039 0.0300655 0
M  V30 18054 H 1641.28 1.80954 -0.626725 0
M  V30 18055 H 1639.59 3.75931 1.10378 0
M  V30 18056 H 1641.28 3.93815 0.755691 0
M  V30 18057 H 1637.87 4.23696 -0.646486 0
M  V30 18058 H 1642.06 4.73332 -1.49232 0
M  V30 18059 H 1637.31 5.49354 -2.68366 0
M  V30 18060 H 1641.49 6.0036 -3.52903 0
M  V30 18061 H 1639.12 6.38196 -4.1305 0
M  V30 18062 N 1640.69 0.205039 1.56261 0
M  V30 18063 C 1641.94 -0.431097 1.97858 0
M  V30 18064 C 1642.27 -1.60937 1.09223 0
M  V30 18065 O 1641.52 -1.95244 0.133495 0
M  V30 18066 C 1641.82 -0.924086 3.45247 0
M  V30 18067 C 1641.49 0.141879 4.50677 0
M  V30 18068 C 1640.15 0.434753 4.79232 0
M  V30 18069 C 1642.5 0.863645 5.13995 0
M  V30 18070 C 1639.83 1.4542 5.68392 0
M  V30 18071 C 1642.18 1.87231 6.04258 0
M  V30 18072 C 1640.84 2.17227 6.31164 0
M  V30 18073 H 1640.11 -0.157749 0.724014 0
M  V30 18074 H 1642.76 0.304094 1.8907 0
M  V30 18075 H 1641.07 -1.73774 3.51155 0
M  V30 18076 H 1642.76 -1.42586 3.74794 0
M  V30 18077 H 1639.35 -0.0965514 4.28491 0
M  V30 18078 H 1643.54 0.650612 4.92017 0
M  V30 18079 H 1638.79 1.69241 5.8751 0
M  V30 18080 H 1642.97 2.43675 6.52377 0
M  V30 18081 H 1640.59 2.96366 7.00051 0
M  V30 18082 N 1642.17 -1.57451 -0.0684915 0
M  V30 18083 C 1643.42 -1.86595 -0.765856 0
M  V30 18084 C 1643.73 -0.798157 -1.78574 0
M  V30 18085 O 1644.94 -0.977541 -2.53291 0
M  V30 18086 C 1643.39 -3.31001 -1.41302 0
M  V30 18087 C 1643 -4.45917 -0.431528 0
M  V30 18088 C 1644.75 -3.6934 -2.09256 0
M  V30 18089 C 1642.65 -5.81366 -1.08479 0
M  V30 18090 H 1641.58 -0.696092 -0.289778 0
M  V30 18091 H 1644.23 -1.8349 -0.0192171 0
M  V30 18092 H 1642.62 -3.28728 -2.20803 0
M  V30 18093 H 1643.79 -4.59589 0.333913 0
M  V30 18094 H 1642.1 -4.16152 0.143743 0
M  V30 18095 H 1644.7 -4.67833 -2.58913 0
M  V30 18096 H 1645.04 -2.99308 -2.89344 0
M  V30 18097 H 1645.58 -3.73618 -1.36581 0
M  V30 18098 H 1642.32 -6.54698 -0.324162 0
M  V30 18099 H 1641.84 -5.71488 -1.82102 0
M  V30 18100 H 1643.52 -6.26811 -1.60367 0
M  V30 18101 N 1643.65 0.339955 -1.5389 0
M  V30 18102 C 1644.61 1.40058 -1.81429 0
M  V30 18103 C 1645.61 1.45458 -0.685463 0
M  V30 18104 O 1646.8 1.45771 -0.953754 0
M  V30 18105 C 1643.93 2.78952 -1.95955 0
M  V30 18106 H 1645.13 1.16902 -2.76178 0
M  V30 18107 H 1642.68 0.574543 -1.45357 0
M  V30 18108 H 1643.41 3.07387 -1.03361 0
M  V30 18109 H 1643.2 2.76429 -2.78082 0
M  V30 18110 H 1644.69 3.55713 -2.18765 0
M  V30 18111 N 1645.13 1.45684 0.601159 0
M  V30 18112 C 1646.37 1.50258 1.362 0
M  V30 18113 C 1646.7 0.146358 1.93648 0
M  V30 18114 O 1645.98 -0.839985 1.75427 0
M  V30 18115 C 1646.26 2.5868 2.50513 0
M  V30 18116 C 1646.12 4.03769 1.98219 0
M  V30 18117 C 1647.43 2.63332 3.52624 0
M  V30 18118 H 1644.55 0.547045 0.493873 0
M  V30 18119 H 1647.2 1.77527 0.677068 0
M  V30 18120 H 1645.35 2.35559 3.08941 0
M  V30 18121 H 1647.02 4.3812 1.44391 0
M  V30 18122 H 1645.26 4.14121 1.29174 0
M  V30 18123 H 1645.93 4.75329 2.80653 0
M  V30 18124 H 1648.41 2.84067 3.04048 0
M  V30 18125 H 1647.28 3.41047 4.30091 0
M  V30 18126 H 1647.54 1.68668 4.0866 0
M  V30 18127 N 1646.6 -0.84422 1.33082 0
M  V30 18128 C 1647.83 -1.63133 1.27261 0
M  V30 18129 C 1648.25 -1.88142 -0.157479 0
M  V30 18130 O 1647.6 -1.4578 -1.09793 0
M  V30 18131 C 1647.65 -2.98462 2.03967 0
M  V30 18132 O 1647.38 -2.74555 3.41396 0
M  V30 18133 C 1648.88 -3.92899 2.05293 0
M  V30 18134 H 1646.1 -0.507769 0.438647 0
M  V30 18135 H 1648.64 -1.05194 1.75369 0
M  V30 18136 H 1646.8 -3.53017 1.59554 0
M  V30 18137 H 1647.21 -3.60694 3.80789 0
M  V30 18138 H 1648.68 -4.85088 2.63427 0
M  V30 18139 H 1649.16 -4.26665 1.04183 0
M  V30 18140 H 1649.77 -3.44281 2.49701 0
M  V30 18141 N 1648.08 -1.16463 -1.0618 0
M  V30 18142 C 1649.33 -0.946846 -1.79 0
M  V30 18143 C 1649.66 0.525259 -1.87273 0
M  V30 18144 O 1648.91 1.40584 -1.36142 0
M  V30 18145 C 1649.21 -1.52085 -3.23427 0
M  V30 18146 C 1648.88 -3.01547 -3.35232 0
M  V30 18147 C 1647.54 -3.42346 -3.38161 0
M  V30 18148 C 1649.89 -3.97543 -3.37059 0
M  V30 18149 C 1647.22 -4.77759 -3.40534 0
M  V30 18150 C 1649.57 -5.32843 -3.4097 0
M  V30 18151 C 1648.23 -5.73121 -3.42182 0
M  V30 18152 H 1647.5 -0.346475 -0.655008 0
M  V30 18153 H 1650.15 -1.45195 -1.24862 0
M  V30 18154 H 1648.46 -0.937212 -3.80426 0
M  V30 18155 H 1650.15 -1.32801 -3.78371 0
M  V30 18156 H 1646.74 -2.69017 -3.33658 0
M  V30 18157 H 1650.93 -3.67088 -3.34006 0
M  V30 18158 H 1646.18 -5.08293 -3.39777 0
M  V30 18159 H 1650.36 -6.07014 -3.41332 0
M  V30 18160 H 1647.98 -6.78029 -3.43774 0
M  V30 18161 N 1649.56 1.24734 -0.963288 0
M  V30 18162 C 1650.81 1.91987 -0.618386 0
M  V30 18163 C 1651.12 1.76179 0.849726 0
M  V30 18164 O 1652.33 2.38082 1.30496 0
M  V30 18165 C 1650.78 3.44079 -1.05534 0
M  V30 18166 C 1650.39 3.68582 -2.5466 0
M  V30 18167 C 1652.14 4.17209 -0.783378 0
M  V30 18168 C 1650.04 5.14223 -2.92111 0
M  V30 18169 H 1648.97 0.718836 -0.227575 0
M  V30 18170 H 1651.62 1.41453 -1.1689 0
M  V30 18171 H 1650.01 3.93624 -0.433168 0
M  V30 18172 H 1651.18 3.29655 -3.2197 0
M  V30 18173 H 1649.49 3.08729 -2.79419 0
M  V30 18174 H 1652.09 5.24503 -1.03924 0
M  V30 18175 H 1652.43 4.15355 0.280352 0
M  V30 18176 H 1652.97 3.736 -1.36631 0
M  V30 18177 H 1649.71 5.21195 -3.97537 0
M  V30 18178 H 1649.23 5.54164 -2.29482 0
M  V30 18179 H 1650.91 5.82419 -2.81775 0
M  V30 18180 N 1651.04 0.732878 1.39523 0
M  V30 18181 C 1652.26 0.288717 2.05381 0
M  V30 18182 C 1652.69 -1.06727 1.5489 0
M  V30 18183 O 1652.05 -1.67585 0.691726 0
M  V30 18184 C 1652.09 0.297738 3.59369 0
M  V30 18185 O 1651.2 -0.715335 4.06149 0
M  V30 18186 H 1650.54 0.131696 0.650809 0
M  V30 18187 H 1653.07 0.998206 1.78597 0
M  V30 18188 H 1653.08 0.141391 4.07755 0
M  V30 18189 H 1651.75 1.28719 3.9548 0
M  V30 18190 H 1650.33 -0.525298 3.69182 0
M  V30 18191 N 1652.52 -1.50101 0.480349 0
M  V30 18192 C 1653.76 -2.01567 -0.073165 0
M  V30 18193 C 1654.08 -1.36657 -1.39944 0
M  V30 18194 O 1655.28 -1.79332 -2.03844 0
M  V30 18195 C 1653.74 -3.59445 -0.180889 0
M  V30 18196 C 1653.35 -4.33318 1.1375 0
M  V30 18197 C 1655.09 -4.18923 -0.685868 0
M  V30 18198 C 1653 -5.83003 0.99307 0
M  V30 18199 H 1651.93 -0.753358 -0.0311179 0
M  V30 18200 H 1654.58 -1.72829 0.616648 0
M  V30 18201 H 1652.96 -3.84811 -0.934693 0
M  V30 18202 H 1654.14 -4.1967 1.90299 0
M  V30 18203 H 1652.45 -3.85492 1.57431 0
M  V30 18204 H 1655.05 -5.28512 -0.811109 0
M  V30 18205 H 1655.39 -3.80916 -1.67955 0
M  V30 18206 H 1655.92 -3.97799 0.0108117 0
M  V30 18207 H 1652.66 -6.25499 1.9604 0
M  V30 18208 H 1652.18 -5.992 0.268128 0
M  V30 18209 H 1653.86 -6.4359 0.663417 0
M  V30 18210 N 1653.99 -0.213323 -1.5615 0
M  V30 18211 C 1654.92 0.695003 -2.22917 0
M  V30 18212 C 1655.9 1.20738 -1.19818 0
M  V30 18213 O 1657.09 1.25289 -1.48379 0
M  V30 18214 C 1654.22 1.90685 -2.9027 0
M  V30 18215 C 1653.17 1.52865 -3.9977 0
M  V30 18216 C 1652.5 2.81859 -4.54378 0
M  V30 18217 C 1653.8 0.724829 -5.17246 0
M  V30 18218 H 1655.49 0.138351 -2.9908 0
M  V30 18219 H 1653.04 0.0651029 -1.43853 0
M  V30 18220 H 1654.99 2.54766 -3.35667 0
M  V30 18221 H 1653.72 2.48833 -2.11541 0
M  V30 18222 H 1652.38 0.911336 -3.55092 0
M  V30 18223 H 1652.02 3.38135 -3.72389 0
M  V30 18224 H 1651.72 2.57291 -5.28275 0
M  V30 18225 H 1653.25 3.46897 -5.02489 0
M  V30 18226 H 1654.66 1.26915 -5.59076 0
M  V30 18227 H 1653.06 0.57656 -5.97324 0
M  V30 18228 H 1654.13 -0.270309 -4.84146 0
M  V30 18229 N 1655.47 1.57485 0.0601405 0
M  V30 18230 C 1656.7 1.92051 0.769681 0
M  V30 18231 C 1657.12 0.810364 1.70524 0
M  V30 18232 O 1656.47 -0.215527 1.81223 0
M  V30 18233 C 1656.52 3.26423 1.55339 0
M  V30 18234 O 1656.24 4.3317 0.655423 0
M  V30 18235 C 1657.75 3.75076 2.36289 0
M  V30 18236 H 1654.97 0.63454 0.218175 0
M  V30 18237 H 1657.51 2.04482 0.0269308 0
M  V30 18238 H 1655.66 3.15483 2.24831 0
M  V30 18239 H 1656.08 5.10548 1.20171 0
M  V30 18240 H 1657.55 4.71695 2.86719 0
M  V30 18241 H 1658.03 3.04677 3.16336 0
M  V30 18242 H 1658.64 3.88998 1.71932 0
M  V30 18243 N 1656.95 -0.331789 1.54068 0
M  V30 18244 C 1658.18 -1.09044 1.75832 0
M  V30 18245 C 1658.59 -1.81976 0.503012 0
M  V30 18246 O 1657.95 -1.74758 -0.525913 0
M  V30 18247 C 1658 -2.09489 2.94613 0
M  V30 18248 O 1657.72 -1.39521 4.1529 0
M  V30 18249 C 1659.22 -2.97637 3.28522 0
M  V30 18250 H 1656.44 -0.324701 0.587205 0
M  V30 18251 H 1658.99 -0.380417 2.00931 0
M  V30 18252 H 1657.14 -2.76038 2.71812 0
M  V30 18253 H 1657.56 -2.06717 4.82046 0
M  V30 18254 H 1659.03 -3.64027 4.14956 0
M  V30 18255 H 1659.51 -3.64292 2.45332 0
M  V30 18256 H 1660.11 -2.3666 3.53372 0
M  V30 18257 N 1658.43 -1.46001 -0.593424 0
M  V30 18258 C 1659.68 -1.50457 -1.34933 0
M  V30 18259 C 1660 -0.153383 -1.94396 0
M  V30 18260 O 1659.27 0.818894 -1.77963 0
M  V30 18261 H 1657.85 -0.554119 -0.50096 0
M  V30 18262 H 1660.51 -1.82057 -0.695798 0
M  V30 18263 H 1659.61 -2.25131 -2.16154 0
M  V30 18264 N 1659.91 0.83715 -1.33527 0
M  V30 18265 C 1660.82 1.97915 -1.25964 0
M  V30 18266 C 1661.83 1.73169 -0.169894 0
M  V30 18267 O 1663.01 1.97513 -0.393793 0
M  V30 18268 C 1660.07 3.31945 -1.00068 0
M  V30 18269 C 1659.13 3.69795 -2.1806 0
M  V30 18270 C 1658.37 4.97429 -1.9339 0
M  V30 18271 O 1658.59 5.63492 -0.885069 0
M  V30 18272 O 1657.52 5.32823 -2.79969 0
M  V30 18273 H 1661.35 2.07236 -2.22007 0
M  V30 18274 H 1658.94 0.970437 -1.13591 0
M  V30 18275 H 1660.82 4.12248 -0.873487 0
M  V30 18276 H 1659.49 3.23623 -0.0705475 0
M  V30 18277 H 1658.4 2.89995 -2.36334 0
M  V30 18278 H 1659.73 3.82784 -3.09414 0
M  V30 18279 N 1661.38 1.17024 1.05561 0
M  V30 18280 C 1662.63 0.954436 1.78143 0
M  V30 18281 C 1662.95 -0.518525 1.8798 0
M  V30 18282 O 1662.22 -1.37654 1.39385 0
M  V30 18283 H 1660.8 0.350141 0.659856 0
M  V30 18284 H 1663.47 1.4743 1.27477 0
M  V30 18285 H 1662.56 1.37955 2.79955 0
M  V30 18286 N 1662.86 -1.24221 0.969889 0
M  V30 18287 C 1663.77 -2.29001 0.509467 0
M  V30 18288 C 1664.79 -1.68587 -0.430637 0
M  V30 18289 O 1665.96 -1.99106 -0.303142 0
M  V30 18290 C 1663.03 -3.46174 -0.190906 0
M  V30 18291 C 1662.09 -4.21982 0.789296 0
M  V30 18292 C 1661.32 -5.3356 0.122252 0
M  V30 18293 O 1661.55 -5.59909 -1.08896 0
M  V30 18294 O 1660.48 -5.9635 0.815517 0
M  V30 18295 H 1664.31 -2.70506 1.38058 0
M  V30 18296 H 1661.89 -1.29955 0.737028 0
M  V30 18297 H 1663.77 -4.1733 -0.584244 0
M  V30 18298 H 1662.45 -3.06642 -1.03695 0
M  V30 18299 H 1661.36 -3.53192 1.23313 0
M  V30 18300 H 1662.69 -4.65337 1.60382 0
M  V30 18301 N 1664.34 -0.740267 -1.39132 0
M  V30 18302 C 1665.59 -0.289949 -2.00009 0
M  V30 18303 C 1665.91 1.12831 -1.59042 0
M  V30 18304 O 1665.18 1.76926 -0.841076 0
M  V30 18305 H 1663.76 -0.104213 -0.739695 0
M  V30 18306 H 1666.42 -0.951398 -1.70101 0
M  V30 18307 H 1665.52 -0.342509 -3.10215 0
M  V30 18308 N 1665.82 1.49844 -0.488302 0
M  V30 18309 C 1667.23 1.58954 -0.14348 0
M  V30 18310 C 1667.43 1.49482 1.3512 0
M  V30 18311 O 1666.49 1.36218 2.12605 0
M  V30 18312 C 1667.8 2.92222 -0.708991 0
M  V30 18313 C 1669.35 3.05658 -0.673957 0
M  V30 18314 C 1669.83 4.41526 -1.21731 0
M  V30 18315 N 1671.32 4.47985 -1.17746 0
M  V30 18316 C 1672.05 5.51539 -1.5682 0
M  V30 18317 N 1671.55 6.62261 -2.03426 0
M  V30 18318 N 1673.34 5.4218 -1.48315 0
M  V30 18319 H 1665.49 1.54244 -1.46022 0
M  V30 18320 H 1667.76 0.72992 -0.604914 0
M  V30 18321 H 1667.46 3.04683 -1.75674 0
M  V30 18322 H 1667.34 3.76851 -0.162226 0
M  V30 18323 H 1669.72 2.92835 0.364925 0
M  V30 18324 H 1669.8 2.22744 -1.25772 0
M  V30 18325 H 1669.45 4.551 -2.25491 0
M  V30 18326 H 1669.38 5.2306 -0.609598 0
M  V30 18327 H 1671.87 3.68541 -0.835828 0
M  V30 18328 H 1672.18 7.3736 -2.31345 0
M  V30 18329 H 1670.53 6.63335 -2.07392 0
M  V30 18330 H 1673.72 4.54569 -1.11733 0
M  V30 18331 H 1673.89 6.2276 -1.79092 0
M  V30 18332 N 1667.3 0.221601 1.56034 0
M  V30 18333 C 1668.54 -0.410695 1.98598 0
M  V30 18334 C 1668.88 -1.59412 1.10912 0
M  V30 18335 O 1668.15 -1.93783 0.166819 0
M  V30 18336 C 1668.43 -0.845199 3.50041 0
M  V30 18337 C 1668.29 0.341866 4.48499 0
M  V30 18338 C 1669.61 -1.70135 4.05884 0
M  V30 18339 H 1666.72 -0.147808 0.722026 0
M  V30 18340 H 1669.37 0.317846 1.87323 0
M  V30 18341 H 1667.52 -1.46597 3.5978 0
M  V30 18342 H 1669.19 0.980014 4.5077 0
M  V30 18343 H 1667.43 0.989294 4.22369 0
M  V30 18344 H 1668.1 -0.00509234 5.52 0
M  V30 18345 H 1670.58 -1.17757 3.9909 0
M  V30 18346 H 1669.45 -1.97427 5.12166 0
M  V30 18347 H 1669.72 -2.66469 3.5277 0
M  V30 18348 N 1668.77 -1.57515 -0.0517878 0
M  V30 18349 C 1670.02 -1.87843 -0.745624 0
M  V30 18350 C 1670.34 -0.816318 -1.77091 0
M  V30 18351 O 1669.61 0.152784 -1.95303 0
M  V30 18352 H 1668.19 -0.693194 -0.278372 0
M  V30 18353 H 1670.86 -1.94886 -0.0231267 0
M  V30 18354 H 1669.95 -2.86001 -1.2494 0
M  V30 18355 N 1670.25 0.323614 -1.54242 0
M  V30 18356 C 1671.5 1.05909 -1.71657 0
M  V30 18357 C 1671.82 1.89177 -0.497151 0
M  V30 18358 O 1673.02 2.65816 -0.552649 0
M  V30 18359 C 1671.48 1.93246 -3.03618 0
M  V30 18360 C 1671.09 1.1509 -4.32965 0
M  V30 18361 C 1672.83 2.6653 -3.30397 0
M  V30 18362 C 1670.74 2.01573 -5.55988 0
M  V30 18363 H 1669.67 0.399114 -0.639706 0
M  V30 18364 H 1672.32 0.317338 -1.80735 0
M  V30 18365 H 1670.7 2.71319 -2.88447 0
M  V30 18366 H 1671.87 0.417877 -4.58901 0
M  V30 18367 H 1670.19 0.534882 -4.1295 0
M  V30 18368 H 1672.79 3.31542 -4.19504 0
M  V30 18369 H 1673.13 3.34164 -2.48274 0
M  V30 18370 H 1673.66 1.95518 -3.46435 0
M  V30 18371 H 1670.4 1.38446 -6.40713 0
M  V30 18372 H 1669.92 2.72609 -5.3427 0
M  V30 18373 H 1671.6 2.60159 -5.9239 0
M  V30 18374 N 1671.73 1.46313 0.585673 0
M  V30 18375 C 1672.98 1.50738 1.34019 0
M  V30 18376 C 1673.29 0.162245 1.94926 0
M  V30 18377 O 1674.5 0.0842676 2.71369 0
M  V30 18378 C 1672.96 2.65592 2.42876 0
M  V30 18379 C 1672.56 4.06513 1.88285 0
M  V30 18380 C 1674.31 2.79284 3.19689 0
M  V30 18381 C 1672.21 5.12712 2.94754 0
M  V30 18382 H 1671.14 0.560979 0.503804 0
M  V30 18383 H 1673.8 1.72516 0.625344 0
M  V30 18384 H 1672.18 2.37138 3.17146 0
M  V30 18385 H 1673.35 4.44744 1.20578 0
M  V30 18386 H 1671.67 3.97462 1.2415 0
M  V30 18387 H 1674.26 3.55795 3.99142 0
M  V30 18388 H 1674.61 1.86694 3.7209 0
M  V30 18389 H 1675.14 3.0737 2.52525 0
M  V30 18390 H 1671.88 6.07084 2.47244 0
M  V30 18391 H 1671.4 4.79028 3.6096 0
M  V30 18392 H 1673.08 5.38426 3.58757 0
M  V30 18393 N 1673.21 -0.830057 1.33969 0
M  V30 18394 C 1674.14 -1.95557 1.27592 0
M  V30 18395 C 1675.12 -1.69395 0.154745 0
M  V30 18396 O 1676.31 -1.91094 0.345954 0
M  V30 18397 C 1673.44 -3.31881 1.02335 0
M  V30 18398 C 1672.39 -3.72464 2.10842 0
M  V30 18399 C 1671.72 -5.06692 1.70785 0
M  V30 18400 C 1673.02 -3.85315 3.52604 0
M  V30 18401 H 1674.71 -2.0115 2.21763 0
M  V30 18402 H 1672.26 -0.96639 1.06756 0
M  V30 18403 H 1674.21 -4.10197 0.965206 0
M  V30 18404 H 1672.93 -3.26568 0.0460462 0
M  V30 18405 H 1671.59 -2.96417 2.15714 0
M  V30 18406 H 1671.24 -4.97859 0.717334 0
M  V30 18407 H 1670.94 -5.34817 2.43403 0
M  V30 18408 H 1672.46 -5.87474 1.66452 0
M  V30 18409 H 1673.88 -4.5392 3.50185 0
M  V30 18410 H 1672.27 -4.24886 4.23783 0
M  V30 18411 H 1673.34 -2.87514 3.90466 0
M  V30 18412 N 1674.69 -1.17582 -1.04939 0
M  V30 18413 C 1675.92 -0.990398 -1.81656 0
M  V30 18414 C 1676.33 0.461324 -1.83077 0
M  V30 18415 O 1675.69 1.32037 -1.25986 0
M  V30 18416 C 1675.74 -1.52719 -3.27657 0
M  V30 18417 O 1675.46 -2.92206 -3.26415 0
M  V30 18418 C 1676.96 -1.38671 -4.21053 0
M  V30 18419 H 1674.18 -0.35024 -0.57234 0
M  V30 18420 H 1676.72 -1.5593 -1.32311 0
M  V30 18421 H 1674.88 -1.00026 -3.74264 0
M  V30 18422 H 1675.29 -3.17068 -4.17814 0
M  V30 18423 H 1676.77 -1.8104 -5.21468 0
M  V30 18424 H 1677.24 -0.334151 -4.37927 0
M  V30 18425 H 1677.85 -1.90393 -3.80303 0
M  V30 18426 N 1676.17 1.23705 -0.976463 0
M  V30 18427 C 1677.1 2.2734 -0.532809 0
M  V30 18428 C 1678.08 1.64523 0.432012 0
M  V30 18429 O 1679.26 1.9144 0.326233 0
M  V30 18430 C 1676.39 3.46887 0.169374 0
M  V30 18431 C 1675.35 4.22031 -0.712336 0
M  V30 18432 C 1674.67 5.34561 0.121838 0
M  V30 18433 C 1675.97 4.8244 -2.00123 0
M  V30 18434 H 1677.67 2.64702 -1.39904 0
M  V30 18435 H 1675.21 1.27244 -0.674156 0
M  V30 18436 H 1677.16 4.18529 0.491028 0
M  V30 18437 H 1675.89 3.08574 1.07002 0
M  V30 18438 H 1674.55 3.522 -1.01739 0
M  V30 18439 H 1674.2 4.92489 1.0229 0
M  V30 18440 H 1673.9 5.85758 -0.464962 0
M  V30 18441 H 1675.42 6.09027 0.437963 0
M  V30 18442 H 1676.83 5.46111 -1.7446 0
M  V30 18443 H 1675.23 5.43906 -2.53548 0
M  V30 18444 H 1676.3 4.03405 -2.69059 0
M  V30 18445 N 1677.64 0.747635 1.38738 0
M  V30 18446 C 1678.61 0.124321 2.28863 0
M  V30 18447 C 1679.61 -0.653816 1.46908 0
M  V30 18448 O 1680.8 -0.480963 1.67429 0
M  V30 18449 C 1677.93 -0.832601 3.30576 0
M  V30 18450 H 1679.12 0.918492 2.85489 0
M  V30 18451 H 1676.67 0.514262 1.47598 0
M  V30 18452 H 1677.41 -1.65267 2.79029 0
M  V30 18453 H 1677.19 -0.277109 3.9112 0
M  V30 18454 H 1678.68 -1.2649 3.97982 0
M  V30 18455 N 1679.12 -1.49583 0.496242 0
M  V30 18456 C 1680.05 -2.25783 -0.331257 0
M  V30 18457 C 1681.03 -1.3016 -0.974526 0
M  V30 18458 O 1682.22 -1.59439 -1.00556 0
M  V30 18459 C 1679.34 -3.05323 -1.46614 0
M  V30 18460 C 1678.39 -4.16064 -0.937722 0
M  V30 18461 S 1679.22 -5.35237 0.167715 0
M  V30 18462 C 1680.38 -6.18331 -0.970443 0
M  V30 18463 H 1680.61 -2.95621 0.315507 0
M  V30 18464 H 1678.14 -1.51813 0.28147 0
M  V30 18465 H 1680.1 -3.51735 -2.11642 0
M  V30 18466 H 1678.76 -2.34963 -2.0845 0
M  V30 18467 H 1677.96 -4.71215 -1.78808 0
M  V30 18468 H 1677.56 -3.72217 -0.364726 0
M  V30 18469 H 1679.85 -6.50988 -1.87671 0
M  V30 18470 H 1680.79 -7.0662 -0.457649 0
M  V30 18471 H 1681.2 -5.50811 -1.23563 0
M  V30 18472 N 1680.6 -0.229873 -1.55915 0
M  V30 18473 C 1681.55 0.693198 -2.2203 0
M  V30 18474 C 1682.54 1.1933 -1.20236 0
M  V30 18475 O 1683.75 1.15217 -1.38294 0
M  V30 18476 H 1680.12 0.241986 -0.712002 0
M  V30 18477 H 1682.09 0.112229 -2.98189 0
M  V30 18478 C 1680.84 1.88688 -2.92048 0
M  V30 18479 H 1680.17 1.51119 -3.70139 0
M  V30 18480 H 1681.61 2.51036 -3.41697 0
M  V30 18481 C 1680.06 2.74747 -1.94976 0
M  V30 18482 O 1680.59 3.73759 -1.47198 0
M  V30 18483 N 1678.8 2.40956 -1.62445 0
M  V30 18484 H 1678.35 1.60494 -2.01493 0
M  V30 18485 H 1678.31 2.98816 -0.977581 0
M  V30 18486 N 1682.08 1.5754 0.0434337 0
M  V30 18487 C 1683.33 1.87789 0.736074 0
M  V30 18488 C 1683.64 0.826466 1.77282 0
M  V30 18489 O 1684.85 1.01771 2.51704 0
M  V30 18490 C 1683.3 3.33207 1.36018 0
M  V30 18491 C 1682.91 4.46547 0.360532 0
M  V30 18492 C 1684.65 3.72623 2.03353 0
M  V30 18493 C 1682.56 5.83018 0.992167 0
M  V30 18494 H 1681.49 0.700614 0.278667 0
M  V30 18495 H 1684.14 1.83497 -0.00997697 0
M  V30 18496 H 1682.52 3.32199 2.15546 0
M  V30 18497 H 1683.7 4.58999 -0.406987 0
M  V30 18498 H 1682.01 4.1587 -0.209931 0
M  V30 18499 H 1684.61 4.71893 2.51437 0
M  V30 18500 H 1684.95 3.03874 2.84546 0
M  V30 18501 H 1685.49 3.75744 1.3062 0
M  V30 18502 H 1682.22 6.55131 0.219964 0
M  V30 18503 H 1681.74 5.74313 1.72987 0
M  V30 18504 H 1683.42 6.29283 1.50374 0
M  V30 18505 N 1683.56 -0.31543 1.54411 0
M  V30 18506 C 1684.49 -1.41263 1.79221 0
M  V30 18507 C 1685.47 -1.49363 0.642601 0
M  V30 18508 O 1686.65 -1.66648 0.880953 0
M  V30 18509 C 1683.78 -2.79294 1.91605 0
M  V30 18510 C 1682.82 -2.88686 3.13946 0
M  V30 18511 S 1683.66 -2.52259 4.72362 0
M  V30 18512 C 1684.81 -3.92347 4.87663 0
M  V30 18513 H 1685.05 -1.20006 2.72003 0
M  V30 18514 H 1682.58 -0.51273 1.45638 0
M  V30 18515 H 1684.54 -3.58803 1.99425 0
M  V30 18516 H 1683.2 -2.97828 0.997857 0
M  V30 18517 H 1682.39 -3.89896 3.1937 0
M  V30 18518 H 1681.99 -2.17157 3.04498 0
M  V30 18519 H 1684.28 -4.8719 4.70799 0
M  V30 18520 H 1685.23 -3.91901 5.89762 0
M  V30 18521 H 1685.64 -3.81679 4.1591 0
M  V30 18522 N 1685.03 -1.46622 -0.577906 0
M  V30 18523 C 1686.26 -1.56 -1.36671 0
M  V30 18524 C 1686.68 -0.2034 -1.86997 0
M  V30 18525 O 1686.04 0.817288 -1.61834 0
M  V30 18526 C 1686.09 -2.57254 -2.52691 0
M  V30 18527 O 1685.19 -2.1109 -3.54281 0
M  V30 18528 H 1684.54 -0.524779 -0.406821 0
M  V30 18529 H 1687.07 -1.92234 -0.700512 0
M  V30 18530 H 1687.08 -2.77016 -2.99543 0
M  V30 18531 H 1685.75 -3.55766 -2.15415 0
M  V30 18532 H 1684.33 -2.01337 -3.13875 0
M  V30 18533 N 1686.51 0.822941 -1.34408 0
M  V30 18534 C 1687.74 1.61087 -1.2984 0
M  V30 18535 C 1688.16 1.88369 0.127527 0
M  V30 18536 O 1687.51 1.47508 1.0746 0
M  V30 18537 C 1687.56 2.9518 -2.08689 0
M  V30 18538 O 1687.28 2.69089 -3.45721 0
M  V30 18539 C 1688.79 3.89583 -2.11518 0
M  V30 18540 H 1686.01 0.500726 -0.44667 0
M  V30 18541 H 1688.55 1.02391 -1.77021 0
M  V30 18542 H 1686.7 3.50434 -1.6515 0
M  V30 18543 H 1687.12 3.5459 -3.86479 0
M  V30 18544 H 1688.59 4.80835 -2.71111 0
M  V30 18545 H 1689.07 4.24953 -1.10957 0
M  V30 18546 H 1689.68 3.40265 -2.55146 0
M  V30 18547 N 1687.99 1.18137 1.04314 0
M  V30 18548 C 1688.92 0.929593 2.14198 0
M  V30 18549 C 1689.9 -0.131766 1.69589 0
M  V30 18550 O 1691.09 0.0203104 1.94189 0
M  V30 18551 C 1688.22 0.451799 3.44349 0
M  V30 18552 C 1687.17 1.45336 4.02569 0
M  V30 18553 C 1686.5 0.833176 5.28169 0
M  V30 18554 C 1687.8 2.8293 4.39031 0
M  V30 18555 H 1689.49 1.84856 2.35518 0
M  V30 18556 H 1687.04 0.890217 1.13186 0
M  V30 18557 H 1688.99 0.26303 4.20578 0
M  V30 18558 H 1687.71 -0.502725 3.22708 0
M  V30 18559 H 1686.37 1.62902 3.28418 0
M  V30 18560 H 1686.02 -0.128459 5.02836 0
M  V30 18561 H 1685.72 1.50185 5.68083 0
M  V30 18562 H 1687.24 0.654881 6.07078 0
M  V30 18563 H 1688.66 2.6903 5.06257 0
M  V30 18564 H 1687.06 3.46458 4.89987 0
M  V30 18565 H 1688.13 3.3667 3.48972 0
M  V30 18566 N 1689.47 -1.23186 0.98301 0
M  V30 18567 C 1690.4 -2.24044 0.483426 0
M  V30 18568 C 1691.41 -1.57392 -0.416143 0
M  V30 18569 O 1692.6 -1.77141 -0.219861 0
M  V30 18570 C 1689.7 -3.37388 -0.319733 0
M  V30 18571 C 1688.88 -4.33623 0.57359 0
M  V30 18572 C 1687.93 -5.25905 -0.176165 0
M  V30 18573 O 1686.96 -5.67535 0.435099 0
M  V30 18574 N 1688.16 -5.61804 -1.46139 0
M  V30 18575 H 1690.93 -2.67539 1.35066 0
M  V30 18576 H 1688.49 -1.37384 0.856579 0
M  V30 18577 H 1690.48 -3.96103 -0.829719 0
M  V30 18578 H 1689.05 -2.93056 -1.08799 0
M  V30 18579 H 1688.27 -3.73373 1.26437 0
M  V30 18580 H 1689.56 -4.94873 1.18231 0
M  V30 18581 H 1688.96 -5.29936 -1.97949 0
M  V30 18582 H 1687.51 -6.22979 -1.91676 0
M  V30 18583 N 1690.95 -0.754982 -1.38339 0
M  V30 18584 C 1692.19 -0.321184 -2.00848 0
M  V30 18585 C 1692.55 1.08546 -1.58857 0
M  V30 18586 O 1691.84 1.7332 -0.816737 0
M  V30 18587 C 1692.03 -0.383719 -3.55334 0
M  V30 18588 C 1691.86 -1.7949 -4.12327 0
M  V30 18589 C 1690.63 -2.41176 -4.4403 0
M  V30 18590 C 1692.83 -2.75178 -4.3449 0
M  V30 18591 N 1690.81 -3.74241 -4.86638 0
M  V30 18592 C 1692.18 -3.93011 -4.79523 0
M  V30 18593 C 1694.24 -2.72683 -4.16592 0
M  V30 18594 C 1692.94 -5.0871 -5.08534 0
M  V30 18595 C 1694.97 -3.87541 -4.46728 0
M  V30 18596 C 1694.33 -5.04112 -4.91986 0
M  V30 18597 H 1690.43 -0.164217 -0.764563 0
M  V30 18598 H 1693.01 -0.985233 -1.67932 0
M  V30 18599 H 1691.18 0.250068 -3.87594 0
M  V30 18600 H 1692.92 0.0705302 -4.04639 0
M  V30 18601 H 1689.67 -1.9293 -4.32522 0
M  V30 18602 H 1690.1 -4.4261 -5.12275 0
M  V30 18603 H 1694.74 -1.8374 -3.80788 0
M  V30 18604 H 1692.46 -5.98266 -5.43234 0
M  V30 18605 H 1696.04 -3.86931 -4.34483 0
M  V30 18606 H 1694.92 -5.91514 -5.1486 0
M  V30 18607 N 1692.42 1.49318 -0.504168 0
M  V30 18608 C 1693.39 2.27703 0.26157 0
M  V30 18609 C 1694.39 1.3385 0.891114 0
M  V30 18610 O 1695.58 1.56981 0.755156 0
M  V30 18611 C 1692.71 3.11912 1.37564 0
M  V30 18612 H 1693.9 2.96855 -0.426292 0
M  V30 18613 H 1691.46 1.54135 -0.259236 0
M  V30 18614 H 1692.19 2.47332 2.09755 0
M  V30 18615 H 1691.98 3.8092 0.929641 0
M  V30 18616 H 1693.47 3.71106 1.91494 0
M  V30 18617 N 1693.9 0.238138 1.5579 0
M  V30 18618 C 1695.15 -0.389608 1.99022 0
M  V30 18619 C 1695.48 -1.58226 1.12597 0
M  V30 18620 O 1694.76 -1.93595 0.187363 0
M  V30 18621 C 1695.04 -0.808025 3.50917 0
M  V30 18622 C 1694.89 0.389417 4.48111 0
M  V30 18623 C 1696.21 -1.6582 4.07666 0
M  V30 18624 H 1693.33 -0.140141 0.723553 0
M  V30 18625 H 1695.97 0.337696 1.86975 0
M  V30 18626 H 1694.12 -1.42772 3.61315 0
M  V30 18627 H 1695.79 1.02777 4.49705 0
M  V30 18628 H 1694.04 1.03404 4.21296 0
M  V30 18629 H 1694.71 0.0534549 5.51974 0
M  V30 18630 H 1697.18 -1.13518 4.00316 0
M  V30 18631 H 1696.06 -1.91984 5.14231 0
M  V30 18632 H 1696.32 -2.62712 3.55577 0
M  V30 18633 N 1695.38 -1.57561 -0.0350783 0
M  V30 18634 C 1696.33 -2.07246 -1.05602 0
M  V30 18635 C 1697.32 -0.985013 -1.37818 0
M  V30 18636 O 1698.53 -1.16993 -1.36794 0
M  V30 18637 H 1694.9 -0.661286 -0.358057 0
M  V30 18638 H 1696.87 -2.92075 -0.611124 0
M  V30 18639 C 1695.62 -2.56235 -2.3503 0
M  V30 18640 H 1694.95 -3.39525 -2.111 0
M  V30 18641 H 1696.39 -2.94716 -3.04826 0
M  V30 18642 C 1694.85 -1.46096 -3.03575 0
M  V30 18643 O 1695.38 -0.823772 -3.93163 0
M  V30 18644 N 1693.58 -1.19698 -2.64803 0
M  V30 18645 H 1693.13 -1.71697 -1.92036 0
M  V30 18646 H 1693.09 -0.462174 -3.10984 0
M  V30 18647 N 1696.86 0.307236 -1.54576 0
M  V30 18648 C 1698.08 1.06668 -1.77867 0
M  V30 18649 C 1698.51 1.80375 -0.533536 0
M  V30 18650 O 1697.87 1.73812 0.515663 0
M  V30 18651 C 1697.91 2.02777 -2.98184 0
M  V30 18652 O 1697.02 3.10969 -2.70872 0
M  V30 18653 H 1696.36 0.306741 -0.588902 0
M  V30 18654 H 1698.89 0.346557 -2.01644 0
M  V30 18655 H 1698.9 2.45355 -3.25983 0
M  V30 18656 H 1697.57 1.48534 -3.88472 0
M  V30 18657 H 1696.15 2.7295 -2.54072 0
M  V30 18658 N 1698.34 1.46926 0.570122 0
M  V30 18659 C 1699.56 1.56722 1.35841 0
M  V30 18660 C 1699.99 0.213314 1.86887 0
M  V30 18661 O 1699.34 -0.808694 1.62265 0
M  V30 18662 C 1699.39 2.5859 2.51323 0
M  V30 18663 O 1698.5 2.12966 3.53156 0
M  V30 18664 H 1697.84 0.526929 0.404032 0
M  V30 18665 H 1700.37 1.92603 0.690308 0
M  V30 18666 H 1700.38 2.78601 2.9807 0
M  V30 18667 H 1699.05 3.56903 2.13525 0
M  V30 18668 H 1697.63 2.02999 3.12803 0
M  V30 18669 N 1699.82 -0.815801 1.34842 0
M  V30 18670 C 1701.06 -1.56747 1.26938 0
M  V30 18671 C 1701.38 -1.9497 -0.156887 0
M  V30 18672 O 1702.58 -2.69128 -0.358132 0
M  V30 18673 C 1701.04 -2.82832 2.22562 0
M  V30 18674 C 1700.65 -2.51883 3.70485 0
M  V30 18675 C 1702.39 -3.60849 2.23581 0
M  V30 18676 C 1700.3 -3.74204 4.57957 0
M  V30 18677 H 1699.23 -0.58832 0.471588 0
M  V30 18678 H 1701.88 -0.897551 1.60051 0
M  V30 18679 H 1700.26 -3.51486 1.8241 0
M  V30 18680 H 1701.44 -1.91294 4.19217 0
M  V30 18681 H 1699.75 -1.87129 3.71983 0
M  V30 18682 H 1702.35 -4.51686 2.86154 0
M  V30 18683 H 1702.69 -3.97496 1.23703 0
M  V30 18684 H 1703.22 -2.99146 2.62215 0
M  V30 18685 H 1699.96 -3.42672 5.58799 0
M  V30 18686 H 1699.48 -4.34051 4.13956 0
M  V30 18687 H 1701.16 -4.41536 4.72921 0
M  V30 18688 N 1701.29 -1.18689 -1.03686 0
M  V30 18689 C 1702.57 -0.89414 -1.73967 0
M  V30 18690 C 1702.95 0.602104 -2.02331 0
M  V30 18691 O 1702.3 1.55794 -1.67154 0
M  V30 18692 C 1702.51 -1.74549 -3.02214 0
M  V30 18693 C 1703.86 -1.97487 -3.75878 0
M  V30 18694 O 1704.88 -1.71634 -3.12122 0
M  V30 18695 O 1703.74 -2.41031 -4.90476 0
M  V30 18696 H 1700.83 -0.332501 -0.757213 0
M  V30 18697 H 1703.38 -1.29461 -1.09717 0
M  V30 18698 H 1702.15 -2.75961 -2.77419 0
M  V30 18699 H 1701.77 -1.34378 -3.74204 0
M  V30 18700 N 1702.77 1.22662 -0.989529 0
M  V30 18701 C 1704.02 1.91605 -0.66448 0
M  V30 18702 C 1704.35 1.76909 0.801048 0
M  V30 18703 O 1703.63 1.13583 1.5789 0
M  V30 18704 C 1703.91 3.43929 -1.06698 0
M  V30 18705 C 1703.76 3.67691 -2.59082 0
M  V30 18706 C 1705.08 4.35744 -0.617695 0
M  V30 18707 H 1702.2 0.695832 -0.242872 0
M  V30 18708 H 1704.84 1.44605 -1.23245 0
M  V30 18709 H 1702.99 3.8409 -0.58371 0
M  V30 18710 H 1704.66 3.36956 -3.15053 0
M  V30 18711 H 1702.91 3.12088 -3.01303 0
M  V30 18712 H 1703.58 4.74356 -2.82295 0
M  V30 18713 H 1706.05 4.0308 -1.03275 0
M  V30 18714 H 1704.93 5.41004 -0.927659 0
M  V30 18715 H 1705.19 4.39468 0.481734 0
M  V30 18716 N 1704.25 0.762308 1.37937 0
M  V30 18717 C 1705.53 0.247502 1.94028 0
M  V30 18718 C 1705.91 -1.25581 1.69684 0
M  V30 18719 O 1705.25 -2.03446 1.04028 0
M  V30 18720 C 1705.46 0.610643 3.43616 0
M  V30 18721 C 1706.81 0.57515 4.20687 0
M  V30 18722 O 1707.84 0.549461 3.51937 0
M  V30 18723 O 1706.7 0.593825 5.43264 0
M  V30 18724 H 1703.79 0.0544389 0.825206 0
M  V30 18725 H 1706.34 0.843021 1.47279 0
M  V30 18726 H 1705.11 1.64853 3.54879 0
M  V30 18727 H 1704.73 -0.0124265 3.97598 0
M  V30 18728 N 1705.73 -1.49049 0.51208 0
M  V30 18729 C 1706.95 -2.07382 -0.0271044 0
M  V30 18730 C 1707.38 -1.3685 -1.29049 0
M  V30 18731 O 1706.74 -0.428713 -1.76158 0
M  V30 18732 C 1706.78 -3.59715 -0.252462 0
M  V30 18733 O 1705.89 -3.90538 -1.32491 0
M  V30 18734 H 1705.23 -0.663269 0.0311507 0
M  V30 18735 H 1707.76 -1.91705 0.714873 0
M  V30 18736 H 1707.77 -4.05159 -0.480603 0
M  V30 18737 H 1706.44 -4.10459 0.670531 0
M  V30 18738 H 1705.02 -3.56892 -1.08085 0
M  V30 18739 N 1707.21 -0.246397 -1.55662 0
M  V30 18740 C 1708.14 0.647563 -2.24341 0
M  V30 18741 C 1709.12 1.1817 -1.22352 0
M  V30 18742 O 1710.3 1.22114 -1.51003 0
M  V30 18743 C 1707.43 1.84485 -2.94249 0
M  V30 18744 C 1706.39 1.4435 -4.02923 0
M  V30 18745 C 1705.71 2.72158 -4.60255 0
M  V30 18746 C 1707.01 0.614951 -5.18667 0
M  V30 18747 H 1708.71 0.0748803 -2.99306 0
M  V30 18748 H 1706.25 0.034575 -1.43958 0
M  V30 18749 H 1708.2 2.47588 -3.40995 0
M  V30 18750 H 1706.93 2.4429 -2.16772 0
M  V30 18751 H 1705.59 0.835811 -3.56945 0
M  V30 18752 H 1705.24 3.3016 -3.79478 0
M  V30 18753 H 1704.94 2.46028 -5.33614 0
M  V30 18754 H 1706.46 3.36161 -5.09734 0
M  V30 18755 H 1707.87 1.15028 -5.61642 0
M  V30 18756 H 1706.27 0.449729 -5.98412 0
M  V30 18757 H 1707.34 -0.372943 -4.83464 0
M  V30 18758 N 1708.68 1.57577 0.026722 0
M  V30 18759 C 1709.62 2.021 1.05976 0
M  V30 18760 C 1710.59 0.905778 1.35035 0
M  V30 18761 O 1711.78 1.1718 1.47652 0
M  V30 18762 C 1708.91 2.39603 2.39391 0
M  V30 18763 C 1707.95 3.61591 2.26174 0
M  V30 18764 S 1708.78 5.10631 1.61295 0
M  V30 18765 C 1709.94 5.51379 2.96196 0
M  V30 18766 H 1710.17 2.89406 0.680545 0
M  V30 18767 H 1707.71 1.52574 0.236771 0
M  V30 18768 H 1709.66 2.61881 3.16115 0
M  V30 18769 H 1708.33 1.52744 2.7446 0
M  V30 18770 H 1707.52 3.85495 3.24669 0
M  V30 18771 H 1707.12 3.39176 1.57593 0
M  V30 18772 H 1709.41 5.52206 3.92524 0
M  V30 18773 H 1710.36 6.51663 2.77023 0
M  V30 18774 H 1710.76 4.78887 2.98877 0
M  V30 18775 N 1710.16 -0.299034 1.54737 0
M  V30 18776 C 1711.58 -0.644805 1.45995 0
M  V30 18777 C 1711.78 -1.90634 0.652749 0
M  V30 18778 O 1710.83 -2.51985 0.161228 0
M  V30 18779 C 1712.15 -0.795974 2.89974 0
M  V30 18780 C 1713.69 -0.891731 3.00029 0
M  V30 18781 C 1714.17 -1.07488 4.45208 0
M  V30 18782 N 1715.66 -1.14104 4.48926 0
M  V30 18783 C 1716.4 -1.30108 5.58444 0
M  V30 18784 N 1715.89 -1.42998 6.77882 0
M  V30 18785 N 1717.68 -1.33012 5.46136 0
M  V30 18786 H 1709.84 0.529806 2.05686 0
M  V30 18787 H 1712.1 0.175406 0.931631 0
M  V30 18788 H 1711.8 0.0601375 3.51649 0
M  V30 18789 H 1711.68 -1.68437 3.37504 0
M  V30 18790 H 1714.07 -1.73833 2.38466 0
M  V30 18791 H 1714.15 0.0207194 2.55792 0
M  V30 18792 H 1713.79 -0.233045 5.07365 0
M  V30 18793 H 1713.72 -2.00159 4.87077 0
M  V30 18794 H 1716.21 -1.05488 3.62878 0
M  V30 18795 H 1716.52 -1.5497 7.57102 0
M  V30 18796 H 1714.87 -1.4005 6.80743 0
M  V30 18797 H 1718.06 -1.22555 4.51772 0
M  V30 18798 H 1718.23 -1.45141 6.31536 0
M  V30 18799 N 1711.64 -1.47227 -0.562322 0
M  V30 18800 C 1712.86 -1.5744 -1.35008 0
M  V30 18801 C 1713.29 -0.223223 -1.86771 0
M  V30 18802 O 1712.65 0.800078 -1.62691 0
M  V30 18803 C 1712.7 -2.5992 -2.49948 0
M  V30 18804 O 1711.8 -2.14836 -3.52022 0
M  V30 18805 H 1711.14 -0.529064 -0.401232 0
M  V30 18806 H 1713.67 -1.92966 -0.680084 0
M  V30 18807 H 1713.68 -2.80177 -2.96588 0
M  V30 18808 H 1712.36 -3.58031 -2.11629 0
M  V30 18809 H 1710.93 -2.04655 -3.11722 0
M  V30 18810 N 1713.12 0.808639 -1.35273 0
M  V30 18811 C 1714.36 1.56794 -1.28621 0
M  V30 18812 C 1714.7 1.93697 0.139686 0
M  V30 18813 O 1713.97 1.61185 1.08856 0
M  V30 18814 C 1714.25 2.85794 -2.19075 0
M  V30 18815 C 1714.11 2.5538 -3.70271 0
M  V30 18816 C 1715.43 3.87481 -2.08678 0
M  V30 18817 H 1712.55 0.568873 -0.468564 0
M  V30 18818 H 1715.19 0.930499 -1.65655 0
M  V30 18819 H 1713.34 3.40191 -1.87622 0
M  V30 18820 H 1715.01 2.07182 -4.12157 0
M  V30 18821 H 1713.25 1.88605 -3.90654 0
M  V30 18822 H 1713.92 3.47432 -4.28947 0
M  V30 18823 H 1716.4 3.42478 -2.36323 0
M  V30 18824 H 1715.28 4.75523 -2.7417 0
M  V30 18825 H 1715.54 4.29004 -1.06809 0
M  V30 18826 N 1714.6 1.19237 1.03055 0
M  V30 18827 C 1715.82 1.01983 1.80594 0
M  V30 18828 C 1716.25 -0.426875 1.83192 0
M  V30 18829 O 1715.6 -1.30678 1.2567 0
M  V30 18830 C 1715.65 1.59139 3.23585 0
M  V30 18831 O 1714.76 0.819576 4.04174 0
M  V30 18832 H 1714.1 0.360585 0.557561 0
M  V30 18833 H 1716.63 1.58222 1.29719 0
M  V30 18834 H 1716.64 1.62283 3.74337 0
M  V30 18835 H 1715.31 2.64436 3.21009 0
M  V30 18836 H 1713.89 0.861253 3.62818 0
M  V30 18837 N 1716.07 -1.22136 0.99602 0
M  V30 18838 C 1717.49 -1.43072 0.707285 0
M  V30 18839 C 1717.69 -1.88163 -0.720906 0
M  V30 18840 O 1716.75 -2.03747 -1.49142 0
M  V30 18841 C 1718.06 -2.46963 1.71551 0
M  V30 18842 C 1719.61 -2.60758 1.73131 0
M  V30 18843 C 1720.08 -3.67873 2.72825 0
M  V30 18844 N 1721.57 -3.75334 2.71438 0
M  V30 18845 C 1722.31 -4.57817 3.45241 0
M  V30 18846 N 1721.8 -5.44268 4.28654 0
M  V30 18847 N 1723.6 -4.52157 3.33932 0
M  V30 18848 H 1715.75 -0.911751 1.91836 0
M  V30 18849 H 1718.01 -0.462523 0.827512 0
M  V30 18850 H 1717.72 -2.20784 2.73765 0
M  V30 18851 H 1717.59 -3.45618 1.51089 0
M  V30 18852 H 1719.98 -2.86279 0.716132 0
M  V30 18853 H 1720.06 -1.62367 1.97663 0
M  V30 18854 H 1719.7 -3.43098 3.74494 0
M  V30 18855 H 1719.63 -4.6584 2.45562 0
M  V30 18856 H 1722.12 -3.13566 2.10915 0
M  V30 18857 H 1722.44 -6.04236 4.81786 0
M  V30 18858 H 1720.78 -5.43839 4.3274 0
M  V30 18859 H 1723.97 -3.83645 2.68206 0
M  V30 18860 H 1724.15 -5.16207 3.91707 0
M  V30 18861 N 1717.55 -0.769612 -1.37531 0
M  V30 18862 C 1718.8 -0.33346 -2.0004 0
M  V30 18863 C 1719.13 1.08661 -1.60955 0
M  V30 18864 O 1718.41 1.74714 -0.854709 0
M  V30 18865 C 1718.69 -0.474588 -3.56959 0
M  V30 18866 C 1718.54 -1.93692 -4.0596 0
M  V30 18867 C 1719.86 0.122429 -4.3993 0
M  V30 18868 H 1716.98 -0.122637 -0.726725 0
M  V30 18869 H 1719.62 -0.972255 -1.6324 0
M  V30 18870 H 1717.77 0.0692352 -3.88438 0
M  V30 18871 H 1719.44 -2.54028 -3.85055 0
M  V30 18872 H 1717.69 -2.44647 -3.58232 0
M  V30 18873 H 1718.36 -1.98674 -5.15008 0
M  V30 18874 H 1720.83 -0.341557 -4.14696 0
M  V30 18875 H 1719.71 -0.00646545 -5.489 0
M  V30 18876 H 1719.97 1.21251 -4.25148 0
M  V30 18877 N 1719.03 1.48775 -0.519977 0
M  V30 18878 C 1720.28 2.02492 0.0177505 0
M  V30 18879 C 1720.61 1.39801 1.35226 0
M  V30 18880 O 1719.86 0.529591 1.88398 0
M  V30 18881 C 1720.16 3.56844 0.199204 0
M  V30 18882 C 1719.83 4.38271 -1.05968 0
M  V30 18883 C 1718.49 4.6024 -1.40472 0
M  V30 18884 C 1720.84 4.85507 -1.89559 0
M  V30 18885 C 1718.17 5.26691 -2.58483 0
M  V30 18886 C 1720.52 5.53257 -3.0674 0
M  V30 18887 C 1719.18 5.73468 -3.41601 0
M  V30 18888 H 1718.45 0.740972 0.00649536 0
M  V30 18889 H 1721.1 1.78869 -0.683977 0
M  V30 18890 H 1719.41 3.79252 0.983617 0
M  V30 18891 H 1721.1 3.9602 0.63002 0
M  V30 18892 H 1717.69 4.21425 -0.780955 0
M  V30 18893 H 1721.88 4.68345 -1.64215 0
M  V30 18894 H 1717.13 5.40538 -2.85707 0
M  V30 18895 H 1721.31 5.88829 -3.71824 0
M  V30 18896 H 1718.93 6.24732 -4.33144 0
M  V30 18897 N 1720.51 0.254649 1.55529 0
M  V30 18898 C 1721.46 -0.64162 2.21702 0
M  V30 18899 C 1722.43 -1.16544 1.1835 0
M  V30 18900 O 1723.61 -1.2185 1.46824 0
M  V30 18901 C 1720.75 -1.82935 2.92624 0
M  V30 18902 C 1719.86 -1.34132 4.10649 0
M  V30 18903 C 1719 -2.48922 4.69267 0
M  V30 18904 C 1718.04 -1.9702 5.79525 0
M  V30 18905 N 1717.17 -3.05206 6.32293 0
M  V30 18906 H 1722.01 -0.0706476 2.97916 0
M  V30 18907 H 1719.55 -0.0231077 1.47082 0
M  V30 18908 H 1721.51 -2.52719 3.31947 0
M  V30 18909 H 1720.14 -2.37267 2.1887 0
M  V30 18910 H 1719.19 -0.53726 3.76587 0
M  V30 18911 H 1720.5 -0.921003 4.90223 0
M  V30 18912 H 1719.66 -3.26735 5.11203 0
M  V30 18913 H 1718.4 -2.94259 3.88925 0
M  V30 18914 H 1717.4 -1.17679 5.37058 0
M  V30 18915 H 1718.63 -1.52643 6.61723 0
M  V30 18916 H 1716.57 -3.49963 5.54853 0
M  V30 18917 H 1716.49 -2.67528 7.07082 0
M  V30 18918 H 1717.76 -3.83055 6.78888 0
M  V30 18919 N 1721.99 -1.57589 -0.0183649 0
M  V30 18920 C 1723.23 -1.89757 -0.707008 0
M  V30 18921 C 1723.56 -0.853257 -1.74785 0
M  V30 18922 O 1722.82 0.144406 -1.95166 0
M  V30 18923 C 1723.12 -3.28677 -1.4038 0
M  V30 18924 C 1722.78 -4.48142 -0.497917 0
M  V30 18925 C 1721.44 -4.80558 -0.248444 0
M  V30 18926 C 1723.8 -5.21046 0.126883 0
M  V30 18927 C 1721.12 -5.8326 0.634428 0
M  V30 18928 C 1723.48 -6.24686 0.997521 0
M  V30 18929 C 1722.14 -6.5557 1.25635 0
M  V30 18930 H 1721.41 -0.694369 -0.258713 0
M  V30 18931 H 1724.06 -1.91471 0.0332176 0
M  V30 18932 H 1722.36 -3.23 -2.21761 0
M  V30 18933 H 1724.06 -3.50818 -1.94236 0
M  V30 18934 H 1720.65 -4.22803 -0.702519 0
M  V30 18935 H 1724.83 -4.96272 -0.0528705 0
M  V30 18936 H 1720.09 -6.05558 0.843157 0
M  V30 18937 H 1724.26 -6.80315 1.48811 0
M  V30 18938 H 1721.89 -7.34972 1.94218 0
M  V30 18939 N 1723.46 0.290824 -1.54893 0
M  V30 18940 C 1724.71 1.02244 -1.73865 0
M  V30 18941 C 1725.03 1.88079 -0.537166 0
M  V30 18942 O 1726.23 2.64584 -0.608908 0
M  V30 18943 C 1724.69 1.86762 -3.07649 0
M  V30 18944 C 1724.3 1.0588 -4.35308 0
M  V30 18945 C 1726.04 2.59461 -3.35976 0
M  V30 18946 C 1723.95 1.89734 -5.60138 0
M  V30 18947 H 1722.88 0.385455 -0.648028 0
M  V30 18948 H 1725.53 0.27893 -1.81368 0
M  V30 18949 H 1723.91 2.6514 -2.94137 0
M  V30 18950 H 1725.08 0.320443 -4.59684 0
M  V30 18951 H 1723.4 0.447169 -4.13992 0
M  V30 18952 H 1726 3.22569 -4.26442 0
M  V30 18953 H 1726.34 3.28823 -2.55306 0
M  V30 18954 H 1726.87 1.88126 -3.50505 0
M  V30 18955 H 1723.61 1.24825 -6.43505 0
M  V30 18956 H 1723.13 2.61215 -5.39932 0
M  V30 18957 H 1724.81 2.47535 -5.97775 0
M  V30 18958 N 1724.94 1.47523 0.554506 0
M  V30 18959 C 1726.22 1.44768 1.31535 0
M  V30 18960 C 1726.6 0.146082 2.10594 0
M  V30 18961 O 1725.95 -0.872415 2.1119 0
M  V30 18962 C 1726.16 2.69489 2.21758 0
M  V30 18963 C 1727.51 3.16814 2.82691 0
M  V30 18964 O 1728.53 2.70235 2.32059 0
M  V30 18965 O 1727.39 3.97798 3.74725 0
M  V30 18966 H 1724.48 0.577042 0.592412 0
M  V30 18967 H 1727.03 1.59727 0.573186 0
M  V30 18968 H 1725.8 3.55753 1.62958 0
M  V30 18969 H 1725.42 2.5713 3.03266 0
M  V30 18970 N 1726.42 -0.801453 1.357 0
M  V30 18971 C 1727.35 -1.9196 1.23396 0
M  V30 18972 C 1728.33 -1.62151 0.12072 0
M  V30 18973 O 1729.52 -1.8626 0.289725 0
M  V30 18974 C 1726.64 -3.26491 0.901174 0
M  V30 18975 C 1725.69 -3.75243 2.02718 0
M  V30 18976 S 1726.52 -3.92435 3.64356 0
M  V30 18977 C 1727.68 -5.2986 3.33165 0
M  V30 18978 H 1727.91 -2.02103 2.1804 0
M  V30 18979 H 1725.44 -0.959388 1.20976 0
M  V30 18980 H 1727.4 -4.04208 0.715976 0
M  V30 18981 H 1726.06 -3.14088 -0.0272881 0
M  V30 18982 H 1725.26 -4.72694 1.7486 0
M  V30 18983 H 1724.86 -3.0454 2.17098 0
M  V30 18984 H 1727.15 -6.14029 2.86312 0
M  V30 18985 H 1728.09 -5.62715 4.29835 0
M  V30 18986 H 1728.5 -4.9639 2.68807 0
M  V30 18987 N 1727.9 -1.19782 -1.02421 0
M  V30 18988 C 1729.31 -1.00493 -1.57347 0
M  V30 18989 C 1729.66 0.440854 -1.91183 0
M  V30 18990 O 1728.79 1.32102 -1.714 0
M  V30 18991 C 1729.38 -1.8179 -2.85898 0
M  V30 18992 C 1727.94 -1.66889 -3.3738 0
M  V30 18993 C 1727.09 -1.80199 -2.10769 0
M  V30 18994 H 1730.04 -1.34085 -0.848938 0
M  V30 18995 H 1730.06 -1.31676 -3.5699 0
M  V30 18996 H 1729.57 -2.87011 -2.6124 0
M  V30 18997 H 1727.67 -0.64274 -3.67014 0
M  V30 18998 H 1727.78 -2.47705 -4.10096 0
M  V30 18999 H 1726.15 -1.23308 -2.22862 0
M  V30 19000 H 1726.93 -2.86889 -1.88546 0
M  V30 19001 N 1729.38 1.21606 -1.00248 0
M  V30 19002 C 1730.61 1.94609 -0.702502 0
M  V30 19003 C 1731.02 1.73928 0.734483 0
M  V30 19004 O 1730.38 1.04432 1.49667 0
M  V30 19005 C 1730.43 3.47077 -1.01092 0
M  V30 19006 O 1730.15 3.67071 -2.39145 0
M  V30 19007 C 1731.65 4.37248 -0.729988 0
M  V30 19008 H 1728.87 0.618962 -0.259088 0
M  V30 19009 H 1731.41 1.54494 -1.33985 0
M  V30 19010 H 1729.57 3.85125 -0.419215 0
M  V30 19011 H 1729.98 4.61188 -2.49811 0
M  V30 19012 H 1731.46 5.4294 -0.99598 0
M  V30 19013 H 1731.93 4.37913 0.33599 0
M  V30 19014 H 1732.54 4.04842 -1.30318 0
M  V30 19015 N 1730.86 0.776895 1.37121 0
M  V30 19016 C 1731.77 0.167552 2.34001 0
M  V30 19017 C 1732.78 -0.673609 1.60432 0
M  V30 19018 O 1733.96 -0.592327 1.92493 0
M  V30 19019 C 1731.02 -0.697343 3.39615 0
M  V30 19020 C 1730.08 0.160869 4.28998 0
M  V30 19021 C 1729.32 -0.662841 5.29568 0
M  V30 19022 O 1729.54 -1.89962 5.37839 0
M  V30 19023 O 1728.47 -0.0693304 6.0186 0
M  V30 19024 H 1732.3 0.968247 2.87852 0
M  V30 19025 H 1729.88 0.538137 1.39372 0
M  V30 19026 H 1731.77 -1.19094 4.04221 0
M  V30 19027 H 1730.44 -1.47614 2.88083 0
M  V30 19028 H 1729.35 0.700941 3.67475 0
M  V30 19029 H 1730.68 0.902875 4.83848 0
M  V30 19030 N 1732.33 -1.48497 0.527859 0
M  V30 19031 C 1733.58 -2.02099 -0.00699772 0
M  V30 19032 C 1733.9 -1.40742 -1.34969 0
M  V30 19033 O 1733.17 -0.572059 -1.87361 0
M  V30 19034 H 1731.75 -0.746979 -0.00557445 0
M  V30 19035 H 1734.41 -1.82231 0.691209 0
M  V30 19036 H 1733.51 -3.11881 -0.116893 0
M  V30 19037 N 1733.81 -0.262893 -1.55392 0
M  V30 19038 C 1734.76 0.629853 -2.22039 0
M  V30 19039 C 1735.73 1.15915 -1.18966 0
M  V30 19040 O 1736.91 1.21069 -1.47468 0
M  V30 19041 C 1734.05 1.8138 -2.9359 0
M  V30 19042 C 1733.17 1.31952 -4.11355 0
M  V30 19043 C 1732.3 2.4643 -4.7058 0
M  V30 19044 C 1731.34 1.93944 -5.80562 0
M  V30 19045 N 1730.48 3.01848 -6.33902 0
M  V30 19046 H 1735.32 0.0548473 -2.9795 0
M  V30 19047 H 1732.85 0.0153072 -1.47092 0
M  V30 19048 H 1734.81 2.50955 -3.33283 0
M  V30 19049 H 1733.44 2.36103 -2.20125 0
M  V30 19050 H 1732.49 0.517281 -3.76866 0
M  V30 19051 H 1733.81 0.894993 -4.90705 0
M  V30 19052 H 1732.96 3.2402 -5.12929 0
M  V30 19053 H 1731.7 2.92193 -3.9048 0
M  V30 19054 H 1730.7 1.1483 -5.37675 0
M  V30 19055 H 1731.93 1.49132 -6.62523 0
M  V30 19056 H 1729.88 3.47015 -5.56701 0
M  V30 19057 H 1729.79 2.63775 -7.08491 0
M  V30 19058 H 1731.06 3.79449 -6.8091 0
M  V30 19059 N 1735.29 1.57597 0.0100073 0
M  V30 19060 C 1736.7 1.78287 0.554143 0
M  V30 19061 C 1737.05 0.896332 1.74529 0
M  V30 19062 O 1736.18 0.0961505 2.16186 0
M  V30 19063 C 1736.77 3.23331 1.01206 0
M  V30 19064 C 1735.33 3.45152 1.50157 0
M  V30 19065 C 1734.48 2.73654 0.448221 0
M  V30 19066 H 1737.43 1.57221 -0.216189 0
M  V30 19067 H 1737.45 3.30893 1.87856 0
M  V30 19068 H 1736.96 3.87829 0.144921 0
M  V30 19069 H 1735.06 2.85854 2.38994 0
M  V30 19070 H 1735.18 4.53813 1.53594 0
M  V30 19071 H 1733.54 2.3798 0.907603 0
M  V30 19072 H 1734.32 3.40846 -0.40978 0
M  V30 19073 N 1736.77 -0.282606 1.55045 0
M  V30 19074 C 1738 -1.03395 1.79212 0
M  V30 19075 C 1738.41 -1.80283 0.560652 0
M  V30 19076 O 1737.77 -1.76343 -0.470049 0
M  V30 19077 C 1737.82 -2.0001 3.01128 0
M  V30 19078 O 1737.54 -1.26238 4.19518 0
M  V30 19079 C 1739.04 -2.87035 3.37825 0
M  V30 19080 H 1736.26 -0.305855 0.597238 0
M  V30 19081 H 1738.8 -0.3163 2.02039 0
M  V30 19082 H 1736.96 -2.67251 2.80456 0
M  V30 19083 H 1737.37 -1.91277 4.88378 0
M  V30 19084 H 1738.85 -3.50642 4.26327 0
M  V30 19085 H 1739.32 -3.56303 2.56798 0
M  V30 19086 H 1739.93 -2.25298 3.60723 0
M  V30 19087 N 1738.25 -1.47815 -0.546675 0
M  V30 19088 C 1739.19 -1.61092 -1.65282 0
M  V30 19089 C 1740.16 -0.453531 -1.59788 0
M  V30 19090 O 1741.35 -0.674923 -1.78464 0
M  V30 19091 C 1738.49 -1.64103 -3.03585 0
M  V30 19092 C 1737.6 -2.90832 -3.19438 0
M  V30 19093 C 1736.74 -2.85112 -4.48201 0
M  V30 19094 C 1735.77 -4.06619 -4.57523 0
M  V30 19095 N 1734.91 -3.99073 -5.77655 0
M  V30 19096 H 1739.75 -2.55561 -1.53273 0
M  V30 19097 H 1737.29 -1.26752 -0.746477 0
M  V30 19098 H 1739.25 -1.63832 -3.83686 0
M  V30 19099 H 1737.88 -0.731382 -3.14405 0
M  V30 19100 H 1736.93 -3.00924 -2.327 0
M  V30 19101 H 1738.24 -3.80783 -3.22188 0
M  V30 19102 H 1737.39 -2.83149 -5.36574 0
M  V30 19103 H 1736.13 -1.92862 -4.47946 0
M  V30 19104 H 1735.14 -4.08876 -3.67561 0
M  V30 19105 H 1736.36 -5.00009 -4.5953 0
M  V30 19106 H 1734.31 -3.09633 -5.78328 0
M  V30 19107 H 1734.23 -4.82713 -5.81829 0
M  V30 19108 H 1735.49 -4.01143 -6.6836 0
M  V30 19109 N 1739.72 0.794246 -1.36123 0
M  V30 19110 C 1740.95 1.58813 -1.33391 0
M  V30 19111 C 1741.37 1.87915 0.0834599 0
M  V30 19112 O 1740.73 1.47516 1.05398 0
M  V30 19113 C 1740.78 2.88887 -2.15816 0
M  V30 19114 O 1739.88 3.82271 -1.54734 0
M  V30 19115 H 1739.22 0.481924 -0.456777 0
M  V30 19116 H 1741.75 0.984818 -1.79339 0
M  V30 19117 H 1741.76 3.38201 -2.2822 0
M  V30 19118 H 1740.44 2.67032 -3.18852 0
M  V30 19119 H 1739.02 3.40852 -1.51242 0
M  V30 19120 N 1741.2 1.20323 1.01785 0
M  V30 19121 C 1742.43 1.03821 1.78966 0
M  V30 19122 C 1742.84 -0.412622 1.84236 0
M  V30 19123 O 1742.2 -1.2865 1.29443 0
M  V30 19124 C 1742.25 1.61352 3.23493 0
M  V30 19125 O 1741.97 3.00758 3.18553 0
M  V30 19126 C 1743.47 1.49786 4.17228 0
M  V30 19127 H 1740.69 0.365291 0.562853 0
M  V30 19128 H 1743.24 1.59383 1.2813 0
M  V30 19129 H 1741.39 1.09913 3.71481 0
M  V30 19130 H 1741.81 3.28034 4.09261 0
M  V30 19131 H 1743.28 1.94802 5.16484 0
M  V30 19132 H 1743.76 0.450143 4.36887 0
M  V30 19133 H 1744.36 2.00409 3.75122 0
M  V30 19134 N 1742.68 -1.21073 1.00892 0
M  V30 19135 C 1743.63 -2.23583 0.572636 0
M  V30 19136 C 1744.6 -1.61129 -0.403324 0
M  V30 19137 O 1745.78 -1.88355 -0.304491 0
M  V30 19138 C 1742.92 -3.44981 -0.0906539 0
M  V30 19139 C 1742.03 -4.21894 0.928953 0
M  V30 19140 C 1741.17 -5.30669 0.237516 0
M  V30 19141 C 1740.21 -5.99317 1.24441 0
M  V30 19142 N 1739.35 -6.99699 0.580172 0
M  V30 19143 H 1744.19 -2.60263 1.45146 0
M  V30 19144 H 1741.72 -1.27895 0.72673 0
M  V30 19145 H 1743.68 -4.14285 -0.492281 0
M  V30 19146 H 1742.31 -3.09017 -0.933169 0
M  V30 19147 H 1741.36 -3.5173 1.4488 0
M  V30 19148 H 1742.67 -4.69116 1.69503 0
M  V30 19149 H 1741.83 -6.06301 -0.220013 0
M  V30 19150 H 1740.57 -4.84463 -0.560937 0
M  V30 19151 H 1739.57 -5.22453 1.7124 0
M  V30 19152 H 1740.8 -6.47609 2.04401 0
M  V30 19153 H 1738.74 -6.55699 -0.198553 0
M  V30 19154 H 1738.66 -7.45009 1.28444 0
M  V30 19155 H 1739.93 -7.79363 0.145977 0
M  V30 19156 N 1744.16 -0.784156 -1.36707 0
M  V30 19157 C 1745.57 -0.417967 -1.81961 0
M  V30 19158 C 1745.92 1.05746 -1.65264 0
M  V30 19159 O 1745.05 1.82003 -1.17064 0
M  V30 19160 C 1745.64 -0.751869 -3.30352 0
M  V30 19161 C 1744.2 -0.438578 -3.73836 0
M  V30 19162 C 1743.35 -0.989262 -2.59054 0
M  V30 19163 H 1746.3 -0.977754 -1.25003 0
M  V30 19164 H 1746.32 -0.041034 -3.80478 0
M  V30 19165 H 1745.83 -1.82576 -3.42473 0
M  V30 19166 H 1743.93 0.627493 -3.67278 0
M  V30 19167 H 1744.04 -0.955508 -4.69475 0
M  V30 19168 H 1742.41 -0.412783 -2.51333 0
M  V30 19169 H 1743.19 -2.06881 -2.73962 0
M  V30 19170 N 1745.64 1.48215 -0.535727 0
M  V30 19171 C 1746.87 2.06598 -0.00793498 0
M  V30 19172 C 1747.27 1.39186 1.28155 0
M  V30 19173 O 1746.62 0.475163 1.77448 0
M  V30 19174 C 1746.68 3.58402 0.280696 0
M  V30 19175 C 1746.34 4.47723 -0.916162 0
M  V30 19176 C 1747.34 4.87149 -1.81609 0
M  V30 19177 C 1745.03 4.89545 -1.12478 0
M  V30 19178 C 1747.02 5.67173 -2.9085 0
M  V30 19179 C 1744.71 5.69337 -2.22032 0
M  V30 19180 C 1745.7 6.0806 -3.1105 0
M  V30 19181 O 1745.39 6.8625 -4.18707 0
M  V30 19182 H 1745.12 0.675194 -0.0330032 0
M  V30 19183 H 1747.68 1.91512 -0.742453 0
M  V30 19184 H 1745.91 3.71623 1.06926 0
M  V30 19185 H 1747.6 3.98887 0.751264 0
M  V30 19186 H 1748.36 4.55456 -1.66688 0
M  V30 19187 H 1744.24 4.58884 -0.44115 0
M  V30 19188 H 1747.79 5.97316 -3.6036 0
M  V30 19189 H 1743.68 6.00444 -2.36934 0
M  V30 19190 H 1744.45 7.04613 -4.16488 0
M  V30 19191 N 1747.11 0.27113 1.5525 0
M  V30 19192 C 1748.06 -0.618069 2.2237 0
M  V30 19193 C 1749.03 -1.15282 1.19579 0
M  V30 19194 O 1750.22 -1.20285 1.48108 0
M  V30 19195 C 1747.36 -1.79821 2.94548 0
M  V30 19196 C 1746.47 -1.29769 4.12049 0
M  V30 19197 C 1745.6 -2.43931 4.7188 0
M  V30 19198 C 1744.64 -1.90862 5.81582 0
M  V30 19199 N 1743.78 -2.98482 6.35494 0
M  V30 19200 H 1748.62 -0.0390456 2.97974 0
M  V30 19201 H 1746.16 -0.00750636 1.47098 0
M  V30 19202 H 1748.12 -2.49184 3.34609 0
M  V30 19203 H 1746.75 -2.34933 2.21374 0
M  V30 19204 H 1745.8 -0.497288 3.77136 0
M  V30 19205 H 1747.11 -0.868957 4.91173 0
M  V30 19206 H 1746.26 -3.21295 5.1464 0
M  V30 19207 H 1745 -2.90118 3.92024 0
M  V30 19208 H 1744.01 -1.11977 5.38276 0
M  V30 19209 H 1745.23 -1.45616 6.63304 0
M  V30 19210 H 1743.18 -3.44058 5.58534 0
M  V30 19211 H 1743.1 -2.60014 7.09879 0
M  V30 19212 H 1744.36 -3.75833 6.82913 0
M  V30 19213 N 1748.59 -1.576 -0.00164943 0
M  V30 19214 C 1749.54 -2.09439 -1.01183 0
M  V30 19215 C 1750.53 -1.01402 -1.35698 0
M  V30 19216 O 1751.74 -1.19869 -1.34281 0
M  V30 19217 H 1748.12 -0.668732 -0.34395 0
M  V30 19218 H 1750.09 -2.93306 -0.549033 0
M  V30 19219 C 1748.84 -2.61163 -2.29542 0
M  V30 19220 H 1748.16 -3.43926 -2.0385 0
M  V30 19221 H 1749.6 -3.01115 -2.98506 0
M  V30 19222 C 1748.06 -1.52502 -3.00408 0
M  V30 19223 O 1748.59 -0.906982 -3.91327 0
M  V30 19224 N 1746.79 -1.25288 -2.62205 0
M  V30 19225 H 1746.34 -1.75731 -1.88351 0
M  V30 19226 H 1746.3 -0.528035 -3.09934 0
M  V30 19227 N 1750.07 0.274379 -1.55193 0
M  V30 19228 C 1751.32 1.00418 -1.75387 0
M  V30 19229 C 1751.64 1.86868 -0.557244 0
M  V30 19230 O 1750.91 1.9117 0.427883 0
M  V30 19231 H 1749.49 0.373753 -0.646775 0
M  V30 19232 H 1752.15 0.298942 -1.92594 0
M  V30 19233 H 1751.25 1.64191 -2.6542 0
M  V30 19234 N 1751.55 1.48103 0.538828 0
M  V30 19235 C 1752.48 1.58044 1.65996 0
M  V30 19236 C 1753.49 0.465316 1.56009 0
M  V30 19237 O 1754.68 0.735769 1.62631 0
M  V30 19238 C 1751.78 1.48587 3.0459 0
M  V30 19239 C 1750.96 2.74987 3.40148 0
M  V30 19240 C 1750.01 2.59109 4.57984 0
M  V30 19241 O 1749.04 3.32974 4.61646 0
M  V30 19242 N 1750.24 1.68143 5.55615 0
M  V30 19243 H 1753.01 2.54726 1.57908 0
M  V30 19244 H 1750.57 1.44715 0.725901 0
M  V30 19245 H 1752.56 1.35673 3.81281 0
M  V30 19246 H 1751.13 0.599157 3.06804 0
M  V30 19247 H 1750.35 3.02531 2.52723 0
M  V30 19248 H 1751.64 3.58862 3.60687 0
M  V30 19249 H 1751.04 1.07317 5.55427 0
M  V30 19250 H 1749.59 1.61171 6.31559 0
M  V30 19251 N 1753.03 -0.787016 1.36542 0
M  V30 19252 C 1753.96 -1.91399 1.33749 0
M  V30 19253 C 1754.94 -1.68817 0.208559 0
M  V30 19254 O 1756.12 -1.89896 0.406574 0
M  V30 19255 C 1753.25 -3.28457 1.12842 0
M  V30 19256 C 1752.21 -3.65568 2.22585 0
M  V30 19257 C 1751.53 -5.01002 1.86818 0
M  V30 19258 C 1752.83 -3.73902 3.64684 0
M  V30 19259 H 1754.53 -1.93993 2.2805 0
M  V30 19260 H 1752.07 -0.931937 1.09777 0
M  V30 19261 H 1754.03 -4.06919 1.09522 0
M  V30 19262 H 1752.75 -3.26256 0.149918 0
M  V30 19263 H 1751.41 -2.89405 2.25035 0
M  V30 19264 H 1751.06 -4.95325 0.875361 0
M  V30 19265 H 1750.76 -5.26802 2.60294 0
M  V30 19266 H 1752.28 -5.81881 1.85058 0
M  V30 19267 H 1753.69 -4.4255 3.64448 0
M  V30 19268 H 1752.09 -4.11188 4.37086 0
M  V30 19269 H 1753.16 -2.74946 3.99416 0
M  V30 19270 N 1754.5 -1.20861 -1.01145 0
M  V30 19271 C 1755.73 -1.04843 -1.78949 0
M  V30 19272 C 1756.15 0.397676 -1.83848 0
M  V30 19273 O 1755.51 1.28663 -1.27733 0
M  V30 19274 C 1755.56 -1.64267 -3.21012 0
M  V30 19275 O 1754.66 -0.883773 -4.02819 0
M  V30 19276 H 1754.01 -0.36941 -0.551754 0
M  V30 19277 H 1756.54 -1.60266 -1.27185 0
M  V30 19278 H 1756.55 -1.68218 -3.71708 0
M  V30 19279 H 1755.22 -2.69509 -3.16761 0
M  V30 19280 H 1753.8 -0.918866 -3.61402 0
M  V30 19281 N 1755.98 1.20536 -1.01532 0
M  V30 19282 C 1756.93 2.23277 -0.584486 0
M  V30 19283 C 1757.9 1.6134 0.394773 0
M  V30 19284 O 1759.08 1.88514 0.294498 0
M  V30 19285 C 1756.22 3.45024 0.0723574 0
M  V30 19286 C 1755.34 4.21395 -0.951314 0
M  V30 19287 C 1754.47 5.30535 -0.265656 0
M  V30 19288 C 1753.51 5.98649 -1.27617 0
M  V30 19289 N 1752.65 6.99381 -0.61727 0
M  V30 19290 H 1757.49 2.59489 -1.46524 0
M  V30 19291 H 1755.03 1.27507 -0.733502 0
M  V30 19292 H 1756.98 4.14541 0.470303 0
M  V30 19293 H 1755.61 3.09508 0.916768 0
M  V30 19294 H 1754.67 3.50957 -1.46743 0
M  V30 19295 H 1755.98 4.68211 -1.71989 0
M  V30 19296 H 1755.13 6.06409 0.187857 0
M  V30 19297 H 1753.87 4.84754 0.535237 0
M  V30 19298 H 1752.88 5.21537 -1.74008 0
M  V30 19299 H 1754.1 6.46516 -2.07832 0
M  V30 19300 H 1752.05 6.55796 0.163777 0
M  V30 19301 H 1751.96 7.44317 -1.32393 0
M  V30 19302 H 1753.23 7.79275 -0.187306 0
M  V30 19303 N 1757.46 0.791395 1.36289 0
M  V30 19304 C 1758.71 0.365242 1.99484 0
M  V30 19305 C 1759.04 -1.06087 1.62663 0
M  V30 19306 O 1758.31 -1.73332 0.882396 0
M  V30 19307 C 1758.6 0.531317 3.56159 0
M  V30 19308 C 1758.45 2.00126 4.02827 0
M  V30 19309 C 1759.77 -0.0524248 4.40069 0
M  V30 19310 H 1756.89 0.134183 0.724682 0
M  V30 19311 H 1759.53 0.998102 1.61672 0
M  V30 19312 H 1757.68 -0.0074293 3.88499 0
M  V30 19313 H 1759.35 2.60122 3.80965 0
M  V30 19314 H 1757.6 2.50316 3.54294 0
M  V30 19315 H 1758.27 2.06842 5.11782 0
M  V30 19316 H 1760.74 0.407489 4.141 0
M  V30 19317 H 1759.62 0.0937898 5.4882 0
M  V30 19318 H 1759.88 -1.14472 4.27023 0
M  V30 19319 N 1758.94 -1.47929 0.54358 0
M  V30 19320 C 1759.87 -2.26722 -0.259258 0
M  V30 19321 C 1760.85 -1.33195 -0.932623 0
M  V30 19322 O 1762.03 -1.62558 -0.954322 0
M  V30 19323 C 1759.16 -3.09833 -1.36826 0
M  V30 19324 C 1758.21 -4.18836 -0.80488 0
M  V30 19325 S 1759.04 -5.34433 0.337912 0
M  V30 19326 C 1760.2 -6.21105 -0.773234 0
M  V30 19327 H 1760.43 -2.94468 0.409397 0
M  V30 19328 H 1757.96 -1.5084 0.329626 0
M  V30 19329 H 1759.92 -3.5829 -2.00345 0
M  V30 19330 H 1758.58 -2.41476 -2.00869 0
M  V30 19331 H 1757.77 -4.76665 -1.63726 0
M  V30 19332 H 1757.38 -3.73189 -0.246123 0
M  V30 19333 H 1759.67 -6.56629 -1.66865 0
M  V30 19334 H 1760.61 -7.07718 -0.232611 0
M  V30 19335 H 1761.02 -5.54463 -1.05977 0
M  V30 19336 N 1760.42 -0.27936 -1.55104 0
M  V30 19337 C 1761.67 0.336866 -1.98867 0
M  V30 19338 C 1761.98 1.56656 -1.17124 0
M  V30 19339 O 1763.19 2.25601 -1.51051 0
M  V30 19340 C 1761.64 0.650699 -3.53969 0
M  V30 19341 C 1761.25 -0.559433 -4.44493 0
M  V30 19342 C 1762.99 1.22931 -4.0631 0
M  V30 19343 C 1760.9 -0.219952 -5.90991 0
M  V30 19344 H 1759.83 0.129643 -0.742771 0
M  V30 19345 H 1762.48 -0.384678 -1.79423 0
M  V30 19346 H 1760.86 1.43126 -3.6923 0
M  V30 19347 H 1762.04 -1.3362 -4.41001 0
M  V30 19348 H 1760.35 -1.05519 -4.02809 0
M  V30 19349 H 1762.95 1.49719 -5.13311 0
M  V30 19350 H 1763.29 2.16458 -3.55601 0
M  V30 19351 H 1763.83 0.51095 -3.94505 0
M  V30 19352 H 1760.56 -1.1232 -6.45805 0
M  V30 19353 H 1760.08 0.519971 -5.97542 0
M  V30 19354 H 1761.76 0.186308 -6.46732 0
M  V30 19355 N 1761.9 1.57599 -0.0067085 0
M  V30 19356 C 1763.14 1.90036 0.675957 0
M  V30 19357 C 1763.46 0.882449 1.74563 0
M  V30 19358 O 1764.66 1.09728 2.48339 0
M  V30 19359 C 1763.12 3.37366 1.25349 0
M  V30 19360 C 1762.73 4.47468 0.218284 0
M  V30 19361 C 1764.47 3.78904 1.91396 0
M  V30 19362 C 1762.38 5.85879 0.806182 0
M  V30 19363 H 1761.31 0.709125 0.256237 0
M  V30 19364 H 1763.96 1.83373 -0.0683502 0
M  V30 19365 H 1762.34 3.38888 2.04868 0
M  V30 19366 H 1763.52 4.57472 -0.552808 0
M  V30 19367 H 1761.83 4.14992 -0.342131 0
M  V30 19368 H 1764.43 4.79654 2.36297 0
M  V30 19369 H 1764.77 3.12773 2.74734 0
M  V30 19370 H 1765.3 3.79709 1.186 0
M  V30 19371 H 1762.04 6.55499 0.0114275 0
M  V30 19372 H 1761.56 5.79526 1.54628 0
M  V30 19373 H 1763.24 6.33748 1.30278 0
M  V30 19374 N 1763.37 -0.266145 1.55336 0
M  V30 19375 C 1764.28 -1.35103 1.91793 0
M  V30 19376 C 1765.3 -1.5368 0.815985 0
M  V30 19377 O 1766.48 -1.67675 1.11567 0
M  V30 19378 C 1763.54 -2.68905 2.1884 0
M  V30 19379 C 1762.6 -2.59015 3.42359 0
M  V30 19380 C 1761.83 -3.86437 3.68106 0
M  V30 19381 O 1762.06 -4.87436 2.96247 0
M  V30 19382 O 1760.99 -3.86227 4.61641 0
M  V30 19383 H 1764.82 -1.07181 2.84158 0
M  V30 19384 H 1762.4 -0.465262 1.41971 0
M  V30 19385 H 1764.28 -3.48008 2.3763 0
M  V30 19386 H 1762.96 -2.96599 1.29656 0
M  V30 19387 H 1761.87 -1.78264 3.28896 0
M  V30 19388 H 1763.2 -2.3627 4.31784 0
M  V30 19389 N 1764.85 -1.48386 -0.530967 0
M  V30 19390 C 1765.8 -1.63279 -1.65658 0
M  V30 19391 C 1766.79 -0.499261 -1.61876 0
M  V30 19392 O 1768 -0.677951 -1.66745 0
M  V30 19393 H 1764.37 -0.514332 -0.548605 0
M  V30 19394 H 1766.35 -2.57818 -1.50241 0
M  V30 19395 C 1765.09 -1.68878 -3.03933 0
M  V30 19396 H 1764.42 -2.55462 -3.07537 0
M  V30 19397 H 1765.86 -1.83343 -3.82311 0
M  V30 19398 C 1764.32 -0.427267 -3.3418 0
M  V30 19399 O 1764.85 0.460276 -3.99054 0
M  V30 19400 N 1763.05 -0.299268 -2.89055 0
M  V30 19401 H 1762.6 -1.02248 -2.36438 0
M  V30 19402 H 1762.56 0.543787 -3.09662 0
M  V30 19403 N 1766.33 0.779763 -1.36958 0
M  V30 19404 C 1767.55 1.57389 -1.35068 0
M  V30 19405 C 1767.98 1.87993 0.0635244 0
M  V30 19406 O 1767.34 1.48625 1.03828 0
M  V30 19407 C 1767.39 2.86582 -2.18868 0
M  V30 19408 O 1766.49 3.80609 -1.58779 0
M  V30 19409 H 1765.83 0.477052 -0.461863 0
M  V30 19410 H 1768.36 0.965741 -1.80373 0
M  V30 19411 H 1768.37 3.35761 -2.31794 0
M  V30 19412 H 1767.05 2.63635 -3.21666 0
M  V30 19413 H 1765.62 3.39229 -1.54848 0
M  V30 19414 N 1767.81 1.21396 1.00503 0
M  V30 19415 C 1768.76 0.940669 2.07691 0
M  V30 19416 C 1769.74 -0.104065 1.60563 0
M  V30 19417 O 1770.93 0.104861 1.76689 0
M  V30 19418 C 1768.06 0.507176 3.39533 0
M  V30 19419 C 1767.15 1.58598 3.93329 0
M  V30 19420 N 1767.54 2.81104 4.20493 0
M  V30 19421 C 1765.84 1.45484 4.21605 0
M  V30 19422 C 1766.54 3.50775 4.64038 0
M  V30 19423 N 1765.51 2.78214 4.67009 0
M  V30 19424 H 1769.32 1.87141 2.26617 0
M  V30 19425 H 1766.83 1.10969 1.18574 0
M  V30 19426 H 1768.83 0.292749 4.15871 0
M  V30 19427 H 1767.49 -0.416806 3.22014 0
M  V30 19428 H 1768.5 3.17647 4.09049 0
M  V30 19429 H 1765.18 0.596142 4.13222 0
M  V30 19430 H 1766.57 4.55667 4.93779 0
M  V30 19431 N 1769.29 -1.19996 1.0217 0
M  V30 19432 C 1770.53 -1.89776 0.715047 0
M  V30 19433 C 1770.86 -1.78971 -0.753862 0
M  V30 19434 O 1770.14 -1.17729 -1.54823 0
M  V30 19435 C 1770.42 -3.4098 1.15779 0
M  V30 19436 C 1770.28 -3.60693 2.68739 0
M  V30 19437 C 1771.59 -4.33953 0.733008 0
M  V30 19438 H 1768.71 -0.689148 0.261236 0
M  V30 19439 H 1771.36 -1.41287 1.27035 0
M  V30 19440 H 1769.51 -3.82407 0.68534 0
M  V30 19441 H 1771.18 -3.28484 3.23876 0
M  V30 19442 H 1769.42 -3.0399 3.09472 0
M  V30 19443 H 1770.09 -4.66704 2.94773 0
M  V30 19444 H 1772.57 -4.002 1.13925 0
M  V30 19445 H 1771.44 -5.38355 1.07077 0
M  V30 19446 H 1771.7 -4.4059 -0.365047 0
M  V30 19447 N 1770.76 -0.798611 -1.35867 0
M  V30 19448 C 1771.71 -0.201442 -2.29919 0
M  V30 19449 C 1772.68 0.659971 -1.52426 0
M  V30 19450 O 1773.87 0.606726 -1.80896 0
M  V30 19451 C 1771.01 0.650427 -3.38915 0
M  V30 19452 C 1770.12 -0.230539 -4.31384 0
M  V30 19453 C 1769.25 0.628575 -5.27468 0
M  V30 19454 C 1768.29 -0.253282 -6.11576 0
M  V30 19455 N 1767.43 0.565343 -6.9982 0
M  V30 19456 H 1772.27 -1.00892 -2.80401 0
M  V30 19457 H 1769.81 -0.509085 -1.3801 0
M  V30 19458 H 1771.76 1.15941 -4.00766 0
M  V30 19459 H 1770.39 1.42325 -2.8973 0
M  V30 19460 H 1769.45 -0.85756 -3.70608 0
M  V30 19461 H 1770.76 -0.909635 -4.90436 0
M  V30 19462 H 1769.91 1.203 -5.94653 0
M  V30 19463 H 1768.65 1.34127 -4.68894 0
M  V30 19464 H 1767.66 -0.84004 -5.43345 0
M  V30 19465 H 1768.88 -0.963713 -6.72227 0
M  V30 19466 H 1766.83 1.26216 -6.43743 0
M  V30 19467 H 1766.74 -0.0558752 -7.55979 0
M  V30 19468 H 1768.01 1.1233 -7.71364 0
M  V30 19469 N 1772.24 1.47639 -0.551417 0
M  V30 19470 C 1773.19 2.29936 0.199514 0
M  V30 19471 C 1774.16 1.38704 0.913811 0
M  V30 19472 O 1775.34 1.67666 0.910643 0
M  V30 19473 C 1772.48 3.22544 1.22717 0
M  V30 19474 C 1771.6 4.28865 0.519527 0
M  V30 19475 C 1770.73 5.0863 1.53197 0
M  V30 19476 C 1769.77 6.06731 0.808981 0
M  V30 19477 N 1768.91 6.79476 1.76798 0
M  V30 19478 H 1773.75 2.93631 -0.508414 0
M  V30 19479 H 1771.28 1.44738 -0.262553 0
M  V30 19480 H 1773.24 3.74653 1.83551 0
M  V30 19481 H 1771.87 2.60726 1.9032 0
M  V30 19482 H 1770.92 3.79857 -0.203217 0
M  V30 19483 H 1772.24 4.98778 -0.0471224 0
M  V30 19484 H 1771.39 5.6486 2.214 0
M  V30 19485 H 1770.13 4.38605 2.13253 0
M  V30 19486 H 1769.13 5.49684 0.112991 0
M  V30 19487 H 1770.36 6.78762 0.214239 0
M  V30 19488 H 1768.31 6.12185 2.35722 0
M  V30 19489 H 1768.22 7.45539 1.25333 0
M  V30 19490 H 1769.49 7.40283 2.44133 0
M  V30 19491 N 1773.72 0.287581 1.54954 0
M  V30 19492 C 1775 -0.378041 1.91912 0
M  V30 19493 C 1775.38 -1.72749 1.2133 0
M  V30 19494 O 1774.73 -2.2589 0.344403 0
M  V30 19495 C 1774.94 -0.505993 3.45312 0
M  V30 19496 C 1776.28 -0.783109 4.17316 0
M  V30 19497 O 1777.31 -0.590324 3.51274 0
M  V30 19498 O 1776.17 -1.15257 5.34208 0
M  V30 19499 H 1773.26 -0.209004 0.800154 0
M  V30 19500 H 1775.81 0.334653 1.66368 0
M  V30 19501 H 1774.58 0.443187 3.88782 0
M  V30 19502 H 1774.2 -1.26767 3.7685 0
M  V30 19503 N 1775.2 -1.57593 0.0150662 0
M  V30 19504 C 1776.48 -1.82473 -0.704474 0
M  V30 19505 C 1776.86 -0.896018 -1.91141 0
M  V30 19506 O 1776.2 0.0517365 -2.28441 0
M  V30 19507 C 1776.41 -3.31345 -1.09598 0
M  V30 19508 C 1777.76 -3.97465 -1.49353 0
M  V30 19509 O 1778.79 -3.35757 -1.18936 0
M  V30 19510 O 1777.64 -5.06199 -2.05972 0
M  V30 19511 H 1774.74 -0.751908 -0.344331 0
M  V30 19512 H 1777.28 -1.69649 0.041674 0
M  V30 19513 H 1776.06 -3.90586 -0.236358 0
M  V30 19514 H 1775.68 -3.49224 -1.90075 0
M  V30 19515 N 1776.68 0.257904 -1.55475 0
M  V30 19516 C 1777.93 0.985329 -1.75995 0
M  V30 19517 C 1778.24 1.86898 -0.57694 0
M  V30 19518 O 1779.44 2.63233 -0.664893 0
M  V30 19519 C 1777.9 1.80195 -3.11541 0
M  V30 19520 C 1777.51 0.966227 -4.37456 0
M  V30 19521 C 1779.25 2.52277 -3.41404 0
M  V30 19522 C 1777.16 1.7781 -5.64037 0
M  V30 19523 H 1776.09 0.371623 -0.656058 0
M  V30 19524 H 1778.74 0.240396 -1.81919 0
M  V30 19525 H 1777.12 2.58841 -2.99695 0
M  V30 19526 H 1778.3 0.222865 -4.60261 0
M  V30 19527 H 1776.61 0.359255 -4.14847 0
M  V30 19528 H 1779.21 3.13451 -4.33189 0
M  V30 19529 H 1779.55 3.23333 -2.62224 0
M  V30 19530 H 1780.08 1.80649 -3.54416 0
M  V30 19531 H 1776.82 1.11147 -6.46008 0
M  V30 19532 H 1776.34 2.49703 -5.45352 0
M  V30 19533 H 1778.02 2.348 -6.02891 0
M  V30 19534 N 1778.15 1.48666 0.52309 0
M  V30 19535 C 1779.4 1.58244 1.2779 0
M  V30 19536 C 1779.76 0.256032 1.90689 0
M  V30 19537 O 1779.05 -0.741766 1.76659 0
M  V30 19538 C 1779.24 2.66247 2.38426 0
M  V30 19539 C 1779.07 4.09261 1.86374 0
M  V30 19540 C 1777.84 4.76319 1.68667 0
M  V30 19541 C 1780.04 4.95208 1.38829 0
M  V30 19542 N 1778.02 6.03724 1.11312 0
M  V30 19543 C 1779.39 6.12915 0.934653 0
M  V30 19544 C 1781.45 4.81379 1.27195 0
M  V30 19545 C 1780.15 7.18315 0.376219 0
M  V30 19546 C 1782.18 5.86908 0.727511 0
M  V30 19547 C 1781.54 7.03827 0.283989 0
M  V30 19548 H 1777.64 0.633565 0.458387 0
M  V30 19549 H 1780.22 1.85577 0.588992 0
M  V30 19550 H 1778.39 2.40725 3.04805 0
M  V30 19551 H 1780.12 2.65472 3.05462 0
M  V30 19552 H 1776.88 4.32761 1.92392 0
M  V30 19553 H 1777.3 6.7169 0.846247 0
M  V30 19554 H 1781.95 3.9132 1.60089 0
M  V30 19555 H 1779.66 8.08092 0.0349696 0
M  V30 19556 H 1783.25 5.78263 0.640583 0
M  V30 19557 H 1782.13 7.84091 -0.13074 0
M  V30 19558 N 1779.63 -0.772489 1.37369 0
M  V30 19559 C 1781.04 -1.34873 1.29098 0
M  V30 19560 C 1781.39 -1.96103 -0.0617433 0
M  V30 19561 O 1780.52 -1.93764 -0.963562 0
M  V30 19562 C 1781.11 -2.45218 2.33781 0
M  V30 19563 C 1779.67 -2.98612 2.29146 0
M  V30 19564 C 1778.82 -1.71823 2.17651 0
M  V30 19565 H 1781.77 -0.572805 1.48002 0
M  V30 19566 H 1781.79 -3.24679 1.98404 0
M  V30 19567 H 1781.3 -2.00624 3.32222 0
M  V30 19568 H 1779.41 -3.47583 1.34225 0
M  V30 19569 H 1779.52 -3.54276 3.22529 0
M  V30 19570 H 1777.88 -1.94719 1.64185 0
M  V30 19571 H 1778.67 -1.29334 3.18006 0
M  V30 19572 N 1781.11 -1.21927 -0.998575 0
M  V30 19573 C 1782.34 -1.06735 -1.77827 0
M  V30 19574 C 1782.76 0.378154 -1.8426 0
M  V30 19575 O 1782.12 1.27301 -1.2909 0
M  V30 19576 C 1782.17 -1.67662 -3.19252 0
M  V30 19577 O 1781.27 -0.926448 -4.01859 0
M  V30 19578 H 1780.61 -0.375241 -0.547805 0
M  V30 19579 H 1783.14 -1.61605 -1.25478 0
M  V30 19580 H 1783.15 -1.72151 -3.69903 0
M  V30 19581 H 1781.83 -2.72854 -3.13885 0
M  V30 19582 H 1780.4 -0.957145 -3.60407 0
M  V30 19583 N 1782.59 1.19452 -1.02805 0
M  V30 19584 C 1783.84 1.8874 -0.722599 0
M  V30 19585 C 1784.16 1.79957 0.751028 0
M  V30 19586 O 1783.43 1.20949 1.54104 0
M  V30 19587 H 1782.01 0.698683 -0.264294 0
M  V30 19588 H 1784.67 1.45021 -1.30211 0
M  V30 19589 H 1783.77 2.95094 -1.01617 0
M  V30 19590 N 1784.07 0.805805 1.35442 0
M  V30 19591 C 1785.31 0.385046 1.98398 0
M  V30 19592 C 1785.64 -1.05114 1.64244 0
M  V30 19593 O 1784.91 -1.72711 0.924532 0
M  V30 19594 H 1783.49 0.139386 0.733881 0
M  V30 19595 H 1786.15 1.03147 1.65368 0
M  V30 19596 H 1785.24 0.490126 3.08227 0
M  V30 19597 N 1785.54 -1.47344 0.559239 0
M  V30 19598 C 1786.48 -2.28095 -0.224826 0
M  V30 19599 C 1787.49 -1.37127 -0.877492 0
M  V30 19600 O 1788.68 -1.61933 -0.751002 0
M  V30 19601 C 1785.78 -3.1145 -1.33611 0
M  V30 19602 C 1784.95 -4.30392 -0.779845 0
M  V30 19603 C 1784.01 -4.95327 -1.77587 0
M  V30 19604 O 1783.04 -5.53654 -1.32119 0
M  V30 19605 N 1784.24 -4.90206 -3.10931 0
M  V30 19606 H 1787 -2.96026 0.46786 0
M  V30 19607 H 1784.56 -1.56996 0.395448 0
M  V30 19608 H 1786.56 -3.51758 -2.00121 0
M  V30 19609 H 1785.13 -2.45749 -1.932 0
M  V30 19610 H 1784.35 -3.94151 0.0620861 0
M  V30 19611 H 1785.63 -5.07322 -0.387581 0
M  V30 19612 H 1785.03 -4.44022 -3.50515 0
M  V30 19613 H 1783.59 -5.34527 -3.72994 0
M  V30 19614 N 1787.02 -0.295795 -1.54799 0
M  V30 19615 C 1787.96 0.624485 -2.19489 0
M  V30 19616 C 1788.93 1.1368 -1.16257 0
M  V30 19617 O 1790.12 1.20596 -1.44875 0
M  V30 19618 C 1787.24 1.85387 -2.8346 0
M  V30 19619 C 1786.29 1.47524 -4.00173 0
M  V30 19620 S 1787.12 0.535637 -5.32814 0
M  V30 19621 C 1788.28 1.77293 -6.00265 0
M  V30 19622 H 1788.51 0.0748912 -2.97206 0
M  V30 19623 H 1786.05 -0.0799541 -1.54193 0
M  V30 19624 H 1788 2.55941 -3.20943 0
M  V30 19625 H 1786.66 2.37462 -2.05598 0
M  V30 19626 H 1785.86 2.39058 -4.43697 0
M  V30 19627 H 1785.46 0.849697 -3.6422 0
M  V30 19628 H 1787.75 2.7142 -6.20756 0
M  V30 19629 H 1788.69 1.38035 -6.94516 0
M  V30 19630 H 1789.1 1.94728 -5.2985 0
M  V30 19631 N 1788.5 1.57583 -0.0234236 0
M  V30 19632 C 1789.73 1.95861 0.666797 0
M  V30 19633 C 1790.14 0.899616 1.65989 0
M  V30 19634 O 1789.5 -0.119162 1.82111 0
M  V30 19635 C 1789.55 3.34198 1.37818 0
M  V30 19636 O 1789.27 4.36035 0.424887 0
M  V30 19637 C 1790.77 3.87074 2.16075 0
M  V30 19638 H 1787.99 0.645213 0.184233 0
M  V30 19639 H 1790.54 2.04338 -0.0814987 0
M  V30 19640 H 1788.69 3.26958 2.07792 0
M  V30 19641 H 1789.11 5.162 0.929394 0
M  V30 19642 H 1790.58 4.8623 2.61312 0
M  V30 19643 H 1791.06 3.21017 2.99741 0
M  V30 19644 H 1791.66 3.97565 1.5107 0
M  V30 19645 N 1789.98 -0.249655 1.5561 0
M  V30 19646 C 1791.23 -0.979529 1.77576 0
M  V30 19647 C 1791.56 -1.85078 0.588198 0
M  V30 19648 O 1790.83 -1.90052 -0.4136 0
M  V30 19649 C 1791.12 -1.84238 3.094 0
M  V30 19650 C 1790.97 -0.9995 4.38554 0
M  V30 19651 C 1792.29 -2.82536 3.37433 0
M  V30 19652 H 1789.41 -0.354681 0.646042 0
M  V30 19653 H 1792.05 -0.250224 1.88345 0
M  V30 19654 H 1790.2 -2.46419 3.0035 0
M  V30 19655 H 1791.87 -0.396599 4.59592 0
M  V30 19656 H 1790.11 -0.30376 4.32735 0
M  V30 19657 H 1790.79 -1.63697 5.27169 0
M  V30 19658 H 1793.26 -2.30491 3.46429 0
M  V30 19659 H 1792.14 -3.40033 4.30893 0
M  V30 19660 H 1792.4 -3.58859 2.58211 0
M  V30 19661 N 1791.46 -1.48941 -0.515198 0
M  V30 19662 C 1792.4 -1.64561 -1.61828 0
M  V30 19663 C 1793.37 -0.487323 -1.5879 0
M  V30 19664 O 1794.56 -0.712626 -1.76992 0
M  V30 19665 C 1791.7 -1.70506 -3.00036 0
M  V30 19666 C 1790.81 -2.97543 -3.13197 0
M  V30 19667 C 1789.95 -2.94555 -4.42053 0
M  V30 19668 C 1788.99 -4.16232 -4.48795 0
M  V30 19669 N 1788.12 -4.11236 -5.6906 0
M  V30 19670 H 1792.96 -2.58754 -1.47818 0
M  V30 19671 H 1790.5 -1.28307 -0.719423 0
M  V30 19672 H 1792.46 -1.71934 -3.80125 0
M  V30 19673 H 1791.09 -0.797907 -3.12783 0
M  V30 19674 H 1790.14 -3.05792 -2.26264 0
M  V30 19675 H 1791.45 -3.87532 -3.14039 0
M  V30 19676 H 1790.61 -2.94466 -5.30447 0
M  V30 19677 H 1789.35 -2.0232 -4.43754 0
M  V30 19678 H 1788.35 -4.1658 -3.58805 0
M  V30 19679 H 1789.58 -5.09644 -4.48821 0
M  V30 19680 H 1787.52 -3.2183 -5.7163 0
M  V30 19681 H 1787.44 -4.94945 -5.71459 0
M  V30 19682 H 1788.71 -4.15229 -6.59701 0
M  V30 19683 N 1792.94 0.765193 -1.37777 0
M  V30 19684 C 1794.21 1.51374 -1.23876 0
M  V30 19685 C 1794.59 2.10455 0.164852 0
M  V30 19686 O 1793.94 1.96084 1.17318 0
M  V30 19687 C 1794.15 2.58939 -2.33991 0
M  V30 19688 C 1795.5 3.26162 -2.71852 0
M  V30 19689 O 1796.52 2.69238 -2.33216 0
M  V30 19690 O 1795.38 4.29094 -3.38438 0
M  V30 19691 H 1792.48 0.670749 -0.48376 0
M  V30 19692 H 1795.02 0.801597 -1.49574 0
M  V30 19693 H 1793.79 2.13448 -3.27957 0
M  V30 19694 H 1793.42 3.37747 -2.09793 0
M  V30 19695 N 1794.41 1.22455 0.992094 0
M  V30 19696 C 1795.34 1.01961 2.10063 0
M  V30 19697 C 1796.32 -0.0597186 1.69995 0
M  V30 19698 O 1797.51 0.102655 1.93928 0
M  V30 19699 C 1794.64 0.597442 3.42123 0
M  V30 19700 C 1793.59 1.62279 3.96042 0
M  V30 19701 C 1792.92 1.05644 5.2416 0
M  V30 19702 C 1794.22 3.01296 4.26635 0
M  V30 19703 H 1795.91 1.94678 2.27466 0
M  V30 19704 H 1793.46 0.937422 1.09309 0
M  V30 19705 H 1795.41 0.441175 4.19084 0
M  V30 19706 H 1794.14 -0.365401 3.24549 0
M  V30 19707 H 1792.8 1.76685 3.21213 0
M  V30 19708 H 1792.44 0.0849267 5.02928 0
M  V30 19709 H 1792.14 1.74144 5.61202 0
M  V30 19710 H 1793.67 0.911774 6.03754 0
M  V30 19711 H 1795.08 2.9026 4.94391 0
M  V30 19712 H 1793.48 3.66928 4.74852 0
M  V30 19713 H 1794.55 3.51168 3.34378 0
M  V30 19714 N 1795.89 -1.18905 1.03437 0
M  V30 19715 C 1797.12 -1.92678 0.753853 0
M  V30 19716 C 1797.53 -1.75814 -0.688111 0
M  V30 19717 O 1796.89 -1.08363 -1.46846 0
M  V30 19718 C 1796.94 -3.44275 1.10258 0
M  V30 19719 O 1796.66 -3.60602 2.48793 0
M  V30 19720 C 1798.16 -4.35159 0.84566 0
M  V30 19721 H 1795.38 -0.611875 0.275408 0
M  V30 19722 H 1797.93 -1.50887 1.38034 0
M  V30 19723 H 1796.08 -3.83878 0.521177 0
M  V30 19724 H 1796.5 -4.54403 2.61951 0
M  V30 19725 H 1797.97 -5.40109 1.13958 0
M  V30 19726 H 1798.45 -4.3865 -0.219767 0
M  V30 19727 H 1799.05 -4.01245 1.41006 0
M  V30 19728 N 1797.37 -0.812977 -1.35013 0
M  V30 19729 C 1798.33 -0.233373 -2.28009 0
M  V30 19730 C 1799.33 0.58298 -1.4986 0
M  V30 19731 O 1800.52 0.400533 -1.69533 0
M  V30 19732 C 1797.65 0.673931 -3.34172 0
M  V30 19733 H 1798.85 -1.05366 -2.80781 0
M  V30 19734 H 1796.4 -0.584097 -1.44976 0
M  V30 19735 H 1797.14 1.51766 -2.86597 0
M  V30 19736 H 1796.92 0.0901848 -3.91996 0
M  V30 19737 H 1798.41 1.07358 -4.03564 0
M  V30 19738 N 1798.85 1.47045 -0.567045 0
M  V30 19739 C 1799.79 2.30135 0.175115 0
M  V30 19740 C 1800.76 1.39665 0.899049 0
M  V30 19741 O 1801.95 1.68623 0.892809 0
M  V30 19742 C 1799.09 3.23827 1.19289 0
M  V30 19743 C 1798.2 4.29392 0.474011 0
M  V30 19744 C 1797.34 5.10226 1.47793 0
M  V30 19745 C 1796.38 6.07554 0.744584 0
M  V30 19746 N 1795.51 6.81313 1.69581 0
M  V30 19747 H 1800.35 2.93075 -0.539529 0
M  V30 19748 H 1797.89 1.44451 -0.277889 0
M  V30 19749 H 1799.85 3.76579 1.79567 0
M  V30 19750 H 1798.48 2.6273 1.87544 0
M  V30 19751 H 1797.53 3.7962 -0.243494 0
M  V30 19752 H 1798.84 4.987 -0.100022 0
M  V30 19753 H 1798 5.67176 2.15397 0
M  V30 19754 H 1796.74 4.40842 2.08589 0
M  V30 19755 H 1795.74 5.49773 0.0546832 0
M  V30 19756 H 1796.97 6.78951 0.142235 0
M  V30 19757 H 1794.91 6.14651 2.29216 0
M  V30 19758 H 1794.83 7.46826 1.17418 0
M  V30 19759 H 1796.1 7.42831 2.36268 0
M  V30 19760 N 1800.33 0.304 1.5464 0
M  V30 19761 C 1801.56 -0.306471 2.04314 0
M  V30 19762 C 1801.96 -1.47839 1.18069 0
M  V30 19763 O 1801.31 -1.82612 0.199666 0
M  V30 19764 C 1801.37 -0.822694 3.4996 0
M  V30 19765 C 1801.03 0.224343 4.56449 0
M  V30 19766 C 1802.03 1.05382 5.09108 0
M  V30 19767 C 1799.71 0.366905 5.00958 0
M  V30 19768 C 1801.71 2.01176 6.0482 0
M  V30 19769 C 1799.4 1.32829 5.96489 0
M  V30 19770 C 1800.39 2.1492 6.48304 0
M  V30 19771 O 1800.08 3.09429 7.41963 0
M  V30 19772 H 1799.81 -0.0701033 0.672355 0
M  V30 19773 H 1802.37 0.442449 2.00578 0
M  V30 19774 H 1800.6 -1.62219 3.5103 0
M  V30 19775 H 1802.29 -1.34938 3.82814 0
M  V30 19776 H 1803.05 0.954561 4.75514 0
M  V30 19777 H 1798.93 -0.262121 4.60254 0
M  V30 19778 H 1802.48 2.65291 6.45187 0
M  V30 19779 H 1798.37 1.42826 6.29501 0
M  V30 19780 H 1799.14 3.04442 7.59774 0
M  V30 19781 N 1801.8 -1.57568 0.0317802 0
M  V30 19782 C 1803.03 -1.96212 -0.656401 0
M  V30 19783 C 1803.45 -0.908406 -1.6551 0
M  V30 19784 O 1802.8 0.109502 -1.82171 0
M  V30 19785 C 1802.85 -3.34924 -1.36044 0
M  V30 19786 O 1802.58 -4.36254 -0.401757 0
M  V30 19787 C 1804.08 -3.88215 -2.14019 0
M  V30 19788 H 1801.3 -0.646181 -0.180808 0
M  V30 19789 H 1803.84 -2.04291 0.0923341 0
M  V30 19790 H 1802 -3.28055 -2.06055 0
M  V30 19791 H 1802.41 -5.16686 -0.902005 0
M  V30 19792 H 1803.88 -4.87609 -2.5873 0
M  V30 19793 H 1804.36 -3.22602 -2.98034 0
M  V30 19794 H 1804.97 -3.98361 -1.4896 0
M  V30 19795 N 1803.28 0.241399 -1.5574 0
M  V30 19796 C 1804.19 1.32034 -1.93918 0
M  V30 19797 C 1805.21 1.52363 -0.840331 0
M  V30 19798 O 1806.38 1.65879 -1.1422 0
M  V30 19799 C 1803.45 2.6539 -2.2309 0
M  V30 19800 C 1802.51 2.53536 -3.46436 0
M  V30 19801 C 1801.74 3.80532 -3.74208 0
M  V30 19802 O 1801.97 4.82662 -3.03964 0
M  V30 19803 O 1800.9 3.78834 -4.67727 0
M  V30 19804 H 1804.73 1.02647 -2.85827 0
M  V30 19805 H 1802.31 0.442616 -1.42693 0
M  V30 19806 H 1804.19 3.44184 -2.43137 0
M  V30 19807 H 1802.87 2.94499 -1.34358 0
M  V30 19808 H 1801.78 1.73009 -3.3169 0
M  V30 19809 H 1803.11 2.29371 -4.35488 0
M  V30 19810 N 1804.76 1.49212 0.507292 0
M  V30 19811 C 1806.01 1.58068 1.25932 0
M  V30 19812 C 1806.33 0.266461 1.93171 0
M  V30 19813 O 1805.6 -0.713743 1.82435 0
M  V30 19814 H 1804.18 0.582384 0.467801 0
M  V30 19815 H 1806.84 1.85804 0.58847 0
M  V30 19816 H 1805.94 2.37351 2.0266 0
M  V30 19817 N 1806.24 -0.757876 1.38181 0
M  V30 19818 C 1807.49 -1.51388 1.33888 0
M  V30 19819 C 1807.81 -1.94867 -0.0718767 0
M  V30 19820 O 1807.08 -1.67329 -1.01871 0
M  V30 19821 H 1805.66 -0.561534 0.492634 0
M  V30 19822 H 1808.32 -0.901156 1.72815 0
M  V30 19823 H 1807.42 -2.4068 1.98695 0
M  V30 19824 N 1807.72 -1.22979 -0.985586 0
M  V30 19825 C 1808.66 -1.00374 -2.09828 0
M  V30 19826 C 1809.66 0.0555734 -1.69309 0
M  V30 19827 O 1810.86 -0.0974909 -1.79736 0
M  V30 19828 H 1807.24 -0.307451 -0.686278 0
M  V30 19829 H 1809.21 -1.94776 -2.26064 0
M  V30 19830 C 1807.96 -0.606018 -3.42378 0
M  V30 19831 H 1807.28 -1.41284 -3.74004 0
M  V30 19832 H 1808.72 -0.487318 -4.2119 0
M  V30 19833 C 1807.18 0.685197 -3.29859 0
M  V30 19834 O 1807.71 1.73572 -3.62265 0
M  V30 19835 N 1805.92 0.65914 -2.83026 0
M  V30 19836 H 1805.46 -0.196071 -2.56853 0
M  V30 19837 H 1805.42 1.52332 -2.75031 0
M  V30 19838 N 1809.19 1.18355 -1.04066 0
M  V30 19839 C 1810.16 2.20195 -0.636148 0
M  V30 19840 C 1811.16 1.57853 0.306457 0
M  V30 19841 O 1812.35 1.73958 0.0918576 0
M  V30 19842 C 1809.48 3.40833 0.0673423 0
M  V30 19843 H 1810.67 2.57497 -1.53738 0
M  V30 19844 H 1808.23 1.32239 -0.833214 0
M  V30 19845 H 1808.96 3.09063 0.982371 0
M  V30 19846 H 1808.75 3.87324 -0.610145 0
M  V30 19847 H 1810.24 4.16239 0.336869 0
M  V30 19848 N 1810.67 0.820125 1.3458 0
M  V30 19849 C 1811.92 0.403287 1.97627 0
M  V30 19850 C 1812.23 -1.0385 1.65754 0
M  V30 19851 O 1813.44 -1.55911 2.2227 0
M  V30 19852 C 1811.9 0.670161 3.53606 0
M  V30 19853 C 1811.5 2.12538 3.94375 0
M  V30 19854 C 1813.25 0.31935 4.23297 0
M  V30 19855 C 1811.16 2.3373 5.43254 0
M  V30 19856 H 1810.09 0.147062 0.739519 0
M  V30 19857 H 1812.74 1.00609 1.53461 0
M  V30 19858 H 1811.12 -0.00276896 3.96 0
M  V30 19859 H 1812.29 2.83724 3.63094 0
M  V30 19860 H 1810.61 2.43736 3.37612 0
M  V30 19861 H 1813.2 0.45555 5.32756 0
M  V30 19862 H 1813.55 -0.735875 4.09745 0
M  V30 19863 H 1814.08 0.946743 3.8637 0
M  V30 19864 H 1810.82 3.37747 5.61789 0
M  V30 19865 H 1810.34 1.67084 5.76058 0
M  V30 19866 H 1812.02 2.1595 6.09897 0
M  V30 19867 N 1812.15 -1.46743 0.574835 0
M  V30 19868 C 1813.08 -2.33012 -0.150836 0
M  V30 19869 C 1814.06 -1.44868 -0.891472 0
M  V30 19870 O 1815.25 -1.73698 -0.868481 0
M  V30 19871 C 1812.38 -3.26995 -1.17012 0
M  V30 19872 C 1811.33 -4.24518 -0.544829 0
M  V30 19873 C 1810.66 -5.07951 -1.67002 0
M  V30 19874 C 1811.96 -5.19776 0.512891 0
M  V30 19875 H 1813.65 -2.93935 0.569433 0
M  V30 19876 H 1811.2 -1.41344 0.275289 0
M  V30 19877 H 1813.15 -3.86198 -1.68609 0
M  V30 19878 H 1811.87 -2.64163 -1.92056 0
M  V30 19879 H 1810.53 -3.66566 -0.0500133 0
M  V30 19880 H 1810.18 -4.4151 -2.40993 0
M  V30 19881 H 1809.88 -5.73991 -1.25732 0
M  V30 19882 H 1811.4 -5.70017 -2.1889 0
M  V30 19883 H 1812.82 -5.73241 0.0823064 0
M  V30 19884 H 1811.22 -5.94114 0.845462 0
M  V30 19885 H 1812.29 -4.64184 1.40217 0
M  V30 19886 N 1813.63 -0.312197 -1.54477 0
M  V30 19887 C 1814.54 0.568096 -2.27618 0
M  V30 19888 C 1815.55 1.13892 -1.31547 0
M  V30 19889 O 1816.73 1.16131 -1.64546 0
M  V30 19890 C 1813.8 1.71843 -3.01116 0
M  V30 19891 C 1812.86 1.18056 -4.12748 0
M  V30 19892 C 1812.09 2.27607 -4.82733 0
M  V30 19893 O 1812.31 3.4773 -4.52151 0
M  V30 19894 O 1811.25 1.93667 -5.69892 0
M  V30 19895 H 1815.07 -0.0255513 -3.03689 0
M  V30 19896 H 1812.66 -0.0782698 -1.49195 0
M  V30 19897 H 1814.54 2.38839 -3.4718 0
M  V30 19898 H 1813.21 2.29847 -2.2793 0
M  V30 19899 H 1812.12 0.476007 -3.71059 0
M  V30 19900 H 1813.45 0.645802 -4.87945 0
M  V30 19901 N 1815.11 1.57549 -0.040136 0
M  V30 19902 C 1816.05 2.12048 0.955943 0
M  V30 19903 C 1817.05 1.04965 1.32962 0
M  V30 19904 O 1818.25 1.23387 1.31056 0
M  V30 19905 H 1814.63 0.677616 0.326099 0
M  V30 19906 H 1816.6 2.94658 0.471075 0
M  V30 19907 C 1815.35 2.67157 2.22537 0
M  V30 19908 H 1814.67 3.4921 1.9466 0
M  V30 19909 H 1816.11 3.08924 2.90417 0
M  V30 19910 C 1814.57 1.60413 2.96259 0
M  V30 19911 O 1815.1 1.01042 3.88785 0
M  V30 19912 N 1813.31 1.32196 2.58791 0
M  V30 19913 H 1812.85 1.80663 1.83626 0
M  V30 19914 H 1812.81 0.610023 3.08425 0
M  V30 19915 N 1816.58 -0.233136 1.55866 0
M  V30 19916 C 1817.83 -0.957205 1.7754 0
M  V30 19917 C 1818.15 -1.85956 0.606601 0
M  V30 19918 O 1819.35 -2.62142 0.706687 0
M  V30 19919 C 1817.81 -1.75215 3.14369 0
M  V30 19920 C 1817.42 -0.896509 4.38938 0
M  V30 19921 C 1819.16 -2.46813 3.45374 0
M  V30 19922 C 1817.07 -1.68814 5.66794 0
M  V30 19923 H 1816 -0.361139 0.661887 0
M  V30 19924 H 1818.65 -0.211424 1.82278 0
M  V30 19925 H 1817.03 -2.54041 3.03775 0
M  V30 19926 H 1818.2 -0.149614 4.60557 0
M  V30 19927 H 1816.52 -0.293211 4.15366 0
M  V30 19928 H 1819.12 -3.0652 4.38121 0
M  V30 19929 H 1819.46 -3.19121 2.67334 0
M  V30 19930 H 1819.99 -1.74987 3.57245 0
M  V30 19931 H 1816.73 -1.00855 6.47695 0
M  V30 19932 H 1816.25 -2.40995 5.49255 0
M  V30 19933 H 1817.93 -2.25178 6.06551 0
M  V30 19934 N 1818.06 -1.49479 -0.499372 0
M  V30 19935 C 1819.29 -1.63025 -1.28209 0
M  V30 19936 C 1819.71 -0.302238 -1.85656 0
M  V30 19937 O 1819.07 0.730355 -1.65938 0
M  V30 19938 C 1819.12 -2.70287 -2.38699 0
M  V30 19939 O 1818.22 -2.29573 -3.42593 0
M  V30 19940 H 1817.56 -0.545605 -0.378432 0
M  V30 19941 H 1820.09 -1.95677 -0.597628 0
M  V30 19942 H 1820.1 -2.92505 -2.84438 0
M  V30 19943 H 1818.78 -3.66684 -1.96253 0
M  V30 19944 H 1817.36 -2.17692 -3.02761 0
M  V30 19945 N 1819.54 0.750537 -1.38581 0
M  V30 19946 C 1820.79 1.50974 -1.34956 0
M  V30 19947 C 1821.12 1.94409 0.0594396 0
M  V30 19948 O 1820.37 1.65957 1.03715 0
M  V30 19949 C 1820.67 2.77356 -2.25407 0
M  V30 19950 C 1820.34 2.52868 -3.73321 0
M  V30 19951 C 1819 2.45899 -4.13627 0
M  V30 19952 C 1821.35 2.31554 -4.66939 0
M  V30 19953 C 1818.68 2.15635 -5.45636 0
M  V30 19954 C 1821.03 2.02811 -5.99208 0
M  V30 19955 C 1819.69 1.943 -6.38595 0
M  V30 19956 H 1818.96 0.552453 -0.493838 0
M  V30 19957 H 1821.61 0.862769 -1.70964 0
M  V30 19958 H 1819.92 3.46719 -1.82465 0
M  V30 19959 H 1821.61 3.35326 -2.19904 0
M  V30 19960 H 1818.2 2.59165 -3.41367 0
M  V30 19961 H 1822.39 2.35916 -4.36643 0
M  V30 19962 H 1817.64 2.07556 -5.75092 0
M  V30 19963 H 1821.82 1.85323 -6.71289 0
M  V30 19964 H 1819.44 1.70614 -7.40807 0
M  V30 19965 N 1821.02 1.235 0.979051 0
M  V30 19966 C 1822.24 1.09551 1.76106 0
M  V30 19967 C 1822.67 -0.348792 1.84838 0
M  V30 19968 O 1822.03 -1.25231 1.31099 0
M  V30 19969 C 1822.08 1.7272 3.16544 0
M  V30 19970 O 1821.18 0.990263 4.00334 0
M  V30 19971 H 1820.52 0.383909 0.541766 0
M  V30 19972 H 1823.05 1.63581 1.22892 0
M  V30 19973 H 1823.06 1.78014 3.67117 0
M  V30 19974 H 1821.74 2.77813 3.09504 0
M  V30 19975 H 1820.31 1.01436 3.58839 0
M  V30 19976 N 1822.5 -1.17802 1.04693 0
M  V30 19977 C 1823.75 -1.87271 0.749172 0
M  V30 19978 C 1824.06 -1.81614 -0.726342 0
M  V30 19979 O 1825.27 -2.46506 -1.13785 0
M  V30 19980 C 1823.72 -3.35992 1.28986 0
M  V30 19981 C 1823.33 -3.50163 2.79446 0
M  V30 19982 C 1825.07 -4.10821 1.06892 0
M  V30 19983 C 1822.98 -4.92878 3.26841 0
M  V30 19984 H 1821.91 -0.701451 0.276554 0
M  V30 19985 H 1824.56 -1.33065 1.26357 0
M  V30 19986 H 1822.94 -3.89705 0.703298 0
M  V30 19987 H 1824.12 -3.06692 3.43914 0
M  V30 19988 H 1822.43 -2.88747 3.00023 0
M  V30 19989 H 1825.03 -5.16098 1.39809 0
M  V30 19990 H 1825.37 -4.163 0.00644311 0
M  V30 19991 H 1825.91 -3.633 1.62043 0
M  V30 19992 H 1822.64 -4.92572 4.32497 0
M  V30 19993 H 1822.16 -5.3704 2.67112 0
M  V30 19994 H 1823.84 -5.61624 3.21227 0
M  V30 19995 N 1823.98 -0.827251 -1.34143 0
M  V30 19996 C 1825.2 -0.429514 -2.02904 0
M  V30 19997 C 1825.63 0.958033 -1.61874 0
M  V30 19998 O 1824.98 1.62422 -0.805528 0
M  V30 19999 C 1825.03 -0.544592 -3.56464 0
M  V30 20000 O 1824.14 0.433849 -4.10112 0
M  V30 20001 H 1823.48 -0.176216 -0.64019 0
M  V30 20002 H 1826.01 -1.11887 -1.71297 0
M  V30 20003 H 1826.02 -0.421949 -4.05812 0
M  V30 20004 H 1824.69 -1.55657 -3.85673 0
M  V30 20005 H 1823.27 0.269729 -3.71923 0
M  V30 20006 N 1825.45 1.46436 -0.582609 0
M  V30 20007 C 1826.86 1.86047 -0.156012 0
M  V30 20008 C 1827.22 1.48619 1.28089 0
M  V30 20009 O 1826.34 0.90104 1.96749 0
M  V30 20010 C 1826.94 3.37671 -0.276358 0
M  V30 20011 C 1825.49 3.76279 0.0953682 0
M  V30 20012 C 1824.64 2.70454 -0.612348 0
M  V30 20013 H 1827.59 1.37592 -0.790834 0
M  V30 20014 H 1827.61 3.77223 0.498312 0
M  V30 20015 H 1827.13 3.64881 -1.32225 0
M  V30 20016 H 1825.23 3.54687 1.1414 0
M  V30 20017 H 1825.34 4.78276 -0.280881 0
M  V30 20018 H 1823.7 2.54646 -0.0526182 0
M  V30 20019 H 1824.49 3.00504 -1.65989 0
M  V30 20020 N 1826.93 0.320385 1.54309 0
M  V30 20021 C 1828.18 -0.282584 2.00115 0
M  V30 20022 C 1828.5 -1.52904 1.21018 0
M  V30 20023 O 1827.77 -1.93413 0.311163 0
M  V30 20024 H 1826.35 -0.107406 0.739238 0
M  V30 20025 H 1829.01 0.436196 1.89956 0
M  V30 20026 H 1828.11 -0.541189 3.07372 0
M  V30 20027 N 1828.41 -1.57525 0.0484906 0
M  V30 20028 C 1829.34 -2.08313 -0.955941 0
M  V30 20029 C 1830.35 -1.01042 -1.2765 0
M  V30 20030 O 1831.54 -1.28615 -1.23776 0
M  V30 20031 C 1828.64 -2.509 -2.27821 0
M  V30 20032 C 1827.82 -3.81476 -2.13997 0
M  V30 20033 C 1826.88 -4.10404 -3.29325 0
M  V30 20034 O 1825.9 -4.80366 -3.05348 0
M  V30 20035 N 1827.1 -3.62104 -4.53719 0
M  V30 20036 H 1829.87 -2.95111 -0.522472 0
M  V30 20037 H 1827.43 -1.61312 -0.137816 0
M  V30 20038 H 1829.42 -2.6733 -3.03837 0
M  V30 20039 H 1827.99 -1.69365 -2.62744 0
M  V30 20040 H 1827.21 -3.74654 -1.22589 0
M  V30 20041 H 1828.5 -4.6699 -2.01985 0
M  V30 20042 H 1827.9 -3.05541 -4.7609 0
M  V30 20043 H 1826.45 -3.83778 -5.26838 0
M  V30 20044 N 1829.89 0.224867 -1.55988 0
M  V30 20045 C 1831.3 0.574415 -1.48905 0
M  V30 20046 C 1831.5 1.87303 -0.74296 0
M  V30 20047 O 1830.56 2.50929 -0.28127 0
M  V30 20048 C 1831.87 0.656717 -2.93441 0
M  V30 20049 C 1833.42 0.747568 -3.03941 0
M  V30 20050 C 1833.9 0.861243 -4.4983 0
M  V30 20051 N 1835.39 0.92555 -4.53859 0
M  V30 20052 C 1836.12 1.03316 -5.64015 0
M  V30 20053 N 1835.62 1.10492 -6.83932 0
M  V30 20054 N 1837.41 1.06804 -5.5186 0
M  V30 20055 H 1829.56 -0.627339 -2.02924 0
M  V30 20056 H 1831.82 -0.219656 -0.922201 0
M  V30 20057 H 1831.53 -0.227845 -3.50961 0
M  V30 20058 H 1831.4 1.52142 -3.45156 0
M  V30 20059 H 1833.79 1.62257 -2.46489 0
M  V30 20060 H 1833.87 -0.142737 -2.55401 0
M  V30 20061 H 1833.52 -0.00929123 -5.07899 0
M  V30 20062 H 1833.45 1.76692 -4.96072 0
M  V30 20063 H 1835.94 0.880541 -3.67498 0
M  V30 20064 H 1836.25 1.18672 -7.63634 0
M  V30 20065 H 1834.6 1.07411 -6.8665 0
M  V30 20066 H 1837.79 1.0086 -4.57105 0
M  V30 20067 H 1837.96 1.14845 -6.37742 0
M  V30 20068 N 1831.37 1.49742 0.491438 0
M  V30 20069 C 1832.61 1.59947 1.24679 0
M  V30 20070 C 1832.94 0.289598 1.92029 0
M  V30 20071 O 1832.22 -0.707544 1.81174 0
M  V30 20072 C 1832.5 2.7655 2.30634 0
M  V30 20073 C 1832.36 4.1736 1.67723 0
M  V30 20074 C 1833.67 2.88764 3.3212 0
M  V30 20075 H 1830.79 0.582173 0.451934 0
M  V30 20076 H 1833.44 1.8206 0.543517 0
M  V30 20077 H 1831.59 2.57826 2.90616 0
M  V30 20078 H 1833.26 4.47623 1.11495 0
M  V30 20079 H 1831.5 4.22562 0.981 0
M  V30 20080 H 1832.17 4.94838 2.44621 0
M  V30 20081 H 1834.65 3.05838 2.82139 0
M  V30 20082 H 1833.52 3.7201 4.03608 0
M  V30 20083 H 1833.78 1.98517 3.95023 0
M  V30 20084 N 1832.84 -0.743177 1.38977 0
M  V30 20085 C 1834.09 -1.49959 1.35486 0
M  V30 20086 C 1834.41 -1.94933 -0.0512044 0
M  V30 20087 O 1833.68 -1.684 -1.0009 0
M  V30 20088 H 1832.26 -0.556277 0.498562 0
M  V30 20089 H 1834.93 -0.882776 1.73762 0
M  V30 20090 H 1834.02 -2.38559 2.01237 0
M  V30 20091 N 1834.32 -1.24018 -0.972487 0
M  V30 20092 C 1835.25 -1.0529 -2.08414 0
M  V30 20093 C 1836.23 0.0326663 -1.70069 0
M  V30 20094 O 1837.42 -0.133494 -1.93741 0
M  V30 20095 C 1834.55 -0.651796 -3.41129 0
M  V30 20096 C 1833.5 -1.68559 -3.9341 0
M  V30 20097 C 1832.83 -1.1397 -5.22413 0
M  V30 20098 C 1834.13 -3.08046 -4.21788 0
M  V30 20099 H 1835.82 -1.98272 -2.2434 0
M  V30 20100 H 1833.37 -0.954694 -1.07804 0
M  V30 20101 H 1835.32 -0.507792 -4.18329 0
M  V30 20102 H 1834.05 0.313722 -3.2509 0
M  V30 20103 H 1832.7 -1.81773 -3.18362 0
M  V30 20104 H 1832.35 -0.164928 -5.0273 0
M  V30 20105 H 1832.05 -1.83051 -5.5836 0
M  V30 20106 H 1833.58 -1.00771 -6.02227 0
M  V30 20107 H 1834.99 -2.98088 -4.8971 0
M  V30 20108 H 1833.39 -3.74436 -4.68954 0
M  V30 20109 H 1834.46 -3.56444 -3.28749 0
M  V30 20110 N 1835.8 1.17245 -1.05316 0
M  V30 20111 C 1836.73 2.23491 -0.67631 0
M  V30 20112 C 1837.71 1.66937 0.326507 0
M  V30 20113 O 1838.9 1.93127 0.203823 0
M  V30 20114 C 1836.03 3.47262 -0.0515755 0
M  V30 20115 C 1834.98 4.16646 -0.97929 0
M  V30 20116 C 1834.31 5.34254 -0.218369 0
M  V30 20117 C 1835.61 4.68736 -2.30399 0
M  V30 20118 H 1837.3 2.55269 -1.56455 0
M  V30 20119 H 1834.85 1.22699 -0.753714 0
M  V30 20120 H 1836.8 4.20805 0.223865 0
M  V30 20121 H 1835.52 3.14755 0.871614 0
M  V30 20122 H 1834.18 3.45017 -1.23931 0
M  V30 20123 H 1833.83 4.97998 0.707624 0
M  V30 20124 H 1833.53 5.81615 -0.83654 0
M  V30 20125 H 1835.05 6.1058 0.0497574 0
M  V30 20126 H 1836.47 5.3391 -2.08837 0
M  V30 20127 H 1834.87 5.2668 -2.87625 0
M  V30 20128 H 1835.94 3.85477 -2.94169 0
M  V30 20129 N 1837.28 0.834353 1.33702 0
M  V30 20130 C 1838.53 0.427042 1.97537 0
M  V30 20131 C 1838.85 -1.01607 1.66436 0
M  V30 20132 O 1838.12 -1.70711 0.960958 0
M  V30 20133 H 1836.7 0.154921 0.730759 0
M  V30 20134 H 1839.36 1.06632 1.63143 0
M  V30 20135 H 1838.46 0.555396 3.07118 0
M  V30 20136 N 1838.76 -1.46125 0.590367 0
M  V30 20137 C 1840.17 -1.57588 0.252639 0
M  V30 20138 C 1840.37 -1.58435 -1.24502 0
M  V30 20139 O 1839.43 -1.50541 -2.02716 0
M  V30 20140 C 1840.74 -2.86644 0.908612 0
M  V30 20141 C 1842.29 -3.00289 0.882917 0
M  V30 20142 C 1842.76 -4.32092 1.51858 0
M  V30 20143 N 1844.26 -4.38809 1.48327 0
M  V30 20144 C 1844.99 -5.39426 1.94442 0
M  V30 20145 N 1844.49 -6.46674 2.48565 0
M  V30 20146 N 1846.28 -5.30675 1.85313 0
M  V30 20147 H 1838.43 -1.43819 1.56301 0
M  V30 20148 H 1840.69 -0.686515 0.653759 0
M  V30 20149 H 1840.4 -2.91857 1.96246 0
M  V30 20150 H 1840.27 -3.74838 0.421445 0
M  V30 20151 H 1842.66 -2.94653 -0.16233 0
M  V30 20152 H 1842.74 -2.13551 1.40818 0
M  V30 20153 H 1842.39 -4.38486 2.56306 0
M  V30 20154 H 1842.32 -5.17618 0.968474 0
M  V30 20155 H 1844.81 -3.61907 1.08772 0
M  V30 20156 H 1845.12 -7.19671 2.8159 0
M  V30 20157 H 1843.46 -6.47473 2.52595 0
M  V30 20158 H 1846.66 -4.45793 1.42782 0
M  V30 20159 H 1846.83 -6.08943 2.21567 0
M  V30 20160 N 1840.23 -0.328564 -1.54137 0
M  V30 20161 C 1841.46 0.274326 -2.05073 0
M  V30 20162 C 1841.88 1.45393 -1.20442 0
M  V30 20163 O 1841.23 1.80964 -0.23625 0
M  V30 20164 C 1841.29 0.703941 -3.5458 0
M  V30 20165 O 1841.01 -0.428738 -4.35997 0
M  V30 20166 C 1842.51 1.36912 -4.21628 0
M  V30 20167 H 1839.73 0.0556157 -0.668691 0
M  V30 20168 H 1842.27 -0.476204 -1.98878 0
M  V30 20169 H 1840.43 1.40444 -3.61046 0
M  V30 20170 H 1840.84 -0.0892654 -5.24424 0
M  V30 20171 H 1842.31 1.62062 -5.27674 0
M  V30 20172 H 1842.79 2.31799 -3.73049 0
M  V30 20173 H 1843.4 0.711064 -4.19314 0
M  V30 20174 N 1841.71 1.57497 -0.0568439 0
M  V30 20175 C 1842.96 1.92533 0.614452 0
M  V30 20176 C 1843.28 0.936373 1.71047 0
M  V30 20177 O 1842.55 -0.0178803 1.95892 0
M  V30 20178 H 1841.13 0.710724 0.229958 0
M  V30 20179 H 1843.79 1.94583 -0.111181 0
M  V30 20180 H 1842.89 2.93928 1.04941 0
M  V30 20181 N 1843.19 -0.216591 1.56105 0
M  V30 20182 C 1844.42 -0.961164 1.83784 0
M  V30 20183 C 1844.84 -1.76957 0.637792 0
M  V30 20184 O 1844.2 -1.76523 -0.413449 0
M  V30 20185 C 1844.25 -1.85047 3.095 0
M  V30 20186 O 1843.35 -2.94648 2.88542 0
M  V30 20187 H 1842.69 -0.271885 0.605784 0
M  V30 20188 H 1845.22 -0.228404 2.03321 0
M  V30 20189 H 1845.23 -2.25932 3.39733 0
M  V30 20190 H 1843.91 -1.25633 3.96471 0
M  V30 20191 H 1842.48 -2.57673 2.69554 0
M  V30 20192 N 1844.67 -1.5 -0.48349 0
M  V30 20193 C 1845.92 -1.60052 -1.23401 0
M  V30 20194 C 1846.24 -0.297159 -1.92723 0
M  V30 20195 O 1845.51 0.684629 -1.83547 0
M  V30 20196 H 1844.09 -0.589753 -0.458477 0
M  V30 20197 H 1846.75 -1.86716 -0.558835 0
M  V30 20198 H 1845.85 -2.40545 -1.98858 0
M  V30 20199 N 1846.15 0.735796 -1.39369 0
M  V30 20200 C 1847.09 1.8498 -1.38025 0
M  V30 20201 C 1848.06 1.64356 -0.24007 0
M  V30 20202 O 1849.25 1.85774 -0.435058 0
M  V30 20203 C 1846.39 3.22484 -1.22874 0
M  V30 20204 C 1845.5 3.54819 -2.4643 0
M  V30 20205 C 1844.64 4.8172 -2.23873 0
M  V30 20206 C 1843.68 5.06895 -3.43108 0
M  V30 20207 N 1842.81 6.25 -3.19874 0
M  V30 20208 H 1847.65 1.85463 -2.33254 0
M  V30 20209 H 1845.19 0.906252 -1.15868 0
M  V30 20210 H 1847.15 4.01857 -1.12101 0
M  V30 20211 H 1845.78 3.21281 -0.312759 0
M  V30 20212 H 1844.83 2.70153 -2.67809 0
M  V30 20213 H 1846.14 3.69342 -3.35244 0
M  V30 20214 H 1845.3 5.69072 -2.10338 0
M  V30 20215 H 1844.03 4.69369 -1.32453 0
M  V30 20216 H 1843.04 4.18006 -3.57143 0
M  V30 20217 H 1844.26 5.21132 -4.35429 0
M  V30 20218 H 1842.21 6.13939 -2.31117 0
M  V30 20219 H 1842.13 6.40106 -4.02244 0
M  V30 20220 H 1843.4 7.15193 -3.10031 0
M  V30 20221 N 1847.63 1.24532 0.965897 0
M  V30 20222 C 1848.85 1.11412 1.74934 0
M  V30 20223 C 1849.28 -0.329168 1.85197 0
M  V30 20224 O 1848.63 -1.23833 1.3242 0
M  V30 20225 C 1848.68 1.76068 3.14694 0
M  V30 20226 O 1847.79 1.03267 3.99261 0
M  V30 20227 H 1847.13 0.389633 0.537663 0
M  V30 20228 H 1849.66 1.64875 1.2115 0
M  V30 20229 H 1849.67 1.81897 3.65209 0
M  V30 20230 H 1848.34 2.8108 3.0654 0
M  V30 20231 H 1846.92 1.05236 3.57743 0
M  V30 20232 N 1849.1 -1.16685 1.05936 0
M  V30 20233 C 1850.33 -1.91035 0.794553 0
M  V30 20234 C 1850.75 -1.77234 -0.650663 0
M  V30 20235 O 1850.1 -1.11454 -1.44514 0
M  V30 20236 C 1850.15 -3.41859 1.17536 0
M  V30 20237 O 1849.88 -3.55243 2.56386 0
M  V30 20238 C 1851.38 -4.33267 0.937774 0
M  V30 20239 H 1848.6 -0.605896 0.288325 0
M  V30 20240 H 1851.14 -1.47925 1.41203 0
M  V30 20241 H 1849.3 -3.82686 0.602486 0
M  V30 20242 H 1849.71 -4.48744 2.71531 0
M  V30 20243 H 1851.18 -5.3757 1.25389 0
M  V30 20244 H 1851.66 -4.39017 -0.126673 0
M  V30 20245 H 1852.27 -3.98163 1.49486 0
M  V30 20246 N 1850.58 -0.841432 -1.33258 0
M  V30 20247 C 1851.51 -0.291603 -2.31672 0
M  V30 20248 C 1852.49 0.602066 -1.59089 0
M  V30 20249 O 1853.68 0.525081 -1.86967 0
M  V30 20250 C 1850.81 0.532008 -3.43201 0
M  V30 20251 C 1849.76 -0.26609 -4.27172 0
M  V30 20252 C 1849.09 0.681432 -5.3034 0
M  V30 20253 C 1850.39 -1.48457 -5.00757 0
M  V30 20254 H 1852.08 -1.1139 -2.77908 0
M  V30 20255 H 1849.63 -0.53708 -1.33609 0
M  V30 20256 H 1851.58 0.926977 -4.11078 0
M  V30 20257 H 1850.3 1.38754 -2.9566 0
M  V30 20258 H 1848.96 -0.64265 -3.60923 0
M  V30 20259 H 1848.61 1.53344 -4.79056 0
M  V30 20260 H 1848.31 0.151522 -5.87405 0
M  V30 20261 H 1849.84 1.07386 -6.01083 0
M  V30 20262 H 1851.25 -1.16262 -5.61388 0
M  V30 20263 H 1849.65 -1.95145 -5.67484 0
M  V30 20264 H 1850.72 -2.25296 -4.29383 0
M  V30 20265 N 1852.06 1.4581 -0.598108 0
M  V30 20266 C 1852.99 2.33223 0.113747 0
M  V30 20267 C 1853.97 1.46268 0.868312 0
M  V30 20268 O 1855.16 1.75058 0.840737 0
M  V30 20269 C 1852.29 3.28815 1.11795 0
M  V30 20270 C 1851.24 4.25331 0.477223 0
M  V30 20271 C 1850.57 5.10544 1.589 0
M  V30 20272 C 1851.87 5.18894 -0.595518 0
M  V30 20273 H 1853.56 2.92992 -0.616123 0
M  V30 20274 H 1851.11 1.40888 -0.297741 0
M  V30 20275 H 1853.06 3.88832 1.62443 0
M  V30 20276 H 1851.78 2.67185 1.87829 0
M  V30 20277 H 1850.44 3.66599 -0.00831044 0
M  V30 20278 H 1850.09 4.45288 2.33939 0
M  V30 20279 H 1849.79 5.75918 1.16584 0
M  V30 20280 H 1851.31 5.73427 2.09794 0
M  V30 20281 H 1852.73 5.73037 -0.173494 0
M  V30 20282 H 1851.12 5.92694 -0.939873 0
M  V30 20283 H 1852.19 4.61895 -1.47584 0
M  V30 20284 N 1853.54 0.336733 1.53961 0
M  V30 20285 C 1854.76 -0.26614 2.05685 0
M  V30 20286 C 1855.19 -1.43973 1.21051 0
M  V30 20287 O 1854.55 -1.79928 0.222652 0
M  V30 20288 C 1854.59 -0.66571 3.54402 0
M  V30 20289 O 1853.7 -1.76656 3.72648 0
M  V30 20290 H 1853.04 -0.0455655 0.662435 0
M  V30 20291 H 1855.57 0.488969 1.98671 0
M  V30 20292 H 1855.58 -0.944748 3.96911 0
M  V30 20293 H 1854.25 0.192589 4.15454 0
M  V30 20294 H 1852.83 -1.48531 3.42042 0
M  V30 20295 N 1855.02 -1.57465 0.0651956 0
M  V30 20296 C 1855.98 -2.1123 -0.889634 0
M  V30 20297 C 1856.98 -1.03489 -1.23072 0
M  V30 20298 O 1858.17 -1.29505 -1.16508 0
M  V30 20299 C 1855.3 -2.60818 -2.19515 0
M  V30 20300 H 1856.49 -2.96898 -0.423301 0
M  V30 20301 H 1854.05 -1.5522 -0.183417 0
M  V30 20302 H 1854.78 -1.78585 -2.70699 0
M  V30 20303 H 1854.57 -3.39564 -1.96057 0
M  V30 20304 H 1856.06 -3.02513 -2.87881 0
M  V30 20305 N 1856.49 0.20831 -1.56217 0
M  V30 20306 C 1857.74 0.930725 -1.79844 0
M  V30 20307 C 1858.07 1.83801 -0.636208 0
M  V30 20308 O 1857.32 1.92 0.378755 0
M  V30 20309 C 1857.62 1.78999 -3.09345 0
M  V30 20310 C 1857.29 1.03482 -4.38865 0
M  V30 20311 C 1855.95 0.826263 -4.74053 0
M  V30 20312 C 1858.3 0.50251 -5.18772 0
M  V30 20313 C 1855.63 0.0737118 -5.86654 0
M  V30 20314 C 1857.98 -0.236764 -6.32157 0
M  V30 20315 C 1856.65 -0.456453 -6.65938 0
M  V30 20316 H 1855.92 0.340576 -0.658095 0
M  V30 20317 H 1858.56 0.197971 -1.90474 0
M  V30 20318 H 1856.87 2.59101 -2.93894 0
M  V30 20319 H 1858.57 2.35132 -3.24829 0
M  V30 20320 H 1855.16 1.20736 -4.11243 0
M  V30 20321 H 1859.34 0.651071 -4.92011 0
M  V30 20322 H 1854.6 -0.106598 -6.11307 0
M  V30 20323 H 1858.77 -0.656674 -6.93297 0
M  V30 20324 H 1856.4 -1.0415 -7.53032 0
M  V30 20325 N 1857.97 1.50255 0.475528 0
M  V30 20326 C 1858.9 1.71721 1.58222 0
M  V30 20327 C 1859.88 0.56612 1.60403 0
M  V30 20328 O 1861.07 0.804774 1.7674 0
M  V30 20329 C 1858.2 1.80726 2.96573 0
M  V30 20330 C 1857.15 2.95877 3.09258 0
M  V30 20331 C 1856.48 2.9002 4.49213 0
M  V30 20332 C 1857.78 4.36452 2.86891 0
M  V30 20333 H 1859.47 2.6438 1.40511 0
M  V30 20334 H 1857.02 1.27224 0.674533 0
M  V30 20335 H 1858.97 1.94328 3.73918 0
M  V30 20336 H 1857.69 0.846846 3.1543 0
M  V30 20337 H 1856.35 2.81918 2.34345 0
M  V30 20338 H 1856 1.91834 4.64982 0
M  V30 20339 H 1855.7 3.67322 4.58637 0
M  V30 20340 H 1857.23 3.05665 5.28584 0
M  V30 20341 H 1858.64 4.5096 3.53989 0
M  V30 20342 H 1857.04 5.15171 3.07765 0
M  V30 20343 H 1858.11 4.49129 1.82786 0
M  V30 20344 N 1859.45 -0.728395 1.39758 0
M  V30 20345 C 1860.87 -1.03481 1.21506 0
M  V30 20346 C 1861.07 -2.01336 0.0812728 0
M  V30 20347 O 1860.12 -2.46099 -0.564956 0
M  V30 20348 C 1861.43 -1.59078 2.55176 0
M  V30 20349 C 1862.98 -1.71126 2.62078 0
M  V30 20350 C 1863.46 -2.30131 3.95985 0
M  V30 20351 N 1864.95 -2.37532 3.97659 0
M  V30 20352 C 1865.68 -2.8414 4.98048 0
M  V30 20353 N 1865.18 -3.30595 6.08834 0
M  V30 20354 N 1866.97 -2.83409 4.85423 0
M  V30 20355 H 1859.12 -0.0795283 2.12251 0
M  V30 20356 H 1861.39 -0.0978972 0.942932 0
M  V30 20357 H 1861.09 -0.946401 3.38727 0
M  V30 20358 H 1860.97 -2.5779 2.75362 0
M  V30 20359 H 1863.35 -2.34684 1.78906 0
M  V30 20360 H 1863.43 -0.710485 2.45735 0
M  V30 20361 H 1863.08 -1.67198 4.79591 0
M  V30 20362 H 1863.01 -3.30898 4.09651 0
M  V30 20363 H 1865.5 -2.04706 3.17654 0
M  V30 20364 H 1865.81 -3.64689 6.81338 0
M  V30 20365 H 1864.16 -3.28587 6.12418 0
M  V30 20366 H 1867.35 -2.46444 3.97974 0
M  V30 20367 H 1867.52 -3.19417 5.63806 0
M  V30 20368 N 1860.93 -1.25042 -0.959279 0
M  V30 20369 C 1861.86 -1.07494 -2.07285 0
M  V30 20370 C 1862.84 0.0146264 -1.70094 0
M  V30 20371 O 1864.02 -0.154035 -1.93588 0
M  V30 20372 C 1861.15 -0.68794 -3.40418 0
M  V30 20373 C 1860.11 -1.72722 -3.91601 0
M  V30 20374 C 1859.43 -1.19504 -5.21175 0
M  V30 20375 C 1860.73 -3.12502 -4.18497 0
M  V30 20376 H 1862.43 -2.00641 -2.22224 0
M  V30 20377 H 1859.97 -0.966074 -1.06785 0
M  V30 20378 H 1861.93 -0.552133 -4.17767 0
M  V30 20379 H 1860.65 0.279224 -3.25404 0
M  V30 20380 H 1859.31 -1.85139 -3.16416 0
M  V30 20381 H 1858.96 -0.218239 -5.02526 0
M  V30 20382 H 1858.66 -1.88962 -5.56387 0
M  V30 20383 H 1860.18 -1.07153 -6.01124 0
M  V30 20384 H 1861.6 -3.03266 -4.86521 0
M  V30 20385 H 1859.99 -3.79389 -4.64956 0
M  V30 20386 H 1861.06 -3.5991 -3.2495 0
M  V30 20387 N 1862.41 1.16121 -1.06553 0
M  V30 20388 C 1863.34 2.22761 -0.699976 0
M  V30 20389 C 1864.32 1.67274 0.308783 0
M  V30 20390 O 1865.5 1.93333 0.183328 0
M  V30 20391 C 1862.63 3.47187 -0.0884044 0
M  V30 20392 C 1861.59 4.15584 -1.02343 0
M  V30 20393 C 1860.91 5.33992 -0.275022 0
M  V30 20394 C 1862.21 4.66266 -2.35358 0
M  V30 20395 H 1863.91 2.53595 -1.59153 0
M  V30 20396 H 1861.45 1.21893 -0.766686 0
M  V30 20397 H 1863.41 4.21019 0.17922 0
M  V30 20398 H 1862.13 3.15661 0.838181 0
M  V30 20399 H 1860.79 3.43683 -1.27584 0
M  V30 20400 H 1860.44 4.9872 0.654765 0
M  V30 20401 H 1860.14 5.80695 -0.898181 0
M  V30 20402 H 1861.66 6.10598 -0.0150056 0
M  V30 20403 H 1863.07 5.31665 -2.14488 0
M  V30 20404 H 1861.47 5.236 -2.93195 0
M  V30 20405 H 1862.54 3.82335 -2.98241 0
M  V30 20406 N 1863.88 0.848487 1.3281 0
M  V30 20407 C 1864.83 0.277328 2.30941 0
M  V30 20408 C 1865.83 -0.595938 1.58572 0
M  V30 20409 O 1867.03 -0.484428 1.73359 0
M  V30 20410 H 1863.41 0.0709686 0.748644 0
M  V30 20411 H 1865.38 1.11932 2.76611 0
M  V30 20412 C 1864.13 -0.524705 3.43718 0
M  V30 20413 H 1863.45 0.137959 3.99562 0
M  V30 20414 H 1864.89 -0.890032 4.14553 0
M  V30 20415 C 1863.35 -1.70746 2.90426 0
M  V30 20416 O 1863.88 -2.80641 2.87408 0
M  V30 20417 N 1862.09 -1.5325 2.46907 0
M  V30 20418 H 1861.63 -0.638526 2.49561 0
M  V30 20419 H 1861.59 -2.32532 2.11603 0
M  V30 20420 N 1865.36 -1.4549 0.605832 0
M  V30 20421 C 1866.59 -2.06625 0.106651 0
M  V30 20422 C 1867.01 -1.45077 -1.20822 0
M  V30 20423 O 1866.36 -0.564316 -1.73556 0
M  V30 20424 C 1866.41 -3.61476 -0.0413179 0
M  V30 20425 O 1866.13 -4.20726 1.22153 0
M  V30 20426 C 1867.64 -4.39592 -0.572162 0
M  V30 20427 H 1864.86 -0.667542 0.0680365 0
M  V30 20428 H 1867.4 -1.86763 0.833067 0
M  V30 20429 H 1865.55 -3.80687 -0.718053 0
M  V30 20430 H 1865.97 -5.13881 1.05009 0
M  V30 20431 H 1867.44 -5.48453 -0.624791 0
M  V30 20432 H 1867.92 -4.09251 -1.59407 0
M  V30 20433 H 1868.53 -4.25242 0.0704697 0
M  V30 20434 N 1866.84 -0.344893 -1.5378 0
M  V30 20435 C 1867.75 0.519687 -2.28772 0
M  V30 20436 C 1868.77 1.11076 -1.33934 0
M  V30 20437 O 1869.94 1.12615 -1.66972 0
M  V30 20438 C 1867.01 1.65417 -3.04693 0
M  V30 20439 C 1866.07 1.09275 -4.1516 0
M  V30 20440 C 1865.3 2.17316 -4.87452 0
M  V30 20441 O 1865.52 3.38061 -4.59425 0
M  V30 20442 O 1864.46 1.81535 -5.73872 0
M  V30 20443 H 1868.28 -0.0899625 -3.03567 0
M  V30 20444 H 1865.87 -0.109899 -1.48995 0
M  V30 20445 H 1867.75 2.31421 -3.52168 0
M  V30 20446 H 1866.43 2.24961 -2.32754 0
M  V30 20447 H 1865.33 0.397193 -3.71985 0
M  V30 20448 H 1866.67 0.542156 -4.89205 0
M  V30 20449 N 1868.32 1.57428 -0.0735454 0
M  V30 20450 C 1869.57 1.93174 0.593996 0
M  V30 20451 C 1869.89 0.954462 1.70044 0
M  V30 20452 O 1869.16 0.00289765 1.959 0
M  V30 20453 H 1867.74 0.713123 0.222407 0
M  V30 20454 H 1870.4 1.94454 -0.131813 0
M  V30 20455 H 1869.5 2.95025 1.01818 0
M  V30 20456 N 1869.8 -0.200022 1.56326 0
M  V30 20457 C 1870.71 -1.26847 1.9735 0
M  V30 20458 C 1871.72 -1.50081 0.880432 0
M  V30 20459 O 1872.9 -1.62792 1.18578 0
M  V30 20460 C 1869.96 -2.59382 2.30048 0
M  V30 20461 C 1869.02 -2.44262 3.53036 0
M  V30 20462 C 1868.26 -3.70476 3.84165 0
M  V30 20463 O 1868.48 -4.74433 3.16654 0
M  V30 20464 O 1867.41 -3.663 4.77606 0
M  V30 20465 H 1871.24 -0.950324 2.88449 0
M  V30 20466 H 1868.83 -0.404628 1.43816 0
M  V30 20467 H 1870.71 -3.37616 2.52177 0
M  V30 20468 H 1869.38 -2.90833 1.42119 0
M  V30 20469 H 1868.29 -1.64154 3.36161 0
M  V30 20470 H 1869.62 -2.17744 4.41416 0
M  V30 20471 N 1871.27 -1.50505 -0.467553 0
M  V30 20472 C 1872.52 -1.60911 -1.21617 0
M  V30 20473 C 1872.84 -0.31663 -1.9302 0
M  V30 20474 O 1874.04 -0.299645 -2.69841 0
M  V30 20475 C 1872.5 -2.84052 -2.21003 0
M  V30 20476 C 1872.11 -4.20189 -1.55386 0
M  V30 20477 C 1873.85 -3.03805 -2.96484 0
M  V30 20478 C 1871.76 -5.34514 -2.5308 0
M  V30 20479 H 1870.69 -0.59924 -0.457633 0
M  V30 20480 H 1873.34 -1.7694 -0.486276 0
M  V30 20481 H 1871.72 -2.6159 -2.97299 0
M  V30 20482 H 1872.89 -4.5292 -0.848552 0
M  V30 20483 H 1871.21 -4.0607 -0.921725 0
M  V30 20484 H 1873.81 -3.86387 -3.69606 0
M  V30 20485 H 1874.15 -2.15672 -3.56078 0
M  V30 20486 H 1874.68 -3.26465 -2.27301 0
M  V30 20487 H 1871.42 -6.24811 -1.9822 0
M  V30 20488 H 1870.94 -5.06197 -3.21752 0
M  V30 20489 H 1872.62 -5.65232 -3.14836 0
M  V30 20490 N 1872.75 0.720973 -1.40142 0
M  V30 20491 C 1873.68 1.8457 -1.35891 0
M  V30 20492 C 1874.7 1.60625 -0.265232 0
M  V30 20493 O 1875.89 1.70599 -0.525198 0
M  V30 20494 C 1872.99 3.20871 -1.09064 0
M  V30 20495 C 1872.16 3.72058 -2.29982 0
M  V30 20496 C 1871.22 4.86957 -1.99397 0
M  V30 20497 O 1870.24 4.99888 -2.72213 0
M  V30 20498 N 1871.45 5.72361 -0.968645 0
M  V30 20499 H 1874.21 1.88717 -2.32822 0
M  V30 20500 H 1871.77 0.902293 -1.34426 0
M  V30 20501 H 1873.76 3.95326 -0.865979 0
M  V30 20502 H 1872.33 3.11906 -0.208188 0
M  V30 20503 H 1871.55 2.88795 -2.68312 0
M  V30 20504 H 1872.84 4.02991 -3.10605 0
M  V30 20505 H 1872.24 5.64518 -0.36546 0
M  V30 20506 H 1870.8 6.46824 -0.803886 0
M  V30 20507 N 1874.23 1.25549 0.952634 0
M  V30 20508 C 1875.48 1.09811 1.69188 0
M  V30 20509 C 1875.79 -0.360368 1.92252 0
M  V30 20510 O 1877 -0.638228 2.63892 0
M  V30 20511 C 1875.45 1.91693 3.04601 0
M  V30 20512 C 1875.06 3.42045 2.89326 0
M  V30 20513 C 1876.81 1.8453 3.82294 0
M  V30 20514 C 1874.71 4.16216 4.20141 0
M  V30 20515 H 1873.64 0.40733 0.634507 0
M  V30 20516 H 1876.29 1.49762 1.06035 0
M  V30 20517 H 1874.68 1.44566 3.68669 0
M  V30 20518 H 1875.85 3.96859 2.34178 0
M  V30 20519 H 1874.17 3.50322 2.25085 0
M  V30 20520 H 1876.76 2.37237 4.79189 0
M  V30 20521 H 1877.11 0.81361 4.08272 0
M  V30 20522 H 1877.64 2.29418 3.2498 0
M  V30 20523 H 1874.38 5.19806 3.99352 0
M  V30 20524 H 1873.9 3.66184 4.75047 0
M  V30 20525 H 1875.58 4.2404 4.88671 0
M  V30 20526 N 1875.71 -1.15554 1.07168 0
M  V30 20527 C 1876.99 -1.8238 0.706884 0
M  V30 20528 C 1877.37 -1.94906 -0.810848 0
M  V30 20529 O 1876.71 -1.49905 -1.72455 0
M  V30 20530 C 1876.92 -3.18844 1.41913 0
M  V30 20531 C 1878.27 -3.94506 1.57004 0
M  V30 20532 O 1879.3 -3.28392 1.37976 0
M  V30 20533 O 1878.15 -5.13036 1.88297 0
M  V30 20534 H 1875.25 -0.787892 0.251307 0
M  V30 20535 H 1877.79 -1.22681 1.17249 0
M  V30 20536 H 1876.57 -3.04814 2.45365 0
M  V30 20537 H 1876.19 -3.86227 0.944182 0
M  V30 20538 N 1877.19 -0.855519 -1.32358 0
M  V30 20539 C 1878.44 -0.458415 -1.96832 0
M  V30 20540 C 1878.76 0.98946 -1.68032 0
M  V30 20541 O 1878.03 1.69161 -0.987995 0
M  V30 20542 H 1876.61 -0.166527 -0.728202 0
M  V30 20543 H 1879.27 -1.09214 -1.61426 0
M  V30 20544 H 1878.36 -0.604185 -3.06196 0
M  V30 20545 N 1878.67 1.45167 -0.61354 0
M  V30 20546 C 1879.91 2.02495 -0.111227 0
M  V30 20547 C 1880.24 1.48015 1.25719 0
M  V30 20548 O 1879.52 0.657188 1.83061 0
M  V30 20549 C 1879.8 3.60014 -0.07876 0
M  V30 20550 C 1879.66 4.24814 -1.47827 0
M  V30 20551 C 1880.97 4.35908 0.605964 0
M  V30 20552 H 1878.09 0.735808 -0.0418931 0
M  V30 20553 H 1880.74 1.7295 -0.786651 0
M  V30 20554 H 1878.89 3.85315 0.496411 0
M  V30 20555 H 1880.56 4.10678 -2.10097 0
M  V30 20556 H 1878.8 3.82986 -2.03726 0
M  V30 20557 H 1879.47 5.33748 -1.40774 0
M  V30 20558 H 1881.95 4.15935 0.117019 0
M  V30 20559 H 1880.82 5.45635 0.597808 0
M  V30 20560 H 1881.08 4.09216 1.67315 0
M  V30 20561 N 1880.14 0.353044 1.53595 0
M  V30 20562 C 1881.37 -0.244309 2.05956 0
M  V30 20563 C 1881.79 -1.42681 1.22571 0
M  V30 20564 O 1881.15 -1.79681 0.241723 0
M  V30 20565 C 1881.2 -0.628083 3.55088 0
M  V30 20566 O 1880.3 -1.72693 3.74501 0
M  V30 20567 H 1879.64 -0.038537 0.662881 0
M  V30 20568 H 1882.17 0.510013 1.98141 0
M  V30 20569 H 1882.18 -0.902597 3.97891 0
M  V30 20570 H 1880.86 0.236643 4.15226 0
M  V30 20571 H 1879.44 -1.44895 3.43599 0
M  V30 20572 N 1881.62 -1.57387 0.0818932 0
M  V30 20573 C 1882.87 -1.94964 -0.579705 0
M  V30 20574 C 1883.22 -0.962306 -1.66606 0
M  V30 20575 O 1882.52 0.0138288 -1.91595 0
M  V30 20576 C 1882.71 -3.36939 -1.19193 0
M  V30 20577 C 1882.54 -4.49392 -0.166414 0
M  V30 20578 C 1881.31 -5.04669 0.252475 0
M  V30 20579 C 1883.51 -5.10785 0.600288 0
M  V30 20580 N 1881.49 -6.0067 1.26764 0
M  V30 20581 C 1882.86 -6.02379 1.46765 0
M  V30 20582 C 1884.91 -4.9357 0.655252 0
M  V30 20583 C 1883.62 -6.78605 2.38511 0
M  V30 20584 C 1885.64 -5.70447 1.56026 0
M  V30 20585 C 1885.01 -6.61697 2.41528 0
M  V30 20586 H 1881.1 -0.760321 -0.182854 0
M  V30 20587 H 1883.69 -1.9403 0.161389 0
M  V30 20588 H 1881.86 -3.38591 -1.9029 0
M  V30 20589 H 1883.59 -3.61727 -1.81482 0
M  V30 20590 H 1880.35 -4.73414 -0.132657 0
M  V30 20591 H 1880.77 -6.5337 1.77303 0
M  V30 20592 H 1885.41 -4.22799 0.00839717 0
M  V30 20593 H 1883.13 -7.48646 3.04228 0
M  V30 20594 H 1886.72 -5.59144 1.60776 0
M  V30 20595 H 1885.6 -7.20145 3.1042 0
M  V30 20596 N 1883.1 0.191729 -1.56429 0
M  V30 20597 C 1884.38 0.937684 -1.71659 0
M  V30 20598 C 1884.76 2.0124 -0.63762 0
M  V30 20599 O 1884.1 2.2579 0.350865 0
M  V30 20600 C 1884.31 1.52104 -3.14111 0
M  V30 20601 C 1885.66 2.00186 -3.74447 0
M  V30 20602 O 1886.69 1.61939 -3.1726 0
M  V30 20603 O 1885.55 2.70576 -4.74817 0
M  V30 20604 H 1882.64 0.439962 -0.700259 0
M  V30 20605 H 1885.19 0.181161 -1.6873 0
M  V30 20606 H 1883.96 0.746526 -3.84113 0
M  V30 20607 H 1883.58 2.3423 -3.21282 0
M  V30 20608 N 1884.58 1.50751 0.459565 0
M  V30 20609 C 1885.8 1.66367 1.23842 0
M  V30 20610 C 1886.23 0.351355 1.84789 0
M  V30 20611 O 1885.59 -0.686103 1.67816 0
M  V30 20612 C 1885.63 2.76521 2.31449 0
M  V30 20613 O 1884.74 2.38576 3.36386 0
M  V30 20614 H 1884.08 0.555447 0.363833 0
M  V30 20615 H 1886.61 1.97193 0.545538 0
M  V30 20616 H 1886.62 2.99943 2.76583 0
M  V30 20617 H 1885.29 3.71759 1.86462 0
M  V30 20618 H 1883.87 2.25643 2.96883 0
M  V30 20619 N 1886.06 -0.713531 1.40522 0
M  V30 20620 C 1887.3 -1.46899 1.38216 0
M  V30 20621 C 1887.62 -1.95596 -0.011831 0
M  V30 20622 O 1888.82 -2.71043 -0.157513 0
M  V30 20623 C 1887.28 -2.65544 2.42929 0
M  V30 20624 C 1886.89 -2.23707 3.88148 0
M  V30 20625 C 1888.63 -3.4327 2.49732 0
M  V30 20626 C 1886.54 -3.39203 4.84453 0
M  V30 20627 H 1885.47 -0.551718 0.513929 0
M  V30 20628 H 1888.12 -0.776357 1.66268 0
M  V30 20629 H 1886.5 -3.36987 2.0798 0
M  V30 20630 H 1887.68 -1.5967 4.32252 0
M  V30 20631 H 1885.99 -1.59021 3.84839 0
M  V30 20632 H 1888.59 -4.29215 3.18871 0
M  V30 20633 H 1888.93 -3.87225 1.52848 0
M  V30 20634 H 1889.46 -2.78871 2.83683 0
M  V30 20635 H 1886.2 -3.00278 5.82678 0
M  V30 20636 H 1885.72 -4.02149 4.45012 0
M  V30 20637 H 1887.4 -4.0524 5.04371 0
M  V30 20638 N 1887.53 -1.26053 -0.945962 0
M  V30 20639 C 1888.76 -1.14079 -1.72608 0
M  V30 20640 C 1889.18 0.304506 -1.86328 0
M  V30 20641 O 1888.53 1.20885 -1.36723 0
M  V30 20642 C 1888.58 -1.79938 -3.13535 0
M  V30 20643 O 1888.31 -3.18819 -3.00476 0
M  V30 20644 C 1889.81 -1.73856 -4.07785 0
M  V30 20645 H 1887.03 -0.397486 -0.540598 0
M  V30 20646 H 1889.57 -1.66582 -1.1862 0
M  V30 20647 H 1887.73 -1.31385 -3.6444 0
M  V30 20648 H 1888.14 -3.51337 -3.89439 0
M  V30 20649 H 1889.61 -2.24584 -5.04248 0
M  V30 20650 H 1890.09 -0.704095 -4.33519 0
M  V30 20651 H 1890.7 -2.21939 -3.62799 0
M  V30 20652 N 1889.01 1.14984 -1.07779 0
M  V30 20653 C 1889.94 2.22006 -0.723564 0
M  V30 20654 C 1890.92 1.67592 0.291024 0
M  V30 20655 O 1892.11 1.93516 0.162812 0
M  V30 20656 C 1889.24 3.47074 -0.125223 0
M  V30 20657 C 1888.19 4.14475 -1.06745 0
M  V30 20658 C 1887.52 5.33671 -0.331643 0
M  V30 20659 C 1888.82 4.63744 -2.4029 0
M  V30 20660 H 1890.51 2.51893 -1.61834 0
M  V30 20661 H 1888.06 1.21073 -0.779571 0
M  V30 20662 H 1890.01 4.21185 0.134555 0
M  V30 20663 H 1888.73 3.16533 0.804654 0
M  V30 20664 H 1887.39 3.4231 -1.31222 0
M  V30 20665 H 1887.04 4.99387 0.601833 0
M  V30 20666 H 1886.74 5.7971 -0.959721 0
M  V30 20667 H 1888.27 6.10548 -0.0797668 0
M  V30 20668 H 1889.68 5.2936 -2.20115 0
M  V30 20669 H 1888.08 5.20461 -2.98732 0
M  V30 20670 H 1889.15 3.79151 -3.02279 0
M  V30 20671 N 1890.49 0.862526 1.31902 0
M  V30 20672 C 1891.42 0.270103 2.27603 0
M  V30 20673 C 1892.43 -0.562639 1.52768 0
M  V30 20674 O 1893.62 -0.385845 1.7428 0
M  V30 20675 C 1890.72 -0.636314 3.32873 0
M  V30 20676 C 1889.9 0.162327 4.37099 0
M  V30 20677 C 1888.96 -0.67107 5.21903 0
M  V30 20678 O 1887.98 -0.101765 5.69109 0
M  V30 20679 N 1889.18 -1.98441 5.45529 0
M  V30 20680 H 1891.95 1.09248 2.79079 0
M  V30 20681 H 1889.51 0.723275 1.44846 0
M  V30 20682 H 1891.5 -1.19937 3.86519 0
M  V30 20683 H 1890.07 -1.35936 2.81496 0
M  V30 20684 H 1889.29 0.906824 3.83628 0
M  V30 20685 H 1890.58 0.710602 5.03813 0
M  V30 20686 H 1889.98 -2.47017 5.0892 0
M  V30 20687 H 1888.53 -2.49542 6.0214 0
M  V30 20688 N 1891.97 -1.4484 0.62123 0
M  V30 20689 C 1892.9 -2.28843 -0.127881 0
M  V30 20690 C 1893.91 -1.40726 -0.818542 0
M  V30 20691 O 1895.1 -1.64972 -0.681645 0
M  V30 20692 C 1892.2 -3.16837 -1.20281 0
M  V30 20693 C 1891.38 -4.33312 -0.5966 0
M  V30 20694 C 1890.43 -5.02414 -1.56419 0
M  V30 20695 O 1889.46 -5.5876 -1.08517 0
M  V30 20696 N 1890.66 -5.02953 -2.8986 0
M  V30 20697 H 1893.43 -2.93775 0.592994 0
M  V30 20698 H 1890.99 -1.55178 0.461679 0
M  V30 20699 H 1892.98 -3.59929 -1.85021 0
M  V30 20700 H 1891.55 -2.53722 -1.82603 0
M  V30 20701 H 1890.77 -3.93533 0.229203 0
M  V30 20702 H 1892.06 -5.08509 -0.17206 0
M  V30 20703 H 1891.46 -4.58489 -3.31367 0
M  V30 20704 H 1890.01 -5.49866 -3.49987 0
M  V30 20705 N 1893.45 -0.361184 -1.53405 0
M  V30 20706 C 1894.69 0.222818 -2.02176 0
M  V30 20707 C 1895.05 1.46779 -1.24393 0
M  V30 20708 O 1894.34 1.88772 -0.327985 0
M  V30 20709 C 1894.53 0.572109 -3.52791 0
M  V30 20710 C 1894.36 -0.637467 -4.45159 0
M  V30 20711 C 1893.13 -1.1482 -4.92082 0
M  V30 20712 C 1895.33 -1.50134 -4.91899 0
M  V30 20713 N 1893.31 -2.31826 -5.68445 0
M  V30 20714 C 1894.68 -2.51811 -5.66561 0
M  V30 20715 C 1896.74 -1.52473 -4.73979 0
M  V30 20716 C 1895.44 -3.55677 -6.25209 0
M  V30 20717 C 1897.47 -2.55231 -5.3349 0
M  V30 20718 C 1896.83 -3.55631 -6.08034 0
M  V30 20719 H 1892.93 0.0443679 -0.78074 0
M  V30 20720 H 1895.51 -0.504736 -1.88044 0
M  V30 20721 H 1893.68 1.26875 -3.67093 0
M  V30 20722 H 1895.42 1.14082 -3.88288 0
M  V30 20723 H 1892.17 -0.713513 -4.68194 0
M  V30 20724 H 1892.6 -2.90951 -6.11291 0
M  V30 20725 H 1897.24 -0.762065 -4.15875 0
M  V30 20726 H 1894.96 -4.32829 -6.82411 0
M  V30 20727 H 1898.54 -2.57889 -5.21521 0
M  V30 20728 H 1897.42 -4.33841 -6.53263 0
M  V30 20729 N 1894.92 1.57341 -0.0902386 0
M  V30 20730 C 1896.34 1.57361 0.266413 0
M  V30 20731 C 1896.54 1.10104 1.68758 0
M  V30 20732 O 1895.6 0.775287 2.40303 0
M  V30 20733 C 1896.91 3.00642 0.0592661 0
M  V30 20734 C 1898.46 3.12741 0.127389 0
M  V30 20735 C 1898.93 4.57971 -0.0517042 0
M  V30 20736 N 1900.42 4.632 0.0032917 0
M  V30 20737 C 1901.16 5.73293 -0.110598 0
M  V30 20738 N 1900.65 6.92238 -0.279049 0
M  V30 20739 N 1902.45 5.62076 -0.0522147 0
M  V30 20740 H 1894.6 1.86369 -1.01884 0
M  V30 20741 H 1896.86 0.859996 -0.398886 0
M  V30 20742 H 1896.57 3.39396 -0.922117 0
M  V30 20743 H 1896.44 3.68539 0.80368 0
M  V30 20744 H 1898.83 2.73861 1.09927 0
M  V30 20745 H 1898.91 2.47445 -0.648435 0
M  V30 20746 H 1898.55 4.97544 -1.02043 0
M  V30 20747 H 1898.48 5.21321 0.743753 0
M  V30 20748 H 1900.97 3.77672 0.131145 0
M  V30 20749 H 1901.29 7.71972 -0.357596 0
M  V30 20750 H 1899.63 6.94287 -0.314653 0
M  V30 20751 H 1902.82 4.68035 0.0782189 0
M  V30 20752 H 1903 6.47839 -0.144423 0
M  V30 20753 N 1896.4 -0.183431 1.56529 0
M  V30 20754 C 1897.35 -1.22726 1.95466 0
M  V30 20755 C 1898.32 -1.44626 0.81686 0
M  V30 20756 O 1899.5 -1.57566 1.07599 0
M  V30 20757 C 1896.64 -2.56435 2.30944 0
M  V30 20758 C 1895.76 -2.42016 3.57844 0
M  V30 20759 C 1894.89 -3.68509 3.82589 0
M  V30 20760 C 1893.93 -3.48972 5.02877 0
M  V30 20761 N 1893.07 -4.67505 5.23817 0
M  V30 20762 H 1897.91 -0.888204 2.84456 0
M  V30 20763 H 1895.45 -0.427192 1.4076 0
M  V30 20764 H 1897.4 -3.3435 2.49532 0
M  V30 20765 H 1896.03 -2.8836 1.4508 0
M  V30 20766 H 1895.09 -1.55339 3.47237 0
M  V30 20767 H 1896.4 -2.23519 4.45915 0
M  V30 20768 H 1895.55 -4.54861 4.0148 0
M  V30 20769 H 1894.29 -3.89972 2.9287 0
M  V30 20770 H 1893.3 -2.61005 4.83897 0
M  V30 20771 H 1894.52 -3.28942 5.94116 0
M  V30 20772 H 1892.47 -4.8921 4.37047 0
M  V30 20773 H 1892.38 -4.51876 6.06089 0
M  V30 20774 H 1893.65 -5.55175 5.47176 0
M  V30 20775 N 1897.88 -1.50992 -0.451564 0
M  V30 20776 C 1898.84 -1.70703 -1.52949 0
M  V30 20777 C 1899.84 -0.577275 -1.50081 0
M  V30 20778 O 1901.03 -0.844619 -1.52354 0
M  V30 20779 C 1898.17 -1.75035 -2.92533 0
M  V30 20780 H 1899.36 -2.66891 -1.36782 0
M  V30 20781 H 1896.91 -1.40767 -0.679285 0
M  V30 20782 H 1897.65 -0.806096 -3.14122 0
M  V30 20783 H 1897.43 -2.57126 -2.96021 0
M  V30 20784 H 1898.92 -1.92171 -3.70756 0
M  V30 20785 N 1899.36 0.706069 -1.40899 0
M  V30 20786 C 1900.61 1.46604 -1.39691 0
M  V30 20787 C 1900.93 1.945 -0.00244032 0
M  V30 20788 O 1900.19 1.69172 0.983828 0
M  V30 20789 C 1900.49 2.70045 -2.34116 0
M  V30 20790 C 1900.15 2.40863 -3.81177 0
M  V30 20791 C 1898.82 2.32615 -4.21241 0
M  V30 20792 C 1901.17 2.16582 -4.74069 0
M  V30 20793 C 1898.5 1.98167 -5.5222 0
M  V30 20794 C 1900.85 1.83645 -6.05357 0
M  V30 20795 C 1899.51 1.73885 -6.44454 0
M  V30 20796 H 1898.78 0.536463 -0.511164 0
M  V30 20797 H 1901.43 0.807941 -1.73622 0
M  V30 20798 H 1899.73 3.40738 -1.93403 0
M  V30 20799 H 1901.43 3.2816 -2.3046 0
M  V30 20800 H 1898.02 2.48173 -3.49439 0
M  V30 20801 H 1902.2 2.21905 -4.43928 0
M  V30 20802 H 1897.46 1.89155 -5.81404 0
M  V30 20803 H 1901.63 1.63873 -6.76845 0
M  V30 20804 H 1899.26 1.46959 -7.4586 0
M  V30 20805 N 1900.84 1.26553 0.939264 0
M  V30 20806 C 1902.08 1.11989 1.68235 0
M  V30 20807 C 1902.41 -0.336993 1.92066 0
M  V30 20808 O 1901.68 -1.23742 1.51871 0
M  V30 20809 H 1900.26 0.41144 0.623479 0
M  V30 20810 H 1902.92 1.58909 1.12845 0
M  V30 20811 H 1902.01 1.64011 2.65531 0
M  V30 20812 N 1902.31 -1.14411 1.08387 0
M  V30 20813 C 1903.56 -1.85719 0.814638 0
M  V30 20814 C 1903.89 -1.82715 -0.657934 0
M  V30 20815 O 1903.17 -1.2577 -1.48365 0
M  V30 20816 C 1903.45 -3.34363 1.33691 0
M  V30 20817 C 1903.3 -3.4594 2.87481 0
M  V30 20818 C 1904.62 -4.29457 0.962006 0
M  V30 20819 H 1901.74 -0.674332 0.297399 0
M  V30 20820 H 1904.38 -1.34354 1.34346 0
M  V30 20821 H 1902.53 -3.78237 0.887082 0
M  V30 20822 H 1904.21 -3.10854 3.40833 0
M  V30 20823 H 1902.45 -2.87158 3.25151 0
M  V30 20824 H 1903.12 -4.50423 3.19097 0
M  V30 20825 H 1905.6 -3.93599 1.34979 0
M  V30 20826 H 1904.47 -5.31922 1.35464 0
M  V30 20827 H 1904.73 -4.41906 -0.130987 0
M  V30 20828 N 1903.79 -0.869509 -1.31443 0
M  V30 20829 C 1905.04 -0.476357 -1.95994 0
M  V30 20830 C 1905.35 0.976268 -1.69494 0
M  V30 20831 O 1906.56 1.47555 -2.27903 0
M  V30 20832 C 1905.02 -0.800938 -3.50875 0
M  V30 20833 C 1904.62 -2.27029 -3.86215 0
M  V30 20834 C 1906.37 -0.476234 -4.2182 0
M  V30 20835 C 1904.28 -2.53731 -5.34205 0
M  V30 20836 H 1903.21 -0.174407 -0.733552 0
M  V30 20837 H 1905.86 -1.06235 -1.49621 0
M  V30 20838 H 1904.24 -0.144206 -3.95737 0
M  V30 20839 H 1905.41 -2.97005 -3.52313 0
M  V30 20840 H 1903.73 -2.56098 -3.28333 0
M  V30 20841 H 1906.32 -0.652965 -5.30698 0
M  V30 20842 H 1906.67 0.583294 -4.12193 0
M  V30 20843 H 1907.2 -1.08949 -3.8259 0
M  V30 20844 H 1903.94 -3.58365 -5.48867 0
M  V30 20845 H 1903.46 -1.88349 -5.6946 0
M  V30 20846 H 1905.14 -2.38437 -6.01462 0
M  V30 20847 N 1905.27 1.44508 -0.628902 0
M  V30 20848 C 1906.68 1.85457 -0.215122 0
M  V30 20849 C 1907.03 1.52619 1.23296 0
M  V30 20850 O 1906.16 0.963178 1.93783 0
M  V30 20851 C 1906.75 3.36621 -0.383645 0
M  V30 20852 C 1905.31 3.76392 -0.0243904 0
M  V30 20853 C 1904.46 2.68369 -0.698081 0
M  V30 20854 H 1907.41 1.35006 -0.834208 0
M  V30 20855 H 1907.43 3.78617 0.378049 0
M  V30 20856 H 1906.94 3.6049 -1.43767 0
M  V30 20857 H 1905.04 3.58139 1.02798 0
M  V30 20858 H 1905.16 4.7714 -0.432898 0
M  V30 20859 H 1903.52 2.54349 -0.133605 0
M  V30 20860 H 1904.3 2.95071 -1.75465 0
M  V30 20861 N 1906.75 0.369315 1.53212 0
M  V30 20862 C 1907.68 -0.510161 2.2345 0
M  V30 20863 C 1908.69 -1.04313 1.24991 0
M  V30 20864 O 1909.88 -0.948869 1.51191 0
M  V30 20865 C 1906.98 -1.71753 2.92154 0
M  V30 20866 C 1906.16 -1.31542 4.17152 0
M  V30 20867 C 1905.22 -2.38526 4.69033 0
M  V30 20868 O 1904.24 -2.00761 5.32619 0
M  V30 20869 N 1905.44 -3.70165 4.47167 0
M  V30 20870 H 1908.21 0.0915031 2.9956 0
M  V30 20871 H 1905.77 0.194676 1.60725 0
M  V30 20872 H 1907.76 -2.42808 3.23769 0
M  V30 20873 H 1906.33 -2.22598 2.19474 0
M  V30 20874 H 1905.55 -0.434563 3.91797 0
M  V30 20875 H 1906.84 -1.02311 4.98407 0
M  V30 20876 H 1906.24 -4.0362 3.96368 0
M  V30 20877 H 1904.79 -4.37313 4.83323 0
M  V30 20878 N 1908.23 -1.57291 0.0985816 0
M  V30 20879 C 1909.17 -2.14215 -0.8591 0
M  V30 20880 C 1910.14 -1.06162 -1.27745 0
M  V30 20881 O 1911.33 -1.33967 -1.35858 0
M  V30 20882 C 1908.47 -2.72963 -2.11152 0
M  V30 20883 C 1907.58 -3.95259 -1.74339 0
M  V30 20884 C 1906.72 -4.4216 -2.94394 0
M  V30 20885 C 1905.76 -5.57038 -2.53723 0
M  V30 20886 N 1904.89 -5.98775 -3.66624 0
M  V30 20887 H 1909.73 -2.95734 -0.366821 0
M  V30 20888 H 1907.27 -1.46121 -0.169388 0
M  V30 20889 H 1909.23 -3.05145 -2.84504 0
M  V30 20890 H 1907.86 -1.94167 -2.57874 0
M  V30 20891 H 1906.91 -3.69369 -0.90942 0
M  V30 20892 H 1908.22 -4.78622 -1.40436 0
M  V30 20893 H 1907.38 -4.76144 -3.75994 0
M  V30 20894 H 1906.12 -3.57705 -3.31509 0
M  V30 20895 H 1905.12 -5.22678 -1.7055 0
M  V30 20896 H 1906.35 -6.43244 -2.17748 0
M  V30 20897 H 1904.29 -5.17265 -4.03451 0
M  V30 20898 H 1904.21 -6.76943 -3.36578 0
M  V30 20899 H 1905.48 -6.3739 -4.48725 0
M  V30 20900 N 1909.71 0.175127 -1.56624 0
M  V30 20901 C 1910.95 0.89369 -1.82047 0
M  V30 20902 C 1911.28 1.82061 -0.675831 0
M  V30 20903 O 1910.56 1.91808 0.322453 0
M  V30 20904 C 1910.84 1.69266 -3.17838 0
M  V30 20905 C 1910.7 0.789122 -4.42824 0
M  V30 20906 C 1912.01 2.66115 -3.50529 0
M  V30 20907 H 1909.13 0.323454 -0.662228 0
M  V30 20908 H 1911.78 0.160077 -1.89324 0
M  V30 20909 H 1909.93 2.31808 -3.11765 0
M  V30 20910 H 1911.6 0.17687 -4.60961 0
M  V30 20911 H 1909.84 0.0969508 -4.33692 0
M  V30 20912 H 1910.51 1.38358 -5.34379 0
M  V30 20913 H 1912.99 2.137 -3.57031 0
M  V30 20914 H 1911.86 3.19087 -4.46626 0
M  V30 20915 H 1912.12 3.4613 -2.75038 0
M  V30 20916 N 1911.18 1.5123 0.44355 0
M  V30 20917 C 1912.43 1.6359 1.1935 0
M  V30 20918 C 1912.76 0.349172 1.9134 0
M  V30 20919 O 1912.01 -0.66645 1.84003 0
M  V30 20920 C 1912.31 2.78511 2.23978 0
M  V30 20921 C 1911.98 4.18013 1.69045 0
M  V30 20922 C 1910.64 4.55964 1.53786 0
M  V30 20923 C 1912.99 5.05088 1.28591 0
M  V30 20924 C 1910.32 5.78703 0.965374 0
M  V30 20925 C 1912.67 6.284 0.72774 0
M  V30 20926 C 1911.34 6.6513 0.562001 0
M  V30 20927 H 1910.61 0.59862 0.436733 0
M  V30 20928 H 1913.25 1.85245 0.485449 0
M  V30 20929 H 1911.56 2.51054 3.00798 0
M  V30 20930 H 1913.26 2.85275 2.81814 0
M  V30 20931 H 1909.85 3.88087 1.81896 0
M  V30 20932 H 1914.03 4.76378 1.39202 0
M  V30 20933 H 1909.29 6.05813 0.824671 0
M  V30 20934 H 1913.46 6.95217 0.405735 0
M  V30 20935 H 1911.09 7.60111 0.116266 0
M  V30 20936 N 1912.66 -0.698586 1.41271 0
M  V30 20937 C 1913.91 -1.45425 1.39766 0
M  V30 20938 C 1914.22 -1.95598 0.00891528 0
M  V30 20939 O 1915.43 -2.71195 -0.128757 0
M  V30 20940 C 1913.89 -2.62952 2.45732 0
M  V30 20941 C 1913.49 -2.19578 3.90499 0
M  V30 20942 C 1915.24 -3.40602 2.53359 0
M  V30 20943 C 1913.14 -3.34046 4.88024 0
M  V30 20944 H 1912.07 -0.546236 0.519752 0
M  V30 20945 H 1914.73 -0.758678 1.67082 0
M  V30 20946 H 1913.11 -3.34762 2.11542 0
M  V30 20947 H 1914.28 -1.55077 4.33921 0
M  V30 20948 H 1912.6 -1.5493 3.86504 0
M  V30 20949 H 1915.19 -4.25809 3.23405 0
M  V30 20950 H 1915.54 -3.85582 1.56946 0
M  V30 20951 H 1916.07 -2.75846 2.86625 0
M  V30 20952 H 1912.81 -2.94081 5.8583 0
M  V30 20953 H 1912.33 -3.97407 4.49253 0
M  V30 20954 H 1914.01 -3.99867 5.0864 0
M  V30 20955 N 1914.14 -1.27049 -0.93254 0
M  V30 20956 C 1915.39 -1.13103 -1.6797 0
M  V30 20957 C 1915.71 0.324047 -1.91782 0
M  V30 20958 O 1914.97 1.25381 -1.5026 0
M  V30 20959 C 1915.27 -1.8547 -3.05509 0
M  V30 20960 C 1914.93 -3.35342 -3.01424 0
M  V30 20961 C 1913.6 -3.76222 -3.00017 0
M  V30 20962 C 1915.95 -4.30993 -2.93078 0
M  V30 20963 C 1913.28 -5.11125 -2.88041 0
M  V30 20964 C 1915.63 -5.65946 -2.82644 0
M  V30 20965 C 1914.29 -6.06126 -2.79585 0
M  V30 20966 H 1913.56 -0.413872 -0.614647 0
M  V30 20967 H 1916.21 -1.57598 -1.08789 0
M  V30 20968 H 1914.51 -1.33469 -3.68366 0
M  V30 20969 H 1916.21 -1.72112 -3.62186 0
M  V30 20970 H 1912.8 -3.02828 -3.03303 0
M  V30 20971 H 1916.99 -4.00385 -2.93267 0
M  V30 20972 H 1912.24 -5.41408 -2.84056 0
M  V30 20973 H 1916.42 -6.39738 -2.75151 0
M  V30 20974 H 1914.04 -7.10613 -2.70061 0
M  V30 20975 N 1915.62 1.13835 -1.08993 0
M  V30 20976 C 1916.84 1.89402 -0.845071 0
M  V30 20977 C 1917.27 1.78353 0.597641 0
M  V30 20978 O 1916.63 1.12793 1.41942 0
M  V30 20979 C 1916.67 3.37144 -1.27931 0
M  V30 20980 O 1915.78 4.101 -0.434975 0
M  V30 20981 H 1915.12 0.589066 -0.306427 0
M  V30 20982 H 1917.65 1.44055 -1.45291 0
M  V30 20983 H 1917.66 3.87967 -1.26277 0
M  V30 20984 H 1916.33 3.44504 -2.33002 0
M  V30 20985 H 1914.91 3.6932 -0.515447 0
M  V30 20986 N 1917.1 0.876467 1.3098 0
M  V30 20987 C 1918.34 0.489671 1.96078 0
M  V30 20988 C 1918.66 -0.962603 1.69585 0
M  V30 20989 O 1917.93 -1.67568 1.01478 0
M  V30 20990 H 1916.51 0.178091 0.72546 0
M  V30 20991 H 1919.18 1.11768 1.59668 0
M  V30 20992 H 1918.27 0.652822 3.05196 0
M  V30 20993 N 1918.57 -1.44173 0.636557 0
M  V30 20994 C 1919.8 -2.06352 0.150456 0
M  V30 20995 C 1920.22 -1.47608 -1.17718 0
M  V30 20996 O 1919.57 -0.601003 -1.7232 0
M  V30 20997 C 1919.62 -3.61483 0.0353658 0
M  V30 20998 O 1919.35 -4.1804 1.3105 0
M  V30 20999 C 1920.85 -4.40707 -0.478789 0
M  V30 21000 H 1918.07 -0.665948 0.0821807 0
M  V30 21001 H 1920.61 -1.84953 0.872495 0
M  V30 21002 H 1918.77 -3.82125 -0.637142 0
M  V30 21003 H 1919.18 -5.11538 1.15886 0
M  V30 21004 H 1920.65 -5.49655 -0.508315 0
M  V30 21005 H 1921.13 -4.1254 -1.5069 0
M  V30 21006 H 1921.74 -4.24996 0.160654 0
M  V30 21007 N 1920.05 -0.377435 -1.53014 0
M  V30 21008 C 1921.3 0.20853 -2.01423 0
M  V30 21009 C 1921.63 1.47801 -1.26433 0
M  V30 21010 O 1920.88 1.92551 -0.34966 0
M  V30 21011 C 1921.18 0.534659 -3.53378 0
M  V30 21012 C 1920.85 -0.641876 -4.46308 0
M  V30 21013 C 1919.51 -0.964671 -4.71431 0
M  V30 21014 C 1921.86 -1.42954 -5.01212 0
M  V30 21015 C 1919.19 -2.07689 -5.4871 0
M  V30 21016 C 1921.54 -2.53227 -5.79706 0
M  V30 21017 C 1920.2 -2.86028 -6.03112 0
M  V30 21018 H 1919.47 0.0763064 -0.737061 0
M  V30 21019 H 1922.12 -0.51234 -1.84519 0
M  V30 21020 H 1920.43 1.3367 -3.68293 0
M  V30 21021 H 1922.12 1.00048 -3.88319 0
M  V30 21022 H 1918.71 -0.380266 -4.2691 0
M  V30 21023 H 1922.9 -1.1934 -4.81738 0
M  V30 21024 H 1918.15 -2.33487 -5.65061 0
M  V30 21025 H 1922.33 -3.14669 -6.21254 0
M  V30 21026 H 1919.95 -3.72332 -6.62777 0
M  V30 21027 N 1921.53 1.57237 -0.106922 0
M  V30 21028 C 1922.95 1.57634 0.249708 0
M  V30 21029 C 1923.15 1.11888 1.67581 0
M  V30 21030 O 1922.2 0.80073 2.39467 0
M  V30 21031 C 1923.52 3.00688 0.0273757 0
M  V30 21032 C 1925.06 3.12858 0.0942116 0
M  V30 21033 C 1925.54 4.5789 -0.100275 0
M  V30 21034 N 1927.03 4.63177 -0.045837 0
M  V30 21035 C 1927.76 5.73144 -0.171398 0
M  V30 21036 N 1927.26 6.91903 -0.352455 0
M  V30 21037 N 1929.05 5.61989 -0.111827 0
M  V30 21038 H 1921.2 1.85278 -1.03855 0
M  V30 21039 H 1923.47 0.855717 -0.407985 0
M  V30 21040 H 1923.17 3.38399 -0.958063 0
M  V30 21041 H 1923.05 3.6937 0.764546 0
M  V30 21042 H 1925.43 2.75012 1.07016 0
M  V30 21043 H 1925.52 2.46743 -0.674643 0
M  V30 21044 H 1925.16 4.96433 -1.07315 0
M  V30 21045 H 1925.09 5.22081 0.688418 0
M  V30 21046 H 1927.58 3.7779 0.0910806 0
M  V30 21047 H 1927.89 7.7155 -0.439454 0
M  V30 21048 H 1926.24 6.93915 -0.388274 0
M  V30 21049 H 1929.43 4.68091 0.0285732 0
M  V30 21050 H 1929.6 6.47649 -0.213127 0
M  V30 21051 N 1923.01 -0.166818 1.56715 0
M  V30 21052 C 1923.96 -1.20646 1.96757 0
M  V30 21053 C 1924.93 -1.43751 0.832153 0
M  V30 21054 O 1926.11 -1.56416 1.09264 0
M  V30 21055 C 1923.25 -2.53971 2.3365 0
M  V30 21056 C 1922.36 -2.38207 3.60391 0
M  V30 21057 C 1921.5 -3.6443 3.86476 0
M  V30 21058 C 1920.54 -3.43618 5.0655 0
M  V30 21059 N 1919.67 -4.61923 5.28746 0
M  V30 21060 H 1924.51 -0.857983 2.85382 0
M  V30 21061 H 1922.05 -0.412238 1.41206 0
M  V30 21062 H 1924.01 -3.31684 2.53064 0
M  V30 21063 H 1922.64 -2.86805 1.48131 0
M  V30 21064 H 1921.69 -1.51648 3.48866 0
M  V30 21065 H 1923 -2.18777 4.48261 0
M  V30 21066 H 1922.16 -4.50578 4.06282 0
M  V30 21067 H 1920.9 -3.86844 2.9699 0
M  V30 21068 H 1919.9 -2.55858 4.86638 0
M  V30 21069 H 1921.13 -3.22623 5.97571 0
M  V30 21070 H 1919.07 -4.84547 4.42211 0
M  V30 21071 H 1918.99 -4.45423 6.10848 0
M  V30 21072 H 1920.26 -5.4934 5.53033 0
M  V30 21073 N 1924.49 -1.51463 -0.435524 0
M  V30 21074 C 1925.43 -1.73484 -1.54939 0
M  V30 21075 C 1926.43 -0.601197 -1.58373 0
M  V30 21076 O 1927.63 -0.782622 -1.62096 0
M  V30 21077 H 1924.01 -0.54818 -0.514784 0
M  V30 21078 H 1925.98 -2.66851 -1.3354 0
M  V30 21079 C 1924.73 -1.87866 -2.92578 0
M  V30 21080 H 1924.05 -2.74503 -2.90668 0
M  V30 21081 H 1925.49 -2.07285 -3.69877 0
M  V30 21082 C 1923.95 -0.638928 -3.30786 0
M  V30 21083 O 1924.48 0.205561 -4.01174 0
M  V30 21084 N 1922.69 -0.48249 -2.86567 0
M  V30 21085 H 1922.23 -1.17078 -2.29457 0
M  V30 21086 H 1922.19 0.345753 -3.12493 0
M  V30 21087 N 1925.96 0.691085 -1.4164 0
M  V30 21088 C 1926.89 1.8173 -1.46616 0
M  V30 21089 C 1927.88 1.66979 -0.324357 0
M  V30 21090 O 1929.06 1.86644 -0.536424 0
M  V30 21091 C 1926.19 3.19903 -1.35201 0
M  V30 21092 C 1925.14 3.49366 -2.47239 0
M  V30 21093 C 1924.47 4.86942 -2.20887 0
M  V30 21094 C 1925.77 3.47891 -3.89575 0
M  V30 21095 H 1927.46 1.77823 -2.40872 0
M  V30 21096 H 1925.01 0.8541 -1.15936 0
M  V30 21097 H 1926.96 3.98407 -1.37293 0
M  V30 21098 H 1925.69 3.24448 -0.374312 0
M  V30 21099 H 1924.35 2.73215 -2.44436 0
M  V30 21100 H 1923.99 4.88118 -1.2145 0
M  V30 21101 H 1923.69 5.0762 -2.95966 0
M  V30 21102 H 1925.22 5.67751 -2.24703 0
M  V30 21103 H 1926.63 4.16392 -3.94069 0
M  V30 21104 H 1925.03 3.80101 -4.64374 0
M  V30 21105 H 1926.1 2.46778 -4.17407 0
M  V30 21106 N 1927.44 1.27542 0.925789 0
M  V30 21107 C 1928.72 1.04714 1.6521 0
M  V30 21108 C 1929.1 -0.417492 2.0693 0
M  V30 21109 O 1928.45 -1.40112 1.80502 0
M  V30 21110 C 1928.66 2.0105 2.85272 0
M  V30 21111 C 1930.01 2.30526 3.56571 0
M  V30 21112 O 1931.03 1.99038 2.95402 0
M  V30 21113 O 1929.89 2.84211 4.66783 0
M  V30 21114 H 1926.98 0.399325 0.724202 0
M  V30 21115 H 1929.53 1.38814 0.976156 0
M  V30 21116 H 1928.3 2.99817 2.51447 0
M  V30 21117 H 1927.92 1.67523 3.60585 0
M  V30 21118 N 1928.92 -1.13255 1.09595 0
M  V30 21119 C 1930.33 -1.66118 0.852147 0
M  V30 21120 C 1930.68 -1.86177 -0.61909 0
M  V30 21121 O 1929.81 -1.58186 -1.47669 0
M  V30 21122 C 1930.4 -3.0176 1.54034 0
M  V30 21123 C 1928.96 -3.51608 1.34347 0
M  V30 21124 C 1928.11 -2.26815 1.59531 0
M  V30 21125 H 1931.06 -0.971539 1.25486 0
M  V30 21126 H 1931.08 -3.67812 0.974418 0
M  V30 21127 H 1930.59 -2.87129 2.6111 0
M  V30 21128 H 1928.69 -3.71439 0.293951 0
M  V30 21129 H 1928.81 -4.31618 2.07949 0
M  V30 21130 H 1927.17 -2.33492 1.01753 0
M  V30 21131 H 1927.95 -2.14748 2.6784 0
M  V30 21132 N 1930.4 -0.883401 -1.30514 0
M  V30 21133 C 1931.63 -0.515199 -2.00073 0
M  V30 21134 C 1932.04 0.900374 -1.66403 0
M  V30 21135 O 1931.38 1.60339 -0.896503 0
M  V30 21136 C 1931.44 -0.608317 -3.54316 0
M  V30 21137 C 1931.11 -1.98792 -4.11498 0
M  V30 21138 C 1932.1 -2.95712 -4.2761 0
M  V30 21139 C 1929.79 -2.29288 -4.46914 0
M  V30 21140 C 1931.78 -4.21264 -4.78347 0
M  V30 21141 C 1929.47 -3.55086 -4.9735 0
M  V30 21142 C 1930.47 -4.50888 -5.13019 0
M  V30 21143 O 1930.15 -5.74455 -5.62367 0
M  V30 21144 H 1929.89 -0.197853 -0.646398 0
M  V30 21145 H 1932.44 -1.19015 -1.67405 0
M  V30 21146 H 1930.67 0.123606 -3.86502 0
M  V30 21147 H 1932.36 -0.251619 -4.05119 0
M  V30 21148 H 1933.13 -2.73463 -4.00553 0
M  V30 21149 H 1929 -1.55488 -4.33987 0
M  V30 21150 H 1932.55 -4.96048 -4.90492 0
M  V30 21151 H 1928.45 -3.77172 -5.23843 0
M  V30 21152 H 1929.21 -5.76814 -5.80713 0
M  V30 21153 N 1931.88 1.43833 -0.644194 0
M  V30 21154 C 1932.79 2.34538 0.0537504 0
M  V30 21155 C 1933.8 1.53369 0.821825 0
M  V30 21156 O 1934.98 1.86053 0.771123 0
M  V30 21157 C 1932.04 3.3153 1.01434 0
M  V30 21158 C 1931.1 4.28605 0.244198 0
M  V30 21159 C 1930.34 5.20963 1.15903 0
M  V30 21160 O 1930.56 5.1754 2.3981 0
M  V30 21161 O 1929.49 5.98527 0.636302 0
M  V30 21162 H 1933.32 2.95696 -0.692624 0
M  V30 21163 H 1930.91 1.43823 -0.404377 0
M  V30 21164 H 1932.79 3.91196 1.56663 0
M  V30 21165 H 1931.46 2.72887 1.7411 0
M  V30 21166 H 1930.37 3.72445 -0.351459 0
M  V30 21167 H 1931.7 4.90204 -0.442806 0
M  V30 21168 N 1933.35 0.385544 1.52811 0
M  V30 21169 C 1934.29 -0.486433 2.23979 0
M  V30 21170 C 1935.3 -1.02981 1.2609 0
M  V30 21171 O 1936.49 -0.932779 1.52189 0
M  V30 21172 C 1933.59 -1.68645 2.93959 0
M  V30 21173 C 1932.76 -1.2711 4.18523 0
M  V30 21174 C 1931.82 -2.33538 4.71536 0
M  V30 21175 O 1930.85 -1.95101 5.34719 0
M  V30 21176 N 1932.05 -3.65401 4.51068 0
M  V30 21177 H 1934.81 0.12327 2.99446 0
M  V30 21178 H 1932.37 0.211712 1.6051 0
M  V30 21179 H 1934.37 -2.3936 3.26326 0
M  V30 21180 H 1932.94 -2.20257 2.21823 0
M  V30 21181 H 1932.16 -0.392983 3.92236 0
M  V30 21182 H 1933.44 -0.970192 4.99464 0
M  V30 21183 H 1932.84 -3.99393 4.00626 0
M  V30 21184 H 1931.4 -4.32162 4.87934 0
M  V30 21185 N 1934.83 -1.57178 0.115259 0
M  V30 21186 C 1936.08 -1.9615 -0.538219 0
M  V30 21187 C 1936.43 -0.997429 -1.64527 0
M  V30 21188 O 1935.73 -0.0268145 -1.91581 0
M  V30 21189 C 1935.92 -3.39391 -1.12019 0
M  V30 21190 C 1935.75 -4.49644 -0.0710534 0
M  V30 21191 C 1934.52 -5.0402 0.359465 0
M  V30 21192 C 1936.72 -5.09397 0.708498 0
M  V30 21193 N 1934.7 -5.97846 1.39477 0
M  V30 21194 C 1936.07 -5.9913 1.59509 0
M  V30 21195 C 1938.13 -4.92069 0.759798 0
M  V30 21196 C 1936.83 -6.73393 2.52852 0
M  V30 21197 C 1938.85 -5.67009 1.68091 0
M  V30 21198 C 1938.22 -6.56425 2.55509 0
M  V30 21199 H 1934.32 -0.764029 -0.166686 0
M  V30 21200 H 1936.9 -1.93644 0.202509 0
M  V30 21201 H 1935.07 -3.42552 -1.83065 0
M  V30 21202 H 1936.8 -3.65495 -1.73768 0
M  V30 21203 H 1933.56 -4.73589 -0.0322085 0
M  V30 21204 H 1933.98 -6.49462 1.91123 0
M  V30 21205 H 1938.62 -4.22686 0.0980772 0
M  V30 21206 H 1936.34 -7.42025 3.20039 0
M  V30 21207 H 1939.93 -5.55608 1.726 0
M  V30 21208 H 1938.81 -7.13398 3.25626 0
M  V30 21209 N 1936.31 0.158505 -1.56801 0
M  V30 21210 C 1937.54 0.892291 -1.87224 0
M  V30 21211 C 1937.96 1.74468 -0.703029 0
M  V30 21212 O 1937.32 1.77936 0.347649 0
M  V30 21213 C 1937.37 1.73433 -3.16154 0
M  V30 21214 O 1936.47 2.83736 -2.99279 0
M  V30 21215 H 1935.81 0.249214 -0.615458 0
M  V30 21216 H 1938.34 0.152785 -2.04029 0
M  V30 21217 H 1938.35 2.13168 -3.47884 0
M  V30 21218 H 1937.03 1.10831 -4.00861 0
M  V30 21219 H 1935.6 2.47491 -2.78931 0
M  V30 21220 N 1937.79 1.51692 0.427485 0
M  V30 21221 C 1939.07 1.55395 1.18793 0
M  V30 21222 C 1939.45 0.324036 2.08598 0
M  V30 21223 O 1938.79 -0.690292 2.17824 0
M  V30 21224 C 1939 2.87313 1.98121 0
M  V30 21225 C 1940.35 3.39632 2.54824 0
M  V30 21226 O 1941.38 2.8893 2.08322 0
M  V30 21227 O 1940.24 4.28125 3.39664 0
M  V30 21228 H 1937.33 0.625173 0.541376 0
M  V30 21229 H 1939.88 1.6401 0.435754 0
M  V30 21230 H 1938.65 3.68284 1.32222 0
M  V30 21231 H 1938.27 2.81907 2.80383 0
M  V30 21232 N 1939.27 -0.683564 1.42004 0
M  V30 21233 C 1940.2 -1.80902 1.40737 0
M  V30 21234 C 1941.21 -1.59865 0.307725 0
M  V30 21235 O 1942.4 -1.69146 0.570244 0
M  V30 21236 C 1939.5 -3.17867 1.17533 0
M  V30 21237 C 1938.67 -3.65829 2.39766 0
M  V30 21238 C 1937.73 -4.81499 2.12238 0
M  V30 21239 O 1936.76 -4.92495 2.85371 0
M  V30 21240 N 1937.96 -5.69592 1.12006 0
M  V30 21241 H 1940.73 -1.82478 2.37744 0
M  V30 21242 H 1938.29 -0.866335 1.36771 0
M  V30 21243 H 1940.28 -3.92891 0.970489 0
M  V30 21244 H 1938.85 -3.11244 0.290811 0
M  V30 21245 H 1938.07 -2.81579 2.75874 0
M  V30 21246 H 1939.36 -3.94615 3.2118 0
M  V30 21247 H 1938.76 -5.63351 0.515003 0
M  V30 21248 H 1937.31 -6.44465 0.975098 0
M  V30 21249 N 1940.75 -1.28031 -0.919012 0
M  V30 21250 C 1941.66 -1.13341 -2.05404 0
M  V30 21251 C 1942.67 -0.0612715 -1.73892 0
M  V30 21252 O 1943.85 -0.26951 -1.99589 0
M  V30 21253 C 1940.91 -0.791143 -3.37553 0
M  V30 21254 C 1939.97 -1.94509 -3.82707 0
M  V30 21255 C 1939.21 -1.61905 -5.08549 0
M  V30 21256 O 1939.43 -0.530962 -5.67923 0
M  V30 21257 O 1938.36 -2.46102 -5.49288 0
M  V30 21258 H 1942.19 -2.08613 -2.20713 0
M  V30 21259 H 1939.77 -1.073 -1.03957 0
M  V30 21260 H 1941.66 -0.613981 -4.16903 0
M  V30 21261 H 1940.33 0.131966 -3.23431 0
M  V30 21262 H 1939.24 -2.17737 -3.04206 0
M  V30 21263 H 1940.57 -2.84871 -4.01384 0
M  V30 21264 N 1942.22 1.12672 -1.10194 0
M  V30 21265 C 1943.47 1.83483 -0.837668 0
M  V30 21266 C 1943.79 1.84873 0.638864 0
M  V30 21267 O 1944.99 2.51654 1.01895 0
M  V30 21268 C 1943.45 3.29455 -1.4487 0
M  V30 21269 C 1943.06 3.36431 -2.95834 0
M  V30 21270 C 1944.8 4.05254 -1.26371 0
M  V30 21271 C 1942.71 4.76723 -3.49984 0
M  V30 21272 H 1941.64 0.687458 -0.309706 0
M  V30 21273 H 1944.29 1.26884 -1.32562 0
M  V30 21274 H 1942.67 3.85905 -0.88843 0
M  V30 21275 H 1943.84 2.89934 -3.58155 0
M  V30 21276 H 1942.16 2.74104 -3.13458 0
M  V30 21277 H 1944.76 5.0884 -1.64274 0
M  V30 21278 H 1945.1 4.15795 -0.205058 0
M  V30 21279 H 1945.63 3.55155 -1.79192 0
M  V30 21280 H 1942.37 4.71376 -4.55505 0
M  V30 21281 H 1941.89 5.23684 -2.9243 0
M  V30 21282 H 1943.57 5.45659 -3.47657 0
M  V30 21283 N 1943.7 0.89031 1.30043 0
M  V30 21284 C 1944.95 0.521592 1.96599 0
M  V30 21285 C 1945.3 -0.920162 1.6897 0
M  V30 21286 O 1944.6 -1.64226 0.986941 0
M  V30 21287 C 1944.79 0.739209 3.49672 0
M  V30 21288 C 1944.62 2.20056 3.9218 0
M  V30 21289 C 1943.39 2.84618 4.17517 0
M  V30 21290 C 1945.59 3.17488 4.04605 0
M  V30 21291 N 1943.57 4.21295 4.46525 0
M  V30 21292 C 1944.94 4.39254 4.37557 0
M  V30 21293 C 1946.99 3.13205 3.87049 0
M  V30 21294 C 1945.7 5.57284 4.54782 0
M  V30 21295 C 1947.72 4.30512 4.05479 0
M  V30 21296 C 1947.09 5.51045 4.38781 0
M  V30 21297 H 1943.18 0.240293 0.744166 0
M  V30 21298 H 1945.77 1.14916 1.5717 0
M  V30 21299 H 1943.94 0.141088 3.88144 0
M  V30 21300 H 1945.67 0.33686 4.03296 0
M  V30 21301 H 1942.43 2.35459 4.10921 0
M  V30 21302 H 1942.85 4.91896 4.65153 0
M  V30 21303 H 1947.49 2.21112 3.60374 0
M  V30 21304 H 1945.21 6.49877 4.80298 0
M  V30 21305 H 1948.8 4.28674 3.93358 0
M  V30 21306 H 1947.68 6.40304 4.52747 0
M  V30 21307 N 1945.18 -1.43489 0.651812 0
M  V30 21308 C 1946.13 -2.30764 -0.0406423 0
M  V30 21309 C 1947.1 -1.44669 -0.816091 0
M  V30 21310 O 1948.28 -1.73541 -0.792978 0
M  V30 21311 C 1945.42 -3.30232 -1.00206 0
M  V30 21312 C 1944.53 -4.31425 -0.222857 0
M  V30 21313 C 1943.67 -5.17975 -1.17794 0
M  V30 21314 C 1942.71 -6.10862 -0.389096 0
M  V30 21315 N 1941.85 -6.90041 -1.2957 0
M  V30 21316 H 1946.69 -2.89431 0.709482 0
M  V30 21317 H 1944.22 -1.42585 0.361636 0
M  V30 21318 H 1946.18 -3.86408 -1.57306 0
M  V30 21319 H 1944.81 -2.73217 -1.71907 0
M  V30 21320 H 1943.86 -3.77554 0.464409 0
M  V30 21321 H 1945.17 -4.97268 0.390608 0
M  V30 21322 H 1944.33 -5.7877 -1.81962 0
M  V30 21323 H 1943.07 -4.52254 -1.82532 0
M  V30 21324 H 1942.07 -5.49156 0.265943 0
M  V30 21325 H 1943.3 -6.78625 0.253855 0
M  V30 21326 H 1941.24 -6.2697 -1.9299 0
M  V30 21327 H 1941.16 -7.52401 -0.736762 0
M  V30 21328 H 1942.43 -7.55342 -1.92557 0
M  V30 21329 N 1946.66 -0.393643 -1.52605 0
M  V30 21330 C 1947.9 0.187431 -2.01932 0
M  V30 21331 C 1948.24 1.46098 -1.27942 0
M  V30 21332 O 1947.51 1.90729 -0.381154 0
M  V30 21333 C 1947.79 0.450933 -3.57265 0
M  V30 21334 C 1947.65 -0.838204 -4.41921 0
M  V30 21335 C 1948.97 1.23971 -4.22278 0
M  V30 21336 H 1946.09 0.0666471 -0.73398 0
M  V30 21337 H 1948.73 -0.524064 -1.8263 0
M  V30 21338 H 1946.88 1.05703 -3.73844 0
M  V30 21339 H 1948.55 -1.47492 -4.37086 0
M  V30 21340 H 1946.79 -1.45258 -4.08757 0
M  V30 21341 H 1947.46 -0.608424 -5.48637 0
M  V30 21342 H 1949.94 0.726733 -4.09705 0
M  V30 21343 H 1948.82 1.39283 -5.30935 0
M  V30 21344 H 1949.08 2.25611 -3.802 0
M  V30 21345 N 1948.14 1.57115 -0.123593 0
M  V30 21346 C 1949.1 2.14386 0.810624 0
M  V30 21347 C 1950.1 1.07985 1.19146 0
M  V30 21348 O 1951.29 1.33739 1.11622 0
M  V30 21349 C 1948.42 2.68785 2.09683 0
M  V30 21350 H 1949.61 2.98264 0.312818 0
M  V30 21351 H 1947.17 1.55794 0.125682 0
M  V30 21352 H 1947.9 1.88509 2.63884 0
M  V30 21353 H 1947.69 3.46607 1.8332 0
M  V30 21354 H 1949.18 3.12989 2.76455 0
M  V30 21355 N 1949.61 -0.150187 1.56883 0
M  V30 21356 C 1950.89 -0.891842 1.74085 0
M  V30 21357 C 1951.27 -1.99479 0.690751 0
M  V30 21358 O 1950.62 -2.26641 -0.290877 0
M  V30 21359 C 1950.83 -1.43722 3.18033 0
M  V30 21360 C 1952.18 -1.90188 3.79623 0
M  V30 21361 O 1953.2 -1.53471 3.21442 0
M  V30 21362 O 1952.06 -2.57892 4.81824 0
M  V30 21363 H 1949.15 -0.421241 0.711678 0
M  V30 21364 H 1951.7 -0.136362 1.69151 0
M  V30 21365 H 1950.47 -0.644422 3.85957 0
M  V30 21366 H 1950.09 -2.2563 3.27379 0
M  V30 21367 N 1951.09 -1.51916 -0.419434 0
M  V30 21368 C 1952 -1.77393 -1.53522 0
M  V30 21369 C 1953.02 -0.65897 -1.61039 0
M  V30 21370 O 1954.19 -0.943237 -1.77947 0
M  V30 21371 C 1951.26 -1.90988 -2.89352 0
M  V30 21372 C 1950.32 -3.14878 -2.91805 0
M  V30 21373 C 1949.55 -3.27815 -4.21157 0
M  V30 21374 O 1949.78 -2.4626 -5.14502 0
M  V30 21375 O 1948.71 -4.20906 -4.30258 0
M  V30 21376 H 1952.54 -2.72079 -1.34932 0
M  V30 21377 H 1950.12 -1.36635 -0.604259 0
M  V30 21378 H 1952 -2.01812 -3.69932 0
M  V30 21379 H 1950.68 -0.994906 -3.08031 0
M  V30 21380 H 1949.59 -3.0952 -2.10115 0
M  V30 21381 H 1950.92 -4.06123 -2.78073 0
M  V30 21382 N 1952.57 0.676023 -1.42365 0
M  V30 21383 C 1953.82 1.43821 -1.4298 0
M  V30 21384 C 1954.15 1.94147 -0.0455702 0
M  V30 21385 O 1953.42 1.70826 0.929976 0
M  V30 21386 C 1953.71 2.63612 -2.45318 0
M  V30 21387 C 1953.56 2.18926 -3.92927 0
M  V30 21388 C 1954.88 3.65827 -2.4466 0
M  V30 21389 H 1952 0.521622 -0.520653 0
M  V30 21390 H 1954.64 0.76837 -1.7377 0
M  V30 21391 H 1952.79 3.2076 -2.19193 0
M  V30 21392 H 1954.46 1.66955 -4.30028 0
M  V30 21393 H 1952.71 1.50512 -4.06852 0
M  V30 21394 H 1953.38 3.04965 -4.60109 0
M  V30 21395 H 1955.85 3.18393 -2.6789 0
M  V30 21396 H 1954.73 4.47226 -3.18245 0
M  V30 21397 H 1954.99 4.1687 -1.47213 0
M  V30 21398 N 1954.05 1.28517 0.912209 0
M  V30 21399 C 1955.3 1.15532 1.65822 0
M  V30 21400 C 1955.62 -0.296177 1.92738 0
M  V30 21401 O 1954.89 -1.20492 1.54462 0
M  V30 21402 H 1953.47 0.424573 0.614611 0
M  V30 21403 H 1956.13 1.61267 1.09448 0
M  V30 21404 H 1955.23 1.69606 2.61993 0
M  V30 21405 N 1955.53 -1.12086 1.1079 0
M  V30 21406 C 1956.46 -2.2001 0.78217 0
M  V30 21407 C 1957.44 -1.68305 -0.246488 0
M  V30 21408 O 1958.62 -1.9388 -0.111448 0
M  V30 21409 C 1955.75 -3.4662 0.2172 0
M  V30 21410 C 1954.71 -4.11499 1.17696 0
M  V30 21411 C 1954.03 -5.32604 0.47302 0
M  V30 21412 C 1955.33 -4.5721 2.52501 0
M  V30 21413 H 1957.03 -2.47514 1.68456 0
M  V30 21414 H 1954.57 -1.18964 0.811397 0
M  V30 21415 H 1956.53 -4.21394 -0.0228381 0
M  V30 21416 H 1955.25 -3.18555 -0.720448 0
M  V30 21417 H 1953.91 -3.38711 1.40252 0
M  V30 21418 H 1953.56 -5.00807 -0.469217 0
M  V30 21419 H 1953.26 -5.76961 1.11308 0
M  V30 21420 H 1954.78 -6.10122 0.241615 0
M  V30 21421 H 1956.19 -5.23338 2.34073 0
M  V30 21422 H 1954.59 -5.12357 3.12426 0
M  V30 21423 H 1955.66 -3.71003 3.12226 0
M  V30 21424 N 1957 -0.897194 -1.29569 0
M  V30 21425 C 1958.42 -0.592933 -1.48177 0
M  V30 21426 C 1958.62 0.866214 -1.81931 0
M  V30 21427 O 1957.68 1.64658 -1.91427 0
M  V30 21428 C 1958.99 -1.5166 -2.59653 0
M  V30 21429 C 1960.54 -1.52153 -2.73529 0
M  V30 21430 C 1961.01 -2.43142 -3.88131 0
M  V30 21431 N 1962.5 -2.41175 -3.9546 0
M  V30 21432 C 1963.24 -3.08283 -4.83476 0
M  V30 21433 N 1962.73 -3.84662 -5.76201 0
M  V30 21434 N 1964.53 -2.97453 -4.76946 0
M  V30 21435 H 1956.68 -1.84096 -1.05935 0
M  V30 21436 H 1958.94 -0.788701 -0.52598 0
M  V30 21437 H 1958.65 -2.55612 -2.41569 0
M  V30 21438 H 1958.52 -1.23526 -3.564 0
M  V30 21439 H 1960.91 -0.489472 -2.91012 0
M  V30 21440 H 1960.99 -1.84324 -1.77365 0
M  V30 21441 H 1960.63 -3.46441 -3.71404 0
M  V30 21442 H 1960.56 -2.08282 -4.83659 0
M  V30 21443 H 1963.05 -1.8568 -3.29137 0
M  V30 21444 H 1963.37 -4.32929 -6.4015 0
M  V30 21445 H 1961.71 -3.88769 -5.76094 0
M  V30 21446 H 1964.9 -2.37301 -4.03492 0
M  V30 21447 H 1965.08 -3.50029 -5.45329 0
M  V30 21448 N 1958.48 1.43142 -0.659413 0
M  V30 21449 C 1959.71 2.06603 -0.181642 0
M  V30 21450 C 1960.13 1.49137 1.14629 0
M  V30 21451 O 1959.49 0.603739 1.70952 0
M  V30 21452 C 1959.54 3.6043 -0.110662 0
M  V30 21453 O 1958.64 4.01884 0.925344 0
M  V30 21454 H 1957.98 0.656771 -0.097712 0
M  V30 21455 H 1960.51 1.83541 -0.904086 0
M  V30 21456 H 1960.52 4.07939 0.0706089 0
M  V30 21457 H 1959.2 4.01632 -1.08002 0
M  V30 21458 H 1957.78 3.65954 0.716361 0
M  V30 21459 N 1959.96 0.40173 1.52394 0
M  V30 21460 C 1961.21 -0.17672 2.02029 0
M  V30 21461 C 1961.54 -1.45417 1.28715 0
M  V30 21462 O 1960.81 -1.90524 0.391263 0
M  V30 21463 C 1961.1 -0.43198 3.575 0
M  V30 21464 C 1960.95 0.861628 4.4147 0
M  V30 21465 C 1962.27 -1.2173 4.2293 0
M  V30 21466 H 1959.39 -0.0627536 0.734323 0
M  V30 21467 H 1962.03 0.533742 1.82349 0
M  V30 21468 H 1960.18 -1.03719 3.74399 0
M  V30 21469 H 1961.85 1.49808 4.36297 0
M  V30 21470 H 1960.1 1.47424 4.07981 0
M  V30 21471 H 1960.77 0.637511 5.48306 0
M  V30 21472 H 1963.24 -0.704996 4.10084 0
M  V30 21473 H 1962.12 -1.36465 5.31666 0
M  V30 21474 H 1962.38 -2.23592 3.81391 0
M  V30 21475 N 1961.44 -1.57047 0.131923 0
M  V30 21476 C 1962.69 -1.94807 -0.522807 0
M  V30 21477 C 1963 -1.01837 -1.66998 0
M  V30 21478 O 1964.21 -1.29115 -2.38834 0
M  V30 21479 C 1962.66 -3.4626 -0.981434 0
M  V30 21480 C 1962.27 -4.47787 0.137988 0
M  V30 21481 C 1964.01 -3.92915 -1.60681 0
M  V30 21482 C 1961.92 -5.90433 -0.338063 0
M  V30 21483 H 1960.85 -0.727245 -0.199076 0
M  V30 21484 H 1963.5 -1.8225 0.213851 0
M  V30 21485 H 1961.88 -3.54096 -1.7729 0
M  V30 21486 H 1963.06 -4.51632 0.914591 0
M  V30 21487 H 1961.37 -4.10961 0.670823 0
M  V30 21488 H 1963.97 -4.96914 -1.97434 0
M  V30 21489 H 1964.31 -3.33615 -2.49011 0
M  V30 21490 H 1964.85 -3.87933 -0.880514 0
M  V30 21491 H 1961.59 -6.53517 0.509502 0
M  V30 21492 H 1961.11 -5.89981 -1.08087 0
M  V30 21493 H 1962.78 -6.42096 -0.795053 0
M  V30 21494 N 1962.92 0.141865 -1.5696 0
M  V30 21495 C 1963.83 1.19435 -2.01922 0
M  V30 21496 C 1964.84 1.4671 -0.935527 0
M  V30 21497 O 1966.02 1.58279 -1.24538 0
M  V30 21498 C 1963.08 2.50665 -2.39516 0
M  V30 21499 C 1962.14 2.30991 -3.61859 0
M  V30 21500 C 1961.38 3.55963 -3.9765 0
M  V30 21501 O 1961.6 4.62354 -3.34044 0
M  V30 21502 O 1960.53 3.48322 -4.90872 0
M  V30 21503 H 1964.36 0.842613 -2.91777 0
M  V30 21504 H 1961.95 0.350973 -1.45219 0
M  V30 21505 H 1963.83 3.28024 -2.64534 0
M  V30 21506 H 1962.5 2.85358 -1.52815 0
M  V30 21507 H 1961.41 1.51565 -3.42022 0
M  V30 21508 H 1962.74 2.01211 -4.49194 0
M  V30 21509 N 1964.39 1.52136 0.411372 0
M  V30 21510 C 1965.33 1.71544 1.52005 0
M  V30 21511 C 1966.34 0.595859 1.51504 0
M  V30 21512 O 1967.53 0.870952 1.5581 0
M  V30 21513 C 1964.63 1.73867 2.90901 0
M  V30 21514 C 1963.8 3.02826 3.15619 0
M  V30 21515 C 1962.86 2.96991 4.34376 0
M  V30 21516 O 1961.89 3.70901 4.31765 0
M  V30 21517 N 1963.09 2.14626 5.39366 0
M  V30 21518 H 1965.85 2.67192 1.35752 0
M  V30 21519 H 1963.41 1.50346 0.600643 0
M  V30 21520 H 1965.41 1.67498 3.68411 0
M  V30 21521 H 1963.98 0.85702 3.00623 0
M  V30 21522 H 1963.2 3.22861 2.26174 0
M  V30 21523 H 1964.48 3.8814 3.28976 0
M  V30 21524 H 1963.88 1.54003 5.44334 0
M  V30 21525 H 1962.44 2.14116 6.15628 0
M  V30 21526 N 1965.87 -0.668464 1.42721 0
M  V30 21527 C 1967.12 -1.42849 1.43528 0
M  V30 21528 C 1967.45 -1.94425 0.0540077 0
M  V30 21529 O 1966.7 -1.71721 -0.938629 0
M  V30 21530 C 1967 -2.63743 2.41194 0
M  V30 21531 C 1966.67 -2.30672 3.87429 0
M  V30 21532 C 1965.33 -2.21365 4.2726 0
M  V30 21533 C 1967.68 -2.03937 4.79645 0
M  V30 21534 C 1965.01 -1.83456 5.5728 0
M  V30 21535 C 1967.36 -1.6753 6.10013 0
M  V30 21536 C 1966.03 -1.56737 6.48837 0
M  V30 21537 H 1965.3 -0.522721 0.525208 0
M  V30 21538 H 1967.94 -0.761625 1.75703 0
M  V30 21539 H 1966.25 -3.35491 2.02369 0
M  V30 21540 H 1967.95 -3.21934 2.3908 0
M  V30 21541 H 1964.54 -2.38821 3.55896 0
M  V30 21542 H 1968.72 -2.10057 4.49655 0
M  V30 21543 H 1963.98 -1.73674 5.86214 0
M  V30 21544 H 1968.15 -1.4587 6.80952 0
M  V30 21545 H 1965.78 -1.27133 7.49494 0
M  V30 21546 N 1967.35 -1.28999 -0.905381 0
M  V30 21547 C 1968.76 -1.15033 -1.47052 0
M  V30 21548 C 1969.11 0.256623 -1.94514 0
M  V30 21549 O 1968.24 1.15164 -1.83211 0
M  V30 21550 C 1968.83 -2.08213 -2.67269 0
M  V30 21551 C 1967.39 -1.98286 -3.19937 0
M  V30 21552 C 1966.54 -1.99468 -1.92634 0
M  V30 21553 H 1969.49 -1.41566 -0.717271 0
M  V30 21554 H 1969.51 -1.65102 -3.42814 0
M  V30 21555 H 1969.02 -3.10604 -2.32695 0
M  V30 21556 H 1967.12 -0.98963 -3.59217 0
M  V30 21557 H 1967.24 -2.85666 -3.84619 0
M  V30 21558 H 1965.6 -1.43988 -2.10094 0
M  V30 21559 H 1966.38 -3.03554 -1.60344 0
M  V30 21560 N 1968.83 1.11497 -1.11383 0
M  V30 21561 C 1970.08 1.8286 -0.860611 0
M  V30 21562 C 1970.4 1.85032 0.615471 0
M  V30 21563 O 1969.67 1.32047 1.44708 0
M  V30 21564 H 1968.25 0.677153 -0.315392 0
M  V30 21565 H 1970.91 1.34963 -1.40609 0
M  V30 21566 H 1970.01 2.86743 -1.23227 0
M  V30 21567 N 1970.31 0.904053 1.29092 0
M  V30 21568 C 1971.25 0.38351 2.27591 0
M  V30 21569 C 1972.22 -0.536758 1.57188 0
M  V30 21570 O 1973.41 -0.461057 1.85146 0
M  V30 21571 C 1970.55 -0.379051 3.43012 0
M  V30 21572 C 1969.66 0.572611 4.28188 0
M  V30 21573 C 1968.8 -0.207434 5.30795 0
M  V30 21574 C 1967.84 0.73847 6.07629 0
M  V30 21575 N 1966.97 -0.00744238 7.021 0
M  V30 21576 H 1971.81 1.22855 2.71497 0
M  V30 21577 H 1969.35 0.617145 1.33528 0
M  V30 21578 H 1971.31 -0.83727 4.08712 0
M  V30 21579 H 1969.94 -1.18851 3.00124 0
M  V30 21580 H 1968.99 1.14935 3.62621 0
M  V30 21581 H 1970.3 1.29648 4.81656 0
M  V30 21582 H 1969.46 -0.726655 6.02333 0
M  V30 21583 H 1968.2 -0.964417 4.78069 0
M  V30 21584 H 1967.2 1.26915 5.34951 0
M  V30 21585 H 1968.43 1.49485 6.62443 0
M  V30 21586 H 1966.37 -0.746612 6.51737 0
M  V30 21587 H 1966.29 0.656439 7.53145 0
M  V30 21588 H 1967.56 -0.506785 7.77851 0
M  V30 21589 N 1971.79 -1.4279 0.666995 0
M  V30 21590 C 1972.72 -2.335 -0.00234362 0
M  V30 21591 C 1973.7 -1.50244 -0.797537 0
M  V30 21592 O 1974.88 -1.7887 -0.756257 0
M  V30 21593 C 1972.01 -3.33774 -0.959795 0
M  V30 21594 C 1970.97 -4.27124 -0.273749 0
M  V30 21595 C 1970.29 -5.17544 -1.3436 0
M  V30 21596 C 1971.59 -5.15462 0.842411 0
M  V30 21597 H 1973.29 -2.89719 0.755212 0
M  V30 21598 H 1970.83 -1.39307 0.364622 0
M  V30 21599 H 1972.78 -3.96139 -1.43707 0
M  V30 21600 H 1971.51 -2.75842 -1.74868 0
M  V30 21601 H 1970.17 -3.66142 0.18321 0
M  V30 21602 H 1969.82 -4.55943 -2.12427 0
M  V30 21603 H 1969.52 -5.80825 -0.889738 0
M  V30 21604 H 1971.04 -5.82784 -1.82196 0
M  V30 21605 H 1972.45 -5.71557 0.4467 0
M  V30 21606 H 1970.85 -5.87535 1.22158 0
M  V30 21607 H 1971.92 -4.54327 1.69454 0
M  V30 21608 N 1973.26 -0.409806 -1.52179 0
M  V30 21609 C 1974.54 0.224342 -1.94309 0
M  V30 21610 C 1974.92 1.62561 -1.34674 0
M  V30 21611 O 1974.27 2.22438 -0.522817 0
M  V30 21612 C 1974.48 0.22999 -3.48241 0
M  V30 21613 C 1975.83 0.449011 -4.22219 0
M  V30 21614 O 1976.85 0.309316 -3.54854 0
M  V30 21615 O 1975.71 0.724419 -5.41677 0
M  V30 21616 H 1972.8 0.144759 -0.814232 0
M  V30 21617 H 1975.35 -0.465799 -1.63182 0
M  V30 21618 H 1974.12 -0.750731 -3.84031 0
M  V30 21619 H 1973.74 0.964201 -3.85732 0
M  V30 21620 N 1974.74 1.56975 -0.14025 0
M  V30 21621 C 1975.99 1.95906 0.512543 0
M  V30 21622 C 1976.32 1.02475 1.65315 0
M  V30 21623 O 1975.57 0.0526473 1.95629 0
M  V30 21624 C 1975.87 3.4113 1.06606 0
M  V30 21625 C 1975.54 4.50878 0.044598 0
M  V30 21626 C 1974.2 4.8062 -0.236217 0
M  V30 21627 C 1976.55 5.17126 -0.650368 0
M  V30 21628 C 1973.88 5.73919 -1.21792 0
M  V30 21629 C 1976.23 6.11483 -1.62084 0
M  V30 21630 C 1974.89 6.39607 -1.90943 0
M  V30 21631 H 1974.16 0.716872 0.187553 0
M  V30 21632 H 1976.81 1.90166 -0.225653 0
M  V30 21633 H 1975.12 3.43669 1.88145 0
M  V30 21634 H 1976.81 3.68577 1.57961 0
M  V30 21635 H 1973.4 4.27726 0.273651 0
M  V30 21636 H 1977.59 4.94286 -0.446606 0
M  V30 21637 H 1972.84 5.94005 -1.44802 0
M  V30 21638 H 1977.02 6.61895 -2.1649 0
M  V30 21639 H 1974.64 7.11707 -2.67165 0
M  V30 21640 N 1976.22 -0.133539 1.57033 0
M  V30 21641 C 1977.47 -0.845109 1.84352 0
M  V30 21642 C 1977.8 -1.80205 0.723864 0
M  V30 21643 O 1977.07 -1.92596 -0.271485 0
M  V30 21644 C 1977.36 -1.6078 3.22214 0
M  V30 21645 C 1977.21 -0.671438 4.4476 0
M  V30 21646 C 1978.53 -2.56728 3.57462 0
M  V30 21647 H 1975.65 -0.305783 0.670571 0
M  V30 21648 H 1978.29 -0.109825 1.89682 0
M  V30 21649 H 1976.44 -2.23461 3.17801 0
M  V30 21650 H 1978.11 -0.0545922 4.61268 0
M  V30 21651 H 1976.35 0.018069 4.33796 0
M  V30 21652 H 1977.03 -1.24142 5.37859 0
M  V30 21653 H 1979.5 -2.04159 3.62572 0
M  V30 21654 H 1978.38 -3.07133 4.54929 0
M  V30 21655 H 1978.64 -3.38717 2.84119 0
M  V30 21656 N 1977.7 -1.52352 -0.403298 0
M  V30 21657 C 1978.63 -1.79074 -1.49849 0
M  V30 21658 C 1979.61 -0.642006 -1.57519 0
M  V30 21659 O 1980.79 -0.888182 -1.72699 0
M  V30 21660 C 1977.92 -1.9467 -2.87612 0
M  V30 21661 C 1976.88 -3.10295 -2.9479 0
M  V30 21662 C 1976.2 -3.11122 -4.34864 0
M  V30 21663 C 1977.5 -4.49643 -2.65741 0
M  V30 21664 H 1979.2 -2.70783 -1.27737 0
M  V30 21665 H 1976.74 -1.30298 -0.613064 0
M  V30 21666 H 1978.7 -2.11947 -3.64221 0
M  V30 21667 H 1977.42 -0.996377 -3.1103 0
M  V30 21668 H 1976.08 -2.92778 -2.20627 0
M  V30 21669 H 1975.73 -2.13801 -4.553 0
M  V30 21670 H 1975.43 -3.88786 -4.4059 0
M  V30 21671 H 1976.95 -3.30536 -5.13399 0
M  V30 21672 H 1978.37 -4.67335 -3.3207 0
M  V30 21673 H 1976.76 -5.29268 -2.82835 0
M  V30 21674 H 1977.83 -4.57339 -1.61149 0
M  V30 21675 N 1979.18 0.660885 -1.43074 0
M  V30 21676 C 1980.42 1.42296 -1.44498 0
M  V30 21677 C 1980.75 1.94087 -0.0661594 0
M  V30 21678 O 1980.03 1.71803 0.911806 0
M  V30 21679 C 1980.31 2.60995 -2.481 0
M  V30 21680 C 1980.17 2.14746 -3.95227 0
M  V30 21681 C 1981.48 3.63212 -2.48526 0
M  V30 21682 H 1978.6 0.516071 -0.526156 0
M  V30 21683 H 1981.25 0.749896 -1.74575 0
M  V30 21684 H 1979.4 3.18417 -2.22583 0
M  V30 21685 H 1981.07 1.62384 -4.31774 0
M  V30 21686 H 1979.31 1.46188 -4.08426 0
M  V30 21687 H 1979.98 3.00068 -4.63318 0
M  V30 21688 H 1982.46 3.15534 -2.71251 0
M  V30 21689 H 1981.33 4.43825 -3.22971 0
M  V30 21690 H 1981.59 4.15285 -1.51626 0
M  V30 21691 N 1980.65 1.29477 0.898527 0
M  V30 21692 C 1981.93 1.08195 1.62952 0
M  V30 21693 C 1982.31 -0.373506 2.07769 0
M  V30 21694 O 1981.66 -1.36252 1.83433 0
M  V30 21695 C 1981.87 2.07056 2.80943 0
M  V30 21696 C 1983.22 2.38038 3.51601 0
M  V30 21697 O 1984.24 2.0526 2.91113 0
M  V30 21698 O 1983.1 2.94048 4.60649 0
M  V30 21699 H 1980.19 0.414597 0.715569 0
M  V30 21700 H 1982.74 1.40853 0.946492 0
M  V30 21701 H 1981.51 3.05083 2.45031 0
M  V30 21702 H 1981.14 1.75134 3.56951 0
M  V30 21703 N 1982.13 -1.10905 1.11972 0
M  V30 21704 C 1983.38 -1.82401 0.870296 0
M  V30 21705 C 1983.7 -1.85356 -0.605649 0
M  V30 21706 O 1982.97 -1.32812 -1.44006 0
M  V30 21707 H 1981.55 -0.675471 0.318979 0
M  V30 21708 H 1984.21 -1.34216 1.41323 0
M  V30 21709 H 1983.31 -2.86086 1.24746 0
M  V30 21710 N 1983.61 -0.910886 -1.2861 0
M  V30 21711 C 1984.86 -0.541485 -1.94711 0
M  V30 21712 C 1985.18 0.917302 -1.72077 0
M  V30 21713 O 1984.45 1.64818 -1.05885 0
M  V30 21714 H 1983.03 -0.197263 -0.720483 0
M  V30 21715 H 1985.69 -1.15962 -1.56649 0
M  V30 21716 H 1984.79 -0.73351 -3.03358 0
M  V30 21717 N 1985.09 1.42434 -0.674558 0
M  V30 21718 C 1986.33 2.03413 -0.200601 0
M  V30 21719 C 1986.69 1.52183 1.17065 0
M  V30 21720 O 1987.89 2.04947 1.73925 0
M  V30 21721 C 1986.16 3.56638 -0.233215 0
M  V30 21722 S 1987.72 4.38471 0.169775 0
M  V30 21723 H 1984.54 0.706197 -0.0825027 0
M  V30 21724 H 1987.14 1.74186 -0.887657 0
M  V30 21725 H 1985.85 3.91422 -1.23358 0
M  V30 21726 H 1985.38 3.90538 0.473683 0
M  V30 21727 H 1987.39 4.75946 1.4032 0
M  V30 21728 N 1986.57 0.417871 1.51959 0
M  V30 21729 C 1987.81 -0.155282 2.02205 0
M  V30 21730 C 1988.15 -1.44044 1.3025 0
M  V30 21731 O 1987.42 -1.90098 0.411449 0
M  V30 21732 C 1987.7 -0.394038 3.57938 0
M  V30 21733 C 1987.56 0.908404 4.40532 0
M  V30 21734 C 1988.88 -1.17238 4.24197 0
M  V30 21735 H 1985.99 -0.0549616 0.734948 0
M  V30 21736 H 1988.64 0.553053 1.81773 0
M  V30 21737 H 1986.79 -0.997422 3.75478 0
M  V30 21738 H 1988.46 1.54427 4.34684 0
M  V30 21739 H 1986.7 1.51743 4.06395 0
M  V30 21740 H 1987.37 0.69563 5.47599 0
M  V30 21741 H 1989.85 -0.661461 4.10809 0
M  V30 21742 H 1988.72 -1.30818 5.33083 0
M  V30 21743 H 1988.99 -2.19534 3.83741 0
M  V30 21744 N 1988.04 -1.56898 0.148573 0
M  V30 21745 C 1988.97 -2.19852 -0.786585 0
M  V30 21746 C 1989.96 -1.14723 -1.2559 0
M  V30 21747 O 1991.14 -1.43071 -1.31317 0
M  V30 21748 C 1988.27 -2.82137 -2.02524 0
M  V30 21749 C 1987.22 -3.93108 -1.69264 0
M  V30 21750 C 1986.55 -4.42335 -3.00407 0
M  V30 21751 C 1987.85 -5.13807 -0.938092 0
M  V30 21752 H 1989.54 -2.98252 -0.261903 0
M  V30 21753 H 1987.09 -1.43461 -0.124531 0
M  V30 21754 H 1989.04 -3.24845 -2.68428 0
M  V30 21755 H 1987.77 -2.01071 -2.57368 0
M  V30 21756 H 1986.43 -3.5102 -1.05739 0
M  V30 21757 H 1986.07 -3.58089 -3.53244 0
M  V30 21758 H 1985.77 -5.17185 -2.78915 0
M  V30 21759 H 1987.3 -4.87714 -3.67378 0
M  V30 21760 H 1988.71 -5.53349 -1.49924 0
M  V30 21761 H 1987.11 -5.94429 -0.823062 0
M  V30 21762 H 1988.18 -4.8485 0.0698825 0
M  V30 21763 N 1989.52 0.125209 -1.57102 0
M  V30 21764 C 1990.75 0.852378 -1.89075 0
M  V30 21765 C 1991.17 1.72938 -0.739878 0
M  V30 21766 O 1990.53 1.78633 0.309828 0
M  V30 21767 C 1990.58 1.66688 -3.19762 0
M  V30 21768 O 1989.68 2.77324 -3.0523 0
M  V30 21769 H 1989.02 0.236103 -0.620606 0
M  V30 21770 H 1991.55 0.109473 -2.04307 0
M  V30 21771 H 1991.56 2.0574 -3.52328 0
M  V30 21772 H 1990.24 1.02303 -4.03121 0
M  V30 21773 H 1988.82 2.41519 -2.84118 0
M  V30 21774 N 1991 1.52564 0.395213 0
M  V30 21775 C 1991.95 1.73281 1.48181 0
M  V30 21776 C 1992.93 0.586818 1.49817 0
M  V30 21777 O 1994.13 0.844419 1.55559 0
M  V30 21778 C 1991.26 1.89948 2.85963 0
M  V30 21779 C 1990.34 3.10461 2.8892 0
M  V30 21780 N 1990.73 4.32923 2.61556 0
M  V30 21781 C 1989.03 3.10579 3.20088 0
M  V30 21782 C 1989.73 5.14487 2.71438 0
M  V30 21783 N 1988.71 4.50037 3.04906 0
M  V30 21784 H 1992.51 2.65596 1.25841 0
M  V30 21785 H 1990.02 1.50787 0.603091 0
M  V30 21786 H 1992.02 2.0291 3.64188 0
M  V30 21787 H 1990.68 0.988426 3.0929 0
M  V30 21788 H 1991.69 4.61161 2.35692 0
M  V30 21789 H 1988.37 2.29261 3.48921 0
M  V30 21790 H 1989.76 6.22089 2.53879 0
M  V30 21791 N 1992.48 -0.653289 1.43422 0
M  V30 21792 C 1993.73 -1.41039 1.44749 0
M  V30 21793 C 1994.05 -1.94864 0.0728692 0
M  V30 21794 O 1993.32 -1.74425 -0.891782 0
M  V30 21795 H 1991.9 -0.523445 0.53293 0
M  V30 21796 H 1994.56 -0.770483 1.79024 0
M  V30 21797 H 1993.66 -2.25278 2.16001 0
M  V30 21798 N 1993.96 -1.29952 -0.891648 0
M  V30 21799 C 1994.91 -1.12384 -1.98378 0
M  V30 21800 C 1995.89 -0.0409187 -1.60848 0
M  V30 21801 O 1997.08 -0.263515 -1.75027 0
M  V30 21802 C 1994.21 -0.81081 -3.33588 0
M  V30 21803 C 1993.3 -1.93366 -3.77452 0
M  V30 21804 N 1993.69 -3.17821 -3.93476 0
M  V30 21805 C 1991.99 -1.82852 -4.06794 0
M  V30 21806 C 1992.69 -3.9113 -4.30572 0
M  V30 21807 N 1991.66 -3.19131 -4.40064 0
M  V30 21808 H 1995.47 -2.06784 -2.08848 0
M  V30 21809 H 1992.98 -1.21194 -1.08101 0
M  V30 21810 H 1994.98 -0.665983 -4.11546 0
M  V30 21811 H 1993.64 0.125193 -3.24459 0
M  V30 21812 H 1994.65 -3.53185 -3.78788 0
M  V30 21813 H 1991.32 -0.965759 -4.06176 0
M  V30 21814 H 1992.71 -4.98273 -4.50748 0
M  V30 21815 N 1995.44 1.1031 -1.12559 0
M  V30 21816 C 1996.38 2.16689 -0.794638 0
M  V30 21817 C 1997.35 1.64369 0.239196 0
M  V30 21818 O 1998.54 1.90462 0.113478 0
M  V30 21819 C 1995.68 3.44143 -0.256828 0
M  V30 21820 C 1994.79 4.10409 -1.34863 0
M  V30 21821 C 1993.93 5.25588 -0.77012 0
M  V30 21822 C 1992.96 5.8376 -1.84096 0
M  V30 21823 N 1992.1 6.90314 -1.28107 0
M  V30 21824 H 1996.94 2.44342 -1.7059 0
M  V30 21825 H 1994.48 1.19936 -0.851695 0
M  V30 21826 H 1996.44 4.17136 0.0730472 0
M  V30 21827 H 1995.07 3.16837 0.61759 0
M  V30 21828 H 1994.12 3.35372 -1.79526 0
M  V30 21829 H 1995.43 4.49686 -2.15833 0
M  V30 21830 H 1994.58 6.05439 -0.390991 0
M  V30 21831 H 1993.32 4.87649 0.0707618 0
M  V30 21832 H 1992.33 5.02577 -2.22926 0
M  V30 21833 H 1993.55 6.23763 -2.68508 0
M  V30 21834 H 1991.5 6.54371 -0.462033 0
M  V30 21835 H 1991.42 7.28309 -2.02735 0
M  V30 21836 H 1992.68 7.73942 -0.929211 0
M  V30 21837 N 1996.91 0.917694 1.28125 0
M  V30 21838 C 1997.85 0.366394 2.26253 0
M  V30 21839 C 1998.86 -0.497338 1.55017 0
M  V30 21840 O 2000.05 -0.31158 1.7576 0
M  V30 21841 C 1997.15 -0.494558 3.35272 0
M  V30 21842 C 1996.32 0.34757 4.36017 0
M  V30 21843 C 1995.38 -0.449109 5.2428 0
M  V30 21844 O 1994.41 0.139705 5.69029 0
M  V30 21845 N 1995.61 -1.75125 5.53454 0
M  V30 21846 H 1998.37 1.20986 2.74194 0
M  V30 21847 H 1995.93 0.784058 1.41648 0
M  V30 21848 H 1997.93 -1.03436 3.91258 0
M  V30 21849 H 1996.5 -1.23875 2.87008 0
M  V30 21850 H 1995.72 1.06872 3.79437 0
M  V30 21851 H 1997 0.923647 5.00346 0
M  V30 21852 H 1996.4 -2.2521 5.18938 0
M  V30 21853 H 1994.96 -2.23778 6.12182 0
M  V30 21854 N 1998.39 -1.42074 0.682102 0
M  V30 21855 C 1999.32 -2.33489 0.0224223 0
M  V30 21856 C 2000.3 -1.51082 -0.781557 0
M  V30 21857 O 2001.49 -1.79662 -0.737243 0
M  V30 21858 C 1998.62 -3.34773 -0.92434 0
M  V30 21859 C 1997.57 -4.2739 -0.228431 0
M  V30 21860 C 1996.9 -5.1894 -1.28863 0
M  V30 21861 C 1998.2 -5.14539 0.897035 0
M  V30 21862 H 1999.89 -2.88901 0.785898 0
M  V30 21863 H 1997.44 -1.38913 0.379376 0
M  V30 21864 H 1999.39 -3.97641 -1.39497 0
M  V30 21865 H 1998.11 -2.77681 -1.71932 0
M  V30 21866 H 1996.77 -3.65927 0.222034 0
M  V30 21867 H 1996.42 -4.5817 -2.07579 0
M  V30 21868 H 1996.12 -5.81736 -0.828084 0
M  V30 21869 H 1997.65 -5.84683 -1.76005 0
M  V30 21870 H 1999.06 -5.71051 0.507296 0
M  V30 21871 H 1997.46 -5.86206 1.28383 0
M  V30 21872 H 1998.53 -4.52505 1.74263 0
M  V30 21873 N 1999.87 -0.425924 -1.51735 0
M  V30 21874 C 2000.8 0.43622 -2.23992 0
M  V30 21875 C 2001.78 1.03418 -1.25473 0
M  V30 21876 O 2002.96 1.07884 -1.54575 0
M  V30 21877 C 2000.09 1.60697 -2.98151 0
M  V30 21878 C 1999.14 1.13079 -4.11236 0
M  V30 21879 S 1999.97 0.0821469 -5.35437 0
M  V30 21880 C 2001.13 1.25783 -6.13131 0
M  V30 21881 H 2001.36 -0.177262 -2.96771 0
M  V30 21882 H 1998.89 -0.210346 -1.5296 0
M  V30 21883 H 2000.85 2.2782 -3.4148 0
M  V30 21884 H 1999.51 2.19183 -2.24983 0
M  V30 21885 H 1998.7 2.00594 -4.62361 0
M  V30 21886 H 1998.31 0.537962 -3.70111 0
M  V30 21887 H 2000.6 2.17834 -6.41525 0
M  V30 21888 H 2001.54 0.786776 -7.03715 0
M  V30 21889 H 2001.95 1.49123 -5.44447 0
M  V30 21890 N 2001.35 1.56817 -0.156891 0
M  V30 21891 C 2002.59 1.98331 0.494366 0
M  V30 21892 C 2002.95 1.04015 1.61384 0
M  V30 21893 O 2004.15 1.34612 2.32665 0
M  V30 21894 C 2002.42 3.43748 0.978364 0
M  V30 21895 S 2003.98 4.07289 1.63283 0
M  V30 21896 H 2000.8 0.692874 0.159519 0
M  V30 21897 H 2003.4 1.93883 -0.250945 0
M  V30 21898 H 2002.11 4.10115 0.15298 0
M  V30 21899 H 2001.64 3.51932 1.75806 0
M  V30 21900 H 2003.65 4.01152 2.92047 0
M  V30 21901 N 2002.83 -0.116876 1.57166 0
M  V30 21902 C 2003.76 -1.14443 2.03531 0
M  V30 21903 C 2004.74 -1.43063 0.920159 0
M  V30 21904 O 2005.92 -1.53468 1.19001 0
M  V30 21905 C 2003.05 -2.47006 2.44142 0
M  V30 21906 C 2002.01 -2.32843 3.59121 0
M  V30 21907 C 2001.33 -3.70388 3.85639 0
M  V30 21908 C 2002.63 -1.78717 4.90772 0
M  V30 21909 H 2004.33 -0.75878 2.89625 0
M  V30 21910 H 2001.87 -0.363551 1.39335 0
M  V30 21911 H 2003.82 -3.19143 2.75184 0
M  V30 21912 H 2002.55 -2.87465 1.55021 0
M  V30 21913 H 2001.21 -1.63155 3.28293 0
M  V30 21914 H 2000.86 -4.08335 2.9372 0
M  V30 21915 H 2000.56 -3.61764 4.63034 0
M  V30 21916 H 2002.08 -4.44026 4.19134 0
M  V30 21917 H 2003.49 -2.40673 5.20336 0
M  V30 21918 H 2001.89 -1.80909 5.72182 0
M  V30 21919 H 2002.96 -0.744891 4.79144 0
M  V30 21920 N 2004.3 -1.52772 -0.387116 0
M  V30 21921 C 2005.27 -1.77036 -1.45571 0
M  V30 21922 C 2006.27 -0.64041 -1.47497 0
M  V30 21923 O 2007.46 -0.908478 -1.48635 0
M  V30 21924 C 2004.59 -1.87284 -2.84846 0
M  V30 21925 H 2005.78 -2.72452 -1.25339 0
M  V30 21926 H 2003.33 -1.43522 -0.61897 0
M  V30 21927 H 2004.07 -0.9386 -3.1042 0
M  V30 21928 H 2003.85 -2.6945 -2.84849 0
M  V30 21929 H 2005.34 -2.07723 -3.62272 0
M  V30 21930 N 2005.78 0.645673 -1.43767 0
M  V30 21931 C 2007.2 0.962209 -1.27333 0
M  V30 21932 C 2007.4 2.0052 -0.198519 0
M  V30 21933 O 2006.45 2.48974 0.420512 0
M  V30 21934 C 2007.77 1.4393 -2.64016 0
M  V30 21935 C 2009.31 1.55555 -2.71609 0
M  V30 21936 C 2009.79 2.06652 -4.08728 0
M  V30 21937 N 2011.28 2.13944 -4.10831 0
M  V30 21938 C 2012.02 2.54619 -5.13767 0
M  V30 21939 N 2011.51 2.94536 -6.27073 0
M  V30 21940 N 2013.3 2.54625 -5.01121 0
M  V30 21941 H 2005.46 -0.0443554 -2.12354 0
M  V30 21942 H 2007.72 0.042755 -0.947035 0
M  V30 21943 H 2007.42 0.747304 -3.43669 0
M  V30 21944 H 2007.3 2.41297 -2.89923 0
M  V30 21945 H 2009.69 2.23854 -1.92285 0
M  V30 21946 H 2009.77 0.566006 -2.49459 0
M  V30 21947 H 2009.41 1.38952 -4.88523 0
M  V30 21948 H 2009.34 3.06451 -4.28247 0
M  V30 21949 H 2011.83 1.85838 -3.29048 0
M  V30 21950 H 2012.14 3.24345 -7.01442 0
M  V30 21951 H 2010.49 2.92323 -6.30533 0
M  V30 21952 H 2013.68 2.22822 -4.11665 0
M  V30 21953 H 2013.85 2.86002 -5.81469 0
M  V30 21954 N 2007.26 1.30423 0.884744 0
M  V30 21955 C 2008.48 1.22312 1.67495 0
M  V30 21956 C 2008.91 -0.210723 1.86916 0
M  V30 21957 O 2008.27 -1.15161 1.40027 0
M  V30 21958 C 2008.32 1.95725 3.0286 0
M  V30 21959 O 2007.42 1.28449 3.91886 0
M  V30 21960 H 2006.76 0.423038 0.511796 0
M  V30 21961 H 2009.29 1.72246 1.10419 0
M  V30 21962 H 2009.3 2.04755 3.52901 0
M  V30 21963 H 2007.98 3.00006 2.88044 0
M  V30 21964 H 2006.55 1.27775 3.50326 0
M  V30 21965 N 2008.74 -1.09711 1.13142 0
M  V30 21966 C 2009.98 -1.82097 0.892675 0
M  V30 21967 C 2010.32 -1.85341 -0.579846 0
M  V30 21968 O 2009.59 -1.3195 -1.42897 0
M  V30 21969 C 2009.87 -3.28392 1.47752 0
M  V30 21970 C 2009.73 -3.33436 3.01895 0
M  V30 21971 C 2011.05 -4.24991 1.14329 0
M  V30 21972 H 2008.17 -0.661111 0.325732 0
M  V30 21973 H 2010.81 -1.28535 1.39924 0
M  V30 21974 H 2008.96 -3.74134 1.04671 0
M  V30 21975 H 2010.63 -2.96119 3.53711 0
M  V30 21976 H 2008.87 -2.73109 3.37037 0
M  V30 21977 H 2009.54 -4.36484 3.37914 0
M  V30 21978 H 2012.02 -3.8752 1.51551 0
M  V30 21979 H 2010.9 -5.25698 1.57902 0
M  V30 21980 H 2011.16 -4.42064 0.0565583 0
M  V30 21981 N 2010.22 -0.924476 -1.27637 0
M  V30 21982 C 2011.15 -0.438348 -2.29349 0
M  V30 21983 C 2012.13 0.499673 -1.62595 0
M  V30 21984 O 2013.31 0.405114 -1.89928 0
M  V30 21985 C 2010.44 0.312668 -3.4589 0
M  V30 21986 C 2009.4 -0.537216 -4.24615 0
M  V30 21987 C 2008.72 0.342776 -5.336 0
M  V30 21988 C 2010.02 -1.80003 -4.90302 0
M  V30 21989 H 2011.72 -1.28838 -2.70261 0
M  V30 21990 H 2009.26 -0.620964 -1.29923 0
M  V30 21991 H 2011.22 0.66367 -4.16141 0
M  V30 21992 H 2009.94 1.1967 -3.03886 0
M  V30 21993 H 2008.6 -0.870883 -3.56106 0
M  V30 21994 H 2008.25 1.22567 -4.87838 0
M  V30 21995 H 2007.95 -0.222352 -5.87179 0
M  V30 21996 H 2009.47 0.689422 -6.06695 0
M  V30 21997 H 2010.88 -1.51729 -5.52857 0
M  V30 21998 H 2009.28 -2.3084 -5.53925 0
M  V30 21999 H 2010.35 -2.52148 -4.14186 0
M  V30 22000 N 2011.69 1.41711 -0.689627 0
M  V30 22001 C 2012.92 2.06171 -0.225425 0
M  V30 22002 C 2013.34 1.51535 1.11439 0
M  V30 22003 O 2012.7 0.639865 1.69633 0
M  V30 22004 C 2012.75 3.60114 -0.187089 0
M  V30 22005 O 2011.85 4.03757 0.83989 0
M  V30 22006 H 2011.2 0.654551 -0.111621 0
M  V30 22007 H 2013.73 1.81582 -0.942814 0
M  V30 22008 H 2013.74 4.07997 -0.0159369 0
M  V30 22009 H 2012.41 3.99251 -1.16497 0
M  V30 22010 H 2010.99 3.67392 0.638575 0
M  V30 22011 N 2013.17 0.433965 1.51507 0
M  V30 22012 C 2014.12 -0.37918 2.27664 0
M  V30 22013 C 2015.09 -1.01975 1.31112 0
M  V30 22014 O 2016.27 -1.0393 1.6001 0
M  V30 22015 C 2013.41 -1.47628 3.1193 0
M  V30 22016 C 2012.53 -0.854176 4.23471 0
M  V30 22017 C 2011.66 -1.92604 4.95053 0
M  V30 22018 C 2010.7 -1.28219 5.9852 0
M  V30 22019 N 2009.84 -2.29527 6.63522 0
M  V30 22020 H 2014.68 0.276629 2.96713 0
M  V30 22021 H 2012.22 0.148264 1.46351 0
M  V30 22022 H 2014.17 -2.1236 3.59109 0
M  V30 22023 H 2012.8 -2.10176 2.45002 0
M  V30 22024 H 2011.86 -0.0952329 3.80281 0
M  V30 22025 H 2013.17 -0.344086 4.97612 0
M  V30 22026 H 2012.32 -2.65006 5.45762 0
M  V30 22027 H 2011.06 -2.46985 4.20535 0
M  V30 22028 H 2010.07 -0.543619 5.47106 0
M  V30 22029 H 2011.29 -0.745758 6.74993 0
M  V30 22030 H 2009.24 -2.82995 5.91819 0
M  V30 22031 H 2009.15 -1.834 7.33417 0
M  V30 22032 H 2010.42 -3.01423 7.18863 0
M  V30 22033 N 2014.65 -1.56732 0.165206 0
M  V30 22034 C 2015.61 -2.1646 -0.753498 0
M  V30 22035 C 2016.61 -1.11106 -1.16241 0
M  V30 22036 O 2017.8 -1.36652 -1.08037 0
M  V30 22037 C 2014.94 -2.7425 -2.02483 0
M  V30 22038 H 2016.13 -2.98989 -0.233629 0
M  V30 22039 H 2013.68 -1.56072 -0.0843317 0
M  V30 22040 H 2014.42 -1.95439 -2.58794 0
M  V30 22041 H 2014.2 -3.51345 -1.74065 0
M  V30 22042 H 2015.69 -3.20209 -2.6806 0
M  V30 22043 N 2016.13 0.10854 -1.57226 0
M  V30 22044 C 2017.08 1.1326 -2.01099 0
M  V30 22045 C 2018.05 1.40564 -0.884932 0
M  V30 22046 O 2019.23 1.52253 -1.14994 0
M  V30 22047 C 2016.37 2.45125 -2.42915 0
M  V30 22048 C 2015.48 2.24667 -3.68983 0
M  V30 22049 C 2014.62 3.49836 -3.99736 0
M  V30 22050 C 2013.66 3.24581 -5.18954 0
M  V30 22051 N 2012.79 4.4198 -5.45525 0
M  V30 22052 H 2017.63 0.751475 -2.88369 0
M  V30 22053 H 2015.17 0.359547 -1.42638 0
M  V30 22054 H 2017.13 3.22063 -2.652 0
M  V30 22055 H 2015.76 2.8111 -1.58673 0
M  V30 22056 H 2014.81 1.38595 -3.54253 0
M  V30 22057 H 2016.12 2.01989 -4.56072 0
M  V30 22058 H 2015.28 4.35188 -4.22725 0
M  V30 22059 H 2014.02 3.75555 -3.11143 0
M  V30 22060 H 2013.02 2.37621 -4.95799 0
M  V30 22061 H 2014.25 3.00222 -6.09134 0
M  V30 22062 H 2012.19 4.678 -4.5989 0
M  V30 22063 H 2012.11 4.22445 -6.26958 0
M  V30 22064 H 2013.38 5.28436 -5.73041 0
M  V30 22065 N 2017.61 1.52975 0.379009 0
M  V30 22066 C 2018.86 1.67728 1.12028 0
M  V30 22067 C 2019.17 0.428628 1.90846 0
M  V30 22068 O 2020.37 0.456461 2.67635 0
M  V30 22069 C 2018.83 2.96454 2.04066 0
M  V30 22070 C 2018.44 4.28534 1.30624 0
M  V30 22071 C 2020.18 3.20574 2.78267 0
M  V30 22072 C 2018.09 5.4836 2.21485 0
M  V30 22073 H 2017.02 0.624902 0.421917 0
M  V30 22074 H 2019.67 1.79474 0.382288 0
M  V30 22075 H 2018.05 2.78478 2.81542 0
M  V30 22076 H 2019.23 4.57097 0.583043 0
M  V30 22077 H 2017.54 4.10754 0.683407 0
M  V30 22078 H 2020.14 4.07279 3.4645 0
M  V30 22079 H 2020.48 2.36066 3.42898 0
M  V30 22080 H 2021.01 3.39162 2.0788 0
M  V30 22081 H 2017.75 6.35305 1.61455 0
M  V30 22082 H 2017.27 5.24095 2.91692 0
M  V30 22083 H 2018.95 5.82626 2.81346 0
M  V30 22084 N 2019.08 -0.63804 1.44107 0
M  V30 22085 C 2020.01 -1.76164 1.5326 0
M  V30 22086 C 2021 -1.6566 0.386107 0
M  V30 22087 O 2022.18 -1.84525 0.605326 0
M  V30 22088 C 2019.31 -3.14665 1.4698 0
M  V30 22089 C 2018.26 -3.39949 2.60035 0
M  V30 22090 C 2017.59 -4.78409 2.38808 0
M  V30 22091 C 2018.89 -3.33193 4.02219 0
M  V30 22092 H 2020.58 -1.6876 2.47306 0
M  V30 22093 H 2018.13 -0.810483 1.19026 0
M  V30 22094 H 2020.08 -3.93037 1.51986 0
M  V30 22095 H 2018.81 -3.22835 0.494471 0
M  V30 22096 H 2017.47 -2.63955 2.54408 0
M  V30 22097 H 2017.11 -4.83274 1.39483 0
M  V30 22098 H 2016.81 -4.96285 3.14602 0
M  V30 22099 H 2018.34 -5.5902 2.4562 0
M  V30 22100 H 2019.75 -4.0148 4.09252 0
M  V30 22101 H 2018.15 -3.62605 4.78161 0
M  V30 22102 H 2019.22 -2.31116 4.26279 0
M  V30 22103 N 2020.56 -1.3089 -0.877815 0
M  V30 22104 C 2021.49 -1.20459 -2.0003 0
M  V30 22105 C 2022.47 -0.0935765 -1.69842 0
M  V30 22106 O 2023.66 -0.276838 -1.92217 0
M  V30 22107 C 2020.79 -0.903041 -3.35354 0
M  V30 22108 C 2019.74 -1.97277 -3.79823 0
M  V30 22109 C 2019.07 -1.52407 -5.12519 0
M  V30 22110 C 2020.37 -3.38484 -3.97776 0
M  V30 22111 H 2022.06 -2.14367 -2.09014 0
M  V30 22112 H 2019.61 -1.03203 -1.00425 0
M  V30 22113 H 2021.56 -0.816699 -4.1341 0
M  V30 22114 H 2020.29 0.0717143 -3.26521 0
M  V30 22115 H 2018.94 -2.04887 -3.04001 0
M  V30 22116 H 2018.59 -0.537386 -5.00121 0
M  V30 22117 H 2018.29 -2.23964 -5.43244 0
M  V30 22118 H 2019.82 -1.45165 -5.93093 0
M  V30 22119 H 2021.23 -3.33593 -4.6625 0
M  V30 22120 H 2019.63 -4.0819 -4.39887 0
M  V30 22121 H 2020.7 -3.79847 -3.01403 0
M  V30 22122 N 2022.04 1.0911 -1.13723 0
M  V30 22123 C 2022.97 2.17859 -0.840227 0
M  V30 22124 C 2023.95 1.68899 0.201778 0
M  V30 22125 O 2025.14 1.94107 0.0600046 0
M  V30 22126 C 2022.27 3.45922 -0.309024 0
M  V30 22127 C 2021.22 4.08234 -1.28565 0
M  V30 22128 C 2020.55 5.31162 -0.614064 0
M  V30 22129 C 2021.85 4.50354 -2.64534 0
M  V30 22130 H 2023.54 2.4296 -1.74959 0
M  V30 22131 H 2021.09 1.16771 -0.842653 0
M  V30 22132 H 2023.04 4.21306 -0.088895 0
M  V30 22133 H 2021.76 3.20353 0.635735 0
M  V30 22134 H 2020.42 3.34873 -1.49183 0
M  V30 22135 H 2020.07 5.01875 0.336272 0
M  V30 22136 H 2019.77 5.73807 -1.26566 0
M  V30 22137 H 2021.29 6.09267 -0.403293 0
M  V30 22138 H 2022.71 5.16948 -2.47866 0
M  V30 22139 H 2021.11 5.03894 -3.259 0
M  V30 22140 H 2022.18 3.62594 -3.21952 0
M  V30 22141 N 2023.52 0.931232 1.27145 0
M  V30 22142 C 2024.8 0.491789 1.89317 0
M  V30 22143 C 2025.18 -1.03026 1.84252 0
M  V30 22144 O 2024.52 -1.88596 1.29011 0
M  V30 22145 C 2024.73 1.04187 3.33086 0
M  V30 22146 C 2026.08 1.1045 4.09983 0
M  V30 22147 O 2027.11 0.991747 3.42115 0
M  V30 22148 O 2025.96 1.27861 5.31332 0
M  V30 22149 H 2023.06 0.158746 0.811621 0
M  V30 22150 H 2025.6 1.02315 1.35387 0
M  V30 22151 H 2024.38 2.08566 3.31083 0
M  V30 22152 H 2024 0.492365 3.9454 0
M  V30 22153 N 2025 -1.41343 0.697132 0
M  V30 22154 C 2025.91 -2.34576 0.0333341 0
M  V30 22155 C 2026.92 -1.56313 -0.764337 0
M  V30 22156 O 2028.1 -1.88787 -0.70154 0
M  V30 22157 C 2025.16 -3.35066 -0.890597 0
M  V30 22158 C 2024.23 -4.29216 -0.0849556 0
M  V30 22159 C 2023.46 -5.24905 -0.964881 0
M  V30 22160 O 2023.68 -5.26083 -2.20437 0
M  V30 22161 O 2022.62 -6.00476 -0.413724 0
M  V30 22162 H 2026.44 -2.92922 0.801892 0
M  V30 22163 H 2024.03 -1.42223 0.457478 0
M  V30 22164 H 2025.91 -3.96741 -1.42036 0
M  V30 22165 H 2024.58 -2.79161 -1.63862 0
M  V30 22166 H 2023.49 -3.70884 0.489447 0
M  V30 22167 H 2024.82 -4.88223 0.624437 0
M  V30 22168 N 2026.48 -0.441993 -1.51275 0
M  V30 22169 C 2027.89 0.0200405 -1.86689 0
M  V30 22170 C 2028.24 1.41527 -1.35885 0
M  V30 22171 O 2027.36 2.04366 -0.711583 0
M  V30 22172 C 2027.96 0.0431426 -3.38773 0
M  V30 22173 C 2026.52 0.449604 -3.73705 0
M  V30 22174 C 2025.66 -0.354706 -2.75022 0
M  V30 22175 H 2028.61 -0.657627 -1.44433 0
M  V30 22176 H 2028.64 0.851643 -3.70847 0
M  V30 22177 H 2028.15 -0.97245 -3.75719 0
M  V30 22178 H 2026.25 1.47063 -3.4235 0
M  V30 22179 H 2026.36 0.171167 -4.78794 0
M  V30 22180 H 2024.73 0.187631 -2.54008 0
M  V30 22181 H 2025.51 -1.36926 -3.14811 0
M  V30 22182 N 2027.95 1.56642 -0.173515 0
M  V30 22183 C 2029.18 2.01763 0.480249 0
M  V30 22184 C 2029.6 1.05294 1.55868 0
M  V30 22185 O 2028.96 0.0328468 1.8127 0
M  V30 22186 C 2029.01 3.45473 1.03349 0
M  V30 22187 O 2028.11 3.52081 2.14739 0
M  V30 22188 H 2027.45 0.654011 0.114743 0
M  V30 22189 H 2029.98 2.02702 -0.278052 0
M  V30 22190 H 2029.99 3.84823 1.35554 0
M  V30 22191 H 2028.67 4.15184 0.243902 0
M  V30 22192 H 2027.25 3.24591 1.83562 0
M  V30 22193 N 2029.43 -0.1002 1.57281 0
M  V30 22194 C 2030.39 -1.10612 2.00743 0
M  V30 22195 C 2031.39 -1.33241 0.900199 0
M  V30 22196 O 2032.58 -1.2944 1.1658 0
M  V30 22197 C 2029.72 -2.45642 2.36375 0
M  V30 22198 H 2030.91 -0.732144 2.90826 0
M  V30 22199 H 2028.46 -0.345091 1.52443 0
M  V30 22200 H 2029.2 -2.87925 1.4923 0
M  V30 22201 H 2028.98 -2.30567 3.17146 0
M  V30 22202 H 2030.47 -3.18002 2.70674 0
M  V30 22203 N 2030.91 -1.53174 -0.370891 0
M  V30 22204 C 2031.86 -1.75617 -1.45406 0
M  V30 22205 C 2032.84 -0.610579 -1.48865 0
M  V30 22206 O 2034.04 -0.86906 -1.54196 0
M  V30 22207 C 2031.16 -1.94473 -2.82905 0
M  V30 22208 C 2030.25 -3.15018 -2.83944 0
M  V30 22209 N 2030.64 -4.37029 -2.54635 0
M  V30 22210 C 2028.94 -3.15632 -3.15107 0
M  V30 22211 C 2029.64 -5.1874 -2.63218 0
M  V30 22212 N 2028.62 -4.54831 -2.97708 0
M  V30 22213 H 2032.42 -2.67564 -1.216 0
M  V30 22214 H 2029.93 -1.51727 -0.579026 0
M  V30 22215 H 2031.93 -2.08678 -3.60914 0
M  V30 22216 H 2030.59 -1.03751 -3.07678 0
M  V30 22217 H 2031.6 -4.64853 -2.28325 0
M  V30 22218 H 2028.28 -2.34783 -3.45229 0
M  V30 22219 H 2029.67 -6.2605 -2.4395 0
M  V30 22220 N 2032.39 0.630389 -1.44443 0
M  V30 22221 C 2033.32 1.75348 -1.54192 0
M  V30 22222 C 2034.3 1.65453 -0.394887 0
M  V30 22223 O 2035.48 1.84201 -0.615103 0
M  V30 22224 C 2032.61 3.13881 -1.48647 0
M  V30 22225 C 2031.57 3.38566 -2.61835 0
M  V30 22226 C 2030.89 4.77136 -2.41341 0
M  V30 22227 C 2032.19 3.31055 -4.0398 0
M  V30 22228 H 2033.89 1.67446 -2.48198 0
M  V30 22229 H 2031.43 0.804159 -1.19454 0
M  V30 22230 H 2033.39 3.92226 -1.54068 0
M  V30 22231 H 2032.11 3.22568 -0.511585 0
M  V30 22232 H 2030.77 2.62602 -2.55805 0
M  V30 22233 H 2030.42 4.82527 -1.42043 0
M  V30 22234 H 2030.12 4.9461 -3.1723 0
M  V30 22235 H 2031.64 5.57709 -2.48581 0
M  V30 22236 H 2033.06 3.99304 -4.11375 0
M  V30 22237 H 2031.45 3.60064 -4.80077 0
M  V30 22238 H 2032.52 2.28852 -4.27498 0
M  V30 22239 N 2033.87 1.31354 0.870861 0
M  V30 22240 C 2035.14 1.11627 1.6062 0
M  V30 22241 C 2035.52 -0.329351 2.08515 0
M  V30 22242 O 2034.87 -1.3233 1.86282 0
M  V30 22243 C 2035.08 2.12968 2.76488 0
M  V30 22244 C 2036.43 2.45442 3.46473 0
M  V30 22245 O 2037.45 2.11388 2.86694 0
M  V30 22246 O 2036.31 3.03753 4.54309 0
M  V30 22247 H 2033.41 0.429682 0.706614 0
M  V30 22248 H 2035.95 1.42829 0.916402 0
M  V30 22249 H 2034.72 3.10212 2.38504 0
M  V30 22250 H 2034.35 1.82666 3.53156 0
M  V30 22251 N 2035.34 -1.08505 1.143 0
M  V30 22252 C 2036.75 -1.62355 0.921836 0
M  V30 22253 C 2037.11 -1.88635 -0.539569 0
M  V30 22254 O 2036.23 -1.64307 -1.40827 0
M  V30 22255 C 2036.83 -2.94955 1.66694 0
M  V30 22256 C 2035.38 -3.45593 1.49139 0
M  V30 22257 C 2034.53 -2.19845 1.69008 0
M  V30 22258 H 2037.48 -0.917442 1.29494 0
M  V30 22259 H 2037.5 -3.63348 1.12954 0
M  V30 22260 H 2037.02 -2.75796 2.73053 0
M  V30 22261 H 2035.12 -3.69858 0.451226 0
M  V30 22262 H 2035.23 -4.2241 2.26068 0
M  V30 22263 H 2033.59 -2.28966 1.11565 0
M  V30 22264 H 2034.38 -2.03194 2.76707 0
M  V30 22265 N 2036.82 -0.937962 -1.26649 0
M  V30 22266 C 2038.07 -0.584683 -1.94189 0
M  V30 22267 C 2038.4 0.873516 -1.73446 0
M  V30 22268 O 2037.68 1.62451 -1.06957 0
M  V30 22269 C 2037.96 -0.923855 -3.48047 0
M  V30 22270 C 2037.81 -2.43656 -3.7809 0
M  V30 22271 C 2039.13 -0.436986 -4.37925 0
M  V30 22272 H 2036.25 -0.213892 -0.70528 0
M  V30 22273 H 2038.89 -1.1716 -1.49578 0
M  V30 22274 H 2037.04 -0.424389 -3.86175 0
M  V30 22275 H 2038.71 -3.00851 -3.49695 0
M  V30 22276 H 2036.96 -2.88141 -3.2428 0
M  V30 22277 H 2037.63 -2.62439 -4.85623 0
M  V30 22278 H 2040.1 -0.865189 -4.07006 0
M  V30 22279 H 2038.98 -0.703159 -5.44378 0
M  V30 22280 H 2039.24 0.663042 -4.371 0
M  V30 22281 N 2038.3 1.40971 -0.704618 0
M  V30 22282 C 2039.53 2.05399 -0.248738 0
M  V30 22283 C 2039.94 1.53056 1.10541 0
M  V30 22284 O 2039.3 0.682534 1.69256 0
M  V30 22285 C 2039.35 3.60902 -0.207794 0
M  V30 22286 O 2039.07 4.11311 -1.50846 0
M  V30 22287 C 2040.57 4.42489 0.267977 0
M  V30 22288 H 2037.79 0.661269 -0.11386 0
M  V30 22289 H 2040.34 1.8058 -0.959745 0
M  V30 22290 H 2038.49 3.84729 0.4541 0
M  V30 22291 H 2038.91 5.05426 -1.4016 0
M  V30 22292 H 2040.38 5.51454 0.245489 0
M  V30 22293 H 2040.86 4.1926 1.30836 0
M  V30 22294 H 2041.46 4.23746 -0.363242 0
M  V30 22295 N 2039.78 0.45001 1.51039 0
M  V30 22296 C 2041.01 -0.110336 2.06305 0
M  V30 22297 C 2041.42 -1.35912 1.31623 0
M  V30 22298 O 2040.76 -1.79877 0.372811 0
M  V30 22299 C 2040.82 -0.485388 3.56208 0
M  V30 22300 C 2040.49 0.658381 4.52233 0
M  V30 22301 C 2041.48 1.53427 4.96746 0
M  V30 22302 C 2039.17 0.842718 4.9518 0
M  V30 22303 C 2041.16 2.57908 5.82891 0
M  V30 22304 C 2038.85 1.89078 5.81113 0
M  V30 22305 C 2039.85 2.75734 6.24868 0
M  V30 22306 O 2039.53 3.7874 7.09092 0
M  V30 22307 H 2039.27 -0.0056993 0.675976 0
M  V30 22308 H 2041.82 0.631614 1.95448 0
M  V30 22309 H 2040.05 -1.28022 3.64893 0
M  V30 22310 H 2041.74 -0.978357 3.93933 0
M  V30 22311 H 2042.51 1.40345 4.6425 0
M  V30 22312 H 2038.38 0.177759 4.60657 0
M  V30 22313 H 2041.93 3.25578 6.16964 0
M  V30 22314 H 2037.83 2.02176 6.13021 0
M  V30 22315 H 2038.59 3.75473 7.27298 0
M  V30 22316 N 2041.26 -1.56548 0.18182 0
M  V30 22317 C 2042.19 -2.15665 -0.775955 0
M  V30 22318 C 2043.2 -1.11496 -1.18627 0
M  V30 22319 O 2044.39 -1.38642 -1.1243 0
M  V30 22320 C 2041.49 -2.69305 -2.05738 0
M  V30 22321 C 2040.66 -3.9824 -1.80897 0
M  V30 22322 C 2039.72 -4.36838 -2.93358 0
M  V30 22323 O 2038.75 -5.04516 -2.63539 0
M  V30 22324 N 2039.95 -3.99254 -4.21398 0
M  V30 22325 H 2042.72 -2.98477 -0.270484 0
M  V30 22326 H 2040.28 -1.619 -0.000606634 0
M  V30 22327 H 2042.27 -2.92119 -2.80087 0
M  V30 22328 H 2040.84 -1.91023 -2.47445 0
M  V30 22329 H 2040.06 -3.83695 -0.903963 0
M  V30 22330 H 2041.35 -4.82428 -1.6168 0
M  V30 22331 H 2040.74 -3.44791 -4.48482 0
M  V30 22332 H 2039.3 -4.27047 -4.92417 0
M  V30 22333 N 2042.73 0.0918577 -1.57332 0
M  V30 22334 C 2043.98 0.793472 -1.85437 0
M  V30 22335 C 2044.3 1.7974 -0.77156 0
M  V30 22336 O 2045.5 2.54714 -0.939832 0
M  V30 22337 C 2043.96 1.462 -3.28867 0
M  V30 22338 C 2043.57 0.497677 -4.45227 0
M  V30 22339 C 2045.31 2.14715 -3.66193 0
M  V30 22340 C 2043.22 1.17098 -5.79691 0
M  V30 22341 H 2042.15 0.30008 -0.691714 0
M  V30 22342 H 2044.8 0.0464542 -1.83441 0
M  V30 22343 H 2043.18 2.25659 -3.25414 0
M  V30 22344 H 2044.35 -0.26565 -4.60034 0
M  V30 22345 H 2042.67 -0.081949 -4.16319 0
M  V30 22346 H 2045.27 2.6583 -4.63938 0
M  V30 22347 H 2045.61 2.93756 -2.9498 0
M  V30 22348 H 2046.14 1.42113 -3.71549 0
M  V30 22349 H 2042.88 0.421316 -6.54145 0
M  V30 22350 H 2042.4 1.90565 -5.68722 0
M  V30 22351 H 2044.08 1.69654 -6.24361 0
M  V30 22352 N 2044.21 1.53368 0.362763 0
M  V30 22353 C 2045.46 1.68906 1.10243 0
M  V30 22354 C 2045.77 0.448846 1.90381 0
M  V30 22355 O 2046.98 0.484821 2.67136 0
M  V30 22356 C 2045.44 2.98602 2.0091 0
M  V30 22357 C 2045.04 4.29895 1.26071 0
M  V30 22358 C 2046.79 3.23507 2.74852 0
M  V30 22359 C 2044.7 5.50678 2.15657 0
M  V30 22360 H 2043.63 0.629342 0.415265 0
M  V30 22361 H 2046.28 1.79869 0.363231 0
M  V30 22362 H 2044.66 2.81449 2.78572 0
M  V30 22363 H 2045.83 4.57689 0.534529 0
M  V30 22364 H 2044.15 4.11455 0.639803 0
M  V30 22365 H 2046.74 4.10931 3.42111 0
M  V30 22366 H 2047.09 2.39689 3.40374 0
M  V30 22367 H 2047.62 3.41347 2.04271 0
M  V30 22368 H 2044.36 6.36982 1.54707 0
M  V30 22369 H 2043.88 5.27159 2.86117 0
M  V30 22370 H 2045.56 5.85578 2.75151 0
M  V30 22371 N 2045.69 -0.62272 1.44776 0
M  V30 22372 C 2047.11 -0.941829 1.28848 0
M  V30 22373 C 2047.31 -2.00178 0.230395 0
M  V30 22374 O 2046.36 -2.49611 -0.38085 0
M  V30 22375 C 2047.68 -1.39711 2.66273 0
M  V30 22376 C 2049.22 -1.51214 2.7405 0
M  V30 22377 C 2049.7 -2.00123 4.11964 0
M  V30 22378 N 2051.19 -2.07381 4.14183 0
M  V30 22379 C 2051.92 -2.46413 5.17753 0
M  V30 22380 N 2051.42 -2.84523 6.31679 0
M  V30 22381 N 2053.21 -2.46621 5.05109 0
M  V30 22382 H 2045.36 0.0781334 2.12256 0
M  V30 22383 H 2047.63 -0.0276831 0.947596 0
M  V30 22384 H 2047.33 -0.692534 3.44814 0
M  V30 22385 H 2047.21 -2.36654 2.93726 0
M  V30 22386 H 2049.59 -2.20767 1.95822 0
M  V30 22387 H 2049.68 -0.526248 2.50328 0
M  V30 22388 H 2049.32 -1.31163 4.90672 0
M  V30 22389 H 2049.25 -2.99599 4.33068 0
M  V30 22390 H 2051.74 -1.8058 3.31963 0
M  V30 22391 H 2052.05 -3.13144 7.06513 0
M  V30 22392 H 2050.4 -2.82254 6.35104 0
M  V30 22393 H 2053.59 -2.16244 4.15158 0
M  V30 22394 H 2053.76 -2.76715 5.85946 0
M  V30 22395 N 2047.17 -1.31814 -0.863883 0
M  V30 22396 C 2048.58 -1.10603 -1.15061 0
M  V30 22397 C 2048.78 0.119526 -2.01145 0
M  V30 22398 O 2047.84 0.807099 -2.39253 0
M  V30 22399 C 2049.15 -2.38075 -1.83686 0
M  V30 22400 C 2050.7 -2.43744 -1.96361 0
M  V30 22401 C 2051.18 -3.71113 -2.68401 0
M  V30 22402 N 2052.67 -3.72042 -2.75933 0
M  V30 22403 C 2053.4 -4.67294 -3.32301 0
M  V30 22404 N 2052.9 -5.72905 -3.89553 0
M  V30 22405 N 2054.69 -4.54804 -3.30317 0
M  V30 22406 H 2046.84 -2.10406 -0.290393 0
M  V30 22407 H 2049.11 -0.928505 -0.191264 0
M  V30 22408 H 2048.81 -3.27625 -1.27885 0
M  V30 22409 H 2048.69 -2.48336 -2.83917 0
M  V30 22410 H 2051.07 -1.54659 -2.51326 0
M  V30 22411 H 2051.15 -2.37443 -0.951544 0
M  V30 22412 H 2050.8 -4.60567 -2.14103 0
M  V30 22413 H 2050.73 -3.74682 -3.70028 0
M  V30 22414 H 2053.22 -2.95701 -2.35307 0
M  V30 22415 H 2053.53 -6.41656 -4.30694 0
M  V30 22416 H 2051.88 -5.76671 -3.87911 0
M  V30 22417 H 2055.07 -3.71468 -2.84832 0
M  V30 22418 H 2055.24 -5.29213 -3.73948 0
M  V30 22419 N 2048.65 1.07897 -1.14873 0
M  V30 22420 C 2049.87 1.84117 -0.943847 0
M  V30 22421 C 2050.29 1.81844 0.507767 0
M  V30 22422 O 2049.65 1.22585 1.352 0
M  V30 22423 C 2049.7 3.31438 -1.4433 0
M  V30 22424 O 2049.42 3.33746 -2.83805 0
M  V30 22425 C 2050.92 4.24445 -1.2791 0
M  V30 22426 H 2048.14 0.581068 -0.335561 0
M  V30 22427 H 2050.68 1.36237 -1.52512 0
M  V30 22428 H 2048.84 3.76689 -0.904683 0
M  V30 22429 H 2049.25 4.25748 -3.06332 0
M  V30 22430 H 2050.73 5.25906 -1.67711 0
M  V30 22431 H 2051.2 4.38636 -0.222593 0
M  V30 22432 H 2051.81 3.85025 -1.80653 0
M  V30 22433 N 2050.12 0.944665 1.2615 0
M  V30 22434 C 2051.05 0.47478 2.28622 0
M  V30 22435 C 2052.04 -0.473742 1.6337 0
M  V30 22436 O 2053.22 -0.374847 1.90548 0
M  V30 22437 C 2050.35 -0.2576 3.46343 0
M  V30 22438 C 2049.3 0.604701 4.23707 0
M  V30 22439 C 2048.63 -0.257841 5.34078 0
M  V30 22440 C 2049.93 1.8778 4.87377 0
M  V30 22441 H 2051.62 1.33122 2.68177 0
M  V30 22442 H 2049.17 0.641555 1.28919 0
M  V30 22443 H 2051.12 -0.597382 4.17144 0
M  V30 22444 H 2049.85 -1.14821 3.05751 0
M  V30 22445 H 2048.51 0.927426 3.54675 0
M  V30 22446 H 2048.15 -1.1479 4.89727 0
M  V30 22447 H 2047.85 0.315739 5.86751 0
M  V30 22448 H 2049.38 -0.592815 6.07715 0
M  V30 22449 H 2050.79 1.60505 5.50374 0
M  V30 22450 H 2049.19 2.39623 5.50182 0
M  V30 22451 H 2050.26 2.58705 4.10122 0
M  V30 22452 N 2051.6 -1.40596 0.712085 0
M  V30 22453 C 2052.55 -2.30729 0.0572693 0
M  V30 22454 C 2053.52 -1.48 -0.753997 0
M  V30 22455 O 2054.7 -1.76748 -0.71866 0
M  V30 22456 C 2051.84 -3.34184 -0.861092 0
M  V30 22457 C 2050.96 -4.31982 -0.0396747 0
M  V30 22458 C 2050.09 -5.22505 -0.957193 0
M  V30 22459 C 2049.13 -6.11963 -0.129658 0
M  V30 22460 N 2048.27 -6.94915 -1.00186 0
M  V30 22461 H 2053.11 -2.86161 0.831601 0
M  V30 22462 H 2050.65 -1.40923 0.421786 0
M  V30 22463 H 2052.6 -3.92732 -1.40775 0
M  V30 22464 H 2051.23 -2.80263 -1.60164 0
M  V30 22465 H 2050.29 -3.75245 0.624125 0
M  V30 22466 H 2051.6 -4.95164 0.601165 0
M  V30 22467 H 2050.75 -5.85967 -1.57251 0
M  V30 22468 H 2049.49 -4.59589 -1.63186 0
M  V30 22469 H 2048.5 -5.47534 0.49862 0
M  V30 22470 H 2049.72 -6.76938 0.541455 0
M  V30 22471 H 2047.67 -6.34591 -1.66225 0
M  V30 22472 H 2047.58 -7.54849 -0.41698 0
M  V30 22473 H 2048.85 -7.6283 -1.60347 0
M  V30 22474 N 2053.08 -0.458013 -1.50798 0
M  V30 22475 C 2054.01 0.379016 -2.26044 0
M  V30 22476 C 2055.03 0.96848 -1.3086 0
M  V30 22477 O 2056.21 0.859106 -1.56466 0
M  V30 22478 C 2053.31 1.54427 -3.01671 0
M  V30 22479 C 2052.49 1.06997 -4.24111 0
M  V30 22480 C 2051.55 2.10775 -4.82142 0
M  V30 22481 O 2050.57 1.69367 -5.43418 0
M  V30 22482 N 2051.77 3.43464 -4.67988 0
M  V30 22483 H 2054.54 -0.266 -2.98517 0
M  V30 22484 H 2052.1 -0.288052 -1.59317 0
M  V30 22485 H 2054.09 2.23518 -3.37375 0
M  V30 22486 H 2052.66 2.09423 -2.32079 0
M  V30 22487 H 2051.88 0.205395 -3.93665 0
M  V30 22488 H 2053.17 0.730786 -5.03525 0
M  V30 22489 H 2052.57 3.79824 -4.19226 0
M  V30 22490 H 2051.13 4.0839 -5.07997 0
M  V30 22491 N 2054.56 1.56449 -0.190119 0
M  V30 22492 C 2055.52 2.17632 0.718966 0
M  V30 22493 C 2056.52 1.12941 1.14459 0
M  V30 22494 O 2057.71 1.38353 1.05849 0
M  V30 22495 C 2054.84 2.77437 1.98095 0
M  V30 22496 H 2056.04 2.99322 0.186033 0
M  V30 22497 H 2053.59 1.56187 0.0594913 0
M  V30 22498 H 2054.33 1.99531 2.55652 0
M  V30 22499 H 2054.11 3.5407 1.68454 0
M  V30 22500 H 2055.6 3.24433 2.62932 0
M  V30 22501 N 2056.04 -0.0835127 1.57379 0
M  V30 22502 C 2057.28 -0.784868 1.86671 0
M  V30 22503 C 2057.61 -1.78164 0.780253 0
M  V30 22504 O 2056.87 -1.94402 -0.224985 0
M  V30 22505 C 2057.17 -1.53851 3.22591 0
M  V30 22506 C 2056.83 -0.682799 4.457 0
M  V30 22507 C 2055.49 -0.446944 4.7912 0
M  V30 22508 C 2057.85 -0.0886784 5.21125 0
M  V30 22509 C 2055.17 0.392707 5.85384 0
M  V30 22510 C 2057.53 0.73836 6.28276 0
M  V30 22511 C 2056.19 0.984198 6.60204 0
M  V30 22512 H 2055.46 -0.287204 0.683078 0
M  V30 22513 H 2058.11 -0.0459845 1.91445 0
M  V30 22514 H 2056.41 -2.34928 3.13554 0
M  V30 22515 H 2058.11 -2.08576 3.42486 0
M  V30 22516 H 2054.7 -0.876748 4.19537 0
M  V30 22517 H 2058.88 -0.258035 4.95629 0
M  V30 22518 H 2054.14 0.592037 6.08527 0
M  V30 22519 H 2058.31 1.20553 6.85886 0
M  V30 22520 H 2055.94 1.63661 7.42374 0
M  V30 22521 N 2057.52 -1.53558 -0.354624 0
M  V30 22522 C 2058.48 -1.80084 -1.41783 0
M  V30 22523 C 2059.48 -0.671552 -1.46105 0
M  V30 22524 O 2060.67 -0.939801 -1.46674 0
M  V30 22525 C 2057.8 -1.93284 -2.8081 0
M  V30 22526 H 2058.99 -2.75049 -1.19532 0
M  V30 22527 H 2056.55 -1.44802 -0.588388 0
M  V30 22528 H 2057.28 -1.00423 -3.0836 0
M  V30 22529 H 2057.07 -2.75432 -2.7907 0
M  V30 22530 H 2058.56 -2.15361 -3.57784 0
M  V30 22531 N 2058.99 0.615033 -1.45104 0
M  V30 22532 C 2060.27 1.37409 -1.39206 0
M  V30 22533 C 2060.65 2.11018 -0.0588763 0
M  V30 22534 O 2060 2.07402 0.958997 0
M  V30 22535 C 2060.21 2.32712 -2.60089 0
M  V30 22536 C 2061.56 2.95549 -3.04854 0
M  V30 22537 O 2062.58 2.43035 -2.60408 0
M  V30 22538 O 2061.44 3.90854 -3.81963 0
M  V30 22539 H 2058.53 0.615766 -0.552052 0
M  V30 22540 H 2061.08 0.638743 -1.5722 0
M  V30 22541 H 2059.85 1.77529 -3.48711 0
M  V30 22542 H 2059.47 3.13639 -2.4437 0
M  V30 22543 N 2060.47 1.3227 0.85688 0
M  V30 22544 C 2061.71 1.24017 1.62478 0
M  V30 22545 C 2062.08 -0.195596 1.91001 0
M  V30 22546 O 2063.28 -0.401822 2.6578 0
M  V30 22547 C 2061.55 2.07356 2.91098 0
M  V30 22548 S 2063.11 2.16105 3.81895 0
M  V30 22549 H 2059.92 0.441493 0.557319 0
M  V30 22550 H 2062.53 1.67092 1.01492 0
M  V30 22551 H 2061.23 3.10737 2.68087 0
M  V30 22552 H 2060.76 1.65051 3.57102 0
M  V30 22553 H 2062.78 1.30893 4.78625 0
M  V30 22554 N 2061.95 -1.07287 1.15444 0
M  V30 22555 C 2063.18 -1.83614 0.953597 0
M  V30 22556 C 2063.59 -1.82111 -0.498116 0
M  V30 22557 O 2062.95 -1.233 -1.34548 0
M  V30 22558 C 2063 -3.30668 1.46086 0
M  V30 22559 O 2062.72 -3.32236 2.85571 0
M  V30 22560 C 2064.22 -4.23761 1.3016 0
M  V30 22561 H 2061.44 -0.57928 0.338638 0
M  V30 22562 H 2063.99 -1.35426 1.53232 0
M  V30 22563 H 2062.14 -3.76203 0.924647 0
M  V30 22564 H 2062.56 -4.24117 3.08585 0
M  V30 22565 H 2064.03 -5.25009 1.70497 0
M  V30 22566 H 2064.51 -4.38511 0.245852 0
M  V30 22567 H 2065.11 -3.84062 1.82692 0
M  V30 22568 N 2063.43 -0.951342 -1.25647 0
M  V30 22569 C 2064.67 -0.605246 -1.93558 0
M  V30 22570 C 2065.01 0.85507 -1.74362 0
M  V30 22571 O 2064.28 1.61308 -1.08674 0
M  V30 22572 C 2064.56 -0.960718 -3.47048 0
M  V30 22573 C 2064.42 -2.47652 -3.75484 0
M  V30 22574 C 2065.74 -0.483409 -4.37437 0
M  V30 22575 H 2062.86 -0.22136 -0.702971 0
M  V30 22576 H 2065.5 -1.1874 -1.48327 0
M  V30 22577 H 2063.65 -0.465324 -3.85703 0
M  V30 22578 H 2065.32 -3.04543 -3.46484 0
M  V30 22579 H 2063.56 -2.91564 -3.21205 0
M  V30 22580 H 2064.23 -2.67575 -4.82812 0
M  V30 22581 H 2066.71 -0.908309 -4.06065 0
M  V30 22582 H 2065.59 -0.760858 -5.43601 0
M  V30 22583 H 2065.85 0.616645 -4.37778 0
M  V30 22584 N 2064.91 1.40216 -0.719531 0
M  V30 22585 C 2066.15 2.00047 -0.25771 0
M  V30 22586 C 2066.47 1.57718 1.15692 0
M  V30 22587 O 2067.67 2.10275 1.71746 0
M  V30 22588 C 2066.13 3.57559 -0.409824 0
M  V30 22589 C 2065.74 4.08859 -1.83134 0
M  V30 22590 C 2067.48 4.24499 -0.00899594 0
M  V30 22591 C 2065.39 5.58889 -1.93383 0
M  V30 22592 H 2064.32 0.748293 -0.0925975 0
M  V30 22593 H 2066.97 1.60406 -0.891188 0
M  V30 22594 H 2065.35 3.9492 0.292302 0
M  V30 22595 H 2066.53 3.82867 -2.56417 0
M  V30 22596 H 2064.84 3.54529 -2.18399 0
M  V30 22597 H 2067.44 5.34661 -0.0647997 0
M  V30 22598 H 2067.78 4.03267 1.0335 0
M  V30 22599 H 2068.31 3.92258 -0.66171 0
M  V30 22600 H 2065.05 5.8498 -2.95767 0
M  V30 22601 H 2064.57 5.86733 -1.24517 0
M  V30 22602 H 2066.25 6.24054 -1.70778 0
M  V30 22603 N 2066.38 0.466004 1.50553 0
M  V30 22604 C 2067.31 -0.320802 2.31286 0
M  V30 22605 C 2068.29 -0.995008 1.37962 0
M  V30 22606 O 2069.48 -0.993158 1.66883 0
M  V30 22607 C 2066.61 -1.40607 3.17564 0
M  V30 22608 C 2065.56 -0.853763 4.19398 0
M  V30 22609 C 2064.89 -2.03694 4.94381 0
M  V30 22610 C 2066.19 0.131478 5.22134 0
M  V30 22611 H 2067.88 0.352995 2.97312 0
M  V30 22612 H 2065.43 0.171207 1.42979 0
M  V30 22613 H 2067.38 -1.96395 3.72836 0
M  V30 22614 H 2066.11 -2.10857 2.49413 0
M  V30 22615 H 2064.77 -0.317899 3.65219 0
M  V30 22616 H 2064.41 -2.7263 4.22708 0
M  V30 22617 H 2064.11 -1.67364 5.63261 0
M  V30 22618 H 2065.64 -2.59982 5.52487 0
M  V30 22619 H 2067.05 -0.337046 5.72308 0
M  V30 22620 H 2065.45 0.408804 5.98706 0
M  V30 22621 H 2066.52 1.05903 4.73194 0
M  V30 22622 N 2067.86 -1.56346 0.198413 0
M  V30 22623 C 2069.1 -1.99572 -0.441608 0
M  V30 22624 C 2069.47 -1.08257 -1.5857 0
M  V30 22625 O 2070.67 -1.40734 -2.29014 0
M  V30 22626 C 2068.94 -3.46221 -0.886882 0
M  V30 22627 S 2070.5 -4.11475 -1.52427 0
M  V30 22628 H 2067.31 -0.69686 -0.141092 0
M  V30 22629 H 2069.92 -1.93149 0.302261 0
M  V30 22630 H 2068.62 -4.10376 -0.0441917 0
M  V30 22631 H 2068.15 -3.56469 -1.66413 0
M  V30 22632 H 2070.17 -4.08754 -2.81308 0
M  V30 22633 N 2069.34 0.0751653 -1.57421 0
M  V30 22634 C 2070.25 1.10763 -2.06806 0
M  V30 22635 C 2071.27 1.4261 -0.99691 0
M  V30 22636 O 2072.44 1.52854 -1.31139 0
M  V30 22637 C 2069.51 2.40281 -2.49932 0
M  V30 22638 C 2068.57 2.15435 -3.7133 0
M  V30 22639 C 2067.8 3.38777 -4.1239 0
M  V30 22640 O 2068.02 4.4777 -3.53353 0
M  V30 22641 O 2066.96 3.27189 -5.05204 0
M  V30 22642 H 2070.78 0.718102 -2.95088 0
M  V30 22643 H 2068.37 0.289065 -1.46577 0
M  V30 22644 H 2070.25 3.16509 -2.78208 0
M  V30 22645 H 2068.93 2.7862 -1.64781 0
M  V30 22646 H 2067.83 1.36922 -3.48142 0
M  V30 22647 H 2069.17 1.81978 -4.57324 0
M  V30 22648 N 2070.82 1.53744 0.346476 0
M  V30 22649 C 2071.77 1.77908 1.42593 0
M  V30 22650 C 2072.75 0.634184 1.47875 0
M  V30 22651 O 2073.94 0.893482 1.52794 0
M  V30 22652 C 2071.07 1.9895 2.79775 0
M  V30 22653 C 2070.16 3.19496 2.78897 0
M  V30 22654 N 2070.55 4.41025 2.47651 0
M  V30 22655 C 2068.85 3.20605 3.10046 0
M  V30 22656 C 2069.55 5.22862 2.54932 0
M  V30 22657 N 2068.53 4.59509 2.90434 0
M  V30 22658 H 2072.33 2.69465 1.17328 0
M  V30 22659 H 2069.84 1.52629 0.554814 0
M  V30 22660 H 2071.84 2.14394 3.57549 0
M  V30 22661 H 2070.5 1.08632 3.05989 0
M  V30 22662 H 2071.51 4.68426 2.20901 0
M  V30 22663 H 2068.19 2.40246 3.4145 0
M  V30 22664 H 2069.58 6.29851 2.33959 0
M  V30 22665 N 2072.3 -0.607329 1.45428 0
M  V30 22666 C 2073.71 -0.92811 1.29839 0
M  V30 22667 C 2073.91 -1.99923 0.251614 0
M  V30 22668 O 2072.97 -2.50001 -0.354354 0
M  V30 22669 C 2074.28 -1.36879 2.6774 0
M  V30 22670 C 2075.83 -1.48299 2.75638 0
M  V30 22671 C 2076.3 -1.95743 4.14064 0
M  V30 22672 N 2077.8 -2.02976 4.16359 0
M  V30 22673 C 2078.53 -2.40908 5.20337 0
M  V30 22674 N 2078.03 -2.77807 6.34661 0
M  V30 22675 N 2079.82 -2.41249 5.07696 0
M  V30 22676 H 2071.97 0.100642 2.12161 0
M  V30 22677 H 2074.23 -0.017631 0.947836 0
M  V30 22678 H 2073.94 -0.655923 3.45529 0
M  V30 22679 H 2073.81 -2.33525 2.96219 0
M  V30 22680 H 2076.2 -2.18677 1.98152 0
M  V30 22681 H 2076.28 -0.499667 2.50872 0
M  V30 22682 H 2075.93 -1.25951 4.92035 0
M  V30 22683 H 2075.86 -2.94989 4.36221 0
M  V30 22684 H 2078.35 -1.77048 3.3386 0
M  V30 22685 H 2078.66 -3.05633 7.09794 0
M  V30 22686 H 2077 -2.75502 6.38062 0
M  V30 22687 H 2080.2 -2.11829 4.17428 0
M  V30 22688 H 2080.37 -2.70485 5.88848 0
M  V30 22689 N 2073.77 -1.32722 -0.849853 0
M  V30 22690 C 2075.02 -1.22908 -1.59927 0
M  V30 22691 C 2075.34 0.206455 -1.94507 0
M  V30 22692 O 2076.54 0.426508 -2.68129 0
M  V30 22693 C 2075 -2.15292 -2.88405 0
M  V30 22694 C 2074.61 -3.63954 -2.6123 0
M  V30 22695 C 2076.35 -2.14325 -3.66422 0
M  V30 22696 C 2074.26 -4.48286 -3.85738 0
M  V30 22697 H 2073.19 -0.456463 -0.600132 0
M  V30 22698 H 2075.84 -1.57715 -0.937993 0
M  V30 22699 H 2074.22 -1.73406 -3.56015 0
M  V30 22700 H 2075.39 -4.14213 -2.01901 0
M  V30 22701 H 2073.71 -3.67101 -1.96535 0
M  V30 22702 H 2076.31 -2.74566 -4.58822 0
M  V30 22703 H 2076.65 -1.13547 -4.00516 0
M  V30 22704 H 2077.18 -2.54517 -3.05722 0
M  V30 22705 H 2073.92 -5.49897 -3.56782 0
M  V30 22706 H 2073.44 -4.02776 -4.44446 0
M  V30 22707 H 2075.12 -4.61531 -4.53429 0
M  V30 22708 N 2075.25 1.06673 -1.16011 0
M  V30 22709 C 2076.16 2.17576 -0.877386 0
M  V30 22710 C 2077.18 1.73362 0.148919 0
M  V30 22711 O 2078.35 2.01382 -0.0268051 0
M  V30 22712 C 2075.42 3.44631 -0.378223 0
M  V30 22713 C 2074.48 4.03374 -1.46928 0
M  V30 22714 C 2073.71 5.24365 -0.993837 0
M  V30 22715 O 2073.94 5.70181 0.157925 0
M  V30 22716 O 2072.87 5.74962 -1.78052 0
M  V30 22717 H 2076.7 2.44264 -1.80468 0
M  V30 22718 H 2074.28 1.1614 -0.939777 0
M  V30 22719 H 2076.16 4.21265 -0.106644 0
M  V30 22720 H 2074.84 3.19478 0.521114 0
M  V30 22721 H 2073.75 3.28248 -1.79455 0
M  V30 22722 H 2075.08 4.32814 -2.34378 0
M  V30 22723 N 2076.73 0.957992 1.25141 0
M  V30 22724 C 2077.69 0.485333 2.24003 0
M  V30 22725 C 2078.69 -0.412817 1.55411 0
M  V30 22726 O 2079.88 -0.209635 1.72934 0
M  V30 22727 C 2077.02 -0.298362 3.39592 0
M  V30 22728 H 2078.21 1.35918 2.67332 0
M  V30 22729 H 2075.76 0.741602 1.37586 0
M  V30 22730 H 2076.5 -1.18973 3.01688 0
M  V30 22731 H 2076.28 0.346033 3.9057 0
M  V30 22732 H 2077.77 -0.618412 4.12996 0
M  V30 22733 N 2078.21 -1.39832 0.726957 0
M  V30 22734 C 2079.14 -2.28179 0.0306291 0
M  V30 22735 C 2080.12 -1.43956 -0.756008 0
M  V30 22736 O 2081.3 -1.73356 -0.74026 0
M  V30 22737 C 2078.43 -3.24695 -0.963903 0
M  V30 22738 C 2077.48 -4.25665 -0.266719 0
M  V30 22739 S 2078.31 -5.2582 1.01356 0
M  V30 22740 C 2079.47 -6.25896 0.0214211 0
M  V30 22741 H 2079.7 -2.86889 0.779868 0
M  V30 22742 H 2077.23 -1.45436 0.518429 0
M  V30 22743 H 2079.19 -3.80823 -1.53245 0
M  V30 22744 H 2077.85 -2.6502 -1.68592 0
M  V30 22745 H 2077.04 -4.93592 -1.01896 0
M  V30 22746 H 2076.65 -3.73295 0.229576 0
M  V30 22747 H 2078.94 -6.72499 -0.82166 0
M  V30 22748 H 2079.88 -7.04946 0.667612 0
M  V30 22749 H 2080.29 -5.6343 -0.347386 0
M  V30 22750 N 2079.69 -0.473982 -1.50304 0
M  V30 22751 C 2080.62 0.308532 -2.31453 0
M  V30 22752 C 2081.6 0.987678 -1.38488 0
M  V30 22753 O 2082.78 0.984294 -1.67408 0
M  V30 22754 C 2079.91 1.38921 -3.18305 0
M  V30 22755 C 2078.87 0.831509 -4.19845 0
M  V30 22756 C 2078.19 2.0107 -4.95454 0
M  V30 22757 C 2079.49 -0.159166 -5.22057 0
M  V30 22758 H 2081.19 -0.368757 -2.9712 0
M  V30 22759 H 2078.73 -0.178787 -1.42886 0
M  V30 22760 H 2080.69 1.94415 -3.73873 0
M  V30 22761 H 2079.41 2.09531 -2.50528 0
M  V30 22762 H 2078.07 0.298526 -3.65383 0
M  V30 22763 H 2077.72 2.70384 -4.24148 0
M  V30 22764 H 2077.42 1.64374 -5.64141 0
M  V30 22765 H 2078.94 2.57048 -5.53858 0
M  V30 22766 H 2080.35 0.306691 -5.72479 0
M  V30 22767 H 2078.75 -0.440549 -5.98481 0
M  V30 22768 H 2079.82 -1.08411 -4.72626 0
M  V30 22769 N 2081.16 1.56239 -0.206702 0
M  V30 22770 C 2082.07 2.2324 0.721172 0
M  V30 22771 C 2083.09 1.2352 1.22552 0
M  V30 22772 O 2084.27 1.56291 1.27025 0
M  V30 22773 C 2081.33 2.88767 1.91871 0
M  V30 22774 C 2080.39 4.03791 1.45779 0
M  V30 22775 C 2079.63 4.66183 2.59825 0
M  V30 22776 O 2079.85 4.27524 3.77597 0
M  V30 22777 O 2078.78 5.55444 2.31874 0
M  V30 22778 H 2082.61 3.03163 0.180488 0
M  V30 22779 H 2080.19 1.49382 0.0231036 0
M  V30 22780 H 2082.08 3.30181 2.61837 0
M  V30 22781 H 2080.75 2.11815 2.44777 0
M  V30 22782 H 2079.66 3.66976 0.726587 0
M  V30 22783 H 2080.99 4.82441 0.975269 0
M  V30 22784 N 2082.64 -0.0668159 1.57458 0
M  V30 22785 C 2083.88 -0.77031 1.89329 0
M  V30 22786 C 2084.25 -1.7449 0.801069 0
M  V30 22787 O 2085.45 -2.49386 1.00299 0
M  V30 22788 C 2083.72 -1.45541 3.26424 0
M  V30 22789 S 2085.28 -2.19328 3.80054 0
M  V30 22790 H 2082.1 -0.256053 0.663293 0
M  V30 22791 H 2084.7 -0.026213 1.95482 0
M  V30 22792 H 2083.4 -0.732349 4.03813 0
M  V30 22793 H 2082.93 -2.23883 3.23481 0
M  V30 22794 H 2084.95 -3.45924 3.5574 0
M  V30 22795 N 2084.12 -1.53926 -0.338317 0
M  V30 22796 C 2085.05 -1.78601 -1.43647 0
M  V30 22797 C 2086.07 -0.667465 -1.48488 0
M  V30 22798 O 2087.26 -0.944299 -1.51477 0
M  V30 22799 C 2084.36 -1.87548 -2.82274 0
M  V30 22800 C 2083.53 -3.17539 -3.00811 0
M  V30 22801 C 2082.59 -3.17377 -4.19712 0
M  V30 22802 O 2081.61 -3.91078 -4.13578 0
M  V30 22803 N 2082.82 -2.40116 -5.28512 0
M  V30 22804 H 2085.58 -2.73365 -1.22849 0
M  V30 22805 H 2083.14 -1.5304 -0.528227 0
M  V30 22806 H 2085.13 -1.84885 -3.6 0
M  V30 22807 H 2083.7 -0.999475 -2.96191 0
M  V30 22808 H 2082.92 -3.33284 -2.10512 0
M  V30 22809 H 2084.21 -4.03394 -3.10082 0
M  V30 22810 H 2083.61 -1.79799 -5.36366 0
M  V30 22811 H 2082.17 -2.43245 -6.04711 0
M  V30 22812 N 2085.6 0.599608 -1.45748 0
M  V30 22813 C 2086.53 1.72389 -1.51045 0
M  V30 22814 C 2087.54 1.57799 -0.400408 0
M  V30 22815 O 2088.73 1.65534 -0.667891 0
M  V30 22816 C 2085.83 3.10473 -1.35865 0
M  V30 22817 C 2085.01 3.51228 -2.60687 0
M  V30 22818 C 2084.07 4.68306 -2.39949 0
M  V30 22819 O 2083.09 4.7502 -3.136 0
M  V30 22820 N 2084.29 5.62093 -1.45024 0
M  V30 22821 H 2087.06 1.68306 -2.47978 0
M  V30 22822 H 2084.62 0.78512 -1.41589 0
M  V30 22823 H 2086.61 3.86565 -1.1979 0
M  V30 22824 H 2085.18 3.09019 -0.471781 0
M  V30 22825 H 2084.4 2.65016 -2.91822 0
M  V30 22826 H 2085.69 3.75218 -3.43641 0
M  V30 22827 H 2085.09 5.5939 -0.842577 0
M  V30 22828 H 2083.64 6.37684 -1.34918 0
M  V30 22829 N 2087.08 1.33171 0.842803 0
M  V30 22830 C 2088.32 1.24405 1.5978 0
M  V30 22831 C 2088.65 -0.191163 1.93558 0
M  V30 22832 O 2087.91 -1.14732 1.5854 0
M  V30 22833 C 2088.21 2.06076 2.92006 0
M  V30 22834 C 2087.87 3.5531 2.77607 0
M  V30 22835 C 2086.53 3.95996 2.73387 0
M  V30 22836 C 2088.89 4.50158 2.62692 0
M  V30 22837 C 2086.21 5.29754 2.52147 0
M  V30 22838 C 2088.57 5.84073 2.42986 0
M  V30 22839 C 2087.23 6.23946 2.37166 0
M  V30 22840 H 2086.5 0.45523 0.584676 0
M  V30 22841 H 2089.15 1.64718 0.97674 0
M  V30 22842 H 2087.45 1.58528 3.58296 0
M  V30 22843 H 2089.15 1.96653 3.49469 0
M  V30 22844 H 2085.74 3.23003 2.81722 0
M  V30 22845 H 2089.92 4.19636 2.64989 0
M  V30 22846 H 2085.18 5.59689 2.46085 0
M  V30 22847 H 2089.35 6.57173 2.30427 0
M  V30 22848 H 2086.98 7.27529 2.20467 0
M  V30 22849 N 2088.56 -1.06056 1.16576 0
M  V30 22850 C 2089.49 -2.15554 0.897693 0
M  V30 22851 C 2090.47 -1.69375 -0.156927 0
M  V30 22852 O 2091.65 -1.94198 -0.00851939 0
M  V30 22853 C 2088.78 -3.44982 0.40063 0
M  V30 22854 C 2087.74 -4.04682 1.39343 0
M  V30 22855 C 2087.06 -5.29347 0.754677 0
M  V30 22856 C 2088.36 -4.43182 2.76381 0
M  V30 22857 H 2090.06 -2.38236 1.81339 0
M  V30 22858 H 2087.6 -1.14495 0.873316 0
M  V30 22859 H 2089.55 -4.20922 0.200566 0
M  V30 22860 H 2088.28 -3.21926 -0.550576 0
M  V30 22861 H 2086.94 -3.308 1.58009 0
M  V30 22862 H 2086.59 -5.0259 -0.203091 0
M  V30 22863 H 2086.29 -5.7025 1.41735 0
M  V30 22864 H 2087.81 -6.07983 0.564687 0
M  V30 22865 H 2089.22 -5.10195 2.61485 0
M  V30 22866 H 2087.62 -4.95076 3.39146 0
M  V30 22867 H 2088.69 -3.53931 3.31453 0
M  V30 22868 N 2090.03 -0.964615 -1.24631 0
M  V30 22869 C 2091.28 -0.625742 -1.92905 0
M  V30 22870 C 2091.61 0.836529 -1.75259 0
M  V30 22871 O 2090.89 1.60146 -1.10379 0
M  V30 22872 C 2091.17 -0.997473 -3.46009 0
M  V30 22873 C 2091.02 -2.51621 -3.72836 0
M  V30 22874 C 2092.34 -0.529778 -4.369 0
M  V30 22875 H 2089.46 -0.228804 -0.700584 0
M  V30 22876 H 2092.1 -1.20306 -1.47059 0
M  V30 22877 H 2090.25 -0.506207 -3.85188 0
M  V30 22878 H 2091.93 -3.082 -3.43235 0
M  V30 22879 H 2090.17 -2.94954 -3.18095 0
M  V30 22880 H 2090.84 -2.72681 -4.79947 0
M  V30 22881 H 2093.32 -0.951326 -4.05079 0
M  V30 22882 H 2092.19 -0.818472 -5.42764 0
M  V30 22883 H 2092.45 0.570178 -4.38408 0
M  V30 22884 N 2091.51 1.39445 -0.734362 0
M  V30 22885 C 2092.76 1.99762 -0.278913 0
M  V30 22886 C 2093.07 1.58936 1.14012 0
M  V30 22887 O 2094.28 2.12085 1.69506 0
M  V30 22888 C 2092.74 3.57104 -0.447725 0
M  V30 22889 C 2092.34 4.06894 -1.87461 0
M  V30 22890 C 2094.09 4.24466 -0.0540192 0
M  V30 22891 C 2091.99 5.56806 -1.993 0
M  V30 22892 H 2090.92 0.747268 -0.100529 0
M  V30 22893 H 2093.58 1.59452 -0.908151 0
M  V30 22894 H 2091.96 3.95208 0.250399 0
M  V30 22895 H 2093.13 3.80126 -2.60463 0
M  V30 22896 H 2091.45 3.52193 -2.22147 0
M  V30 22897 H 2094.04 5.34562 -0.121504 0
M  V30 22898 H 2094.39 4.04341 0.990665 0
M  V30 22899 H 2094.92 3.91534 -0.703277 0
M  V30 22900 H 2091.66 5.8181 -3.01955 0
M  V30 22901 H 2091.18 5.85379 -1.30734 0
M  V30 22902 H 2092.86 6.22208 -1.77387 0
M  V30 22903 N 2092.99 0.481946 1.5005 0
M  V30 22904 C 2093.9 -0.311606 2.32521 0
M  V30 22905 C 2094.92 -0.985661 1.4339 0
M  V30 22906 O 2096.09 -0.971246 1.76433 0
M  V30 22907 C 2093.16 -1.37313 3.18349 0
M  V30 22908 C 2092.22 -0.714526 4.23312 0
M  V30 22909 C 2091.45 -1.72547 5.05038 0
M  V30 22910 O 2091.67 -2.95324 4.87996 0
M  V30 22911 O 2090.61 -1.2913 5.87885 0
M  V30 22912 H 2094.43 0.362909 3.01524 0
M  V30 22913 H 2092.02 0.243598 1.47401 0
M  V30 22914 H 2093.9 -1.98774 3.71573 0
M  V30 22915 H 2092.58 -2.03091 2.52063 0
M  V30 22916 H 2091.48 -0.0606687 3.74051 0
M  V30 22917 H 2092.82 -0.099506 4.92099 0
M  V30 22918 N 2094.47 -1.56127 0.214985 0
M  V30 22919 C 2095.38 -2.2362 -0.709323 0
M  V30 22920 C 2096.39 -1.24168 -1.21895 0
M  V30 22921 O 2097.57 -1.56962 -1.26194 0
M  V30 22922 C 2094.63 -2.89781 -1.90337 0
M  V30 22923 C 2093.7 -4.04558 -1.43636 0
M  V30 22924 C 2092.93 -4.67555 -2.57349 0
M  V30 22925 O 2093.15 -4.29521 -3.75324 0
M  V30 22926 O 2092.09 -5.56666 -2.28925 0
M  V30 22927 H 2095.91 -3.03255 -0.164408 0
M  V30 22928 H 2093.5 -1.49392 -0.0151812 0
M  V30 22929 H 2095.38 -3.31565 -2.60082 0
M  V30 22930 H 2094.05 -2.1311 -2.43651 0
M  V30 22931 H 2092.96 -3.67356 -0.707115 0
M  V30 22932 H 2094.29 -4.82951 -0.94967 0
M  V30 22933 N 2095.95 0.0584645 -1.57492 0
M  V30 22934 C 2096.89 1.08667 -2.05655 0
M  V30 22935 C 2097.89 1.39265 -0.964446 0
M  V30 22936 O 2099.09 1.38515 -1.1495 0
M  V30 22937 H 2095.47 0.367834 -0.655898 0
M  V30 22938 H 2097.44 0.654416 -2.91136 0
M  V30 22939 C 2096.19 2.38807 -2.52718 0
M  V30 22940 H 2095.51 2.16117 -3.36353 0
M  V30 22941 H 2096.95 3.09167 -2.90158 0
M  V30 22942 C 2095.41 3.0571 -1.41573 0
M  V30 22943 O 2095.94 3.94342 -0.765316 0
M  V30 22944 N 2094.15 2.66551 -1.15754 0
M  V30 22945 H 2093.69 1.94564 -1.68827 0
M  V30 22946 H 2093.65 3.11636 -0.415957 0
M  V30 22947 N 2097.42 1.54103 0.330149 0
M  V30 22948 C 2098.37 1.83029 1.40603 0
M  V30 22949 C 2099.34 0.676907 1.51681 0
M  V30 22950 O 2100.53 0.922683 1.67007 0
M  V30 22951 C 2097.67 2.05745 2.77061 0
M  V30 22952 C 2096.78 3.3344 2.74667 0
M  V30 22953 C 2095.91 3.46152 4.02929 0
M  V30 22954 C 2094.95 4.67746 3.94817 0
M  V30 22955 N 2094.09 4.7742 5.14796 0
M  V30 22956 H 2098.93 2.74817 1.15236 0
M  V30 22957 H 2096.47 1.36107 0.557963 0
M  V30 22958 H 2098.42 2.16907 3.56381 0
M  V30 22959 H 2097.05 1.17255 3.00751 0
M  V30 22960 H 2096.11 3.3105 1.87376 0
M  V30 22961 H 2097.42 4.22863 2.64554 0
M  V30 22962 H 2096.57 3.5682 4.90678 0
M  V30 22963 H 2095.31 2.5481 4.15841 0
M  V30 22964 H 2094.32 4.57142 3.05453 0
M  V30 22965 H 2095.54 5.60467 3.83476 0
M  V30 22966 H 2093.49 3.88991 5.28225 0
M  V30 22967 H 2093.4 5.60799 5.06991 0
M  V30 22968 H 2094.67 4.92412 6.04277 0
M  V30 22969 N 2098.9 -0.59187 1.46064 0
M  V30 22970 C 2100.15 -1.3524 1.51122 0
M  V30 22971 C 2100.48 -1.93551 0.158686 0
M  V30 22972 O 2099.76 -1.75958 -0.828798 0
M  V30 22973 C 2100.04 -2.48861 2.6027 0
M  V30 22974 C 2099.89 -1.95645 4.05023 0
M  V30 22975 C 2101.21 -3.50941 2.65572 0
M  V30 22976 H 2098.33 -0.49038 0.550179 0
M  V30 22977 H 2100.97 -0.66575 1.77954 0
M  V30 22978 H 2099.12 -3.07434 2.37521 0
M  V30 22979 H 2100.79 -1.41599 4.3903 0
M  V30 22980 H 2099.04 -1.26535 4.14935 0
M  V30 22981 H 2099.71 -2.77621 4.77107 0
M  V30 22982 H 2102.18 -3.02233 2.85997 0
M  V30 22983 H 2101.06 -4.27911 3.43779 0
M  V30 22984 H 2101.32 -4.07578 1.71267 0
M  V30 22985 N 2100.38 -1.33616 -0.835729 0
M  V30 22986 C 2101.8 -1.13019 -1.12689 0
M  V30 22987 C 2102 0.0768335 -2.01353 0
M  V30 22988 O 2101.05 0.756169 -2.40911 0
M  V30 22989 C 2102.37 -2.41918 -1.78595 0
M  V30 22990 C 2103.91 -2.47854 -1.91147 0
M  V30 22991 C 2104.39 -3.76723 -2.60469 0
M  V30 22992 N 2105.88 -3.77811 -2.67979 0
M  V30 22993 C 2106.61 -4.74237 -3.22315 0
M  V30 22994 N 2106.11 -5.81039 -3.77313 0
M  V30 22995 N 2107.9 -4.61709 -3.20596 0
M  V30 22996 H 2100.05 -2.10974 -0.245697 0
M  V30 22997 H 2102.32 -0.932353 -0.171526 0
M  V30 22998 H 2102.02 -3.30264 -1.20906 0
M  V30 22999 H 2101.9 -2.54302 -2.78586 0
M  V30 23000 H 2104.28 -1.59955 -2.47989 0
M  V30 23001 H 2104.37 -2.39408 -0.900965 0
M  V30 23002 H 2104.01 -4.65005 -2.04286 0
M  V30 23003 H 2103.94 -3.82447 -3.61998 0
M  V30 23004 H 2106.43 -3.00626 -2.28982 0
M  V30 23005 H 2106.74 -6.50648 -4.16986 0
M  V30 23006 H 2105.09 -5.8477 -3.75592 0
M  V30 23007 H 2108.28 -3.77426 -2.76888 0
M  V30 23008 H 2108.45 -5.37026 -3.62639 0
M  V30 23009 N 2101.86 1.05436 -1.17136 0
M  V30 23010 C 2102.79 2.13111 -0.843582 0
M  V30 23011 C 2103.8 1.6208 0.152942 0
M  V30 23012 O 2104.99 1.78351 -0.0730153 0
M  V30 23013 C 2102.09 3.38072 -0.236753 0
M  V30 23014 C 2101.27 4.18389 -1.27553 0
M  V30 23015 C 2100.32 5.21697 -0.686916 0
M  V30 23016 O 2099.35 5.52761 -1.35807 0
M  V30 23017 N 2100.55 5.78146 0.522229 0
M  V30 23018 H 2103.32 2.41827 -1.7703 0
M  V30 23019 H 2100.88 1.21513 -1.06987 0
M  V30 23020 H 2102.87 4.04342 0.170262 0
M  V30 23021 H 2101.44 3.0691 0.593699 0
M  V30 23022 H 2100.66 3.47645 -1.85839 0
M  V30 23023 H 2101.95 4.6885 -1.97628 0
M  V30 23024 H 2101.35 5.55188 1.0855 0
M  V30 23025 H 2099.9 6.4595 0.871341 0
M  V30 23026 N 2103.34 0.971211 1.24118 0
M  V30 23027 C 2104.57 0.651802 1.96049 0
M  V30 23028 C 2104.97 -0.783604 1.7221 0
M  V30 23029 O 2104.32 -1.53782 1.00483 0
M  V30 23030 C 2104.38 0.850953 3.49284 0
M  V30 23031 C 2104.04 2.26667 3.96826 0
M  V30 23032 C 2105.04 3.24467 4.06223 0
M  V30 23033 C 2102.73 2.5953 4.30057 0
M  V30 23034 C 2104.72 4.53215 4.4819 0
M  V30 23035 C 2102.41 3.88503 4.71708 0
M  V30 23036 C 2103.4 4.85158 4.8074 0
M  V30 23037 O 2103.09 6.1183 5.21459 0
M  V30 23038 H 2102.82 0.241912 0.631233 0
M  V30 23039 H 2105.38 1.30265 1.58809 0
M  V30 23040 H 2103.61 0.142941 3.86436 0
M  V30 23041 H 2105.3 0.530099 4.02424 0
M  V30 23042 H 2106.06 3.00407 3.80763 0
M  V30 23043 H 2101.94 1.85015 4.22245 0
M  V30 23044 H 2105.49 5.28659 4.55155 0
M  V30 23045 H 2101.38 4.12363 4.96616 0
M  V30 23046 H 2102.15 6.15448 5.39598 0
M  V30 23047 N 2104.81 -1.39054 0.741747 0
M  V30 23048 C 2106.09 -1.94374 0.218671 0
M  V30 23049 C 2106.47 -1.67801 -1.28086 0
M  V30 23050 O 2105.82 -1.00997 -2.04968 0
M  V30 23051 C 2106.03 -3.44485 0.559566 0
M  V30 23052 C 2107.38 -4.21494 0.512635 0
M  V30 23053 O 2108.4 -3.52713 0.497155 0
M  V30 23054 O 2107.26 -5.44086 0.513112 0
M  V30 23055 H 2104.35 -0.825923 0.0421827 0
M  V30 23056 H 2106.9 -1.48515 0.821064 0
M  V30 23057 H 2105.67 -3.57287 1.59567 0
M  V30 23058 H 2105.3 -3.97536 -0.0714489 0
M  V30 23059 N 2106.29 -0.489897 -1.49792 0
M  V30 23060 C 2107.52 0.0578875 -2.07319 0
M  V30 23061 C 2107.94 1.31067 -1.34919 0
M  V30 23062 O 2107.3 1.76775 -0.402515 0
M  V30 23063 C 2107.35 0.305835 -3.59301 0
M  V30 23064 O 2106.45 1.38274 -3.88528 0
M  V30 23065 H 2105.79 -0.021301 -0.663658 0
M  V30 23066 H 2108.32 -0.686335 -1.92745 0
M  V30 23067 H 2108.33 0.540697 -4.04401 0
M  V30 23068 H 2107.01 -0.609525 -4.11409 0
M  V30 23069 H 2105.59 1.13371 -3.55248 0
M  V30 23070 N 2107.77 1.56011 -0.223262 0
M  V30 23071 C 2109.02 1.97523 0.40834 0
M  V30 23072 C 2109.33 1.11401 1.60777 0
M  V30 23073 O 2110.54 1.4282 2.309 0
M  V30 23074 C 2108.99 3.51393 0.777885 0
M  V30 23075 C 2108.6 4.46221 -0.398826 0
M  V30 23076 C 2110.35 4.01614 1.37499 0
M  V30 23077 C 2108.25 5.914 -0.00675168 0
M  V30 23078 H 2107.18 0.737614 0.156337 0
M  V30 23079 H 2109.83 1.80693 -0.319744 0
M  V30 23080 H 2108.22 3.6383 1.56344 0
M  V30 23081 H 2109.39 4.45532 -1.17635 0
M  V30 23082 H 2107.71 4.06351 -0.909284 0
M  V30 23083 H 2110.3 5.0758 1.68127 0
M  V30 23084 H 2110.65 3.47566 2.29137 0
M  V30 23085 H 2111.18 3.92406 0.65284 0
M  V30 23086 H 2107.92 6.49435 -0.889654 0
M  V30 23087 H 2107.44 5.95279 0.735052 0
M  V30 23088 H 2109.12 6.4564 0.419339 0
M  V30 23089 N 2109.25 -0.0501116 1.5752 0
M  V30 23090 C 2110.18 -1.08434 2.01928 0
M  V30 23091 C 2111.19 -1.33718 0.928613 0
M  V30 23092 O 2112.38 -1.31576 1.20623 0
M  V30 23093 C 2109.48 -2.43065 2.36162 0
M  V30 23094 C 2108.66 -2.37433 3.67347 0
M  V30 23095 C 2107.71 -3.54345 3.89007 0
M  V30 23096 O 2106.74 -3.3479 4.60331 0
M  V30 23097 N 2107.94 -4.75475 3.33022 0
M  V30 23098 H 2110.71 -0.705995 2.91266 0
M  V30 23099 H 2108.27 -0.238421 1.60135 0
M  V30 23100 H 2110.26 -3.19959 2.47807 0
M  V30 23101 H 2108.83 -2.72821 1.52603 0
M  V30 23102 H 2108.05 -1.45778 3.66254 0
M  V30 23103 H 2109.34 -2.30792 4.53445 0
M  V30 23104 H 2108.74 -4.94264 2.75171 0
M  V30 23105 H 2107.29 -5.49806 3.50081 0
M  V30 23106 N 2110.73 -1.54276 -0.321972 0
M  V30 23107 C 2111.67 -1.83772 -1.3963 0
M  V30 23108 C 2112.64 -0.684941 -1.5132 0
M  V30 23109 O 2113.83 -0.931526 -1.66515 0
M  V30 23110 C 2110.97 -2.07212 -2.75966 0
M  V30 23111 C 2110.08 -3.34892 -2.72895 0
M  V30 23112 C 2109.22 -3.48284 -4.01088 0
M  V30 23113 C 2108.26 -4.69833 -3.9233 0
M  V30 23114 N 2107.39 -4.80144 -5.12256 0
M  V30 23115 H 2112.23 -2.75425 -1.13777 0
M  V30 23116 H 2109.77 -1.36401 -0.550737 0
M  V30 23117 H 2111.73 -2.18794 -3.55225 0
M  V30 23118 H 2110.36 -1.18848 -3.00125 0
M  V30 23119 H 2109.41 -3.32039 -1.85618 0
M  V30 23120 H 2110.72 -4.2426 -2.62307 0
M  V30 23121 H 2109.88 -3.59417 -4.88778 0
M  V30 23122 H 2108.61 -2.57011 -4.14483 0
M  V30 23123 H 2107.62 -4.58755 -3.03024 0
M  V30 23124 H 2108.84 -5.62492 -3.80498 0
M  V30 23125 H 2106.79 -3.91787 -5.26155 0
M  V30 23126 H 2106.71 -5.6348 -5.0401 0
M  V30 23127 H 2107.98 -4.9561 -6.01657 0
M  V30 23128 N 2112.2 0.584116 -1.46376 0
M  V30 23129 C 2113.13 1.70354 -1.59693 0
M  V30 23130 C 2114.12 1.64113 -0.447325 0
M  V30 23131 O 2115.3 1.82151 -0.673394 0
M  V30 23132 C 2112.43 3.08993 -1.58558 0
M  V30 23133 C 2111.38 3.30064 -2.72473 0
M  V30 23134 C 2110.71 4.69216 -2.56399 0
M  V30 23135 C 2112.01 3.18035 -4.14308 0
M  V30 23136 H 2113.7 1.59465 -2.53399 0
M  V30 23137 H 2111.25 0.765749 -1.21952 0
M  V30 23138 H 2113.2 3.87126 -1.66468 0
M  V30 23139 H 2111.93 3.20778 -0.613949 0
M  V30 23140 H 2110.59 2.5433 -2.64029 0
M  V30 23141 H 2110.23 4.77764 -1.57323 0
M  V30 23142 H 2109.93 4.84267 -3.32805 0
M  V30 23143 H 2111.46 5.49519 -2.66198 0
M  V30 23144 H 2112.87 3.86014 -4.2387 0
M  V30 23145 H 2111.27 3.44608 -4.91289 0
M  V30 23146 H 2112.34 2.15135 -4.34563 0
M  V30 23147 N 2113.68 1.34058 0.828631 0
M  V30 23148 C 2114.61 1.278 1.95421 0
M  V30 23149 C 2115.59 0.156548 1.69378 0
M  V30 23150 O 2116.78 0.347987 1.91057 0
M  V30 23151 C 2113.91 1.02688 3.31772 0
M  V30 23152 C 2112.86 2.11238 3.7224 0
M  V30 23153 C 2112.19 1.71324 5.0651 0
M  V30 23154 C 2113.49 3.53014 3.84939 0
M  V30 23155 H 2115.18 2.21977 2.00914 0
M  V30 23156 H 2112.73 1.06859 0.965253 0
M  V30 23157 H 2114.68 0.969571 4.10094 0
M  V30 23158 H 2113.41 0.0495214 3.26562 0
M  V30 23159 H 2112.07 2.16029 2.96188 0
M  V30 23160 H 2111.71 0.722632 4.97782 0
M  V30 23161 H 2111.41 2.43972 5.34557 0
M  V30 23162 H 2112.94 1.67077 5.87297 0
M  V30 23163 H 2114.35 3.50667 4.53547 0
M  V30 23164 H 2112.75 4.24235 4.24434 0
M  V30 23165 H 2113.82 3.90772 2.87098 0
M  V30 23166 N 2115.16 -1.04814 1.17694 0
M  V30 23167 C 2116.11 -2.14759 0.893388 0
M  V30 23168 C 2117.1 -1.68792 -0.143446 0
M  V30 23169 O 2118.31 -1.8 0.00399528 0
M  V30 23170 H 2114.68 -0.701322 0.271388 0
M  V30 23171 H 2116.66 -2.35876 1.8277 0
M  V30 23172 C 2115.4 -3.45064 0.427351 0
M  V30 23173 H 2114.73 -3.80838 1.21665 0
M  V30 23174 H 2116.17 -4.23153 0.267873 0
M  V30 23175 C 2114.63 -3.25854 -0.855618 0
M  V30 23176 O 2115.16 -3.5276 -1.92155 0
M  V30 23177 N 2113.36 -2.7922 -0.805269 0
M  V30 23178 H 2112.91 -2.57524 0.0623836 0
M  V30 23179 H 2112.87 -2.66747 -1.66413 0
M  V30 23180 N 2116.64 -0.977779 -1.23601 0
M  V30 23181 C 2117.55 -0.524039 -2.28672 0
M  V30 23182 C 2118.57 0.419894 -1.68858 0
M  V30 23183 O 2119.74 0.290458 -1.99295 0
M  V30 23184 C 2116.81 0.16886 -3.46289 0
M  V30 23185 C 2115.87 -0.81615 -4.21471 0
M  V30 23186 C 2115.1 -0.156223 -5.33471 0
M  V30 23187 O 2115.32 1.05329 -5.60591 0
M  V30 23188 O 2114.26 -0.853473 -5.95818 0
M  V30 23189 H 2118.08 -1.39778 -2.69622 0
M  V30 23190 H 2115.67 -0.745288 -1.29483 0
M  V30 23191 H 2117.55 0.557659 -4.17694 0
M  V30 23192 H 2116.23 1.0174 -3.07296 0
M  V30 23193 H 2115.13 -1.2556 -3.524 0
M  V30 23194 H 2116.47 -1.63342 -4.64306 0
M  V30 23195 N 2118.12 1.38658 -0.749111 0
M  V30 23196 C 2119.53 1.53804 -0.426214 0
M  V30 23197 C 2119.73 1.7129 1.06122 0
M  V30 23198 O 2118.79 1.72138 1.84729 0
M  V30 23199 C 2120.1 2.7477 -1.22155 0
M  V30 23200 C 2121.65 2.88616 -1.21118 0
M  V30 23201 C 2122.13 4.12538 -1.98939 0
M  V30 23202 N 2123.62 4.19606 -1.96176 0
M  V30 23203 C 2124.35 5.14474 -2.53188 0
M  V30 23204 N 2123.85 6.15043 -3.18895 0
M  V30 23205 N 2125.64 5.06792 -2.43143 0
M  V30 23206 H 2117.79 1.25557 -1.71316 0
M  V30 23207 H 2120.05 0.609604 -0.726008 0
M  V30 23208 H 2119.76 2.68239 -2.27466 0
M  V30 23209 H 2119.63 3.67832 -0.835424 0
M  V30 23210 H 2122.02 2.94632 -0.166149 0
M  V30 23211 H 2122.1 1.96577 -1.63679 0
M  V30 23212 H 2121.75 4.07284 -3.03451 0
M  V30 23213 H 2121.68 5.03648 -1.53775 0
M  V30 23214 H 2124.17 3.47577 -1.4832 0
M  V30 23215 H 2124.48 6.83917 -3.59829 0
M  V30 23216 H 2122.83 6.15389 -3.22989 0
M  V30 23217 H 2126.02 4.27162 -1.91442 0
M  V30 23218 H 2126.19 5.80546 -2.87871 0
M  V30 23219 N 2119.6 0.497834 1.49531 0
M  V30 23220 C 2120.82 -0.0468921 2.07347 0
M  V30 23221 C 2121.25 -1.30349 1.35612 0
M  V30 23222 O 2120.6 -1.76559 0.411884 0
M  V30 23223 C 2120.65 -0.286776 3.59458 0
M  V30 23224 O 2119.76 -1.36212 3.89256 0
M  V30 23225 H 2119.1 0.0248202 0.663536 0
M  V30 23226 H 2121.63 0.696547 1.92378 0
M  V30 23227 H 2121.64 -0.519243 4.04682 0
M  V30 23228 H 2120.31 0.631334 4.1108 0
M  V30 23229 H 2118.89 -1.11485 3.55845 0
M  V30 23230 N 2121.07 -1.5589 0.231532 0
M  V30 23231 C 2122 -2.23713 -0.66894 0
M  V30 23232 C 2122.98 -1.21219 -1.19332 0
M  V30 23233 O 2124.17 -1.49831 -1.23549 0
M  V30 23234 C 2121.3 -2.92476 -1.87284 0
M  V30 23235 C 2120.25 -4.01527 -1.48189 0
M  V30 23236 C 2119.58 -4.57637 -2.76537 0
M  V30 23237 C 2120.88 -5.18057 -0.664415 0
M  V30 23238 H 2122.57 -2.99221 -0.103437 0
M  V30 23239 H 2120.12 -1.43919 -0.0483103 0
M  V30 23240 H 2122.07 -3.38617 -2.50831 0
M  V30 23241 H 2120.8 -2.14431 -2.46347 0
M  V30 23242 H 2119.46 -3.56131 -0.869833 0
M  V30 23243 H 2119.1 -3.7631 -3.33766 0
M  V30 23244 H 2118.8 -5.31242 -2.51108 0
M  V30 23245 H 2120.33 -5.06503 -3.41009 0
M  V30 23246 H 2121.74 -5.60519 -1.20382 0
M  V30 23247 H 2120.14 -5.97956 -0.506811 0
M  V30 23248 H 2121.21 -4.83798 0.326792 0
M  V30 23249 N 2122.55 0.0417572 -1.57545 0
M  V30 23250 C 2123.8 0.7351 -1.88686 0
M  V30 23251 C 2124.13 1.76032 -0.827216 0
M  V30 23252 O 2123.38 1.94931 0.173363 0
M  V30 23253 C 2123.68 1.45244 -3.26556 0
M  V30 23254 C 2123.35 0.56439 -4.47354 0
M  V30 23255 C 2122.01 0.319756 -4.80136 0
M  V30 23256 C 2124.36 -0.0495197 -5.21176 0
M  V30 23257 C 2121.69 -0.547773 -5.84137 0
M  V30 23258 C 2124.04 -0.904676 -6.26098 0
M  V30 23259 C 2122.7 -1.15889 -6.57363 0
M  V30 23260 H 2121.97 0.268992 -0.690452 0
M  V30 23261 H 2124.62 -0.00478987 -1.91499 0
M  V30 23262 H 2122.93 2.26532 -3.19673 0
M  V30 23263 H 2124.62 1.99422 -3.47896 0
M  V30 23264 H 2121.21 0.765207 -4.21714 0
M  V30 23265 H 2125.4 0.126537 -4.96139 0
M  V30 23266 H 2120.65 -0.753169 -6.06743 0
M  V30 23267 H 2124.83 -1.38695 -6.82449 0
M  V30 23268 H 2122.45 -1.83286 -7.37774 0
M  V30 23269 N 2124.03 1.54445 0.313786 0
M  V30 23270 C 2125.45 1.45373 0.658707 0
M  V30 23271 C 2125.65 0.634528 1.91248 0
M  V30 23272 O 2124.7 0.137176 2.52127 0
M  V30 23273 C 2126.01 2.89201 0.823608 0
M  V30 23274 C 2127.56 2.99164 0.92032 0
M  V30 23275 C 2128.04 4.44162 1.11732 0
M  V30 23276 N 2129.53 4.47817 1.18382 0
M  V30 23277 C 2130.26 5.57177 1.35431 0
M  V30 23278 N 2129.76 6.76486 1.4946 0
M  V30 23279 N 2131.55 5.44842 1.38217 0
M  V30 23280 H 2123.7 2.06182 -0.510155 0
M  V30 23281 H 2125.97 0.933263 -0.166508 0
M  V30 23282 H 2125.67 3.5169 -0.0265797 0
M  V30 23283 H 2125.55 3.35881 1.7165 0
M  V30 23284 H 2127.93 2.36797 1.761 0
M  V30 23285 H 2128.01 2.558 0.00368975 0
M  V30 23286 H 2127.66 5.0712 0.281448 0
M  V30 23287 H 2127.59 4.85145 2.04797 0
M  V30 23288 H 2130.08 3.61855 1.08945 0
M  V30 23289 H 2130.39 7.55589 1.62188 0
M  V30 23290 H 2128.74 6.79376 1.46539 0
M  V30 23291 H 2131.93 4.50582 1.2686 0
M  V30 23292 H 2132.1 6.30122 1.51161 0
M  V30 23293 N 2125.51 -0.576345 1.46683 0
M  V30 23294 C 2126.44 -1.69965 1.53768 0
M  V30 23295 C 2127.45 -1.57142 0.425462 0
M  V30 23296 O 2128.64 -1.6445 0.694142 0
M  V30 23297 C 2125.74 -3.08273 1.40788 0
M  V30 23298 C 2124.91 -3.47036 2.66242 0
M  V30 23299 C 2123.97 -4.6443 2.47369 0
M  V30 23300 O 2123 -4.69971 3.21117 0
M  V30 23301 N 2124.2 -5.59714 1.53948 0
M  V30 23302 H 2126.97 -1.6434 2.50624 0
M  V30 23303 H 2124.53 -0.762495 1.4282 0
M  V30 23304 H 2126.52 -3.8461 1.25925 0
M  V30 23305 H 2125.09 -3.0823 0.520883 0
M  V30 23306 H 2124.31 -2.6034 2.96001 0
M  V30 23307 H 2125.6 -3.69703 3.49567 0
M  V30 23308 H 2125 -5.57979 0.931464 0
M  V30 23309 H 2123.55 -6.35456 1.45046 0
M  V30 23310 N 2126.99 -1.34495 -0.82151 0
M  V30 23311 C 2127.95 -1.2608 -1.91407 0
M  V30 23312 C 2128.95 -0.175671 -1.59838 0
M  V30 23313 O 2130.14 -0.428389 -1.6885 0
M  V30 23314 C 2127.27 -0.9469 -3.27485 0
M  V30 23315 H 2128.46 -2.23212 -2.00291 0
M  V30 23316 H 2126.02 -1.18804 -1.01565 0
M  V30 23317 H 2126.75 0.0211878 -3.24293 0
M  V30 23318 H 2126.54 -1.73181 -3.51782 0
M  V30 23319 H 2128.03 -0.913228 -4.07492 0
M  V30 23320 N 2128.46 1.04188 -1.18248 0
M  V30 23321 C 2129.71 1.76764 -0.971464 0
M  V30 23322 C 2130.03 1.89102 0.49997 0
M  V30 23323 O 2131.23 2.58519 0.829468 0
M  V30 23324 C 2129.69 3.17801 -1.68909 0
M  V30 23325 C 2129.3 3.1356 -3.19975 0
M  V30 23326 C 2131.04 3.94763 -1.56084 0
M  V30 23327 C 2128.95 4.49449 -3.84382 0
M  V30 23328 H 2127.88 0.662591 -0.359847 0
M  V30 23329 H 2130.53 1.16702 -1.41608 0
M  V30 23330 H 2128.91 3.78252 -1.17224 0
M  V30 23331 H 2130.08 2.62568 -3.78675 0
M  V30 23332 H 2128.4 2.50097 -3.32927 0
M  V30 23333 H 2131 4.95253 -2.01566 0
M  V30 23334 H 2131.34 4.13128 -0.512919 0
M  V30 23335 H 2131.87 3.40885 -2.05043 0
M  V30 23336 H 2128.61 4.36289 -4.89216 0
M  V30 23337 H 2128.13 5.00549 -3.3047 0
M  V30 23338 H 2129.81 5.18367 -3.87175 0
M  V30 23339 N 2129.94 0.98432 1.23081 0
M  V30 23340 C 2131.17 0.673202 1.9617 0
M  V30 23341 C 2131.59 -0.753958 1.72328 0
M  V30 23342 O 2130.95 -1.51414 0.997167 0
M  V30 23343 C 2131 0.974266 3.47189 0
M  V30 23344 O 2130.1 0.0683695 4.12343 0
M  V30 23345 H 2129.44 0.252801 0.613993 0
M  V30 23346 H 2131.97 1.31898 1.5641 0
M  V30 23347 H 2131.98 0.912577 3.97663 0
M  V30 23348 H 2130.66 2.01426 3.63868 0
M  V30 23349 H 2129.24 0.184805 3.72442 0
M  V30 23350 N 2131.42 -1.38259 0.756453 0
M  V30 23351 C 2132.83 -1.82766 0.381221 0
M  V30 23352 C 2133.18 -1.631 -1.09054 0
M  V30 23353 O 2132.31 -1.13374 -1.84324 0
M  V30 23354 C 2132.9 -3.318 0.685159 0
M  V30 23355 C 2131.46 -3.74644 0.36317 0
M  V30 23356 C 2130.61 -2.60994 0.936868 0
M  V30 23357 H 2133.56 -1.26947 0.952371 0
M  V30 23358 H 2133.58 -3.80483 -0.0356313 0
M  V30 23359 H 2133.09 -3.46082 1.75639 0
M  V30 23360 H 2131.19 -3.65939 -0.701363 0
M  V30 23361 H 2131.31 -4.71305 0.860726 0
M  V30 23362 H 2129.67 -2.52113 0.362062 0
M  V30 23363 H 2130.45 -2.78075 2.01319 0
M  V30 23364 N 2132.9 -0.505757 -1.49264 0
M  V30 23365 C 2134.12 0.0358953 -2.07369 0
M  V30 23366 C 2134.55 1.29628 -1.36302 0
M  V30 23367 O 2133.91 1.76338 -0.421242 0
M  V30 23368 C 2133.95 0.267709 -3.59605 0
M  V30 23369 O 2133.06 1.34146 -3.89973 0
M  V30 23370 H 2132.4 -0.0283388 -0.663395 0
M  V30 23371 H 2134.93 -0.70674 -1.92006 0
M  V30 23372 H 2134.94 0.497774 -4.04952 0
M  V30 23373 H 2133.61 -0.653126 -4.1074 0
M  V30 23374 H 2132.19 1.09597 -3.56431 0
M  V30 23375 N 2134.38 1.55765 -0.239796 0
M  V30 23376 C 2135.65 1.90659 0.436876 0
M  V30 23377 C 2136.03 1.1596 1.76398 0
M  V30 23378 O 2135.38 0.274778 2.26842 0
M  V30 23379 C 2135.59 3.43593 0.611939 0
M  V30 23380 C 2136.94 4.1471 0.911065 0
M  V30 23381 O 2137.96 3.49293 0.698064 0
M  V30 23382 O 2136.82 5.30411 1.3163 0
M  V30 23383 H 2133.92 0.793348 0.233511 0
M  V30 23384 H 2136.46 1.67318 -0.283335 0
M  V30 23385 H 2135.23 3.89961 -0.323424 0
M  V30 23386 H 2134.86 3.72773 1.38296 0
M  V30 23387 N 2135.85 -0.0334016 1.57565 0
M  V30 23388 C 2137.27 -0.388971 1.54788 0
M  V30 23389 C 2137.47 -1.76871 0.965337 0
M  V30 23390 O 2136.53 -2.45642 0.584492 0
M  V30 23391 C 2137.84 -0.2948 2.99251 0
M  V30 23392 C 2139.39 -0.372199 3.10779 0
M  V30 23393 C 2139.86 -0.307524 4.56966 0
M  V30 23394 N 2141.35 -0.36645 4.61748 0
M  V30 23395 C 2142.09 -0.339229 5.72396 0
M  V30 23396 N 2141.58 -0.264554 6.92295 0
M  V30 23397 N 2143.38 -0.388638 5.60755 0
M  V30 23398 H 2135.53 0.869581 1.93783 0
M  V30 23399 H 2137.79 0.330231 0.888623 0
M  V30 23400 H 2137.5 0.653177 3.45581 0
M  V30 23401 H 2137.37 -1.09016 3.61103 0
M  V30 23402 H 2139.76 -1.31061 2.64399 0
M  V30 23403 H 2139.84 0.452431 2.51767 0
M  V30 23404 H 2139.48 0.627198 5.04013 0
M  V30 23405 H 2139.41 -1.1502 5.13885 0
M  V30 23406 H 2141.9 -0.426853 3.75482 0
M  V30 23407 H 2142.22 -0.248764 7.724 0
M  V30 23408 H 2140.56 -0.230666 6.94617 0
M  V30 23409 H 2143.75 -0.444937 4.65981 0
M  V30 23410 H 2143.93 -0.363955 6.46977 0
M  V30 23411 N 2137.33 -1.54609 -0.305591 0
M  V30 23412 C 2138.58 -1.73929 -1.04291 0
M  V30 23413 C 2138.91 -0.521093 -1.87078 0
M  V30 23414 O 2138.19 0.481847 -1.88437 0
M  V30 23415 C 2138.47 -3.02557 -1.95272 0
M  V30 23416 C 2138.32 -4.34666 -1.15695 0
M  V30 23417 C 2139.64 -3.27028 -2.94517 0
M  V30 23418 H 2136.76 -0.632835 -0.377741 0
M  V30 23419 H 2139.4 -1.87321 -0.317961 0
M  V30 23420 H 2137.55 -2.91271 -2.57087 0
M  V30 23421 H 2139.22 -4.57863 -0.562028 0
M  V30 23422 H 2137.47 -4.31359 -0.459568 0
M  V30 23423 H 2138.14 -5.20925 -1.82595 0
M  V30 23424 H 2140.61 -3.37894 -2.42831 0
M  V30 23425 H 2139.49 -4.18355 -3.55346 0
M  V30 23426 H 2139.75 -2.45106 -3.67934 0
M  V30 23427 N 2138.81 0.568558 -1.46987 0
M  V30 23428 C 2139.76 1.67655 -1.5862 0
M  V30 23429 C 2140.73 1.60444 -0.429761 0
M  V30 23430 O 2141.91 1.79446 -0.648355 0
M  V30 23431 C 2139.05 3.05988 -1.59578 0
M  V30 23432 C 2138.17 3.2372 -2.86058 0
M  V30 23433 C 2137.3 4.52385 -2.78427 0
M  V30 23434 C 2136.34 4.63509 -3.99782 0
M  V30 23435 N 2135.48 5.83515 -3.90454 0
M  V30 23436 H 2140.32 1.5705 -2.53257 0
M  V30 23437 H 2137.85 0.765211 -1.2563 0
M  V30 23438 H 2139.81 3.86076 -1.58118 0
M  V30 23439 H 2138.44 3.15456 -0.684628 0
M  V30 23440 H 2137.49 2.37141 -2.97436 0
M  V30 23441 H 2138.81 3.27806 -3.75959 0
M  V30 23442 H 2137.96 5.40718 -2.75152 0
M  V30 23443 H 2136.7 4.5076 -1.86191 0
M  V30 23444 H 2135.7 3.7359 -4.03374 0
M  V30 23445 H 2136.93 4.66902 -4.93132 0
M  V30 23446 H 2134.87 5.82861 -3.01013 0
M  V30 23447 H 2134.79 5.8893 -4.74022 0
M  V30 23448 H 2136.06 6.74241 -3.91177 0
M  V30 23449 N 2140.29 1.34929 0.814366 0
M  V30 23450 C 2141.22 1.29866 1.94055 0
M  V30 23451 C 2142.2 0.174504 1.69203 0
M  V30 23452 O 2143.38 0.368232 1.90677 0
M  V30 23453 C 2140.51 1.06201 3.30664 0
M  V30 23454 C 2139.47 2.15174 3.69978 0
M  V30 23455 C 2138.79 1.76686 5.04664 0
M  V30 23456 C 2140.09 3.57077 3.81174 0
M  V30 23457 H 2141.79 2.24095 1.98549 0
M  V30 23458 H 2139.33 1.07877 0.953865 0
M  V30 23459 H 2141.29 1.01301 4.09043 0
M  V30 23460 H 2140.01 0.0841549 3.26492 0
M  V30 23461 H 2138.67 2.19158 2.9388 0
M  V30 23462 H 2138.32 0.775388 4.96988 0
M  V30 23463 H 2138.02 2.49628 5.3194 0
M  V30 23464 H 2139.54 1.73297 5.85492 0
M  V30 23465 H 2140.96 3.55458 4.49803 0
M  V30 23466 H 2139.35 4.28713 4.19911 0
M  V30 23467 H 2140.42 3.93795 2.82937 0
M  V30 23468 N 2141.77 -1.0356 1.18799 0
M  V30 23469 C 2143.01 -1.76847 0.986484 0
M  V30 23470 C 2143.34 -1.88397 -0.483413 0
M  V30 23471 O 2142.6 -1.39239 -1.37517 0
M  V30 23472 C 2142.9 -3.19959 1.59252 0
M  V30 23473 C 2142.56 -3.28431 3.0894 0
M  V30 23474 C 2141.22 -3.30451 3.49794 0
M  V30 23475 C 2143.58 -3.2812 4.04953 0
M  V30 23476 C 2140.9 -3.29807 4.85226 0
M  V30 23477 C 2143.26 -3.29016 5.40306 0
M  V30 23478 C 2141.92 -3.2933 5.80601 0
M  V30 23479 H 2141.19 -0.647128 0.36098 0
M  V30 23480 H 2143.84 -1.21597 1.47941 0
M  V30 23481 H 2142.14 -3.78243 1.02172 0
M  V30 23482 H 2143.84 -3.75319 1.41197 0
M  V30 23483 H 2140.43 -3.27583 2.76382 0
M  V30 23484 H 2144.61 -3.25746 3.74437 0
M  V30 23485 H 2139.87 -3.2837 5.15736 0
M  V30 23486 H 2144.04 -3.27726 6.14466 0
M  V30 23487 H 2141.67 -3.28585 6.85519 0
M  V30 23488 N 2143.25 -0.990834 -1.22557 0
M  V30 23489 C 2144.66 -0.700966 -1.73042 0
M  V30 23490 C 2145.01 0.782283 -1.7993 0
M  V30 23491 O 2144.13 1.61158 -1.4442 0
M  V30 23492 C 2144.73 -1.26574 -3.14268 0
M  V30 23493 C 2143.29 -1.0253 -3.62167 0
M  V30 23494 C 2142.43 -1.38718 -2.4011 0
M  V30 23495 H 2145.38 -1.16344 -1.07934 0
M  V30 23496 H 2145.41 -0.643298 -3.75023 0
M  V30 23497 H 2144.92 -2.34527 -3.09222 0
M  V30 23498 H 2143.02 0.0376973 -3.72581 0
M  V30 23499 H 2143.13 -1.68722 -4.48408 0
M  V30 23500 H 2141.5 -0.805751 -2.41619 0
M  V30 23501 H 2142.28 -2.47671 -2.37727 0
M  V30 23502 N 2144.72 1.37856 -0.763775 0
M  V30 23503 C 2145.67 2.27693 -0.118367 0
M  V30 23504 C 2146.66 1.45707 0.682513 0
M  V30 23505 O 2147.85 1.68342 0.546795 0
M  V30 23506 C 2144.98 3.34642 0.766129 0
M  V30 23507 C 2144.06 4.24079 -0.0421497 0
M  V30 23508 N 2144.46 4.94053 -1.08375 0
M  V30 23509 C 2142.75 4.45624 0.183082 0
M  V30 23510 C 2143.45 5.6001 -1.57365 0
M  V30 23511 N 2142.43 5.36311 -0.887185 0
M  V30 23512 H 2146.23 2.79262 -0.915967 0
M  V30 23513 H 2143.75 1.50879 -0.600774 0
M  V30 23514 H 2145.74 3.97901 1.24421 0
M  V30 23515 H 2144.4 2.8463 1.56256 0
M  V30 23516 H 2145.41 4.96726 -1.46575 0
M  V30 23517 H 2142.09 4.065 0.952055 0
M  V30 23518 H 2143.48 6.25958 -2.44183 0
M  V30 23519 N 2146.2 0.513665 1.48994 0
M  V30 23520 C 2147.62 0.170439 1.58687 0
M  V30 23521 C 2147.82 -1.32564 1.51754 0
M  V30 23522 O 2146.87 -2.10262 1.39807 0
M  V30 23523 C 2148.19 0.758488 2.90977 0
M  V30 23524 C 2149.73 0.725739 3.0447 0
M  V30 23525 C 2150.21 1.29207 4.39397 0
M  V30 23526 N 2151.7 1.25333 4.45922 0
M  V30 23527 C 2152.44 1.66159 5.48798 0
M  V30 23528 N 2151.93 2.14638 6.58713 0
M  V30 23529 N 2153.72 1.57496 5.39584 0
M  V30 23530 H 2145.88 1.48619 1.51744 0
M  V30 23531 H 2148.14 0.617216 0.719548 0
M  V30 23532 H 2147.84 1.8082 3.01657 0
M  V30 23533 H 2147.72 0.226166 3.76521 0
M  V30 23534 H 2150.11 -0.315169 2.93412 0
M  V30 23535 H 2150.19 1.29535 2.20577 0
M  V30 23536 H 2149.83 2.33183 4.51207 0
M  V30 23537 H 2149.76 0.69829 5.2195 0
M  V30 23538 H 2152.25 0.89826 3.67069 0
M  V30 23539 H 2152.56 2.43827 7.33327 0
M  V30 23540 H 2150.91 2.18621 6.5972 0
M  V30 23541 H 2154.1 1.19432 4.52608 0
M  V30 23542 H 2154.27 1.89636 6.19631 0
M  V30 23543 N 2147.68 -1.55636 0.248053 0
M  V30 23544 C 2148.63 -2.22824 -0.667239 0
M  V30 23545 C 2149.62 -1.2162 -1.17919 0
M  V30 23546 O 2150.83 -1.39629 -1.13595 0
M  V30 23547 H 2147.2 -0.714778 -0.23366 0
M  V30 23548 H 2149.17 -2.983 -0.0774218 0
M  V30 23549 C 2147.92 -2.9423 -1.85267 0
M  V30 23550 H 2147.25 -3.71878 -1.46789 0
M  V30 23551 H 2148.69 -3.44604 -2.47031 0
M  V30 23552 C 2147.14 -1.98169 -2.72453 0
M  V30 23553 O 2147.67 -1.5155 -3.72016 0
M  V30 23554 N 2145.88 -1.65246 -2.39044 0
M  V30 23555 H 2145.43 -2.03352 -1.58132 0
M  V30 23556 H 2145.39 -1.01239 -2.97654 0
M  V30 23557 N 2149.16 0.0250451 -1.5758 0
M  V30 23558 C 2150.38 0.730408 -1.94113 0
M  V30 23559 C 2150.81 1.67882 -0.848362 0
M  V30 23560 O 2150.17 1.80242 0.195596 0
M  V30 23561 C 2150.21 1.46014 -3.29715 0
M  V30 23562 O 2149.32 2.57351 -3.22249 0
M  V30 23563 H 2148.66 0.196157 -0.634365 0
M  V30 23564 H 2151.19 -0.0206802 -2.0459 0
M  V30 23565 H 2151.2 1.82917 -3.64699 0
M  V30 23566 H 2149.87 0.764593 -4.08811 0
M  V30 23567 H 2148.45 2.22961 -2.98903 0
M  V30 23568 N 2150.64 1.54769 0.297388 0
M  V30 23569 C 2151.86 1.78543 1.05533 0
M  V30 23570 C 2152.29 0.54501 1.80031 0
M  V30 23571 O 2151.64 -0.504585 1.74137 0
M  V30 23572 C 2151.69 2.99469 2.00874 0
M  V30 23573 O 2150.8 2.72847 3.09238 0
M  V30 23574 H 2150.14 0.590843 0.302985 0
M  V30 23575 H 2152.67 2.0186 0.333711 0
M  V30 23576 H 2152.68 3.27538 2.43275 0
M  V30 23577 H 2151.35 3.8941 1.46058 0
M  V30 23578 H 2149.93 2.55805 2.71327 0
M  V30 23579 N 2152.11 -0.560755 1.47286 0
M  V30 23580 C 2153.06 -1.66812 1.59507 0
M  V30 23581 C 2154.03 -1.60214 0.438263 0
M  V30 23582 O 2155.22 -1.791 0.657862 0
M  V30 23583 C 2152.36 -3.05138 1.61199 0
M  V30 23584 C 2151.47 -3.22198 2.87771 0
M  V30 23585 C 2150.6 -4.50902 2.80822 0
M  V30 23586 C 2149.64 -4.61382 4.02235 0
M  V30 23587 N 2148.78 -5.81436 3.93543 0
M  V30 23588 H 2153.62 -1.55705 2.54087 0
M  V30 23589 H 2151.16 -0.758538 1.26034 0
M  V30 23590 H 2153.11 -3.85232 1.60163 0
M  V30 23591 H 2151.74 -3.15089 0.701347 0
M  V30 23592 H 2150.8 -2.3556 2.9869 0
M  V30 23593 H 2152.11 -3.25807 3.77692 0
M  V30 23594 H 2151.26 -5.39251 2.78016 0
M  V30 23595 H 2150 -4.49766 1.88578 0
M  V30 23596 H 2149.01 -3.71445 4.0535 0
M  V30 23597 H 2150.23 -4.6428 4.95601 0
M  V30 23598 H 2148.18 -5.81257 3.041 0
M  V30 23599 H 2148.09 -5.86408 4.77139 0
M  V30 23600 H 2149.36 -6.72157 3.94747 0
M  V30 23601 N 2153.59 -1.35359 -0.807199 0
M  V30 23602 C 2154.83 -1.29962 -1.57763 0
M  V30 23603 C 2155.2 0.124572 -1.91595 0
M  V30 23604 O 2156.4 0.302903 -2.67088 0
M  V30 23605 C 2154.67 -2.18018 -2.83202 0
M  V30 23606 S 2156.23 -2.3013 -3.73611 0
M  V30 23607 H 2153.04 -0.461874 -0.540549 0
M  V30 23608 H 2155.65 -1.70743 -0.952207 0
M  V30 23609 H 2154.35 -3.20473 -2.56369 0
M  V30 23610 H 2153.88 -1.78191 -3.5073 0
M  V30 23611 H 2155.9 -1.48567 -4.73437 0
M  V30 23612 N 2155.07 1.02928 -1.19346 0
M  V30 23613 C 2156.02 2.11197 -0.930836 0
M  V30 23614 C 2156.99 1.65557 0.13418 0
M  V30 23615 O 2158.17 1.90798 -0.00787889 0
M  V30 23616 C 2155.31 3.41813 -0.47517 0
M  V30 23617 C 2154.42 4.01002 -1.60691 0
M  V30 23618 C 2153.56 5.19626 -1.10282 0
M  V30 23619 C 2152.6 5.7087 -2.20848 0
M  V30 23620 N 2151.74 6.80769 -1.71749 0
M  V30 23621 H 2156.58 2.32999 -1.85784 0
M  V30 23622 H 2154.11 1.14276 -0.926246 0
M  V30 23623 H 2156.07 4.16756 -0.192384 0
M  V30 23624 H 2154.7 3.20123 0.414844 0
M  V30 23625 H 2153.75 3.23276 -2.00491 0
M  V30 23626 H 2155.06 4.3505 -2.43994 0
M  V30 23627 H 2154.22 6.01727 -0.775236 0
M  V30 23628 H 2152.96 4.87112 -0.239508 0
M  V30 23629 H 2151.96 4.87383 -2.54437 0
M  V30 23630 H 2153.19 6.05424 -3.07633 0
M  V30 23631 H 2151.13 6.50108 -0.877253 0
M  V30 23632 H 2151.05 7.13942 -2.48642 0
M  V30 23633 H 2152.32 7.66466 -1.41953 0
M  V30 23634 N 2156.55 0.997319 1.2203 0
M  V30 23635 C 2157.77 0.69397 1.95445 0
M  V30 23636 C 2158.2 -0.735638 1.73118 0
M  V30 23637 O 2157.56 -1.50348 1.01317 0
M  V30 23638 C 2157.6 1.01104 3.46136 0
M  V30 23639 O 2156.71 0.1121 4.12248 0
M  V30 23640 H 2156.05 0.259299 0.611277 0
M  V30 23641 H 2158.58 1.33549 1.55003 0
M  V30 23642 H 2158.59 0.954704 3.96673 0
M  V30 23643 H 2157.26 2.05274 3.61712 0
M  V30 23644 H 2155.84 0.224297 3.72225 0
M  V30 23645 N 2158.03 -1.37449 0.771075 0
M  V30 23646 C 2158.97 -2.30278 0.155078 0
M  V30 23647 C 2159.94 -1.51065 -0.690547 0
M  V30 23648 O 2161.13 -1.79637 -0.643049 0
M  V30 23649 C 2158.27 -3.37536 -0.718578 0
M  V30 23650 C 2157.38 -4.31761 0.143579 0
M  V30 23651 C 2156.52 -5.26094 -0.734719 0
M  V30 23652 C 2155.56 -6.11962 0.130013 0
M  V30 23653 N 2154.69 -6.98539 -0.706225 0
M  V30 23654 H 2159.53 -2.82377 0.952224 0
M  V30 23655 H 2157.07 -1.39008 0.481177 0
M  V30 23656 H 2159.03 -3.98349 -1.23991 0
M  V30 23657 H 2157.66 -2.86804 -1.48133 0
M  V30 23658 H 2156.71 -3.7226 0.782718 0
M  V30 23659 H 2158.02 -4.92169 0.81064 0
M  V30 23660 H 2157.18 -5.92109 -1.32257 0
M  V30 23661 H 2155.91 -4.66096 -1.43546 0
M  V30 23662 H 2154.92 -5.44927 0.730399 0
M  V30 23663 H 2156.14 -6.74032 0.82808 0
M  V30 23664 H 2154.09 -6.4107 -1.3916 0
M  V30 23665 H 2154.01 -7.55938 -0.0964474 0
M  V30 23666 H 2155.28 -7.68944 -1.27849 0
M  V30 23667 N 2159.5 -0.52156 -1.4872 0
M  V30 23668 C 2160.92 -0.0789475 -1.86533 0
M  V30 23669 C 2161.27 1.34125 -1.43196 0
M  V30 23670 O 2160.39 2.00307 -0.818913 0
M  V30 23671 C 2160.99 -0.136494 -3.38525 0
M  V30 23672 C 2159.55 0.250879 -3.75563 0
M  V30 23673 C 2158.69 -0.499991 -2.72755 0
M  V30 23674 H 2161.64 -0.733264 -1.40744 0
M  V30 23675 H 2161.66 0.653868 -3.7484 0
M  V30 23676 H 2161.18 -1.17024 -3.70036 0
M  V30 23677 H 2159.28 1.28709 -3.49664 0
M  V30 23678 H 2159.39 -0.0828724 -4.79028 0
M  V30 23679 H 2157.75 0.0527232 -2.54645 0
M  V30 23680 H 2158.54 -1.53421 -3.0711 0
M  V30 23681 N 2160.98 1.55502 -0.256304 0
M  V30 23682 C 2161.91 2.19122 0.672174 0
M  V30 23683 C 2162.93 1.17029 1.13172 0
M  V30 23684 O 2164.12 1.43849 1.05687 0
M  V30 23685 C 2161.22 2.78814 1.92655 0
M  V30 23686 C 2160.39 4.06417 1.6169 0
M  V30 23687 C 2159.45 4.50337 2.72182 0
M  V30 23688 O 2158.47 5.16515 2.39167 0
M  V30 23689 N 2159.68 4.18905 4.01869 0
M  V30 23690 H 2162.44 2.99428 0.127769 0
M  V30 23691 H 2160 1.61719 -0.0766386 0
M  V30 23692 H 2161.99 3.05149 2.65831 0
M  V30 23693 H 2160.56 2.02611 2.38049 0
M  V30 23694 H 2159.78 3.87571 0.719867 0
M  V30 23695 H 2161.07 4.89593 1.38479 0
M  V30 23696 H 2160.47 3.65795 4.31521 0
M  V30 23697 H 2159.03 4.50054 4.71481 0
M  V30 23698 N 2162.46 -0.0166879 1.57591 0
M  V30 23699 C 2163.71 -0.704094 1.89012 0
M  V30 23700 C 2164.02 -1.75854 0.856437 0
M  V30 23701 O 2165.23 -2.4994 1.06029 0
M  V30 23702 C 2163.68 -1.30343 3.35468 0
M  V30 23703 C 2163.29 -0.284687 4.47095 0
M  V30 23704 C 2165.04 -1.96999 3.76021 0
M  V30 23705 C 2162.94 -0.893068 5.84618 0
M  V30 23706 H 2161.87 -0.266736 0.705243 0
M  V30 23707 H 2164.52 0.0411208 1.83454 0
M  V30 23708 H 2162.91 -2.09876 3.3581 0
M  V30 23709 H 2164.08 0.484835 4.58242 0
M  V30 23710 H 2162.4 0.280487 4.15454 0
M  V30 23711 H 2164.99 -2.43392 4.76093 0
M  V30 23712 H 2165.34 -2.79347 3.0866 0
M  V30 23713 H 2165.87 -1.24224 3.77906 0
M  V30 23714 H 2162.61 -0.108736 6.5541 0
M  V30 23715 H 2162.13 -1.63214 5.77167 0
M  V30 23716 H 2163.81 -1.39672 6.31744 0
M  V30 23717 N 2163.94 -1.54924 -0.289176 0
M  V30 23718 C 2164.9 -1.85935 -1.34017 0
M  V30 23719 C 2165.9 -0.732916 -1.43126 0
M  V30 23720 O 2167.09 -1.00116 -1.42556 0
M  V30 23721 C 2164.22 -2.0502 -2.72359 0
M  V30 23722 H 2165.42 -2.79872 -1.07758 0
M  V30 23723 H 2162.97 -1.47168 -0.526442 0
M  V30 23724 H 2163.7 -1.13412 -3.03823 0
M  V30 23725 H 2163.49 -2.8702 -2.67136 0
M  V30 23726 H 2164.98 -2.30342 -3.48328 0
M  V30 23727 N 2165.42 0.552936 -1.47582 0
M  V30 23728 C 2166.38 1.64175 -1.59936 0
M  V30 23729 C 2167.38 1.5365 -0.474152 0
M  V30 23730 O 2168.57 1.57732 -0.739338 0
M  V30 23731 C 2165.7 3.03732 -1.5479 0
M  V30 23732 H 2166.89 1.54569 -2.56999 0
M  V30 23733 H 2164.45 0.773198 -1.35836 0
M  V30 23734 H 2165.18 3.18866 -0.591183 0
M  V30 23735 H 2164.97 3.12779 -2.36456 0
M  V30 23736 H 2166.46 3.82936 -1.66582 0
M  V30 23737 N 2166.89 1.35785 0.800009 0
M  V30 23738 C 2167.82 1.31917 1.92666 0
M  V30 23739 C 2168.81 0.19244 1.69008 0
M  V30 23740 O 2169.99 0.388435 1.90276 0
M  V30 23741 C 2167.12 1.09703 3.29519 0
M  V30 23742 C 2166.07 2.19086 3.67675 0
M  V30 23743 C 2165.4 1.82029 5.02762 0
M  V30 23744 C 2166.7 3.611 3.77365 0
M  V30 23745 H 2168.39 2.26189 1.96161 0
M  V30 23746 H 2165.94 1.08882 0.94237 0
M  V30 23747 H 2167.89 1.05634 4.07945 0
M  V30 23748 H 2166.62 0.118779 3.26384 0
M  V30 23749 H 2165.28 2.22263 2.91539 0
M  V30 23750 H 2164.92 0.828056 4.96137 0
M  V30 23751 H 2164.62 2.55256 5.29262 0
M  V30 23752 H 2166.15 1.79497 5.83621 0
M  V30 23753 H 2167.56 3.60209 4.46007 0
M  V30 23754 H 2165.96 4.33143 4.1534 0
M  V30 23755 H 2167.03 3.96774 2.78744 0
M  V30 23756 N 2168.37 -1.02294 1.19891 0
M  V30 23757 C 2169.32 -2.107 0.942023 0
M  V30 23758 C 2170.29 -1.65626 -0.125398 0
M  V30 23759 O 2171.47 -1.90792 0.0179973 0
M  V30 23760 C 2168.61 -3.41556 0.493291 0
M  V30 23761 C 2167.73 -4.00144 1.62815 0
M  V30 23762 C 2166.86 -5.19034 1.13036 0
M  V30 23763 C 2165.9 -5.69691 2.23872 0
M  V30 23764 N 2165.04 -6.79849 1.75357 0
M  V30 23765 H 2169.88 -2.3201 1.87017 0
M  V30 23766 H 2167.42 -1.13784 0.932293 0
M  V30 23767 H 2169.37 -4.16648 0.214483 0
M  V30 23768 H 2168 -3.20339 -0.397861 0
M  V30 23769 H 2167.06 -3.22208 2.02203 0
M  V30 23770 H 2168.37 -4.3375 2.46298 0
M  V30 23771 H 2167.52 -6.01307 0.807136 0
M  V30 23772 H 2166.26 -4.86978 0.265337 0
M  V30 23773 H 2165.27 -4.86027 2.57018 0
M  V30 23774 H 2166.49 -6.03784 3.1084 0
M  V30 23775 H 2164.44 -6.49634 0.911717 0
M  V30 23776 H 2164.35 -7.12613 2.52425 0
M  V30 23777 H 2165.62 -7.65702 1.46016 0
M  V30 23778 N 2169.85 -1.00378 -1.21499 0
M  V30 23779 C 2170.76 -0.572425 -2.27509 0
M  V30 23780 C 2171.78 0.383982 -1.6971 0
M  V30 23781 O 2172.95 0.248119 -1.99866 0
M  V30 23782 C 2170.02 0.0953686 -3.46569 0
M  V30 23783 C 2169.08 -0.905366 -4.19645 0
M  V30 23784 C 2168.31 -0.269345 -5.3302 0
M  V30 23785 O 2168.53 0.934144 -5.62699 0
M  V30 23786 O 2167.47 -0.979662 -5.93874 0
M  V30 23787 H 2171.29 -1.45465 -2.66596 0
M  V30 23788 H 2168.88 -0.772585 -1.27873 0
M  V30 23789 H 2170.76 0.468934 -4.18783 0
M  V30 23790 H 2169.44 0.951993 -3.09385 0
M  V30 23791 H 2168.34 -1.33007 -3.49657 0
M  V30 23792 H 2169.68 -1.73154 -4.60737 0
M  V30 23793 N 2171.33 1.37038 -0.778354 0
M  V30 23794 C 2172.24 2.33983 -0.170042 0
M  V30 23795 C 2173.25 1.60504 0.671902 0
M  V30 23796 O 2174.43 1.92556 0.590278 0
M  V30 23797 C 2171.5 3.39689 0.693729 0
M  V30 23798 C 2170.56 4.28981 -0.165434 0
M  V30 23799 C 2169.79 5.29638 0.657205 0
M  V30 23800 O 2170.01 5.38041 1.8939 0
M  V30 23801 O 2168.95 6.01867 0.0629255 0
M  V30 23802 H 2172.77 2.87749 -0.97131 0
M  V30 23803 H 2170.36 1.39314 -0.53962 0
M  V30 23804 H 2172.24 4.04348 1.18664 0
M  V30 23805 H 2170.91 2.8824 1.47307 0
M  V30 23806 H 2169.82 3.674 -0.704851 0
M  V30 23807 H 2171.15 4.83752 -0.908023 0
M  V30 23808 N 2172.81 0.529439 1.48441 0
M  V30 23809 C 2174.04 -0.000824174 2.069 0
M  V30 23810 C 2174.45 -1.28195 1.38605 0
M  V30 23811 O 2173.81 -1.76253 0.4734 0
M  V30 23812 C 2173.86 -0.229032 3.60774 0
M  V30 23813 O 2173.58 1.00134 4.26503 0
M  V30 23814 C 2175.08 -0.799736 4.36027 0
M  V30 23815 H 2172.3 0.0332691 0.670175 0
M  V30 23816 H 2174.84 0.734929 1.90838 0
M  V30 23817 H 2173 -0.914832 3.76443 0
M  V30 23818 H 2173.41 0.781737 5.18642 0
M  V30 23819 H 2174.89 -0.908842 5.44467 0
M  V30 23820 H 2175.36 -1.8045 4.00418 0
M  V30 23821 H 2175.97 -0.150518 4.25034 0
M  V30 23822 N 2174.29 -1.55364 0.264547 0
M  V30 23823 C 2175.2 -2.25763 -0.637821 0
M  V30 23824 C 2176.21 -1.27983 -1.17883 0
M  V30 23825 O 2177.39 -1.60897 -1.21136 0
M  V30 23826 C 2174.45 -2.95689 -1.81021 0
M  V30 23827 C 2173.51 -4.08923 -1.30693 0
M  V30 23828 C 2172.75 -4.75505 -2.42344 0
M  V30 23829 O 2172.97 -4.41244 -3.61469 0
M  V30 23830 O 2171.9 -5.63667 -2.111 0
M  V30 23831 H 2175.73 -3.03624 -0.0678471 0
M  V30 23832 H 2173.31 -1.49365 0.0323545 0
M  V30 23833 H 2175.2 -3.39671 -2.49402 0
M  V30 23834 H 2173.87 -2.20754 -2.36747 0
M  V30 23835 H 2172.78 -3.6942 -0.589885 0
M  V30 23836 H 2174.11 -4.85728 -0.795542 0
M  V30 23837 N 2175.76 0.00833021 -1.57598 0
M  V30 23838 C 2176.67 1.01892 -2.11318 0
M  V30 23839 C 2177.69 1.38254 -1.0565 0
M  V30 23840 O 2178.87 1.47155 -1.37505 0
M  V30 23841 C 2175.93 2.29464 -2.59899 0
M  V30 23842 C 2174.99 1.99492 -3.80134 0
M  V30 23843 C 2174.22 3.20981 -4.26388 0
M  V30 23844 O 2174.45 4.3238 -3.72027 0
M  V30 23845 O 2173.38 3.05467 -5.18627 0
M  V30 23846 H 2177.21 0.592299 -2.97868 0
M  V30 23847 H 2174.79 0.226636 -1.47671 0
M  V30 23848 H 2176.67 3.04425 -2.91382 0
M  V30 23849 H 2175.35 2.7138 -1.76449 0
M  V30 23850 H 2174.26 1.22033 -3.53636 0
M  V30 23851 H 2175.59 1.62418 -4.6463 0
M  V30 23852 N 2177.24 1.55075 0.280956 0
M  V30 23853 C 2178.15 1.90495 1.36927 0
M  V30 23854 C 2179.17 0.801283 1.54452 0
M  V30 23855 O 2180.34 1.09962 1.68732 0
M  V30 23856 C 2177.41 2.16264 2.70981 0
M  V30 23857 C 2176.47 3.39872 2.6227 0
M  V30 23858 C 2175.7 3.64402 3.89932 0
M  V30 23859 O 2175.93 2.91582 4.90241 0
M  V30 23860 O 2174.86 4.57934 3.90615 0
M  V30 23861 H 2178.69 2.83123 1.09888 0
M  V30 23862 H 2176.27 1.4152 0.478787 0
M  V30 23863 H 2178.15 2.34299 3.5026 0
M  V30 23864 H 2176.83 1.2682 2.97823 0
M  V30 23865 H 2175.73 3.2718 1.81395 0
M  V30 23866 H 2177.07 4.2951 2.40379 0
M  V30 23867 N 2178.72 -0.545102 1.47873 0
M  V30 23868 C 2179.97 -1.30364 1.55348 0
M  V30 23869 C 2180.3 -1.92948 0.220182 0
M  V30 23870 O 2179.57 -1.78506 -0.772398 0
M  V30 23871 C 2179.86 -2.40454 2.68055 0
M  V30 23872 C 2179.71 -1.8266 4.11042 0
M  V30 23873 C 2181.03 -3.42314 2.76603 0
M  V30 23874 H 2178.15 -0.472628 0.565502 0
M  V30 23875 H 2180.79 -0.608798 1.79982 0
M  V30 23876 H 2178.94 -2.99722 2.47182 0
M  V30 23877 H 2180.61 -1.2756 4.43313 0
M  V30 23878 H 2178.85 -1.1327 4.18751 0
M  V30 23879 H 2179.53 -2.62302 4.85697 0
M  V30 23880 H 2182 -2.92981 2.95468 0
M  V30 23881 H 2180.88 -4.16757 3.57218 0
M  V30 23882 H 2181.14 -4.01923 1.84147 0
M  V30 23883 N 2180.2 -1.36208 -0.792797 0
M  V30 23884 C 2181.13 -1.2612 -1.9138 0
M  V30 23885 C 2182.14 -0.181437 -1.61786 0
M  V30 23886 O 2183.33 -0.435871 -1.73097 0
M  V30 23887 C 2180.43 -0.922489 -3.26103 0
M  V30 23888 C 2179.6 -2.10345 -3.83502 0
M  V30 23889 C 2178.66 -1.73833 -4.96657 0
M  V30 23890 O 2177.69 -2.45879 -5.13354 0
M  V30 23891 N 2178.89 -0.670023 -5.7662 0
M  V30 23892 H 2181.66 -2.22705 -2.00556 0
M  V30 23893 H 2179.22 -1.29557 -0.970902 0
M  V30 23894 H 2181.21 -0.659458 -3.99291 0
M  V30 23895 H 2179.78 -0.0458868 -3.12566 0
M  V30 23896 H 2179 -2.52948 -3.02342 0
M  V30 23897 H 2180.29 -2.89252 -4.18582 0
M  V30 23898 H 2179.69 -0.0717267 -5.65655 0
M  V30 23899 H 2178.24 -0.466808 -6.50126 0
M  V30 23900 N 2181.68 1.01656 -1.20431 0
M  V30 23901 C 2182.95 1.72424 -0.923539 0
M  V30 23902 C 2183.33 2.03324 0.567675 0
M  V30 23903 O 2182.68 1.69774 1.52935 0
M  V30 23904 C 2182.89 2.99208 -1.79654 0
M  V30 23905 C 2184.24 3.72472 -2.03838 0
M  V30 23906 O 2185.26 3.09164 -1.76907 0
M  V30 23907 O 2184.12 4.86314 -2.49321 0
M  V30 23908 H 2181.22 0.751461 -0.345305 0
M  V30 23909 H 2183.76 1.07504 -1.31305 0
M  V30 23910 H 2182.53 2.72695 -2.80629 0
M  V30 23911 H 2182.16 3.71869 -1.4071 0
M  V30 23912 N 2183.15 1.01021 1.20965 0
M  V30 23913 C 2184.38 0.71488 1.94157 0
M  V30 23914 C 2184.8 -0.723393 1.74392 0
M  V30 23915 O 2184.15 -1.48999 1.05383 0
M  V30 23916 C 2184.2 1.033 3.46427 0
M  V30 23917 O 2183.93 2.41477 3.65541 0
M  V30 23918 C 2185.43 0.757815 4.36775 0
M  V30 23919 H 2182.65 0.263024 0.6173 0
M  V30 23920 H 2185.19 1.34966 1.53637 0
M  V30 23921 H 2183.35 0.443729 3.8485 0
M  V30 23922 H 2183.76 2.52743 4.59588 0
M  V30 23923 H 2185.23 1.03053 5.42295 0
M  V30 23924 H 2185.71 -0.308099 4.38118 0
M  V30 23925 H 2186.32 1.32894 4.04004 0
M  V30 23926 N 2184.63 -1.36623 0.78561 0
M  V30 23927 C 2186.05 -1.5262 0.466843 0
M  V30 23928 C 2186.25 -1.74044 -1.01543 0
M  V30 23929 O 2185.3 -1.76975 -1.801 0
M  V30 23930 C 2186.62 -2.71435 1.29398 0
M  V30 23931 C 2188.16 -2.85304 1.28728 0
M  V30 23932 C 2188.64 -4.07118 2.09807 0
M  V30 23933 N 2190.13 -4.14257 2.07233 0
M  V30 23934 C 2190.87 -5.0758 2.6674 0
M  V30 23935 N 2190.36 -6.06372 3.3509 0
M  V30 23936 N 2192.15 -5.00167 2.56494 0
M  V30 23937 H 2184.31 -1.20971 1.74585 0
M  V30 23938 H 2186.57 -0.590141 0.741915 0
M  V30 23939 H 2186.27 -2.62113 2.34498 0
M  V30 23940 H 2186.15 -3.65488 0.932654 0
M  V30 23941 H 2188.54 -2.94088 0.244207 0
M  V30 23942 H 2188.62 -1.92169 1.68834 0
M  V30 23943 H 2188.26 -3.99095 3.14143 0
M  V30 23944 H 2188.19 -4.99393 1.67074 0
M  V30 23945 H 2190.68 -3.43522 1.57483 0
M  V30 23946 H 2190.99 -6.74137 3.77836 0
M  V30 23947 H 2189.34 -6.06609 3.39191 0
M  V30 23948 H 2192.53 -4.21936 2.027 0
M  V30 23949 H 2192.7 -5.7271 3.03162 0
M  V30 23950 N 2186.11 -0.537304 -1.48158 0
M  V30 23951 C 2187.04 0.210088 -2.32553 0
M  V30 23952 C 2188.02 0.928052 -1.42552 0
M  V30 23953 O 2189.21 0.912405 -1.71432 0
M  V30 23954 C 2186.34 1.25296 -3.23911 0
M  V30 23955 C 2185.29 0.65269 -4.22994 0
M  V30 23956 C 2184.62 1.79875 -5.03537 0
M  V30 23957 C 2185.92 -0.380445 -5.20913 0
M  V30 23958 H 2187.61 -0.494444 -2.95289 0
M  V30 23959 H 2185.16 -0.239229 -1.41999 0
M  V30 23960 H 2187.11 1.78383 -3.81782 0
M  V30 23961 H 2185.83 1.98717 -2.59189 0
M  V30 23962 H 2184.49 0.143286 -3.6632 0
M  V30 23963 H 2184.14 2.52152 -4.35234 0
M  V30 23964 H 2183.84 1.40299 -5.70605 0
M  V30 23965 H 2185.36 2.33326 -5.64262 0
M  V30 23966 H 2186.78 0.0636068 -5.73265 0
M  V30 23967 H 2185.17 -0.693989 -5.96074 0
M  V30 23968 H 2186.24 -1.28359 -4.67602 0
M  V30 23969 O 2187.63 1.56084 -0.414719 0
M  V30 23970 H 2188.32 1.933 0.124461 0
M  V30 END ATOM
M  V30 BEGIN BOND
M  V30 END BOND
M  V30 END CTAB
M  END
$$$$
