drugbank_target|O00519 Fatty-acid amide hydrolase 1 (DB00599; DB02465; DB06894; DB08385; DB08400; DB12010; DB14009; DB14011)
 OpenBabel12092120073D

  0  0  0     0  0            999 V3000
M  V30 BEGIN CTAB
M  V30 COUNTS 8884 8985 0 0 0
M  V30 BEGIN ATOM
M  V30 1 H -0.908 1.98254 -0.117106 0
M  V30 2 N 0 1.576 0 0
M  V30 3 C 0.933 2.03868 1.02534 0
M  V30 4 C 1.911 0.928543 1.3348 0
M  V30 5 O 3.095 1.19667 1.45644 0
M  V30 6 C 0.222 2.43627 2.35294 0
M  V30 7 C -0.732 3.65373 2.2001 0
M  V30 8 S 0.101 5.13292 1.52614 0
M  V30 9 C 1.257 5.56322 2.86805 0
M  V30 10 H 1.49 2.90518 0.631377 0
M  V30 11 H -0.977 1.52953 0.210867 0
M  V30 12 H 0.981 2.67203 3.11629 0
M  V30 13 H -0.358 1.57376 2.7183 0
M  V30 14 H -1.165 3.90944 3.18086 0
M  V30 15 H -1.563 3.418 1.51819 0
M  V30 16 H 0.729 5.58782 3.83104 0
M  V30 17 H 1.672 6.56266 2.65933 0
M  V30 18 H 2.08 4.83886 2.90714 0
M  V30 19 N 1.4781 -0.272755 1.55222 0
M  V30 20 C 2.7241 -1.00581 1.761 0
M  V30 21 C 3.0571 -1.85932 0.560625 0
M  V30 22 O 2.3321 -1.89416 -0.441801 0
M  V30 23 C 2.6151 -1.88816 3.06628 0
M  V30 24 C 2.4681 -1.06457 4.37021 0
M  V30 25 C 3.7871 -2.8752 3.33197 0
M  V30 26 H 0.9061 -0.364244 0.640699 0
M  V30 27 H 3.5481 -0.278189 1.87952 0
M  V30 28 H 1.6981 -2.50856 2.96654 0
M  V30 29 H 3.3701 -0.464863 4.58952 0
M  V30 30 H 1.6131 -0.368043 4.32236 0
M  V30 31 H 2.2841 -1.71514 5.24678 0
M  V30 32 H 4.7601 -2.35615 3.42965 0
M  V30 33 H 3.6361 -3.46399 4.25792 0
M  V30 34 H 3.8971 -3.62657 2.52849 0
M  V30 35 N 2.9562 -1.48159 -0.537278 0
M  V30 36 C 3.8882 -1.58218 -1.65831 0
M  V30 37 C 4.9012 -0.466948 -1.5596 0
M  V30 38 O 6.0902 -0.73747 -1.62553 0
M  V30 39 C 3.1902 -1.48906 -3.04434 0
M  V30 40 C 2.3632 -2.75343 -3.3986 0
M  V30 41 C 1.4222 -2.59588 -4.57712 0
M  V30 42 O 0.4482 -3.33457 -4.61297 0
M  V30 43 N 1.6502 -1.68724 -5.55439 0
M  V30 44 H 4.4152 -2.54891 -1.57641 0
M  V30 45 H 1.9762 -1.4479 -0.724386 0
M  V30 46 H 3.9682 -1.36072 -3.81139 0
M  V30 47 H 2.5382 -0.602368 -3.06741 0
M  V30 48 H 1.7582 -3.02795 -2.52406 0
M  V30 49 H 3.0462 -3.5924 -3.60311 0
M  V30 50 H 2.4442 -1.07898 -5.55315 0
M  V30 51 H 1.0012 -1.61832 -6.3139 0
M  V30 52 N 4.4343 0.785586 -1.36625 0
M  V30 53 C 5.6643 1.5722 -1.34036 0
M  V30 54 C 6.0723 1.89033 0.0795062 0
M  V30 55 O 5.4153 1.50881 1.04789 0
M  V30 56 C 5.4773 2.91759 -2.10041 0
M  V30 57 C 5.1413 2.82654 -3.59104 0
M  V30 58 C 6.1383 2.54634 -4.53274 0
M  V30 59 C 3.8233 3.01111 -4.02042 0
M  V30 60 C 5.8173 2.45177 -5.88359 0
M  V30 61 C 3.5043 2.91276 -5.37216 0
M  V30 62 C 4.5023 2.63348 -6.30188 0
M  V30 63 O 4.1903 2.53514 -7.6288 0
M  V30 64 H 3.9223 0.494177 -0.461265 0
M  V30 65 H 6.4763 0.982632 -1.8037 0
M  V30 66 H 4.7063 3.52781 -1.58375 0
M  V30 67 H 6.3953 3.53059 -2.00261 0
M  V30 68 H 7.1613 2.40073 -4.21414 0
M  V30 69 H 3.0403 3.21854 -3.30047 0
M  V30 70 H 6.5843 2.23299 -6.60896 0
M  V30 71 H 2.4813 3.054 -5.68684 0
M  V30 72 H 3.2493 2.68967 -7.73045 0
M  V30 73 N 5.9124 1.20967 1.01018 0
M  V30 74 C 6.8224 0.980157 2.13143 0
M  V30 75 C 7.8384 -0.0660665 1.73875 0
M  V30 76 O 9.0144 0.122821 2.01025 0
M  V30 77 C 6.0794 0.54216 3.42435 0
M  V30 78 C 5.1404 1.65999 3.95908 0
M  V30 79 C 4.3734 1.2428 5.19028 0
M  V30 80 O 4.5964 0.114196 5.70286 0
M  V30 81 O 3.5304 2.05271 5.65816 0
M  V30 82 H 7.3564 1.91913 2.35379 0
M  V30 83 H 4.9414 0.994099 1.11526 0
M  V30 84 H 6.8234 0.30744 4.20277 0
M  V30 85 H 5.4984 -0.36815 3.216 0
M  V30 86 H 4.4054 1.94906 3.19316 0
M  V30 87 H 5.7384 2.54753 4.21143 0
M  V30 88 N 7.3905 -1.2043 1.01659 0
M  V30 89 C 8.3205 -2.25466 0.607226 0
M  V30 90 C 9.3015 -1.65853 -0.377716 0
M  V30 91 O 10.4865 -1.92409 -0.263149 0
M  V30 92 C 7.6165 -3.47256 -0.0552949 0
M  V30 93 C 6.5705 -4.19462 0.850632 0
M  V30 94 C 5.8965 -5.34673 0.0538859 0
M  V30 95 C 7.1965 -4.75603 2.15868 0
M  V30 96 H 8.8905 -2.59962 1.48526 0
M  V30 97 H 6.4365 -1.2496 0.715605 0
M  V30 98 H 8.3895 -4.19917 -0.353233 0
M  V30 99 H 7.1135 -3.11924 -0.968045 0
M  V30 100 H 5.7725 -3.48667 1.13257 0
M  V30 101 H 5.4205 -4.95585 -0.860514 0
M  V30 102 H 5.1205 -5.83913 0.657192 0
M  V30 103 H 6.6445 -6.10138 -0.237598 0
M  V30 104 H 8.0585 -5.40083 1.92311 0
M  V30 105 H 6.4555 -5.3528 2.71284 0
M  V30 106 H 7.5255 -3.94346 2.82169 0
M  V30 107 N 8.8686 -0.792821 -1.36206 0
M  V30 108 C 10.1146 -0.376415 -1.99887 0
M  V30 109 C 10.4696 1.04127 -1.61788 0
M  V30 110 O 9.7626 1.71004 -0.864193 0
M  V30 111 C 9.9566 -0.481501 -3.54142 0
M  V30 112 C 9.7856 -1.90786 -4.07223 0
M  V30 113 C 8.5556 -2.53322 -4.37214 0
M  V30 114 C 10.7536 -2.87048 -4.26741 0
M  V30 115 N 8.7356 -3.8751 -4.7614 0
M  V30 116 C 10.1066 -4.06077 -4.6851 0
M  V30 117 C 12.1616 -2.8406 -4.08918 0
M  V30 118 C 10.8646 -5.22532 -4.94321 0
M  V30 119 C 12.8906 -3.99705 -4.35878 0
M  V30 120 C 12.2526 -5.1748 -4.77906 0
M  V30 121 H 8.3516 -0.185226 -0.759747 0
M  V30 122 H 10.9356 -1.03114 -1.65153 0
M  V30 123 H 9.1066 0.143154 -3.88136 0
M  V30 124 H 10.8386 -0.0410128 -4.04679 0
M  V30 125 H 7.5936 -2.04777 -4.2704 0
M  V30 126 H 8.0176 -4.5656 -4.99882 0
M  V30 127 H 12.6596 -1.94165 -3.75579 0
M  V30 128 H 10.3776 -6.1301 -5.2654 0
M  V30 129 H 13.9636 -3.98758 -4.23655 0
M  V30 130 H 12.8436 -6.05478 -4.98363 0
M  V30 131 N 10.3467 1.47872 -0.545128 0
M  V30 132 C 11.3097 2.28337 0.198717 0
M  V30 133 C 12.3097 1.36255 0.853888 0
M  V30 134 O 13.4997 1.59003 0.711606 0
M  V30 135 C 10.6317 3.15585 1.28915 0
M  V30 136 H 11.8247 2.95567 -0.507941 0
M  V30 137 H 9.3777 1.53362 -0.301616 0
M  V30 138 H 10.1127 2.53019 2.02859 0
M  V30 139 H 9.8977 3.83337 0.824309 0
M  V30 140 H 11.3877 3.76243 1.81194 0
M  V30 141 N 11.8248 0.280983 1.55075 0
M  V30 142 C 12.7878 -0.590896 2.21452 0
M  V30 143 C 13.7878 -1.07682 1.19421 0
M  V30 144 O 14.9778 -0.97605 1.44288 0
M  V30 145 C 12.1098 -1.81587 2.88511 0
M  V30 146 H 13.3028 -0.0112554 2.99898 0
M  V30 147 H 10.8558 0.0316438 1.56268 0
M  V30 148 H 11.5908 -2.43587 2.14093 0
M  V30 149 H 11.3758 -1.4753 3.63287 0
M  V30 150 H 12.8658 -2.43575 3.39206 0
M  V30 151 N 13.3029 -1.57598 0.00835791 0
M  V30 152 C 14.2329 -2.1198 -0.979113 0
M  V30 153 C 15.2139 -1.03091 -1.35301 0
M  V30 154 O 16.3989 -1.30818 -1.43528 0
M  V30 155 C 13.5289 -2.62995 -2.26828 0
M  V30 156 C 12.4829 -3.76485 -2.03576 0
M  V30 157 C 11.8089 -4.13846 -3.38579 0
M  V30 158 C 13.1089 -5.0342 -1.39161 0
M  V30 159 H 14.8029 -2.94738 -0.526281 0
M  V30 160 H 12.3489 -1.41783 -0.251704 0
M  V30 161 H 14.3019 -2.99669 -2.96271 0
M  V30 162 H 13.0259 -1.7737 -2.7424 0
M  V30 163 H 11.6849 -3.40217 -1.36557 0
M  V30 164 H 11.3329 -3.25232 -3.83709 0
M  V30 165 H 11.0329 -4.90312 -3.23834 0
M  V30 166 H 12.5569 -4.53086 -4.09323 0
M  V30 167 H 13.9709 -5.37812 -1.98573 0
M  V30 168 H 12.3679 -5.84746 -1.34878 0
M  V30 169 H 13.4379 -4.83548 -0.361868 0
M  V30 170 N 14.781 0.264519 -1.55364 0
M  V30 171 C 16.192 0.834936 -1.6699 0
M  V30 172 C 16.543 1.86718 -0.602552 0
M  V30 173 O 15.668 2.14899 0.254425 0
M  V30 174 C 16.263 1.5212 -3.02729 0
M  V30 175 C 14.822 2.03954 -3.16354 0
M  V30 176 C 13.969 0.884498 -2.62815 0
M  V30 177 H 16.92 0.0406869 -1.58648 0
M  V30 178 H 16.941 2.38853 -2.96191 0
M  V30 179 H 16.453 0.769668 -3.80392 0
M  V30 180 H 14.554 2.82041 -2.43482 0
M  V30 181 H 14.667 2.24902 -4.23032 0
M  V30 182 H 13.031 1.2802 -2.20188 0
M  V30 183 H 13.814 0.14634 -3.42988 0
M  V30 184 N 16.2591 1.48442 0.529413 0
M  V30 185 C 17.5071 1.56179 1.28267 0
M  V30 186 C 17.8281 0.237721 1.93546 0
M  V30 187 O 17.0981 -0.740779 1.81354 0
M  V30 188 H 15.6781 0.575367 0.476405 0
M  V30 189 H 18.3401 1.84909 0.61602 0
M  V30 190 H 17.4361 2.34312 2.06165 0
M  V30 191 N 17.7372 -0.778329 1.37039 0
M  V30 192 C 18.7002 -1.87301 1.32102 0
M  V30 193 C 19.7002 -1.59198 0.226405 0
M  V30 194 O 20.8902 -1.67403 0.481861 0
M  V30 195 C 18.0222 -3.24309 1.05055 0
M  V30 196 H 19.2152 -1.93093 2.29467 0
M  V30 197 H 16.7682 -0.977358 1.21973 0
M  V30 198 H 17.5032 -3.24196 0.0819373 0
M  V30 199 H 17.2882 -3.46098 1.84279 0
M  V30 200 H 18.7782 -4.04382 1.04234 0
M  V30 201 N 19.2153 -1.21501 -1.00376 0
M  V30 202 C 20.4403 -1.05977 -1.78279 0
M  V30 203 C 20.8653 0.385994 -1.84097 0
M  V30 204 O 20.2233 1.27849 -1.28547 0
M  V30 205 C 20.2713 -1.66302 -3.19963 0
M  V30 206 O 19.3753 -0.909333 -4.0225 0
M  V30 207 H 18.7163 -0.372906 -0.549397 0
M  V30 208 H 21.2463 -1.6107 -1.26165 0
M  V30 209 H 21.2563 -1.70574 -3.70632 0
M  V30 210 H 19.9313 -2.71515 -3.15043 0
M  V30 211 H 18.5083 -0.941795 -3.60811 0
M  V30 212 N 20.6934 1.19889 -1.02296 0
M  V30 213 C 21.9414 1.89046 -0.714558 0
M  V30 214 C 22.2624 1.79636 0.758681 0
M  V30 215 O 21.5324 1.20292 1.54618 0
M  V30 216 H 20.1124 0.699802 -0.261317 0
M  V30 217 H 22.7744 1.45574 -1.29592 0
M  V30 218 H 21.8704 2.95524 -1.0036 0
M  V30 219 N 22.1715 0.800033 1.35784 0
M  V30 220 C 23.4175 0.377901 1.99248 0
M  V30 221 C 23.7505 -1.05052 1.63333 0
M  V30 222 O 23.0255 -1.72768 0.893385 0
M  V30 223 C 23.3085 0.553922 3.55814 0
M  V30 224 C 23.1615 2.0268 4.01548 0
M  V30 225 C 24.4805 -0.0244802 4.40093 0
M  V30 226 H 21.5995 0.138782 0.723815 0
M  V30 227 H 24.2415 1.00835 1.61035 0
M  V30 228 H 22.3915 0.0172398 3.88496 0
M  V30 229 H 24.0635 2.62536 3.79305 0
M  V30 230 H 22.3065 2.5256 3.52698 0
M  V30 231 H 22.9775 2.10087 5.10458 0
M  V30 232 H 25.4535 0.433775 4.13833 0
M  V30 233 H 24.3295 0.128637 5.48749 0
M  V30 234 H 24.5905 -1.11758 4.27741 0
M  V30 235 N 23.6496 -1.47581 0.552962 0
M  V30 236 C 24.6126 -2.28439 -0.186605 0
M  V30 237 C 25.6126 -1.36706 -0.84665 0
M  V30 238 O 26.8026 -1.59378 -0.703164 0
M  V30 239 C 23.9346 -3.16264 -1.2724 0
M  V30 240 H 25.1276 -2.95294 0.523609 0
M  V30 241 H 22.6806 -1.532 0.309745 0
M  V30 242 H 23.4156 -2.54091 -2.01514 0
M  V30 243 H 23.2006 -3.83769 -0.803968 0
M  V30 244 H 24.6906 -3.77198 -1.79196 0
M  V30 245 N 25.1277 -0.289203 -1.54924 0
M  V30 246 C 26.0577 0.58549 -2.2604 0
M  V30 247 C 27.0387 1.14753 -1.25562 0
M  V30 248 O 28.2237 1.17906 -1.54311 0
M  V30 249 C 25.3537 1.76305 -2.99222 0
M  V30 250 C 24.3077 1.33191 -4.06748 0
M  V30 251 C 23.6337 2.5937 -4.6758 0
M  V30 252 C 24.9337 0.471775 -5.20165 0
M  V30 253 H 26.6277 -0.00763532 -2.99399 0
M  V30 254 H 24.1737 -0.00511229 -1.43999 0
M  V30 255 H 26.1267 2.38097 -3.47689 0
M  V30 256 H 24.8507 2.38223 -2.23422 0
M  V30 257 H 23.5097 0.737121 -3.59113 0
M  V30 258 H 23.1577 3.19576 -3.88433 0
M  V30 259 H 22.8577 2.31228 -5.40192 0
M  V30 260 H 24.3817 3.21985 -5.18804 0
M  V30 261 H 25.7957 0.995056 -5.64599 0
M  V30 262 H 24.1927 0.284639 -5.99425 0
M  V30 263 H 25.2627 -0.506041 -4.82252 0
M  V30 264 N 26.6058 1.57591 -0.0167156 0
M  V30 265 C 27.5688 2.08393 0.954204 0
M  V30 266 C 28.5688 0.996531 1.26198 0
M  V30 267 O 29.7588 1.25858 1.20438 0
M  V30 268 C 26.8908 2.5394 2.27436 0
M  V30 269 H 28.0838 2.95455 0.514451 0
M  V30 270 H 25.6368 1.54582 0.231089 0
M  V30 271 H 26.3718 1.70171 2.76066 0
M  V30 272 H 26.1568 3.33371 2.06412 0
M  V30 273 H 27.6468 2.93512 2.97053 0
M  V30 274 N 28.0839 -0.256276 1.55502 0
M  V30 275 C 29.3239 -0.993081 1.78654 0
M  V30 276 C 29.6879 -1.8288 0.584724 0
M  V30 277 O 30.8889 -2.59665 0.694822 0
M  V30 278 C 29.1599 -1.83856 3.06483 0
M  V30 279 S 30.7189 -2.63573 3.5082 0
M  V30 280 H 27.5369 -0.334199 0.62756 0
M  V30 281 H 30.1389 -0.26184 1.93739 0
M  V30 282 H 28.8429 -1.21414 3.92029 0
M  V30 283 H 28.3739 -2.61271 2.94111 0
M  V30 284 H 30.3889 -3.86312 3.11412 0
M  V30 285 N 29.562 -1.4872 -0.521534 0
M  V30 286 C 30.802 -1.58771 -1.28729 0
M  V30 287 C 31.166 -0.259394 -1.9024 0
M  V30 288 O 32.367 -0.234942 -2.67771 0
M  V30 289 C 30.638 -2.70039 -2.34124 0
M  V30 290 S 32.197 -2.9991 -3.20312 0
M  V30 291 H 29.015 -0.560251 -0.437767 0
M  V30 292 H 31.617 -1.86283 -0.593188 0
M  V30 293 H 30.321 -3.65101 -1.87429 0
M  V30 294 H 29.852 -2.44455 -3.08229 0
M  V30 295 H 31.867 -2.39855 -4.34378 0
M  V30 296 N 31.0401 0.771051 -1.3745 0
M  V30 297 C 32.2871 1.52963 -1.32697 0
M  V30 298 C 32.6151 1.94299 0.0883274 0
M  V30 299 O 31.8701 1.64397 1.0617 0
M  V30 300 C 32.1691 2.80676 -2.2126 0
M  V30 301 C 31.8351 2.58389 -3.69521 0
M  V30 302 C 30.4971 2.52019 -4.09927 0
M  V30 303 C 32.8491 2.38469 -4.63446 0
M  V30 304 C 30.1771 2.23721 -5.42371 0
M  V30 305 C 32.5291 2.11694 -5.96128 0
M  V30 306 C 31.1931 2.03769 -6.35637 0
M  V30 307 H 30.4631 0.559732 -0.485573 0
M  V30 308 H 33.1101 0.888083 -1.69662 0
M  V30 309 H 31.4151 3.49392 -1.77291 0
M  V30 310 H 33.1121 3.38557 -2.14895 0
M  V30 311 H 29.7021 2.6421 -3.37478 0
M  V30 312 H 33.8861 2.4238 -4.33089 0
M  V30 313 H 29.1421 2.16081 -5.71943 0
M  V30 314 H 33.3161 1.9528 -6.6846 0
M  V30 315 H 30.9431 1.81606 -7.38189 0
M  V30 316 N 32.5182 1.22032 0.997298 0
M  V30 317 C 33.7642 1.04376 1.73878 0
M  V30 318 C 34.0972 -0.420716 1.89588 0
M  V30 319 O 33.3722 -1.31202 1.43583 0
M  V30 320 C 33.6552 1.75047 3.14691 0
M  V30 321 C 33.5082 3.29062 3.06656 0
M  V30 322 C 34.8272 1.49928 4.13775 0
M  V30 323 H 31.9462 0.380578 0.631133 0
M  V30 324 H 34.5882 1.50312 1.16217 0
M  V30 325 H 32.7382 1.35996 3.63919 0
M  V30 326 H 34.4102 3.7753 2.65083 0
M  V30 327 H 32.6532 3.58967 2.43568 0
M  V30 328 H 33.3242 3.73683 4.06282 0
M  V30 329 H 35.8002 1.83842 3.73285 0
M  V30 330 H 34.6762 2.01878 5.10428 0
M  V30 331 H 34.9372 0.430929 4.39995 0
M  V30 332 N 33.9963 -1.19345 1.0293 0
M  V30 333 C 34.9593 -2.20793 0.615069 0
M  V30 334 C 35.9593 -1.57553 -0.321533 0
M  V30 335 O 37.1493 -1.73862 -0.108483 0
M  V30 336 C 34.2813 -3.40754 -0.0999222 0
M  V30 337 H 35.4743 -2.58955 1.51269 0
M  V30 338 H 33.0273 -1.3303 0.820534 0
M  V30 339 H 33.7623 -3.0811 -1.01187 0
M  V30 340 H 33.5473 -3.87889 0.57309 0
M  V30 341 H 35.0373 -4.15898 -0.376645 0
M  V30 342 N 35.4744 -0.807222 -1.35358 0
M  V30 343 C 36.4374 -0.223665 -2.28106 0
M  V30 344 C 37.4374 0.589354 -1.4961 0
M  V30 345 O 38.6274 0.407745 -1.69361 0
M  V30 346 C 35.7594 0.688149 -3.33882 0
M  V30 347 H 36.9524 -1.04169 -2.81227 0
M  V30 348 H 34.5054 -0.577921 -1.45223 0
M  V30 349 H 35.2404 1.52984 -2.85948 0
M  V30 350 H 35.0254 0.10687 -3.91954 0
M  V30 351 H 36.5154 1.09075 -4.03104 0
M  V30 352 N 36.9525 1.47285 -0.560781 0
M  V30 353 C 37.9155 2.28535 0.174488 0
M  V30 354 C 38.9155 1.37153 0.839388 0
M  V30 355 O 40.1055 1.59748 0.694702 0
M  V30 356 C 37.2375 3.16934 1.25561 0
M  V30 357 H 38.4305 2.95012 -0.539262 0
M  V30 358 H 35.9835 1.53034 -0.317865 0
M  V30 359 H 36.7185 2.55157 2.00164 0
M  V30 360 H 36.5035 3.8419 0.783604 0
M  V30 361 H 37.9935 3.78143 1.77193 0
M  V30 362 N 38.4306 0.297415 1.54768 0
M  V30 363 C 39.6766 -0.313376 2.00364 0
M  V30 364 C 40.0096 -1.53815 1.18553 0
M  V30 365 O 39.2846 -1.92739 0.261103 0
M  V30 366 C 39.5676 -0.673525 3.53745 0
M  V30 367 C 39.4206 0.560133 4.46299 0
M  V30 368 C 40.7396 -1.50143 4.13697 0
M  V30 369 H 37.8586 -0.112428 0.728374 0
M  V30 370 H 40.5006 0.4088 1.8555 0
M  V30 371 H 38.6506 -1.28881 3.665 0
M  V30 372 H 40.3226 1.19863 4.45455 0
M  V30 373 H 38.5656 1.19405 4.17043 0
M  V30 374 H 39.2366 0.26405 5.51368 0
M  V30 375 H 41.7126 -0.981588 4.04356 0
M  V30 376 H 40.5886 -1.72221 5.21182 0
M  V30 377 H 40.8496 -2.48952 3.65343 0
M  V30 378 N 39.9087 -1.5758 0.0250728 0
M  V30 379 C 40.8717 -2.08896 -0.943139 0
M  V30 380 C 41.8717 -1.00321 -1.25668 0
M  V30 381 O 43.0617 -1.26495 -1.19769 0
M  V30 382 C 40.1937 -2.55143 -2.26086 0
M  V30 383 H 41.3867 -2.95723 -0.498775 0
M  V30 384 H 38.9397 -1.54703 -0.222888 0
M  V30 385 H 39.6747 -1.71633 -2.75159 0
M  V30 386 H 39.4597 -3.34461 -2.04641 0
M  V30 387 H 40.9497 -2.95083 -2.95492 0
M  V30 388 N 41.3868 0.248026 -1.55636 0
M  V30 389 C 42.3168 1.31079 -1.93237 0
M  V30 390 C 43.2978 1.50264 -0.797174 0
M  V30 391 O 44.4828 1.62891 -1.05737 0
M  V30 392 C 41.6128 2.66575 -2.22609 0
M  V30 393 C 40.5668 2.62087 -3.3837 0
M  V30 394 C 39.8928 4.01369 -3.53281 0
M  V30 395 C 41.1928 2.19171 -4.7409 0
M  V30 396 H 42.8868 0.998556 -2.82257 0
M  V30 397 H 40.4328 0.47891 -1.35803 0
M  V30 398 H 42.3858 3.41057 -2.47503 0
M  V30 399 H 41.1098 2.99432 -1.30414 0
M  V30 400 H 39.7688 1.90063 -3.13483 0
M  V30 401 H 39.4168 4.31489 -2.58508 0
M  V30 402 H 39.1168 3.99254 -4.31127 0
M  V30 403 H 40.6408 4.77552 -3.80495 0
M  V30 404 H 42.0548 2.83384 -4.98363 0
M  V30 405 H 40.4518 2.2817 -5.5503 0
M  V30 406 H 41.5218 1.14336 -4.71227 0
M  V30 407 N 42.8649 1.48995 0.513639 0
M  V30 408 C 44.2809 1.35478 0.843682 0
M  V30 409 C 44.4809 0.378213 1.97919 0
M  V30 410 O 43.5369 -0.194689 2.51748 0
M  V30 411 C 44.8499 2.75901 1.1958 0
M  V30 412 C 46.3979 2.84509 1.30474 0
M  V30 413 C 46.8729 4.25671 1.69021 0
M  V30 414 N 48.3639 4.28422 1.76094 0
M  V30 415 C 49.0989 5.34601 2.07338 0
M  V30 416 N 48.5949 6.5104 2.36894 0
M  V30 417 N 50.3879 5.22007 2.08483 0
M  V30 418 H 42.5389 2.11092 -0.235328 0
M  V30 419 H 44.8019 0.947039 -0.0426669 0
M  V30 420 H 44.5079 3.49001 0.434913 0
M  V30 421 H 44.3819 3.10467 2.1422 0
M  V30 422 H 46.7689 2.11655 2.05637 0
M  V30 423 H 46.8499 2.53542 0.339155 0
M  V30 424 H 46.4939 4.99048 0.944135 0
M  V30 425 H 46.4239 4.54094 2.66658 0
M  V30 426 H 48.9149 3.44441 1.55464 0
M  V30 427 H 49.2279 7.2779 2.59887 0
M  V30 428 H 47.5729 6.54287 2.34378 0
M  V30 429 H 50.7639 4.30051 1.84861 0
M  V30 430 H 50.9369 6.04854 2.325 0
M  V30 431 N 44.343 -0.763751 1.37857 0
M  V30 432 C 45.589 -1.52396 1.3471 0
M  V30 433 C 45.944 -1.92288 -0.0656435 0
M  V30 434 O 45.237 -1.6181 -1.02606 0
M  V30 435 C 45.431 -2.79499 2.22745 0
M  V30 436 C 45.26 -2.52031 3.72438 0
M  V30 437 C 44.03 -2.45759 4.4151 0
M  V30 438 C 46.228 -2.19489 4.65112 0
M  V30 439 N 44.21 -2.1046 5.76697 0
M  V30 440 C 45.581 -1.94396 5.88736 0
M  V30 441 C 47.636 -2.05712 4.53417 0
M  V30 442 C 46.339 -1.56917 7.01975 0
M  V30 443 C 48.365 -1.69634 5.66549 0
M  V30 444 C 47.727 -1.45407 6.89229 0
M  V30 445 H 43.826 -0.55765 0.548225 0
M  V30 446 H 46.41 -0.890302 1.73152 0
M  V30 447 H 44.581 -3.4069 1.86507 0
M  V30 448 H 46.313 -3.45465 2.10798 0
M  V30 449 H 43.068 -2.61885 3.94605 0
M  V30 450 H 43.492 -1.95484 6.48163 0
M  V30 451 H 48.134 -2.23123 3.59133 0
M  V30 452 H 45.852 -1.38246 7.96187 0
M  V30 453 H 49.438 -1.59621 5.59475 0
M  V30 454 H 48.318 -1.17904 7.75286 0
M  V30 455 N 45.8211 -1.22559 -0.990812 0
M  V30 456 C 47.0461 -1.07862 -1.77145 0
M  V30 457 C 47.4711 0.366447 -1.84496 0
M  V30 458 O 46.8291 1.26478 -1.29896 0
M  V30 459 C 46.8771 -1.69686 -3.18181 0
M  V30 460 O 45.9811 -0.951946 -4.01263 0
M  V30 461 H 45.3221 -0.378712 -0.545411 0
M  V30 462 H 47.8521 -1.62399 -1.2445 0
M  V30 463 H 47.8621 -1.74496 -3.68802 0
M  V30 464 H 46.5371 -2.74841 -3.12146 0
M  V30 465 H 45.1141 -0.980011 -3.59792 0
M  V30 466 N 47.2992 1.18797 -1.03562 0
M  V30 467 C 48.5472 1.88278 -0.734569 0
M  V30 468 C 48.8682 1.8043 0.739586 0
M  V30 469 O 48.1382 1.21925 1.53333 0
M  V30 470 H 46.7182 0.696991 -0.268725 0
M  V30 471 H 49.3802 1.44192 -1.31129 0
M  V30 472 H 48.4762 2.94443 -1.03489 0
M  V30 473 N 48.7773 0.814389 1.34928 0
M  V30 474 C 50.1933 0.499084 1.51596 0
M  V30 475 C 50.3933 -0.978319 1.76157 0
M  V30 476 O 49.4493 -1.76309 1.80752 0
M  V30 477 C 50.7623 1.35121 2.68631 0
M  V30 478 C 52.3103 1.34746 2.82511 0
M  V30 479 C 52.7853 2.18388 4.0258 0
M  V30 480 N 54.2763 2.15966 4.09772 0
M  V30 481 C 55.0113 2.77437 5.01813 0
M  V30 482 N 54.5073 3.47866 5.99134 0
M  V30 483 N 56.3003 2.67037 4.94619 0
M  V30 484 H 48.4513 1.7711 1.17243 0
M  V30 485 H 50.7143 0.754256 0.574284 0
M  V30 486 H 50.4203 2.40001 2.57085 0
M  V30 487 H 50.2943 1.00991 3.63429 0
M  V30 488 H 52.6813 0.30648 2.93504 0
M  V30 489 H 52.7623 1.72869 1.88547 0
M  V30 490 H 52.4063 3.2253 3.92347 0
M  V30 491 H 52.3363 1.77621 4.9574 0
M  V30 492 H 54.8273 1.64729 3.40107 0
M  V30 493 H 55.1403 3.92038 6.65977 0
M  V30 494 H 53.4853 3.51972 5.99284 0
M  V30 495 H 56.6763 2.11597 4.17546 0
M  V30 496 H 56.8493 3.15232 5.66156 0
M  V30 497 N 50.2554 -1.46986 0.568584 0
M  V30 498 C 51.6714 -1.57946 0.229189 0
M  V30 499 C 51.8714 -1.56567 -1.26843 0
M  V30 500 O 50.9274 -1.47511 -2.04931 0
M  V30 501 C 52.2404 -2.87963 0.865909 0
M  V30 502 C 53.7884 -3.01568 0.838188 0
M  V30 503 C 54.2634 -4.34301 1.45419 0
M  V30 504 N 55.7544 -4.40965 1.41788 0
M  V30 505 C 56.4894 -5.42256 1.86403 0
M  V30 506 N 55.9854 -6.50297 2.38926 0
M  V30 507 N 57.7784 -5.3337 1.77405 0
M  V30 508 H 49.9294 -1.46126 1.54146 0
M  V30 509 H 52.1924 -0.696156 0.643484 0
M  V30 510 H 51.8984 -2.94742 1.91886 0
M  V30 511 H 51.7724 -3.75423 0.365687 0
M  V30 512 H 54.1594 -2.94379 -0.206106 0
M  V30 513 H 54.2404 -2.1562 1.37629 0
M  V30 514 H 53.8844 -4.42247 2.49761 0
M  V30 515 H 53.8144 -5.19 0.891435 0
M  V30 516 H 56.3054 -3.63484 1.03381 0
M  V30 517 H 56.6184 -7.23777 2.70863 0
M  V30 518 H 54.9634 -6.51155 2.42944 0
M  V30 519 H 58.1544 -4.47865 1.3614 0
M  V30 520 H 58.3274 -6.12169 2.12492 0
M  V30 521 N 51.7335 -0.305618 -1.54608 0
M  V30 522 C 52.9615 0.304775 -2.04643 0
M  V30 523 C 53.3765 1.47167 -1.18268 0
M  V30 524 O 52.7335 1.81296 -0.209328 0
M  V30 525 C 52.7845 0.756564 -3.53495 0
M  V30 526 O 52.5055 -0.36389 -4.36586 0
M  V30 527 C 54.0065 1.43163 -4.19546 0
M  V30 528 H 51.2265 0.0655481 -0.667791 0
M  V30 529 H 53.7705 -0.446592 -1.99564 0
M  V30 530 H 51.9255 1.45794 -3.58919 0
M  V30 531 H 52.3395 -0.0113121 -5.24499 0
M  V30 532 H 53.8135 1.69886 -5.25207 0
M  V30 533 H 54.2905 2.37318 -3.69563 0
M  V30 534 H 54.8965 0.773307 -4.18211 0
M  V30 535 N 53.2116 1.57565 -0.0334293 0
M  V30 536 C 54.1746 2.09393 0.932048 0
M  V30 537 C 55.1746 1.00986 1.25134 0
M  V30 538 O 56.3646 1.27129 1.19096 0
M  V30 539 C 53.4966 2.56338 2.2473 0
M  V30 540 H 54.6896 2.95984 0.483085 0
M  V30 541 H 52.2426 1.54819 0.21468 0
M  V30 542 H 52.9776 1.7309 2.74245 0
M  V30 543 H 52.7626 3.35542 2.02865 0
M  V30 544 H 54.2526 2.96646 2.93923 0
M  V30 545 N 54.6897 -0.239769 1.55765 0
M  V30 546 C 56.1057 -0.588624 1.48349 0
M  V30 547 C 56.3057 -1.88005 0.72502 0
M  V30 548 O 55.3617 -2.51186 0.257269 0
M  V30 549 C 56.6747 -0.68474 2.928 0
M  V30 550 C 58.2227 -0.77659 3.03213 0
M  V30 551 C 58.6977 -0.904207 4.48986 0
M  V30 552 N 60.1887 -0.968896 4.52953 0
M  V30 553 C 60.9237 -1.08703 5.63002 0
M  V30 554 N 60.4197 -1.17026 6.82845 0
M  V30 555 N 62.2127 -1.12074 5.50814 0
M  V30 556 H 54.3637 0.607911 2.03515 0
M  V30 557 H 56.6267 0.21083 0.924259 0
M  V30 558 H 56.3327 0.194284 3.51163 0
M  V30 559 H 56.2067 -1.55435 3.43686 0
M  V30 560 H 58.5937 -1.64606 2.44926 0
M  V30 561 H 58.6747 0.118315 2.55526 0
M  V30 562 H 58.3187 -0.0392633 5.07885 0
M  V30 563 H 58.2487 -1.81426 4.9436 0
M  V30 564 H 60.7397 -0.915633 3.6664 0
M  V30 565 H 61.0527 -1.25966 7.62465 0
M  V30 566 H 59.3977 -1.13971 6.85591 0
M  V30 567 H 62.5887 -1.05226 4.5612 0
M  V30 568 H 62.7617 -1.20936 6.36615 0
M  V30 569 N 56.1678 -1.49265 -0.50573 0
M  V30 570 C 57.4158 -1.582 -1.25766 0
M  V30 571 C 57.7368 -0.268482 -1.93143 0
M  V30 572 O 57.0068 0.711833 -1.8251 0
M  V30 573 H 55.5868 -0.582873 -0.467191 0
M  V30 574 H 58.2488 -1.85865 -0.586525 0
M  V30 575 H 57.3448 -2.37563 -2.02412 0
M  V30 576 N 57.6459 0.756429 -1.3826 0
M  V30 577 C 58.6089 1.85176 -1.35065 0
M  V30 578 C 59.6089 1.58818 -0.251703 0
M  V30 579 O 60.7989 1.66615 -0.508433 0
M  V30 580 C 57.9309 3.22596 -1.10201 0
M  V30 581 H 59.1239 1.89417 -2.3251 0
M  V30 582 H 56.6769 0.95783 -1.23512 0
M  V30 583 H 57.4119 3.24025 -0.133504 0
M  V30 584 H 57.1969 3.43122 -1.89762 0
M  V30 585 H 58.6869 4.02673 -1.10654 0
M  V30 586 N 59.124 1.23083 0.984299 0
M  V30 587 C 60.37 1.06214 1.72761 0
M  V30 588 C 60.703 -0.400584 1.90024 0
M  V30 589 O 59.978 -1.29672 1.44967 0
M  V30 590 C 60.261 1.78375 3.12817 0
M  V30 591 C 60.114 3.32296 3.03149 0
M  V30 592 C 61.433 1.54309 4.12161 0
M  V30 593 H 58.552 0.387251 0.627061 0
M  V30 594 H 61.194 1.51536 1.14616 0
M  V30 595 H 59.344 1.39848 3.62457 0
M  V30 596 H 61.016 3.8032 2.61064 0
M  V30 597 H 59.259 3.6153 2.39747 0
M  V30 598 H 59.93 3.77972 4.02295 0
M  V30 599 H 62.406 1.87791 3.71314 0
M  V30 600 H 61.282 2.07281 5.08258 0
M  V30 601 H 61.543 0.477572 4.39513 0
M  V30 602 N 60.6021 -1.18246 1.0419 0
M  V30 603 C 61.8481 -1.88536 0.747122 0
M  V30 604 C 62.1811 -1.80223 -0.723409 0
M  V30 605 O 61.4561 -1.20337 -1.52804 0
M  V30 606 C 61.7391 -3.38968 1.21544 0
M  V30 607 C 61.5921 -3.56084 2.74816 0
M  V30 608 C 62.9111 -4.32648 0.806482 0
M  V30 609 H 60.0301 -0.684619 0.272883 0
M  V30 610 H 62.6721 -1.39113 1.29413 0
M  V30 611 H 60.8221 -3.8119 0.750081 0
M  V30 612 H 62.4941 -3.22946 3.29399 0
M  V30 613 H 60.7371 -2.98699 3.14582 0
M  V30 614 H 61.4081 -4.61639 3.02644 0
M  V30 615 H 63.8841 -3.98211 1.20695 0
M  V30 616 H 62.7601 -5.36462 1.1619 0
M  V30 617 H 63.0211 -4.41146 -0.29029 0
M  V30 618 N 62.0802 -0.821533 -1.34494 0
M  V30 619 C 63.4962 -0.507117 -1.51329 0
M  V30 620 C 63.6962 0.968964 -1.76673 0
M  V30 621 O 62.7522 1.75348 -1.81685 0
M  V30 622 C 64.0652 -1.36544 -2.67911 0
M  V30 623 C 65.6132 -1.36242 -2.81793 0
M  V30 624 C 66.0882 -2.2052 -4.01416 0
M  V30 625 N 67.5792 -2.18136 -4.08621 0
M  V30 626 C 68.3142 -2.80095 -5.00334 0
M  V30 627 N 67.8102 -3.51039 -5.9728 0
M  V30 628 N 69.6032 -2.69656 -4.93196 0
M  V30 629 H 61.7542 -1.77729 -1.16302 0
M  V30 630 H 64.0172 -0.757291 -0.570276 0
M  V30 631 H 63.7232 -2.41361 -2.55808 0
M  V30 632 H 63.5972 -1.02917 -3.62888 0
M  V30 633 H 65.9842 -0.322041 -2.93338 0
M  V30 634 H 66.0652 -1.73866 -1.87628 0
M  V30 635 H 65.7092 -3.24607 -3.90631 0
M  V30 636 H 65.6392 -1.80247 -4.94791 0
M  V30 637 H 68.1302 -1.6653 -3.39229 0
M  V30 638 H 68.4432 -3.95565 -6.63889 0
M  V30 639 H 66.7882 -3.55145 -5.97409 0
M  V30 640 H 69.9792 -2.13808 -4.16418 0
M  V30 641 H 70.1522 -3.1823 -5.64476 0
M  V30 642 N 63.5583 1.46682 -0.576371 0
M  V30 643 C 64.5213 2.28707 0.150239 0
M  V30 644 C 65.5213 1.38035 0.824794 0
M  V30 645 O 66.7113 1.60476 0.677719 0
M  V30 646 C 63.8433 3.18248 1.22192 0
M  V30 647 H 65.0363 2.94423 -0.570521 0
M  V30 648 H 62.5893 1.52688 -0.334078 0
M  V30 649 H 63.3243 2.57265 1.97447 0
M  V30 650 H 63.1093 3.85 0.742812 0
M  V30 651 H 64.5993 3.80001 1.73172 0
M  V30 652 N 65.0364 0.313813 1.54444 0
M  V30 653 C 66.4524 -0.0391619 1.59552 0
M  V30 654 C 66.6524 -1.51322 1.33056 0
M  V30 655 O 65.7084 -2.26782 1.11022 0
M  V30 656 C 67.0214 0.370302 2.98411 0
M  V30 657 C 68.5694 0.320139 3.11358 0
M  V30 658 C 69.0444 0.704617 4.52547 0
M  V30 659 N 70.5354 0.657645 4.58508 0
M  V30 660 C 71.2704 0.927453 5.6585 0
M  V30 661 N 70.7664 1.26389 6.81174 0
M  V30 662 N 72.5594 0.853662 5.5558 0
M  V30 663 H 64.7104 1.27433 1.69925 0
M  V30 664 H 66.9734 0.517511 0.794284 0
M  V30 665 H 66.6794 1.39694 3.22767 0
M  V30 666 H 66.5534 -0.269619 3.76235 0
M  V30 667 H 68.9404 -0.697275 2.86744 0
M  V30 668 H 69.0214 0.99486 2.35661 0
M  V30 669 H 68.6654 1.7199 4.77893 0
M  V30 670 H 68.5954 0.00768843 5.26599 0
M  V30 671 H 71.0864 0.409067 3.75679 0
M  V30 672 H 71.3994 1.4554 7.58972 0
M  V30 673 H 69.7444 1.30206 6.82694 0
M  V30 674 H 72.9354 0.590383 4.64362 0
M  V30 675 H 73.1084 1.0673 6.3915 0
M  V30 676 N 66.5145 -1.57545 0.0417849 0
M  V30 677 C 67.4465 -2.07904 -0.964799 0
M  V30 678 C 68.4595 -1.00497 -1.28079 0
M  V30 679 O 69.6485 -1.28087 -1.24322 0
M  V30 680 C 66.7485 -2.49928 -2.28887 0
M  V30 681 C 65.9215 -3.80562 -2.15619 0
M  V30 682 C 64.9805 -4.08999 -3.31069 0
M  V30 683 O 64.0065 -4.79061 -3.0739 0
M  V30 684 N 65.2085 -3.6017 -4.55256 0
M  V30 685 H 67.9735 -2.94886 -0.535029 0
M  V30 686 H 65.5345 -1.61252 -0.144681 0
M  V30 687 H 67.5265 -2.66034 -3.04972 0
M  V30 688 H 66.0965 -1.68245 -2.63463 0
M  V30 689 H 65.3165 -3.74129 -1.24183 0
M  V30 690 H 66.6045 -4.66126 -2.03971 0
M  V30 691 H 66.0025 -3.03512 -4.77386 0
M  V30 692 H 64.5595 -3.81532 -5.28466 0
M  V30 693 N 67.9926 0.231505 -1.5589 0
M  V30 694 C 69.4086 0.580748 -1.48659 0
M  V30 695 C 69.6086 1.87617 -0.73498 0
M  V30 696 O 68.6646 2.51046 -0.270586 0
M  V30 697 C 69.9776 0.669202 -2.93159 0
M  V30 698 C 71.5256 0.760499 -3.03621 0
M  V30 699 C 72.0006 0.880383 -4.49459 0
M  V30 700 N 73.4916 0.944861 -4.53461 0
M  V30 701 C 74.2266 1.05716 -5.63571 0
M  V30 702 N 73.7226 1.13403 -6.83456 0
M  V30 703 N 75.5156 1.09152 -5.514 0
M  V30 704 H 67.6666 -0.618695 -2.03189 0
M  V30 705 H 69.9296 -0.215728 -0.923128 0
M  V30 706 H 69.6356 -0.212904 -3.51055 0
M  V30 707 H 69.5096 1.5361 -3.44505 0
M  V30 708 H 71.8966 1.63305 -2.45796 0
M  V30 709 H 71.9776 -0.131864 -2.5546 0
M  V30 710 H 71.6216 0.0123284 -5.07899 0
M  V30 711 H 71.5516 1.78802 -4.95316 0
M  V30 712 H 74.0426 0.896176 -3.6712 0
M  V30 713 H 74.3556 1.21921 -7.63122 0
M  V30 714 H 72.7006 1.10333 -6.86186 0
M  V30 715 H 75.8916 1.02805 -4.56671 0
M  V30 716 H 76.0646 1.17558 -6.37247 0
M  V30 717 N 69.4707 1.49531 0.497807 0
M  V30 718 C 70.4027 1.62559 1.61578 0
M  V30 719 C 71.4157 0.508134 1.54667 0
M  V30 720 O 72.6047 0.780309 1.60541 0
M  V30 721 C 69.7047 1.56925 3.00379 0
M  V30 722 C 68.8777 2.84257 3.3244 0
M  V30 723 C 67.9367 2.71632 4.50669 0
M  V30 724 O 66.9627 3.4557 4.52294 0
M  V30 725 N 68.1647 1.83391 5.5077 0
M  V30 726 H 70.9297 2.58981 1.50828 0
M  V30 727 H 68.4907 1.4666 0.685743 0
M  V30 728 H 70.4827 1.46129 3.77397 0
M  V30 729 H 69.0527 0.683483 3.05037 0
M  V30 730 H 68.2727 3.09381 2.44289 0
M  V30 731 H 69.5607 3.68666 3.5066 0
M  V30 732 H 68.9587 1.22583 5.52259 0
M  V30 733 H 67.5157 1.78515 6.26878 0
M  V30 734 N 70.9488 -0.749086 1.3866 0
M  V30 735 C 72.3648 -1.05276 1.19955 0
M  V30 736 C 72.5648 -2.01435 0.05134 0
M  V30 737 O 71.6208 -2.45232 -0.60147 0
M  V30 738 C 72.9338 -1.62853 2.52783 0
M  V30 739 C 74.4818 -1.75002 2.59506 0
M  V30 740 C 74.9568 -2.35991 3.92521 0
M  V30 741 N 76.4478 -2.43416 3.94085 0
M  V30 742 C 77.1828 -2.91511 4.9377 0
M  V30 743 N 76.6788 -3.39608 6.03853 0
M  V30 744 N 78.4718 -2.90592 4.81157 0
M  V30 745 H 70.6228 -0.111066 2.12109 0
M  V30 746 H 72.8858 -0.111901 0.941373 0
M  V30 747 H 72.5918 -0.99664 3.37283 0
M  V30 748 H 72.4658 -2.61854 2.715 0
M  V30 749 H 74.8528 -2.37317 1.75398 0
M  V30 750 H 74.9338 -0.74693 2.44652 0
M  V30 751 H 74.5778 -1.74308 4.77053 0
M  V30 752 H 74.5078 -3.3695 4.04688 0
M  V30 753 H 76.9988 -2.09405 3.14576 0
M  V30 754 H 77.3118 -3.74775 6.75843 0
M  V30 755 H 75.6568 -3.37653 6.07466 0
M  V30 756 H 78.8478 -2.52332 3.94267 0
M  V30 757 H 79.0208 -3.27762 5.58996 0
M  V30 758 N 72.4269 -1.23603 -0.977757 0
M  V30 759 C 73.3899 -1.02069 -2.05218 0
M  V30 760 C 74.3899 0.0184305 -1.60789 0
M  V30 761 O 75.5799 -0.221569 -1.72785 0
M  V30 762 C 72.7119 -0.544926 -3.36517 0
M  V30 763 H 73.9049 -1.9742 -2.25755 0
M  V30 764 H 71.4579 -1.05684 -1.15155 0
M  V30 765 H 72.1929 0.412241 -3.21669 0
M  V30 766 H 71.9779 -1.2948 -3.70105 0
M  V30 767 H 73.4679 -0.414985 -4.15533 0
M  V30 768 N 73.905 1.17692 -1.04816 0
M  V30 769 C 75.153 1.87488 -0.754497 0
M  V30 770 C 75.474 1.81205 0.720407 0
M  V30 771 O 74.744 1.23544 1.52032 0
M  V30 772 H 73.324 0.694101 -0.276102 0
M  V30 773 H 75.986 1.42793 -1.32651 0
M  V30 774 H 75.082 2.93328 -1.06606 0
M  V30 775 N 75.3831 0.828654 1.34056 0
M  V30 776 C 76.3131 0.269443 2.3194 0
M  V30 777 C 77.2941 -0.617247 1.58506 0
M  V30 778 O 78.4791 -0.542931 1.86456 0
M  V30 779 C 75.6091 -0.564793 3.42677 0
M  V30 780 C 74.5631 0.225241 4.27407 0
M  V30 781 C 73.8891 -0.7321 5.29664 0
M  V30 782 C 75.1891 1.43663 5.02154 0
M  V30 783 H 76.8831 1.08728 2.7896 0
M  V30 784 H 74.4291 0.524283 1.34117 0
M  V30 785 H 76.3821 -0.966233 4.10173 0
M  V30 786 H 75.1061 -1.41574 2.9432 0
M  V30 787 H 73.7651 0.608117 3.61521 0
M  V30 788 H 73.4131 -1.57916 4.77568 0
M  V30 789 H 73.1131 -0.20767 5.87233 0
M  V30 790 H 74.6371 -1.13128 6.00029 0
M  V30 791 H 76.0511 1.1089 5.62473 0
M  V30 792 H 74.4481 1.89711 5.69324 0
M  V30 793 H 75.5181 2.21181 4.31517 0
M  V30 794 N 76.8612 -1.46375 0.584142 0
M  V30 795 C 77.7712 -2.34115 -0.150728 0
M  V30 796 C 78.7872 -1.49838 -0.884567 0
M  V30 797 O 79.9632 -1.82704 -0.847429 0
M  V30 798 C 77.0282 -3.2705 -1.15062 0
M  V30 799 C 76.0892 -4.27228 -0.421293 0
M  V30 800 C 75.3222 -5.15722 -1.37355 0
M  V30 801 O 75.5452 -5.07176 -2.61014 0
M  V30 802 O 74.4792 -5.95383 -0.883355 0
M  V30 803 H 78.3052 -2.98309 0.569708 0
M  V30 804 H 75.8902 -1.45373 0.344535 0
M  V30 805 H 77.7722 -3.84381 -1.72712 0
M  V30 806 H 76.4472 -2.65451 -1.8525 0
M  V30 807 H 75.3542 -3.7358 0.197085 0
M  V30 808 H 76.6872 -4.91616 0.239641 0
M  V30 809 N 78.3393 -0.321999 -1.54275 0
M  V30 810 C 79.2873 0.560206 -2.25753 0
M  V30 811 C 80.2813 1.11984 -1.27106 0
M  V30 812 O 81.4873 1.06806 -1.44888 0
M  V30 813 H 77.8623 0.199304 -0.725108 0
M  V30 814 H 79.8333 -0.0649365 -2.98329 0
M  V30 815 C 78.5823 1.71023 -3.02731 0
M  V30 816 H 77.9053 1.28885 -3.78456 0
M  V30 817 H 79.3453 2.30314 -3.55993 0
M  V30 818 C 77.8043 2.62692 -2.10938 0
M  V30 819 O 78.3343 3.64364 -1.6912 0
M  V30 820 N 76.5403 2.30891 -1.76459 0
M  V30 821 H 76.0873 1.48253 -2.10663 0
M  V30 822 H 76.0453 2.92487 -1.1532 0
M  V30 823 N 79.8174 1.5752 -0.0501392 0
M  V30 824 C 80.7504 2.07026 0.959962 0
M  V30 825 C 81.7284 0.970539 1.30458 0
M  V30 826 O 82.9124 1.2424 1.41763 0
M  V30 827 C 80.0394 2.5099 2.27424 0
M  V30 828 C 79.0854 3.72188 2.08275 0
M  V30 829 S 79.9184 5.17888 1.36207 0
M  V30 830 C 81.0744 5.65165 2.6896 0
M  V30 831 H 81.3074 2.9238 0.538631 0
M  V30 832 H 78.8404 1.53547 0.162099 0
M  V30 833 H 80.7984 2.76982 3.02971 0
M  V30 834 H 79.4594 1.65944 2.66686 0
M  V30 835 H 78.6524 4.00866 3.05487 0
M  V30 836 H 78.2544 3.46457 1.40868 0
M  V30 837 H 80.5464 5.70687 3.65133 0
M  V30 838 H 81.4894 6.64394 2.4492 0
M  V30 839 H 81.8974 4.9289 2.75172 0
M  V30 840 N 81.2955 -0.223234 1.56011 0
M  V30 841 C 82.5725 -0.972108 1.69733 0
M  V30 842 C 82.9525 -2.02485 0.59691 0
M  V30 843 O 82.3005 -2.25037 -0.396324 0
M  V30 844 C 82.5105 -1.58407 3.10979 0
M  V30 845 C 83.8585 -2.07696 3.70334 0
M  V30 846 O 84.8825 -1.68304 3.1393 0
M  V30 847 O 83.7415 -2.80096 4.69264 0
M  V30 848 H 80.8355 -0.453993 0.691245 0
M  V30 849 H 83.3815 -0.215149 1.68331 0
M  V30 850 H 82.1535 -0.823831 3.82529 0
M  V30 851 H 81.7765 -2.40661 3.16493 0
M  V30 852 N 82.7736 -1.49793 -0.48987 0
M  V30 853 C 84.1896 -1.36803 -0.822022 0
M  V30 854 C 84.3896 -0.409652 -1.97292 0
M  V30 855 O 83.4456 0.154614 -2.52026 0
M  V30 856 C 84.7586 -2.77768 -1.15175 0
M  V30 857 C 86.3066 -2.86549 -1.25931 0
M  V30 858 C 86.7816 -4.28306 -1.62228 0
M  V30 859 N 88.2726 -4.31169 -1.69256 0
M  V30 860 C 89.0076 -5.37832 -1.98807 0
M  V30 861 N 88.5036 -6.54726 -2.26507 0
M  V30 862 N 90.2966 -5.25258 -2.00152 0
M  V30 863 H 82.4476 -2.10691 0.268881 0
M  V30 864 H 84.7106 -0.946241 0.057728 0
M  V30 865 H 84.4166 -3.49648 -0.379335 0
M  V30 866 H 84.2906 -3.13836 -2.09253 0
M  V30 867 H 86.6776 -2.14899 -2.02243 0
M  V30 868 H 86.7586 -2.54049 -0.298776 0
M  V30 869 H 86.4026 -5.00486 -0.864622 0
M  V30 870 H 86.3326 -4.58279 -2.594 0
M  V30 871 H 88.8236 -3.4687 -1.49965 0
M  V30 872 H 89.1366 -7.31833 -2.48276 0
M  V30 873 H 87.4816 -6.57933 -2.23939 0
M  V30 874 H 90.6726 -4.32938 -1.77996 0
M  V30 875 H 90.8456 -6.08476 -2.22848 0
M  V30 876 N 84.2517 0.741722 -1.39055 0
M  V30 877 C 85.2147 1.83733 -1.37021 0
M  V30 878 C 86.2147 1.58542 -0.268534 0
M  V30 879 O 87.4047 1.66067 -0.526076 0
M  V30 880 C 84.5367 3.2141 -1.13617 0
M  V30 881 H 85.7297 1.86941 -2.34506 0
M  V30 882 H 83.2827 0.944676 -1.24521 0
M  V30 883 H 84.0177 3.23865 -0.167863 0
M  V30 884 H 83.8027 3.4109 -1.93391 0
M  V30 885 H 85.2927 4.01477 -1.14918 0
M  V30 886 N 85.7298 1.2412 0.971189 0
M  V30 887 C 86.6928 1.03156 2.04674 0
M  V30 888 C 87.6928 -0.00990322 1.60797 0
M  V30 889 O 88.8828 0.230729 1.72665 0
M  V30 890 C 86.0148 0.562765 3.36223 0
M  V30 891 H 87.2078 1.98614 2.24705 0
M  V30 892 H 84.7608 1.06293 1.14593 0
M  V30 893 H 85.4958 -0.395176 3.21883 0
M  V30 894 H 85.2808 1.31441 3.69413 0
M  V30 895 H 86.7708 0.437015 4.15307 0
M  V30 896 N 87.2079 -1.17134 1.05439 0
M  V30 897 C 88.1399 -2.2078 0.615539 0
M  V30 898 C 89.1529 -1.59584 -0.322001 0
M  V30 899 O 90.3419 -1.78133 -0.114344 0
M  V30 900 C 87.4419 -3.38691 -0.118938 0
M  V30 901 C 86.6149 -4.29454 0.829924 0
M  V30 902 C 85.6739 -5.26024 0.136258 0
M  V30 903 O 84.6999 -5.63952 0.77115 0
M  V30 904 N 85.9019 -5.69487 -1.1254 0
M  V30 905 H 88.6669 -2.59052 1.50705 0
M  V30 906 H 86.2279 -1.32058 0.936603 0
M  V30 907 H 88.2199 -4.00329 -0.593179 0
M  V30 908 H 86.7899 -2.98996 -0.91215 0
M  V30 909 H 86.0099 -3.65211 1.48373 0
M  V30 910 H 87.2979 -4.86984 1.47392 0
M  V30 911 H 86.6959 -5.4075 -1.6615 0
M  V30 912 H 85.2529 -6.33257 -1.54366 0
M  V30 913 N 88.686 -0.835752 -1.33615 0
M  V30 914 C 90.102 -0.523139 -1.50783 0
M  V30 915 C 90.302 0.950171 -1.77691 0
M  V30 916 O 89.358 1.73411 -1.83534 0
M  V30 917 C 90.671 -1.39378 -2.66448 0
M  V30 918 C 92.219 -1.39223 -2.80332 0
M  V30 919 C 92.694 -2.24765 -3.99055 0
M  V30 920 N 94.185 -2.22458 -4.06284 0
M  V30 921 C 94.92 -2.85386 -4.97336 0
M  V30 922 N 94.416 -3.57354 -5.93523 0
M  V30 923 N 96.209 -2.74872 -4.90308 0
M  V30 924 H 88.36 -1.78952 -1.14411 0
M  V30 925 H 90.623 -0.763297 -0.562212 0
M  V30 926 H 90.329 -2.44061 -2.53234 0
M  V30 927 H 90.203 -1.0676 -3.61776 0
M  V30 928 H 92.59 -0.353136 -2.92979 0
M  V30 929 H 92.671 -1.75846 -1.85773 0
M  V30 930 H 92.315 -3.28732 -3.87167 0
M  V30 931 H 92.245 -1.85485 -4.92852 0
M  V30 932 H 94.736 -1.70119 -3.37443 0
M  V30 933 H 95.049 -4.02584 -6.59656 0
M  V30 934 H 93.394 -3.61461 -5.93608 0
M  V30 935 H 96.585 -2.18213 -4.14126 0
M  V30 936 H 96.758 -3.24199 -5.61069 0
M  V30 937 N 90.1641 1.46063 -0.591896 0
M  V30 938 C 91.4111 2.02338 -0.0809991 0
M  V30 939 C 91.7391 1.46228 1.28249 0
M  V30 940 O 90.9941 0.620818 1.85592 0
M  V30 941 C 91.2931 3.57391 0.0249813 0
M  V30 942 C 90.9591 4.32583 -1.27211 0
M  V30 943 C 89.6211 4.52844 -1.62745 0
M  V30 944 C 91.9731 4.75687 -2.13005 0
M  V30 945 C 89.3011 5.13462 -2.83855 0
M  V30 946 C 91.6531 5.37644 -3.3335 0
M  V30 947 C 90.3171 5.5613 -3.69155 0
M  V30 948 H 89.5871 0.740407 -0.0296397 0
M  V30 949 H 92.2341 1.75321 -0.770374 0
M  V30 950 H 90.5391 3.83597 0.797537 0
M  V30 951 H 92.2361 3.98621 0.436184 0
M  V30 952 H 88.8261 4.17116 -0.985499 0
M  V30 953 H 93.0101 4.59782 -1.86855 0
M  V30 954 H 88.2661 5.25965 -3.11722 0
M  V30 955 H 92.4401 5.7 -4.00092 0
M  V30 956 H 90.0671 6.0287 -4.63089 0
M  V30 957 N 91.6422 0.330177 1.54103 0
M  V30 958 C 93.0582 -0.0222371 1.59585 0
M  V30 959 C 93.2582 -1.49902 1.34654 0
M  V30 960 O 92.3142 -2.25592 1.13421 0
M  V30 961 C 93.6272 0.401932 2.98002 0
M  V30 962 C 95.1752 0.353145 3.11001 0
M  V30 963 C 95.6502 0.752576 4.51775 0
M  V30 964 N 97.1412 0.706239 4.57784 0
M  V30 965 C 97.8762 0.987417 5.64834 0
M  V30 966 N 97.3722 1.33607 6.79795 0
M  V30 967 N 99.1652 0.91254 5.54643 0
M  V30 968 H 91.3162 1.29228 1.68564 0
M  V30 969 H 93.5792 0.525906 0.78875 0
M  V30 970 H 93.2852 1.4311 3.21267 0
M  V30 971 H 93.1592 -0.229699 3.765 0
M  V30 972 H 95.5462 -0.666822 2.87467 0
M  V30 973 H 95.6272 1.0198 2.34593 0
M  V30 974 H 95.2712 1.77049 4.76042 0
M  V30 975 H 95.2012 0.0635409 5.26562 0
M  V30 976 H 97.6922 0.44889 3.75224 0
M  V30 977 H 98.0052 1.53582 7.57385 0
M  V30 978 H 96.3502 1.37439 6.81275 0
M  V30 979 H 99.5412 0.639601 4.6371 0
M  V30 980 H 99.7142 1.13503 6.37982 0
M  V30 981 N 93.1203 -1.57491 0.0584922 0
M  V30 982 C 94.0503 -2.14988 -0.911178 0
M  V30 983 C 95.0313 -1.07343 -1.31952 0
M  V30 984 O 96.2163 -1.35318 -1.39294 0
M  V30 985 C 93.3463 -2.70078 -2.18347 0
M  V30 986 C 92.3003 -3.82771 -1.91495 0
M  V30 987 C 91.6263 -4.24408 -3.25241 0
M  V30 988 C 92.9263 -5.07592 -1.23075 0
M  V30 989 H 94.6203 -2.96263 -0.432246 0
M  V30 990 H 92.1663 -1.42512 -0.206469 0
M  V30 991 H 94.1193 -3.08943 -2.86587 0
M  V30 992 H 92.8433 -1.86005 -2.68458 0
M  V30 993 H 91.5023 -3.44389 -1.25664 0
M  V30 994 H 91.1503 -3.37275 -3.73168 0
M  V30 995 H 90.8503 -5.00366 -3.08071 0
M  V30 996 H 92.3743 -4.65879 -3.94701 0
M  V30 997 H 93.7883 -5.43857 -1.81362 0
M  V30 998 H 92.1853 -5.88741 -1.16207 0
M  V30 999 H 93.2553 -4.84454 -0.207847 0
M  V30 1000 N 94.5984 0.214957 -1.56127 0
M  V30 1001 C 95.5304 1.29004 -1.89448 0
M  V30 1002 C 96.5434 1.42716 -0.783326 0
M  V30 1003 O 97.7324 1.43496 -1.06166 0
M  V30 1004 C 94.8324 2.66482 -2.09381 0
M  V30 1005 C 94.0054 2.74633 -3.40434 0
M  V30 1006 C 93.0644 3.9317 -3.49719 0
M  V30 1007 O 92.0904 3.812 -4.227 0
M  V30 1008 N 93.2924 5.07765 -2.81346 0
M  V30 1009 H 96.0574 1.00743 -2.82261 0
M  V30 1010 H 93.6184 0.40497 -1.56753 0
M  V30 1011 H 95.6104 3.44173 -2.12901 0
M  V30 1012 H 94.1804 2.87314 -1.23163 0
M  V30 1013 H 93.4004 1.83368 -3.48955 0
M  V30 1014 H 94.6884 2.77054 -4.26754 0
M  V30 1015 H 94.0864 5.20386 -2.21843 0
M  V30 1016 H 92.6434 5.83474 -2.90519 0
M  V30 1017 N 96.0765 1.50051 0.48192 0
M  V30 1018 C 97.0245 1.68635 1.60203 0
M  V30 1019 C 98.0185 0.552184 1.60148 0
M  V30 1020 O 99.2245 0.732377 1.64427 0
M  V30 1021 H 95.5995 0.532081 0.531407 0
M  V30 1022 H 97.5705 2.62616 1.41688 0
M  V30 1023 C 96.3195 1.78775 2.9822 0
M  V30 1024 H 95.6425 2.6543 2.98976 0
M  V30 1025 H 97.0825 1.95806 3.7608 0
M  V30 1026 C 95.5415 0.536849 3.32595 0
M  V30 1027 O 96.0715 -0.328897 4.00351 0
M  V30 1028 N 94.2775 0.394091 2.87915 0
M  V30 1029 H 93.8245 1.09962 2.32951 0
M  V30 1030 H 93.7825 -0.441737 3.11281 0
M  V30 1031 N 97.5546 -0.734337 1.39446 0
M  V30 1032 C 98.9656 -1.31264 1.32766 0
M  V30 1033 C 99.3166 -1.96198 -0.00767497 0
M  V30 1034 O 98.4416 -1.96346 -0.909796 0
M  V30 1035 C 99.0366 -2.38682 2.4045 0
M  V30 1036 C 97.5956 -2.92184 2.37288 0
M  V30 1037 C 96.7426 -1.6576 2.22304 0
M  V30 1038 H 99.6936 -0.531799 1.49525 0
M  V30 1039 H 99.7146 -3.19087 2.07276 0
M  V30 1040 H 99.2266 -1.91392 3.37625 0
M  V30 1041 H 97.3276 -3.43752 1.43754 0
M  V30 1042 H 97.4406 -3.45253 3.3217 0
M  V30 1043 H 95.8046 -1.9012 1.69489 0
M  V30 1044 H 96.5876 -1.20521 3.21449 0
M  V30 1045 N 99.0327 -1.24633 -0.964593 0
M  V30 1046 C 100.31 -0.995809 -1.68354 0
M  V30 1047 C 100.69 0.480964 -2.05548 0
M  V30 1048 O 100.038 1.45599 -1.76105 0
M  V30 1049 C 100.248 -1.92177 -2.91323 0
M  V30 1050 C 101.596 -2.19446 -3.63495 0
M  V30 1051 O 102.62 -1.89855 -3.01386 0
M  V30 1052 O 101.479 -2.69714 -4.75307 0
M  V30 1053 H 98.5727 -0.376854 -0.736146 0
M  V30 1054 H 101.119 -1.35745 -1.0184 0
M  V30 1055 H 99.8907 -2.91938 -2.60553 0
M  V30 1056 H 99.5137 -1.56349 -3.65569 0
M  V30 1057 N 100.511 1.16574 -1.06058 0
M  V30 1058 C 101.441 2.23057 -0.690488 0
M  V30 1059 C 102.422 1.67141 0.315901 0
M  V30 1060 O 103.607 1.93253 0.191556 0
M  V30 1061 C 100.737 3.47222 -0.073625 0
M  V30 1062 C 99.6908 4.16016 -1.00573 0
M  V30 1063 C 99.0168 5.34104 -0.252289 0
M  V30 1064 C 100.317 4.67264 -2.33371 0
M  V30 1065 H 102.011 2.54271 -1.58072 0
M  V30 1066 H 99.5568 1.22218 -0.76149 0
M  V30 1067 H 101.51 4.20939 0.19714 0
M  V30 1068 H 100.234 3.15302 0.85161 0
M  V30 1069 H 98.8928 3.44223 -1.2612 0
M  V30 1070 H 98.5408 4.98437 0.675988 0
M  V30 1071 H 98.2408 5.81072 -0.873455 0
M  V30 1072 H 99.7648 6.10599 0.0109857 0
M  V30 1073 H 101.179 5.32573 -2.12223 0
M  V30 1074 H 99.5758 5.24843 -2.90963 0
M  V30 1075 H 100.646 3.83602 -2.96611 0
M  V30 1076 N 101.989 0.842826 1.3317 0
M  V30 1077 C 103.266 0.362216 1.92217 0
M  V30 1078 C 103.646 -1.15289 1.76838 0
M  V30 1079 O 102.994 -1.96914 1.15919 0
M  V30 1080 C 103.204 0.813495 3.39387 0
M  V30 1081 C 104.552 0.823804 4.16532 0
M  V30 1082 O 105.576 0.757358 3.48055 0
M  V30 1083 O 104.435 0.915193 5.38782 0
M  V30 1084 H 101.529 0.103317 0.820521 0
M  V30 1085 H 104.075 0.928942 1.42017 0
M  V30 1086 H 102.847 1.85624 3.4447 0
M  V30 1087 H 102.47 0.223561 3.96971 0
M  V30 1088 N 103.467 -1.45747 0.599634 0
M  V30 1089 C 104.692 -2.07178 0.0960198 0
M  V30 1090 C 105.117 -1.44268 -1.207 0
M  V30 1091 O 104.475 -0.532503 -1.73303 0
M  V30 1092 C 104.523 -3.60579 -0.0385348 0
M  V30 1093 O 103.627 -3.97713 -1.0908 0
M  V30 1094 H 102.968 -0.660251 0.0704593 0
M  V30 1095 H 105.498 -1.87124 0.827385 0
M  V30 1096 H 105.508 -4.07298 -0.239304 0
M  V30 1097 H 104.183 -4.05756 0.912947 0
M  V30 1098 H 102.76 -3.62678 -0.867135 0
M  V30 1099 N 104.945 -0.338344 -1.53925 0
M  V30 1100 C 105.855 0.529421 -2.28548 0
M  V30 1101 C 106.871 1.11645 -1.3346 0
M  V30 1102 O 108.047 1.13325 -1.66492 0
M  V30 1103 C 105.112 1.66713 -3.03987 0
M  V30 1104 C 104.173 1.11041 -4.14691 0
M  V30 1105 C 103.406 2.19389 -4.86522 0
M  V30 1106 O 103.629 3.40013 -4.57982 0
M  V30 1107 O 102.563 1.83976 -5.73094 0
M  V30 1108 H 106.389 -0.0770399 -3.03602 0
M  V30 1109 H 103.974 -0.103555 -1.49041 0
M  V30 1110 H 105.856 2.32918 -3.5118 0
M  V30 1111 H 104.531 2.25949 -2.31794 0
M  V30 1112 H 103.438 0.413024 -3.71813 0
M  V30 1113 H 104.771 0.562975 -4.8897 0
M  V30 1114 N 106.423 1.57458 -0.0668435 0
M  V30 1115 C 107.386 2.11323 0.887422 0
M  V30 1116 C 108.386 1.03618 1.22964 0
M  V30 1117 O 109.576 1.29626 1.16373 0
M  V30 1118 C 106.708 2.61048 2.19242 0
M  V30 1119 H 107.901 2.96942 0.420194 0
M  V30 1120 H 105.454 1.55239 0.181793 0
M  V30 1121 H 106.189 1.78868 2.70512 0
M  V30 1122 H 105.974 3.39769 1.95702 0
M  V30 1123 H 107.464 3.02814 2.87565 0
M  V30 1124 N 107.901 -0.206675 1.56239 0
M  V30 1125 C 108.831 -1.25909 1.96645 0
M  V30 1126 C 109.812 -1.48097 0.836734 0
M  V30 1127 O 110.997 -1.6003 1.10019 0
M  V30 1128 C 108.127 -2.6058 2.29599 0
M  V30 1129 C 107.081 -2.53024 3.452 0
M  V30 1130 C 106.407 -3.91861 3.63798 0
M  V30 1131 C 107.707 -2.06524 4.79734 0
M  V30 1132 H 109.401 -0.923369 2.84806 0
M  V30 1133 H 106.947 -0.442735 1.37025 0
M  V30 1134 H 108.9 -3.34375 2.56459 0
M  V30 1135 H 107.624 -2.95869 1.38307 0
M  V30 1136 H 106.283 -1.81684 3.18412 0
M  V30 1137 H 105.931 -4.24483 2.69857 0
M  V30 1138 H 105.631 -3.87683 4.4156 0
M  V30 1139 H 107.155 -4.67296 3.93022 0
M  V30 1140 H 108.569 -2.70072 5.05702 0
M  V30 1141 H 106.966 -2.13374 5.60885 0
M  V30 1142 H 108.036 -1.01802 4.74093 0
M  V30 1143 N 109.379 -1.50304 -0.473955 0
M  V30 1144 C 110.309 -1.71886 -1.58042 0
M  V30 1145 C 111.29 -0.567799 -1.60344 0
M  V30 1146 O 112.475 -0.806623 -1.76656 0
M  V30 1147 C 109.605 -1.81036 -2.96384 0
M  V30 1148 C 108.559 -2.962 -3.08949 0
M  V30 1149 C 107.885 -2.9049 -4.48909 0
M  V30 1150 C 109.185 -4.36752 -2.86434 0
M  V30 1151 H 110.879 -2.64527 -1.40234 0
M  V30 1152 H 108.425 -1.27295 -0.673201 0
M  V30 1153 H 110.378 -1.94719 -3.73714 0
M  V30 1154 H 109.102 -0.850147 -3.15341 0
M  V30 1155 H 107.761 -2.82164 -2.3405 0
M  V30 1156 H 107.409 -1.92321 -4.64781 0
M  V30 1157 H 107.109 -3.67802 -4.58253 0
M  V30 1158 H 108.633 -3.06218 -5.28264 0
M  V30 1159 H 110.047 -4.5133 -3.53517 0
M  V30 1160 H 108.444 -5.15493 -3.07225 0
M  V30 1161 H 109.514 -4.49321 -1.82316 0
M  V30 1162 N 110.857 0.726932 -1.39834 0
M  V30 1163 C 111.82 1.82269 -1.38962 0
M  V30 1164 C 112.82 1.58248 -0.285334 0
M  V30 1165 O 114.01 1.65499 -0.54366 0
M  V30 1166 C 111.142 3.20186 -1.17019 0
M  V30 1167 H 112.335 1.84443 -2.36476 0
M  V30 1168 H 109.888 0.931416 -1.25516 0
M  V30 1169 H 110.623 3.23669 -0.202204 0
M  V30 1170 H 110.408 3.3902 -1.96998 0
M  V30 1171 H 111.898 4.00235 -1.1917 0
M  V30 1172 N 112.336 1.25143 0.95797 0
M  V30 1173 C 113.266 1.07711 2.07173 0
M  V30 1174 C 114.247 -0.0128462 1.70095 0
M  V30 1175 O 115.432 0.156061 1.93572 0
M  V30 1176 C 112.562 0.691503 3.40346 0
M  V30 1177 C 111.516 1.73132 3.9142 0
M  V30 1178 C 110.842 1.20049 5.21049 0
M  V30 1179 C 112.142 3.1294 4.1817 0
M  V30 1180 H 113.836 2.00873 2.22014 0
M  V30 1181 H 111.382 0.967191 1.06684 0
M  V30 1182 H 113.335 0.556505 4.17709 0
M  V30 1183 H 112.059 -0.275819 3.25433 0
M  V30 1184 H 110.718 1.8547 3.16222 0
M  V30 1185 H 110.366 0.223499 5.02503 0
M  V30 1186 H 110.066 1.89545 5.56189 0
M  V30 1187 H 111.59 1.07782 6.01012 0
M  V30 1188 H 113.004 3.03775 4.86203 0
M  V30 1189 H 111.401 3.79875 4.64559 0
M  V30 1190 H 112.471 3.6025 3.24573 0
M  V30 1191 N 113.814 -1.1601 1.06675 0
M  V30 1192 C 115.225 -1.68235 0.809565 0
M  V30 1193 C 115.576 -1.8454 -0.666303 0
M  V30 1194 O 114.701 -1.54374 -1.5165 0
M  V30 1195 C 115.296 -3.05585 1.46299 0
M  V30 1196 C 113.855 -3.54915 1.25349 0
M  V30 1197 C 113.002 -2.30804 1.53703 0
M  V30 1198 H 115.953 -1.00318 1.22971 0
M  V30 1199 H 115.974 -3.70174 0.880431 0
M  V30 1200 H 115.486 -2.93686 2.53713 0
M  V30 1201 H 113.587 -3.72067 0.199261 0
M  V30 1202 H 113.7 -4.36774 1.9689 0
M  V30 1203 H 112.064 -2.36007 0.957739 0
M  V30 1204 H 112.847 -2.21499 2.62284 0
M  V30 1205 N 115.292 -0.849877 -1.32721 0
M  V30 1206 C 116.222 -0.306308 -2.31482 0
M  V30 1207 C 117.203 0.591952 -1.59468 0
M  V30 1208 O 118.388 0.513199 -1.87296 0
M  V30 1209 C 115.518 0.510204 -3.43532 0
M  V30 1210 C 114.472 -0.293209 -4.26994 0
M  V30 1211 C 113.798 0.647743 -5.30762 0
M  V30 1212 C 115.098 -1.51634 -4.99804 0
M  V30 1213 H 116.792 -1.13153 -2.77195 0
M  V30 1214 H 114.338 -0.545553 -1.33266 0
M  V30 1215 H 116.291 0.900856 -4.11658 0
M  V30 1216 H 115.015 1.36874 -2.96535 0
M  V30 1217 H 113.674 -0.665555 -3.60508 0
M  V30 1218 H 113.322 1.50299 -4.8002 0
M  V30 1219 H 113.022 0.11422 -5.87489 0
M  V30 1220 H 114.546 1.03567 -6.01753 0
M  V30 1221 H 115.96 -1.19824 -5.60638 0
M  V30 1222 H 114.357 -1.98745 -5.66234 0
M  V30 1223 H 115.427 -2.28018 -4.27943 0
M  V30 1224 N 116.77 1.45427 -0.607355 0
M  V30 1225 C 118.181 1.85756 -0.187535 0
M  V30 1226 C 118.532 1.5077 1.25551 0
M  V30 1227 O 117.657 0.93427 1.95193 0
M  V30 1228 C 118.252 3.37154 -0.333572 0
M  V30 1229 C 116.811 3.76387 0.0315542 0
M  V30 1230 C 115.958 2.69377 -0.658117 0
M  V30 1231 H 118.909 1.36231 -0.81405 0
M  V30 1232 H 118.93 3.78014 0.43428 0
M  V30 1233 H 118.442 3.62586 -1.38393 0
M  V30 1234 H 116.543 3.56571 1.0811 0
M  V30 1235 H 116.656 4.77731 -0.361935 0
M  V30 1236 H 115.02 2.5452 -0.0957873 0
M  V30 1237 H 115.803 2.97646 -1.7106 0
M  V30 1238 N 118.248 0.346503 1.53744 0
M  V30 1239 C 119.18 -0.543316 2.22667 0
M  V30 1240 C 120.193 -1.06159 1.23427 0
M  V30 1241 O 121.382 -0.971235 1.49764 0
M  V30 1242 C 118.482 -1.76076 2.89569 0
M  V30 1243 C 117.655 -1.37727 4.15151 0
M  V30 1244 C 116.714 -2.45471 4.65436 0
M  V30 1245 O 115.74 -2.08655 5.29577 0
M  V30 1246 N 116.942 -3.7677 4.41616 0
M  V30 1247 H 119.707 0.0469703 2.99663 0
M  V30 1248 H 117.268 0.170766 1.60997 0
M  V30 1249 H 119.26 -2.47593 3.20125 0
M  V30 1250 H 117.83 -2.25835 2.16142 0
M  V30 1251 H 117.05 -0.492746 3.91108 0
M  V30 1252 H 118.338 -1.09708 4.96832 0
M  V30 1253 H 117.736 -4.09467 3.90325 0
M  V30 1254 H 116.293 -4.44448 4.7677 0
M  V30 1255 N 119.726 -1.57421 0.075193 0
M  V30 1256 C 120.656 -2.15942 -0.888324 0
M  V30 1257 C 121.637 -1.08737 -1.30806 0
M  V30 1258 O 122.822 -1.36787 -1.37851 0
M  V30 1259 C 119.952 -2.72379 -2.1547 0
M  V30 1260 C 118.906 -3.8478 -1.87425 0
M  V30 1261 C 118.232 -4.27834 -3.20721 0
M  V30 1262 C 119.532 -5.08869 -1.17684 0
M  V30 1263 H 121.226 -2.96705 -0.400799 0
M  V30 1264 H 118.772 -1.42723 -0.191342 0
M  V30 1265 H 120.725 -3.11965 -2.83295 0
M  V30 1266 H 119.449 -1.88841 -2.6647 0
M  V30 1267 H 118.108 -3.45703 -1.22004 0
M  V30 1268 H 117.756 -3.41214 -3.6957 0
M  V30 1269 H 117.456 -5.03605 -3.02746 0
M  V30 1270 H 118.98 -4.70039 -3.89738 0
M  V30 1271 H 120.394 -5.4575 -1.75584 0
M  V30 1272 H 118.791 -5.8994 -1.09956 0
M  V30 1273 H 119.861 -4.84648 -0.156453 0
M  V30 1274 N 121.204 0.198386 -1.56346 0
M  V30 1275 C 122.45 0.920648 -1.80698 0
M  V30 1276 C 122.783 1.83045 -0.648697 0
M  V30 1277 O 122.058 1.91308 0.350925 0
M  V30 1278 C 122.341 1.73971 -3.15287 0
M  V30 1279 C 122.194 0.85485 -4.41602 0
M  V30 1280 C 123.513 2.71296 -3.46535 0
M  V30 1281 H 120.632 0.333261 -0.657348 0
M  V30 1282 H 123.274 0.188198 -1.89066 0
M  V30 1283 H 121.424 2.36416 -3.08285 0
M  V30 1284 H 123.096 0.245362 -4.60647 0
M  V30 1285 H 121.339 0.161398 -4.335 0
M  V30 1286 H 122.01 1.46286 -5.32264 0
M  V30 1287 H 124.486 2.18983 -3.53816 0
M  V30 1288 H 123.362 3.2569 -4.41834 0
M  V30 1289 H 123.623 3.5018 -2.69864 0
M  V30 1290 N 122.682 1.50554 0.465978 0
M  V30 1291 C 123.614 1.65949 1.58093 0
M  V30 1292 C 124.627 0.540827 1.53554 0
M  V30 1293 O 125.816 0.814187 1.5885 0
M  V30 1294 C 122.916 1.63261 2.96983 0
M  V30 1295 C 122.089 2.91245 3.26336 0
M  V30 1296 C 121.148 2.8113 4.44806 0
M  V30 1297 O 120.174 3.55086 4.44862 0
M  V30 1298 N 121.376 1.95032 5.46756 0
M  V30 1299 H 124.141 2.62122 1.45301 0
M  V30 1300 H 121.702 1.48082 0.65448 0
M  V30 1301 H 123.694 1.54101 3.74212 0
M  V30 1302 H 122.264 0.748032 3.03518 0
M  V30 1303 H 121.484 3.14493 2.37672 0
M  V30 1304 H 122.772 3.76022 3.42761 0
M  V30 1305 H 122.17 1.3427 5.49534 0
M  V30 1306 H 120.727 1.91772 6.2295 0
M  V30 1307 N 124.16 -0.719506 1.40217 0
M  V30 1308 C 125.107 -1.83359 1.40172 0
M  V30 1309 C 126.077 -1.64065 0.259206 0
M  V30 1310 O 127.262 -1.85254 0.456677 0
M  V30 1311 C 124.402 -3.2103 1.26624 0
M  V30 1312 C 123.515 -3.51923 2.50548 0
M  V30 1313 C 122.65 -4.79079 2.29471 0
M  V30 1314 C 121.689 -5.02863 3.48992 0
M  V30 1315 N 120.826 -6.2123 3.27135 0
M  V30 1316 H 125.666 -1.82733 2.35399 0
M  V30 1317 H 123.203 -0.892688 1.16917 0
M  V30 1318 H 125.161 -4.00524 1.16776 0
M  V30 1319 H 123.791 -3.20895 0.350176 0
M  V30 1320 H 122.843 -2.67014 2.70939 0
M  V30 1321 H 124.155 -3.6541 3.39525 0
M  V30 1322 H 123.309 -5.66582 2.16955 0
M  V30 1323 H 122.048 -4.67794 1.37913 0
M  V30 1324 H 121.053 -4.13816 3.6199 0
M  V30 1325 H 122.278 -5.16023 4.41472 0
M  V30 1326 H 120.224 -6.11204 2.38256 0
M  V30 1327 H 120.141 -6.35375 4.09675 0
M  V30 1328 H 121.409 -7.11532 3.18344 0
M  V30 1329 N 125.638 -1.25649 -0.95132 0
M  V30 1330 C 126.568 -1.08808 -2.06599 0
M  V30 1331 C 127.549 0.00382547 -1.701 0
M  V30 1332 O 128.734 -0.166325 -1.93486 0
M  V30 1333 C 125.864 -0.709542 -3.39975 0
M  V30 1334 C 124.818 -1.75206 -3.90496 0
M  V30 1335 C 124.144 -1.22811 -5.20405 0
M  V30 1336 C 125.444 -3.15153 -4.16504 0
M  V30 1337 H 127.138 -2.02048 -2.20946 0
M  V30 1338 H 124.684 -0.972835 -1.06169 0
M  V30 1339 H 126.637 -0.578649 -4.17408 0
M  V30 1340 H 125.361 0.258556 -3.25575 0
M  V30 1341 H 124.02 -1.87145 -3.15234 0
M  V30 1342 H 123.668 -0.250145 -5.02378 0
M  V30 1343 H 123.368 -1.92492 -5.55176 0
M  V30 1344 H 124.892 -1.10968 -6.00432 0
M  V30 1345 H 126.306 -3.06349 -4.84586 0
M  V30 1346 H 124.703 -3.82333 -4.62538 0
M  V30 1347 H 125.773 -3.61966 -3.22658 0
M  V30 1348 N 127.117 1.15442 -1.07289 0
M  V30 1349 C 128.067 2.18164 -0.662467 0
M  V30 1350 C 129.051 1.57845 0.312074 0
M  V30 1351 O 130.243 1.76552 0.125905 0
M  V30 1352 C 127.372 3.43246 -0.0611295 0
M  V30 1353 C 126.458 4.1062 -1.06077 0
M  V30 1354 N 126.849 4.53491 -2.24008 0
M  V30 1355 C 125.147 4.36949 -0.893964 0
M  V30 1356 C 125.848 5.05731 -2.87422 0
M  V30 1357 N 124.824 4.99236 -2.15091 0
M  V30 1358 H 128.626 2.49038 -1.56068 0
M  V30 1359 H 126.14 1.32003 -0.945988 0
M  V30 1360 H 128.137 4.16145 0.250792 0
M  V30 1361 H 126.797 3.13854 0.832207 0
M  V30 1362 H 127.808 4.46898 -2.6173 0
M  V30 1363 H 124.485 4.17466 -0.0534693 0
M  V30 1364 H 125.875 5.48865 -3.87553 0
M  V30 1365 N 128.595 0.856903 1.32268 0
M  V30 1366 C 129.82 0.474569 2.01897 0
M  V30 1367 C 130.245 -0.921766 1.63967 0
M  V30 1368 O 129.603 -1.60589 0.84148 0
M  V30 1369 C 129.651 0.623799 3.55164 0
M  V30 1370 O 128.755 -0.342459 4.10976 0
M  V30 1371 H 128.096 0.190422 0.63611 0
M  V30 1372 H 130.626 1.15672 1.68764 0
M  V30 1373 H 130.636 0.512169 4.04773 0
M  V30 1374 H 129.311 1.64202 3.82113 0
M  V30 1375 H 127.888 -0.18688 3.72431 0
M  V30 1376 N 130.073 -1.45103 0.615059 0
M  V30 1377 C 131.489 -1.57137 0.279322 0
M  V30 1378 C 131.689 -1.60523 -1.21797 0
M  V30 1379 O 130.745 -1.53956 -2.00134 0
M  V30 1380 C 132.058 -2.85062 0.957083 0
M  V30 1381 C 133.606 -2.98749 0.933706 0
M  V30 1382 C 134.081 -4.29455 1.59162 0
M  V30 1383 N 135.572 -4.36231 1.55746 0
M  V30 1384 C 136.307 -5.36051 2.0356 0
M  V30 1385 N 135.803 -6.42367 2.59494 0
M  V30 1386 N 137.596 -5.27456 1.94284 0
M  V30 1387 H 129.747 -1.41148 1.58717 0
M  V30 1388 H 132.01 -0.675331 0.665306 0
M  V30 1389 H 131.716 -2.88488 2.01166 0
M  V30 1390 H 131.59 -3.7407 0.48494 0
M  V30 1391 H 133.977 -2.94886 -0.112347 0
M  V30 1392 H 134.058 -2.11132 1.44419 0
M  V30 1393 H 133.702 -4.34077 2.63704 0
M  V30 1394 H 133.632 -5.15901 1.0561 0
M  V30 1395 H 136.123 -3.60011 1.14893 0
M  V30 1396 H 136.436 -7.14793 2.93752 0
M  V30 1397 H 134.781 -6.43097 2.63537 0
M  V30 1398 H 137.972 -4.43308 1.5032 0
M  V30 1399 H 138.145 -6.05099 2.3186 0
M  V30 1400 N 131.551 -0.354651 -1.53558 0
M  V30 1401 C 132.461 0.50515 -2.29097 0
M  V30 1402 C 133.477 1.10223 -1.34636 0
M  V30 1403 O 134.653 1.11553 -1.67684 0
M  V30 1404 C 131.718 1.63479 -3.05738 0
M  V30 1405 C 130.779 1.06636 -4.15845 0
M  V30 1406 C 130.012 2.14217 -4.88822 0
M  V30 1407 O 130.235 3.35137 -4.61562 0
M  V30 1408 O 129.169 1.77887 -5.75013 0
M  V30 1409 H 132.995 -0.109237 -3.03503 0
M  V30 1410 H 130.58 -0.119357 -1.48922 0
M  V30 1411 H 132.462 2.2918 -3.5363 0
M  V30 1412 H 131.137 2.23478 -2.34178 0
M  V30 1413 H 130.044 0.373565 -3.7223 0
M  V30 1414 H 131.377 0.511081 -4.89539 0
M  V30 1415 N 133.029 1.57378 -0.0835403 0
M  V30 1416 C 133.959 2.1641 0.87686 0
M  V30 1417 C 134.94 1.09429 1.30228 0
M  V30 1418 O 136.125 1.37516 1.37124 0
M  V30 1419 C 133.255 2.73517 2.14022 0
M  V30 1420 C 132.209 3.85769 1.85381 0
M  V30 1421 C 131.535 4.29529 3.18448 0
M  V30 1422 C 132.835 5.09486 1.14984 0
M  V30 1423 H 134.529 2.96914 0.385059 0
M  V30 1424 H 132.075 1.42823 0.18377 0
M  V30 1425 H 134.028 3.13463 2.81636 0
M  V30 1426 H 132.752 1.90252 2.65465 0
M  V30 1427 H 131.411 3.46345 1.20169 0
M  V30 1428 H 131.059 3.43169 3.67755 0
M  V30 1429 H 130.759 5.05204 3.00071 0
M  V30 1430 H 132.283 4.72099 3.8724 0
M  V30 1431 H 133.697 5.46674 1.72687 0
M  V30 1432 H 132.094 5.90515 1.06826 0
M  V30 1433 H 133.164 4.84724 0.130749 0
M  V30 1434 N 134.507 -0.190092 1.56449 0
M  V30 1435 C 135.47 -1.21925 1.9408 0
M  V30 1436 C 136.47 -1.38176 0.822431 0
M  V30 1437 O 137.66 -1.35903 1.08977 0
M  V30 1438 C 134.792 -2.58773 2.21922 0
M  V30 1439 H 135.985 -0.897464 2.86157 0
M  V30 1440 H 133.538 -0.43181 1.50217 0
M  V30 1441 H 134.273 -2.95998 1.32499 0
M  V30 1442 H 134.058 -2.48348 3.03424 0
M  V30 1443 H 135.548 -3.32978 2.52022 0
M  V30 1444 N 135.985 -1.50799 -0.457987 0
M  V30 1445 C 137.396 -1.55152 -1.0385 0
M  V30 1446 C 137.747 -0.362719 -1.92818 0
M  V30 1447 O 136.872 0.522915 -2.09987 0
M  V30 1448 C 137.467 -2.81173 -1.89017 0
M  V30 1449 C 136.026 -2.88164 -2.42154 0
M  V30 1450 C 135.173 -2.49591 -1.20829 0
M  V30 1451 H 138.124 -1.56874 -0.240068 0
M  V30 1452 H 138.145 -2.63769 -2.74238 0
M  V30 1453 H 137.657 -3.67677 -1.24238 0
M  V30 1454 H 135.758 -2.06042 -3.10447 0
M  V30 1455 H 135.871 -3.91356 -2.76364 0
M  V30 1456 H 134.235 -2.02322 -1.54719 0
M  V30 1457 H 135.018 -3.38418 -0.576927 0
M  V30 1458 N 137.463 0.71206 -1.40597 0
M  V30 1459 C 138.373 1.8562 -1.43466 0
M  V30 1460 C 139.389 1.70902 -0.326902 0
M  V30 1461 O 140.565 1.93105 -0.572043 0
M  V30 1462 C 137.63 3.21451 -1.29884 0
M  V30 1463 C 136.691 3.48398 -2.50833 0
M  V30 1464 C 135.924 4.77749 -2.3789 0
M  V30 1465 O 136.147 5.53089 -1.39459 0
M  V30 1466 O 135.081 5.05111 -3.27333 0
M  V30 1467 H 138.907 1.86155 -2.39958 0
M  V30 1468 H 136.492 0.86295 -1.21957 0
M  V30 1469 H 138.374 4.02579 -1.24531 0
M  V30 1470 H 137.049 3.21636 -0.364997 0
M  V30 1471 H 135.956 2.67265 -2.61763 0
M  V30 1472 H 137.289 3.53014 -3.4299 0
M  V30 1473 N 138.941 1.26152 0.944643 0
M  V30 1474 C 139.904 1.07474 2.0244 0
M  V30 1475 C 140.904 0.0242064 1.60782 0
M  V30 1476 O 142.094 0.267302 1.72137 0
M  V30 1477 C 139.226 0.633956 3.34953 0
M  V30 1478 H 140.419 2.03336 2.20442 0
M  V30 1479 H 137.972 1.087 1.12312 0
M  V30 1480 H 138.707 -0.326811 3.22649 0
M  V30 1481 H 138.492 1.39247 3.66542 0
M  V30 1482 H 139.982 0.52501 4.14287 0
M  V30 1483 N 140.419 -1.14872 1.07899 0
M  V30 1484 C 141.665 -1.86064 0.806725 0
M  V30 1485 C 141.998 -1.82434 -0.665706 0
M  V30 1486 O 141.273 -1.25138 -1.48899 0
M  V30 1487 C 141.556 -3.34929 1.32267 0
M  V30 1488 C 141.409 -3.47161 2.86006 0
M  V30 1489 C 142.728 -4.29863 0.943717 0
M  V30 1490 H 139.847 -0.675591 0.294526 0
M  V30 1491 H 142.489 -1.34925 1.33773 0
M  V30 1492 H 140.639 -3.78611 0.870974 0
M  V30 1493 H 142.311 -3.12302 3.39507 0
M  V30 1494 H 140.554 -2.88539 3.23925 0
M  V30 1495 H 141.225 -4.51777 3.17177 0
M  V30 1496 H 143.701 -3.9417 1.33302 0
M  V30 1497 H 142.577 -5.32494 1.33198 0
M  V30 1498 H 142.838 -4.41846 -0.149796 0
M  V30 1499 N 141.898 -0.863906 -1.31812 0
M  V30 1500 C 142.828 -0.330843 -2.31144 0
M  V30 1501 C 143.809 0.575005 -1.60087 0
M  V30 1502 O 144.994 0.493304 -1.8783 0
M  V30 1503 C 142.124 0.47374 -3.44054 0
M  V30 1504 C 141.078 -0.338481 -4.26659 0
M  V30 1505 C 140.404 0.591412 -5.31419 0
M  V30 1506 C 141.704 -1.56926 -4.98168 0
M  V30 1507 H 143.398 -1.16086 -2.75979 0
M  V30 1508 H 140.944 -0.559657 -1.32679 0
M  V30 1509 H 142.897 0.857143 -4.12591 0
M  V30 1510 H 141.621 1.33721 -2.9797 0
M  V30 1511 H 140.28 -0.703754 -3.59782 0
M  V30 1512 H 139.928 1.45199 -4.81587 0
M  V30 1513 H 139.628 0.0519022 -5.87577 0
M  V30 1514 H 141.152 0.97179 -6.02817 0
M  V30 1515 H 142.566 -1.25764 -5.59336 0
M  V30 1516 H 140.963 -2.04739 -5.64094 0
M  V30 1517 H 142.033 -2.32544 -4.25501 0
M  V30 1518 N 143.376 1.44774 -0.622745 0
M  V30 1519 C 144.623 2.02121 -0.1239 0
M  V30 1520 C 144.951 1.48915 1.25118 0
M  V30 1521 O 144.206 0.660045 1.84233 0
M  V30 1522 C 144.505 3.57364 -0.0508323 0
M  V30 1523 C 144.171 4.29787 -1.36358 0
M  V30 1524 C 142.833 4.4929 -1.72314 0
M  V30 1525 C 145.185 4.71062 -2.23048 0
M  V30 1526 C 142.513 5.07325 -2.94682 0
M  V30 1527 C 144.865 5.30452 -3.44679 0
M  V30 1528 C 143.529 5.48175 -3.80868 0
M  V30 1529 H 142.799 0.739612 -0.0453381 0
M  V30 1530 H 145.446 1.73648 -0.807389 0
M  V30 1531 H 143.751 3.85202 0.715991 0
M  V30 1532 H 145.448 3.99456 0.351533 0
M  V30 1533 H 142.038 4.14932 -1.07375 0
M  V30 1534 H 146.222 4.55715 -1.96565 0
M  V30 1535 H 141.478 5.19235 -3.22809 0
M  V30 1536 H 145.652 5.61385 -4.12092 0
M  V30 1537 H 143.279 5.92912 -4.75773 0
M  V30 1538 N 144.854 0.36279 1.53368 0
M  V30 1539 C 146.082 -0.228613 2.05633 0
M  V30 1540 C 146.497 -1.42676 1.23649 0
M  V30 1541 O 145.854 -1.80394 0.27647 0
M  V30 1542 C 145.905 -0.624845 3.56059 0
M  V30 1543 O 145.626 0.525675 4.34935 0
M  V30 1544 C 147.127 -1.27493 4.24571 0
M  V30 1545 H 144.347 -0.0407183 0.669763 0
M  V30 1546 H 146.891 0.520352 1.97769 0
M  V30 1547 H 145.046 -1.32373 3.64083 0
M  V30 1548 H 145.46 0.205969 5.24095 0
M  V30 1549 H 146.934 -1.50277 5.31151 0
M  V30 1550 H 147.411 -2.23439 3.78116 0
M  V30 1551 H 148.017 -0.617558 4.20792 0
M  V30 1552 N 146.332 -1.57332 0.0918853 0
M  V30 1553 C 147.562 -1.98286 -0.580205 0
M  V30 1554 C 147.97 -0.969713 -1.6246 0
M  V30 1555 O 147.313 0.0493501 -1.83634 0
M  V30 1556 C 147.375 -3.35603 -1.28882 0
M  V30 1557 C 147.039 -4.55285 -0.395559 0
M  V30 1558 C 148.036 -5.18687 0.355002 0
M  V30 1559 C 145.721 -5.01314 -0.314556 0
M  V30 1560 C 147.715 -6.26484 1.17458 0
M  V30 1561 C 145.402 -6.08979 0.508677 0
M  V30 1562 C 146.4 -6.71429 1.2519 0
M  V30 1563 O 146.088 -7.77018 2.06151 0
M  V30 1564 H 145.82 -0.656678 -0.160466 0
M  V30 1565 H 148.374 -2.04721 0.16688 0
M  V30 1566 H 146.604 -3.25842 -2.08241 0
M  V30 1567 H 148.293 -3.61026 -1.85512 0
M  V30 1568 H 149.059 -4.84058 0.302134 0
M  V30 1569 H 144.938 -4.5247 -0.882697 0
M  V30 1570 H 148.482 -6.75159 1.75518 0
M  V30 1571 H 144.379 -6.4304 0.563037 0
M  V30 1572 H 145.147 -7.93991 1.98799 0
M  V30 1573 N 147.81 0.181792 -1.56548 0
M  V30 1574 C 149.056 0.901431 -1.81665 0
M  V30 1575 C 149.389 1.82347 -0.668075 0
M  V30 1576 O 148.664 1.91669 0.330615 0
M  V30 1577 C 148.947 1.70618 -3.17115 0
M  V30 1578 C 148.8 0.807964 -4.42484 0
M  V30 1579 C 150.119 2.67605 -3.49393 0
M  V30 1580 H 147.238 0.32627 -0.660846 0
M  V30 1581 H 149.88 0.168134 -1.89255 0
M  V30 1582 H 148.03 2.33133 -3.10775 0
M  V30 1583 H 149.702 0.19649 -4.60881 0
M  V30 1584 H 147.945 0.115411 -4.33646 0
M  V30 1585 H 148.616 1.40632 -5.33785 0
M  V30 1586 H 151.092 2.15218 -3.56118 0
M  V30 1587 H 149.968 3.20985 -4.45264 0
M  V30 1588 H 150.229 3.47298 -2.73563 0
M  V30 1589 N 149.288 1.51039 0.449983 0
M  V30 1590 C 150.536 1.62759 1.19808 0
M  V30 1591 C 150.857 0.339981 1.92013 0
M  V30 1592 O 150.127 -0.643606 1.85026 0
M  V30 1593 H 148.707 0.599811 0.445237 0
M  V30 1594 H 151.369 1.87914 0.517138 0
M  V30 1595 H 150.465 2.44911 1.93455 0
M  V30 1596 N 150.766 -0.704594 1.40972 0
M  V30 1597 C 151.713 -1.81862 1.42109 0
M  V30 1598 C 152.683 -1.63781 0.276593 0
M  V30 1599 O 153.868 -1.84759 0.4763 0
M  V30 1600 C 151.008 -3.19669 1.30022 0
M  V30 1601 C 150.121 -3.49246 2.54267 0
M  V30 1602 C 149.256 -4.76618 2.3454 0
M  V30 1603 C 148.295 -4.99133 3.54306 0
M  V30 1604 N 147.432 -6.17726 3.33706 0
M  V30 1605 H 152.272 -1.80226 2.37324 0
M  V30 1606 H 149.809 -0.880238 1.17857 0
M  V30 1607 H 151.767 -3.99263 1.21018 0
M  V30 1608 H 150.397 -3.20506 0.384192 0
M  V30 1609 H 149.449 -2.64125 2.73756 0
M  V30 1610 H 150.761 -3.61788 3.43381 0
M  V30 1611 H 149.915 -5.64249 2.22952 0
M  V30 1612 H 148.654 -4.66305 1.42867 0
M  V30 1613 H 147.659 -4.09953 3.66359 0
M  V30 1614 H 148.884 -5.11311 4.4692 0
M  V30 1615 H 146.83 -6.08642 2.44725 0
M  V30 1616 H 146.747 -6.30995 4.16391 0
M  V30 1617 H 148.015 -7.08115 3.25873 0
M  V30 1618 N 152.244 -1.26651 -0.937939 0
M  V30 1619 C 153.207 -1.08546 -2.01867 0
M  V30 1620 C 154.207 -0.0327327 -1.60767 0
M  V30 1621 O 155.397 -0.276427 -1.71993 0
M  V30 1622 C 152.529 -0.651711 -3.34613 0
M  V30 1623 H 153.722 -2.04502 -2.1936 0
M  V30 1624 H 151.275 -1.09294 -1.11734 0
M  V30 1625 H 152.01 0.309696 -3.22818 0
M  V30 1626 H 151.795 -1.41189 -3.65798 0
M  V30 1627 H 153.285 -0.546973 -4.14002 0
M  V30 1628 N 153.722 1.14298 -1.08507 0
M  V30 1629 C 154.968 1.85854 -0.826438 0
M  V30 1630 C 155.323 1.81413 0.640878 0
M  V30 1631 O 154.616 1.23463 1.46518 0
M  V30 1632 C 154.81 3.33547 -1.28379 0
M  V30 1633 C 154.639 3.52369 -2.79403 0
M  V30 1634 C 153.409 3.67159 -3.47164 0
M  V30 1635 C 155.607 3.49203 -3.77573 0
M  V30 1636 N 153.589 3.74149 -4.86709 0
M  V30 1637 C 154.96 3.6245 -5.03021 0
M  V30 1638 C 157.015 3.32547 -3.70563 0
M  V30 1639 C 155.718 3.60761 -6.2229 0
M  V30 1640 C 157.744 3.32162 -4.89308 0
M  V30 1641 C 157.106 3.45949 -6.13595 0
M  V30 1642 H 153.205 0.696705 -0.355143 0
M  V30 1643 H 155.789 1.36981 -1.38362 0
M  V30 1644 H 153.96 3.81008 -0.754166 0
M  V30 1645 H 155.692 3.92867 -0.971469 0
M  V30 1646 H 152.447 3.68433 -2.9758 0
M  V30 1647 H 152.871 3.81359 -5.5937 0
M  V30 1648 H 157.513 3.20797 -2.75407 0
M  V30 1649 H 155.231 3.71286 -7.17755 0
M  V30 1650 H 158.817 3.20485 -4.85573 0
M  V30 1651 H 157.697 3.456 -7.03939 0
M  V30 1652 N 155.201 0.870884 1.31352 0
M  V30 1653 C 156.111 0.330783 2.32256 0
M  V30 1654 C 157.127 -0.559767 1.6475 0
M  V30 1655 O 158.303 -0.456263 1.96164 0
M  V30 1656 C 155.368 -0.458137 3.4366 0
M  V30 1657 C 154.429 0.460482 4.26823 0
M  V30 1658 C 153.662 -0.290881 5.32907 0
M  V30 1659 O 153.885 -1.51885 5.49806 0
M  V30 1660 O 152.819 0.351732 6.00871 0
M  V30 1661 H 156.645 1.16718 2.80376 0
M  V30 1662 H 154.23 0.634285 1.35267 0
M  V30 1663 H 156.112 -0.905343 4.1156 0
M  V30 1664 H 154.787 -1.27106 2.97701 0
M  V30 1665 H 153.694 0.956207 3.61673 0
M  V30 1666 H 155.027 1.23903 4.7635 0
M  V30 1667 N 156.679 -1.44442 0.630414 0
M  V30 1668 C 157.925 -2.02351 0.134816 0
M  V30 1669 C 158.258 -1.4947 -1.23986 0
M  V30 1670 O 157.533 -0.678475 -1.82283 0
M  V30 1671 C 157.816 -3.59898 0.120707 0
M  V30 1672 C 157.669 -4.23063 1.52767 0
M  V30 1673 C 158.988 -4.36585 -0.555127 0
M  V30 1674 H 156.107 -0.73527 0.0504646 0
M  V30 1675 H 158.749 -1.72022 0.806751 0
M  V30 1676 H 156.899 -3.85868 -0.451477 0
M  V30 1677 H 158.571 -4.08202 2.14869 0
M  V30 1678 H 156.814 -3.80586 2.08175 0
M  V30 1679 H 157.485 -5.32071 1.46984 0
M  V30 1680 H 159.961 -4.16044 -0.0685429 0
M  V30 1681 H 158.837 -5.46294 -0.534185 0
M  V30 1682 H 159.098 -4.11138 -1.62535 0
M  V30 1683 N 158.157 -0.370918 -1.53173 0
M  V30 1684 C 159.105 0.488101 -2.27421 0
M  V30 1685 C 160.099 1.07884 -1.30604 0
M  V30 1686 O 161.305 1.02143 -1.48212 0
M  V30 1687 H 157.68 0.176134 -0.731082 0
M  V30 1688 H 159.651 -0.159815 -2.97972 0
M  V30 1689 C 158.4 1.61306 -3.08019 0
M  V30 1690 H 157.723 1.1678 -3.82364 0
M  V30 1691 H 159.163 2.18872 -3.63141 0
M  V30 1692 C 157.622 2.55848 -2.19188 0
M  V30 1693 O 158.152 3.58799 -1.80626 0
M  V30 1694 N 156.358 2.2516 -1.83715 0
M  V30 1695 H 155.905 1.41476 -2.15273 0
M  V30 1696 H 155.863 2.8867 -1.24567 0
M  V30 1697 N 159.635 1.57281 -0.100228 0
M  V30 1698 C 160.582 2.14305 0.856858 0
M  V30 1699 C 161.552 1.06296 1.27634 0
M  V30 1700 O 162.737 1.34109 1.35718 0
M  V30 1701 C 159.877 2.73184 2.10866 0
M  V30 1702 C 158.99 3.95442 1.73925 0
M  V30 1703 C 158.125 4.42468 2.93931 0
M  V30 1704 C 157.164 5.57303 2.5314 0
M  V30 1705 N 156.301 5.99158 3.65997 0
M  V30 1706 H 161.141 2.95772 0.363726 0
M  V30 1707 H 158.678 1.46139 0.167858 0
M  V30 1708 H 160.636 3.05442 2.84185 0
M  V30 1709 H 159.266 1.94437 2.57671 0
M  V30 1710 H 158.318 3.69464 0.905554 0
M  V30 1711 H 159.63 4.78769 1.39935 0
M  V30 1712 H 158.784 4.76537 3.75496 0
M  V30 1713 H 157.523 3.58052 3.31134 0
M  V30 1714 H 156.528 5.22857 1.70003 0
M  V30 1715 H 157.753 6.43471 2.17075 0
M  V30 1716 H 155.699 5.17687 4.02909 0
M  V30 1717 H 155.616 6.77295 3.35869 0
M  V30 1718 H 156.884 6.3786 4.48057 0
M  V30 1719 N 161.113 -0.173488 1.56642 0
M  V30 1720 C 162.361 -0.888706 1.81512 0
M  V30 1721 C 162.682 -1.82875 0.676872 0
M  V30 1722 O 161.952 -1.93536 -0.303414 0
M  V30 1723 H 160.532 -0.331164 0.669582 0
M  V30 1724 H 163.194 -0.173823 1.94123 0
M  V30 1725 H 162.29 -1.46691 2.75478 0
M  V30 1726 N 162.591 -1.51276 -0.441967 0
M  V30 1727 C 163.819 -1.67516 -1.21434 0
M  V30 1728 C 164.234 -0.37055 -1.85128 0
M  V30 1729 O 163.591 0.650498 -1.70513 0
M  V30 1730 C 163.642 -2.78748 -2.30177 0
M  V30 1731 O 163.363 -4.04154 -1.69089 0
M  V30 1732 C 164.864 -3.06217 -3.20541 0
M  V30 1733 H 162.084 -0.562276 -0.366178 0
M  V30 1734 H 164.628 -1.97666 -0.524244 0
M  V30 1735 H 162.783 -2.5121 -2.94911 0
M  V30 1736 H 163.197 -4.65894 -2.40922 0
M  V30 1737 H 164.671 -3.8764 -3.92987 0
M  V30 1738 H 165.148 -2.18439 -3.81026 0
M  V30 1739 H 165.754 -3.35397 -2.61513 0
M  V30 1740 N 164.069 0.697108 -1.41344 0
M  V30 1741 C 165.017 1.83237 -1.43272 0
M  V30 1742 C 166.011 1.66522 -0.310947 0
M  V30 1743 O 167.217 1.73402 -0.482899 0
M  V30 1744 H 163.592 0.603802 -0.448249 0
M  V30 1745 H 165.563 1.78727 -2.38954 0
M  V30 1746 C 164.312 3.21245 -1.33029 0
M  V30 1747 H 163.635 3.34723 -2.18633 0
M  V30 1748 H 165.075 4.00763 -1.38439 0
M  V30 1749 C 163.534 3.36873 -0.0424635 0
M  V30 1750 O 164.064 3.91177 0.913421 0
M  V30 1751 N 162.27 2.90581 0.0331145 0
M  V30 1752 H 161.817 2.46577 -0.745506 0
M  V30 1753 H 161.775 3.01416 0.894199 0
M  V30 1754 N 165.547 1.27147 0.931209 0
M  V30 1755 C 166.787 1.14511 1.69312 0
M  V30 1756 C 167.151 -0.304638 1.89568 0
M  V30 1757 O 168.352 -0.553343 2.63043 0
M  V30 1758 C 166.623 1.90349 3.02493 0
M  V30 1759 S 168.182 1.93884 3.93642 0
M  V30 1760 H 165 0.408858 0.581684 0
M  V30 1761 H 167.602 1.61006 1.10893 0
M  V30 1762 H 166.306 2.94877 2.85439 0
M  V30 1763 H 165.837 1.44333 3.65966 0
M  V30 1764 H 167.852 1.03273 4.85334 0
M  V30 1765 N 167.025 -1.13721 1.09112 0
M  V30 1766 C 168.271 -1.85198 0.826414 0
M  V30 1767 C 168.604 -1.83129 -0.646319 0
M  V30 1768 O 167.879 -1.2671 -1.47563 0
M  V30 1769 C 168.162 -3.33507 1.35812 0
M  V30 1770 C 168.015 -3.44108 2.89672 0
M  V30 1771 C 169.334 -4.28838 0.989256 0
M  V30 1772 H 166.453 -0.67243 0.301675 0
M  V30 1773 H 169.095 -1.33499 1.35197 0
M  V30 1774 H 167.245 -3.77666 0.911082 0
M  V30 1775 H 168.917 -3.08684 3.428 0
M  V30 1776 H 167.16 -2.85087 3.26967 0
M  V30 1777 H 167.831 -4.48388 3.21951 0
M  V30 1778 H 170.307 -3.92734 1.37475 0
M  V30 1779 H 169.183 -5.31051 1.38838 0
M  V30 1780 H 169.444 -4.4198 -0.102924 0
M  V30 1781 N 168.503 -0.877838 -1.30888 0
M  V30 1782 C 169.731 -0.507414 -2.00581 0
M  V30 1783 C 170.146 0.902216 -1.65848 0
M  V30 1784 O 169.503 1.59225 -0.891831 0
M  V30 1785 C 169.554 -0.664162 -3.55347 0
M  V30 1786 O 169.275 -2.01829 -3.8884 0
M  V30 1787 C 170.776 -0.295787 -4.42312 0
M  V30 1788 H 167.996 -0.196866 -0.641471 0
M  V30 1789 H 170.54 -1.18117 -1.66939 0
M  V30 1790 H 168.695 -0.0378619 -3.87381 0
M  V30 1791 H 169.109 -2.03174 -4.8355 0
M  V30 1792 H 170.583 -0.456388 -5.5011 0
M  V30 1793 H 171.06 0.765663 -4.32475 0
M  V30 1794 H 171.666 -0.898113 -4.15709 0
M  V30 1795 N 169.982 1.44106 -0.638065 0
M  V30 1796 C 171.207 2.0685 -0.150916 0
M  V30 1797 C 171.632 1.47417 1.16833 0
M  V30 1798 O 170.99 0.578264 1.71831 0
M  V30 1799 C 171.038 3.60555 -0.05708 0
M  V30 1800 O 170.142 4.00465 0.984972 0
M  V30 1801 H 169.483 0.658151 -0.0879399 0
M  V30 1802 H 172.013 1.84865 -0.876707 0
M  V30 1803 H 172.023 4.07789 0.131232 0
M  V30 1804 H 170.698 4.03193 -1.02021 0
M  V30 1805 H 169.275 3.64849 0.770672 0
M  V30 1806 N 171.46 0.379036 1.52974 0
M  V30 1807 C 172.69 -0.20649 2.05566 0
M  V30 1808 C 173.098 -1.41906 1.25137 0
M  V30 1809 O 172.441 -1.81421 0.288464 0
M  V30 1810 C 172.503 -0.651086 3.53555 0
M  V30 1811 C 172.167 0.446626 4.54812 0
M  V30 1812 C 173.164 1.30079 5.03364 0
M  V30 1813 C 170.849 0.610719 4.98573 0
M  V30 1814 C 172.843 2.30426 5.94292 0
M  V30 1815 C 170.53 1.61754 5.89304 0
M  V30 1816 C 171.528 2.46274 6.37054 0
M  V30 1817 O 171.216 3.45237 7.25994 0
M  V30 1818 H 170.948 -0.0372381 0.674974 0
M  V30 1819 H 173.502 0.539718 1.98182 0
M  V30 1820 H 171.732 -1.44911 3.58522 0
M  V30 1821 H 173.421 -1.16112 3.88938 0
M  V30 1822 H 174.187 1.18527 4.70294 0
M  V30 1823 H 170.066 -0.0374044 4.60985 0
M  V30 1824 H 173.61 2.96432 6.31485 0
M  V30 1825 H 169.507 1.73348 6.21788 0
M  V30 1826 H 170.275 3.41124 7.44027 0
M  V30 1827 N 172.938 -1.57226 0.108567 0
M  V30 1828 C 173.868 -2.17778 -0.84232 0
M  V30 1829 C 174.849 -1.11487 -1.2847 0
M  V30 1830 O 176.034 -1.39681 -1.34918 0
M  V30 1831 C 173.164 -2.76888 -2.09644 0
M  V30 1832 C 172.118 -3.88669 -1.79221 0
M  V30 1833 C 171.444 -4.34541 -3.11574 0
M  V30 1834 C 172.744 -5.11251 -1.06864 0
M  V30 1835 H 174.438 -2.97489 -0.337774 0
M  V30 1836 H 171.984 -1.43097 -0.161025 0
M  V30 1837 H 173.937 -3.17904 -2.76614 0
M  V30 1838 H 172.661 -1.94451 -2.62405 0
M  V30 1839 H 171.32 -3.48213 -1.14644 0
M  V30 1840 H 170.968 -3.48977 -3.62249 0
M  V30 1841 H 170.668 -5.09914 -2.91996 0
M  V30 1842 H 172.192 -4.782 -3.7968 0
M  V30 1843 H 173.606 -5.49352 -1.63968 0
M  V30 1844 H 172.003 -5.9214 -0.974178 0
M  V30 1845 H 173.073 -4.8487 -0.0536168 0
M  V30 1846 N 174.416 0.165178 -1.56732 0
M  V30 1847 C 175.379 1.18822 -1.95995 0
M  V30 1848 C 176.379 1.3685 -0.84431 0
M  V30 1849 O 177.569 1.34152 -1.11126 0
M  V30 1850 C 174.701 2.5521 -2.26011 0
M  V30 1851 H 175.894 0.851825 -2.87548 0
M  V30 1852 H 173.447 0.407857 -1.50885 0
M  V30 1853 H 174.182 2.93852 -1.37191 0
M  V30 1854 H 173.967 2.43489 -3.07336 0
M  V30 1855 H 175.457 3.28927 -2.57288 0
M  V30 1856 N 175.894 1.51508 0.433938 0
M  V30 1857 C 177.171 1.54888 1.19453 0
M  V30 1858 C 177.551 0.315154 2.08734 0
M  V30 1859 O 176.899 -0.699558 2.17528 0
M  V30 1860 C 177.109 2.86467 1.99342 0
M  V30 1861 C 178.457 3.38545 2.56267 0
M  V30 1862 O 179.481 2.88041 2.0955 0
M  V30 1863 O 178.34 4.26675 3.41483 0
M  V30 1864 H 175.434 0.622863 0.544032 0
M  V30 1865 H 177.98 1.63823 0.442732 0
M  V30 1866 H 176.752 3.67718 1.33788 0
M  V30 1867 H 176.375 2.8071 2.8158 0
M  V30 1868 N 177.372 -0.689602 1.41712 0
M  V30 1869 C 178.612 -1.46184 1.42862 0
M  V30 1870 C 178.976 -1.91962 0.0382204 0
M  V30 1871 O 180.177 -2.68694 -0.0755019 0
M  V30 1872 C 178.448 -2.6371 2.4123 0
M  V30 1873 S 180.007 -3.52768 2.6096 0
M  V30 1874 H 176.825 -0.49947 0.506015 0
M  V30 1875 H 179.427 -0.804107 1.78198 0
M  V30 1876 H 178.131 -2.28293 3.41044 0
M  V30 1877 H 177.662 -3.3437 2.07269 0
M  V30 1878 H 179.677 -4.59146 1.88148 0
M  V30 1879 N 178.85 -1.27639 -0.924453 0
M  V30 1880 C 179.76 -1.12466 -2.05885 0
M  V30 1881 C 180.776 -0.053869 -1.73917 0
M  V30 1882 O 181.952 -0.261012 -1.99702 0
M  V30 1883 C 179.017 -0.776768 -3.37886 0
M  V30 1884 C 178.078 -1.92878 -3.83532 0
M  V30 1885 C 177.311 -1.59739 -5.09234 0
M  V30 1886 O 177.534 -0.506782 -5.68144 0
M  V30 1887 O 176.468 -2.43761 -5.50331 0
M  V30 1888 H 180.294 -2.07671 -2.21599 0
M  V30 1889 H 177.879 -1.06857 -1.04413 0
M  V30 1890 H 179.761 -0.596229 -4.17161 0
M  V30 1891 H 178.436 0.145732 -3.23372 0
M  V30 1892 H 177.343 -2.1644 -3.0513 0
M  V30 1893 H 178.676 -2.8316 -4.02593 0
M  V30 1894 N 180.328 1.1314 -1.09713 0
M  V30 1895 C 181.556 1.88321 -0.856898 0
M  V30 1896 C 181.971 1.79276 0.592073 0
M  V30 1897 O 181.328 1.16142 1.40774 0
M  V30 1898 C 181.379 3.37812 -1.28706 0
M  V30 1899 O 181.1 3.46627 -2.67921 0
M  V30 1900 C 182.601 4.29952 -1.07964 0
M  V30 1901 H 179.821 0.596094 -0.308079 0
M  V30 1902 H 182.365 1.43205 -1.45988 0
M  V30 1903 H 180.52 3.805 -0.727912 0
M  V30 1904 H 180.934 4.39579 -2.8613 0
M  V30 1905 H 182.408 5.33159 -1.42986 0
M  V30 1906 H 182.885 4.39196 -0.0176577 0
M  V30 1907 H 183.491 3.93036 -1.62489 0
M  V30 1908 N 181.806 0.884767 1.30421 0
M  V30 1909 C 182.738 0.308655 2.27112 0
M  V30 1910 C 183.751 -0.536655 1.53701 0
M  V30 1911 O 184.94 -0.35624 1.74909 0
M  V30 1912 C 182.04 -0.579782 3.33904 0
M  V30 1913 C 181.213 0.236417 4.36761 0
M  V30 1914 C 180.272 -0.582482 5.22966 0
M  V30 1915 O 179.298 -0.00525502 5.692 0
M  V30 1916 N 180.5 -1.89163 5.48815 0
M  V30 1917 H 183.265 1.13964 2.77186 0
M  V30 1918 H 180.826 0.747731 1.43599 0
M  V30 1919 H 182.818 -1.13366 3.88497 0
M  V30 1920 H 181.388 -1.31144 2.83761 0
M  V30 1921 H 180.608 0.97174 3.82035 0
M  V30 1922 H 181.896 0.795924 5.02536 0
M  V30 1923 H 181.294 -2.38352 5.13035 0
M  V30 1924 H 179.851 -2.39296 6.06284 0
M  V30 1925 N 183.284 -1.43765 0.645699 0
M  V30 1926 C 184.214 -2.33471 -0.0370477 0
M  V30 1927 C 185.195 -1.49042 -0.819779 0
M  V30 1928 O 186.38 -1.77726 -0.782758 0
M  V30 1929 C 183.51 -3.32311 -1.0093 0
M  V30 1930 C 182.464 -4.2667 -0.337201 0
M  V30 1931 C 181.79 -5.1549 -1.42037 0
M  V30 1932 C 183.09 -5.16657 0.765706 0
M  V30 1933 H 184.784 -2.90809 0.712069 0
M  V30 1934 H 182.33 -1.39834 0.343876 0
M  V30 1935 H 184.283 -3.9396 -1.49578 0
M  V30 1936 H 183.007 -2.73213 -1.78948 0
M  V30 1937 H 181.666 -3.66374 0.128771 0
M  V30 1938 H 181.314 -4.52735 -2.1918 0
M  V30 1939 H 181.014 -5.79438 -0.975966 0
M  V30 1940 H 182.538 -5.80012 -1.90838 0
M  V30 1941 H 183.952 -5.72158 0.361702 0
M  V30 1942 H 182.349 -5.89286 1.13413 0
M  V30 1943 H 183.419 -4.56796 1.62683 0
M  V30 1944 N 184.763 -0.387143 -1.52771 0
M  V30 1945 C 185.988 0.198407 -2.06449 0
M  V30 1946 C 186.413 1.39918 -1.25716 0
M  V30 1947 O 185.771 1.79099 -0.281657 0
M  V30 1948 C 185.819 0.548893 -3.56398 0
M  V30 1949 O 184.923 1.64315 -3.78252 0
M  V30 1950 H 184.264 0.0237731 -0.663574 0
M  V30 1951 H 186.794 -0.553989 -1.96957 0
M  V30 1952 H 186.804 0.813812 -3.99801 0
M  V30 1953 H 185.479 -0.329005 -4.14597 0
M  V30 1954 H 184.056 1.37211 -3.46738 0
M  V30 1955 N 186.241 1.57166 -0.116904 0
M  V30 1956 C 187.173 2.12271 0.864507 0
M  V30 1957 C 188.186 1.06494 1.23138 0
M  V30 1958 O 189.375 1.33873 1.18069 0
M  V30 1959 C 186.475 2.60564 2.16702 0
M  V30 1960 C 185.648 3.90416 1.97216 0
M  V30 1961 C 184.707 4.24329 3.11178 0
M  V30 1962 O 183.733 4.93182 2.84184 0
M  V30 1963 N 184.935 3.8148 4.37554 0
M  V30 1964 H 187.7 2.97102 0.393726 0
M  V30 1965 H 185.261 1.61759 0.0675805 0
M  V30 1966 H 187.253 2.80282 2.91932 0
M  V30 1967 H 185.823 1.80623 2.55135 0
M  V30 1968 H 185.043 3.79627 1.06192 0
M  V30 1969 H 186.331 4.75327 1.81499 0
M  V30 1970 H 185.729 3.25943 4.62361 0
M  V30 1971 H 184.286 4.06311 5.09661 0
M  V30 1972 N 187.719 -0.156864 1.56817 0
M  V30 1973 C 188.682 -1.17781 1.96622 0
M  V30 1974 C 189.682 -1.36401 0.851555 0
M  V30 1975 O 190.872 -1.33561 1.11836 0
M  V30 1976 C 188.004 -2.54008 2.27361 0
M  V30 1977 H 189.197 -0.836564 2.87996 0
M  V30 1978 H 186.75 -0.39985 1.51099 0
M  V30 1979 H 187.485 -2.9312 1.38748 0
M  V30 1980 H 187.27 -2.41856 3.08623 0
M  V30 1981 H 188.76 -3.27558 2.59029 0
M  V30 1982 N 189.197 -1.51736 -0.425897 0
M  V30 1983 C 190.608 -1.5732 -1.00536 0
M  V30 1984 C 190.959 -0.403537 -1.92005 0
M  V30 1985 O 190.084 0.478256 -2.11049 0
M  V30 1986 C 190.679 -2.85119 -1.8301 0
M  V30 1987 C 189.238 -2.93236 -2.35987 0
M  V30 1988 C 188.385 -2.52098 -1.15508 0
M  V30 1989 H 191.336 -1.57348 -0.206739 0
M  V30 1990 H 191.357 -2.69526 -2.68581 0
M  V30 1991 H 190.869 -3.7023 -1.16411 0
M  V30 1992 H 188.97 -2.12581 -3.06007 0
M  V30 1993 H 189.083 -3.9713 -2.68001 0
M  V30 1994 H 187.447 -2.05558 -1.50393 0
M  V30 1995 H 188.23 -3.39565 -0.505014 0
M  V30 1996 N 190.675 0.682077 -1.42076 0
M  V30 1997 C 192.091 0.994324 -1.24841 0
M  V30 1998 C 192.291 2.0096 -0.147389 0
M  V30 1999 O 191.347 2.47822 0.483782 0
M  V30 2000 C 192.66 1.50607 -2.60265 0
M  V30 2001 C 194.208 1.62421 -2.6756 0
M  V30 2002 C 194.683 2.16994 -4.03333 0
M  V30 2003 N 196.174 2.24337 -4.0525 0
M  V30 2004 C 196.909 2.67621 -5.07116 0
M  V30 2005 N 196.405 3.1041 -6.19368 0
M  V30 2006 N 198.198 2.67305 -4.94474 0
M  V30 2007 H 190.349 0.00973908 -2.12398 0
M  V30 2008 H 192.612 0.0668593 -0.945639 0
M  V30 2009 H 192.318 0.834583 -3.41654 0
M  V30 2010 H 192.192 2.48602 -2.83684 0
M  V30 2011 H 194.579 2.28678 -1.86521 0
M  V30 2012 H 194.66 0.629352 -2.47937 0
M  V30 2013 H 194.304 1.51349 -4.84826 0
M  V30 2014 H 194.234 3.17258 -4.20304 0
M  V30 2015 H 196.725 1.94158 -3.24209 0
M  V30 2016 H 197.038 3.42103 -6.92954 0
M  V30 2017 H 195.383 3.08286 -6.22884 0
M  V30 2018 H 198.574 2.33233 -4.05857 0
M  V30 2019 H 198.747 3.00718 -5.73997 0
M  V30 2020 N 192.153 1.28127 0.917671 0
M  V30 2021 C 193.085 1.07517 2.02417 0
M  V30 2022 C 194.098 0.0281099 1.62776 0
M  V30 2023 O 195.287 0.270748 1.76435 0
M  V30 2024 C 192.387 0.610957 3.33347 0
M  V30 2025 C 191.56 1.73255 4.01624 0
M  V30 2026 C 190.619 1.26238 5.10833 0
M  V30 2027 O 189.645 1.96389 5.34247 0
M  V30 2028 N 190.847 0.123448 5.80369 0
M  V30 2029 H 193.612 2.02806 2.20658 0
M  V30 2030 H 191.173 1.19827 1.08871 0
M  V30 2031 H 193.165 0.280101 4.0373 0
M  V30 2032 H 191.735 -0.24898 3.11607 0
M  V30 2033 H 190.955 2.23319 3.24842 0
M  V30 2034 H 192.243 2.48503 4.43986 0
M  V30 2035 H 191.641 -0.461847 5.63812 0
M  V30 2036 H 190.198 -0.148158 6.51632 0
M  V30 2037 N 193.631 -1.12557 1.10312 0
M  V30 2038 C 194.879 -1.83675 0.843091 0
M  V30 2039 C 195.2 -1.84435 -0.633131 0
M  V30 2040 O 194.47 -1.30657 -1.45964 0
M  V30 2041 H 193.05 -0.680138 0.308904 0
M  V30 2042 H 195.712 -1.36301 1.39313 0
M  V30 2043 H 194.808 -2.87908 1.2048 0
M  V30 2044 N 195.109 -0.891671 -1.2995 0
M  V30 2045 C 196.039 -0.379797 -2.30391 0
M  V30 2046 C 197.02 0.540919 -1.6127 0
M  V30 2047 O 198.205 0.453352 -1.88834 0
M  V30 2048 C 195.335 0.400654 -3.44981 0
M  V30 2049 C 194.289 -0.428905 -4.25846 0
M  V30 2050 C 193.615 0.478557 -5.32554 0
M  V30 2051 C 194.915 -1.67458 -4.94727 0
M  V30 2052 H 196.609 -1.21914 -2.73454 0
M  V30 2053 H 194.155 -0.587675 -1.31462 0
M  V30 2054 H 196.108 0.769434 -4.14316 0
M  V30 2055 H 194.832 1.27371 -3.0074 0
M  V30 2056 H 193.491 -0.779911 -3.58208 0
M  V30 2057 H 193.139 1.34951 -4.84559 0
M  V30 2058 H 192.839 -0.0727433 -5.87555 0
M  V30 2059 H 194.363 0.843705 -6.04743 0
M  V30 2060 H 195.777 -1.376 -5.56542 0
M  V30 2061 H 194.174 -2.16659 -5.59624 0
M  V30 2062 H 195.244 -2.41518 -4.20473 0
M  V30 2063 N 196.587 1.43421 -0.653314 0
M  V30 2064 C 197.517 2.33487 0.0246656 0
M  V30 2065 C 198.498 1.49475 0.811863 0
M  V30 2066 O 199.683 1.78139 0.773322 0
M  V30 2067 C 196.813 3.32841 0.99166 0
M  V30 2068 C 195.767 4.26842 0.314568 0
M  V30 2069 C 195.093 5.16236 1.39302 0
M  V30 2070 C 196.393 5.16243 -0.793095 0
M  V30 2071 H 198.087 2.90427 -0.727481 0
M  V30 2072 H 195.633 1.39649 -0.351287 0
M  V30 2073 H 197.586 3.94747 1.47487 0
M  V30 2074 H 196.31 2.74158 1.77497 0
M  V30 2075 H 194.969 3.663 -0.148199 0
M  V30 2076 H 194.617 4.53891 2.16776 0
M  V30 2077 H 194.317 5.79948 0.945223 0
M  V30 2078 H 195.841 5.81015 1.87759 0
M  V30 2079 H 197.255 5.71958 -0.392039 0
M  V30 2080 H 195.652 5.88676 -1.16536 0
M  V30 2081 H 196.722 4.55927 -1.65103 0
M  V30 2082 N 198.065 0.39524 1.52563 0
M  V30 2083 C 199.295 -0.184675 2.05773 0
M  V30 2084 C 199.703 -1.40571 1.26635 0
M  V30 2085 O 199.046 -1.81105 0.30769 0
M  V30 2086 C 199.108 -0.613551 3.54226 0
M  V30 2087 C 198.772 0.49484 4.54313 0
M  V30 2088 C 199.769 1.3541 5.01956 0
M  V30 2089 C 197.454 0.663565 4.97898 0
M  V30 2090 C 199.448 2.36716 5.91814 0
M  V30 2091 C 197.135 1.67996 5.87555 0
M  V30 2092 C 198.133 2.53017 6.34406 0
M  V30 2093 O 197.821 3.52917 7.22291 0
M  V30 2094 H 197.553 -0.030077 0.675331 0
M  V30 2095 H 200.107 0.560708 1.97599 0
M  V30 2096 H 198.337 -1.411 3.60038 0
M  V30 2097 H 200.026 -1.11981 3.90148 0
M  V30 2098 H 200.792 1.23509 4.6901 0
M  V30 2099 H 196.671 0.0114913 4.60999 0
M  V30 2100 H 200.215 3.03113 6.28306 0
M  V30 2101 H 196.112 1.79933 6.19915 0
M  V30 2102 H 196.88 3.48996 7.40367 0
M  V30 2103 N 199.544 -1.57102 0.125237 0
M  V30 2104 C 200.792 -1.95021 -0.530198 0
M  V30 2105 C 201.113 -1.00982 -1.66816 0
M  V30 2106 O 200.383 -0.0672693 -1.95784 0
M  V30 2107 H 198.963 -0.720046 -0.198853 0
M  V30 2108 H 201.625 -1.93916 0.19564 0
M  V30 2109 H 200.721 -2.98211 -0.920681 0
M  V30 2110 N 201.022 0.148545 -1.56898 0
M  V30 2111 C 202.268 0.862694 -1.83536 0
M  V30 2112 C 202.601 1.80889 -0.706604 0
M  V30 2113 O 201.876 1.92328 0.289885 0
M  V30 2114 C 202.159 1.63853 -3.20662 0
M  V30 2115 C 202.012 0.713925 -4.44098 0
M  V30 2116 C 203.331 2.60133 -3.54991 0
M  V30 2117 H 200.45 0.312179 -0.667618 0
M  V30 2118 H 203.092 0.127953 -1.89569 0
M  V30 2119 H 201.242 2.26489 -3.1565 0
M  V30 2120 H 202.914 0.098686 -4.61194 0
M  V30 2121 H 201.157 0.0234019 -4.33794 0
M  V30 2122 H 201.828 1.29278 -5.36648 0
M  V30 2123 H 204.304 2.07616 -3.60603 0
M  V30 2124 H 203.18 3.11468 -4.51972 0
M  V30 2125 H 203.441 3.41417 -2.80868 0
M  V30 2126 N 202.5 1.5196 0.417844 0
M  V30 2127 C 203.911 1.57851 0.997 0
M  V30 2128 C 204.262 0.413714 1.91789 0
M  V30 2129 O 203.387 -0.467057 2.113 0
M  V30 2130 C 203.982 2.86085 1.81496 0
M  V30 2131 C 202.541 2.94483 2.34428 0
M  V30 2132 C 201.688 2.52707 1.14169 0
M  V30 2133 H 204.639 1.57455 0.198392 0
M  V30 2134 H 204.66 2.70947 2.67148 0
M  V30 2135 H 204.172 3.70842 1.14446 0
M  V30 2136 H 202.273 2.142 3.04875 0
M  V30 2137 H 202.386 3.98546 2.65891 0
M  V30 2138 H 200.75 2.06353 1.49301 0
M  V30 2139 H 201.533 3.39828 0.486999 0
M  V30 2140 N 203.978 -0.674533 1.42435 0
M  V30 2141 C 205.224 -1.43671 1.43131 0
M  V30 2142 C 205.557 -1.94142 0.0476021 0
M  V30 2143 O 204.832 -1.70924 -0.928188 0
M  V30 2144 C 205.115 -2.63355 2.45594 0
M  V30 2145 C 204.968 -2.18514 3.93156 0
M  V30 2146 C 206.287 -3.65571 2.45043 0
M  V30 2147 H 203.406 -0.521077 0.521198 0
M  V30 2148 H 206.048 -0.766551 1.7385 0
M  V30 2149 H 204.198 -3.2053 2.19528 0
M  V30 2150 H 205.87 -1.66504 4.30202 0
M  V30 2151 H 204.113 -1.50086 4.07009 0
M  V30 2152 H 204.784 -3.04484 4.60428 0
M  V30 2153 H 207.26 -3.18113 2.68223 0
M  V30 2154 H 206.136 -4.46893 3.18713 0
M  V30 2155 H 206.397 -4.16716 1.47649 0
M  V30 2156 N 205.456 -1.28612 -0.910864 0
M  V30 2157 C 206.681 -1.1891 -1.69927 0
M  V30 2158 C 207.106 0.248372 -1.86453 0
M  V30 2159 O 206.464 1.17961 -1.37676 0
M  V30 2160 C 206.512 -1.89578 -3.06745 0
M  V30 2161 O 205.616 -1.20521 -3.94396 0
M  V30 2162 H 204.957 -0.412632 -0.520222 0
M  V30 2163 H 207.487 -1.69985 -1.1387 0
M  V30 2164 H 207.497 -1.97597 -3.56958 0
M  V30 2165 H 206.172 -2.94136 -2.94035 0
M  V30 2166 H 204.749 -1.20684 -3.52831 0
M  V30 2167 N 206.934 1.1197 -1.10907 0
M  V30 2168 C 207.864 2.19928 -0.784473 0
M  V30 2169 C 208.845 1.6833 0.244726 0
M  V30 2170 O 210.03 1.93892 0.109418 0
M  V30 2171 C 207.16 3.46597 -0.220827 0
M  V30 2172 C 206.114 4.11376 -1.18127 0
M  V30 2173 C 205.44 5.32554 -0.478594 0
M  V30 2174 C 206.74 4.56945 -2.52979 0
M  V30 2175 H 208.434 2.47337 -1.68715 0
M  V30 2176 H 205.98 1.18879 -0.812642 0
M  V30 2177 H 207.933 4.21396 0.0184278 0
M  V30 2178 H 206.657 3.1863 0.717113 0
M  V30 2179 H 205.316 3.38564 -1.40606 0
M  V30 2180 H 204.964 5.00856 0.463976 0
M  V30 2181 H 204.664 5.76844 -1.11912 0
M  V30 2182 H 206.188 6.10096 -0.248 0
M  V30 2183 H 207.602 5.23093 -2.3462 0
M  V30 2184 H 205.999 5.1203 -3.12962 0
M  V30 2185 H 207.069 3.70676 -3.12614 0
M  V30 2186 N 208.412 0.89855 1.29475 0
M  V30 2187 C 209.359 0.373819 2.27753 0
M  V30 2188 C 210.329 -0.543444 1.56958 0
M  V30 2189 O 211.514 -0.468934 1.84948 0
M  V30 2190 C 208.654 -0.393648 3.42848 0
M  V30 2191 C 207.767 0.554379 4.28428 0
M  V30 2192 C 206.902 -0.230026 5.30702 0
M  V30 2193 C 205.941 0.712599 6.07938 0
M  V30 2194 N 205.078 -0.0373283 7.0209 0
M  V30 2195 H 209.918 1.21699 2.72017 0
M  V30 2196 H 207.455 0.611456 1.33789 0
M  V30 2197 H 209.413 -0.85466 4.08352 0
M  V30 2198 H 208.043 -1.20128 2.99615 0
M  V30 2199 H 207.095 1.13391 3.63107 0
M  V30 2200 H 208.407 1.27597 4.82204 0
M  V30 2201 H 207.561 -0.752288 6.02018 0
M  V30 2202 H 206.3 -0.984758 4.77654 0
M  V30 2203 H 205.305 1.24637 5.35486 0
M  V30 2204 H 206.53 1.46664 6.63074 0
M  V30 2205 H 204.476 -0.774348 6.51414 0
M  V30 2206 H 204.393 0.624374 7.53417 0
M  V30 2207 H 205.661 -0.539891 7.77628 0
M  V30 2208 N 209.89 -1.43072 0.660911 0
M  V30 2209 C 210.8 -2.34585 -0.0264163 0
M  V30 2210 C 211.816 -1.54316 -0.803898 0
M  V30 2211 O 212.992 -1.86939 -0.749391 0
M  V30 2212 C 210.057 -3.32689 -0.975639 0
M  V30 2213 C 209.118 -4.2886 -0.194236 0
M  V30 2214 C 208.351 -5.22278 -1.09825 0
M  V30 2215 O 208.574 -5.20299 -2.33763 0
M  V30 2216 O 207.508 -5.99228 -0.566513 0
M  V30 2217 H 211.334 -2.94869 0.727034 0
M  V30 2218 H 208.919 -1.43342 0.42111 0
M  V30 2219 H 210.801 -3.92995 -1.52094 0
M  V30 2220 H 209.476 -2.74898 -1.70918 0
M  V30 2221 H 208.383 -3.72011 0.394835 0
M  V30 2222 H 209.716 -4.89655 0.499899 0
M  V30 2223 N 211.368 -0.403325 -1.52352 0
M  V30 2224 C 212.608 0.173946 -2.03659 0
M  V30 2225 C 212.972 1.42869 -1.28267 0
M  V30 2226 O 214.173 2.08403 -1.69769 0
M  V30 2227 C 212.444 0.421478 -3.54906 0
M  V30 2228 S 214.003 0.967027 -4.28012 0
M  V30 2229 H 210.821 0.0477461 -0.709395 0
M  V30 2230 H 213.423 -0.554906 -1.87459 0
M  V30 2231 H 212.127 -0.498616 -4.0736 0
M  V30 2232 H 211.658 1.17837 -3.75337 0
M  V30 2233 H 213.673 2.24812 -4.4235 0
M  V30 2234 N 212.846 1.57033 -0.133567 0
M  V30 2235 C 214.093 1.95686 0.520877 0
M  V30 2236 C 214.421 1.0177 1.6575 0
M  V30 2237 O 213.676 0.0443195 1.9565 0
M  V30 2238 C 213.975 3.40674 1.08057 0
M  V30 2239 C 213.641 4.50855 0.0637899 0
M  V30 2240 C 212.303 4.80716 -0.215757 0
M  V30 2241 C 214.655 5.17398 -0.62835 0
M  V30 2242 C 211.983 5.74433 -1.19348 0
M  V30 2243 C 214.335 6.12167 -1.5948 0
M  V30 2244 C 212.999 6.40414 -1.88218 0
M  V30 2245 H 212.269 0.716067 0.190602 0
M  V30 2246 H 214.916 1.9026 -0.217556 0
M  V30 2247 H 213.221 3.42865 1.89606 0
M  V30 2248 H 214.918 3.67902 1.59529 0
M  V30 2249 H 211.508 4.27605 0.291855 0
M  V30 2250 H 215.692 4.94472 -0.425562 0
M  V30 2251 H 210.948 5.94616 -1.42272 0
M  V30 2252 H 215.122 6.6281 -2.13671 0
M  V30 2253 H 212.749 7.12838 -2.64133 0
M  V30 2254 N 214.325 -0.140222 1.56975 0
M  V30 2255 C 215.553 -0.866437 1.87884 0
M  V30 2256 C 215.968 -1.74428 0.722517 0
M  V30 2257 O 215.325 -1.79891 -0.30749 0
M  V30 2258 C 215.376 -1.71753 3.18093 0
M  V30 2259 O 215.097 -0.875056 4.29272 0
M  V30 2260 C 216.598 -2.55074 3.62563 0
M  V30 2261 H 213.818 -0.25019 0.622612 0
M  V30 2262 H 216.362 -0.130977 2.0408 0
M  V30 2263 H 214.517 -2.40598 3.03631 0
M  V30 2264 H 214.931 -1.46002 5.03769 0
M  V30 2265 H 216.405 -3.10356 4.5649 0
M  V30 2266 H 216.882 -3.31434 2.88181 0
M  V30 2267 H 217.488 -1.91509 3.79743 0
M  V30 2268 N 215.803 -1.52179 -0.40978 0
M  V30 2269 C 217.033 -1.69807 -1.17682 0
M  V30 2270 C 217.441 -0.406908 -1.84773 0
M  V30 2271 O 216.784 0.626863 -1.72673 0
M  V30 2272 C 216.846 -2.77712 -2.2829 0
M  V30 2273 C 216.51 -4.19481 -1.81341 0
M  V30 2274 C 217.507 -5.03345 -1.30154 0
M  V30 2275 C 215.192 -4.65713 -1.88194 0
M  V30 2276 C 217.186 -6.31511 -0.864416 0
M  V30 2277 C 214.873 -5.93869 -1.44093 0
M  V30 2278 C 215.871 -6.76597 -0.933023 0
M  V30 2279 O 215.559 -8.02354 -0.49838 0
M  V30 2280 H 215.291 -0.572372 -0.359675 0
M  V30 2281 H 217.845 -1.99511 -0.488311 0
M  V30 2282 H 216.075 -2.43383 -3.00502 0
M  V30 2283 H 217.764 -2.83946 -2.90051 0
M  V30 2284 H 218.53 -4.68819 -1.24232 0
M  V30 2285 H 214.409 -4.01424 -2.26671 0
M  V30 2286 H 217.953 -6.96033 -0.467286 0
M  V30 2287 H 213.85 -6.27903 -1.49694 0
M  V30 2288 H 214.618 -8.16135 -0.621747 0
M  V30 2289 N 217.281 0.66697 -1.42791 0
M  V30 2290 C 218.228 1.7803 -1.4688 0
M  V30 2291 C 219.198 1.6299 -0.319919 0
M  V30 2292 O 220.383 1.83432 -0.525118 0
M  V30 2293 C 217.523 3.1611 -1.38451 0
M  V30 2294 C 216.636 3.42381 -2.63437 0
M  V30 2295 C 215.771 4.70232 -2.47094 0
M  V30 2296 C 214.81 4.89564 -3.67415 0
M  V30 2297 N 213.947 6.08661 -3.49966 0
M  V30 2298 H 218.787 1.7387 -2.42019 0
M  V30 2299 H 216.324 0.84868 -1.20149 0
M  V30 2300 H 218.282 3.95914 -1.31561 0
M  V30 2301 H 216.912 3.19374 -0.469033 0
M  V30 2302 H 215.964 2.56774 -2.80662 0
M  V30 2303 H 217.276 3.52557 -3.52853 0
M  V30 2304 H 216.43 5.5814 -2.37834 0
M  V30 2305 H 215.169 4.62353 -1.5518 0
M  V30 2306 H 214.174 4.00096 -3.77099 0
M  V30 2307 H 215.399 4.99282 -4.6032 0
M  V30 2308 H 213.345 6.0194 -2.60776 0
M  V30 2309 H 213.262 6.19733 -4.32975 0
M  V30 2310 H 214.53 6.99226 -3.44532 0
M  V30 2311 N 218.759 1.29093 0.90403 0
M  V30 2312 C 220.007 1.16583 1.65085 0
M  V30 2313 C 220.328 -0.283933 1.92922 0
M  V30 2314 O 219.598 -1.19509 1.55224 0
M  V30 2315 H 218.178 0.428467 0.611903 0
M  V30 2316 H 220.84 1.61959 1.08422 0
M  V30 2317 H 219.936 1.71266 2.6091 0
M  V30 2318 N 220.237 -1.11381 1.11499 0
M  V30 2319 C 221.169 -2.17207 0.731704 0
M  V30 2320 C 222.182 -1.61066 -0.236957 0
M  V30 2321 O 223.371 -1.78489 -0.0197591 0
M  V30 2322 C 220.471 -3.38846 0.0607624 0
M  V30 2323 C 219.644 -4.24451 1.0564 0
M  V30 2324 C 218.703 -5.24562 0.4149 0
M  V30 2325 O 217.729 -5.59071 1.069 0
M  V30 2326 N 218.931 -5.74651 -0.821943 0
M  V30 2327 H 221.696 -2.50699 1.64225 0
M  V30 2328 H 219.257 -1.26908 1.00529 0
M  V30 2329 H 221.249 -4.02911 -0.380139 0
M  V30 2330 H 219.819 -3.03411 -0.752376 0
M  V30 2331 H 219.039 -3.56833 1.67524 0
M  V30 2332 H 220.327 -4.78486 1.72998 0
M  V30 2333 H 219.725 -5.48797 -1.37252 0
M  V30 2334 H 218.282 -6.40549 -1.20582 0
M  V30 2335 N 221.715 -0.905404 -1.28997 0
M  V30 2336 C 222.992 -0.453513 -1.9027 0
M  V30 2337 C 223.372 1.06721 -1.82137 0
M  V30 2338 O 222.72 1.91159 -1.25182 0
M  V30 2339 C 222.93 -0.974494 -3.35119 0
M  V30 2340 C 224.278 -1.0216 -4.12127 0
M  V30 2341 O 225.302 -0.922557 -3.44046 0
M  V30 2342 O 224.161 -1.17121 -5.33802 0
M  V30 2343 H 221.255 -0.142347 -0.814657 0
M  V30 2344 H 223.801 -0.995642 -1.37423 0
M  V30 2345 H 222.573 -2.01848 -3.35221 0
M  V30 2346 H 222.196 -0.412706 -3.95452 0
M  V30 2347 N 223.193 1.4272 -0.668489 0
M  V30 2348 C 224.418 2.06484 -0.194758 0
M  V30 2349 C 224.843 1.49862 1.13679 0
M  V30 2350 O 224.201 0.614582 1.70565 0
M  V30 2351 C 224.249 3.60353 -0.133546 0
M  V30 2352 O 223.353 4.02464 0.899806 0
M  V30 2353 H 222.694 0.656137 -0.10188 0
M  V30 2354 H 225.224 1.82964 -0.915722 0
M  V30 2355 H 225.234 4.07976 0.0447041 0
M  V30 2356 H 223.909 4.00938 -1.1055 0
M  V30 2357 H 222.486 3.66402 0.693109 0
M  V30 2358 N 224.671 0.411399 1.52136 0
M  V30 2359 C 225.899 -0.163076 2.06256 0
M  V30 2360 C 226.314 -1.3867 1.28125 0
M  V30 2361 O 225.671 -1.79423 0.333721 0
M  V30 2362 C 225.722 -0.511252 3.57867 0
M  V30 2363 O 225.443 0.66378 4.33042 0
M  V30 2364 C 226.944 -1.13921 4.28412 0
M  V30 2365 H 224.164 -0.0193897 0.67072 0
M  V30 2366 H 226.708 0.583007 1.96013 0
M  V30 2367 H 224.863 -1.20723 3.6811 0
M  V30 2368 H 225.277 0.372601 5.23175 0
M  V30 2369 H 226.751 -1.33302 5.35663 0
M  V30 2370 H 227.228 -2.11296 3.85033 0
M  V30 2371 H 227.834 -0.483373 4.22544 0
M  V30 2372 N 226.149 -1.5696 0.141893 0
M  V30 2373 C 227.079 -2.19516 -0.795936 0
M  V30 2374 C 228.06 -1.14187 -1.26077 0
M  V30 2375 O 229.245 -1.42511 -1.31925 0
M  V30 2376 C 226.375 -2.81272 -2.03723 0
M  V30 2377 C 225.329 -3.92384 -1.70936 0
M  V30 2378 C 224.655 -4.41052 -3.02287 0
M  V30 2379 C 225.955 -5.13403 -0.959954 0
M  V30 2380 H 227.649 -2.98138 -0.274596 0
M  V30 2381 H 225.195 -1.43406 -0.130636 0
M  V30 2382 H 227.148 -3.237 -2.69808 0
M  V30 2383 H 225.872 -1.99973 -2.58221 0
M  V30 2384 H 224.531 -3.50566 -1.07232 0
M  V30 2385 H 224.179 -3.56582 -3.54765 0
M  V30 2386 H 223.879 -5.15993 -2.81114 0
M  V30 2387 H 225.403 -4.86146 -3.69451 0
M  V30 2388 H 226.817 -5.52706 -1.52279 0
M  V30 2389 H 225.214 -5.94073 -0.848357 0
M  V30 2390 H 226.284 -4.84875 0.0492434 0
M  V30 2391 N 227.627 0.131896 -1.57047 0
M  V30 2392 C 228.875 0.840269 -1.83804 0
M  V30 2393 C 229.196 1.81017 -0.72512 0
M  V30 2394 O 228.466 1.94272 0.251995 0
M  V30 2395 H 227.046 0.313294 -0.678127 0
M  V30 2396 H 229.708 0.122294 -1.94516 0
M  V30 2397 H 228.804 1.39335 -2.79271 0
M  V30 2398 N 229.106 1.52395 0.401703 0
M  V30 2399 C 230.036 1.79231 1.49661 0
M  V30 2400 C 231.017 0.643654 1.57452 0
M  V30 2401 O 232.202 0.889989 1.72606 0
M  V30 2402 C 229.332 1.94971 2.87409 0
M  V30 2403 C 228.286 3.10604 2.94465 0
M  V30 2404 C 227.612 3.11577 4.34538 0
M  V30 2405 C 228.912 4.49921 2.6527 0
M  V30 2406 H 230.606 2.70917 1.27454 0
M  V30 2407 H 228.152 1.30362 0.6117 0
M  V30 2408 H 230.105 2.12328 3.63999 0
M  V30 2409 H 228.829 0.999632 3.10926 0
M  V30 2410 H 227.488 2.93009 2.20321 0
M  V30 2411 H 227.136 2.14277 4.55076 0
M  V30 2412 H 226.836 3.89247 4.40183 0
M  V30 2413 H 228.36 3.31073 5.13053 0
M  V30 2414 H 229.774 4.67683 3.31581 0
M  V30 2415 H 228.171 5.29564 2.82281 0
M  V30 2416 H 229.241 4.57507 1.60671 0
M  V30 2417 N 230.584 -0.659388 1.43143 0
M  V30 2418 C 231.809 -1.45221 1.48073 0
M  V30 2419 C 232.234 -1.87845 0.097995 0
M  V30 2420 O 231.592 -1.56985 -0.90694 0
M  V30 2421 C 231.64 -2.66748 2.42647 0
M  V30 2422 O 230.744 -3.65583 1.90848 0
M  V30 2423 H 230.085 -0.435669 0.501088 0
M  V30 2424 H 232.615 -0.807432 1.87994 0
M  V30 2425 H 232.625 -3.14637 2.59745 0
M  V30 2426 H 231.3 -2.35067 3.43098 0
M  V30 2427 H 229.877 -3.24693 1.83381 0
M  V30 2428 N 232.062 -1.29571 -0.897171 0
M  V30 2429 C 232.992 -1.17473 -2.01798 0
M  V30 2430 C 233.973 -0.068323 -1.69963 0
M  V30 2431 O 235.158 -0.248239 -1.92607 0
M  V30 2432 C 232.288 -0.853099 -3.36659 0
M  V30 2433 C 231.242 -1.9161 -3.82713 0
M  V30 2434 C 230.568 -1.44773 -5.14728 0
M  V30 2435 C 231.868 -3.32535 -4.02763 0
M  V30 2436 H 233.562 -2.11237 -2.12177 0
M  V30 2437 H 231.108 -1.01699 -1.01948 0
M  V30 2438 H 233.061 -0.755165 -4.14578 0
M  V30 2439 H 231.785 0.120236 -3.26379 0
M  V30 2440 H 230.444 -2.00346 -3.07013 0
M  V30 2441 H 230.092 -0.462995 -5.00865 0
M  V30 2442 H 229.792 -2.15865 -5.46513 0
M  V30 2443 H 231.316 -1.36334 -5.95185 0
M  V30 2444 H 232.73 -3.26626 -4.71156 0
M  V30 2445 H 231.127 -4.01607 -4.45905 0
M  V30 2446 H 232.197 -3.75326 -3.07016 0
M  V30 2447 N 233.54 1.10788 -1.12088 0
M  V30 2448 C 234.488 2.19111 -0.780587 0
M  V30 2449 C 235.482 1.67818 0.230961 0
M  V30 2450 O 236.688 1.79777 0.0895427 0
M  V30 2451 H 233.063 0.714477 -0.234578 0
M  V30 2452 H 235.034 2.45055 -1.70266 0
M  V30 2453 C 233.783 3.46818 -0.24747 0
M  V30 2454 H 233.106 3.86646 -1.01712 0
M  V30 2455 H 234.546 4.23973 -0.0476291 0
M  V30 2456 C 233.005 3.20968 1.02378 0
M  V30 2457 O 233.535 3.42298 2.10226 0
M  V30 2458 N 231.741 2.74658 0.949271 0
M  V30 2459 H 231.288 2.57501 0.0715173 0
M  V30 2460 H 231.246 2.57739 1.80049 0
M  V30 2461 N 235.018 0.912232 1.28515 0
M  V30 2462 C 235.928 0.404506 2.31086 0
M  V30 2463 C 236.944 -0.50707 1.66448 0
M  V30 2464 O 238.12 -0.393624 1.97516 0
M  V30 2465 C 235.185 -0.348572 3.44943 0
M  V30 2466 C 234.246 0.59604 4.25142 0
M  V30 2467 C 233.479 -0.121194 5.33562 0
M  V30 2468 O 233.702 -1.34317 5.5436 0
M  V30 2469 O 232.636 0.542716 5.99448 0
M  V30 2470 H 236.462 1.25579 2.76521 0
M  V30 2471 H 234.047 0.676998 1.33181 0
M  V30 2472 H 235.929 -0.77395 4.14232 0
M  V30 2473 H 234.604 -1.17571 3.01594 0
M  V30 2474 H 233.511 1.07079 3.58448 0
M  V30 2475 H 234.844 1.38995 4.72167 0
M  V30 2476 N 236.496 -1.42363 0.676048 0
M  V30 2477 C 237.744 -2.01123 0.198437 0
M  V30 2478 C 238.065 -1.53731 -1.19966 0
M  V30 2479 O 237.335 -0.759518 -1.80577 0
M  V30 2480 H 235.915 -0.743678 0.0703721 0
M  V30 2481 H 238.577 -1.74263 0.872837 0
M  V30 2482 H 237.673 -3.11454 0.200686 0
M  V30 2483 N 237.974 -0.419461 -1.51915 0
M  V30 2484 C 239.22 0.153166 -2.02221 0
M  V30 2485 C 239.553 1.43907 -1.30401 0
M  V30 2486 O 238.828 1.90055 -0.413438 0
M  V30 2487 C 239.111 0.390291 -3.57979 0
M  V30 2488 C 238.964 -0.913014 -4.40436 0
M  V30 2489 C 240.283 1.16794 -4.2432 0
M  V30 2490 H 237.402 0.0541924 -0.735005 0
M  V30 2491 H 240.044 -0.554955 -1.81715 0
M  V30 2492 H 238.194 0.993491 -3.75582 0
M  V30 2493 H 239.866 -1.54882 -4.34522 0
M  V30 2494 H 238.109 -1.52168 -4.06236 0
M  V30 2495 H 238.78 -0.701361 -5.47526 0
M  V30 2496 H 241.256 0.657161 -4.10878 0
M  V30 2497 H 240.132 1.3026 -5.3322 0
M  V30 2498 H 240.393 2.19132 -3.83971 0
M  V30 2499 N 239.452 1.56882 -0.150215 0
M  V30 2500 C 240.863 1.82995 0.370076 0
M  V30 2501 C 241.214 1.06907 1.64515 0
M  V30 2502 O 240.339 0.315369 2.1409 0
M  V30 2503 C 240.934 3.31942 0.678208 0
M  V30 2504 C 239.493 3.58625 1.14301 0
M  V30 2505 C 238.64 2.76792 0.167778 0
M  V30 2506 H 241.591 1.54209 -0.374858 0
M  V30 2507 H 241.612 3.48272 1.53254 0
M  V30 2508 H 241.124 3.87294 -0.249991 0
M  V30 2509 H 239.225 3.08664 2.08704 0
M  V30 2510 H 239.338 4.67073 1.06676 0
M  V30 2511 H 237.702 2.45972 0.661037 0
M  V30 2512 H 238.485 3.34916 -0.754069 0
M  V30 2513 N 240.93 -0.123565 1.57115 0
M  V30 2514 C 241.893 -1.13583 1.99076 0
M  V30 2515 C 242.893 -1.34564 0.880296 0
M  V30 2516 O 244.083 -1.31158 1.14644 0
M  V30 2517 C 241.215 -2.49128 2.32698 0
M  V30 2518 H 242.408 -0.775287 2.89706 0
M  V30 2519 H 239.961 -0.36771 1.51913 0
M  V30 2520 H 240.696 -2.90111 1.44934 0
M  V30 2521 H 240.481 -2.35255 3.13684 0
M  V30 2522 H 241.971 -3.2199 2.65918 0
M  V30 2523 N 242.408 -1.52605 -0.393616 0
M  V30 2524 C 243.318 -1.79971 -1.50492 0
M  V30 2525 C 244.334 -0.686181 -1.59899 0
M  V30 2526 O 245.51 -0.973274 -1.76322 0
M  V30 2527 C 242.575 -1.95867 -2.86072 0
M  V30 2528 C 241.636 -3.19781 -2.86424 0
M  V30 2529 C 240.869 -3.34909 -4.15538 0
M  V30 2530 O 241.092 -2.54948 -5.10253 0
M  V30 2531 O 240.026 -4.28141 -4.23059 0
M  V30 2532 H 243.852 -2.74328 -1.30299 0
M  V30 2533 H 241.437 -1.3764 -0.581005 0
M  V30 2534 H 243.319 -2.08056 -3.66457 0
M  V30 2535 H 241.994 -1.04699 -3.063 0
M  V30 2536 H 240.901 -3.13038 -2.04837 0
M  V30 2537 H 242.234 -4.1078 -2.71147 0
M  V30 2538 N 243.887 0.651787 -1.4349 0
M  V30 2539 C 245.127 1.42345 -1.46688 0
M  V30 2540 C 245.491 1.91793 -0.0891023 0
M  V30 2541 O 246.692 2.688 0.00423594 0
M  V30 2542 C 244.963 2.57221 -2.48137 0
M  V30 2543 S 246.522 3.45725 -2.70221 0
M  V30 2544 H 243.34 0.485878 -0.51908 0
M  V30 2545 H 245.942 0.756578 -1.80267 0
M  V30 2546 H 244.646 2.1917 -3.46976 0
M  V30 2547 H 244.177 3.28757 -2.16061 0
M  V30 2548 H 246.192 4.53996 -2.00255 0
M  V30 2549 N 245.365 1.30045 0.890287 0
M  V30 2550 C 246.642 1.09227 1.62262 0
M  V30 2551 C 247.022 -0.360305 2.08002 0
M  V30 2552 O 246.37 -1.35084 1.84295 0
M  V30 2553 C 246.58 2.08835 2.79623 0
M  V30 2554 C 247.928 2.40266 3.50082 0
M  V30 2555 O 248.952 2.07104 2.89804 0
M  V30 2556 O 247.811 2.96967 4.58773 0
M  V30 2557 H 244.905 0.419132 0.712922 0
M  V30 2558 H 247.451 1.41451 0.937529 0
M  V30 2559 H 246.223 3.06633 2.43089 0
M  V30 2560 H 245.846 1.77397 3.55832 0
M  V30 2561 N 246.843 -1.10192 1.12674 0
M  V30 2562 C 248.068 -1.86523 0.906853 0
M  V30 2563 C 248.493 -1.80221 -0.538711 0
M  V30 2564 O 247.851 -1.17396 -1.38158 0
M  V30 2565 C 247.899 -3.32758 1.3894 0
M  V30 2566 O 247.003 -4.08449 0.5695 0
M  V30 2567 H 246.344 -0.578678 0.325619 0
M  V30 2568 H 248.874 -1.39203 1.49946 0
M  V30 2569 H 248.884 -3.83608 1.38958 0
M  V30 2570 H 247.559 -3.36661 2.44197 0
M  V30 2571 H 246.136 -3.67427 0.636528 0
M  V30 2572 N 248.321 -0.919034 -1.28029 0
M  V30 2573 C 249.567 -0.555757 -1.95036 0
M  V30 2574 C 249.9 0.899198 -1.72128 0
M  V30 2575 O 249.175 1.64023 -1.04531 0
M  V30 2576 C 249.458 -0.872024 -3.49382 0
M  V30 2577 C 249.311 -2.3801 -3.81669 0
M  V30 2578 C 250.63 -0.37185 -4.38526 0
M  V30 2579 H 247.749 -0.203386 -0.708381 0
M  V30 2580 H 250.391 -1.14924 -1.51303 0
M  V30 2581 H 248.541 -0.366946 -3.86763 0
M  V30 2582 H 250.213 -2.9562 -3.54128 0
M  V30 2583 H 248.456 -2.83289 -3.28526 0
M  V30 2584 H 249.127 -2.55192 -4.8947 0
M  V30 2585 H 251.603 -0.804602 -4.08247 0
M  V30 2586 H 250.479 -0.622173 -5.45362 0
M  V30 2587 H 250.74 0.727934 -4.36066 0
M  V30 2588 N 249.799 1.42003 -0.683588 0
M  V30 2589 C 251.045 2.01712 -0.209825 0
M  V30 2590 C 251.378 1.53968 1.18353 0
M  V30 2591 O 250.653 0.745661 1.79639 0
M  V30 2592 C 250.936 3.59202 -0.254197 0
M  V30 2593 C 250.789 4.17102 -1.68363 0
M  V30 2594 C 252.108 4.38344 0.392709 0
M  V30 2595 H 249.227 0.732891 -0.0777189 0
M  V30 2596 H 251.869 1.68909 -0.87004 0
M  V30 2597 H 250.019 3.87278 0.307954 0
M  V30 2598 H 251.691 3.99946 -2.29871 0
M  V30 2599 H 249.934 3.72597 -2.22157 0
M  V30 2600 H 250.605 5.26249 -1.6663 0
M  V30 2601 H 253.081 4.16011 -0.0859162 0
M  V30 2602 H 251.957 5.47901 0.331063 0
M  V30 2603 H 252.218 4.16887 1.47164 0
M  V30 2604 N 251.277 0.427512 1.51691 0
M  V30 2605 C 252.523 -0.142439 2.02299 0
M  V30 2606 C 252.856 -1.43214 1.31162 0
M  V30 2607 O 252.131 -1.89833 0.423511 0
M  V30 2608 C 252.414 -0.371301 3.58181 0
M  V30 2609 C 252.267 0.936358 4.39946 0
M  V30 2610 C 253.586 -1.14542 4.24933 0
M  V30 2611 H 250.705 -0.0502937 0.735282 0
M  V30 2612 H 253.347 0.564584 1.81418 0
M  V30 2613 H 251.497 -0.973559 3.76104 0
M  V30 2614 H 253.169 1.57184 4.33694 0
M  V30 2615 H 251.412 1.5432 4.05423 0
M  V30 2616 H 252.083 0.730388 5.47147 0
M  V30 2617 H 254.559 -0.635362 4.11221 0
M  V30 2618 H 253.435 -1.27431 5.33903 0
M  V30 2619 H 253.696 -2.17093 3.85127 0
M  V30 2620 N 252.755 -1.56801 0.158532 0
M  V30 2621 C 253.705 -2.13923 -0.788738 0
M  V30 2622 C 254.689 -1.07006 -1.2016 0
M  V30 2623 O 255.881 -1.33159 -1.1661 0
M  V30 2624 C 253.01 -2.77348 -2.02319 0
M  V30 2625 C 252.096 -3.91404 -1.6329 0
M  V30 2626 N 252.487 -4.9677 -0.951463 0
M  V30 2627 C 250.785 -4.02326 -1.92482 0
M  V30 2628 C 251.486 -5.76698 -0.761221 0
M  V30 2629 N 250.462 -5.27859 -1.29869 0
M  V30 2630 H 254.264 -2.92757 -0.258995 0
M  V30 2631 H 251.778 -1.62344 -0.0426055 0
M  V30 2632 H 253.775 -3.16639 -2.71192 0
M  V30 2633 H 252.435 -1.99991 -2.558 0
M  V30 2634 H 253.446 -5.14284 -0.610928 0
M  V30 2635 H 250.123 -3.36059 -2.47732 0
M  V30 2636 H 251.513 -6.71529 -0.223284 0
M  V30 2637 N 254.233 0.115231 -1.57178 0
M  V30 2638 C 255.479 0.82357 -1.85325 0
M  V30 2639 C 255.812 1.79349 -0.744814 0
M  V30 2640 O 255.087 1.92899 0.249024 0
M  V30 2641 C 255.37 1.57014 -3.24066 0
M  V30 2642 C 255.223 0.619565 -4.45513 0
M  V30 2643 C 256.542 2.52545 -3.60429 0
M  V30 2644 H 253.661 0.297948 -0.674089 0
M  V30 2645 H 256.303 0.0877138 -1.89797 0
M  V30 2646 H 254.453 2.19742 -3.20383 0
M  V30 2647 H 256.125 0.000837639 -4.613 0
M  V30 2648 H 254.368 -0.0686174 -4.33746 0
M  V30 2649 H 255.039 1.17866 -5.3927 0
M  V30 2650 H 257.515 1.9992 -3.64926 0
M  V30 2651 H 256.391 3.01811 -4.58477 0
M  V30 2652 H 256.652 3.35383 -2.88047 0
M  V30 2653 N 255.711 1.52812 0.385517 0
M  V30 2654 C 256.641 1.80808 1.47752 0
M  V30 2655 C 257.622 0.660318 1.5676 0
M  V30 2656 O 258.807 0.908246 1.71652 0
M  V30 2657 C 255.937 1.98008 2.85324 0
M  V30 2658 C 254.891 3.13709 2.91154 0
M  V30 2659 C 254.217 3.16169 4.31209 0
M  V30 2660 C 255.517 4.52709 2.60483 0
M  V30 2661 H 257.211 2.72253 1.24573 0
M  V30 2662 H 254.757 1.31003 0.597839 0
M  V30 2663 H 256.71 2.16176 3.61726 0
M  V30 2664 H 255.434 1.03255 3.09848 0
M  V30 2665 H 254.093 2.95329 2.17201 0
M  V30 2666 H 253.741 2.19092 4.52778 0
M  V30 2667 H 253.441 3.93894 4.36029 0
M  V30 2668 H 254.965 3.36496 5.09512 0
M  V30 2669 H 256.379 4.71173 3.26602 0
M  V30 2670 H 254.776 5.32528 2.76648 0
M  V30 2671 H 255.846 4.59186 1.55809 0
M  V30 2672 N 257.189 -0.644168 1.43834 0
M  V30 2673 C 258.136 -1.75671 1.49694 0
M  V30 2674 C 259.106 -1.6246 0.345809 0
M  V30 2675 O 260.291 -1.82573 0.554234 0
M  V30 2676 C 257.431 -3.13867 1.43463 0
M  V30 2677 C 256.544 -3.38147 2.6885 0
M  V30 2678 C 255.679 -4.66241 2.54544 0
M  V30 2679 C 254.718 -4.83657 3.75157 0
M  V30 2680 N 253.855 -6.03016 3.59605 0
M  V30 2681 H 258.695 -1.69998 2.44754 0
M  V30 2682 H 256.232 -0.829458 1.21484 0
M  V30 2683 H 258.19 -3.9377 1.37843 0
M  V30 2684 H 256.82 -3.18588 0.519783 0
M  V30 2685 H 255.872 -2.52276 2.84712 0
M  V30 2686 H 257.184 -3.46899 3.58417 0
M  V30 2687 H 256.338 -5.54285 2.46683 0
M  V30 2688 H 255.077 -4.59826 1.62516 0
M  V30 2689 H 254.082 -3.94046 3.83416 0
M  V30 2690 H 255.307 -4.91896 4.68204 0
M  V30 2691 H 253.253 -5.97715 2.7032 0
M  V30 2692 H 253.17 -6.12766 4.42779 0
M  V30 2693 H 254.438 -6.93657 3.55613 0
M  V30 2694 N 258.668 -1.30515 -0.883378 0
M  V30 2695 C 259.598 -1.19607 -2.00541 0
M  V30 2696 C 260.579 -0.086346 -1.69881 0
M  V30 2697 O 261.764 -0.268654 -1.92333 0
M  V30 2698 C 258.894 -0.888758 -3.35736 0
M  V30 2699 C 257.848 -1.95659 -3.8066 0
M  V30 2700 C 257.174 -1.50224 -5.13164 0
M  V30 2701 C 258.474 -3.36788 -3.99213 0
M  V30 2702 H 260.168 -2.13476 -2.09925 0
M  V30 2703 H 257.714 -1.02775 -1.00863 0
M  V30 2704 H 259.667 -0.799094 -4.13754 0
M  V30 2705 H 258.391 0.0856125 -3.26488 0
M  V30 2706 H 257.05 -2.03591 -3.04871 0
M  V30 2707 H 256.698 -0.516092 -5.00345 0
M  V30 2708 H 256.398 -2.2165 -5.44192 0
M  V30 2709 H 257.922 -1.42639 -5.93706 0
M  V30 2710 H 259.336 -3.31605 -4.67665 0
M  V30 2711 H 257.733 -4.06314 -4.41621 0
M  V30 2712 H 258.803 -3.78561 -3.03017 0
M  V30 2713 N 260.146 1.09593 -1.13257 0
M  V30 2714 C 261.078 2.16015 -0.766167 0
M  V30 2715 C 262.091 1.61423 0.211303 0
M  V30 2716 O 263.28 1.78498 -0.00863946 0
M  V30 2717 C 260.38 3.38706 -0.114662 0
M  V30 2718 C 259.553 4.22717 -1.12379 0
M  V30 2719 C 258.612 5.23835 -0.498301 0
M  V30 2720 O 257.638 5.573 -1.15781 0
M  V30 2721 N 258.84 5.75886 0.730417 0
M  V30 2722 H 261.605 2.48055 -1.68193 0
M  V30 2723 H 259.166 1.25292 -1.02535 0
M  V30 2724 H 261.158 4.03464 0.315991 0
M  V30 2725 H 259.728 3.04569 0.704011 0
M  V30 2726 H 258.948 3.54122 -1.73179 0
M  V30 2727 H 260.236 4.75673 -1.80589 0
M  V30 2728 H 259.634 5.50911 1.28504 0
M  V30 2729 H 258.191 6.42387 1.10376 0
M  V30 2730 N 261.624 0.925811 1.2754 0
M  V30 2731 C 262.872 0.564138 1.94067 0
M  V30 2732 C 263.193 -0.897188 1.73134 0
M  V30 2733 O 262.463 -1.63573 1.07799 0
M  V30 2734 H 261.043 0.205645 0.718136 0
M  V30 2735 H 263.705 1.1778 1.55287 0
M  V30 2736 H 262.801 0.76881 3.02483 0
M  V30 2737 N 263.102 -1.41638 0.69111 0
M  V30 2738 C 264.065 -2.29178 0.0319786 0
M  V30 2739 C 265.065 -1.44153 -0.712496 0
M  V30 2740 O 266.255 -1.65354 -0.548053 0
M  V30 2741 C 263.387 -3.26952 -0.965161 0
M  V30 2742 H 264.58 -2.88959 0.802681 0
M  V30 2743 H 262.133 -1.4955 0.454356 0
M  V30 2744 H 262.868 -2.72142 -1.76378 0
M  V30 2745 H 262.653 -3.89685 -0.434522 0
M  V30 2746 H 264.143 -3.92561 -1.42428 0
M  V30 2747 N 264.58 -0.43555 -1.51462 0
M  V30 2748 C 265.826 0.131709 -2.02372 0
M  V30 2749 C 266.159 1.42516 -1.3192 0
M  V30 2750 O 265.434 1.89606 -0.433573 0
M  V30 2751 C 265.717 0.352301 -3.58373 0
M  V30 2752 C 265.57 -0.959676 -4.39443 0
M  V30 2753 C 266.889 1.12286 -4.25535 0
M  V30 2754 H 264.008 0.0463936 -0.735538 0
M  V30 2755 H 266.65 -0.574197 -1.81116 0
M  V30 2756 H 264.8 0.9536 -3.76615 0
M  V30 2757 H 266.472 -1.59482 -4.32855 0
M  V30 2758 H 264.715 -1.56468 -4.04599 0
M  V30 2759 H 265.386 -0.759394 -5.46752 0
M  V30 2760 H 267.862 0.613545 -4.11552 0
M  V30 2761 H 266.738 1.24598 -5.34571 0
M  V30 2762 H 266.999 2.15048 -3.86273 0
M  V30 2763 N 266.058 1.56714 -0.166846 0
M  V30 2764 C 267.469 1.83378 0.350646 0
M  V30 2765 C 267.82 1.08646 1.63372 0
M  V30 2766 O 266.945 0.338058 2.13743 0
M  V30 2767 C 267.54 3.32643 0.642963 0
M  V30 2768 C 266.099 3.59818 1.10491 0
M  V30 2769 C 265.246 2.76954 0.138411 0
M  V30 2770 H 268.197 1.53803 -0.391193 0
M  V30 2771 H 268.218 3.49878 1.49551 0
M  V30 2772 H 267.73 3.87007 -0.291055 0
M  V30 2773 H 265.831 3.1086 2.05418 0
M  V30 2774 H 265.944 4.68178 1.01716 0
M  V30 2775 H 264.308 2.4666 0.634911 0
M  V30 2776 H 265.091 3.34097 -0.789549 0
M  V30 2777 N 267.536 -0.106894 1.57237 0
M  V30 2778 C 268.783 -0.812526 1.85484 0
M  V30 2779 C 269.111 -1.79304 0.753687 0
M  V30 2780 O 268.366 -1.94047 -0.253853 0
M  V30 2781 C 268.665 -1.58628 3.20268 0
M  V30 2782 C 268.331 -0.748967 4.44636 0
M  V30 2783 C 266.993 -0.518104 4.78403 0
M  V30 2784 C 269.345 -0.166122 5.20935 0
M  V30 2785 C 266.673 0.305659 5.85903 0
M  V30 2786 C 269.025 0.644899 6.29304 0
M  V30 2787 C 267.689 0.885965 6.61594 0
M  V30 2788 H 266.959 -0.297324 0.678734 0
M  V30 2789 H 269.606 -0.0744332 1.91355 0
M  V30 2790 H 267.911 -2.39562 3.10028 0
M  V30 2791 H 269.608 -2.13643 3.39349 0
M  V30 2792 H 266.198 -0.939006 4.18187 0
M  V30 2793 H 270.382 -0.33167 4.95191 0
M  V30 2794 H 265.638 0.501528 6.0934 0
M  V30 2795 H 269.812 1.10345 6.87602 0
M  V30 2796 H 267.439 1.52609 7.44725 0
M  V30 2797 N 269.014 -1.53014 -0.377408 0
M  V30 2798 C 270.26 -1.68872 -1.12294 0
M  V30 2799 C 270.593 -0.433224 -1.89306 0
M  V30 2800 O 269.868 0.569258 -1.85983 0
M  V30 2801 C 270.151 -2.93115 -2.09179 0
M  V30 2802 C 270.004 -4.28794 -1.35853 0
M  V30 2803 C 271.323 -3.12928 -3.09458 0
M  V30 2804 H 268.442 -0.614518 -0.406862 0
M  V30 2805 H 271.084 -1.85633 -0.40503 0
M  V30 2806 H 269.234 -2.78956 -2.70399 0
M  V30 2807 H 270.906 -4.54742 -0.775082 0
M  V30 2808 H 269.149 -4.28744 -0.660364 0
M  V30 2809 H 269.82 -5.11837 -2.06706 0
M  V30 2810 H 272.296 -3.26194 -2.58334 0
M  V30 2811 H 271.172 -4.01316 -3.74482 0
M  V30 2812 H 271.433 -2.27669 -3.78971 0
M  V30 2813 N 270.492 0.636531 -1.44174 0
M  V30 2814 C 271.442 1.74233 -1.47061 0
M  V30 2815 C 272.426 1.57331 -0.337034 0
M  V30 2816 O 273.618 1.67159 -0.581973 0
M  V30 2817 C 270.747 3.12897 -1.41246 0
M  V30 2818 C 269.833 3.35288 -2.59698 0
M  V30 2819 N 270.224 3.2807 -3.84972 0
M  V30 2820 C 268.522 3.66065 -2.54778 0
M  V30 2821 C 269.223 3.51001 -4.63867 0
M  V30 2822 N 268.199 3.73616 -3.94857 0
M  V30 2823 H 272.001 1.67103 -2.41773 0
M  V30 2824 H 269.515 0.838806 -1.3906 0
M  V30 2825 H 271.512 3.92189 -1.41398 0
M  V30 2826 H 270.172 3.21197 -0.47569 0
M  V30 2827 H 271.183 3.07109 -4.17019 0
M  V30 2828 H 267.86 3.81379 -1.6987 0
M  V30 2829 H 269.25 3.51059 -5.72894 0
M  V30 2830 N 271.97 1.30982 0.876444 0
M  V30 2831 C 273.198 1.23242 1.6619 0
M  V30 2832 C 273.613 -0.203345 1.87702 0
M  V30 2833 O 272.97 -1.13317 1.43057 0
M  V30 2834 C 273.021 1.96623 3.03351 0
M  V30 2835 O 272.742 3.34594 2.82804 0
M  V30 2836 C 274.243 1.95644 3.97792 0
M  V30 2837 H 271.463 0.426126 0.518322 0
M  V30 2838 H 274.007 1.7275 1.09442 0
M  V30 2839 H 272.162 1.50892 3.56806 0
M  V30 2840 H 272.576 3.71873 3.69879 0
M  V30 2841 H 274.05 2.51511 4.91372 0
M  V30 2842 H 274.527 0.937395 4.2908 0
M  V30 2843 H 275.133 2.41225 3.50272 0
M  V30 2844 N 273.449 -1.08991 1.13837 0
M  V30 2845 C 274.397 -2.17841 0.815347 0
M  V30 2846 C 275.391 -1.68164 -0.204233 0
M  V30 2847 O 276.597 -1.79897 -0.0609304 0
M  V30 2848 H 272.972 -0.710654 0.245915 0
M  V30 2849 H 274.943 -2.42315 1.74143 0
M  V30 2850 C 273.692 -3.46381 0.302614 0
M  V30 2851 H 273.015 -3.84979 1.0785 0
M  V30 2852 H 274.455 -4.23844 0.115074 0
M  V30 2853 C 272.914 -3.22556 -0.972591 0
M  V30 2854 O 273.444 -3.45599 -2.04754 0
M  V30 2855 N 271.65 -2.76134 -0.905455 0
M  V30 2856 H 271.197 -2.57582 -0.0305421 0
M  V30 2857 H 271.155 -2.60571 -1.75926 0
M  V30 2858 N 274.927 -0.932562 -1.27047 0
M  V30 2859 C 276.173 -0.576412 -1.94436 0
M  V30 2860 C 276.506 0.880891 -1.73072 0
M  V30 2861 O 275.781 1.62905 -1.06264 0
M  V30 2862 C 276.064 -0.909031 -3.48437 0
M  V30 2863 C 275.917 -2.42044 -3.79123 0
M  V30 2864 C 277.236 -0.418341 -4.38107 0
M  V30 2865 H 274.355 -0.210888 -0.706184 0
M  V30 2866 H 276.997 -1.16522 -1.50075 0
M  V30 2867 H 275.147 -0.407947 -3.86352 0
M  V30 2868 H 276.819 -2.99359 -3.50973 0
M  V30 2869 H 275.062 -2.86758 -3.25503 0
M  V30 2870 H 275.733 -2.6037 -4.86736 0
M  V30 2871 H 278.209 -0.847856 -4.0737 0
M  V30 2872 H 277.085 -0.679981 -5.44672 0
M  V30 2873 H 277.346 0.681642 -4.36814 0
M  V30 2874 N 276.405 1.4127 -0.698611 0
M  V30 2875 C 277.816 1.84187 -0.305289 0
M  V30 2876 C 278.167 1.58449 1.15708 0
M  V30 2877 O 277.292 1.05651 1.88856 0
M  V30 2878 C 277.887 3.3435 -0.547314 0
M  V30 2879 C 276.446 3.75826 -0.207878 0
M  V30 2880 C 275.593 2.64647 -0.828099 0
M  V30 2881 H 278.544 1.30778 -0.89904 0
M  V30 2882 H 278.565 3.8001 0.192998 0
M  V30 2883 H 278.077 3.53051 -1.61172 0
M  V30 2884 H 276.178 3.62725 0.852143 0
M  V30 2885 H 276.291 4.74462 -0.665021 0
M  V30 2886 H 274.655 2.53395 -0.257458 0
M  V30 2887 H 275.438 2.86165 -1.89643 0
M  V30 2888 N 277.883 0.443576 1.51229 0
M  V30 2889 C 278.815 -0.400608 2.25672 0
M  V30 2890 C 279.828 -0.980945 1.29928 0
M  V30 2891 O 281.017 -0.874024 1.55638 0
M  V30 2892 C 278.117 -1.57304 3.00181 0
M  V30 2893 C 277.29 -1.11046 4.23069 0
M  V30 2894 C 276.349 -2.15374 4.80105 0
M  V30 2895 O 275.375 -1.74554 5.41774 0
M  V30 2896 N 276.577 -3.47922 4.64683 0
M  V30 2897 H 279.342 0.23745 2.98758 0
M  V30 2898 H 276.903 0.272809 1.59585 0
M  V30 2899 H 278.895 -2.26733 3.35223 0
M  V30 2900 H 277.465 -2.11632 2.30066 0
M  V30 2901 H 276.685 -0.243019 3.9345 0
M  V30 2902 H 277.973 -0.778888 5.02803 0
M  V30 2903 H 277.371 -3.83815 4.15575 0
M  V30 2904 H 275.928 -4.13228 5.0407 0
M  V30 2905 N 279.361 -1.56624 0.175154 0
M  V30 2906 C 280.586 -2.01813 -0.478137 0
M  V30 2907 C 281.011 -1.05457 -1.55757 0
M  V30 2908 O 280.369 -0.0347439 -1.81267 0
M  V30 2909 C 280.417 -3.45581 -1.02987 0
M  V30 2910 O 279.521 -3.52305 -2.14371 0
M  V30 2911 H 278.862 -0.65413 -0.114059 0
M  V30 2912 H 281.392 -2.02673 0.280173 0
M  V30 2913 H 281.402 -3.84965 -1.35151 0
M  V30 2914 H 280.077 -4.1521 -0.239556 0
M  V30 2915 H 278.654 -3.24783 -1.83222 0
M  V30 2916 N 280.839 0.0985539 -1.57292 0
M  V30 2917 C 281.772 1.15082 -1.97057 0
M  V30 2918 C 282.75 1.39025 -0.843255 0
M  V30 2919 O 283.934 1.52842 -1.10325 0
M  V30 2920 C 281.061 2.50069 -2.28437 0
M  V30 2921 C 280.107 2.42428 -3.509 0
M  V30 2922 S 280.94 1.84414 -5.02744 0
M  V30 2923 C 282.096 3.21032 -5.37298 0
M  V30 2924 H 282.329 0.811815 -2.86002 0
M  V30 2925 H 279.862 0.306102 -1.51335 0
M  V30 2926 H 281.82 3.27729 -2.47192 0
M  V30 2927 H 280.481 2.8114 -1.40069 0
M  V30 2928 H 279.674 3.41911 -3.70288 0
M  V30 2929 H 279.276 1.72896 -3.31637 0
M  V30 2930 H 281.568 4.17297 -5.33731 0
M  V30 2931 H 282.511 3.06452 -6.38352 0
M  V30 2932 H 282.919 3.20404 -4.64759 0
M  V30 2933 N 282.317 1.53212 0.369288 0
M  V30 2934 C 283.564 1.69215 1.11232 0
M  V30 2935 C 283.892 0.442048 1.8941 0
M  V30 2936 O 283.147 -0.575944 1.87033 0
M  V30 2937 C 283.446 2.89101 2.10132 0
M  V30 2938 C 283.112 4.25758 1.48463 0
M  V30 2939 C 281.774 4.6292 1.31372 0
M  V30 2940 C 284.126 5.10757 1.03811 0
M  V30 2941 C 281.454 5.82722 0.68207 0
M  V30 2942 C 283.806 6.31201 0.420487 0
M  V30 2943 C 282.47 6.67079 0.237038 0
M  V30 2944 H 281.74 0.619201 0.407027 0
M  V30 2945 H 284.387 1.87391 0.394552 0
M  V30 2946 H 282.692 2.65421 2.88199 0
M  V30 2947 H 284.389 2.98676 2.6757 0
M  V30 2948 H 280.979 3.96494 1.62758 0
M  V30 2949 H 285.163 4.82599 1.1581 0
M  V30 2950 H 280.419 6.09113 0.528316 0
M  V30 2951 H 284.593 6.96368 0.0662874 0
M  V30 2952 H 282.22 7.59774 -0.254477 0
M  V30 2953 N 283.795 -0.628877 1.44509 0
M  V30 2954 C 285.02 -1.42048 1.5112 0
M  V30 2955 C 285.445 -1.87594 0.137818 0
M  V30 2956 O 284.803 -1.58873 -0.873437 0
M  V30 2957 C 284.851 -2.61541 2.48251 0
M  V30 2958 O 283.955 -3.61453 1.98559 0
M  V30 2959 H 283.296 -0.424942 0.510216 0
M  V30 2960 H 285.826 -0.767374 1.89664 0
M  V30 2961 H 285.836 -3.09057 2.66361 0
M  V30 2962 H 284.511 -2.27736 3.48007 0
M  V30 2963 H 283.088 -3.20731 1.90227 0
M  V30 2964 N 285.273 -1.31445 -0.869486 0
M  V30 2965 C 286.503 -1.23942 -1.65294 0
M  V30 2966 C 286.911 0.197561 -1.88166 0
M  V30 2967 O 286.254 1.14019 -1.44033 0
M  V30 2968 C 286.316 -1.91385 -3.04322 0
M  V30 2969 C 285.98 -3.40726 -3.04557 0
M  V30 2970 C 286.977 -4.36464 -2.82481 0
M  V30 2971 C 284.662 -3.82425 -3.25663 0
M  V30 2972 C 286.656 -5.71876 -2.8149 0
M  V30 2973 C 284.343 -5.1795 -3.243 0
M  V30 2974 C 285.341 -6.12486 -3.02241 0
M  V30 2975 O 285.029 -7.45534 -3.00724 0
M  V30 2976 H 284.761 -0.429459 -0.522054 0
M  V30 2977 H 287.315 -1.73873 -1.0935 0
M  V30 2978 H 285.545 -1.36004 -3.61994 0
M  V30 2979 H 287.234 -1.77791 -3.64891 0
M  V30 2980 H 288 -4.05576 -2.65956 0
M  V30 2981 H 283.879 -3.09274 -3.41863 0
M  V30 2982 H 287.423 -6.45638 -2.64191 0
M  V30 2983 H 283.32 -5.48473 -3.40365 0
M  V30 2984 H 284.088 -7.54713 -3.16782 0
M  V30 2985 N 286.751 1.08385 -1.14413 0
M  V30 2986 C 288.028 1.77429 -0.823297 0
M  V30 2987 C 288.408 1.9974 0.683163 0
M  V30 2988 O 287.756 1.60739 1.62405 0
M  V30 2989 C 287.966 3.09004 -1.62227 0
M  V30 2990 C 289.314 3.83532 -1.82177 0
M  V30 2991 O 290.338 3.18786 -1.58915 0
M  V30 2992 O 289.197 4.99792 -2.21067 0
M  V30 2993 H 286.291 0.769999 -0.301712 0
M  V30 2994 H 288.837 1.14846 -1.24934 0
M  V30 2995 H 287.609 2.88316 -2.64555 0
M  V30 2996 H 287.232 3.79316 -1.19187 0
M  V30 2997 N 288.23 0.939286 1.26551 0
M  V30 2998 C 289.47 0.5933 1.956 0
M  V30 2999 C 289.834 -0.851515 1.72085 0
M  V30 3000 O 291.035 -1.30634 2.34921 0
M  V30 3001 C 289.306 0.923996 3.45249 0
M  V30 3002 S 290.865 0.688269 4.33369 0
M  V30 3003 H 287.683 0.218591 0.676564 0
M  V30 3004 H 290.285 1.2102 1.5354 0
M  V30 3005 H 288.989 1.97297 3.59864 0
M  V30 3006 H 288.52 0.296746 3.92279 0
M  V30 3007 H 290.535 -0.448434 4.9417 0
M  V30 3008 N 289.708 -1.40897 0.706093 0
M  V30 3009 C 290.933 -2.05895 0.249435 0
M  V30 3010 C 291.358 -1.52823 -1.09666 0
M  V30 3011 O 290.716 -0.659589 -1.68876 0
M  V30 3012 C 290.764 -3.59872 0.22904 0
M  V30 3013 O 289.868 -4.04708 -0.792784 0
M  V30 3014 H 289.209 -0.653206 0.119241 0
M  V30 3015 H 291.739 -1.80471 0.96391 0
M  V30 3016 H 291.749 -4.07951 0.0634791 0
M  V30 3017 H 290.424 -3.97866 1.21141 0
M  V30 3018 H 289.001 -3.68111 -0.59572 0
M  V30 3019 N 291.186 -0.45159 -1.50991 0
M  V30 3020 C 292.134 0.366864 -2.29689 0
M  V30 3021 C 293.128 1.00809 -1.36139 0
M  V30 3022 O 294.334 0.941427 -1.53418 0
M  V30 3023 H 290.709 0.137133 -0.739391 0
M  V30 3024 H 292.68 -0.317538 -2.96706 0
M  V30 3025 C 291.429 1.44751 -3.16137 0
M  V30 3026 H 290.752 0.963473 -3.88017 0
M  V30 3027 H 292.192 1.99315 -3.74232 0
M  V30 3028 C 290.651 2.43869 -2.32442 0
M  V30 3029 O 291.181 3.4872 -1.99392 0
M  V30 3030 N 289.387 2.15105 -1.95392 0
M  V30 3031 H 288.934 1.29866 -2.22469 0
M  V30 3032 H 288.892 2.81661 -1.39693 0
M  V30 3033 N 292.664 1.56529 -0.183458 0
M  V30 3034 C 294.075 1.83739 0.331177 0
M  V30 3035 C 294.426 1.10373 1.62211 0
M  V30 3036 O 293.551 0.36071 2.13373 0
M  V30 3037 C 294.146 3.33306 0.607646 0
M  V30 3038 C 292.705 3.60969 1.06668 0
M  V30 3039 C 291.852 2.77086 0.109029 0
M  V30 3040 H 294.803 1.53379 -0.407484 0
M  V30 3041 H 294.824 3.51444 1.45832 0
M  V30 3042 H 294.336 3.86677 -0.332086 0
M  V30 3043 H 292.437 3.13021 2.0211 0
M  V30 3044 H 292.55 4.69231 0.967447 0
M  V30 3045 H 290.914 2.47319 0.608714 0
M  V30 3046 H 291.697 3.33241 -0.82494 0
M  V30 3047 N 294.142 -0.090211 1.57342 0
M  V30 3048 C 295.072 -1.10976 2.05443 0
M  V30 3049 C 296.053 -1.41482 0.944284 0
M  V30 3050 O 297.238 -1.51428 1.21586 0
M  V30 3051 C 294.368 -2.42831 2.48295 0
M  V30 3052 C 293.322 -2.26721 3.63018 0
M  V30 3053 C 292.648 -3.63796 3.91863 0
M  V30 3054 C 293.948 -1.7037 4.93732 0
M  V30 3055 H 295.642 -0.709564 2.9087 0
M  V30 3056 H 293.188 -0.339874 1.39932 0
M  V30 3057 H 295.141 -3.14431 2.80555 0
M  V30 3058 H 293.865 -2.84795 1.59873 0
M  V30 3059 H 292.524 -1.57565 3.31012 0
M  V30 3060 H 292.172 -4.03297 3.00601 0
M  V30 3061 H 291.872 -3.53861 4.69101 0
M  V30 3062 H 293.396 -4.36855 4.26603 0
M  V30 3063 H 294.81 -2.31816 5.24342 0
M  V30 3064 H 293.207 -1.71181 5.75167 0
M  V30 3065 H 294.277 -0.663542 4.80339 0
M  V30 3066 N 295.62 -1.53406 -0.361157 0
M  V30 3067 C 296.867 -1.69802 -1.10333 0
M  V30 3068 C 297.195 -0.452087 -1.89173 0
M  V30 3069 O 296.45 0.566017 -1.87336 0
M  V30 3070 C 296.749 -2.90211 -2.08596 0
M  V30 3071 C 296.415 -4.26539 -1.46203 0
M  V30 3072 C 295.077 -4.6361 -1.28915 0
M  V30 3073 C 297.429 -5.113 -1.01101 0
M  V30 3074 C 294.757 -5.83075 -0.651157 0
M  V30 3075 C 297.109 -6.31415 -0.387007 0
M  V30 3076 C 295.773 -6.67195 -0.201657 0
M  V30 3077 H 295.043 -0.621351 -0.403737 0
M  V30 3078 H 297.69 -1.87598 -0.384609 0
M  V30 3079 H 295.995 -2.66946 -2.86788 0
M  V30 3080 H 297.692 -3.00091 -2.65982 0
M  V30 3081 H 294.282 -3.97352 -1.60653 0
M  V30 3082 H 298.466 -4.83206 -1.13249 0
M  V30 3083 H 293.722 -6.09385 -0.496006 0
M  V30 3084 H 297.896 -6.96394 -0.0293563 0
M  V30 3085 H 295.523 -7.59628 0.294766 0
M  V30 3086 N 297.098 0.621204 -1.44841 0
M  V30 3087 C 298.346 1.37783 -1.47852 0
M  V30 3088 C 298.667 1.94653 -0.116224 0
M  V30 3089 O 297.937 1.76367 0.852737 0
M  V30 3090 H 296.517 0.511453 -0.544449 0
M  V30 3091 H 299.179 0.730446 -1.80694 0
M  V30 3092 H 298.275 2.20414 -2.20961 0
M  V30 3093 N 298.576 1.31904 0.862503 0
M  V30 3094 C 299.508 1.16005 1.97675 0
M  V30 3095 C 300.521 0.0971234 1.6251 0
M  V30 3096 O 301.71 0.345337 1.75128 0
M  V30 3097 C 298.81 0.751791 3.30456 0
M  V30 3098 C 297.983 1.90133 3.93914 0
M  V30 3099 C 297.042 1.4779 5.05019 0
M  V30 3100 O 296.068 2.18872 5.25437 0
M  V30 3101 N 297.27 0.369491 5.79323 0
M  V30 3102 H 300.035 2.11982 2.11857 0
M  V30 3103 H 297.596 1.24337 1.03691 0
M  V30 3104 H 299.588 0.451084 4.02178 0
M  V30 3105 H 298.158 -0.116593 3.12382 0
M  V30 3106 H 297.378 2.36896 3.15078 0
M  V30 3107 H 298.666 2.67111 4.33047 0
M  V30 3108 H 298.064 -0.222299 5.65263 0
M  V30 3109 H 296.621 0.128354 6.51674 0
M  V30 3110 N 300.054 -1.07777 1.14986 0
M  V30 3111 C 301.282 -1.84018 0.945773 0
M  V30 3112 C 301.697 -1.81897 -0.505863 0
M  V30 3113 O 301.054 -1.22726 -1.35072 0
M  V30 3114 C 301.105 -3.31287 1.44677 0
M  V30 3115 O 300.826 -3.33449 2.84154 0
M  V30 3116 C 302.327 -4.24311 1.28355 0
M  V30 3117 H 299.547 -0.580716 0.336169 0
M  V30 3118 H 302.091 -1.36077 1.52654 0
M  V30 3119 H 300.246 -3.76594 0.908625 0
M  V30 3120 H 300.66 -4.25427 3.06777 0
M  V30 3121 H 302.134 -5.2573 1.68261 0
M  V30 3122 H 302.611 -4.38612 0.227184 0
M  V30 3123 H 303.217 -3.84836 1.81056 0
M  V30 3124 N 301.532 -0.945985 -1.26051 0
M  V30 3125 C 302.778 -0.597002 -1.93814 0
M  V30 3126 C 303.111 0.862484 -1.73997 0
M  V30 3127 O 302.386 1.61769 -1.07986 0
M  V30 3128 C 302.669 -0.945937 -3.47454 0
M  V30 3129 C 302.522 -2.46052 -3.76535 0
M  V30 3130 C 303.841 -0.464785 -4.37639 0
M  V30 3131 H 300.96 -0.218366 -0.703907 0
M  V30 3132 H 303.602 -1.18107 -1.48831 0
M  V30 3133 H 301.752 -0.448902 -3.85898 0
M  V30 3134 H 303.424 -3.03065 -3.47778 0
M  V30 3135 H 301.667 -2.90194 -3.22444 0
M  V30 3136 H 302.338 -2.65517 -4.83947 0
M  V30 3137 H 304.814 -0.891016 -4.06448 0
M  V30 3138 H 303.69 -0.737712 -5.4392 0
M  V30 3139 H 303.951 0.635274 -4.37512 0
M  V30 3140 N 303.011 1.40521 -0.713556 0
M  V30 3141 C 303.959 2.32549 -0.0485227 0
M  V30 3142 C 304.953 1.51931 0.74922 0
M  V30 3143 O 306.159 1.67745 0.652816 0
M  V30 3144 H 302.534 0.751994 0.00311138 0
M  V30 3145 H 304.505 2.86291 -0.841443 0
M  V30 3146 C 303.254 3.36879 0.860687 0
M  V30 3147 H 302.577 3.98978 0.256246 0
M  V30 3148 H 304.017 4.03772 1.294 0
M  V30 3149 C 302.476 2.72197 1.9852 0
M  V30 3150 O 303.006 2.5837 3.07584 0
M  V30 3151 N 301.212 2.30612 1.76823 0
M  V30 3152 H 300.759 2.42059 0.881217 0
M  V30 3153 H 300.717 1.87672 2.52243 0
M  V30 3154 N 304.489 0.459591 1.5075 0
M  V30 3155 C 305.9 0.00171547 1.867 0
M  V30 3156 C 306.251 -1.39934 1.37525 0
M  V30 3157 O 305.376 -2.03523 0.735349 0
M  V30 3158 C 305.971 -0.00366298 3.388 0
M  V30 3159 C 304.53 -0.406026 3.74204 0
M  V30 3160 C 303.677 0.38673 2.7459 0
M  V30 3161 H 306.628 0.674413 1.43657 0
M  V30 3162 H 306.649 -0.808371 3.71814 0
M  V30 3163 H 306.161 1.01617 3.74561 0
M  V30 3164 H 304.262 -1.43063 3.4404 0
M  V30 3165 H 304.375 -0.115362 4.78961 0
M  V30 3166 H 302.739 -0.158019 2.54209 0
M  V30 3167 H 303.522 1.40585 3.13194 0
M  V30 3168 N 305.967 -1.56429 0.191757 0
M  V30 3169 C 307.213 -1.98541 -0.441943 0
M  V30 3170 C 307.568 -1.07646 -1.59468 0
M  V30 3171 O 306.861 -0.120191 -1.91223 0
M  V30 3172 C 307.055 -3.44449 -0.953384 0
M  V30 3173 C 306.884 -4.49456 0.148262 0
M  V30 3174 C 305.654 -5.01668 0.604781 0
M  V30 3175 C 307.852 -5.05336 0.95602 0
M  V30 3176 N 305.834 -5.90334 1.6846 0
M  V30 3177 C 307.205 -5.9064 1.88531 0
M  V30 3178 C 309.26 -4.87779 0.998811 0
M  V30 3179 C 307.963 -6.60264 2.85383 0
M  V30 3180 C 309.989 -5.58139 1.95537 0
M  V30 3181 C 309.351 -6.43187 2.8721 0
M  V30 3182 H 305.45 -0.771247 -0.129236 0
M  V30 3183 H 308.034 -1.92426 0.296682 0
M  V30 3184 H 306.205 -3.5107 -1.66146 0
M  V30 3185 H 307.937 -3.73533 -1.55741 0
M  V30 3186 H 304.692 -4.73183 0.198736 0
M  V30 3187 H 305.116 -6.39371 2.22561 0
M  V30 3188 H 309.758 -4.21705 0.304048 0
M  V30 3189 H 307.476 -7.25538 3.55837 0
M  V30 3190 H 311.062 -5.46532 1.99484 0
M  V30 3191 H 309.942 -6.96674 3.60022 0
M  V30 3192 N 307.445 0.0818655 -1.57387 0
M  V30 3193 C 308.392 1.09834 -2.0299 0
M  V30 3194 C 309.362 1.39043 -0.908639 0
M  V30 3195 O 310.547 1.50282 -1.17559 0
M  V30 3196 C 307.687 2.40971 -2.47037 0
M  V30 3197 C 306.8 2.18379 -3.7274 0
M  V30 3198 C 305.935 3.43008 -4.0561 0
M  V30 3199 C 304.974 3.15736 -5.24383 0
M  V30 3200 N 304.111 4.32667 -5.52941 0
M  V30 3201 H 308.951 0.702472 -2.89602 0
M  V30 3202 H 306.488 0.33531 -1.43227 0
M  V30 3203 H 308.446 3.1752 -2.70623 0
M  V30 3204 H 307.076 2.78379 -1.63417 0
M  V30 3205 H 306.128 1.32569 -3.56552 0
M  V30 3206 H 307.44 1.94227 -4.59431 0
M  V30 3207 H 306.594 4.27958 -4.30043 0
M  V30 3208 H 305.333 3.70225 -3.17466 0
M  V30 3209 H 304.338 2.2918 -4.99757 0
M  V30 3210 H 305.563 2.8985 -6.14136 0
M  V30 3211 H 303.509 4.59935 -4.67756 0
M  V30 3212 H 303.426 4.11753 -6.34031 0
M  V30 3213 H 304.694 5.18644 -5.81918 0
M  V30 3214 N 308.923 1.53595 0.353017 0
M  V30 3215 C 310.148 1.7462 1.11904 0
M  V30 3216 C 310.573 0.479721 1.8188 0
M  V30 3217 O 309.931 -0.567066 1.72204 0
M  V30 3218 C 309.979 2.92029 2.11545 0
M  V30 3219 O 309.083 2.61516 3.18878 0
M  V30 3220 H 308.424 0.579531 0.324099 0
M  V30 3221 H 310.954 2.00525 0.406301 0
M  V30 3222 H 310.964 3.18551 2.5493 0
M  V30 3223 H 309.639 3.83888 1.60008 0
M  V30 3224 H 308.216 2.45852 2.80377 0
M  V30 3225 N 310.401 -0.613514 1.45168 0
M  V30 3226 C 311.626 -1.40437 1.52618 0
M  V30 3227 C 312.051 -1.87438 0.157707 0
M  V30 3228 O 311.409 -1.59791 -0.856537 0
M  V30 3229 C 311.457 -2.58894 2.51011 0
M  V30 3230 O 310.561 -3.59326 2.02382 0
M  V30 3231 H 309.902 -0.419506 0.514695 0
M  V30 3232 H 312.432 -0.747215 1.90467 0
M  V30 3233 H 312.442 -3.06214 2.69624 0
M  V30 3234 H 311.117 -2.24032 3.50403 0
M  V30 3235 H 309.694 -3.18695 1.93618 0
M  V30 3236 N 311.879 -1.3236 -0.855495 0
M  V30 3237 C 312.826 -1.21225 -1.964 0
M  V30 3238 C 313.796 -0.0946204 -1.6583 0
M  V30 3239 O 314.981 -0.27002 -1.8888 0
M  V30 3240 C 312.121 -0.940419 -3.32039 0
M  V30 3241 C 311.234 -2.14276 -3.75113 0
M  V30 3242 C 310.369 -1.80648 -4.9954 0
M  V30 3243 C 309.408 -2.97208 -5.35102 0
M  V30 3244 N 308.545 -2.63678 -6.50706 0
M  V30 3245 H 313.385 -2.16042 -2.05255 0
M  V30 3246 H 310.922 -1.07451 -1.00463 0
M  V30 3247 H 312.88 -0.763311 -4.10158 0
M  V30 3248 H 311.51 -0.0290413 -3.22787 0
M  V30 3249 H 310.562 -2.43017 -2.92655 0
M  V30 3250 H 311.874 -3.01468 -3.97389 0
M  V30 3251 H 311.028 -1.59484 -5.85363 0
M  V30 3252 H 309.767 -0.906678 -4.79198 0
M  V30 3253 H 308.772 -3.19004 -4.47791 0
M  V30 3254 H 309.997 -3.87918 -5.57401 0
M  V30 3255 H 307.943 -1.76238 -6.31883 0
M  V30 3256 H 307.86 -3.444 -6.72997 0
M  V30 3257 H 309.128 -2.45942 -7.39684 0
M  V30 3258 N 313.357 1.07166 -1.15556 0
M  V30 3259 C 314.582 1.84053 -0.955988 0
M  V30 3260 C 315.007 1.81586 0.490739 0
M  V30 3261 O 314.365 1.21018 1.34997 0
M  V30 3262 C 314.413 3.28957 -1.47714 0
M  V30 3263 O 313.517 4.06795 -0.677593 0
M  V30 3264 H 312.858 0.569842 -0.340847 0
M  V30 3265 H 315.388 1.35178 -1.53584 0
M  V30 3266 H 315.398 3.79788 -1.4908 0
M  V30 3267 H 314.073 3.30068 -2.53037 0
M  V30 3268 H 312.65 3.6561 -0.733721 0
M  V30 3269 N 314.835 0.952656 1.25548 0
M  V30 3270 C 316.246 0.647392 1.75116 0
M  V30 3271 C 316.597 -0.837274 1.77438 0
M  V30 3272 O 315.722 -1.65525 1.39393 0
M  V30 3273 C 316.317 1.16845 3.18014 0
M  V30 3274 C 314.876 0.913382 3.6515 0
M  V30 3275 C 314.023 1.31265 2.44264 0
M  V30 3276 H 316.974 1.12968 1.11462 0
M  V30 3277 H 316.995 0.527606 3.76824 0
M  V30 3278 H 316.507 2.24902 3.16292 0
M  V30 3279 H 314.608 -0.152316 3.72289 0
M  V30 3280 H 314.721 1.54845 4.53387 0
M  V30 3281 H 313.085 0.731028 2.43984 0
M  V30 3282 H 313.868 2.40239 2.45234 0
M  V30 3283 N 316.313 -1.40141 0.720998 0
M  V30 3284 C 317.561 -2.0039 0.262323 0
M  V30 3285 C 317.882 -1.57469 -1.15015 0
M  V30 3286 O 317.152 -0.816582 -1.78069 0
M  V30 3287 H 315.732 -0.741063 0.093996 0
M  V30 3288 H 318.394 -1.71398 0.927835 0
M  V30 3289 H 317.49 -3.10658 0.299671 0
M  V30 3290 N 317.792 -0.46758 -1.50504 0
M  V30 3291 C 319.04 0.0884469 -2.01906 0
M  V30 3292 C 319.361 1.40532 -1.35188 0
M  V30 3293 O 318.631 1.89515 -0.496079 0
M  V30 3294 H 317.211 0.0356765 -0.746148 0
M  V30 3295 H 319.873 -0.6172 -1.84869 0
M  V30 3296 H 318.969 0.2425 -3.11156 0
M  V30 3297 N 319.27 1.56325 -0.20005 0
M  V30 3298 C 320.495 2.02548 0.44597 0
M  V30 3299 C 320.92 1.07922 1.5406 0
M  V30 3300 O 320.278 0.0635775 1.81188 0
M  V30 3301 C 320.326 3.47175 0.974761 0
M  V30 3302 O 319.43 3.55671 2.08739 0
M  V30 3303 H 318.771 0.655862 0.103638 0
M  V30 3304 H 321.301 2.02201 -0.312381 0
M  V30 3305 H 321.311 3.87067 1.2901 0
M  V30 3306 H 319.986 4.15538 0.17347 0
M  V30 3307 H 318.563 3.27657 1.78032 0
M  V30 3308 N 320.748 -0.0735177 1.57428 0
M  V30 3309 C 321.973 -0.789787 1.91774 0
M  V30 3310 C 322.398 -1.70413 0.796306 0
M  V30 3311 O 321.756 -1.79555 -0.250961 0
M  V30 3312 C 321.804 -1.5609 3.25067 0
M  V30 3313 O 320.908 -2.67144 3.14178 0
M  V30 3314 H 320.249 -0.215582 0.628029 0
M  V30 3315 H 322.779 -0.0422781 2.04556 0
M  V30 3316 H 322.789 -1.94052 3.58898 0
M  V30 3317 H 321.464 -0.890015 4.06265 0
M  V30 3318 H 320.041 -2.32052 2.91901 0
M  V30 3319 N 322.226 -1.5378 -0.344866 0
M  V30 3320 C 323.474 -1.70625 -1.08311 0
M  V30 3321 C 323.795 -0.471447 -1.89215 0
M  V30 3322 O 323.065 0.514616 -1.8902 0
M  V30 3323 H 321.645 -0.629058 -0.402859 0
M  V30 3324 H 324.307 -1.9103 -0.386459 0
M  V30 3325 H 323.403 -2.57656 -1.76124 0
M  V30 3326 N 323.704 0.605807 -1.45491 0
M  V30 3327 C 324.952 1.36207 -1.49305 0
M  V30 3328 C 325.273 1.94519 -0.136863 0
M  V30 3329 O 324.543 1.77261 0.833983 0
M  V30 3330 H 323.123 0.50565 -0.549843 0
M  V30 3331 H 325.785 0.711239 -1.81459 0
M  V30 3332 H 324.881 2.18058 -2.23287 0
M  V30 3333 N 325.182 1.32811 0.848464 0
M  V30 3334 C 326.092 1.24278 1.98978 0
M  V30 3335 C 327.108 0.155176 1.73307 0
M  V30 3336 O 328.284 0.376999 1.9784 0
M  V30 3337 C 325.349 0.972444 3.32783 0
M  V30 3338 C 324.41 2.14911 3.71634 0
M  V30 3339 C 323.643 1.89157 4.99054 0
M  V30 3340 O 323.866 0.837165 5.64223 0
M  V30 3341 O 322.8 2.75433 5.35183 0
M  V30 3342 H 326.626 2.20238 2.09115 0
M  V30 3343 H 324.211 1.12762 0.980052 0
M  V30 3344 H 326.093 0.838432 4.12975 0
M  V30 3345 H 324.768 0.043051 3.23671 0
M  V30 3346 H 323.675 2.33862 2.91992 0
M  V30 3347 H 325.008 3.06151 3.85399 0
M  V30 3348 N 326.66 -1.06551 1.16123 0
M  V30 3349 C 327.908 -1.78947 0.939267 0
M  V30 3350 C 328.229 -1.87532 -0.534476 0
M  V30 3351 O 327.499 -1.38211 -1.38833 0
M  V30 3352 H 326.079 -0.662807 0.344523 0
M  V30 3353 H 328.741 -1.28725 1.46342 0
M  V30 3354 H 327.837 -2.81117 1.35572 0
M  V30 3355 N 328.138 -0.959301 -1.25041 0
M  V30 3356 C 329.101 -0.487677 -2.23952 0
M  V30 3357 C 330.101 0.41119 -1.55454 0
M  V30 3358 O 331.291 0.207825 -1.72956 0
M  V30 3359 C 328.423 0.294807 -3.39623 0
M  V30 3360 H 329.616 -1.36198 -2.67189 0
M  V30 3361 H 327.169 -0.743042 -1.37508 0
M  V30 3362 H 327.904 1.18658 -3.01813 0
M  V30 3363 H 327.689 -0.35012 -3.90534 0
M  V30 3364 H 329.179 0.614089 -4.1306 0
M  V30 3365 N 329.616 1.39756 -0.72842 0
M  V30 3366 C 330.546 2.33289 -0.0991354 0
M  V30 3367 C 331.527 1.53568 0.731489 0
M  V30 3368 O 332.712 1.81987 0.677807 0
M  V30 3369 C 329.842 3.3763 0.813834 0
M  V30 3370 C 328.796 4.2791 0.0878663 0
M  V30 3371 C 328.122 5.22894 1.11741 0
M  V30 3372 C 329.422 5.11314 -1.06563 0
M  V30 3373 H 331.116 2.86163 -0.880408 0
M  V30 3374 H 328.662 1.37591 -0.424819 0
M  V30 3375 H 330.615 4.0201 1.26355 0
M  V30 3376 H 329.339 2.83181 1.62715 0
M  V30 3377 H 327.998 3.65 -0.342159 0
M  V30 3378 H 327.646 4.64744 1.92412 0
M  V30 3379 H 327.346 5.84143 0.636477 0
M  V30 3380 H 328.87 5.90151 1.56697 0
M  V30 3381 H 330.284 5.69076 -0.694671 0
M  V30 3382 H 328.681 5.81671 -1.47577 0
M  V30 3383 H 329.751 4.46534 -1.89038 0
M  V30 3384 N 331.094 0.475555 1.50254 0
M  V30 3385 C 332.343 -0.0795996 2.01543 0
M  V30 3386 C 332.656 -1.4038 1.36209 0
M  V30 3387 O 333.862 -2.04415 1.7868 0
M  V30 3388 C 332.318 -0.192363 3.59386 0
M  V30 3389 C 331.926 1.12367 4.33679 0
M  V30 3390 C 333.67 -0.699238 4.18701 0
M  V30 3391 C 331.577 0.974453 5.83317 0
M  V30 3392 H 330.507 -0.0335228 0.753254 0
M  V30 3393 H 333.158 0.611128 1.73025 0
M  V30 3394 H 331.54 -0.946974 3.84511 0
M  V30 3395 H 332.714 1.88958 4.20276 0
M  V30 3396 H 331.029 1.562 3.85993 0
M  V30 3397 H 333.626 -0.827978 5.28251 0
M  V30 3398 H 333.969 -1.69171 3.80377 0
M  V30 3399 H 334.502 -0.00188807 3.978 0
M  V30 3400 H 331.241 1.94042 6.26121 0
M  V30 3401 H 330.761 0.248998 5.99283 0
M  V30 3402 H 332.44 0.642867 6.43798 0
M  V30 3403 N 332.573 -1.56217 0.208337 0
M  V30 3404 C 333.821 -1.97558 -0.426076 0
M  V30 3405 C 334.142 -1.09683 -1.61229 0
M  V30 3406 O 333.412 -0.170956 -1.95153 0
M  V30 3407 H 331.992 -0.729575 -0.160405 0
M  V30 3408 H 334.654 -1.92606 0.298155 0
M  V30 3409 H 333.75 -3.02672 -0.761312 0
M  V30 3410 N 334.051 0.0651679 -1.57465 0
M  V30 3411 C 335.276 0.779605 -1.9219 0
M  V30 3412 C 335.701 1.69988 -0.805333 0
M  V30 3413 O 335.059 1.79685 0.241435 0
M  V30 3414 C 335.107 1.54364 -3.2589 0
M  V30 3415 O 334.211 2.65474 -3.1559 0
M  V30 3416 H 333.552 0.212249 -0.629163 0
M  V30 3417 H 336.082 0.0314294 -2.04576 0
M  V30 3418 H 336.092 1.92146 -3.59922 0
M  V30 3419 H 334.767 0.868457 -4.06732 0
M  V30 3420 H 333.344 2.30501 -2.93128 0
M  V30 3421 N 335.529 1.53961 0.336706 0
M  V30 3422 C 336.777 1.71197 1.07405 0
M  V30 3423 C 337.098 0.481475 1.88962 0
M  V30 3424 O 336.368 -0.504585 1.8929 0
M  V30 3425 H 334.948 0.631185 0.399517 0
M  V30 3426 H 337.61 1.91232 0.376323 0
M  V30 3427 H 336.706 2.58587 1.74755 0
M  V30 3428 N 337.007 -0.598083 1.45811 0
M  V30 3429 C 338.255 -1.35413 1.50026 0
M  V30 3430 C 338.576 -1.94444 0.147177 0
M  V30 3431 O 337.846 -1.77701 -0.824571 0
M  V30 3432 H 336.426 -0.502727 0.552517 0
M  V30 3433 H 339.088 -0.701606 1.81834 0
M  V30 3434 H 338.184 -2.16871 2.2444 0
M  V30 3435 N 338.485 -1.33259 -0.841409 0
M  V30 3436 C 339.71 -1.2775 -1.63385 0
M  V30 3437 C 340.135 0.149188 -1.87507 0
M  V30 3438 O 339.493 1.10498 -1.43736 0
M  V30 3439 C 339.541 -2.05571 -2.96265 0
M  V30 3440 O 338.645 -1.41257 -3.87453 0
M  V30 3441 H 337.986 -0.439627 -0.497618 0
M  V30 3442 H 340.516 -1.75782 -1.04699 0
M  V30 3443 H 340.526 -2.16241 -3.45982 0
M  V30 3444 H 339.201 -3.09309 -2.7803 0
M  V30 3445 H 337.778 -1.39217 -3.45938 0
M  V30 3446 N 339.963 1.05934 -1.16686 0
M  V30 3447 C 341.374 1.60263 -0.957745 0
M  V30 3448 C 341.725 1.89789 0.49745 0
M  V30 3449 O 340.85 1.67401 1.37135 0
M  V30 3450 C 341.445 2.91172 -1.73218 0
M  V30 3451 C 340.004 3.42188 -1.56794 0
M  V30 3452 C 339.151 2.16028 -1.73859 0
M  V30 3453 H 342.102 0.888392 -1.31504 0
M  V30 3454 H 342.123 3.60744 -1.21014 0
M  V30 3455 H 341.635 2.6965 -2.79124 0
M  V30 3456 H 339.736 3.68762 -0.533437 0
M  V30 3457 H 339.849 4.17273 -2.35414 0
M  V30 3458 H 338.213 2.26426 -1.16633 0
M  V30 3459 H 338.996 1.96985 -2.81161 0
M  V30 3460 N 341.441 0.965919 1.2453 0
M  V30 3461 C 342.371 0.513476 2.27784 0
M  V30 3462 C 343.352 -0.445974 1.6415 0
M  V30 3463 O 344.537 -0.342485 1.91156 0
M  V30 3464 C 341.667 -0.198839 3.4673 0
M  V30 3465 C 340.621 0.676456 4.2262 0
M  V30 3466 C 339.947 -0.167248 5.34438 0
M  V30 3467 C 341.247 1.96017 4.84123 0
M  V30 3468 H 342.941 1.3765 2.65881 0
M  V30 3469 H 340.487 0.663321 1.27813 0
M  V30 3470 H 342.44 -0.526567 4.18097 0
M  V30 3471 H 341.164 -1.0962 3.07654 0
M  V30 3472 H 339.823 0.98743 3.53052 0
M  V30 3473 H 339.471 -1.0647 4.91603 0
M  V30 3474 H 339.171 0.415181 5.86131 0
M  V30 3475 H 340.695 -0.489688 6.08633 0
M  V30 3476 H 342.109 1.69814 5.47573 0
M  V30 3477 H 340.506 2.48918 5.4604 0
M  V30 3478 H 341.576 2.65622 4.05676 0
M  V30 3479 N 342.919 -1.39368 0.735821 0
M  V30 3480 C 344.167 -2.00101 0.283562 0
M  V30 3481 C 344.488 -1.5868 -1.13338 0
M  V30 3482 O 343.758 -0.835423 -1.77193 0
M  V30 3483 H 342.338 -0.740024 0.101851 0
M  V30 3484 H 345 -1.70404 0.945962 0
M  V30 3485 H 344.096 -3.10323 0.332604 0
M  V30 3486 N 344.397 -0.483516 -1.5 0
M  V30 3487 C 345.327 0.293829 -2.31644 0
M  V30 3488 C 346.308 0.978864 -1.39112 0
M  V30 3489 O 347.493 0.973644 -1.68029 0
M  V30 3490 C 344.623 1.36897 -3.19181 0
M  V30 3491 C 343.577 0.804833 -4.20365 0
M  V30 3492 C 342.903 1.9792 -4.96721 0
M  V30 3493 C 344.203 -0.192313 -5.21946 0
M  V30 3494 H 345.897 -0.387616 -2.9688 0
M  V30 3495 H 343.443 -0.187856 -1.42769 0
M  V30 3496 H 345.396 1.92037 -3.751 0
M  V30 3497 H 344.12 2.07936 -2.51853 0
M  V30 3498 H 342.779 0.275319 -3.65565 0
M  V30 3499 H 342.427 2.67686 -4.25856 0
M  V30 3500 H 342.127 1.60789 -5.65173 0
M  V30 3501 H 343.651 2.53526 -5.55479 0
M  V30 3502 H 345.065 0.270333 -5.72662 0
M  V30 3503 H 343.462 -0.478543 -5.98189 0
M  V30 3504 H 344.532 -1.11409 -4.71928 0
M  V30 3505 N 345.875 1.56104 -0.216619 0
M  V30 3506 C 347.123 1.97781 0.415593 0
M  V30 3507 C 347.444 1.10536 1.60645 0
M  V30 3508 O 346.714 0.181303 1.95059 0
M  V30 3509 H 345.294 0.730415 0.156534 0
M  V30 3510 H 347.956 1.92445 -0.308366 0
M  V30 3511 H 347.052 3.03072 0.74525 0
M  V30 3512 N 347.353 -0.0568162 1.57498 0
M  V30 3513 C 348.581 -0.765626 1.92213 0
M  V30 3514 C 348.996 -1.70353 0.813961 0
M  V30 3515 O 348.353 -1.81268 -0.211701 0
M  V30 3516 C 348.404 -1.5465 3.2675 0
M  V30 3517 O 348.125 -0.646278 4.33307 0
M  V30 3518 C 349.626 -2.35497 3.75574 0
M  V30 3519 H 346.846 -0.216835 0.634999 0
M  V30 3520 H 349.39 -0.0226146 2.04487 0
M  V30 3521 H 347.545 -2.24165 3.15957 0
M  V30 3522 H 347.959 -1.19093 5.108 0
M  V30 3523 H 349.433 -2.85722 4.72299 0
M  V30 3524 H 349.91 -3.15692 3.05344 0
M  V30 3525 H 350.516 -1.7111 3.8936 0
M  V30 3526 N 348.832 -1.54138 -0.328536 0
M  V30 3527 C 350.109 -1.62749 -1.08499 0
M  V30 3528 C 350.489 -0.458198 -2.06067 0
M  V30 3529 O 349.837 0.548046 -2.2183 0
M  V30 3530 C 350.047 -2.99519 -1.79135 0
M  V30 3531 C 351.395 -3.55394 -2.32337 0
M  V30 3532 O 352.419 -3.01792 -1.89209 0
M  V30 3533 O 351.278 -4.49186 -3.11279 0
M  V30 3534 H 348.372 -0.65886 -0.499832 0
M  V30 3535 H 350.918 -1.66484 -0.328826 0
M  V30 3536 H 349.69 -3.76061 -1.08139 0
M  V30 3537 H 349.313 -2.99441 -2.61574 0
M  V30 3538 N 350.31 0.590341 -1.46126 0
M  V30 3539 C 351.559 1.34499 -1.50309 0
M  V30 3540 C 351.872 1.94977 -0.156021 0
M  V30 3541 O 353.078 2.71395 -0.0756037 0
M  V30 3542 C 351.534 2.43723 -2.64815 0
M  V30 3543 C 351.142 1.89582 -4.0591 0
M  V30 3544 C 352.886 3.20579 -2.78262 0
M  V30 3545 C 350.793 2.9639 -5.11769 0
M  V30 3546 H 349.723 0.505593 -0.559368 0
M  V30 3547 H 352.374 0.630848 -1.72315 0
M  V30 3548 H 350.756 3.17902 -2.36124 0
M  V30 3549 H 351.93 1.21997 -4.44357 0
M  V30 3550 H 350.245 1.25418 -3.97063 0
M  V30 3551 H 352.842 4.00276 -3.54519 0
M  V30 3552 H 353.185 3.72684 -1.85505 0
M  V30 3553 H 353.718 2.53505 -3.06562 0
M  V30 3554 H 350.457 2.49181 -6.06291 0
M  V30 3555 H 349.977 3.62487 -4.77873 0
M  V30 3556 H 351.656 3.60474 -5.37278 0
M  V30 3557 N 351.788 1.33704 0.83433 0
M  V30 3558 C 353.036 1.25169 1.58673 0
M  V30 3559 C 353.357 -0.18127 1.94156 0
M  V30 3560 O 352.627 -1.11113 1.6134 0
M  V30 3561 H 351.207 0.4603 0.58833 0
M  V30 3562 H 353.869 1.67478 0.996847 0
M  V30 3563 H 352.965 1.84856 2.51465 0
M  V30 3564 N 353.266 -1.05314 1.17247 0
M  V30 3565 C 354.514 -1.77941 0.958194 0
M  V30 3566 C 354.835 -1.88089 -0.514556 0
M  V30 3567 O 354.105 -1.39676 -1.37359 0
M  V30 3568 H 352.685 -0.659116 0.351533 0
M  V30 3569 H 355.347 -1.27166 1.47699 0
M  V30 3570 H 354.443 -2.79663 1.38546 0
M  V30 3571 N 354.744 -0.972509 -1.24016 0
M  V30 3572 C 355.969 -0.654417 -1.96805 0
M  V30 3573 C 356.394 0.770398 -1.716 0
M  V30 3574 O 355.752 1.52361 -0.982647 0
M  V30 3575 C 355.8 -0.941031 -3.48105 0
M  V30 3576 O 354.904 -0.0289472 -4.1239 0
M  V30 3577 H 354.245 -0.24692 -0.616382 0
M  V30 3578 H 356.775 -1.30396 -1.57664 0
M  V30 3579 H 356.785 -0.87452 -3.98517 0
M  V30 3580 H 355.46 -1.97939 -3.65777 0
M  V30 3581 H 354.037 -0.149192 -3.72601 0
M  V30 3582 N 356.222 1.38976 -0.743202 0
M  V30 3583 C 357.471 1.99581 -0.291592 0
M  V30 3584 C 357.784 1.59656 1.13001 0
M  V30 3585 O 358.99 2.13157 1.68156 0
M  V30 3586 C 357.446 3.56813 -0.470391 0
M  V30 3587 C 357.054 4.05695 -1.90041 0
M  V30 3588 C 358.798 4.24423 -0.0809709 0
M  V30 3589 C 356.705 5.5553 -2.02832 0
M  V30 3590 H 355.635 0.746615 -0.105272 0
M  V30 3591 H 358.286 1.58872 -0.918258 0
M  V30 3592 H 356.668 3.95359 0.225299 0
M  V30 3593 H 357.842 3.78464 -2.62872 0
M  V30 3594 H 356.157 3.50775 -2.24379 0
M  V30 3595 H 358.754 5.34474 -0.155445 0
M  V30 3596 H 359.097 4.04962 0.96497 0
M  V30 3597 H 359.63 3.9108 -0.728124 0
M  V30 3598 H 356.369 5.79881 -3.05643 0
M  V30 3599 H 355.889 5.84537 -1.34448 0
M  V30 3600 H 357.568 6.21069 -1.81335 0
M  V30 3601 N 357.7 0.491464 1.49741 0
M  V30 3602 C 359.116 0.146835 1.58923 0
M  V30 3603 C 359.316 -1.34804 1.49767 0
M  V30 3604 O 358.372 -2.12317 1.36667 0
M  V30 3605 C 359.685 0.715157 2.92072 0
M  V30 3606 C 361.233 0.680407 3.05515 0
M  V30 3607 C 361.708 1.22663 4.41269 0
M  V30 3608 N 363.199 1.18691 4.47735 0
M  V30 3609 C 363.934 1.57984 5.51207 0
M  V30 3610 N 363.43 2.04824 6.6183 0
M  V30 3611 N 365.223 1.49459 5.41866 0
M  V30 3612 H 357.374 1.46347 1.53936 0
M  V30 3613 H 359.637 0.606453 0.728642 0
M  V30 3614 H 359.343 1.76317 3.04311 0
M  V30 3615 H 359.217 0.17018 3.76816 0
M  V30 3616 H 361.604 -0.358743 2.92911 0
M  V30 3617 H 361.685 1.26242 2.22478 0
M  V30 3618 H 361.329 2.26451 4.54623 0
M  V30 3619 H 361.259 0.620637 5.2293 0
M  V30 3620 H 363.75 0.843605 3.68364 0
M  V30 3621 H 364.063 2.32901 7.3687 0
M  V30 3622 H 362.408 2.08791 6.62896 0
M  V30 3623 H 365.599 1.12692 4.54333 0
M  V30 3624 H 365.772 1.80406 6.22381 0
M  V30 3625 N 359.178 -1.55987 0.224894 0
M  V30 3626 C 360.425 -1.9839 -0.4059 0
M  V30 3627 C 360.753 -1.11261 -1.59535 0
M  V30 3628 O 360.008 -0.158314 -1.95059 0
M  V30 3629 C 360.307 -3.46394 -0.880106 0
M  V30 3630 C 359.973 -4.5046 0.19918 0
M  V30 3631 C 358.635 -4.7864 0.495661 0
M  V30 3632 C 360.987 -5.12855 0.928939 0
M  V30 3633 C 358.315 -5.66497 1.52636 0
M  V30 3634 C 360.667 -6.01828 1.949 0
M  V30 3635 C 359.331 -6.28351 2.25236 0
M  V30 3636 H 358.601 -0.725961 -0.148529 0
M  V30 3637 H 361.248 -1.88668 0.328113 0
M  V30 3638 H 359.553 -3.53337 -1.69294 0
M  V30 3639 H 361.25 -3.76577 -1.37808 0
M  V30 3640 H 357.84 -4.28579 -0.0420526 0
M  V30 3641 H 362.024 -4.9115 0.713129 0
M  V30 3642 H 357.28 -5.8531 1.76698 0
M  V30 3643 H 361.454 -6.49225 2.51951 0
M  V30 3644 H 359.081 -6.96226 3.05244 0
M  V30 3645 N 360.656 0.0484629 -1.57525 0
M  V30 3646 C 362.067 0.597486 -1.76881 0
M  V30 3647 C 362.418 1.76664 -0.853475 0
M  V30 3648 O 361.543 2.16357 -0.0433656 0
M  V30 3649 C 362.138 1.09066 -3.20765 0
M  V30 3650 C 360.697 1.58535 -3.41385 0
M  V30 3651 C 359.844 0.514868 -2.72478 0
M  V30 3652 H 362.795 -0.177758 -1.57701 0
M  V30 3653 H 362.816 1.95875 -3.2621 0
M  V30 3654 H 362.328 0.239521 -3.8736 0
M  V30 3655 H 360.429 2.45898 -2.79937 0
M  V30 3656 H 360.542 1.64622 -4.49929 0
M  V30 3657 H 358.906 0.965407 -2.35695 0
M  V30 3658 H 359.689 -0.32648 -3.41744 0
M  V30 3659 N 362.134 1.5431 0.320358 0
M  V30 3660 C 363.359 1.76954 1.08175 0
M  V30 3661 C 363.784 0.518193 1.80821 0
M  V30 3662 O 363.142 -0.530411 1.73368 0
M  V30 3663 C 363.19 2.96451 2.05303 0
M  V30 3664 O 362.294 2.68221 3.13259 0
M  V30 3665 H 361.635 0.586275 0.311733 0
M  V30 3666 H 364.165 2.01342 0.363676 0
M  V30 3667 H 364.175 3.23887 2.48116 0
M  V30 3668 H 362.85 3.87196 1.51829 0
M  V30 3669 H 361.427 2.51744 2.75099 0
M  V30 3670 N 363.613 -0.582584 1.46437 0
M  V30 3671 C 364.838 -1.37168 1.55563 0
M  V30 3672 C 365.263 -1.87061 0.19743 0
M  V30 3673 O 364.621 -1.61572 -0.822451 0
M  V30 3674 C 364.669 -2.53511 2.56446 0
M  V30 3675 O 363.773 -3.54953 2.09958 0
M  V30 3676 H 363.114 -0.408494 0.523477 0
M  V30 3677 H 365.644 -0.706646 1.9201 0
M  V30 3678 H 365.654 -3.00426 2.76058 0
M  V30 3679 H 364.329 -2.16549 3.55076 0
M  V30 3680 H 362.906 -3.14516 2.00334 0
M  V30 3681 N 365.091 -1.34144 -0.827227 0
M  V30 3682 C 366.338 -1.26258 -1.58319 0
M  V30 3683 C 366.666 0.168595 -1.93768 0
M  V30 3684 O 365.921 1.12877 -1.59866 0
M  V30 3685 C 366.22 -2.09464 -2.89585 0
M  V30 3686 C 365.886 -3.58521 -2.73448 0
M  V30 3687 C 364.548 -3.99155 -2.68754 0
M  V30 3688 C 366.9 -4.53189 -2.57428 0
M  V30 3689 C 364.228 -5.32656 -2.45957 0
M  V30 3690 C 366.58 -5.86864 -2.36163 0
M  V30 3691 C 365.244 -6.26667 -2.29879 0
M  V30 3692 H 364.514 -0.462013 -0.579332 0
M  V30 3693 H 367.161 -1.65845 -0.95748 0
M  V30 3694 H 365.466 -1.62692 -3.56425 0
M  V30 3695 H 367.163 -2.00712 -3.47154 0
M  V30 3696 H 363.753 -3.26264 -2.77939 0
M  V30 3697 H 367.937 -4.22696 -2.60081 0
M  V30 3698 H 363.193 -5.62519 -2.39546 0
M  V30 3699 H 367.367 -6.59813 -2.22754 0
M  V30 3700 H 364.994 -7.30049 -2.11975 0
M  V30 3701 N 366.569 1.04691 -1.17803 0
M  V30 3702 C 367.809 1.79352 -0.980423 0
M  V30 3703 C 368.173 1.85853 0.481958 0
M  V30 3704 O 369.374 2.56656 0.798809 0
M  V30 3705 C 367.645 3.19088 -1.6099 0
M  V30 3706 S 369.204 4.10164 -1.55918 0
M  V30 3707 H 366.022 0.617631 -0.352211 0
M  V30 3708 H 368.624 1.25575 -1.49837 0
M  V30 3709 H 367.328 3.11962 -2.66661 0
M  V30 3710 H 366.859 3.77941 -1.09197 0
M  V30 3711 H 368.874 4.92907 -0.570685 0
M  V30 3712 N 368.047 0.979072 1.23499 0
M  V30 3713 C 369.295 0.645941 1.91499 0
M  V30 3714 C 369.616 -0.822948 1.76784 0
M  V30 3715 O 368.886 -1.58854 1.14639 0
M  V30 3716 H 367.466 0.235919 0.708767 0
M  V30 3717 H 370.128 1.2426 1.50152 0
M  V30 3718 H 369.224 0.896411 2.9895 0
M  V30 3719 N 369.525 -1.3858 0.750561 0
M  V30 3720 C 370.774 -1.99424 0.302172 0
M  V30 3721 C 371.087 -1.60254 -1.12152 0
M  V30 3722 O 372.293 -2.14046 -1.67023 0
M  V30 3723 C 370.749 -3.56558 0.489307 0
M  V30 3724 C 370.357 -4.04682 1.92189 0
M  V30 3725 C 372.101 -4.24374 0.103478 0
M  V30 3726 C 370.008 -5.54446 2.05775 0
M  V30 3727 H 368.938 -0.746046 0.10923 0
M  V30 3728 H 371.589 -1.58383 0.92667 0
M  V30 3729 H 369.971 -3.95472 -0.204329 0
M  V30 3730 H 371.145 -3.77065 2.64875 0
M  V30 3731 H 369.46 -3.4958 2.26236 0
M  V30 3732 H 372.057 -5.34384 0.183787 0
M  V30 3733 H 372.4 -4.05468 -0.943481 0
M  V30 3734 H 372.933 -3.90688 0.748854 0
M  V30 3735 H 369.672 -5.78252 3.08714 0
M  V30 3736 H 369.192 -5.83816 1.37546 0
M  V30 3737 H 370.871 -6.20099 1.84626 0
M  V30 3738 N 371.003 -0.499398 -1.49478 0
M  V30 3739 C 372.243 0.0440751 -2.04352 0
M  V30 3740 C 372.607 1.34423 -1.37093 0
M  V30 3741 O 373.808 1.97184 -1.82679 0
M  V30 3742 C 372.079 0.194918 -3.56868 0
M  V30 3743 S 373.638 0.69287 -4.33295 0
M  V30 3744 H 370.456 0.00253458 -0.710995 0
M  V30 3745 H 373.058 -0.673 -1.83551 0
M  V30 3746 H 371.762 -0.756672 -4.03364 0
M  V30 3747 H 371.293 0.93728 -3.82071 0
M  V30 3748 H 373.308 1.96226 -4.55752 0
M  V30 3749 N 372.481 1.55866 -0.233164 0
M  V30 3750 C 373.729 1.9821 0.394593 0
M  V30 3751 C 374.05 1.12234 1.59463 0
M  V30 3752 O 373.32 0.201981 1.94856 0
M  V30 3753 H 371.9 0.732034 0.148778 0
M  V30 3754 H 374.562 1.92107 -0.32876 0
M  V30 3755 H 373.658 3.03845 0.713063 0
M  V30 3756 N 373.959 -0.0401083 1.57549 0
M  V30 3757 C 374.889 -1.04384 2.08869 0
M  V30 3758 C 375.87 -1.38407 0.988817 0
M  V30 3759 O 377.055 -1.47483 1.26342 0
M  V30 3760 C 374.185 -2.34808 2.55895 0
M  V30 3761 C 373.139 -2.15057 3.70047 0
M  V30 3762 C 372.465 -3.51145 4.03239 0
M  V30 3763 C 373.765 -1.54576 4.98902 0
M  V30 3764 H 375.459 -0.616666 2.92981 0
M  V30 3765 H 373.005 -0.295184 1.40942 0
M  V30 3766 H 374.958 -3.05346 2.90417 0
M  V30 3767 H 373.682 -2.79565 1.68853 0
M  V30 3768 H 372.341 -1.46954 3.35857 0
M  V30 3769 H 371.989 -3.93529 3.13279 0
M  V30 3770 H 371.689 -3.38758 4.80122 0
M  V30 3771 H 373.213 -4.23062 4.40285 0
M  V30 3772 H 374.627 -2.15017 5.31451 0
M  V30 3773 H 373.024 -1.52796 5.80322 0
M  V30 3774 H 374.094 -0.51039 4.82206 0
M  V30 3775 N 375.437 -1.54477 -0.31217 0
M  V30 3776 C 376.384 -1.84655 -1.38461 0
M  V30 3777 C 377.354 -0.694536 -1.50882 0
M  V30 3778 O 378.539 -0.942081 -1.6592 0
M  V30 3779 C 375.679 -2.0896 -2.74645 0
M  V30 3780 C 374.792 -3.36618 -2.70763 0
M  V30 3781 C 373.927 -3.50824 -3.98868 0
M  V30 3782 C 372.966 -4.72315 -3.89339 0
M  V30 3783 N 372.103 -4.83387 -5.09197 0
M  V30 3784 H 376.943 -2.76142 -1.12026 0
M  V30 3785 H 374.48 -1.36748 -0.542065 0
M  V30 3786 H 376.438 -2.21045 -3.53829 0
M  V30 3787 H 375.068 -1.20752 -2.99364 0
M  V30 3788 H 374.12 -3.33211 -1.83506 0
M  V30 3789 H 375.432 -4.25917 -2.59608 0
M  V30 3790 H 374.586 -3.62513 -4.86486 0
M  V30 3791 H 373.325 -2.59638 -4.12843 0
M  V30 3792 H 372.33 -4.6067 -3.00105 0
M  V30 3793 H 373.555 -5.64897 -3.76919 0
M  V30 3794 H 371.501 -3.9512 -5.23657 0
M  V30 3795 H 371.418 -5.66669 -5.00422 0
M  V30 3796 H 372.686 -4.9942 -5.98498 0
M  V30 3797 N 376.915 0.57481 -1.46744 0
M  V30 3798 C 378.326 1.15695 -1.46532 0
M  V30 3799 C 378.677 1.95068 -0.210425 0
M  V30 3800 O 377.802 2.05241 0.685944 0
M  V30 3801 C 378.397 2.1048 -2.65487 0
M  V30 3802 C 376.956 2.64002 -2.68291 0
M  V30 3803 C 376.103 1.40026 -2.39349 0
M  V30 3804 H 379.054 0.362325 -1.54509 0
M  V30 3805 H 379.075 2.94074 -2.41455 0
M  V30 3806 H 378.587 1.52683 -3.56805 0
M  V30 3807 H 376.688 3.25646 -1.81067 0
M  V30 3808 H 376.801 3.06197 -3.68483 0
M  V30 3809 H 375.165 1.70106 -1.89568 0
M  V30 3810 H 375.948 0.840485 -3.32852 0
M  V30 3811 N 378.394 1.34581 0.820102 0
M  V30 3812 C 379.622 1.3018 1.60813 0
M  V30 3813 C 380.037 -0.123551 1.88395 0
M  V30 3814 O 379.394 -1.07148 1.47735 0
M  V30 3815 C 379.445 2.09312 2.94739 0
M  V30 3816 O 379.166 3.46288 2.68358 0
M  V30 3817 C 380.667 2.1234 3.89136 0
M  V30 3818 H 377.887 0.447726 0.499782 0
M  V30 3819 H 380.431 1.77237 1.02017 0
M  V30 3820 H 378.586 1.65889 3.50085 0
M  V30 3821 H 379 3.87227 3.53774 0
M  V30 3822 H 380.474 2.72126 4.80262 0
M  V30 3823 H 380.951 1.11854 4.24718 0
M  V30 3824 H 381.557 2.55864 3.39726 0
M  V30 3825 N 379.872 -1.04064 1.18357 0
M  V30 3826 C 381.12 -1.76915 0.977013 0
M  V30 3827 C 381.441 -1.88624 -0.494577 0
M  V30 3828 O 380.711 -1.41125 -1.3587 0
M  V30 3829 H 379.291 -0.65535 0.358504 0
M  V30 3830 H 381.953 -1.25592 1.49039 0
M  V30 3831 H 381.049 -2.78178 1.41504 0
M  V30 3832 N 381.35 -0.985608 -1.22978 0
M  V30 3833 C 382.298 -0.522631 -2.26652 0
M  V30 3834 C 383.292 0.422998 -1.64034 0
M  V30 3835 O 384.498 0.296319 -1.77544 0
M  V30 3836 H 380.873 -0.150597 -0.736766 0
M  V30 3837 H 382.844 -1.40863 -2.63059 0
M  V30 3838 C 381.593 0.154238 -3.47358 0
M  V30 3839 H 380.916 -0.564329 -3.95797 0
M  V30 3840 H 382.356 0.441744 -4.21693 0
M  V30 3841 C 380.815 1.38719 -3.07016 0
M  V30 3842 O 381.345 2.48307 -3.15764 0
M  V30 3843 N 379.551 1.25975 -2.61875 0
M  V30 3844 H 379.098 0.368068 -2.54957 0
M  V30 3845 H 379.056 2.08578 -2.3525 0
M  V30 3846 N 382.828 1.3818 -0.7579 0
M  V30 3847 C 384.244 1.5353 -0.435972 0
M  V30 3848 C 384.444 1.71961 1.05032 0
M  V30 3849 O 383.5 1.73307 1.83633 0
M  V30 3850 C 384.813 2.73989 -1.23898 0
M  V30 3851 C 386.361 2.87841 -1.22949 0
M  V30 3852 C 386.836 4.11266 -2.01554 0
M  V30 3853 N 388.327 4.18352 -1.98837 0
M  V30 3854 C 389.062 5.12856 -2.5645 0
M  V30 3855 N 388.558 6.13005 -3.22794 0
M  V30 3856 N 390.351 5.05238 -2.46356 0
M  V30 3857 H 382.502 1.24467 -1.7211 0
M  V30 3858 H 384.765 0.604982 -0.729864 0
M  V30 3859 H 384.471 2.66789 -2.29165 0
M  V30 3860 H 384.345 3.67294 -0.858764 0
M  V30 3861 H 386.732 2.9452 -0.184854 0
M  V30 3862 H 386.813 1.95534 -1.64924 0
M  V30 3863 H 386.457 4.05349 -3.06031 0
M  V30 3864 H 386.387 5.02661 -1.5697 0
M  V30 3865 H 388.878 3.46628 -1.50524 0
M  V30 3866 H 389.191 6.81619 -3.64165 0
M  V30 3867 H 387.536 6.13325 -3.2689 0
M  V30 3868 H 390.727 4.25938 -1.9415 0
M  V30 3869 H 390.9 5.78707 -2.91552 0
M  V30 3870 N 384.306 0.507319 1.49211 0
M  V30 3871 C 385.236 -0.256939 2.32082 0
M  V30 3872 C 386.217 -0.956609 1.40652 0
M  V30 3873 O 387.402 -0.946788 1.69557 0
M  V30 3874 C 384.532 -1.31802 3.21318 0
M  V30 3875 C 383.486 -0.737855 4.21592 0
M  V30 3876 C 382.812 -1.89992 4.99807 0
M  V30 3877 C 384.112 0.275325 5.21574 0
M  V30 3878 H 385.806 0.434798 2.96226 0
M  V30 3879 H 383.352 0.210546 1.42452 0
M  V30 3880 H 385.305 -1.86045 3.78107 0
M  V30 3881 H 384.029 -2.03903 2.5513 0
M  V30 3882 H 382.688 -0.217126 3.65956 0
M  V30 3883 H 382.336 -2.60877 4.30061 0
M  V30 3884 H 382.036 -1.51777 5.6766 0
M  V30 3885 H 383.56 -2.44657 5.59442 0
M  V30 3886 H 384.974 -0.179193 5.7302 0
M  V30 3887 H 383.371 0.573649 5.97352 0
M  V30 3888 H 384.441 1.18903 4.70096 0
M  V30 3889 N 385.784 -1.5574 0.241426 0
M  V30 3890 C 387.009 -2.0366 -0.392111 0
M  V30 3891 C 387.434 -1.11969 -1.51144 0
M  V30 3892 O 386.792 -0.111594 -1.80956 0
M  V30 3893 C 386.84 -3.49638 -0.882371 0
M  V30 3894 O 385.944 -3.6108 -1.99235 0
M  V30 3895 H 385.285 -0.658379 -0.0862122 0
M  V30 3896 H 387.815 -2.01302 0.365881 0
M  V30 3897 H 387.825 -3.90351 -1.18702 0
M  V30 3898 H 386.5 -4.15852 -0.0632361 0
M  V30 3899 H 385.077 -3.32262 -1.69282 0
M  V30 3900 N 387.262 0.0317525 -1.57568 0
M  V30 3901 C 388.209 1.0332 -2.06382 0
M  V30 3902 C 389.179 1.36082 -0.952414 0
M  V30 3903 O 390.364 1.46466 -1.2228 0
M  V30 3904 C 387.504 2.32989 -2.54578 0
M  V30 3905 C 386.617 2.0641 -3.79498 0
M  V30 3906 C 385.752 3.2993 -4.16317 0
M  V30 3907 C 384.791 2.98893 -5.34162 0
M  V30 3908 N 383.928 4.14857 -5.66426 0
M  V30 3909 H 388.768 0.609982 -2.9169 0
M  V30 3910 H 386.305 0.289573 -1.44222 0
M  V30 3911 H 388.263 3.0875 -2.80587 0
M  V30 3912 H 386.893 2.73039 -1.7219 0
M  V30 3913 H 385.945 1.21158 -3.6059 0
M  V30 3914 H 387.257 1.79513 -4.65378 0
M  V30 3915 H 386.411 4.1406 -4.4344 0
M  V30 3916 H 385.15 3.59938 -3.29083 0
M  V30 3917 H 384.155 2.13164 -5.06795 0
M  V30 3918 H 385.38 2.70165 -6.23047 0
M  V30 3919 H 383.326 4.44821 -4.82151 0
M  V30 3920 H 383.243 3.91374 -6.4681 0
M  V30 3921 H 384.511 4.99868 -5.98124 0
M  V30 3922 N 388.74 1.54641 0.303973 0
M  V30 3923 C 389.965 1.78092 1.06292 0
M  V30 3924 C 390.39 0.537342 1.80262 0
M  V30 3925 O 389.748 -0.511993 1.7392 0
M  V30 3926 C 389.796 2.98612 2.02147 0
M  V30 3927 O 388.9 2.71528 3.10397 0
M  V30 3928 H 388.241 0.589548 0.305497 0
M  V30 3929 H 390.771 2.01716 0.3423 0
M  V30 3930 H 390.781 3.265 2.44667 0
M  V30 3931 H 389.456 3.88785 1.47714 0
M  V30 3932 H 388.033 2.54648 2.72413 0
M  V30 3933 N 390.218 -0.567019 1.47046 0
M  V30 3934 C 391.466 -1.322 1.52864 0
M  V30 3935 C 391.787 -1.94088 0.188388 0
M  V30 3936 O 391.057 -1.7941 -0.786693 0
M  V30 3937 H 389.637 -0.490894 0.563056 0
M  V30 3938 H 392.299 -0.662879 1.83281 0
M  V30 3939 H 391.395 -2.12062 2.2899 0
M  V30 3940 N 391.696 -1.35014 -0.812953 0
M  V30 3941 C 392.626 -1.30069 -1.93919 0
M  V30 3942 C 393.607 -0.176275 -1.69184 0
M  V30 3943 O 394.792 -0.370227 -1.90638 0
M  V30 3944 C 391.922 -1.06547 -3.30552 0
M  V30 3945 C 390.876 -2.15561 -3.69753 0
M  V30 3946 C 390.202 -1.77214 -5.04479 0
M  V30 3947 C 391.502 -3.57476 -3.808 0
M  V30 3948 H 393.196 -2.24303 -1.98314 0
M  V30 3949 H 390.742 -1.07977 -0.952736 0
M  V30 3950 H 392.695 -1.01729 -4.08937 0
M  V30 3951 H 391.419 -0.0875719 -3.26483 0
M  V30 3952 H 390.078 -2.19466 -2.9365 0
M  V30 3953 H 389.726 -0.780589 -4.96906 0
M  V30 3954 H 389.426 -2.50184 -5.31678 0
M  V30 3955 H 390.95 -1.7391 -5.8531 0
M  V30 3956 H 392.364 -3.55929 -4.4943 0
M  V30 3957 H 390.761 -4.29152 -4.19462 0
M  V30 3958 H 391.831 -3.94091 -2.82525 0
M  V30 3959 N 393.175 1.03435 -1.18907 0
M  V30 3960 C 394.122 2.11591 -0.921837 0
M  V30 3961 C 395.092 1.65499 0.141226 0
M  V30 3962 O 396.277 1.908 0.000242829 0
M  V30 3963 C 393.417 3.42012 -0.460616 0
M  V30 3964 C 392.53 4.01682 -1.58982 0
M  V30 3965 C 391.665 5.20091 -1.08069 0
M  V30 3966 C 390.704 5.71805 -2.18416 0
M  V30 3967 N 389.841 6.81494 -1.68849 0
M  V30 3968 H 394.681 2.33787 -1.8479 0
M  V30 3969 H 392.218 1.1467 -0.921373 0
M  V30 3970 H 394.176 4.16834 -0.174642 0
M  V30 3971 H 392.806 3.19944 0.428467 0
M  V30 3972 H 391.858 3.24127 -1.99113 0
M  V30 3973 H 393.17 4.36084 -2.4214 0
M  V30 3974 H 392.324 6.02051 -0.749615 0
M  V30 3975 H 391.063 4.87209 -0.218771 0
M  V30 3976 H 390.068 4.88461 -2.5236 0
M  V30 3977 H 391.293 6.06728 -3.05054 0
M  V30 3978 H 389.239 6.50475 -0.849572 0
M  V30 3979 H 389.156 7.14994 -2.45601 0
M  V30 3980 H 390.424 7.67063 -1.38689 0
M  V30 3981 N 394.653 0.992116 1.22453 0
M  V30 3982 C 395.901 0.666215 1.90804 0
M  V30 3983 C 396.222 -0.804152 1.77647 0
M  V30 3984 O 395.492 -1.57629 1.16318 0
M  V30 3985 H 394.072 0.243423 0.706225 0
M  V30 3986 H 396.734 1.25845 1.48825 0
M  V30 3987 H 395.83 0.928069 2.97982 0
M  V30 3988 N 396.131 -1.37776 0.765217 0
M  V30 3989 C 397.371 -2.01691 0.331669 0
M  V30 3990 C 397.735 -1.59432 -1.06983 0
M  V30 3991 O 398.936 -2.15761 -1.60314 0
M  V30 3992 C 397.207 -3.54385 0.463261 0
M  V30 3993 S 398.766 -4.38652 0.114011 0
M  V30 3994 H 395.584 -0.699387 0.127979 0
M  V30 3995 H 398.186 -1.68084 0.998396 0
M  V30 3996 H 396.89 -3.82629 1.48401 0
M  V30 3997 H 396.421 -3.92783 -0.220246 0
M  V30 3998 H 398.436 -4.84021 -1.09261 0
M  V30 3999 N 397.609 -0.515225 -1.4894 0
M  V30 4000 C 398.855 0.0242508 -2.02785 0
M  V30 4001 C 399.188 1.35323 -1.39289 0
M  V30 4002 O 398.463 1.87041 -0.533469 0
M  V30 4003 C 398.746 0.16184 -3.59736 0
M  V30 4004 C 398.599 -1.19127 -4.33738 0
M  V30 4005 C 399.918 0.895719 -4.30888 0
M  V30 4006 H 397.037 0.00733914 -0.736963 0
M  V30 4007 H 399.679 -0.669395 -1.77818 0
M  V30 4008 H 397.829 0.752624 -3.8114 0
M  V30 4009 H 399.501 -1.82202 -4.23792 0
M  V30 4010 H 397.744 -1.77695 -3.95736 0
M  V30 4011 H 398.415 -1.04815 -5.41957 0
M  V30 4012 H 400.891 0.394528 -4.14225 0
M  V30 4013 H 399.767 0.960859 -5.40425 0
M  V30 4014 H 400.028 1.9427 -3.97129 0
M  V30 4015 N 399.087 1.5561 -0.249682 0
M  V30 4016 C 400.317 2.03116 0.377803 0
M  V30 4017 C 400.725 1.12822 1.51881 0
M  V30 4018 O 400.068 0.13562 1.83199 0
M  V30 4019 C 400.13 3.46866 0.944693 0
M  V30 4020 C 399.794 4.56955 -0.0644259 0
M  V30 4021 C 400.791 5.12485 -0.874957 0
M  V30 4022 C 398.476 5.01936 -0.19132 0
M  V30 4023 C 400.47 6.11491 -1.79881 0
M  V30 4024 C 398.157 6.00773 -1.11868 0
M  V30 4025 C 399.155 6.5543 -1.92095 0
M  V30 4026 O 398.843 7.5234 -2.83267 0
M  V30 4027 H 398.575 0.669489 0.0935961 0
M  V30 4028 H 401.129 2.02004 -0.371966 0
M  V30 4029 H 399.359 3.45136 1.74407 0
M  V30 4030 H 401.048 3.77856 1.48255 0
M  V30 4031 H 401.814 4.78564 -0.787523 0
M  V30 4032 H 397.693 4.59055 0.423072 0
M  V30 4033 H 401.237 6.54078 -2.42543 0
M  V30 4034 H 397.134 6.34114 -1.20703 0
M  V30 4035 H 397.902 7.69966 -2.7766 0
M  V30 4036 N 400.565 -0.0233959 1.57583 0
M  V30 4037 C 401.813 -0.711654 1.89156 0
M  V30 4038 C 402.134 -1.75591 0.848096 0
M  V30 4039 O 401.404 -1.95547 -0.117566 0
M  V30 4040 H 399.984 -0.265835 0.698098 0
M  V30 4041 H 402.646 0.0119948 1.94896 0
M  V30 4042 H 401.742 -1.19766 2.88206 0
M  V30 4043 N 402.043 -1.548 -0.295768 0
M  V30 4044 C 402.975 -1.82492 -1.3867 0
M  V30 4045 C 403.988 -0.708134 -1.46592 0
M  V30 4046 O 405.177 -0.985686 -1.48817 0
M  V30 4047 C 402.277 -1.95256 -2.76999 0
M  V30 4048 C 401.45 -3.25709 -2.91946 0
M  V30 4049 C 400.509 -3.28824 -4.10806 0
M  V30 4050 O 399.535 -4.02328 -4.02643 0
M  V30 4051 N 400.737 -2.5459 -5.21694 0
M  V30 4052 H 403.502 -2.76646 -1.15269 0
M  V30 4053 H 401.063 -1.54438 -0.485849 0
M  V30 4054 H 403.055 -1.94736 -3.54768 0
M  V30 4055 H 401.625 -1.08072 -2.93324 0
M  V30 4056 H 400.845 -3.38959 -2.01247 0
M  V30 4057 H 402.133 -4.11786 -2.98847 0
M  V30 4058 H 401.531 -1.94512 -5.31208 0
M  V30 4059 H 400.088 -2.59818 -5.97778 0
M  V30 4060 N 403.521 0.559213 -1.47345 0
M  V30 4061 C 404.431 1.69388 -1.62311 0
M  V30 4062 C 405.447 1.6648 -0.505993 0
M  V30 4063 O 406.623 1.85964 -0.773262 0
M  V30 4064 C 403.688 3.05894 -1.63185 0
M  V30 4065 C 402.749 3.19885 -2.86307 0
M  V30 4066 C 401.982 4.49879 -2.87131 0
M  V30 4067 O 402.205 5.35217 -1.97229 0
M  V30 4068 O 401.139 4.67618 -3.78968 0
M  V30 4069 H 404.965 1.59706 -2.58317 0
M  V30 4070 H 402.55 0.728989 -1.30407 0
M  V30 4071 H 404.432 3.87133 -1.66451 0
M  V30 4072 H 403.107 3.15964 -0.70345 0
M  V30 4073 H 402.014 2.38052 -2.88587 0
M  V30 4074 H 403.347 3.14718 -3.78435 0
M  V30 4075 N 404.999 1.35443 0.805782 0
M  V30 4076 C 405.962 1.28301 1.89925 0
M  V30 4077 C 406.962 0.194285 1.59622 0
M  V30 4078 O 408.152 0.448036 1.6834 0
M  V30 4079 C 405.284 0.984997 3.2636 0
M  V30 4080 H 406.477 2.2553 1.97677 0
M  V30 4081 H 404.03 1.19979 1.00173 0
M  V30 4082 H 404.765 0.016603 3.24296 0
M  V30 4083 H 404.55 1.77269 3.4974 0
M  V30 4084 H 406.04 0.960651 4.064 0
M  V30 4085 N 406.477 -1.02803 1.19454 0
M  V30 4086 C 407.723 -1.76478 0.999171 0
M  V30 4087 C 408.056 -1.88456 -0.468828 0
M  V30 4088 O 407.331 -1.40198 -1.34814 0
M  V30 4089 C 407.614 -3.19044 1.66981 0
M  V30 4090 C 407.467 -3.14932 3.21151 0
M  V30 4091 C 408.786 -4.17456 1.39349 0
M  V30 4092 H 405.905 -0.640614 0.364393 0
M  V30 4093 H 408.547 -1.20005 1.47305 0
M  V30 4094 H 406.697 -3.67263 1.2669 0
M  V30 4095 H 408.369 -2.74605 3.70661 0
M  V30 4096 H 406.612 -2.52625 3.52652 0
M  V30 4097 H 407.283 -4.1566 3.63223 0
M  V30 4098 H 409.759 -3.77842 1.74283 0
M  V30 4099 H 408.635 -5.154 1.88823 0
M  V30 4100 H 408.896 -4.40949 0.318813 0
M  V30 4101 N 407.956 -0.998596 -1.21925 0
M  V30 4102 C 409.372 -0.710303 -1.42923 0
M  V30 4103 C 409.572 0.716933 -1.88314 0
M  V30 4104 O 408.628 1.48712 -2.04062 0
M  V30 4105 C 409.941 -1.72072 -2.466 0
M  V30 4106 C 411.489 -1.73681 -2.60392 0
M  V30 4107 C 411.964 -2.73601 -3.67296 0
M  V30 4108 N 413.455 -2.7223 -3.7476 0
M  V30 4109 C 414.19 -3.46206 -4.57087 0
M  V30 4110 N 413.686 -4.29802 -5.43362 0
M  V30 4111 N 415.479 -3.34886 -4.51451 0
M  V30 4112 H 407.63 -1.92028 -0.9077 0
M  V30 4113 H 409.893 -0.828487 -0.460775 0
M  V30 4114 H 409.599 -2.74231 -2.20206 0
M  V30 4115 H 409.473 -1.51818 -3.45299 0
M  V30 4116 H 411.86 -0.722173 -2.86127 0
M  V30 4117 H 411.941 -1.98005 -1.61949 0
M  V30 4118 H 411.585 -3.75217 -3.42307 0
M  V30 4119 H 411.515 -2.46545 -4.65321 0
M  V30 4120 H 414.006 -2.11576 -3.1312 0
M  V30 4121 H 414.319 -4.83061 -6.03218 0
M  V30 4122 H 412.664 -4.33887 -5.42925 0
M  V30 4123 H 415.855 -2.69015 -3.83078 0
M  V30 4124 H 416.028 -3.92796 -5.15379 0
M  V30 4125 N 409.434 1.37368 -0.772513 0
M  V30 4126 C 410.364 2.32856 -0.173304 0
M  V30 4127 C 411.345 1.55818 0.682262 0
M  V30 4128 O 412.53 1.84052 0.619566 0
M  V30 4129 C 409.66 3.40048 0.706007 0
M  V30 4130 C 408.614 4.27973 -0.0483144 0
M  V30 4131 C 407.94 5.26184 0.950491 0
M  V30 4132 C 409.24 5.07665 -1.22776 0
M  V30 4133 H 410.934 2.83217 -0.971002 0
M  V30 4134 H 408.48 1.3617 -0.468377 0
M  V30 4135 H 410.433 4.05827 1.13501 0
M  V30 4136 H 409.157 2.88214 1.53623 0
M  V30 4137 H 407.816 3.63726 -0.458107 0
M  V30 4138 H 407.464 4.7063 1.77529 0
M  V30 4139 H 407.164 5.85872 0.450314 0
M  V30 4140 H 408.688 5.94838 1.37842 0
M  V30 4141 H 410.102 5.66578 -0.875366 0
M  V30 4142 H 408.499 5.76681 -1.66007 0
M  V30 4143 H 409.569 4.40294 -2.03149 0
M  V30 4144 N 410.912 0.523116 1.48665 0
M  V30 4145 C 412.137 -0.0117284 2.07397 0
M  V30 4146 C 412.562 -1.28031 1.37803 0
M  V30 4147 O 411.92 -1.75836 0.441762 0
M  V30 4148 C 411.968 -0.225786 3.59892 0
M  V30 4149 O 411.072 -1.29592 3.91509 0
M  V30 4150 H 410.413 0.0360673 0.66302 0
M  V30 4151 H 412.943 0.729066 1.9117 0
M  V30 4152 H 412.953 -0.450552 4.05505 0
M  V30 4153 H 411.628 0.700944 4.09951 0
M  V30 4154 H 410.205 -1.05436 3.57684 0
M  V30 4155 N 412.39 -1.55475 0.257931 0
M  V30 4156 C 413.636 -1.99502 -0.364266 0
M  V30 4157 C 413.969 -1.146 -1.56782 0
M  V30 4158 O 413.244 -0.211968 -1.93342 0
M  V30 4159 C 413.527 -3.51917 -0.763333 0
M  V30 4160 C 413.38 -4.4758 0.446371 0
M  V30 4161 C 414.699 -4.09742 -1.60623 0
M  V30 4162 H 411.818 -0.725277 -0.130929 0
M  V30 4163 H 414.46 -1.8653 0.361446 0
M  V30 4164 H 412.61 -3.63101 -1.38166 0
M  V30 4165 H 414.282 -4.48362 1.08487 0
M  V30 4166 H 412.525 -4.19947 1.08753 0
M  V30 4167 H 413.196 -5.51862 0.123645 0
M  V30 4168 H 415.672 -4.01727 -1.08418 0
M  V30 4169 H 414.548 -5.16631 -1.85429 0
M  V30 4170 H 414.809 -3.58889 -2.58169 0
M  V30 4171 N 413.868 0.0150385 -1.57593 0
M  V30 4172 C 415.116 0.701613 -1.8953 0
M  V30 4173 C 415.437 1.75139 -0.857396 0
M  V30 4174 O 414.707 1.95607 0.107194 0
M  V30 4175 H 413.287 0.26213 -0.699498 0
M  V30 4176 H 415.949 -0.0223304 -1.94887 0
M  V30 4177 H 415.045 1.18236 -2.88837 0
M  V30 4178 N 415.346 1.54954 0.287554 0
M  V30 4179 C 416.757 1.65732 0.859634 0
M  V30 4180 C 417.108 0.574767 1.87592 0
M  V30 4181 O 416.233 -0.286299 2.14498 0
M  V30 4182 C 416.828 3.00438 1.56597 0
M  V30 4183 C 415.387 3.13292 2.08627 0
M  V30 4184 C 414.534 2.61473 0.923416 0
M  V30 4185 H 417.485 1.5857 0.0642338 0
M  V30 4186 H 417.506 2.92613 2.43224 0
M  V30 4187 H 417.018 3.79207 0.826053 0
M  V30 4188 H 415.119 2.39268 2.85625 0
M  V30 4189 H 415.232 4.19647 2.31157 0
M  V30 4190 H 413.596 2.18264 1.31275 0
M  V30 4191 H 414.379 3.42733 0.197241 0
M  V30 4192 N 416.824 -0.551391 1.4764 0
M  V30 4193 C 417.757 -1.6738 1.5511 0
M  V30 4194 C 418.735 -1.5753 0.402856 0
M  V30 4195 O 419.919 -1.78307 0.611475 0
M  V30 4196 C 417.046 -3.05661 1.45908 0
M  V30 4197 C 416.092 -3.33938 2.65307 0
M  V30 4198 S 416.925 -3.22553 4.27457 0
M  V30 4199 C 418.081 -4.63317 4.20818 0
M  V30 4200 H 418.314 -1.6079 2.50068 0
M  V30 4201 H 415.847 -0.732674 1.35909 0
M  V30 4202 H 417.805 -3.8542 1.41286 0
M  V30 4203 H 416.466 -3.09711 0.523248 0
M  V30 4204 H 415.659 -4.34761 2.54948 0
M  V30 4205 H 415.261 -2.61809 2.67081 0
M  V30 4206 H 417.553 -5.54391 3.89431 0
M  V30 4207 H 418.496 -4.78732 5.21748 0
M  V30 4208 H 418.904 -4.41636 3.51593 0
M  V30 4209 N 418.302 -1.35869 -0.798587 0
M  V30 4210 C 419.265 -1.29307 -1.89242 0
M  V30 4211 C 420.265 -0.202747 -1.59517 0
M  V30 4212 O 421.455 -0.456957 -1.681 0
M  V30 4213 C 418.587 -1.00229 -3.25833 0
M  V30 4214 H 419.78 -2.26576 -1.96478 0
M  V30 4215 H 417.333 -1.20509 -0.995358 0
M  V30 4216 H 418.068 -0.033801 -3.24282 0
M  V30 4217 H 417.853 -1.79121 -3.48795 0
M  V30 4218 H 419.343 -0.98219 -4.05885 0
M  V30 4219 N 419.78 1.02168 -1.19998 0
M  V30 4220 C 421.196 1.27969 -0.953737 0
M  V30 4221 C 421.396 1.98079 0.369703 0
M  V30 4222 O 420.452 2.27306 1.09947 0
M  V30 4223 C 421.765 2.11971 -2.13281 0
M  V30 4224 C 423.313 2.25255 -2.17323 0
M  V30 4225 C 423.788 3.12632 -3.34702 0
M  V30 4226 N 425.279 3.2022 -3.34684 0
M  V30 4227 C 426.014 3.88039 -4.22153 0
M  V30 4228 N 425.51 4.58027 -5.19791 0
M  V30 4229 N 427.303 3.84511 -4.10009 0
M  V30 4230 H 419.454 0.550794 -2.05134 0
M  V30 4231 H 421.717 0.305683 -0.897364 0
M  V30 4232 H 421.423 1.67785 -3.09097 0
M  V30 4233 H 421.297 3.12699 -2.10949 0
M  V30 4234 H 423.684 2.68667 -1.22073 0
M  V30 4235 H 423.765 1.24053 -2.23706 0
M  V30 4236 H 423.409 2.69926 -4.30235 0
M  V30 4237 H 423.339 4.13909 -3.25556 0
M  V30 4238 H 425.83 2.70382 -2.64012 0
M  V30 4239 H 426.143 5.07429 -5.82868 0
M  V30 4240 H 424.488 4.56869 -5.23733 0
M  V30 4241 H 427.679 3.28978 -3.33003 0
M  V30 4242 H 427.852 4.3709 -4.78389 0
M  V30 4243 N 421.258 1.00505 1.21394 0
M  V30 4244 C 422.535 0.603277 1.86064 0
M  V30 4245 C 422.915 -0.919095 1.90042 0
M  V30 4246 O 422.263 -1.80607 1.39977 0
M  V30 4247 C 422.473 1.23772 3.26315 0
M  V30 4248 C 423.821 1.34586 4.02705 0
M  V30 4249 O 424.845 1.19304 3.35626 0
M  V30 4250 O 423.704 1.59169 5.22807 0
M  V30 4251 H 420.798 0.206634 0.800769 0
M  V30 4252 H 423.344 1.1017 1.29076 0
M  V30 4253 H 422.116 2.27848 3.18121 0
M  V30 4254 H 421.739 0.725648 3.90922 0
M  V30 4255 N 422.737 -1.36956 0.779787 0
M  V30 4256 C 423.983 -1.99787 0.348281 0
M  V30 4257 C 424.316 -1.61756 -1.07465 0
M  V30 4258 O 423.591 -0.867639 -1.74075 0
M  V30 4259 C 423.874 -3.56597 0.50104 0
M  V30 4260 C 423.727 -4.04513 1.96697 0
M  V30 4261 C 425.046 -4.40008 -0.0898097 0
M  V30 4262 H 422.165 -0.725796 0.128022 0
M  V30 4263 H 424.807 -1.62514 0.984331 0
M  V30 4264 H 422.957 -3.88479 -0.0404347 0
M  V30 4265 H 424.629 -3.83161 2.56876 0
M  V30 4266 H 422.872 -3.56408 2.47297 0
M  V30 4267 H 423.543 -5.1352 2.02486 0
M  V30 4268 H 426.019 -4.14431 0.372293 0
M  V30 4269 H 424.895 -5.4888 0.0471605 0
M  V30 4270 H 425.156 -4.26035 -1.18096 0
M  V30 4271 N 424.215 -0.530993 -1.48385 0
M  V30 4272 C 425.125 0.23503 -2.3342 0
M  V30 4273 C 426.141 0.93801 -1.46552 0
M  V30 4274 O 427.317 0.912745 -1.7953 0
M  V30 4275 C 424.382 1.26778 -3.22689 0
M  V30 4276 C 423.443 0.575038 -4.25431 0
M  V30 4277 C 422.676 1.55858 -5.10435 0
M  V30 4278 O 422.899 2.79129 -4.97437 0
M  V30 4279 O 421.833 1.09742 -5.91811 0
M  V30 4280 H 425.659 -0.461794 -3.00169 0
M  V30 4281 H 423.244 -0.291903 -1.46521 0
M  V30 4282 H 425.126 1.86457 -3.77904 0
M  V30 4283 H 423.801 1.94699 -2.586 0
M  V30 4284 H 422.708 -0.0622782 -3.74048 0
M  V30 4285 H 424.041 -0.062253 -4.92161 0
M  V30 4286 N 425.693 1.55336 -0.266172 0
M  V30 4287 C 426.918 2.04258 0.359661 0
M  V30 4288 C 427.343 1.14359 1.49344 0
M  V30 4289 O 426.701 0.140369 1.80756 0
M  V30 4290 C 426.749 3.50997 0.826635 0
M  V30 4291 O 425.853 3.64204 1.93466 0
M  V30 4292 H 425.194 0.659668 0.075727 0
M  V30 4293 H 427.724 2.00694 -0.39786 0
M  V30 4294 H 427.734 3.9219 1.12477 0
M  V30 4295 H 426.409 4.159 -0.00293032 0
M  V30 4296 H 424.986 3.34913 1.63974 0
M  V30 4297 N 427.171 -0.0066808 1.57599 0
M  V30 4298 C 428.101 -0.999296 2.11036 0
M  V30 4299 C 429.082 -1.36278 1.01795 0
M  V30 4300 O 430.267 -1.4477 1.29442 0
M  V30 4301 C 427.397 -2.29328 2.60818 0
M  V30 4302 C 426.351 -2.07159 3.74525 0
M  V30 4303 C 425.677 -3.42512 4.10596 0
M  V30 4304 C 426.977 -1.43959 5.02069 0
M  V30 4305 H 428.671 -0.554382 2.94223 0
M  V30 4306 H 426.217 -0.265221 1.41536 0
M  V30 4307 H 428.17 -2.99117 2.96828 0
M  V30 4308 H 426.894 -2.7592 1.74745 0
M  V30 4309 H 425.553 -1.39797 3.38899 0
M  V30 4310 H 425.201 -3.86795 3.21556 0
M  V30 4311 H 424.901 -3.28498 4.87199 0
M  V30 4312 H 426.425 -4.13628 4.4916 0
M  V30 4313 H 427.839 -2.03696 5.35893 0
M  V30 4314 H 426.236 -1.40452 5.83432 0
M  V30 4315 H 427.306 -0.407992 4.83181 0
M  V30 4316 N 428.649 -1.55105 -0.279332 0
M  V30 4317 C 429.612 -1.86783 -1.32834 0
M  V30 4318 C 430.612 -0.74199 -1.42657 0
M  V30 4319 O 431.802 -1.0102 -1.41918 0
M  V30 4320 C 428.934 -2.06746 -2.71052 0
M  V30 4321 H 430.127 -2.8055 -1.05979 0
M  V30 4322 H 427.68 -1.47499 -0.517087 0
M  V30 4323 H 428.415 -1.15339 -3.03097 0
M  V30 4324 H 428.2 -2.88711 -2.65309 0
M  V30 4325 H 429.69 -2.32549 -3.46858 0
M  V30 4326 N 430.127 0.543554 -1.4793 0
M  V30 4327 C 431.057 1.65888 -1.64327 0
M  V30 4328 C 432.038 1.62818 -0.492383 0
M  V30 4329 O 433.223 1.80226 -0.723338 0
M  V30 4330 C 430.353 3.04506 -1.67013 0
M  V30 4331 C 429.307 3.2243 -2.81466 0
M  V30 4332 C 428.633 4.61972 -2.69233 0
M  V30 4333 C 429.933 3.06496 -4.22915 0
M  V30 4334 H 431.627 1.52421 -2.57698 0
M  V30 4335 H 429.173 0.731849 -1.24016 0
M  V30 4336 H 431.126 3.82391 -1.77074 0
M  V30 4337 H 429.85 3.18964 -0.70212 0
M  V30 4338 H 428.509 2.46957 -2.70938 0
M  V30 4339 H 428.157 4.73247 -1.7043 0
M  V30 4340 H 427.857 4.74911 -3.46025 0
M  V30 4341 H 429.381 5.41974 -2.81242 0
M  V30 4342 H 430.795 3.74186 -4.34348 0
M  V30 4343 H 429.192 3.30938 -5.006 0
M  V30 4344 H 430.262 2.03077 -4.40327 0
M  V30 4345 N 431.605 1.3629 0.791371 0
M  V30 4346 C 432.845 1.31792 1.56238 0
M  V30 4347 C 433.209 -0.102237 1.91728 0
M  V30 4348 O 434.41 -0.271759 2.67423 0
M  V30 4349 C 432.681 2.21303 2.80642 0
M  V30 4350 S 434.24 2.34468 3.70904 0
M  V30 4351 H 431.058 0.468141 0.535131 0
M  V30 4352 H 433.66 1.71841 0.932246 0
M  V30 4353 H 432.364 3.23439 2.52617 0
M  V30 4354 H 431.895 1.82266 3.4863 0
M  V30 4355 H 433.91 1.54074 4.71673 0
M  V30 4356 N 433.083 -1.0153 1.20538 0
M  V30 4357 C 434.013 -2.11972 0.979295 0
M  V30 4358 C 434.994 -1.6985 -0.0921787 0
M  V30 4359 O 436.179 -1.94089 0.0655932 0
M  V30 4360 C 433.309 -3.43201 0.531984 0
M  V30 4361 C 432.263 -3.9907 1.54685 0
M  V30 4362 C 431.589 -5.26082 0.956127 0
M  V30 4363 C 432.889 -4.32313 2.93092 0
M  V30 4364 H 434.583 -2.31143 1.90298 0
M  V30 4365 H 432.129 -1.11079 0.916372 0
M  V30 4366 H 434.082 -4.1985 0.361044 0
M  V30 4367 H 432.806 -3.23792 -0.427327 0
M  V30 4368 H 431.465 -3.2453 1.70517 0
M  V30 4369 H 431.113 -5.02999 -0.0111538 0
M  V30 4370 H 430.813 -5.64426 1.63393 0
M  V30 4371 H 432.337 -6.05386 0.796284 0
M  V30 4372 H 433.751 -4.99845 2.80763 0
M  V30 4373 H 432.148 -4.81774 3.57791 0
M  V30 4374 H 433.218 -3.41025 3.44717 0
M  V30 4375 N 434.561 -1.01147 -1.20859 0
M  V30 4376 C 435.977 -0.725422 -1.42161 0
M  V30 4377 C 436.177 0.696919 -1.89064 0
M  V30 4378 O 435.233 1.46539 -2.05627 0
M  V30 4379 C 436.546 -1.74678 -2.44761 0
M  V30 4380 C 438.094 -1.76433 -2.58535 0
M  V30 4381 C 438.569 -2.77481 -3.64374 0
M  V30 4382 N 440.06 -2.76189 -3.71852 0
M  V30 4383 C 440.795 -3.51035 -4.53389 0
M  V30 4384 N 440.291 -4.35541 -5.38773 0
M  V30 4385 N 442.084 -3.39655 -4.47873 0
M  V30 4386 H 434.235 -1.92979 -0.887282 0
M  V30 4387 H 436.498 -0.833327 -0.451962 0
M  V30 4388 H 436.204 -2.76551 -2.17285 0
M  V30 4389 H 436.078 -1.55472 -3.43669 0
M  V30 4390 H 438.465 -0.75248 -2.85345 0
M  V30 4391 H 438.546 -1.99712 -1.5984 0
M  V30 4392 H 438.19 -3.78827 -3.38308 0
M  V30 4393 H 438.12 -2.51466 -4.6268 0
M  V30 4394 H 440.611 -2.14885 -3.10858 0
M  V30 4395 H 440.924 -4.89432 -5.98061 0
M  V30 4396 H 439.269 -4.39621 -5.38292 0
M  V30 4397 H 442.46 -2.73063 -3.80203 0
M  V30 4398 H 442.633 -3.9824 -5.11184 0
M  V30 4399 N 436.039 1.36541 -0.78704 0
M  V30 4400 C 437.002 2.28413 -0.189778 0
M  V30 4401 C 438.002 1.48719 0.611499 0
M  V30 4402 O 439.192 1.68737 0.432842 0
M  V30 4403 C 436.324 3.32824 0.737638 0
M  V30 4404 H 437.517 2.82743 -0.999831 0
M  V30 4405 H 435.07 1.46065 -0.556298 0
M  V30 4406 H 435.805 2.83646 1.57212 0
M  V30 4407 H 435.59 3.91752 0.165044 0
M  V30 4408 H 437.08 4.0144 1.15047 0
M  V30 4409 N 437.518 0.538854 1.48102 0
M  V30 4410 C 438.448 -0.207654 2.32575 0
M  V30 4411 C 439.429 -0.926559 1.4265 0
M  V30 4412 O 440.614 -0.91061 1.71527 0
M  V30 4413 C 437.744 -1.24957 3.24042 0
M  V30 4414 C 436.698 -0.648263 4.23062 0
M  V30 4415 C 436.024 -1.79348 5.03725 0
M  V30 4416 C 437.324 0.385897 5.20872 0
M  V30 4417 H 439.018 0.497534 2.95237 0
M  V30 4418 H 436.564 0.240715 1.41974 0
M  V30 4419 H 438.517 -1.77983 3.81969 0
M  V30 4420 H 437.241 -1.98446 2.59397 0
M  V30 4421 H 435.9 -0.139452 3.66335 0
M  V30 4422 H 435.548 -2.51696 4.35498 0
M  V30 4423 H 435.248 -1.39702 5.70751 0
M  V30 4424 H 436.772 -2.32735 5.64506 0
M  V30 4425 H 438.186 -0.057607 5.73271 0
M  V30 4426 H 436.583 0.700227 5.96001 0
M  V30 4427 H 437.653 1.28848 4.67468 0
M  V30 4428 N 438.996 -1.55193 0.274407 0
M  V30 4429 C 439.926 -2.25471 -0.607032 0
M  V30 4430 C 440.907 -1.24461 -1.15946 0
M  V30 4431 O 442.092 -1.53179 -1.19373 0
M  V30 4432 C 439.222 -2.97526 -1.79153 0
M  V30 4433 C 438.176 -4.05459 -1.37067 0
M  V30 4434 C 437.502 -4.65084 -2.6382 0
M  V30 4435 C 438.802 -5.19691 -0.521389 0
M  V30 4436 H 440.496 -2.99393 -0.0209343 0
M  V30 4437 H 438.042 -1.43997 -0.00862866 0
M  V30 4438 H 439.995 -3.45402 -2.41404 0
M  V30 4439 H 438.719 -2.21138 -2.40344 0
M  V30 4440 H 437.378 -3.58393 -0.771355 0
M  V30 4441 H 437.026 -3.85365 -3.23268 0
M  V30 4442 H 436.726 -5.37961 -2.36372 0
M  V30 4443 H 438.25 -5.15708 -3.26921 0
M  V30 4444 H 439.664 -5.63623 -1.04889 0
M  V30 4445 H 438.061 -5.99126 -0.341825 0
M  V30 4446 H 439.131 -4.82713 0.46 0
M  V30 4447 N 440.474 -0.00167713 -1.576 0
M  V30 4448 C 441.714 0.687302 -1.92498 0
M  V30 4449 C 442.078 1.70844 -0.876144 0
M  V30 4450 O 443.279 2.44792 -1.11043 0
M  V30 4451 C 441.55 1.31217 -3.32441 0
M  V30 4452 S 443.109 2.02604 -3.89226 0
M  V30 4453 H 439.927 0.226985 -0.673794 0
M  V30 4454 H 442.529 -0.0587666 -1.95412 0
M  V30 4455 H 441.233 0.556164 -4.06614 0
M  V30 4456 H 440.764 2.09613 -3.32905 0
M  V30 4457 H 442.779 3.30137 -3.70438 0
M  V30 4458 N 441.952 1.55251 0.271103 0
M  V30 4459 C 442.862 1.9136 1.35714 0
M  V30 4460 C 443.878 0.811075 1.5394 0
M  V30 4461 O 445.054 1.11031 1.6803 0
M  V30 4462 C 442.119 2.1798 2.69603 0
M  V30 4463 C 441.18 3.4153 2.60107 0
M  V30 4464 C 440.413 3.66871 3.8761 0
M  V30 4465 O 440.636 2.94689 4.8838 0
M  V30 4466 O 439.57 4.60405 3.87699 0
M  V30 4467 H 443.396 2.83815 1.08088 0
M  V30 4468 H 440.981 1.41821 0.469792 0
M  V30 4469 H 442.863 2.36518 3.48765 0
M  V30 4470 H 441.538 1.28708 2.97012 0
M  V30 4471 H 440.445 3.28325 1.79314 0
M  V30 4472 H 441.778 4.31027 2.37647 0
M  V30 4473 N 443.43 -0.535701 1.48216 0
M  V30 4474 C 444.707 -1.29683 1.46429 0
M  V30 4475 C 445.087 -2.10391 0.172852 0
M  V30 4476 O 444.435 -2.12282 -0.845488 0
M  V30 4477 C 444.645 -2.18313 2.72287 0
M  V30 4478 C 445.993 -2.78639 3.20383 0
M  V30 4479 O 447.017 -2.28604 2.73164 0
M  V30 4480 O 445.876 -3.69636 4.02531 0
M  V30 4481 H 442.97 -0.585026 0.584529 0
M  V30 4482 H 445.516 -0.552827 1.60443 0
M  V30 4483 H 444.288 -1.58421 3.57797 0
M  V30 4484 H 443.911 -2.99971 2.60966 0
M  V30 4485 N 444.908 -1.36708 -0.784132 0
M  V30 4486 C 445.841 -1.25827 -1.90375 0
M  V30 4487 C 446.819 -0.141331 -1.61985 0
M  V30 4488 O 448.003 -0.313389 -1.85877 0
M  V30 4489 C 445.13 -0.942621 -3.25319 0
M  V30 4490 C 444.176 -2.07474 -3.72635 0
M  V30 4491 S 445.009 -3.69317 -3.8777 0
M  V30 4492 C 446.165 -3.39876 -5.25581 0
M  V30 4493 H 446.398 -2.20593 -1.99314 0
M  V30 4494 H 443.931 -1.22186 -0.943926 0
M  V30 4495 H 445.889 -0.767321 -4.03265 0
M  V30 4496 H 444.55 -0.0126566 -3.14097 0
M  V30 4497 H 443.743 -1.80858 -4.70432 0
M  V30 4498 H 443.345 -2.20953 -3.01754 0
M  V30 4499 H 445.637 -2.94097 -6.10339 0
M  V30 4500 H 446.58 -4.36956 -5.57203 0
M  V30 4501 H 446.988 -2.75098 -4.92931 0
M  V30 4502 N 446.386 1.0089 -1.21074 0
M  V30 4503 C 447.633 1.74607 -1.0256 0
M  V30 4504 C 447.961 1.89426 0.44136 0
M  V30 4505 O 447.216 1.42266 1.34384 0
M  V30 4506 C 447.515 3.16335 -1.66334 0
M  V30 4507 C 447.181 3.21474 -3.16173 0
M  V30 4508 C 445.843 3.22583 -3.57062 0
M  V30 4509 C 448.195 3.19025 -4.12156 0
M  V30 4510 C 445.523 3.18925 -4.92446 0
M  V30 4511 C 447.875 3.16909 -5.47496 0
M  V30 4512 C 446.539 3.16326 -5.87787 0
M  V30 4513 H 445.809 0.638933 -0.375294 0
M  V30 4514 H 448.456 1.18274 -1.50611 0
M  V30 4515 H 446.761 3.75876 -1.10566 0
M  V30 4516 H 448.458 3.72083 -1.49516 0
M  V30 4517 H 445.048 3.2135 -2.83605 0
M  V30 4518 H 449.232 3.17332 -3.81595 0
M  V30 4519 H 444.488 3.16809 -5.22917 0
M  V30 4520 H 448.662 3.13968 -6.21609 0
M  V30 4521 H 446.289 3.13246 -6.92662 0
M  V30 4522 N 447.864 1.01787 1.20321 0
M  V30 4523 C 449.28 0.732951 1.41774 0
M  V30 4524 C 449.48 -0.686883 1.89431 0
M  V30 4525 O 448.536 -1.45446 2.06402 0
M  V30 4526 C 449.849 1.75973 2.43832 0
M  V30 4527 C 451.397 1.77802 2.57596 0
M  V30 4528 C 451.872 2.7941 3.62897 0
M  V30 4529 N 453.363 2.78157 3.70382 0
M  V30 4530 C 454.098 3.53434 4.51521 0
M  V30 4531 N 453.594 4.38392 5.36455 0
M  V30 4532 N 455.387 3.42026 4.46066 0
M  V30 4533 H 447.538 1.93447 0.877035 0
M  V30 4534 H 449.801 0.835712 0.447536 0
M  V30 4535 H 449.507 2.77699 2.15815 0
M  V30 4536 H 449.381 1.57292 3.4284 0
M  V30 4537 H 451.768 0.767602 2.84942 0
M  V30 4538 H 451.849 2.00557 1.58779 0
M  V30 4539 H 451.493 3.80616 3.36295 0
M  V30 4540 H 451.423 2.53916 4.61339 0
M  V30 4541 H 453.914 2.16531 3.09714 0
M  V30 4542 H 454.227 4.92596 5.95457 0
M  V30 4543 H 452.572 4.4247 5.35953 0
M  V30 4544 H 455.763 2.75075 3.78749 0
M  V30 4545 H 455.936 4.00946 5.09064 0
M  V30 4546 N 449.342 -1.36122 0.79427 0
M  V30 4547 C 450.272 -2.32551 0.210328 0
M  V30 4548 C 451.253 -1.56884 -0.657386 0
M  V30 4549 O 452.438 -1.85014 -0.590207 0
M  V30 4550 C 449.568 -3.41128 -0.651819 0
M  V30 4551 C 448.522 -4.27842 0.116395 0
M  V30 4552 C 447.848 -5.2763 -0.86666 0
M  V30 4553 C 449.148 -5.05647 1.30837 0
M  V30 4554 H 450.842 -2.81636 1.01594 0
M  V30 4555 H 448.388 -1.35407 0.489981 0
M  V30 4556 H 450.341 -4.07581 -1.07031 0
M  V30 4557 H 449.065 -2.90622 -1.49019 0
M  V30 4558 H 447.724 -3.62952 0.515915 0
M  V30 4559 H 447.372 -4.73395 -1.70019 0
M  V30 4560 H 447.072 -5.86514 -0.35705 0
M  V30 4561 H 448.596 -5.96955 -1.28361 0
M  V30 4562 H 450.01 -5.65113 0.965393 0
M  V30 4563 H 448.407 -5.73967 1.75161 0
M  V30 4564 H 449.477 -4.37006 2.10128 0
M  V30 4565 N 450.82 -0.546701 -1.47814 0
M  V30 4566 C 452.097 0.0464413 -1.95545 0
M  V30 4567 C 452.477 1.4962 -1.48919 0
M  V30 4568 O 451.825 2.16752 -0.723232 0
M  V30 4569 C 452.035 -0.0881298 -3.48889 0
M  V30 4570 C 453.383 0.0626059 -4.24554 0
M  V30 4571 O 454.407 -0.0151555 -3.56197 0
M  V30 4572 O 453.266 0.228071 -5.46024 0
M  V30 4573 H 450.36 0.0700004 -0.824032 0
M  V30 4574 H 452.906 -0.612482 -1.58262 0
M  V30 4575 H 451.678 -1.09737 -3.75597 0
M  V30 4576 H 451.301 0.608886 -3.9291 0
M  V30 4577 N 452.299 1.55045 -0.282633 0
M  V30 4578 C 453.71 1.85473 0.213655 0
M  V30 4579 C 454.061 1.20465 1.54863 0
M  V30 4580 O 453.186 0.495676 2.10647 0
M  V30 4581 C 453.781 3.36496 0.394445 0
M  V30 4582 C 452.34 3.67022 0.834961 0
M  V30 4583 C 451.487 2.77218 -0.0674081 0
M  V30 4584 H 454.438 1.50478 -0.504202 0
M  V30 4585 H 454.459 3.60007 1.23186 0
M  V30 4586 H 453.971 3.83782 -0.577326 0
M  V30 4587 H 452.072 3.25241 1.81794 0
M  V30 4588 H 452.185 4.74433 0.667075 0
M  V30 4589 H 450.549 2.5069 0.450196 0
M  V30 4590 H 451.332 3.2732 -1.0352 0
M  V30 4591 N 453.777 0.010035 1.57597 0
M  V30 4592 C 455.005 -0.683413 1.95287 0
M  V30 4593 C 455.42 -1.66747 0.885481 0
M  V30 4594 O 454.777 -1.82003 -0.134629 0
M  V30 4595 C 454.828 -1.40652 3.33015 0
M  V30 4596 O 454.549 -0.461916 4.35658 0
M  V30 4597 C 456.05 -2.19356 3.85225 0
M  V30 4598 H 453.27 -0.189708 0.643624 0
M  V30 4599 H 455.814 0.0641359 2.04399 0
M  V30 4600 H 453.969 -2.10562 3.2518 0
M  V30 4601 H 454.383 -0.973215 5.15392 0
M  V30 4602 H 455.857 -2.65433 4.83993 0
M  V30 4603 H 456.334 -3.02457 3.18459 0
M  V30 4604 H 456.94 -1.54442 3.96267 0
M  V30 4605 N 455.255 -1.55392 -0.262866 0
M  V30 4606 C 456.501 -1.76737 -0.99458 0
M  V30 4607 C 456.834 -0.572453 -1.85571 0
M  V30 4608 O 456.109 0.429732 -1.89693 0
M  V30 4609 C 456.392 -3.07824 -1.8686 0
M  V30 4610 C 456.245 -4.3769 -1.03672 0
M  V30 4611 C 457.564 -3.35021 -2.85393 0
M  V30 4612 H 454.683 -0.643005 -0.360157 0
M  V30 4613 H 457.325 -1.88126 -0.266216 0
M  V30 4614 H 455.475 -2.98245 -2.48962 0
M  V30 4615 H 457.147 -4.59238 -0.43563 0
M  V30 4616 H 455.39 -4.32461 -0.340513 0
M  V30 4617 H 456.061 -5.25759 -1.6817 0
M  V30 4618 H 458.537 -3.44458 -2.33426 0
M  V30 4619 H 457.413 -4.27989 -3.43681 0
M  V30 4620 H 457.674 -2.55153 -3.61039 0
M  V30 4621 N 456.733 0.527833 -1.48498 0
M  V30 4622 C 458.144 1.10975 -1.50138 0
M  V30 4623 C 458.495 1.943 -0.272378 0
M  V30 4624 O 457.62 2.07319 0.620301 0
M  V30 4625 C 458.215 2.01927 -2.72049 0
M  V30 4626 C 456.774 2.55332 -2.76554 0
M  V30 4627 C 455.921 1.32341 -2.43683 0
M  V30 4628 H 458.872 0.312986 -1.55583 0
M  V30 4629 H 458.893 2.86244 -2.50689 0
M  V30 4630 H 458.405 1.41254 -3.61481 0
M  V30 4631 H 456.506 3.19721 -1.91336 0
M  V30 4632 H 456.619 2.94319 -3.78038 0
M  V30 4633 H 454.983 1.63989 -1.94884 0
M  V30 4634 H 455.766 0.734165 -3.35358 0
M  V30 4635 N 458.211 1.37122 0.776871 0
M  V30 4636 C 459.622 1.28667 1.35284 0
M  V30 4637 C 459.973 -0.0680035 1.96082 0
M  V30 4638 O 459.098 -0.969743 1.93455 0
M  V30 4639 C 459.693 2.32997 2.45963 0
M  V30 4640 C 458.252 2.28191 2.99342 0
M  V30 4641 C 457.399 2.17101 1.72517 0
M  V30 4642 H 460.35 1.47819 0.577527 0
M  V30 4643 H 460.371 1.97366 3.2531 0
M  V30 4644 H 459.883 3.3158 2.01684 0
M  V30 4645 H 457.984 1.33115 3.4801 0
M  V30 4646 H 458.097 3.21397 3.55304 0
M  V30 4647 H 456.461 1.63562 1.95242 0
M  V30 4648 H 457.244 3.17591 1.30348 0
M  V30 4649 N 459.689 -1.00246 1.21608 0
M  V30 4650 C 460.619 -2.10921 1.00172 0
M  V30 4651 C 461.6 -1.69938 -0.0741587 0
M  V30 4652 O 462.785 -1.94009 0.0861753 0
M  V30 4653 C 459.915 -3.42618 0.568355 0
M  V30 4654 C 458.869 -3.97407 1.58909 0
M  V30 4655 C 458.195 -5.25038 1.01187 0
M  V30 4656 C 459.495 -4.2918 2.97661 0
M  V30 4657 H 461.189 -2.29112 1.92739 0
M  V30 4658 H 458.735 -1.10101 0.928102 0
M  V30 4659 H 460.688 -4.19444 0.405555 0
M  V30 4660 H 459.412 -3.24227 -0.392961 0
M  V30 4661 H 458.071 -3.22703 1.73949 0
M  V30 4662 H 457.719 -5.02982 0.0421965 0
M  V30 4663 H 457.419 -5.62661 1.6937 0
M  V30 4664 H 458.943 -6.04507 0.860448 0
M  V30 4665 H 460.357 -4.96839 2.86049 0
M  V30 4666 H 458.754 -4.77952 3.6288 0
M  V30 4667 H 459.824 -3.3735 3.48315 0
M  V30 4668 N 461.167 -1.02423 -1.1978 0
M  V30 4669 C 462.578 -0.748389 -1.71044 0
M  V30 4670 C 462.929 0.732398 -1.82017 0
M  V30 4671 O 462.054 1.57116 -1.48807 0
M  V30 4672 C 462.649 -1.35187 -3.1066 0
M  V30 4673 C 461.208 -1.12472 -3.59203 0
M  V30 4674 C 460.355 -1.45283 -2.36195 0
M  V30 4675 H 463.306 -1.19275 -1.04686 0
M  V30 4676 H 463.327 -0.746408 -3.73107 0
M  V30 4677 H 462.839 -2.4296 -3.02642 0
M  V30 4678 H 460.94 -0.0649983 -3.72543 0
M  V30 4679 H 461.053 -1.81016 -4.43588 0
M  V30 4680 H 459.417 -0.872034 -2.39307 0
M  V30 4681 H 460.2 -2.54129 -2.30811 0
M  V30 4682 N 462.645 1.35699 -0.801477 0
M  V30 4683 C 463.892 1.98913 -0.379459 0
M  V30 4684 C 464.22 1.63592 1.05204 0
M  V30 4685 O 463.475 0.888563 1.74365 0
M  V30 4686 C 463.774 3.53828 -0.504041 0
M  V30 4687 C 463.44 4.09002 -1.8981 0
M  V30 4688 C 462.102 4.23783 -2.27951 0
M  V30 4689 C 464.454 4.38939 -2.81038 0
M  V30 4690 C 461.782 4.65816 -3.56696 0
M  V30 4691 C 464.134 4.82409 -4.09224 0
M  V30 4692 C 462.798 4.95395 -4.4737 0
M  V30 4693 H 462.068 0.727874 -0.138854 0
M  V30 4694 H 464.715 1.61994 -1.02128 0
M  V30 4695 H 463.02 3.91175 0.221242 0
M  V30 4696 H 464.717 4.00687 -0.158361 0
M  V30 4697 H 461.307 3.97946 -1.59176 0
M  V30 4698 H 465.491 4.27077 -2.52821 0
M  V30 4699 H 460.747 4.74059 -3.86106 0
M  V30 4700 H 464.921 5.04535 -4.80018 0
M  V30 4701 H 462.548 5.27724 -5.47185 0
M  V30 4702 N 464.123 0.554532 1.47522 0
M  V30 4703 C 465.539 0.214107 1.58157 0
M  V30 4704 C 465.739 -1.28331 1.55349 0
M  V30 4705 O 464.795 -2.06329 1.45549 0
M  V30 4706 C 466.108 0.838391 2.88776 0
M  V30 4707 C 467.656 0.809374 3.02354 0
M  V30 4708 C 468.131 1.41268 4.35669 0
M  V30 4709 N 469.622 1.37574 4.42298 0
M  V30 4710 C 470.357 1.8122 5.4401 0
M  V30 4711 N 469.853 2.3271 6.52547 0
M  V30 4712 N 471.646 1.72307 5.35039 0
M  V30 4713 H 463.797 1.52744 1.4759 0
M  V30 4714 H 466.06 0.636812 0.702264 0
M  V30 4715 H 465.766 1.89065 2.96559 0
M  V30 4716 H 465.64 0.329847 3.75755 0
M  V30 4717 H 468.027 -0.234187 2.94169 0
M  V30 4718 H 468.108 1.35565 2.16924 0
M  V30 4719 H 467.752 2.45529 4.4461 0
M  V30 4720 H 467.682 0.841871 5.19827 0
M  V30 4721 H 470.173 0.999081 3.64454 0
M  V30 4722 H 470.486 2.63944 7.26329 0
M  V30 4723 H 468.831 2.36719 6.53444 0
M  V30 4724 H 472.022 1.3186 4.49144 0
M  V30 4725 H 472.195 2.06641 6.14169 0
M  V30 4726 N 465.601 -1.54893 0.290851 0
M  V30 4727 C 466.511 -2.26812 -0.59945 0
M  V30 4728 C 467.527 -1.29963 -1.15696 0
M  V30 4729 O 468.703 -1.62928 -1.18391 0
M  V30 4730 C 465.768 -2.98716 -1.75982 0
M  V30 4731 C 464.829 -4.1108 -1.2374 0
M  V30 4732 C 464.062 -4.79546 -2.34246 0
M  V30 4733 O 464.285 -4.47309 -3.53936 0
M  V30 4734 O 463.219 -5.67165 -2.01512 0
M  V30 4735 H 467.045 -3.03696 -0.0163561 0
M  V30 4736 H 464.63 -1.49289 0.0576755 0
M  V30 4737 H 466.512 -3.43851 -2.43607 0
M  V30 4738 H 465.187 -2.24737 -2.3297 0
M  V30 4739 H 464.094 -3.70367 -0.527163 0
M  V30 4740 H 465.427 -4.87007 -0.71307 0
M  V30 4741 N 467.08 -0.0183926 -1.57589 0
M  V30 4742 C 467.99 0.982943 -2.13015 0
M  V30 4743 C 469.006 1.36443 -1.07979 0
M  V30 4744 O 470.182 1.44802 -1.3998 0
M  V30 4745 C 467.247 2.25024 -2.63752 0
M  V30 4746 C 466.308 1.93018 -3.83461 0
M  V30 4747 C 465.541 3.13706 -4.31769 0
M  V30 4748 O 465.764 4.2601 -3.79305 0
M  V30 4749 O 464.698 2.96629 -5.23732 0
M  V30 4750 H 468.524 0.541709 -2.9883 0
M  V30 4751 H 466.109 0.201565 -1.48034 0
M  V30 4752 H 467.991 2.99441 -2.96502 0
M  V30 4753 H 466.666 2.68349 -1.81026 0
M  V30 4754 H 465.573 1.16019 -3.55655 0
M  V30 4755 H 466.906 1.54516 -4.67317 0
M  V30 4756 N 468.558 1.5553 0.254621 0
M  V30 4757 C 469.804 1.77262 0.985193 0
M  V30 4758 C 470.137 0.582286 1.85265 0
M  V30 4759 O 469.412 -0.419666 1.89919 0
M  V30 4760 C 469.695 3.0881 1.85225 0
M  V30 4761 C 469.548 4.38233 1.0135 0
M  V30 4762 C 470.867 3.3653 2.83612 0
M  V30 4763 H 467.986 0.644906 0.356742 0
M  V30 4764 H 470.628 1.88264 0.256236 0
M  V30 4765 H 468.778 2.99562 2.47376 0
M  V30 4766 H 470.45 4.59463 0.411269 0
M  V30 4767 H 468.693 4.32636 0.317574 0
M  V30 4768 H 469.364 5.26644 1.65379 0
M  V30 4769 H 471.84 3.45691 2.31596 0
M  V30 4770 H 470.716 4.29805 3.41407 0
M  V30 4771 H 470.977 2.57064 3.59681 0
M  V30 4772 N 470.036 -0.519951 1.48776 0
M  V30 4773 C 471.266 -1.29783 1.60748 0
M  V30 4774 C 471.674 -1.87253 0.27072 0
M  V30 4775 O 471.017 -1.67628 -0.751438 0
M  V30 4776 C 471.079 -2.47984 2.60277 0
M  V30 4777 C 470.743 -2.11526 4.051 0
M  V30 4778 C 471.74 -1.66608 4.92481 0
M  V30 4779 C 469.425 -2.21742 4.50706 0
M  V30 4780 C 471.419 -1.32384 6.23501 0
M  V30 4781 C 469.106 -1.87129 5.81744 0
M  V30 4782 C 470.104 -1.42523 6.67964 0
M  V30 4783 O 469.792 -1.0837 7.96562 0
M  V30 4784 H 469.524 -0.400562 0.544542 0
M  V30 4785 H 472.078 -0.632879 1.95407 0
M  V30 4786 H 470.308 -3.17493 2.2076 0
M  V30 4787 H 471.997 -3.10036 2.61978 0
M  V30 4788 H 472.763 -1.58178 4.58481 0
M  V30 4789 H 468.642 -2.55415 3.83776 0
M  V30 4790 H 472.186 -0.974949 6.90754 0
M  V30 4791 H 468.083 -1.95204 6.15277 0
M  V30 4792 H 468.851 -1.21681 8.09405 0
M  V30 4793 N 471.514 -1.37532 -0.769588 0
M  V30 4794 C 472.742 -1.36059 -1.55871 0
M  V30 4795 C 473.157 0.053544 -1.88724 0
M  V30 4796 O 472.514 1.01591 -1.5161 0
M  V30 4797 C 472.565 -2.20107 -2.86767 0
M  V30 4798 O 472.286 -3.56009 -2.55321 0
M  V30 4799 C 473.787 -2.26636 -3.80987 0
M  V30 4800 H 471.007 -0.465967 -0.482821 0
M  V30 4801 H 473.551 -1.80901 -0.953686 0
M  V30 4802 H 471.706 -1.78768 -3.43687 0
M  V30 4803 H 472.12 -4.0009 -3.39158 0
M  V30 4804 H 473.594 -2.89763 -4.69831 0
M  V30 4805 H 474.071 -1.2754 -4.20274 0
M  V30 4806 H 474.677 -2.68296 -3.29996 0
M  V30 4807 N 472.992 0.995999 -1.22138 0
M  V30 4808 C 474.217 1.77601 -1.0711 0
M  V30 4809 C 474.642 1.84339 0.374264 0
M  V30 4810 O 474 1.29359 1.27028 0
M  V30 4811 C 474.048 3.18897 -1.68336 0
M  V30 4812 O 473.152 4.01663 -0.934928 0
M  V30 4813 H 472.493 0.547011 -0.376397 0
M  V30 4814 H 475.023 1.25137 -1.6187 0
M  V30 4815 H 475.033 3.69539 -1.72931 0
M  V30 4816 H 473.708 3.13308 -2.73516 0
M  V30 4817 H 472.285 3.60204 -0.964751 0
M  V30 4818 N 474.47 1.03057 1.19235 0
M  V30 4819 C 475.695 0.74757 1.93458 0
M  V30 4820 C 476.12 -0.687648 1.7508 0
M  V30 4821 O 475.478 -1.47499 1.05422 0
M  V30 4822 C 475.526 1.10604 3.43219 0
M  V30 4823 O 474.63 0.225671 4.11782 0
M  V30 4824 H 473.971 0.276047 0.603899 0
M  V30 4825 H 476.501 1.3777 1.51263 0
M  V30 4826 H 476.511 1.06366 3.93891 0
M  V30 4827 H 475.186 2.15165 3.55917 0
M  V30 4828 H 473.763 0.326795 3.71465 0
M  V30 4829 N 475.948 -1.35272 0.808662 0
M  V30 4830 C 476.88 -2.28507 0.178149 0
M  V30 4831 C 477.893 -1.50377 -0.623754 0
M  V30 4832 O 479.082 -1.72583 -0.455774 0
M  V30 4833 C 476.182 -3.30038 -0.769959 0
M  V30 4834 C 475.355 -4.37398 -0.0139749 0
M  V30 4835 C 474.414 -5.18775 -0.880875 0
M  V30 4836 O 473.44 -5.68236 -0.331059 0
M  V30 4837 N 474.642 -5.37087 -2.20267 0
M  V30 4838 H 477.407 -2.83255 0.979106 0
M  V30 4839 H 474.968 -1.47643 0.664308 0
M  V30 4840 H 476.96 -3.81371 -1.35418 0
M  V30 4841 H 475.53 -2.75789 -1.47171 0
M  V30 4842 H 474.75 -3.86971 0.751468 0
M  V30 4843 H 476.038 -5.06268 0.506965 0
M  V30 4844 H 475.436 -4.9855 -2.67328 0
M  V30 4845 H 473.993 -5.91593 -2.73608 0
M  V30 4846 N 477.426 -0.562348 -1.47226 0
M  V30 4847 C 478.837 -0.130325 -1.86245 0
M  V30 4848 C 479.188 1.30128 -1.46838 0
M  V30 4849 O 478.313 1.97974 -0.873805 0
M  V30 4850 C 478.908 -0.229738 -3.3802 0
M  V30 4851 C 477.467 0.14728 -3.76112 0
M  V30 4852 C 476.614 -0.574971 -2.71274 0
M  V30 4853 H 479.565 -0.771773 -1.3867 0
M  V30 4854 H 479.586 0.550316 -3.76499 0
M  V30 4855 H 479.098 -1.27178 -3.66671 0
M  V30 4856 H 477.199 1.19023 -3.53078 0
M  V30 4857 H 477.312 -0.214858 -4.78618 0
M  V30 4858 H 475.676 -0.0174756 -2.54694 0
M  V30 4859 H 476.459 -1.61827 -3.02766 0
M  V30 4860 N 478.904 1.54736 -0.299062 0
M  V30 4861 C 479.834 2.26409 0.571085 0
M  V30 4862 C 480.815 1.2629 1.13951 0
M  V30 4863 O 482 1.55059 1.16921 0
M  V30 4864 C 479.13 3.00338 1.74396 0
M  V30 4865 C 478.084 4.07588 1.30599 0
M  V30 4866 C 477.41 4.69222 2.56387 0
M  V30 4867 C 478.71 5.20455 0.438645 0
M  V30 4868 H 480.404 2.99388 -0.0266991 0
M  V30 4869 H 477.95 1.43993 -0.0142812 0
M  V30 4870 H 479.903 3.49198 2.35878 0
M  V30 4871 H 478.627 2.24934 2.36796 0
M  V30 4872 H 477.286 3.59575 0.71424 0
M  V30 4873 H 476.934 3.9046 3.17097 0
M  V30 4874 H 476.634 5.41653 2.27784 0
M  V30 4875 H 478.158 5.20844 3.18675 0
M  V30 4876 H 479.572 5.65221 0.959085 0
M  V30 4877 H 477.969 5.99594 0.246466 0
M  V30 4878 H 479.039 4.8192 -0.536738 0
M  V30 4879 N 480.382 0.0267497 1.57577 0
M  V30 4880 C 481.798 -0.32962 1.56159 0
M  V30 4881 C 481.998 -1.73059 1.03213 0
M  V30 4882 O 481.054 -2.43233 0.677804 0
M  V30 4883 C 482.367 -0.18039 3.00158 0
M  V30 4884 C 483.915 -0.253334 3.11973 0
M  V30 4885 C 484.39 -0.132921 4.57807 0
M  V30 4886 N 485.881 -0.189979 4.6281 0
M  V30 4887 C 486.616 -0.120554 5.73273 0
M  V30 4888 N 486.112 -0.000180315 6.928 0
M  V30 4889 N 487.905 -0.174369 5.61829 0
M  V30 4890 H 480.056 0.942896 1.90324 0
M  V30 4891 H 482.319 0.3639 0.875375 0
M  V30 4892 H 482.025 0.784576 3.42837 0
M  V30 4893 H 481.899 -0.951565 3.65 0
M  V30 4894 H 484.286 -1.20876 2.69208 0
M  V30 4895 H 484.367 0.548177 2.49857 0
M  V30 4896 H 484.011 0.819073 5.01252 0
M  V30 4897 H 483.941 -0.953264 5.179 0
M  V30 4898 H 486.432 -0.283257 3.76837 0
M  V30 4899 H 486.745 0.0461666 7.72786 0
M  V30 4900 H 485.09 0.034569 6.94991 0
M  V30 4901 H 488.281 -0.266794 4.67339 0
M  V30 4902 H 488.454 -0.116802 6.47895 0
M  V30 4903 N 481.861 -1.55662 -0.24637 0
M  V30 4904 C 483.107 -1.77782 -0.975779 0
M  V30 4905 C 483.44 -0.592103 -1.84953 0
M  V30 4906 O 482.715 0.409588 -1.90138 0
M  V30 4907 C 482.998 -3.09788 -1.83584 0
M  V30 4908 C 482.851 -4.38764 -0.990241 0
M  V30 4909 C 484.17 -3.38029 -2.81823 0
M  V30 4910 H 481.289 -0.646789 -0.353317 0
M  V30 4911 H 483.931 -1.88398 -0.246248 0
M  V30 4912 H 482.081 -3.00869 -2.45784 0
M  V30 4913 H 483.753 -4.59675 -0.386897 0
M  V30 4914 H 481.996 -4.32798 -0.294626 0
M  V30 4915 H 482.667 -5.27514 -1.62584 0
M  V30 4916 H 485.143 -3.46915 -2.2976 0
M  V30 4917 H 484.019 -4.3161 -3.39122 0
M  V30 4918 H 484.28 -2.58968 -3.58313 0
M  V30 4919 N 483.339 0.512053 -1.4905 0
M  V30 4920 C 484.587 1.26436 -1.57665 0
M  V30 4921 C 484.908 1.93255 -0.260293 0
M  V30 4922 O 484.178 1.82206 0.719564 0
M  V30 4923 H 482.758 0.469658 -0.580888 0
M  V30 4924 H 485.42 0.594398 -1.85615 0
M  V30 4925 H 484.516 2.03417 -2.36702 0
M  V30 4926 N 484.817 1.37938 0.762283 0
M  V30 4927 C 486.047 1.36685 1.54922 0
M  V30 4928 C 486.455 -0.0474099 1.89141 0
M  V30 4929 O 485.798 -1.02213 1.52638 0
M  V30 4930 C 485.86 2.14963 2.88152 0
M  V30 4931 C 485.524 3.6385 2.76518 0
M  V30 4932 C 486.521 4.57531 2.46904 0
M  V30 4933 C 484.206 4.07095 2.94243 0
M  V30 4934 C 486.2 5.92436 2.35156 0
M  V30 4935 C 483.887 5.42083 2.82116 0
M  V30 4936 C 484.885 6.34567 2.52614 0
M  V30 4937 O 484.573 7.67073 2.40529 0
M  V30 4938 H 484.305 0.469586 0.486276 0
M  V30 4939 H 486.859 1.82012 0.951876 0
M  V30 4940 H 485.089 1.6434 3.50042 0
M  V30 4941 H 486.778 2.06224 3.49609 0
M  V30 4942 H 487.544 4.25428 2.32886 0
M  V30 4943 H 483.423 3.35462 3.16206 0
M  V30 4944 H 486.967 6.64591 2.12049 0
M  V30 4945 H 482.864 5.73785 2.95704 0
M  V30 4946 H 483.632 7.77499 2.55807 0
M  V30 4947 N 486.295 -0.989507 1.22664 0
M  V30 4948 C 487.525 -1.7624 1.0781 0
M  V30 4949 C 487.933 -1.85466 -0.374036 0
M  V30 4950 O 487.276 -1.32645 -1.27087 0
M  V30 4951 C 487.338 -3.21007 1.61849 0
M  V30 4952 C 487.002 -3.35316 3.10503 0
M  V30 4953 C 487.999 -3.22362 4.07896 0
M  V30 4954 C 485.684 -3.60258 3.50028 0
M  V30 4955 C 487.678 -3.34139 5.42798 0
M  V30 4956 C 485.365 -3.71676 4.85078 0
M  V30 4957 C 486.363 -3.58625 5.81272 0
M  V30 4958 O 486.051 -3.69655 7.1387 0
M  V30 4959 H 485.783 -0.560209 0.378341 0
M  V30 4960 H 488.337 -1.25252 1.62792 0
M  V30 4961 H 486.567 -3.73202 1.01279 0
M  V30 4962 H 488.256 -3.80024 1.42606 0
M  V30 4963 H 489.022 -3.03 3.78703 0
M  V30 4964 H 484.901 -3.69492 2.75675 0
M  V30 4965 H 488.445 -3.23869 6.17863 0
M  V30 4966 H 484.342 -3.90545 5.1395 0
M  V30 4967 H 485.11 -3.86507 7.21495 0
M  V30 4968 N 487.773 -1.03688 -1.18687 0
M  V30 4969 C 488.683 -0.634908 -2.25845 0
M  V30 4970 C 489.699 0.337065 -1.70704 0
M  V30 4971 O 490.875 0.192943 -2.00474 0
M  V30 4972 C 487.94 -0.000180054 -3.467 0
M  V30 4973 C 487.001 -1.02067 -4.1699 0
M  V30 4974 C 486.234 -0.41614 -5.32075 0
M  V30 4975 O 486.457 0.778712 -5.65059 0
M  V30 4976 O 485.391 -1.14296 -5.90948 0
M  V30 4977 H 489.217 -1.52757 -2.62486 0
M  V30 4978 H 486.802 -0.807533 -1.25695 0
M  V30 4979 H 488.684 0.353342 -4.19916 0
M  V30 4980 H 487.359 0.866367 -3.11891 0
M  V30 4981 H 486.266 -1.42592 -3.45859 0
M  V30 4982 H 487.599 -1.85786 -4.5579 0
M  V30 4983 N 489.251 1.34841 -0.815825 0
M  V30 4984 C 490.479 2.0273 -0.413294 0
M  V30 4985 C 490.894 1.61459 0.978599 0
M  V30 4986 O 490.251 0.816584 1.63212 0
M  V30 4987 C 490.302 3.58058 -0.497676 0
M  V30 4988 O 490.023 3.97832 -1.8347 0
M  V30 4989 C 491.524 4.4321 -0.0891339 0
M  V30 4990 H 488.744 0.649956 -0.166728 0
M  V30 4991 H 491.288 1.72267 -1.10201 0
M  V30 4992 H 489.443 3.87136 0.142886 0
M  V30 4993 H 489.857 4.92501 -1.80396 0
M  V30 4994 H 491.331 5.5164 -0.199274 0
M  V30 4995 H 491.808 4.28432 0.966571 0
M  V30 4996 H 492.414 4.19446 -0.703214 0
M  V30 4997 N 490.729 0.570148 1.46925 0
M  V30 4998 C 492.006 -0.0153259 1.95594 0
M  V30 4999 C 492.386 -1.47232 1.51281 0
M  V30 5000 O 491.734 -2.15574 0.757624 0
M  V30 5001 C 491.944 0.143624 3.48704 0
M  V30 5002 C 493.292 0.00494484 4.246 0
M  V30 5003 O 494.316 0.0718214 3.56128 0
M  V30 5004 O 493.175 -0.141175 5.46318 0
M  V30 5005 H 490.269 -0.0568819 0.825041 0
M  V30 5006 H 492.815 0.637583 1.57267 0
M  V30 5007 H 491.587 1.15699 3.73804 0
M  V30 5008 H 491.21 -0.5463 3.93829 0
M  V30 5009 N 492.207 -1.54576 0.307264 0
M  V30 5010 C 493.155 -2.25208 -0.581723 0
M  V30 5011 C 494.149 -1.26031 -1.13192 0
M  V30 5012 O 495.355 -1.43862 -1.08184 0
M  V30 5013 H 491.73 -0.723173 -0.206214 0
M  V30 5014 H 493.701 -2.98378 0.0364663 0
M  V30 5015 C 492.45 -3.01086 -1.73904 0
M  V30 5016 H 491.773 -3.77208 -1.32491 0
M  V30 5017 H 493.213 -3.5378 -2.33701 0
M  V30 5018 C 491.672 -2.08422 -2.64692 0
M  V30 5019 O 492.202 -1.65636 -3.65961 0
M  V30 5020 N 490.408 -1.74247 -2.32564 0
M  V30 5021 H 489.955 -2.09238 -1.50257 0
M  V30 5022 H 489.913 -1.12524 -2.93574 0
M  V30 5023 N 493.685 -0.035106 -1.57561 0
M  V30 5024 C 494.915 0.651312 -1.96065 0
M  V30 5025 C 495.323 1.6585 -0.910514 0
M  V30 5026 O 494.666 1.83336 0.11552 0
M  V30 5027 C 494.728 1.40897 -3.30739 0
M  V30 5028 C 494.392 0.559436 -4.53563 0
M  V30 5029 C 495.389 -0.16778 -5.19629 0
M  V30 5030 C 493.074 0.495079 -4.99854 0
M  V30 5031 C 495.068 -0.947963 -6.30311 0
M  V30 5032 C 492.755 -0.288804 -6.10417 0
M  V30 5033 C 493.753 -1.00903 -6.75505 0
M  V30 5034 O 493.441 -1.78005 -7.83945 0
M  V30 5035 H 493.173 0.184036 -0.650467 0
M  V30 5036 H 495.727 -0.0929677 -2.05189 0
M  V30 5037 H 493.957 2.19852 -3.18123 0
M  V30 5038 H 495.646 1.98407 -3.54104 0
M  V30 5039 H 496.412 -0.12743 -4.84833 0
M  V30 5040 H 492.291 1.04524 -4.48994 0
M  V30 5041 H 495.835 -1.51064 -6.81047 0
M  V30 5042 H 491.732 -0.33085 -6.44652 0
M  V30 5043 H 492.5 -1.70046 -8.00641 0
M  V30 5044 N 495.163 1.55791 0.238111 0
M  V30 5045 C 496.391 1.82098 0.982233 0
M  V30 5046 C 496.806 0.612025 1.78605 0
M  V30 5047 O 496.163 -0.419381 1.77616 0
M  V30 5048 C 496.214 3.0673 1.91309 0
M  V30 5049 O 495.935 4.2296 1.14179 0
M  V30 5050 C 497.436 3.45903 2.77248 0
M  V30 5051 H 494.656 0.605748 0.288635 0
M  V30 5052 H 497.2 2.02862 0.258341 0
M  V30 5053 H 495.355 2.87991 2.59114 0
M  V30 5054 H 495.769 4.93653 1.7722 0
M  V30 5055 H 497.243 4.36189 3.38295 0
M  V30 5056 H 497.72 2.66891 3.48806 0
M  V30 5057 H 498.326 3.67024 2.14881 0
M  V30 5058 N 496.642 -0.504142 1.49319 0
M  V30 5059 C 497.575 -1.62361 1.60356 0
M  V30 5060 C 498.553 -1.56169 0.45277 0
M  V30 5061 O 499.737 -1.76271 0.667892 0
M  V30 5062 C 496.864 -3.00864 1.55559 0
M  V30 5063 C 495.91 -3.25328 2.75797 0
M  V30 5064 S 496.743 -3.08791 4.37503 0
M  V30 5065 C 497.899 -4.49695 4.35345 0
M  V30 5066 H 498.132 -1.52753 2.55056 0
M  V30 5067 H 495.665 -0.689065 1.38171 0
M  V30 5068 H 497.623 -3.8073 1.53477 0
M  V30 5069 H 496.284 -3.0789 0.621515 0
M  V30 5070 H 495.477 -4.2643 2.68651 0
M  V30 5071 H 495.079 -2.53179 2.75275 0
M  V30 5072 H 497.371 -5.41721 4.06871 0
M  V30 5073 H 498.314 -4.61891 5.36714 0
M  V30 5074 H 498.722 -4.30227 3.65465 0
M  V30 5075 N 498.12 -1.38341 -0.754957 0
M  V30 5076 C 499.531 -1.30803 -1.3322 0
M  V30 5077 C 499.882 0.0368 -1.96165 0
M  V30 5078 O 499.007 0.938844 -1.94974 0
M  V30 5079 C 499.602 -2.3688 -2.42225 0
M  V30 5080 C 498.161 -2.32925 -2.95674 0
M  V30 5081 C 497.308 -2.19819 -1.69042 0
M  V30 5082 H 500.259 -1.48719 -0.553937 0
M  V30 5083 H 500.28 -2.02517 -3.22129 0
M  V30 5084 H 499.792 -3.34747 -1.96383 0
M  V30 5085 H 497.893 -1.38635 -3.45848 0
M  V30 5086 H 498.006 -3.27008 -3.50146 0
M  V30 5087 H 496.37 -1.66648 -1.92615 0
M  V30 5088 H 497.153 -3.19625 -1.25279 0
M  V30 5089 N 499.598 0.982988 -1.23187 0
M  V30 5090 C 500.823 1.76455 -1.08988 0
M  V30 5091 C 501.248 1.84726 0.354691 0
M  V30 5092 O 500.606 1.30699 1.25649 0
M  V30 5093 C 500.654 3.17094 -1.71708 0
M  V30 5094 O 499.758 4.00648 -0.977477 0
M  V30 5095 H 499.099 0.542988 -0.382177 0
M  V30 5096 H 501.629 1.23413 -1.63188 0
M  V30 5097 H 501.639 3.67684 -1.76841 0
M  V30 5098 H 500.314 3.10389 -2.76823 0
M  V30 5099 H 498.891 3.59161 -1.0029 0
M  V30 5100 N 501.076 1.04316 1.18135 0
M  V30 5101 C 502.487 0.775505 1.69832 0
M  V30 5102 C 502.838 -0.703348 1.8316 0
M  V30 5103 O 501.963 -1.54729 1.51287 0
M  V30 5104 C 502.558 1.40112 3.0847 0
M  V30 5105 C 501.117 1.18172 3.57368 0
M  V30 5106 C 500.264 1.49022 2.33854 0
M  V30 5107 H 503.215 1.20925 1.02775 0
M  V30 5108 H 503.236 0.805672 3.71873 0
M  V30 5109 H 502.748 2.47744 2.98738 0
M  V30 5110 H 500.849 0.124258 3.72393 0
M  V30 5111 H 500.962 1.8805 4.40652 0
M  V30 5112 H 499.326 0.909995 2.37889 0
M  V30 5113 H 500.109 2.57768 2.26738 0
M  V30 5114 N 502.554 -1.34406 0.822964 0
M  V30 5115 C 503.517 -2.2783 0.250271 0
M  V30 5116 C 504.517 -1.50288 -0.571854 0
M  V30 5117 O 505.707 -1.69825 -0.387952 0
M  V30 5118 C 502.839 -3.34663 -0.649137 0
M  V30 5119 H 504.032 -2.79992 1.07444 0
M  V30 5120 H 501.585 -1.44539 0.594829 0
M  V30 5121 H 502.32 -2.87714 -1.49637 0
M  V30 5122 H 502.105 -3.92052 -0.0611199 0
M  V30 5123 H 503.595 -4.04349 -1.04363 0
M  V30 5124 N 504.032 -0.577932 -1.46621 0
M  V30 5125 C 504.965 0.206312 -2.27265 0
M  V30 5126 C 505.943 0.901306 -1.35334 0
M  V30 5127 O 507.127 0.916151 -1.64739 0
M  V30 5128 C 504.254 1.29563 -3.1294 0
M  V30 5129 C 503.3 0.706981 -4.206 0
M  V30 5130 S 504.133 -0.462459 -5.33499 0
M  V30 5131 C 505.289 0.628171 -6.2274 0
M  V30 5132 H 505.522 -0.477961 -2.93433 0
M  V30 5133 H 503.055 -0.364715 -1.50031 0
M  V30 5134 H 505.013 1.91935 -3.62865 0
M  V30 5135 H 503.674 1.95183 -2.46095 0
M  V30 5136 H 502.867 1.52565 -4.80354 0
M  V30 5137 H 502.469 0.159022 -3.73662 0
M  V30 5138 H 504.761 1.51506 -6.60342 0
M  V30 5139 H 505.704 0.0674961 -7.08068 0
M  V30 5140 H 506.112 0.930167 -5.56784 0
M  V30 5141 N 505.51 1.54411 -0.315457 0
M  V30 5142 C 506.926 1.59556 0.037464 0
M  V30 5143 C 507.126 1.33217 1.5118 0
M  V30 5144 O 506.182 1.11264 2.26664 0
M  V30 5145 C 507.495 2.98372 -0.373477 0
M  V30 5146 C 509.043 3.11324 -0.323452 0
M  V30 5147 C 509.518 4.52472 -0.709433 0
M  V30 5148 N 511.009 4.58437 -0.662524 0
M  V30 5149 C 511.744 5.65751 -0.933474 0
M  V30 5150 N 511.24 6.81039 -1.27114 0
M  V30 5151 N 513.033 5.55489 -0.859573 0
M  V30 5152 H 505.184 1.6979 -1.27614 0
M  V30 5153 H 507.447 0.793732 -0.518356 0
M  V30 5154 H 507.153 3.22618 -1.40037 0
M  V30 5155 H 507.027 3.76264 0.265615 0
M  V30 5156 H 509.414 2.86818 0.694223 0
M  V30 5157 H 509.495 2.35555 -0.997367 0
M  V30 5158 H 509.139 4.7771 -1.72498 0
M  V30 5159 H 509.069 5.26598 -0.0132923 0
M  V30 5160 H 511.56 3.75636 -0.413065 0
M  V30 5161 H 511.873 7.58816 -1.46348 0
M  V30 5162 H 510.218 6.82555 -1.30932 0
M  V30 5163 H 513.409 4.64299 -0.595324 0
M  V30 5164 H 513.582 6.39036 -1.0741 0
M  V30 5165 N 506.988 0.0434614 1.5754 0
M  V30 5166 C 508.404 -0.313039 1.565 0
M  V30 5167 C 508.604 -1.71954 1.05043 0
M  V30 5168 O 507.66 -2.425 0.703564 0
M  V30 5169 C 508.973 -0.148544 3.00333 0
M  V30 5170 C 510.521 -0.220231 3.12224 0
M  V30 5171 C 510.996 -0.0843565 4.57922 0
M  V30 5172 N 512.487 -0.140881 4.62986 0
M  V30 5173 C 513.222 -0.0597443 5.73369 0
M  V30 5174 N 512.718 0.0733004 6.92761 0
M  V30 5175 N 514.511 -0.11477 5.61983 0
M  V30 5176 H 506.662 0.96303 1.89313 0
M  V30 5177 H 508.925 0.373164 0.871466 0
M  V30 5178 H 508.631 0.820894 3.41986 0
M  V30 5179 H 508.505 -0.912798 3.65989 0
M  V30 5180 H 510.892 -1.18014 2.70475 0
M  V30 5181 H 510.973 0.574646 2.49262 0
M  V30 5182 H 510.617 0.872192 5.00355 0
M  V30 5183 H 510.547 -0.898281 5.18882 0
M  V30 5184 H 513.038 -0.243273 3.77116 0
M  V30 5185 H 513.351 0.128128 7.72694 0
M  V30 5186 H 511.696 0.10828 6.94916 0
M  V30 5187 H 514.887 -0.217212 4.67596 0
M  V30 5188 H 515.06 -0.0480779 6.47982 0
M  V30 5189 N 508.466 -1.55915 -0.229846 0
M  V30 5190 C 509.429 -1.90914 -1.26824 0
M  V30 5191 C 510.429 -0.786999 -1.40225 0
M  V30 5192 O 511.619 -1.05484 -1.38632 0
M  V30 5193 C 508.751 -2.15264 -2.64337 0
M  V30 5194 H 509.944 -2.8378 -0.969998 0
M  V30 5195 H 507.497 -1.49069 -0.4699 0
M  V30 5196 H 508.232 -1.24923 -2.99274 0
M  V30 5197 H 508.017 -2.97005 -2.55989 0
M  V30 5198 H 509.507 -2.43467 -3.39284 0
M  V30 5199 N 509.944 0.496216 -1.49584 0
M  V30 5200 C 511.19 1.25189 -1.59548 0
M  V30 5201 C 511.523 1.9212 -0.283466 0
M  V30 5202 O 510.798 1.80947 0.713324 0
M  V30 5203 C 511.081 2.31516 -2.75812 0
M  V30 5204 C 510.934 1.69054 -4.16822 0
M  V30 5205 C 512.253 3.3304 -2.87702 0
M  V30 5206 H 509.372 0.45379 -0.580727 0
M  V30 5207 H 512.014 0.549327 -1.81886 0
M  V30 5208 H 510.164 2.91438 -2.56897 0
M  V30 5209 H 511.836 1.12923 -4.47265 0
M  V30 5210 H 510.079 0.994485 -4.22247 0
M  V30 5211 H 510.75 2.462 -4.94054 0
M  V30 5212 H 513.226 2.83114 -3.04936 0
M  V30 5213 H 512.102 4.04794 -3.7072 0
M  V30 5214 H 512.363 3.95655 -1.97255 0
M  V30 5215 N 511.423 1.38739 0.74761 0
M  V30 5216 C 512.353 1.39173 1.87492 0
M  V30 5217 C 513.334 0.256794 1.6815 0
M  V30 5218 O 514.519 0.460762 1.88655 0
M  V30 5219 C 511.649 1.22197 3.25093 0
M  V30 5220 C 510.603 2.32957 3.59047 0
M  V30 5221 C 509.929 2.01082 4.95449 0
M  V30 5222 C 511.229 3.75237 3.6331 0
M  V30 5223 H 512.923 2.3351 1.87386 0
M  V30 5224 H 510.469 1.12399 0.900134 0
M  V30 5225 H 512.422 1.21124 4.03617 0
M  V30 5226 H 511.146 0.243241 3.25693 0
M  V30 5227 H 509.805 2.33226 2.82845 0
M  V30 5228 H 509.453 1.01678 4.92616 0
M  V30 5229 H 509.153 2.75267 5.19136 0
M  V30 5230 H 510.677 2.01638 5.76346 0
M  V30 5231 H 512.091 3.76966 4.31937 0
M  V30 5232 H 510.488 4.48677 3.98509 0
M  V30 5233 H 511.558 4.07122 2.634 0
M  V30 5234 N 512.901 -0.976442 1.23707 0
M  V30 5235 C 513.811 -2.10359 1.03856 0
M  V30 5236 C 514.827 -1.73991 -0.0180919 0
M  V30 5237 O 516.003 -2.0061 0.178211 0
M  V30 5238 C 513.068 -3.40809 0.636387 0
M  V30 5239 C 512.129 -3.91179 1.76854 0
M  V30 5240 C 511.362 -5.15404 1.38546 0
M  V30 5241 O 511.585 -5.69754 0.27142 0
M  V30 5242 O 510.519 -5.5994 2.20797 0
M  V30 5243 H 514.345 -2.29997 1.98331 0
M  V30 5244 H 511.93 -1.08742 1.02448 0
M  V30 5245 H 513.812 -4.19269 0.423223 0
M  V30 5246 H 512.487 -3.22493 -0.279322 0
M  V30 5247 H 511.394 -3.13819 2.03638 0
M  V30 5248 H 512.727 -4.13958 2.6627 0
M  V30 5249 N 514.379 -1.04941 -1.1758 0
M  V30 5250 C 515.607 -0.778294 -1.91703 0
M  V30 5251 C 516.022 0.665697 -1.76675 0
M  V30 5252 O 515.379 1.45456 -1.10222 0
M  V30 5253 C 515.43 -1.14628 -3.42845 0
M  V30 5254 O 515.151 -2.53359 -3.57409 0
M  V30 5255 C 516.652 -0.900931 -4.34049 0
M  V30 5256 H 513.872 -0.283167 -0.608323 0
M  V30 5257 H 516.416 -1.39942 -1.49119 0
M  V30 5258 H 514.571 -0.569953 -3.83184 0
M  V30 5259 H 514.985 -2.67709 -4.51035 0
M  V30 5260 H 516.459 -1.20817 -5.38616 0
M  V30 5261 H 516.936 0.163966 -4.38894 0
M  V30 5262 H 517.542 -1.46097 -3.99419 0
M  V30 5263 N 515.857 1.33968 -0.830081 0
M  V30 5264 C 516.804 2.29387 -0.255008 0
M  V30 5265 C 517.774 1.53923 0.624243 0
M  V30 5266 O 518.959 1.82262 0.564372 0
M  V30 5267 C 516.099 3.4034 0.571209 0
M  V30 5268 C 515.212 4.30729 -0.331083 0
M  V30 5269 C 514.347 5.2879 0.505389 0
M  V30 5270 C 513.386 6.10819 -0.395843 0
M  V30 5271 N 512.523 7.00948 0.401979 0
M  V30 5272 H 517.363 2.77972 -1.07404 0
M  V30 5273 H 514.9 1.36785 -0.541133 0
M  V30 5274 H 516.858 4.03361 1.06562 0
M  V30 5275 H 515.488 2.9297 1.35529 0
M  V30 5276 H 514.54 3.68507 -0.943759 0
M  V30 5277 H 515.852 4.88181 -1.02377 0
M  V30 5278 H 515.006 5.97297 1.06399 0
M  V30 5279 H 513.745 4.71894 1.23155 0
M  V30 5280 H 512.75 5.41238 -0.966529 0
M  V30 5281 H 513.975 6.69797 -1.12023 0
M  V30 5282 H 511.921 6.46512 1.11168 0
M  V30 5283 H 511.838 7.55643 -0.232167 0
M  V30 5284 H 513.106 7.73774 0.943102 0
M  V30 5285 N 517.335 0.585699 1.46312 0
M  V30 5286 C 518.267 -0.183687 2.28463 0
M  V30 5287 C 519.28 -0.85264 1.38686 0
M  V30 5288 O 520.469 -0.721701 1.6326 0
M  V30 5289 C 517.569 -1.27977 3.13808 0
M  V30 5290 C 516.742 -0.702164 4.31727 0
M  V30 5291 C 515.801 -1.68633 4.98447 0
M  V30 5292 O 514.827 -1.22121 5.55945 0
M  V30 5293 N 516.029 -3.02047 4.95729 0
M  V30 5294 H 518.794 0.521127 2.95134 0
M  V30 5295 H 516.355 0.423673 1.56258 0
M  V30 5296 H 518.347 -1.9375 3.55307 0
M  V30 5297 H 516.917 -1.8874 2.4919 0
M  V30 5298 H 516.137 0.1331 3.93975 0
M  V30 5299 H 517.425 -0.296101 5.07938 0
M  V30 5300 H 516.823 -3.42457 4.50266 0
M  V30 5301 H 515.38 -3.63301 5.41161 0
M  V30 5302 N 518.813 -1.54241 0.323641 0
M  V30 5303 C 520.038 -2.05452 -0.283605 0
M  V30 5304 C 520.463 -1.19823 -1.44997 0
M  V30 5305 O 519.821 -0.207358 -1.8011 0
M  V30 5306 C 519.869 -3.53823 -0.695795 0
M  V30 5307 O 518.973 -3.71134 -1.79815 0
M  V30 5308 H 518.314 -0.662024 -0.0511917 0
M  V30 5309 H 520.844 -1.99079 0.472073 0
M  V30 5310 H 520.854 -3.96094 -0.978434 0
M  V30 5311 H 519.529 -4.15602 0.157287 0
M  V30 5312 H 518.106 -3.40768 -1.51431 0
M  V30 5313 N 520.291 -0.0518155 -1.57515 0
M  V30 5314 C 521.221 0.920283 -2.146 0
M  V30 5315 C 522.202 1.32406 -1.06783 0
M  V30 5316 O 523.387 1.39866 -1.34726 0
M  V30 5317 C 520.517 2.1949 -2.6915 0
M  V30 5318 C 519.471 1.93116 -3.81956 0
M  V30 5319 C 518.797 3.27037 -4.23026 0
M  V30 5320 C 520.097 1.25225 -5.07066 0
M  V30 5321 H 521.791 0.444801 -2.96077 0
M  V30 5322 H 519.337 0.212508 -1.42423 0
M  V30 5323 H 521.29 2.87894 -3.07725 0
M  V30 5324 H 520.014 2.69244 -1.84865 0
M  V30 5325 H 518.673 1.27123 -3.43854 0
M  V30 5326 H 518.321 3.74595 -3.3569 0
M  V30 5327 H 518.021 3.10189 -4.99056 0
M  V30 5328 H 519.545 3.96673 -4.64202 0
M  V30 5329 H 520.959 1.83666 -5.43083 0
M  V30 5330 H 519.356 1.18702 -5.88243 0
M  V30 5331 H 520.426 0.228382 -4.84362 0
M  V30 5332 N 521.769 1.56035 0.221574 0
M  V30 5333 C 522.679 1.95581 1.29558 0
M  V30 5334 C 523.695 0.859639 1.51282 0
M  V30 5335 O 524.871 1.16321 1.64413 0
M  V30 5336 C 521.936 2.26447 2.62531 0
M  V30 5337 C 520.997 3.49632 2.4911 0
M  V30 5338 C 520.23 3.79017 3.75742 0
M  V30 5339 O 520.453 3.10077 4.78757 0
M  V30 5340 O 519.387 4.72507 3.72855 0
M  V30 5341 H 523.213 2.8711 0.990035 0
M  V30 5342 H 520.798 1.43244 0.424434 0
M  V30 5343 H 522.68 2.47494 3.41064 0
M  V30 5344 H 521.355 1.38092 2.92766 0
M  V30 5345 H 520.262 3.33864 1.68777 0
M  V30 5346 H 521.595 4.3837 2.23814 0
M  V30 5347 N 523.247 -0.488276 1.49845 0
M  V30 5348 C 524.21 -1.57069 1.66919 0
M  V30 5349 C 525.21 -1.51445 0.540479 0
M  V30 5350 O 526.4 -1.5437 0.807188 0
M  V30 5351 C 523.532 -2.96718 1.67844 0
M  V30 5352 H 524.725 -1.43254 2.63474 0
M  V30 5353 H 522.278 -0.713435 1.39068 0
M  V30 5354 H 523.013 -3.15996 0.7292 0
M  V30 5355 H 522.798 -3.02208 2.49826 0
M  V30 5356 H 524.288 -3.75335 1.83066 0
M  V30 5357 N 524.725 -1.39134 -0.740242 0
M  V30 5358 C 525.688 -1.37217 -1.83587 0
M  V30 5359 C 526.688 -0.270221 -1.58513 0
M  V30 5360 O 527.878 -0.527843 -1.6601 0
M  V30 5361 C 525.01 -1.13959 -3.21288 0
M  V30 5362 H 526.203 -2.34705 -1.86691 0
M  V30 5363 H 523.756 -1.24622 -0.94335 0
M  V30 5364 H 524.491 -0.17131 -3.23847 0
M  V30 5365 H 524.276 -1.93754 -3.40884 0
M  V30 5366 H 525.766 -1.15346 -4.01354 0
M  V30 5367 N 526.204 0.969867 -1.24223 0
M  V30 5368 C 527.452 1.70918 -1.0785 0
M  V30 5369 C 527.773 1.91186 0.383763 0
M  V30 5370 O 527.043 1.48806 1.27411 0
M  V30 5371 H 525.623 0.633334 -0.396103 0
M  V30 5372 H 528.285 1.16689 -1.56108 0
M  V30 5373 H 527.381 2.69455 -1.57482 0
M  V30 5374 N 527.682 1.05563 1.17022 0
M  V30 5375 C 528.632 0.630007 2.19123 0
M  V30 5376 C 529.616 -0.335472 1.57364 0
M  V30 5377 O 530.808 -0.1521 1.76345 0
M  V30 5378 C 527.937 0.0101676 3.43298 0
M  V30 5379 C 527.023 0.999698 4.12149 0
M  V30 5380 N 527.414 2.17251 4.56766 0
M  V30 5381 C 525.712 0.829 4.38228 0
M  V30 5382 C 526.413 2.79883 5.09942 0
M  V30 5383 N 525.389 2.07656 5.02374 0
M  V30 5384 H 529.191 1.52353 2.51328 0
M  V30 5385 H 526.705 0.926288 1.33393 0
M  V30 5386 H 528.702 -0.312541 4.15727 0
M  V30 5387 H 527.362 -0.878707 3.12584 0
M  V30 5388 H 528.373 2.55067 4.50734 0
M  V30 5389 H 525.05 -0.00850974 4.17499 0
M  V30 5390 H 526.44 3.79362 5.54558 0
M  V30 5391 N 529.16 -1.33526 0.837174 0
M  V30 5392 C 530.388 -2.02047 0.445494 0
M  V30 5393 C 530.803 -1.62995 -0.952788 0
M  V30 5394 O 530.16 -0.842447 -1.61892 0
M  V30 5395 C 530.211 -3.57221 0.554577 0
M  V30 5396 O 529.932 -3.94863 1.89776 0
M  V30 5397 C 531.433 -4.43012 0.159634 0
M  V30 5398 H 528.653 -0.647221 0.177048 0
M  V30 5399 H 531.197 -1.70492 1.12928 0
M  V30 5400 H 529.352 -3.87315 -0.0812781 0
M  V30 5401 H 529.766 -4.89569 1.88208 0
M  V30 5402 H 531.24 -5.51253 0.28701 0
M  V30 5403 H 531.717 -4.29916 -0.898289 0
M  V30 5404 H 532.323 -4.18274 0.769855 0
M  V30 5405 N 530.638 -0.59345 -1.46 0
M  V30 5406 C 531.568 0.121192 -2.33185 0
M  V30 5407 C 532.549 0.872977 -1.4599 0
M  V30 5408 O 533.734 0.846321 -1.74789 0
M  V30 5409 C 530.864 1.12844 -3.28456 0
M  V30 5410 C 529.818 0.4908 -4.25177 0
M  V30 5411 C 529.144 1.60529 -5.10034 0
M  V30 5412 C 530.444 -0.578949 -5.19081 0
M  V30 5413 H 532.138 -0.606767 -2.93187 0
M  V30 5414 H 529.684 -0.293242 -1.40983 0
M  V30 5415 H 531.637 1.63684 -3.88311 0
M  V30 5416 H 530.361 1.88681 -2.66584 0
M  V30 5417 H 529.02 0.00339328 -3.666 0
M  V30 5418 H 528.668 2.35359 -4.44539 0
M  V30 5419 H 528.368 1.18422 -5.75543 0
M  V30 5420 H 529.892 2.11623 -5.72755 0
M  V30 5421 H 531.306 -0.155199 -5.7309 0
M  V30 5422 H 529.703 -0.920947 -5.92991 0
M  V30 5423 H 530.773 -1.46109 -4.62364 0
M  V30 5424 N 532.116 1.54067 -0.331816 0
M  V30 5425 C 533.362 2.01012 0.268667 0
M  V30 5426 C 533.695 1.2195 1.51136 0
M  V30 5427 O 532.97 0.303972 1.9211 0
M  V30 5428 C 533.253 3.55158 0.59456 0
M  V30 5429 C 533.106 4.4494 -0.659409 0
M  V30 5430 C 534.425 4.16939 1.4089 0
M  V30 5431 H 531.544 0.730698 0.0961756 0
M  V30 5432 H 534.186 1.84593 -0.450031 0
M  V30 5433 H 532.336 3.6928 1.20685 0
M  V30 5434 H 534.008 4.42675 -1.29756 0
M  V30 5435 H 532.251 4.1428 -1.28665 0
M  V30 5436 H 532.922 5.50643 -0.386804 0
M  V30 5437 H 535.398 4.06443 0.891272 0
M  V30 5438 H 534.274 5.24889 1.60569 0
M  V30 5439 H 534.535 3.70798 2.40752 0
M  V30 5440 N 533.594 0.0601682 1.57485 0
M  V30 5441 C 535.005 -0.474217 1.80577 0
M  V30 5442 C 535.356 -1.70365 0.973147 0
M  V30 5443 O 534.481 -2.15544 0.192306 0
M  V30 5444 C 535.076 -0.867102 3.27516 0
M  V30 5445 C 533.635 -1.34642 3.51495 0
M  V30 5446 C 532.782 -0.32594 2.75378 0
M  V30 5447 H 535.733 0.285973 1.56102 0
M  V30 5448 H 535.754 -1.72938 3.38929 0
M  V30 5449 H 535.266 0.0278927 3.8809 0
M  V30 5450 H 533.367 -2.2603 2.96212 0
M  V30 5451 H 533.48 -1.33237 4.60201 0
M  V30 5452 H 531.844 -0.800749 2.41785 0
M  V30 5453 H 532.627 0.561125 3.38683 0
M  V30 5454 N 535.072 -1.5615 -0.213296 0
M  V30 5455 C 536.319 -1.79546 -0.936462 0
M  V30 5456 C 536.647 -0.630337 -1.84003 0
M  V30 5457 O 535.902 0.384883 -1.91878 0
M  V30 5458 C 536.201 -3.08772 -1.79985 0
M  V30 5459 C 535.867 -4.38532 -1.04882 0
M  V30 5460 C 534.529 -4.73787 -0.841393 0
M  V30 5461 C 536.881 -5.18609 -0.51907 0
M  V30 5462 C 534.209 -5.86627 -0.0924403 0
M  V30 5463 C 536.561 -6.32229 0.216581 0
M  V30 5464 C 535.225 -6.6608 0.435191 0
M  V30 5465 H 534.495 -0.657004 -0.342676 0
M  V30 5466 H 537.142 -1.9041 -0.204051 0
M  V30 5467 H 535.447 -2.93065 -2.60038 0
M  V30 5468 H 537.144 -3.24077 -2.36168 0
M  V30 5469 H 533.734 -4.10855 -1.22048 0
M  V30 5470 H 537.918 -4.91801 -0.666775 0
M  V30 5471 H 533.174 -6.11338 0.087081 0
M  V30 5472 H 537.348 -6.93503 0.634538 0
M  V30 5473 H 534.975 -7.5336 1.01746 0
M  V30 5474 N 536.55 0.480323 -1.50102 0
M  V30 5475 C 537.48 1.58769 -1.71215 0
M  V30 5476 C 538.461 1.60583 -0.560997 0
M  V30 5477 O 539.646 1.76996 -0.799127 0
M  V30 5478 C 536.776 2.97148 -1.79778 0
M  V30 5479 C 535.73 3.10201 -2.94888 0
M  V30 5480 C 535.056 4.50137 -2.88584 0
M  V30 5481 C 536.356 2.88283 -4.35534 0
M  V30 5482 H 538.05 1.41354 -2.6393 0
M  V30 5483 H 535.596 0.678591 -1.27008 0
M  V30 5484 H 537.549 3.74536 -1.93133 0
M  V30 5485 H 536.273 3.15699 -0.836772 0
M  V30 5486 H 534.932 2.35244 -2.81169 0
M  V30 5487 H 534.58 4.65593 -1.90349 0
M  V30 5488 H 534.28 4.59808 -3.65856 0
M  V30 5489 H 535.804 5.29558 -3.03976 0
M  V30 5490 H 537.218 3.55427 -4.49827 0
M  V30 5491 H 535.615 3.09408 -5.14186 0
M  V30 5492 H 536.685 1.84219 -4.48544 0
M  V30 5493 N 538.028 1.39524 0.732853 0
M  V30 5494 C 539.439 1.32905 1.31122 0
M  V30 5495 C 539.79 -0.00558708 1.96199 0
M  V30 5496 O 538.915 -0.907706 1.96443 0
M  V30 5497 C 539.51 2.40704 2.38426 0
M  V30 5498 C 538.069 2.37599 2.91931 0
M  V30 5499 C 537.216 2.2248 1.65523 0
M  V30 5500 H 540.167 1.49581 0.530207 0
M  V30 5501 H 540.188 2.07616 3.18867 0
M  V30 5502 H 539.7 3.37829 1.91033 0
M  V30 5503 H 537.801 1.44119 3.43599 0
M  V30 5504 H 537.914 3.32538 3.44899 0
M  V30 5505 H 536.278 1.69691 1.8994 0
M  V30 5506 H 537.061 3.21577 1.20178 0
M  V30 5507 N 539.506 -0.963266 1.24736 0
M  V30 5508 C 540.731 -1.74699 1.11781 0
M  V30 5509 C 541.156 -1.85267 -0.325258 0
M  V30 5510 O 540.514 -1.32681 -1.23553 0
M  V30 5511 C 540.562 -3.14322 1.76731 0
M  V30 5512 O 539.666 -3.99043 1.04109 0
M  V30 5513 H 539.007 -0.53684 0.390767 0
M  V30 5514 H 541.537 -1.20801 1.65131 0
M  V30 5515 H 541.547 -3.64824 1.82668 0
M  V30 5516 H 540.222 -3.05946 2.81726 0
M  V30 5517 H 538.799 -3.5752 1.05991 0
M  V30 5518 N 540.985 -1.06182 -1.16461 0
M  V30 5519 C 541.933 -0.665716 -2.2287 0
M  V30 5520 C 542.927 0.317822 -1.66392 0
M  V30 5521 O 544.133 0.182807 -1.79069 0
M  V30 5522 H 540.508 -0.197148 -0.725697 0
M  V30 5523 H 542.479 -1.57307 -2.53569 0
M  V30 5524 C 541.228 -0.0669803 -3.47635 0
M  V30 5525 H 540.551 -0.814899 -3.91407 0
M  V30 5526 H 541.991 0.172669 -4.23648 0
M  V30 5527 C 540.45 1.18913 -3.15216 0
M  V30 5528 O 540.98 2.27723 -3.30916 0
M  V30 5529 N 539.186 1.09066 -2.69357 0
M  V30 5530 H 538.733 0.20518 -2.56782 0
M  V30 5531 H 538.691 1.93195 -2.48039 0
M  V30 5532 N 542.463 1.3308 -0.844243 0
M  V30 5533 C 543.712 1.96868 -0.438833 0
M  V30 5534 C 544.025 1.67599 1.00846 0
M  V30 5535 O 545.231 2.25043 1.51881 0
M  V30 5536 C 543.687 3.5234 -0.73377 0
M  V30 5537 C 543.295 3.90481 -2.1961 0
M  V30 5538 C 545.039 4.22653 -0.395574 0
M  V30 5539 C 542.946 5.38954 -2.43481 0
M  V30 5540 H 541.876 0.736749 -0.160364 0
M  V30 5541 H 544.527 1.51623 -1.03358 0
M  V30 5542 H 542.909 3.95941 -0.068589 0
M  V30 5543 H 544.083 3.57922 -2.90221 0
M  V30 5544 H 542.398 3.33165 -2.4978 0
M  V30 5545 H 544.995 5.31848 -0.551477 0
M  V30 5546 H 545.338 4.11004 0.661921 0
M  V30 5547 H 545.871 3.84601 -1.01621 0
M  V30 5548 H 542.61 5.55612 -3.47816 0
M  V30 5549 H 542.13 5.72954 -1.77437 0
M  V30 5550 H 543.809 6.05907 -2.26905 0
M  V30 5551 N 543.941 0.601185 1.45683 0
M  V30 5552 C 545.352 0.179659 1.85834 0
M  V30 5553 C 545.703 -1.26189 1.50236 0
M  V30 5554 O 544.828 -1.95587 0.925987 0
M  V30 5555 C 545.423 0.319277 3.37292 0
M  V30 5556 C 543.982 -0.0475092 3.7637 0
M  V30 5557 C 543.129 0.646692 2.69654 0
M  V30 5558 H 546.08 0.808268 1.36575 0
M  V30 5559 H 546.101 -0.4503 3.77826 0
M  V30 5560 H 545.613 1.36855 3.6317 0
M  V30 5561 H 543.714 -1.0962 3.5611 0
M  V30 5562 H 543.827 0.34168 4.7788 0
M  V30 5563 H 542.191 0.0849971 2.54558 0
M  V30 5564 H 542.974 1.69797 2.98369 0
M  V30 5565 N 545.419 -1.53889 0.339982 0
M  V30 5566 C 546.369 -2.2165 -0.534354 0
M  V30 5567 C 547.353 -1.20266 -1.06887 0
M  V30 5568 O 548.545 -1.45827 -1.00316 0
M  V30 5569 C 545.674 -2.99014 -1.68659 0
M  V30 5570 C 544.76 -4.07751 -1.16618 0
M  V30 5571 N 545.151 -5.04469 -0.366717 0
M  V30 5572 C 543.449 -4.21998 -1.4434 0
M  V30 5573 C 544.15 -5.81638 -0.0847275 0
M  V30 5574 N 543.126 -5.39388 -0.675391 0
M  V30 5575 H 546.928 -2.93781 0.0835562 0
M  V30 5576 H 544.442 -1.61736 0.146665 0
M  V30 5577 H 546.439 -3.46056 -2.32489 0
M  V30 5578 H 545.099 -2.28408 -2.30781 0
M  V30 5579 H 546.11 -5.17899 -0.00811038 0
M  V30 5580 H 542.787 -3.62612 -2.06928 0
M  V30 5581 H 544.177 -6.69563 0.559943 0
M  V30 5582 N 546.897 -0.0685191 -1.57451 0
M  V30 5583 C 547.86 0.885173 -2.11417 0
M  V30 5584 C 548.86 1.22853 -1.03748 0
M  V30 5585 O 550.05 1.16235 -1.2975 0
M  V30 5586 C 547.182 2.18964 -2.61281 0
M  V30 5587 H 548.375 0.417034 -2.96986 0
M  V30 5588 H 545.928 0.18014 -1.55258 0
M  V30 5589 H 546.663 2.70321 -1.79156 0
M  V30 5590 H 546.448 1.9534 -3.39977 0
M  V30 5591 H 547.938 2.87242 -3.0312 0
M  V30 5592 N 548.375 1.56261 0.205012 0
M  V30 5593 C 549.305 1.96779 1.257 0
M  V30 5594 C 550.286 0.838309 1.48008 0
M  V30 5595 O 551.471 1.10189 1.59913 0
M  V30 5596 C 548.601 2.29876 2.60335 0
M  V30 5597 C 547.555 3.45469 2.52656 0
M  V30 5598 C 546.881 3.64215 3.91473 0
M  V30 5599 C 548.181 4.79954 2.06014 0
M  V30 5600 H 549.875 2.84904 0.920338 0
M  V30 5601 H 547.421 1.37072 0.441277 0
M  V30 5602 H 549.374 2.56814 3.34102 0
M  V30 5603 H 548.098 1.38622 2.95722 0
M  V30 5604 H 546.757 3.18605 1.81345 0
M  V30 5605 H 546.405 2.70309 4.24196 0
M  V30 5606 H 546.105 4.41973 3.87213 0
M  V30 5607 H 547.629 3.93519 4.66878 0
M  V30 5608 H 549.043 5.05989 2.69533 0
M  V30 5609 H 547.44 5.61111 2.12777 0
M  V30 5610 H 548.51 4.74201 1.01297 0
M  V30 5611 N 549.853 -0.472356 1.50355 0
M  V30 5612 C 550.763 -1.59637 1.7191 0
M  V30 5613 C 551.779 -1.63247 0.602195 0
M  V30 5614 O 552.955 -1.81139 0.880369 0
M  V30 5615 C 550.02 -2.9586 1.80742 0
M  V30 5616 C 549.081 -3.02649 3.04471 0
M  V30 5617 C 548.314 -4.32374 3.12872 0
M  V30 5618 O 548.537 -5.22807 2.28099 0
M  V30 5619 O 547.471 -4.44728 4.05587 0
M  V30 5620 H 551.297 -1.44373 2.67189 0
M  V30 5621 H 548.882 -0.651717 1.34436 0
M  V30 5622 H 550.764 -3.7677 1.88739 0
M  V30 5623 H 549.439 -3.11325 0.88647 0
M  V30 5624 H 548.346 -2.20821 3.01975 0
M  V30 5625 H 549.679 -2.92119 3.9614 0
M  V30 5626 N 551.331 -1.39911 -0.725443 0
M  V30 5627 C 552.559 -1.40949 -1.51463 0
M  V30 5628 C 552.974 -0.0065242 -1.88799 0
M  V30 5629 O 552.331 0.967163 -1.54765 0
M  V30 5630 C 552.382 -2.29119 -2.79619 0
M  V30 5631 O 552.103 -3.63952 -2.43866 0
M  V30 5632 C 553.604 -2.38642 -3.73584 0
M  V30 5633 H 550.824 -0.481091 -0.467752 0
M  V30 5634 H 553.368 -1.83843 -0.895651 0
M  V30 5635 H 551.523 -1.89612 -3.37826 0
M  V30 5636 H 551.937 -4.10677 -3.26258 0
M  V30 5637 H 553.411 -3.04563 -4.60375 0
M  V30 5638 H 553.888 -1.40846 -4.16004 0
M  V30 5639 H 554.494 -2.78659 -3.21293 0
M  V30 5640 N 552.809 0.956637 -1.25245 0
M  V30 5641 C 553.739 2.07058 -1.07931 0
M  V30 5642 C 554.72 1.70096 0.0110361 0
M  V30 5643 O 555.905 1.93555 -0.158121 0
M  V30 5644 C 553.035 3.40272 -0.695124 0
M  V30 5645 C 551.989 3.91235 -1.73549 0
M  V30 5646 C 551.315 5.20921 -1.20604 0
M  V30 5647 C 552.615 4.17837 -3.13385 0
M  V30 5648 H 554.309 2.218 -2.01109 0
M  V30 5649 H 551.855 1.06581 -0.968326 0
M  V30 5650 H 553.808 4.1765 -0.560949 0
M  V30 5651 H 552.532 3.25462 0.272355 0
M  V30 5652 H 551.191 3.16025 -1.85807 0
M  V30 5653 H 550.839 5.02479 -0.228846 0
M  V30 5654 H 550.539 5.55987 -1.90136 0
M  V30 5655 H 552.063 6.00897 -1.08421 0
M  V30 5656 H 553.477 4.8588 -3.04292 0
M  V30 5657 H 551.874 4.64154 -3.80369 0
M  V30 5658 H 552.944 3.2419 -3.60595 0
M  V30 5659 N 554.287 1.06798 1.15896 0
M  V30 5660 C 555.512 0.808739 1.90982 0
M  V30 5661 C 555.937 -0.6316 1.77179 0
M  V30 5662 O 555.295 -1.4407 1.10061 0
M  V30 5663 C 555.343 1.21468 3.39526 0
M  V30 5664 O 554.447 0.356562 4.10856 0
M  V30 5665 H 553.788 0.29512 0.594811 0
M  V30 5666 H 556.318 1.42513 1.46804 0
M  V30 5667 H 556.328 1.18844 3.90308 0
M  V30 5668 H 555.003 2.26379 3.48891 0
M  V30 5669 H 553.58 0.444808 3.70238 0
M  V30 5670 N 555.766 -1.3263 0.851289 0
M  V30 5671 C 556.994 -2.01563 0.466899 0
M  V30 5672 C 557.409 -1.63996 -0.935447 0
M  V30 5673 O 556.766 -0.85957 -1.6099 0
M  V30 5674 C 556.817 -3.56613 0.592433 0
M  V30 5675 O 556.538 -3.92828 1.93954 0
M  V30 5676 C 558.039 -4.42818 0.206612 0
M  V30 5677 H 555.259 -0.645307 0.183902 0
M  V30 5678 H 557.803 -1.69285 1.1473 0
M  V30 5679 H 555.958 -3.87379 -0.0401936 0
M  V30 5680 H 556.372 -4.87545 1.9339 0
M  V30 5681 H 557.846 -5.50918 0.345462 0
M  V30 5682 H 558.323 -4.30844 -0.85264 0
M  V30 5683 H 558.929 -4.17434 0.814176 0
M  V30 5684 N 557.244 -0.608902 -1.45362 0
M  V30 5685 C 558.492 -0.104401 -2.0183 0
M  V30 5686 C 558.813 1.27007 -1.47967 0
M  V30 5687 O 558.083 1.83924 -0.674455 0
M  V30 5688 H 556.663 -0.0356042 -0.746151 0
M  V30 5689 H 559.325 -0.790596 -1.78145 0
M  V30 5690 H 558.421 -0.0551793 -3.12051 0
M  V30 5691 N 558.722 1.53707 -0.348139 0
M  V30 5692 C 559.97 2.00591 0.246478 0
M  V30 5693 C 560.291 1.23753 1.50699 0
M  V30 5694 O 559.561 0.345964 1.92821 0
M  V30 5695 H 558.141 0.741053 0.0940679 0
M  V30 5696 H 560.803 1.89139 -0.470354 0
M  V30 5697 H 559.899 3.08297 0.485714 0
M  V30 5698 N 560.2 0.0768682 1.57412 0
M  V30 5699 C 561.13 -0.886026 2.16037 0
M  V30 5700 C 562.111 -1.30691 1.08876 0
M  V30 5701 O 563.296 -1.37705 1.36934 0
M  V30 5702 C 560.426 -2.1518 2.72608 0
M  V30 5703 C 559.38 -1.87015 3.8498 0
M  V30 5704 C 558.706 -3.20266 4.28175 0
M  V30 5705 C 560.006 -1.17143 5.08994 0
M  V30 5706 H 561.7 -0.397642 2.96748 0
M  V30 5707 H 559.246 -0.189823 1.42743 0
M  V30 5708 H 561.199 -2.82962 3.12266 0
M  V30 5709 H 559.923 -2.66269 1.89125 0
M  V30 5710 H 558.582 -1.21636 3.45833 0
M  V30 5711 H 558.23 -3.69207 3.41607 0
M  V30 5712 H 557.93 -3.0221 5.03927 0
M  V30 5713 H 559.454 -3.89237 4.70454 0
M  V30 5714 H 560.868 -1.75003 5.45937 0
M  V30 5715 H 559.265 -1.09328 5.90057 0
M  V30 5716 H 560.335 -0.151295 4.84664 0
M  V30 5717 N 561.678 -1.56367 -0.196722 0
M  V30 5718 C 562.925 -1.80529 -0.917366 0
M  V30 5719 C 563.253 -0.649817 -1.83324 0
M  V30 5720 O 562.508 0.36451 -1.92275 0
M  V30 5721 C 562.807 -3.10663 -1.767 0
M  V30 5722 C 562.473 -4.3962 -1.00225 0
M  V30 5723 C 561.135 -4.74653 -0.791095 0
M  V30 5724 C 563.487 -5.1913 -0.464035 0
M  V30 5725 C 560.815 -5.86692 -0.0302155 0
M  V30 5726 C 563.167 -6.31964 0.283625 0
M  V30 5727 C 561.831 -6.65581 0.505813 0
M  V30 5728 H 561.101 -0.660602 -0.335688 0
M  V30 5729 H 563.748 -1.90615 -0.183844 0
M  V30 5730 H 562.053 -2.95807 -2.56915 0
M  V30 5731 H 563.75 -3.26563 -2.32718 0
M  V30 5732 H 560.34 -4.12127 -1.17684 0
M  V30 5733 H 564.524 -4.9248 -0.614575 0
M  V30 5734 H 559.78 -6.11211 0.151917 0
M  V30 5735 H 563.954 -6.92791 0.708057 0
M  V30 5736 H 561.581 -7.52239 1.0973 0
M  V30 5737 N 563.156 0.464375 -1.50603 0
M  V30 5738 C 564.381 1.24372 -1.65971 0
M  V30 5739 C 564.806 1.84901 -0.345453 0
M  V30 5740 O 564.164 1.67596 0.691457 0
M  V30 5741 C 564.212 2.32331 -2.7578 0
M  V30 5742 O 563.316 3.37146 -2.375 0
M  V30 5743 H 562.657 0.365604 -0.554283 0
M  V30 5744 H 565.187 0.55183 -1.97018 0
M  V30 5745 H 565.197 2.77539 -2.99059 0
M  V30 5746 H 563.872 1.87648 -3.71162 0
M  V30 5747 H 562.449 2.97602 -2.24694 0
M  V30 5748 N 564.634 1.40294 0.718013 0
M  V30 5749 C 565.911 1.2894 1.47084 0
M  V30 5750 C 566.291 -0.0933625 2.10893 0
M  V30 5751 O 565.639 -1.10598 1.99951 0
M  V30 5752 C 565.849 2.4264 2.50852 0
M  V30 5753 C 567.197 2.8276 3.16752 0
M  V30 5754 O 568.221 2.42215 2.61171 0
M  V30 5755 O 567.08 3.528 4.17366 0
M  V30 5756 H 564.174 0.506236 0.653952 0
M  V30 5757 H 566.72 1.52208 0.750394 0
M  V30 5758 H 565.492 3.35009 2.022 0
M  V30 5759 H 565.115 2.21129 3.30435 0
M  V30 5760 N 566.112 -0.949982 1.2575 0
M  V30 5761 C 567.36 -1.6918 1.10555 0
M  V30 5762 C 567.681 -1.91773 -0.353298 0
M  V30 5763 O 566.951 -1.50814 -1.25027 0
M  V30 5764 H 565.531 -0.626952 0.406129 0
M  V30 5765 H 568.193 -1.1419 1.57945 0
M  V30 5766 H 567.289 -2.66915 1.61749 0
M  V30 5767 N 567.59 -1.07411 -1.15328 0
M  V30 5768 C 568.838 -0.796073 -1.85761 0
M  V30 5769 C 569.159 0.679864 -1.82764 0
M  V30 5770 O 568.429 1.49242 -1.269 0
M  V30 5771 H 567.009 -0.291495 -0.687779 0
M  V30 5772 H 569.671 -1.35799 -1.39802 0
M  V30 5773 H 568.767 -1.13114 -2.90881 0
M  V30 5774 N 569.068 1.32177 -0.85831 0
M  V30 5775 C 570.018 2.26307 -0.277307 0
M  V30 5776 C 571.002 1.50123 0.578946 0
M  V30 5777 O 572.194 1.71754 0.427731 0
M  V30 5778 C 569.323 3.39181 0.530232 0
M  V30 5779 C 568.409 4.22746 -0.338613 0
M  V30 5780 N 568.8 4.85265 -1.4266 0
M  V30 5781 C 567.098 4.45813 -0.129 0
M  V30 5782 C 567.799 5.47634 -1.96142 0
M  V30 5783 N 566.775 5.28794 -1.26007 0
M  V30 5784 H 570.577 2.72173 -1.10902 0
M  V30 5785 H 568.091 1.46308 -0.704816 0
M  V30 5786 H 570.088 4.05628 0.962904 0
M  V30 5787 H 568.748 2.9486 1.35969 0
M  V30 5788 H 569.759 4.85259 -1.80953 0
M  V30 5789 H 566.436 4.12163 0.665451 0
M  V30 5790 H 567.826 6.0735 -2.8736 0
M  V30 5791 N 570.547 0.616602 1.45037 0
M  V30 5792 C 571.775 0.121968 2.0654 0
M  V30 5793 C 572.19 -1.19743 1.45969 0
M  V30 5794 O 571.547 -1.73133 0.577168 0
M  V30 5795 C 571.598 -0.0145171 3.61497 0
M  V30 5796 O 571.319 1.25269 4.19809 0
M  V30 5797 C 572.82 -0.539555 4.40004 0
M  V30 5798 H 570.04 0.0729837 0.667019 0
M  V30 5799 H 572.584 0.846891 1.8614 0
M  V30 5800 H 570.739 -0.689809 3.81209 0
M  V30 5801 H 571.153 1.08816 5.13088 0
M  V30 5802 H 572.627 -0.584112 5.48901 0
M  V30 5803 H 573.104 -1.56368 4.10421 0
M  V30 5804 H 573.71 0.101995 4.25178 0
M  V30 5805 N 572.025 -1.5352 0.356285 0
M  V30 5806 C 573.272 -2.01117 -0.236303 0
M  V30 5807 C 573.6 -1.24381 -1.49531 0
M  V30 5808 O 572.855 -0.323057 -1.93015 0
M  V30 5809 C 573.154 -3.52607 -0.583369 0
M  V30 5810 C 572.82 -4.47151 0.58023 0
M  V30 5811 C 571.482 -4.72718 0.899528 0
M  V30 5812 C 573.834 -5.03137 1.36024 0
M  V30 5813 C 571.162 -5.51523 2.00098 0
M  V30 5814 C 573.514 -5.83145 2.45204 0
M  V30 5815 C 572.178 -6.07001 2.77679 0
M  V30 5816 H 571.448 -0.735938 -0.0864695 0
M  V30 5817 H 574.095 -1.85209 0.48683 0
M  V30 5818 H 572.4 -3.66413 -1.38739 0
M  V30 5819 H 574.097 -3.86901 -1.05397 0
M  V30 5820 H 570.687 -4.27394 0.321322 0
M  V30 5821 H 574.871 -4.83339 1.12682 0
M  V30 5822 H 570.127 -5.68229 2.25668 0
M  V30 5823 H 574.301 -6.25537 3.06067 0
M  V30 5824 H 571.928 -6.67851 3.63151 0
M  V30 5825 N 573.503 -0.0852151 -1.57369 0
M  V30 5826 C 574.433 0.874556 -2.16503 0
M  V30 5827 C 575.414 1.30111 -1.09568 0
M  V30 5828 O 576.599 1.36977 -1.37662 0
M  V30 5829 C 573.729 2.13731 -2.73745 0
M  V30 5830 C 572.683 1.84971 -3.85966 0
M  V30 5831 C 572.009 3.17991 -4.29867 0
M  V30 5832 C 573.309 1.14442 -5.09608 0
M  V30 5833 H 575.003 0.381899 -2.96954 0
M  V30 5834 H 572.549 0.18225 -1.42842 0
M  V30 5835 H 574.502 2.81302 -3.13763 0
M  V30 5836 H 573.226 2.65263 -1.90534 0
M  V30 5837 H 571.885 1.19801 -3.46473 0
M  V30 5838 H 571.533 3.6739 -3.4356 0
M  V30 5839 H 571.233 2.99534 -5.05523 0
M  V30 5840 H 572.757 3.86737 -4.72511 0
M  V30 5841 H 574.171 1.72105 -5.46857 0
M  V30 5842 H 572.568 1.06197 -5.90629 0
M  V30 5843 H 573.638 0.12559 -4.84737 0
M  V30 5844 N 574.981 1.5647 0.188427 0
M  V30 5845 C 575.913 1.91611 1.25769 0
M  V30 5846 C 576.926 0.807436 1.41366 0
M  V30 5847 O 578.115 1.08586 1.41673 0
M  V30 5848 C 575.215 2.13874 2.6289 0
M  V30 5849 C 574.388 3.45047 2.68815 0
M  V30 5850 C 573.447 3.56342 3.87178 0
M  V30 5851 O 572.473 4.29109 3.73971 0
M  V30 5852 N 573.675 2.89924 5.02916 0
M  V30 5853 H 576.44 2.8393 0.959373 0
M  V30 5854 H 574.001 1.57418 0.378306 0
M  V30 5855 H 575.993 2.18713 3.4051 0
M  V30 5856 H 574.563 1.28022 2.85183 0
M  V30 5857 H 573.783 3.52017 1.77419 0
M  V30 5858 H 575.071 4.31395 2.6977 0
M  V30 5859 H 574.469 2.30644 5.16546 0
M  V30 5860 H 573.026 3.0038 5.78459 0
M  V30 5861 N 576.459 -0.456382 1.50847 0
M  V30 5862 C 577.407 -1.57318 1.71329 0
M  V30 5863 C 578.401 -1.59187 0.579287 0
M  V30 5864 O 579.607 -1.6316 0.76018 0
M  V30 5865 H 575.982 -0.5223 0.541024 0
M  V30 5866 H 577.953 -1.3721 2.64983 0
M  V30 5867 C 576.702 -2.95142 1.83811 0
M  V30 5868 H 576.025 -2.94428 2.70467 0
M  V30 5869 H 577.465 -3.72702 2.02161 0
M  V30 5870 C 575.924 -3.31636 0.593224 0
M  V30 5871 O 576.454 -4.00852 -0.260898 0
M  V30 5872 N 574.66 -2.87205 0.442902 0
M  V30 5873 H 574.207 -2.31051 1.13901 0
M  V30 5874 H 574.165 -3.11986 -0.38884 0
M  V30 5875 N 577.937 -1.40673 -0.710563 0
M  V30 5876 C 579.184 -1.39222 -1.47049 0
M  V30 5877 C 579.512 0.0037691 -1.945 0
M  V30 5878 O 578.767 0.989224 -1.68857 0
M  V30 5879 C 579.066 -2.33253 -2.70791 0
M  V30 5880 C 578.732 -3.80406 -2.42079 0
M  V30 5881 C 577.394 -4.20496 -2.33959 0
M  V30 5882 C 579.746 -4.73375 -2.18094 0
M  V30 5883 C 577.074 -5.51584 -1.99929 0
M  V30 5884 C 579.426 -6.04768 -1.85576 0
M  V30 5885 C 578.09 -6.43895 -1.75941 0
M  V30 5886 H 577.36 -0.509449 -0.538092 0
M  V30 5887 H 580.007 -1.73363 -0.81348 0
M  V30 5888 H 578.312 -1.92314 -3.41354 0
M  V30 5889 H 580.009 -2.29412 -3.28894 0
M  V30 5890 H 576.599 -3.48645 -2.49288 0
M  V30 5891 H 580.783 -4.43217 -2.23321 0
M  V30 5892 H 576.039 -5.80797 -1.91011 0
M  V30 5893 H 580.213 -6.76318 -1.66033 0
M  V30 5894 H 577.84 -7.45387 -1.4934 0
M  V30 5895 N 579.415 0.9433 -1.26252 0
M  V30 5896 C 580.362 2.0417 -1.07625 0
M  V30 5897 C 581.332 1.6609 0.0180738 0
M  V30 5898 O 582.517 1.90276 -0.141289 0
M  V30 5899 C 579.657 3.37653 -0.713043 0
M  V30 5900 C 578.77 3.88783 -1.8834 0
M  V30 5901 C 577.905 5.10642 -1.4635 0
M  V30 5902 C 576.944 5.54028 -2.60229 0
M  V30 5903 N 576.081 6.67092 -2.18936 0
M  V30 5904 H 580.921 2.19436 -2.01623 0
M  V30 5905 H 578.458 1.07519 -1.00389 0
M  V30 5906 H 580.416 4.14391 -0.483358 0
M  V30 5907 H 579.046 3.22241 0.18996 0
M  V30 5908 H 578.098 3.08464 -2.22608 0
M  V30 5909 H 579.41 4.16922 -2.73821 0
M  V30 5910 H 578.564 5.94832 -1.19414 0
M  V30 5911 H 577.303 4.84244 -0.579568 0
M  V30 5912 H 576.308 4.68396 -2.87898 0
M  V30 5913 H 577.533 5.82429 -3.49219 0
M  V30 5914 H 575.479 6.42381 -1.32974 0
M  V30 5915 H 575.396 6.94806 -2.97961 0
M  V30 5916 H 576.664 7.54662 -1.95206 0
M  V30 5917 N 580.893 1.08022 1.14757 0
M  V30 5918 C 582.141 0.805913 1.85336 0
M  V30 5919 C 582.462 -0.670162 1.83122 0
M  V30 5920 O 581.732 -1.48567 1.2769 0
M  V30 5921 H 580.312 0.295138 0.686223 0
M  V30 5922 H 582.974 1.36538 1.3908 0
M  V30 5923 H 582.07 1.14655 2.90277 0
M  V30 5924 N 582.371 -1.3172 0.865308 0
M  V30 5925 C 583.648 -1.91574 0.394789 0
M  V30 5926 C 584.028 -1.78769 -1.12271 0
M  V30 5927 O 583.376 -1.19245 -1.94918 0
M  V30 5928 C 583.586 -3.37957 0.870982 0
M  V30 5929 C 584.934 -4.15073 0.894384 0
M  V30 5930 O 585.958 -3.4672 0.816325 0
M  V30 5931 O 584.817 -5.37151 1.00651 0
M  V30 5932 H 581.911 -0.818649 0.117229 0
M  V30 5933 H 584.457 -1.4042 0.952913 0
M  V30 5934 H 583.229 -3.41269 1.91444 0
M  V30 5935 H 582.852 -3.96534 0.290907 0
M  V30 5936 N 583.85 -0.624285 -1.44708 0
M  V30 5937 C 585.096 -0.126051 -2.02107 0
M  V30 5938 C 585.425 1.2496 -1.49048 0
M  V30 5939 O 584.68 1.84163 -0.662005 0
M  V30 5940 C 584.979 -0.0546353 -3.57358 0
M  V30 5941 C 584.644 -1.36815 -4.29642 0
M  V30 5942 C 583.307 -1.72792 -4.49106 0
M  V30 5943 C 585.659 -2.23549 -4.70824 0
M  V30 5944 C 582.986 -2.95222 -5.07012 0
M  V30 5945 C 585.339 -3.45243 -5.30085 0
M  V30 5946 C 584.003 -3.81452 -5.47769 0
M  V30 5947 H 583.273 -0.0461252 -0.739563 0
M  V30 5948 H 585.92 -0.809236 -1.73562 0
M  V30 5949 H 584.225 0.711891 -3.85278 0
M  V30 5950 H 585.922 0.347282 -3.99493 0
M  V30 5951 H 582.512 -1.07817 -4.14817 0
M  V30 5952 H 586.696 -1.9705 -4.55505 0
M  V30 5953 H 581.952 -3.23361 -5.18891 0
M  V30 5954 H 586.125 -4.12689 -5.60946 0
M  V30 5955 H 583.753 -4.76403 -5.92405 0
M  V30 5956 N 585.328 1.53329 -0.364422 0
M  V30 5957 C 586.574 2.01537 0.225969 0
M  V30 5958 C 586.907 1.25128 1.48515 0
M  V30 5959 O 586.182 0.344653 1.91422 0
M  V30 5960 C 586.465 3.56339 0.519092 0
M  V30 5961 C 586.318 4.43441 -0.753639 0
M  V30 5962 C 587.637 4.19833 1.32015 0
M  V30 5963 H 584.756 0.732573 0.0806548 0
M  V30 5964 H 587.398 1.83597 -0.489084 0
M  V30 5965 H 585.548 3.71756 1.12825 0
M  V30 5966 H 587.22 4.39823 -1.39116 0
M  V30 5967 H 585.463 4.11457 -1.37424 0
M  V30 5968 H 586.134 5.49699 -0.503517 0
M  V30 5969 H 588.61 4.08242 0.804859 0
M  V30 5970 H 587.486 5.28177 1.49399 0
M  V30 5971 H 587.747 3.75821 2.32832 0
M  V30 5972 N 586.806 0.0935595 1.57322 0
M  V30 5973 C 588.083 -0.612692 1.85756 0
M  V30 5974 C 588.463 -1.86439 0.99013 0
M  V30 5975 O 587.811 -2.28416 0.0621362 0
M  V30 5976 C 588.021 -0.929547 3.36393 0
M  V30 5977 C 589.369 -1.29366 4.04413 0
M  V30 5978 O 590.393 -1.02061 3.41265 0
M  V30 5979 O 589.252 -1.80498 5.15832 0
M  V30 5980 H 586.346 -0.306444 0.768128 0
M  V30 5981 H 588.892 0.126141 1.69231 0
M  V30 5982 H 587.664 -0.0414766 3.91278 0
M  V30 5983 H 587.287 -1.72441 3.5826 0
M  V30 5984 N 588.284 -1.56567 -0.180126 0
M  V30 5985 C 589.695 -1.7126 -0.743422 0
M  V30 5986 C 590.046 -0.70263 -1.83187 0
M  V30 5987 O 589.171 0.137856 -2.1596 0
M  V30 5988 C 589.766 -3.10512 -1.35528 0
M  V30 5989 C 588.325 -3.26919 -1.8655 0
M  V30 5990 C 587.472 -2.67213 -0.741099 0
M  V30 5991 H 590.423 -1.58636 0.0451543 0
M  V30 5992 H 590.444 -3.08673 -2.22489 0
M  V30 5993 H 589.956 -3.83997 -0.562862 0
M  V30 5994 H 588.057 -2.58376 -2.68464 0
M  V30 5995 H 588.17 -4.34574 -2.01699 0
M  V30 5996 H 586.534 -2.26788 -1.15927 0
M  V30 5997 H 587.317 -3.43277 0.0393291 0
M  V30 5998 N 589.762 0.448376 -1.51087 0
M  V30 5999 C 591.002 1.20832 -1.64861 0
M  V30 6000 C 591.366 1.88748 -0.351873 0
M  V30 6001 O 592.567 2.66307 -0.365265 0
M  V30 6002 C 590.838 2.20674 -2.81137 0
M  V30 6003 S 592.397 3.05303 -3.15176 0
M  V30 6004 H 589.215 0.40992 -0.580936 0
M  V30 6005 H 591.817 0.501624 -1.88955 0
M  V30 6006 H 590.521 1.69399 -3.73808 0
M  V30 6007 H 590.052 2.9594 -2.59198 0
M  V30 6008 H 592.067 4.22162 -2.60756 0
M  V30 6009 N 591.24 1.41047 0.703093 0
M  V30 6010 C 592.17 1.45067 1.82969 0
M  V30 6011 C 593.151 0.31016 1.67248 0
M  V30 6012 O 594.336 0.520548 1.87093 0
M  V30 6013 C 591.466 1.32478 3.2104 0
M  V30 6014 C 590.42 2.44262 3.51454 0
M  V30 6015 C 589.746 2.16742 4.88801 0
M  V30 6016 C 591.046 3.86606 3.51189 0
M  V30 6017 H 592.74 2.39353 1.79863 0
M  V30 6018 H 590.286 1.15206 0.863919 0
M  V30 6019 H 592.239 1.33904 3.99559 0
M  V30 6020 H 590.963 0.346735 3.24754 0
M  V30 6021 H 589.622 2.42107 2.75282 0
M  V30 6022 H 589.27 1.17299 4.89132 0
M  V30 6023 H 588.97 2.91643 5.10116 0
M  V30 6024 H 590.494 2.19872 5.69639 0
M  V30 6025 H 591.908 3.90517 4.19725 0
M  V30 6026 H 590.305 4.61128 3.84033 0
M  V30 6027 H 591.375 4.15296 2.50315 0
M  V30 6028 N 592.718 -0.936591 1.26751 0
M  V30 6029 C 593.966 -1.67998 1.12343 0
M  V30 6030 C 594.287 -1.92137 -0.332938 0
M  V30 6031 O 593.557 -1.52132 -1.23421 0
M  V30 6032 H 592.137 -0.622609 0.412756 0
M  V30 6033 H 594.799 -1.12509 1.59147 0
M  V30 6034 H 593.895 -2.65185 1.64571 0
M  V30 6035 N 594.196 -1.08629 -1.14182 0
M  V30 6036 C 595.473 -0.73002 -1.81466 0
M  V30 6037 C 595.853 0.785996 -1.95922 0
M  V30 6038 O 595.201 1.70535 -1.52086 0
M  V30 6039 C 595.411 -1.45957 -3.17014 0
M  V30 6040 C 596.759 -1.62008 -3.92477 0
M  V30 6041 O 597.783 -1.42141 -3.26611 0
M  V30 6042 O 596.642 -1.94806 -5.106 0
M  V30 6043 H 593.736 -0.261307 -0.784632 0
M  V30 6044 H 596.282 -1.188 -1.2118 0
M  V30 6045 H 595.054 -2.49221 -3.01669 0
M  V30 6046 H 594.677 -0.993222 -3.84995 0
M  V30 6047 N 595.674 1.31259 -0.872281 0
M  V30 6048 C 596.604 2.30929 -0.345554 0
M  V30 6049 C 597.585 1.60449 0.5648 0
M  V30 6050 O 598.77 1.8814 0.481335 0
M  V30 6051 C 595.9 3.44348 0.451823 0
M  V30 6052 C 594.854 4.26435 -0.365641 0
M  V30 6053 C 594.18 5.31785 0.557562 0
M  V30 6054 C 595.48 4.97159 -1.60095 0
M  V30 6055 H 597.174 2.75234 -1.17841 0
M  V30 6056 H 594.72 1.3232 -0.568094 0
M  V30 6057 H 596.673 4.13128 0.830854 0
M  V30 6058 H 595.397 2.98816 1.31821 0
M  V30 6059 H 594.056 3.59326 -0.726649 0
M  V30 6060 H 593.704 4.82502 1.4213 0
M  V30 6061 H 593.404 5.87598 0.0144878 0
M  V30 6062 H 594.928 6.03424 0.933387 0
M  V30 6063 H 596.342 5.58523 -1.29323 0
M  V30 6064 H 594.739 5.62779 -2.08327 0
M  V30 6065 H 595.809 4.24012 -2.35249 0
M  V30 6066 N 597.152 0.631951 1.44375 0
M  V30 6067 C 598.398 0.13697 2.02337 0
M  V30 6068 C 598.731 -1.23826 1.49602 0
M  V30 6069 O 598.006 -1.8221 0.680415 0
M  V30 6070 C 598.289 0.124536 3.59885 0
M  V30 6071 C 598.142 1.53217 4.229 0
M  V30 6072 C 599.461 -0.550481 4.36644 0
M  V30 6073 H 596.58 0.051247 0.735216 0
M  V30 6074 H 599.222 0.808581 1.71936 0
M  V30 6075 H 597.372 -0.44737 3.85916 0
M  V30 6076 H 599.044 2.15303 4.07973 0
M  V30 6077 H 597.287 2.0858 3.80364 0
M  V30 6078 H 597.958 1.4755 5.31914 0
M  V30 6079 H 600.434 -0.0641154 4.16051 0
M  V30 6080 H 599.31 -0.528371 5.46351 0
M  V30 6081 H 599.571 -1.62097 4.11311 0
M  V30 6082 N 598.631 -1.53133 0.372548 0
M  V30 6083 C 599.856 -2.0625 -0.218098 0
M  V30 6084 C 600.281 -1.24375 -1.41111 0
M  V30 6085 O 599.639 -0.264554 -1.79359 0
M  V30 6086 C 599.687 -3.55858 -0.582876 0
M  V30 6087 O 598.791 -3.76667 -1.67917 0
M  V30 6088 H 598.132 -0.663317 -0.030104 0
M  V30 6089 H 600.662 -1.97477 0.535169 0
M  V30 6090 H 600.672 -3.99007 -0.851925 0
M  V30 6091 H 599.347 -4.14892 0.289428 0
M  V30 6092 H 597.924 -3.45413 -1.40513 0
M  V30 6093 N 600.109 -0.101901 -1.5727 0
M  V30 6094 C 601.358 0.559922 -1.93772 0
M  V30 6095 C 601.671 1.68913 -0.98629 0
M  V30 6096 O 602.877 2.41256 -1.24529 0
M  V30 6097 C 601.333 1.04739 -3.44322 0
M  V30 6098 C 600.941 -0.05243 -4.47969 0
M  V30 6099 C 602.685 1.68157 -3.89774 0
M  V30 6100 C 600.592 0.450781 -5.8968 0
M  V30 6101 H 599.522 0.212931 -0.723309 0
M  V30 6102 H 602.173 -0.179001 -1.82625 0
M  V30 6103 H 600.555 1.84021 -3.50645 0
M  V30 6104 H 601.729 -0.828157 -4.53297 0
M  V30 6105 H 600.044 -0.592202 -4.12167 0
M  V30 6106 H 602.641 2.0689 -4.93052 0
M  V30 6107 H 602.984 2.55338 -3.28798 0
M  V30 6108 H 603.517 0.954453 -3.8618 0
M  V30 6109 H 600.256 -0.38458 -6.54371 0
M  V30 6110 H 599.776 1.19336 -5.87809 0
M  V30 6111 H 601.455 0.917555 -6.40461 0
M  V30 6112 N 601.587 1.56661 0.17182 0
M  V30 6113 C 602.517 1.99401 1.21498 0
M  V30 6114 C 603.498 0.869516 1.46197 0
M  V30 6115 O 604.683 1.13556 1.57539 0
M  V30 6116 C 601.813 2.35346 2.55401 0
M  V30 6117 C 600.767 3.5075 2.45272 0
M  V30 6118 C 600.093 3.72437 3.8366 0
M  V30 6119 C 601.393 4.84216 1.95787 0
M  V30 6120 H 603.087 2.86792 0.859699 0
M  V30 6121 H 600.633 1.37977 0.412103 0
M  V30 6122 H 602.586 2.63843 3.2858 0
M  V30 6123 H 601.31 1.44864 2.92715 0
M  V30 6124 H 599.969 3.2238 1.74547 0
M  V30 6125 H 599.617 2.79246 4.18367 0
M  V30 6126 H 599.317 4.50087 3.77751 0
M  V30 6127 H 600.841 4.03334 4.58426 0
M  V30 6128 H 602.255 5.11592 2.5874 0
M  V30 6129 H 600.652 5.65498 2.00827 0
M  V30 6130 H 601.722 4.76243 0.912159 0
M  V30 6131 N 603.065 -0.440357 1.51323 0
M  V30 6132 C 604.012 -1.53429 1.72419 0
M  V30 6133 C 604.982 -1.56165 0.565826 0
M  V30 6134 O 606.167 -1.73222 0.799917 0
M  V30 6135 C 603.307 -2.91169 1.85242 0
M  V30 6136 C 602.42 -2.97985 3.12777 0
M  V30 6137 C 601.555 -4.26829 3.16212 0
M  V30 6138 C 600.594 -4.27501 4.38074 0
M  V30 6139 N 599.731 -5.47866 4.39076 0
M  V30 6140 H 604.571 -1.34743 2.65797 0
M  V30 6141 H 602.108 -0.654608 1.31732 0
M  V30 6142 H 604.066 -3.71087 1.90658 0
M  V30 6143 H 602.696 -3.0842 0.952744 0
M  V30 6144 H 601.748 -2.10749 3.16685 0
M  V30 6145 H 603.06 -2.94342 4.02696 0
M  V30 6146 H 602.214 -5.15118 3.20527 0
M  V30 6147 H 600.953 -4.33124 2.24176 0
M  V30 6148 H 599.958 -3.37606 4.33938 0
M  V30 6149 H 601.183 -4.22873 5.31371 0
M  V30 6150 H 599.129 -5.54887 3.49909 0
M  V30 6151 H 599.046 -5.46091 5.22801 0
M  V30 6152 H 600.314 -6.38195 4.4758 0
M  V30 6153 N 604.543 -1.41418 -0.695603 0
M  V30 6154 C 605.473 -1.46035 -1.82197 0
M  V30 6155 C 606.454 -0.319025 -1.67082 0
M  V30 6156 O 607.639 -0.530462 -1.86815 0
M  V30 6157 C 604.769 -1.34179 -3.20333 0
M  V30 6158 C 603.723 -2.46123 -3.50154 0
M  V30 6159 C 603.049 -2.19332 -4.87645 0
M  V30 6160 C 604.349 -3.88463 -3.49133 0
M  V30 6161 H 606.043 -2.40303 -1.78591 0
M  V30 6162 H 603.589 -1.15663 -0.857797 0
M  V30 6163 H 605.542 -1.36021 -3.98844 0
M  V30 6164 H 604.266 -0.363952 -3.24566 0
M  V30 6165 H 602.925 -2.43563 -2.73994 0
M  V30 6166 H 602.573 -1.19891 -4.88503 0
M  V30 6167 H 602.273 -2.94344 -5.08562 0
M  V30 6168 H 603.797 -2.22889 -5.68465 0
M  V30 6169 H 605.211 -3.92738 -4.17648 0
M  V30 6170 H 603.608 -4.63158 -3.81582 0
M  V30 6171 H 604.678 -4.16617 -2.48109 0
M  V30 6172 N 606.021 0.929856 -1.27246 0
M  V30 6173 C 607.432 1.49223 -1.12203 0
M  V30 6174 C 607.783 1.93989 0.293731 0
M  V30 6175 O 606.908 1.80978 1.18642 0
M  V30 6176 C 607.503 2.71198 -2.0307 0
M  V30 6177 C 606.062 3.23666 -1.92139 0
M  V30 6178 C 605.209 1.96409 -1.95752 0
M  V30 6179 H 608.16 0.744181 -1.4017 0
M  V30 6180 H 608.181 3.45905 -1.58524 0
M  V30 6181 H 607.693 2.38585 -3.06102 0
M  V30 6182 H 605.794 3.61042 -0.920834 0
M  V30 6183 H 605.907 3.90006 -2.78267 0
M  V30 6184 H 604.271 2.12806 -1.39949 0
M  V30 6185 H 605.054 1.66113 -3.00436 0
M  V30 6186 N 607.499 1.09233 1.13605 0
M  V30 6187 C 608.431 0.687794 2.18637 0
M  V30 6188 C 609.444 -0.26936 1.60556 0
M  V30 6189 O 610.633 -0.0557162 1.78413 0
M  V30 6190 C 607.733 -0.00751901 3.38899 0
M  V30 6191 C 606.906 0.97067 4.26494 0
M  V30 6192 C 605.965 0.309129 5.25291 0
M  V30 6193 O 604.991 0.956149 5.61112 0
M  V30 6194 N 606.193 -0.937555 5.72879 0
M  V30 6195 H 608.958 1.59141 2.53957 0
M  V30 6196 H 606.519 0.979515 1.28907 0
M  V30 6197 H 608.511 -0.461238 4.02063 0
M  V30 6198 H 607.081 -0.813353 3.01833 0
M  V30 6199 H 606.301 1.603 3.60135 0
M  V30 6200 H 607.589 1.63323 4.81875 0
M  V30 6201 H 606.987 -1.48281 5.4592 0
M  V30 6202 H 605.544 -1.33463 6.3799 0
M  V30 6203 N 608.977 -1.30795 0.87923 0
M  V30 6204 C 610.223 -1.97035 0.50487 0
M  V30 6205 C 610.578 -1.68182 -0.934484 0
M  V30 6206 O 609.871 -0.972953 -1.65058 0
M  V30 6207 C 610.065 -3.50287 0.709476 0
M  V30 6208 C 609.894 -3.94035 2.16717 0
M  V30 6209 C 608.664 -4.1992 2.81061 0
M  V30 6210 C 610.862 -4.07288 3.1404 0
M  V30 6211 N 608.844 -4.50088 4.17486 0
M  V30 6212 C 610.215 -4.41273 4.35521 0
M  V30 6213 C 612.27 -3.89696 3.09906 0
M  V30 6214 C 610.973 -4.59501 5.534 0
M  V30 6215 C 612.999 -4.09122 4.27052 0
M  V30 6216 C 612.361 -4.43447 5.47297 0
M  V30 6217 H 608.46 -0.746181 0.233962 0
M  V30 6218 H 611.044 -1.5814 1.13577 0
M  V30 6219 H 609.215 -3.8825 0.108108 0
M  V30 6220 H 610.947 -4.03567 0.302585 0
M  V30 6221 H 607.702 -4.12906 2.3196 0
M  V30 6222 H 608.126 -4.69316 4.87926 0
M  V30 6223 H 612.768 -3.62239 2.18043 0
M  V30 6224 H 610.486 -4.85802 6.45773 0
M  V30 6225 H 614.072 -3.96985 4.25316 0
M  V30 6226 H 612.952 -4.58171 6.36435 0
M  V30 6227 N 610.455 -0.639598 -1.44038 0
M  V30 6228 C 611.385 0.0469443 -2.33453 0
M  V30 6229 C 612.366 0.82609 -1.48694 0
M  V30 6230 O 613.551 0.790285 -1.77393 0
M  V30 6231 C 610.681 1.02338 -3.3188 0
M  V30 6232 C 609.635 0.355284 -4.26523 0
M  V30 6233 C 608.961 1.44221 -5.14883 0
M  V30 6234 C 610.261 -0.743798 -5.16977 0
M  V30 6235 H 611.955 -0.699735 -2.91108 0
M  V30 6236 H 609.501 -0.337946 -1.39978 0
M  V30 6237 H 611.454 1.51247 -3.93322 0
M  V30 6238 H 610.178 1.80105 -2.72451 0
M  V30 6239 H 608.837 -0.113239 -3.66425 0
M  V30 6240 H 608.485 2.21097 -4.51802 0
M  V30 6241 H 608.185 1.00052 -5.79019 0
M  V30 6242 H 609.709 1.93295 -5.79197 0
M  V30 6243 H 611.123 -0.337444 -5.72306 0
M  V30 6244 H 609.52 -1.10914 -5.89761 0
M  V30 6245 H 610.59 -1.60745 -4.57481 0
M  V30 6246 N 611.933 1.52934 -0.380664 0
M  V30 6247 C 612.88 2.26197 0.458641 0
M  V30 6248 C 613.85 1.27462 1.06502 0
M  V30 6249 O 615.035 1.56274 1.09467 0
M  V30 6250 C 612.175 3.06571 1.58456 0
M  V30 6251 C 611.288 4.20222 1.00189 0
M  V30 6252 C 610.423 4.88007 2.09815 0
M  V30 6253 C 609.462 5.93665 1.49092 0
M  V30 6254 N 608.599 6.55081 2.52613 0
M  V30 6255 H 613.439 2.975 -0.172595 0
M  V30 6256 H 610.976 1.4678 -0.0969426 0
M  V30 6257 H 612.934 3.51455 2.24801 0
M  V30 6258 H 611.564 2.37494 2.18624 0
M  V30 6259 H 610.616 3.79714 0.228292 0
M  V30 6260 H 611.928 4.96102 0.518064 0
M  V30 6261 H 611.082 5.36151 2.83948 0
M  V30 6262 H 609.821 4.11632 2.61555 0
M  V30 6263 H 608.826 5.44868 0.7348 0
M  V30 6264 H 610.051 6.71969 0.981582 0
M  V30 6265 H 607.997 5.8155 3.03538 0
M  V30 6266 H 607.914 7.26548 2.08961 0
M  V30 6267 H 609.182 7.07871 3.26402 0
M  V30 6268 N 613.412 0.11024 1.57214 0
M  V30 6269 C 614.66 -0.548783 1.94506 0
M  V30 6270 C 614.981 -1.67772 0.99386 0
M  V30 6271 O 614.251 -1.9584 0.0485841 0
M  V30 6272 H 612.831 -0.205715 0.718116 0
M  V30 6273 H 615.493 0.177127 1.94093 0
M  V30 6274 H 614.589 -0.949096 2.97319 0
M  V30 6275 N 614.89 -1.56749 -0.16351 0
M  V30 6276 C 615.82 -2.00042 -1.20438 0
M  V30 6277 C 616.801 -0.877256 -1.45733 0
M  V30 6278 O 617.986 -1.1439 -1.56935 0
M  V30 6279 C 615.116 -2.36697 -2.54149 0
M  V30 6280 C 614.07 -3.52046 -2.43408 0
M  V30 6281 C 613.396 -3.74466 -3.81679 0
M  V30 6282 C 614.696 -4.85247 -1.93216 0
M  V30 6283 H 616.39 -2.87244 -0.844477 0
M  V30 6284 H 613.936 -1.38194 -0.40478 0
M  V30 6285 H 615.889 -2.65582 -3.27176 0
M  V30 6286 H 614.613 -1.46414 -2.91943 0
M  V30 6287 H 613.272 -3.23301 -1.72834 0
M  V30 6288 H 612.92 -2.81461 -4.1688 0
M  V30 6289 H 612.62 -4.52084 -3.75359 0
M  V30 6290 H 614.144 -4.0576 -4.5628 0
M  V30 6291 H 615.558 -5.12957 -2.56023 0
M  V30 6292 H 613.955 -5.66556 -1.97825 0
M  V30 6293 H 615.025 -4.7672 -0.88689 0
M  V30 6294 N 616.368 0.432326 -1.51554 0
M  V30 6295 C 617.298 1.53242 -1.76179 0
M  V30 6296 C 618.279 1.58717 -0.611801 0
M  V30 6297 O 619.464 1.74364 -0.855033 0
M  V30 6298 C 616.594 2.91278 -1.89141 0
M  V30 6299 C 615.548 3.00663 -3.04608 0
M  V30 6300 C 614.874 4.40728 -3.02759 0
M  V30 6301 C 616.174 2.74281 -4.44485 0
M  V30 6302 H 617.868 1.32886 -2.68294 0
M  V30 6303 H 615.414 0.637841 -1.29103 0
M  V30 6304 H 617.367 3.68203 -2.04951 0
M  V30 6305 H 616.091 3.12877 -0.936785 0
M  V30 6306 H 614.75 2.26179 -2.88511 0
M  V30 6307 H 614.398 4.59301 -2.05065 0
M  V30 6308 H 614.098 4.47936 -3.80299 0
M  V30 6309 H 615.622 5.19619 -3.20669 0
M  V30 6310 H 617.036 3.40936 -4.60907 0
M  V30 6311 H 615.433 2.92893 -5.23769 0
M  V30 6312 H 616.503 1.69856 -4.54177 0
M  V30 6313 N 617.846 1.41785 0.688094 0
M  V30 6314 C 618.809 1.43936 1.78368 0
M  V30 6315 C 619.809 0.328866 1.57401 0
M  V30 6316 O 620.999 0.589093 1.63937 0
M  V30 6317 C 618.131 1.25804 3.16838 0
M  V30 6318 H 619.324 2.41472 1.77852 0
M  V30 6319 H 616.877 1.28037 0.896448 0
M  V30 6320 H 617.612 0.291386 3.22988 0
M  V30 6321 H 617.397 2.06272 3.33458 0
M  V30 6322 H 618.887 1.30162 3.96797 0
M  V30 6323 N 619.324 -0.923095 1.27737 0
M  V30 6324 C 620.571 -1.67127 1.14345 0
M  V30 6325 C 620.899 -1.92017 -0.30982 0
M  V30 6326 O 620.154 -1.51185 -1.24264 0
M  V30 6327 C 620.453 -3.04125 1.8773 0
M  V30 6328 C 620.119 -2.98929 3.37568 0
M  V30 6329 C 618.781 -2.9722 3.78436 0
M  V30 6330 C 621.133 -2.89875 4.33154 0
M  V30 6331 C 618.461 -2.84244 5.13247 0
M  V30 6332 C 620.813 -2.7844 5.68026 0
M  V30 6333 C 619.477 -2.75083 6.08182 0
M  V30 6334 H 618.747 -0.611562 0.418417 0
M  V30 6335 H 621.394 -1.07618 1.584 0
M  V30 6336 H 619.699 -3.67366 1.36196 0
M  V30 6337 H 621.396 -3.609 1.74792 0
M  V30 6338 H 617.986 -3.0105 3.05069 0
M  V30 6339 H 622.17 -2.9029 4.02548 0
M  V30 6340 H 617.426 -2.80034 5.43499 0
M  V30 6341 H 621.6 -2.70401 6.4176 0
M  V30 6342 H 619.227 -2.64786 7.12596 0
M  V30 6343 N 620.802 -1.09834 -1.13024 0
M  V30 6344 C 621.732 -0.763451 -2.20666 0
M  V30 6345 C 622.713 0.260778 -1.68089 0
M  V30 6346 O 623.898 0.127915 -1.93778 0
M  V30 6347 C 621.028 -0.187744 -3.46792 0
M  V30 6348 C 619.982 -1.14196 -4.12484 0
M  V30 6349 C 619.308 -0.427755 -5.32986 0
M  V30 6350 C 620.608 -2.48607 -4.59338 0
M  V30 6351 H 622.302 -1.66347 -2.48936 0
M  V30 6352 H 619.848 -0.801261 -1.19649 0
M  V30 6353 H 621.801 0.0586375 -4.21359 0
M  V30 6354 H 620.525 0.747485 -3.17931 0
M  V30 6355 H 619.184 -1.37369 -3.3989 0
M  V30 6356 H 618.832 0.511747 -5.0039 0
M  V30 6357 H 618.532 -1.06403 -5.77886 0
M  V30 6358 H 620.056 -0.189772 -6.10305 0
M  V30 6359 H 621.47 -2.29618 -5.25308 0
M  V30 6360 H 619.867 -3.08062 -5.14993 0
M  V30 6361 H 620.937 -3.09062 -3.73642 0
M  V30 6362 N 622.28 1.30327 -0.886154 0
M  V30 6363 C 623.526 1.96388 -0.505941 0
M  V30 6364 C 623.859 1.69784 0.942712 0
M  V30 6365 O 623.134 1.00322 1.6663 0
M  V30 6366 C 623.417 3.51488 -0.782826 0
M  V30 6367 C 623.27 3.87603 -2.28219 0
M  V30 6368 C 624.589 4.39331 -0.260128 0
M  V30 6369 H 621.708 0.713327 -0.185292 0
M  V30 6370 H 624.35 1.54178 -1.11036 0
M  V30 6371 H 622.5 3.87572 -0.268399 0
M  V30 6372 H 624.172 3.61537 -2.86512 0
M  V30 6373 H 622.415 3.3563 -2.74837 0
M  V30 6374 H 623.086 4.95806 -2.42653 0
M  V30 6375 H 625.562 4.10162 -0.700444 0
M  V30 6376 H 624.438 5.46769 -0.483179 0
M  V30 6377 H 624.699 4.34072 0.838674 0
M  V30 6378 N 623.758 0.647228 1.43697 0
M  V30 6379 C 624.705 -0.0480092 2.3075 0
M  V30 6380 C 625.675 -0.820705 1.44408 0
M  V30 6381 O 626.86 -0.798515 1.73287 0
M  V30 6382 C 624 -1.01259 3.2991 0
M  V30 6383 C 623.113 -0.236629 4.31351 0
M  V30 6384 C 622.248 -1.19447 5.17596 0
M  V30 6385 C 621.287 -0.408595 6.10735 0
M  V30 6386 N 620.424 -1.31772 6.89623 0
M  V30 6387 H 625.264 0.700238 2.89656 0
M  V30 6388 H 622.801 0.357082 1.427 0
M  V30 6389 H 624.759 -1.58538 3.85903 0
M  V30 6390 H 623.389 -1.72778 2.72667 0
M  V30 6391 H 622.441 0.452353 3.77701 0
M  V30 6392 H 623.753 0.374731 4.9739 0
M  V30 6393 H 622.907 -1.83809 5.78186 0
M  V30 6394 H 621.646 -1.83975 4.51669 0
M  V30 6395 H 620.651 0.24841 5.49239 0
M  V30 6396 H 621.876 0.232188 6.78703 0
M  V30 6397 H 619.822 -1.94991 6.2635 0
M  V30 6398 H 619.739 -0.760779 7.52162 0
M  V30 6399 H 621.007 -1.94967 7.54724 0
M  V30 6400 N 625.236 -1.5273 0.388769 0
M  V30 6401 C 626.647 -1.86505 -0.0853788 0
M  V30 6402 C 626.998 -1.30847 -1.46197 0
M  V30 6403 O 626.123 -0.639609 -2.06732 0
M  V30 6404 C 626.718 -3.38414 -0.161703 0
M  V30 6405 C 625.277 -3.71902 -0.580144 0
M  V30 6406 C 624.424 -2.76095 0.258218 0
M  V30 6407 H 627.375 -1.46647 0.606665 0
M  V30 6408 H 627.396 -3.67638 -0.980936 0
M  V30 6409 H 626.908 -3.78893 0.840333 0
M  V30 6410 H 625.009 -3.36992 -1.58957 0
M  V30 6411 H 625.122 -4.77902 -0.338663 0
M  V30 6412 H 623.486 -2.53195 -0.276432 0
M  V30 6413 H 624.269 -3.19411 1.25822 0
M  V30 6414 N 626.714 -0.118576 -1.57153 0
M  V30 6415 C 627.644 0.828436 -2.1831 0
M  V30 6416 C 628.625 1.27758 -1.12303 0
M  V30 6417 O 629.81 1.34026 -1.40537 0
M  V30 6418 C 626.94 2.07876 -2.78217 0
M  V30 6419 C 625.894 1.76742 -3.89803 0
M  V30 6420 C 625.22 3.08801 -4.36516 0
M  V30 6421 C 626.52 1.03606 -5.11921 0
M  V30 6422 H 628.214 0.318824 -2.97698 0
M  V30 6423 H 625.76 0.151911 -1.43196 0
M  V30 6424 H 627.713 2.74584 -3.19659 0
M  V30 6425 H 626.437 2.61161 -1.96118 0
M  V30 6426 H 625.096 1.12424 -3.48936 0
M  V30 6427 H 624.744 3.6002 -3.51276 0
M  V30 6428 H 624.444 2.88743 -5.11763 0
M  V30 6429 H 625.968 3.76627 -4.80608 0
M  V30 6430 H 627.382 1.60467 -5.50385 0
M  V30 6431 H 625.779 0.936454 -5.92748 0
M  V30 6432 H 626.849 0.0227421 -4.84895 0
M  V30 6433 N 628.193 1.56834 0.155195 0
M  V30 6434 C 629.123 2.00678 1.19376 0
M  V30 6435 C 630.104 0.884973 1.45266 0
M  V30 6436 O 631.289 1.1522 1.56326 0
M  V30 6437 C 628.419 2.38042 2.5289 0
M  V30 6438 C 627.373 3.53332 2.41538 0
M  V30 6439 C 626.699 3.76485 3.79688 0
M  V30 6440 C 627.999 4.86265 1.9064 0
M  V30 6441 H 629.693 2.87688 0.829232 0
M  V30 6442 H 627.239 1.38407 0.397445 0
M  V30 6443 H 629.192 2.67314 3.25763 0
M  V30 6444 H 627.916 1.4796 2.91162 0
M  V30 6445 H 626.575 3.24213 1.71117 0
M  V30 6446 H 626.223 2.83667 4.15382 0
M  V30 6447 H 625.923 4.54068 3.72956 0
M  V30 6448 H 627.447 4.08174 4.54122 0
M  V30 6449 H 628.861 5.14308 2.53299 0
M  V30 6450 H 627.258 5.67597 1.94818 0
M  V30 6451 H 628.328 4.77184 0.861596 0
M  V30 6452 N 629.671 -0.424282 1.51781 0
M  V30 6453 C 631.082 -1.00368 1.57427 0
M  V30 6454 C 631.433 -1.91962 0.40558 0
M  V30 6455 O 630.558 -2.111 -0.47601 0
M  V30 6456 C 631.153 -1.82707 2.85313 0
M  V30 6457 C 629.712 -2.35675 2.93487 0
M  V30 6458 C 628.859 -1.1524 2.5222 0
M  V30 6459 H 631.81 -0.205064 1.5737 0
M  V30 6460 H 631.831 -2.68294 2.69812 0
M  V30 6461 H 631.343 -1.16017 3.70353 0
M  V30 6462 H 629.444 -3.05781 2.12906 0
M  V30 6463 H 629.557 -2.67578 3.97415 0
M  V30 6464 H 627.921 -1.50174 2.05718 0
M  V30 6465 H 628.704 -0.5014 3.39619 0
M  V30 6466 N 631.149 -1.42148 -0.680565 0
M  V30 6467 C 632.565 -1.24947 -0.992995 0
M  V30 6468 C 632.765 -0.149527 -2.00944 0
M  V30 6469 O 631.821 0.481145 -2.47873 0
M  V30 6470 C 633.134 -2.60426 -1.5033 0
M  V30 6471 C 634.682 -2.67733 -1.62137 0
M  V30 6472 C 635.157 -4.03564 -2.16565 0
M  V30 6473 N 636.648 -4.05488 -2.23905 0
M  V30 6474 C 637.383 -5.07401 -2.67081 0
M  V30 6475 N 636.879 -6.19698 -3.09751 0
M  V30 6476 N 638.672 -4.94758 -2.66778 0
M  V30 6477 H 630.823 -2.12399 -0.0074788 0
M  V30 6478 H 633.086 -0.94571 -0.0658529 0
M  V30 6479 H 632.792 -3.41743 -0.830947 0
M  V30 6480 H 632.666 -2.83949 -2.483 0
M  V30 6481 H 635.053 -1.86765 -2.2848 0
M  V30 6482 H 635.134 -2.48004 -0.626713 0
M  V30 6483 H 634.778 -4.84987 -1.50833 0
M  V30 6484 H 634.708 -4.20641 -3.1681 0
M  V30 6485 H 637.199 -3.24415 -1.93812 0
M  V30 6486 H 637.512 -6.93318 -3.41365 0
M  V30 6487 H 635.857 -6.23212 -3.07623 0
M  V30 6488 H 639.048 -4.06105 -2.32801 0
M  V30 6489 H 639.221 -5.74317 -3.00107 0
M  V30 6490 N 632.627 0.916307 -1.28225 0
M  V30 6491 C 633.557 2.0352 -1.14464 0
M  V30 6492 C 634.538 1.70045 -0.0430844 0
M  V30 6493 O 635.723 1.92954 -0.219619 0
M  V30 6494 C 632.853 3.37889 -0.803027 0
M  V30 6495 C 631.807 3.85516 -1.85908 0
M  V30 6496 C 631.133 5.1682 -1.37116 0
M  V30 6497 C 632.433 4.07655 -3.26519 0
M  V30 6498 H 634.127 2.1529 -2.08064 0
M  V30 6499 H 631.673 1.03446 -1.00174 0
M  V30 6500 H 633.626 4.15654 -0.693537 0
M  V30 6501 H 632.35 3.26164 0.168674 0
M  V30 6502 H 631.009 3.09953 -1.95767 0
M  V30 6503 H 630.657 5.01497 -0.38859 0
M  V30 6504 H 630.357 5.49657 -2.07728 0
M  V30 6505 H 631.881 5.97143 -1.27484 0
M  V30 6506 H 633.295 4.75953 -3.19596 0
M  V30 6507 H 631.692 4.51818 -3.94943 0
M  V30 6508 H 632.762 3.12553 -3.70727 0
M  V30 6509 N 634.105 1.10431 1.1244 0
M  V30 6510 C 635.33 0.869089 1.88313 0
M  V30 6511 C 635.755 -0.574912 1.79099 0
M  V30 6512 O 635.113 -1.40496 1.14589 0
M  V30 6513 C 635.161 1.32208 3.3549 0
M  V30 6514 O 634.265 0.487092 4.09513 0
M  V30 6515 H 633.606 0.313894 0.585121 0
M  V30 6516 H 636.136 1.47111 1.42195 0
M  V30 6517 H 636.146 1.31201 3.86329 0
M  V30 6518 H 634.821 2.37364 3.41513 0
M  V30 6519 H 633.398 0.562372 3.68635 0
M  V30 6520 N 635.583 -1.29855 0.893053 0
M  V30 6521 C 636.546 -2.26183 0.370687 0
M  V30 6522 C 637.546 -1.53108 -0.491385 0
M  V30 6523 O 638.736 -1.71643 -0.297386 0
M  V30 6524 C 635.868 -3.37633 -0.470827 0
M  V30 6525 H 637.061 -2.73903 1.22135 0
M  V30 6526 H 634.614 -1.41183 0.67061 0
M  V30 6527 H 635.349 -2.95241 -1.34175 0
M  V30 6528 H 635.134 -3.91825 0.146784 0
M  V30 6529 H 636.624 -4.09313 -0.827825 0
M  V30 6530 N 637.061 -0.65484 -1.43351 0
M  V30 6531 C 638.308 -0.168892 -2.01794 0
M  V30 6532 C 638.636 1.2177 -1.51665 0
M  V30 6533 O 637.891 1.82717 -0.70092 0
M  V30 6534 C 638.19 -0.130424 -3.57162 0
M  V30 6535 C 637.856 -1.45898 -4.26643 0
M  V30 6536 C 636.518 -1.82279 -4.4534 0
M  V30 6537 C 638.87 -2.33485 -4.65976 0
M  V30 6538 C 636.198 -3.0591 -5.00635 0
M  V30 6539 C 638.55 -3.5641 -5.22642 0
M  V30 6540 C 637.214 -3.92985 -5.39555 0
M  V30 6541 H 636.484 -0.061802 -0.738418 0
M  V30 6542 H 639.131 -0.845869 -1.71806 0
M  V30 6543 H 637.436 0.630008 -3.86702 0
M  V30 6544 H 639.133 0.262465 -4.0014 0
M  V30 6545 H 635.723 -1.16591 -4.12437 0
M  V30 6546 H 639.907 -2.06668 -4.51223 0
M  V30 6547 H 635.163 -3.34295 -5.11915 0
M  V30 6548 H 639.337 -4.24495 -5.52066 0
M  V30 6549 H 636.964 -4.88862 -5.82167 0
M  V30 6550 N 638.539 1.52521 -0.396863 0
M  V30 6551 C 639.469 2.29582 0.425941 0
M  V30 6552 C 640.45 1.33281 1.05689 0
M  V30 6553 O 641.635 1.62181 1.06823 0
M  V30 6554 C 638.765 3.10821 1.54943 0
M  V30 6555 C 637.719 4.15069 1.04413 0
M  V30 6556 C 637.045 4.84578 2.26028 0
M  V30 6557 C 638.345 5.22191 0.106767 0
M  V30 6558 H 640.039 2.98612 -0.217045 0
M  V30 6559 H 637.585 1.43611 -0.105826 0
M  V30 6560 H 639.538 3.63492 2.13193 0
M  V30 6561 H 638.262 2.39538 2.22011 0
M  V30 6562 H 636.921 3.63389 0.484118 0
M  V30 6563 H 636.569 4.09835 2.91623 0
M  V30 6564 H 636.269 5.55043 1.92876 0
M  V30 6565 H 637.793 5.40056 2.84906 0
M  V30 6566 H 639.207 5.70176 0.597685 0
M  V30 6567 H 637.604 5.99947 -0.135352 0
M  V30 6568 H 638.674 4.77531 -0.842134 0
M  V30 6569 N 640.017 0.126909 1.57088 0
M  V30 6570 C 641.242 -0.53997 2.00248 0
M  V30 6571 C 641.667 -1.58927 1.00618 0
M  V30 6572 O 641.025 -1.81288 -0.0210131 0
M  V30 6573 C 641.073 -1.13565 3.4225 0
M  V30 6574 O 640.177 -2.25103 3.45547 0
M  V30 6575 H 639.518 -0.13412 0.650314 0
M  V30 6576 H 642.048 0.217718 2.03438 0
M  V30 6577 H 642.058 -1.46925 3.80627 0
M  V30 6578 H 640.733 -0.367122 4.14277 0
M  V30 6579 H 639.31 -1.93123 3.18995 0
M  V30 6580 N 641.495 -1.56914 -0.146875 0
M  V30 6581 C 642.443 -1.99224 -1.20053 0
M  V30 6582 C 643.437 -0.884661 -1.44465 0
M  V30 6583 O 644.643 -1.06984 -1.44756 0
M  V30 6584 H 641.018 -0.634191 -0.404112 0
M  V30 6585 H 642.989 -2.86998 -0.816987 0
M  V30 6586 C 641.738 -2.38899 -2.52632 0
M  V30 6587 H 641.061 -3.23677 -2.34677 0
M  V30 6588 H 642.501 -2.72326 -3.24984 0
M  V30 6589 C 640.96 -1.2417 -3.13183 0
M  V30 6590 O 641.49 -0.542503 -3.9802 0
M  V30 6591 N 639.696 -1.00592 -2.72635 0
M  V30 6592 H 639.243 -1.57627 -2.03744 0
M  V30 6593 H 639.201 -0.240174 -3.13481 0
M  V30 6594 N 642.974 0.416227 -1.52004 0
M  V30 6595 C 643.907 1.52736 -1.6955 0
M  V30 6596 C 644.885 1.53264 -0.54305 0
M  V30 6597 O 646.069 1.72077 -0.769527 0
M  V30 6598 C 643.196 2.91283 -1.72835 0
M  V30 6599 C 642.242 3.08695 -2.94295 0
M  V30 6600 S 643.075 2.82758 -4.54762 0
M  V30 6601 C 644.231 4.23548 -4.60823 0
M  V30 6602 H 644.464 1.37623 -2.63528 0
M  V30 6603 H 641.997 0.607335 -1.41954 0
M  V30 6604 H 643.955 3.71134 -1.75413 0
M  V30 6605 H 642.616 3.03742 -0.799966 0
M  V30 6606 H 641.809 4.10042 -2.93056 0
M  V30 6607 H 641.411 2.36699 -2.89568 0
M  V30 6608 H 643.703 5.17078 -4.37763 0
M  V30 6609 H 644.646 4.29813 -5.62731 0
M  V30 6610 H 645.054 4.08188 -3.89927 0
M  V30 6611 N 644.452 1.42507 0.673017 0
M  V30 6612 C 645.399 1.46124 1.78651 0
M  V30 6613 C 646.369 0.313007 1.63124 0
M  V30 6614 O 647.554 0.517337 1.83653 0
M  V30 6615 C 644.694 1.3711 3.16694 0
M  V30 6616 C 643.807 2.61983 3.43495 0
M  V30 6617 C 642.942 2.45098 4.71275 0
M  V30 6618 C 641.981 3.65336 4.91117 0
M  V30 6619 N 641.118 3.47383 6.10139 0
M  V30 6620 H 645.958 2.4128 1.74895 0
M  V30 6621 H 643.495 1.19788 0.853766 0
M  V30 6622 H 645.453 1.29881 3.96468 0
M  V30 6623 H 644.083 0.45549 3.1957 0
M  V30 6624 H 643.135 2.79571 2.57961 0
M  V30 6625 H 644.447 3.51355 3.5405 0
M  V30 6626 H 643.601 2.35466 5.59143 0
M  V30 6627 H 642.34 1.53219 4.63007 0
M  V30 6628 H 641.345 3.754 4.0169 0
M  V30 6629 H 642.57 4.58199 5.01229 0
M  V30 6630 H 640.516 2.58222 6.0304 0
M  V30 6631 H 640.433 4.30344 6.21563 0
M  V30 6632 H 641.701 3.41565 7.00681 0
M  V30 6633 N 645.93 -0.909495 1.28709 0
M  V30 6634 C 647.155 -1.69801 1.1909 0
M  V30 6635 C 647.58 -1.86479 -0.246388 0
M  V30 6636 O 646.938 -1.37802 -1.17815 0
M  V30 6637 C 646.986 -3.06543 1.89904 0
M  V30 6638 O 646.09 -3.94268 1.2094 0
M  V30 6639 H 645.431 -0.519783 0.413185 0
M  V30 6640 H 647.961 -1.13689 1.70106 0
M  V30 6641 H 647.971 -3.56748 1.97977 0
M  V30 6642 H 646.646 -2.93722 2.94449 0
M  V30 6643 H 645.223 -3.52702 1.2106 0
M  V30 6644 N 647.408 -1.11026 -1.11852 0
M  V30 6645 C 648.824 -0.843294 -1.35502 0
M  V30 6646 C 649.024 0.534179 -1.9429 0
M  V30 6647 O 648.08 1.28585 -2.17307 0
M  V30 6648 C 649.393 -1.94793 -2.29077 0
M  V30 6649 C 650.941 -1.97709 -2.42652 0
M  V30 6650 C 651.416 -3.07364 -3.39546 0
M  V30 6651 N 652.907 -3.0671 -3.47107 0
M  V30 6652 C 653.642 -3.88197 -4.22008 0
M  V30 6653 N 653.138 -4.79635 -4.99922 0
M  V30 6654 N 654.931 -3.76391 -4.17476 0
M  V30 6655 H 647.082 -1.99805 -0.720538 0
M  V30 6656 H 649.345 -0.868633 -0.379711 0
M  V30 6657 H 649.051 -2.93971 -1.93065 0
M  V30 6658 H 648.925 -1.84039 -3.29256 0
M  V30 6659 H 651.312 -0.991604 -2.77941 0
M  V30 6660 H 651.393 -2.1254 -1.4234 0
M  V30 6661 H 651.037 -4.06136 -3.04985 0
M  V30 6662 H 650.967 -2.89774 -4.39703 0
M  V30 6663 H 653.458 -2.40457 -2.91528 0
M  V30 6664 H 653.771 -5.38357 -5.54429 0
M  V30 6665 H 652.116 -4.8366 -4.99097 0
M  V30 6666 H 655.307 -3.04303 -3.55693 0
M  V30 6667 H 655.48 -4.40131 -4.75593 0
M  V30 6668 N 648.886 1.2938 -0.899927 0
M  V30 6669 C 650.111 2.00228 -0.540692 0
M  V30 6670 C 650.536 1.66909 0.867359 0
M  V30 6671 O 649.894 0.893824 1.57735 0
M  V30 6672 C 649.942 3.52921 -0.740232 0
M  V30 6673 O 649.046 4.11879 0.207154 0
M  V30 6674 H 648.387 0.629505 -0.211233 0
M  V30 6675 H 650.917 1.6487 -1.21158 0
M  V30 6676 H 650.927 4.0287 -0.644973 0
M  V30 6677 H 649.602 3.76508 -1.76677 0
M  V30 6678 H 648.179 3.72845 0.0643315 0
M  V30 6679 N 650.364 0.662433 1.43002 0
M  V30 6680 C 651.327 -0.0142016 2.29196 0
M  V30 6681 C 652.327 -0.741394 1.42688 0
M  V30 6682 O 653.517 -0.581257 1.64216 0
M  V30 6683 C 650.649 -1.03084 3.24941 0
M  V30 6684 H 651.842 0.7443 2.90517 0
M  V30 6685 H 649.395 0.424133 1.50435 0
M  V30 6686 H 650.13 -1.81826 2.68533 0
M  V30 6687 H 649.915 -0.512946 3.8873 0
M  V30 6688 H 651.405 -1.50308 3.89612 0
M  V30 6689 N 651.842 -1.52309 0.404946 0
M  V30 6690 C 653.09 -2.01368 -0.17186 0
M  V30 6691 C 653.411 -1.29261 -1.46002 0
M  V30 6692 O 652.681 -0.41729 -1.91404 0
M  V30 6693 H 651.261 -0.744034 -0.0664993 0
M  V30 6694 H 653.923 -1.87263 0.540228 0
M  V30 6695 H 653.019 -3.09888 -0.370957 0
M  V30 6696 N 653.32 -0.135238 -1.57019 0
M  V30 6697 C 654.267 0.808908 -2.1616 0
M  V30 6698 C 655.237 1.25234 -1.09113 0
M  V30 6699 O 656.422 1.32697 -1.37099 0
M  V30 6700 C 653.562 2.04729 -2.77813 0
M  V30 6701 C 652.675 1.65074 -3.99218 0
M  V30 6702 C 651.81 2.84002 -4.48906 0
M  V30 6703 C 650.849 2.40663 -5.62803 0
M  V30 6704 N 649.986 3.5256 -6.07162 0
M  V30 6705 H 654.826 0.297751 -2.96509 0
M  V30 6706 H 652.363 0.135264 -1.46477 0
M  V30 6707 H 654.321 2.7731 -3.11697 0
M  V30 6708 H 652.951 2.53275 -2.00128 0
M  V30 6709 H 652.003 0.823029 -3.7139 0
M  V30 6710 H 653.315 1.29236 -4.81767 0
M  V30 6711 H 652.469 3.64788 -4.84783 0
M  V30 6712 H 651.208 3.23076 -3.65339 0
M  V30 6713 H 650.213 1.58314 -5.26514 0
M  V30 6714 H 651.438 2.02687 -6.48147 0
M  V30 6715 H 649.384 3.91278 -5.26534 0
M  V30 6716 H 649.301 3.20699 -6.84608 0
M  V30 6717 H 650.569 4.33738 -6.47682 0
M  V30 6718 N 654.798 1.5699 0.138552 0
M  V30 6719 C 655.728 2.01933 1.17241 0
M  V30 6720 C 656.709 0.90033 1.44319 0
M  V30 6721 O 657.894 1.16872 1.55095 0
M  V30 6722 C 655.024 2.40711 2.50351 0
M  V30 6723 C 653.978 3.55874 2.37776 0
M  V30 6724 C 653.304 3.80491 3.75674 0
M  V30 6725 C 654.604 4.8826 1.85472 0
M  V30 6726 H 656.298 2.88551 0.798672 0
M  V30 6727 H 653.844 1.3882 0.382743 0
M  V30 6728 H 655.797 2.70754 3.22909 0
M  V30 6729 H 654.521 1.5104 2.89576 0
M  V30 6730 H 653.18 3.2601 1.67669 0
M  V30 6731 H 652.828 2.88057 4.12349 0
M  V30 6732 H 652.528 4.57998 3.68119 0
M  V30 6733 H 654.052 4.12967 4.49767 0
M  V30 6734 H 655.466 5.16965 2.4783 0
M  V30 6735 H 653.863 5.69631 1.88787 0
M  V30 6736 H 654.933 4.78071 0.810935 0
M  V30 6737 N 656.276 -0.40816 1.52223 0
M  V30 6738 C 657.522 -1.15347 1.67531 0
M  V30 6739 C 657.877 -1.8818 0.400748 0
M  V30 6740 O 657.17 -1.81803 -0.604845 0
M  V30 6741 C 657.364 -2.17422 2.83659 0
M  V30 6742 C 657.193 -1.54611 4.22286 0
M  V30 6743 C 655.963 -1.31841 4.87797 0
M  V30 6744 C 658.161 -1.00648 5.04355 0
M  V30 6745 N 656.143 -0.649338 6.10456 0
M  V30 6746 C 657.514 -0.464384 6.18258 0
M  V30 6747 C 659.569 -0.901041 4.89679 0
M  V30 6748 C 658.272 0.172825 7.19092 0
M  V30 6749 C 660.298 -0.277684 5.90748 0
M  V30 6750 C 659.66 0.253734 7.03943 0
M  V30 6751 H 655.759 -0.408722 0.666686 0
M  V30 6752 H 658.343 -0.445713 1.8953 0
M  V30 6753 H 656.514 -2.85554 2.63274 0
M  V30 6754 H 658.246 -2.84321 2.87999 0
M  V30 6755 H 655.001 -1.58819 4.46176 0
M  V30 6756 H 655.425 -0.3314 6.76188 0
M  V30 6757 H 660.067 -1.29772 4.02392 0
M  V30 6758 H 657.785 0.581564 8.06005 0
M  V30 6759 H 661.371 -0.197605 5.81464 0
M  V30 6760 H 660.251 0.728482 7.80809 0
M  V30 6761 N 657.755 -1.42862 -0.66545 0
M  V30 6762 C 658.665 -1.49491 -1.80803 0
M  V30 6763 C 659.681 -0.382914 -1.69734 0
M  V30 6764 O 660.857 -0.635223 -1.9112 0
M  V30 6765 C 657.922 -1.40383 -3.17007 0
M  V30 6766 C 656.983 -2.62152 -3.39963 0
M  V30 6767 C 656.216 -2.53469 -4.69669 0
M  V30 6768 O 656.439 -1.57568 -5.48205 0
M  V30 6769 O 655.373 -3.43763 -4.94075 0
M  V30 6770 H 659.199 -2.45949 -1.78165 0
M  V30 6771 H 656.784 -1.24728 -0.822387 0
M  V30 6772 H 658.666 -1.377 -3.98267 0
M  V30 6773 H 657.341 -0.470546 -3.20262 0
M  V30 6774 H 656.248 -2.70409 -2.58515 0
M  V30 6775 H 657.581 -3.54411 -3.41546 0
M  V30 6776 N 659.233 0.902656 -1.29189 0
M  V30 6777 C 660.163 2.02294 -1.16616 0
M  V30 6778 C 661.144 1.6999 -0.0611175 0
M  V30 6779 O 662.329 1.9271 -0.240072 0
M  V30 6780 C 659.459 3.37018 -0.83882 0
M  V30 6781 C 658.413 3.83522 -1.89986 0
M  V30 6782 C 657.739 5.15337 -1.42589 0
M  V30 6783 C 659.039 4.04169 -3.30824 0
M  V30 6784 H 660.733 2.13071 -2.10336 0
M  V30 6785 H 658.279 1.02378 -1.01266 0
M  V30 6786 H 660.232 4.14895 -0.737584 0
M  V30 6787 H 658.956 3.26325 0.134071 0
M  V30 6788 H 657.615 3.07859 -1.99043 0
M  V30 6789 H 657.263 5.01056 -0.441759 0
M  V30 6790 H 656.963 5.47423 -2.13547 0
M  V30 6791 H 658.487 5.95758 -1.3381 0
M  V30 6792 H 659.901 4.72537 -3.24626 0
M  V30 6793 H 658.298 4.47604 -3.99713 0
M  V30 6794 H 659.368 3.08604 -3.74021 0
M  V30 6795 N 660.711 1.11618 1.11262 0
M  V30 6796 C 661.643 0.734015 2.17129 0
M  V30 6797 C 662.656 -0.235243 1.61091 0
M  V30 6798 O 663.845 -0.0178597 1.78491 0
M  V30 6799 C 660.945 0.0643682 3.38839 0
M  V30 6800 C 660.118 1.06092 4.24339 0
M  V30 6801 C 659.177 0.420482 5.24517 0
M  V30 6802 O 658.203 1.07495 5.58957 0
M  V30 6803 N 659.405 -0.815828 5.74739 0
M  V30 6804 H 662.17 1.64492 2.50524 0
M  V30 6805 H 659.731 1.00664 1.26801 0
M  V30 6806 H 661.723 -0.375851 4.02951 0
M  V30 6807 H 660.293 -0.749147 3.03491 0
M  V30 6808 H 659.513 1.67903 3.56654 0
M  V30 6809 H 660.801 1.73507 4.78302 0
M  V30 6810 H 660.199 -1.36668 5.48943 0
M  V30 6811 H 658.756 -1.199 6.40677 0
M  V30 6812 N 662.189 -1.289 0.906776 0
M  V30 6813 C 663.139 -2.25122 0.361109 0
M  V30 6814 C 664.123 -1.52169 -0.52283 0
M  V30 6815 O 665.315 -1.73223 -0.363691 0
M  V30 6816 C 662.444 -3.40915 -0.403982 0
M  V30 6817 C 661.53 -4.21198 0.495279 0
M  V30 6818 N 661.921 -4.79636 1.60572 0
M  V30 6819 C 660.219 -4.45027 0.294372 0
M  V30 6820 C 660.92 -5.39977 2.16332 0
M  V30 6821 N 659.896 -5.23753 1.45546 0
M  V30 6822 H 663.698 -2.67869 1.20927 0
M  V30 6823 H 661.212 -1.43592 0.758632 0
M  V30 6824 H 663.209 -4.08922 -0.811695 0
M  V30 6825 H 661.869 -2.99703 -1.24932 0
M  V30 6826 H 662.88 -4.78209 1.98838 0
M  V30 6827 H 659.557 -4.14348 -0.512021 0
M  V30 6828 H 660.947 -5.96266 3.09704 0
M  V30 6829 N 663.667 -0.670007 -1.42649 0
M  V30 6830 C 664.577 0.0114788 -2.34597 0
M  V30 6831 C 665.593 0.794055 -1.54825 0
M  V30 6832 O 666.769 0.737472 -1.87412 0
M  V30 6833 C 663.834 0.954436 -3.33304 0
M  V30 6834 C 662.895 0.166925 -4.28975 0
M  V30 6835 C 662.128 1.06497 -5.22967 0
M  V30 6836 O 662.351 2.30446 -5.21777 0
M  V30 6837 O 661.285 0.528347 -5.99577 0
M  V30 6838 H 665.111 -0.745794 -2.944 0
M  V30 6839 H 662.696 -0.430228 -1.43071 0
M  V30 6840 H 664.578 1.49589 -3.93956 0
M  V30 6841 H 663.253 1.69164 -2.7598 0
M  V30 6842 H 662.16 -0.418515 -3.71752 0
M  V30 6843 H 663.493 -0.531067 -4.89327 0
M  V30 6844 N 665.145 1.52092 -0.413018 0
M  V30 6845 C 666.394 2.01041 0.16287 0
M  V30 6846 C 666.707 1.30288 1.45892 0
M  V30 6847 O 667.913 1.70075 2.11629 0
M  V30 6848 C 666.369 3.58283 0.340806 0
M  V30 6849 C 665.977 4.37955 -0.943377 0
M  V30 6850 C 667.721 4.15452 0.871774 0
M  V30 6851 C 665.628 5.86847 -0.732417 0
M  V30 6852 H 664.558 0.751224 0.0646414 0
M  V30 6853 H 667.209 1.75404 -0.539059 0
M  V30 6854 H 665.591 3.80266 1.10516 0
M  V30 6855 H 666.765 4.2773 -1.71418 0
M  V30 6856 H 665.08 3.92122 -1.40105 0
M  V30 6857 H 667.677 5.24375 1.0457 0
M  V30 6858 H 668.02 3.73057 1.84755 0
M  V30 6859 H 668.553 3.97452 0.166377 0
M  V30 6860 H 665.292 6.33609 -1.67986 0
M  V30 6861 H 664.812 5.998 -0.000980058 0
M  V30 6862 H 666.491 6.45906 -0.376105 0
M  V30 6863 N 666.623 0.143563 1.56945 0
M  V30 6864 C 667.533 -0.810562 2.20152 0
M  V30 6865 C 668.549 -1.27431 1.1848 0
M  V30 6866 O 669.725 -1.33221 1.51044 0
M  V30 6867 C 666.79 -2.03353 2.80799 0
M  V30 6868 C 665.851 -1.61936 3.97587 0
M  V30 6869 C 665.084 -2.78403 4.55332 0
M  V30 6870 O 665.307 -3.94521 4.11958 0
M  V30 6871 O 664.241 -2.54073 5.45647 0
M  V30 6872 H 668.067 -0.30253 3.02189 0
M  V30 6873 H 665.652 -0.0832925 1.49168 0
M  V30 6874 H 667.534 -2.74932 3.19359 0
M  V30 6875 H 666.209 -2.53116 2.01777 0
M  V30 6876 H 665.116 -0.873904 3.6375 0
M  V30 6877 H 666.449 -1.16892 4.78118 0
M  V30 6878 N 668.101 -1.57061 -0.130224 0
M  V30 6879 C 669.347 -1.8453 -0.841216 0
M  V30 6880 C 669.68 -0.727666 -1.80052 0
M  V30 6881 O 668.955 0.267419 -1.92653 0
M  V30 6882 C 669.238 -3.22553 -1.60099 0
M  V30 6883 C 669.091 -4.44901 -0.662048 0
M  V30 6884 C 670.41 -3.58003 -2.55973 0
M  V30 6885 H 667.529 -0.671215 -0.304366 0
M  V30 6886 H 670.171 -1.89705 -0.105821 0
M  V30 6887 H 668.321 -3.18272 -2.22789 0
M  V30 6888 H 669.993 -4.61278 -0.0448559 0
M  V30 6889 H 668.236 -4.33791 0.0272253 0
M  V30 6890 H 668.907 -5.3812 -1.23006 0
M  V30 6891 H 671.383 -3.63002 -2.03393 0
M  V30 6892 H 670.259 -4.55576 -3.06172 0
M  V30 6893 H 670.52 -2.84833 -3.38116 0
M  V30 6894 N 669.579 0.400081 -1.52437 0
M  V30 6895 C 670.809 1.16598 -1.70553 0
M  V30 6896 C 671.217 1.8451 -0.418665 0
M  V30 6897 O 670.56 1.73069 0.615855 0
M  V30 6898 C 670.622 2.26517 -2.7916 0
M  V30 6899 C 670.286 1.78666 -4.20628 0
M  V30 6900 C 671.283 1.26946 -5.04163 0
M  V30 6901 C 668.968 1.85225 -4.66902 0
M  V30 6902 C 670.962 0.824187 -6.32049 0
M  V30 6903 C 668.649 1.40309 -5.94774 0
M  V30 6904 C 669.647 0.889922 -6.77178 0
M  V30 6905 O 669.335 0.447281 -8.02655 0
M  V30 6906 H 669.067 0.356023 -0.574651 0
M  V30 6907 H 671.621 0.475598 -1.99818 0
M  V30 6908 H 669.851 2.98946 -2.45292 0
M  V30 6909 H 671.54 2.88237 -2.85787 0
M  V30 6910 H 672.306 1.21244 -4.69601 0
M  V30 6911 H 668.185 2.24111 -4.02859 0
M  V30 6912 H 671.729 0.422958 -6.96317 0
M  V30 6913 H 667.626 1.45693 -6.28843 0
M  V30 6914 H 668.394 0.569768 -8.16514 0
M  V30 6915 N 671.057 1.43213 0.657864 0
M  V30 6916 C 672.473 1.26511 0.972992 0
M  V30 6917 C 672.673 0.181477 2.00681 0
M  V30 6918 O 671.729 -0.441649 2.48608 0
M  V30 6919 C 673.042 2.62784 1.46168 0
M  V30 6920 C 674.59 2.70278 1.57857 0
M  V30 6921 C 675.065 4.06958 2.10117 0
M  V30 6922 N 676.556 4.08999 2.17426 0
M  V30 6923 C 677.291 5.11585 2.58975 0
M  V30 6924 N 676.787 6.24548 2.99853 0
M  V30 6925 N 678.58 4.9894 2.58873 0
M  V30 6926 H 670.731 2.12384 -0.0263129 0
M  V30 6927 H 672.994 0.946638 0.0507992 0
M  V30 6928 H 672.7 3.43022 0.776474 0
M  V30 6929 H 672.574 2.87863 2.43751 0
M  V30 6930 H 674.961 1.90376 2.25479 0
M  V30 6931 H 675.042 2.4897 0.587179 0
M  V30 6932 H 674.686 4.87325 1.43098 0
M  V30 6933 H 674.616 4.25628 3.10078 0
M  V30 6934 H 677.107 3.27457 1.88627 0
M  V30 6935 H 677.42 6.98661 3.30292 0
M  V30 6936 H 675.765 6.28027 2.97669 0
M  V30 6937 H 678.956 4.09757 2.26311 0
M  V30 6938 H 679.129 5.79019 2.90932 0
M  V30 6939 N 672.536 -0.895792 1.29666 0
M  V30 6940 C 673.483 -2.00035 1.15129 0
M  V30 6941 C 674.453 -1.66043 0.0435819 0
M  V30 6942 O 675.638 -1.89621 0.211811 0
M  V30 6943 C 672.778 -3.34774 0.83787 0
M  V30 6944 C 671.891 -3.81525 2.0264 0
M  V30 6945 C 671.026 -5.04858 1.65201 0
M  V30 6946 C 670.065 -5.43988 2.80612 0
M  V30 6947 N 669.202 -6.58507 2.43544 0
M  V30 6948 H 674.042 -2.11802 2.09628 0
M  V30 6949 H 671.579 -1.03719 1.04311 0
M  V30 6950 H 673.537 -4.12311 0.636824 0
M  V30 6951 H 672.167 -3.22724 -0.0702314 0
M  V30 6952 H 671.219 -2.9999 2.33903 0
M  V30 6953 H 672.531 -4.06472 2.89106 0
M  V30 6954 H 671.685 -5.8999 1.41408 0
M  V30 6955 H 670.424 -4.81759 0.758893 0
M  V30 6956 H 669.429 -4.57388 3.05083 0
M  V30 6957 H 670.654 -5.69066 3.70595 0
M  V30 6958 H 668.6 -6.37004 1.56724 0
M  V30 6959 H 668.517 -6.83269 3.23542 0
M  V30 6960 H 669.785 -7.46897 2.2308 0
M  V30 6961 N 674.014 -1.12206 -1.10668 0
M  V30 6962 C 675.242 -0.898635 -1.86366 0
M  V30 6963 C 675.657 0.551991 -1.80551 0
M  V30 6964 O 675.014 1.38152 -1.19249 0
M  V30 6965 C 675.065 -1.36199 -3.34861 0
M  V30 6966 O 674.786 -2.75576 -3.40573 0
M  V30 6967 C 676.287 -1.17515 -4.2744 0
M  V30 6968 H 673.507 -0.321281 -0.589084 0
M  V30 6969 H 676.051 -1.49142 -1.39918 0
M  V30 6970 H 674.206 -0.81249 -3.78784 0
M  V30 6971 H 674.62 -2.95851 -4.33096 0
M  V30 6972 H 676.094 -1.54827 -5.29842 0
M  V30 6973 H 676.571 -0.115486 -4.39048 0
M  V30 6974 H 677.177 -1.71203 -3.89319 0
M  V30 6975 N 675.492 1.28418 -0.913599 0
M  V30 6976 C 676.738 1.9527 -0.547484 0
M  V30 6977 C 677.071 1.71745 0.906486 0
M  V30 6978 O 676.346 1.03834 1.64465 0
M  V30 6979 C 676.629 3.49748 -0.857205 0
M  V30 6980 C 676.482 3.82675 -2.3639 0
M  V30 6981 C 677.801 4.3868 -0.353258 0
M  V30 6982 H 674.92 0.709236 -0.200381 0
M  V30 6983 H 677.562 1.51789 -1.14281 0
M  V30 6984 H 675.712 3.86915 -0.350548 0
M  V30 6985 H 677.384 3.55378 -2.94116 0
M  V30 6986 H 675.627 3.29724 -2.81894 0
M  V30 6987 H 676.298 4.90547 -2.53115 0
M  V30 6988 H 678.774 4.08584 -0.787288 0
M  V30 6989 H 677.65 5.45621 -0.599049 0
M  V30 6990 H 677.911 4.35753 0.746413 0
M  V30 6991 N 676.97 0.677563 1.42291 0
M  V30 6992 C 678.219 0.198173 2.00724 0
M  V30 6993 C 678.532 -1.20325 1.54211 0
M  V30 6994 O 679.738 -1.77916 2.05081 0
M  V30 6995 C 678.194 0.303432 3.58619 0
M  V30 6996 C 677.802 1.70909 4.14119 0
M  V30 6997 C 679.546 -0.117103 4.24338 0
M  V30 6998 C 677.453 1.76696 5.64387 0
M  V30 6999 H 676.383 0.070329 0.750713 0
M  V30 7000 H 679.034 0.843147 1.62982 0
M  V30 7001 H 677.416 -0.409482 3.93877 0
M  V30 7002 H 678.59 2.44931 3.90315 0
M  V30 7003 H 676.905 2.07771 3.6086 0
M  V30 7004 H 679.502 -0.0940471 5.34617 0
M  V30 7005 H 679.845 -1.15283 4.00019 0
M  V30 7006 H 680.378 0.5449 3.9405 0
M  V30 7007 H 677.117 2.7826 5.93508 0
M  V30 7008 H 676.637 1.07034 5.90173 0
M  V30 7009 H 678.316 1.52166 6.28852 0
M  V30 7010 N 678.448 -1.51871 0.421078 0
M  V30 7011 C 679.411 -2.25914 -0.386712 0
M  V30 7012 C 680.411 -1.28733 -0.963555 0
M  V30 7013 O 681.601 -1.52579 -0.840556 0
M  V30 7014 C 678.733 -3.03853 -1.54551 0
M  V30 7015 H 679.926 -2.98754 0.261978 0
M  V30 7016 H 677.479 -1.5533 0.173862 0
M  V30 7017 H 678.214 -2.35392 -2.23072 0
M  V30 7018 H 677.999 -3.75215 -1.13824 0
M  V30 7019 H 679.489 -3.59984 -2.11663 0
M  V30 7020 N 679.926 -0.151884 -1.56866 0
M  V30 7021 C 680.858 0.817008 -2.14144 0
M  V30 7022 C 681.871 1.20735 -1.0921 0
M  V30 7023 O 683.06 1.15058 -1.36469 0
M  V30 7024 C 680.16 2.10844 -2.65326 0
M  V30 7025 C 679.333 1.88471 -3.94712 0
M  V30 7026 C 678.392 3.01649 -4.31155 0
M  V30 7027 O 677.418 2.73127 -4.9939 0
M  V30 7028 N 678.62 4.28947 -3.91132 0
M  V30 7029 H 681.385 0.327448 -2.97906 0
M  V30 7030 H 678.946 0.0315313 -1.61869 0
M  V30 7031 H 680.938 2.85616 -2.86715 0
M  V30 7032 H 679.508 2.51049 -1.86262 0
M  V30 7033 H 678.728 0.977088 -3.81899 0
M  V30 7034 H 680.016 1.70866 -4.79252 0
M  V30 7035 H 679.414 4.54986 -3.36161 0
M  V30 7036 H 677.971 5.00484 -4.17563 0
M  V30 7037 N 681.404 1.57128 0.121893 0
M  V30 7038 C 682.65 1.85853 0.826451 0
M  V30 7039 C 683.005 0.739262 1.77631 0
M  V30 7040 O 682.298 -0.260959 1.89815 0
M  V30 7041 C 682.492 3.1874 1.61677 0
M  V30 7042 C 682.321 4.43487 0.744944 0
M  V30 7043 C 681.091 5.03707 0.400891 0
M  V30 7044 C 683.289 5.1426 0.0638779 0
M  V30 7045 N 681.271 6.12006 -0.481902 0
M  V30 7046 C 682.642 6.16281 -0.678033 0
M  V30 7047 C 684.697 4.97898 -0.0128424 0
M  V30 7048 C 683.4 7.0371 -1.48946 0
M  V30 7049 C 685.426 5.85812 -0.81108 0
M  V30 7050 C 684.788 6.87333 -1.54119 0
M  V30 7051 H 680.887 0.730367 0.279442 0
M  V30 7052 H 683.471 1.9449 0.0903486 0
M  V30 7053 H 681.642 3.11204 2.32393 0
M  V30 7054 H 683.374 3.35283 2.26644 0
M  V30 7055 H 680.129 4.67744 0.742469 0
M  V30 7056 H 680.553 6.70787 -0.915063 0
M  V30 7057 H 685.195 4.19372 0.537278 0
M  V30 7058 H 682.913 7.81646 -2.05074 0
M  V30 7059 H 686.499 5.75217 -0.872764 0
M  V30 7060 H 685.379 7.54182 -2.14893 0
M  V30 7061 N 682.882 -0.391992 1.52647 0
M  V30 7062 C 684.298 -0.731848 1.41831 0
M  V30 7063 C 684.498 -1.9423 0.536361 0
M  V30 7064 O 683.554 -2.52499 0.00866571 0
M  V30 7065 C 684.867 -0.969743 2.84634 0
M  V30 7066 C 686.415 -1.0714 2.94092 0
M  V30 7067 C 686.89 -1.34195 4.37899 0
M  V30 7068 N 688.381 -1.41023 4.41211 0
M  V30 7069 C 689.116 -1.63616 5.49561 0
M  V30 7070 N 688.612 -1.83699 6.68002 0
M  V30 7071 N 690.405 -1.65771 5.371 0
M  V30 7072 H 682.556 0.404547 2.08512 0
M  V30 7073 H 684.819 0.11879 0.940528 0
M  V30 7074 H 684.525 -0.152465 3.51369 0
M  V30 7075 H 684.399 -1.88523 3.26709 0
M  V30 7076 H 686.786 -1.87925 2.27526 0
M  V30 7077 H 686.867 -0.133887 2.55449 0
M  V30 7078 H 686.511 -0.539207 5.0503 0
M  V30 7079 H 686.441 -2.29226 4.74092 0
M  V30 7080 H 688.932 -1.27223 3.55841 0
M  V30 7081 H 689.245 -2.00437 7.46354 0
M  V30 7082 H 687.59 -1.8093 6.71036 0
M  V30 7083 H 690.781 -1.4963 4.43541 0
M  V30 7084 H 690.954 -1.83038 6.21612 0
M  V30 7085 N 684.36 -1.4356 -0.65026 0
M  V30 7086 C 685.323 -1.48615 -1.74489 0
M  V30 7087 C 686.323 -0.370483 -1.56474 0
M  V30 7088 O 687.513 -0.632351 -1.62317 0
M  V30 7089 C 684.645 -1.34161 -3.13391 0
M  V30 7090 H 685.838 -2.46103 -1.71387 0
M  V30 7091 H 683.391 -1.30369 -0.862186 0
M  V30 7092 H 684.126 -0.376918 -3.22102 0
M  V30 7093 H 683.911 -2.1504 -3.27872 0
M  V30 7094 H 685.401 -1.40637 -3.93206 0
M  V30 7095 N 685.838 0.888903 -1.30139 0
M  V30 7096 C 686.768 2.01046 -1.18755 0
M  V30 7097 C 687.749 1.69916 -0.0791438 0
M  V30 7098 O 688.934 1.92445 -0.260498 0
M  V30 7099 C 686.064 3.36109 -0.874518 0
M  V30 7100 C 685.018 3.81486 -1.94043 0
M  V30 7101 C 684.344 5.13796 -1.48047 0
M  V30 7102 C 685.644 4.00637 -3.35093 0
M  V30 7103 H 687.338 2.10828 -2.12584 0
M  V30 7104 H 684.884 1.01298 -1.02346 0
M  V30 7105 H 686.837 4.14089 -0.781548 0
M  V30 7106 H 685.561 3.26449 0.0994519 0
M  V30 7107 H 684.22 3.05731 -2.02297 0
M  V30 7108 H 683.868 5.0056 -0.494878 0
M  V30 7109 H 683.568 5.45127 -2.19341 0
M  V30 7110 H 685.092 5.94305 -1.40121 0
M  V30 7111 H 686.506 4.69067 -3.2962 0
M  V30 7112 H 684.903 4.43339 -4.04438 0
M  V30 7113 H 685.973 3.0462 -3.77273 0
M  V30 7114 N 687.317 1.12792 1.10072 0
M  V30 7115 C 688.594 0.796867 1.78632 0
M  V30 7116 C 688.974 -0.712739 1.98704 0
M  V30 7117 O 688.322 -1.64773 1.5831 0
M  V30 7118 C 688.532 1.57622 3.11378 0
M  V30 7119 C 689.88 1.76463 3.86194 0
M  V30 7120 O 690.904 1.54165 3.2111 0
M  V30 7121 O 689.763 2.13623 5.03018 0
M  V30 7122 H 686.857 0.290248 0.774394 0
M  V30 7123 H 689.403 1.23215 1.16688 0
M  V30 7124 H 688.175 2.60246 2.92212 0
M  V30 7125 H 687.798 1.13543 3.81043 0
M  V30 7126 N 688.795 -1.27931 0.920396 0
M  V30 7127 C 689.725 -2.29487 0.431024 0
M  V30 7128 C 690.706 -1.62435 -0.504861 0
M  V30 7129 O 691.891 -1.89797 -0.411176 0
M  V30 7130 C 689.021 -3.45788 -0.323709 0
M  V30 7131 C 687.975 -4.24784 0.523658 0
M  V30 7132 C 687.301 -5.33488 -0.359809 0
M  V30 7133 C 688.601 -4.90874 1.78437 0
M  V30 7134 H 690.295 -2.70671 1.27975 0
M  V30 7135 H 687.841 -1.30121 0.616813 0
M  V30 7136 H 689.794 -4.15927 -0.676952 0
M  V30 7137 H 688.518 -3.03502 -1.2064 0
M  V30 7138 H 687.177 -3.56382 0.85951 0
M  V30 7139 H 686.825 -4.87445 -1.24124 0
M  V30 7140 H 686.525 -5.87247 0.203605 0
M  V30 7141 H 688.049 -6.06472 -0.708787 0
M  V30 7142 H 689.463 -5.53339 1.49963 0
M  V30 7143 H 687.86 -5.54659 2.29071 0
M  V30 7144 H 688.93 -4.14988 2.50824 0
M  V30 7145 N 690.273 -0.685099 -1.4193 0
M  V30 7146 C 691.55 -0.140152 -1.95097 0
M  V30 7147 C 691.93 1.34745 -1.62502 0
M  V30 7148 O 691.278 2.08872 -0.926534 0
M  V30 7149 C 691.488 -0.420268 -3.4646 0
M  V30 7150 C 692.836 -0.342338 -4.23218 0
M  V30 7151 O 693.86 -0.354592 -3.54431 0
M  V30 7152 O 692.719 -0.293404 -5.45712 0
M  V30 7153 H 689.813 -0.00885998 -0.826953 0
M  V30 7154 H 692.359 -0.760539 -1.51703 0
M  V30 7155 H 691.131 -1.45037 -3.63428 0
M  V30 7156 H 690.754 0.231616 -3.96925 0
M  V30 7157 N 691.751 1.51645 -0.429126 0
M  V30 7158 C 692.997 2.02314 0.140286 0
M  V30 7159 C 693.33 1.31314 1.43074 0
M  V30 7160 O 692.605 0.425531 1.89788 0
M  V30 7161 C 692.888 3.5822 0.36749 0
M  V30 7162 C 692.741 4.39846 -0.941039 0
M  V30 7163 C 694.06 4.25055 1.14089 0
M  V30 7164 H 691.179 0.735335 0.0495112 0
M  V30 7165 H 693.821 1.81358 -0.566514 0
M  V30 7166 H 691.971 3.76207 0.969556 0
M  V30 7167 H 693.643 4.33527 -1.57646 0
M  V30 7168 H 691.886 4.05259 -1.54751 0
M  V30 7169 H 692.557 5.47069 -0.73621 0
M  V30 7170 H 695.033 4.11288 0.630986 0
M  V30 7171 H 693.909 5.34038 1.26863 0
M  V30 7172 H 694.17 3.85358 2.16683 0
M  V30 7173 N 693.229 0.160201 1.56784 0
M  V30 7174 C 694.475 -0.48831 1.96833 0
M  V30 7175 C 694.808 -1.63641 1.04571 0
M  V30 7176 O 694.083 -1.94289 0.0906481 0
M  V30 7177 C 694.366 -0.981908 3.46454 0
M  V30 7178 C 694.219 0.165607 4.49495 0
M  V30 7179 C 695.538 -1.85931 3.98896 0
M  V30 7180 H 692.657 -0.176027 0.71567 0
M  V30 7181 H 695.299 0.244093 1.88426 0
M  V30 7182 H 693.449 -1.60602 3.5375 0
M  V30 7183 H 695.121 0.802372 4.54268 0
M  V30 7184 H 693.364 0.822789 4.25926 0
M  V30 7185 H 694.035 -0.221699 5.51555 0
M  V30 7186 H 696.511 -1.33327 3.94161 0
M  V30 7187 H 695.387 -2.17373 5.04024 0
M  V30 7188 H 695.648 -2.80106 3.42042 0
M  V30 7189 N 694.707 -1.5719 -0.113559 0
M  V30 7190 C 695.637 -2.03772 -1.14013 0
M  V30 7191 C 696.618 -0.923176 -1.42869 0
M  V30 7192 O 697.803 -1.19325 -1.53216 0
M  V30 7193 C 694.933 -2.44663 -2.4649 0
M  V30 7194 C 693.887 -3.59612 -2.32085 0
M  V30 7195 C 693.213 -3.8642 -3.69573 0
M  V30 7196 C 694.513 -4.91149 -1.7768 0
M  V30 7197 H 696.207 -2.89785 -0.752665 0
M  V30 7198 H 693.753 -1.39412 -0.360609 0
M  V30 7199 H 695.706 -2.75857 -3.18561 0
M  V30 7200 H 694.43 -1.55628 -2.87137 0
M  V30 7201 H 693.089 -3.28636 -1.62461 0
M  V30 7202 H 692.737 -2.94581 -4.07715 0
M  V30 7203 H 692.437 -4.63797 -3.60786 0
M  V30 7204 H 693.961 -4.2007 -4.4314 0
M  V30 7205 H 695.375 -5.20843 -2.39574 0
M  V30 7206 H 693.772 -5.72562 -1.79701 0
M  V30 7207 H 694.842 -4.79301 -0.734776 0
M  V30 7208 N 696.185 0.383891 -1.52853 0
M  V30 7209 C 697.413 1.1495 -1.7203 0
M  V30 7210 C 697.828 1.83578 -0.440957 0
M  V30 7211 O 697.185 1.72872 0.584925 0
M  V30 7212 C 697.236 2.19368 -2.87333 0
M  V30 7213 O 696.957 1.53536 -4.10315 0
M  V30 7214 C 698.458 3.08616 -3.18231 0
M  V30 7215 H 695.678 0.344445 -0.575846 0
M  V30 7216 H 698.222 0.448397 -1.99524 0
M  V30 7217 H 696.377 2.85105 -2.62286 0
M  V30 7218 H 696.791 2.2296 -4.74752 0
M  V30 7219 H 698.265 3.77902 -4.02361 0
M  V30 7220 H 698.742 3.72409 -2.32826 0
M  V30 7221 H 699.348 2.48518 -3.45136 0
M  V30 7222 N 697.663 1.43903 0.642637 0
M  V30 7223 C 699.074 1.40975 1.22404 0
M  V30 7224 C 699.425 0.1192 1.95838 0
M  V30 7225 O 698.55 -0.780939 2.01818 0
M  V30 7226 C 699.145 2.5538 2.22636 0
M  V30 7227 C 697.704 2.55684 2.76229 0
M  V30 7228 C 696.851 2.32556 1.51039 0
M  V30 7229 H 699.802 1.5265 0.434006 0
M  V30 7230 H 699.823 2.27474 3.05017 0
M  V30 7231 H 699.335 3.49294 1.69161 0
M  V30 7232 H 697.436 1.65679 3.33738 0
M  V30 7233 H 697.549 3.53799 3.23053 0
M  V30 7234 H 695.913 1.81427 1.78764 0
M  V30 7235 H 696.696 3.28569 0.99484 0
M  V30 7236 N 699.141 -0.881989 1.30609 0
M  V30 7237 C 700.074 -1.99066 1.11571 0
M  V30 7238 C 701.052 -1.62584 0.022516 0
M  V30 7239 O 702.236 -1.87671 0.176644 0
M  V30 7240 C 699.363 -3.3134 0.702237 0
M  V30 7241 C 698.409 -3.86807 1.79673 0
M  V30 7242 S 699.242 -4.13735 3.39976 0
M  V30 7243 C 700.398 -5.49024 3.00538 0
M  V30 7244 H 700.631 -2.1491 2.05429 0
M  V30 7245 H 698.164 -1.03074 1.14957 0
M  V30 7246 H 700.122 -4.07796 0.470415 0
M  V30 7247 H 698.783 -3.13349 -0.217034 0
M  V30 7248 H 697.976 -4.82397 1.45977 0
M  V30 7249 H 697.578 -3.17102 1.98298 0
M  V30 7250 H 699.87 -6.30208 2.48684 0
M  V30 7251 H 700.813 -5.8766 3.95046 0
M  V30 7252 H 701.221 -5.11726 2.3832 0
M  V30 7253 N 700.619 -1.13374 -1.09472 0
M  V30 7254 C 701.549 -0.833268 -2.18126 0
M  V30 7255 C 702.53 0.207169 -1.68834 0
M  V30 7256 O 703.715 0.0662012 -1.94087 0
M  V30 7257 C 700.845 -0.297979 -3.46019 0
M  V30 7258 C 699.799 -1.27261 -4.08642 0
M  V30 7259 C 699.125 -0.597104 -5.31356 0
M  V30 7260 C 700.425 -2.63095 -4.51197 0
M  V30 7261 H 702.119 -1.74182 -2.43518 0
M  V30 7262 H 699.665 -0.838921 -1.17039 0
M  V30 7263 H 701.618 -0.0754444 -4.21332 0
M  V30 7264 H 700.342 0.645959 -3.20148 0
M  V30 7265 H 699.001 -1.48113 -3.35348 0
M  V30 7266 H 698.649 0.352293 -5.01765 0
M  V30 7267 H 698.349 -1.24734 -5.74208 0
M  V30 7268 H 699.873 -0.38384 -6.09392 0
M  V30 7269 H 701.287 -2.46214 -5.17737 0
M  V30 7270 H 699.684 -3.2429 -5.04932 0
M  V30 7271 H 700.754 -3.20793 -3.6362 0
M  V30 7272 N 702.098 1.27442 -0.927168 0
M  V30 7273 C 703.061 2.2512 -0.430525 0
M  V30 7274 C 704.061 1.54357 0.450619 0
M  V30 7275 O 705.251 1.72371 0.251774 0
M  V30 7276 C 702.383 3.38763 0.381144 0
M  V30 7277 H 703.576 2.70569 -1.29354 0
M  V30 7278 H 701.129 1.39355 -0.707806 0
M  V30 7279 H 701.864 2.98695 1.263 0
M  V30 7280 H 701.649 3.91298 -0.250618 0
M  V30 7281 H 703.139 4.11364 0.719012 0
M  V30 7282 N 703.576 0.692616 1.41565 0
M  V30 7283 C 704.987 0.297478 1.84315 0
M  V30 7284 C 705.338 -1.16379 1.57957 0
M  V30 7285 O 704.463 -1.89303 1.0485 0
M  V30 7286 C 705.058 0.533136 3.34579 0
M  V30 7287 C 703.617 0.191944 3.7591 0
M  V30 7288 C 702.764 0.816873 2.64995 0
M  V30 7289 H 705.715 0.893488 1.31158 0
M  V30 7290 H 705.736 -0.209105 3.79925 0
M  V30 7291 H 705.248 1.59674 3.53731 0
M  V30 7292 H 703.349 -0.867512 3.6236 0
M  V30 7293 H 703.462 0.644902 4.7474 0
M  V30 7294 H 701.826 0.246715 2.53502 0
M  V30 7295 H 702.609 1.88429 2.86966 0
M  V30 7296 N 705.054 -1.51416 0.437162 0
M  V30 7297 C 706.017 -2.26312 -0.362729 0
M  V30 7298 C 707.017 -1.29748 -0.949847 0
M  V30 7299 O 708.207 -1.53462 -0.824325 0
M  V30 7300 C 705.339 -3.05475 -1.5132 0
M  V30 7301 H 706.532 -2.98459 0.29365 0
M  V30 7302 H 704.085 -1.55137 0.190327 0
M  V30 7303 H 704.82 -2.37744 -2.20563 0
M  V30 7304 H 704.605 -3.76401 -1.09838 0
M  V30 7305 H 706.095 -3.62209 -2.07833 0
M  V30 7306 N 706.532 -0.168513 -1.56696 0
M  V30 7307 C 707.462 0.758563 -2.20835 0
M  V30 7308 C 708.443 1.24121 -1.1631 0
M  V30 7309 O 709.628 1.29487 -1.4473 0
M  V30 7310 C 706.758 1.9892 -2.8469 0
M  V30 7311 C 705.712 1.64252 -3.95228 0
M  V30 7312 C 705.038 2.94757 -4.46119 0
M  V30 7313 C 706.338 0.872675 -5.14958 0
M  V30 7314 H 708.032 0.223953 -2.98561 0
M  V30 7315 H 705.578 0.106277 -1.43607 0
M  V30 7316 H 707.531 2.64275 -3.28233 0
M  V30 7317 H 706.255 2.5479 -2.04327 0
M  V30 7318 H 704.914 1.01266 -3.52336 0
M  V30 7319 H 704.562 3.48662 -3.62552 0
M  V30 7320 H 704.262 2.72316 -5.2069 0
M  V30 7321 H 705.786 3.61147 -4.92347 0
M  V30 7322 H 707.2 1.42875 -5.55211 0
M  V30 7323 H 705.597 0.747402 -5.95428 0
M  V30 7324 H 706.667 -0.131535 -4.84722 0
M  V30 7325 N 708.01 1.57248 0.105221 0
M  V30 7326 C 709.287 1.76566 0.841647 0
M  V30 7327 C 709.667 0.747566 1.9742 0
M  V30 7328 O 709.015 -0.225886 2.27381 0
M  V30 7329 C 709.225 3.22016 1.3456 0
M  V30 7330 C 710.573 3.84911 1.79244 0
M  V30 7331 O 711.597 3.25703 1.44207 0
M  V30 7332 O 710.456 4.89008 2.43995 0
M  V30 7333 H 707.55 0.723443 0.400698 0
M  V30 7334 H 710.096 1.69472 0.0878893 0
M  V30 7335 H 708.868 3.87644 0.533685 0
M  V30 7336 H 708.491 3.33703 2.16167 0
M  V30 7337 N 709.488 -0.375779 1.53054 0
M  V30 7338 C 710.418 -1.46598 1.81745 0
M  V30 7339 C 711.399 -1.56337 0.670286 0
M  V30 7340 O 712.584 -1.71071 0.919158 0
M  V30 7341 C 709.714 -2.84058 1.99821 0
M  V30 7342 C 708.668 -2.8915 3.15557 0
M  V30 7343 C 707.994 -4.29187 3.18908 0
M  V30 7344 C 709.294 -2.57595 4.54359 0
M  V30 7345 H 710.988 -1.22837 2.73041 0
M  V30 7346 H 708.534 -0.589485 1.31381 0
M  V30 7347 H 710.487 -3.60342 2.18475 0
M  V30 7348 H 709.211 -3.09184 1.05226 0
M  V30 7349 H 707.87 -2.15316 2.96706 0
M  V30 7350 H 707.518 -4.51374 2.2197 0
M  V30 7351 H 707.218 -4.33512 3.96662 0
M  V30 7352 H 708.742 -5.07359 3.39734 0
M  V30 7353 H 710.156 -3.23595 4.73243 0
M  V30 7354 H 708.553 -2.73252 5.34279 0
M  V30 7355 H 709.623 -1.52882 4.60169 0
M  V30 7356 N 710.966 -1.44241 -0.634997 0
M  V30 7357 C 711.914 -1.51103 -1.76835 0
M  V30 7358 C 712.908 -0.383051 -1.65012 0
M  V30 7359 O 714.114 -0.557832 -1.71138 0
M  V30 7360 H 710.489 -0.474076 -0.583743 0
M  V30 7361 H 712.46 -2.46499 -1.68169 0
M  V30 7362 C 711.209 -1.4687 -3.15158 0
M  V30 7363 H 710.532 -2.32979 -3.24901 0
M  V30 7364 H 711.972 -1.55731 -3.94365 0
M  V30 7365 C 710.431 -0.188884 -3.3637 0
M  V30 7366 O 710.961 0.742487 -3.94778 0
M  V30 7367 N 709.167 -0.0932516 -2.9045 0
M  V30 7368 H 708.714 -0.852004 -2.43102 0
M  V30 7369 H 708.672 0.762308 -3.05018 0
M  V30 7370 N 712.444 0.87505 -1.31075 0
M  V30 7371 C 713.407 1.96333 -1.18263 0
M  V30 7372 C 714.407 1.60416 -0.111106 0
M  V30 7373 O 715.597 1.7044 -0.359987 0
M  V30 7374 C 712.729 3.31036 -0.81414 0
M  V30 7375 H 713.922 2.09125 -2.14958 0
M  V30 7376 H 711.475 1.06271 -1.14614 0
M  V30 7377 H 712.21 3.23944 0.151875 0
M  V30 7378 H 711.995 3.58476 -1.58862 0
M  V30 7379 H 713.485 4.10842 -0.748249 0
M  V30 7380 N 713.922 1.13953 1.08869 0
M  V30 7381 C 715.333 0.916649 1.62648 0
M  V30 7382 C 715.684 -0.545589 1.88462 0
M  V30 7383 O 714.809 -1.41351 1.63856 0
M  V30 7384 C 715.404 1.65751 2.95486 0
M  V30 7385 C 713.963 1.48034 3.46068 0
M  V30 7386 C 713.11 1.68305 2.20383 0
M  V30 7387 H 716.061 1.292 0.921572 0
M  V30 7388 H 716.082 1.11794 3.63707 0
M  V30 7389 H 715.594 2.72171 2.76667 0
M  V30 7390 H 713.695 0.439416 3.7 0
M  V30 7391 H 713.808 2.24719 4.23129 0
M  V30 7392 H 712.172 1.10833 2.29321 0
M  V30 7393 H 712.955 2.76057 2.04077 0
M  V30 7394 N 715.4 -1.26948 0.933913 0
M  V30 7395 C 716.648 -1.93704 0.576484 0
M  V30 7396 C 716.969 -1.73702 -0.886145 0
M  V30 7397 O 716.239 -1.08838 -1.62884 0
M  V30 7398 H 714.819 -0.716812 0.210214 0
M  V30 7399 H 717.481 -1.54534 1.18766 0
M  V30 7400 H 716.577 -3.01987 0.788055 0
M  V30 7401 N 716.879 -0.700114 -1.41195 0
M  V30 7402 C 718.295 -0.372114 -1.55201 0
M  V30 7403 C 718.495 1.12053 -1.6747 0
M  V30 7404 O 717.551 1.90642 -1.65566 0
M  V30 7405 C 718.864 -1.12462 -2.78878 0
M  V30 7406 C 720.412 -1.10941 -2.92679 0
M  V30 7407 C 720.887 -1.84376 -4.19249 0
M  V30 7408 N 722.378 -1.81368 -4.26216 0
M  V30 7409 C 723.113 -2.35024 -5.23021 0
M  V30 7410 N 722.609 -2.9717 -6.25829 0
M  V30 7411 N 724.402 -2.25254 -5.14992 0
M  V30 7412 H 716.553 -1.66816 -1.31477 0
M  V30 7413 H 718.816 -0.704223 -0.634644 0
M  V30 7414 H 718.522 -2.17937 -2.76037 0
M  V30 7415 H 718.396 -0.706152 -3.70531 0
M  V30 7416 H 720.783 -0.062911 -2.95033 0
M  V30 7417 H 720.864 -1.56698 -2.02187 0
M  V30 7418 H 720.508 -2.89008 -4.17656 0
M  V30 7419 H 720.438 -1.3605 -5.08722 0
M  V30 7420 H 722.929 -1.36062 -3.52556 0
M  V30 7421 H 723.242 -3.35668 -6.96094 0
M  V30 7422 H 721.587 -3.01249 -6.26318 0
M  V30 7423 H 724.778 -1.76372 -4.33602 0
M  V30 7424 H 724.951 -2.67373 -5.90268 0
M  V30 7425 N 718.357 1.51182 -0.445186 0
M  V30 7426 C 719.32 2.26501 0.350722 0
M  V30 7427 C 720.32 1.3025 0.942952 0
M  V30 7428 O 721.51 1.53897 0.816175 0
M  V30 7429 C 718.642 3.06274 1.49697 0
M  V30 7430 H 719.835 2.98299 -0.309474 0
M  V30 7431 H 717.388 1.55034 -0.198551 0
M  V30 7432 H 718.123 2.38911 2.19299 0
M  V30 7433 H 717.908 3.76979 1.0784 0
M  V30 7434 H 719.398 3.63306 2.05909 0
M  V30 7435 N 719.835 0.176821 1.56605 0
M  V30 7436 C 721.063 -0.472828 2.01425 0
M  V30 7437 C 721.478 -1.56436 1.05703 0
M  V30 7438 O 720.835 -1.82405 0.058808 0
M  V30 7439 C 720.886 -1.04607 3.46034 0
M  V30 7440 O 720.607 0.00189608 4.381 0
M  V30 7441 C 722.108 -1.7734 4.06282 0
M  V30 7442 H 719.328 -0.120503 0.660091 0
M  V30 7443 H 721.872 0.280166 2.02572 0
M  V30 7444 H 720.027 -1.74953 3.45645 0
M  V30 7445 H 720.441 -0.422118 5.22799 0
M  V30 7446 H 721.915 -2.12703 5.09374 0
M  V30 7447 H 722.392 -2.67043 3.4869 0
M  V30 7448 H 722.998 -1.11623 4.10391 0
M  V30 7449 N 721.313 -1.57302 -0.09688 0
M  V30 7450 C 722.561 -1.8563 -0.799117 0
M  V30 7451 C 722.882 -0.765263 -1.79356 0
M  V30 7452 O 722.152 0.208657 -1.94786 0
M  V30 7453 H 720.732 -0.684937 -0.298111 0
M  V30 7454 H 723.394 -1.9474 -0.0789341 0
M  V30 7455 H 722.49 -2.82305 -1.3308 0
M  V30 7456 N 722.791 0.367657 -1.53252 0
M  V30 7457 C 723.754 1.43308 -1.78873 0
M  V30 7458 C 724.754 1.46671 -0.659115 0
M  V30 7459 O 725.944 1.47468 -0.927306 0
M  V30 7460 C 723.076 2.82442 -1.90892 0
M  V30 7461 H 724.269 1.21864 -2.74024 0
M  V30 7462 H 721.822 0.600668 -1.44297 0
M  V30 7463 H 722.557 3.09202 -0.978 0
M  V30 7464 H 722.342 2.81399 -2.73051 0
M  V30 7465 H 723.832 3.59601 -2.12314 0
M  V30 7466 N 724.269 1.44576 0.627338 0
M  V30 7467 C 725.515 1.47777 1.38888 0
M  V30 7468 C 725.848 0.111406 1.9388 0
M  V30 7469 O 725.123 -0.87149 1.73883 0
M  V30 7470 C 725.406 2.54119 2.55138 0
M  V30 7471 C 725.259 4.00128 2.0547 0
M  V30 7472 C 726.578 2.56929 3.57317 0
M  V30 7473 H 723.697 0.538048 0.50366 0
M  V30 7474 H 726.339 1.76277 0.708978 0
M  V30 7475 H 724.489 2.29948 3.13139 0
M  V30 7476 H 726.161 4.35444 1.5227 0
M  V30 7477 H 724.404 4.11724 1.36623 0
M  V30 7478 H 725.075 4.7019 2.89181 0
M  V30 7479 H 727.551 2.78536 3.09122 0
M  V30 7480 H 726.427 3.33234 4.36173 0
M  V30 7481 H 726.688 1.6127 4.11636 0
M  V30 7482 N 725.747 -0.868086 1.31537 0
M  V30 7483 C 726.972 -1.65926 1.24432 0
M  V30 7484 C 727.397 -1.87169 -0.186936 0
M  V30 7485 O 726.755 -1.4148 -1.13371 0
M  V30 7486 C 726.803 -3.00347 1.9956 0
M  V30 7487 O 725.907 -3.90221 1.33422 0
M  V30 7488 H 725.248 -0.506375 0.429512 0
M  V30 7489 H 727.778 -1.0822 1.73637 0
M  V30 7490 H 727.788 -3.50269 2.09226 0
M  V30 7491 H 726.463 -2.84205 3.03645 0
M  V30 7492 H 725.04 -3.48672 1.32219 0
M  V30 7493 N 727.225 -1.14528 -1.08264 0
M  V30 7494 C 728.455 -0.936604 -1.8415 0
M  V30 7495 C 728.863 0.518298 -1.81962 0
M  V30 7496 O 728.206 1.37096 -1.22272 0
M  V30 7497 C 728.268 -1.36182 -3.32708 0
M  V30 7498 C 727.932 -2.83257 -3.58629 0
M  V30 7499 C 728.929 -3.81366 -3.5335 0
M  V30 7500 C 726.614 -3.20704 -3.86593 0
M  V30 7501 C 728.608 -5.14929 -3.75668 0
M  V30 7502 C 726.295 -4.54443 -4.08564 0
M  V30 7503 C 727.293 -5.51365 -4.03095 0
M  V30 7504 O 726.981 -6.8269 -4.24488 0
M  V30 7505 H 726.713 -0.333254 -0.588148 0
M  V30 7506 H 729.267 -1.5247 -1.3763 0
M  V30 7507 H 727.497 -0.717063 -3.79994 0
M  V30 7508 H 729.186 -1.12372 -3.90035 0
M  V30 7509 H 729.952 -3.53781 -3.31759 0
M  V30 7510 H 725.831 -2.45857 -3.89969 0
M  V30 7511 H 729.375 -5.90568 -3.71315 0
M  V30 7512 H 725.272 -4.81747 -4.29639 0
M  V30 7513 H 726.04 -6.8897 -4.41886 0
M  V30 7514 N 728.703 1.26451 -0.940633 0
M  V30 7515 C 729.931 1.97868 -0.604642 0
M  V30 7516 C 730.346 1.70051 0.820251 0
M  V30 7517 O 729.703 0.96843 1.54686 0
M  V30 7518 C 729.754 3.51684 -0.836689 0
M  V30 7519 O 729.475 3.78533 -2.20554 0
M  V30 7520 C 730.976 4.40343 -0.511169 0
M  V30 7521 H 728.196 0.631105 -0.227919 0
M  V30 7522 H 730.74 1.60979 -1.26119 0
M  V30 7523 H 728.895 3.86736 -0.226759 0
M  V30 7524 H 729.309 4.73065 -2.26517 0
M  V30 7525 H 730.783 5.47229 -0.724157 0
M  V30 7526 H 731.26 4.35694 0.553815 0
M  V30 7527 H 731.866 4.10834 -1.0998 0
M  V30 7528 N 730.181 0.707592 1.40822 0
M  V30 7529 C 731.114 -0.000859377 2.282 0
M  V30 7530 C 732.092 -0.7758 1.42899 0
M  V30 7531 O 733.276 -0.76411 1.72318 0
M  V30 7532 C 730.403 -1.00861 3.23334 0
M  V30 7533 C 729.449 -0.32543 4.25257 0
M  V30 7534 S 730.282 0.940908 5.27169 0
M  V30 7535 C 731.438 -0.0649459 6.25866 0
M  V30 7536 H 731.671 0.740207 2.87938 0
M  V30 7537 H 729.204 0.498311 1.46138 0
M  V30 7538 H 731.162 -1.58485 3.78672 0
M  V30 7539 H 729.823 -1.72233 2.62668 0
M  V30 7540 H 729.016 -1.08697 4.92139 0
M  V30 7541 H 728.618 0.178044 3.73576 0
M  V30 7542 H 730.91 -0.914377 6.71301 0
M  V30 7543 H 731.853 0.570276 7.058 0
M  V30 7544 H 732.261 -0.425098 5.62897 0
M  V30 7545 N 731.66 -1.50943 0.453197 0
M  V30 7546 C 732.59 -2.31005 -0.34044 0
M  V30 7547 C 733.571 -1.37112 -1.00669 0
M  V30 7548 O 734.756 -1.66033 -1.0073 0
M  V30 7549 C 731.886 -3.16358 -1.433 0
M  V30 7550 C 730.84 -4.18658 -0.889363 0
M  V30 7551 C 730.166 -4.92633 -2.07887 0
M  V30 7552 C 731.466 -5.22227 0.0871142 0
M  V30 7553 H 733.16 -2.97601 0.327723 0
M  V30 7554 H 730.706 -1.43119 0.159054 0
M  V30 7555 H 732.659 -3.71155 -1.99555 0
M  V30 7556 H 731.383 -2.47613 -2.12968 0
M  V30 7557 H 730.042 -3.64936 -0.348915 0
M  V30 7558 H 729.69 -4.20376 -2.76211 0
M  V30 7559 H 729.39 -5.61819 -1.72143 0
M  V30 7560 H 730.914 -5.50258 -2.64666 0
M  V30 7561 H 732.328 -5.72001 -0.385656 0
M  V30 7562 H 730.725 -5.99032 0.357926 0
M  V30 7563 H 731.795 -4.74077 1.01879 0
M  V30 7564 N 733.138 -0.185124 -1.56509 0
M  V30 7565 C 734.368 0.461469 -2.0138 0
M  V30 7566 C 734.776 1.56417 -1.06445 0
M  V30 7567 O 734.119 1.83603 -0.0597515 0
M  V30 7568 C 734.181 1.08731 -3.42663 0
M  V30 7569 C 733.845 0.124581 -4.5683 0
M  V30 7570 C 734.842 -0.662295 -5.15664 0
M  V30 7571 C 732.527 0.0163947 -5.02297 0
M  V30 7572 C 734.521 -1.54442 -6.18406 0
M  V30 7573 C 732.208 -0.869301 -6.04885 0
M  V30 7574 C 733.206 -1.64828 -6.62813 0
M  V30 7575 O 732.894 -2.51915 -7.63409 0
M  V30 7576 H 732.626 0.1212 -0.665046 0
M  V30 7577 H 735.18 -0.288119 -2.03369 0
M  V30 7578 H 733.41 1.8853 -3.37629 0
M  V30 7579 H 735.099 1.63753 -3.71403 0
M  V30 7580 H 735.865 -0.588963 -4.81411 0
M  V30 7581 H 731.744 0.61253 -4.56913 0
M  V30 7582 H 735.288 -2.15289 -6.63548 0
M  V30 7583 H 731.185 -0.943786 -6.38563 0
M  V30 7584 H 731.953 -2.45584 -7.80789 0
M  V30 7585 N 734.616 1.57351 0.0885366 0
M  V30 7586 C 735.564 2.03542 1.12576 0
M  V30 7587 C 736.558 0.937668 1.41082 0
M  V30 7588 O 737.764 1.12283 1.40686 0
M  V30 7589 H 734.139 0.648752 0.380296 0
M  V30 7590 H 736.11 2.89833 0.709906 0
M  V30 7591 C 734.859 2.4811 2.43591 0
M  V30 7592 H 734.182 3.32164 2.22502 0
M  V30 7593 H 735.622 2.842 3.14653 0
M  V30 7594 C 734.081 1.35708 3.08359 0
M  V30 7595 O 734.611 0.689852 3.95732 0
M  V30 7596 N 732.817 1.10641 2.68713 0
M  V30 7597 H 732.364 1.6508 1.97753 0
M  V30 7598 H 732.322 0.356355 3.12374 0
M  V30 7599 N 736.094 -0.359525 1.53444 0
M  V30 7600 C 737.334 -1.11014 1.71625 0
M  V30 7601 C 737.698 -1.86376 0.46132 0
M  V30 7602 O 738.899 -2.63724 0.519908 0
M  V30 7603 C 737.17 -2.03907 2.93524 0
M  V30 7604 S 738.729 -2.86408 3.3244 0
M  V30 7605 H 735.547 -0.375352 0.603847 0
M  V30 7606 H 738.149 -0.390604 1.91558 0
M  V30 7607 H 736.853 -1.47316 3.83048 0
M  V30 7608 H 736.384 -2.80324 2.76011 0
M  V30 7609 H 738.399 -4.06241 2.84926 0
M  V30 7610 N 737.572 -1.44907 -0.619662 0
M  V30 7611 C 738.502 -1.55488 -1.742 0
M  V30 7612 C 739.483 -0.407143 -1.65156 0
M  V30 7613 O 740.668 -0.628743 -1.8374 0
M  V30 7614 C 737.798 -1.5097 -3.1277 0
M  V30 7615 C 736.752 -2.64337 -3.36615 0
M  V30 7616 C 736.078 -2.44872 -4.75333 0
M  V30 7617 C 737.378 -4.06423 -3.28051 0
M  V30 7618 H 739.072 -2.49432 -1.65602 0
M  V30 7619 H 736.618 -1.20047 -0.795281 0
M  V30 7620 H 738.571 -1.56971 -3.91073 0
M  V30 7621 H 737.295 -0.535486 -3.2218 0
M  V30 7622 H 735.954 -2.57744 -2.60698 0
M  V30 7623 H 735.602 -1.45617 -4.81461 0
M  V30 7624 H 735.302 -3.20888 -4.92244 0
M  V30 7625 H 736.826 -2.52709 -5.55851 0
M  V30 7626 H 738.24 -4.14324 -3.96243 0
M  V30 7627 H 736.637 -4.82733 -3.56495 0
M  V30 7628 H 737.707 -4.29183 -2.25676 0
M  V30 7629 N 739.05 0.861098 -1.31996 0
M  V30 7630 C 740.327 1.59788 -1.12814 0
M  V30 7631 C 740.707 2.08753 0.313882 0
M  V30 7632 O 740.055 1.87258 1.30946 0
M  V30 7633 C 740.265 2.74901 -2.15012 0
M  V30 7634 C 741.613 3.44643 -2.48004 0
M  V30 7635 O 742.637 2.85119 -2.13508 0
M  V30 7636 O 741.496 4.52044 -3.07113 0
M  V30 7637 H 738.59 0.703408 -0.434909 0
M  V30 7638 H 741.136 0.905788 -1.43505 0
M  V30 7639 H 739.908 2.36198 -3.11971 0
M  V30 7640 H 739.531 3.51792 -1.85279 0
M  V30 7641 N 740.528 1.15101 1.07655 0
M  V30 7642 C 741.775 0.923974 1.80191 0
M  V30 7643 C 742.103 -0.549065 1.86589 0
M  V30 7644 O 741.358 -1.42307 1.3434 0
M  V30 7645 C 741.657 1.47954 3.25337 0
M  V30 7646 C 741.323 2.97253 3.39044 0
M  V30 7647 C 739.985 3.38012 3.42493 0
M  V30 7648 C 742.337 3.93219 3.42094 0
M  V30 7649 C 739.665 4.73384 3.4659 0
M  V30 7650 C 742.017 5.28458 3.47728 0
M  V30 7651 C 740.681 5.68717 3.49453 0
M  V30 7652 H 739.951 0.338106 0.659367 0
M  V30 7653 H 742.598 1.43594 1.26701 0
M  V30 7654 H 740.903 0.888691 3.81588 0
M  V30 7655 H 742.6 1.27972 3.80032 0
M  V30 7656 H 739.19 2.64746 3.37057 0
M  V30 7657 H 743.374 3.62805 3.38654 0
M  V30 7658 H 738.63 5.03925 3.46222 0
M  V30 7659 H 742.804 6.02618 3.49034 0
M  V30 7660 H 740.431 6.73596 3.5238 0
M  V30 7661 N 742.006 -1.2595 0.947325 0
M  V30 7662 C 743.417 -1.75389 0.639963 0
M  V30 7663 C 743.768 -1.77081 -0.844788 0
M  V30 7664 O 742.893 -1.3869 -1.66114 0
M  V30 7665 C 743.488 -3.18506 1.15496 0
M  V30 7666 C 742.047 -3.65534 0.897894 0
M  V30 7667 C 741.194 -2.44818 1.30228 0
M  V30 7668 H 744.145 -1.1194 1.12495 0
M  V30 7669 H 744.166 -3.77045 0.511627 0
M  V30 7670 H 743.678 -3.17243 2.23559 0
M  V30 7671 H 741.779 -3.72221 -0.168096 0
M  V30 7672 H 741.892 -4.54039 1.52922 0
M  V30 7673 H 740.256 -2.44291 0.720678 0
M  V30 7674 H 741.039 -2.46251 2.39198 0
M  V30 7675 N 743.484 -0.715051 -1.40445 0
M  V30 7676 C 744.447 -0.0708726 -2.2909 0
M  V30 7677 C 745.447 0.687926 -1.45342 0
M  V30 7678 O 746.637 0.519908 -1.66261 0
M  V30 7679 C 743.769 0.909528 -3.28543 0
M  V30 7680 H 744.962 -0.851611 -2.87555 0
M  V30 7681 H 742.515 -0.479674 -1.48758 0
M  V30 7682 H 743.25 1.71734 -2.75096 0
M  V30 7683 H 743.035 0.368318 -3.90366 0
M  V30 7684 H 744.525 1.35744 -3.94922 0
M  V30 7685 N 744.962 1.50701 -0.461195 0
M  V30 7686 C 746.21 2.01867 0.0970051 0
M  V30 7687 C 746.531 1.34591 1.41104 0
M  V30 7688 O 745.801 0.488041 1.89723 0
M  V30 7689 H 744.381 0.74599 0.0388392 0
M  V30 7690 H 747.043 1.85129 -0.609357 0
M  V30 7691 H 746.139 3.11051 0.255688 0
M  V30 7692 N 746.441 0.193421 1.56409 0
M  V30 7693 C 747.687 -0.446449 1.97825 0
M  V30 7694 C 748.02 -1.61386 1.08019 0
M  V30 7695 O 747.295 -1.94053 0.131839 0
M  V30 7696 C 747.578 -0.908199 3.48459 0
M  V30 7697 C 747.431 0.260914 4.49043 0
M  V30 7698 C 748.75 -1.77428 4.0275 0
M  V30 7699 H 745.869 -0.160807 0.719243 0
M  V30 7700 H 748.511 0.284006 1.87865 0
M  V30 7701 H 746.661 -1.53062 3.57077 0
M  V30 7702 H 748.333 0.898548 4.52464 0
M  V30 7703 H 746.576 0.912949 4.24085 0
M  V30 7704 H 747.247 -0.104657 5.51901 0
M  V30 7705 H 749.723 -1.24936 3.96901 0
M  V30 7706 H 748.599 -2.06633 5.08521 0
M  V30 7707 H 748.86 -2.72788 3.47907 0
M  V30 7708 N 747.919 -1.57396 -0.0801906 0
M  V30 7709 C 749.165 -1.87113 -0.782083 0
M  V30 7710 C 749.498 -0.78458 -1.77646 0
M  V30 7711 O 748.773 0.205993 -1.93406 0
M  V30 7712 C 749.056 -3.27483 -1.49756 0
M  V30 7713 C 748.909 -4.46782 -0.520171 0
M  V30 7714 C 750.228 -3.65965 -2.44454 0
M  V30 7715 H 747.347 -0.680559 -0.282858 0
M  V30 7716 H 749.989 -1.89946 -0.0454139 0
M  V30 7717 H 748.139 -3.25199 -2.12551 0
M  V30 7718 H 749.811 -4.61187 0.101919 0
M  V30 7719 H 748.054 -4.33485 0.165219 0
M  V30 7720 H 748.725 -5.41761 -1.05824 0
M  V30 7721 H 751.201 -3.69289 -1.91742 0
M  V30 7722 H 750.077 -4.65086 -2.91524 0
M  V30 7723 H 750.338 -2.95446 -3.28883 0
M  V30 7724 N 749.397 0.351382 -1.53633 0
M  V30 7725 C 750.808 0.927429 -1.62036 0
M  V30 7726 C 751.159 1.89809 -0.496706 0
M  V30 7727 O 750.284 2.1313 0.374749 0
M  V30 7728 C 750.879 1.68886 -2.93706 0
M  V30 7729 C 749.438 2.21404 -3.04397 0
M  V30 7730 C 748.585 1.03075 -2.57431 0
M  V30 7731 H 751.536 0.129748 -1.58169 0
M  V30 7732 H 751.557 2.55116 -2.82305 0
M  V30 7733 H 751.069 0.982149 -3.75467 0
M  V30 7734 H 749.17 2.95274 -2.27253 0
M  V30 7735 H 749.283 2.48312 -4.09729 0
M  V30 7736 H 747.647 1.40188 -2.12649 0
M  V30 7737 H 748.43 0.338793 -3.41624 0
M  V30 7738 N 750.875 1.45233 0.611969 0
M  V30 7739 C 752.121 1.49242 1.37312 0
M  V30 7740 C 752.454 0.131963 1.93751 0
M  V30 7741 O 751.729 -0.852999 1.74798 0
M  V30 7742 C 752.012 2.56811 2.52428 0
M  V30 7743 C 751.865 4.02284 2.01215 0
M  V30 7744 C 753.184 2.60705 3.54572 0
M  V30 7745 H 750.303 0.54336 0.497925 0
M  V30 7746 H 752.945 1.77019 0.690242 0
M  V30 7747 H 751.095 2.33256 3.10683 0
M  V30 7748 H 752.767 4.37035 1.47643 0
M  V30 7749 H 751.01 4.1315 1.32248 0
M  V30 7750 H 751.681 4.7323 2.84178 0
M  V30 7751 H 754.157 2.81799 3.06151 0
M  V30 7752 H 753.033 3.37841 4.32614 0
M  V30 7753 H 753.294 1.65627 4.09903 0
M  V30 7754 N 752.353 -0.854086 1.3245 0
M  V30 7755 C 753.581 -1.64074 1.26045 0
M  V30 7756 C 753.996 -1.8802 -0.171456 0
M  V30 7757 O 753.353 -1.4496 -1.10873 0
M  V30 7758 C 753.404 -2.9997 2.01743 0
M  V30 7759 O 753.125 -2.77084 3.39346 0
M  V30 7760 C 754.626 -3.94414 2.02368 0
M  V30 7761 H 751.846 -0.511015 0.434862 0
M  V30 7762 H 754.39 -1.06494 1.74583 0
M  V30 7763 H 752.545 -3.54193 1.56926 0
M  V30 7764 H 752.959 -3.63514 3.78098 0
M  V30 7765 H 754.433 -4.87032 2.59815 0
M  V30 7766 H 754.91 -4.27427 1.01009 0
M  V30 7767 H 755.516 -3.46127 2.47135 0
M  V30 7768 N 753.831 -1.1567 -1.07043 0
M  V30 7769 C 755.059 -0.957471 -1.83412 0
M  V30 7770 C 755.474 0.494271 -1.82215 0
M  V30 7771 O 754.831 1.34288 -1.23584 0
M  V30 7772 C 754.882 -1.46784 -3.30359 0
M  V30 7773 O 754.603 -2.86271 -3.31633 0
M  V30 7774 C 756.104 -1.31054 -4.23485 0
M  V30 7775 H 753.324 -0.33986 -0.578564 0
M  V30 7776 H 755.868 -1.53518 -1.35102 0
M  V30 7777 H 754.023 -0.932586 -3.76007 0
M  V30 7778 H 754.437 -3.0948 -4.23465 0
M  V30 7779 H 755.911 -1.71605 -5.24648 0
M  V30 7780 H 756.388 -0.255107 -4.38458 0
M  V30 7781 H 756.994 -1.83503 -3.83676 0
M  V30 7782 N 755.309 1.25446 -0.953992 0
M  V30 7783 C 756.555 1.9343 -0.60933 0
M  V30 7784 C 756.888 1.74542 0.851388 0
M  V30 7785 O 756.163 1.09014 1.61078 0
M  V30 7786 C 756.446 3.46844 -0.968041 0
M  V30 7787 C 756.299 3.74961 -2.48444 0
M  V30 7788 C 757.618 4.37334 -0.492641 0
M  V30 7789 H 754.737 0.702502 -0.222844 0
M  V30 7790 H 757.379 1.48076 -1.19053 0
M  V30 7791 H 755.529 3.85604 -0.473465 0
M  V30 7792 H 757.201 3.45841 -3.05273 0
M  V30 7793 H 755.444 3.20589 -2.92241 0
M  V30 7794 H 756.115 4.82246 -2.68594 0
M  V30 7795 H 758.591 4.05873 -0.916878 0
M  V30 7796 H 757.467 5.43439 -0.772331 0
M  V30 7797 H 757.728 4.37908 0.607403 0
M  V30 7798 N 756.787 0.722489 1.40064 0
M  V30 7799 C 758.015 0.274838 2.05066 0
M  V30 7800 C 758.43 -1.08586 1.54449 0
M  V30 7801 O 757.787 -1.68375 0.704003 0
M  V30 7802 C 757.838 0.253673 3.60609 0
M  V30 7803 O 757.559 1.56064 4.0936 0
M  V30 7804 C 759.06 -0.211684 4.42794 0
M  V30 7805 H 756.28 0.12226 0.659768 0
M  V30 7806 H 758.824 0.982632 1.79345 0
M  V30 7807 H 756.979 -0.405137 3.85276 0
M  V30 7808 H 757.393 1.46576 5.03603 0
M  V30 7809 H 758.867 -0.175341 5.51721 0
M  V30 7810 H 759.344 -1.25493 4.2089 0
M  V30 7811 H 759.95 0.4171 4.2325 0
M  V30 7812 N 758.265 -1.50454 0.469181 0
M  V30 7813 C 759.228 -2.2703 -0.314643 0
M  V30 7814 C 760.228 -1.31734 -0.922111 0
M  V30 7815 O 761.418 -1.55176 -0.791588 0
M  V30 7816 C 758.55 -3.08616 -1.44806 0
M  V30 7817 H 759.743 -2.97769 0.356892 0
M  V30 7818 H 757.296 -1.54698 0.223191 0
M  V30 7819 H 758.031 -2.42369 -2.1547 0
M  V30 7820 H 757.816 -3.78647 -1.01829 0
M  V30 7821 H 759.306 -3.66536 -2.00103 0
M  V30 7822 N 759.743 -0.201713 -1.56304 0
M  V30 7823 C 760.653 0.728296 -2.23009 0
M  V30 7824 C 761.669 1.22945 -1.23128 0
M  V30 7825 O 762.845 1.27523 -1.55884 0
M  V30 7826 C 759.91 1.92792 -2.88153 0
M  V30 7827 C 758.971 1.47068 -4.03323 0
M  V30 7828 C 758.204 2.61312 -4.65351 0
M  V30 7829 O 758.427 3.7896 -4.26317 0
M  V30 7830 O 757.361 2.33646 -5.54701 0
M  V30 7831 H 761.187 0.190166 -3.03104 0
M  V30 7832 H 758.772 0.0278725 -1.49374 0
M  V30 7833 H 760.654 2.6289 -3.29343 0
M  V30 7834 H 759.329 2.45452 -2.11033 0
M  V30 7835 H 758.236 0.738299 -3.66742 0
M  V30 7836 H 759.569 0.990666 -4.82127 0
M  V30 7837 N 761.222 1.57436 0.0718424 0
M  V30 7838 C 762.499 1.78312 0.804006 0
M  V30 7839 C 762.879 0.789273 1.9579 0
M  V30 7840 O 762.227 -0.177605 2.27809 0
M  V30 7841 C 762.437 3.24798 1.277 0
M  V30 7842 C 763.785 3.88627 1.71039 0
M  V30 7843 O 764.809 3.28689 1.37266 0
M  V30 7844 O 763.668 4.94073 2.33567 0
M  V30 7845 H 760.762 0.73178 0.385262 0
M  V30 7846 H 763.308 1.69621 0.0519219 0
M  V30 7847 H 762.08 3.88688 0.45134 0
M  V30 7848 H 761.703 3.38213 2.0904 0
M  V30 7849 N 762.7 -0.34323 1.53817 0
M  V30 7850 C 763.61 -1.44493 1.84821 0
M  V30 7851 C 764.626 -1.57556 0.738381 0
M  V30 7852 O 765.802 -1.73026 1.03072 0
M  V30 7853 C 762.867 -2.79478 2.05166 0
M  V30 7854 C 761.928 -2.75756 3.29025 0
M  V30 7855 C 761.161 -4.04302 3.4839 0
M  V30 7856 O 761.384 -5.01595 2.71586 0
M  V30 7857 O 760.318 -4.08754 4.41819 0
M  V30 7858 H 764.144 -1.21209 2.78464 0
M  V30 7859 H 761.729 -0.535437 1.39476 0
M  V30 7860 H 763.611 -3.59419 2.19991 0
M  V30 7861 H 762.286 -3.02692 1.14713 0
M  V30 7862 H 761.193 -1.94434 3.19603 0
M  V30 7863 H 762.526 -2.57495 4.19472 0
M  V30 7864 N 764.178 -1.45556 -0.604258 0
M  V30 7865 C 765.141 -1.54091 -1.69672 0
M  V30 7866 C 766.141 -0.420076 -1.55216 0
M  V30 7867 O 767.331 -0.683671 -1.60224 0
M  V30 7868 C 764.463 -1.44063 -3.08964 0
M  V30 7869 H 765.656 -2.51431 -1.6347 0
M  V30 7870 H 763.209 -1.33046 -0.820273 0
M  V30 7871 H 763.944 -0.479201 -3.2074 0
M  V30 7872 H 763.729 -2.25362 -3.20865 0
M  V30 7873 H 765.219 -1.53075 -3.88533 0
M  V30 7874 N 765.656 0.84705 -1.32902 0
M  V30 7875 C 766.588 1.96308 -1.18304 0
M  V30 7876 C 767.601 1.62386 -0.116082 0
M  V30 7877 O 768.79 1.74713 -0.365751 0
M  V30 7878 C 765.89 3.29556 -0.790305 0
M  V30 7879 C 765.063 3.91668 -1.94717 0
M  V30 7880 C 764.122 5.0326 -1.53674 0
M  V30 7881 O 763.148 5.22847 -2.24989 0
M  V30 7882 N 764.35 5.78852 -0.437075 0
M  V30 7883 H 767.115 2.09369 -2.14441 0
M  V30 7884 H 764.676 1.02233 -1.25539 0
M  V30 7885 H 766.668 4.01624 -0.49799 0
M  V30 7886 H 765.238 3.12497 0.0801286 0
M  V30 7887 H 764.458 3.12292 -2.40557 0
M  V30 7888 H 765.746 4.299 -2.72146 0
M  V30 7889 H 765.144 5.65484 0.156316 0
M  V30 7890 H 763.701 6.51479 -0.204399 0
M  V30 7891 N 767.134 1.16236 1.06428 0
M  V30 7892 C 768.067 0.81119 2.13295 0
M  V30 7893 C 769.045 -0.216555 1.61151 0
M  V30 7894 O 770.229 -0.100949 1.88229 0
M  V30 7895 C 767.356 0.207901 3.38061 0
M  V30 7896 C 766.402 1.20904 4.09004 0
M  V30 7897 S 767.235 2.75513 4.59187 0
M  V30 7898 C 768.391 2.1663 5.87216 0
M  V30 7899 H 768.624 1.71632 2.42755 0
M  V30 7900 H 766.157 0.985693 1.18842 0
M  V30 7901 H 768.115 -0.133715 4.10282 0
M  V30 7902 H 766.776 -0.67497 3.06762 0
M  V30 7903 H 765.969 0.735326 4.98607 0
M  V30 7904 H 765.571 1.49567 3.42791 0
M  V30 7905 H 767.863 1.53413 6.59902 0
M  V30 7906 H 768.806 3.04437 6.39315 0
M  V30 7907 H 769.214 1.60565 5.41183 0
M  V30 7908 N 768.612 -1.24939 0.960631 0
M  V30 7909 C 769.522 -2.29374 0.492435 0
M  V30 7910 C 770.538 -1.68262 -0.443154 0
M  V30 7911 O 771.714 -1.98875 -0.31793 0
M  V30 7912 C 768.779 -3.46023 -0.216626 0
M  V30 7913 C 767.84 -4.22557 0.757915 0
M  V30 7914 C 767.073 -5.33636 0.0825969 0
M  V30 7915 O 767.296 -5.59084 -1.13054 0
M  V30 7916 O 766.23 -5.96939 0.771177 0
M  V30 7917 H 770.056 -2.71525 1.36044 0
M  V30 7918 H 767.641 -1.30499 0.72735 0
M  V30 7919 H 769.523 -4.16885 -0.615241 0
M  V30 7920 H 768.198 -3.05862 -1.05971 0
M  V30 7921 H 767.105 -3.54099 1.20685 0
M  V30 7922 H 768.438 -4.66516 1.5692 0
M  V30 7923 N 770.09 -0.729906 -1.39679 0
M  V30 7924 C 771.04 -0.0627678 -2.27914 0
M  V30 7925 C 772.024 0.717867 -1.43998 0
M  V30 7926 O 773.216 0.587713 -1.66958 0
M  V30 7927 C 770.345 0.847564 -3.32673 0
M  V30 7928 C 769.431 0.0613515 -4.24056 0
M  V30 7929 N 769.822 -0.962863 -4.96551 0
M  V30 7930 C 768.12 0.291773 -4.45045 0
M  V30 7931 C 768.821 -1.43652 -5.63683 0
M  V30 7932 N 767.797 -0.756044 -5.38317 0
M  V30 7933 H 771.599 -0.847545 -2.81414 0
M  V30 7934 H 769.113 -0.563776 -1.523 0
M  V30 7935 H 771.11 1.34094 -3.94746 0
M  V30 7936 H 769.77 1.63156 -2.80732 0
M  V30 7937 H 770.781 -1.34409 -5.00154 0
M  V30 7938 H 767.458 1.05097 -4.04056 0
M  V30 7939 H 768.848 -2.28835 -6.31731 0
M  V30 7940 N 771.568 1.50203 -0.477153 0
M  V30 7941 C 772.798 2.0647 0.0731427 0
M  V30 7942 C 773.206 1.3405 1.33518 0
M  V30 7943 O 772.549 0.405164 1.79176 0
M  V30 7944 C 772.611 3.57025 0.421121 0
M  V30 7945 C 772.275 4.50973 -0.739765 0
M  V30 7946 C 773.272 4.939 -1.62353 0
M  V30 7947 C 770.957 4.93581 -0.93181 0
M  V30 7948 C 772.951 5.78149 -2.6837 0
M  V30 7949 C 770.638 5.77612 -1.99519 0
M  V30 7950 C 771.636 6.19798 -2.86949 0
M  V30 7951 O 771.324 7.02152 -3.91456 0
M  V30 7952 H 771.056 0.675969 -0.00648243 0
M  V30 7953 H 773.61 1.94278 -0.66673 0
M  V30 7954 H 771.84 3.67141 1.21426 0
M  V30 7955 H 773.529 3.95632 0.907213 0
M  V30 7956 H 774.295 4.61646 -1.48687 0
M  V30 7957 H 770.174 4.60262 -0.260739 0
M  V30 7958 H 773.718 6.10997 -3.36643 0
M  V30 7959 H 769.615 6.09279 -2.13189 0
M  V30 7960 H 770.383 7.20414 -3.88518 0
M  V30 7961 N 773.046 0.209999 1.56195 0
M  V30 7962 C 774.462 -0.145598 1.58934 0
M  V30 7963 C 774.662 -1.59868 1.22656 0
M  V30 7964 O 773.718 -2.33689 0.956336 0
M  V30 7965 C 775.031 0.170243 3.00218 0
M  V30 7966 C 776.579 0.111548 3.12801 0
M  V30 7967 C 777.054 0.400904 4.56242 0
M  V30 7968 N 778.545 0.350058 4.61875 0
M  V30 7969 C 779.28 0.547598 5.70779 0
M  V30 7970 N 778.776 0.806291 6.88092 0
M  V30 7971 N 780.569 0.480827 5.6004 0
M  V30 7972 H 772.72 1.15804 1.78054 0
M  V30 7973 H 774.983 0.463326 0.827063 0
M  V30 7974 H 774.689 1.17833 3.31373 0
M  V30 7975 H 774.563 -0.520208 3.73596 0
M  V30 7976 H 776.95 -0.887162 2.81449 0
M  V30 7977 H 777.031 0.835302 2.41777 0
M  V30 7978 H 776.675 1.397 4.8831 0
M  V30 7979 H 776.605 -0.34391 5.25476 0
M  V30 7980 H 779.096 0.157334 3.77572 0
M  V30 7981 H 779.409 0.945433 7.66995 0
M  V30 7982 H 777.754 0.843355 6.89864 0
M  V30 7983 H 780.945 0.279037 4.67268 0
M  V30 7984 H 781.118 0.638189 6.4485 0
M  V30 7985 N 774.524 -1.57472 -0.0634922 0
M  V30 7986 C 775.772 -1.87283 -0.759563 0
M  V30 7987 C 776.093 -0.803135 -1.77693 0
M  V30 7988 O 775.363 0.167293 -1.95184 0
M  V30 7989 H 773.943 -0.691106 -0.283516 0
M  V30 7990 H 776.605 -1.94864 -0.0376091 0
M  V30 7991 H 775.701 -2.85064 -1.27062 0
M  V30 7992 N 776.003 0.335068 -1.53997 0
M  V30 7993 C 777.233 1.0926 -1.75345 0
M  V30 7994 C 777.641 1.82568 -0.496545 0
M  V30 7995 O 776.984 1.75525 0.541897 0
M  V30 7996 C 777.046 2.14473 -2.88516 0
M  V30 7997 C 776.71 1.60665 -4.27827 0
M  V30 7998 C 777.707 1.05448 -5.09094 0
M  V30 7999 C 775.392 1.65255 -4.74337 0
M  V30 8000 C 777.386 0.555372 -6.34976 0
M  V30 8001 C 775.073 1.14956 -6.0019 0
M  V30 8002 C 776.071 0.601907 -6.80343 0
M  V30 8003 O 775.759 0.106445 -8.0383 0
M  V30 8004 H 775.491 0.331329 -0.589234 0
M  V30 8005 H 778.045 0.39042 -2.01655 0
M  V30 8006 H 776.275 2.88274 -2.5775 0
M  V30 8007 H 777.964 2.75857 -2.97755 0
M  V30 8008 H 778.73 1.01218 -4.74321 0
M  V30 8009 H 774.609 2.06822 -4.12002 0
M  V30 8010 H 778.153 0.127245 -6.97484 0
M  V30 8011 H 774.05 1.18891 -6.34457 0
M  V30 8012 H 774.818 0.222944 -8.18196 0
M  V30 8013 N 777.481 1.45874 0.596531 0
M  V30 8014 C 778.728 1.50467 1.35521 0
M  V30 8015 C 779.056 0.150802 1.93915 0
M  V30 8016 O 778.311 -0.851913 1.76184 0
M  V30 8017 C 778.61 2.54034 2.51399 0
M  V30 8018 C 778.276 3.9844 2.11085 0
M  V30 8019 C 776.938 4.37758 1.99804 0
M  V30 8020 C 779.29 4.89209 1.79788 0
M  V30 8021 C 776.618 5.65727 1.55465 0
M  V30 8022 C 778.97 6.17602 1.36931 0
M  V30 8023 C 777.634 6.5584 1.24218 0
M  V30 8024 H 776.904 0.550597 0.495907 0
M  V30 8025 H 779.551 1.79279 0.673145 0
M  V30 8026 H 777.856 2.18832 3.24992 0
M  V30 8027 H 779.553 2.54822 3.09624 0
M  V30 8028 H 776.143 3.67353 2.20794 0
M  V30 8029 H 780.327 4.59562 1.87395 0
M  V30 8030 H 775.583 5.94139 1.44253 0
M  V30 8031 H 779.757 6.87373 1.11764 0
M  V30 8032 H 777.384 7.54897 0.896353 0
M  V30 8033 N 778.959 -0.83999 1.33349 0
M  V30 8034 C 780.207 -1.59202 1.24496 0
M  V30 8035 C 780.528 -1.94077 -0.189499 0
M  V30 8036 O 779.798 -1.60868 -1.11796 0
M  V30 8037 H 778.378 -0.590276 0.457802 0
M  V30 8038 H 781.04 -1.00394 1.67054 0
M  V30 8039 H 780.136 -2.52247 1.83788 0
M  V30 8040 N 780.437 -1.16799 -1.0581 0
M  V30 8041 C 781.714 -0.862616 -1.75551 0
M  V30 8042 C 782.094 0.6385 -2.01212 0
M  V30 8043 O 781.442 1.58784 -1.64317 0
M  V30 8044 C 781.652 -1.6907 -3.05314 0
M  V30 8045 C 783 -1.90675 -3.79379 0
M  V30 8046 O 784.024 -1.65976 -3.15167 0
M  V30 8047 O 782.883 -2.32145 -4.94743 0
M  V30 8048 H 779.977 -0.318789 -0.763088 0
M  V30 8049 H 782.523 -1.27461 -1.12034 0
M  V30 8050 H 781.295 -2.70912 -2.82352 0
M  V30 8051 H 780.918 -1.27606 -3.76567 0
M  V30 8052 N 781.915 1.24427 -0.967243 0
M  V30 8053 C 783.164 1.91789 -0.624478 0
M  V30 8054 C 783.477 1.76448 0.844129 0
M  V30 8055 O 784.683 2.38495 1.2974 0
M  V30 8056 C 783.139 3.43743 -1.06626 0
M  V30 8057 C 782.747 3.67771 -2.55829 0
M  V30 8058 C 784.491 4.16958 -0.79662 0
M  V30 8059 C 782.398 5.13293 -2.93742 0
M  V30 8060 H 781.328 0.71811 -0.229856 0
M  V30 8061 H 783.979 1.41081 -1.17339 0
M  V30 8062 H 782.361 3.93484 -0.445663 0
M  V30 8063 H 783.535 3.28631 -3.23015 0
M  V30 8064 H 781.85 3.07841 -2.80398 0
M  V30 8065 H 784.447 5.24171 -1.05589 0
M  V30 8066 H 784.79 4.15442 0.267163 0
M  V30 8067 H 785.323 3.73164 -1.37816 0
M  V30 8068 H 782.062 5.19931 -3.9919 0
M  V30 8069 H 781.582 5.53433 -2.3124 0
M  V30 8070 H 783.261 5.81521 -2.83623 0
M  V30 8071 N 783.393 0.737304 1.3929 0
M  V30 8072 C 784.639 0.295581 2.01241 0
M  V30 8073 C 784.994 -1.10561 1.57461 0
M  V30 8074 O 784.287 -1.74346 0.7946 0
M  V30 8075 C 784.481 0.338438 3.55794 0
M  V30 8076 C 784.31 1.74225 4.14579 0
M  V30 8077 C 783.08 2.35502 4.47065 0
M  V30 8078 C 785.278 2.69623 4.37959 0
M  V30 8079 N 783.26 3.68014 4.91365 0
M  V30 8080 C 784.631 3.86873 4.84489 0
M  V30 8081 C 786.686 2.67355 4.2003 0
M  V30 8082 C 785.389 5.02193 5.14971 0
M  V30 8083 C 787.415 3.8182 4.51627 0
M  V30 8084 C 786.777 4.97806 4.98366 0
M  V30 8085 H 782.876 0.154468 0.766592 0
M  V30 8086 H 785.46 0.963768 1.69173 0
M  V30 8087 H 783.631 -0.299406 3.87244 0
M  V30 8088 H 785.363 -0.122053 4.04516 0
M  V30 8089 H 782.118 1.87406 4.34943 0
M  V30 8090 H 782.542 4.36051 5.17869 0
M  V30 8091 H 787.184 1.78876 3.83097 0
M  V30 8092 H 784.902 5.913 5.50809 0
M  V30 8093 H 788.488 3.81366 4.39376 0
M  V30 8094 H 787.368 5.84909 5.22351 0
M  V30 8095 N 784.871 -1.49948 0.485112 0
M  V30 8096 C 786.148 -1.95186 -0.12726 0
M  V30 8097 C 786.528 -1.42605 -1.5565 0
M  V30 8098 O 785.876 -0.632986 -2.19558 0
M  V30 8099 C 786.086 -3.48955 -0.0562117 0
M  V30 8100 C 787.434 -4.23932 -0.238106 0
M  V30 8101 O 788.458 -3.55955 -0.132145 0
M  V30 8102 O 787.317 -5.44614 -0.453658 0
M  V30 8103 H 784.411 -0.820433 -0.104014 0
M  V30 8104 H 786.957 -1.60659 0.546517 0
M  V30 8105 H 785.729 -3.79814 0.941122 0
M  V30 8106 H 785.352 -3.90056 -0.770834 0
M  V30 8107 N 786.349 -0.21828 -1.56081 0
M  V30 8108 C 787.296 0.693189 -2.20144 0
M  V30 8109 C 788.266 1.19274 -1.15598 0
M  V30 8110 O 789.451 1.25243 -1.4394 0
M  V30 8111 C 786.591 1.89715 -2.88275 0
M  V30 8112 C 785.704 1.4368 -4.07407 0
M  V30 8113 C 784.839 2.59807 -4.63329 0
M  V30 8114 C 783.878 2.10492 -5.74769 0
M  V30 8115 N 783.015 3.1988 -6.24997 0
M  V30 8116 H 787.855 0.14016 -2.9767 0
M  V30 8117 H 785.392 0.0574292 -1.46988 0
M  V30 8118 H 787.35 2.60398 -3.25958 0
M  V30 8119 H 785.98 2.42311 -2.13273 0
M  V30 8120 H 785.032 0.625007 -3.7523 0
M  V30 8121 H 786.344 1.03517 -4.8794 0
M  V30 8122 H 785.498 3.38577 -5.03438 0
M  V30 8123 H 784.237 3.03256 -3.81951 0
M  V30 8124 H 783.242 1.30182 -5.34165 0
M  V30 8125 H 784.467 1.68045 -6.5798 0
M  V30 8126 H 782.413 3.62817 -5.46534 0
M  V30 8127 H 782.33 2.83958 -7.00645 0
M  V30 8128 H 783.598 3.98796 -6.69763 0
M  V30 8129 N 787.827 1.57504 0.0551401 0
M  V30 8130 C 788.76 2.00155 1.09604 0
M  V30 8131 C 789.738 0.881274 1.36647 0
M  V30 8132 O 790.922 1.14498 1.49742 0
M  V30 8133 C 788.049 2.35246 2.43674 0
M  V30 8134 C 787.095 3.57452 2.32659 0
M  V30 8135 S 787.928 5.07639 1.7048 0
M  V30 8136 C 789.084 5.45947 3.06093 0
M  V30 8137 H 789.317 2.88131 0.732635 0
M  V30 8138 H 786.85 1.52122 0.264252 0
M  V30 8139 H 788.808 2.56136 3.20787 0
M  V30 8140 H 787.469 1.47769 2.7717 0
M  V30 8141 H 786.662 3.79576 3.31569 0
M  V30 8142 H 786.264 3.36279 1.63685 0
M  V30 8143 H 788.556 5.45036 4.0242 0
M  V30 8144 H 789.499 6.4656 2.88732 0
M  V30 8145 H 789.907 4.73419 3.07466 0
M  V30 8146 N 789.305 -0.326896 1.54172 0
M  V30 8147 C 790.235 -1.40741 1.86317 0
M  V30 8148 C 791.216 -1.54125 0.719684 0
M  V30 8149 O 792.401 -1.6806 0.973117 0
M  V30 8150 C 789.531 -2.77557 2.08757 0
M  V30 8151 C 788.485 -2.78965 3.24596 0
M  V30 8152 C 787.811 -4.18824 3.32401 0
M  V30 8153 C 789.111 -2.4301 4.62324 0
M  V30 8154 H 790.805 -1.14088 2.76811 0
M  V30 8155 H 788.351 -0.547389 1.3319 0
M  V30 8156 H 790.304 -3.53209 2.29829 0
M  V30 8157 H 789.028 -3.0568 1.15009 0
M  V30 8158 H 787.687 -2.05767 3.03406 0
M  V30 8159 H 787.335 -4.44083 2.36218 0
M  V30 8160 H 787.035 -4.20673 4.10253 0
M  V30 8161 H 788.559 -4.96294 3.55703 0
M  V30 8162 H 789.973 -3.08375 4.83299 0
M  V30 8163 H 788.37 -2.56116 5.42701 0
M  V30 8164 H 789.44 -1.38165 4.64799 0
M  V30 8165 N 790.784 -1.46188 -0.588786 0
M  V30 8166 C 791.716 -1.52319 -1.71265 0
M  V30 8167 C 792.729 -0.412096 -1.57498 0
M  V30 8168 O 793.918 -0.680146 -1.65034 0
M  V30 8169 C 791.018 -1.38164 -3.09458 0
M  V30 8170 C 790.191 -2.63284 -3.49286 0
M  V30 8171 C 789.25 -2.43415 -4.66514 0
M  V30 8172 O 788.276 -3.17113 -4.72682 0
M  V30 8173 N 789.478 -1.49187 -5.61002 0
M  V30 8174 H 792.243 -2.49219 -1.66463 0
M  V30 8175 H 789.804 -1.42167 -0.774601 0
M  V30 8176 H 791.796 -1.22653 -3.85666 0
M  V30 8177 H 790.366 -0.494678 -3.08661 0
M  V30 8178 H 789.586 -2.93779 -2.62845 0
M  V30 8179 H 790.874 -3.46413 -3.7266 0
M  V30 8180 H 790.272 -0.884027 -5.5875 0
M  V30 8181 H 788.829 -1.39642 -6.36666 0
M  V30 8182 N 792.262 0.832906 -1.33792 0
M  V30 8183 C 793.209 1.94314 -1.24541 0
M  V30 8184 C 794.179 1.65646 -0.122753 0
M  V30 8185 O 795.364 1.88394 -0.30204 0
M  V30 8186 C 792.504 3.30395 -0.996641 0
M  V30 8187 C 791.617 3.71422 -2.20612 0
M  V30 8188 C 790.752 4.96401 -1.89101 0
M  V30 8189 C 789.791 5.2998 -3.06247 0
M  V30 8190 N 788.928 6.46137 -2.74685 0
M  V30 8191 H 793.768 2.01559 -2.19495 0
M  V30 8192 H 791.305 0.986243 -1.09141 0
M  V30 8193 H 793.263 4.08803 -0.832817 0
M  V30 8194 H 791.893 3.22691 -0.0838242 0
M  V30 8195 H 790.945 2.88488 -2.47949 0
M  V30 8196 H 792.257 3.92215 -3.0817 0
M  V30 8197 H 791.411 5.82572 -1.69396 0
M  V30 8198 H 790.15 4.7759 -0.987882 0
M  V30 8199 H 789.155 4.42312 -3.26559 0
M  V30 8200 H 790.38 5.50737 -3.97323 0
M  V30 8201 H 788.326 6.28801 -1.86938 0
M  V30 8202 H 788.243 6.67054 -3.55774 0
M  V30 8203 H 789.511 7.35403 -2.58461 0
M  V30 8204 N 793.74 1.17359 1.05189 0
M  V30 8205 C 794.988 0.960087 1.77839 0
M  V30 8206 C 795.309 -0.512554 1.88143 0
M  V30 8207 O 794.579 -1.3721 1.39822 0
M  V30 8208 H 793.159 0.352234 0.658741 0
M  V30 8209 H 795.821 1.47834 1.27008 0
M  V30 8210 H 794.917 1.38843 2.79516 0
M  V30 8211 N 795.218 -1.23913 0.973828 0
M  V30 8212 C 796.151 -2.23647 0.45355 0
M  V30 8213 C 797.129 -1.55485 -0.475724 0
M  V30 8214 O 798.313 -1.84083 -0.405689 0
M  V30 8215 C 795.44 -3.36942 -0.344594 0
M  V30 8216 C 794.486 -4.23221 0.527859 0
M  V30 8217 S 795.319 -4.97877 1.97177 0
M  V30 8218 C 796.475 -6.14627 1.18258 0
M  V30 8219 H 796.708 -2.67433 1.29873 0
M  V30 8220 H 794.241 -1.33289 0.779322 0
M  V30 8221 H 796.199 -4.02647 -0.799103 0
M  V30 8222 H 794.86 -2.91703 -1.16482 0
M  V30 8223 H 794.053 -5.03928 -0.0852555 0
M  V30 8224 H 793.655 -3.6255 0.918344 0
M  V30 8225 H 795.947 -6.76066 0.440629 0
M  V30 8226 H 796.89 -6.80311 1.96425 0
M  V30 8227 H 797.298 -5.6009 0.704256 0
M  V30 8228 N 796.696 -0.74468 -1.38897 0
M  V30 8229 C 797.643 -0.111064 -2.30533 0
M  V30 8230 C 798.613 0.719276 -1.49719 0
M  V30 8231 O 799.798 0.677244 -1.78376 0
M  V30 8232 C 796.938 0.78292 -3.36102 0
M  V30 8233 C 796.051 -0.0610817 -4.31957 0
M  V30 8234 C 795.186 0.835075 -5.24595 0
M  V30 8235 C 794.225 -0.0130974 -6.12099 0
M  V30 8236 N 793.362 0.839525 -6.97063 0
M  V30 8237 H 798.202 -0.898113 -2.84144 0
M  V30 8238 H 795.739 -0.454537 -1.39901 0
M  V30 8239 H 797.697 1.31578 -3.95908 0
M  V30 8240 H 796.327 1.53585 -2.83922 0
M  V30 8241 H 795.379 -0.711469 -3.73687 0
M  V30 8242 H 796.691 -0.716482 -4.93627 0
M  V30 8243 H 795.845 1.43542 -5.89475 0
M  V30 8244 H 794.584 1.52423 -4.63269 0
M  V30 8245 H 793.589 -0.626179 -5.46223 0
M  V30 8246 H 794.814 -0.699181 -6.75491 0
M  V30 8247 H 792.76 1.5138 -6.38295 0
M  V30 8248 H 792.677 0.240823 -7.55616 0
M  V30 8249 H 793.945 1.42513 -7.66362 0
M  V30 8250 N 798.174 1.49689 -0.493057 0
M  V30 8251 C 799.121 2.28976 0.28959 0
M  V30 8252 C 800.091 1.35011 0.967536 0
M  V30 8253 O 801.276 1.63964 0.975736 0
M  V30 8254 C 798.416 3.1748 1.35279 0
M  V30 8255 C 797.529 4.26496 0.687418 0
M  V30 8256 C 796.664 5.02226 1.73038 0
M  V30 8257 C 795.703 6.03089 1.04645 0
M  V30 8258 N 794.84 6.72014 2.03325 0
M  V30 8259 H 799.68 2.954 -0.392798 0
M  V30 8260 H 797.217 1.45657 -0.205554 0
M  V30 8261 H 799.175 3.67162 1.98111 0
M  V30 8262 H 797.805 2.53057 2.00405 0
M  V30 8263 H 796.857 3.80362 -0.0540001 0
M  V30 8264 H 798.169 4.98578 0.14864 0
M  V30 8265 H 797.323 5.55737 2.43395 0
M  V30 8266 H 796.062 4.29899 2.303 0
M  V30 8267 H 795.067 5.48817 0.328606 0
M  V30 8268 H 796.292 6.77398 0.480428 0
M  V30 8269 H 794.238 6.02464 2.59564 0
M  V30 8270 H 794.155 7.40046 1.54492 0
M  V30 8271 H 795.423 7.30133 2.72995 0
M  V30 8272 N 799.652 0.226554 1.55963 0
M  V30 8273 C 800.877 -0.411527 2.03276 0
M  V30 8274 C 801.302 -1.52206 1.10521 0
M  V30 8275 O 800.66 -1.81054 0.0943217 0
M  V30 8276 C 800.708 -0.915694 3.4878 0
M  V30 8277 O 799.812 -2.02672 3.59163 0
M  V30 8278 H 799.153 -0.0924907 0.657527 0
M  V30 8279 H 801.683 0.346656 2.01642 0
M  V30 8280 H 801.693 -1.22421 3.892 0
M  V30 8281 H 800.368 -0.102915 4.15773 0
M  V30 8282 H 798.945 -1.72445 3.30632 0
M  V30 8283 N 801.13 -1.57531 -0.0467866 0
M  V30 8284 C 802.376 -1.8873 -0.742218 0
M  V30 8285 C 802.709 -0.822084 -1.75941 0
M  V30 8286 O 801.984 0.164922 -1.938 0
M  V30 8287 C 802.267 -3.30586 -1.42776 0
M  V30 8288 C 802.12 -4.47785 -0.425285 0
M  V30 8289 C 803.439 -3.71068 -2.36636 0
M  V30 8290 H 800.558 -0.686406 -0.268359 0
M  V30 8291 H 803.2 -1.89999 -0.00511341 0
M  V30 8292 H 801.35 -3.29634 -2.05605 0
M  V30 8293 H 803.022 -4.60867 0.199721 0
M  V30 8294 H 801.265 -4.33037 0.25713 0
M  V30 8295 H 801.936 -5.43884 -0.943086 0
M  V30 8296 H 804.412 -3.73273 -1.83866 0
M  V30 8297 H 803.288 -4.71165 -2.81593 0
M  V30 8298 H 803.549 -3.02355 -3.22542 0
M  V30 8299 N 802.608 0.318715 -1.54344 0
M  V30 8300 C 803.856 1.054 -1.72439 0
M  V30 8301 C 804.177 1.88388 -0.503495 0
M  V30 8302 O 803.447 1.89866 0.48246 0
M  V30 8303 H 802.027 0.392124 -0.635805 0
M  V30 8304 H 804.689 0.35398 -1.91659 0
M  V30 8305 H 803.785 1.71726 -2.60608 0
M  V30 8306 N 804.086 1.46499 0.581025 0
M  V30 8307 C 805.016 1.60052 1.70017 0
M  V30 8308 C 805.997 0.450788 1.64018 0
M  V30 8309 O 807.182 0.677237 1.82009 0
M  V30 8310 C 804.312 1.5921 3.08658 0
M  V30 8311 C 803.266 2.73169 3.29488 0
M  V30 8312 C 802.592 2.57389 4.68674 0
M  V30 8313 C 803.892 4.14978 3.1716 0
M  V30 8314 H 805.586 2.53735 1.5893 0
M  V30 8315 H 803.132 1.22113 0.763173 0
M  V30 8316 H 805.085 1.67285 3.86773 0
M  V30 8317 H 803.809 0.620718 3.20647 0
M  V30 8318 H 802.468 2.64566 2.53773 0
M  V30 8319 H 802.116 1.58331 4.77431 0
M  V30 8320 H 801.816 3.33826 4.83564 0
M  V30 8321 H 803.34 2.67358 5.48956 0
M  V30 8322 H 804.754 4.24684 3.85119 0
M  V30 8323 H 803.151 4.92016 3.4357 0
M  V30 8324 H 804.221 4.35016 2.14218 0
M  V30 8325 N 805.565 -0.825799 1.34232 0
M  V30 8326 C 806.976 -1.39835 1.23706 0
M  V30 8327 C 807.327 -1.95709 -0.138649 0
M  V30 8328 O 806.452 -1.89833 -1.03886 0
M  V30 8329 C 807.047 -2.54203 2.23978 0
M  V30 8330 C 805.606 -3.07374 2.17251 0
M  V30 8331 C 804.753 -1.80232 2.10741 0
M  V30 8332 H 807.704 -0.630442 1.4564 0
M  V30 8333 H 807.725 -3.32214 1.8551 0
M  V30 8334 H 807.237 -2.13506 3.24094 0
M  V30 8335 H 805.338 -3.52583 1.20483 0
M  V30 8336 H 805.451 -3.6666 3.08379 0
M  V30 8337 H 803.815 -2.01012 1.56417 0
M  V30 8338 H 804.598 -1.41713 3.12686 0
M  V30 8339 N 807.043 -1.17915 -1.04565 0
M  V30 8340 C 808.289 -0.972863 -1.77942 0
M  V30 8341 C 808.622 0.496753 -1.87739 0
M  V30 8342 O 807.897 1.3688 -1.38181 0
M  V30 8343 C 808.18 -1.62227 -3.21488 0
M  V30 8344 C 808.033 -3.16441 -3.19664 0
M  V30 8345 C 809.352 -1.33137 -4.19479 0
M  V30 8346 H 806.471 -0.354843 -0.645953 0
M  V30 8347 H 809.113 -1.45508 -1.22178 0
M  V30 8348 H 807.263 -1.21224 -3.69103 0
M  V30 8349 H 808.935 -3.66544 -2.80077 0
M  V30 8350 H 807.178 -3.48863 -2.57832 0
M  V30 8351 H 807.849 -3.57012 -4.21006 0
M  V30 8352 H 810.325 -1.68654 -3.80388 0
M  V30 8353 H 809.201 -1.81151 -5.18146 0
M  V30 8354 H 809.462 -0.253319 -4.41374 0
M  V30 8355 N 808.521 1.23394 -0.980386 0
M  V30 8356 C 809.484 2.23092 -0.525619 0
M  V30 8357 C 810.484 1.56129 0.384745 0
M  V30 8358 O 811.674 1.73284 0.178439 0
M  V30 8359 C 808.806 3.40074 0.23712 0
M  V30 8360 H 809.999 2.64839 -1.40714 0
M  V30 8361 H 807.552 1.36227 -0.766275 0
M  V30 8362 H 808.287 3.03783 1.13518 0
M  V30 8363 H 808.072 3.89883 -0.416356 0
M  V30 8364 H 809.562 4.14043 0.543892 0
M  V30 8365 N 809.999 0.752036 1.385 0
M  V30 8366 C 811.245 0.307958 2.00448 0
M  V30 8367 C 811.578 -1.10702 1.59558 0
M  V30 8368 O 810.853 -1.75788 0.832391 0
M  V30 8369 C 811.136 0.429092 3.57534 0
M  V30 8370 C 810.989 1.88507 4.08393 0
M  V30 8371 C 812.308 -0.178442 4.39738 0
M  V30 8372 H 809.427 0.113373 0.728228 0
M  V30 8373 H 812.069 0.951389 1.64465 0
M  V30 8374 H 810.219 -0.118695 3.88319 0
M  V30 8375 H 811.891 2.49104 3.88259 0
M  V30 8376 H 810.134 2.40066 3.61318 0
M  V30 8377 H 810.805 1.92099 5.17496 0
M  V30 8378 H 813.281 0.28872 4.15097 0
M  V30 8379 H 812.157 -0.0634349 5.48863 0
M  V30 8380 H 812.418 -1.26655 4.23569 0
M  V30 8381 N 811.477 -1.49425 0.500989 0
M  V30 8382 C 812.409 -2.27037 -0.314159 0
M  V30 8383 C 813.422 -1.33578 -0.930626 0
M  V30 8384 O 814.611 -1.58861 -0.813968 0
M  V30 8385 C 811.711 -3.05968 -1.45729 0
M  V30 8386 C 810.884 -4.27 -0.948135 0
M  V30 8387 C 809.943 -4.87977 -1.96888 0
M  V30 8388 O 808.969 -5.48044 -1.53743 0
M  V30 8389 N 810.171 -4.77627 -3.29928 0
M  V30 8390 H 812.936 -2.97634 0.351336 0
M  V30 8391 H 810.497 -1.58427 0.333536 0
M  V30 8392 H 812.489 -3.43634 -2.1377 0
M  V30 8393 H 811.059 -2.37978 -2.02695 0
M  V30 8394 H 810.279 -3.94091 -0.0926311 0
M  V30 8395 H 811.567 -5.0541 -0.586362 0
M  V30 8396 H 810.965 -4.29926 -3.67669 0
M  V30 8397 H 809.522 -5.19478 -3.93682 0
M  V30 8398 N 812.955 -0.234822 -1.55841 0
M  V30 8399 C 814.195 0.394944 -2.00548 0
M  V30 8400 C 814.559 1.56002 -1.11926 0
M  V30 8401 O 815.76 2.2567 -1.46037 0
M  V30 8402 C 814.031 0.805896 -3.48195 0
M  V30 8403 S 815.59 1.4279 -4.14918 0
M  V30 8404 H 812.408 0.124802 -0.699961 0
M  V30 8405 H 815.01 -0.347224 -1.92392 0
M  V30 8406 H 813.714 -0.0515271 -4.10368 0
M  V30 8407 H 813.245 1.58055 -3.60253 0
M  V30 8408 H 815.26 2.71699 -4.15204 0
M  V30 8409 N 814.433 1.57553 0.0384317 0
M  V30 8410 C 815.679 1.89121 0.732199 0
M  V30 8411 C 816.012 0.831404 1.75503 0
M  V30 8412 O 815.287 -0.154642 1.93884 0
M  V30 8413 C 815.57 3.31338 1.41021 0
M  V30 8414 C 815.423 4.48004 0.401532 0
M  V30 8415 C 816.742 3.72318 2.34665 0
M  V30 8416 H 813.861 0.687819 0.264715 0
M  V30 8417 H 816.503 1.89999 -0.00496279 0
M  V30 8418 H 814.653 3.3072 2.03854 0
M  V30 8419 H 816.325 4.60755 -0.224159 0
M  V30 8420 H 814.568 4.32895 -0.280092 0
M  V30 8421 H 815.239 5.44377 0.91423 0
M  V30 8422 H 817.715 3.74243 1.81883 0
M  V30 8423 H 816.591 4.72652 2.7909 0
M  V30 8424 H 816.852 3.04062 3.20934 0
M  V30 8425 N 815.911 -0.310526 1.54511 0
M  V30 8426 C 816.874 -1.3657 1.84068 0
M  V30 8427 C 817.874 -1.44123 0.713097 0
M  V30 8428 O 819.064 -1.43924 0.981399 0
M  V30 8429 C 816.196 -2.75162 2.01243 0
M  V30 8430 H 817.389 -1.1161 2.78358 0
M  V30 8431 H 814.942 -0.546699 1.46427 0
M  V30 8432 H 815.677 -3.05359 1.09208 0
M  V30 8433 H 815.462 -2.71071 2.83307 0
M  V30 8434 H 816.952 -3.51473 2.25514 0
M  V30 8435 N 817.389 -1.46805 -0.573248 0
M  V30 8436 C 818.319 -1.60951 -1.69165 0
M  V30 8437 C 819.3 -0.45948 -1.63777 0
M  V30 8438 O 820.485 -0.68688 -1.81647 0
M  V30 8439 C 817.615 -1.60844 -3.07809 0
M  V30 8440 C 816.569 -2.74913 -3.28035 0
M  V30 8441 C 815.895 -2.59871 -4.67302 0
M  V30 8442 C 817.195 -4.16654 -3.14955 0
M  V30 8443 H 818.889 -2.54574 -1.57582 0
M  V30 8444 H 816.435 -1.22516 -0.756686 0
M  V30 8445 H 818.388 -1.69334 -3.85881 0
M  V30 8446 H 817.112 -0.637714 -3.20314 0
M  V30 8447 H 815.771 -2.65908 -2.52366 0
M  V30 8448 H 815.419 -1.60861 -4.76585 0
M  V30 8449 H 815.119 -3.36386 -4.81786 0
M  V30 8450 H 816.643 -2.70265 -5.4753 0
M  V30 8451 H 818.057 -4.26721 -3.82861 0
M  V30 8452 H 816.454 -4.93831 -3.40956 0
M  V30 8453 H 817.524 -4.36146 -2.11908 0
M  V30 8454 N 818.867 0.818669 -1.34668 0
M  V30 8455 C 820.278 1.39177 -1.24446 0
M  V30 8456 C 820.629 1.9578 0.128268 0
M  V30 8457 O 819.754 1.90382 1.02877 0
M  V30 8458 C 820.349 2.53012 -2.25323 0
M  V30 8459 C 818.908 3.06218 -2.18878 0
M  V30 8460 C 818.055 1.79112 -2.11694 0
M  V30 8461 H 821.006 0.622709 -1.45973 0
M  V30 8462 H 821.027 3.31226 -1.8727 0
M  V30 8463 H 820.539 2.11784 -3.25221 0
M  V30 8464 H 818.64 3.51939 -1.22351 0
M  V30 8465 H 818.753 3.65019 -3.10319 0
M  V30 8466 H 817.117 2.0018 -1.57481 0
M  V30 8467 H 817.9 1.40053 -3.13433 0
M  V30 8468 N 820.346 1.18468 1.03938 0
M  V30 8469 C 821.592 0.992302 1.77553 0
M  V30 8470 C 821.947 -0.472959 1.86496 0
M  V30 8471 O 821.24 -1.34662 1.36296 0
M  V30 8472 C 821.434 1.58229 3.20466 0
M  V30 8473 C 821.263 3.1034 3.25452 0
M  V30 8474 C 820.033 3.79166 3.34008 0
M  V30 8475 C 822.231 4.07814 3.13357 0
M  V30 8476 N 820.213 5.18768 3.28258 0
M  V30 8477 C 821.584 5.33946 3.15121 0
M  V30 8478 C 823.639 3.99315 2.97409 0
M  V30 8479 C 822.342 6.52565 3.02574 0
M  V30 8480 C 824.368 5.17532 2.86208 0
M  V30 8481 C 823.73 6.42557 2.88617 0
M  V30 8482 H 819.829 0.417131 0.661457 0
M  V30 8483 H 822.413 1.50265 1.23808 0
M  V30 8484 H 820.584 1.0981 3.72554 0
M  V30 8485 H 822.316 1.32531 3.82384 0
M  V30 8486 H 819.071 3.29905 3.39794 0
M  V30 8487 H 819.495 5.91783 3.28818 0
M  V30 8488 H 824.137 3.03485 2.94375 0
M  V30 8489 H 821.855 7.48592 3.0436 0
M  V30 8490 H 825.441 5.12748 2.7492 0
M  V30 8491 H 824.321 7.32494 2.80039 0
M  V30 8492 N 821.824 -1.22873 0.986916 0
M  V30 8493 C 822.756 -2.23889 0.490537 0
M  V30 8494 C 823.769 -1.57523 -0.411144 0
M  V30 8495 O 824.958 -1.7721 -0.214236 0
M  V30 8496 C 822.058 -3.37488 -0.30902 0
M  V30 8497 C 821.231 -4.33438 0.587354 0
M  V30 8498 C 820.29 -5.25958 -0.159467 0
M  V30 8499 O 819.316 -5.67394 0.453115 0
M  V30 8500 N 820.518 -5.62265 -1.44355 0
M  V30 8501 H 823.283 -2.67109 1.35914 0
M  V30 8502 H 820.844 -1.37111 0.860937 0
M  V30 8503 H 822.836 -3.96365 -0.817139 0
M  V30 8504 H 821.406 -2.934 -1.07868 0
M  V30 8505 H 820.626 -3.72969 1.27622 0
M  V30 8506 H 821.914 -4.94495 1.19801 0
M  V30 8507 H 821.312 -5.30562 -1.96266 0
M  V30 8508 H 819.869 -6.23585 -1.89698 0
M  V30 8509 N 823.302 -0.75937 -1.38099 0
M  V30 8510 C 824.212 -0.13774 -2.34195 0
M  V30 8511 C 825.228 0.693985 -1.59561 0
M  V30 8512 O 826.404 0.616792 -1.91723 0
M  V30 8513 C 823.469 0.740535 -3.38699 0
M  V30 8514 C 822.53 -0.106225 -4.29169 0
M  V30 8515 C 821.763 0.730225 -5.28681 0
M  V30 8516 O 821.986 1.96796 -5.35376 0
M  V30 8517 O 820.92 0.145969 -6.01723 0
M  V30 8518 H 824.746 -0.931512 -2.89061 0
M  V30 8519 H 822.331 -0.520345 -1.40046 0
M  V30 8520 H 824.213 1.24232 -4.02672 0
M  V30 8521 H 822.888 1.51271 -2.8618 0
M  V30 8522 H 821.795 -0.654088 -3.68337 0
M  V30 8523 H 823.128 -0.841186 -4.84959 0
M  V30 8524 N 824.78 1.49157 -0.508906 0
M  V30 8525 C 825.69 2.33045 0.269656 0
M  V30 8526 C 826.706 1.45143 0.959662 0
M  V30 8527 O 827.882 1.78155 0.939295 0
M  V30 8528 C 824.947 3.20772 1.31554 0
M  V30 8529 C 824.008 4.24531 0.638131 0
M  V30 8530 C 823.241 5.08065 1.63418 0
M  V30 8531 O 823.464 4.93238 2.86483 0
M  V30 8532 O 822.398 5.90117 1.18516 0
M  V30 8533 H 826.224 3.00821 -0.417183 0
M  V30 8534 H 823.809 1.46938 -0.270119 0
M  V30 8535 H 825.691 3.75095 1.92047 0
M  V30 8536 H 824.366 2.55681 1.98516 0
M  V30 8537 H 823.273 3.74099 -0.00674357 0
M  V30 8538 H 824.606 4.92199 0.0108155 0
M  V30 8539 N 826.258 0.243083 1.55714 0
M  V30 8540 C 827.188 -0.652336 2.24203 0
M  V30 8541 C 828.169 -1.1843 1.221 0
M  V30 8542 O 829.354 -1.22435 1.50743 0
M  V30 8543 C 826.484 -1.85111 2.93856 0
M  V30 8544 C 825.438 -1.45208 4.02615 0
M  V30 8545 C 824.764 -2.73137 4.59674 0
M  V30 8546 C 826.064 -0.625988 5.18535 0
M  V30 8547 H 827.758 -0.0812504 2.9929 0
M  V30 8548 H 825.304 -0.0376388 1.43951 0
M  V30 8549 H 827.257 -2.48314 3.40468 0
M  V30 8550 H 825.981 -2.44751 2.16251 0
M  V30 8551 H 824.64 -0.843406 3.56766 0
M  V30 8552 H 824.288 -3.30967 3.78774 0
M  V30 8553 H 823.988 -2.47163 5.33089 0
M  V30 8554 H 825.512 -3.37245 5.09017 0
M  V30 8555 H 826.926 -1.16223 5.61396 0
M  V30 8556 H 825.323 -0.462465 5.98315 0
M  V30 8557 H 826.393 0.362652 4.83542 0
M  V30 8558 N 827.736 -1.57571 -0.0300757 0
M  V30 8559 C 828.976 -1.91074 -0.725946 0
M  V30 8560 C 829.34 -0.841545 -1.72575 0
M  V30 8561 O 830.541 -1.06088 -2.46979 0
M  V30 8562 C 828.812 -3.2973 -1.37888 0
M  V30 8563 S 830.371 -3.85065 -2.10405 0
M  V30 8564 H 827.189 -0.669084 -0.240515 0
M  V30 8565 H 829.791 -1.9549 0.019384 0
M  V30 8566 H 828.495 -4.05411 -0.637974 0
M  V30 8567 H 828.026 -3.28614 -2.16278 0
M  V30 8568 H 830.041 -3.63711 -3.37533 0
M  V30 8569 N 829.214 0.302327 -1.54673 0
M  V30 8570 C 830.144 1.37759 -1.88533 0
M  V30 8571 C 831.125 1.52961 -0.744113 0
M  V30 8572 O 832.31 1.6649 -0.999731 0
M  V30 8573 C 829.44 2.74201 -2.13146 0
M  V30 8574 C 828.394 2.73765 -3.28993 0
M  V30 8575 C 827.72 4.13483 -3.39022 0
M  V30 8576 C 829.02 2.35624 -4.66132 0
M  V30 8577 H 830.714 1.0967 -2.78591 0
M  V30 8578 H 828.26 0.52613 -1.34044 0
M  V30 8579 H 830.213 3.49508 -2.35419 0
M  V30 8580 H 828.937 3.03812 -1.19858 0
M  V30 8581 H 827.596 2.00914 -3.06642 0
M  V30 8582 H 827.244 4.40269 -2.43253 0
M  V30 8583 H 826.944 4.14093 -4.16894 0
M  V30 8584 H 828.468 4.90572 -3.63553 0
M  V30 8585 H 829.882 3.00647 -4.88143 0
M  V30 8586 H 828.279 2.47449 -5.46707 0
M  V30 8587 H 829.349 1.30753 -4.66939 0
M  V30 8588 N 830.692 1.47107 0.565454 0
M  V30 8589 C 832.108 1.32443 0.890566 0
M  V30 8590 C 832.308 0.308735 1.99121 0
M  V30 8591 O 831.364 -0.28265 2.50913 0
M  V30 8592 C 832.677 2.71548 1.2916 0
M  V30 8593 C 834.225 2.7977 1.40349 0
M  V30 8594 C 834.7 4.19497 1.83811 0
M  V30 8595 N 836.191 4.21998 1.90975 0
M  V30 8596 C 836.926 5.2702 2.25916 0
M  V30 8597 N 836.422 6.42353 2.59527 0
M  V30 8598 N 838.215 5.14393 2.26619 0
M  V30 8599 H 830.366 2.11786 -0.161328 0
M  V30 8600 H 832.629 0.947952 -0.00950631 0
M  V30 8601 H 832.335 3.47265 0.556753 0
M  V30 8602 H 832.209 3.02782 2.24951 0
M  V30 8603 H 834.596 2.0433 2.12916 0
M  V30 8604 H 834.677 2.522 0.427655 0
M  V30 8605 H 834.321 4.95439 1.11816 0
M  V30 8606 H 834.251 4.44486 2.82382 0
M  V30 8607 H 836.742 3.38791 1.6742 0
M  V30 8608 H 837.055 7.18252 2.85191 0
M  V30 8609 H 835.4 6.45687 2.57126 0
M  V30 8610 H 838.591 4.2332 1.99794 0
M  V30 8611 H 838.764 5.96349 2.5352 0
M  V30 8612 N 832.17 -0.811516 1.35101 0
M  V30 8613 C 833.417 -1.56835 1.28098 0
M  V30 8614 C 833.745 -1.93951 -0.14597 0
M  V30 8615 O 833 -1.61173 -1.11004 0
M  V30 8616 C 833.299 -2.87121 2.1283 0
M  V30 8617 C 832.965 -2.69245 3.61688 0
M  V30 8618 C 831.627 -2.64078 4.02264 0
M  V30 8619 C 833.979 -2.52122 4.56162 0
M  V30 8620 C 831.307 -2.39724 5.3549 0
M  V30 8621 C 833.659 -2.29298 5.89581 0
M  V30 8622 C 832.323 -2.2255 6.29307 0
M  V30 8623 H 831.593 -0.5739 0.468742 0
M  V30 8624 H 834.24 -0.93806 1.66951 0
M  V30 8625 H 832.545 -3.54502 1.66841 0
M  V30 8626 H 834.242 -3.44788 2.0475 0
M  V30 8627 H 830.832 -2.74112 3.29485 0
M  V30 8628 H 835.016 -2.5513 4.25702 0
M  V30 8629 H 830.272 -2.32965 5.65276 0
M  V30 8630 H 834.446 -2.15038 6.62368 0
M  V30 8631 H 832.073 -2.0344 7.32473 0
M  V30 8632 N 833.648 -1.19017 -1.03309 0
M  V30 8633 C 834.581 -0.867457 -2.1107 0
M  V30 8634 C 835.559 0.173752 -1.61669 0
M  V30 8635 O 836.743 0.0510077 -1.88431 0
M  V30 8636 C 833.87 -0.297459 -3.37391 0
M  V30 8637 C 832.916 -1.31706 -4.05655 0
M  V30 8638 S 833.749 -2.87591 -4.51721 0
M  V30 8639 C 834.905 -2.32122 -5.81266 0
M  V30 8640 H 835.138 -1.78008 -2.38119 0
M  V30 8641 H 832.671 -1.01686 -1.16187 0
M  V30 8642 H 834.629 0.0248889 -4.10492 0
M  V30 8643 H 833.29 0.5934 -3.08444 0
M  V30 8644 H 832.483 -0.867264 -4.96482 0
M  V30 8645 H 832.085 -1.58603 -3.38705 0
M  V30 8646 H 834.377 -1.70855 -6.55603 0
M  V30 8647 H 835.32 -3.2128 -6.31019 0
M  V30 8648 H 835.728 -1.74858 -5.36736 0
M  V30 8649 N 835.127 1.22348 -0.993418 0
M  V30 8650 C 836.543 1.43222 -0.704238 0
M  V30 8651 C 836.743 1.88009 0.724909 0
M  V30 8652 O 835.799 2.03429 1.49575 0
M  V30 8653 C 837.112 2.47328 -1.71025 0
M  V30 8654 C 838.66 2.61126 -1.72576 0
M  V30 8655 C 839.135 3.68453 -2.72041 0
M  V30 8656 N 840.626 3.75911 -2.70639 0
M  V30 8657 C 841.361 4.58551 -3.44266 0
M  V30 8658 N 840.857 5.45179 -4.27495 0
M  V30 8659 N 842.65 4.52866 -3.32969 0
M  V30 8660 H 834.801 0.915832 -1.91641 0
M  V30 8661 H 837.064 0.464283 -0.826526 0
M  V30 8662 H 836.77 2.21366 -2.73295 0
M  V30 8663 H 836.644 3.45939 -1.50353 0
M  V30 8664 H 839.031 2.86431 -0.710037 0
M  V30 8665 H 839.112 1.62787 -1.97317 0
M  V30 8666 H 838.756 3.43895 -3.73763 0
M  V30 8667 H 838.686 4.66362 -2.4457 0
M  V30 8668 H 841.177 3.14014 -2.10247 0
M  V30 8669 H 841.49 6.0526 -4.80499 0
M  V30 8670 H 839.835 5.44759 -4.31582 0
M  V30 8671 H 843.026 3.84215 -2.67389 0
M  V30 8672 H 843.199 5.17039 -3.90608 0
M  V30 8673 N 836.605 0.766683 1.37694 0
M  V30 8674 C 837.515 0.150158 2.34119 0
M  V30 8675 C 838.531 -0.685513 1.59927 0
M  V30 8676 O 839.707 -0.606616 1.92047 0
M  V30 8677 C 836.772 -0.722562 3.39087 0
M  V30 8678 C 835.833 0.128983 4.29106 0
M  V30 8679 C 835.066 -0.702178 5.29061 0
M  V30 8680 O 835.289 -1.93954 5.36412 0
M  V30 8681 O 834.223 -0.114056 6.01792 0
M  V30 8682 H 838.049 0.946829 2.88563 0
M  V30 8683 H 835.634 0.527765 1.39768 0
M  V30 8684 H 837.516 -1.22095 4.03325 0
M  V30 8685 H 836.191 -1.49751 2.86978 0
M  V30 8686 H 835.098 0.673612 3.67985 0
M  V30 8687 H 836.431 0.866892 4.84506 0
M  V30 8688 N 838.083 -1.48885 0.516809 0
M  V30 8689 C 839.329 -2.02788 -0.0220928 0
M  V30 8690 C 839.662 -1.39433 -1.35175 0
M  V30 8691 O 838.937 -0.535459 -1.86984 0
M  V30 8692 C 839.22 -3.59753 -0.158012 0
M  V30 8693 C 839.073 -4.33611 1.19588 0
M  V30 8694 C 840.392 -4.30984 -0.891133 0
M  V30 8695 H 837.511 -0.736971 -0.00655488 0
M  V30 8696 H 840.153 -1.77746 0.671287 0
M  V30 8697 H 838.303 -3.8122 -0.748568 0
M  V30 8698 H 839.975 -4.23598 1.82653 0
M  V30 8699 H 838.218 -3.95547 1.78116 0
M  V30 8700 H 838.889 -5.41846 1.05391 0
M  V30 8701 H 841.365 -4.14267 -0.39012 0
M  V30 8702 H 840.241 -5.40527 -0.955107 0
M  V30 8703 H 840.502 -3.97336 -1.93847 0
M  V30 8704 N 839.561 -0.251338 -1.55583 0
M  V30 8705 C 840.471 0.656978 -2.25213 0
M  V30 8706 C 841.487 1.18966 -1.26977 0
M  V30 8707 O 842.663 1.22499 -1.59862 0
M  V30 8708 C 839.728 1.83527 -2.94141 0
M  V30 8709 C 838.789 1.34162 -4.07798 0
M  V30 8710 C 838.022 2.46375 -4.73429 0
M  V30 8711 O 838.245 3.65205 -4.38157 0
M  V30 8712 O 837.179 2.15881 -5.61853 0
M  V30 8713 H 841.005 0.0936395 -3.03556 0
M  V30 8714 H 838.59 -0.0196638 -1.49387 0
M  V30 8715 H 840.472 2.52279 -3.3754 0
M  V30 8716 H 839.147 2.38614 -2.18735 0
M  V30 8717 H 838.054 0.621249 -3.68906 0
M  V30 8718 H 839.387 0.836779 -4.85035 0
M  V30 8719 N 841.039 1.57585 0.0217189 0
M  V30 8720 C 842.455 1.55072 0.377484 0
M  V30 8721 C 842.655 0.978423 1.76151 0
M  V30 8722 O 841.711 0.602688 2.45202 0
M  V30 8723 C 843.024 2.99462 0.272605 0
M  V30 8724 C 844.572 3.11047 0.349148 0
M  V30 8725 C 845.047 4.57182 0.273636 0
M  V30 8726 N 846.538 4.62007 0.332206 0
M  V30 8727 C 847.273 5.72631 0.296782 0
M  V30 8728 N 846.769 6.92472 0.21322 0
M  V30 8729 N 848.562 5.61028 0.347053 0
M  V30 8730 H 840.713 1.93133 -0.883925 0
M  V30 8731 H 842.976 0.886151 -0.33681 0
M  V30 8732 H 842.682 3.45088 -0.67878 0
M  V30 8733 H 842.556 3.61901 1.06335 0
M  V30 8734 H 844.943 2.65364 1.29097 0
M  V30 8735 H 845.024 2.51425 -0.471085 0
M  V30 8736 H 844.668 5.03534 -0.664548 0
M  V30 8737 H 844.598 5.14724 1.11207 0
M  V30 8738 H 847.089 3.75788 0.399003 0
M  V30 8739 H 847.402 7.72563 0.191492 0
M  V30 8740 H 845.747 6.94769 0.179161 0
M  V30 8741 H 848.938 4.66298 0.410378 0
M  V30 8742 H 849.111 6.47229 0.315979 0
M  V30 8743 N 842.517 -0.29412 1.54831 0
M  V30 8744 C 843.447 -1.36757 1.89261 0
M  V30 8745 C 844.428 -1.52564 0.752214 0
M  V30 8746 O 845.613 -1.65958 1.00855 0
M  V30 8747 C 842.743 -2.73066 2.14597 0
M  V30 8748 C 841.697 -2.72017 3.3044 0
M  V30 8749 C 841.023 -4.11679 3.4121 0
M  V30 8750 C 842.323 -2.33149 4.67375 0
M  V30 8751 H 844.017 -1.08191 2.79169 0
M  V30 8752 H 841.563 -0.519014 1.34321 0
M  V30 8753 H 843.516 -3.48255 2.37269 0
M  V30 8754 H 842.24 -3.03172 1.21467 0
M  V30 8755 H 840.899 -1.99285 3.07703 0
M  V30 8756 H 840.547 -4.38973 2.45584 0
M  V30 8757 H 840.247 -4.11877 4.19084 0
M  V30 8758 H 841.771 -4.88637 3.6615 0
M  V30 8759 H 843.185 -2.98054 4.89731 0
M  V30 8760 H 841.582 -2.44546 5.48012 0
M  V30 8761 H 842.652 -1.28275 4.67626 0
M  V30 8762 N 843.995 -1.47404 -0.557645 0
M  V30 8763 C 844.928 -1.54399 -1.68036 0
M  V30 8764 C 845.906 -0.396175 -1.577 0
M  V30 8765 O 847.09 -0.603911 -1.78564 0
M  V30 8766 C 844.217 -1.44611 -3.06277 0
M  V30 8767 C 843.263 -2.63889 -3.35059 0
M  V30 8768 S 844.096 -4.26086 -3.24362 0
M  V30 8769 C 845.252 -4.1885 -4.65097 0
M  V30 8770 H 845.485 -2.49384 -1.61849 0
M  V30 8771 H 843.018 -1.35597 -0.738429 0
M  V30 8772 H 844.976 -1.39651 -3.86015 0
M  V30 8773 H 843.637 -0.510114 -3.0993 0
M  V30 8774 H 842.83 -2.53103 -4.35838 0
M  V30 8775 H 842.432 -2.65969 -2.62938 0
M  V30 8776 H 844.724 -3.87077 -5.56037 0
M  V30 8777 H 845.667 -5.19714 -4.8094 0
M  V30 8778 H 846.075 -3.49717 -4.43123 0
M  V30 8779 N 845.473 0.80434 -1.35529 0
M  V30 8780 C 846.701 1.59283 -1.32048 0
M  V30 8781 C 847.116 1.88527 0.101556 0
M  V30 8782 O 846.473 1.48975 1.05417 0
M  V30 8783 C 846.524 2.92276 -2.12737 0
M  V30 8784 O 846.245 2.64299 -3.49396 0
M  V30 8785 C 847.746 3.86631 -2.16867 0
M  V30 8786 H 844.966 0.494523 -0.453528 0
M  V30 8787 H 847.51 0.999415 -1.78415 0
M  V30 8788 H 845.665 3.48125 -1.69964 0
M  V30 8789 H 846.079 3.4923 -3.91329 0
M  V30 8790 H 847.553 4.77053 -2.77712 0
M  V30 8791 H 848.03 4.23384 -1.16803 0
M  V30 8792 H 848.636 3.36717 -2.59811 0
M  V30 8793 N 846.951 1.19563 1.02676 0
M  V30 8794 C 848.362 1.00158 1.57561 0
M  V30 8795 C 848.713 -0.444922 1.91089 0
M  V30 8796 O 847.838 -1.32466 1.71119 0
M  V30 8797 C 848.433 1.81181 2.86284 0
M  V30 8798 C 846.992 1.66171 3.37734 0
M  V30 8799 C 846.139 1.7975 2.11152 0
M  V30 8800 H 849.09 1.33904 0.85179 0
M  V30 8801 H 849.111 1.30916 3.57269 0
M  V30 8802 H 848.623 2.86454 2.6185 0
M  V30 8803 H 846.724 0.634927 3.6715 0
M  V30 8804 H 846.837 2.46832 4.10622 0
M  V30 8805 H 845.201 1.22833 2.23123 0
M  V30 8806 H 845.984 2.86487 1.89157 0
M  V30 8807 N 848.429 -1.21819 0.999893 0
M  V30 8808 C 849.339 -2.27691 0.565159 0
M  V30 8809 C 850.355 -1.69587 -0.389398 0
M  V30 8810 O 851.531 -1.99786 -0.254499 0
M  V30 8811 C 848.596 -3.46537 -0.106432 0
M  V30 8812 C 847.657 -4.19932 0.891964 0
M  V30 8813 C 846.89 -5.33103 0.252327 0
M  V30 8814 O 847.113 -5.62398 -0.952103 0
M  V30 8815 O 846.047 -5.94184 0.960698 0
M  V30 8816 H 849.873 -2.67059 1.44613 0
M  V30 8817 H 847.458 -1.28119 0.768499 0
M  V30 8818 H 849.34 -4.18631 -0.482301 0
M  V30 8819 H 848.015 -3.09079 -0.961865 0
M  V30 8820 H 846.922 -3.5008 1.3189 0
M  V30 8821 H 848.255 -4.61287 1.71682 0
M  V30 8822 N 849.908 -0.773975 -1.37286 0
M  V30 8823 C 850.855 -0.159938 -2.30245 0
M  V30 8824 C 851.825 0.687356 -1.51211 0
M  V30 8825 O 853.01 0.639255 -1.79773 0
M  V30 8826 C 850.15 0.711452 -3.37687 0
M  V30 8827 C 849.263 -0.152692 -4.3173 0
M  V30 8828 C 848.398 0.723613 -5.26248 0
M  V30 8829 C 847.437 -0.14293 -6.11933 0
M  V30 8830 N 846.574 0.691479 -6.98687 0
M  V30 8831 H 851.414 -0.958182 -2.82175 0
M  V30 8832 H 848.951 -0.48411 -1.38906 0
M  V30 8833 H 850.909 1.2315 -3.9861 0
M  V30 8834 H 849.539 1.47528 -2.87116 0
M  V30 8835 H 848.591 -0.790574 -3.72094 0
M  V30 8836 H 849.903 -0.821027 -4.91997 0
M  V30 8837 H 849.057 1.31006 -5.92387 0
M  V30 8838 H 847.796 1.42562 -4.66398 0
M  V30 8839 H 846.801 -0.7419 -5.44771 0
M  V30 8840 H 848.026 -0.842305 -6.73856 0
M  V30 8841 H 845.972 1.37806 -6.41362 0
M  V30 8842 H 845.889 0.0804911 -7.55957 0
M  V30 8843 H 847.157 1.26225 -7.69212 0
M  V30 8844 N 851.386 1.48609 -0.524698 0
M  V30 8845 C 852.318 2.27508 0.278 0
M  V30 8846 C 853.331 1.35042 0.909258 0
M  V30 8847 O 854.52 1.60136 0.788592 0
M  V30 8848 C 851.62 3.08247 1.40843 0
M  V30 8849 C 850.793 4.28455 0.880083 0
M  V30 8850 C 849.852 4.91048 1.891 0
M  V30 8851 O 848.878 5.5042 1.45005 0
M  V30 8852 N 850.08 4.82816 3.22288 0
M  V30 8853 H 852.845 2.97037 -0.398642 0
M  V30 8854 H 850.406 1.57876 -0.358698 0
M  V30 8855 H 852.398 3.46992 2.08276 0
M  V30 8856 H 850.968 2.41173 1.98883 0
M  V30 8857 H 850.188 3.94189 0.0299228 0
M  V30 8858 H 851.476 5.06279 0.505881 0
M  V30 8859 H 850.874 4.3572 3.60783 0
M  V30 8860 H 849.431 5.25676 3.85368 0
M  V30 8861 N 852.864 0.259585 1.55447 0
M  V30 8862 C 854.089 -0.368317 2.04103 0
M  V30 8863 C 854.514 -1.49827 1.13725 0
M  V30 8864 O 853.872 -1.80814 0.132705 0
M  V30 8865 C 853.92 -0.841506 3.50644 0
M  V30 8866 O 853.024 -1.95008 3.63381 0
M  V30 8867 H 852.365 -0.0785227 0.659341 0
M  V30 8868 H 854.895 0.389349 2.00861 0
M  V30 8869 H 854.905 -1.14138 3.9171 0
M  V30 8870 H 853.58 -0.0147001 4.15897 0
M  V30 8871 H 852.157 -1.65393 3.34215 0
M  V30 8872 N 854.342 -1.57594 -0.0133615 0
M  V30 8873 C 855.567 -1.94649 -0.715996 0
M  V30 8874 C 855.992 -0.860786 -1.67249 0
M  V30 8875 O 855.35 0.182228 -1.80382 0
M  V30 8876 C 855.398 -3.30789 -1.43566 0
M  V30 8877 O 854.502 -3.24148 -2.54955 0
M  V30 8878 H 853.843 -0.635801 -0.191449 0
M  V30 8879 H 856.373 -2.04569 0.0358478 0
M  V30 8880 H 856.383 -3.66045 -1.80208 0
M  V30 8881 H 855.058 -4.09367 -0.734263 0
M  V30 8882 H 853.635 -3.00548 -2.20739 0
M  V30 8883 O 855.859 0.155898 -1.60746 0
M  V30 8884 H 856.55 0.791038 -1.76811 0
M  V30 END ATOM
M  V30 BEGIN BOND
M  V30 END BOND
M  V30 END CTAB
M  END
$$$$
