drugbank_target|O15440 Multidrug resistance-associated protein 5 (DB11672; DB14635)
 OpenBabel12092120363D

  0  0  0     0  0            999 V3000
M  V30 BEGIN CTAB
M  V30 COUNTS 22839 23054 0 0 0
M  V30 BEGIN ATOM
M  V30 1 H -0.908 1.98254 -0.117106 0
M  V30 2 N 0 1.576 0 0
M  V30 3 C 0.933 2.03868 1.02534 0
M  V30 4 C 1.911 0.928543 1.3348 0
M  V30 5 O 3.095 1.19667 1.45644 0
M  V30 6 C 0.222 2.43627 2.35294 0
M  V30 7 C -0.732 3.65373 2.2001 0
M  V30 8 S 0.101 5.13292 1.52614 0
M  V30 9 C 1.257 5.56322 2.86805 0
M  V30 10 H 1.49 2.90518 0.631377 0
M  V30 11 H -0.977 1.52953 0.210867 0
M  V30 12 H 0.981 2.67203 3.11629 0
M  V30 13 H -0.358 1.57376 2.7183 0
M  V30 14 H -1.165 3.90944 3.18086 0
M  V30 15 H -1.563 3.418 1.51819 0
M  V30 16 H 0.729 5.58782 3.83104 0
M  V30 17 H 1.672 6.56266 2.65933 0
M  V30 18 H 2.08 4.83886 2.90714 0
M  V30 19 N 1.4781 -0.272755 1.55222 0
M  V30 20 C 2.4251 -1.33716 1.88119 0
M  V30 21 C 3.3951 -1.49066 0.73271 0
M  V30 22 O 4.5801 -1.63469 0.984002 0
M  V30 23 C 1.7201 -2.69238 2.15882 0
M  V30 24 C 0.8331 -2.62108 3.43399 0
M  V30 25 C -0.0319 -3.89811 3.60861 0
M  V30 26 C -0.9929 -3.77193 4.8207 0
M  V30 27 N -1.8559 -4.9673 4.96189 0
M  V30 28 H 2.9841 -1.04962 2.78903 0
M  V30 29 H 0.5211 -0.507088 1.38083 0
M  V30 30 H 2.4791 -3.48089 2.29978 0
M  V30 31 H 1.1091 -2.96194 1.28331 0
M  V30 32 H 0.1611 -1.74967 3.37773 0
M  V30 33 H 1.4731 -2.48685 4.32386 0
M  V30 34 H 0.6271 -4.77103 3.74777 0
M  V30 35 H -0.6339 -4.06102 2.7006 0
M  V30 36 H -1.6289 -2.88284 4.68159 0
M  V30 37 H -0.4039 -3.62421 5.74307 0
M  V30 38 H -2.4579 -5.13431 4.08319 0
M  V30 39 H -2.5409 -4.85839 5.79221 0
M  V30 40 H -1.2729 -5.85594 5.1449 0
M  V30 41 N 2.9562 -1.48159 -0.537278 0
M  V30 42 C 4.2332 -1.46291 -1.29839 0
M  V30 43 C 4.6132 -0.170613 -2.10409 0
M  V30 44 O 3.9612 0.847746 -2.12192 0
M  V30 45 C 4.1712 -2.72055 -2.18603 0
M  V30 46 C 5.5192 -3.20087 -2.7898 0
M  V30 47 O 6.5432 -2.72921 -2.28894 0
M  V30 48 O 5.4022 -4.02138 -3.70064 0
M  V30 49 H 2.4962 -0.583906 -0.585647 0
M  V30 50 H 5.0422 -1.60384 -0.554534 0
M  V30 51 H 3.8142 -3.57628 -1.58801 0
M  V30 52 H 3.4372 -2.60646 -3.00249 0
M  V30 53 N 4.4343 0.785586 -1.36625 0
M  V30 54 C 5.6833 1.53883 -1.30396 0
M  V30 55 C 5.9963 1.95271 0.113452 0
M  V30 56 O 7.2023 2.69858 0.298142 0
M  V30 57 C 5.6583 2.77808 -2.28802 0
M  V30 58 C 5.2663 2.43574 -3.75999 0
M  V30 59 C 7.0103 3.55783 -2.31558 0
M  V30 60 C 4.9173 3.63919 -4.66173 0
M  V30 61 H 3.8473 0.577678 -0.484566 0
M  V30 62 H 6.4983 0.861705 -1.62009 0
M  V30 63 H 4.8803 3.47339 -1.90188 0
M  V30 64 H 6.0543 1.81916 -4.23371 0
M  V30 65 H 4.3693 1.78803 -3.76056 0
M  V30 66 H 6.9663 4.45205 -2.96137 0
M  V30 67 H 7.3093 3.94644 -1.3252 0
M  V30 68 H 7.8423 2.93235 -2.68809 0
M  V30 69 H 4.5813 3.3015 -5.66287 0
M  V30 70 H 4.1013 4.2473 -4.23515 0
M  V30 71 H 5.7803 4.30901 -4.82632 0
M  V30 72 N 5.9124 1.20967 1.01018 0
M  V30 73 C 7.1894 0.93264 1.71934 0
M  V30 74 C 7.5694 -0.55692 2.03621 0
M  V30 75 O 6.9174 -1.52035 1.7058 0
M  V30 76 C 7.1274 1.81233 2.98254 0
M  V30 77 C 8.4754 2.05804 3.71389 0
M  V30 78 O 9.4994 1.78539 3.08225 0
M  V30 79 O 8.3584 2.51888 4.84989 0
M  V30 80 H 5.4524 0.349272 0.749625 0
M  V30 81 H 7.9984 1.31871 1.06808 0
M  V30 82 H 6.7704 2.82067 2.71208 0
M  V30 83 H 6.3934 1.42674 3.7112 0
M  V30 84 N 7.3905 -1.2043 1.01659 0
M  V30 85 C 8.6395 -1.89118 0.701237 0
M  V30 86 C 8.9525 -1.79705 -0.772358 0
M  V30 87 O 10.1585 -2.43528 -1.20026 0
M  V30 88 C 8.6145 -3.39168 1.20388 0
M  V30 89 C 8.2225 -3.57166 2.70438 0
M  V30 90 C 9.9665 -4.1341 0.963953 0
M  V30 91 C 7.8735 -5.01042 3.14183 0
M  V30 92 H 6.8035 -0.708267 0.2586 0
M  V30 93 H 9.4545 -1.36239 1.22927 0
M  V30 94 H 7.8365 -3.91369 0.603824 0
M  V30 95 H 9.0105 -3.15351 3.35992 0
M  V30 96 H 7.3255 -2.96294 2.92572 0
M  V30 97 H 9.9225 -5.19491 1.26621 0
M  V30 98 H 10.2655 -4.16181 -0.099578 0
M  V30 99 H 10.7985 -3.67309 1.52738 0
M  V30 100 H 7.5375 -5.03426 4.19812 0
M  V30 101 H 7.0575 -5.43668 2.53348 0
M  V30 102 H 8.7365 -5.69623 3.0682 0
M  V30 103 N 8.8686 -0.792821 -1.36206 0
M  V30 104 C 10.1166 -0.366062 -1.98757 0
M  V30 105 C 10.4376 1.0668 -1.63231 0
M  V30 106 O 9.7076 1.73587 -0.907978 0
M  V30 107 H 8.2876 -0.132364 -0.735179 0
M  V30 108 H 10.9496 -1.01562 -1.66347 0
M  V30 109 H 10.0456 -0.460638 -3.08682 0
M  V30 110 N 10.3467 1.47872 -0.545128 0
M  V30 111 C 11.2937 2.29849 0.2093 0
M  V30 112 C 12.2637 1.38313 0.919707 0
M  V30 113 O 13.4487 1.67277 0.917772 0
M  V30 114 C 10.5887 3.22019 1.24088 0
M  V30 115 C 9.7017 4.2864 0.537778 0
M  V30 116 C 8.8367 5.07973 1.5536 0
M  V30 117 C 7.8757 6.06381 0.8348 0
M  V30 118 N 7.0127 6.78717 1.79688 0
M  V30 119 H 11.8527 2.93845 -0.49591 0
M  V30 120 H 9.3897 1.44848 -0.256389 0
M  V30 121 H 11.3477 3.73868 1.85144 0
M  V30 122 H 9.9777 2.59914 1.91428 0
M  V30 123 H 9.0297 3.7994 -0.187046 0
M  V30 124 H 10.3417 4.98793 -0.0258907 0
M  V30 125 H 9.4957 5.63912 2.23803 0
M  V30 126 H 8.2347 4.37693 2.15118 0
M  V30 127 H 7.2397 5.49631 0.136388 0
M  V30 128 H 8.4647 6.78665 0.24313 0
M  V30 129 H 6.4107 6.11177 2.38326 0
M  V30 130 H 6.3277 7.44998 1.28505 0
M  V30 131 H 7.5957 7.39237 2.47282 0
M  V30 132 N 11.8248 0.280983 1.55075 0
M  V30 133 C 12.7348 -0.61388 2.26426 0
M  V30 134 C 13.7508 -1.16521 1.29224 0
M  V30 135 O 14.9268 -1.19426 1.62171 0
M  V30 136 C 11.9918 -1.7788 2.9759 0
M  V30 137 C 11.0528 -1.26355 4.10284 0
M  V30 138 C 10.2858 -2.37295 4.78045 0
M  V30 139 O 10.5088 -3.56777 4.45047 0
M  V30 140 O 9.4428 -2.05119 5.65871 0
M  V30 141 H 13.2688 -0.0356932 3.03679 0
M  V30 142 H 10.8538 0.0481686 1.49322 0
M  V30 143 H 12.7358 -2.45791 3.42293 0
M  V30 144 H 11.4108 -2.34397 2.23249 0
M  V30 145 H 10.3178 -0.550735 3.70024 0
M  V30 146 H 11.6508 -0.744065 4.86543 0
M  V30 147 N 13.3029 -1.57598 0.00835791 0
M  V30 148 C 14.5329 -1.94931 -0.684496 0
M  V30 149 C 14.9409 -0.882233 -1.67372 0
M  V30 150 O 14.2839 0.146621 -1.83114 0
M  V30 151 C 14.3459 -3.283 -1.4649 0
M  V30 152 C 14.0099 -4.52548 -0.63634 0
M  V30 153 C 15.0069 -5.19839 0.0795586 0
M  V30 154 C 12.6919 -4.98942 -0.579849 0
M  V30 155 C 14.6859 -6.3183 0.840843 0
M  V30 156 C 12.3729 -6.10819 0.185155 0
M  V30 157 C 13.3709 -6.77121 0.894227 0
M  V30 158 O 13.0589 -7.86853 1.64673 0
M  V30 159 H 12.7909 -0.647249 -0.19505 0
M  V30 160 H 15.3449 -2.05318 0.0581272 0
M  V30 161 H 13.5749 -3.14345 -2.2522 0
M  V30 162 H 15.2639 -3.50685 -2.04389 0
M  V30 163 H 16.0299 -4.84979 0.0451202 0
M  V30 164 H 11.9089 -4.47155 -1.1213 0
M  V30 165 H 15.4529 -6.83513 1.39483 0
M  V30 166 H 11.3499 -6.4512 0.221384 0
M  V30 167 H 12.1179 -8.03412 1.56432 0
M  V30 168 N 14.781 0.264519 -1.55364 0
M  V30 169 C 16.03 0.992812 -1.75574 0
M  V30 170 C 16.343 1.87142 -0.568979 0
M  V30 171 O 17.549 2.63513 -0.653682 0
M  V30 172 C 16.005 1.81519 -3.10771 0
M  V30 173 C 15.613 0.984839 -4.37041 0
M  V30 174 C 17.357 2.53727 -3.40327 0
M  V30 175 C 15.264 1.80209 -5.63275 0
M  V30 176 H 14.194 0.374412 -0.65447 0
M  V30 177 H 16.845 0.248138 -1.81815 0
M  V30 178 H 15.227 2.60115 -2.98591 0
M  V30 179 H 16.401 0.242455 -4.60162 0
M  V30 180 H 14.716 0.37691 -4.14691 0
M  V30 181 H 17.313 3.15292 -4.3185 0
M  V30 182 H 17.656 3.24447 -2.60845 0
M  V30 183 H 18.189 1.82156 -3.53644 0
M  V30 184 H 14.928 1.13896 -6.45529 0
M  V30 185 H 14.448 2.52022 -5.44284 0
M  V30 186 H 16.127 2.37364 -6.01887 0
M  V30 187 N 16.2591 1.48442 0.529413 0
M  V30 188 C 17.5081 1.55742 1.28169 0
M  V30 189 C 17.8211 0.236511 1.94165 0
M  V30 190 O 19.0271 0.187761 2.7085 0
M  V30 191 C 17.4831 2.74667 2.32564 0
M  V30 192 C 17.0911 4.13402 1.72636 0
M  V30 193 C 18.8351 2.9128 3.08798 0
M  V30 194 C 16.7421 5.23587 2.74975 0
M  V30 195 H 15.6721 0.579796 0.48203 0
M  V30 196 H 18.3231 1.74776 0.559056 0
M  V30 197 H 16.7051 2.49067 3.07866 0
M  V30 198 H 17.8791 4.49022 1.03519 0
M  V30 199 H 16.1941 4.0191 1.08892 0
M  V30 200 H 18.7911 3.70767 3.85274 0
M  V30 201 H 19.1341 2.00757 3.64695 0
M  V30 202 H 19.6671 3.16782 2.40611 0
M  V30 203 H 16.4061 6.16076 2.23897 0
M  V30 204 H 15.9261 4.92454 3.42417 0
M  V30 205 H 17.6051 5.51724 3.37949 0
M  V30 206 N 17.7372 -0.778329 1.37039 0
M  V30 207 C 19.1482 -1.35421 1.28523 0
M  V30 208 C 19.4992 -1.96075 -0.0700901 0
M  V30 209 O 18.6242 -1.93352 -0.971801 0
M  V30 210 C 19.2192 -2.46211 2.32735 0
M  V30 211 C 17.7782 -2.99585 2.27873 0
M  V30 212 C 16.9252 -1.72748 2.16918 0
M  V30 213 H 19.8762 -0.5791 1.47757 0
M  V30 214 H 19.8972 -3.2552 1.9702 0
M  V30 215 H 19.4092 -2.02036 3.31365 0
M  V30 216 H 17.5102 -3.48152 1.32745 0
M  V30 217 H 17.6232 -3.55646 3.21018 0
M  V30 218 H 15.9872 -1.95416 1.63354 0
M  V30 219 H 16.7702 -1.30686 3.17452 0
M  V30 220 N 19.2153 -1.21501 -1.00376 0
M  V30 221 C 20.4403 -1.05977 -1.78279 0
M  V30 222 C 20.8653 0.385994 -1.84097 0
M  V30 223 O 20.2233 1.27849 -1.28547 0
M  V30 224 C 20.2713 -1.66302 -3.19963 0
M  V30 225 O 19.3753 -0.909333 -4.0225 0
M  V30 226 H 18.7163 -0.372906 -0.549397 0
M  V30 227 H 21.2463 -1.6107 -1.26165 0
M  V30 228 H 21.2563 -1.70574 -3.70632 0
M  V30 229 H 19.9313 -2.71515 -3.15043 0
M  V30 230 H 18.5083 -0.941795 -3.60811 0
M  V30 231 N 20.6934 1.19889 -1.02296 0
M  V30 232 C 22.1044 1.71124 -0.746568 0
M  V30 233 C 22.4554 1.81939 0.734335 0
M  V30 234 O 21.5804 1.48639 1.57275 0
M  V30 235 C 22.1754 3.10804 -1.34857 0
M  V30 236 C 20.7344 3.59323 -1.1209 0
M  V30 237 C 19.8814 2.3635 -1.45031 0
M  V30 238 H 22.8324 1.04813 -1.19163 0
M  V30 239 H 22.8534 3.73186 -0.742437 0
M  V30 240 H 22.3654 3.029 -2.42638 0
M  V30 241 H 20.4664 3.7255 -0.0610337 0
M  V30 242 H 20.5794 4.4378 -1.80544 0
M  V30 243 H 18.9434 2.39399 -0.869487 0
M  V30 244 H 19.7264 2.31081 -2.53883 0
M  V30 245 N 22.1715 0.800033 1.35784 0
M  V30 246 C 23.4195 0.376597 1.9856 0
M  V30 247 C 23.7405 -1.05812 1.63795 0
M  V30 248 O 23.0105 -1.73103 0.917171 0
M  V30 249 H 21.5905 0.136261 0.734467 0
M  V30 250 H 24.2525 1.02442 1.65806 0
M  V30 251 H 23.3485 0.477002 3.08433 0
M  V30 252 N 23.6496 -1.47581 0.552962 0
M  V30 253 C 24.8796 -2.06575 0.0320091 0
M  V30 254 C 25.2876 -1.4067 -1.26525 0
M  V30 255 O 24.6306 -0.495808 -1.76883 0
M  V30 256 C 24.6926 -3.58705 -0.238913 0
M  V30 257 C 24.3566 -4.46625 0.968272 0
M  V30 258 C 25.3536 -4.85 1.87274 0
M  V30 259 C 23.0386 -4.88201 1.18175 0
M  V30 260 C 25.0326 -5.63745 2.9744 0
M  V30 261 C 22.7196 -5.66712 2.28651 0
M  V30 262 C 23.7176 -6.04394 3.18114 0
M  V30 263 O 23.4056 -6.81324 4.26676 0
M  V30 264 H 23.1376 -0.674763 0.0408689 0
M  V30 265 H 25.6916 -1.90634 0.764719 0
M  V30 266 H 23.9216 -3.72844 -1.02588 0
M  V30 267 H 25.6106 -3.99735 -0.704731 0
M  V30 268 H 26.3766 -4.53482 1.71984 0
M  V30 269 H 22.2556 -4.58339 0.494593 0
M  V30 270 H 25.7996 -5.93077 3.67296 0
M  V30 271 H 21.6966 -5.97642 2.43915 0
M  V30 272 H 22.4646 -6.99712 4.24671 0
M  V30 273 N 25.1277 -0.289203 -1.54924 0
M  V30 274 C 26.5437 0.0645403 -1.59469 0
M  V30 275 C 26.7437 1.53419 -1.30632 0
M  V30 276 O 25.7997 2.2852 -1.074 0
M  V30 277 C 27.1127 -0.32278 -2.98963 0
M  V30 278 C 28.6607 -0.270564 -3.11828 0
M  V30 279 C 29.1357 -0.632532 -4.53611 0
M  V30 280 N 30.6267 -0.584617 -4.59496 0
M  V30 281 C 31.3617 -0.837314 -5.67254 0
M  V30 282 N 30.8577 -1.15536 -6.83098 0
M  V30 283 N 32.6507 -0.765166 -5.56868 0
M  V30 284 H 24.8017 -1.24714 -1.71931 0
M  V30 285 H 27.0647 -0.504809 -0.802416 0
M  V30 286 H 26.7707 -1.34541 -3.24948 0
M  V30 287 H 26.6447 0.32944 -3.75759 0
M  V30 288 H 29.0317 0.742805 -2.85598 0
M  V30 289 H 29.1127 -0.957242 -2.37214 0
M  V30 290 H 28.7567 -1.64365 -4.80569 0
M  V30 291 H 28.6867 0.07609 -5.26545 0
M  V30 292 H 31.1777 -0.349248 -3.76283 0
M  V30 293 H 31.4907 -1.33447 -7.61191 0
M  V30 294 H 29.8357 -1.19328 -6.84679 0
M  V30 295 H 33.0267 -0.516432 -4.65243 0
M  V30 296 H 33.1997 -0.965477 -6.40767 0
M  V30 297 N 26.6058 1.57591 -0.0167156 0
M  V30 298 C 27.8308 1.9598 0.67872 0
M  V30 299 C 28.2558 0.892546 1.65575 0
M  V30 300 O 27.6138 -0.147772 1.80697 0
M  V30 301 C 27.6618 3.33468 1.37227 0
M  V30 302 O 26.7658 3.28954 2.48722 0
M  V30 303 H 26.1068 0.639339 0.17928 0
M  V30 304 H 28.6368 2.04463 -0.0748802 0
M  V30 305 H 28.6468 3.69417 1.7319 0
M  V30 306 H 27.3218 4.10694 0.656007 0
M  V30 307 H 25.8988 3.04705 2.14963 0
M  V30 308 N 28.0839 -0.256276 1.55502 0
M  V30 309 C 29.3299 -0.987079 1.77157 0
M  V30 310 C 29.6629 -1.85327 0.580315 0
M  V30 311 O 28.9379 -1.89874 -0.421686 0
M  V30 312 C 29.2209 -1.85553 3.08613 0
M  V30 313 C 29.0739 -1.01816 4.38125 0
M  V30 314 C 30.3929 -2.8397 3.36228 0
M  V30 315 H 27.5119 -0.357428 0.644526 0
M  V30 316 H 30.1539 -0.258239 1.88237 0
M  V30 317 H 28.3039 -2.47695 2.99298 0
M  V30 318 H 29.9759 -0.416159 4.59419 0
M  V30 319 H 28.2189 -0.322178 4.32602 0
M  V30 320 H 28.8899 -1.65939 5.26468 0
M  V30 321 H 31.3659 -2.31964 3.45445 0
M  V30 322 H 30.2419 -3.41864 4.29442 0
M  V30 323 H 30.5029 -3.59955 2.56681 0
M  V30 324 N 29.562 -1.4872 -0.521534 0
M  V30 325 C 30.978 -1.35028 -0.850855 0
M  V30 326 C 31.178 -0.367712 -1.98116 0
M  V30 327 O 30.234 0.208037 -2.51642 0
M  V30 328 C 31.547 -2.75263 -1.21041 0
M  V30 329 C 33.095 -2.83813 -1.31981 0
M  V30 330 C 33.57 -4.24769 -1.71276 0
M  V30 331 N 35.061 -4.27482 -1.78363 0
M  V30 332 C 35.796 -5.33494 -2.1017 0
M  V30 333 N 35.292 -6.49775 -2.40343 0
M  V30 334 N 37.085 -5.20894 -2.11248 0
M  V30 335 H 29.236 -2.11214 0.22413 0
M  V30 336 H 31.499 -0.947252 0.0376439 0
M  V30 337 H 31.205 -3.48765 -0.453415 0
M  V30 338 H 31.079 -3.09327 -2.15863 0
M  V30 339 H 33.466 -2.10561 -2.06756 0
M  V30 340 H 33.547 -2.53358 -0.352596 0
M  V30 341 H 33.191 -4.9854 -0.970588 0
M  V30 342 H 33.121 -4.52673 -2.69062 0
M  V30 343 H 35.612 -3.43611 -1.57288 0
M  V30 344 H 35.925 -7.26402 -2.63743 0
M  V30 345 H 34.27 -6.53035 -2.37844 0
M  V30 346 H 37.461 -4.29065 -1.87139 0
M  V30 347 H 37.634 -6.03612 -2.35704 0
M  V30 348 N 31.0401 0.771051 -1.3745 0
M  V30 349 C 31.9501 1.91538 -1.35464 0
M  V30 350 C 32.9661 1.72134 -0.254123 0
M  V30 351 O 34.1421 1.95358 -0.489626 0
M  V30 352 C 31.2071 3.26671 -1.16134 0
M  V30 353 C 30.2681 3.58723 -2.35831 0
M  V30 354 C 29.5011 4.87409 -2.17413 0
M  V30 355 O 29.7241 5.58506 -1.15876 0
M  V30 356 O 28.6581 5.18539 -3.05615 0
M  V30 357 H 32.4841 1.96165 -2.31847 0
M  V30 358 H 30.0691 0.9139 -1.18187 0
M  V30 359 H 31.9511 4.07499 -1.07345 0
M  V30 360 H 30.6261 3.22894 -0.228251 0
M  V30 361 H 29.5331 2.78127 -2.50192 0
M  V30 362 H 30.8661 3.67243 -3.27709 0
M  V30 363 N 32.5182 1.22032 0.997298 0
M  V30 364 C 33.9342 0.979326 1.26021 0
M  V30 365 C 34.1342 -0.32972 1.98784 0
M  V30 366 O 33.1902 -1.05345 2.29475 0
M  V30 367 C 34.5032 2.17509 2.07631 0
M  V30 368 C 36.0512 2.21817 2.2083 0
M  V30 369 C 36.5262 3.40933 3.05825 0
M  V30 370 N 38.0172 3.41067 3.13412 0
M  V30 371 C 38.7522 4.29885 3.79455 0
M  V30 372 N 38.2482 5.28914 4.47462 0
M  V30 373 N 40.0412 4.17673 3.76173 0
M  V30 374 H 32.1922 2.06202 0.509352 0
M  V30 375 H 34.4552 0.90334 0.287541 0
M  V30 376 H 34.1612 3.12415 1.61524 0
M  V30 377 H 34.0352 2.17206 3.08385 0
M  V30 378 H 36.4222 1.27462 2.66153 0
M  V30 379 H 36.5032 2.2616 1.1952 0
M  V30 380 H 36.1472 4.35586 2.61203 0
M  V30 381 H 36.0772 3.33829 4.07266 0
M  V30 382 H 38.5682 2.69406 2.65007 0
M  V30 383 H 38.8812 5.92973 4.95583 0
M  V30 384 H 37.2262 5.32831 4.46224 0
M  V30 385 H 40.4172 3.39564 3.22202 0
M  V30 386 H 40.5902 4.87098 4.27363 0
M  V30 387 N 33.9963 -1.19345 1.0293 0
M  V30 388 C 35.2243 -1.92997 0.745644 0
M  V30 389 C 35.6393 -1.75519 -0.695589 0
M  V30 390 O 34.9963 -1.07737 -1.47306 0
M  V30 391 C 35.0473 -3.44741 1.08792 0
M  V30 392 O 34.7683 -3.61658 2.47256 0
M  V30 393 C 36.2693 -4.35515 0.827129 0
M  V30 394 H 33.4893 -0.613042 0.272801 0
M  V30 395 H 36.0333 -1.51473 1.3739 0
M  V30 396 H 34.1883 -3.84097 0.504832 0
M  V30 397 H 34.6023 -4.55514 2.60015 0
M  V30 398 H 36.0763 -5.40589 1.11658 0
M  V30 399 H 36.5533 -4.38552 -0.238436 0
M  V30 400 H 37.1593 -4.01841 1.39297 0
M  V30 401 N 35.4744 -0.807222 -1.35358 0
M  V30 402 C 36.6994 -0.399309 -2.0352 0
M  V30 403 C 37.1244 0.981986 -1.60433 0
M  V30 404 O 36.4824 1.63601 -0.781299 0
M  V30 405 C 36.5304 -0.491552 -3.57234 0
M  V30 406 O 35.6344 0.494754 -4.09421 0
M  V30 407 H 34.9754 -0.166682 -0.642739 0
M  V30 408 H 37.5054 -1.09328 -1.72941 0
M  V30 409 H 37.5154 -0.361588 -4.06395 0
M  V30 410 H 36.1904 -1.49907 -3.87944 0
M  V30 411 H 34.7674 0.324977 -3.71481 0
M  V30 412 N 36.9525 1.47285 -0.560781 0
M  V30 413 C 38.1805 2.06855 -0.0430262 0
M  V30 414 C 38.5955 1.41291 1.25229 0
M  V30 415 O 37.9525 0.510648 1.7521 0
M  V30 416 C 38.0035 3.61178 0.152518 0
M  V30 417 O 37.7245 4.24285 -1.0915 0
M  V30 418 C 39.2255 4.37624 0.707145 0
M  V30 419 H 36.4455 0.669319 -0.0474652 0
M  V30 420 H 38.9895 1.89237 -0.77521 0
M  V30 421 H 37.1445 3.78298 0.834843 0
M  V30 422 H 37.5585 5.16868 -0.891482 0
M  V30 423 H 39.0325 5.46271 0.793244 0
M  V30 424 H 39.5095 4.04152 1.71923 0
M  V30 425 H 40.1155 4.25257 0.0604027 0
M  V30 426 N 38.4306 0.297415 1.54768 0
M  V30 427 C 39.6556 -0.318435 2.04941 0
M  V30 428 C 40.0806 -1.4701 1.17345 0
M  V30 429 O 39.4386 -1.80436 0.176758 0
M  V30 430 C 39.4866 -0.755749 3.52592 0
M  V30 431 O 38.5906 -1.86088 3.68028 0
M  V30 432 H 37.9316 -0.062421 0.661059 0
M  V30 433 H 40.4616 0.438215 1.99852 0
M  V30 434 H 40.4716 -1.04552 3.94376 0
M  V30 435 H 39.1466 0.0867233 4.1581 0
M  V30 436 H 37.7236 -1.57193 3.38149 0
M  V30 437 N 39.9087 -1.5758 0.0250728 0
M  V30 438 C 41.1567 -1.91255 -0.653151 0
M  V30 439 C 41.4777 -0.901691 -1.729 0
M  V30 440 O 40.7477 0.0573785 -1.95816 0
M  V30 441 H 39.3277 -0.705942 -0.244243 0
M  V30 442 H 41.9897 -1.94767 0.0719209 0
M  V30 443 H 41.0857 -2.91752 -1.10847 0
M  V30 444 N 41.3868 0.248026 -1.55636 0
M  V30 445 C 42.6148 0.993808 -1.81469 0
M  V30 446 C 43.0298 1.78991 -0.60064 0
M  V30 447 O 42.3868 1.77345 0.430682 0
M  V30 448 C 42.4378 1.93258 -3.05506 0
M  V30 449 O 42.1588 1.16869 -4.22224 0
M  V30 450 C 43.6598 2.79444 -3.4413 0
M  V30 451 H 40.8798 0.292486 -0.603898 0
M  V30 452 H 43.4238 0.271253 -2.02693 0
M  V30 453 H 41.5788 2.60943 -2.86335 0
M  V30 454 H 41.9928 1.80359 -4.92515 0
M  V30 455 H 43.4668 3.41066 -4.34026 0
M  V30 456 H 43.9438 3.50499 -2.64665 0
M  V30 457 H 44.5498 2.17214 -3.65648 0
M  V30 458 N 42.8649 1.48995 0.513639 0
M  V30 459 C 43.8149 1.61127 1.61314 0
M  V30 460 C 44.7989 0.467521 1.53958 0
M  V30 461 O 45.9909 0.719826 1.61702 0
M  V30 462 C 43.1199 1.66937 2.99978 0
M  V30 463 C 42.2059 2.86847 3.12377 0
M  V30 464 N 42.5969 4.11078 2.94701 0
M  V30 465 C 40.8949 2.84521 3.43459 0
M  V30 466 C 41.5959 4.91615 3.10949 0
M  V30 467 N 40.5719 4.24739 3.3926 0
M  V30 468 H 44.3739 2.54909 1.46282 0
M  V30 469 H 41.8879 1.45593 0.719483 0
M  V30 470 H 43.8849 1.73725 3.78979 0
M  V30 471 H 42.5449 0.742831 3.16089 0
M  V30 472 H 43.5559 4.41258 2.71131 0
M  V30 473 H 40.2329 2.01192 3.65825 0
M  V30 474 H 41.6229 6.00264 3.01882 0
M  V30 475 N 44.343 -0.763751 1.37857 0
M  V30 476 C 45.759 -1.06542 1.18832 0
M  V30 477 C 45.959 -2.01478 0.0299722 0
M  V30 478 O 45.015 -2.4458 -0.627447 0
M  V30 479 C 46.328 -1.65525 2.51042 0
M  V30 480 C 47.876 -1.77745 2.57635 0
M  V30 481 C 48.351 -2.4014 3.89996 0
M  V30 482 N 49.842 -2.47582 3.91481 0
M  V30 483 C 50.577 -2.96732 4.9065 0
M  V30 484 N 50.073 -3.45993 6.00217 0
M  V30 485 N 51.866 -2.95679 4.78048 0
M  V30 486 H 44.017 -0.133556 2.1198 0
M  V30 487 H 46.28 -0.121879 0.940133 0
M  V30 488 H 45.986 -1.03236 3.36207 0
M  V30 489 H 45.86 -2.64719 2.68707 0
M  V30 490 H 48.247 -2.39164 1.72872 0
M  V30 491 H 48.328 -0.772836 2.43846 0
M  V30 492 H 47.972 -1.79358 4.75177 0
M  V30 493 H 47.902 -3.41223 4.01092 0
M  V30 494 H 50.393 -2.1273 3.12337 0
M  V30 495 H 50.706 -3.81922 6.7183 0
M  V30 496 H 49.051 -3.44077 6.03851 0
M  V30 497 H 52.242 -2.56499 3.91568 0
M  V30 498 H 52.415 -3.33672 5.55488 0
M  V30 499 N 45.8211 -1.22559 -0.990812 0
M  V30 500 C 47.0981 -0.959875 -1.70428 0
M  V30 501 C 47.4781 0.524455 -2.04481 0
M  V30 502 O 46.8261 1.49302 -1.72977 0
M  V30 503 C 47.0361 -1.85955 -2.95333 0
M  V30 504 C 48.3841 -2.11687 -3.68068 0
M  V30 505 O 49.4081 -1.8342 -3.05345 0
M  V30 506 O 48.2671 -2.59572 -4.80921 0
M  V30 507 H 45.3611 -0.361154 -0.743974 0
M  V30 508 H 47.9071 -1.33554 -1.04697 0
M  V30 509 H 46.6791 -2.86346 -2.66687 0
M  V30 510 H 46.3021 -1.4856 -3.68803 0
M  V30 511 N 47.2992 1.18797 -1.03562 0
M  V30 512 C 48.7152 1.40671 -0.753917 0
M  V30 513 C 48.9152 1.9043 0.658686 0
M  V30 514 O 47.9712 2.08538 1.42366 0
M  V30 515 C 49.2842 2.41192 -1.79574 0
M  V30 516 C 50.8322 2.54928 -1.81606 0
M  V30 517 C 51.3072 3.58709 -2.84766 0
M  V30 518 N 52.7982 3.66212 -2.83625 0
M  V30 519 C 53.5332 4.46225 -3.60098 0
M  V30 520 N 53.0292 5.29888 -4.46308 0
M  V30 521 N 54.8222 4.40939 -3.4861 0
M  V30 522 H 46.9732 0.848221 -1.94728 0
M  V30 523 H 49.2362 0.435081 -0.842264 0
M  V30 524 H 48.9422 2.11669 -2.80872 0
M  V30 525 H 48.8162 3.40467 -1.62365 0
M  V30 526 H 51.2032 2.83771 -0.809817 0
M  V30 527 H 51.2842 1.55784 -2.02891 0
M  V30 528 H 50.9282 3.30607 -3.85566 0
M  V30 529 H 50.8582 4.57519 -2.60737 0
M  V30 530 H 53.3492 3.06466 -2.21105 0
M  V30 531 H 53.6622 5.88078 -5.01382 0
M  V30 532 H 52.0072 5.29326 -4.50377 0
M  V30 533 H 55.1982 3.74624 -2.80668 0
M  V30 534 H 55.3712 5.03056 -4.08459 0
M  V30 535 N 48.7773 0.814389 1.34928 0
M  V30 536 C 49.6873 0.231978 2.3345 0
M  V30 537 C 50.7033 -0.629139 1.62228 0
M  V30 538 O 51.8793 -0.539052 1.94052 0
M  V30 539 C 48.9443 -0.603482 3.41407 0
M  V30 540 C 48.0053 0.279037 4.28392 0
M  V30 541 C 47.2383 -0.516643 5.31193 0
M  V30 542 O 47.4613 -1.75068 5.4287 0
M  V30 543 O 46.3953 0.0965652 6.01823 0
M  V30 544 H 50.2213 1.04721 2.85074 0
M  V30 545 H 47.8063 0.576343 1.37836 0
M  V30 546 H 49.6883 -1.07908 4.0735 0
M  V30 547 H 48.3633 -1.39618 2.92042 0
M  V30 548 H 47.2703 0.801948 3.65403 0
M  V30 549 H 48.6033 1.03588 4.81176 0
M  V30 550 N 50.2554 -1.46986 0.568584 0
M  V30 551 C 51.5324 -1.95592 -0.0174074 0
M  V30 552 C 51.9124 -1.51124 -1.47393 0
M  V30 553 O 51.2604 -0.755329 -2.15655 0
M  V30 554 C 51.4704 -3.48719 0.139913 0
M  V30 555 C 52.8184 -4.246 0.000426376 0
M  V30 556 O 53.8424 -3.56135 0.0680316 0
M  V30 557 O 52.7014 -5.46302 -0.146988 0
M  V30 558 H 49.7954 -0.82498 -0.0577599 0
M  V30 559 H 52.3414 -1.57335 0.635909 0
M  V30 560 H 51.1134 -3.73927 1.15301 0
M  V30 561 H 50.7364 -3.93771 -0.550491 0
M  V30 562 N 51.7335 -0.305618 -1.54608 0
M  V30 563 C 52.9585 0.307562 -2.05107 0
M  V30 564 C 53.3835 1.46385 -1.18123 0
M  V30 565 O 52.7415 1.8034 -0.186324 0
M  V30 566 C 52.7895 0.73704 -3.52987 0
M  V30 567 O 51.8935 1.84134 -3.6901 0
M  V30 568 H 51.2345 0.0589143 -0.661381 0
M  V30 569 H 53.7645 -0.448807 -1.99617 0
M  V30 570 H 53.7745 1.02459 -3.94925 0
M  V30 571 H 52.4495 -0.108773 -4.15758 0
M  V30 572 H 51.0265 1.55398 -3.38978 0
M  V30 573 N 53.2116 1.57565 -0.0334293 0
M  V30 574 C 54.1586 2.10478 0.946981 0
M  V30 575 C 55.1286 1.00787 1.32027 0
M  V30 576 O 56.3136 1.28232 1.41284 0
M  V30 577 C 53.4536 2.63994 2.22263 0
M  V30 578 C 52.5666 3.87709 1.90541 0
M  V30 579 C 51.7016 4.29604 3.12433 0
M  V30 580 C 50.7406 5.46065 2.76549 0
M  V30 581 N 49.8776 5.83096 3.9108 0
M  V30 582 H 54.7176 2.93963 0.488846 0
M  V30 583 H 52.2546 1.45296 0.22969 0
M  V30 584 H 54.2126 2.93114 2.96884 0
M  V30 585 H 52.8426 1.83333 2.65685 0
M  V30 586 H 51.8946 3.65291 1.06144 0
M  V30 587 H 53.2066 4.72403 1.60116 0
M  V30 588 H 52.3606 4.60182 3.9537 0
M  V30 589 H 51.0996 3.43685 3.46023 0
M  V30 590 H 50.1046 5.15176 1.92026 0
M  V30 591 H 51.3296 6.33685 2.44171 0
M  V30 592 H 49.2756 5.00132 4.24504 0
M  V30 593 H 49.1926 6.6244 3.64293 0
M  V30 594 H 50.4606 6.18282 4.74708 0
M  V30 595 N 54.6897 -0.239769 1.55765 0
M  V30 596 C 55.9367 -0.966801 1.7793 0
M  V30 597 C 56.2647 -1.85046 0.599015 0
M  V30 598 O 55.5197 -1.91197 -0.417395 0
M  V30 599 C 55.8187 -1.852 3.05672 0
M  V30 600 C 55.4847 -1.1231 4.36689 0
M  V30 601 C 54.1467 -0.921689 4.72291 0
M  V30 602 C 56.4987 -0.607019 5.17653 0
M  V30 603 C 53.8267 -0.191996 5.86386 0
M  V30 604 C 56.1787 0.109241 6.32506 0
M  V30 605 C 54.8427 0.322073 6.66723 0
M  V30 606 H 54.1127 -0.353778 0.651093 0
M  V30 607 H 56.7597 -0.23634 1.90036 0
M  V30 608 H 55.0647 -2.64975 2.8861 0
M  V30 609 H 56.7617 -2.41635 3.20021 0
M  V30 610 H 53.3517 -1.29004 4.08725 0
M  V30 611 H 57.5357 -0.750153 4.90598 0
M  V30 612 H 52.7917 -0.0166949 6.11398 0
M  V30 613 H 56.9657 0.516737 6.9448 0
M  V30 614 H 54.5927 0.88944 7.54979 0
M  V30 615 N 56.1678 -1.49265 -0.50573 0
M  V30 616 C 57.5838 -1.35923 -0.836486 0
M  V30 617 C 57.7838 -0.388704 -1.97715 0
M  V30 618 O 56.8398 0.181336 -2.51848 0
M  V30 619 C 58.1528 -2.76531 -1.18115 0
M  V30 620 C 59.7008 -2.85197 -1.28964 0
M  V30 621 C 60.1758 -4.26561 -1.66761 0
M  V30 622 N 61.6668 -4.2935 -1.73819 0
M  V30 623 C 62.4018 -5.35693 -2.045 0
M  V30 624 N 61.8978 -6.52287 -2.33438 0
M  V30 625 N 63.6908 -5.23105 -2.05711 0
M  V30 626 H 55.8418 -2.10965 0.246519 0
M  V30 627 H 58.1048 -0.9468 0.0476887 0
M  V30 628 H 57.8108 -3.49226 -0.416398 0
M  V30 629 H 57.6848 -3.11599 -2.1257 0
M  V30 630 H 60.0718 -2.12742 -2.04511 0
M  V30 631 H 60.1528 -2.53718 -0.325704 0
M  V30 632 H 59.7968 -4.99541 -0.917656 0
M  V30 633 H 59.7268 -4.55502 -2.64246 0
M  V30 634 H 62.2178 -3.4526 -1.53635 0
M  V30 635 H 62.5308 -7.29158 -2.56024 0
M  V30 636 H 60.8758 -6.55521 -2.30905 0
M  V30 637 H 64.0668 -4.31026 -1.82577 0
M  V30 638 H 64.2398 -6.06078 -2.29289 0
M  V30 639 N 57.6459 0.756429 -1.3826 0
M  V30 640 C 59.0619 1.0591 -1.19395 0
M  V30 641 C 59.2619 2.01459 -0.0406567 0
M  V30 642 O 58.3179 2.44909 0.614467 0
M  V30 643 C 59.6309 1.64191 -2.51916 0
M  V30 644 C 61.1789 1.76376 -2.58574 0
M  V30 645 C 61.6539 2.38069 -3.91264 0
M  V30 646 N 63.1449 2.45503 -3.92788 0
M  V30 647 C 63.8799 2.94126 -4.92217 0
M  V30 648 N 63.3759 3.42805 -6.02043 0
M  V30 649 N 65.1689 2.9314 -4.7961 0
M  V30 650 H 57.3199 0.122313 -2.12048 0
M  V30 651 H 59.5829 0.116892 -0.940766 0
M  V30 652 H 59.2889 1.01451 -3.3675 0
M  V30 653 H 59.1629 2.6329 -2.70108 0
M  V30 654 H 61.5499 2.38244 -1.74137 0
M  V30 655 H 61.6309 0.759894 -2.44252 0
M  V30 656 H 61.2749 1.76835 -4.76121 0
M  V30 657 H 61.2049 3.39091 -4.02895 0
M  V30 658 H 63.6959 2.1107 -3.13461 0
M  V30 659 H 64.0089 3.78354 -6.73846 0
M  V30 660 H 62.3539 3.4087 -6.05667 0
M  V30 661 H 65.5449 2.54419 -3.92923 0
M  V30 662 H 65.7179 3.30721 -5.5725 0
M  V30 663 N 59.124 1.23083 0.984299 0
M  V30 664 C 60.352 1.08714 1.76037 0
M  V30 665 C 60.767 -0.361691 1.85303 0
M  V30 666 O 60.124 -1.25034 1.32939 0
M  V30 667 C 60.175 1.70206 3.18923 0
M  V30 668 O 59.896 3.09423 3.10144 0
M  V30 669 C 61.397 1.61227 4.12941 0
M  V30 670 H 58.617 0.380664 0.552572 0
M  V30 671 H 61.161 1.62853 1.23689 0
M  V30 672 H 59.316 1.20109 3.6831 0
M  V30 673 H 59.73 3.39188 4.00065 0
M  V30 674 H 61.204 2.08962 5.10919 0
M  V30 675 H 61.681 0.570375 4.35481 0
M  V30 676 H 62.287 2.10671 3.69456 0
M  V30 677 N 60.6021 -1.18246 1.0419 0
M  V30 678 C 62.0181 -1.40269 0.761366 0
M  V30 679 C 62.2181 -1.90777 -0.648578 0
M  V30 680 O 61.2741 -2.0929 -1.41258 0
M  V30 681 C 62.5871 -2.40237 1.8085 0
M  V30 682 C 64.1351 -2.53961 1.82955 0
M  V30 683 C 64.6101 -3.57194 2.86664 0
M  V30 684 N 66.1011 -3.64702 2.85563 0
M  V30 685 C 66.8361 -4.44309 3.6246 0
M  V30 686 N 66.3321 -5.27514 4.49111 0
M  V30 687 N 68.1251 -4.39084 3.50944 0
M  V30 688 H 60.2761 -0.837882 1.95175 0
M  V30 689 H 62.5391 -0.430608 0.84456 0
M  V30 690 H 62.2451 -2.10176 2.81991 0
M  V30 691 H 62.1191 -3.39601 1.64168 0
M  V30 692 H 64.5061 -2.83338 0.824855 0
M  V30 693 H 64.5871 -1.54706 2.03715 0
M  V30 694 H 64.2311 -3.28558 3.87314 0
M  V30 695 H 64.1611 -4.5613 2.6316 0
M  V30 696 H 66.6521 -3.05289 2.22727 0
M  V30 697 H 66.9651 -5.85411 5.04493 0
M  V30 698 H 65.3101 -5.2693 4.53178 0
M  V30 699 H 68.5011 -3.7313 2.82651 0
M  V30 700 H 68.6741 -5.00883 4.11121 0
M  V30 701 N 62.0802 -0.821533 -1.34494 0
M  V30 702 C 63.4912 -0.467956 -1.8074 0
M  V30 703 C 63.8422 1.01151 -1.68116 0
M  V30 704 O 62.9672 1.78707 -1.22036 0
M  V30 705 C 63.5622 -0.842627 -3.28154 0
M  V30 706 C 62.1212 -0.541439 -3.72485 0
M  V30 707 C 61.2682 -1.06028 -2.56229 0
M  V30 708 H 64.2192 -1.01183 -1.22261 0
M  V30 709 H 64.2402 -0.145876 -3.8022 0
M  V30 710 H 63.7522 -1.91945 -3.37311 0
M  V30 711 H 61.8532 0.526034 -3.68868 0
M  V30 712 H 61.9662 -1.08453 -4.66663 0
M  V30 713 H 60.3302 -0.481892 -2.501 0
M  V30 714 H 61.1132 -2.14352 -2.68157 0
M  V30 715 N 63.5583 1.46682 -0.576371 0
M  V30 716 C 64.4883 2.33028 0.148397 0
M  V30 717 C 65.4693 1.44961 0.889956 0
M  V30 718 O 66.6543 1.73789 0.866662 0
M  V30 719 C 63.7843 3.27117 1.1667 0
M  V30 720 C 62.7383 4.24575 0.540386 0
M  V30 721 C 62.0643 5.08126 1.6647 0
M  V30 722 C 63.3643 5.19722 -0.518331 0
M  V30 723 H 65.0583 2.93875 -0.572509 0
M  V30 724 H 62.6043 1.41315 -0.276768 0
M  V30 725 H 64.5573 3.86374 1.68204 0
M  V30 726 H 63.2813 2.64364 1.9178 0
M  V30 727 H 61.9403 3.66571 0.0461769 0
M  V30 728 H 61.5883 4.41762 2.40531 0
M  V30 729 H 61.2883 5.74122 1.25131 0
M  V30 730 H 62.8123 5.70246 2.18293 0
M  V30 731 H 64.2263 5.73232 -0.0883058 0
M  V30 732 H 62.6233 5.94026 -0.851679 0
M  V30 733 H 63.6933 4.64037 -1.40703 0
M  V30 734 N 65.0364 0.313813 1.54444 0
M  V30 735 C 65.9464 -0.565714 2.27677 0
M  V30 736 C 66.9624 -1.13754 1.31666 0
M  V30 737 O 68.1384 -1.15959 1.64668 0
M  V30 738 C 65.2034 -1.71528 3.01296 0
M  V30 739 C 64.2644 -1.17624 4.12872 0
M  V30 740 C 63.4974 -2.27102 4.8297 0
M  V30 741 O 63.7204 -3.47256 4.52514 0
M  V30 742 O 62.6544 -1.9307 5.70094 0
M  V30 743 H 66.4804 0.0287296 3.03686 0
M  V30 744 H 64.0654 0.0798312 1.49187 0
M  V30 745 H 65.9474 -2.38476 3.4743 0
M  V30 746 H 64.6224 -2.29608 2.2817 0
M  V30 747 H 63.5294 -0.472124 3.71109 0
M  V30 748 H 64.8624 -0.640695 4.88012 0
M  V30 749 N 66.5145 -1.57545 0.0417849 0
M  V30 750 C 67.7545 -1.94185 -0.63809 0
M  V30 751 C 68.1185 -0.919339 -1.68559 0
M  V30 752 O 69.3195 -1.17236 -2.41886 0
M  V30 753 C 67.5905 -3.35672 -1.22714 0
M  V30 754 S 69.1495 -3.94256 -1.92633 0
M  V30 755 H 65.9675 -0.679353 -0.209764 0
M  V30 756 H 68.5695 -1.95199 0.108479 0
M  V30 757 H 67.2735 -4.07898 -0.452503 0
M  V30 758 H 66.8045 -3.38132 -2.01073 0
M  V30 759 H 68.8195 -3.7872 -3.20602 0
M  V30 760 N 67.9926 0.231505 -1.5589 0
M  V30 761 C 68.9246 1.31006 -1.8807 0
M  V30 762 C 69.9376 1.43539 -0.768145 0
M  V30 763 O 71.1266 1.44614 -1.04638 0
M  V30 764 C 68.2266 2.68688 -2.06543 0
M  V30 765 C 67.3996 2.78228 -3.37502 0
M  V30 766 C 66.4586 3.96857 -3.4553 0
M  V30 767 O 65.4846 3.85662 -4.18633 0
M  V30 768 N 66.6866 5.1072 -2.75944 0
M  V30 769 H 69.4516 1.03731 -2.81176 0
M  V30 770 H 67.0126 0.421573 -1.56315 0
M  V30 771 H 69.0046 3.46412 -2.09239 0
M  V30 772 H 67.5746 2.88605 -1.20109 0
M  V30 773 H 66.7946 1.87059 -3.46991 0
M  V30 774 H 68.0826 2.81564 -4.23791 0
M  V30 775 H 67.4806 5.2271 -2.16311 0
M  V30 776 H 66.0376 5.86523 -2.84314 0
M  V30 777 N 69.4707 1.49531 0.497807 0
M  V30 778 C 70.7477 1.49682 1.25915 0
M  V30 779 C 71.1277 0.226339 2.09883 0
M  V30 780 O 70.4757 -0.791189 2.14365 0
M  V30 781 C 70.6857 2.77755 2.11313 0
M  V30 782 C 72.0337 3.27371 2.70395 0
M  V30 783 O 73.0577 2.78894 2.21578 0
M  V30 784 O 71.9167 4.11808 3.59272 0
M  V30 785 H 69.0107 0.599228 0.56996 0
M  V30 786 H 71.5567 1.61798 0.511816 0
M  V30 787 H 70.3287 3.61713 1.49264 0
M  V30 788 H 69.9517 2.68515 2.93233 0
M  V30 789 N 70.9488 -0.749086 1.3866 0
M  V30 790 C 71.9118 -1.84457 1.36045 0
M  V30 791 C 72.9118 -1.58682 0.260122 0
M  V30 792 O 74.1018 -1.66343 0.517261 0
M  V30 793 C 71.2338 -3.22008 1.11911 0
M  V30 794 H 72.4268 -1.88182 2.33512 0
M  V30 795 H 69.9798 -0.951266 1.24019 0
M  V30 796 H 70.7148 -3.2395 0.150686 0
M  V30 797 H 70.4998 -3.42111 1.91579 0
M  V30 798 H 71.9898 -4.0208 1.12788 0
M  V30 799 N 72.4269 -1.23603 -0.977757 0
M  V30 800 C 73.3569 -1.04401 -2.0886 0
M  V30 801 C 74.3379 0.0399052 -1.70053 0
M  V30 802 O 75.5229 -0.125246 -1.93796 0
M  V30 803 C 72.6529 -0.637269 -3.41403 0
M  V30 804 C 71.6069 -1.66883 -3.94124 0
M  V30 805 C 70.9329 -1.11745 -5.22893 0
M  V30 806 C 72.2329 -3.06247 -4.23096 0
M  V30 807 H 73.9269 -1.97316 -2.25182 0
M  V30 808 H 71.4729 -0.950096 -1.08209 0
M  V30 809 H 73.4259 -0.48998 -4.18542 0
M  V30 810 H 72.1499 0.327557 -3.24953 0
M  V30 811 H 70.8089 -1.80416 -3.19133 0
M  V30 812 H 70.4569 -0.143527 -5.02795 0
M  V30 813 H 70.1569 -1.80672 -5.59134 0
M  V30 814 H 71.6809 -0.982067 -6.02651 0
M  V30 815 H 73.0949 -2.96001 -4.90975 0
M  V30 816 H 71.4919 -3.72436 -4.70544 0
M  V30 817 H 72.5619 -3.55041 -3.30263 0
M  V30 818 N 73.905 1.17692 -1.04816 0
M  V30 819 C 74.815 2.25229 -0.65643 0
M  V30 820 C 75.831 1.71018 0.320761 0
M  V30 821 O 77.007 2.00649 0.173805 0
M  V30 822 C 74.072 3.46684 -0.0332629 0
M  V30 823 C 73.133 4.15997 -1.06042 0
M  V30 824 C 72.366 5.31654 -0.466893 0
M  V30 825 O 72.589 5.65777 0.724758 0
M  V30 826 O 71.523 5.89831 -1.1993 0
M  V30 827 H 75.349 2.61016 -1.55255 0
M  V30 828 H 72.934 1.24919 -0.81949 0
M  V30 829 H 74.816 4.20234 0.313256 0
M  V30 830 H 73.491 3.12703 0.836566 0
M  V30 831 H 72.398 3.44482 -1.45886 0
M  V30 832 H 73.731 4.53996 -1.90127 0
M  V30 833 N 75.3831 0.828654 1.34056 0
M  V30 834 C 76.6111 0.43262 2.02326 0
M  V30 835 C 77.0261 -0.963147 1.62385 0
M  V30 836 O 76.3831 -1.62425 0.832121 0
M  V30 837 C 76.4341 0.53182 3.57567 0
M  V30 838 O 76.1551 1.87258 3.96063 0
M  V30 839 C 77.6561 0.131422 4.43105 0
M  V30 840 H 74.8761 0.172923 0.648335 0
M  V30 841 H 77.4201 1.1184 1.71208 0
M  V30 842 H 75.5751 -0.105938 3.87255 0
M  V30 843 H 75.9891 1.85087 4.90758 0
M  V30 844 H 77.4631 0.251904 5.51425 0
M  V30 845 H 77.9401 -0.925645 4.29335 0
M  V30 846 H 78.5461 0.743207 4.18756 0
M  V30 847 N 76.8612 -1.46375 0.584142 0
M  V30 848 C 77.8242 -2.28784 -0.138108 0
M  V30 849 C 78.8242 -1.38471 -0.817462 0
M  V30 850 O 80.0142 -1.60833 -0.669199 0
M  V30 851 C 77.1462 -3.18892 -1.20503 0
M  V30 852 H 78.3392 -2.94117 0.586127 0
M  V30 853 H 75.8922 -1.52509 0.342171 0
M  V30 854 H 76.6272 -2.58309 -1.96079 0
M  V30 855 H 76.4122 -3.85388 -0.722384 0
M  V30 856 H 77.9022 -3.80914 -1.71155 0
M  V30 857 N 78.3393 -0.321999 -1.54275 0
M  V30 858 C 79.3023 0.531975 -2.22941 0
M  V30 859 C 80.3023 1.04478 -1.22234 0
M  V30 860 O 81.4923 0.937452 -1.46825 0
M  V30 861 C 78.6243 1.73874 -2.93224 0
M  V30 862 H 79.8173 -0.0682612 -2.99822 0
M  V30 863 H 77.3703 -0.0730644 -1.56129 0
M  V30 864 H 78.1053 2.37825 -2.20476 0
M  V30 865 H 77.8903 1.37847 -3.6707 0
M  V30 866 H 79.3803 2.34496 -3.45545 0
M  V30 867 N 79.8174 1.5752 -0.0501392 0
M  V30 868 C 81.2334 1.56631 0.306402 0
M  V30 869 C 81.4334 1.0577 1.71508 0
M  V30 870 O 80.4894 0.713837 2.422 0
M  V30 871 C 81.8024 3.00393 0.135811 0
M  V30 872 C 83.3504 3.12315 0.206993 0
M  V30 873 C 83.8254 4.57954 0.064944 0
M  V30 874 N 85.3164 4.63041 0.121254 0
M  V30 875 C 86.0514 5.73389 0.0354381 0
M  V30 876 N 85.5474 6.92724 -0.102666 0
M  V30 877 N 87.3404 5.62026 0.090946 0
M  V30 878 H 79.4914 1.88903 -0.971046 0
M  V30 879 H 81.7544 0.869876 -0.376855 0
M  V30 880 H 81.4604 3.41635 -0.835384 0
M  V30 881 H 81.3344 3.66373 0.897275 0
M  V30 882 H 83.7214 2.70973 1.16866 0
M  V30 883 H 83.8024 2.49016 -0.585208 0
M  V30 884 H 83.4464 4.99981 -0.893394 0
M  V30 885 H 83.3764 5.19258 0.876277 0
M  V30 886 H 85.8674 3.77216 0.227284 0
M  V30 887 H 86.1804 7.72633 -0.160882 0
M  V30 888 H 84.5254 6.94864 -0.137737 0
M  V30 889 H 87.7164 4.67684 0.197388 0
M  V30 890 H 87.8894 6.47997 0.0206089 0
M  V30 891 N 81.2955 -0.223234 1.56011 0
M  V30 892 C 82.2585 -1.26014 1.9145 0
M  V30 893 C 83.2585 -1.3989 0.792937 0
M  V30 894 O 84.4485 -1.38184 1.0607 0
M  V30 895 C 81.5805 -2.63422 2.16383 0
M  V30 896 H 82.7735 -0.95796 2.84189 0
M  V30 897 H 80.3265 -0.463576 1.49267 0
M  V30 898 H 81.0615 -2.98741 1.2619 0
M  V30 899 H 80.8465 -2.54728 2.98088 0
M  V30 900 H 82.3365 -3.38249 2.44903 0
M  V30 901 N 82.7736 -1.49793 -0.48987 0
M  V30 902 C 83.6836 -1.70036 -1.61632 0
M  V30 903 C 84.6996 -0.583102 -1.63939 0
M  V30 904 O 85.8756 -0.859169 -1.82154 0
M  V30 905 C 82.9406 -1.77277 -2.97949 0
M  V30 906 C 82.0016 -3.00918 -3.06181 0
M  V30 907 C 81.2346 -3.07804 -4.35996 0
M  V30 908 O 81.4576 -2.21982 -5.25433 0
M  V30 909 O 80.3916 -4.00369 -4.49431 0
M  V30 910 H 84.2176 -2.65486 -1.47482 0
M  V30 911 H 81.8026 -1.33666 -0.667362 0
M  V30 912 H 83.6846 -1.84329 -3.78947 0
M  V30 913 H 82.3596 -0.850076 -3.12339 0
M  V30 914 H 81.2666 -2.99377 -2.2433 0
M  V30 915 H 82.5996 -3.92704 -2.96723 0
M  V30 916 N 84.2517 0.741722 -1.39055 0
M  V30 917 C 85.4997 1.49818 -1.35643 0
M  V30 918 C 85.8207 1.94938 0.0491642 0
M  V30 919 O 85.0907 1.68505 0.999141 0
M  V30 920 H 83.6707 0.555755 -0.499144 0
M  V30 921 H 86.3327 0.880957 -1.73854 0
M  V30 922 H 85.4287 2.38348 -2.01486 0
M  V30 923 N 85.7298 1.2412 0.971189 0
M  V30 924 C 86.6598 1.05508 2.08304 0
M  V30 925 C 87.6408 -0.0308864 1.70072 0
M  V30 926 O 88.8258 0.135521 1.93727 0
M  V30 927 C 85.9558 0.655365 3.4106 0
M  V30 928 C 84.9098 1.68971 3.93234 0
M  V30 929 C 84.2358 1.14516 5.22293 0
M  V30 930 C 85.5358 3.08487 4.21465 0
M  V30 931 H 87.2298 1.98507 2.24132 0
M  V30 932 H 84.7758 0.955821 1.07704 0
M  V30 933 H 86.7288 0.51217 4.18276 0
M  V30 934 H 85.4528 -0.31032 3.25122 0
M  V30 935 H 84.1118 1.82106 3.18171 0
M  V30 936 H 83.7598 0.170189 5.02712 0
M  V30 937 H 83.4598 1.83635 5.58168 0
M  V30 938 H 84.9838 1.01401 6.02121 0
M  V30 939 H 86.3978 2.98601 4.89398 0
M  V30 940 H 84.7948 3.74926 4.68562 0
M  V30 941 H 85.8648 3.56787 3.28376 0
M  V30 942 N 87.2079 -1.17134 1.05439 0
M  V30 943 C 88.4329 -1.91913 0.786396 0
M  V30 944 C 88.8579 -1.7643 -0.652234 0
M  V30 945 O 88.2159 -1.08372 -1.45345 0
M  V30 946 C 88.2639 -3.40921 1.17497 0
M  V30 947 O 87.3679 -4.11244 0.308589 0
M  V30 948 H 86.7089 -0.598215 0.288158 0
M  V30 949 H 89.2389 -1.48457 1.4079 0
M  V30 950 H 89.2489 -3.91668 1.14281 0
M  V30 951 H 87.9239 -3.5151 2.22292 0
M  V30 952 H 86.5009 -3.70731 0.40157 0
M  V30 953 N 88.686 -0.835752 -1.33615 0
M  V30 954 C 89.616 -0.281739 -2.31794 0
M  V30 955 C 90.597 0.608833 -1.58831 0
M  V30 956 O 91.782 0.533035 -1.86741 0
M  V30 957 C 88.912 0.546612 -3.42971 0
M  V30 958 C 87.866 -0.247904 -4.27281 0
M  V30 959 C 87.192 0.704001 -5.30045 0
M  V30 960 C 88.492 -1.46324 -5.01385 0
M  V30 961 H 90.186 -1.10206 -2.78379 0
M  V30 962 H 87.732 -0.531388 -1.33837 0
M  V30 963 H 89.685 0.944467 -4.1068 0
M  V30 964 H 88.409 1.40011 -2.95067 0
M  V30 965 H 87.068 -0.627281 -3.61194 0
M  V30 966 H 86.716 1.55381 -4.78399 0
M  V30 967 H 86.416 0.176524 -5.87335 0
M  V30 968 H 87.94 1.09944 -6.0062 0
M  V30 969 H 89.354 -1.13871 -5.61877 0
M  V30 970 H 87.751 -1.92728 -5.6831 0
M  V30 971 H 88.821 -2.23467 -4.30338 0
M  V30 972 N 90.1641 1.46063 -0.591896 0
M  V30 973 C 91.4411 1.95595 -0.0137119 0
M  V30 974 C 91.8211 1.5345 1.4497 0
M  V30 975 O 91.1691 0.789543 2.14426 0
M  V30 976 C 91.3791 3.48453 -0.195373 0
M  V30 977 C 92.7271 4.24546 -0.0679765 0
M  V30 978 O 93.7511 3.55982 -0.124681 0
M  V30 979 O 92.6101 5.46467 0.0600579 0
M  V30 980 H 89.7041 0.825795 0.0446279 0
M  V30 981 H 92.2501 1.56303 -0.660859 0
M  V30 982 H 91.0221 3.72045 -1.21235 0
M  V30 983 H 90.6451 3.94597 0.487775 0
M  V30 984 N 91.6422 0.330177 1.54103 0
M  V30 985 C 92.6052 -0.520144 2.2322 0
M  V30 986 C 93.6052 -1.03828 1.22786 0
M  V30 987 O 94.7952 -0.929652 1.4732 0
M  V30 988 C 91.9272 -1.72317 2.94142 0
M  V30 989 H 93.1202 0.0841605 2.99782 0
M  V30 990 H 90.6732 0.0813433 1.56088 0
M  V30 991 H 91.4082 -2.36653 2.21734 0
M  V30 992 H 91.1932 -1.35898 3.67796 0
M  V30 993 H 92.6832 -2.3266 3.46784 0
M  V30 994 N 93.1203 -1.57491 0.0584922 0
M  V30 995 C 94.3453 -1.97711 -0.62652 0
M  V30 996 C 94.7703 -0.936132 -1.63151 0
M  V30 997 O 94.1283 0.099811 -1.81025 0
M  V30 998 C 94.1763 -3.36989 -1.28338 0
M  V30 999 O 93.2803 -3.35433 -2.39913 0
M  V30 1000 H 92.6213 -0.643868 -0.162266 0
M  V30 1001 H 95.1513 -2.04193 0.129064 0
M  V30 1002 H 95.1613 -3.73879 -1.63335 0
M  V30 1003 H 93.8363 -4.12289 -0.546889 0
M  V30 1004 H 92.4133 -3.10298 -2.06809 0
M  V30 1005 N 94.5984 0.214957 -1.56127 0
M  V30 1006 C 95.5314 1.29382 -1.87977 0
M  V30 1007 C 96.5094 1.44897 -0.737807 0
M  V30 1008 O 97.6934 1.60605 -0.986833 0
M  V30 1009 C 94.8204 2.66325 -2.09258 0
M  V30 1010 C 93.8664 2.67789 -3.31951 0
M  V30 1011 S 94.6994 2.21198 -4.8768 0
M  V30 1012 C 95.8554 3.60003 -5.12004 0
M  V30 1013 H 96.0884 1.02173 -2.79192 0
M  V30 1014 H 93.6214 0.417516 -1.48648 0
M  V30 1015 H 95.5794 3.45162 -2.22201 0
M  V30 1016 H 94.2404 2.90755 -1.18829 0
M  V30 1017 H 93.4334 3.68436 -3.43906 0
M  V30 1018 H 93.0354 1.9702 -3.17898 0
M  V30 1019 H 95.3274 4.55739 -5.01307 0
M  V30 1020 H 96.2704 3.52959 -6.13861 0
M  V30 1021 H 96.6784 3.53996 -4.39712 0
M  V30 1022 N 96.0765 1.50051 0.48192 0
M  V30 1023 C 97.0265 1.64512 1.5786 0
M  V30 1024 C 98.0105 0.500073 1.52932 0
M  V30 1025 O 99.2025 0.753964 1.60139 0
M  V30 1026 C 96.3315 1.73263 2.9637 0
M  V30 1027 C 95.4175 2.93409 3.06222 0
M  V30 1028 N 95.8085 4.17236 2.85915 0
M  V30 1029 C 94.1065 2.91742 3.37346 0
M  V30 1030 C 94.8075 4.981 3.00451 0
M  V30 1031 N 93.7835 4.3184 3.30174 0
M  V30 1032 H 97.5855 2.57955 1.40842 0
M  V30 1033 H 95.0995 1.47086 0.688439 0
M  V30 1034 H 97.0965 1.81724 3.75209 0
M  V30 1035 H 95.7565 0.809711 3.14442 0
M  V30 1036 H 96.7675 4.46909 2.6171 0
M  V30 1037 H 93.4445 2.08907 3.61475 0
M  V30 1038 H 94.8345 6.06532 2.89082 0
M  V30 1039 N 97.5546 -0.734337 1.39446 0
M  V30 1040 C 98.7796 -1.52866 1.40167 0
M  V30 1041 C 99.2046 -1.881 -0.00171513 0
M  V30 1042 O 98.5626 -1.51957 -0.988879 0
M  V30 1043 C 98.6106 -2.79235 2.28167 0
M  V30 1044 O 97.7146 -3.75185 1.71201 0
M  V30 1045 H 97.0556 -0.461618 0.477289 0
M  V30 1046 H 99.5856 -0.905949 1.8345 0
M  V30 1047 H 99.5956 -3.27963 2.42702 0
M  V30 1048 H 98.2706 -2.52923 3.30156 0
M  V30 1049 H 96.8476 -3.33958 1.65912 0
M  V30 1050 N 99.0327 -1.24633 -0.964593 0
M  V30 1051 C 99.9647 -0.999302 -2.06268 0
M  V30 1052 C 100.978 0.0323226 -1.62768 0
M  V30 1053 O 102.167 -0.205079 -1.77318 0
M  V30 1054 C 99.2667 -0.486816 -3.35385 0
M  V30 1055 C 98.4397 -1.5823 -4.07777 0
M  V30 1056 C 97.4987 -1.07191 -5.15166 0
M  V30 1057 O 96.5247 -1.76426 -5.41168 0
M  V30 1058 N 97.7267 0.0920373 -5.80427 0
M  V30 1059 H 100.492 -1.94477 -2.28033 0
M  V30 1060 H 98.0527 -1.15704 -1.13244 0
M  V30 1061 H 100.045 -0.130066 -4.04491 0
M  V30 1062 H 98.6147 0.364459 -3.10468 0
M  V30 1063 H 97.8347 -2.11109 -3.32906 0
M  V30 1064 H 99.1227 -2.31854 -4.52903 0
M  V30 1065 H 98.5207 0.670784 -5.61709 0
M  V30 1066 H 97.0777 0.389905 -6.50633 0
M  V30 1067 N 100.511 1.16574 -1.06058 0
M  V30 1068 C 101.441 2.23057 -0.690488 0
M  V30 1069 C 102.422 1.67141 0.315901 0
M  V30 1070 O 103.607 1.93253 0.191556 0
M  V30 1071 C 100.737 3.47222 -0.073625 0
M  V30 1072 C 99.6908 4.16016 -1.00573 0
M  V30 1073 C 99.0168 5.34104 -0.252289 0
M  V30 1074 C 100.317 4.67264 -2.33371 0
M  V30 1075 H 102.011 2.54271 -1.58072 0
M  V30 1076 H 99.5568 1.22218 -0.76149 0
M  V30 1077 H 101.51 4.20939 0.19714 0
M  V30 1078 H 100.234 3.15302 0.85161 0
M  V30 1079 H 98.8928 3.44223 -1.2612 0
M  V30 1080 H 98.5408 4.98437 0.675988 0
M  V30 1081 H 98.2408 5.81072 -0.873455 0
M  V30 1082 H 99.7648 6.10599 0.0109857 0
M  V30 1083 H 101.179 5.32573 -2.12223 0
M  V30 1084 H 99.5758 5.24843 -2.90963 0
M  V30 1085 H 100.646 3.83602 -2.96611 0
M  V30 1086 N 101.989 0.842826 1.3317 0
M  V30 1087 C 103.405 0.531128 1.50503 0
M  V30 1088 C 103.605 -0.940734 1.78192 0
M  V30 1089 O 102.661 -1.72436 1.84451 0
M  V30 1090 C 103.974 1.40789 2.65705 0
M  V30 1091 C 105.522 1.40708 2.79589 0
M  V30 1092 C 105.997 2.26878 3.97857 0
M  V30 1093 N 107.488 2.24609 4.05099 0
M  V30 1094 C 108.223 2.88019 4.95815 0
M  V30 1095 N 107.719 3.60496 5.9162 0
M  V30 1096 N 109.512 2.77469 4.88843 0
M  V30 1097 H 101.663 1.79557 1.1346 0
M  V30 1098 H 103.926 0.766267 0.558156 0
M  V30 1099 H 103.632 2.454 2.51936 0
M  V30 1100 H 103.506 1.08677 3.61205 0
M  V30 1101 H 105.893 0.368668 2.92788 0
M  V30 1102 H 105.974 1.76829 1.84838 0
M  V30 1103 H 105.618 3.3078 3.85418 0
M  V30 1104 H 105.548 1.88096 4.91861 0
M  V30 1105 H 108.039 1.71906 3.36536 0
M  V30 1106 H 108.352 4.06076 6.57512 0
M  V30 1107 H 106.697 3.64604 5.91683 0
M  V30 1108 H 109.888 2.20406 4.12963 0
M  V30 1109 H 110.061 3.2717 5.59342 0
M  V30 1110 N 103.467 -1.45747 0.599634 0
M  V30 1111 C 104.716 -2.01502 0.0893511 0
M  V30 1112 C 105.029 -1.4748 -1.28488 0
M  V30 1113 O 106.235 -1.95161 -1.88745 0
M  V30 1114 C 104.691 -3.59735 0.109082 0
M  V30 1115 C 104.299 -4.22754 1.48267 0
M  V30 1116 C 106.043 -4.23085 -0.346374 0
M  V30 1117 C 103.95 -5.73115 1.45921 0
M  V30 1118 H 102.88 -0.753417 0.0296347 0
M  V30 1119 H 105.531 -1.67303 0.753788 0
M  V30 1120 H 103.913 -3.91087 -0.621854 0
M  V30 1121 H 105.087 -4.02987 2.23468 0
M  V30 1122 H 103.402 -3.71567 1.87955 0
M  V30 1123 H 105.999 -5.33327 -0.38298 0
M  V30 1124 H 106.342 -3.93201 -1.36743 0
M  V30 1125 H 106.875 -3.9642 0.331038 0
M  V30 1126 H 103.614 -6.07685 2.45762 0
M  V30 1127 H 103.134 -5.95097 0.749665 0
M  V30 1128 H 104.813 -6.3616 1.17941 0
M  V30 1129 N 104.945 -0.338344 -1.53925 0
M  V30 1130 C 105.875 0.51328 -2.27789 0
M  V30 1131 C 106.856 1.107 -1.29149 0
M  V30 1132 O 108.041 1.12937 -1.57984 0
M  V30 1133 C 105.171 1.66697 -3.04679 0
M  V30 1134 C 104.125 1.20183 -4.1078 0
M  V30 1135 C 103.451 2.44363 -4.75595 0
M  V30 1136 C 104.751 0.30605 -5.21403 0
M  V30 1137 H 106.445 -0.102883 -2.99223 0
M  V30 1138 H 103.991 -0.0509219 -1.4391 0
M  V30 1139 H 105.944 2.26915 -3.55088 0
M  V30 1140 H 104.668 2.30995 -2.30887 0
M  V30 1141 H 103.327 0.622499 -3.61276 0
M  V30 1142 H 102.975 3.07057 -3.98403 0
M  V30 1143 H 102.675 2.13925 -5.47275 0
M  V30 1144 H 104.199 3.05317 -5.28786 0
M  V30 1145 H 105.613 0.814929 -5.67478 0
M  V30 1146 H 104.01 0.0937929 -6.00027 0
M  V30 1147 H 105.08 -0.65921 -4.80398 0
M  V30 1148 N 106.423 1.57458 -0.0668435 0
M  V30 1149 C 107.7 1.8469 0.644132 0
M  V30 1150 C 108.08 0.958343 1.88093 0
M  V30 1151 O 107.428 0.0233579 2.28488 0
M  V30 1152 C 107.638 3.34767 0.986509 0
M  V30 1153 C 108.986 4.02159 1.36212 0
M  V30 1154 O 110.01 3.39484 1.07839 0
M  V30 1155 O 108.869 5.12694 1.89227 0
M  V30 1156 H 105.963 0.762816 0.319437 0
M  V30 1157 H 108.509 1.6942 -0.0973986 0
M  V30 1158 H 107.281 3.91151 0.107883 0
M  V30 1159 H 106.904 3.55281 1.78497 0
M  V30 1160 N 107.901 -0.206675 1.56239 0
M  V30 1161 C 108.811 -1.27686 1.96808 0
M  V30 1162 C 109.827 -1.50455 0.874035 0
M  V30 1163 O 111.003 -1.63295 1.17884 0
M  V30 1164 C 108.068 -2.60358 2.28942 0
M  V30 1165 C 107.129 -2.45762 3.51994 0
M  V30 1166 C 106.362 -3.72108 3.82585 0
M  V30 1167 O 106.585 -4.75776 3.14631 0
M  V30 1168 O 105.519 -3.6833 4.76043 0
M  V30 1169 H 109.345 -0.962593 2.88041 0
M  V30 1170 H 106.93 -0.410746 1.43643 0
M  V30 1171 H 108.812 -3.38687 2.50737 0
M  V30 1172 H 107.487 -2.91435 1.4088 0
M  V30 1173 H 106.394 -1.65584 3.35459 0
M  V30 1174 H 107.727 -2.19621 4.40486 0
M  V30 1175 N 109.379 -1.50304 -0.473955 0
M  V30 1176 C 110.289 -1.7174 -1.5982 0
M  V30 1177 C 111.305 -0.600457 -1.63311 0
M  V30 1178 O 112.481 -0.878441 -1.81233 0
M  V30 1179 C 109.546 -1.80427 -2.96052 0
M  V30 1180 C 108.607 -3.04148 -3.02972 0
M  V30 1181 C 107.84 -3.12411 -4.32706 0
M  V30 1182 O 108.063 -2.27542 -5.23049 0
M  V30 1183 O 106.997 -4.05113 -4.45159 0
M  V30 1184 H 110.823 -2.67035 -1.44657 0
M  V30 1185 H 108.408 -1.34366 -0.653148 0
M  V30 1186 H 110.29 -1.88338 -3.7697 0
M  V30 1187 H 108.965 -0.883156 -3.11419 0
M  V30 1188 H 107.872 -3.0174 -2.21142 0
M  V30 1189 H 109.205 -3.95829 -2.92541 0
M  V30 1190 N 110.857 0.726932 -1.39834 0
M  V30 1191 C 111.807 1.83232 -1.35683 0
M  V30 1192 C 112.791 1.59155 -0.236295 0
M  V30 1193 O 113.983 1.70522 -0.474488 0
M  V30 1194 C 111.112 3.21246 -1.21062 0
M  V30 1195 C 110.198 3.51125 -2.37849 0
M  V30 1196 N 110.589 3.51889 -3.63329 0
M  V30 1197 C 108.887 3.81527 -2.30982 0
M  V30 1198 C 109.588 3.79791 -4.40606 0
M  V30 1199 N 108.564 3.97971 -3.70297 0
M  V30 1200 H 112.366 1.8214 -2.30656 0
M  V30 1201 H 109.88 0.925545 -1.33444 0
M  V30 1202 H 111.877 4.00387 -1.16171 0
M  V30 1203 H 110.537 3.23572 -0.270458 0
M  V30 1204 H 111.548 3.33008 -3.96643 0
M  V30 1205 H 108.225 3.91411 -1.45272 0
M  V30 1206 H 109.615 3.86783 -5.49408 0
M  V30 1207 N 112.336 1.25143 0.95797 0
M  V30 1208 C 113.747 1.08851 1.51685 0
M  V30 1209 C 114.098 -0.33687 1.93286 0
M  V30 1210 O 113.223 -1.22644 1.7829 0
M  V30 1211 C 113.818 1.96978 2.75654 0
M  V30 1212 C 112.377 1.84881 3.27866 0
M  V30 1213 C 111.524 1.91329 2.0072 0
M  V30 1214 H 114.475 1.38478 0.77522 0
M  V30 1215 H 114.496 1.5078 3.4935 0
M  V30 1216 H 114.008 3.00712 2.45345 0
M  V30 1217 H 112.109 0.840182 3.63004 0
M  V30 1218 H 112.222 2.6951 3.96107 0
M  V30 1219 H 110.586 1.35174 2.15871 0
M  V30 1220 H 111.369 2.96661 1.72764 0
M  V30 1221 N 113.814 -1.1601 1.06675 0
M  V30 1222 C 114.761 -2.20525 0.680967 0
M  V30 1223 C 115.731 -1.62904 -0.324283 0
M  V30 1224 O 116.916 -1.89615 -0.212294 0
M  V30 1225 C 114.056 -3.45013 0.0776551 0
M  V30 1226 C 113.169 -4.16863 1.13355 0
M  V30 1227 C 112.304 -5.2888 0.49597 0
M  V30 1228 C 111.343 -5.92537 1.53513 0
M  V30 1229 N 110.48 -6.96038 0.920631 0
M  V30 1230 H 115.32 -2.52876 1.57663 0
M  V30 1231 H 112.857 -1.24199 0.788223 0
M  V30 1232 H 114.815 -4.16193 -0.289704 0
M  V30 1233 H 113.445 -3.132 -0.781393 0
M  V30 1234 H 112.497 -3.44248 1.61857 0
M  V30 1235 H 113.809 -4.60294 1.92174 0
M  V30 1236 H 112.963 -6.06653 0.0758604 0
M  V30 1237 H 111.702 -4.86622 -0.324062 0
M  V30 1238 H 110.707 -5.13482 1.9651 0
M  V30 1239 H 111.932 -6.36873 2.35733 0
M  V30 1240 H 109.878 -6.55888 0.12138 0
M  V30 1241 H 109.795 -7.3786 1.64616 0
M  V30 1242 H 111.063 -7.77725 0.525795 0
M  V30 1243 N 115.292 -0.849877 -1.32721 0
M  V30 1244 C 116.54 -0.450032 -1.97026 0
M  V30 1245 C 116.861 0.996604 -1.67609 0
M  V30 1246 O 116.131 1.6958 -0.980786 0
M  V30 1247 H 114.711 -0.163426 -0.728904 0
M  V30 1248 H 117.373 -1.08526 -1.6189 0
M  V30 1249 H 116.469 -0.591146 -3.0645 0
M  V30 1250 N 116.77 1.45427 -0.607355 0
M  V30 1251 C 117.717 2.3053 0.111625 0
M  V30 1252 C 118.687 1.4209 0.860216 0
M  V30 1253 O 119.872 1.71019 0.845998 0
M  V30 1254 C 117.012 3.26992 1.10319 0
M  V30 1255 C 116.125 4.30535 0.355493 0
M  V30 1256 C 115.26 5.14105 1.33676 0
M  V30 1257 C 114.299 6.09376 0.576862 0
M  V30 1258 N 113.436 6.85727 1.5074 0
M  V30 1259 H 118.276 2.91477 -0.620093 0
M  V30 1260 H 115.813 1.43631 -0.317594 0
M  V30 1261 H 117.771 3.81385 1.6912 0
M  V30 1262 H 116.401 2.67799 1.80232 0
M  V30 1263 H 115.453 3.78805 -0.348023 0
M  V30 1264 H 116.765 4.98235 -0.237423 0
M  V30 1265 H 115.919 5.72897 1.99684 0
M  V30 1266 H 114.658 4.46423 1.9636 0
M  V30 1267 H 113.663 5.49715 -0.0968519 0
M  V30 1268 H 114.888 6.79085 -0.0449341 0
M  V30 1269 H 112.834 6.20735 2.12189 0
M  V30 1270 H 112.751 7.49778 0.967913 0
M  V30 1271 H 114.019 7.4906 2.15706 0
M  V30 1272 N 118.248 0.346503 1.53744 0
M  V30 1273 C 119.478 -0.250047 2.05081 0
M  V30 1274 C 119.886 -1.44529 1.22098 0
M  V30 1275 O 119.229 -1.81992 0.249917 0
M  V30 1276 C 119.291 -0.725934 3.52094 0
M  V30 1277 C 118.955 0.350053 4.55657 0
M  V30 1278 C 119.952 1.19372 5.0601 0
M  V30 1279 C 117.637 0.504827 4.99757 0
M  V30 1280 C 119.631 2.17768 5.99046 0
M  V30 1281 C 117.318 1.49218 5.92602 0
M  V30 1282 C 118.316 2.32706 6.42135 0
M  V30 1283 O 118.004 3.2976 7.33153 0
M  V30 1284 H 117.736 -0.0515469 0.674032 0
M  V30 1285 H 120.29 0.497559 1.99282 0
M  V30 1286 H 118.52 -1.52483 3.55367 0
M  V30 1287 H 120.209 -1.24336 3.86388 0
M  V30 1288 H 120.975 1.08525 4.72702 0
M  V30 1289 H 116.854 -0.135178 4.60802 0
M  V30 1290 H 120.398 2.82971 6.37631 0
M  V30 1291 H 116.295 1.6012 6.25325 0
M  V30 1292 H 117.063 3.25265 7.51096 0
M  V30 1293 N 119.726 -1.57421 0.075193 0
M  V30 1294 C 120.676 -2.09441 -0.901025 0
M  V30 1295 C 121.66 -1.00486 -1.25663 0
M  V30 1296 O 122.852 -1.2679 -1.23504 0
M  V30 1297 C 119.981 -2.66233 -2.16737 0
M  V30 1298 C 119.067 -3.82198 -1.83808 0
M  V30 1299 N 119.458 -4.91028 -1.21345 0
M  V30 1300 C 117.756 -3.91558 -2.13538 0
M  V30 1301 C 118.457 -5.71852 -1.06585 0
M  V30 1302 N 117.433 -5.20233 -1.57667 0
M  V30 1303 H 121.235 -2.90972 -0.413815 0
M  V30 1304 H 118.749 -1.6189 -0.128601 0
M  V30 1305 H 120.746 -3.01819 -2.87595 0
M  V30 1306 H 119.406 -1.8615 -2.66042 0
M  V30 1307 H 120.417 -5.10323 -0.88268 0
M  V30 1308 H 117.094 -3.22454 -2.65197 0
M  V30 1309 H 118.484 -6.69401 -0.578933 0
M  V30 1310 N 121.204 0.198386 -1.56346 0
M  V30 1311 C 122.154 1.2499 -1.90687 0
M  V30 1312 C 123.138 1.41158 -0.772217 0
M  V30 1313 O 124.33 1.43584 -1.03502 0
M  V30 1314 C 121.459 2.59542 -2.24706 0
M  V30 1315 C 120.545 2.47181 -3.44619 0
M  V30 1316 N 120.936 2.04495 -4.62618 0
M  V30 1317 C 119.234 2.78082 -3.48692 0
M  V30 1318 C 119.935 2.03945 -5.44776 0
M  V30 1319 N 118.911 2.45323 -4.85095 0
M  V30 1320 H 122.713 0.911149 -2.7942 0
M  V30 1321 H 120.227 0.40684 -1.57221 0
M  V30 1322 H 122.224 3.3549 -2.47491 0
M  V30 1323 H 120.884 2.94244 -1.37298 0
M  V30 1324 H 121.895 1.75256 -4.87345 0
M  V30 1325 H 118.572 3.17002 -2.71691 0
M  V30 1326 H 119.962 1.72872 -6.4928 0
M  V30 1327 N 122.682 1.50554 0.465978 0
M  V30 1328 C 123.93 1.61479 1.21528 0
M  V30 1329 C 124.251 0.319596 1.92363 0
M  V30 1330 O 123.521 -0.663194 1.84333 0
M  V30 1331 H 122.101 0.595055 0.451573 0
M  V30 1332 H 124.763 1.87355 0.53704 0
M  V30 1333 H 123.859 2.42846 1.96042 0
M  V30 1334 N 124.16 -0.719506 1.40217 0
M  V30 1335 C 125.09 -1.8465 1.42922 0
M  V30 1336 C 126.071 -1.67599 0.29062 0
M  V30 1337 O 127.256 -1.87688 0.498677 0
M  V30 1338 C 124.386 -3.22565 1.28722 0
M  V30 1339 C 123.34 -3.54281 2.40144 0
M  V30 1340 C 122.666 -4.91298 2.11023 0
M  V30 1341 C 123.966 -3.55676 3.82481 0
M  V30 1342 H 125.66 -1.82644 2.37237 0
M  V30 1343 H 123.206 -0.877305 1.1419 0
M  V30 1344 H 125.159 -4.01095 1.29232 0
M  V30 1345 H 123.883 -3.25137 0.308811 0
M  V30 1346 H 122.542 -2.78088 2.38877 0
M  V30 1347 H 122.19 -4.90468 1.11582 0
M  V30 1348 H 121.89 -5.13485 2.8567 0
M  V30 1349 H 123.414 -5.72166 2.13209 0
M  V30 1350 H 124.828 -4.24254 3.85592 0
M  V30 1351 H 123.225 -3.89388 4.56614 0
M  V30 1352 H 124.295 -2.55144 4.12346 0
M  V30 1353 N 125.638 -1.25649 -0.95132 0
M  V30 1354 C 126.863 -1.13443 -1.73624 0
M  V30 1355 C 127.288 0.307565 -1.85568 0
M  V30 1356 O 126.646 1.22282 -1.33854 0
M  V30 1357 C 126.694 -1.79723 -3.12621 0
M  V30 1358 O 125.798 -1.07912 -3.98031 0
M  V30 1359 H 125.139 -0.395872 -0.533086 0
M  V30 1360 H 127.669 -1.66276 -1.1922 0
M  V30 1361 H 127.679 -1.86141 -3.63064 0
M  V30 1362 H 126.354 -2.84633 -3.03244 0
M  V30 1363 H 124.931 -1.09398 -3.56492 0
M  V30 1364 N 127.117 1.15442 -1.07289 0
M  V30 1365 C 128.08 2.18358 -0.696591 0
M  V30 1366 C 129.08 1.58637 0.262837 0
M  V30 1367 O 130.27 1.74145 0.0438809 0
M  V30 1368 C 127.402 3.4089 -0.0266151 0
M  V30 1369 H 128.595 2.53162 -1.60776 0
M  V30 1370 H 126.148 1.29893 -0.869342 0
M  V30 1371 H 126.883 3.11653 0.896822 0
M  V30 1372 H 126.668 3.85495 -0.716657 0
M  V30 1373 H 128.158 4.17009 0.222028 0
M  V30 1374 N 128.595 0.856903 1.32268 0
M  V30 1375 C 129.525 0.31858 2.31316 0
M  V30 1376 C 130.506 -0.583487 1.59779 0
M  V30 1377 O 131.691 -0.503259 1.87566 0
M  V30 1378 C 128.821 -0.491979 3.43798 0
M  V30 1379 C 127.775 0.315849 4.26833 0
M  V30 1380 C 127.101 -0.619586 5.31098 0
M  V30 1381 C 128.401 1.54282 4.98993 0
M  V30 1382 H 130.095 1.14621 2.76591 0
M  V30 1383 H 127.641 0.552613 1.32974 0
M  V30 1384 H 129.594 -0.879012 4.1213 0
M  V30 1385 H 128.318 -1.35299 2.97257 0
M  V30 1386 H 126.977 0.684664 3.6015 0
M  V30 1387 H 126.625 -1.47751 4.8081 0
M  V30 1388 H 126.325 -0.0830621 5.87541 0
M  V30 1389 H 127.849 -1.00375 6.02293 0
M  V30 1390 H 129.263 1.22796 5.59995 0
M  V30 1391 H 127.66 2.01745 5.65172 0
M  V30 1392 H 128.73 2.30285 4.26728 0
M  V30 1393 N 130.073 -1.45103 0.615059 0
M  V30 1394 C 131.02 -2.30586 -0.0993978 0
M  V30 1395 C 131.99 -1.42544 -0.852669 0
M  V30 1396 O 133.175 -1.71465 -0.836917 0
M  V30 1397 C 130.315 -3.27572 -1.08583 0
M  V30 1398 C 129.428 -4.30717 -0.332656 0
M  V30 1399 C 128.563 -5.14807 -1.30947 0
M  V30 1400 C 127.602 -6.09673 -0.544538 0
M  V30 1401 N 126.739 -6.86517 -1.47101 0
M  V30 1402 H 131.579 -2.91144 0.635542 0
M  V30 1403 H 129.116 -1.4346 0.325206 0
M  V30 1404 H 131.074 -3.82276 -1.67095 0
M  V30 1405 H 129.704 -2.68751 -1.78809 0
M  V30 1406 H 128.756 -3.78615 0.368107 0
M  V30 1407 H 130.068 -4.98102 0.263842 0
M  V30 1408 H 129.222 -5.73948 -1.96643 0
M  V30 1409 H 127.961 -4.47458 -1.9399 0
M  V30 1410 H 126.966 -5.49656 0.126003 0
M  V30 1411 H 128.191 -6.79052 0.080947 0
M  V30 1412 H 126.137 -6.21851 -2.08895 0
M  V30 1413 H 126.054 -7.50281 -0.928137 0
M  V30 1414 H 127.322 -7.50194 -2.11731 0
M  V30 1415 N 131.551 -0.354651 -1.53558 0
M  V30 1416 C 132.962 0.126902 -1.86268 0
M  V30 1417 C 133.313 1.49075 -1.27558 0
M  V30 1418 O 132.438 2.08105 -0.5934 0
M  V30 1419 C 133.033 0.237046 -3.3797 0
M  V30 1420 C 131.592 0.662842 -3.70518 0
M  V30 1421 C 130.739 -0.196652 -2.76602 0
M  V30 1422 H 133.69 -0.573849 -1.47962 0
M  V30 1423 H 133.711 1.06259 -3.65362 0
M  V30 1424 H 133.223 -0.755725 -3.80671 0
M  V30 1425 H 131.324 1.66424 -3.33367 0
M  V30 1426 H 131.437 0.445034 -4.77029 0
M  V30 1427 H 129.801 0.332763 -2.52517 0
M  V30 1428 H 130.584 -1.18676 -3.22135 0
M  V30 1429 N 133.029 1.57378 -0.0835403 0
M  V30 1430 C 134.278 1.93106 0.582498 0
M  V30 1431 C 134.591 0.96651 1.70053 0
M  V30 1432 O 135.797 1.21705 2.42693 0
M  V30 1433 C 134.253 3.43076 1.08751 0
M  V30 1434 C 133.861 4.48 -0.000146404 0
M  V30 1435 C 135.605 3.87785 1.72694 0
M  V30 1436 C 133.512 5.89113 0.519568 0
M  V30 1437 H 132.442 0.720775 0.221358 0
M  V30 1438 H 135.093 1.82821 -0.157675 0
M  V30 1439 H 133.475 3.48474 1.88101 0
M  V30 1440 H 134.649 4.54233 -0.775199 0
M  V30 1441 H 132.964 4.1283 -0.54406 0
M  V30 1442 H 135.561 4.90604 2.1263 0
M  V30 1443 H 135.904 3.25796 2.59158 0
M  V30 1444 H 136.437 3.8504 0.999457 0
M  V30 1445 H 133.176 6.54775 -0.308186 0
M  V30 1446 H 132.696 5.86376 1.26188 0
M  V30 1447 H 134.375 6.39346 0.992237 0
M  V30 1448 N 134.507 -0.190092 1.56449 0
M  V30 1449 C 135.923 -0.54113 1.50146 0
M  V30 1450 C 136.123 -1.85603 0.784465 0
M  V30 1451 O 135.179 -2.5024 0.337051 0
M  V30 1452 C 136.492 -0.591241 2.9483 0
M  V30 1453 C 138.04 -0.679732 3.0553 0
M  V30 1454 C 138.515 -0.760908 4.51635 0
M  V30 1455 N 140.006 -0.824302 4.55806 0
M  V30 1456 C 140.741 -0.907365 5.66175 0
M  V30 1457 N 140.237 -0.952422 6.86222 0
M  V30 1458 N 142.03 -0.94494 5.541 0
M  V30 1459 H 134.181 0.67235 2.01478 0
M  V30 1460 H 136.444 0.240127 0.917084 0
M  V30 1461 H 136.15 0.305905 3.50367 0
M  V30 1462 H 136.024 -1.44422 3.48457 0
M  V30 1463 H 138.411 -1.56731 2.50039 0
M  V30 1464 H 138.492 0.199549 2.5502 0
M  V30 1465 H 138.136 0.122336 5.07753 0
M  V30 1466 H 138.066 -1.65606 4.99882 0
M  V30 1467 H 140.557 -0.798526 3.69367 0
M  V30 1468 H 140.87 -1.01645 7.66086 0
M  V30 1469 H 139.215 -0.921014 6.8887 0
M  V30 1470 H 142.406 -0.906612 4.59236 0
M  V30 1471 H 142.579 -1.00622 6.4014 0
M  V30 1472 N 135.985 -1.50799 -0.457987 0
M  V30 1473 C 137.213 -1.66218 -1.23203 0
M  V30 1474 C 137.628 -0.350894 -1.85511 0
M  V30 1475 O 136.985 0.668546 -1.69814 0
M  V30 1476 C 137.036 -2.76291 -2.33121 0
M  V30 1477 O 136.757 -4.02338 -1.73366 0
M  V30 1478 C 138.258 -3.028 -3.2377 0
M  V30 1479 H 135.478 -0.558361 -0.372121 0
M  V30 1480 H 138.022 -1.97099 -0.545179 0
M  V30 1481 H 136.177 -2.48068 -2.97558 0
M  V30 1482 H 136.591 -4.63312 -2.4585 0
M  V30 1483 H 138.065 -3.8345 -3.97077 0
M  V30 1484 H 138.542 -2.14385 -3.83322 0
M  V30 1485 H 139.148 -3.32604 -2.65056 0
M  V30 1486 N 137.463 0.71206 -1.40597 0
M  V30 1487 C 138.691 1.50111 -1.42388 0
M  V30 1488 C 139.106 1.88784 -0.0245395 0
M  V30 1489 O 138.463 1.55681 0.952351 0
M  V30 1490 C 138.514 2.7742 -2.31776 0
M  V30 1491 O 138.235 2.40382 -3.66262 0
M  V30 1492 C 139.736 3.7129 -2.42196 0
M  V30 1493 H 136.956 0.46314 -0.485533 0
M  V30 1494 H 139.5 0.878068 -1.8469 0
M  V30 1495 H 137.655 3.36001 -1.92827 0
M  V30 1496 H 138.069 3.22324 -4.13772 0
M  V30 1497 H 139.543 4.57448 -3.08943 0
M  V30 1498 H 140.02 4.14641 -1.44809 0
M  V30 1499 H 140.626 3.18619 -2.81712 0
M  V30 1500 N 138.941 1.26152 0.944643 0
M  V30 1501 C 140.166 1.14363 1.7302 0
M  V30 1502 C 140.591 -0.29772 1.85729 0
M  V30 1503 O 139.949 -1.2157 1.34501 0
M  V30 1504 C 139.997 1.81378 3.11664 0
M  V30 1505 O 139.101 1.10022 3.97453 0
M  V30 1506 H 138.442 0.398694 0.53098 0
M  V30 1507 H 140.972 1.66906 1.18337 0
M  V30 1508 H 140.982 1.88064 3.62072 0
M  V30 1509 H 139.657 2.86237 3.0173 0
M  V30 1510 H 138.234 1.11287 3.55907 0
M  V30 1511 N 140.419 -1.14872 1.07899 0
M  V30 1512 C 141.366 -2.19791 0.704319 0
M  V30 1513 C 142.336 -1.63238 -0.306987 0
M  V30 1514 O 143.521 -1.8983 -0.192171 0
M  V30 1515 C 140.661 -3.44911 0.114244 0
M  V30 1516 C 139.774 -4.15637 1.1777 0
M  V30 1517 C 138.909 -5.28324 0.552037 0
M  V30 1518 C 137.948 -5.90875 1.59789 0
M  V30 1519 N 137.085 -6.95022 0.994404 0
M  V30 1520 H 141.925 -2.5119 1.60336 0
M  V30 1521 H 139.462 -1.23356 0.801352 0
M  V30 1522 H 141.42 -4.16477 -0.245544 0
M  V30 1523 H 140.05 -3.14011 -0.74813 0
M  V30 1524 H 139.102 -3.42512 1.65499 0
M  V30 1525 H 140.414 -4.5823 1.97046 0
M  V30 1526 H 139.568 -6.06538 0.1402 0
M  V30 1527 H 138.307 -4.86939 -0.272431 0
M  V30 1528 H 137.312 -5.11369 2.01945 0
M  V30 1529 H 138.537 -6.34337 2.42474 0
M  V30 1530 H 136.483 -6.55722 0.190939 0
M  V30 1531 H 136.4 -7.36073 1.72432 0
M  V30 1532 H 137.668 -7.77123 0.608253 0
M  V30 1533 N 141.898 -0.863906 -1.31812 0
M  V30 1534 C 142.848 -0.286898 -2.26188 0
M  V30 1535 C 143.832 0.572577 -1.50367 0
M  V30 1536 O 145.024 0.420447 -1.71934 0
M  V30 1537 C 142.153 0.515849 -3.39402 0
M  V30 1538 C 141.239 -0.356531 -4.22599 0
M  V30 1539 N 141.63 -1.44716 -4.84656 0
M  V30 1540 C 139.928 -0.147898 -4.45755 0
M  V30 1541 C 140.629 -1.98462 -5.46798 0
M  V30 1542 N 139.605 -1.28247 -5.28255 0
M  V30 1543 H 143.407 -1.12055 -2.717 0
M  V30 1544 H 140.921 -0.711012 -1.46008 0
M  V30 1545 H 142.918 0.945701 -4.06032 0
M  V30 1546 H 141.578 1.34718 -2.95434 0
M  V30 1547 H 142.589 -1.83008 -4.84488 0
M  V30 1548 H 139.266 0.647973 -4.12441 0
M  V30 1549 H 140.656 -2.89932 -6.06126 0
M  V30 1550 N 143.376 1.44774 -0.622745 0
M  V30 1551 C 144.308 2.28856 0.125485 0
M  V30 1552 C 145.321 1.40811 0.817069 0
M  V30 1553 O 146.51 1.65044 0.679918 0
M  V30 1554 C 143.61 3.16963 1.19949 0
M  V30 1555 C 142.783 4.33374 0.592064 0
M  V30 1556 C 141.842 5.02577 1.55893 0
M  V30 1557 O 140.868 5.58873 1.07933 0
M  V30 1558 N 142.07 5.03256 2.89334 0
M  V30 1559 H 144.835 2.93713 -0.596068 0
M  V30 1560 H 142.396 1.55129 -0.463303 0
M  V30 1561 H 144.388 3.60123 1.84644 0
M  V30 1562 H 142.958 2.53913 1.82337 0
M  V30 1563 H 142.178 3.93509 -0.233322 0
M  V30 1564 H 143.466 5.08527 0.166738 0
M  V30 1565 H 142.864 4.58836 3.30887 0
M  V30 1566 H 141.421 5.50232 3.49412 0
M  V30 1567 N 144.854 0.36279 1.53368 0
M  V30 1568 C 145.804 -0.501391 2.22419 0
M  V30 1569 C 146.788 -1.0509 1.2184 0
M  V30 1570 O 147.98 -0.981404 1.47301 0
M  V30 1571 C 145.109 -1.64201 3.01484 0
M  V30 1572 C 144.195 -1.10552 4.09438 0
M  V30 1573 N 144.586 -0.291788 5.04958 0
M  V30 1574 C 142.884 -1.3806 4.24094 0
M  V30 1575 C 143.585 0.00162655 5.817 0
M  V30 1576 N 142.561 -0.595244 5.40331 0
M  V30 1577 H 146.363 0.127159 2.93625 0
M  V30 1578 H 143.877 0.170658 1.61501 0
M  V30 1579 H 145.874 -2.27326 3.49469 0
M  V30 1580 H 144.534 -2.27365 2.31809 0
M  V30 1581 H 145.545 0.0687731 5.17854 0
M  V30 1582 H 142.222 -2.01522 3.65644 0
M  V30 1583 H 143.612 0.659278 6.68658 0
M  V30 1584 N 146.332 -1.57332 0.0918853 0
M  V30 1585 C 147.743 -1.81496 -0.437739 0
M  V30 1586 C 148.094 -1.00727 -1.6837 0
M  V30 1587 O 147.219 -0.235694 -2.15113 0
M  V30 1588 C 147.814 -3.29197 -0.800939 0
M  V30 1589 C 146.373 -3.54136 -1.27532 0
M  V30 1590 C 145.52 -2.75979 -0.270392 0
M  V30 1591 H 148.471 -1.55494 0.317366 0
M  V30 1592 H 148.492 -3.42344 -1.66074 0
M  V30 1593 H 148.004 -3.87955 0.106078 0
M  V30 1594 H 146.105 -3.00705 -2.20016 0
M  V30 1595 H 146.218 -4.62792 -1.23938 0
M  V30 1596 H 144.582 -2.43349 -0.751872 0
M  V30 1597 H 145.365 -3.37484 0.629248 0
M  V30 1598 N 147.81 0.181792 -1.56548 0
M  V30 1599 C 149.056 0.901431 -1.81665 0
M  V30 1600 C 149.389 1.82347 -0.668075 0
M  V30 1601 O 148.664 1.91669 0.330615 0
M  V30 1602 C 148.947 1.70618 -3.17115 0
M  V30 1603 C 148.8 0.807964 -4.42484 0
M  V30 1604 C 150.119 2.67605 -3.49393 0
M  V30 1605 H 147.238 0.32627 -0.660846 0
M  V30 1606 H 149.88 0.168134 -1.89255 0
M  V30 1607 H 148.03 2.33133 -3.10775 0
M  V30 1608 H 149.702 0.19649 -4.60881 0
M  V30 1609 H 147.945 0.115411 -4.33646 0
M  V30 1610 H 148.616 1.40632 -5.33785 0
M  V30 1611 H 151.092 2.15218 -3.56118 0
M  V30 1612 H 149.968 3.20985 -4.45264 0
M  V30 1613 H 150.229 3.47298 -2.73563 0
M  V30 1614 N 149.288 1.51039 0.449983 0
M  V30 1615 C 150.565 1.53612 1.21089 0
M  V30 1616 C 150.945 0.292997 2.09057 0
M  V30 1617 O 150.293 -0.72259 2.16774 0
M  V30 1618 C 150.503 2.84337 2.0237 0
M  V30 1619 C 151.851 3.35807 2.59843 0
M  V30 1620 O 152.875 2.85802 2.12593 0
M  V30 1621 O 151.734 4.23029 3.45989 0
M  V30 1622 H 148.828 0.617057 0.550608 0
M  V30 1623 H 151.374 1.63344 0.460082 0
M  V30 1624 H 150.146 3.66278 1.37681 0
M  V30 1625 H 149.769 2.77708 2.84542 0
M  V30 1626 N 150.766 -0.704594 1.40972 0
M  V30 1627 C 151.714 -1.83994 1.42299 0
M  V30 1628 C 152.708 -1.66684 0.302111 0
M  V30 1629 O 153.914 -1.73655 0.473697 0
M  V30 1630 H 150.289 -0.606171 0.44504 0
M  V30 1631 H 152.26 -1.79992 2.38003 0
M  V30 1632 C 151.009 -3.21946 1.31323 0
M  V30 1633 H 150.332 -3.35878 2.16855 0
M  V30 1634 H 151.772 -4.01491 1.36311 0
M  V30 1635 C 150.231 -3.36891 0.0245977 0
M  V30 1636 O 150.761 -3.90687 -0.934153 0
M  V30 1637 N 148.967 -2.90559 -0.0485243 0
M  V30 1638 H 148.514 -2.46968 0.732419 0
M  V30 1639 H 148.472 -3.00937 -0.910171 0
M  V30 1640 N 152.244 -1.26651 -0.937939 0
M  V30 1641 C 153.207 -1.08546 -2.01867 0
M  V30 1642 C 154.207 -0.0327327 -1.60767 0
M  V30 1643 O 155.397 -0.276427 -1.71993 0
M  V30 1644 C 152.529 -0.651711 -3.34613 0
M  V30 1645 H 153.722 -2.04502 -2.1936 0
M  V30 1646 H 151.275 -1.09294 -1.11734 0
M  V30 1647 H 152.01 0.309696 -3.22818 0
M  V30 1648 H 151.795 -1.41189 -3.65798 0
M  V30 1649 H 153.285 -0.546973 -4.14002 0
M  V30 1650 N 153.722 1.14298 -1.08507 0
M  V30 1651 C 154.97 1.84993 -0.813763 0
M  V30 1652 C 155.291 1.83405 0.662393 0
M  V30 1653 O 154.561 1.28319 1.48024 0
M  V30 1654 H 153.141 0.684966 -0.298045 0
M  V30 1655 H 155.803 1.385 -1.37126 0
M  V30 1656 H 154.899 2.89788 -1.15884 0
M  V30 1657 N 155.201 0.870884 1.31352 0
M  V30 1658 C 156.131 0.343096 2.30966 0
M  V30 1659 C 157.112 -0.566507 1.60389 0
M  V30 1660 O 158.297 -0.483336 1.88089 0
M  V30 1661 C 155.427 -0.455487 3.443 0
M  V30 1662 C 154.381 0.361103 4.26474 0
M  V30 1663 C 153.707 -0.563221 5.31725 0
M  V30 1664 C 155.007 1.59566 4.97329 0
M  V30 1665 H 156.701 1.17548 2.75359 0
M  V30 1666 H 154.247 0.566686 1.32381 0
M  V30 1667 H 156.2 -0.83525 4.13039 0
M  V30 1668 H 154.924 -1.32139 2.98675 0
M  V30 1669 H 153.583 0.722825 3.59403 0
M  V30 1670 H 153.231 -1.42643 4.82351 0
M  V30 1671 H 152.931 -0.0207409 5.87596 0
M  V30 1672 H 154.455 -0.939808 6.03324 0
M  V30 1673 H 155.869 1.28728 5.58661 0
M  V30 1674 H 154.266 2.07728 5.63 0
M  V30 1675 H 155.336 2.34798 4.24262 0
M  V30 1676 N 156.679 -1.44442 0.630414 0
M  V30 1677 C 157.926 -2.02052 0.134617 0
M  V30 1678 C 158.254 -1.49576 -1.24327 0
M  V30 1679 O 157.509 -0.669806 -1.83881 0
M  V30 1680 C 157.808 -3.57332 0.0697835 0
M  V30 1681 C 157.474 -4.29058 1.38635 0
M  V30 1682 C 156.136 -4.4837 1.74694 0
M  V30 1683 C 158.488 -4.69872 2.25543 0
M  V30 1684 C 155.816 -5.05756 2.97369 0
M  V30 1685 C 158.168 -5.28616 3.47487 0
M  V30 1686 C 156.832 -5.46147 3.8377 0
M  V30 1687 H 156.102 -0.739361 0.0492598 0
M  V30 1688 H 158.749 -1.73217 0.816586 0
M  V30 1689 H 157.054 -3.85577 -0.695553 0
M  V30 1690 H 158.751 -3.99637 -0.330344 0
M  V30 1691 H 155.341 -4.14357 1.09574 0
M  V30 1692 H 159.525 -4.54666 1.98979 0
M  V30 1693 H 154.781 -5.17515 3.25558 0
M  V30 1694 H 158.955 -5.59192 4.15063 0
M  V30 1695 H 156.582 -5.9038 4.7891 0
M  V30 1696 N 158.157 -0.370918 -1.53173 0
M  V30 1697 C 159.382 0.220293 -2.06227 0
M  V30 1698 C 159.807 1.41243 -1.24225 0
M  V30 1699 O 159.165 1.79387 -0.262645 0
M  V30 1700 C 159.213 0.586663 -3.55796 0
M  V30 1701 O 158.317 1.68317 -3.76488 0
M  V30 1702 H 157.658 0.0308099 -0.663285 0
M  V30 1703 H 160.188 -0.533068 -1.97534 0
M  V30 1704 H 160.198 0.85617 -3.98916 0
M  V30 1705 H 158.873 -0.285013 -4.14922 0
M  V30 1706 H 157.45 1.40881 -3.45264 0
M  V30 1707 N 159.635 1.57281 -0.100228 0
M  V30 1708 C 160.875 1.96419 0.56558 0
M  V30 1709 C 161.239 0.981265 1.65031 0
M  V30 1710 O 162.44 1.26133 2.37369 0
M  V30 1711 C 160.711 3.39996 1.10171 0
M  V30 1712 S 162.27 4.01134 1.77867 0
M  V30 1713 H 159.088 0.68667 0.184406 0
M  V30 1714 H 161.69 1.94662 -0.180851 0
M  V30 1715 H 160.394 4.09296 0.300803 0
M  V30 1716 H 159.925 3.45361 1.88385 0
M  V30 1717 H 161.94 3.90358 3.06326 0
M  V30 1718 N 161.113 -0.173488 1.56642 0
M  V30 1719 C 162.046 -1.24353 1.91342 0
M  V30 1720 C 163.024 -1.4289 0.775965 0
M  V30 1721 O 164.208 -1.57932 1.02907 0
M  V30 1722 C 161.335 -2.60683 2.16245 0
M  V30 1723 C 160.381 -2.58894 3.38934 0
M  V30 1724 S 161.214 -2.0819 4.93373 0
M  V30 1725 C 162.37 -3.46302 5.21369 0
M  V30 1726 H 162.603 -0.947345 2.81803 0
M  V30 1727 H 160.136 -0.377958 1.49703 0
M  V30 1728 H 162.094 -3.39149 2.31275 0
M  V30 1729 H 160.755 -2.87502 1.26496 0
M  V30 1730 H 159.948 -3.59188 3.53553 0
M  V30 1731 H 159.55 -1.88522 3.2301 0
M  V30 1732 H 161.842 -4.42287 5.13214 0
M  V30 1733 H 162.785 -3.3656 6.23003 0
M  V30 1734 H 163.193 -3.42214 4.48943 0
M  V30 1735 N 162.591 -1.51276 -0.441967 0
M  V30 1736 C 163.819 -1.67516 -1.21434 0
M  V30 1737 C 164.234 -0.37055 -1.85128 0
M  V30 1738 O 163.591 0.650498 -1.70513 0
M  V30 1739 C 163.642 -2.78748 -2.30177 0
M  V30 1740 O 163.363 -4.04154 -1.69089 0
M  V30 1741 C 164.864 -3.06217 -3.20541 0
M  V30 1742 H 162.084 -0.562276 -0.366178 0
M  V30 1743 H 164.628 -1.97666 -0.524244 0
M  V30 1744 H 162.783 -2.5121 -2.94911 0
M  V30 1745 H 163.197 -4.65894 -2.40922 0
M  V30 1746 H 164.671 -3.8764 -3.92987 0
M  V30 1747 H 165.148 -2.18439 -3.81026 0
M  V30 1748 H 165.754 -3.35397 -2.61513 0
M  V30 1749 N 164.069 0.697108 -1.41344 0
M  V30 1750 C 165.316 1.45714 -1.40619 0
M  V30 1751 C 165.644 1.94494 -0.0147907 0
M  V30 1752 O 164.899 1.69794 0.973066 0
M  V30 1753 C 165.198 2.68553 -2.35826 0
M  V30 1754 C 164.864 2.38438 -3.82698 0
M  V30 1755 C 163.526 2.29936 -4.22709 0
M  V30 1756 C 165.878 2.13567 -4.75435 0
M  V30 1757 C 163.206 1.94656 -5.53467 0
M  V30 1758 C 165.558 1.79797 -6.06511 0
M  V30 1759 C 164.222 1.69789 -6.45545 0
M  V30 1760 H 163.492 0.533206 -0.51456 0
M  V30 1761 H 166.139 0.796901 -1.74131 0
M  V30 1762 H 164.444 3.39503 -1.95563 0
M  V30 1763 H 166.141 3.2669 -2.32539 0
M  V30 1764 H 162.731 2.4595 -3.51008 0
M  V30 1765 H 166.915 2.19082 -4.45328 0
M  V30 1766 H 162.171 1.8546 -5.82593 0
M  V30 1767 H 166.345 1.59572 -6.77872 0
M  V30 1768 H 163.972 1.4222 -7.46778 0
M  V30 1769 N 165.547 1.27147 0.931209 0
M  V30 1770 C 166.772 1.16191 1.71797 0
M  V30 1771 C 167.197 -0.278004 1.86034 0
M  V30 1772 O 166.555 -1.20137 1.35782 0
M  V30 1773 C 166.603 1.84673 3.09723 0
M  V30 1774 O 165.707 1.14231 3.96264 0
M  V30 1775 H 165.048 0.404303 0.526721 0
M  V30 1776 H 167.578 1.68152 1.1656 0
M  V30 1777 H 167.588 1.91893 3.60057 0
M  V30 1778 H 166.263 2.89421 2.98677 0
M  V30 1779 H 164.84 1.15056 3.54706 0
M  V30 1780 N 167.025 -1.13721 1.09112 0
M  V30 1781 C 168.271 -1.85413 0.836283 0
M  V30 1782 C 168.626 -1.8175 -0.631249 0
M  V30 1783 O 167.919 -1.24238 -1.45861 0
M  V30 1784 C 168.113 -3.32861 1.30146 0
M  V30 1785 C 167.942 -3.50882 2.81268 0
M  V30 1786 C 166.712 -3.65312 3.49106 0
M  V30 1787 C 168.91 -3.47196 3.7942 0
M  V30 1788 N 166.892 -3.71563 4.88686 0
M  V30 1789 C 168.263 -3.59777 5.04936 0
M  V30 1790 C 170.318 -3.30577 3.72321 0
M  V30 1791 C 169.021 -3.57455 6.24194 0
M  V30 1792 C 171.047 -3.29562 4.91063 0
M  V30 1793 C 170.409 -3.42691 6.15421 0
M  V30 1794 H 166.508 -0.694812 0.358832 0
M  V30 1795 H 169.092 -1.36246 1.39087 0
M  V30 1796 H 167.263 -3.80602 0.774361 0
M  V30 1797 H 168.995 -3.92346 0.99229 0
M  V30 1798 H 165.75 -3.6685 2.9953 0
M  V30 1799 H 166.174 -3.78387 5.61384 0
M  V30 1800 H 170.816 -3.19332 2.77105 0
M  V30 1801 H 168.534 -3.67475 7.19714 0
M  V30 1802 H 172.12 -3.17905 4.87266 0
M  V30 1803 H 171 -3.41862 7.05762 0
M  V30 1804 N 168.503 -0.877838 -1.30888 0
M  V30 1805 C 169.433 -0.35534 -2.3078 0
M  V30 1806 C 170.414 0.557994 -1.60687 0
M  V30 1807 O 171.599 0.473355 -1.88343 0
M  V30 1808 C 168.729 0.437221 -3.44537 0
M  V30 1809 C 167.683 -0.383715 -4.26276 0
M  V30 1810 C 167.009 0.535014 -5.32017 0
M  V30 1811 C 168.309 -1.62201 -4.96476 0
M  V30 1812 H 170.003 -1.19007 -2.74732 0
M  V30 1813 H 167.549 -0.573698 -1.32078 0
M  V30 1814 H 169.502 0.813334 -4.13477 0
M  V30 1815 H 168.226 1.30553 -2.99372 0
M  V30 1816 H 166.885 -0.741874 -3.59015 0
M  V30 1817 H 166.533 1.40083 -4.831 0
M  V30 1818 H 166.233 -0.0104211 -5.87599 0
M  V30 1819 H 167.757 0.907799 -6.03814 0
M  V30 1820 H 169.171 -1.31689 -5.5797 0
M  V30 1821 H 167.568 -2.10711 -5.61891 0
M  V30 1822 H 168.638 -2.37044 -4.23011 0
M  V30 1823 N 169.982 1.44106 -0.638065 0
M  V30 1824 C 171.207 2.0685 -0.150916 0
M  V30 1825 C 171.632 1.47417 1.16833 0
M  V30 1826 O 170.99 0.578264 1.71831 0
M  V30 1827 C 171.038 3.60555 -0.05708 0
M  V30 1828 O 170.142 4.00465 0.984972 0
M  V30 1829 H 169.483 0.658151 -0.0879399 0
M  V30 1830 H 172.013 1.84865 -0.876707 0
M  V30 1831 H 172.023 4.07789 0.131232 0
M  V30 1832 H 170.698 4.03193 -1.02021 0
M  V30 1833 H 169.275 3.64849 0.770672 0
M  V30 1834 N 171.46 0.379036 1.52974 0
M  V30 1835 C 172.685 -0.209353 2.06341 0
M  V30 1836 C 173.11 -1.40583 1.24972 0
M  V30 1837 O 172.468 -1.79246 0.272155 0
M  V30 1838 C 172.516 -0.567786 3.56102 0
M  V30 1839 O 171.62 -1.66318 3.77375 0
M  V30 1840 H 170.961 -0.0272919 0.663439 0
M  V30 1841 H 173.491 0.543536 1.97248 0
M  V30 1842 H 173.501 -0.835003 3.99364 0
M  V30 1843 H 172.176 0.307013 4.14765 0
M  V30 1844 H 170.753 -1.39048 3.46006 0
M  V30 1845 N 172.938 -1.57226 0.108567 0
M  V30 1846 C 173.868 -2.17778 -0.84232 0
M  V30 1847 C 174.849 -1.11487 -1.2847 0
M  V30 1848 O 176.034 -1.39681 -1.34918 0
M  V30 1849 C 173.164 -2.76888 -2.09644 0
M  V30 1850 C 172.118 -3.88669 -1.79221 0
M  V30 1851 C 171.444 -4.34541 -3.11574 0
M  V30 1852 C 172.744 -5.11251 -1.06864 0
M  V30 1853 H 174.438 -2.97489 -0.337774 0
M  V30 1854 H 171.984 -1.43097 -0.161025 0
M  V30 1855 H 173.937 -3.17904 -2.76614 0
M  V30 1856 H 172.661 -1.94451 -2.62405 0
M  V30 1857 H 171.32 -3.48213 -1.14644 0
M  V30 1858 H 170.968 -3.48977 -3.62249 0
M  V30 1859 H 170.668 -5.09914 -2.91996 0
M  V30 1860 H 172.192 -4.782 -3.7968 0
M  V30 1861 H 173.606 -5.49352 -1.63968 0
M  V30 1862 H 172.003 -5.9214 -0.974178 0
M  V30 1863 H 173.073 -4.8487 -0.0536168 0
M  V30 1864 N 174.416 0.165178 -1.56732 0
M  V30 1865 C 175.379 1.18822 -1.95995 0
M  V30 1866 C 176.379 1.3685 -0.84431 0
M  V30 1867 O 177.569 1.34152 -1.11126 0
M  V30 1868 C 174.701 2.5521 -2.26011 0
M  V30 1869 H 175.894 0.851825 -2.87548 0
M  V30 1870 H 173.447 0.407857 -1.50885 0
M  V30 1871 H 174.182 2.93852 -1.37191 0
M  V30 1872 H 173.967 2.43489 -3.07336 0
M  V30 1873 H 175.457 3.28927 -2.57288 0
M  V30 1874 N 175.894 1.51508 0.433938 0
M  V30 1875 C 177.31 1.39759 0.770682 0
M  V30 1876 C 177.51 0.482594 1.95636 0
M  V30 1877 O 176.566 -0.0609691 2.52426 0
M  V30 1878 C 177.879 2.81851 1.04787 0
M  V30 1879 C 179.427 2.91025 1.1521 0
M  V30 1880 C 179.902 4.34032 1.46219 0
M  V30 1881 N 181.393 4.37154 1.53136 0
M  V30 1882 C 182.128 5.4484 1.78709 0
M  V30 1883 N 181.624 6.62682 2.02051 0
M  V30 1884 N 183.417 5.32324 1.80519 0
M  V30 1885 H 175.568 2.09548 -0.346892 0
M  V30 1886 H 177.831 0.943446 -0.0928074 0
M  V30 1887 H 177.537 3.50815 0.249304 0
M  V30 1888 H 177.411 3.21386 1.97461 0
M  V30 1889 H 179.798 2.22257 1.94128 0
M  V30 1890 H 179.879 2.54983 0.204281 0
M  V30 1891 H 179.523 5.03351 0.678274 0
M  V30 1892 H 179.453 4.6759 2.42212 0
M  V30 1893 H 181.944 3.52197 1.36987 0
M  V30 1894 H 182.257 7.40543 2.20943 0
M  V30 1895 H 180.602 6.65791 1.99366 0
M  V30 1896 H 183.793 4.39246 1.61805 0
M  V30 1897 H 183.966 6.16328 2.00111 0
M  V30 1898 N 177.372 -0.689602 1.41712 0
M  V30 1899 C 178.618 -1.45181 1.41599 0
M  V30 1900 C 178.951 -1.94181 0.0270081 0
M  V30 1901 O 178.226 -1.6993 -0.946265 0
M  V30 1902 C 178.509 -2.65945 2.42787 0
M  V30 1903 C 178.362 -2.22672 3.90816 0
M  V30 1904 C 179.681 -3.68149 2.41151 0
M  V30 1905 H 176.8 -0.526576 0.515642 0
M  V30 1906 H 179.442 -0.784947 1.73028 0
M  V30 1907 H 177.592 -3.2284 2.16116 0
M  V30 1908 H 179.264 -1.71058 4.28412 0
M  V30 1909 H 177.507 -1.54394 4.05395 0
M  V30 1910 H 178.178 -3.0935 4.57172 0
M  V30 1911 H 180.654 -3.2094 2.64834 0
M  V30 1912 H 179.53 -4.50248 3.13955 0
M  V30 1913 H 179.791 -4.18259 1.43221 0
M  V30 1914 N 178.85 -1.27639 -0.924453 0
M  V30 1915 C 179.813 -1.10681 -2.00705 0
M  V30 1916 C 180.813 -0.0497823 -1.60723 0
M  V30 1917 O 182.003 -0.294654 -1.7169 0
M  V30 1918 C 179.135 -0.687164 -3.33902 0
M  V30 1919 H 180.328 -2.06817 -2.17179 0
M  V30 1920 H 177.881 -1.10473 -1.10569 0
M  V30 1921 H 178.616 0.275439 -3.23128 0
M  V30 1922 H 178.401 -1.45061 -3.6428 0
M  V30 1923 H 179.891 -0.590853 -4.13399 0
M  V30 1924 N 180.328 1.1314 -1.09713 0
M  V30 1925 C 181.278 2.16709 -0.708593 0
M  V30 1926 C 182.262 1.58471 0.278523 0
M  V30 1927 O 183.454 1.76779 0.088427 0
M  V30 1928 C 180.583 3.43039 -0.133923 0
M  V30 1929 C 179.669 4.08277 -1.14763 0
M  V30 1930 N 180.06 4.48637 -2.33577 0
M  V30 1931 C 178.358 4.34954 -0.986446 0
M  V30 1932 C 179.059 4.9952 -2.98085 0
M  V30 1933 N 178.035 4.94561 -2.25632 0
M  V30 1934 H 181.837 2.45672 -1.61315 0
M  V30 1935 H 179.351 1.29967 -0.973775 0
M  V30 1936 H 181.348 4.16583 0.162465 0
M  V30 1937 H 180.008 3.15549 0.765447 0
M  V30 1938 H 181.019 4.41246 -2.7115 0
M  V30 1939 H 177.696 4.17258 -0.142008 0
M  V30 1940 H 179.086 5.40521 -3.99108 0
M  V30 1941 N 181.806 0.884767 1.30421 0
M  V30 1942 C 182.753 0.349642 2.28136 0
M  V30 1943 C 183.723 -0.560061 1.56373 0
M  V30 1944 O 184.908 -0.488524 1.8444 0
M  V30 1945 C 182.048 -0.42999 3.42411 0
M  V30 1946 C 181.161 0.508907 4.28992 0
M  V30 1947 C 180.296 -0.286301 5.30428 0
M  V30 1948 C 179.335 0.648079 6.08659 0
M  V30 1949 N 178.472 -0.111792 7.02011 0
M  V30 1950 H 183.312 1.18807 2.73293 0
M  V30 1951 H 180.849 0.597231 1.3443 0
M  V30 1952 H 182.807 -0.897923 4.07423 0
M  V30 1953 H 181.437 -1.23299 2.98324 0
M  V30 1954 H 180.489 1.09533 3.64289 0
M  V30 1955 H 181.801 1.22475 4.8353 0
M  V30 1956 H 180.955 -0.816098 6.01186 0
M  V30 1957 H 179.694 -1.03536 4.76583 0
M  V30 1958 H 178.699 1.18951 5.36778 0
M  V30 1959 H 179.924 1.39623 6.64592 0
M  V30 1960 H 177.87 -0.843395 6.50556 0
M  V30 1961 H 177.787 0.544429 7.54037 0
M  V30 1962 H 179.055 -0.622339 7.77012 0
M  V30 1963 N 183.284 -1.43765 0.645699 0
M  V30 1964 C 184.231 -2.30745 -0.0504648 0
M  V30 1965 C 185.201 -1.4432 -0.822241 0
M  V30 1966 O 186.386 -1.73202 -0.800358 0
M  V30 1967 C 183.526 -3.29802 -1.0161 0
M  V30 1968 C 182.639 -4.31326 -0.241219 0
M  V30 1969 C 181.774 -5.17469 -1.19998 0
M  V30 1970 C 180.813 -6.10691 -0.415094 0
M  V30 1971 N 179.95 -6.89483 -1.32506 0
M  V30 1972 H 184.79 -2.8973 0.697155 0
M  V30 1973 H 182.327 -1.42738 0.355563 0
M  V30 1974 H 184.285 -3.85734 -1.58949 0
M  V30 1975 H 182.915 -2.72483 -1.73069 0
M  V30 1976 H 181.967 -3.77749 0.448334 0
M  V30 1977 H 183.279 -4.9743 0.369437 0
M  V30 1978 H 182.433 -5.7799 -1.84424 0
M  V30 1979 H 181.172 -4.51473 -1.84455 0
M  V30 1980 H 180.177 -5.49265 0.242565 0
M  V30 1981 H 181.402 -6.78727 0.224966 0
M  V30 1982 H 179.348 -6.26142 -1.95657 0
M  V30 1983 H 179.265 -7.52081 -0.768783 0
M  V30 1984 H 180.533 -7.54516 -1.9577 0
M  V30 1985 N 184.763 -0.387143 -1.52771 0
M  V30 1986 C 186.011 0.195349 -2.01154 0
M  V30 1987 C 186.332 1.475 -1.27549 0
M  V30 1988 O 185.602 1.91878 -0.394924 0
M  V30 1989 H 184.182 0.075178 -0.743207 0
M  V30 1990 H 186.844 -0.518337 -1.87881 0
M  V30 1991 H 185.94 0.407096 -3.09434 0
M  V30 1992 N 186.241 1.57166 -0.116904 0
M  V30 1993 C 187.151 2.18745 0.847812 0
M  V30 1994 C 188.167 1.163 1.29423 0
M  V30 1995 O 189.343 1.48761 1.35765 0
M  V30 1996 C 186.408 2.77307 2.0809 0
M  V30 1997 C 185.469 3.94781 1.68661 0
M  V30 1998 C 184.702 4.50541 2.86091 0
M  V30 1999 O 184.925 4.05202 4.01456 0
M  V30 2000 O 183.859 5.41256 2.63298 0
M  V30 2001 H 187.685 3.01632 0.353778 0
M  V30 2002 H 185.27 1.49005 0.108599 0
M  V30 2003 H 187.152 3.14647 2.80313 0
M  V30 2004 H 185.827 1.97452 2.56504 0
M  V30 2005 H 184.734 3.62214 0.935518 0
M  V30 2006 H 186.067 4.76065 1.24991 0
M  V30 2007 N 187.719 -0.156864 1.56817 0
M  V30 2008 C 188.649 -1.19589 2.00551 0
M  V30 2009 C 189.63 -1.4536 0.883426 0
M  V30 2010 O 190.815 -1.56449 1.15054 0
M  V30 2011 C 187.945 -2.53143 2.37773 0
M  V30 2012 C 186.899 -2.41913 3.53075 0
M  V30 2013 C 186.225 -3.80088 3.76081 0
M  V30 2014 C 187.525 -1.91157 4.86062 0
M  V30 2015 H 189.219 -0.832293 2.87599 0
M  V30 2016 H 186.765 -0.398918 1.38364 0
M  V30 2017 H 188.718 -3.26047 2.66967 0
M  V30 2018 H 187.442 -2.91319 1.4765 0
M  V30 2019 H 186.101 -1.71462 3.24031 0
M  V30 2020 H 185.749 -4.15683 2.83225 0
M  V30 2021 H 185.449 -3.73439 4.53671 0
M  V30 2022 H 186.973 -4.54556 4.0769 0
M  V30 2023 H 188.387 -2.53846 5.14038 0
M  V30 2024 H 186.784 -1.95422 5.67389 0
M  V30 2025 H 187.854 -0.866673 4.77092 0
M  V30 2026 N 189.197 -1.51736 -0.425897 0
M  V30 2027 C 190.422 -1.69082 -1.20108 0
M  V30 2028 C 190.847 -0.392398 -1.83962 0
M  V30 2029 O 190.205 0.64858 -1.69302 0
M  V30 2030 C 190.253 -2.81604 -2.25237 0
M  V30 2031 O 189.357 -2.46004 -3.30992 0
M  V30 2032 H 188.698 -0.563408 -0.35138 0
M  V30 2033 H 191.228 -1.98358 -0.501512 0
M  V30 2034 H 191.238 -3.06025 -2.69838 0
M  V30 2035 H 189.913 -3.75817 -1.78142 0
M  V30 2036 H 188.49 -2.32195 -2.91787 0
M  V30 2037 N 190.675 0.682077 -1.42076 0
M  V30 2038 C 191.608 1.80666 -1.3941 0
M  V30 2039 C 192.586 1.60518 -0.25939 0
M  V30 2040 O 193.77 1.83088 -0.448456 0
M  V30 2041 C 190.897 3.17556 -1.17796 0
M  V30 2042 C 189.943 3.56468 -2.34164 0
M  V30 2043 S 190.776 3.59729 -3.96681 0
M  V30 2044 C 191.932 4.99323 -3.77395 0
M  V30 2045 H 192.165 1.82652 -2.34575 0
M  V30 2046 H 189.698 0.852062 -1.2876 0
M  V30 2047 H 191.656 3.96575 -1.06012 0
M  V30 2048 H 190.317 3.13164 -0.242279 0
M  V30 2049 H 189.51 4.5595 -2.1477 0
M  V30 2050 H 189.112 2.84792 -2.42425 0
M  V30 2051 H 191.404 5.87202 -3.37935 0
M  V30 2052 H 192.347 5.23763 -4.76527 0
M  V30 2053 H 192.755 4.71498 -3.10403 0
M  V30 2054 N 192.153 1.28127 0.917671 0
M  V30 2055 C 193.063 1.13556 2.05286 0
M  V30 2056 C 194.079 0.0630914 1.73886 0
M  V30 2057 O 195.255 0.271598 1.9956 0
M  V30 2058 C 192.32 0.794676 3.3747 0
M  V30 2059 C 191.381 1.94909 3.82504 0
M  V30 2060 C 190.614 1.62437 5.0838 0
M  V30 2061 O 190.837 0.536905 5.67867 0
M  V30 2062 O 189.771 2.46677 5.4903 0
M  V30 2063 H 193.597 2.08844 2.20495 0
M  V30 2064 H 191.182 1.07409 1.03845 0
M  V30 2065 H 193.064 0.618344 4.16839 0
M  V30 2066 H 191.739 -0.128581 3.23445 0
M  V30 2067 H 190.646 2.18055 3.03978 0
M  V30 2068 H 191.979 2.85291 4.01086 0
M  V30 2069 N 193.631 -1.12557 1.10312 0
M  V30 2070 C 194.908 -1.80363 0.756878 0
M  V30 2071 C 195.288 -1.97067 -0.756824 0
M  V30 2072 O 194.636 -1.54601 -1.68259 0
M  V30 2073 C 194.846 -3.14812 1.50647 0
M  V30 2074 C 196.194 -3.90029 1.67817 0
M  V30 2075 O 197.218 -3.24464 1.46974 0
M  V30 2076 O 196.077 -5.07652 2.02365 0
M  V30 2077 H 193.171 -0.780667 0.272926 0
M  V30 2078 H 195.717 -1.19404 1.20586 0
M  V30 2079 H 194.489 -2.97936 2.53672 0
M  V30 2080 H 194.112 -3.83478 1.05026 0
M  V30 2081 N 195.109 -0.891671 -1.2995 0
M  V30 2082 C 196.355 -0.514261 -1.96171 0
M  V30 2083 C 196.688 0.935506 -1.70182 0
M  V30 2084 O 195.963 1.66204 -1.01028 0
M  V30 2085 C 196.246 -0.797719 -3.51153 0
M  V30 2086 C 196.099 -2.2986 -3.86632 0
M  V30 2087 C 197.418 -0.278749 -4.39216 0
M  V30 2088 H 194.537 -0.188314 -0.712535 0
M  V30 2089 H 197.179 -1.11689 -1.53706 0
M  V30 2090 H 195.329 -0.284826 -3.87455 0
M  V30 2091 H 197.001 -2.88042 -3.60319 0
M  V30 2092 H 195.244 -2.76257 -3.34462 0
M  V30 2093 H 195.915 -2.44753 -4.94773 0
M  V30 2094 H 198.391 -0.717825 -4.09862 0
M  V30 2095 H 197.267 -0.506353 -5.46559 0
M  V30 2096 H 197.528 0.820266 -4.34424 0
M  V30 2097 N 196.587 1.43421 -0.653314 0
M  V30 2098 C 197.833 2.02641 -0.175593 0
M  V30 2099 C 198.188 1.5062 1.19713 0
M  V30 2100 O 197.481 0.689697 1.78756 0
M  V30 2101 C 197.675 3.57176 -0.126623 0
M  V30 2102 C 197.504 4.24191 -1.49306 0
M  V30 2103 C 196.274 4.60257 -2.08547 0
M  V30 2104 C 198.472 4.53193 -2.43148 0
M  V30 2105 N 196.454 5.12345 -3.38194 0
M  V30 2106 C 197.825 5.06601 -3.57429 0
M  V30 2107 C 199.88 4.35161 -2.41949 0
M  V30 2108 C 198.583 5.43875 -4.70736 0
M  V30 2109 C 200.609 4.73498 -3.54336 0
M  V30 2110 C 199.971 5.27039 -4.67343 0
M  V30 2111 H 196.07 0.77441 -0.108686 0
M  V30 2112 H 198.654 1.74596 -0.861638 0
M  V30 2113 H 196.825 3.84784 0.528766 0
M  V30 2114 H 198.557 4.03078 0.36198 0
M  V30 2115 H 195.312 4.45302 -1.61255 0
M  V30 2116 H 195.736 5.42842 -4.04538 0
M  V30 2117 H 200.378 3.9304 -1.55818 0
M  V30 2118 H 198.096 5.8494 -5.57558 0
M  V30 2119 H 201.682 4.61241 -3.5461 0
M  V30 2120 H 200.562 5.56153 -5.52868 0
M  V30 2121 N 198.065 0.39524 1.52563 0
M  V30 2122 C 199.29 -0.187456 2.06551 0
M  V30 2123 C 199.715 -1.39249 1.26457 0
M  V30 2124 O 199.073 -1.78947 0.291151 0
M  V30 2125 C 199.121 -0.529985 3.56684 0
M  V30 2126 O 198.225 -1.62307 3.79118 0
M  V30 2127 H 197.566 -0.0202537 0.663691 0
M  V30 2128 H 200.096 0.564426 1.96661 0
M  V30 2129 H 200.106 -0.792598 4.00227 0
M  V30 2130 H 198.781 0.350987 4.14416 0
M  V30 2131 H 197.358 -1.3537 3.47461 0
M  V30 2132 N 199.544 -1.57102 0.125237 0
M  V30 2133 C 200.474 -2.18659 -0.819174 0
M  V30 2134 C 201.455 -1.12843 -1.27281 0
M  V30 2135 O 202.64 -1.41104 -1.33429 0
M  V30 2136 C 199.77 -2.79096 -2.06695 0
M  V30 2137 C 198.724 -3.90548 -1.75088 0
M  V30 2138 C 198.05 -4.37821 -3.06948 0
M  V30 2139 C 199.35 -5.12356 -1.01435 0
M  V30 2140 H 201.044 -2.9783 -0.306202 0
M  V30 2141 H 198.59 -1.4326 -0.145839 0
M  V30 2142 H 200.543 -3.2082 -2.73226 0
M  V30 2143 H 199.267 -1.97223 -2.60328 0
M  V30 2144 H 197.926 -3.49409 -1.10944 0
M  V30 2145 H 197.574 -3.52799 -3.58527 0
M  V30 2146 H 197.274 -5.12982 -2.86571 0
M  V30 2147 H 198.798 -4.822 -3.74587 0
M  V30 2148 H 200.212 -5.5106 -1.58132 0
M  V30 2149 H 198.609 -5.9314 -0.911319 0
M  V30 2150 H 199.679 -4.849 -0.00218681 0
M  V30 2151 N 201.022 0.148545 -1.56898 0
M  V30 2152 C 202.247 0.880385 -1.87787 0
M  V30 2153 C 202.672 1.74018 -0.714093 0
M  V30 2154 O 202.03 1.78153 0.336343 0
M  V30 2155 C 202.078 1.71422 -3.17249 0
M  V30 2156 O 201.182 2.8183 -3.01074 0
M  V30 2157 H 200.523 0.245301 -0.617028 0
M  V30 2158 H 203.053 0.139826 -2.04122 0
M  V30 2159 H 203.063 2.10954 -3.49231 0
M  V30 2160 H 201.738 1.08284 -4.01556 0
M  V30 2161 H 200.315 2.45715 -2.80497 0
M  V30 2162 N 202.5 1.5196 0.417844 0
M  V30 2163 C 203.447 1.74678 1.50852 0
M  V30 2164 C 204.417 0.588947 1.55308 0
M  V30 2165 O 205.602 0.825544 1.72016 0
M  V30 2166 C 202.742 1.89544 2.88387 0
M  V30 2167 C 201.855 3.17166 2.93309 0
M  V30 2168 C 200.99 3.22513 4.22088 0
M  V30 2169 C 200.029 4.44372 4.20951 0
M  V30 2170 N 199.166 4.47161 5.41287 0
M  V30 2171 H 204.006 2.67768 1.30783 0
M  V30 2172 H 201.543 1.32689 0.63498 0
M  V30 2173 H 203.501 1.96146 3.68216 0
M  V30 2174 H 202.131 0.998424 3.06971 0
M  V30 2175 H 201.183 3.19778 2.06024 0
M  V30 2176 H 202.495 4.07021 2.88332 0
M  V30 2177 H 201.649 3.28139 5.10303 0
M  V30 2178 H 200.388 2.30581 4.29748 0
M  V30 2179 H 199.393 4.38902 3.31127 0
M  V30 2180 H 200.618 5.3759 4.14938 0
M  V30 2181 H 198.564 3.58108 5.49632 0
M  V30 2182 H 198.481 5.3085 5.3827 0
M  V30 2183 H 199.749 4.57005 6.3148 0
M  V30 2184 N 203.978 -0.674533 1.42435 0
M  V30 2185 C 204.928 -1.7807 1.4239 0
M  V30 2186 C 205.912 -1.58169 0.295202 0
M  V30 2187 O 207.104 -1.68643 0.537449 0
M  V30 2188 C 204.233 -3.16532 1.32901 0
M  V30 2189 C 203.319 -3.42055 2.50717 0
M  V30 2190 N 203.71 -3.38162 3.76139 0
M  V30 2191 C 202.008 -3.72692 2.44983 0
M  V30 2192 C 202.709 -3.63177 4.54398 0
M  V30 2193 N 201.685 -3.83954 3.84812 0
M  V30 2194 H 205.487 -1.73454 2.37257 0
M  V30 2195 H 203.001 -0.875381 1.36788 0
M  V30 2196 H 204.998 -3.958 1.30951 0
M  V30 2197 H 203.658 -3.22345 0.390363 0
M  V30 2198 H 204.669 -3.18057 4.0873 0
M  V30 2199 H 201.346 -3.85749 1.59699 0
M  V30 2200 H 202.736 -3.66125 5.63384 0
M  V30 2201 N 205.456 -1.28612 -0.910864 0
M  V30 2202 C 206.366 -1.14643 -2.0468 0
M  V30 2203 C 207.382 -0.0723121 -1.7385 0
M  V30 2204 O 208.558 -0.282178 -1.99413 0
M  V30 2205 C 205.623 -0.812561 -3.37044 0
M  V30 2206 C 204.684 -1.96935 -3.81465 0
M  V30 2207 C 203.917 -1.65131 -5.07511 0
M  V30 2208 O 204.14 -0.567013 -5.67575 0
M  V30 2209 O 203.074 -2.49585 -5.47714 0
M  V30 2210 H 206.9 -2.1001 -2.19384 0
M  V30 2211 H 204.485 -1.07958 -1.03274 0
M  V30 2212 H 206.367 -0.640441 -4.16505 0
M  V30 2213 H 205.042 0.111426 -3.23508 0
M  V30 2214 H 203.949 -2.19664 -3.02818 0
M  V30 2215 H 205.282 -2.87414 -3.99567 0
M  V30 2216 N 206.934 1.1197 -1.10907 0
M  V30 2217 C 208.159 1.87942 -0.877064 0
M  V30 2218 C 208.584 1.79341 0.567314 0
M  V30 2219 O 207.942 1.15184 1.40009 0
M  V30 2220 C 207.99 3.34926 -1.33629 0
M  V30 2221 O 207.094 4.09303 -0.504447 0
M  V30 2222 H 206.435 0.583785 -0.316371 0
M  V30 2223 H 208.965 1.4157 -1.47712 0
M  V30 2224 H 208.975 3.8577 -1.32837 0
M  V30 2225 H 207.65 3.40504 -2.3881 0
M  V30 2226 H 206.227 3.68393 -0.577993 0
M  V30 2227 N 208.412 0.89855 1.29475 0
M  V30 2228 C 209.637 0.538561 2.00285 0
M  V30 2229 C 210.062 -0.869135 1.66816 0
M  V30 2230 O 209.42 -1.57831 0.892145 0
M  V30 2231 C 209.468 0.736475 3.52999 0
M  V30 2232 O 208.572 -0.211537 4.11857 0
M  V30 2233 H 207.913 0.210563 0.62973 0
M  V30 2234 H 210.443 1.20982 1.64998 0
M  V30 2235 H 210.453 0.640685 4.02938 0
M  V30 2236 H 209.128 1.76276 3.76696 0
M  V30 2237 H 207.705 -0.0682991 3.72837 0
M  V30 2238 N 209.89 -1.43072 0.660911 0
M  V30 2239 C 211.167 -1.95307 0.107017 0
M  V30 2240 C 211.547 -1.60192 -1.37484 0
M  V30 2241 O 210.895 -0.890949 -2.10415 0
M  V30 2242 C 211.105 -3.47124 0.361402 0
M  V30 2243 C 212.453 -4.23738 0.270455 0
M  V30 2244 O 213.477 -3.54981 0.294382 0
M  V30 2245 O 212.336 -5.46131 0.200737 0
M  V30 2246 H 209.43 -0.826984 -0.00517729 0
M  V30 2247 H 211.976 -1.52972 0.734681 0
M  V30 2248 H 210.748 -3.65837 1.38848 0
M  V30 2249 H 210.371 -3.96475 -0.298953 0
M  V30 2250 N 211.368 -0.403325 -1.52352 0
M  V30 2251 C 212.614 0.174605 -2.02047 0
M  V30 2252 C 212.947 1.45282 -1.28867 0
M  V30 2253 O 212.222 1.90483 -0.393257 0
M  V30 2254 C 212.505 0.428238 -3.57545 0
M  V30 2255 C 212.358 -0.866248 -4.4138 0
M  V30 2256 C 213.677 1.21287 -4.23057 0
M  V30 2257 H 210.796 0.0619851 -0.734389 0
M  V30 2258 H 213.438 -0.53565 -1.82293 0
M  V30 2259 H 211.588 1.03327 -3.74507 0
M  V30 2260 H 213.26 -1.50265 -4.3614 0
M  V30 2261 H 211.503 -1.47851 -4.07827 0
M  V30 2262 H 212.174 -0.643249 -5.48239 0
M  V30 2263 H 214.65 0.700703 -4.10158 0
M  V30 2264 H 213.526 1.35909 -5.31808 0
M  V30 2265 H 213.787 2.23193 -3.81625 0
M  V30 2266 N 212.846 1.57033 -0.133567 0
M  V30 2267 C 213.794 2.17348 0.828412 0
M  V30 2268 C 214.788 1.12671 1.26498 0
M  V30 2269 O 215.994 1.30947 1.23502 0
M  V30 2270 H 212.369 0.695775 0.285309 0
M  V30 2271 H 214.34 2.96935 0.295372 0
M  V30 2272 C 213.089 2.79893 2.06289 0
M  V30 2273 H 212.412 3.60147 1.73592 0
M  V30 2274 H 213.852 3.25615 2.71572 0
M  V30 2275 C 212.311 1.77713 2.86216 0
M  V30 2276 O 212.841 1.23937 3.82103 0
M  V30 2277 N 211.047 1.47321 2.50489 0
M  V30 2278 H 210.594 1.91243 1.7258 0
M  V30 2279 H 210.552 0.79199 3.04261 0
M  V30 2280 N 214.325 -0.140222 1.56975 0
M  V30 2281 C 215.565 -0.857823 1.85528 0
M  V30 2282 C 215.929 -1.78039 0.718768 0
M  V30 2283 O 217.13 -2.53795 0.885521 0
M  V30 2284 C 215.401 -1.60615 3.19277 0
M  V30 2285 S 216.96 -2.36824 3.69405 0
M  V30 2286 H 213.778 -0.286727 0.650622 0
M  V30 2287 H 216.38 -0.117408 1.95147 0
M  V30 2288 H 215.084 -0.919994 3.99955 0
M  V30 2289 H 214.615 -2.38735 3.12681 0
M  V30 2290 H 216.63 -3.62148 3.3921 0
M  V30 2291 N 215.803 -1.52179 -0.40978 0
M  V30 2292 C 217.219 -1.40968 -0.74835 0
M  V30 2293 C 217.419 -0.513657 -1.94843 0
M  V30 2294 O 216.475 0.0208026 -2.52491 0
M  V30 2295 C 217.788 -2.83483 -1.0029 0
M  V30 2296 C 219.336 -2.92821 -1.10565 0
M  V30 2297 C 219.811 -4.36303 -1.39296 0
M  V30 2298 N 221.302 -4.39535 -1.46162 0
M  V30 2299 C 222.037 -5.47614 -1.70018 0
M  V30 2300 N 221.533 -6.65812 -1.91483 0
M  V30 2301 N 223.326 -5.35129 -1.72027 0
M  V30 2302 H 215.477 -2.0897 0.380186 0
M  V30 2303 H 217.74 -0.94185 0.107805 0
M  V30 2304 H 217.446 -3.51168 -0.193461 0
M  V30 2305 H 217.32 -3.24487 -1.92323 0
M  V30 2306 H 219.707 -2.25318 -1.90568 0
M  V30 2307 H 219.788 -2.55276 -0.16369 0
M  V30 2308 H 219.432 -5.04366 -0.598109 0
M  V30 2309 H 219.362 -4.71385 -2.34743 0
M  V30 2310 H 221.853 -3.54332 -1.31367 0
M  V30 2311 H 222.166 -7.43964 -2.09134 0
M  V30 2312 H 220.511 -6.68879 -1.88749 0
M  V30 2313 H 223.702 -4.41764 -1.54796 0
M  V30 2314 H 223.875 -6.19433 -1.9028 0
M  V30 2315 N 217.281 0.66697 -1.42791 0
M  V30 2316 C 218.697 0.981027 -1.25889 0
M  V30 2317 C 218.897 2.00793 -0.168695 0
M  V30 2318 O 217.953 2.48321 0.45747 0
M  V30 2319 C 219.266 1.47838 -2.61848 0
M  V30 2320 C 220.814 1.59575 -2.69267 0
M  V30 2321 C 221.289 2.12704 -4.05612 0
M  V30 2322 N 222.78 2.20026 -4.07606 0
M  V30 2323 C 223.515 2.62227 -5.09926 0
M  V30 2324 N 223.011 3.03824 -6.22626 0
M  V30 2325 N 224.804 2.62045 -4.97281 0
M  V30 2326 H 216.955 -0.0127891 -2.12396 0
M  V30 2327 H 219.218 0.0568258 -0.946295 0
M  V30 2328 H 218.924 0.798299 -3.4252 0
M  V30 2329 H 218.798 2.45579 -2.86305 0
M  V30 2330 H 221.185 2.26687 -1.88936 0
M  V30 2331 H 221.266 0.60302 -2.48591 0
M  V30 2332 H 220.91 1.46198 -4.86404 0
M  V30 2333 H 220.84 3.12782 -4.23645 0
M  V30 2334 H 223.331 1.90708 -3.2625 0
M  V30 2335 H 223.644 3.34734 -6.96544 0
M  V30 2336 H 221.989 3.01662 -6.26119 0
M  V30 2337 H 225.18 2.28916 -4.08308 0
M  V30 2338 H 225.353 2.94613 -5.77154 0
M  V30 2339 N 218.759 1.29093 0.90403 0
M  V30 2340 C 219.689 1.16401 2.02418 0
M  V30 2341 C 220.67 0.0593085 1.69997 0
M  V30 2342 O 221.855 0.238021 1.92736 0
M  V30 2343 C 218.985 0.835233 3.37107 0
M  V30 2344 C 217.939 1.89578 3.83724 0
M  V30 2345 C 217.265 1.42041 5.15489 0
M  V30 2346 C 218.565 3.30394 4.04521 0
M  V30 2347 H 220.259 2.10109 2.13295 0
M  V30 2348 H 217.805 1.01157 1.02486 0
M  V30 2349 H 219.758 0.733169 4.14973 0
M  V30 2350 H 218.482 -0.137543 3.2631 0
M  V30 2351 H 217.141 1.98715 3.08071 0
M  V30 2352 H 216.789 0.436426 5.01103 0
M  V30 2353 H 216.489 2.12964 5.4765 0
M  V30 2354 H 218.013 1.33176 5.959 0
M  V30 2355 H 219.427 3.24123 4.72882 0
M  V30 2356 H 217.824 3.99237 4.48029 0
M  V30 2357 H 218.894 3.73692 3.09002 0
M  V30 2358 N 220.237 -1.11381 1.11499 0
M  V30 2359 C 221.147 -2.21019 0.786628 0
M  V30 2360 C 222.163 -1.72597 -0.220507 0
M  V30 2361 O 223.339 -2.01321 -0.0565251 0
M  V30 2362 C 220.404 -3.459 0.235333 0
M  V30 2363 C 219.465 -4.09107 1.30115 0
M  V30 2364 C 218.698 -5.28027 0.776068 0
M  V30 2365 O 218.921 -5.6904 -0.393661 0
M  V30 2366 O 217.855 -5.81835 1.54114 0
M  V30 2367 H 221.681 -2.51521 1.70209 0
M  V30 2368 H 219.266 -1.19928 0.890928 0
M  V30 2369 H 221.148 -4.21346 -0.067715 0
M  V30 2370 H 219.823 -3.17049 -0.652828 0
M  V30 2371 H 218.73 -3.35391 1.65722 0
M  V30 2372 H 220.063 -4.42139 2.16273 0
M  V30 2373 N 221.715 -0.905404 -1.28997 0
M  V30 2374 C 223.131 -0.60233 -1.47798 0
M  V30 2375 C 223.331 0.854645 -1.82478 0
M  V30 2376 O 222.387 1.63439 -1.92468 0
M  V30 2377 C 223.7 -1.53306 -2.58685 0
M  V30 2378 C 225.248 -1.53887 -2.72558 0
M  V30 2379 C 225.723 -2.45602 -3.86579 0
M  V30 2380 N 227.214 -2.43681 -3.93921 0
M  V30 2381 C 227.949 -3.11347 -4.81509 0
M  V30 2382 N 227.445 -3.88313 -5.73746 0
M  V30 2383 N 229.238 -3.00476 -4.75048 0
M  V30 2384 H 221.389 -1.84765 -1.04764 0
M  V30 2385 H 223.652 -0.792025 -0.520961 0
M  V30 2386 H 223.358 -2.57141 -2.39941 0
M  V30 2387 H 223.232 -1.25787 -3.55609 0
M  V30 2388 H 225.619 -0.507941 -2.90696 0
M  V30 2389 H 225.7 -1.85447 -1.76191 0
M  V30 2390 H 225.344 -3.48792 -3.69197 0
M  V30 2391 H 225.274 -2.11349 -4.82327 0
M  V30 2392 H 227.765 -1.87767 -3.27951 0
M  V30 2393 H 228.078 -4.36985 -6.37389 0
M  V30 2394 H 226.423 -3.92419 -5.73614 0
M  V30 2395 H 229.614 -2.39858 -4.01977 0
M  V30 2396 H 229.787 -3.53485 -5.43095 0
M  V30 2397 N 223.193 1.4272 -0.668489 0
M  V30 2398 C 224.123 2.335 -0.000100175 0
M  V30 2399 C 225.104 1.50328 0.795964 0
M  V30 2400 O 226.289 1.78949 0.754385 0
M  V30 2401 C 223.419 3.33874 0.956302 0
M  V30 2402 C 222.373 4.27152 0.269278 0
M  V30 2403 C 221.699 5.17684 1.33818 0
M  V30 2404 C 222.999 5.15373 -0.847805 0
M  V30 2405 H 224.693 2.89639 -0.758244 0
M  V30 2406 H 222.239 1.39269 -0.366079 0
M  V30 2407 H 224.192 3.9629 1.43292 0
M  V30 2408 H 222.916 2.76025 1.74579 0
M  V30 2409 H 221.575 3.66123 -0.187042 0
M  V30 2410 H 221.223 4.56165 2.1195 0
M  V30 2411 H 220.923 5.80918 0.883659 0
M  V30 2412 H 222.447 5.82974 1.81586 0
M  V30 2413 H 223.861 5.7151 -0.452681 0
M  V30 2414 H 222.258 5.87407 -1.22773 0
M  V30 2415 H 223.328 4.5415 -1.69929 0
M  V30 2416 N 224.671 0.411399 1.52136 0
M  V30 2417 C 225.917 -0.156262 2.02799 0
M  V30 2418 C 226.272 -1.42613 1.29149 0
M  V30 2419 O 225.565 -1.87592 0.389839 0
M  V30 2420 C 225.759 -0.455872 3.54481 0
M  V30 2421 C 225.588 0.783404 4.42824 0
M  V30 2422 C 224.358 1.30928 4.88043 0
M  V30 2423 C 226.556 1.66217 4.86699 0
M  V30 2424 N 224.538 2.5038 5.6052 0
M  V30 2425 C 225.909 2.70292 5.5798 0
M  V30 2426 C 227.964 1.67966 4.68713 0
M  V30 2427 C 226.667 3.7603 6.13184 0
M  V30 2428 C 228.693 2.72624 5.24815 0
M  V30 2429 C 228.055 3.7542 5.9602 0
M  V30 2430 H 224.154 -0.0186886 0.781777 0
M  V30 2431 H 226.738 0.566255 1.86284 0
M  V30 2432 H 224.909 -1.14743 3.71064 0
M  V30 2433 H 226.641 -1.01261 3.91827 0
M  V30 2434 H 223.396 0.866977 4.65597 0
M  V30 2435 H 223.82 3.10881 6.014 0
M  V30 2436 H 228.462 0.898312 4.13147 0
M  V30 2437 H 226.18 4.55019 6.6782 0
M  V30 2438 H 229.766 2.74887 5.12765 0
M  V30 2439 H 228.646 4.55073 6.38654 0
M  V30 2440 N 226.149 -1.5696 0.141893 0
M  V30 2441 C 227.081 -2.13619 -0.830627 0
M  V30 2442 C 228.094 -1.08439 -1.21428 0
M  V30 2443 O 229.283 -1.35734 -1.15925 0
M  V30 2444 C 226.383 -2.63978 -2.12529 0
M  V30 2445 C 225.556 -3.93504 -1.9098 0
M  V30 2446 C 224.615 -4.29225 -3.04388 0
M  V30 2447 O 223.641 -4.97641 -2.76302 0
M  V30 2448 N 224.843 -3.88393 -4.31429 0
M  V30 2449 H 227.608 -2.97691 -0.34641 0
M  V30 2450 H 225.169 -1.61846 -0.0418375 0
M  V30 2451 H 227.161 -2.84891 -2.87436 0
M  V30 2452 H 225.731 -1.84659 -2.52229 0
M  V30 2453 H 224.951 -3.81269 -1.00139 0
M  V30 2454 H 226.239 -4.78154 -1.73914 0
M  V30 2455 H 225.637 -3.33257 -4.57117 0
M  V30 2456 H 224.194 -4.14368 -5.03133 0
M  V30 2457 N 227.627 0.131896 -1.57047 0
M  V30 2458 C 228.537 1.1815 -2.02676 0
M  V30 2459 C 229.553 1.46113 -0.944824 0
M  V30 2460 O 230.729 1.57485 -1.25541 0
M  V30 2461 C 227.794 2.49139 -2.41103 0
M  V30 2462 C 226.855 2.28688 -3.63318 0
M  V30 2463 C 226.088 3.53431 -3.99903 0
M  V30 2464 O 226.311 4.60223 -3.36973 0
M  V30 2465 O 225.245 3.45198 -4.93074 0
M  V30 2466 H 229.071 0.824069 -2.92306 0
M  V30 2467 H 226.656 0.341745 -1.45439 0
M  V30 2468 H 228.538 3.26338 -2.66611 0
M  V30 2469 H 227.213 2.84382 -1.54624 0
M  V30 2470 H 226.12 1.4939 -3.42977 0
M  V30 2471 H 227.453 1.98355 -4.50462 0
M  V30 2472 N 229.106 1.52395 0.401703 0
M  V30 2473 C 230.016 1.7917 1.51444 0
M  V30 2474 C 231.032 0.677691 1.6026 0
M  V30 2475 O 232.208 0.963909 1.76835 0
M  V30 2476 C 229.273 1.94347 2.87107 0
M  V30 2477 C 228.334 3.18257 2.88116 0
M  V30 2478 C 227.567 3.32701 4.17308 0
M  V30 2479 O 227.79 2.52238 5.11598 0
M  V30 2480 O 226.724 4.25891 4.25324 0
M  V30 2481 H 230.55 2.73633 1.31752 0
M  V30 2482 H 228.135 1.3733 0.588296 0
M  V30 2483 H 230.017 2.06109 3.67555 0
M  V30 2484 H 228.692 1.03073 3.06851 0
M  V30 2485 H 227.599 3.11947 2.06494 0
M  V30 2486 H 228.932 4.09336 2.73322 0
M  V30 2487 N 230.584 -0.659388 1.43143 0
M  V30 2488 C 231.514 -1.78422 1.50625 0
M  V30 2489 C 232.495 -1.66216 0.361443 0
M  V30 2490 O 233.68 -1.85404 0.577834 0
M  V30 2491 C 230.81 -3.16815 1.42287 0
M  V30 2492 C 229.764 -3.43777 2.54954 0
M  V30 2493 C 229.09 -4.81905 2.31671 0
M  V30 2494 C 230.39 -3.39134 3.97222 0
M  V30 2495 H 232.084 -1.72417 2.44771 0
M  V30 2496 H 229.63 -0.828084 1.17808 0
M  V30 2497 H 231.583 -3.95253 1.46127 0
M  V30 2498 H 230.307 -3.23534 0.446435 0
M  V30 2499 H 228.966 -2.67707 2.50457 0
M  V30 2500 H 228.614 -4.85294 1.32284 0
M  V30 2501 H 228.314 -5.00906 3.07192 0
M  V30 2502 H 229.838 -5.62609 2.37284 0
M  V30 2503 H 231.252 -4.07518 4.03239 0
M  V30 2504 H 229.649 -3.69671 4.72719 0
M  V30 2505 H 230.719 -2.37426 4.22797 0
M  V30 2506 N 232.062 -1.29571 -0.897171 0
M  V30 2507 C 233.01 -1.14802 -2.02295 0
M  V30 2508 C 234.004 -0.0629637 -1.69283 0
M  V30 2509 O 235.21 -0.222945 -1.78614 0
M  V30 2510 H 231.585 -0.354692 -0.663097 0
M  V30 2511 H 233.556 -2.10108 -2.11889 0
M  V30 2512 C 232.305 -0.843966 -3.37302 0
M  V30 2513 H 231.628 -1.67093 -3.63208 0
M  V30 2514 H 233.068 -0.780672 -4.16751 0
M  V30 2515 C 231.527 0.452843 -3.33843 0
M  V30 2516 O 232.057 1.47813 -3.73516 0
M  V30 2517 N 230.263 0.459601 -2.86943 0
M  V30 2518 H 229.81 -0.375213 -2.54853 0
M  V30 2519 H 229.768 1.32726 -2.85011 0
M  V30 2520 N 233.54 1.10788 -1.12088 0
M  V30 2521 C 234.45 2.20599 -0.798338 0
M  V30 2522 C 235.466 1.72712 0.21135 0
M  V30 2523 O 236.642 2.01348 0.0458477 0
M  V30 2524 C 233.707 3.45771 -0.253674 0
M  V30 2525 C 232.768 4.08411 -1.32283 0
M  V30 2526 C 232.001 5.27608 -0.80406 0
M  V30 2527 O 232.224 5.69241 0.363478 0
M  V30 2528 O 231.158 5.8101 -1.57198 0
M  V30 2529 H 234.984 2.50614 -1.7154 0
M  V30 2530 H 232.569 1.19454 -0.897275 0
M  V30 2531 H 234.451 4.21376 0.0453691 0
M  V30 2532 H 233.126 3.1739 0.636005 0
M  V30 2533 H 232.033 3.34507 -1.67499 0
M  V30 2534 H 233.366 4.40986 -2.18614 0
M  V30 2535 N 235.018 0.912232 1.28515 0
M  V30 2536 C 236.264 0.545405 1.95328 0
M  V30 2537 C 236.597 -0.908313 1.71649 0
M  V30 2538 O 235.872 -1.64575 1.03659 0
M  V30 2539 C 236.155 0.853483 3.4984 0
M  V30 2540 C 236.008 2.35982 3.82926 0
M  V30 2541 C 237.327 0.348589 4.38717 0
M  V30 2542 H 234.446 0.199626 0.709449 0
M  V30 2543 H 237.088 1.1412 1.5191 0
M  V30 2544 H 235.238 0.34643 3.86952 0
M  V30 2545 H 236.91 2.93738 3.55691 0
M  V30 2546 H 235.153 2.81543 3.30024 0
M  V30 2547 H 235.824 2.52593 4.90816 0
M  V30 2548 H 238.3 0.78294 4.08668 0
M  V30 2549 H 237.176 0.593242 5.45685 0
M  V30 2550 H 237.437 -0.751049 4.35674 0
M  V30 2551 N 236.496 -1.42363 0.676048 0
M  V30 2552 C 237.744 -2.01123 0.198437 0
M  V30 2553 C 238.065 -1.53731 -1.19966 0
M  V30 2554 O 237.335 -0.759518 -1.80577 0
M  V30 2555 H 235.915 -0.743678 0.0703721 0
M  V30 2556 H 238.577 -1.74263 0.872837 0
M  V30 2557 H 237.673 -3.11454 0.200686 0
M  V30 2558 N 237.974 -0.419461 -1.51915 0
M  V30 2559 C 239.385 0.0477853 -1.86639 0
M  V30 2560 C 239.736 1.43531 -1.33766 0
M  V30 2561 O 238.861 2.05401 -0.68113 0
M  V30 2562 C 239.456 0.0934885 -3.38671 0
M  V30 2563 C 238.015 0.505097 -3.72996 0
M  V30 2564 C 237.162 -0.313792 -2.75519 0
M  V30 2565 H 240.113 -0.636088 -1.45395 0
M  V30 2566 H 240.134 0.906667 -3.6954 0
M  V30 2567 H 239.646 -0.916501 -3.77123 0
M  V30 2568 H 237.747 1.52135 -3.40126 0
M  V30 2569 H 237.86 0.242309 -4.78487 0
M  V30 2570 H 236.224 0.225363 -2.53701 0
M  V30 2571 H 237.007 -1.32232 -3.16812 0
M  V30 2572 N 239.452 1.56882 -0.150215 0
M  V30 2573 C 240.729 1.87844 0.545327 0
M  V30 2574 C 241.109 1.0567 1.82749 0
M  V30 2575 O 240.457 0.144442 2.28043 0
M  V30 2576 C 240.667 3.39526 0.80767 0
M  V30 2577 C 242.015 4.08814 1.14703 0
M  V30 2578 O 243.039 3.44723 0.896917 0
M  V30 2579 O 241.898 5.22004 1.61784 0
M  V30 2580 H 238.992 0.778677 0.278553 0
M  V30 2581 H 241.538 1.68666 -0.187068 0
M  V30 2582 H 240.31 3.91173 -0.0996096 0
M  V30 2583 H 239.933 3.64243 1.59413 0
M  V30 2584 N 240.93 -0.123565 1.57115 0
M  V30 2585 C 241.893 -1.13583 1.99076 0
M  V30 2586 C 242.893 -1.34564 0.880296 0
M  V30 2587 O 244.083 -1.31158 1.14644 0
M  V30 2588 C 241.215 -2.49128 2.32698 0
M  V30 2589 H 242.408 -0.775287 2.89706 0
M  V30 2590 H 239.961 -0.36771 1.51913 0
M  V30 2591 H 240.696 -2.90111 1.44934 0
M  V30 2592 H 240.481 -2.35255 3.13684 0
M  V30 2593 H 241.971 -3.2199 2.65918 0
M  V30 2594 N 242.408 -1.52605 -0.393616 0
M  V30 2595 C 243.371 -1.76415 -1.46323 0
M  V30 2596 C 244.371 -0.634126 -1.47768 0
M  V30 2597 O 245.561 -0.902142 -1.4902 0
M  V30 2598 C 242.693 -1.8607 -2.85641 0
M  V30 2599 H 243.886 -2.71916 -1.26498 0
M  V30 2600 H 241.439 -1.43257 -0.625073 0
M  V30 2601 H 242.174 -0.925378 -3.10817 0
M  V30 2602 H 241.959 -2.68235 -2.85993 0
M  V30 2603 H 243.449 -2.06179 -3.63153 0
M  V30 2604 N 243.887 0.651787 -1.4349 0
M  V30 2605 C 245.112 1.44434 -1.48841 0
M  V30 2606 C 245.537 1.8779 -0.107955 0
M  V30 2607 O 244.895 1.57464 0.898602 0
M  V30 2608 C 244.943 2.65458 -2.44059 0
M  V30 2609 O 244.047 3.64566 -1.92784 0
M  V30 2610 H 243.388 0.433005 -0.503391 0
M  V30 2611 H 245.918 0.797451 -1.88419 0
M  V30 2612 H 245.928 3.13255 -2.6141 0
M  V30 2613 H 244.603 2.33244 -3.4434 0
M  V30 2614 H 243.18 3.23716 -1.851 0
M  V30 2615 N 245.365 1.30045 0.890287 0
M  V30 2616 C 246.295 1.18541 2.01172 0
M  V30 2617 C 247.276 0.0773356 1.69924 0
M  V30 2618 O 248.461 0.25845 1.92473 0
M  V30 2619 C 245.591 0.870941 3.36202 0
M  V30 2620 C 244.545 1.93637 3.81692 0
M  V30 2621 C 243.871 1.475 5.13953 0
M  V30 2622 C 245.171 3.34666 4.00994 0
M  V30 2623 H 246.865 2.12359 2.11054 0
M  V30 2624 H 244.411 1.02238 1.01407 0
M  V30 2625 H 246.364 0.777141 4.14172 0
M  V30 2626 H 245.088 -0.102926 3.26438 0
M  V30 2627 H 243.747 2.01972 3.05946 0
M  V30 2628 H 243.395 0.489551 5.00612 0
M  V30 2629 H 243.095 2.1876 5.4536 0
M  V30 2630 H 244.619 1.39489 5.94454 0
M  V30 2631 H 246.033 3.2912 4.69417 0
M  V30 2632 H 244.43 4.03966 4.43769 0
M  V30 2633 H 245.5 3.76949 3.05021 0
M  V30 2634 N 246.843 -1.10192 1.12674 0
M  V30 2635 C 248.259 -1.34235 0.863317 0
M  V30 2636 C 248.459 -1.95062 -0.505277 0
M  V30 2637 O 247.515 -2.19192 -1.25345 0
M  V30 2638 C 248.828 -2.2616 1.98172 0
M  V30 2639 C 250.376 -2.3969 2.0129 0
M  V30 2640 C 250.851 -3.34946 3.1237 0
M  V30 2641 N 252.342 -3.42515 3.11829 0
M  V30 2642 C 253.077 -4.16199 3.94419 0
M  V30 2643 N 252.573 -4.92747 4.87004 0
M  V30 2644 N 254.366 -4.11843 3.82547 0
M  V30 2645 H 246.517 -0.690798 2.00853 0
M  V30 2646 H 248.78 -0.366774 0.874174 0
M  V30 2647 H 248.486 -1.8868 2.96804 0
M  V30 2648 H 248.36 -3.26488 1.88906 0
M  V30 2649 H 250.747 -2.76438 1.03276 0
M  V30 2650 H 250.828 -1.39169 2.14629 0
M  V30 2651 H 250.472 -2.98923 4.10619 0
M  V30 2652 H 250.402 -4.35353 2.96269 0
M  V30 2653 H 252.893 -2.87926 2.44759 0
M  V30 2654 H 253.206 -5.46376 5.46528 0
M  V30 2655 H 251.551 -4.91862 4.91016 0
M  V30 2656 H 254.742 -3.51136 3.0955 0
M  V30 2657 H 254.915 -4.69007 4.47142 0
M  V30 2658 N 248.321 -0.919034 -1.28029 0
M  V30 2659 C 249.737 -0.617972 -1.4715 0
M  V30 2660 C 249.937 0.835242 -1.83374 0
M  V30 2661 O 248.993 1.61388 -1.94191 0
M  V30 2662 C 250.306 -1.56041 -2.57044 0
M  V30 2663 C 251.854 -1.56769 -2.7091 0
M  V30 2664 C 252.329 -2.49688 -3.83953 0
M  V30 2665 N 253.82 -2.47845 -3.91314 0
M  V30 2666 C 254.555 -3.16437 -4.78179 0
M  V30 2667 N 254.051 -3.94376 -5.69596 0
M  V30 2668 N 255.844 -3.05498 -4.71834 0
M  V30 2669 H 247.995 -1.85866 -1.02798 0
M  V30 2670 H 250.258 -0.797506 -0.512531 0
M  V30 2671 H 249.964 -2.59671 -2.372 0
M  V30 2672 H 249.838 -1.29551 -3.54255 0
M  V30 2673 H 252.225 -0.538745 -2.90141 0
M  V30 2674 H 252.306 -1.87305 -1.74214 0
M  V30 2675 H 251.95 -3.52688 -3.65477 0
M  V30 2676 H 251.88 -2.16453 -4.80058 0
M  V30 2677 H 254.371 -1.91234 -3.25941 0
M  V30 2678 H 254.684 -4.43721 -6.32718 0
M  V30 2679 H 253.029 -3.98481 -5.69419 0
M  V30 2680 H 256.22 -2.44108 -3.99411 0
M  V30 2681 H 256.393 -3.59225 -5.39316 0
M  V30 2682 N 249.799 1.42003 -0.683588 0
M  V30 2683 C 251.045 2.01712 -0.209825 0
M  V30 2684 C 251.378 1.53968 1.18353 0
M  V30 2685 O 250.653 0.745661 1.79639 0
M  V30 2686 C 250.936 3.59202 -0.254197 0
M  V30 2687 C 250.789 4.17102 -1.68363 0
M  V30 2688 C 252.108 4.38344 0.392709 0
M  V30 2689 H 249.227 0.732891 -0.0777189 0
M  V30 2690 H 251.869 1.68909 -0.87004 0
M  V30 2691 H 250.019 3.87278 0.307954 0
M  V30 2692 H 251.691 3.99946 -2.29871 0
M  V30 2693 H 249.934 3.72597 -2.22157 0
M  V30 2694 H 250.605 5.26249 -1.6663 0
M  V30 2695 H 253.081 4.16011 -0.0859162 0
M  V30 2696 H 251.957 5.47901 0.331063 0
M  V30 2697 H 252.218 4.16887 1.47164 0
M  V30 2698 N 251.277 0.427512 1.51691 0
M  V30 2699 C 252.523 -0.142439 2.02299 0
M  V30 2700 C 252.856 -1.43214 1.31162 0
M  V30 2701 O 252.131 -1.89833 0.423511 0
M  V30 2702 C 252.414 -0.371301 3.58181 0
M  V30 2703 C 252.267 0.936358 4.39946 0
M  V30 2704 C 253.586 -1.14542 4.24933 0
M  V30 2705 H 250.705 -0.0502937 0.735282 0
M  V30 2706 H 253.347 0.564584 1.81418 0
M  V30 2707 H 251.497 -0.973559 3.76104 0
M  V30 2708 H 253.169 1.57184 4.33694 0
M  V30 2709 H 251.412 1.5432 4.05423 0
M  V30 2710 H 252.083 0.730388 5.47147 0
M  V30 2711 H 254.559 -0.635362 4.11221 0
M  V30 2712 H 253.435 -1.27431 5.33903 0
M  V30 2713 H 253.696 -2.17093 3.85127 0
M  V30 2714 N 252.755 -1.56801 0.158532 0
M  V30 2715 C 254.001 -1.97559 -0.483957 0
M  V30 2716 C 254.356 -1.04239 -1.61716 0
M  V30 2717 O 253.649 -0.079603 -1.91435 0
M  V30 2718 C 253.843 -3.4235 -1.02623 0
M  V30 2719 C 253.672 -4.49669 0.0528929 0
M  V30 2720 C 252.442 -5.02838 0.498234 0
M  V30 2721 C 254.64 -5.0725 0.848616 0
M  V30 2722 N 252.622 -5.93775 1.559 0
M  V30 2723 C 253.993 -5.94506 1.7596 0
M  V30 2724 C 256.048 -4.89788 0.895121 0
M  V30 2725 C 254.751 -6.66169 2.71314 0
M  V30 2726 C 256.777 -5.62161 1.83654 0
M  V30 2727 C 256.139 -6.49134 2.73503 0
M  V30 2728 H 252.238 -0.768332 -0.145566 0
M  V30 2729 H 254.822 -1.93012 0.255799 0
M  V30 2730 H 252.993 -3.47467 -1.73555 0
M  V30 2731 H 254.725 -3.70145 -1.63629 0
M  V30 2732 H 251.48 -4.73498 0.0983222 0
M  V30 2733 H 251.904 -6.43948 2.08949 0
M  V30 2734 H 256.546 -4.22255 0.21453 0
M  V30 2735 H 254.264 -7.32923 3.40367 0
M  V30 2736 H 257.85 -5.5064 1.87847 0
M  V30 2737 H 256.73 -7.04153 3.45163 0
M  V30 2738 N 254.233 0.115231 -1.57178 0
M  V30 2739 C 255.482 0.820945 -1.84237 0
M  V30 2740 C 255.795 1.80866 -0.744761 0
M  V30 2741 O 257.001 2.56083 -0.901871 0
M  V30 2742 C 255.457 1.51072 -3.26658 0
M  V30 2743 C 255.065 0.563795 -4.44438 0
M  V30 2744 C 256.809 2.20134 -3.62962 0
M  V30 2745 C 254.716 1.25701 -5.77887 0
M  V30 2746 H 253.646 0.310328 -0.687177 0
M  V30 2747 H 256.297 0.0737134 -1.83352 0
M  V30 2748 H 254.679 2.30471 -3.22024 0
M  V30 2749 H 255.853 -0.197247 -4.60378 0
M  V30 2750 H 254.168 -0.0200638 -4.16395 0
M  V30 2751 H 256.765 2.72696 -4.59936 0
M  V30 2752 H 257.108 2.98107 -2.90582 0
M  V30 2753 H 257.641 1.47619 -3.69396 0
M  V30 2754 H 254.38 0.518493 -6.53446 0
M  V30 2755 H 253.9 1.98997 -5.65827 0
M  V30 2756 H 255.579 1.78915 -6.2177 0
M  V30 2757 N 255.711 1.52812 0.385517 0
M  V30 2758 C 256.958 1.68026 1.1302 0
M  V30 2759 C 257.286 0.421934 1.89868 0
M  V30 2760 O 256.541 -0.595749 1.86412 0
M  V30 2761 C 256.84 2.86856 2.13187 0
M  V30 2762 C 256.506 4.24159 1.5297 0
M  V30 2763 C 255.168 4.61501 1.36274 0
M  V30 2764 C 257.52 5.09627 1.09223 0
M  V30 2765 C 254.848 5.81966 0.743837 0
M  V30 2766 C 257.2 6.30719 0.487411 0
M  V30 2767 C 255.864 6.6679 0.307777 0
M  V30 2768 H 255.134 0.614849 0.413571 0
M  V30 2769 H 257.781 1.86962 0.414405 0
M  V30 2770 H 256.086 2.6235 2.90998 0
M  V30 2771 H 257.783 2.95821 2.70722 0
M  V30 2772 H 254.373 3.94746 1.66954 0
M  V30 2773 H 258.557 4.81343 1.20922 0
M  V30 2774 H 253.813 6.08519 0.592891 0
M  V30 2775 H 257.987 6.96259 0.140143 0
M  V30 2776 H 255.614 7.60001 -0.173879 0
M  V30 2777 N 257.189 -0.644168 1.43834 0
M  V30 2778 C 258.429 -1.41565 1.47441 0
M  V30 2779 C 258.793 -1.91743 0.0992723 0
M  V30 2780 O 259.994 -2.68798 0.0100192 0
M  V30 2781 C 258.265 -2.55902 2.49498 0
M  V30 2782 S 259.824 -3.44287 2.72051 0
M  V30 2783 H 256.642 -0.483118 0.521649 0
M  V30 2784 H 259.244 -0.747008 1.80666 0
M  V30 2785 H 257.948 -2.17327 3.48134 0
M  V30 2786 H 257.479 -3.27607 2.17801 0
M  V30 2787 H 259.494 -4.52927 2.0266 0
M  V30 2788 N 258.668 -1.30515 -0.883378 0
M  V30 2789 C 260.084 -1.08881 -1.16692 0
M  V30 2790 C 260.284 0.149409 -2.00945 0
M  V30 2791 O 259.34 0.84257 -2.38027 0
M  V30 2792 C 260.653 -2.35319 -1.87204 0
M  V30 2793 C 262.201 -2.40799 -1.99962 0
M  V30 2794 C 262.676 -3.67083 -2.73887 0
M  V30 2795 N 264.167 -3.679 -2.81432 0
M  V30 2796 C 264.902 -4.62303 -3.3921 0
M  V30 2797 N 264.398 -5.67052 -3.98025 0
M  V30 2798 N 266.191 -4.49845 -3.3704 0
M  V30 2799 H 258.342 -2.09951 -0.321633 0
M  V30 2800 H 260.605 -0.92556 -0.205043 0
M  V30 2801 H 260.311 -3.25689 -1.3274 0
M  V30 2802 H 260.185 -2.44089 -2.87577 0
M  V30 2803 H 262.572 -1.50907 -2.53597 0
M  V30 2804 H 262.653 -2.36003 -0.98673 0
M  V30 2805 H 262.297 -4.57334 -2.20925 0
M  V30 2806 H 262.227 -3.69141 -3.75556 0
M  V30 2807 H 264.718 -2.92171 -2.39676 0
M  V30 2808 H 265.031 -6.35184 -4.40183 0
M  V30 2809 H 263.376 -5.70842 -3.96439 0
M  V30 2810 H 266.567 -3.67194 -2.90321 0
M  V30 2811 H 266.74 -5.23597 -3.81772 0
M  V30 2812 N 260.146 1.09593 -1.13257 0
M  V30 2813 C 261.374 1.855 -0.916378 0
M  V30 2814 C 261.789 1.81069 0.534738 0
M  V30 2815 O 261.146 1.20562 1.37007 0
M  V30 2816 C 261.197 3.33546 -1.39388 0
M  V30 2817 O 260.918 3.37927 -2.78813 0
M  V30 2818 C 262.419 4.26299 -1.21588 0
M  V30 2819 H 259.639 0.585991 -0.326887 0
M  V30 2820 H 262.183 1.38488 -1.5047 0
M  V30 2821 H 260.338 3.77992 -0.848597 0
M  V30 2822 H 260.752 4.30254 -2.9997 0
M  V30 2823 H 262.226 5.28341 -1.59876 0
M  V30 2824 H 262.703 4.38918 -0.157376 0
M  V30 2825 H 263.309 3.87668 -1.7491 0
M  V30 2826 N 261.624 0.925811 1.2754 0
M  V30 2827 C 263.04 0.625767 1.46821 0
M  V30 2828 C 263.24 -0.825506 1.83814 0
M  V30 2829 O 262.296 -1.60356 1.95044 0
M  V30 2830 C 263.609 1.57402 2.56213 0
M  V30 2831 C 265.157 1.58204 2.70075 0
M  V30 2832 C 265.632 2.51721 3.82623 0
M  V30 2833 N 267.123 2.49917 3.89994 0
M  V30 2834 C 267.858 3.18968 4.76494 0
M  V30 2835 N 267.354 3.97391 5.67496 0
M  V30 2836 N 269.147 3.07996 4.70208 0
M  V30 2837 H 261.298 1.86409 1.01811 0
M  V30 2838 H 263.561 0.800213 0.508295 0
M  V30 2839 H 263.267 2.60925 2.35819 0
M  V30 2840 H 263.141 1.31428 3.53563 0
M  V30 2841 H 265.528 0.554124 2.89851 0
M  V30 2842 H 265.609 1.88226 1.73218 0
M  V30 2843 H 265.253 3.54622 3.63601 0
M  V30 2844 H 265.183 2.18996 4.78903 0
M  V30 2845 H 267.674 1.9296 3.24923 0
M  V30 2846 H 267.987 4.4707 6.30356 0
M  V30 2847 H 266.332 4.01495 5.67298 0
M  V30 2848 H 269.523 2.46223 3.9811 0
M  V30 2849 H 269.696 3.6208 5.37403 0
M  V30 2850 N 263.102 -1.41638 0.69111 0
M  V30 2851 C 264.032 -2.3347 0.037248 0
M  V30 2852 C 265.013 -1.51575 -0.771947 0
M  V30 2853 O 266.198 -1.80126 -0.72582 0
M  V30 2854 C 263.328 -3.35354 -0.903064 0
M  V30 2855 C 262.282 -4.27526 -0.201288 0
M  V30 2856 C 261.608 -5.19747 -1.25565 0
M  V30 2857 C 262.908 -5.13959 0.929689 0
M  V30 2858 H 264.602 -2.88397 0.804227 0
M  V30 2859 H 262.148 -1.38669 0.388189 0
M  V30 2860 H 264.101 -3.98519 -1.36969 0
M  V30 2861 H 262.825 -2.78767 -1.70166 0
M  V30 2862 H 261.484 -3.65779 0.245265 0
M  V30 2863 H 261.132 -4.59479 -2.04666 0
M  V30 2864 H 260.832 -5.8225 -0.791128 0
M  V30 2865 H 262.356 -5.85789 -1.72288 0
M  V30 2866 H 263.77 -5.70718 0.543546 0
M  V30 2867 H 262.167 -5.85379 1.32103 0
M  V30 2868 H 263.237 -4.51389 1.77133 0
M  V30 2869 N 264.58 -0.43555 -1.51462 0
M  V30 2870 C 265.829 0.133007 -2.01261 0
M  V30 2871 C 266.142 1.43942 -1.32439 0
M  V30 2872 O 267.348 2.09081 -1.73198 0
M  V30 2873 C 265.804 0.287581 -3.58749 0
M  V30 2874 C 265.412 -1.00829 -4.36506 0
M  V30 2875 C 267.156 0.810004 -4.167 0
M  V30 2876 C 265.063 -0.819454 -5.85695 0
M  V30 2877 H 263.993 0.0534822 -0.752101 0
M  V30 2878 H 266.644 -0.565038 -1.74584 0
M  V30 2879 H 265.026 1.04859 -3.81865 0
M  V30 2880 H 266.2 -1.77749 -4.25138 0
M  V30 2881 H 264.515 -1.45911 -3.89999 0
M  V30 2882 H 267.112 0.967743 -5.2587 0
M  V30 2883 H 267.455 1.79196 -3.75758 0
M  V30 2884 H 267.988 0.107357 -3.97655 0
M  V30 2885 H 264.727 -1.77374 -6.31046 0
M  V30 2886 H 264.247 -0.0900208 -5.99732 0
M  V30 2887 H 265.926 -0.471949 -6.45276 0
M  V30 2888 N 266.058 1.56714 -0.166846 0
M  V30 2889 C 266.988 2.20754 0.760913 0
M  V30 2890 C 267.969 1.16178 1.24244 0
M  V30 2891 O 269.154 1.44592 1.29641 0
M  V30 2892 C 266.284 2.84478 1.99223 0
M  V30 2893 C 265.238 3.95053 1.64672 0
M  V30 2894 C 264.564 4.45805 2.95232 0
M  V30 2895 C 265.864 5.14865 0.878155 0
M  V30 2896 H 267.558 2.98537 0.22713 0
M  V30 2897 H 265.104 1.43596 0.107805 0
M  V30 2898 H 267.057 3.27951 2.64624 0
M  V30 2899 H 265.781 2.04056 2.55007 0
M  V30 2900 H 264.44 3.52228 1.01641 0
M  V30 2901 H 264.088 3.62181 3.49047 0
M  V30 2902 H 263.788 5.204 2.7287 0
M  V30 2903 H 265.312 4.91962 3.6167 0
M  V30 2904 H 266.726 5.55059 1.43466 0
M  V30 2905 H 265.123 5.95348 0.753738 0
M  V30 2906 H 266.193 4.84735 -0.126377 0
M  V30 2907 N 267.536 -0.106894 1.57237 0
M  V30 2908 C 268.761 -0.830287 1.90055 0
M  V30 2909 C 269.186 -1.72064 0.75998 0
M  V30 2910 O 268.544 -1.78982 -0.288991 0
M  V30 2911 C 268.592 -1.6295 3.21683 0
M  V30 2912 O 267.696 -2.73748 3.08441 0
M  V30 2913 H 267.037 -0.228855 0.623315 0
M  V30 2914 H 269.567 -0.085658 2.04421 0
M  V30 2915 H 269.577 -2.01621 3.54701 0
M  V30 2916 H 268.252 -0.975989 4.04286 0
M  V30 2917 H 266.829 -2.38192 2.86913 0
M  V30 2918 N 269.014 -1.53014 -0.377408 0
M  V30 2919 C 270.263 -1.67845 -1.11853 0
M  V30 2920 C 270.576 -0.430625 -1.90801 0
M  V30 2921 O 271.782 -0.459261 -2.67587 0
M  V30 2922 C 270.238 -2.96668 -2.03756 0
M  V30 2923 C 269.846 -4.28671 -1.30175 0
M  V30 2924 C 271.59 -3.20865 -2.77932 0
M  V30 2925 C 269.497 -5.48591 -2.20911 0
M  V30 2926 H 268.427 -0.625343 -0.421263 0
M  V30 2927 H 271.078 -1.79514 -0.380409 0
M  V30 2928 H 269.46 -2.78773 -2.8125 0
M  V30 2929 H 270.634 -4.57157 -0.578259 0
M  V30 2930 H 268.949 -4.10825 -0.679108 0
M  V30 2931 H 271.546 -4.07642 -3.46024 0
M  V30 2932 H 271.889 -2.36424 -3.4265 0
M  V30 2933 H 272.422 -3.39379 -2.07525 0
M  V30 2934 H 269.161 -6.35474 -1.6079 0
M  V30 2935 H 268.681 -5.244 -2.91144 0
M  V30 2936 H 270.36 -5.8292 -2.80736 0
M  V30 2937 N 270.492 0.636531 -1.44174 0
M  V30 2938 C 271.738 1.39826 -1.4689 0
M  V30 2939 C 272.071 1.93947 -0.0990585 0
M  V30 2940 O 271.346 1.73325 0.882544 0
M  V30 2941 C 271.629 2.56751 -2.5249 0
M  V30 2942 C 271.482 2.08014 -3.98811 0
M  V30 2943 C 272.801 3.58946 -2.54649 0
M  V30 2944 H 269.92 0.507075 -0.53483 0
M  V30 2945 H 272.562 0.720188 -1.75822 0
M  V30 2946 H 270.712 3.14597 -2.2795 0
M  V30 2947 H 272.384 1.5504 -4.34466 0
M  V30 2948 H 270.627 1.39242 -4.10846 0
M  V30 2949 H 271.298 2.92169 -4.68339 0
M  V30 2950 H 273.774 3.1089 -2.76563 0
M  V30 2951 H 272.65 4.38286 -3.3045 0
M  V30 2952 H 272.911 4.12655 -1.58646 0
M  V30 2953 N 271.97 1.30982 0.876444 0
M  V30 2954 C 273.21 1.21589 1.64303 0
M  V30 2955 C 273.574 -0.223962 1.90689 0
M  V30 2956 O 274.775 -0.44128 2.65153 0
M  V30 2957 C 273.046 2.03007 2.94148 0
M  V30 2958 S 274.605 2.10405 3.85065 0
M  V30 2959 H 271.423 0.433161 0.563819 0
M  V30 2960 H 274.025 1.65565 1.03964 0
M  V30 2961 H 272.729 3.06719 2.72675 0
M  V30 2962 H 272.26 1.59725 3.59515 0
M  V30 2963 H 274.275 1.23765 4.80517 0
M  V30 2964 N 273.449 -1.08991 1.13837 0
M  V30 2965 C 274.379 -2.17771 0.842507 0
M  V30 2966 C 275.36 -1.6892 -0.20001 0
M  V30 2967 O 276.545 -1.94113 -0.0579731 0
M  V30 2968 C 273.675 -3.4589 0.312644 0
M  V30 2969 C 272.629 -4.08099 1.28992 0
M  V30 2970 C 271.955 -5.31098 0.619623 0
M  V30 2971 C 273.255 -4.50077 2.65005 0
M  V30 2972 H 274.949 -2.42777 1.75213 0
M  V30 2973 H 272.495 -1.16682 0.843875 0
M  V30 2974 H 274.448 -4.21297 0.0933043 0
M  V30 2975 H 273.172 -3.20419 -0.632382 0
M  V30 2976 H 271.831 -3.34717 1.49533 0
M  V30 2977 H 271.479 -5.0191 -0.33102 0
M  V30 2978 H 271.179 -5.73674 1.27167 0
M  V30 2979 H 272.703 -6.09224 0.409669 0
M  V30 2980 H 274.117 -5.16688 2.48407 0
M  V30 2981 H 272.514 -5.03553 3.26427 0
M  V30 2982 H 273.584 -3.62257 3.22332 0
M  V30 2983 N 274.927 -0.932562 -1.27047 0
M  V30 2984 C 275.86 -0.379774 -2.25018 0
M  V30 2985 C 276.838 0.526587 -1.53837 0
M  V30 2986 O 278.022 0.465992 -1.82649 0
M  V30 2987 C 275.149 0.455187 -3.35627 0
M  V30 2988 C 274.195 -0.388428 -4.24728 0
M  V30 2989 S 275.028 -1.80701 -5.04091 0
M  V30 2990 C 276.184 -0.979865 -6.18182 0
M  V30 2991 H 276.417 -1.2101 -2.71558 0
M  V30 2992 H 273.95 -0.735078 -1.35779 0
M  V30 2993 H 275.908 0.931052 -3.99802 0
M  V30 2994 H 274.569 1.26009 -2.87716 0
M  V30 2995 H 273.762 0.25089 -5.03375 0
M  V30 2996 H 273.364 -0.798649 -3.65373 0
M  V30 2997 H 275.656 -0.218115 -6.77149 0
M  V30 2998 H 276.599 -1.73951 -6.86401 0
M  V30 2999 H 277.007 -0.51973 -5.62102 0
M  V30 3000 N 276.405 1.4127 -0.698611 0
M  V30 3001 C 277.654 2.00408 -0.227949 0
M  V30 3002 C 277.967 1.55981 1.18023 0
M  V30 3003 O 279.173 2.07699 1.74852 0
M  V30 3004 C 277.629 3.58129 -0.356636 0
M  V30 3005 C 277.237 4.11536 -1.77037 0
M  V30 3006 C 278.981 4.24466 0.0540969 0
M  V30 3007 C 276.888 5.61701 -1.85055 0
M  V30 3008 H 275.818 0.749586 -0.0814657 0
M  V30 3009 H 278.469 1.61713 -0.867249 0
M  V30 3010 H 276.851 3.94442 0.350965 0
M  V30 3011 H 278.025 3.86636 -2.50698 0
M  V30 3012 H 276.34 3.57736 -2.13105 0
M  V30 3013 H 278.937 5.34698 0.0146723 0
M  V30 3014 H 279.28 4.01687 1.09332 0
M  V30 3015 H 279.813 3.93198 -0.603337 0
M  V30 3016 H 276.552 5.89312 -2.8704 0
M  V30 3017 H 276.072 5.88519 -1.15783 0
M  V30 3018 H 277.751 6.26524 -1.61484 0
M  V30 3019 N 277.883 0.443576 1.51229 0
M  V30 3020 C 279.111 -0.11929 2.06556 0
M  V30 3021 C 279.526 -1.35921 1.31038 0
M  V30 3022 O 278.883 -1.78675 0.371704 0
M  V30 3023 C 278.934 -0.435228 3.5887 0
M  V30 3024 O 278.655 0.755486 4.31537 0
M  V30 3025 C 280.156 -1.04808 4.30732 0
M  V30 3026 H 277.376 -0.0051584 0.67098 0
M  V30 3027 H 279.92 0.624453 1.94733 0
M  V30 3028 H 278.075 -1.12887 3.70588 0
M  V30 3029 H 278.489 0.483491 5.22267 0
M  V30 3030 H 279.963 -1.2191 5.3837 0
M  V30 3031 H 280.44 -2.03081 3.89429 0
M  V30 3032 H 281.046 -0.393637 4.23474 0
M  V30 3033 N 279.361 -1.56624 0.175154 0
M  V30 3034 C 280.293 -2.15333 -0.785128 0
M  V30 3035 C 281.306 -1.1099 -1.19101 0
M  V30 3036 O 282.495 -1.38162 -1.13019 0
M  V30 3037 C 279.595 -2.68427 -2.06882 0
M  V30 3038 C 278.768 -3.97466 -1.8259 0
M  V30 3039 C 277.827 -4.35585 -2.95215 0
M  V30 3040 O 276.853 -5.03389 -2.65684 0
M  V30 3041 N 278.055 -3.97457 -4.23094 0
M  V30 3042 H 280.82 -2.98359 -0.283187 0
M  V30 3043 H 278.381 -1.61898 -0.00749817 0
M  V30 3044 H 280.373 -2.90924 -2.81328 0
M  V30 3045 H 278.943 -1.89968 -2.48256 0
M  V30 3046 H 278.163 -3.83307 -0.920287 0
M  V30 3047 H 279.451 -4.81736 -1.63733 0
M  V30 3048 H 278.849 -3.42878 -4.49945 0
M  V30 3049 H 277.406 -4.24947 -4.9423 0
M  V30 3050 N 280.839 0.0985539 -1.57292 0
M  V30 3051 C 281.769 1.12064 -2.04851 0
M  V30 3052 C 282.75 1.41981 -0.936767 0
M  V30 3053 O 283.935 1.52071 -1.20781 0
M  V30 3054 C 281.065 2.44144 -2.47004 0
M  V30 3055 C 280.019 2.28643 -3.6181 0
M  V30 3056 C 279.345 3.65869 -3.89929 0
M  V30 3057 C 280.645 1.72986 -4.92822 0
M  V30 3058 H 282.339 0.724979 -2.9049 0
M  V30 3059 H 279.885 0.34729 -1.39749 0
M  V30 3060 H 281.838 3.15914 -2.78884 0
M  V30 3061 H 280.562 2.85639 -1.5836 0
M  V30 3062 H 279.221 1.59318 -3.30172 0
M  V30 3063 H 278.869 4.04885 -2.98458 0
M  V30 3064 H 278.569 3.56344 -4.67218 0
M  V30 3065 H 280.093 4.39112 -4.2428 0
M  V30 3066 H 281.507 2.34593 -5.23105 0
M  V30 3067 H 279.904 1.74229 -5.74251 0
M  V30 3068 H 280.974 0.689007 -4.7998 0
M  V30 3069 N 282.317 1.53212 0.369288 0
M  V30 3070 C 283.28 1.7872 1.43498 0
M  V30 3071 C 284.28 0.657554 1.46741 0
M  V30 3072 O 285.47 0.925736 1.47566 0
M  V30 3073 C 282.602 1.90591 2.82645 0
M  V30 3074 H 283.795 2.73894 1.22156 0
M  V30 3075 H 281.348 1.44233 0.602203 0
M  V30 3076 H 282.083 0.974709 3.09306 0
M  V30 3077 H 281.868 2.72751 2.8169 0
M  V30 3078 H 283.358 2.11931 3.59826 0
M  V30 3079 N 283.795 -0.628877 1.44509 0
M  V30 3080 C 285.043 -1.38565 1.4712 0
M  V30 3081 C 285.364 -1.94712 0.105899 0
M  V30 3082 O 284.634 -1.75912 -0.862079 0
M  V30 3083 H 283.214 -0.514333 0.541729 0
M  V30 3084 H 285.876 -0.740018 1.80305 0
M  V30 3085 H 284.972 -2.21583 2.19789 0
M  V30 3086 N 285.273 -1.31445 -0.869486 0
M  V30 3087 C 286.52 -1.21158 -1.62256 0
M  V30 3088 C 286.848 0.230155 -1.93133 0
M  V30 3089 O 286.103 1.17906 -1.56194 0
M  V30 3090 C 286.402 -2.00145 -2.96102 0
M  V30 3091 C 286.068 -3.4964 -2.84715 0
M  V30 3092 C 284.73 -3.90403 -2.81317 0
M  V30 3093 C 287.082 -4.44769 -2.71716 0
M  V30 3094 C 284.41 -5.24561 -2.62778 0
M  V30 3095 C 286.762 -5.79054 -2.54714 0
M  V30 3096 C 285.426 -6.19037 -2.49699 0
M  V30 3097 H 284.696 -0.443348 -0.593737 0
M  V30 3098 H 287.343 -1.62715 -1.00976 0
M  V30 3099 H 285.648 -1.5127 -3.6142 0
M  V30 3100 H 287.345 -1.89566 -3.53363 0
M  V30 3101 H 283.935 -3.17256 -2.88178 0
M  V30 3102 H 288.119 -4.14208 -2.73397 0
M  V30 3103 H 283.375 -5.54613 -2.57321 0
M  V30 3104 H 287.549 -6.52393 -2.43632 0
M  V30 3105 H 285.176 -7.22935 -2.35093 0
M  V30 3106 N 286.751 1.08385 -1.14413 0
M  V30 3107 C 287.976 1.85057 -0.936413 0
M  V30 3108 C 288.401 1.81055 0.509971 0
M  V30 3109 O 287.759 1.1958 1.36273 0
M  V30 3110 C 287.807 3.30505 -1.44217 0
M  V30 3111 O 286.911 4.07491 -0.634409 0
M  V30 3112 H 286.252 0.573425 -0.334784 0
M  V30 3113 H 288.782 1.36799 -1.52142 0
M  V30 3114 H 288.792 3.81348 -1.45043 0
M  V30 3115 H 287.467 3.32734 -2.49522 0
M  V30 3116 H 286.044 3.66368 -0.694902 0
M  V30 3117 N 288.23 0.939286 1.26551 0
M  V30 3118 C 289.478 0.58469 1.93457 0
M  V30 3119 C 289.799 -0.878774 1.74076 0
M  V30 3120 O 289.069 -1.62421 1.09528 0
M  V30 3121 H 287.649 0.21325 0.715914 0
M  V30 3122 H 290.311 1.1942 1.54029 0
M  V30 3123 H 289.407 0.800849 3.0165 0
M  V30 3124 N 289.708 -1.40897 0.706093 0
M  V30 3125 C 291.119 -1.84023 0.315052 0
M  V30 3126 C 291.47 -1.5906 -1.14866 0
M  V30 3127 O 290.595 -1.06651 -1.88293 0
M  V30 3128 C 291.19 -3.34055 0.565038 0
M  V30 3129 C 289.749 -3.7571 0.227806 0
M  V30 3130 C 288.896 -2.64204 0.842122 0
M  V30 3131 H 291.847 -1.303 0.905963 0
M  V30 3132 H 291.868 -3.80107 -0.172843 0
M  V30 3133 H 291.38 -3.52192 1.63042 0
M  V30 3134 H 289.481 -3.63172 -0.832895 0
M  V30 3135 H 289.594 -4.74103 0.690174 0
M  V30 3136 H 287.958 -2.53255 0.270893 0
M  V30 3137 H 288.741 -2.85155 1.91158 0
M  V30 3138 N 291.186 -0.45159 -1.50991 0
M  V30 3139 C 292.149 0.341117 -2.26647 0
M  V30 3140 C 293.149 0.937422 -1.30649 0
M  V30 3141 O 294.339 0.809644 -1.54241 0
M  V30 3142 C 291.471 1.48398 -3.06905 0
M  V30 3143 H 292.664 -0.322117 -2.98165 0
M  V30 3144 H 290.217 -0.205122 -1.54948 0
M  V30 3145 H 290.952 2.18284 -2.39838 0
M  V30 3146 H 290.737 1.06241 -3.77432 0
M  V30 3147 H 292.227 2.04367 -3.64176 0
M  V30 3148 N 292.664 1.56529 -0.183458 0
M  V30 3149 C 293.911 1.97244 0.458357 0
M  V30 3150 C 294.239 1.06992 1.62428 0
M  V30 3151 O 293.494 0.106542 1.9541 0
M  V30 3152 C 293.793 3.43939 0.971637 0
M  V30 3153 C 293.459 4.5083 -0.0796784 0
M  V30 3154 C 292.121 4.79786 -0.368584 0
M  V30 3155 C 294.473 5.15138 -0.792638 0
M  V30 3156 C 291.801 5.70345 -1.37563 0
M  V30 3157 C 294.153 6.06784 -1.78875 0
M  V30 3158 C 292.817 6.34102 -2.08497 0
M  V30 3159 H 292.087 0.721768 0.167725 0
M  V30 3160 H 294.734 1.89472 -0.277976 0
M  V30 3161 H 293.039 3.48724 1.78602 0
M  V30 3162 H 294.736 3.72791 1.47744 0
M  V30 3163 H 291.326 4.28317 0.155668 0
M  V30 3164 H 295.51 4.92868 -0.582659 0
M  V30 3165 H 290.766 5.89789 -1.61118 0
M  V30 3166 H 294.94 6.55677 -2.3465 0
M  V30 3167 H 292.567 7.04074 -2.86678 0
M  V30 3168 N 294.142 -0.090211 1.57342 0
M  V30 3169 C 295.075 -1.14035 1.97664 0
M  V30 3170 C 296.053 -1.38576 0.850616 0
M  V30 3171 O 297.237 -1.52255 1.11134 0
M  V30 3172 C 294.364 -2.48854 2.2976 0
M  V30 3173 C 293.41 -2.40564 3.52181 0
M  V30 3174 S 294.243 -1.81745 5.03715 0
M  V30 3175 C 295.399 -3.18178 5.38993 0
M  V30 3176 H 295.632 -0.796636 2.86428 0
M  V30 3177 H 293.165 -0.298072 1.51496 0
M  V30 3178 H 295.123 -3.26413 2.48927 0
M  V30 3179 H 293.784 -2.80393 1.41558 0
M  V30 3180 H 292.977 -3.39942 3.72096 0
M  V30 3181 H 292.579 -1.71135 3.32549 0
M  V30 3182 H 294.871 -4.14461 5.35937 0
M  V30 3183 H 295.814 -3.03062 6.39968 0
M  V30 3184 H 296.222 -3.17935 4.66452 0
M  V30 3185 N 295.62 -1.53406 -0.361157 0
M  V30 3186 C 296.866 -1.70054 -1.10496 0
M  V30 3187 C 297.199 -0.453278 -1.88836 0
M  V30 3188 O 296.474 0.5495 -1.86576 0
M  V30 3189 C 296.757 -2.95317 -2.06058 0
M  V30 3190 C 296.61 -4.3021 -1.31298 0
M  V30 3191 C 297.929 -3.16193 -3.06121 0
M  V30 3192 H 295.048 -0.618799 -0.400321 0
M  V30 3193 H 297.69 -1.86052 -0.385318 0
M  V30 3194 H 295.84 -2.81809 -2.67425 0
M  V30 3195 H 297.512 -4.55538 -0.726807 0
M  V30 3196 H 295.755 -4.29421 -0.614853 0
M  V30 3197 H 296.426 -5.14 -2.01265 0
M  V30 3198 H 298.902 -3.28916 -2.5486 0
M  V30 3199 H 297.778 -4.05266 -3.70204 0
M  V30 3200 H 298.039 -2.31676 -3.76535 0
M  V30 3201 N 297.098 0.621204 -1.44841 0
M  V30 3202 C 298.045 1.73267 -1.5247 0
M  V30 3203 C 299.015 1.6189 -0.371611 0
M  V30 3204 O 300.2 1.81668 -0.58321 0
M  V30 3205 C 297.34 3.11545 -1.48438 0
M  V30 3206 C 296.453 3.33827 -2.74196 0
M  V30 3207 C 295.588 4.62133 -2.61929 0
M  V30 3208 C 294.627 4.77627 -3.82804 0
M  V30 3209 N 293.764 5.97219 -3.69153 0
M  V30 3210 H 298.604 1.66082 -2.47428 0
M  V30 3211 H 296.141 0.810026 -1.22788 0
M  V30 3212 H 298.099 3.91528 -1.4409 0
M  V30 3213 H 296.729 3.1772 -0.570402 0
M  V30 3214 H 295.781 2.47715 -2.88689 0
M  V30 3215 H 297.093 3.41153 -3.6389 0
M  V30 3216 H 296.247 5.50291 -2.5547 0
M  V30 3217 H 294.986 4.57182 -1.69811 0
M  V30 3218 H 293.991 3.87896 -3.89637 0
M  V30 3219 H 295.216 4.84385 -4.75971 0
M  V30 3220 H 293.162 5.93339 -2.79794 0
M  V30 3221 H 293.079 6.05644 -4.52472 0
M  V30 3222 H 294.347 6.87912 -3.66603 0
M  V30 3223 N 298.576 1.31904 0.862503 0
M  V30 3224 C 299.526 1.16772 1.95827 0
M  V30 3225 C 300.51 0.0767098 1.60717 0
M  V30 3226 O 301.702 0.302407 1.74398 0
M  V30 3227 C 298.831 0.884858 3.317 0
M  V30 3228 C 297.917 2.0172 3.73055 0
M  V30 3229 N 298.308 3.265 3.86305 0
M  V30 3230 C 296.606 1.91861 4.02623 0
M  V30 3231 C 297.307 4.00616 4.2176 0
M  V30 3232 N 296.283 3.28847 4.32852 0
M  V30 3233 H 300.085 2.11382 2.04193 0
M  V30 3234 H 297.599 1.2357 1.05377 0
M  V30 3235 H 299.596 0.757419 4.09962 0
M  V30 3236 H 298.256 -0.0529448 3.24657 0
M  V30 3237 H 299.267 3.61529 3.70833 0
M  V30 3238 H 295.944 1.05593 4.03926 0
M  V30 3239 H 297.334 5.08182 4.39546 0
M  V30 3240 N 300.054 -1.07777 1.14986 0
M  V30 3241 C 300.984 -2.16865 0.865557 0
M  V30 3242 C 301.965 -1.69123 -0.182083 0
M  V30 3243 O 303.15 -1.94164 -0.0373815 0
M  V30 3244 C 300.28 -3.45539 0.349313 0
M  V30 3245 C 299.234 -4.06708 1.33313 0
M  V30 3246 C 298.56 -5.30411 0.675918 0
M  V30 3247 C 299.86 -4.47241 2.69764 0
M  V30 3248 H 301.554 -2.40905 1.77778 0
M  V30 3249 H 299.1 -1.15781 0.856203 0
M  V30 3250 H 301.053 -4.21174 0.137983 0
M  V30 3251 H 299.777 -3.21072 -0.598362 0
M  V30 3252 H 298.436 -3.33112 1.53075 0
M  V30 3253 H 298.084 -5.02232 -0.277767 0
M  V30 3254 H 297.784 -5.72293 1.33244 0
M  V30 3255 H 299.308 -6.08755 0.474262 0
M  V30 3256 H 300.722 -5.14025 2.53873 0
M  V30 3257 H 299.119 -5.00062 3.3175 0
M  V30 3258 H 300.189 -3.58818 3.26156 0
M  V30 3259 N 301.532 -0.945985 -1.26051 0
M  V30 3260 C 302.462 -0.477172 -2.28572 0
M  V30 3261 C 303.443 0.472032 -1.63419 0
M  V30 3262 O 304.628 0.372853 -1.90587 0
M  V30 3263 C 301.758 0.253975 -3.4637 0
M  V30 3264 C 300.712 -0.609135 -4.23643 0
M  V30 3265 C 300.038 0.252252 -5.34105 0
M  V30 3266 C 301.338 -1.8829 -4.8718 0
M  V30 3267 H 303.032 -1.33402 -2.68038 0
M  V30 3268 H 300.578 -0.642904 -1.28852 0
M  V30 3269 H 302.531 0.593016 -4.17207 0
M  V30 3270 H 301.255 1.145 -3.05871 0
M  V30 3271 H 299.914 -0.931138 -3.54578 0
M  V30 3272 H 299.562 1.14278 -4.89846 0
M  V30 3273 H 299.262 -0.32188 -5.86718 0
M  V30 3274 H 300.786 0.586454 -6.07777 0
M  V30 3275 H 302.2 -1.61081 -5.50205 0
M  V30 3276 H 300.597 -2.40199 -5.49931 0
M  V30 3277 H 301.667 -2.59134 -4.09851 0
M  V30 3278 N 303.011 1.40521 -0.713556 0
M  V30 3279 C 303.921 2.34522 -0.0606667 0
M  V30 3280 C 304.937 1.57193 0.74607 0
M  V30 3281 O 306.113 1.89591 0.679493 0
M  V30 3282 C 303.178 3.36081 0.851491 0
M  V30 3283 C 302.239 4.29286 0.0349339 0
M  V30 3284 C 301.472 5.25994 0.903649 0
M  V30 3285 O 301.695 5.28616 2.14292 0
M  V30 3286 O 300.629 6.00918 0.343723 0
M  V30 3287 H 304.455 2.91968 -0.835972 0
M  V30 3288 H 302.04 1.41681 -0.47402 0
M  V30 3289 H 303.922 3.98369 1.37404 0
M  V30 3290 H 302.597 2.81052 1.60598 0
M  V30 3291 H 301.504 3.70289 -0.532633 0
M  V30 3292 H 302.837 4.87462 -0.681287 0
M  V30 3293 N 304.489 0.459591 1.5075 0
M  V30 3294 C 305.719 -0.0972338 2.06371 0
M  V30 3295 C 306.127 -1.35074 1.32483 0
M  V30 3296 O 305.47 -1.79637 0.384226 0
M  V30 3297 C 305.532 -0.462759 3.56509 0
M  V30 3298 C 305.196 0.687084 4.51805 0
M  V30 3299 C 306.193 1.56578 4.95761 0
M  V30 3300 C 303.878 0.874144 4.94635 0
M  V30 3301 C 305.872 2.61604 5.81242 0
M  V30 3302 C 303.559 1.92765 5.79901 0
M  V30 3303 C 304.557 2.79697 6.23104 0
M  V30 3304 O 304.245 3.83235 7.06673 0
M  V30 3305 H 303.977 -0.00140687 0.675999 0
M  V30 3306 H 306.531 0.644011 1.95043 0
M  V30 3307 H 304.761 -1.25703 3.65699 0
M  V30 3308 H 306.45 -0.953323 3.94546 0
M  V30 3309 H 307.216 1.4329 4.6335 0
M  V30 3310 H 303.095 0.207006 4.60535 0
M  V30 3311 H 306.639 3.29489 6.14884 0
M  V30 3312 H 302.536 2.06064 6.11725 0
M  V30 3313 H 303.304 3.80084 7.24899 0
M  V30 3314 N 305.967 -1.56429 0.191757 0
M  V30 3315 C 307.195 -2.01867 -0.453586 0
M  V30 3316 C 307.61 -1.07191 -1.5542 0
M  V30 3317 O 306.967 -0.0762108 -1.82341 0
M  V30 3318 C 307.018 -3.47017 -1.013 0
M  V30 3319 O 306.739 -4.38078 0.0437005 0
M  V30 3320 C 308.24 -4.07956 -1.73456 0
M  V30 3321 H 305.46 -0.661211 -0.114199 0
M  V30 3322 H 308.004 -2.02295 0.299483 0
M  V30 3323 H 306.159 -3.47298 -1.71647 0
M  V30 3324 H 306.573 -5.23178 -0.372212 0
M  V30 3325 H 308.047 -5.1138 -2.07833 0
M  V30 3326 H 308.524 -3.51222 -2.63704 0
M  V30 3327 H 309.13 -4.11437 -1.07702 0
M  V30 3328 N 307.445 0.0818655 -1.57387 0
M  V30 3329 C 308.377 1.12484 -1.997 0
M  V30 3330 C 309.39 1.35564 -0.90146 0
M  V30 3331 O 310.579 1.33982 -1.17945 0
M  V30 3332 C 307.679 2.47778 -2.31213 0
M  V30 3333 C 306.852 2.44793 -3.62485 0
M  V30 3334 C 305.911 3.62117 -3.81782 0
M  V30 3335 O 304.937 3.44005 -4.53486 0
M  V30 3336 N 306.139 4.82094 -3.23367 0
M  V30 3337 H 308.904 0.764585 -2.89783 0
M  V30 3338 H 306.465 0.270664 -1.59621 0
M  V30 3339 H 308.457 3.24891 -2.41304 0
M  V30 3340 H 307.027 2.75843 -1.4707 0
M  V30 3341 H 306.247 1.53134 -3.6324 0
M  V30 3342 H 307.535 2.39889 -4.48699 0
M  V30 3343 H 306.933 4.99713 -2.65148 0
M  V30 3344 H 305.49 5.56753 -3.38923 0
M  V30 3345 N 308.923 1.53595 0.353017 0
M  V30 3346 C 309.886 1.80232 1.41594 0
M  V30 3347 C 310.886 0.673081 1.46035 0
M  V30 3348 O 312.076 0.941335 1.46576 0
M  V30 3349 C 309.208 1.93578 2.80607 0
M  V30 3350 H 310.401 2.75174 1.19244 0
M  V30 3351 H 307.954 1.44864 0.586872 0
M  V30 3352 H 308.689 1.00746 3.08254 0
M  V30 3353 H 308.474 2.75724 2.78781 0
M  V30 3354 H 309.964 2.15735 3.57558 0
M  V30 3355 N 310.401 -0.613514 1.45168 0
M  V30 3356 C 311.629 -1.39946 1.5239 0
M  V30 3357 C 312.044 -1.88167 0.154531 0
M  V30 3358 O 311.401 -1.61872 -0.842843 0
M  V30 3359 C 311.452 -2.60795 2.50337 0
M  V30 3360 O 311.173 -2.1458 3.81952 0
M  V30 3361 C 312.674 -3.53723 2.67198 0
M  V30 3362 H 309.894 -0.428593 0.516284 0
M  V30 3363 H 312.438 -0.748753 1.903 0
M  V30 3364 H 310.593 -3.21919 2.15515 0
M  V30 3365 H 311.007 -2.93055 4.34993 0
M  V30 3366 H 312.481 -4.35079 3.39721 0
M  V30 3367 H 312.958 -4.0368 1.73029 0
M  V30 3368 H 313.564 -2.98456 3.02992 0
M  V30 3369 N 311.879 -1.3236 -0.855495 0
M  V30 3370 C 312.789 -1.23221 -1.99634 0
M  V30 3371 C 313.805 -0.145983 -1.73387 0
M  V30 3372 O 314.981 -0.366502 -1.98037 0
M  V30 3373 C 312.046 -0.954782 -3.33294 0
M  V30 3374 C 311.107 -2.12937 -3.72769 0
M  V30 3375 C 310.34 -1.86508 -5.00051 0
M  V30 3376 O 310.563 -0.807231 -5.64659 0
M  V30 3377 O 309.497 -2.72591 -5.36636 0
M  V30 3378 H 313.323 -2.19126 -2.1028 0
M  V30 3379 H 310.908 -1.12241 -0.986018 0
M  V30 3380 H 312.79 -0.816519 -4.13414 0
M  V30 3381 H 311.465 -0.0258854 -3.2369 0
M  V30 3382 H 310.372 -2.3231 -2.93228 0
M  V30 3383 H 311.705 -3.04102 -3.87018 0
M  V30 3384 N 313.357 1.07166 -1.15556 0
M  V30 3385 C 314.582 1.84053 -0.955988 0
M  V30 3386 C 315.007 1.81586 0.490739 0
M  V30 3387 O 314.365 1.21018 1.34997 0
M  V30 3388 C 314.413 3.28957 -1.47714 0
M  V30 3389 O 313.517 4.06795 -0.677593 0
M  V30 3390 H 312.858 0.569842 -0.340847 0
M  V30 3391 H 315.388 1.35178 -1.53584 0
M  V30 3392 H 315.398 3.79788 -1.4908 0
M  V30 3393 H 314.073 3.30068 -2.53037 0
M  V30 3394 H 312.65 3.6561 -0.733721 0
M  V30 3395 N 314.835 0.952656 1.25548 0
M  V30 3396 C 315.783 0.462354 2.27958 0
M  V30 3397 C 316.777 -0.46634 1.62855 0
M  V30 3398 O 317.983 -0.343287 1.76696 0
M  V30 3399 H 314.358 0.13101 0.7405 0
M  V30 3400 H 316.329 1.33839 2.66702 0
M  V30 3401 C 315.078 -0.24628 3.46827 0
M  V30 3402 H 314.401 0.459192 3.97154 0
M  V30 3403 H 315.841 -0.553393 4.20373 0
M  V30 3404 C 314.3 -1.4681 3.0323 0
M  V30 3405 O 314.83 -2.56591 3.09069 0
M  V30 3406 N 313.036 -1.32874 2.58443 0
M  V30 3407 H 312.583 -0.435536 2.53891 0
M  V30 3408 H 312.541 -2.14742 2.29637 0
M  V30 3409 N 316.313 -1.40141 0.720998 0
M  V30 3410 C 317.243 -2.33339 0.0867621 0
M  V30 3411 C 318.224 -1.53178 -0.739622 0
M  V30 3412 O 319.409 -1.81625 -0.687449 0
M  V30 3413 C 316.539 -3.37194 -0.831728 0
M  V30 3414 C 315.493 -4.27857 -0.110558 0
M  V30 3415 C 314.819 -5.22294 -1.14513 0
M  V30 3416 C 316.119 -5.11872 1.0385 0
M  V30 3417 H 317.813 -2.86626 0.865219 0
M  V30 3418 H 315.359 -1.37814 0.417516 0
M  V30 3419 H 317.312 -4.01335 -1.28485 0
M  V30 3420 H 316.036 -2.82314 -1.64214 0
M  V30 3421 H 314.695 -3.65176 0.322797 0
M  V30 3422 H 314.343 -4.63717 -1.94874 0
M  V30 3423 H 314.043 -5.83797 -0.667446 0
M  V30 3424 H 315.567 -5.89312 -1.59824 0
M  V30 3425 H 316.981 -5.69436 0.664482 0
M  V30 3426 H 315.378 -5.82445 1.4449 0
M  V30 3427 H 316.448 -4.4753 1.86668 0
M  V30 3428 N 317.792 -0.46758 -1.50504 0
M  V30 3429 C 318.724 0.364655 -2.26281 0
M  V30 3430 C 319.737 0.960151 -1.31472 0
M  V30 3431 O 320.926 0.849153 -1.57008 0
M  V30 3432 C 318.026 1.52509 -3.02645 0
M  V30 3433 C 317.199 1.04302 -4.24782 0
M  V30 3434 C 316.258 2.07709 -4.8347 0
M  V30 3435 O 315.284 1.65913 -5.44483 0
M  V30 3436 N 316.486 3.40485 -4.70159 0
M  V30 3437 H 319.251 -0.28495 -2.98342 0
M  V30 3438 H 316.812 -0.298163 -1.59131 0
M  V30 3439 H 318.804 2.21371 -3.38787 0
M  V30 3440 H 317.374 2.07945 -2.33404 0
M  V30 3441 H 316.594 0.180393 -3.93787 0
M  V30 3442 H 317.882 0.698798 -5.03978 0
M  V30 3443 H 317.28 3.77155 -4.21629 0
M  V30 3444 H 315.837 4.05156 -5.1058 0
M  V30 3445 N 319.27 1.56325 -0.20005 0
M  V30 3446 C 320.5 2.01811 0.442232 0
M  V30 3447 C 320.908 1.07932 1.55394 0
M  V30 3448 O 320.251 0.0772685 1.83537 0
M  V30 3449 C 320.313 3.43685 1.05457 0
M  V30 3450 C 319.977 4.56928 0.0809833 0
M  V30 3451 C 320.974 5.15009 -0.711471 0
M  V30 3452 C 318.659 5.0229 -0.0315364 0
M  V30 3453 C 320.653 6.16904 -1.60336 0
M  V30 3454 C 318.34 6.04028 -0.926981 0
M  V30 3455 C 319.338 6.6121 -1.71146 0
M  V30 3456 O 319.026 7.60971 -2.59189 0
M  V30 3457 H 318.758 0.666173 0.114848 0
M  V30 3458 H 321.312 2.03085 -0.307511 0
M  V30 3459 H 319.542 3.39413 1.85299 0
M  V30 3460 H 321.231 3.72948 1.60201 0
M  V30 3461 H 321.997 4.80827 -0.634873 0
M  V30 3462 H 317.876 4.57476 0.568902 0
M  V30 3463 H 321.42 6.61464 -2.21611 0
M  V30 3464 H 317.317 6.37634 -1.00468 0
M  V30 3465 H 318.085 7.7841 -2.53023 0
M  V30 3466 N 320.748 -0.0735177 1.57428 0
M  V30 3467 C 321.973 -0.789787 1.91774 0
M  V30 3468 C 322.398 -1.70413 0.796306 0
M  V30 3469 O 321.756 -1.79555 -0.250961 0
M  V30 3470 C 321.804 -1.5609 3.25067 0
M  V30 3471 O 320.908 -2.67144 3.14178 0
M  V30 3472 H 320.249 -0.215582 0.628029 0
M  V30 3473 H 322.779 -0.0422781 2.04556 0
M  V30 3474 H 322.789 -1.94052 3.58898 0
M  V30 3475 H 321.464 -0.890015 4.06265 0
M  V30 3476 H 320.041 -2.32052 2.91901 0
M  V30 3477 N 322.226 -1.5378 -0.344866 0
M  V30 3478 C 323.156 -1.84662 -1.42906 0
M  V30 3479 C 324.137 -0.701648 -1.54955 0
M  V30 3480 O 325.322 -0.953438 -1.69184 0
M  V30 3481 C 322.452 -2.05503 -2.79974 0
M  V30 3482 C 321.406 -3.21318 -2.82734 0
M  V30 3483 C 320.732 -3.2749 -4.22675 0
M  V30 3484 C 322.032 -4.59456 -2.48389 0
M  V30 3485 H 323.726 -2.75461 -1.17311 0
M  V30 3486 H 321.272 -1.32542 -0.562896 0
M  V30 3487 H 323.225 -2.25691 -3.55867 0
M  V30 3488 H 321.949 -1.11434 -3.07002 0
M  V30 3489 H 320.608 -3.00984 -2.09294 0
M  V30 3490 H 320.256 -2.31019 -4.4681 0
M  V30 3491 H 319.956 -4.05316 -4.25433 0
M  V30 3492 H 321.48 -3.49887 -5.00412 0
M  V30 3493 H 322.894 -4.79667 -3.13995 0
M  V30 3494 H 321.291 -5.39675 -2.62432 0
M  V30 3495 H 322.361 -4.63155 -1.4358 0
M  V30 3496 N 323.704 0.605807 -1.45491 0
M  V30 3497 C 324.634 1.72709 -1.57143 0
M  V30 3498 C 325.615 1.6476 -0.422884 0
M  V30 3499 O 326.8 1.83132 -0.646247 0
M  V30 3500 C 323.93 3.11316 -1.53948 0
M  V30 3501 C 322.884 3.34077 -2.67537 0
M  V30 3502 C 322.21 4.72975 -2.49397 0
M  V30 3503 C 323.51 3.24158 -4.09535 0
M  V30 3504 H 325.204 1.63214 -2.51001 0
M  V30 3505 H 322.75 0.78379 -1.208 0
M  V30 3506 H 324.703 3.89557 -1.60696 0
M  V30 3507 H 323.427 3.21655 -0.566205 0
M  V30 3508 H 322.086 2.58227 -2.6022 0
M  V30 3509 H 321.734 4.8005 -1.50205 0
M  V30 3510 H 321.434 4.8916 -3.25571 0
M  V30 3511 H 322.958 5.53414 -2.58002 0
M  V30 3512 H 324.372 3.92271 -4.18086 0
M  V30 3513 H 322.769 3.51872 -4.86113 0
M  V30 3514 H 323.839 2.2157 -4.31317 0
M  V30 3515 N 325.182 1.32811 0.848464 0
M  V30 3516 C 326.112 1.24882 1.97299 0
M  V30 3517 C 327.093 0.131357 1.69592 0
M  V30 3518 O 328.278 0.319553 1.91553 0
M  V30 3519 C 325.408 0.97746 3.33261 0
M  V30 3520 C 324.362 2.05682 3.75338 0
M  V30 3521 C 323.688 1.63777 5.09 0
M  V30 3522 C 324.988 3.47254 3.90144 0
M  V30 3523 H 326.682 2.18966 2.04191 0
M  V30 3524 H 324.228 1.05413 0.981029 0
M  V30 3525 H 326.181 0.908513 4.1149 0
M  V30 3526 H 324.905 0.000980011 3.266 0
M  V30 3527 H 323.564 2.11603 2.99366 0
M  V30 3528 H 323.212 0.648569 4.98801 0
M  V30 3529 H 322.912 2.36 5.38124 0
M  V30 3530 H 324.436 1.5833 5.89715 0
M  V30 3531 H 325.85 3.43888 4.58709 0
M  V30 3532 H 324.247 4.1788 4.30693 0
M  V30 3533 H 325.317 3.86462 2.92874 0
M  V30 3534 N 326.66 -1.06551 1.16123 0
M  V30 3535 C 327.906 -1.79567 0.94252 0
M  V30 3536 C 328.239 -1.86869 -0.528547 0
M  V30 3537 O 327.514 -1.35838 -1.39206 0
M  V30 3538 C 327.797 -3.24195 1.56747 0
M  V30 3539 C 327.65 -3.24989 3.10969 0
M  V30 3540 C 328.969 -4.21678 1.25998 0
M  V30 3541 H 326.088 -0.651883 0.343828 0
M  V30 3542 H 328.73 -1.2463 1.43413 0
M  V30 3543 H 326.88 -3.71107 1.14942 0
M  V30 3544 H 328.552 -2.86258 3.61737 0
M  V30 3545 H 326.795 -2.63716 3.44436 0
M  V30 3546 H 327.466 -4.27005 3.49815 0
M  V30 3547 H 329.942 -3.83196 1.62174 0
M  V30 3548 H 328.818 -5.21146 1.7233 0
M  V30 3549 H 329.079 -4.4174 0.178367 0
M  V30 3550 N 328.138 -0.959301 -1.25041 0
M  V30 3551 C 329.068 -0.501388 -2.28053 0
M  V30 3552 C 330.049 0.454673 -1.63911 0
M  V30 3553 O 331.234 0.352618 -1.90972 0
M  V30 3554 C 328.364 0.217224 -3.4662 0
M  V30 3555 C 327.318 -0.654034 -4.22973 0
M  V30 3556 C 326.644 0.195589 -5.34342 0
M  V30 3557 C 327.944 -1.93447 -4.85155 0
M  V30 3558 H 329.638 -1.36238 -2.66608 0
M  V30 3559 H 327.184 -0.656534 -1.28163 0
M  V30 3560 H 329.137 0.548732 -4.17812 0
M  V30 3561 H 327.861 1.1125 -3.07068 0
M  V30 3562 H 326.52 -0.968693 -3.5357 0
M  V30 3563 H 326.168 1.09076 -4.91031 0
M  V30 3564 H 325.868 -0.384091 -5.86343 0
M  V30 3565 H 327.392 0.521958 -6.08365 0
M  V30 3566 H 328.806 -1.66908 -5.48466 0
M  V30 3567 H 327.203 -2.46018 -5.47353 0
M  V30 3568 H 328.273 -2.63466 -4.07079 0
M  V30 3569 N 329.616 1.39756 -0.72842 0
M  V30 3570 C 330.864 2.00248 -0.272946 0
M  V30 3571 C 331.185 1.58077 1.14178 0
M  V30 3572 O 330.455 0.826014 1.77634 0
M  V30 3573 H 329.035 0.740554 -0.0979247 0
M  V30 3574 H 331.697 1.70903 -0.936912 0
M  V30 3575 H 330.793 3.10495 -0.316142 0
M  V30 3576 N 331.094 0.475555 1.50254 0
M  V30 3577 C 332.024 -0.30611 2.31485 0
M  V30 3578 C 333.005 -0.986228 1.38591 0
M  V30 3579 O 334.19 -0.982541 1.67511 0
M  V30 3580 C 331.32 -1.38588 3.1845 0
M  V30 3581 C 330.274 -0.827115 4.19932 0
M  V30 3582 C 329.6 -2.00551 4.95665 0
M  V30 3583 C 330.9 0.16463 5.2204 0
M  V30 3584 H 332.594 0.371866 2.97082 0
M  V30 3585 H 330.14 0.180282 1.42867 0
M  V30 3586 H 332.093 -1.94023 3.74076 0
M  V30 3587 H 330.817 -2.09269 2.50747 0
M  V30 3588 H 329.476 -0.294702 3.65414 0
M  V30 3589 H 329.124 -2.6994 4.2443 0
M  V30 3590 H 328.824 -1.63784 5.64313 0
M  V30 3591 H 330.348 -2.56468 5.54127 0
M  V30 3592 H 331.762 -0.300699 5.72511 0
M  V30 3593 H 330.159 0.446813 5.98434 0
M  V30 3594 H 331.229 1.08905 4.72512 0
M  V30 3595 N 332.573 -1.56217 0.208337 0
M  V30 3596 C 333.503 -2.22694 -0.702116 0
M  V30 3597 C 334.484 -1.19432 -1.2112 0
M  V30 3598 O 335.669 -1.47978 -1.25762 0
M  V30 3599 C 332.799 -2.8966 -1.9161 0
M  V30 3600 C 331.753 -3.9928 -1.5414 0
M  V30 3601 C 331.079 -4.53476 -2.83308 0
M  V30 3602 C 332.379 -5.17012 -0.741339 0
M  V30 3603 H 334.073 -2.99034 -0.147898 0
M  V30 3604 H 331.619 -1.43831 -0.0696951 0
M  V30 3605 H 333.572 -3.34852 -2.55836 0
M  V30 3606 H 332.296 -2.10746 -2.49507 0
M  V30 3607 H 330.955 -3.54799 -0.922668 0
M  V30 3608 H 330.603 -3.71308 -3.39322 0
M  V30 3609 H 330.303 -5.27451 -2.58976 0
M  V30 3610 H 331.827 -5.01378 -3.485 0
M  V30 3611 H 333.241 -5.58667 -1.28699 0
M  V30 3612 H 331.638 -5.97137 -0.595627 0
M  V30 3613 H 332.708 -4.8423 0.254851 0
M  V30 3614 N 334.051 0.0651679 -1.57465 0
M  V30 3615 C 334.981 1.07693 -2.07182 0
M  V30 3616 C 335.962 1.39962 -0.966673 0
M  V30 3617 O 337.147 1.49475 -1.2398 0
M  V30 3618 C 334.277 2.3885 -2.52127 0
M  V30 3619 C 333.231 2.20917 -3.66579 0
M  V30 3620 C 332.557 3.57515 -3.97601 0
M  V30 3621 C 333.857 1.62493 -4.9638 0
M  V30 3622 H 335.551 0.663199 -2.91962 0
M  V30 3623 H 333.097 0.317569 -1.40455 0
M  V30 3624 H 335.05 3.09928 -2.85522 0
M  V30 3625 H 333.774 2.82215 -1.64384 0
M  V30 3626 H 332.433 1.52279 -3.33477 0
M  V30 3627 H 332.081 3.98463 -3.06979 0
M  V30 3628 H 331.781 3.46353 -4.74672 0
M  V30 3629 H 333.305 4.30013 -4.33499 0
M  V30 3630 H 334.719 2.23445 -5.27963 0
M  V30 3631 H 333.116 1.62009 -5.77818 0
M  V30 3632 H 334.186 0.587041 -4.81333 0
M  V30 3633 N 335.529 1.53961 0.336706 0
M  V30 3634 C 336.757 1.75483 1.09605 0
M  V30 3635 C 337.172 0.4972 1.82136 0
M  V30 3636 O 336.529 -0.53149 1.74589 0
M  V30 3637 C 336.58 2.93943 2.10428 0
M  V30 3638 O 336.301 4.14842 1.40846 0
M  V30 3639 C 337.802 3.27571 2.98684 0
M  V30 3640 H 335.022 0.586166 0.326574 0
M  V30 3641 H 337.566 2.00808 0.38683 0
M  V30 3642 H 335.721 2.70929 2.76905 0
M  V30 3643 H 336.135 4.81383 2.08255 0
M  V30 3644 H 337.609 4.13791 3.6535 0
M  V30 3645 H 338.086 2.44168 3.65074 0
M  V30 3646 H 338.692 3.52615 2.37787 0
M  V30 3647 N 337.007 -0.598083 1.45811 0
M  V30 3648 C 337.917 -1.73632 1.57763 0
M  V30 3649 C 338.933 -1.67763 0.461676 0
M  V30 3650 O 340.109 -1.87949 0.723685 0
M  V30 3651 C 337.174 -3.10114 1.55018 0
M  V30 3652 C 336.235 -3.27364 2.77726 0
M  V30 3653 C 335.468 -4.57334 2.75102 0
M  V30 3654 O 335.691 -5.40258 1.8297 0
M  V30 3655 O 334.625 -4.77502 3.66437 0
M  V30 3656 H 338.451 -1.66498 2.53992 0
M  V30 3657 H 336.036 -0.763308 1.28429 0
M  V30 3658 H 337.918 -3.9141 1.56129 0
M  V30 3659 H 336.593 -3.17718 0.619431 0
M  V30 3660 H 335.5 -2.45619 2.82174 0
M  V30 3661 H 336.833 -3.24641 3.69958 0
M  V30 3662 N 338.485 -1.33259 -0.841409 0
M  V30 3663 C 339.734 -1.23921 -1.59143 0
M  V30 3664 C 340.047 0.1941 -1.94635 0
M  V30 3665 O 341.253 0.409474 -2.68394 0
M  V30 3666 C 339.709 -2.17119 -2.87032 0
M  V30 3667 C 339.317 -3.65606 -2.58914 0
M  V30 3668 C 341.061 -2.16648 -3.65053 0
M  V30 3669 C 338.968 -4.50726 -3.82884 0
M  V30 3670 H 337.898 -0.460264 -0.597221 0
M  V30 3671 H 340.549 -1.58307 -0.927959 0
M  V30 3672 H 338.931 -1.75663 -3.54906 0
M  V30 3673 H 340.105 -4.15487 -1.99267 0
M  V30 3674 H 338.42 -3.68341 -1.942 0
M  V30 3675 H 341.017 -2.77474 -4.57069 0
M  V30 3676 H 341.36 -1.16088 -3.99787 0
M  V30 3677 H 341.893 -2.56453 -3.041 0
M  V30 3678 H 338.632 -5.52151 -3.53283 0
M  V30 3679 H 338.152 -4.0559 -4.41879 0
M  V30 3680 H 339.831 -4.64401 -4.50489 0
M  V30 3681 N 339.963 1.05934 -1.16686 0
M  V30 3682 C 341.209 1.79065 -0.95203 0
M  V30 3683 C 341.542 1.87147 0.518629 0
M  V30 3684 O 340.817 1.36574 1.38484 0
M  V30 3685 C 341.1 3.23359 -1.58464 0
M  V30 3686 C 340.953 3.23336 -3.12689 0
M  V30 3687 C 342.272 4.21004 -1.28232 0
M  V30 3688 H 339.391 0.65005 -0.34728 0
M  V30 3689 H 342.033 1.23868 -1.44072 0
M  V30 3690 H 340.183 3.70493 -1.16908 0
M  V30 3691 H 341.855 2.84336 -3.6325 0
M  V30 3692 H 340.098 2.61886 -3.4583 0
M  V30 3693 H 340.769 4.25144 -3.52075 0
M  V30 3694 H 343.245 3.8233 -1.64203 0
M  V30 3695 H 342.121 5.20225 -1.75092 0
M  V30 3696 H 342.382 4.41639 -0.201791 0
M  V30 3697 N 341.441 0.965919 1.2453 0
M  V30 3698 C 342.857 0.67216 1.44756 0
M  V30 3699 C 343.057 -0.766609 1.86347 0
M  V30 3700 O 342.113 -1.5407 2.00047 0
M  V30 3701 C 343.426 1.65473 2.51076 0
M  V30 3702 C 344.974 1.66716 2.64905 0
M  V30 3703 C 345.449 2.63766 3.74421 0
M  V30 3704 N 346.94 2.62198 3.81846 0
M  V30 3705 C 347.675 3.33966 4.66106 0
M  V30 3706 N 347.171 4.15245 5.54566 0
M  V30 3707 N 348.964 3.22799 4.60171 0
M  V30 3708 H 341.115 1.89553 0.958293 0
M  V30 3709 H 343.378 0.815979 0.482579 0
M  V30 3710 H 343.084 2.68296 2.27399 0
M  V30 3711 H 342.958 1.4261 3.49202 0
M  V30 3712 H 345.345 0.646057 2.87941 0
M  V30 3713 H 345.426 1.93642 1.67142 0
M  V30 3714 H 345.07 3.6601 3.52135 0
M  V30 3715 H 345 2.34121 4.71694 0
M  V30 3716 H 347.491 2.032 3.18619 0
M  V30 3717 H 347.804 4.66898 6.15814 0
M  V30 3718 H 346.149 4.1934 5.54237 0
M  V30 3719 H 349.34 2.58764 3.90075 0
M  V30 3720 H 349.513 3.78994 5.25612 0
M  V30 3721 N 342.919 -1.39368 0.735821 0
M  V30 3722 C 344.144 -2.05319 0.293052 0
M  V30 3723 C 344.569 -1.55115 -1.064 0
M  V30 3724 O 343.927 -0.695261 -1.67439 0
M  V30 3725 C 343.975 -3.59305 0.305323 0
M  V30 3726 O 343.079 -4.06299 -0.706761 0
M  V30 3727 H 342.42 -0.650529 0.13307 0
M  V30 3728 H 344.95 -1.78386 1.00197 0
M  V30 3729 H 344.96 -4.07724 0.149997 0
M  V30 3730 H 343.635 -3.95207 1.29553 0
M  V30 3731 H 342.212 -3.69292 -0.517504 0
M  V30 3732 N 344.397 -0.483516 -1.5 0
M  V30 3733 C 345.643 0.0593261 -2.03313 0
M  V30 3734 C 345.998 1.36288 -1.35806 0
M  V30 3735 O 345.291 1.85519 -0.478897 0
M  V30 3736 C 345.485 0.286226 -3.56252 0
M  V30 3737 C 345.314 -0.993788 -4.38582 0
M  V30 3738 C 344.084 -1.54064 -4.81241 0
M  V30 3739 C 346.282 -1.89249 -4.78215 0
M  V30 3740 N 344.264 -2.76838 -5.47936 0
M  V30 3741 C 345.635 -2.96606 -5.44449 0
M  V30 3742 C 347.69 -1.90138 -4.60165 0
M  V30 3743 C 346.393 -4.04857 -5.94544 0
M  V30 3744 C 348.419 -2.97353 -5.1121 0
M  V30 3745 C 347.781 -4.03429 -5.77429 0
M  V30 3746 H 343.88 -0.0186322 -0.781778 0
M  V30 3747 H 346.464 -0.654489 -1.8337 0
M  V30 3748 H 344.635 0.969086 -3.76116 0
M  V30 3749 H 346.367 0.824515 -3.96212 0
M  V30 3750 H 343.122 -1.08813 -4.6093 0
M  V30 3751 H 343.546 -3.39221 -5.85882 0
M  V30 3752 H 348.188 -1.09441 -4.0839 0
M  V30 3753 H 345.906 -4.86363 -6.4535 0
M  V30 3754 H 349.492 -2.99039 -4.99066 0
M  V30 3755 H 348.372 -4.85025 -6.16214 0
M  V30 3756 N 345.875 1.56104 -0.216619 0
M  V30 3757 C 347.1 2.0301 0.424462 0
M  V30 3758 C 347.525 1.0955 1.52907 0
M  V30 3759 O 346.883 0.0827914 1.81111 0
M  V30 3760 C 346.931 3.4819 0.937883 0
M  V30 3761 O 346.035 3.57865 2.04955 0
M  V30 3762 H 345.376 0.656925 0.0966755 0
M  V30 3763 H 347.906 2.01859 -0.33381 0
M  V30 3764 H 347.916 3.88413 1.24897 0
M  V30 3765 H 346.591 4.15699 0.129387 0
M  V30 3766 H 345.168 3.29527 1.74546 0
M  V30 3767 N 347.353 -0.0568162 1.57498 0
M  V30 3768 C 348.283 -1.06593 2.0775 0
M  V30 3769 C 349.264 -1.39448 0.974082 0
M  V30 3770 O 350.449 -1.48815 1.24771 0
M  V30 3771 C 347.579 -2.37509 2.5339 0
M  V30 3772 C 346.533 -2.1897 3.67745 0
M  V30 3773 C 345.859 -3.55402 3.99492 0
M  V30 3774 C 347.159 -1.59859 4.97235 0
M  V30 3775 H 348.853 -0.647706 2.9231 0
M  V30 3776 H 346.399 -0.310116 1.40621 0
M  V30 3777 H 348.352 -3.08409 2.87162 0
M  V30 3778 H 347.076 -2.8134 1.65878 0
M  V30 3779 H 345.735 -1.50508 3.3428 0
M  V30 3780 H 345.383 -3.9683 3.09088 0
M  V30 3781 H 345.083 -3.43831 4.76502 0
M  V30 3782 H 346.607 -4.27708 4.35773 0
M  V30 3783 H 348.021 -2.20642 5.29141 0
M  V30 3784 H 346.418 -1.58942 5.78669 0
M  V30 3785 H 347.488 -0.561506 4.81638 0
M  V30 3786 N 348.832 -1.54138 -0.328536 0
M  V30 3787 C 349.795 -1.82462 -1.38709 0
M  V30 3788 C 350.795 -0.696229 -1.44946 0
M  V30 3789 O 351.985 -0.964535 -1.4506 0
M  V30 3790 C 349.117 -1.98018 -2.77492 0
M  V30 3791 H 350.31 -2.77037 -1.14851 0
M  V30 3792 H 347.863 -1.45779 -0.563751 0
M  V30 3793 H 348.598 -1.05637 -3.06613 0
M  V30 3794 H 348.383 -2.80124 -2.74359 0
M  V30 3795 H 349.873 -2.21396 -3.54081 0
M  V30 3796 N 350.31 0.590341 -1.46126 0
M  V30 3797 C 351.24 1.71032 -1.58966 0
M  V30 3798 C 352.221 1.64302 -0.440335 0
M  V30 3799 O 353.406 1.82436 -0.665634 0
M  V30 3800 C 350.536 3.09665 -1.57241 0
M  V30 3801 C 349.49 3.31221 -2.71066 0
M  V30 3802 C 348.816 4.70303 -2.54399 0
M  V30 3803 C 350.116 3.19796 -4.1295 0
M  V30 3804 H 351.81 1.60543 -2.52718 0
M  V30 3805 H 349.356 0.770933 -1.21625 0
M  V30 3806 H 351.309 3.87831 -1.64819 0
M  V30 3807 H 350.033 3.21036 -0.600289 0
M  V30 3808 H 348.692 2.55452 -2.62944 0
M  V30 3809 H 348.34 4.78429 -1.55288 0
M  V30 3810 H 348.04 4.85679 -3.30741 0
M  V30 3811 H 349.564 5.50647 -2.63857 0
M  V30 3812 H 350.978 3.87815 -4.22223 0
M  V30 3813 H 349.375 3.46696 -4.89818 0
M  V30 3814 H 350.445 2.16983 -4.33643 0
M  V30 3815 N 351.788 1.33704 0.83433 0
M  V30 3816 C 353.016 1.28467 1.62185 0
M  V30 3817 C 353.431 -0.143526 1.88254 0
M  V30 3818 O 352.788 -1.08709 1.4659 0
M  V30 3819 C 352.839 2.06174 2.96942 0
M  V30 3820 O 352.56 3.43422 2.72016 0
M  V30 3821 C 354.061 2.08201 3.91366 0
M  V30 3822 H 351.281 0.4424 0.504503 0
M  V30 3823 H 353.825 1.76145 1.03891 0
M  V30 3824 H 351.98 1.62167 3.51825 0
M  V30 3825 H 352.394 3.83453 3.57861 0
M  V30 3826 H 353.868 2.67017 4.83121 0
M  V30 3827 H 354.345 1.07343 4.2588 0
M  V30 3828 H 354.951 2.52246 3.42421 0
M  V30 3829 N 353.266 -1.05314 1.17247 0
M  V30 3830 C 354.512 -1.78699 0.971513 0
M  V30 3831 C 354.867 -1.85932 -0.494692 0
M  V30 3832 O 354.16 -1.34716 -1.36243 0
M  V30 3833 C 354.354 -3.2229 1.54479 0
M  V30 3834 C 354.183 -3.29052 3.06521 0
M  V30 3835 C 352.953 -3.3841 3.75242 0
M  V30 3836 C 355.151 -3.18095 4.04129 0
M  V30 3837 N 353.133 -3.34289 5.14902 0
M  V30 3838 C 354.504 -3.21331 5.30232 0
M  V30 3839 C 356.559 -3.02049 3.95817 0
M  V30 3840 C 355.262 -3.10169 6.4899 0
M  V30 3841 C 357.288 -2.92228 5.14156 0
M  V30 3842 C 356.65 -2.96096 6.39145 0
M  V30 3843 H 352.749 -0.66628 0.409383 0
M  V30 3844 H 355.333 -1.25553 1.4881 0
M  V30 3845 H 353.504 -3.7381 1.05455 0
M  V30 3846 H 355.236 -3.83905 1.28059 0
M  V30 3847 H 351.991 -3.43621 3.25917 0
M  V30 3848 H 352.415 -3.35702 5.87906 0
M  V30 3849 H 357.057 -2.97897 3.00029 0
M  V30 3850 H 354.775 -3.13076 7.44989 0
M  V30 3851 H 358.361 -2.80885 5.09505 0
M  V30 3852 H 357.241 -2.88568 7.29176 0
M  V30 3853 N 354.744 -0.972509 -1.24016 0
M  V30 3854 C 355.707 -0.511403 -2.23422 0
M  V30 3855 C 356.707 0.394679 -1.55881 0
M  V30 3856 O 357.897 0.189469 -1.73167 0
M  V30 3857 C 355.029 0.258769 -3.39916 0
M  V30 3858 H 356.222 -1.39024 -2.6573 0
M  V30 3859 H 353.775 -0.757585 -1.36713 0
M  V30 3860 H 354.51 1.1545 -3.03054 0
M  V30 3861 H 354.295 -0.391522 -3.9014 0
M  V30 3862 H 355.785 0.570244 -4.13688 0
M  V30 3863 N 356.222 1.38976 -0.743202 0
M  V30 3864 C 357.152 2.33171 -0.123873 0
M  V30 3865 C 358.133 1.54336 0.71516 0
M  V30 3866 O 359.318 1.82696 0.658467 0
M  V30 3867 C 356.448 3.38474 0.777978 0
M  V30 3868 C 355.402 4.27979 0.0424758 0
M  V30 3869 C 354.728 5.2405 1.06189 0
M  V30 3870 C 356.028 5.10155 -1.1198 0
M  V30 3871 H 357.722 2.85213 -0.910709 0
M  V30 3872 H 355.268 1.37133 -0.439388 0
M  V30 3873 H 357.221 4.03328 1.22084 0
M  V30 3874 H 355.945 2.84891 1.59702 0
M  V30 3875 H 354.604 3.64616 -0.380853 0
M  V30 3876 H 354.252 4.66758 1.87472 0
M  V30 3877 H 353.952 5.84785 0.574485 0
M  V30 3878 H 355.476 5.9178 1.50428 0
M  V30 3879 H 356.89 5.68307 -0.75499 0
M  V30 3880 H 355.287 5.80073 -1.53738 0
M  V30 3881 H 356.357 4.44504 -1.93764 0
M  V30 3882 N 357.7 0.491464 1.49741 0
M  V30 3883 C 358.648 -0.305837 2.30581 0
M  V30 3884 C 359.642 -0.971642 1.38764 0
M  V30 3885 O 360.848 -0.90042 1.5586 0
M  V30 3886 H 357.223 -0.117482 0.742767 0
M  V30 3887 H 359.194 0.396093 2.95759 0
M  V30 3888 C 357.943 -1.36319 3.19863 0
M  V30 3889 H 357.266 -0.860258 3.90435 0
M  V30 3890 H 358.706 -1.89323 3.79385 0
M  V30 3891 C 357.165 -2.37621 2.38826 0
M  V30 3892 O 357.695 -3.43311 2.08567 0
M  V30 3893 N 355.901 -2.09849 2.01026 0
M  V30 3894 H 355.448 -1.23922 2.25834 0
M  V30 3895 H 355.406 -2.77859 1.47112 0
M  V30 3896 N 359.178 -1.55987 0.224894 0
M  V30 3897 C 360.408 -2.02489 -0.41007 0
M  V30 3898 C 360.816 -1.10391 -1.53657 0
M  V30 3899 O 360.159 -0.106458 -1.83391 0
M  V30 3900 C 360.221 -3.45319 -0.999757 0
M  V30 3901 C 359.885 -4.56999 -0.00827976 0
M  V30 3902 C 360.882 -5.13812 0.793314 0
M  V30 3903 C 358.567 -5.02176 0.111442 0
M  V30 3904 C 360.561 -6.14276 1.7013 0
M  V30 3905 C 358.248 -6.02477 1.02296 0
M  V30 3906 C 359.246 -6.58403 1.81643 0
M  V30 3907 O 358.934 -7.56751 2.71262 0
M  V30 3908 H 358.666 -0.667915 -0.104235 0
M  V30 3909 H 361.22 -2.0257 0.339782 0
M  V30 3910 H 359.45 -3.42318 -1.79876 0
M  V30 3911 H 361.139 -3.7545 -1.54248 0
M  V30 3912 H 361.905 -4.79756 0.711288 0
M  V30 3913 H 357.784 -4.58323 -0.49605 0
M  V30 3914 H 361.328 -6.57854 2.32107 0
M  V30 3915 H 357.225 -6.35954 1.10599 0
M  V30 3916 H 357.993 -7.74286 2.65375 0
M  V30 3917 N 360.656 0.0484629 -1.57525 0
M  V30 3918 C 362.072 0.40375 -1.54409 0
M  V30 3919 C 362.272 1.77786 -0.948384 0
M  V30 3920 O 361.328 2.46189 -0.560983 0
M  V30 3921 C 362.641 0.323394 -2.98956 0
M  V30 3922 C 364.189 0.401892 -3.10409 0
M  V30 3923 C 364.664 0.351195 -4.56652 0
M  V30 3924 N 366.155 0.410576 -4.61377 0
M  V30 3925 C 366.89 0.393933 -5.72045 0
M  V30 3926 N 366.386 0.330724 -6.9201 0
M  V30 3927 N 368.179 0.442227 -5.60358 0
M  V30 3928 H 360.33 -0.851016 -1.94606 0
M  V30 3929 H 362.593 -0.321721 -0.89174 0
M  V30 3930 H 362.299 -0.62011 -3.4619 0
M  V30 3931 H 362.173 1.12463 -3.60044 0
M  V30 3932 H 364.56 1.33582 -2.63134 0
M  V30 3933 H 364.641 -0.428342 -2.52188 0
M  V30 3934 H 364.285 -0.578987 -5.04589 0
M  V30 3935 H 364.215 1.19928 -5.12762 0
M  V30 3936 H 366.706 0.462729 -3.75056 0
M  V30 3937 H 367.019 0.322592 -7.72126 0
M  V30 3938 H 365.364 0.29706 -6.94365 0
M  V30 3939 H 368.555 0.489464 -4.65534 0
M  V30 3940 H 368.728 0.425788 -6.466 0
M  V30 3941 N 362.134 1.5431 0.320358 0
M  V30 3942 C 363.362 1.76636 1.07738 0
M  V30 3943 C 363.777 0.51649 1.81598 0
M  V30 3944 O 363.134 -0.512942 1.75143 0
M  V30 3945 C 363.185 2.96158 2.07299 0
M  V30 3946 O 362.906 4.16313 1.36438 0
M  V30 3947 C 364.407 3.3072 2.95193 0
M  V30 3948 H 361.627 0.589597 0.320339 0
M  V30 3949 H 364.171 2.01207 0.36551 0
M  V30 3950 H 362.326 2.73851 2.74016 0
M  V30 3951 H 362.74 4.83565 2.03138 0
M  V30 3952 H 364.214 4.17643 3.60941 0
M  V30 3953 H 364.691 2.48026 3.62463 0
M  V30 3954 H 365.297 3.55117 2.34034 0
M  V30 3955 N 363.613 -0.582584 1.46437 0
M  V30 3956 C 364.861 -1.33814 1.51453 0
M  V30 3957 C 365.182 -1.94277 0.167792 0
M  V30 3958 O 364.452 -1.78566 -0.805677 0
M  V30 3959 H 363.032 -0.496838 0.557818 0
M  V30 3960 H 365.694 -0.682281 1.82568 0
M  V30 3961 H 364.79 -2.14479 2.26728 0
M  V30 3962 N 365.091 -1.34144 -0.827227 0
M  V30 3963 C 366.337 -1.26446 -1.58554 0
M  V30 3964 C 366.67 0.1664 -1.93486 0
M  V30 3965 O 365.945 1.1107 -1.59667 0
M  V30 3966 C 366.228 -2.15111 -2.8879 0
M  V30 3967 C 366.081 -3.66712 -2.60465 0
M  V30 3968 C 367.4 -2.03311 -3.90324 0
M  V30 3969 H 364.519 -0.46067 -0.575284 0
M  V30 3970 H 367.161 -1.64356 -0.953269 0
M  V30 3971 H 365.311 -1.8291 -3.42748 0
M  V30 3972 H 366.983 -4.09259 -2.1285 0
M  V30 3973 H 365.226 -3.88014 -1.93978 0
M  V30 3974 H 365.897 -4.24112 -3.53317 0
M  V30 3975 H 368.373 -2.31574 -3.45706 0
M  V30 3976 H 367.249 -2.67582 -4.79261 0
M  V30 3977 H 367.51 -1.00879 -4.30437 0
M  V30 3978 N 366.569 1.04691 -1.17803 0
M  V30 3979 C 367.985 1.29963 -0.926379 0
M  V30 3980 C 368.185 1.97251 0.411635 0
M  V30 3981 O 367.241 2.24922 1.14744 0
M  V30 3982 C 368.554 2.16447 -2.08737 0
M  V30 3983 C 370.102 2.29814 -2.12496 0
M  V30 3984 C 370.577 3.19661 -3.27995 0
M  V30 3985 N 372.068 3.27247 -3.27816 0
M  V30 3986 C 372.803 3.96906 -4.13827 0
M  V30 3987 N 372.299 4.6895 -5.09959 0
M  V30 3988 N 374.092 3.93122 -4.01761 0
M  V30 3989 H 366.243 0.594182 -2.0392 0
M  V30 3990 H 368.506 0.324649 -0.890678 0
M  V30 3991 H 368.212 1.74304 -3.05469 0
M  V30 3992 H 368.086 3.17103 -2.04268 0
M  V30 3993 H 370.473 2.71196 -1.16347 0
M  V30 3994 H 370.554 1.2877 -2.21025 0
M  V30 3995 H 370.198 2.78991 -4.24413 0
M  V30 3996 H 370.128 4.20722 -3.16703 0
M  V30 3997 H 372.619 2.75921 -2.58217 0
M  V30 3998 H 372.932 5.19679 -5.71974 0
M  V30 3999 H 371.277 4.67875 -5.13924 0
M  V30 4000 H 374.468 3.35967 -3.2595 0
M  V30 4001 H 374.641 4.47139 -4.6901 0
M  V30 4002 N 368.047 0.979072 1.23499 0
M  V30 4003 C 368.977 0.537606 2.27227 0
M  V30 4004 C 369.958 -0.428539 1.64613 0
M  V30 4005 O 371.143 -0.322191 1.91509 0
M  V30 4006 C 368.273 -0.162052 3.46922 0
M  V30 4007 C 367.227 0.721242 4.21879 0
M  V30 4008 C 366.553 -0.110555 5.34586 0
M  V30 4009 C 367.853 2.01141 4.82016 0
M  V30 4010 H 369.547 1.40462 2.64406 0
M  V30 4011 H 367.093 0.67684 1.27102 0
M  V30 4012 H 369.046 -0.482192 4.18632 0
M  V30 4013 H 367.77 -1.06351 3.08799 0
M  V30 4014 H 366.429 1.02482 3.51984 0
M  V30 4015 H 366.077 -1.0125 4.92704 0
M  V30 4016 H 365.777 0.477325 5.85658 0
M  V30 4017 H 367.301 -0.425107 6.09118 0
M  V30 4018 H 368.715 1.75612 5.45741 0
M  V30 4019 H 367.112 2.54695 5.43369 0
M  V30 4020 H 368.182 2.69909 4.02836 0
M  V30 4021 N 369.525 -1.3858 0.750561 0
M  V30 4022 C 370.941 -1.53759 0.427824 0
M  V30 4023 C 371.141 -1.71401 -1.05943 0
M  V30 4024 O 370.197 -1.72331 -1.84549 0
M  V30 4025 C 371.51 -2.74642 1.22443 0
M  V30 4026 C 373.058 -2.88489 1.2142 0
M  V30 4027 C 373.533 -4.12329 1.9937 0
M  V30 4028 N 375.024 -4.194 1.96616 0
M  V30 4029 C 375.759 -5.14209 2.53727 0
M  V30 4030 N 375.255 -6.14709 3.19539 0
M  V30 4031 N 377.048 -5.06537 2.43673 0
M  V30 4032 H 369.199 -1.25377 1.71447 0
M  V30 4033 H 371.462 -0.608844 0.726645 0
M  V30 4034 H 371.168 -2.68 2.27747 0
M  V30 4035 H 371.042 -3.67745 0.839273 0
M  V30 4036 H 373.429 -2.94614 0.169232 0
M  V30 4037 H 373.51 -1.96406 1.63885 0
M  V30 4038 H 373.154 -4.06966 3.03877 0
M  V30 4039 H 373.084 -5.03486 1.54302 0
M  V30 4040 H 375.575 -3.47421 1.48684 0
M  V30 4041 H 375.888 -6.8354 3.60545 0
M  V30 4042 H 374.233 -6.1505 3.23633 0
M  V30 4043 H 377.424 -4.26962 1.91889 0
M  V30 4044 H 377.597 -5.80245 2.88479 0
M  V30 4045 N 371.003 -0.499398 -1.49478 0
M  V30 4046 C 372.251 0.0455996 -2.02049 0
M  V30 4047 C 372.572 1.37633 -1.38138 0
M  V30 4048 O 371.842 1.8842 -0.536166 0
M  V30 4049 H 370.422 0.0198416 -0.746736 0
M  V30 4050 H 373.084 -0.656274 -1.83519 0
M  V30 4051 H 372.18 0.176445 -3.11601 0
M  V30 4052 N 372.481 1.55866 -0.233164 0
M  V30 4053 C 373.444 2.1953 0.658715 0
M  V30 4054 C 374.444 1.16053 1.11303 0
M  V30 4055 O 375.634 1.41218 1.01996 0
M  V30 4056 C 372.766 2.82791 1.90373 0
M  V30 4057 H 373.959 2.99721 0.10347 0
M  V30 4058 H 371.512 1.56291 0.0164245 0
M  V30 4059 H 372.247 2.06501 2.50056 0
M  V30 4060 H 372.032 3.58578 1.58632 0
M  V30 4061 H 373.522 3.31556 2.53891 0
M  V30 4062 N 373.959 -0.0401083 1.57549 0
M  V30 4063 C 375.208 -0.732108 1.87944 0
M  V30 4064 C 375.521 -1.77107 0.830206 0
M  V30 4065 O 376.727 -2.51488 1.02302 0
M  V30 4066 C 375.183 -1.35315 3.33494 0
M  V30 4067 C 374.791 -0.351105 4.46622 0
M  V30 4068 C 376.535 -2.02566 3.73051 0
M  V30 4069 C 374.442 -0.979859 5.83226 0
M  V30 4070 H 373.372 -0.277188 0.701201 0
M  V30 4071 H 376.023 0.0138501 1.83495 0
M  V30 4072 H 374.405 -2.14844 3.32653 0
M  V30 4073 H 375.579 0.416674 4.58912 0
M  V30 4074 H 373.894 0.218708 4.15825 0
M  V30 4075 H 376.491 -2.50441 4.72423 0
M  V30 4076 H 376.834 -2.83904 3.04474 0
M  V30 4077 H 377.367 -1.29827 3.76018 0
M  V30 4078 H 374.106 -0.206135 6.55176 0
M  V30 4079 H 373.626 -1.71774 5.74677 0
M  V30 4080 H 375.305 -1.49046 6.29599 0
M  V30 4081 N 375.437 -1.54477 -0.31217 0
M  V30 4082 C 376.367 -1.87652 -1.38957 0
M  V30 4083 C 377.348 -0.734358 -1.53431 0
M  V30 4084 O 378.533 -0.98911 -1.67123 0
M  V30 4085 C 375.663 -2.11396 -2.75552 0
M  V30 4086 C 374.617 -3.27243 -2.75855 0
M  V30 4087 C 373.943 -3.36382 -4.15633 0
M  V30 4088 C 375.243 -4.64622 -2.38587 0
M  V30 4089 H 376.937 -2.77887 -1.11442 0
M  V30 4090 H 374.483 -1.33707 -0.534655 0
M  V30 4091 H 376.436 -2.33189 -3.51 0
M  V30 4092 H 375.16 -1.17921 -3.04569 0
M  V30 4093 H 373.819 -3.05356 -2.02863 0
M  V30 4094 H 373.467 -2.40445 -4.41809 0
M  V30 4095 H 373.167 -4.14249 -4.1674 0
M  V30 4096 H 374.691 -3.60422 -4.92877 0
M  V30 4097 H 376.105 -4.86219 -3.03749 0
M  V30 4098 H 374.502 -5.45121 -2.50925 0
M  V30 4099 H 375.572 -4.66097 -1.33723 0
M  V30 4100 N 376.915 0.57481 -1.46744 0
M  V30 4101 C 378.143 1.35856 -1.56047 0
M  V30 4102 C 378.558 1.87691 -0.204365 0
M  V30 4103 O 377.915 1.64049 0.79963 0
M  V30 4104 C 377.966 2.54066 -2.57163 0
M  V30 4105 O 377.687 2.04377 -3.87507 0
M  V30 4106 C 379.188 3.46514 -2.76483 0
M  V30 4107 H 376.408 0.414754 -0.527466 0
M  V30 4108 H 378.952 0.698035 -1.92218 0
M  V30 4109 H 377.107 3.16092 -2.23974 0
M  V30 4110 H 377.521 2.81419 -4.4261 0
M  V30 4111 H 378.995 4.25919 -3.51137 0
M  V30 4112 H 379.472 3.98951 -1.83671 0
M  V30 4113 H 380.078 2.90318 -3.10799 0
M  V30 4114 N 378.394 1.34581 0.820102 0
M  V30 4115 C 379.327 1.20735 1.93644 0
M  V30 4116 C 380.305 0.0983343 1.62302 0
M  V30 4117 O 381.489 0.263997 1.86642 0
M  V30 4118 C 378.616 0.856037 3.27704 0
M  V30 4119 C 377.662 1.97521 3.78005 0
M  V30 4120 S 378.495 3.58906 3.97425 0
M  V30 4121 C 379.651 3.25822 5.34407 0
M  V30 4122 H 379.884 2.15231 2.05093 0
M  V30 4123 H 377.417 1.1964 0.97599 0
M  V30 4124 H 379.375 0.660133 4.05157 0
M  V30 4125 H 378.036 -0.0706253 3.14021 0
M  V30 4126 H 377.229 1.68321 4.75062 0
M  V30 4127 H 376.831 2.12875 3.07507 0
M  V30 4128 H 379.123 2.77812 6.17922 0
M  V30 4129 H 380.066 4.22029 5.68592 0
M  V30 4130 H 380.474 2.61932 5.00052 0
M  V30 4131 N 379.872 -1.04064 1.18357 0
M  V30 4132 C 380.835 -2.10243 0.912707 0
M  V30 4133 C 381.835 -1.60477 -0.101928 0
M  V30 4134 O 383.025 -1.73703 0.131517 0
M  V30 4135 C 380.157 -3.38893 0.369387 0
M  V30 4136 H 381.35 -2.35706 1.85426 0
M  V30 4137 H 378.903 -1.20489 0.995594 0
M  V30 4138 H 379.638 -3.19094 -0.578776 0
M  V30 4139 H 379.423 -3.76331 1.1008 0
M  V30 4140 H 380.913 -4.17128 0.198575 0
M  V30 4141 N 381.35 -0.985608 -1.22978 0
M  V30 4142 C 382.597 -0.657386 -1.91532 0
M  V30 4143 C 382.925 0.809707 -1.76845 0
M  V30 4144 O 382.18 1.60021 -1.12658 0
M  V30 4145 C 382.479 -1.00014 -3.43121 0
M  V30 4146 C 382.145 -2.4583 -3.77993 0
M  V30 4147 C 380.807 -2.85679 -3.87222 0
M  V30 4148 C 383.159 -3.40378 -3.94705 0
M  V30 4149 C 380.487 -4.19081 -4.10595 0
M  V30 4150 C 382.839 -4.73429 -4.1958 0
M  V30 4151 C 381.503 -5.1303 -4.27032 0
M  V30 4152 H 380.773 -0.240555 -0.700867 0
M  V30 4153 H 383.42 -1.24044 -1.45895 0
M  V30 4154 H 381.725 -0.335072 -3.90365 0
M  V30 4155 H 383.422 -0.724322 -3.94404 0
M  V30 4156 H 380.012 -2.13939 -3.71387 0
M  V30 4157 H 384.196 -3.10766 -3.8696 0
M  V30 4158 H 379.452 -4.49362 -4.14589 0
M  V30 4159 H 383.626 -5.46644 -4.31455 0
M  V30 4160 H 381.253 -6.16418 -4.44896 0
M  V30 4161 N 382.828 1.3818 -0.7579 0
M  V30 4162 C 383.775 2.30416 -0.133057 0
M  V30 4163 C 384.745 1.50398 0.704957 0
M  V30 4164 O 385.93 1.79014 0.660192 0
M  V30 4165 C 383.07 3.36834 0.750813 0
M  V30 4166 C 382.183 4.31879 -0.102297 0
M  V30 4167 C 381.318 5.25368 0.784979 0
M  V30 4168 C 380.357 6.12058 -0.0715046 0
M  V30 4169 N 379.494 6.97832 0.772972 0
M  V30 4170 H 384.334 2.83274 -0.925186 0
M  V30 4171 H 381.871 1.39461 -0.467866 0
M  V30 4172 H 383.829 3.97145 1.27794 0
M  V30 4173 H 382.459 2.85374 1.50868 0
M  V30 4174 H 381.511 3.72991 -0.747095 0
M  V30 4175 H 382.823 4.92921 -0.763552 0
M  V30 4176 H 381.977 5.90818 1.37911 0
M  V30 4177 H 380.716 4.64703 1.47996 0
M  V30 4178 H 379.721 5.456 -0.678272 0
M  V30 4179 H 380.946 6.74793 -0.763606 0
M  V30 4180 H 378.892 6.3971 1.45282 0
M  V30 4181 H 378.809 7.55812 0.168709 0
M  V30 4182 H 380.077 7.67687 1.35194 0
M  V30 4183 N 384.306 0.507319 1.49211 0
M  V30 4184 C 385.253 -0.267728 2.29242 0
M  V30 4185 C 386.223 -0.954609 1.35928 0
M  V30 4186 O 387.408 -0.960046 1.64887 0
M  V30 4187 C 384.548 -1.32243 3.18756 0
M  V30 4188 C 383.661 -0.64669 4.27132 0
M  V30 4189 C 382.796 -1.68238 5.03855 0
M  V30 4190 C 381.835 -0.98885 6.0406 0
M  V30 4191 N 380.972 -1.96903 6.73924 0
M  V30 4192 H 385.812 0.420968 2.95012 0
M  V30 4193 H 383.349 0.219443 1.45454 0
M  V30 4194 H 385.307 -1.94599 3.69036 0
M  V30 4195 H 383.937 -1.97981 2.54958 0
M  V30 4196 H 382.989 0.0902926 3.80293 0
M  V30 4197 H 384.301 -0.101058 4.98698 0
M  V30 4198 H 383.455 -2.38081 5.58034 0
M  V30 4199 H 382.194 -2.26187 4.32077 0
M  V30 4200 H 381.199 -0.276222 5.49106 0
M  V30 4201 H 382.424 -0.415767 6.77826 0
M  V30 4202 H 380.37 -2.53803 6.04913 0
M  V30 4203 H 380.287 -1.47423 7.41487 0
M  V30 4204 H 381.555 -2.66015 7.32705 0
M  V30 4205 N 385.784 -1.5574 0.241426 0
M  V30 4206 C 387.033 -1.97986 -0.385295 0
M  V30 4207 C 387.346 -1.13267 -1.59468 0
M  V30 4208 O 388.552 -1.45501 -2.2922 0
M  V30 4209 C 387.008 -3.52275 -0.736884 0
M  V30 4210 C 386.616 -4.45726 0.450796 0
M  V30 4211 C 388.36 -4.03189 -1.3281 0
M  V30 4212 C 386.267 -5.91352 0.0756662 0
M  V30 4213 H 385.197 -0.739386 -0.147731 0
M  V30 4214 H 387.848 -1.80308 0.340779 0
M  V30 4215 H 386.23 -3.65628 -1.52094 0
M  V30 4216 H 387.404 -4.44131 1.22819 0
M  V30 4217 H 385.719 -4.05264 0.956573 0
M  V30 4218 H 388.316 -5.09505 -1.62201 0
M  V30 4219 H 388.659 -3.50212 -2.25071 0
M  V30 4220 H 389.192 -3.93141 -0.607069 0
M  V30 4221 H 385.931 -6.48354 0.965272 0
M  V30 4222 H 385.451 -5.96095 -0.665635 0
M  V30 4223 H 387.13 -6.46084 -0.344075 0
M  V30 4224 N 387.262 0.0317525 -1.57568 0
M  V30 4225 C 388.192 1.03274 -2.0942 0
M  V30 4226 C 389.173 1.3788 -0.996143 0
M  V30 4227 O 390.358 1.46811 -1.27122 0
M  V30 4228 C 387.488 2.33448 -2.57137 0
M  V30 4229 C 386.442 2.13091 -3.71182 0
M  V30 4230 C 385.768 3.49001 -4.05095 0
M  V30 4231 C 387.068 1.51928 -4.99715 0
M  V30 4232 H 388.762 0.60112 -2.93303 0
M  V30 4233 H 386.308 0.287705 -1.41097 0
M  V30 4234 H 388.261 3.03802 -2.92032 0
M  V30 4235 H 386.985 2.78665 -1.70333 0
M  V30 4236 H 385.644 1.45171 -3.36632 0
M  V30 4237 H 385.292 3.91862 -3.15362 0
M  V30 4238 H 384.992 3.36207 -4.81911 0
M  V30 4239 H 386.516 4.20721 -4.42522 0
M  V30 4240 H 387.93 2.12196 -5.32584 0
M  V30 4241 H 386.327 1.49716 -5.81124 0
M  V30 4242 H 387.397 0.484811 -4.8247 0
M  V30 4243 N 388.74 1.54641 0.303973 0
M  V30 4244 C 389.687 1.85386 1.37479 0
M  V30 4245 C 390.657 0.702528 1.50512 0
M  V30 4246 O 391.842 0.950867 1.65418 0
M  V30 4247 C 388.982 2.10413 2.73533 0
M  V30 4248 C 388.095 3.38049 2.68974 0
M  V30 4249 C 387.23 3.52934 3.97002 0
M  V30 4250 C 386.269 4.74373 3.86829 0
M  V30 4251 N 385.406 4.8608 5.06627 0
M  V30 4252 H 390.246 2.76732 1.1056 0
M  V30 4253 H 387.783 1.37034 0.534805 0
M  V30 4254 H 389.741 2.22919 3.52652 0
M  V30 4255 H 388.371 1.22338 2.98719 0
M  V30 4256 H 387.423 3.3418 1.81736 0
M  V30 4257 H 388.735 4.27288 2.57346 0
M  V30 4258 H 387.889 3.65088 4.84557 0
M  V30 4259 H 386.628 2.61824 4.1146 0
M  V30 4260 H 385.633 4.62255 2.97658 0
M  V30 4261 H 386.858 5.66888 3.73918 0
M  V30 4262 H 384.804 3.97891 5.21554 0
M  V30 4263 H 384.721 5.69315 4.9741 0
M  V30 4264 H 385.989 5.02587 5.95841 0
M  V30 4265 N 390.218 -0.567019 1.47046 0
M  V30 4266 C 391.148 -1.68482 1.61667 0
M  V30 4267 C 392.129 -1.6358 0.466418 0
M  V30 4268 O 393.314 -1.81354 0.694574 0
M  V30 4269 C 390.444 -3.07124 1.62148 0
M  V30 4270 C 389.398 -3.26867 2.76301 0
M  V30 4271 C 388.724 -4.66196 2.61849 0
M  V30 4272 C 390.024 -3.13186 4.17986 0
M  V30 4273 H 391.718 -1.56502 2.5524 0
M  V30 4274 H 389.264 -0.751486 1.22836 0
M  V30 4275 H 391.217 -3.8516 1.70968 0
M  V30 4276 H 389.941 -3.2004 0.651287 0
M  V30 4277 H 388.6 -2.51237 2.66975 0
M  V30 4278 H 388.248 -4.75898 1.62879 0
M  V30 4279 H 387.948 -4.80356 3.38425 0
M  V30 4280 H 389.472 -5.46379 2.72584 0
M  V30 4281 H 390.886 -3.81049 4.2834 0
M  V30 4282 H 389.283 -3.3886 4.95272 0
M  V30 4283 H 390.353 -2.10057 4.3704 0
M  V30 4284 N 391.696 -1.35014 -0.812953 0
M  V30 4285 C 392.643 -1.27412 -1.92444 0
M  V30 4286 C 393.613 -0.14733 -1.65445 0
M  V30 4287 O 394.798 -0.329974 -1.87925 0
M  V30 4288 C 391.938 -1.04558 -3.28879 0
M  V30 4289 C 391.051 -2.26101 -3.68106 0
M  V30 4290 C 390.186 -1.96449 -4.9354 0
M  V30 4291 C 389.225 -3.14081 -5.25376 0
M  V30 4292 N 388.362 -2.84246 -6.41988 0
M  V30 4293 H 393.202 -2.22463 -1.98278 0
M  V30 4294 H 390.739 -1.10593 -0.969933 0
M  V30 4295 H 392.697 -0.893413 -4.07522 0
M  V30 4296 H 391.327 -0.131719 -3.22531 0
M  V30 4297 H 390.379 -2.52204 -2.84775 0
M  V30 4298 H 391.691 -3.13959 -3.87597 0
M  V30 4299 H 390.845 -1.78026 -5.79993 0
M  V30 4300 H 389.584 -1.05867 -4.76071 0
M  V30 4301 H 388.589 -3.33089 -4.37415 0
M  V30 4302 H 389.814 -4.05455 -5.44778 0
M  V30 4303 H 387.76 -1.96252 -6.25956 0
M  V30 4304 H 387.677 -3.65637 -6.61699 0
M  V30 4305 H 388.945 -2.6935 -7.31485 0
M  V30 4306 N 393.175 1.03435 -1.18907 0
M  V30 4307 C 394.123 2.13703 -0.918353 0
M  V30 4308 C 395.117 1.68947 0.123767 0
M  V30 4309 O 396.323 1.79983 -0.0249701 0
M  V30 4310 H 392.698 0.698112 -0.279542 0
M  V30 4311 H 394.669 2.33731 -1.85506 0
M  V30 4312 C 393.418 3.44542 -0.467532 0
M  V30 4313 H 392.741 3.79394 -1.26095 0
M  V30 4314 H 394.181 4.22812 -0.317164 0
M  V30 4315 C 392.64 3.26829 0.817588 0
M  V30 4316 O 393.17 3.54975 1.88031 0
M  V30 4317 N 391.376 2.80139 0.772677 0
M  V30 4318 H 390.923 2.57434 -0.0923883 0
M  V30 4319 H 390.881 2.68668 1.63294 0
M  V30 4320 N 394.653 0.992116 1.22453 0
M  V30 4321 C 395.902 0.662992 1.90492 0
M  V30 4322 C 396.215 -0.808407 1.78113 0
M  V30 4323 O 397.421 -1.24908 2.41061 0
M  V30 4324 C 395.877 1.1353 3.41524 0
M  V30 4325 C 395.485 2.63187 3.62542 0
M  V30 4326 C 397.229 0.880465 4.15269 0
M  V30 4327 C 395.136 3.04024 5.0727 0
M  V30 4328 H 394.066 0.244278 0.713333 0
M  V30 4329 H 396.717 1.20157 1.38688 0
M  V30 4330 H 395.099 0.52485 3.92506 0
M  V30 4331 H 396.273 3.2957 3.22056 0
M  V30 4332 H 394.588 2.86543 3.02129 0
M  V30 4333 H 397.185 1.16128 5.21937 0
M  V30 4334 H 397.528 -0.183408 4.15896 0
M  V30 4335 H 398.061 1.45307 3.70312 0
M  V30 4336 H 394.8 4.09584 5.11782 0
M  V30 4337 H 394.32 2.42343 5.48662 0
M  V30 4338 H 395.999 2.95282 5.75689 0
M  V30 4339 N 396.131 -1.37776 0.765217 0
M  V30 4340 C 397.078 -2.30342 0.145274 0
M  V30 4341 C 398.048 -1.5077 -0.696971 0
M  V30 4342 O 399.233 -1.79362 -0.650689 0
M  V30 4343 C 396.373 -3.37227 -0.732939 0
M  V30 4344 C 395.486 -4.31819 0.125199 0
M  V30 4345 C 394.621 -5.25777 -0.757107 0
M  V30 4346 C 393.66 -6.12012 0.103963 0
M  V30 4347 N 392.797 -6.98232 -0.735953 0
M  V30 4348 H 397.637 -2.8278 0.940195 0
M  V30 4349 H 395.174 -1.39211 0.475255 0
M  V30 4350 H 397.132 -3.97818 -1.25686 0
M  V30 4351 H 395.762 -2.86171 -1.49353 0
M  V30 4352 H 394.814 -3.7259 0.766865 0
M  V30 4353 H 396.126 -4.92509 0.789683 0
M  V30 4354 H 395.28 -5.91541 -1.34776 0
M  V30 4355 H 394.019 -4.65481 -1.45529 0
M  V30 4356 H 393.024 -5.45233 0.707197 0
M  V30 4357 H 394.249 -6.74379 0.799381 0
M  V30 4358 H 392.195 -6.40472 -1.41887 0
M  V30 4359 H 392.112 -7.55891 -0.128624 0
M  V30 4360 H 393.38 -7.68393 -1.31121 0
M  V30 4361 N 397.609 -0.515225 -1.4894 0
M  V30 4362 C 398.519 0.259774 -2.33157 0
M  V30 4363 C 399.535 0.953501 -1.45548 0
M  V30 4364 O 400.711 0.931735 -1.78552 0
M  V30 4365 C 397.776 1.30193 -3.21326 0
M  V30 4366 C 396.837 0.620129 -4.24797 0
M  V30 4367 C 396.07 1.61263 -5.08753 0
M  V30 4368 O 396.293 2.84389 -4.94448 0
M  V30 4369 O 395.227 1.16013 -5.90614 0
M  V30 4370 H 399.053 -0.429932 -3.00641 0
M  V30 4371 H 396.638 -0.276346 -1.46822 0
M  V30 4372 H 398.52 1.90455 -3.75905 0
M  V30 4373 H 397.195 1.97431 -2.56521 0
M  V30 4374 H 396.102 -0.0226019 -3.74093 0
M  V30 4375 H 397.435 -0.0100493 -4.92199 0
M  V30 4376 N 399.087 1.5561 -0.249682 0
M  V30 4377 C 400.034 2.21496 0.648694 0
M  V30 4378 C 401.004 1.17977 1.16921 0
M  V30 4379 O 402.189 1.46434 1.22318 0
M  V30 4380 C 399.329 2.92039 1.83868 0
M  V30 4381 C 398.442 4.10219 1.35442 0
M  V30 4382 C 397.577 4.6847 2.50419 0
M  V30 4383 C 396.616 5.78893 1.98869 0
M  V30 4384 N 395.753 6.31315 3.07223 0
M  V30 4385 H 400.593 2.97892 0.0801582 0
M  V30 4386 H 398.13 1.47074 0.0278031 0
M  V30 4387 H 400.088 3.31138 2.53778 0
M  V30 4388 H 398.718 2.18111 2.37965 0
M  V30 4389 H 397.77 3.76413 0.54928 0
M  V30 4390 H 399.082 4.89927 0.936649 0
M  V30 4391 H 398.236 5.10158 3.28366 0
M  V30 4392 H 396.975 3.87984 2.95499 0
M  V30 4393 H 395.98 5.3668 1.19393 0
M  V30 4394 H 397.205 6.61232 1.54755 0
M  V30 4395 H 395.151 5.53733 3.51732 0
M  V30 4396 H 395.068 7.06224 2.69784 0
M  V30 4397 H 396.336 6.77662 3.8522 0
M  V30 4398 N 400.565 -0.0233959 1.57583 0
M  V30 4399 C 401.79 -0.728376 1.94189 0
M  V30 4400 C 402.215 -1.67793 0.850119 0
M  V30 4401 O 401.573 -1.80262 -0.19371 0
M  V30 4402 C 401.621 -1.45669 3.29868 0
M  V30 4403 O 400.725 -2.57013 3.22518 0
M  V30 4404 H 400.066 -0.195493 0.63457 0
M  V30 4405 H 402.596 0.0228214 2.04587 0
M  V30 4406 H 402.606 -1.82535 3.6489 0
M  V30 4407 H 401.281 -0.760314 4.08891 0
M  V30 4408 H 399.858 -2.22648 2.99136 0
M  V30 4409 N 402.043 -1.548 -0.295768 0
M  V30 4410 C 402.973 -1.89115 -1.36959 0
M  V30 4411 C 403.954 -0.75059 -1.52644 0
M  V30 4412 O 405.139 -1.00678 -1.66065 0
M  V30 4413 C 402.269 -2.14307 -2.73295 0
M  V30 4414 C 401.223 -3.30151 -2.72368 0
M  V30 4415 C 400.549 -3.40772 -4.12042 0
M  V30 4416 C 401.849 -4.67126 -2.33646 0
M  V30 4417 H 403.543 -2.79053 -1.08488 0
M  V30 4418 H 401.089 -1.34266 -0.520443 0
M  V30 4419 H 403.042 -2.36898 -3.48507 0
M  V30 4420 H 401.766 -1.21145 -3.03301 0
M  V30 4421 H 400.425 -3.0749 -1.99613 0
M  V30 4422 H 400.073 -2.45117 -4.39234 0
M  V30 4423 H 399.773 -4.18645 -4.12322 0
M  V30 4424 H 401.297 -3.6563 -4.89027 0
M  V30 4425 H 402.711 -4.89414 -2.98575 0
M  V30 4426 H 401.108 -5.47751 -2.45129 0
M  V30 4427 H 402.178 -4.67489 -1.28772 0
M  V30 4428 N 403.521 0.559213 -1.47345 0
M  V30 4429 C 404.769 1.31388 -1.53563 0
M  V30 4430 C 405.09 1.93985 -0.198678 0
M  V30 4431 O 404.36 1.79825 0.777167 0
M  V30 4432 H 402.94 0.487901 -0.565652 0
M  V30 4433 H 405.602 0.65315 -1.8363 0
M  V30 4434 H 404.698 2.10844 -2.30111 0
M  V30 4435 N 404.999 1.35443 0.805782 0
M  V30 4436 C 405.909 1.30546 1.94923 0
M  V30 4437 C 406.925 0.210233 1.72725 0
M  V30 4438 O 408.101 0.43975 1.9654 0
M  V30 4439 C 405.166 1.07782 3.29521 0
M  V30 4440 C 404.227 2.26625 3.64609 0
M  V30 4441 C 403.46 2.04938 4.92784 0
M  V30 4442 O 403.683 1.01624 5.61274 0
M  V30 4443 O 402.617 2.9232 5.26149 0
M  V30 4444 H 406.443 2.26779 2.02002 0
M  V30 4445 H 404.028 1.15823 0.943682 0
M  V30 4446 H 405.91 0.969392 4.10098 0
M  V30 4447 H 404.585 0.146003 3.23371 0
M  V30 4448 H 403.492 2.43033 2.84404 0
M  V30 4449 H 404.825 3.18257 3.75464 0
M  V30 4450 N 406.477 -1.02803 1.19454 0
M  V30 4451 C 407.407 -2.12999 0.956758 0
M  V30 4452 C 408.388 -1.69743 -0.110188 0
M  V30 4453 O 409.573 -1.94148 0.0450038 0
M  V30 4454 C 406.703 -3.43746 0.495553 0
M  V30 4455 C 405.657 -4.00688 1.50443 0
M  V30 4456 C 404.983 -5.27067 0.900275 0
M  V30 4457 C 406.283 -4.35397 2.8849 0
M  V30 4458 H 407.977 -2.33148 1.87836 0
M  V30 4459 H 405.523 -1.12045 0.904539 0
M  V30 4460 H 407.476 -4.2021 0.316493 0
M  V30 4461 H 406.2 -3.23321 -0.461646 0
M  V30 4462 H 404.859 -3.2632 1.67065 0
M  V30 4463 H 404.507 -5.02959 -0.064503 0
M  V30 4464 H 404.207 -5.66127 1.57397 0
M  V30 4465 H 405.731 -6.06196 0.73203 0
M  V30 4466 H 407.145 -5.02795 2.75446 0
M  V30 4467 H 405.542 -4.85541 3.52661 0
M  V30 4468 H 406.612 -3.44662 3.41081 0
M  V30 4469 N 407.956 -0.998596 -1.21925 0
M  V30 4470 C 409.205 -0.673085 -1.90138 0
M  V30 4471 C 409.518 0.79895 -1.78539 0
M  V30 4472 O 410.724 1.23628 -2.4172 0
M  V30 4473 C 409.18 -1.15339 -3.40918 0
M  V30 4474 C 408.788 -2.65106 -3.61141 0
M  V30 4475 C 410.532 -0.902476 -4.14796 0
M  V30 4476 C 408.439 -3.0671 -5.05651 0
M  V30 4477 H 407.369 -0.248057 -0.712028 0
M  V30 4478 H 410.02 -1.20891 -1.38049 0
M  V30 4479 H 408.402 -0.545658 -3.92223 0
M  V30 4480 H 409.576 -3.31274 -3.20304 0
M  V30 4481 H 407.891 -2.88142 -3.00605 0
M  V30 4482 H 410.488 -1.18895 -5.21314 0
M  V30 4483 H 410.831 0.161349 -4.15987 0
M  V30 4484 H 411.364 -1.47269 -3.69536 0
M  V30 4485 H 408.103 -4.12292 -5.09603 0
M  V30 4486 H 407.623 -2.45249 -5.47369 0
M  V30 4487 H 409.302 -2.9833 -5.74115 0
M  V30 4488 N 409.434 1.37368 -0.772513 0
M  V30 4489 C 410.382 2.32134 -0.147111 0
M  V30 4490 C 411.376 1.54972 0.684106 0
M  V30 4491 O 412.582 1.70363 0.581083 0
M  V30 4492 H 408.957 0.751449 -0.028786 0
M  V30 4493 H 410.928 2.82464 -0.962112 0
M  V30 4494 C 409.677 3.40226 0.71703 0
M  V30 4495 H 409 3.99706 0.0867951 0
M  V30 4496 H 410.44 4.08897 1.12159 0
M  V30 4497 C 408.899 2.80372 1.86797 0
M  V30 4498 O 409.429 2.71183 2.96349 0
M  V30 4499 N 407.635 2.37904 1.66883 0
M  V30 4500 H 407.182 2.45578 0.777759 0
M  V30 4501 H 407.14 1.98202 2.44056 0
M  V30 4502 N 410.912 0.523116 1.48665 0
M  V30 4503 C 412.161 -0.01544 2.01694 0
M  V30 4504 C 412.474 -1.35975 1.40606 0
M  V30 4505 O 413.68 -1.98627 1.85093 0
M  V30 4506 C 412.136 -0.0779303 3.59816 0
M  V30 4507 C 411.744 1.26107 4.29885 0
M  V30 4508 C 413.488 -0.565678 4.20714 0
M  V30 4509 C 411.395 1.15954 5.79921 0
M  V30 4510 H 410.325 -0.00954163 0.75394 0
M  V30 4511 H 412.976 0.665865 1.70993 0
M  V30 4512 H 411.358 -0.824165 3.87329 0
M  V30 4513 H 412.532 2.02233 4.14051 0
M  V30 4514 H 410.847 1.68401 3.80828 0
M  V30 4515 H 413.444 -0.6595 5.30617 0
M  V30 4516 H 413.787 -1.56984 3.85567 0
M  V30 4517 H 414.32 0.12467 3.97605 0
M  V30 4518 H 411.059 2.13864 6.19631 0
M  V30 4519 H 410.579 0.439529 5.98187 0
M  V30 4520 H 412.258 0.847361 6.41427 0
M  V30 4521 N 412.39 -1.55475 0.257931 0
M  V30 4522 C 413.63 -2.01112 -0.365129 0
M  V30 4523 C 413.994 -1.1423 -1.54323 0
M  V30 4524 O 415.195 -1.49371 -2.23477 0
M  V30 4525 C 413.466 -3.49353 -0.754117 0
M  V30 4526 S 415.025 -4.16992 -1.36614 0
M  V30 4527 H 411.843 -0.701737 -0.114397 0
M  V30 4528 H 414.445 -1.91855 0.375747 0
M  V30 4529 H 413.149 -4.10246 0.112441 0
M  V30 4530 H 412.68 -3.6256 -1.52689 0
M  V30 4531 H 414.695 -4.19191 -2.65505 0
M  V30 4532 N 413.868 0.0150385 -1.57593 0
M  V30 4533 C 415.093 0.718067 -1.94573 0
M  V30 4534 C 415.518 1.6734 -0.859005 0
M  V30 4535 O 414.876 1.80362 0.184147 0
M  V30 4536 C 414.924 1.43918 -3.30636 0
M  V30 4537 O 414.028 2.55299 -3.23876 0
M  V30 4538 H 413.369 0.192125 -0.635597 0
M  V30 4539 H 415.899 -0.0336708 -2.04572 0
M  V30 4540 H 415.909 1.80598 -3.65853 0
M  V30 4541 H 414.584 0.738619 -4.09289 0
M  V30 4542 H 413.161 2.21058 -3.00312 0
M  V30 4543 N 415.346 1.54954 0.287554 0
M  V30 4544 C 416.294 1.87606 1.37502 0
M  V30 4545 C 417.288 0.751001 1.51843 0
M  V30 4546 O 418.494 0.935169 1.53801 0
M  V30 4547 H 414.869 0.595231 0.459569 0
M  V30 4548 H 416.84 2.78477 1.07206 0
M  V30 4549 C 415.589 2.15183 2.73115 0
M  V30 4550 H 414.912 3.01234 2.62866 0
M  V30 4551 H 416.352 2.4196 3.48183 0
M  V30 4552 C 414.811 0.954686 3.2309 0
M  V30 4553 O 415.341 0.181949 4.01288 0
M  V30 4554 N 413.547 0.756368 2.80584 0
M  V30 4555 H 413.094 1.38643 2.17108 0
M  V30 4556 H 413.052 -0.0430391 3.14371 0
M  V30 4557 N 416.824 -0.551391 1.4764 0
M  V30 4558 C 418.101 -1.31229 1.45046 0
M  V30 4559 C 418.481 -2.10563 0.150527 0
M  V30 4560 O 417.829 -2.11374 -0.867956 0
M  V30 4561 C 418.039 -2.21189 2.69956 0
M  V30 4562 C 419.387 -2.82021 3.1741 0
M  V30 4563 O 420.411 -2.31488 2.70724 0
M  V30 4564 O 419.27 -3.73885 3.98588 0
M  V30 4565 H 416.364 -0.591193 0.578291 0
M  V30 4566 H 418.91 -0.569813 1.59847 0
M  V30 4567 H 417.682 -1.62207 3.56096 0
M  V30 4568 H 417.305 -3.02722 2.57769 0
M  V30 4569 N 418.302 -1.35869 -0.798587 0
M  V30 4570 C 419.55 -1.29332 -1.55298 0
M  V30 4571 C 419.871 0.129729 -1.94568 0
M  V30 4572 O 419.141 1.06796 -1.6423 0
M  V30 4573 H 417.721 -0.475737 -0.57592 0
M  V30 4574 H 420.383 -1.70062 -0.952093 0
M  V30 4575 H 419.479 -1.91458 -2.46476 0
M  V30 4576 N 419.78 1.02168 -1.19998 0
M  V30 4577 C 420.712 2.10705 -0.901994 0
M  V30 4578 C 421.725 1.6244 0.108216 0
M  V30 4579 O 422.914 1.78082 -0.12214 0
M  V30 4580 C 420.014 3.37291 -0.329834 0
M  V30 4581 C 419.187 4.14714 -1.39035 0
M  V30 4582 C 418.246 5.19606 -0.830432 0
M  V30 4583 O 417.272 5.48809 -1.50989 0
M  V30 4584 N 418.474 5.79366 0.362696 0
M  V30 4585 H 421.239 2.36856 -1.83628 0
M  V30 4586 H 418.8 1.18518 -1.10296 0
M  V30 4587 H 420.792 4.04657 0.0587633 0
M  V30 4588 H 419.362 3.0843 0.508891 0
M  V30 4589 H 418.582 3.42392 -1.9535 0
M  V30 4590 H 419.87 4.63226 -2.10474 0
M  V30 4591 H 419.268 5.57968 0.932081 0
M  V30 4592 H 417.825 6.48106 0.69299 0
M  V30 4593 N 421.258 1.00505 1.21394 0
M  V30 4594 C 422.674 0.717873 1.42544 0
M  V30 4595 C 422.874 -0.706936 1.88692 0
M  V30 4596 O 421.93 -1.47627 2.04847 0
M  V30 4597 C 423.243 1.73377 2.45684 0
M  V30 4598 C 424.791 1.75059 2.59467 0
M  V30 4599 C 425.266 2.75545 3.6584 0
M  V30 4600 N 426.757 2.74213 3.73311 0
M  V30 4601 C 427.492 3.48626 4.55245 0
M  V30 4602 N 426.988 4.32678 5.41075 0
M  V30 4603 N 428.781 3.37276 4.49668 0
M  V30 4604 H 420.932 1.92506 0.897503 0
M  V30 4605 H 423.195 0.830919 0.456375 0
M  V30 4606 H 422.901 2.75395 2.18748 0
M  V30 4607 H 422.775 1.53647 3.44489 0
M  V30 4608 H 425.162 0.737337 2.8574 0
M  V30 4609 H 425.243 1.98861 1.60897 0
M  V30 4610 H 424.887 3.77028 3.40313 0
M  V30 4611 H 424.817 2.49009 4.64007 0
M  V30 4612 H 427.308 2.13234 3.11993 0
M  V30 4613 H 427.621 4.86253 6.00648 0
M  V30 4614 H 425.966 4.3676 5.40616 0
M  V30 4615 H 429.157 2.71043 3.81646 0
M  V30 4616 H 429.33 3.95524 5.13288 0
M  V30 4617 N 422.737 -1.36956 0.779787 0
M  V30 4618 C 423.67 -2.27896 0.117681 0
M  V30 4619 C 424.648 -1.46736 -0.700523 0
M  V30 4620 O 425.832 -1.76055 -0.673568 0
M  V30 4621 C 422.959 -3.28136 -0.839296 0
M  V30 4622 C 422.005 -4.26373 -0.10409 0
M  V30 4623 S 422.838 -5.2157 1.21348 0
M  V30 4624 C 423.994 -6.25359 0.260249 0
M  V30 4625 H 424.227 -2.83704 0.888778 0
M  V30 4626 H 421.76 -1.43352 0.57355 0
M  V30 4627 H 423.718 -3.86394 -1.38601 0
M  V30 4628 H 422.379 -2.7126 -1.58356 0
M  V30 4629 H 421.572 -4.97121 -0.82986 0
M  V30 4630 H 421.174 -3.72147 0.371858 0
M  V30 4631 H 423.466 -6.75145 -0.564435 0
M  V30 4632 H 424.409 -7.01885 0.936135 0
M  V30 4633 H 424.817 -5.64345 -0.132127 0
M  V30 4634 N 424.215 -0.530993 -1.48385 0
M  V30 4635 C 425.462 0.0027373 -2.025 0
M  V30 4636 C 425.79 1.34186 -1.40799 0
M  V30 4637 O 425.045 1.88 -0.543544 0
M  V30 4638 C 425.344 0.172742 -3.56982 0
M  V30 4639 C 425.01 -1.09215 -4.37473 0
M  V30 4640 C 423.672 -1.43881 -4.59186 0
M  V30 4641 C 426.024 -1.93153 -4.84088 0
M  V30 4642 C 423.352 -2.62381 -5.2476 0
M  V30 4643 C 425.704 -3.10833 -5.50968 0
M  V30 4644 C 424.368 -3.45843 -5.70919 0
M  V30 4645 H 423.638 0.00100165 -0.740999 0
M  V30 4646 H 426.285 -0.697219 -1.78357 0
M  V30 4647 H 424.59 0.955473 -3.79971 0
M  V30 4648 H 426.287 0.600642 -3.96476 0
M  V30 4649 H 422.877 -0.812177 -4.20834 0
M  V30 4650 H 427.061 -1.67683 -4.67115 0
M  V30 4651 H 422.317 -2.89707 -5.38405 0
M  V30 4652 H 426.491 -3.7618 -5.86056 0
M  V30 4653 H 424.118 -4.37764 -6.21503 0
M  V30 4654 N 425.693 1.55336 -0.266172 0
M  V30 4655 C 426.603 2.2583 0.635458 0
M  V30 4656 C 427.619 1.28106 1.17749 0
M  V30 4657 O 428.795 1.61024 1.20968 0
M  V30 4658 C 425.86 2.95879 1.80712 0
M  V30 4659 C 424.921 4.09059 1.30265 0
M  V30 4660 C 424.154 4.75759 2.41846 0
M  V30 4661 O 424.377 4.41622 3.61007 0
M  V30 4662 O 423.311 5.63888 2.1051 0
M  V30 4663 H 427.137 3.03631 0.0646693 0
M  V30 4664 H 424.722 1.49361 -0.0339177 0
M  V30 4665 H 426.604 3.39932 2.49047 0
M  V30 4666 H 425.279 2.21002 2.36516 0
M  V30 4667 H 424.186 3.69482 0.586019 0
M  V30 4668 H 425.519 4.85811 0.790458 0
M  V30 4669 N 427.171 -0.0066808 1.57599 0
M  V30 4670 C 428.134 -0.985035 2.06953 0
M  V30 4671 C 429.134 -1.27663 0.977687 0
M  V30 4672 O 430.324 -1.22293 1.24057 0
M  V30 4673 C 427.456 -2.3118 2.50536 0
M  V30 4674 H 428.649 -0.558255 2.94658 0
M  V30 4675 H 426.202 -0.254011 1.54222 0
M  V30 4676 H 426.937 -2.78561 1.66054 0
M  V30 4677 H 426.722 -2.11338 3.3027 0
M  V30 4678 H 428.212 -3.01377 2.8907 0
M  V30 4679 N 428.649 -1.55105 -0.279332 0
M  V30 4680 C 429.612 -1.86783 -1.32834 0
M  V30 4681 C 430.612 -0.74199 -1.42657 0
M  V30 4682 O 431.802 -1.0102 -1.41918 0
M  V30 4683 C 428.934 -2.06746 -2.71052 0
M  V30 4684 H 430.127 -2.8055 -1.05979 0
M  V30 4685 H 427.68 -1.47499 -0.517087 0
M  V30 4686 H 428.415 -1.15339 -3.03097 0
M  V30 4687 H 428.2 -2.88711 -2.65309 0
M  V30 4688 H 429.69 -2.32549 -3.46858 0
M  V30 4689 N 430.127 0.543554 -1.4793 0
M  V30 4690 C 431.09 1.63156 -1.60975 0
M  V30 4691 C 432.09 1.53346 -0.483899 0
M  V30 4692 O 433.28 1.5726 -0.749339 0
M  V30 4693 C 430.412 3.02743 -1.56716 0
M  V30 4694 H 431.605 1.52934 -2.57975 0
M  V30 4695 H 429.158 0.764557 -1.36324 0
M  V30 4696 H 429.893 3.18484 -0.611418 0
M  V30 4697 H 429.678 3.11272 -2.38438 0
M  V30 4698 H 431.168 3.81871 -1.6901 0
M  V30 4699 N 431.605 1.3629 0.791371 0
M  V30 4700 C 432.851 1.30605 1.55146 0
M  V30 4701 C 433.184 -0.115042 1.93859 0
M  V30 4702 O 432.459 -1.06798 1.62556 0
M  V30 4703 C 432.742 2.22692 2.82985 0
M  V30 4704 C 432.595 3.73489 2.50651 0
M  V30 4705 C 433.914 2.13588 3.84796 0
M  V30 4706 H 431.033 0.475761 0.562868 0
M  V30 4707 H 433.675 1.66825 0.909358 0
M  V30 4708 H 431.825 1.91933 3.37778 0
M  V30 4709 H 433.497 4.14758 2.01924 0
M  V30 4710 H 431.74 3.93021 1.83622 0
M  V30 4711 H 432.411 4.3333 3.41949 0
M  V30 4712 H 434.887 2.40659 3.39445 0
M  V30 4713 H 433.763 2.80195 4.71998 0
M  V30 4714 H 434.024 1.12256 4.27611 0
M  V30 4715 N 433.083 -1.0153 1.20538 0
M  V30 4716 C 434.331 -1.74803 1.01432 0
M  V30 4717 C 434.652 -1.8963 -0.454456 0
M  V30 4718 O 433.922 -1.43975 -1.32846 0
M  V30 4719 H 432.502 -0.647598 0.372324 0
M  V30 4720 H 435.164 -1.22402 1.5167 0
M  V30 4721 H 434.26 -2.75114 1.47373 0
M  V30 4722 N 434.561 -1.01147 -1.20859 0
M  V30 4723 C 435.786 -0.716698 -1.94623 0
M  V30 4724 C 436.211 0.715415 -1.73964 0
M  V30 4725 O 435.569 1.49157 -1.03062 0
M  V30 4726 C 435.617 -1.0513 -3.44935 0
M  V30 4727 O 434.721 -0.160131 -4.12089 0
M  V30 4728 H 434.062 -0.266404 -0.608214 0
M  V30 4729 H 436.592 -1.35346 -1.53436 0
M  V30 4730 H 436.602 -1.00086 -3.95533 0
M  V30 4731 H 435.277 -2.09475 -3.59295 0
M  V30 4732 H 433.854 -0.267657 -3.71938 0
M  V30 4733 N 436.039 1.36541 -0.78704 0
M  V30 4734 C 436.969 2.32659 -0.197992 0
M  V30 4735 C 437.95 1.56533 0.665697 0
M  V30 4736 O 439.135 1.84698 0.60001 0
M  V30 4737 C 436.265 3.40778 0.669901 0
M  V30 4738 C 435.219 4.27897 -0.0937039 0
M  V30 4739 C 434.545 5.27163 0.894629 0
M  V30 4740 C 435.845 5.06334 -1.28154 0
M  V30 4741 H 437.539 2.82171 -1.00099 0
M  V30 4742 H 435.085 1.35665 -0.482793 0
M  V30 4743 H 437.038 4.07008 1.09191 0
M  V30 4744 H 435.762 2.89827 1.50558 0
M  V30 4745 H 434.421 3.6322 -0.49666 0
M  V30 4746 H 434.069 4.72486 1.72527 0
M  V30 4747 H 433.769 5.86317 0.388149 0
M  V30 4748 H 435.293 5.96266 1.31525 0
M  V30 4749 H 436.707 5.65617 -0.93541 0
M  V30 4750 H 435.104 5.74888 -1.72115 0
M  V30 4751 H 436.174 4.38114 -2.07807 0
M  V30 4752 N 437.518 0.538854 1.48102 0
M  V30 4753 C 438.448 -0.207654 2.32575 0
M  V30 4754 C 439.429 -0.926559 1.4265 0
M  V30 4755 O 440.614 -0.91061 1.71527 0
M  V30 4756 C 437.744 -1.24957 3.24042 0
M  V30 4757 C 436.698 -0.648263 4.23062 0
M  V30 4758 C 436.024 -1.79348 5.03725 0
M  V30 4759 C 437.324 0.385897 5.20872 0
M  V30 4760 H 439.018 0.497534 2.95237 0
M  V30 4761 H 436.564 0.240715 1.41974 0
M  V30 4762 H 438.517 -1.77983 3.81969 0
M  V30 4763 H 437.241 -1.98446 2.59397 0
M  V30 4764 H 435.9 -0.139452 3.66335 0
M  V30 4765 H 435.548 -2.51696 4.35498 0
M  V30 4766 H 435.248 -1.39702 5.70751 0
M  V30 4767 H 436.772 -2.32735 5.64506 0
M  V30 4768 H 438.186 -0.057607 5.73271 0
M  V30 4769 H 436.583 0.700227 5.96001 0
M  V30 4770 H 437.653 1.28848 4.67468 0
M  V30 4771 N 438.996 -1.55193 0.274407 0
M  V30 4772 C 439.959 -2.212 -0.600279 0
M  V30 4773 C 440.959 -1.18963 -1.08187 0
M  V30 4774 O 442.149 -1.43873 -0.982158 0
M  V30 4775 C 439.281 -2.87739 -1.82809 0
M  V30 4776 H 440.474 -2.9989 -0.0239682 0
M  V30 4777 H 438.027 -1.5628 0.0250192 0
M  V30 4778 H 438.762 -2.13058 -2.44493 0
M  V30 4779 H 438.547 -3.62658 -1.49069 0
M  V30 4780 H 440.037 -3.38171 -2.45011 0
M  V30 4781 N 440.474 -0.00167713 -1.576 0
M  V30 4782 C 441.722 0.681471 -1.90264 0
M  V30 4783 C 442.043 1.7422 -0.875924 0
M  V30 4784 O 441.313 1.95709 0.0864412 0
M  V30 4785 H 439.893 0.254696 -0.702239 0
M  V30 4786 H 442.555 -0.0429996 -1.94853 0
M  V30 4787 H 441.651 1.15166 -2.90075 0
M  V30 4788 N 441.952 1.55251 0.271103 0
M  V30 4789 C 443.2 1.75599 1.00047 0
M  V30 4790 C 443.521 0.561188 1.8675 0
M  V30 4791 O 442.791 -0.423846 1.9126 0
M  V30 4792 H 441.371 0.647562 0.372387 0
M  V30 4793 H 444.033 1.92656 0.294876 0
M  V30 4794 H 443.129 2.65766 1.6363 0
M  V30 4795 N 443.43 -0.535701 1.48216 0
M  V30 4796 C 444.841 -1.11769 1.49548 0
M  V30 4797 C 445.192 -1.94442 0.26207 0
M  V30 4798 O 444.317 -2.06987 -0.631287 0
M  V30 4799 C 444.912 -2.03367 2.70975 0
M  V30 4800 C 443.471 -2.56795 2.75196 0
M  V30 4801 C 442.618 -1.33631 2.42977 0
M  V30 4802 H 445.569 -0.321232 1.55415 0
M  V30 4803 H 445.59 -2.87569 2.49167 0
M  V30 4804 H 445.102 -1.43169 3.60727 0
M  V30 4805 H 443.203 -3.20731 1.89638 0
M  V30 4806 H 443.316 -2.9632 3.76472 0
M  V30 4807 H 441.68 -1.6502 1.94012 0
M  V30 4808 H 442.463 -0.75194 3.34964 0
M  V30 4809 N 444.908 -1.36708 -0.784132 0
M  V30 4810 C 446.154 -1.31426 -1.54451 0
M  V30 4811 C 446.487 0.10476 -1.93917 0
M  V30 4812 O 445.762 1.05934 -1.6312 0
M  V30 4813 C 446.045 -2.24189 -2.818 0
M  V30 4814 C 445.898 -3.74813 -2.48667 0
M  V30 4815 C 447.217 -2.15626 -3.83658 0
M  V30 4816 H 444.336 -0.478739 -0.560337 0
M  V30 4817 H 446.978 -1.67305 -0.900498 0
M  V30 4818 H 445.128 -1.93722 -3.36755 0
M  V30 4819 H 446.8 -4.15823 -1.99722 0
M  V30 4820 H 445.043 -3.93989 -1.81535 0
M  V30 4821 H 445.714 -4.35138 -3.39646 0
M  V30 4822 H 448.19 -2.42456 -3.38163 0
M  V30 4823 H 447.066 -2.82694 -4.70506 0
M  V30 4824 H 447.327 -1.14522 -4.27009 0
M  V30 4825 N 446.386 1.0089 -1.21074 0
M  V30 4826 C 447.632 1.74866 -1.02712 0
M  V30 4827 C 447.965 1.89178 0.438787 0
M  V30 4828 O 447.24 1.42325 1.32567 0
M  V30 4829 C 447.523 3.16347 -1.72036 0
M  V30 4830 C 447.376 3.09782 -3.26121 0
M  V30 4831 C 448.695 4.15187 -1.45973 0
M  V30 4832 H 445.814 0.634736 -0.374539 0
M  V30 4833 H 448.456 1.17646 -1.49196 0
M  V30 4834 H 446.606 3.65201 -1.32517 0
M  V30 4835 H 448.278 2.68673 -3.74983 0
M  V30 4836 H 446.521 2.46982 -3.56626 0
M  V30 4837 H 447.192 4.09829 -3.6979 0
M  V30 4838 H 449.668 3.75022 -1.80272 0
M  V30 4839 H 448.544 5.12331 -1.96999 0
M  V30 4840 H 448.805 4.40386 -0.388924 0
M  V30 4841 N 447.864 1.01787 1.20321 0
M  V30 4842 C 448.827 0.593972 2.2137 0
M  V30 4843 C 449.827 -0.336553 1.57239 0
M  V30 4844 O 451.017 -0.125069 1.7375 0
M  V30 4845 C 448.149 -0.132433 3.40643 0
M  V30 4846 H 449.342 1.48791 2.60387 0
M  V30 4847 H 446.895 0.807803 1.33807 0
M  V30 4848 H 447.63 -1.04123 3.0713 0
M  V30 4849 H 447.415 0.53605 3.88418 0
M  V30 4850 H 448.905 -0.416314 4.1552 0
M  V30 4851 N 449.342 -1.36122 0.79427 0
M  V30 4852 C 450.591 -1.98361 0.365464 0
M  V30 4853 C 450.904 -1.6374 -1.06997 0
M  V30 4854 O 452.11 -2.19251 -1.60129 0
M  V30 4855 C 450.566 -3.54821 0.602496 0
M  V30 4856 C 450.174 -3.98362 2.04967 0
M  V30 4857 C 451.918 -4.2383 0.238437 0
M  V30 4858 C 449.825 -5.47619 2.2331 0
M  V30 4859 H 448.755 -0.742193 0.13291 0
M  V30 4860 H 451.406 -1.55354 0.976589 0
M  V30 4861 H 449.788 -3.95922 -0.078409 0
M  V30 4862 H 450.962 -3.68447 2.76737 0
M  V30 4863 H 449.277 -3.42206 2.37243 0
M  V30 4864 H 451.874 -5.33529 0.353705 0
M  V30 4865 H 452.217 -4.08264 -0.814006 0
M  V30 4866 H 452.75 -3.88108 0.872769 0
M  V30 4867 H 449.489 -5.68138 3.26955 0
M  V30 4868 H 449.009 -5.79145 1.5605 0
M  V30 4869 H 450.688 -6.13911 2.0426 0
M  V30 4870 N 450.82 -0.546701 -1.47814 0
M  V30 4871 C 451.75 0.195317 -2.32682 0
M  V30 4872 C 452.731 0.918981 -1.43139 0
M  V30 4873 O 453.916 0.901501 -1.72008 0
M  V30 4874 C 451.046 1.23237 -3.247 0
M  V30 4875 C 450 0.625818 -4.234 0
M  V30 4876 C 449.326 1.76674 -5.04669 0
M  V30 4877 C 450.626 -0.413515 -5.2066 0
M  V30 4878 H 452.32 -0.513184 -2.94969 0
M  V30 4879 H 449.866 -0.248241 -1.41844 0
M  V30 4880 H 451.819 1.75955 -3.82907 0
M  V30 4881 H 450.543 1.97067 -2.60446 0
M  V30 4882 H 449.202 0.120023 -3.66403 0
M  V30 4883 H 448.85 2.49383 -4.36826 0
M  V30 4884 H 448.55 1.36673 -5.71484 0
M  V30 4885 H 450.074 2.29738 -5.65732 0
M  V30 4886 H 451.488 0.0272042 -5.73294 0
M  V30 4887 H 449.885 -0.731825 -5.95621 0
M  V30 4888 H 450.955 -1.31325 -4.66778 0
M  V30 4889 N 452.299 1.55045 -0.282633 0
M  V30 4890 C 453.547 1.99365 0.331334 0
M  V30 4891 C 453.868 1.1725 1.55812 0
M  V30 4892 O 453.138 0.263871 1.94115 0
M  V30 4893 H 451.718 0.736397 0.125414 0
M  V30 4894 H 454.38 1.90964 -0.389711 0
M  V30 4895 H 453.476 3.0596 0.616036 0
M  V30 4896 N 453.777 0.010035 1.57597 0
M  V30 4897 C 454.71 -1.01234 2.04516 0
M  V30 4898 C 455.688 -1.32886 0.937024 0
M  V30 4899 O 456.872 -1.44879 1.20592 0
M  V30 4900 C 453.999 -2.33738 2.45121 0
M  V30 4901 C 453.045 -2.17679 3.66767 0
M  V30 4902 S 453.878 -1.49343 5.14254 0
M  V30 4903 C 455.034 -2.83256 5.58137 0
M  V30 4904 H 455.267 -0.612866 2.90914 0
M  V30 4905 H 452.8 -0.201124 1.53084 0
M  V30 4906 H 454.758 -3.09922 2.69182 0
M  V30 4907 H 453.419 -2.70823 1.59103 0
M  V30 4908 H 452.612 -3.1559 3.92962 0
M  V30 4909 H 452.214 -1.4964 3.42759 0
M  V30 4910 H 454.506 -3.79538 5.6121 0
M  V30 4911 H 455.449 -2.61749 6.57946 0
M  V30 4912 H 455.857 -2.87627 4.85727 0
M  V30 4913 N 455.255 -1.55392 -0.262866 0
M  V30 4914 C 456.504 -1.75679 -0.990943 0
M  V30 4915 C 456.817 -0.57097 -1.87081 0
M  V30 4916 O 458.023 -0.656486 -2.63444 0
M  V30 4917 C 456.479 -3.10964 -1.81188 0
M  V30 4918 C 456.087 -4.37146 -0.980188 0
M  V30 4919 C 457.831 -3.40597 -2.53365 0
M  V30 4920 C 455.738 -5.63466 -1.7961 0
M  V30 4921 H 454.668 -0.654868 -0.373716 0
M  V30 4922 H 457.319 -1.81841 -0.246203 0
M  V30 4923 H 455.701 -2.98867 -2.59797 0
M  V30 4924 H 456.875 -4.60187 -0.237558 0
M  V30 4925 H 455.19 -4.14731 -0.372497 0
M  V30 4926 H 457.787 -4.32186 -3.14833 0
M  V30 4927 H 458.13 -2.6119 -3.24169 0
M  V30 4928 H 458.663 -3.53838 -1.81779 0
M  V30 4929 H 455.402 -6.4565 -1.13209 0
M  V30 4930 H 454.922 -5.44552 -2.51443 0
M  V30 4931 H 456.601 -6.02139 -2.36723 0
M  V30 4932 N 456.733 0.527833 -1.48498 0
M  V30 4933 C 457.963 1.30633 -1.60058 0
M  V30 4934 C 458.371 1.87394 -0.260786 0
M  V30 4935 O 457.714 1.67227 0.760317 0
M  V30 4936 C 457.776 2.49361 -2.58958 0
M  V30 4937 C 457.44 2.13671 -4.03972 0
M  V30 4938 C 458.437 1.69217 -4.91591 0
M  V30 4939 C 456.122 2.24129 -4.49524 0
M  V30 4940 C 458.116 1.35689 -6.2279 0
M  V30 4941 C 455.803 1.90212 -5.80743 0
M  V30 4942 C 456.801 1.46063 -6.67199 0
M  V30 4943 O 456.489 1.12593 -7.95976 0
M  V30 4944 H 456.221 0.403444 -0.54241 0
M  V30 4945 H 458.775 0.643233 -1.95068 0
M  V30 4946 H 457.005 3.18659 -2.19073 0
M  V30 4947 H 458.694 3.11421 -2.6033 0
M  V30 4948 H 459.46 1.60607 -4.57636 0
M  V30 4949 H 455.339 2.57447 -3.82416 0
M  V30 4950 H 458.883 1.01157 -6.90227 0
M  V30 4951 H 454.78 1.98464 -6.14233 0
M  V30 4952 H 455.548 1.25972 -8.08748 0
M  V30 4953 N 458.211 1.37122 0.776871 0
M  V30 4954 C 459.159 1.32549 1.91138 0
M  V30 4955 C 460.153 0.215119 1.68029 0
M  V30 4956 O 461.359 0.382852 1.75881 0
M  V30 4957 H 457.734 0.412952 0.62847 0
M  V30 4958 H 459.705 2.28332 1.92112 0
M  V30 4959 C 458.454 1.14422 3.28333 0
M  V30 4960 H 457.777 1.99115 3.46689 0
M  V30 4961 H 459.217 1.15272 4.0803 0
M  V30 4962 C 457.676 -0.150434 3.36564 0
M  V30 4963 O 458.206 -1.13584 3.85307 0
M  V30 4964 N 456.412 -0.19939 2.89915 0
M  V30 4965 H 455.959 0.603142 2.5044 0
M  V30 4966 H 455.917 -1.06526 2.95803 0
M  V30 4967 N 459.689 -1.00246 1.21608 0
M  V30 4968 C 460.935 -1.74319 1.03638 0
M  V30 4969 C 461.268 -1.89408 -0.428749 0
M  V30 4970 O 460.543 -1.43026 -1.3181 0
M  V30 4971 C 460.826 -3.15431 1.73711 0
M  V30 4972 C 460.679 -3.08049 3.27759 0
M  V30 4973 C 461.998 -4.14407 1.48173 0
M  V30 4974 H 459.117 -0.632741 0.377899 0
M  V30 4975 H 461.759 -1.16853 1.49818 0
M  V30 4976 H 459.909 -3.64493 1.34452 0
M  V30 4977 H 461.581 -2.66681 3.76403 0
M  V30 4978 H 459.824 -2.45088 3.57931 0
M  V30 4979 H 460.495 -4.07862 3.71958 0
M  V30 4980 H 462.971 -3.74061 1.82258 0
M  V30 4981 H 461.847 -5.11279 1.99713 0
M  V30 4982 H 462.108 -4.40174 0.412273 0
M  V30 4983 N 461.167 -1.02423 -1.1978 0
M  V30 4984 C 462.416 -0.713265 -1.88667 0
M  V30 4985 C 462.729 0.7609 -1.80193 0
M  V30 4986 O 463.935 1.18473 -2.44288 0
M  V30 4987 C 462.391 -1.22545 -3.38394 0
M  V30 4988 C 461.999 -2.72706 -3.55437 0
M  V30 4989 C 463.743 -0.990257 -4.12788 0
M  V30 4990 C 461.65 -3.17367 -4.99031 0
M  V30 4991 H 460.58 -0.263105 -0.706606 0
M  V30 4992 H 463.231 -1.23792 -1.35454 0
M  V30 4993 H 461.613 -0.628732 -3.90977 0
M  V30 4994 H 462.787 -3.37993 -3.13205 0
M  V30 4995 H 461.102 -2.94453 -2.94425 0
M  V30 4996 H 463.699 -1.29926 -5.18675 0
M  V30 4997 H 464.042 0.0730761 -4.16236 0
M  V30 4998 H 464.575 -1.55074 -3.66329 0
M  V30 4999 H 461.314 -4.23009 -5.00743 0
M  V30 5000 H 460.834 -2.56805 -5.42044 0
M  V30 5001 H 462.513 -3.10441 -5.67658 0
M  V30 5002 N 462.645 1.35699 -0.801477 0
M  V30 5003 C 463.894 1.98165 -0.375979 0
M  V30 5004 C 464.207 1.64306 1.06127 0
M  V30 5005 O 465.413 2.20097 1.58964 0
M  V30 5006 C 463.869 3.54497 -0.621305 0
M  V30 5007 C 463.477 3.9727 -2.07076 0
M  V30 5008 C 465.221 4.23697 -0.26091 0
M  V30 5009 C 463.128 5.46427 -2.26211 0
M  V30 5010 H 462.058 0.741478 -0.136844 0
M  V30 5011 H 464.709 1.54834 -0.984814 0
M  V30 5012 H 463.091 3.95958 0.0574112 0
M  V30 5013 H 464.265 3.66974 -2.78687 0
M  V30 5014 H 462.58 3.40943 -2.39054 0
M  V30 5015 H 465.177 5.33334 -0.381994 0
M  V30 5016 H 465.52 4.0869 0.792344 0
M  V30 5017 H 466.053 3.87639 -0.893339 0
M  V30 5018 H 462.792 5.66396 -3.29963 0
M  V30 5019 H 462.312 5.78309 -1.59119 0
M  V30 5020 H 463.991 6.12819 -2.07513 0
M  V30 5021 N 464.123 0.554532 1.47522 0
M  V30 5022 C 465.053 -0.182974 2.32782 0
M  V30 5023 C 466.034 -0.911377 1.43624 0
M  V30 5024 O 467.219 -0.892366 1.72483 0
M  V30 5025 C 464.349 -1.21513 3.25349 0
M  V30 5026 C 463.303 -0.603355 4.23726 0
M  V30 5027 C 462.629 -1.73995 5.05598 0
M  V30 5028 C 463.929 0.441121 5.20434 0
M  V30 5029 H 465.623 0.52882 2.94693 0
M  V30 5030 H 463.169 0.255759 1.41711 0
M  V30 5031 H 465.122 -1.73922 3.83835 0
M  V30 5032 H 463.846 -1.95683 2.61487 0
M  V30 5033 H 462.505 -0.10059 3.66462 0
M  V30 5034 H 462.153 -2.47063 4.38143 0
M  V30 5035 H 461.853 -1.3364 5.72201 0
M  V30 5036 H 463.377 -2.26735 5.66942 0
M  V30 5037 H 464.791 0.00319931 5.733 0
M  V30 5038 H 463.188 0.763402 5.95224 0
M  V30 5039 H 464.258 1.33799 4.66075 0
M  V30 5040 N 465.601 -1.54893 0.290851 0
M  V30 5041 C 466.849 -1.99538 -0.320756 0
M  V30 5042 C 467.17 -1.18075 -1.55188 0
M  V30 5043 O 466.44 -0.274162 -1.93972 0
M  V30 5044 H 465.02 -0.737052 -0.121507 0
M  V30 5045 H 467.682 -1.90755 0.399832 0
M  V30 5046 H 466.778 -3.06282 -0.599802 0
M  V30 5047 N 467.08 -0.0183926 -1.57589 0
M  V30 5048 C 468.491 0.521927 -1.79256 0
M  V30 5049 C 468.842 1.72885 -0.927636 0
M  V30 5050 O 467.967 2.15978 -0.135091 0
M  V30 5051 C 468.562 0.953632 -3.25102 0
M  V30 5052 C 467.121 1.43913 -3.47801 0
M  V30 5053 C 466.268 0.398837 -2.74417 0
M  V30 5054 H 469.219 -0.244485 -1.56805 0
M  V30 5055 H 469.24 1.81863 -3.34224 0
M  V30 5056 H 468.752 0.0750123 -3.88028 0
M  V30 5057 H 466.853 2.33804 -2.90115 0
M  V30 5058 H 466.966 1.45391 -4.56507 0
M  V30 5059 H 465.33 0.864572 -2.39577 0
M  V30 5060 H 466.113 -0.471132 -3.40052 0
M  V30 5061 N 468.558 1.5553 0.254621 0
M  V30 5062 C 469.786 1.81046 1.00149 0
M  V30 5063 C 470.201 0.593047 1.79244 0
M  V30 5064 O 469.558 -0.438196 1.77161 0
M  V30 5065 C 469.609 3.04684 1.94551 0
M  V30 5066 O 469.33 4.21725 1.18658 0
M  V30 5067 C 470.831 3.42943 2.80901 0
M  V30 5068 H 468.051 0.602653 0.295044 0
M  V30 5069 H 470.595 2.02576 0.279842 0
M  V30 5070 H 468.75 2.85226 2.62154 0
M  V30 5071 H 469.164 4.91746 1.82445 0
M  V30 5072 H 470.638 4.32576 3.42902 0
M  V30 5073 H 471.115 2.63176 3.51617 0
M  V30 5074 H 471.721 3.64724 2.18762 0
M  V30 5075 N 470.036 -0.519951 1.48776 0
M  V30 5076 C 471.284 -1.2727 1.56993 0
M  V30 5077 C 471.605 -1.9339 0.25004 0
M  V30 5078 O 470.875 -1.81822 -0.729216 0
M  V30 5079 H 469.455 -0.472732 0.578389 0
M  V30 5080 H 472.117 -0.604234 1.85297 0
M  V30 5081 H 471.213 -2.04669 2.3562 0
M  V30 5082 N 471.514 -1.37532 -0.769588 0
M  V30 5083 C 472.761 -1.3286 -1.52822 0
M  V30 5084 C 473.089 0.0862597 -1.94309 0
M  V30 5085 O 472.344 1.05995 -1.6451 0
M  V30 5086 C 472.643 -2.21558 -2.8044 0
M  V30 5087 C 472.309 -3.69796 -2.57996 0
M  V30 5088 C 470.971 -4.10194 -2.51583 0
M  V30 5089 C 473.323 -4.63699 -2.37976 0
M  V30 5090 C 470.651 -5.42608 -2.23144 0
M  V30 5091 C 473.003 -5.96353 -2.1106 0
M  V30 5092 C 471.667 -6.35853 -2.03093 0
M  V30 5093 H 470.937 -0.486168 -0.559215 0
M  V30 5094 H 473.584 -1.69757 -0.886277 0
M  V30 5095 H 471.889 -1.77663 -3.49204 0
M  V30 5096 H 473.586 -2.15256 -3.38328 0
M  V30 5097 H 470.176 -3.37759 -2.63851 0
M  V30 5098 H 474.36 -4.33346 -2.41919 0
M  V30 5099 H 469.616 -5.72173 -2.15472 0
M  V30 5100 H 473.79 -6.68667 -1.94568 0
M  V30 5101 H 471.417 -7.38382 -1.8082 0
M  V30 5102 N 472.992 0.995999 -1.22138 0
M  V30 5103 C 473.922 2.10387 -1.01289 0
M  V30 5104 C 474.903 1.69975 0.0651454 0
M  V30 5105 O 476.088 1.9396 -0.0964628 0
M  V30 5106 C 473.218 3.42312 -0.586517 0
M  V30 5107 C 472.172 3.96558 -1.61014 0
M  V30 5108 C 471.498 5.24494 -1.0397 0
M  V30 5109 C 472.798 4.27595 -2.99933 0
M  V30 5110 H 474.492 2.28086 -1.93951 0
M  V30 5111 H 472.038 1.09607 -0.933928 0
M  V30 5112 H 473.991 4.19223 -0.427793 0
M  V30 5113 H 472.715 3.24431 0.375761 0
M  V30 5114 H 471.374 3.21776 -1.75658 0
M  V30 5115 H 471.022 5.02953 -0.0688703 0
M  V30 5116 H 470.722 5.61755 -1.72352 0
M  V30 5117 H 472.246 6.04042 -0.892494 0
M  V30 5118 H 473.66 4.95315 -2.8868 0
M  V30 5119 H 472.057 4.76021 -3.6541 0
M  V30 5120 H 473.127 3.35498 -3.50099 0
M  V30 5121 N 474.47 1.03057 1.19235 0
M  V30 5122 C 475.718 0.726581 1.88587 0
M  V30 5123 C 476.039 -0.747227 1.80115 0
M  V30 5124 O 475.309 -1.53849 1.21274 0
M  V30 5125 H 473.889 0.265768 0.698124 0
M  V30 5126 H 476.551 1.30516 1.44746 0
M  V30 5127 H 475.647 1.0224 2.94879 0
M  V30 5128 N 475.948 -1.35272 0.808662 0
M  V30 5129 C 477.173 -2.03477 0.401475 0
M  V30 5130 C 477.598 -1.60537 -0.980279 0
M  V30 5131 O 476.956 -0.78304 -1.63518 0
M  V30 5132 C 477.004 -3.57181 0.495354 0
M  V30 5133 O 476.108 -4.09474 -0.490397 0
M  V30 5134 H 475.449 -0.642561 0.167366 0
M  V30 5135 H 477.979 -1.72824 1.09512 0
M  V30 5136 H 477.989 -4.06356 0.365912 0
M  V30 5137 H 476.664 -3.87784 1.5032 0
M  V30 5138 H 475.241 -3.71516 -0.321023 0
M  V30 5139 N 477.426 -0.562348 -1.47226 0
M  V30 5140 C 478.389 0.172056 -2.28553 0
M  V30 5141 C 479.389 0.837928 -1.37242 0
M  V30 5142 O 480.579 0.693001 -1.59822 0
M  V30 5143 C 477.711 1.25223 -3.17068 0
M  V30 5144 H 478.904 -0.542401 -2.94954 0
M  V30 5145 H 476.457 -0.319493 -1.53 0
M  V30 5146 H 477.192 1.99892 -2.55369 0
M  V30 5147 H 476.977 0.779515 -3.84273 0
M  V30 5148 H 478.467 1.76791 -3.78332 0
M  V30 5149 N 478.904 1.54736 -0.299062 0
M  V30 5150 C 480.15 2.00397 0.311244 0
M  V30 5151 C 480.483 1.18716 1.53688 0
M  V30 5152 O 479.758 0.263154 1.92712 0
M  V30 5153 C 480.041 3.53817 0.669761 0
M  V30 5154 C 479.894 4.46239 -0.564882 0
M  V30 5155 C 481.213 4.13856 1.49702 0
M  V30 5156 H 478.332 0.728493 0.111653 0
M  V30 5157 H 480.974 1.85506 -0.410774 0
M  V30 5158 H 479.124 3.66637 1.28491 0
M  V30 5159 H 480.796 4.45328 -1.20337 0
M  V30 5160 H 479.039 4.16916 -1.19849 0
M  V30 5161 H 479.71 5.5134 -0.269918 0
M  V30 5162 H 482.186 4.04461 0.977284 0
M  V30 5163 H 481.062 5.21365 1.71666 0
M  V30 5164 H 481.323 3.65608 2.48563 0
M  V30 5165 N 480.382 0.0267497 1.57577 0
M  V30 5166 C 481.629 -0.652404 1.91703 0
M  V30 5167 C 481.957 -1.72271 0.902936 0
M  V30 5168 O 481.212 -1.955 -0.0884843 0
M  V30 5169 C 481.511 -1.30914 3.3256 0
M  V30 5170 C 481.177 -0.369441 4.49384 0
M  V30 5171 C 479.839 -0.110791 4.81072 0
M  V30 5172 C 482.191 0.275971 5.20469 0
M  V30 5173 C 479.519 0.801116 5.81205 0
M  V30 5174 C 481.871 1.17592 6.21575 0
M  V30 5175 C 480.535 1.44348 6.51705 0
M  V30 5176 H 479.805 -0.238732 0.70149 0
M  V30 5177 H 482.452 0.0880091 1.91298 0
M  V30 5178 H 480.757 -2.12425 3.29216 0
M  V30 5179 H 482.454 -1.84115 3.56234 0
M  V30 5180 H 479.044 -0.581211 4.24641 0
M  V30 5181 H 483.228 0.0892 4.9622 0
M  V30 5182 H 478.484 1.01614 6.02897 0
M  V30 5183 H 482.658 1.68223 6.75777 0
M  V30 5184 H 480.285 2.15176 7.29111 0
M  V30 5185 N 481.861 -1.55662 -0.24637 0
M  V30 5186 C 483.11 -1.7672 -0.972254 0
M  V30 5187 C 483.423 -0.59078 -1.86465 0
M  V30 5188 O 484.629 -0.684391 -2.62732 0
M  V30 5189 C 483.085 -3.12869 -1.7788 0
M  V30 5190 C 482.693 -4.38161 -0.933768 0
M  V30 5191 C 484.437 -3.43265 -2.49738 0
M  V30 5192 C 482.344 -5.6534 -1.73623 0
M  V30 5193 H 481.274 -0.658795 -0.366749 0
M  V30 5194 H 483.925 -1.82092 -0.226902 0
M  V30 5195 H 482.307 -3.01606 -2.56612 0
M  V30 5196 H 483.481 -4.60413 -0.188736 0
M  V30 5197 H 481.796 -4.15102 -0.328488 0
M  V30 5198 H 484.393 -4.35501 -3.10231 0
M  V30 5199 H 484.736 -2.64614 -3.2138 0
M  V30 5200 H 485.269 -3.55746 -1.78016 0
M  V30 5201 H 482.008 -6.46814 -1.06354 0
M  V30 5202 H 481.528 -5.47188 -2.45653 0
M  V30 5203 H 483.207 -6.04616 -2.30323 0
M  V30 5204 N 483.339 0.512053 -1.4905 0
M  V30 5205 C 484.269 1.62365 -1.67809 0
M  V30 5206 C 485.25 1.61737 -0.526809 0
M  V30 5207 O 486.435 1.78651 -0.761404 0
M  V30 5208 C 483.565 3.00895 -1.73435 0
M  V30 5209 C 482.519 3.16387 -2.88242 0
M  V30 5210 C 481.845 4.56157 -2.78971 0
M  V30 5211 C 483.145 2.97457 -4.29321 0
M  V30 5212 H 484.839 1.46921 -2.60873 0
M  V30 5213 H 482.385 0.705379 -1.2554 0
M  V30 5214 H 484.338 3.78549 -1.85145 0
M  V30 5215 H 483.062 3.17403 -0.769619 0
M  V30 5216 H 481.721 2.41155 -2.76116 0
M  V30 5217 H 481.369 4.69525 -1.8043 0
M  V30 5218 H 481.069 4.67465 -3.5602 0
M  V30 5219 H 482.593 5.35886 -2.92675 0
M  V30 5220 H 484.007 3.64888 -4.42187 0
M  V30 5221 H 482.404 3.20245 -5.07507 0
M  V30 5222 H 483.474 1.93692 -4.44535 0
M  V30 5223 N 484.817 1.37938 0.762283 0
M  V30 5224 C 486.064 1.33668 1.52115 0
M  V30 5225 C 486.392 -0.0759538 1.94352 0
M  V30 5226 O 485.647 -1.05121 1.6507 0
M  V30 5227 C 485.946 2.23042 2.79261 0
M  V30 5228 C 485.612 3.71159 2.56031 0
M  V30 5229 C 484.274 4.11523 2.49404 0
M  V30 5230 C 486.626 4.64955 2.35513 0
M  V30 5231 C 483.954 5.43784 2.20263 0
M  V30 5232 C 486.306 5.97464 2.07894 0
M  V30 5233 C 484.97 6.36922 1.99718 0
M  V30 5234 H 484.24 0.489127 0.556629 0
M  V30 5235 H 486.887 1.70224 0.877262 0
M  V30 5236 H 485.192 1.79512 3.48256 0
M  V30 5237 H 486.889 2.17047 3.37182 0
M  V30 5238 H 483.479 3.39153 2.62056 0
M  V30 5239 H 487.663 4.34623 2.39617 0
M  V30 5240 H 482.919 5.73307 2.12435 0
M  V30 5241 H 487.093 6.6969 1.91019 0
M  V30 5242 H 484.72 7.39331 1.76902 0
M  V30 5243 N 486.295 -0.989507 1.22664 0
M  V30 5244 C 487.525 -1.7624 1.0781 0
M  V30 5245 C 487.933 -1.85466 -0.374036 0
M  V30 5246 O 487.276 -1.32645 -1.27087 0
M  V30 5247 C 487.338 -3.21007 1.61849 0
M  V30 5248 C 487.002 -3.35316 3.10503 0
M  V30 5249 C 487.999 -3.22362 4.07896 0
M  V30 5250 C 485.684 -3.60258 3.50028 0
M  V30 5251 C 487.678 -3.34139 5.42798 0
M  V30 5252 C 485.365 -3.71676 4.85078 0
M  V30 5253 C 486.363 -3.58625 5.81272 0
M  V30 5254 O 486.051 -3.69655 7.1387 0
M  V30 5255 H 485.783 -0.560209 0.378341 0
M  V30 5256 H 488.337 -1.25252 1.62792 0
M  V30 5257 H 486.567 -3.73202 1.01279 0
M  V30 5258 H 488.256 -3.80024 1.42606 0
M  V30 5259 H 489.022 -3.03 3.78703 0
M  V30 5260 H 484.901 -3.69492 2.75675 0
M  V30 5261 H 488.445 -3.23869 6.17863 0
M  V30 5262 H 484.342 -3.90545 5.1395 0
M  V30 5263 H 485.11 -3.86507 7.21495 0
M  V30 5264 N 487.773 -1.03688 -1.18687 0
M  V30 5265 C 489.184 -0.766488 -1.70241 0
M  V30 5266 C 489.535 0.713052 -1.82784 0
M  V30 5267 O 488.66 1.55529 -1.50465 0
M  V30 5268 C 489.255 -1.38475 -3.09209 0
M  V30 5269 C 487.814 -1.16276 -3.5799 0
M  V30 5270 C 486.961 -1.4778 -2.34641 0
M  V30 5271 H 489.912 -1.20378 -1.03415 0
M  V30 5272 H 489.933 -0.785939 -3.72295 0
M  V30 5273 H 489.445 -2.46157 -3.00048 0
M  V30 5274 H 487.546 -0.104508 -3.72453 0
M  V30 5275 H 487.659 -1.8571 -4.41643 0
M  V30 5276 H 486.023 -0.897366 -2.38368 0
M  V30 5277 H 486.806 -2.56562 -2.28102 0
M  V30 5278 N 489.251 1.34841 -0.815825 0
M  V30 5279 C 490.214 2.27959 -0.238185 0
M  V30 5280 C 491.214 1.49983 0.579816 0
M  V30 5281 O 492.404 1.69617 0.396953 0
M  V30 5282 C 489.536 3.34314 0.666876 0
M  V30 5283 H 490.729 2.80558 -1.05958 0
M  V30 5284 H 488.282 1.44852 -0.587156 0
M  V30 5285 H 489.017 2.86916 1.5116 0
M  V30 5286 H 488.802 3.92014 0.0819106 0
M  V30 5287 H 490.292 4.0379 1.06506 0
M  V30 5288 N 490.729 0.570148 1.46925 0
M  V30 5289 C 491.662 -0.218362 2.27153 0
M  V30 5290 C 492.64 -0.90847 1.34854 0
M  V30 5291 O 493.824 -0.924875 1.64251 0
M  V30 5292 C 490.951 -1.3122 3.12248 0
M  V30 5293 C 489.997 -0.729277 4.20219 0
M  V30 5294 S 490.83 0.434159 5.33737 0
M  V30 5295 C 491.986 -0.661188 6.22398 0
M  V30 5296 H 492.219 0.462393 2.93682 0
M  V30 5297 H 489.752 0.356753 1.50222 0
M  V30 5298 H 491.71 -1.93856 3.61842 0
M  V30 5299 H 490.371 -1.96485 2.45056 0
M  V30 5300 H 489.564 -1.5511 4.79538 0
M  V30 5301 H 489.166 -0.178836 3.73572 0
M  V30 5302 H 491.458 -1.55006 6.5953 0
M  V30 5303 H 492.401 -0.105046 7.08022 0
M  V30 5304 H 492.809 -0.959682 5.56283 0
M  V30 5305 N 492.207 -1.54576 0.307264 0
M  V30 5306 C 493.14 -2.19946 -0.608195 0
M  V30 5307 C 494.118 -1.17096 -1.12815 0
M  V30 5308 O 495.302 -1.45766 -1.19518 0
M  V30 5309 C 492.429 -2.84826 -1.8328 0
M  V30 5310 C 491.475 -4.01256 -1.44554 0
M  V30 5311 S 492.308 -5.33197 -0.49612 0
M  V30 5312 C 493.464 -6.01563 -1.72838 0
M  V30 5313 H 493.697 -2.97253 -0.0528544 0
M  V30 5314 H 491.23 -1.54129 0.0913837 0
M  V30 5315 H 493.188 -3.22832 -2.53554 0
M  V30 5316 H 491.849 -2.07353 -2.35931 0
M  V30 5317 H 491.042 -4.45457 -2.35762 0
M  V30 5318 H 490.644 -3.6484 -0.822671 0
M  V30 5319 H 492.936 -6.22751 -2.6681 0
M  V30 5320 H 493.879 -6.9552 -1.32882 0
M  V30 5321 H 494.287 -5.31279 -1.90795 0
M  V30 5322 N 493.685 -0.035106 -1.57561 0
M  V30 5323 C 494.932 0.642229 -1.92046 0
M  V30 5324 C 495.26 1.7179 -0.91206 0
M  V30 5325 O 494.515 1.95544 0.0781153 0
M  V30 5326 C 494.814 1.29149 -3.3325 0
M  V30 5327 C 494.48 0.345604 -4.49574 0
M  V30 5328 C 493.142 0.0852775 -4.81124 0
M  V30 5329 C 495.494 -0.303569 -5.20315 0
M  V30 5330 C 492.822 -0.831927 -5.80772 0
M  V30 5331 C 495.174 -1.20886 -6.20942 0
M  V30 5332 C 493.838 -1.47802 -6.50931 0
M  V30 5333 H 493.108 0.235008 -0.702746 0
M  V30 5334 H 495.755 -0.0981529 -1.91248 0
M  V30 5335 H 494.06 2.10676 -3.30337 0
M  V30 5336 H 495.757 1.82223 -3.57205 0
M  V30 5337 H 492.347 0.558683 -4.24943 0
M  V30 5338 H 496.531 -0.115515 -4.96166 0
M  V30 5339 H 491.787 -1.0481 -6.02349 0
M  V30 5340 H 495.961 -1.71804 -6.74875 0
M  V30 5341 H 493.588 -2.19039 -7.2796 0
M  V30 5342 N 495.163 1.55791 0.238111 0
M  V30 5343 C 496.126 1.90239 1.27835 0
M  V30 5344 C 497.126 0.779552 1.4064 0
M  V30 5345 O 498.316 1.04747 1.3919 0
M  V30 5346 C 495.448 2.13859 2.65475 0
M  V30 5347 H 496.641 2.83262 0.985034 0
M  V30 5348 H 494.194 1.48818 0.477799 0
M  V30 5349 H 494.929 1.23334 2.99932 0
M  V30 5350 H 494.714 2.95643 2.57561 0
M  V30 5351 H 496.204 2.41664 3.40571 0
M  V30 5352 N 496.642 -0.504142 1.49319 0
M  V30 5353 C 497.867 -1.28729 1.62615 0
M  V30 5354 C 498.292 -1.85752 0.296309 0
M  V30 5355 O 497.65 -1.65704 -0.735649 0
M  V30 5356 C 497.698 -2.39561 2.69524 0
M  V30 5357 O 496.802 -3.43324 2.28478 0
M  V30 5358 H 496.143 -0.380172 0.544395 0
M  V30 5359 H 498.673 -0.603872 1.95485 0
M  V30 5360 H 498.683 -2.8537 2.91595 0
M  V30 5361 H 497.358 -1.97423 3.66056 0
M  V30 5362 H 495.935 -3.03455 2.16725 0
M  V30 5363 N 498.12 -1.38341 -0.754957 0
M  V30 5364 C 499.536 -1.19508 -1.05783 0
M  V30 5365 C 499.736 -0.0428005 -2.01455 0
M  V30 5366 O 498.792 0.611861 -2.44975 0
M  V30 5367 C 500.105 -2.52091 -1.63923 0
M  V30 5368 C 501.653 -2.58762 -1.76101 0
M  V30 5369 C 502.128 -3.91517 -2.37652 0
M  V30 5370 N 503.619 -3.93049 -2.45085 0
M  V30 5371 C 504.354 -4.9253 -2.93602 0
M  V30 5372 N 503.85 -6.02408 -3.42165 0
M  V30 5373 N 505.643 -4.79921 -2.92629 0
M  V30 5374 H 497.794 -2.1206 -0.120056 0
M  V30 5375 H 500.057 -0.94089 -0.11589 0
M  V30 5376 H 499.763 -3.36858 -1.01093 0
M  V30 5377 H 499.637 -2.70388 -2.63003 0
M  V30 5378 H 502.024 -1.74391 -2.38058 0
M  V30 5379 H 502.105 -2.44333 -0.757294 0
M  V30 5380 H 501.749 -4.76309 -1.76329 0
M  V30 5381 H 501.679 -4.03256 -3.38662 0
M  V30 5382 H 504.17 -3.13685 -2.10736 0
M  V30 5383 H 504.483 -6.74248 -3.77637 0
M  V30 5384 H 502.828 -6.0603 -3.40225 0
M  V30 5385 H 506.019 -3.93194 -2.54001 0
M  V30 5386 H 506.192 -5.57601 -3.30128 0
M  V30 5387 N 499.598 0.982988 -1.23187 0
M  V30 5388 C 500.528 2.09301 -1.03515 0
M  V30 5389 C 501.509 1.70035 0.0471136 0
M  V30 5390 O 502.694 1.93847 -0.117029 0
M  V30 5391 C 499.824 3.4167 -0.622791 0
M  V30 5392 C 498.778 3.94828 -1.65211 0
M  V30 5393 C 498.104 5.23362 -1.09527 0
M  V30 5394 C 499.404 4.2439 -3.04451 0
M  V30 5395 H 501.098 2.26016 -1.96359 0
M  V30 5396 H 498.644 1.08611 -0.945501 0
M  V30 5397 H 500.597 4.18746 -0.472233 0
M  V30 5398 H 499.321 3.24811 0.341329 0
M  V30 5399 H 497.98 3.19895 -1.79061 0
M  V30 5400 H 497.628 5.02852 -0.122211 0
M  V30 5401 H 497.328 5.59895 -1.783 0
M  V30 5402 H 498.852 6.03062 -0.956511 0
M  V30 5403 H 500.266 4.92225 -2.93917 0
M  V30 5404 H 498.663 4.72118 -3.70438 0
M  V30 5405 H 499.733 3.31765 -3.53638 0
M  V30 5406 N 501.076 1.04316 1.18135 0
M  V30 5407 C 502.304 0.768117 1.92113 0
M  V30 5408 C 502.719 -0.675057 1.76319 0
M  V30 5409 O 502.076 -1.46038 1.09449 0
M  V30 5410 C 502.127 1.12808 3.43448 0
M  V30 5411 O 501.848 2.5146 3.58747 0
M  V30 5412 C 503.349 0.8779 4.3452 0
M  V30 5413 H 500.569 0.279937 0.609817 0
M  V30 5414 H 503.113 1.39149 1.49859 0
M  V30 5415 H 501.268 0.549623 3.83481 0
M  V30 5416 H 501.682 2.65313 4.52448 0
M  V30 5417 H 503.156 1.17959 5.39249 0
M  V30 5418 H 503.633 -0.187239 4.38801 0
M  V30 5419 H 504.239 1.43977 4.00188 0
M  V30 5420 N 502.554 -1.34406 0.822964 0
M  V30 5421 C 503.517 -2.2783 0.250271 0
M  V30 5422 C 504.517 -1.50288 -0.571854 0
M  V30 5423 O 505.707 -1.69825 -0.387952 0
M  V30 5424 C 502.839 -3.34663 -0.649137 0
M  V30 5425 H 504.032 -2.79992 1.07444 0
M  V30 5426 H 501.585 -1.44539 0.594829 0
M  V30 5427 H 502.32 -2.87714 -1.49637 0
M  V30 5428 H 502.105 -3.92052 -0.0611199 0
M  V30 5429 H 503.595 -4.04349 -1.04363 0
M  V30 5430 N 504.032 -0.577932 -1.46621 0
M  V30 5431 C 505.262 -0.0670668 -2.06491 0
M  V30 5432 C 505.67 1.24119 -1.42798 0
M  V30 5433 O 505.013 1.76016 -0.525759 0
M  V30 5434 C 505.075 0.177995 -3.59059 0
M  V30 5435 C 504.739 -1.04394 -4.44917 0
M  V30 5436 C 505.736 -1.95479 -4.81751 0
M  V30 5437 C 503.421 -1.26444 -4.86125 0
M  V30 5438 C 505.415 -3.06965 -5.58615 0
M  V30 5439 C 503.102 -2.38237 -5.62749 0
M  V30 5440 C 504.1 -3.28327 -5.98908 0
M  V30 5441 O 503.788 -4.38179 -6.73984 0
M  V30 5442 H 503.52 -0.0523159 -0.673973 0
M  V30 5443 H 506.074 -0.796966 -1.89308 0
M  V30 5444 H 504.304 0.962451 -3.74531 0
M  V30 5445 H 505.993 0.636782 -4.00874 0
M  V30 5446 H 506.759 -1.79657 -4.50498 0
M  V30 5447 H 502.638 -0.572316 -4.57434 0
M  V30 5448 H 506.182 -3.77309 -5.86757 0
M  V30 5449 H 502.079 -2.54023 -5.93416 0
M  V30 5450 H 502.847 -4.36486 -6.92403 0
M  V30 5451 N 505.51 1.54411 -0.315457 0
M  V30 5452 C 506.757 2.00419 0.289543 0
M  V30 5453 C 507.085 1.20373 1.52776 0
M  V30 5454 O 506.34 0.271769 1.93804 0
M  V30 5455 C 506.639 3.50936 0.676652 0
M  V30 5456 C 506.305 4.48532 -0.461472 0
M  V30 5457 C 504.967 4.74936 -0.773879 0
M  V30 5458 C 507.319 5.06567 -1.22637 0
M  V30 5459 C 504.647 5.56634 -1.85405 0
M  V30 5460 C 506.999 5.89441 -2.29657 0
M  V30 5461 C 505.663 6.1415 -2.61488 0
M  V30 5462 H 504.933 0.733386 0.105951 0
M  V30 5463 H 507.58 1.86434 -0.437554 0
M  V30 5464 H 505.885 3.62606 1.48405 0
M  V30 5465 H 507.582 3.83971 1.15618 0
M  V30 5466 H 504.172 4.28096 -0.207893 0
M  V30 5467 H 508.356 4.86157 -0.998271 0
M  V30 5468 H 503.612 5.74012 -2.10523 0
M  V30 5469 H 507.786 6.33432 -2.89374 0
M  V30 5470 H 505.413 6.77245 -3.45317 0
M  V30 5471 N 506.988 0.0434614 1.5754 0
M  V30 5472 C 508.404 -0.313039 1.565 0
M  V30 5473 C 508.604 -1.71954 1.05043 0
M  V30 5474 O 507.66 -2.425 0.703564 0
M  V30 5475 C 508.973 -0.148544 3.00333 0
M  V30 5476 C 510.521 -0.220231 3.12224 0
M  V30 5477 C 510.996 -0.0843565 4.57922 0
M  V30 5478 N 512.487 -0.140881 4.62986 0
M  V30 5479 C 513.222 -0.0597443 5.73369 0
M  V30 5480 N 512.718 0.0733004 6.92761 0
M  V30 5481 N 514.511 -0.11477 5.61983 0
M  V30 5482 H 506.662 0.96303 1.89313 0
M  V30 5483 H 508.925 0.373164 0.871466 0
M  V30 5484 H 508.631 0.820894 3.41986 0
M  V30 5485 H 508.505 -0.912798 3.65989 0
M  V30 5486 H 510.892 -1.18014 2.70475 0
M  V30 5487 H 510.973 0.574646 2.49262 0
M  V30 5488 H 510.617 0.872192 5.00355 0
M  V30 5489 H 510.547 -0.898281 5.18882 0
M  V30 5490 H 513.038 -0.243273 3.77116 0
M  V30 5491 H 513.351 0.128128 7.72694 0
M  V30 5492 H 511.696 0.10828 6.94916 0
M  V30 5493 H 514.887 -0.217212 4.67596 0
M  V30 5494 H 515.06 -0.0480779 6.47982 0
M  V30 5495 N 508.466 -1.55915 -0.229846 0
M  V30 5496 C 509.882 -1.48721 -0.579166 0
M  V30 5497 C 510.082 -0.736976 -1.87539 0
M  V30 5498 O 509.138 -0.273258 -2.51017 0
M  V30 5499 C 510.451 -2.9323 -0.666082 0
M  V30 5500 C 511.999 -3.03701 -0.757267 0
M  V30 5501 C 512.474 -4.49552 -0.8756 0
M  V30 5502 N 513.965 -4.53561 -0.940035 0
M  V30 5503 C 514.7 -5.63683 -1.05116 0
M  V30 5504 N 514.196 -6.83576 -1.12675 0
M  V30 5505 N 515.989 -5.51516 -1.08565 0
M  V30 5506 H 508.14 -2.03123 0.620857 0
M  V30 5507 H 510.403 -0.922898 0.21671 0
M  V30 5508 H 510.109 -3.51032 0.21664 0
M  V30 5509 H 509.983 -3.44668 -1.53243 0
M  V30 5510 H 512.37 -2.45969 -1.63043 0
M  V30 5511 H 512.451 -2.55446 0.134583 0
M  V30 5512 H 512.095 -5.079 -0.00692351 0
M  V30 5513 H 512.025 -4.95506 -1.78274 0
M  V30 5514 H 514.516 -3.67215 -0.892269 0
M  V30 5515 H 514.829 -7.63251 -1.21109 0
M  V30 5516 H 513.174 -6.86303 -1.09603 0
M  V30 5517 H 516.365 -4.5678 -1.02319 0
M  V30 5518 H 516.538 -6.37372 -1.1688 0
M  V30 5519 N 509.944 0.496216 -1.49584 0
M  V30 5520 C 510.891 1.59722 -1.66606 0
M  V30 5521 C 511.861 1.58158 -0.507477 0
M  V30 5522 O 513.046 1.76072 -0.735076 0
M  V30 5523 C 510.186 2.97844 -1.74308 0
M  V30 5524 C 509.299 3.09388 -3.01502 0
M  V30 5525 C 508.434 4.38271 -3.00153 0
M  V30 5526 C 507.473 4.43466 -4.21906 0
M  V30 5527 N 506.61 5.63784 -4.1844 0
M  V30 5528 H 511.45 1.44515 -2.60613 0
M  V30 5529 H 508.987 0.703048 -1.29212 0
M  V30 5530 H 510.945 3.77907 -1.76754 0
M  V30 5531 H 509.575 3.11743 -0.837619 0
M  V30 5532 H 508.627 2.22357 -3.08645 0
M  V30 5533 H 509.939 3.09085 -3.91494 0
M  V30 5534 H 509.093 5.2666 -3.01188 0
M  V30 5535 H 507.832 4.41146 -2.07947 0
M  V30 5536 H 506.837 3.53478 -4.21109 0
M  V30 5537 H 508.062 4.42303 -5.1531 0
M  V30 5538 H 506.008 5.67491 -3.29074 0
M  V30 5539 H 505.925 5.65118 -5.02173 0
M  V30 5540 H 507.193 6.54367 -4.23585 0
M  V30 5541 N 511.423 1.38739 0.74761 0
M  V30 5542 C 512.663 1.36695 1.51966 0
M  V30 5543 C 513.027 -0.0411889 1.91956 0
M  V30 5544 O 514.228 -0.186543 2.68152 0
M  V30 5545 C 512.499 2.30119 2.73459 0
M  V30 5546 S 514.058 2.4615 3.63257 0
M  V30 5547 H 510.876 0.484929 0.519966 0
M  V30 5548 H 513.478 1.7472 0.877104 0
M  V30 5549 H 512.182 3.31312 2.422 0
M  V30 5550 H 511.713 1.93265 3.42655 0
M  V30 5551 H 513.728 1.69001 4.66533 0
M  V30 5552 N 512.901 -0.976442 1.23707 0
M  V30 5553 C 514.147 -1.72081 1.07312 0
M  V30 5554 C 514.48 -1.90275 -0.388476 0
M  V30 5555 O 513.755 -1.4579 -1.28746 0
M  V30 5556 C 514.038 -3.11675 1.80363 0
M  V30 5557 C 513.891 -3.01027 3.3422 0
M  V30 5558 C 515.21 -4.1117 1.5693 0
M  V30 5559 H 512.329 -0.624583 0.391236 0
M  V30 5560 H 514.971 -1.13649 1.52263 0
M  V30 5561 H 513.121 -3.61559 1.42153 0
M  V30 5562 H 514.793 -2.58637 3.81975 0
M  V30 5563 H 513.036 -2.3744 3.63049 0
M  V30 5564 H 513.707 -3.9988 3.80525 0
M  V30 5565 H 516.183 -3.7011 1.90151 0
M  V30 5566 H 515.059 -5.06928 2.10513 0
M  V30 5567 H 515.32 -4.392 0.505548 0
M  V30 5568 N 514.379 -1.04941 -1.1758 0
M  V30 5569 C 515.342 -0.652456 -2.19717 0
M  V30 5570 C 516.342 0.294745 -1.58076 0
M  V30 5571 O 517.532 0.0789579 -1.74021 0
M  V30 5572 C 514.664 0.0420712 -3.40874 0
M  V30 5573 H 515.857 -1.55642 -2.5635 0
M  V30 5574 H 513.41 -0.842995 -1.31618 0
M  V30 5575 H 514.145 0.95943 -3.09783 0
M  V30 5576 H 513.93 -0.638844 -3.86861 0
M  V30 5577 H 515.42 0.306 -4.16477 0
M  V30 5578 N 515.857 1.33968 -0.830081 0
M  V30 5579 C 516.82 2.27694 -0.26235 0
M  V30 5580 C 517.82 1.50589 0.563876 0
M  V30 5581 O 519.01 1.70028 0.378941 0
M  V30 5582 C 516.142 3.35002 0.63138 0
M  V30 5583 H 517.335 2.79419 -1.08928 0
M  V30 5584 H 514.888 1.44221 -0.602486 0
M  V30 5585 H 515.623 2.88504 1.48109 0
M  V30 5586 H 515.408 3.92079 0.0403276 0
M  V30 5587 H 516.898 4.04897 1.02217 0
M  V30 5588 N 517.335 0.585699 1.46312 0
M  V30 5589 C 518.563 0.0781299 2.06752 0
M  V30 5590 C 518.978 -1.22812 1.43396 0
M  V30 5591 O 518.335 -1.74318 0.540314 0
M  V30 5592 C 518.386 -0.0911927 3.61385 0
M  V30 5593 O 518.107 1.16336 4.22371 0
M  V30 5594 C 519.608 -0.632765 4.38761 0
M  V30 5595 H 516.828 0.0588188 0.668417 0
M  V30 5596 H 519.372 0.807218 1.87894 0
M  V30 5597 H 517.527 -0.770514 3.7966 0
M  V30 5598 H 517.941 0.979082 5.15281 0
M  V30 5599 H 519.415 -0.70041 5.47538 0
M  V30 5600 H 519.892 -1.65039 4.07012 0
M  V30 5601 H 520.498 0.0117856 4.25298 0
M  V30 5602 N 518.813 -1.54241 0.323641 0
M  V30 5603 C 520.09 -1.92741 -0.333181 0
M  V30 5604 C 520.47 -1.25326 -1.69872 0
M  V30 5605 O 519.818 -0.396991 -2.25025 0
M  V30 5606 C 520.028 -3.46399 -0.425322 0
M  V30 5607 C 521.376 -4.19029 -0.68557 0
M  V30 5608 O 522.4 -3.52555 -0.50824 0
M  V30 5609 O 521.259 -5.36751 -1.02767 0
M  V30 5610 H 518.353 -0.804811 -0.190286 0
M  V30 5611 H 520.899 -1.65542 0.373361 0
M  V30 5612 H 519.671 -3.87643 0.533737 0
M  V30 5613 H 519.294 -3.79704 -1.17944 0
M  V30 5614 N 520.291 -0.0518155 -1.57515 0
M  V30 5615 C 521.201 0.937539 -2.15052 0
M  V30 5616 C 522.217 1.34121 -1.10849 0
M  V30 5617 O 523.393 1.418 -1.4302 0
M  V30 5618 C 520.458 2.19379 -2.68466 0
M  V30 5619 C 519.519 1.84841 -3.87469 0
M  V30 5620 C 518.752 3.04477 -4.38326 0
M  V30 5621 O 518.975 4.17868 -3.88256 0
M  V30 5622 O 517.909 2.85453 -5.29906 0
M  V30 5623 H 521.735 0.478201 -2.99912 0
M  V30 5624 H 519.32 0.17012 -1.48428 0
M  V30 5625 H 521.202 2.93084 -3.02787 0
M  V30 5626 H 519.877 2.64449 -1.86677 0
M  V30 5627 H 518.784 1.08449 -3.58036 0
M  V30 5628 H 520.117 1.44569 -4.7049 0
M  V30 5629 N 521.769 1.56035 0.221574 0
M  V30 5630 C 523.185 1.49026 0.571271 0
M  V30 5631 C 523.385 0.746912 1.87146 0
M  V30 5632 O 522.441 0.286566 2.50869 0
M  V30 5633 C 523.754 2.93579 0.650522 0
M  V30 5634 C 525.302 3.04099 0.741151 0
M  V30 5635 C 525.777 4.5001 0.851747 0
M  V30 5636 N 527.268 4.54053 0.915968 0
M  V30 5637 C 528.003 5.64232 1.02125 0
M  V30 5638 N 527.499 6.84164 1.09049 0
M  V30 5639 N 529.292 5.52084 1.05639 0
M  V30 5640 H 521.443 2.02791 -0.63162 0
M  V30 5641 H 523.706 0.921736 -0.221602 0
M  V30 5642 H 523.412 3.50912 -0.235253 0
M  V30 5643 H 523.286 3.45476 1.51413 0
M  V30 5644 H 525.673 2.4683 1.61737 0
M  V30 5645 H 525.754 2.55371 -0.148128 0
M  V30 5646 H 525.398 5.07896 -0.0200117 0
M  V30 5647 H 525.328 4.96444 1.75644 0
M  V30 5648 H 527.819 3.67683 0.872782 0
M  V30 5649 H 528.132 7.63883 1.1706 0
M  V30 5650 H 526.477 6.86875 1.05962 0
M  V30 5651 H 529.668 4.57317 0.998953 0
M  V30 5652 H 529.841 6.37983 1.13498 0
M  V30 5653 N 523.247 -0.488276 1.49845 0
M  V30 5654 C 524.493 -1.24341 1.6021 0
M  V30 5655 C 524.826 -1.91967 0.293651 0
M  V30 5656 O 524.101 -1.81323 -0.703718 0
M  V30 5657 C 524.384 -2.3005 2.77036 0
M  V30 5658 C 524.237 -1.66842 4.17713 0
M  V30 5659 C 525.556 -3.31509 2.89464 0
M  V30 5660 H 522.675 -0.450704 0.583125 0
M  V30 5661 H 525.317 -0.539673 1.82174 0
M  V30 5662 H 523.467 -2.90071 2.58439 0
M  V30 5663 H 525.139 -1.1055 4.47858 0
M  V30 5664 H 523.382 -0.972079 4.22768 0
M  V30 5665 H 524.053 -2.43576 4.95353 0
M  V30 5666 H 526.529 -2.81493 3.06433 0
M  V30 5667 H 525.405 -4.02822 3.72861 0
M  V30 5668 H 525.666 -3.94603 1.99351 0
M  V30 5669 N 524.725 -1.39134 -0.740242 0
M  V30 5670 C 525.657 -1.33332 -1.86428 0
M  V30 5671 C 526.67 -0.243042 -1.60976 0
M  V30 5672 O 527.859 -0.501608 -1.71307 0
M  V30 5673 C 524.959 -1.04626 -3.22346 0
M  V30 5674 C 524.132 -2.24826 -3.75196 0
M  V30 5675 C 523.191 -1.92659 -4.89662 0
M  V30 5676 O 522.217 -2.6529 -5.03597 0
M  V30 5677 N 523.419 -0.889575 -5.73643 0
M  V30 5678 H 526.184 -2.30196 -1.91911 0
M  V30 5679 H 523.745 -1.33168 -0.920756 0
M  V30 5680 H 525.737 -0.811347 -3.96484 0
M  V30 5681 H 524.307 -0.165129 -3.12164 0
M  V30 5682 H 523.527 -2.64301 -2.9247 0
M  V30 5683 H 524.815 -3.05015 -4.07239 0
M  V30 5684 H 524.213 -0.287529 -5.64969 0
M  V30 5685 H 522.77 -0.714557 -6.47871 0
M  V30 5686 N 526.204 0.969867 -1.24223 0
M  V30 5687 C 527.151 2.06407 -1.0327 0
M  V30 5688 C 528.121 1.66014 0.0533 0
M  V30 5689 O 529.306 1.90533 -0.100896 0
M  V30 5690 C 526.446 3.3909 -0.641262 0
M  V30 5691 C 525.559 3.9269 -1.80051 0
M  V30 5692 C 524.694 5.13631 -1.35486 0
M  V30 5693 C 523.733 5.59423 -2.48419 0
M  V30 5694 N 522.87 6.71586 -2.04737 0
M  V30 5695 H 527.71 2.23663 -1.96923 0
M  V30 5696 H 525.247 1.09624 -0.980862 0
M  V30 5697 H 527.205 4.15323 -0.395351 0
M  V30 5698 H 525.835 3.21765 0.258269 0
M  V30 5699 H 524.887 3.13116 -2.16014 0
M  V30 5700 H 526.199 4.22636 -2.64916 0
M  V30 5701 H 525.353 5.97231 -1.0677 0
M  V30 5702 H 524.092 4.85364 -0.476722 0
M  V30 5703 H 523.097 4.74398 -2.77897 0
M  V30 5704 H 524.322 5.89705 -3.36786 0
M  V30 5705 H 522.268 6.45058 -1.19318 0
M  V30 5706 H 522.185 7.0097 -2.83156 0
M  V30 5707 H 523.453 7.58633 -1.79154 0
M  V30 5708 N 527.682 1.05563 1.17022 0
M  V30 5709 C 528.615 0.604197 2.20056 0
M  V30 5710 C 529.593 -0.369169 1.58354 0
M  V30 5711 O 530.777 -0.279898 1.8641 0
M  V30 5712 C 527.904 -0.115265 3.38504 0
M  V30 5713 C 526.95 0.813698 4.18666 0
M  V30 5714 S 527.783 2.30492 4.83357 0
M  V30 5715 C 528.939 1.59674 6.0519 0
M  V30 5716 H 529.172 1.47713 2.58008 0
M  V30 5717 H 526.705 0.867932 1.27696 0
M  V30 5718 H 528.663 -0.524162 4.0714 0
M  V30 5719 H 527.324 -0.964284 2.98932 0
M  V30 5720 H 526.517 0.256736 5.03346 0
M  V30 5721 H 526.119 1.16213 3.55486 0
M  V30 5722 H 528.411 0.898164 6.7152 0
M  V30 5723 H 529.354 2.42115 6.65422 0
M  V30 5724 H 529.762 1.08252 5.54023 0
M  V30 5725 N 529.16 -1.33526 0.837174 0
M  V30 5726 C 530.108 -2.31168 0.257698 0
M  V30 5727 C 531.102 -1.5806 -0.609388 0
M  V30 5728 O 532.308 -1.72941 -0.499139 0
M  V30 5729 H 528.683 -0.74922 0.0646058 0
M  V30 5730 H 530.654 -2.77552 1.09578 0
M  V30 5731 C 529.403 -3.4326 -0.553887 0
M  V30 5732 H 528.726 -3.99665 0.104008 0
M  V30 5733 H 530.166 -4.13782 -0.925219 0
M  V30 5734 C 528.625 -2.88965 -1.73207 0
M  V30 5735 O 529.155 -2.85013 -2.83073 0
M  V30 5736 N 527.361 -2.45596 -1.55342 0
M  V30 5737 H 526.908 -2.49009 -0.659705 0
M  V30 5738 H 526.866 -2.0962 -2.34322 0
M  V30 5739 N 530.638 -0.59345 -1.46 0
M  V30 5740 C 531.548 0.135817 -2.34207 0
M  V30 5741 C 532.564 0.875008 -1.50398 0
M  V30 5742 O 533.74 0.835778 -1.83239 0
M  V30 5743 C 530.805 1.12977 -3.27776 0
M  V30 5744 C 529.866 0.394081 -4.27487 0
M  V30 5745 C 529.099 1.34068 -5.16586 0
M  V30 5746 O 529.322 2.5778 -5.08828 0
M  V30 5747 O 528.256 0.845426 -5.95933 0
M  V30 5748 H 532.082 -0.588691 -2.9794 0
M  V30 5749 H 529.667 -0.353784 -1.45151 0
M  V30 5750 H 531.549 1.70261 -3.85473 0
M  V30 5751 H 530.224 1.83556 -2.66625 0
M  V30 5752 H 529.131 -0.220869 -3.73447 0
M  V30 5753 H 530.464 -0.270939 -4.91454 0
M  V30 5754 N 532.116 1.54067 -0.331816 0
M  V30 5755 C 533.362 2.01012 0.268667 0
M  V30 5756 C 533.695 1.2195 1.51136 0
M  V30 5757 O 532.97 0.303972 1.9211 0
M  V30 5758 C 533.253 3.55158 0.59456 0
M  V30 5759 C 533.106 4.4494 -0.659409 0
M  V30 5760 C 534.425 4.16939 1.4089 0
M  V30 5761 H 531.544 0.730698 0.0961756 0
M  V30 5762 H 534.186 1.84593 -0.450031 0
M  V30 5763 H 532.336 3.6928 1.20685 0
M  V30 5764 H 534.008 4.42675 -1.29756 0
M  V30 5765 H 532.251 4.1428 -1.28665 0
M  V30 5766 H 532.922 5.50643 -0.386804 0
M  V30 5767 H 535.398 4.06443 0.891272 0
M  V30 5768 H 534.274 5.24889 1.60569 0
M  V30 5769 H 534.535 3.70798 2.40752 0
M  V30 5770 N 533.594 0.0601682 1.57485 0
M  V30 5771 C 534.524 -0.90889 2.15085 0
M  V30 5772 C 535.505 -1.31838 1.07484 0
M  V30 5773 O 536.69 -1.3915 1.35466 0
M  V30 5774 C 533.82 -2.18059 2.7031 0
M  V30 5775 C 532.774 -1.91088 3.82974 0
M  V30 5776 C 532.1 -3.24789 4.24754 0
M  V30 5777 C 533.4 -1.22535 5.07723 0
M  V30 5778 H 535.094 -0.429093 2.96309 0
M  V30 5779 H 532.64 -0.204952 1.42534 0
M  V30 5780 H 534.593 -2.86258 3.09248 0
M  V30 5781 H 533.317 -2.6826 1.8629 0
M  V30 5782 H 531.976 -1.25297 3.44523 0
M  V30 5783 H 531.624 -3.72809 3.37672 0
M  V30 5784 H 531.324 -3.07538 5.00694 0
M  V30 5785 H 532.848 -3.94205 4.66299 0
M  V30 5786 H 534.262 -1.80783 5.4405 0
M  V30 5787 H 532.659 -1.1558 5.88864 0
M  V30 5788 H 533.729 -0.202692 4.84476 0
M  V30 5789 N 535.072 -1.5615 -0.213296 0
M  V30 5790 C 536.3 -1.83638 -0.953139 0
M  V30 5791 C 536.715 -0.640362 -1.77609 0
M  V30 5792 O 536.072 0.391071 -1.78261 0
M  V30 5793 C 536.123 -3.09735 -1.86405 0
M  V30 5794 O 535.844 -4.24723 -1.07435 0
M  V30 5795 C 537.345 -3.5027 -2.71709 0
M  V30 5796 H 534.565 -0.610263 -0.278962 0
M  V30 5797 H 537.109 -2.03247 -0.226035 0
M  V30 5798 H 535.264 -2.92077 -2.545 0
M  V30 5799 H 535.678 -4.9641 -1.69343 0
M  V30 5800 H 537.152 -4.41515 -3.31313 0
M  V30 5801 H 537.629 -2.72406 -3.44516 0
M  V30 5802 H 538.235 -3.70396 -2.09015 0
M  V30 5803 N 536.55 0.480323 -1.50102 0
M  V30 5804 C 537.78 1.25475 -1.64133 0
M  V30 5805 C 538.188 1.8647 -0.320272 0
M  V30 5806 O 537.531 1.69561 0.70673 0
M  V30 5807 C 537.593 2.40996 -2.6676 0
M  V30 5808 C 537.257 2.00711 -4.10565 0
M  V30 5809 C 538.254 1.53492 -4.96725 0
M  V30 5810 C 535.939 2.09714 -4.56427 0
M  V30 5811 C 537.933 1.15806 -6.26792 0
M  V30 5812 C 535.62 1.7164 -5.86501 0
M  V30 5813 C 536.618 1.24763 -6.71508 0
M  V30 5814 O 536.306 0.872122 -7.99155 0
M  V30 5815 H 536.038 0.385983 -0.554971 0
M  V30 5816 H 538.592 0.580848 -1.97016 0
M  V30 5817 H 536.822 3.11528 -2.291 0
M  V30 5818 H 538.511 3.02981 -2.70106 0
M  V30 5819 H 539.277 1.45966 -4.62514 0
M  V30 5820 H 535.156 2.4515 -3.90413 0
M  V30 5821 H 538.7 0.791465 -6.93096 0
M  V30 5822 H 534.597 1.78822 -6.20236 0
M  V30 5823 H 535.365 1.00178 -8.12346 0
M  V30 5824 N 538.028 1.39524 0.732853 0
M  V30 5825 C 539.277 1.36175 1.48792 0
M  V30 5826 C 539.59 -0.0388195 1.95561 0
M  V30 5827 O 540.796 -0.194899 2.708 0
M  V30 5828 C 539.252 2.39242 2.68871 0
M  V30 5829 C 538.86 3.85024 2.29042 0
M  V30 5830 C 540.604 2.44972 3.46683 0
M  V30 5831 C 538.511 4.79727 3.45856 0
M  V30 5832 H 537.441 0.506267 0.558757 0
M  V30 5833 H 540.092 1.65181 0.799226 0
M  V30 5834 H 538.474 2.0331 3.39825 0
M  V30 5835 H 539.648 4.30008 1.6562 0
M  V30 5836 H 537.963 3.82609 1.64316 0
M  V30 5837 H 540.56 3.12918 4.33574 0
M  V30 5838 H 540.903 1.4749 3.89297 0
M  V30 5839 H 541.436 2.79808 2.82759 0
M  V30 5840 H 538.175 5.78479 3.08289 0
M  V30 5841 H 537.695 4.39421 4.08251 0
M  V30 5842 H 539.374 4.98731 4.12161 0
M  V30 5843 N 539.506 -0.963266 1.24736 0
M  V30 5844 C 540.453 -2.05857 1.04363 0
M  V30 5845 C 541.423 -1.6604 -0.0444951 0
M  V30 5846 O 542.608 -1.90477 0.110999 0
M  V30 5847 C 539.748 -3.38745 0.659235 0
M  V30 5848 C 538.861 -3.9173 1.82131 0
M  V30 5849 C 537.996 -5.12906 1.38208 0
M  V30 5850 C 537.035 -5.58098 2.51382 0
M  V30 5851 N 536.172 -6.7049 2.08295 0
M  V30 5852 H 541.012 -2.22616 1.98107 0
M  V30 5853 H 538.549 -1.09103 0.986661 0
M  V30 5854 H 540.507 -4.15107 0.417371 0
M  V30 5855 H 539.137 -3.21898 -0.241201 0
M  V30 5856 H 538.189 -3.11966 2.17672 0
M  V30 5857 H 539.501 -4.21225 2.67153 0
M  V30 5858 H 538.655 -5.96657 1.09935 0
M  V30 5859 H 537.394 -4.85105 0.502456 0
M  V30 5860 H 536.399 -4.72917 2.80409 0
M  V30 5861 H 537.624 -5.87911 3.39909 0
M  V30 5862 H 535.57 -6.44416 1.22737 0
M  V30 5863 H 535.487 -6.99458 2.86869 0
M  V30 5864 H 536.755 -7.57672 1.83175 0
M  V30 5865 N 540.985 -1.06182 -1.16461 0
M  V30 5866 C 542.232 -0.777863 -1.86964 0
M  V30 5867 C 542.56 0.695602 -1.81636 0
M  V30 5868 O 541.815 1.52532 -1.22607 0
M  V30 5869 C 542.114 -1.21633 -3.36066 0
M  V30 5870 C 541.78 -2.69371 -3.61594 0
M  V30 5871 C 540.442 -3.09727 -3.6827 0
M  V30 5872 C 542.794 -3.64791 -3.7226 0
M  V30 5873 C 540.122 -4.44345 -3.83112 0
M  V30 5874 C 542.474 -4.99155 -3.88623 0
M  V30 5875 C 541.138 -5.39149 -3.93541 0
M  V30 5876 H 540.408 -0.28464 -0.68415 0
M  V30 5877 H 543.055 -1.33071 -1.37711 0
M  V30 5878 H 541.36 -0.582651 -3.87443 0
M  V30 5879 H 543.057 -0.973682 -3.88999 0
M  V30 5880 H 539.647 -2.37124 -3.57029 0
M  V30 5881 H 543.831 -3.34746 -3.66413 0
M  V30 5882 H 539.087 -4.74819 -3.85172 0
M  V30 5883 H 543.261 -5.72976 -3.95817 0
M  V30 5884 H 540.888 -6.43464 -4.04794 0
M  V30 5885 N 542.463 1.3308 -0.844243 0
M  V30 5886 C 543.712 1.96868 -0.438833 0
M  V30 5887 C 544.025 1.67599 1.00846 0
M  V30 5888 O 545.231 2.25043 1.51881 0
M  V30 5889 C 543.687 3.5234 -0.73377 0
M  V30 5890 C 543.295 3.90481 -2.1961 0
M  V30 5891 C 545.039 4.22653 -0.395574 0
M  V30 5892 C 542.946 5.38954 -2.43481 0
M  V30 5893 H 541.876 0.736749 -0.160364 0
M  V30 5894 H 544.527 1.51623 -1.03358 0
M  V30 5895 H 542.909 3.95941 -0.068589 0
M  V30 5896 H 544.083 3.57922 -2.90221 0
M  V30 5897 H 542.398 3.33165 -2.4978 0
M  V30 5898 H 544.995 5.31848 -0.551477 0
M  V30 5899 H 545.338 4.11004 0.661921 0
M  V30 5900 H 545.871 3.84601 -1.01621 0
M  V30 5901 H 542.61 5.55612 -3.47816 0
M  V30 5902 H 542.13 5.72954 -1.77437 0
M  V30 5903 H 543.809 6.05907 -2.26905 0
M  V30 5904 N 543.941 0.601185 1.45683 0
M  V30 5905 C 544.888 -0.121396 2.30481 0
M  V30 5906 C 545.858 -0.866232 1.41724 0
M  V30 5907 O 547.043 -0.85324 1.70659 0
M  V30 5908 C 544.183 -1.11704 3.26521 0
M  V30 5909 C 543.296 -0.373741 4.3038 0
M  V30 5910 C 542.431 -1.35854 5.13534 0
M  V30 5911 C 541.47 -0.602689 6.09126 0
M  V30 5912 N 540.607 -1.53645 6.85082 0
M  V30 5913 H 545.447 0.607732 2.91737 0
M  V30 5914 H 542.984 0.311502 1.43764 0
M  V30 5915 H 544.942 -1.70735 3.80664 0
M  V30 5916 H 543.572 -1.81366 2.67032 0
M  V30 5917 H 542.624 0.331962 3.78949 0
M  V30 5918 H 543.936 0.2163 4.98331 0
M  V30 5919 H 543.09 -2.02111 5.72046 0
M  V30 5920 H 541.829 -1.98251 4.45587 0
M  V30 5921 H 540.834 0.0735482 5.49751 0
M  V30 5922 H 542.059 0.0161467 6.79098 0
M  V30 5923 H 540.005 -2.14819 6.1983 0
M  V30 5924 H 539.922 -0.999688 7.49361 0
M  V30 5925 H 541.19 -2.1888 7.48139 0
M  V30 5926 N 545.419 -1.53889 0.339982 0
M  V30 5927 C 546.352 -2.21187 -0.561405 0
M  V30 5928 C 547.33 -1.19463 -1.10306 0
M  V30 5929 O 548.514 -1.48268 -1.164 0
M  V30 5930 C 545.641 -2.8865 -1.77198 0
M  V30 5931 C 544.687 -4.04232 -1.3601 0
M  V30 5932 S 545.52 -5.34129 -0.382909 0
M  V30 5933 C 546.676 -6.05094 -1.60039 0
M  V30 5934 H 546.909 -2.97298 0.0102092 0
M  V30 5935 H 544.442 -1.53901 0.124056 0
M  V30 5936 H 546.4 -3.28138 -2.4665 0
M  V30 5937 H 545.061 -2.12311 -2.3148 0
M  V30 5938 H 544.254 -4.50358 -2.2626 0
M  V30 5939 H 543.856 -3.66503 -0.745098 0
M  V30 5940 H 546.148 -6.2827 -2.53541 0
M  V30 5941 H 547.091 -6.98182 -1.18099 0
M  V30 5942 H 547.499 -5.35207 -1.79483 0
M  V30 5943 N 546.897 -0.0685191 -1.57451 0
M  V30 5944 C 548.127 0.609577 -1.97402 0
M  V30 5945 C 548.535 1.63882 -0.945489 0
M  V30 5946 O 547.878 1.8354 0.0766052 0
M  V30 5947 C 547.94 1.3385 -3.33653 0
M  V30 5948 C 547.604 0.463103 -4.54648 0
M  V30 5949 C 548.601 -0.277964 -5.19156 0
M  V30 5950 C 546.286 0.388941 -5.00792 0
M  V30 5951 C 548.28 -1.08145 -6.28159 0
M  V30 5952 C 545.967 -0.418217 -6.09667 0
M  V30 5953 C 546.965 -1.15208 -6.73213 0
M  V30 5954 O 546.653 -1.94594 -7.79993 0
M  V30 5955 H 546.385 0.170197 -0.654224 0
M  V30 5956 H 548.939 -0.13647 -2.04946 0
M  V30 5957 H 547.169 2.13055 -3.22714 0
M  V30 5958 H 548.858 1.90851 -3.58233 0
M  V30 5959 H 549.624 -0.230241 -4.84453 0
M  V30 5960 H 545.503 0.949769 -4.5111 0
M  V30 5961 H 549.047 -1.65476 -6.7769 0
M  V30 5962 H 544.944 -0.467515 -6.43805 0
M  V30 5963 H 545.712 -1.8699 -7.96854 0
M  V30 5964 N 548.375 1.56261 0.205012 0
M  V30 5965 C 549.338 1.92908 1.23771 0
M  V30 5966 C 550.338 0.809208 1.38955 0
M  V30 5967 O 551.528 1.07676 1.36936 0
M  V30 5968 C 548.66 2.19442 2.60879 0
M  V30 5969 H 549.853 2.85287 0.924728 0
M  V30 5970 H 547.406 1.49798 0.446125 0
M  V30 5971 H 548.141 1.29668 2.97248 0
M  V30 5972 H 547.926 3.0104 2.51232 0
M  V30 5973 H 549.416 2.48833 3.35368 0
M  V30 5974 N 549.853 -0.472356 1.50355 0
M  V30 5975 C 551.099 -1.22348 1.62488 0
M  V30 5976 C 551.454 -1.89711 0.320574 0
M  V30 5977 O 550.747 -1.79074 -0.68141 0
M  V30 5978 C 550.941 -2.29257 2.74182 0
M  V30 5979 C 550.77 -1.72383 4.15348 0
M  V30 5980 C 549.54 -1.52411 4.81766 0
M  V30 5981 C 551.738 -1.21949 4.99633 0
M  V30 5982 N 549.72 -0.907669 6.07153 0
M  V30 5983 C 551.091 -0.726191 6.15732 0
M  V30 5984 C 553.146 -1.10792 4.85417 0
M  V30 5985 C 551.849 -0.132322 7.19178 0
M  V30 5986 C 553.875 -0.52799 5.89038 0
M  V30 5987 C 553.237 -0.0450604 7.04386 0
M  V30 5988 H 549.336 -0.436631 0.648751 0
M  V30 5989 H 551.92 -0.525698 1.87469 0
M  V30 5990 H 550.091 -2.96464 2.50926 0
M  V30 5991 H 551.823 -2.9628 2.75681 0
M  V30 5992 H 548.578 -1.776 4.39039 0
M  V30 5993 H 549.002 -0.617897 6.74174 0
M  V30 5994 H 553.644 -1.46722 3.96525 0
M  V30 5995 H 551.362 0.239187 8.07746 0
M  V30 5996 H 554.948 -0.444046 5.80103 0
M  V30 5997 H 553.828 0.396659 7.83196 0
M  V30 5998 N 551.331 -1.39911 -0.725443 0
M  V30 5999 C 552.577 -1.37858 -1.48738 0
M  V30 6000 C 552.91 0.0224187 -1.94187 0
M  V30 6001 O 552.185 0.989204 -1.67466 0
M  V30 6002 C 552.468 -2.3594 -2.72038 0
M  V30 6003 C 552.321 -3.85023 -2.32546 0
M  V30 6004 C 553.64 -2.31704 -3.74167 0
M  V30 6005 H 550.759 -0.502074 -0.539528 0
M  V30 6006 H 553.401 -1.70974 -0.828728 0
M  V30 6007 H 551.551 -2.0783 -3.28236 0
M  V30 6008 H 553.223 -4.2392 -1.81905 0
M  V30 6009 H 551.466 -4.01334 -1.64661 0
M  V30 6010 H 552.137 -4.49152 -3.20884 0
M  V30 6011 H 554.613 -2.5658 -3.27576 0
M  V30 6012 H 553.489 -3.02395 -4.58092 0
M  V30 6013 H 553.75 -1.3253 -4.21768 0
M  V30 6014 N 552.809 0.956637 -1.25245 0
M  V30 6015 C 553.756 2.053 -1.05454 0
M  V30 6016 C 554.726 1.66062 0.0356889 0
M  V30 6017 O 555.911 1.90415 -0.121099 0
M  V30 6018 C 553.051 3.38391 -0.677191 0
M  V30 6019 C 552.164 3.90758 -1.84206 0
M  V30 6020 C 551.299 5.12165 -1.40926 0
M  V30 6021 C 550.338 5.56757 -2.54338 0
M  V30 6022 N 549.475 6.69376 -2.11848 0
M  V30 6023 H 554.315 2.21562 -1.99284 0
M  V30 6024 H 551.852 1.08578 -0.992434 0
M  V30 6025 H 553.81 4.1488 -0.43938 0
M  V30 6026 H 552.44 3.22021 0.224127 0
M  V30 6027 H 551.492 3.10808 -2.19323 0
M  V30 6028 H 552.804 4.19802 -2.69383 0
M  V30 6029 H 551.958 5.96065 -1.13098 0
M  V30 6030 H 550.697 4.84832 -0.528175 0
M  V30 6031 H 549.702 4.71423 -2.82913 0
M  V30 6032 H 550.927 5.861 -3.43022 0
M  V30 6033 H 548.873 6.43756 -1.26153 0
M  V30 6034 H 548.79 6.97927 -2.90574 0
M  V30 6035 H 550.058 7.5669 -1.87191 0
M  V30 6036 N 554.287 1.06798 1.15896 0
M  V30 6037 C 555.25 0.687328 2.18651 0
M  V30 6038 C 556.25 -0.269559 1.58524 0
M  V30 6039 O 557.44 -0.0512627 1.74125 0
M  V30 6040 C 554.572 0.0121642 3.40898 0
M  V30 6041 H 555.765 1.59701 2.53842 0
M  V30 6042 H 553.318 0.863828 1.3026 0
M  V30 6043 H 554.053 -0.910025 3.1127 0
M  V30 6044 H 553.838 0.700309 3.85795 0
M  V30 6045 H 555.328 -0.239703 4.16911 0
M  V30 6046 N 555.766 -1.3263 0.851289 0
M  V30 6047 C 557.013 -1.97368 0.453023 0
M  V30 6048 C 557.341 -1.67384 -0.990596 0
M  V30 6049 O 556.596 -0.952665 -1.70947 0
M  V30 6050 C 556.895 -3.51713 0.635015 0
M  V30 6051 C 556.561 -4.01676 2.04859 0
M  V30 6052 C 555.223 -4.15031 2.43522 0
M  V30 6053 C 557.575 -4.28206 2.97135 0
M  V30 6054 C 554.903 -4.52257 3.73739 0
M  V30 6055 C 557.255 -4.66889 4.26846 0
M  V30 6056 C 555.919 -4.7845 4.65448 0
M  V30 6057 H 555.189 -0.722219 0.165773 0
M  V30 6058 H 557.836 -1.58092 1.0807 0
M  V30 6059 H 556.141 -3.91726 -0.0759081 0
M  V30 6060 H 557.838 -3.99823 0.306964 0
M  V30 6061 H 554.428 -3.91764 1.73836 0
M  V30 6062 H 558.612 -4.174 2.68498 0
M  V30 6063 H 553.868 -4.59402 4.03435 0
M  V30 6064 H 558.042 -4.86372 4.98413 0
M  V30 6065 H 555.669 -5.07052 5.66395 0
M  V30 6066 N 557.244 -0.608902 -1.45362 0
M  V30 6067 C 558.469 -0.10921 -2.07112 0
M  V30 6068 C 558.894 1.19779 -1.45033 0
M  V30 6069 O 558.252 1.72961 -0.543527 0
M  V30 6070 C 558.3 0.0155745 -3.60597 0
M  V30 6071 O 557.404 1.06546 -3.98399 0
M  V30 6072 H 556.745 -0.0746619 -0.659789 0
M  V30 6073 H 559.275 -0.839283 -1.86594 0
M  V30 6074 H 559.285 0.213364 -4.07442 0
M  V30 6075 H 557.96 -0.938765 -4.05167 0
M  V30 6076 H 556.537 0.844024 -3.63223 0
M  V30 6077 N 558.722 1.53707 -0.348139 0
M  V30 6078 C 559.654 2.22725 0.540946 0
M  V30 6079 C 560.667 1.2354 1.06027 0
M  V30 6080 O 561.856 1.49867 0.96964 0
M  V30 6081 C 558.956 2.89756 1.75768 0
M  V30 6082 C 558.129 4.15297 1.37285 0
M  V30 6083 C 557.188 4.65697 2.44976 0
M  V30 6084 O 556.214 5.29798 2.08092 0
M  V30 6085 N 557.416 4.42017 3.763 0
M  V30 6086 H 560.181 2.99658 -0.0501592 0
M  V30 6087 H 557.742 1.60979 -0.17248 0
M  V30 6088 H 559.734 3.20388 2.47252 0
M  V30 6089 H 558.304 2.16382 2.25605 0
M  V30 6090 H 557.524 3.9116 0.488584 0
M  V30 6091 H 558.812 4.96948 1.09179 0
M  V30 6092 H 558.21 3.9076 4.09051 0
M  V30 6093 H 556.767 4.77242 4.4394 0
M  V30 6094 N 560.2 0.0768682 1.57412 0
M  V30 6095 C 561.425 -0.603404 1.98428 0
M  V30 6096 C 561.85 -1.62047 0.955108 0
M  V30 6097 O 561.208 -1.81129 -0.0786778 0
M  V30 6098 C 561.256 -1.24396 3.38464 0
M  V30 6099 O 560.36 -2.35982 3.3821 0
M  V30 6100 H 559.701 -0.154741 0.645718 0
M  V30 6101 H 562.231 0.152885 2.04028 0
M  V30 6102 H 562.241 -1.5896 3.7576 0
M  V30 6103 H 560.916 -0.498735 4.12899 0
M  V30 6104 H 559.493 -2.03173 3.1269 0
M  V30 6105 N 561.678 -1.56367 -0.196722 0
M  V30 6106 C 562.924 -1.80796 -0.918725 0
M  V30 6107 C 563.257 -0.650645 -1.82976 0
M  V30 6108 O 562.532 0.348889 -1.91345 0
M  V30 6109 C 562.815 -3.15472 -1.73636 0
M  V30 6110 C 562.668 -4.41693 -0.85015 0
M  V30 6111 C 563.987 -3.46824 -2.70927 0
M  V30 6112 H 561.106 -0.657702 -0.332561 0
M  V30 6113 H 563.748 -1.89086 -0.186186 0
M  V30 6114 H 561.898 -3.08536 -2.36088 0
M  V30 6115 H 563.57 -4.60673 -0.240459 0
M  V30 6116 H 561.813 -4.33517 -0.156785 0
M  V30 6117 H 562.484 -5.32419 -1.45719 0
M  V30 6118 H 564.96 -3.54049 -2.18607 0
M  V30 6119 H 563.836 -4.4218 -3.25219 0
M  V30 6120 H 564.097 -2.70236 -3.49893 0
M  V30 6121 N 563.156 0.464375 -1.50603 0
M  V30 6122 C 564.088 1.57916 -1.66118 0
M  V30 6123 C 565.101 1.53497 -0.54246 0
M  V30 6124 O 566.29 1.58763 -0.815877 0
M  V30 6125 C 563.39 2.96809 -1.63577 0
M  V30 6126 C 562.563 3.26026 -2.91592 0
M  V30 6127 C 561.622 4.44506 -2.81604 0
M  V30 6128 O 560.648 4.44484 -3.55559 0
M  V30 6129 N 561.85 5.46549 -1.95614 0
M  V30 6130 H 564.615 1.45022 -2.62276 0
M  V30 6131 H 562.176 0.652903 -1.48151 0
M  V30 6132 H 564.168 3.74048 -1.54499 0
M  V30 6133 H 562.738 3.03438 -0.751262 0
M  V30 6134 H 561.958 2.37337 -3.14746 0
M  V30 6135 H 563.246 3.42361 -3.76386 0
M  V30 6136 H 562.644 5.49391 -1.34854 0
M  V30 6137 H 561.201 6.22746 -1.92435 0
M  V30 6138 N 564.634 1.40294 0.718013 0
M  V30 6139 C 565.581 1.40367 1.8321 0
M  V30 6140 C 566.551 0.260952 1.64037 0
M  V30 6141 O 567.736 0.458648 1.85205 0
M  V30 6142 C 564.876 1.26965 3.20895 0
M  V30 6143 C 563.989 2.50922 3.51656 0
M  V30 6144 C 563.124 2.29981 4.78834 0
M  V30 6145 C 562.163 3.49527 5.02491 0
M  V30 6146 N 561.3 3.27796 6.20882 0
M  V30 6147 H 566.14 2.35593 1.82482 0
M  V30 6148 H 563.677 1.17012 0.891444 0
M  V30 6149 H 565.635 1.17202 4.00399 0
M  V30 6150 H 564.265 0.353591 3.20858 0
M  V30 6151 H 563.317 2.71223 2.66725 0
M  V30 6152 H 564.629 3.39913 3.65048 0
M  V30 6153 H 563.783 2.17558 5.66351 0
M  V30 6154 H 562.522 1.38411 4.67647 0
M  V30 6155 H 561.527 3.6243 4.1343 0
M  V30 6156 H 562.752 4.42021 5.15553 0
M  V30 6157 H 560.698 2.38906 6.1095 0
M  V30 6158 H 560.615 4.10351 6.34939 0
M  V30 6159 H 561.883 3.19101 7.11193 0
M  V30 6160 N 566.112 -0.949982 1.2575 0
M  V30 6161 C 567.361 -1.68956 1.10168 0
M  V30 6162 C 567.674 -1.92327 -0.356309 0
M  V30 6163 O 568.88 -2.64026 -0.632657 0
M  V30 6164 C 567.336 -3.04196 1.92336 0
M  V30 6165 C 566.944 -2.88603 3.42655 0
M  V30 6166 C 568.688 -3.81904 1.85336 0
M  V30 6167 C 566.595 -4.19262 4.17101 0
M  V30 6168 H 565.525 -0.633645 0.408668 0
M  V30 6169 H 568.176 -1.05719 1.49986 0
M  V30 6170 H 566.558 -3.68363 1.45344 0
M  V30 6171 H 567.732 -2.3334 3.97353 0
M  V30 6172 H 566.047 -2.24345 3.50796 0
M  V30 6173 H 568.644 -4.78688 2.38248 0
M  V30 6174 H 568.987 -4.08099 0.822226 0
M  V30 6175 H 569.52 -3.24495 2.30104 0
M  V30 6176 H 566.259 -3.98254 5.20648 0
M  V30 6177 H 565.779 -4.74273 3.67186 0
M  V30 6178 H 567.458 -4.87775 4.25071 0
M  V30 6179 N 567.59 -1.07411 -1.15328 0
M  V30 6180 C 569.006 -0.799759 -1.38116 0
M  V30 6181 C 569.206 0.59572 -1.92493 0
M  V30 6182 O 568.262 1.35433 -2.13106 0
M  V30 6183 C 569.575 -1.87407 -2.35158 0
M  V30 6184 C 571.123 -1.89889 -2.48819 0
M  V30 6185 C 571.598 -2.96406 -3.49153 0
M  V30 6186 N 573.089 -2.95512 -3.56689 0
M  V30 6187 C 573.824 -3.74575 -4.34144 0
M  V30 6188 N 573.32 -4.63488 -5.14928 0
M  V30 6189 N 575.113 -3.62919 -4.29239 0
M  V30 6190 H 567.264 -1.97411 -0.78374 0
M  V30 6191 H 569.527 -0.856113 -0.407154 0
M  V30 6192 H 569.233 -2.8768 -2.0232 0
M  V30 6193 H 569.107 -1.73471 -3.34944 0
M  V30 6194 H 571.494 -0.902677 -2.80955 0
M  V30 6195 H 571.575 -2.07904 -1.49029 0
M  V30 6196 H 571.219 -3.96227 -3.17752 0
M  V30 6197 H 571.149 -2.75638 -4.48699 0
M  V30 6198 H 573.64 -2.31061 -2.99031 0
M  V30 6199 H 573.953 -5.20445 -5.71276 0
M  V30 6200 H 572.298 -4.67537 -5.14232 0
M  V30 6201 H 575.489 -2.92833 -3.65194 0
M  V30 6202 H 575.662 -4.24777 -4.89355 0
M  V30 6203 N 569.068 1.32177 -0.85831 0
M  V30 6204 C 569.978 2.32561 -0.308606 0
M  V30 6205 C 570.994 1.64209 0.575462 0
M  V30 6206 O 572.17 1.95719 0.474961 0
M  V30 6207 C 569.235 3.43207 0.490909 0
M  V30 6208 C 568.296 4.27243 -0.419733 0
M  V30 6209 C 567.529 5.32605 0.341719 0
M  V30 6210 O 567.752 5.48332 1.57125 0
M  V30 6211 O 566.686 6.0118 -0.294379 0
M  V30 6212 H 570.512 2.81477 -1.14037 0
M  V30 6213 H 568.097 1.35866 -0.621349 0
M  V30 6214 H 569.979 4.10677 0.944574 0
M  V30 6215 H 568.654 2.96474 1.29941 0
M  V30 6216 H 567.561 3.62569 -0.921652 0
M  V30 6217 H 568.894 4.7751 -1.19352 0
M  V30 6218 N 570.547 0.616602 1.45037 0
M  V30 6219 C 571.457 -0.0985401 2.34393 0
M  V30 6220 C 572.473 -0.850971 1.51771 0
M  V30 6221 O 573.649 -0.806521 1.84546 0
M  V30 6222 C 570.714 -1.07748 3.29532 0
M  V30 6223 C 569.775 -0.326022 4.2806 0
M  V30 6224 C 569.008 -1.25833 5.18654 0
M  V30 6225 O 569.231 -2.49652 5.12864 0
M  V30 6226 O 568.165 -0.750512 5.97203 0
M  V30 6227 H 571.991 0.636016 2.96966 0
M  V30 6228 H 569.576 0.376832 1.44569 0
M  V30 6229 H 571.458 -1.64107 3.88133 0
M  V30 6230 H 570.133 -1.79291 2.69512 0
M  V30 6231 H 569.04 0.280253 3.73049 0
M  V30 6232 H 570.373 0.349091 4.9096 0
M  V30 6233 N 572.025 -1.5352 0.356285 0
M  V30 6234 C 572.935 -2.29151 -0.502712 0
M  V30 6235 C 573.951 -1.34753 -1.1008 0
M  V30 6236 O 575.127 -1.67803 -1.11374 0
M  V30 6237 C 572.192 -3.05911 -1.63154 0
M  V30 6238 C 571.253 -4.15958 -1.06194 0
M  V30 6239 C 570.486 -4.8905 -2.13696 0
M  V30 6240 O 570.709 -4.61919 -3.34645 0
M  V30 6241 O 569.643 -5.75202 -1.77275 0
M  V30 6242 H 573.469 -3.03492 0.112466 0
M  V30 6243 H 571.054 -1.4891 0.120942 0
M  V30 6244 H 572.936 -3.53874 -2.28804 0
M  V30 6245 H 571.611 -2.34415 -2.23229 0
M  V30 6246 H 570.518 -3.7227 -0.369603 0
M  V30 6247 H 571.851 -4.89593 -0.505872 0
M  V30 6248 N 573.503 -0.0852151 -1.57369 0
M  V30 6249 C 574.919 0.271436 -1.57275 0
M  V30 6250 C 575.119 1.69109 -1.09565 0
M  V30 6251 O 574.175 2.40549 -0.767611 0
M  V30 6252 C 575.488 0.0688638 -3.00621 0
M  V30 6253 C 577.036 0.137373 -3.12698 0
M  V30 6254 C 577.511 -0.0370832 -4.57985 0
M  V30 6255 N 579.002 0.0180794 -4.63196 0
M  V30 6256 C 579.737 -0.0922953 -5.73326 0
M  V30 6257 N 579.233 -0.256948 -6.92323 0
M  V30 6258 N 581.026 -0.0342702 -5.6209 0
M  V30 6259 H 573.177 -1.01288 -1.86693 0
M  V30 6260 H 575.44 -0.396138 -0.861266 0
M  V30 6261 H 575.146 -0.911277 -3.39689 0
M  V30 6262 H 575.02 0.815442 -3.6828 0
M  V30 6263 H 577.407 1.10801 -2.73509 0
M  V30 6264 H 577.488 -0.640532 -2.47651 0
M  V30 6265 H 577.132 -1.00455 -4.97867 0
M  V30 6266 H 577.062 0.760392 -5.21081 0
M  V30 6267 H 579.553 0.143202 -3.77629 0
M  V30 6268 H 579.866 -0.332949 -7.72082 0
M  V30 6269 H 578.211 -0.292487 -6.94384 0
M  V30 6270 H 581.402 0.0931605 -4.68007 0
M  V30 6271 H 581.575 -0.12374 -6.47882 0
M  V30 6272 N 574.981 1.5647 0.188427 0
M  V30 6273 C 576.397 1.50204 0.539532 0
M  V30 6274 C 576.597 0.78644 1.85519 0
M  V30 6275 O 575.653 0.339714 2.50204 0
M  V30 6276 C 576.966 2.94893 0.588103 0
M  V30 6277 C 578.514 3.05602 0.67648 0
M  V30 6278 C 578.989 4.51716 0.756101 0
M  V30 6279 N 580.48 4.55894 0.819451 0
M  V30 6280 C 581.215 5.66272 0.90134 0
M  V30 6281 N 580.711 6.86323 0.945118 0
M  V30 6282 N 582.504 5.54201 0.939043 0
M  V30 6283 H 574.655 2.01406 -0.674493 0
M  V30 6284 H 576.918 0.916828 -0.241103 0
M  V30 6285 H 576.624 3.50334 -0.309633 0
M  V30 6286 H 576.498 3.4861 1.44051 0
M  V30 6287 H 578.885 2.50206 1.56465 0
M  V30 6288 H 578.966 2.54999 -0.202262 0
M  V30 6289 H 578.61 5.07739 -0.12774 0
M  V30 6290 H 578.54 5.00058 1.65074 0
M  V30 6291 H 581.031 3.69452 0.794594 0
M  V30 6292 H 581.344 7.66194 1.0083 0
M  V30 6293 H 579.689 6.88968 0.913683 0
M  V30 6294 H 582.88 4.59333 0.901725 0
M  V30 6295 H 583.053 6.40247 0.999402 0
M  V30 6296 N 576.459 -0.456382 1.50847 0
M  V30 6297 C 577.708 -1.2042 1.61808 0
M  V30 6298 C 578.021 -1.9278 0.330932 0
M  V30 6299 O 579.227 -2.69612 0.319643 0
M  V30 6300 C 577.683 -2.18891 2.85683 0
M  V30 6301 C 577.291 -1.52267 4.2133 0
M  V30 6302 C 579.035 -2.94224 3.05994 0
M  V30 6303 C 576.942 -2.4911 5.36375 0
M  V30 6304 H 575.872 -0.453177 0.602616 0
M  V30 6305 H 578.523 -0.473144 1.77295 0
M  V30 6306 H 576.905 -2.95351 2.63787 0
M  V30 6307 H 578.079 -0.814949 4.53536 0
M  V30 6308 H 576.394 -0.891594 4.06743 0
M  V30 6309 H 578.991 -3.66732 3.89117 0
M  V30 6310 H 579.334 -3.54469 2.18306 0
M  V30 6311 H 579.867 -2.24874 3.28141 0
M  V30 6312 H 576.606 -1.93582 6.26264 0
M  V30 6313 H 576.126 -3.17991 5.08569 0
M  V30 6314 H 577.805 -3.10637 5.67551 0
M  V30 6315 N 577.937 -1.40673 -0.710563 0
M  V30 6316 C 578.867 -1.44095 -1.83736 0
M  V30 6317 C 579.848 -0.301286 -1.67411 0
M  V30 6318 O 581.033 -0.510618 -1.87367 0
M  V30 6319 C 578.163 -1.30773 -3.21738 0
M  V30 6320 C 577.117 -2.42395 -3.52745 0
M  V30 6321 C 576.443 -2.14147 -4.89944 0
M  V30 6322 C 577.743 -3.84738 -3.53234 0
M  V30 6323 H 579.437 -2.38396 -1.81129 0
M  V30 6324 H 576.983 -1.14746 -0.870017 0
M  V30 6325 H 578.936 -1.31783 -4.00264 0
M  V30 6326 H 577.66 -0.329507 -3.24934 0
M  V30 6327 H 576.319 -2.40643 -2.76562 0
M  V30 6328 H 575.967 -1.14703 -4.89747 0
M  V30 6329 H 575.667 -2.88934 -5.11655 0
M  V30 6330 H 577.191 -2.16848 -5.70797 0
M  V30 6331 H 578.605 -3.88286 -4.2179 0
M  V30 6332 H 577.002 -4.59085 -3.86473 0
M  V30 6333 H 578.072 -4.13962 -2.52514 0
M  V30 6334 N 579.415 0.9433 -1.26252 0
M  V30 6335 C 580.325 2.07532 -1.09397 0
M  V30 6336 C 581.341 1.73977 -0.0280449 0
M  V30 6337 O 582.517 2.00067 -0.231337 0
M  V30 6338 C 579.582 3.39002 -0.726523 0
M  V30 6339 C 578.643 3.86353 -1.87163 0
M  V30 6340 C 577.876 5.11549 -1.52162 0
M  V30 6341 O 578.099 5.68834 -0.422385 0
M  V30 6342 O 577.033 5.53889 -2.35565 0
M  V30 6343 H 580.859 2.24658 -2.04359 0
M  V30 6344 H 578.444 1.05988 -1.05295 0
M  V30 6345 H 580.326 4.18 -0.534236 0
M  V30 6346 H 579.001 3.2312 0.193721 0
M  V30 6347 H 577.908 3.0831 -2.11886 0
M  V30 6348 H 579.241 4.06752 -2.77152 0
M  V30 6349 N 580.893 1.08022 1.14757 0
M  V30 6350 C 581.84 0.706657 2.19716 0
M  V30 6351 C 582.81 -0.30525 1.63271 0
M  V30 6352 O 583.995 -0.19015 1.8985 0
M  V30 6353 C 581.135 0.117914 3.44898 0
M  V30 6354 C 580.248 1.18212 4.15512 0
M  V30 6355 C 579.383 0.557659 5.28265 0
M  V30 6356 C 578.422 1.60418 5.90705 0
M  V30 6357 N 577.559 1.0018 6.94916 0
M  V30 6358 H 582.399 1.60603 2.51019 0
M  V30 6359 H 579.936 0.802664 1.23271 0
M  V30 6360 H 581.894 -0.241112 4.16503 0
M  V30 6361 H 580.524 -0.744788 3.1409 0
M  V30 6362 H 579.576 1.65863 3.42335 0
M  V30 6363 H 580.888 1.97533 4.5802 0
M  V30 6364 H 580.042 0.146654 6.06523 0
M  V30 6365 H 578.781 -0.267249 4.86967 0
M  V30 6366 H 577.786 2.02489 5.11154 0
M  V30 6367 H 579.011 2.43149 6.34078 0
M  V30 6368 H 576.957 0.197917 6.55701 0
M  V30 6369 H 576.874 1.73216 7.35889 0
M  V30 6370 H 578.142 0.616523 7.77058 0
M  V30 6371 N 582.371 -1.3172 0.865308 0
M  V30 6372 C 583.334 -2.26918 0.322627 0
M  V30 6373 C 584.334 -1.52031 -0.523751 0
M  V30 6374 O 585.524 -1.70973 -0.333727 0
M  V30 6375 C 582.656 -3.36558 -0.542338 0
M  V30 6376 H 583.849 -2.76432 1.16298 0
M  V30 6377 H 581.402 -1.42573 0.640512 0
M  V30 6378 H 582.137 -2.92329 -1.40407 0
M  V30 6379 H 581.922 -3.92048 0.0636395 0
M  V30 6380 H 583.412 -4.07465 -0.91446 0
M  V30 6381 N 583.85 -0.624285 -1.44708 0
M  V30 6382 C 585.098 -0.125802 -2.01708 0
M  V30 6383 C 585.418 1.2543 -1.49306 0
M  V30 6384 O 584.689 1.83198 -0.693924 0
M  V30 6385 H 583.269 -0.0435161 -0.745731 0
M  V30 6386 H 585.931 -0.809446 -1.77296 0
M  V30 6387 H 585.027 -0.0882734 -3.11975 0
M  V30 6388 N 585.328 1.53329 -0.364422 0
M  V30 6389 C 586.558 2.05359 0.226096 0
M  V30 6390 C 586.966 1.23777 1.43094 0
M  V30 6391 O 586.309 0.271139 1.81688 0
M  V30 6392 C 586.371 3.52918 0.684794 0
M  V30 6393 C 586.035 4.55218 -0.403206 0
M  V30 6394 C 587.032 5.04583 -1.2527 0
M  V30 6395 C 584.717 4.99134 -0.563117 0
M  V30 6396 C 586.711 5.96463 -2.24745 0
M  V30 6397 C 584.398 5.9082 -1.56124 0
M  V30 6398 C 585.396 6.39375 -2.40184 0
M  V30 6399 O 585.084 7.29255 -3.38293 0
M  V30 6400 H 584.816 0.674588 0.0436772 0
M  V30 6401 H 587.37 1.98688 -0.520782 0
M  V30 6402 H 585.6 3.57122 1.48326 0
M  V30 6403 H 587.289 3.87812 1.19818 0
M  V30 6404 H 588.055 4.71403 -1.14034 0
M  V30 6405 H 583.934 4.60928 0.0813909 0
M  V30 6406 H 587.478 6.34285 -2.90393 0
M  V30 6407 H 583.375 6.23414 -1.67407 0
M  V30 6408 H 584.143 7.47249 -3.34009 0
M  V30 6409 N 586.806 0.0935595 1.57322 0
M  V30 6410 C 588.053 -0.570509 1.94297 0
M  V30 6411 C 588.381 -1.68286 0.97519 0
M  V30 6412 O 587.636 -1.95699 -0.00548655 0
M  V30 6413 C 587.935 -1.16692 3.37813 0
M  V30 6414 C 587.601 -0.178509 4.50547 0
M  V30 6415 C 586.263 0.0933475 4.81109 0
M  V30 6416 C 588.615 0.496472 5.1883 0
M  V30 6417 C 585.943 1.0469 5.77284 0
M  V30 6418 C 588.295 1.43849 6.16028 0
M  V30 6419 C 586.959 1.71859 6.44997 0
M  V30 6420 H 586.229 -0.208764 0.710984 0
M  V30 6421 H 588.876 0.169066 1.90752 0
M  V30 6422 H 587.181 -1.98271 3.37929 0
M  V30 6423 H 588.878 -1.6884 3.63722 0
M  V30 6424 H 585.468 -0.400584 4.26724 0
M  V30 6425 H 589.652 0.299584 4.95395 0
M  V30 6426 H 584.908 1.27094 5.98044 0
M  V30 6427 H 589.082 1.96734 6.68034 0
M  V30 6428 H 586.709 2.45906 7.19329 0
M  V30 6429 N 588.284 -1.56567 -0.180126 0
M  V30 6430 C 589.216 -1.92275 -1.24751 0
M  V30 6431 C 590.229 -0.814922 -1.40936 0
M  V30 6432 O 591.418 -1.09336 -1.41095 0
M  V30 6433 C 588.518 -2.15265 -2.61752 0
M  V30 6434 C 587.691 -3.46467 -2.66981 0
M  V30 6435 C 586.75 -3.58391 -3.85283 0
M  V30 6436 O 585.776 -4.31086 -3.7169 0
M  V30 6437 N 586.978 -2.92587 -5.01371 0
M  V30 6438 H 589.743 -2.84435 -0.944302 0
M  V30 6439 H 587.304 -1.57617 -0.369952 0
M  V30 6440 H 589.296 -2.20515 -3.39345 0
M  V30 6441 H 587.866 -1.29533 -2.845 0
M  V30 6442 H 587.086 -3.52953 -1.75549 0
M  V30 6443 H 588.374 -4.32819 -2.67479 0
M  V30 6444 H 587.772 -2.3338 -5.15316 0
M  V30 6445 H 586.329 -3.03444 -5.76858 0
M  V30 6446 N 589.762 0.448376 -1.51087 0
M  V30 6447 C 590.987 1.22605 -1.6728 0
M  V30 6448 C 591.412 1.84524 -0.365045 0
M  V30 6449 O 590.77 1.6832 0.673642 0
M  V30 6450 C 590.818 2.29393 -2.78229 0
M  V30 6451 O 589.922 3.34608 -2.41063 0
M  V30 6452 H 589.263 0.359705 -0.558129 0
M  V30 6453 H 591.793 0.530903 -1.97592 0
M  V30 6454 H 591.803 2.74352 -3.01986 0
M  V30 6455 H 590.478 1.83701 -3.73131 0
M  V30 6456 H 589.055 2.95202 -2.27838 0
M  V30 6457 N 591.24 1.41047 0.703093 0
M  V30 6458 C 592.489 1.39301 1.4587 0
M  V30 6459 C 592.802 0.00267077 1.956 0
M  V30 6460 O 594.008 -0.137414 2.71152 0
M  V30 6461 C 592.464 2.44891 2.63735 0
M  V30 6462 C 592.072 3.89796 2.20824 0
M  V30 6463 C 593.816 2.5227 3.41409 0
M  V30 6464 C 591.723 4.86955 3.35602 0
M  V30 6465 H 590.653 0.518005 0.547893 0
M  V30 6466 H 593.304 1.66839 0.764009 0
M  V30 6467 H 591.686 2.10472 3.35436 0
M  V30 6468 H 592.86 4.33424 1.56461 0
M  V30 6469 H 591.175 3.86008 1.56163 0
M  V30 6470 H 593.772 3.22044 4.26839 0
M  V30 6471 H 594.115 1.55714 3.86081 0
M  V30 6472 H 594.648 2.85742 2.7676 0
M  V30 6473 H 591.387 5.84888 2.9595 0
M  V30 6474 H 590.907 4.47982 3.98839 0
M  V30 6475 H 592.586 5.07361 4.01489 0
M  V30 6476 N 592.718 -0.936591 1.26751 0
M  V30 6477 C 593.946 -1.71758 1.15355 0
M  V30 6478 C 594.361 -1.86549 -0.290683 0
M  V30 6479 O 593.718 -1.37616 -1.19868 0
M  V30 6480 C 593.769 -3.12193 1.82258 0
M  V30 6481 O 593.49 -2.98105 3.21038 0
M  V30 6482 C 594.991 -4.06485 1.76875 0
M  V30 6483 H 592.211 -0.537636 0.401483 0
M  V30 6484 H 594.755 -1.17382 1.67457 0
M  V30 6485 H 592.91 -3.63456 1.34083 0
M  V30 6486 H 593.324 -3.86824 3.54214 0
M  V30 6487 H 594.798 -5.02569 2.28316 0
M  V30 6488 H 595.275 -4.32986 0.736216 0
M  V30 6489 H 595.881 -3.61144 2.24623 0
M  V30 6490 N 594.196 -1.08629 -1.14182 0
M  V30 6491 C 595.442 -0.818556 -1.85546 0
M  V30 6492 C 595.775 0.654076 -1.82854 0
M  V30 6493 O 595.05 1.48099 -1.26083 0
M  V30 6494 C 595.333 -1.34397 -3.3408 0
M  V30 6495 C 595.186 -2.8821 -3.45333 0
M  V30 6496 C 596.505 -0.971069 -4.29253 0
M  V30 6497 H 593.624 -0.298821 -0.673702 0
M  V30 6498 H 596.266 -1.34629 -1.34071 0
M  V30 6499 H 594.416 -0.895064 -3.78049 0
M  V30 6500 H 596.088 -3.41488 -3.10134 0
M  V30 6501 H 594.331 -3.25756 -2.86471 0
M  V30 6502 H 595.002 -3.20047 -4.49749 0
M  V30 6503 H 597.478 -1.35809 -3.93313 0
M  V30 6504 H 596.354 -1.36586 -5.31635 0
M  V30 6505 H 596.615 0.121659 -4.41933 0
M  V30 6506 N 595.674 1.31259 -0.872281 0
M  V30 6507 C 596.922 1.96233 -0.483409 0
M  V30 6508 C 597.243 1.69276 0.968012 0
M  V30 6509 O 596.513 1.00943 1.67891 0
M  V30 6510 H 595.093 0.726025 -0.175774 0
M  V30 6511 H 597.755 1.60024 -1.11258 0
M  V30 6512 H 596.851 3.05403 -0.643075 0
M  V30 6513 N 597.152 0.631951 1.44375 0
M  V30 6514 C 598.398 0.13697 2.02337 0
M  V30 6515 C 598.731 -1.23826 1.49602 0
M  V30 6516 O 598.006 -1.8221 0.680415 0
M  V30 6517 C 598.289 0.124536 3.59885 0
M  V30 6518 C 598.142 1.53217 4.229 0
M  V30 6519 C 599.461 -0.550481 4.36644 0
M  V30 6520 H 596.58 0.051247 0.735216 0
M  V30 6521 H 599.222 0.808581 1.71936 0
M  V30 6522 H 597.372 -0.44737 3.85916 0
M  V30 6523 H 599.044 2.15303 4.07973 0
M  V30 6524 H 597.287 2.0858 3.80364 0
M  V30 6525 H 597.958 1.4755 5.31914 0
M  V30 6526 H 600.434 -0.0641154 4.16051 0
M  V30 6527 H 599.31 -0.528371 5.46351 0
M  V30 6528 H 599.571 -1.62097 4.11311 0
M  V30 6529 N 598.631 -1.53133 0.372548 0
M  V30 6530 C 599.594 -2.24569 -0.458389 0
M  V30 6531 C 600.594 -1.25603 -1.00402 0
M  V30 6532 O 601.784 -1.49827 -0.888672 0
M  V30 6533 C 598.916 -2.98783 -1.6414 0
M  V30 6534 H 600.109 -2.99436 0.166799 0
M  V30 6535 H 597.662 -1.55805 0.124357 0
M  V30 6536 H 598.397 -2.28176 -2.30448 0
M  V30 6537 H 598.182 -3.71404 -1.25704 0
M  V30 6538 H 599.672 -3.53068 -2.23008 0
M  V30 6539 N 600.109 -0.101901 -1.5727 0
M  V30 6540 C 601.52 0.426173 -1.81771 0
M  V30 6541 C 601.871 1.67725 -1.01797 0
M  V30 6542 O 600.996 2.14958 -0.249386 0
M  V30 6543 C 601.591 0.779962 -3.297 0
M  V30 6544 C 600.15 1.25275 -3.54941 0
M  V30 6545 C 599.297 0.252814 -2.76145 0
M  V30 6546 H 602.248 -0.32726 -1.55289 0
M  V30 6547 H 602.269 1.63891 -3.43395 0
M  V30 6548 H 601.781 -0.130778 -3.8788 0
M  V30 6549 H 599.882 2.18097 -3.021 0
M  V30 6550 H 599.995 1.20988 -4.63572 0
M  V30 6551 H 598.359 0.736362 -2.43823 0
M  V30 6552 H 599.142 -0.650724 -3.37076 0
M  V30 6553 N 601.587 1.56661 0.17182 0
M  V30 6554 C 602.836 1.81158 0.886831 0
M  V30 6555 C 603.149 0.679072 1.83434 0
M  V30 6556 O 604.355 0.808964 2.59168 0
M  V30 6557 C 602.811 3.20999 1.6275 0
M  V30 6558 C 602.419 4.42117 0.723652 0
M  V30 6559 C 604.163 3.5479 2.33076 0
M  V30 6560 C 602.07 5.7298 1.46452 0
M  V30 6561 H 601 0.675543 0.334899 0
M  V30 6562 H 603.651 1.82967 0.139765 0
M  V30 6563 H 602.033 3.13506 2.4193 0
M  V30 6564 H 603.207 4.60789 -0.0311485 0
M  V30 6565 H 601.522 4.16197 0.130063 0
M  V30 6566 H 604.119 4.49806 2.89099 0
M  V30 6567 H 604.462 2.79646 3.08389 0
M  V30 6568 H 604.995 3.63834 1.6084 0
M  V30 6569 H 601.734 6.51152 0.753729 0
M  V30 6570 H 601.254 5.58285 2.19266 0
M  V30 6571 H 602.933 6.14916 2.01214 0
M  V30 6572 N 603.065 -0.440357 1.51323 0
M  V30 6573 C 604.311 -1.19181 1.64085 0
M  V30 6574 C 604.644 -1.90936 0.354575 0
M  V30 6575 O 603.919 -1.8347 -0.645675 0
M  V30 6576 C 604.202 -2.2112 2.84215 0
M  V30 6577 C 604.055 -1.53468 4.22809 0
M  V30 6578 C 605.374 -3.22133 2.99864 0
M  V30 6579 H 602.493 -0.431924 0.597169 0
M  V30 6580 H 605.135 -0.481443 1.83799 0
M  V30 6581 H 603.285 -2.81703 2.67537 0
M  V30 6582 H 604.957 -0.962455 4.51148 0
M  V30 6583 H 603.2 -0.837086 4.25647 0
M  V30 6584 H 603.871 -2.27694 5.02852 0
M  V30 6585 H 606.347 -2.71601 3.15233 0
M  V30 6586 H 605.223 -3.90756 3.85488 0
M  V30 6587 H 605.484 -3.88061 2.11804 0
M  V30 6588 N 604.543 -1.41418 -0.695603 0
M  V30 6589 C 605.789 -1.40982 -1.4578 0
M  V30 6590 C 606.122 -0.0187763 -1.94191 0
M  V30 6591 O 605.397 0.95346 -1.69527 0
M  V30 6592 C 605.68 -2.41657 -2.66972 0
M  V30 6593 C 605.533 -3.89869 -2.24327 0
M  V30 6594 C 606.852 -2.39589 -3.69168 0
M  V30 6595 H 603.971 -0.513405 -0.528757 0
M  V30 6596 H 606.613 -1.72693 -0.792275 0
M  V30 6597 H 604.763 -2.14746 -3.23754 0
M  V30 6598 H 606.435 -4.27683 -1.72872 0
M  V30 6599 H 604.678 -4.04737 -1.56111 0
M  V30 6600 H 605.349 -4.55857 -3.11285 0
M  V30 6601 H 607.825 -2.63471 -3.2206 0
M  V30 6602 H 606.701 -3.12044 -4.51575 0
M  V30 6603 H 606.962 -1.41447 -4.18862 0
M  V30 6604 N 606.021 0.929856 -1.27246 0
M  V30 6605 C 607.267 1.6798 -1.13625 0
M  V30 6606 C 607.6 1.91586 0.317589 0
M  V30 6607 O 606.875 1.50467 1.23247 0
M  V30 6608 C 607.158 3.04766 -1.91806 0
M  V30 6609 C 607.011 2.88415 -3.45162 0
M  V30 6610 C 608.33 4.05063 -1.72082 0
M  V30 6611 H 605.449 0.609632 -0.414147 0
M  V30 6612 H 608.091 1.0792 -1.56376 0
M  V30 6613 H 606.241 3.56034 -1.55474 0
M  V30 6614 H 607.913 2.44282 -3.91311 0
M  V30 6615 H 606.156 2.23802 -3.71611 0
M  V30 6616 H 606.827 3.85482 -3.95105 0
M  V30 6617 H 609.303 3.62798 -2.03757 0
M  V30 6618 H 608.179 4.98765 -2.29182 0
M  V30 6619 H 608.44 4.37021 -0.668206 0
M  V30 6620 N 607.499 1.09233 1.13605 0
M  V30 6621 C 608.748 0.82205 1.84188 0
M  V30 6622 C 609.061 -0.654548 1.84323 0
M  V30 6623 O 610.267 -1.04029 2.50779 0
M  V30 6624 C 608.723 1.42066 3.30674 0
M  V30 6625 C 608.331 2.92965 3.38933 0
M  V30 6626 C 610.075 1.22924 4.06313 0
M  V30 6627 C 607.982 3.45922 4.79679 0
M  V30 6628 H 606.912 0.303854 0.690064 0
M  V30 6629 H 609.563 1.31479 1.28006 0
M  V30 6630 H 607.945 0.855613 3.86646 0
M  V30 6631 H 609.119 3.55679 2.92966 0
M  V30 6632 H 607.434 3.11118 2.76757 0
M  V30 6633 H 610.031 1.59945 5.10217 0
M  V30 6634 H 610.374 0.169726 4.15954 0
M  V30 6635 H 610.907 1.76168 3.56665 0
M  V30 6636 H 607.646 4.51484 4.75229 0
M  V30 6637 H 607.166 2.87971 5.26149 0
M  V30 6638 H 608.845 3.43009 5.48592 0
M  V30 6639 N 608.977 -1.30795 0.87923 0
M  V30 6640 C 609.94 -2.26563 0.346676 0
M  V30 6641 C 610.94 -1.52578 -0.507597 0
M  V30 6642 O 612.13 -1.71318 -0.315575 0
M  V30 6643 C 609.262 -3.37115 -0.506611 0
M  V30 6644 H 610.455 -2.75183 1.19223 0
M  V30 6645 H 608.008 -1.41886 0.655598 0
M  V30 6646 H 608.743 -2.93802 -1.37299 0
M  V30 6647 H 608.528 -3.91959 0.105218 0
M  V30 6648 H 610.018 -4.08412 -0.871192 0
M  V30 6649 N 610.455 -0.639598 -1.44038 0
M  V30 6650 C 611.68 -0.153117 -2.06834 0
M  V30 6651 C 612.105 1.16676 -1.47541 0
M  V30 6652 O 611.463 1.71769 -0.580093 0
M  V30 6653 C 611.511 -0.0609169 -3.60549 0
M  V30 6654 O 610.615 0.98071 -4.00569 0
M  V30 6655 H 609.956 -0.0886402 -0.658057 0
M  V30 6656 H 612.486 -0.878674 -1.84771 0
M  V30 6657 H 612.496 0.126892 -4.07803 0
M  V30 6658 H 611.171 -1.0245 -4.03084 0
M  V30 6659 H 609.748 0.766789 -3.64931 0
M  V30 6660 N 611.933 1.52934 -0.380664 0
M  V30 6661 C 613.179 2.01765 0.20458 0
M  V30 6662 C 613.512 1.26696 1.47179 0
M  V30 6663 O 612.787 0.364936 1.91046 0
M  V30 6664 C 613.07 3.56869 0.481269 0
M  V30 6665 C 612.923 4.42617 -0.800629 0
M  V30 6666 C 614.242 4.2121 1.27554 0
M  V30 6667 H 611.361 0.733388 0.0728803 0
M  V30 6668 H 614.003 1.83068 -0.50853 0
M  V30 6669 H 612.153 3.72932 1.08875 0
M  V30 6670 H 613.825 4.38323 -1.43773 0
M  V30 6671 H 612.068 4.09977 -1.4178 0
M  V30 6672 H 612.739 5.49134 -0.561791 0
M  V30 6673 H 615.215 4.09072 0.761514 0
M  V30 6674 H 614.091 5.29732 1.43788 0
M  V30 6675 H 614.352 3.78269 2.28833 0
M  V30 6676 N 613.412 0.11024 1.57214 0
M  V30 6677 C 614.658 -0.550684 1.9518 0
M  V30 6678 C 614.991 -1.66885 0.993122 0
M  V30 6679 O 614.266 -1.94479 0.0287907 0
M  V30 6680 C 614.549 -1.09163 3.43155 0
M  V30 6681 C 614.402 0.0225198 4.49794 0
M  V30 6682 C 615.721 -1.98527 3.92778 0
M  V30 6683 H 612.84 -0.198706 0.709708 0
M  V30 6684 H 615.482 0.184024 1.89107 0
M  V30 6685 H 613.632 -1.71775 3.48462 0
M  V30 6686 H 615.304 0.657443 4.56591 0
M  V30 6687 H 613.547 0.686868 4.28328 0
M  V30 6688 H 614.218 -0.39706 5.5057 0
M  V30 6689 H 616.694 -1.458 3.8972 0
M  V30 6690 H 615.57 -2.33298 4.96853 0
M  V30 6691 H 615.831 -2.90846 3.32958 0
M  V30 6692 N 614.89 -1.56749 -0.16351 0
M  V30 6693 C 616.118 -1.86577 -0.894233 0
M  V30 6694 C 616.533 -0.696543 -1.75481 0
M  V30 6695 O 615.89 0.334161 -1.79415 0
M  V30 6696 C 615.941 -3.15508 -1.76456 0
M  V30 6697 O 615.662 -4.27926 -0.938685 0
M  V30 6698 C 617.163 -3.58737 -2.60428 0
M  V30 6699 H 614.383 -0.618829 -0.259405 0
M  V30 6700 H 616.927 -2.03863 -0.161259 0
M  V30 6701 H 615.082 -3.00025 -2.45079 0
M  V30 6702 H 615.496 -5.01546 -1.53465 0
M  V30 6703 H 616.97 -4.51832 -3.17099 0
M  V30 6704 H 617.447 -2.83229 -3.35675 0
M  V30 6705 H 618.053 -3.76858 -1.97125 0
M  V30 6706 N 616.368 0.432326 -1.51554 0
M  V30 6707 C 617.615 1.18134 -1.64471 0
M  V30 6708 C 617.943 1.91076 -0.363349 0
M  V30 6709 O 617.198 1.84492 0.65279 0
M  V30 6710 C 617.497 2.21907 -2.80164 0
M  V30 6711 C 617.163 1.65941 -4.19255 0
M  V30 6712 C 615.825 1.50401 -4.57092 0
M  V30 6713 C 618.177 1.24843 -5.06027 0
M  V30 6714 C 615.505 0.922443 -5.79403 0
M  V30 6715 C 617.857 0.68113 -6.28922 0
M  V30 6716 C 616.521 0.512673 -6.65528 0
M  V30 6717 H 615.791 0.432283 -0.601841 0
M  V30 6718 H 618.438 0.471701 -1.856 0
M  V30 6719 H 616.743 2.98928 -2.53277 0
M  V30 6720 H 618.44 2.79691 -2.87357 0
M  V30 6721 H 615.03 1.79014 -3.89425 0
M  V30 6722 H 619.214 1.35667 -4.77397 0
M  V30 6723 H 614.47 0.779733 -6.06408 0
M  V30 6724 H 618.644 0.35418 -6.95499 0
M  V30 6725 H 616.271 0.0599084 -7.60176 0
M  V30 6726 N 617.846 1.41785 0.688094 0
M  V30 6727 C 619.071 1.45117 1.48175 0
M  V30 6728 C 619.496 0.060129 1.88004 0
M  V30 6729 O 618.854 -0.938385 1.55126 0
M  V30 6730 C 618.902 2.37224 2.71583 0
M  V30 6731 O 618.006 1.83443 3.69354 0
M  V30 6732 H 617.347 0.492208 0.445676 0
M  V30 6733 H 619.877 1.86329 0.845145 0
M  V30 6734 H 619.887 2.53353 3.19806 0
M  V30 6735 H 618.562 3.38293 2.41931 0
M  V30 6736 H 617.139 1.76802 3.28322 0
M  V30 6737 N 619.324 -0.923095 1.27737 0
M  V30 6738 C 620.57 -1.67375 1.14514 0
M  V30 6739 C 620.903 -1.91751 -0.307424 0
M  V30 6740 O 620.178 -1.51119 -1.22447 0
M  V30 6741 C 620.461 -3.03745 1.9342 0
M  V30 6742 C 620.314 -2.86581 3.46686 0
M  V30 6743 C 621.633 -4.04144 1.74228 0
M  V30 6744 H 618.752 -0.607427 0.417374 0
M  V30 6745 H 621.394 -1.07089 1.56946 0
M  V30 6746 H 619.544 -3.55204 1.5736 0
M  V30 6747 H 621.216 -2.42203 3.92601 0
M  V30 6748 H 619.459 -2.21829 3.72793 0
M  V30 6749 H 620.13 -3.83381 3.97143 0
M  V30 6750 H 622.606 -3.61712 2.05678 0
M  V30 6751 H 621.482 -4.97543 2.31824 0
M  V30 6752 H 621.743 -4.36661 0.691373 0
M  V30 6753 N 620.802 -1.09834 -1.13024 0
M  V30 6754 C 621.752 -0.710899 -2.16634 0
M  V30 6755 C 622.736 0.276836 -1.58501 0
M  V30 6756 O 623.928 0.0865457 -1.76788 0
M  V30 6757 C 621.057 -0.137574 -3.43024 0
M  V30 6758 C 620.143 -1.15198 -4.08155 0
M  V30 6759 N 620.534 -2.34054 -4.48388 0
M  V30 6760 C 618.832 -0.991074 -4.34849 0
M  V30 6761 C 619.533 -2.98616 -4.99203 0
M  V30 6762 N 618.509 -2.26159 -4.94321 0
M  V30 6763 H 622.311 -1.61576 -2.455 0
M  V30 6764 H 619.825 -0.975158 -1.29863 0
M  V30 6765 H 621.822 0.158031 -4.166 0
M  V30 6766 H 620.482 0.762088 -3.1563 0
M  V30 6767 H 621.493 -2.7162 -4.40957 0
M  V30 6768 H 618.17 -0.146448 -4.17243 0
M  V30 6769 H 619.56 -3.99683 -5.40096 0
M  V30 6770 N 622.28 1.30327 -0.886154 0
M  V30 6771 C 623.213 2.26241 -0.298407 0
M  V30 6772 C 624.191 1.51839 0.581704 0
M  V30 6773 O 625.375 1.80851 0.531536 0
M  V30 6774 C 622.502 3.33768 0.575888 0
M  V30 6775 C 621.548 4.25852 -0.235057 0
M  V30 6776 S 622.381 5.10277 -1.62411 0
M  V30 6777 C 623.537 6.21313 -0.756368 0
M  V30 6778 H 623.77 2.75744 -1.11141 0
M  V30 6779 H 621.303 1.38341 -0.685651 0
M  V30 6780 H 623.261 3.96186 1.07458 0
M  V30 6781 H 621.922 2.82986 1.363 0
M  V30 6782 H 621.115 5.02143 0.432198 0
M  V30 6783 H 620.717 3.68015 -0.666409 0
M  V30 6784 H 623.009 6.77495 0.0261451 0
M  V30 6785 H 623.952 6.92226 -1.49093 0
M  V30 6786 H 624.36 5.63611 -0.316749 0
M  V30 6787 N 623.758 0.647228 1.43697 0
M  V30 6788 C 624.986 0.16575 2.06235 0
M  V30 6789 C 625.401 -1.1662 1.48476 0
M  V30 6790 O 624.758 -1.7187 0.613762 0
M  V30 6791 C 624.809 0.0621651 3.61447 0
M  V30 6792 O 624.53 1.34146 4.17057 0
M  V30 6793 C 626.031 -0.446102 4.4105 0
M  V30 6794 H 623.251 0.0871158 0.665321 0
M  V30 6795 H 625.795 0.886183 1.84301 0
M  V30 6796 H 623.95 -0.608794 3.82587 0
M  V30 6797 H 624.364 1.19675 5.10664 0
M  V30 6798 H 625.838 -0.46755 5.50016 0
M  V30 6799 H 626.315 -1.47627 4.13646 0
M  V30 6800 H 626.921 0.192159 4.24866 0
M  V30 6801 N 625.236 -1.5273 0.388769 0
M  V30 6802 C 626.166 -2.29353 -0.438111 0
M  V30 6803 C 627.147 -1.32719 -1.06394 0
M  V30 6804 O 628.332 -1.61612 -1.07681 0
M  V30 6805 C 625.462 -3.09995 -1.56589 0
M  V30 6806 C 624.416 -4.14509 -1.06613 0
M  V30 6807 C 623.742 -4.83372 -2.28594 0
M  V30 6808 C 625.042 -5.22127 -0.134459 0
M  V30 6809 H 626.736 -2.98723 0.201206 0
M  V30 6810 H 624.282 -1.43665 0.0982089 0
M  V30 6811 H 626.235 -3.62357 -2.15118 0
M  V30 6812 H 624.959 -2.38357 -2.23279 0
M  V30 6813 H 623.618 -3.63128 -0.503383 0
M  V30 6814 H 623.266 -4.08283 -2.93792 0
M  V30 6815 H 622.966 -5.54012 -1.95817 0
M  V30 6816 H 624.49 -5.38538 -2.87766 0
M  V30 6817 H 625.904 -5.69851 -0.627914 0
M  V30 6818 H 624.301 -6.00011 0.103534 0
M  V30 6819 H 625.371 -4.77971 0.816798 0
M  V30 6820 N 626.714 -0.118576 -1.57153 0
M  V30 6821 C 627.962 0.538461 -1.94795 0
M  V30 6822 C 628.283 1.67243 -1.00274 0
M  V30 6823 O 627.553 1.95811 -0.0589692 0
M  V30 6824 H 626.133 0.201904 -0.719197 0
M  V30 6825 H 628.795 -0.187418 -1.93997 0
M  V30 6826 H 627.891 0.933315 -2.97818 0
M  V30 6827 N 628.193 1.56834 0.155195 0
M  V30 6828 C 629.44 1.82898 0.869179 0
M  V30 6829 C 629.768 0.698194 1.81537 0
M  V30 6830 O 629.023 -0.313404 1.93174 0
M  V30 6831 C 629.322 3.15239 1.68402 0
M  V30 6832 C 628.988 4.42123 0.885341 0
M  V30 6833 C 627.65 4.76583 0.664971 0
M  V30 6834 C 630.002 5.20178 0.326234 0
M  V30 6835 C 627.33 5.86566 -0.125346 0
M  V30 6836 C 629.682 6.3099 -0.45108 0
M  V30 6837 C 628.346 6.64006 -0.682102 0
M  V30 6838 H 627.616 0.66927 0.318055 0
M  V30 6839 H 630.263 1.91036 0.133241 0
M  V30 6840 H 628.568 3.02515 2.48982 0
M  V30 6841 H 630.265 3.32618 2.23978 0
M  V30 6842 H 626.855 4.15102 1.06716 0
M  V30 6843 H 631.039 4.93936 0.483787 0
M  V30 6844 H 626.295 6.10594 -0.313915 0
M  V30 6845 H 630.469 6.9067 -0.89149 0
M  V30 6846 H 628.096 7.49065 -1.29636 0
M  V30 6847 N 629.671 -0.424282 1.51781 0
M  V30 6848 C 630.948 -1.18464 1.55646 0
M  V30 6849 C 631.328 -2.08529 0.328438 0
M  V30 6850 O 630.676 -2.17969 -0.685693 0
M  V30 6851 C 630.886 -1.97514 2.87731 0
M  V30 6852 C 632.234 -2.54106 3.40169 0
M  V30 6853 O 633.258 -2.07711 2.89369 0
M  V30 6854 O 632.117 -3.38759 4.28841 0
M  V30 6855 H 629.211 -0.540055 0.626314 0
M  V30 6856 H 631.757 -0.432291 1.64102 0
M  V30 6857 H 630.529 -1.31444 3.68562 0
M  V30 6858 H 630.152 -2.79787 2.82498 0
M  V30 6859 N 631.149 -1.42148 -0.680565 0
M  V30 6860 C 632.079 -1.4796 -1.80638 0
M  V30 6861 C 633.06 -0.336728 -1.66734 0
M  V30 6862 O 634.245 -0.550247 -1.86242 0
M  V30 6863 C 631.375 -1.37569 -3.18892 0
M  V30 6864 C 630.329 -2.49823 -3.47524 0
M  V30 6865 C 629.655 -2.24491 -4.85291 0
M  V30 6866 C 630.955 -3.92144 -3.44994 0
M  V30 6867 H 632.649 -2.42184 -1.76032 0
M  V30 6868 H 630.195 -1.16566 -0.845481 0
M  V30 6869 H 632.148 -1.40243 -3.97379 0
M  V30 6870 H 630.872 -0.398357 -3.24162 0
M  V30 6871 H 629.531 -2.46455 -2.71395 0
M  V30 6872 H 629.179 -1.25066 -4.87204 0
M  V30 6873 H 628.879 -2.99722 -5.05411 0
M  V30 6874 H 630.403 -2.28906 -5.66069 0
M  V30 6875 H 631.817 -3.97145 -4.13459 0
M  V30 6876 H 630.214 -4.67179 -3.76648 0
M  V30 6877 H 631.284 -4.19225 -2.43676 0
M  V30 6878 N 632.627 0.916307 -1.28225 0
M  V30 6879 C 633.855 1.69901 -1.18073 0
M  V30 6880 C 634.27 1.86988 0.260968 0
M  V30 6881 O 633.627 1.39505 1.17663 0
M  V30 6882 C 633.678 3.09254 -1.87201 0
M  V30 6883 O 633.399 2.92959 -3.2574 0
M  V30 6884 C 634.9 4.0362 -1.83319 0
M  V30 6885 H 632.12 0.531181 -0.409985 0
M  V30 6886 H 634.664 1.14703 -1.69303 0
M  V30 6887 H 632.819 3.61277 -1.39848 0
M  V30 6888 H 633.233 3.81139 -3.60324 0
M  V30 6889 H 634.707 4.98873 -2.36282 0
M  V30 6890 H 635.184 4.3176 -0.805007 0
M  V30 6891 H 635.79 3.57524 -2.3034 0
M  V30 6892 N 634.105 1.10431 1.1244 0
M  V30 6893 C 635.068 0.756542 2.16354 0
M  V30 6894 C 636.068 -0.21899 1.59302 0
M  V30 6895 O 637.258 0.00415969 1.742 0
M  V30 6896 C 634.39 0.120612 3.40687 0
M  V30 6897 H 635.583 1.67696 2.48632 0
M  V30 6898 H 633.136 0.904832 1.27446 0
M  V30 6899 H 633.871 -0.810536 3.14008 0
M  V30 6900 H 633.656 0.822693 3.83372 0
M  V30 6901 H 635.146 -0.106945 4.17463 0
M  V30 6902 N 635.583 -1.29855 0.893053 0
M  V30 6903 C 636.546 -2.26183 0.370687 0
M  V30 6904 C 637.546 -1.53108 -0.491385 0
M  V30 6905 O 638.736 -1.71643 -0.297386 0
M  V30 6906 C 635.868 -3.37633 -0.470827 0
M  V30 6907 H 637.061 -2.73903 1.22135 0
M  V30 6908 H 634.614 -1.41183 0.67061 0
M  V30 6909 H 635.349 -2.95241 -1.34175 0
M  V30 6910 H 635.134 -3.91825 0.146784 0
M  V30 6911 H 636.624 -4.09313 -0.827825 0
M  V30 6912 N 637.061 -0.65484 -1.43351 0
M  V30 6913 C 637.993 0.0744757 -2.29079 0
M  V30 6914 C 639.006 0.7855 -1.42596 0
M  V30 6915 O 640.195 0.642986 -1.66517 0
M  V30 6916 C 637.295 1.12859 -3.19556 0
M  V30 6917 C 636.468 0.495381 -4.34586 0
M  V30 6918 C 635.527 1.44659 -5.05925 0
M  V30 6919 O 634.553 0.954567 -5.61139 0
M  V30 6920 N 635.755 2.78051 -5.09576 0
M  V30 6921 H 638.52 -0.661346 -2.92312 0
M  V30 6922 H 636.081 -0.497744 -1.54059 0
M  V30 6923 H 638.073 1.76577 -3.64147 0
M  V30 6924 H 636.643 1.76636 -2.57912 0
M  V30 6925 H 635.863 -0.32092 -3.92892 0
M  V30 6926 H 637.151 0.0534203 -5.08772 0
M  V30 6927 H 636.549 3.20584 -4.66093 0
M  V30 6928 H 635.106 3.37068 -5.57878 0
M  V30 6929 N 638.539 1.52521 -0.396863 0
M  V30 6930 C 639.502 2.2527 0.422604 0
M  V30 6931 C 640.502 1.27184 0.983913 0
M  V30 6932 O 641.692 1.51222 0.864723 0
M  V30 6933 C 638.824 3.01356 1.59365 0
M  V30 6934 H 640.017 2.99133 -0.214416 0
M  V30 6935 H 637.57 1.55587 -0.149128 0
M  V30 6936 H 638.305 2.31813 2.26789 0
M  V30 6937 H 638.09 3.73357 1.19779 0
M  V30 6938 H 639.58 3.56571 2.17363 0
M  V30 6939 N 640.017 0.126909 1.57088 0
M  V30 6940 C 641.264 -0.529168 1.95464 0
M  V30 6941 C 641.592 -1.6618 1.01067 0
M  V30 6942 O 640.847 -1.95667 0.0360254 0
M  V30 6943 C 641.146 -1.095 3.40212 0
M  V30 6944 C 640.812 -0.0829015 4.50824 0
M  V30 6945 C 639.474 0.195377 4.80803 0
M  V30 6946 C 641.826 0.606411 5.1766 0
M  V30 6947 C 639.154 1.16912 5.74933 0
M  V30 6948 C 641.506 1.56884 6.12838 0
M  V30 6949 C 640.17 1.85502 6.41206 0
M  V30 6950 H 639.44 -0.193636 0.715252 0
M  V30 6951 H 642.087 0.209489 1.90351 0
M  V30 6952 H 640.392 -1.91058 3.42059 0
M  V30 6953 H 642.089 -1.61087 3.67222 0
M  V30 6954 H 638.679 -0.309979 4.27478 0
M  V30 6955 H 642.863 0.404597 4.94648 0
M  V30 6956 H 638.119 1.3975 5.95214 0
M  V30 6957 H 642.293 2.10859 6.6371 0
M  V30 6958 H 639.92 2.61109 7.13951 0
M  V30 6959 N 641.495 -1.56914 -0.146875 0
M  V30 6960 C 642.723 -1.87515 -0.874394 0
M  V30 6961 C 643.138 -0.715116 -1.74733 0
M  V30 6962 O 642.495 0.315113 -1.79759 0
M  V30 6963 C 642.546 -3.17362 -1.731 0
M  V30 6964 O 642.267 -4.28897 -0.893245 0
M  V30 6965 C 643.768 -3.61479 -2.56609 0
M  V30 6966 H 640.988 -0.621546 -0.252827 0
M  V30 6967 H 643.532 -2.04023 -0.139627 0
M  V30 6968 H 641.687 -3.02608 -2.41883 0
M  V30 6969 H 642.101 -5.03146 -1.48137 0
M  V30 6970 H 643.575 -4.5517 -3.12289 0
M  V30 6971 H 644.052 -2.86773 -3.32653 0
M  V30 6972 H 644.658 -3.78927 -1.93117 0
M  V30 6973 N 642.974 0.416227 -1.52004 0
M  V30 6974 C 644.22 1.16555 -1.6596 0
M  V30 6975 C 644.553 1.90347 -0.384906 0
M  V30 6976 O 643.828 1.84474 0.616405 0
M  V30 6977 C 644.111 2.1657 -2.87696 0
M  V30 6978 C 643.964 1.46722 -4.25197 0
M  V30 6979 C 645.283 3.17321 -3.04951 0
M  V30 6980 H 642.402 0.422369 -0.603965 0
M  V30 6981 H 645.044 0.452141 -1.84542 0
M  V30 6982 H 643.194 2.77411 -2.71985 0
M  V30 6983 H 644.866 0.89056 -4.52622 0
M  V30 6984 H 643.109 0.769263 -4.26925 0
M  V30 6985 H 643.78 2.19665 -5.0641 0
M  V30 6986 H 646.256 2.66552 -3.19514 0
M  V30 6987 H 645.132 3.84573 -3.91656 0
M  V30 6988 H 645.393 3.84643 -2.17951 0
M  V30 6989 N 644.452 1.42507 0.673017 0
M  V30 6990 C 645.698 1.43284 1.43519 0
M  V30 6991 C 646.031 0.049668 1.94136 0
M  V30 6992 O 645.306 -0.926369 1.71022 0
M  V30 6993 C 645.589 2.45874 2.63093 0
M  V30 6994 C 645.442 3.93388 2.18096 0
M  V30 6995 C 646.761 2.45431 3.6531 0
M  V30 6996 H 643.88 0.521752 0.520522 0
M  V30 6997 H 646.522 1.73932 0.764701 0
M  V30 6998 H 644.672 2.19869 3.20296 0
M  V30 6999 H 646.344 4.30379 1.66046 0
M  V30 7000 H 644.587 4.07169 1.49652 0
M  V30 7001 H 645.258 4.60752 3.03993 0
M  V30 7002 H 647.734 2.68561 3.17827 0
M  V30 7003 H 646.61 3.19189 4.46553 0
M  V30 7004 H 646.871 1.48092 4.16559 0
M  V30 7005 N 645.93 -0.909495 1.28709 0
M  V30 7006 C 647.158 -1.69272 1.18973 0
M  V30 7007 C 647.573 -1.87123 -0.251048 0
M  V30 7008 O 646.93 -1.40127 -1.16922 0
M  V30 7009 C 646.981 -3.08257 1.88839 0
M  V30 7010 O 646.702 -2.91228 3.27289 0
M  V30 7011 C 648.203 -4.02642 1.85457 0
M  V30 7012 H 645.423 -0.528999 0.412797 0
M  V30 7013 H 647.967 -1.13803 1.69909 0
M  V30 7014 H 646.122 -3.6053 1.41762 0
M  V30 7015 H 646.536 -3.79223 3.6234 0
M  V30 7016 H 648.01 -4.97613 2.38925 0
M  V30 7017 H 648.487 -4.31327 0.827893 0
M  V30 7018 H 649.093 -3.56298 2.32233 0
M  V30 7019 N 647.408 -1.11026 -1.11852 0
M  V30 7020 C 648.654 -0.857729 -1.83768 0
M  V30 7021 C 648.987 0.615143 -1.842 0
M  V30 7022 O 648.262 1.45391 -1.29196 0
M  V30 7023 C 648.545 -1.41453 -3.31154 0
M  V30 7024 C 648.398 -2.95471 -3.39142 0
M  V30 7025 C 649.717 -1.0619 -4.27097 0
M  V30 7026 H 646.836 -0.313044 -0.667212 0
M  V30 7027 H 649.478 -1.37443 -1.31185 0
M  V30 7028 H 647.628 -0.975052 -3.76065 0
M  V30 7029 H 649.3 -3.4799 -3.02821 0
M  V30 7030 H 647.543 -3.31759 -2.79497 0
M  V30 7031 H 648.214 -3.29515 -4.42859 0
M  V30 7032 H 650.69 -1.44122 -3.90344 0
M  V30 7033 H 649.566 -1.47832 -5.28618 0
M  V30 7034 H 649.827 0.0278912 -4.42091 0
M  V30 7035 N 648.886 1.2938 -0.899927 0
M  V30 7036 C 650.133 1.9555 -0.525963 0
M  V30 7037 C 650.461 1.70945 0.927789 0
M  V30 7038 O 649.716 1.01545 1.67293 0
M  V30 7039 C 650.015 3.49114 -0.765113 0
M  V30 7040 C 649.681 3.93796 -2.19626 0
M  V30 7041 C 648.343 4.05707 -2.58758 0
M  V30 7042 C 650.695 4.16883 -3.12823 0
M  V30 7043 C 648.023 4.38074 -3.90267 0
M  V30 7044 C 650.375 4.50725 -4.4388 0
M  V30 7045 C 649.039 4.60845 -4.82885 0
M  V30 7046 H 648.309 0.715569 -0.192463 0
M  V30 7047 H 650.956 1.53972 -1.13863 0
M  V30 7048 H 649.261 3.91738 -0.069531 0
M  V30 7049 H 650.958 3.98409 -0.455144 0
M  V30 7050 H 647.548 3.85042 -1.88256 0
M  V30 7051 H 651.732 4.07147 -2.83804 0
M  V30 7052 H 646.988 4.44112 -4.20207 0
M  V30 7053 H 651.162 4.67538 -5.16121 0
M  V30 7054 H 648.789 4.85681 -5.84823 0
M  V30 7055 N 650.364 0.662433 1.43002 0
M  V30 7056 C 651.312 -0.035345 2.32573 0
M  V30 7057 C 652.306 -0.803505 1.49131 0
M  V30 7058 O 653.512 -0.712865 1.65282 0
M  V30 7059 H 649.887 -0.0302194 0.751393 0
M  V30 7060 H 651.858 0.737686 2.89138 0
M  V30 7061 C 650.607 -0.981575 3.33557 0
M  V30 7062 H 649.93 -0.399914 3.97795 0
M  V30 7063 H 651.37 -1.43873 3.98844 0
M  V30 7064 C 649.829 -2.08204 2.64863 0
M  V30 7065 O 650.359 -3.16698 2.47113 0
M  V30 7066 N 648.565 -1.85022 2.24088 0
M  V30 7067 H 648.112 -0.967909 2.38724 0
M  V30 7068 H 648.07 -2.58845 1.78457 0
M  V30 7069 N 651.842 -1.52309 0.404946 0
M  V30 7070 C 653.067 -2.06666 -0.1743 0
M  V30 7071 C 653.492 -1.27341 -1.38441 0
M  V30 7072 O 652.85 -0.302539 -1.78758 0
M  V30 7073 C 652.898 -3.57014 -0.507262 0
M  V30 7074 O 652.002 -3.80144 -1.59889 0
M  V30 7075 H 651.343 -0.663807 -0.0160273 0
M  V30 7076 H 653.873 -1.96297 0.576937 0
M  V30 7077 H 653.883 -4.00724 -0.767098 0
M  V30 7078 H 652.558 -4.14184 0.377368 0
M  V30 7079 H 651.135 -3.48316 -1.33155 0
M  V30 7080 N 653.32 -0.135238 -1.57019 0
M  V30 7081 C 654.253 0.846618 -2.11914 0
M  V30 7082 C 655.231 1.25019 -1.03966 0
M  V30 7083 O 656.415 1.34838 -1.31723 0
M  V30 7084 C 653.542 2.1352 -2.6292 0
M  V30 7085 C 652.588 1.87846 -3.82905 0
M  V30 7086 S 653.421 1.08005 -5.24495 0
M  V30 7087 C 654.577 2.38008 -5.78881 0
M  V30 7088 H 654.81 0.379752 -2.94865 0
M  V30 7089 H 652.343 0.0788387 -1.54199 0
M  V30 7090 H 654.301 2.87551 -2.92958 0
M  V30 7091 H 652.962 2.57323 -1.80121 0
M  V30 7092 H 652.155 2.83365 -4.16797 0
M  V30 7093 H 651.757 1.21929 -3.53567 0
M  V30 7094 H 654.049 3.33742 -5.89595 0
M  V30 7095 H 654.992 2.08638 -6.76665 0
M  V30 7096 H 655.4 2.48119 -5.07048 0
M  V30 7097 N 654.798 1.5699 0.138552 0
M  V30 7098 C 656.026 1.87976 0.864437 0
M  V30 7099 C 656.441 0.724372 1.74351 0
M  V30 7100 O 655.798 -0.305575 1.79924 0
M  V30 7101 C 655.849 3.18276 1.71414 0
M  V30 7102 O 655.57 4.29365 0.870487 0
M  V30 7103 C 657.071 3.62834 2.54688 0
M  V30 7104 H 654.291 0.622878 0.249528 0
M  V30 7105 H 656.835 2.04094 0.128805 0
M  V30 7106 H 654.99 3.03886 2.40274 0
M  V30 7107 H 655.404 5.03924 1.45466 0
M  V30 7108 H 656.878 4.5682 3.0987 0
M  V30 7109 H 657.355 2.88533 3.31127 0
M  V30 7110 H 657.961 3.79946 1.91105 0
M  V30 7111 N 656.276 -0.40816 1.52223 0
M  V30 7112 C 657.523 -1.15502 1.66329 0
M  V30 7113 C 657.851 -1.90474 0.393701 0
M  V30 7114 O 657.106 -1.85507 -0.623356 0
M  V30 7115 C 657.405 -2.17422 2.83659 0
M  V30 7116 C 657.071 -1.5925 4.21841 0
M  V30 7117 C 655.733 -1.4311 4.59427 0
M  V30 7118 C 658.085 -1.16776 5.0795 0
M  V30 7119 C 655.413 -0.830148 5.80797 0
M  V30 7120 C 657.765 -0.580988 6.29926 0
M  V30 7121 C 656.429 -0.406729 6.6626 0
M  V30 7122 H 655.699 -0.422653 0.608642 0
M  V30 7123 H 658.346 -0.442114 1.86327 0
M  V30 7124 H 656.651 -2.94861 2.58001 0
M  V30 7125 H 658.348 -2.75084 2.9177 0
M  V30 7126 H 654.938 -1.72796 3.92224 0
M  V30 7127 H 659.122 -1.28055 4.79495 0
M  V30 7128 H 654.378 -0.68316 6.07571 0
M  V30 7129 H 658.552 -0.243488 6.95974 0
M  V30 7130 H 656.179 0.0610366 7.60175 0
M  V30 7131 N 657.755 -1.42862 -0.66545 0
M  V30 7132 C 658.718 -1.46756 -1.76055 0
M  V30 7133 C 659.718 -0.353866 -1.56858 0
M  V30 7134 O 660.908 -0.615099 -1.62979 0
M  V30 7135 C 658.04 -1.30829 -3.14796 0
M  V30 7136 H 659.233 -2.44271 -1.73987 0
M  V30 7137 H 656.786 -1.29447 -0.875965 0
M  V30 7138 H 657.521 -0.342733 -3.22484 0
M  V30 7139 H 657.306 -2.11551 -3.30134 0
M  V30 7140 H 658.796 -1.36458 -3.94676 0
M  V30 7141 N 659.233 0.902656 -1.29189 0
M  V30 7142 C 660.163 2.02294 -1.16616 0
M  V30 7143 C 661.144 1.6999 -0.0611175 0
M  V30 7144 O 662.329 1.9271 -0.240072 0
M  V30 7145 C 659.459 3.37018 -0.83882 0
M  V30 7146 C 658.413 3.83522 -1.89986 0
M  V30 7147 C 657.739 5.15337 -1.42589 0
M  V30 7148 C 659.039 4.04169 -3.30824 0
M  V30 7149 H 660.733 2.13071 -2.10336 0
M  V30 7150 H 658.279 1.02378 -1.01266 0
M  V30 7151 H 660.232 4.14895 -0.737584 0
M  V30 7152 H 658.956 3.26325 0.134071 0
M  V30 7153 H 657.615 3.07859 -1.99043 0
M  V30 7154 H 657.263 5.01056 -0.441759 0
M  V30 7155 H 656.963 5.47423 -2.13547 0
M  V30 7156 H 658.487 5.95758 -1.3381 0
M  V30 7157 H 659.901 4.72537 -3.24626 0
M  V30 7158 H 658.298 4.47604 -3.99713 0
M  V30 7159 H 659.368 3.08604 -3.74021 0
M  V30 7160 N 660.711 1.11618 1.11262 0
M  V30 7161 C 661.658 0.7762 2.17356 0
M  V30 7162 C 662.628 -0.253152 1.6416 0
M  V30 7163 O 663.813 -0.129655 1.90359 0
M  V30 7164 C 660.953 0.227581 3.44349 0
M  V30 7165 C 660.066 1.31372 4.1154 0
M  V30 7166 C 659.201 0.72544 5.26223 0
M  V30 7167 C 658.24 1.7913 5.85302 0
M  V30 7168 N 657.377 1.22237 6.91377 0
M  V30 7169 H 662.217 1.68508 2.45783 0
M  V30 7170 H 659.754 0.841475 1.20655 0
M  V30 7171 H 661.712 -0.108483 4.17059 0
M  V30 7172 H 660.342 -0.644486 3.16301 0
M  V30 7173 H 659.394 1.7667 3.36885 0
M  V30 7174 H 660.706 2.12005 4.51504 0
M  V30 7175 H 659.86 0.339541 6.05749 0
M  V30 7176 H 658.599 -0.112188 4.87571 0
M  V30 7177 H 657.604 2.18648 5.04453 0
M  V30 7178 H 658.829 2.63199 6.26022 0
M  V30 7179 H 656.775 0.406423 6.5474 0
M  V30 7180 H 656.692 1.9654 7.30006 0
M  V30 7181 H 657.96 0.863426 7.74703 0
M  V30 7182 N 662.189 -1.289 0.906776 0
M  V30 7183 C 663.435 -1.95558 0.53712 0
M  V30 7184 C 663.768 -1.71262 -0.915582 0
M  V30 7185 O 663.043 -1.02961 -1.65013 0
M  V30 7186 C 663.326 -3.50198 0.838645 0
M  V30 7187 C 663.179 -3.83923 2.34357 0
M  V30 7188 C 664.498 -4.38861 0.329988 0
M  V30 7189 H 661.617 -0.710289 0.196617 0
M  V30 7190 H 664.259 -1.52392 1.13475 0
M  V30 7191 H 662.409 -3.87096 0.330024 0
M  V30 7192 H 664.081 -3.56933 2.92227 0
M  V30 7193 H 662.324 -3.31215 2.80141 0
M  V30 7194 H 662.995 -4.91883 2.5051 0
M  V30 7195 H 665.471 -4.08996 0.765609 0
M  V30 7196 H 664.347 -5.45931 0.570105 0
M  V30 7197 H 664.608 -4.35352 -0.769511 0
M  V30 7198 N 663.667 -0.670007 -1.42649 0
M  V30 7199 C 664.895 -0.19854 -2.05945 0
M  V30 7200 C 665.31 1.14243 -1.50313 0
M  V30 7201 O 664.667 1.70872 -0.641027 0
M  V30 7202 C 664.718 -0.11966 -3.61302 0
M  V30 7203 O 664.439 -1.40764 -4.1487 0
M  V30 7204 C 665.94 0.375878 -4.41704 0
M  V30 7205 H 663.16 -0.0976894 -0.663851 0
M  V30 7206 H 665.704 -0.915392 -1.82868 0
M  V30 7207 H 663.859 0.547851 -3.83507 0
M  V30 7208 H 664.273 -1.27784 -5.08696 0
M  V30 7209 H 665.747 0.379988 -5.50691 0
M  V30 7210 H 666.224 1.41028 -4.15942 0
M  V30 7211 H 666.83 -0.259727 -4.24506 0
M  V30 7212 N 665.145 1.52092 -0.413018 0
M  V30 7213 C 666.556 1.86617 0.0556967 0
M  V30 7214 C 666.907 1.33156 1.44097 0
M  V30 7215 O 666.032 0.672417 2.05688 0
M  V30 7216 C 666.627 3.38628 0.107844 0
M  V30 7217 C 665.186 3.72778 0.520904 0
M  V30 7218 C 664.333 2.75649 -0.302109 0
M  V30 7219 H 667.284 1.45663 -0.629919 0
M  V30 7220 H 667.305 3.69152 0.922324 0
M  V30 7221 H 666.817 3.77508 -0.900506 0
M  V30 7222 H 664.918 3.39478 1.53575 0
M  V30 7223 H 665.031 4.7838 0.262591 0
M  V30 7224 H 663.395 2.53603 0.236115 0
M  V30 7225 H 664.178 3.17369 -1.30888 0
M  V30 7226 N 666.623 0.143563 1.56945 0
M  V30 7227 C 667.87 -0.508407 1.96014 0
M  V30 7228 C 668.198 -1.65099 1.02824 0
M  V30 7229 O 667.453 -1.95618 0.0567764 0
M  V30 7230 C 667.752 -1.05885 3.41355 0
M  V30 7231 C 667.418 -0.0350809 4.50886 0
M  V30 7232 C 666.08 0.246362 4.80569 0
M  V30 7233 C 668.432 0.661282 5.16988 0
M  V30 7234 C 665.76 1.23003 5.73661 0
M  V30 7235 C 668.112 1.63375 6.11139 0
M  V30 7236 C 666.776 1.92292 6.39203 0
M  V30 7237 H 666.046 -0.186039 0.717266 0
M  V30 7238 H 668.693 0.229667 1.90118 0
M  V30 7239 H 666.998 -1.87419 3.44066 0
M  V30 7240 H 668.695 -1.57183 3.6891 0
M  V30 7241 H 665.285 -0.264622 4.27782 0
M  V30 7242 H 669.469 0.457038 4.94191 0
M  V30 7243 H 664.725 1.46056 5.93698 0
M  V30 7244 H 668.899 2.17887 6.61436 0
M  V30 7245 H 666.526 2.68666 7.11142 0
M  V30 7246 N 668.101 -1.57061 -0.130224 0
M  V30 7247 C 669.326 -1.88802 -0.858409 0
M  V30 7248 C 669.751 -0.734353 -1.73173 0
M  V30 7249 O 669.109 0.315529 -1.78533 0
M  V30 7250 C 669.157 -3.19228 -1.67708 0
M  V30 7251 O 668.261 -3.04343 -2.78297 0
M  V30 7252 H 667.602 -0.619849 -0.238083 0
M  V30 7253 H 670.132 -2.04271 -0.115995 0
M  V30 7254 H 670.142 -3.51669 -2.06864 0
M  V30 7255 H 668.817 -4.02793 -1.0359 0
M  V30 7256 H 667.394 -2.83346 -2.42425 0
M  V30 7257 N 669.579 0.400081 -1.52437 0
M  V30 7258 C 670.825 1.14788 -1.67187 0
M  V30 7259 C 671.158 1.89928 -0.405074 0
M  V30 7260 O 670.433 1.85118 0.596804 0
M  V30 7261 C 670.716 2.13507 -2.89977 0
M  V30 7262 C 670.569 1.42204 -4.2673 0
M  V30 7263 C 671.888 3.14069 -3.083 0
M  V30 7264 H 669.007 0.415939 -0.608411 0
M  V30 7265 H 671.649 0.432542 -1.85011 0
M  V30 7266 H 669.799 2.7451 -2.74912 0
M  V30 7267 H 671.471 0.842503 -4.53541 0
M  V30 7268 H 669.714 0.723939 -4.27717 0
M  V30 7269 H 670.385 2.14281 -5.08712 0
M  V30 7270 H 672.861 2.63148 -3.22323 0
M  V30 7271 H 671.737 3.80398 -3.95713 0
M  V30 7272 H 671.998 3.82309 -2.22018 0
M  V30 7273 N 671.057 1.43213 0.657864 0
M  V30 7274 C 672.004 1.48011 1.77092 0
M  V30 7275 C 672.974 0.330291 1.62783 0
M  V30 7276 O 674.159 0.536787 1.83094 0
M  V30 7277 C 671.299 1.40461 3.15222 0
M  V30 7278 C 670.412 2.65612 3.40697 0
M  V30 7279 C 669.547 2.50083 4.68649 0
M  V30 7280 C 668.586 3.70525 4.87214 0
M  V30 7281 N 667.723 3.53835 6.0642 0
M  V30 7282 H 672.563 2.43121 1.72326 0
M  V30 7283 H 670.1 1.20687 0.841013 0
M  V30 7284 H 672.058 1.34079 3.95068 0
M  V30 7285 H 670.688 0.489359 3.19069 0
M  V30 7286 H 669.74 2.82292 2.54982 0
M  V30 7287 H 671.052 3.5509 3.50303 0
M  V30 7288 H 670.206 2.41383 5.56614 0
M  V30 7289 H 668.945 1.58121 4.61356 0
M  V30 7290 H 667.95 3.79639 3.97686 0
M  V30 7291 H 669.175 4.63489 4.96341 0
M  V30 7292 H 667.121 2.64604 6.00267 0
M  V30 7293 H 667.038 4.36912 6.16963 0
M  V30 7294 H 668.306 3.48978 6.97019 0
M  V30 7295 N 672.536 -0.895792 1.29666 0
M  V30 7296 C 673.761 -1.68528 1.20885 0
M  V30 7297 C 674.186 -1.8673 -0.226595 0
M  V30 7298 O 673.544 -1.39044 -1.16347 0
M  V30 7299 C 673.592 -3.04512 1.93144 0
M  V30 7300 O 672.696 -3.92963 1.25115 0
M  V30 7301 H 672.037 -0.515371 0.418675 0
M  V30 7302 H 674.567 -1.11878 1.71302 0
M  V30 7303 H 674.577 -3.54628 2.0175 0
M  V30 7304 H 673.252 -2.90582 2.97548 0
M  V30 7305 H 671.829 -3.51399 1.24794 0
M  V30 7306 N 674.014 -1.12206 -1.10668 0
M  V30 7307 C 674.944 -0.810086 -2.18997 0
M  V30 7308 C 675.925 0.225065 -1.68604 0
M  V30 7309 O 677.11 0.086783 -1.94006 0
M  V30 7310 C 674.24 -0.261262 -3.46316 0
M  V30 7311 C 673.194 -1.2292 -4.09969 0
M  V30 7312 C 672.52 -0.540713 -5.31959 0
M  V30 7313 C 673.82 -2.58295 -4.53962 0
M  V30 7314 H 675.514 -1.7159 -2.45352 0
M  V30 7315 H 673.06 -0.82646 -1.17922 0
M  V30 7316 H 675.013 -0.0307522 -4.21389 0
M  V30 7317 H 673.737 0.679879 -3.19445 0
M  V30 7318 H 672.396 -1.44548 -3.369 0
M  V30 7319 H 672.044 0.405492 -5.01363 0
M  V30 7320 H 671.744 -1.18637 -5.75499 0
M  V30 7321 H 673.268 -0.319184 -6.09765 0
M  V30 7322 H 674.682 -2.40709 -5.20319 0
M  V30 7323 H 673.079 -3.18916 -5.08343 0
M  V30 7324 H 674.149 -3.16918 -3.67002 0
M  V30 7325 N 675.492 1.28418 -0.913599 0
M  V30 7326 C 676.717 1.99643 -0.561899 0
M  V30 7327 C 677.142 1.67819 0.849608 0
M  V30 7328 O 676.5 0.910503 1.56779 0
M  V30 7329 C 676.548 3.52116 -0.777622 0
M  V30 7330 O 675.652 4.12076 0.163457 0
M  V30 7331 H 674.993 0.627229 -0.217898 0
M  V30 7332 H 677.523 1.63575 -1.229 0
M  V30 7333 H 677.533 4.02163 -0.687666 0
M  V30 7334 H 676.208 3.74613 -1.8066 0
M  V30 7335 H 674.785 3.72892 0.0247827 0
M  V30 7336 N 676.97 0.677563 1.42291 0
M  V30 7337 C 677.88 0.000962654 2.346 0
M  V30 7338 C 678.896 -0.785833 1.55244 0
M  V30 7339 O 680.072 -0.727523 1.87801 0
M  V30 7340 C 677.137 -0.936746 3.33805 0
M  V30 7341 C 676.198 -0.144173 4.29058 0
M  V30 7342 C 675.431 -1.03722 5.23524 0
M  V30 7343 O 675.654 -2.27675 5.22992 0
M  V30 7344 O 674.588 -0.496542 5.99848 0
M  V30 7345 H 678.414 0.761397 2.94001 0
M  V30 7346 H 675.999 0.43781 1.42841 0
M  V30 7347 H 677.881 -1.47497 3.94744 0
M  V30 7348 H 676.556 -1.67698 2.76874 0
M  V30 7349 H 675.463 0.438224 3.71524 0
M  V30 7350 H 676.796 0.55701 4.89038 0
M  V30 7351 N 678.448 -1.51871 0.421078 0
M  V30 7352 C 679.411 -2.25914 -0.386712 0
M  V30 7353 C 680.411 -1.28733 -0.963555 0
M  V30 7354 O 681.601 -1.52579 -0.840556 0
M  V30 7355 C 678.733 -3.03853 -1.54551 0
M  V30 7356 H 679.926 -2.98754 0.261978 0
M  V30 7357 H 677.479 -1.5533 0.173862 0
M  V30 7358 H 678.214 -2.35392 -2.23072 0
M  V30 7359 H 677.999 -3.75215 -1.13824 0
M  V30 7360 H 679.489 -3.59984 -2.11663 0
M  V30 7361 N 679.926 -0.151884 -1.56866 0
M  V30 7362 C 681.151 0.508044 -2.01081 0
M  V30 7363 C 681.576 1.57306 -1.03134 0
M  V30 7364 O 680.934 1.81298 -0.0078309 0
M  V30 7365 C 680.982 1.08106 -3.44014 0
M  V30 7366 O 680.086 2.19577 -3.49084 0
M  V30 7367 H 679.427 0.123757 -0.652365 0
M  V30 7368 H 681.957 -0.250055 -2.03066 0
M  V30 7369 H 681.967 1.40851 -3.82916 0
M  V30 7370 H 680.642 0.301168 -4.14808 0
M  V30 7371 H 679.219 1.88023 -3.22027 0
M  V30 7372 N 681.404 1.57128 0.121893 0
M  V30 7373 C 682.65 1.84974 0.831418 0
M  V30 7374 C 682.983 0.737204 1.79663 0
M  V30 7375 O 682.258 -0.257199 1.92792 0
M  V30 7376 C 682.541 3.23397 1.58386 0
M  V30 7377 C 682.394 4.45246 0.638445 0
M  V30 7378 C 683.713 3.59355 2.54071 0
M  V30 7379 H 680.832 0.67282 0.300803 0
M  V30 7380 H 683.474 1.89759 0.0957587 0
M  V30 7381 H 681.624 3.19449 2.21098 0
M  V30 7382 H 683.296 4.61295 0.0203925 0
M  V30 7383 H 681.539 4.33771 -0.05023 0
M  V30 7384 H 682.21 5.38765 1.20151 0
M  V30 7385 H 684.686 3.64075 2.01465 0
M  V30 7386 H 683.562 4.57193 3.03752 0
M  V30 7387 H 683.823 2.86622 3.36601 0
M  V30 7388 N 682.882 -0.391992 1.52647 0
M  V30 7389 C 683.845 -1.46135 1.7657 0
M  V30 7390 C 684.845 -1.47701 0.635698 0
M  V30 7391 O 686.035 -1.48924 0.903728 0
M  V30 7392 C 683.167 -2.85443 1.86374 0
M  V30 7393 H 684.36 -1.26208 2.72051 0
M  V30 7394 H 681.913 -0.623549 1.43323 0
M  V30 7395 H 682.648 -3.10718 0.928685 0
M  V30 7396 H 682.433 -2.85708 2.68539 0
M  V30 7397 H 683.923 -3.62933 2.06566 0
M  V30 7398 N 684.36 -1.4356 -0.65026 0
M  V30 7399 C 685.606 -1.45549 -1.41221 0
M  V30 7400 C 685.939 -0.0805472 -1.94033 0
M  V30 7401 O 685.214 0.899043 -1.72475 0
M  V30 7402 C 685.497 -2.50028 -2.59148 0
M  V30 7403 C 685.35 -3.96808 -2.1181 0
M  V30 7404 C 686.669 -2.51212 -3.61359 0
M  V30 7405 H 683.788 -0.529967 -0.512156 0
M  V30 7406 H 686.43 -1.75127 -0.736933 0
M  V30 7407 H 684.58 -2.24937 -3.16758 0
M  V30 7408 H 686.252 -4.32966 -1.59178 0
M  V30 7409 H 684.495 -4.09498 -1.43156 0
M  V30 7410 H 685.166 -4.6553 -2.96625 0
M  V30 7411 H 687.642 -2.73583 -3.13515 0
M  V30 7412 H 686.518 -3.26252 -4.41419 0
M  V30 7413 H 686.779 -1.54701 -4.1415 0
M  V30 7414 N 685.838 0.888903 -1.30139 0
M  V30 7415 C 687.115 1.62145 -1.094 0
M  V30 7416 C 687.495 2.08041 0.358091 0
M  V30 7417 O 686.843 1.84438 1.34888 0
M  V30 7418 C 687.053 2.794 -2.09133 0
M  V30 7419 C 688.401 3.49826 -2.40638 0
M  V30 7420 O 689.425 2.89583 -2.07412 0
M  V30 7421 O 688.284 4.58457 -2.97455 0
M  V30 7422 H 685.378 0.712475 -0.41989 0
M  V30 7423 H 687.924 0.936023 -1.41551 0
M  V30 7424 H 686.696 2.42762 -3.06891 0
M  V30 7425 H 686.319 3.55643 -1.77776 0
M  V30 7426 N 687.317 1.12792 1.10072 0
M  V30 7427 C 688.733 0.864745 1.34143 0
M  V30 7428 C 688.933 -0.503201 1.95116 0
M  V30 7429 O 687.989 -1.25111 2.19325 0
M  V30 7430 C 689.302 1.98413 2.25949 0
M  V30 7431 C 690.85 2.01545 2.39476 0
M  V30 7432 C 691.325 3.12727 3.34613 0
M  V30 7433 N 692.816 3.12194 3.42183 0
M  V30 7434 C 693.551 3.94862 4.15779 0
M  V30 7435 N 693.047 4.87528 4.92228 0
M  V30 7436 N 694.84 3.82985 4.11435 0
M  V30 7437 H 686.991 2.00926 0.68866 0
M  V30 7438 H 689.254 0.874564 0.365844 0
M  V30 7439 H 688.96 2.97005 1.88364 0
M  V30 7440 H 688.834 1.89254 3.26287 0
M  V30 7441 H 691.221 1.0357 2.76328 0
M  V30 7442 H 691.302 2.14777 1.3894 0
M  V30 7443 H 690.946 4.10936 2.98486 0
M  V30 7444 H 690.876 2.96732 4.35037 0
M  V30 7445 H 693.367 2.45065 2.87666 0
M  V30 7446 H 693.68 5.47109 5.45794 0
M  V30 7447 H 692.025 4.91539 4.9134 0
M  V30 7448 H 695.216 3.09923 3.50807 0
M  V30 7449 H 695.389 4.47641 4.68531 0
M  V30 7450 N 688.795 -1.27931 0.920396 0
M  V30 7451 C 690.042 -1.94689 0.557007 0
M  V30 7452 C 690.37 -1.724 -0.900476 0
M  V30 7453 O 689.625 -1.04194 -1.65657 0
M  V30 7454 C 689.924 -3.47853 0.820558 0
M  V30 7455 C 689.59 -3.90252 2.25863 0
M  V30 7456 C 688.252 -4.01539 2.65179 0
M  V30 7457 C 690.604 -4.11853 3.19415 0
M  V30 7458 C 687.932 -4.3181 3.97187 0
M  V30 7459 C 690.284 -4.43606 4.50995 0
M  V30 7460 C 688.948 -4.53105 4.90155 0
M  V30 7461 H 688.218 -0.712416 0.203823 0
M  V30 7462 H 690.865 -1.52142 1.16298 0
M  V30 7463 H 689.17 -3.91578 0.131844 0
M  V30 7464 H 690.867 -3.97634 0.51847 0
M  V30 7465 H 687.457 -3.81999 1.94358 0
M  V30 7466 H 691.641 -4.0258 2.90246 0
M  V30 7467 H 686.897 -4.37371 4.2722 0
M  V30 7468 H 691.071 -4.59268 5.23494 0
M  V30 7469 H 688.698 -4.76315 5.92476 0
M  V30 7470 N 690.273 -0.685099 -1.4193 0
M  V30 7471 C 691.22 -0.0131869 -2.30796 0
M  V30 7472 C 692.19 0.782129 -1.46533 0
M  V30 7473 O 693.375 0.75229 -1.75343 0
M  V30 7474 C 690.515 0.924768 -3.32479 0
M  V30 7475 C 689.628 0.122181 -4.31827 0
M  V30 7476 C 688.763 1.05682 -5.20581 0
M  V30 7477 C 687.802 0.246526 -6.11603 0
M  V30 7478 N 686.939 1.13442 -6.92875 0
M  V30 7479 H 691.779 -0.776789 -2.87698 0
M  V30 7480 H 689.316 -0.394791 -1.41703 0
M  V30 7481 H 691.274 1.48251 -3.89971 0
M  V30 7482 H 689.904 1.65488 -2.77152 0
M  V30 7483 H 688.956 -0.552335 -3.76369 0
M  V30 7484 H 690.268 -0.506473 -4.96222 0
M  V30 7485 H 689.422 1.68415 -5.82856 0
M  V30 7486 H 688.161 1.71935 -4.56388 0
M  V30 7487 H 687.166 -0.393944 -5.48387 0
M  V30 7488 H 688.391 -0.412053 -6.77849 0
M  V30 7489 H 686.337 1.78316 -6.313 0
M  V30 7490 H 686.254 0.561089 -7.53915 0
M  V30 7491 H 687.522 1.74889 -7.59628 0
M  V30 7492 N 691.751 1.51645 -0.429126 0
M  V30 7493 C 692.976 2.06917 0.141399 0
M  V30 7494 C 693.401 1.29527 1.36398 0
M  V30 7495 O 692.759 0.33094 1.78254 0
M  V30 7496 C 692.807 3.57776 0.4504 0
M  V30 7497 O 691.911 3.82639 1.53821 0
M  V30 7498 H 691.252 0.663978 0.0054647 0
M  V30 7499 H 693.782 1.95355 -0.608093 0
M  V30 7500 H 693.792 4.01894 0.703249 0
M  V30 7501 H 692.467 4.13532 -0.443213 0
M  V30 7502 H 691.044 3.5039 1.27597 0
M  V30 7503 N 693.229 0.160201 1.56784 0
M  V30 7504 C 694.159 -0.770264 2.2043 0
M  V30 7505 C 695.14 -1.24736 1.15651 0
M  V30 7506 O 696.325 -1.30253 1.44041 0
M  V30 7507 C 693.455 -2.00427 2.83631 0
M  V30 7508 C 692.409 -1.66345 3.94352 0
M  V30 7509 C 691.735 -2.97119 4.4455 0
M  V30 7510 C 693.035 -0.899972 5.14488 0
M  V30 7511 H 694.729 -0.239783 2.98438 0
M  V30 7512 H 692.275 -0.113891 1.43549 0
M  V30 7513 H 694.228 -2.66012 3.26827 0
M  V30 7514 H 692.952 -2.5587 2.02973 0
M  V30 7515 H 691.611 -1.03133 3.51794 0
M  V30 7516 H 691.259 -3.5058 3.60698 0
M  V30 7517 H 690.959 -2.75073 5.19238 0
M  V30 7518 H 692.483 -3.63753 4.90425 0
M  V30 7519 H 693.897 -1.45818 5.54446 0
M  V30 7520 H 692.294 -0.778968 5.95023 0
M  V30 7521 H 693.364 0.105827 4.84785 0
M  V30 7522 N 694.707 -1.5719 -0.113559 0
M  V30 7523 C 695.954 -1.85138 -0.820382 0
M  V30 7524 C 696.282 -0.74608 -1.79622 0
M  V30 7525 O 695.537 0.262077 -1.93937 0
M  V30 7526 C 695.836 -3.19593 -1.59984 0
M  V30 7527 C 695.502 -4.44315 -0.767809 0
M  V30 7528 C 694.164 -4.78179 -0.538379 0
M  V30 7529 C 696.516 -5.2086 -0.188203 0
M  V30 7530 C 693.844 -5.86028 0.28082 0
M  V30 7531 C 696.196 -6.29572 0.618217 0
M  V30 7532 C 694.86 -6.61964 0.857912 0
M  V30 7533 H 694.13 -0.677467 -0.300199 0
M  V30 7534 H 696.777 -1.91322 -0.0825443 0
M  V30 7535 H 695.082 -3.0901 -2.40874 0
M  V30 7536 H 696.779 -3.3844 -2.1508 0
M  V30 7537 H 693.369 -4.17786 -0.956724 0
M  V30 7538 H 697.553 -4.95045 -0.352658 0
M  V30 7539 H 692.809 -6.09547 0.475693 0
M  V30 7540 H 696.983 -6.88064 1.0743 0
M  V30 7541 H 694.61 -7.45365 1.49451 0
M  V30 7542 N 696.185 0.383891 -1.52853 0
M  V30 7543 C 697.115 1.47559 -1.80965 0
M  V30 7544 C 698.096 1.5669 -0.661986 0
M  V30 7545 O 699.281 1.71556 -0.910072 0
M  V30 7546 C 696.411 2.85114 -1.98312 0
M  V30 7547 C 695.365 2.9082 -3.14019 0
M  V30 7548 C 694.691 4.30873 -3.16627 0
M  V30 7549 C 695.991 2.60001 -4.52986 0
M  V30 7550 H 697.685 1.24283 -2.72386 0
M  V30 7551 H 695.231 0.596445 -1.31067 0
M  V30 7552 H 697.184 3.61496 -2.16561 0
M  V30 7553 H 695.908 3.09738 -1.03585 0
M  V30 7554 H 694.567 2.16886 -2.9556 0
M  V30 7555 H 694.215 4.52545 -2.19573 0
M  V30 7556 H 693.915 4.3561 -3.94357 0
M  V30 7557 H 695.439 5.09154 -3.37038 0
M  V30 7558 H 696.853 3.261 -4.71521 0
M  V30 7559 H 695.25 2.76081 -5.32822 0
M  V30 7560 H 696.32 1.5532 -4.59351 0
M  V30 7561 N 697.663 1.43903 0.642637 0
M  V30 7562 C 698.596 1.44339 1.76753 0
M  V30 7563 C 699.574 0.303558 1.59741 0
M  V30 7564 O 700.758 0.498775 1.81781 0
M  V30 7565 C 697.885 1.26508 3.14187 0
M  V30 7566 C 696.931 2.43905 3.49875 0
M  V30 7567 S 697.764 4.0645 3.48653 0
M  V30 7568 C 698.92 3.91021 4.88726 0
M  V30 7569 H 699.153 2.39523 1.76113 0
M  V30 7570 H 696.686 1.31061 0.81623 0
M  V30 7571 H 698.644 1.16908 3.93501 0
M  V30 7572 H 697.305 0.328548 3.12377 0
M  V30 7573 H 696.498 2.27262 4.49853 0
M  V30 7574 H 696.1 2.50186 2.77998 0
M  V30 7575 H 698.392 3.54 5.77659 0
M  V30 7576 H 699.335 4.9079 5.10423 0
M  V30 7577 H 699.743 3.23287 4.62759 0
M  V30 7578 N 699.141 -0.881989 1.30609 0
M  V30 7579 C 700.051 -2.02076 1.19174 0
M  V30 7580 C 701.067 -1.73645 0.11102 0
M  V30 7581 O 702.243 -1.98735 0.326528 0
M  V30 7582 C 699.308 -3.3515 0.887438 0
M  V30 7583 C 698.369 -3.76983 2.05383 0
M  V30 7584 C 697.602 -5.03707 1.76395 0
M  V30 7585 O 697.825 -5.66171 0.693302 0
M  V30 7586 O 696.759 -5.42019 2.61723 0
M  V30 7587 H 700.585 -2.14652 2.14845 0
M  V30 7588 H 698.17 -1.00843 1.10232 0
M  V30 7589 H 700.052 -4.14975 0.73306 0
M  V30 7590 H 698.727 -3.23676 -0.0393354 0
M  V30 7591 H 697.634 -2.97849 2.26355 0
M  V30 7592 H 698.967 -3.93066 2.96243 0
M  V30 7593 N 700.619 -1.13374 -1.09472 0
M  V30 7594 C 701.529 -0.824029 -2.19652 0
M  V30 7595 C 702.545 0.19118 -1.72947 0
M  V30 7596 O 703.721 0.0223464 -2.01388 0
M  V30 7597 C 700.786 -0.294009 -3.45451 0
M  V30 7598 C 699.847 -1.3704 -4.0684 0
M  V30 7599 C 699.08 -0.86558 -5.26634 0
M  V30 7600 O 699.303 0.29702 -5.69626 0
M  V30 7601 O 698.237 -1.63968 -5.79136 0
M  V30 7602 H 702.063 -1.74454 -2.48595 0
M  V30 7603 H 699.648 -0.911155 -1.18399 0
M  V30 7604 H 701.53 -0.00381039 -4.214 0
M  V30 7605 H 700.205 0.598921 -3.18111 0
M  V30 7606 H 699.112 -1.71391 -3.3253 0
M  V30 7607 H 700.445 -2.23746 -4.38405 0
M  V30 7608 N 702.098 1.27442 -0.927168 0
M  V30 7609 C 703.344 1.94679 -0.568164 0
M  V30 7610 C 703.677 1.72697 0.888219 0
M  V30 7611 O 702.952 1.05573 1.63354 0
M  V30 7612 C 703.235 3.4882 -0.894253 0
M  V30 7613 C 703.088 3.80146 -2.40435 0
M  V30 7614 C 704.407 4.38281 -0.399766 0
M  V30 7615 H 701.526 0.707071 -0.207892 0
M  V30 7616 H 704.168 1.50568 -1.15885 0
M  V30 7617 H 702.318 3.86522 -0.391566 0
M  V30 7618 H 703.99 3.52238 -2.97869 0
M  V30 7619 H 702.233 3.26716 -2.85375 0
M  V30 7620 H 702.904 4.87835 -2.58304 0
M  V30 7621 H 705.38 4.07726 -0.83058 0
M  V30 7622 H 704.256 5.44955 -0.656885 0
M  V30 7623 H 704.517 4.36521 0.700153 0
M  V30 7624 N 703.576 0.692616 1.41565 0
M  V30 7625 C 704.526 0.00231847 2.28 0
M  V30 7626 C 705.51 -0.755793 1.42044 0
M  V30 7627 O 706.702 -0.631772 1.65341 0
M  V30 7628 C 703.831 -0.935468 3.30309 0
M  V30 7629 C 702.917 -0.173761 4.23744 0
M  V30 7630 N 703.308 0.830872 4.98929 0
M  V30 7631 C 701.606 -0.409666 4.44115 0
M  V30 7632 C 702.307 1.28656 5.67294 0
M  V30 7633 N 701.283 0.613053 5.40132 0
M  V30 7634 H 705.085 0.772635 2.83562 0
M  V30 7635 H 702.599 0.523198 1.53741 0
M  V30 7636 H 704.596 -1.44513 3.91052 0
M  V30 7637 H 703.256 -1.70542 2.76307 0
M  V30 7638 H 704.267 1.21101 5.03542 0
M  V30 7639 H 700.944 -1.15773 4.01127 0
M  V30 7640 H 702.334 2.12006 6.37576 0
M  V30 7641 N 705.054 -1.51416 0.437162 0
M  V30 7642 C 705.987 -2.24309 -0.419602 0
M  V30 7643 C 706.965 -1.26236 -1.02485 0
M  V30 7644 O 708.149 -1.5537 -1.06735 0
M  V30 7645 C 705.276 -2.99335 -1.58482 0
M  V30 7646 C 704.322 -4.12064 -1.10027 0
M  V30 7647 S 705.155 -5.35483 -0.0424476 0
M  V30 7648 C 706.311 -6.14047 -1.21234 0
M  V30 7649 H 706.544 -2.96632 0.199259 0
M  V30 7650 H 704.077 -1.528 0.22168 0
M  V30 7651 H 706.035 -3.43159 -2.25282 0
M  V30 7652 H 704.696 -2.26602 -2.17509 0
M  V30 7653 H 703.889 -4.63836 -1.97161 0
M  V30 7654 H 703.491 -3.70499 -0.510507 0
M  V30 7655 H 705.783 -6.43123 -2.13072 0
M  V30 7656 H 706.726 -7.04279 -0.734582 0
M  V30 7657 H 707.134 -5.45538 -1.45082 0
M  V30 7658 N 706.532 -0.168513 -1.56696 0
M  V30 7659 C 707.781 0.477233 -1.95973 0
M  V30 7660 C 708.094 1.64578 -1.05704 0
M  V30 7661 O 709.3 2.35758 -1.3465 0
M  V30 7662 C 707.756 0.900413 -3.48455 0
M  V30 7663 C 707.364 -0.242382 -4.47344 0
M  V30 7664 C 709.108 1.51474 -3.96555 0
M  V30 7665 C 707.015 0.200272 -5.91061 0
M  V30 7666 H 705.945 0.182061 -0.73169 0
M  V30 7667 H 708.596 -0.256297 -1.81701 0
M  V30 7668 H 706.978 1.68984 -3.58135 0
M  V30 7669 H 708.152 -1.01967 -4.49377 0
M  V30 7670 H 706.467 -0.766484 -4.09285 0
M  V30 7671 H 709.064 1.85792 -5.01384 0
M  V30 7672 H 709.407 2.41163 -3.39332 0
M  V30 7673 H 709.94 0.789802 -3.89881 0
M  V30 7674 H 706.679 -0.661775 -6.52151 0
M  V30 7675 H 706.199 0.942979 -5.92341 0
M  V30 7676 H 707.878 0.645088 -6.43776 0
M  V30 7677 N 708.01 1.57248 0.105221 0
M  V30 7678 C 708.957 2.01338 1.12835 0
M  V30 7679 C 709.927 0.887897 1.40377 0
M  V30 7680 O 711.112 1.15315 1.5201 0
M  V30 7681 C 708.252 2.43432 2.44611 0
M  V30 7682 C 707.365 3.69457 2.23888 0
M  V30 7683 C 706.5 4.00473 3.48991 0
M  V30 7684 C 705.539 5.19638 3.23485 0
M  V30 7685 N 704.676 5.46457 4.40828 0
M  V30 7686 H 709.516 2.88527 0.745386 0
M  V30 7687 H 707.053 1.42714 0.356535 0
M  V30 7688 H 709.011 2.65879 3.21503 0
M  V30 7689 H 707.641 1.59266 2.80774 0
M  V30 7690 H 706.693 3.54545 1.37847 0
M  V30 7691 H 708.005 4.56497 2.01026 0
M  V30 7692 H 707.159 4.23642 4.34295 0
M  V30 7693 H 705.898 3.11935 3.74897 0
M  V30 7694 H 704.903 4.96299 2.36574 0
M  V30 7695 H 706.128 6.09766 2.98935 0
M  V30 7696 H 704.074 4.60876 4.66829 0
M  V30 7697 H 703.991 6.27849 4.2112 0
M  V30 7698 H 705.259 5.74155 5.27225 0
M  V30 7699 N 709.488 -0.375779 1.53054 0
M  V30 7700 C 710.436 -1.48015 1.79428 0
M  V30 7701 C 711.43 -1.55893 0.662854 0
M  V30 7702 O 712.636 -1.58901 0.845599 0
M  V30 7703 H 709.011 -0.492887 0.56795 0
M  V30 7704 H 710.982 -1.22971 2.71884 0
M  V30 7705 C 709.731 -2.84984 1.99197 0
M  V30 7706 H 709.054 -2.79677 2.85693 0
M  V30 7707 H 710.494 -3.61462 2.21633 0
M  V30 7708 C 708.953 -3.28025 0.768183 0
M  V30 7709 O 709.483 -4.01671 -0.0480482 0
M  V30 7710 N 707.689 -2.84454 0.594521 0
M  V30 7711 H 707.236 -2.24688 1.25988 0
M  V30 7712 H 707.194 -3.13609 -0.222916 0
M  V30 7713 N 710.966 -1.44241 -0.634997 0
M  V30 7714 C 711.913 -1.5081 -1.74714 0
M  V30 7715 C 712.883 -0.356147 -1.62237 0
M  V30 7716 O 714.068 -0.565848 -1.82216 0
M  V30 7717 C 711.208 -1.45458 -3.12947 0
M  V30 7718 C 710.321 -2.70998 -3.36428 0
M  V30 7719 C 709.456 -2.57507 -4.64611 0
M  V30 7720 C 708.495 -3.78229 -4.81258 0
M  V30 7721 N 707.632 -3.63438 -6.00714 0
M  V30 7722 H 712.472 -2.45832 -1.68436 0
M  V30 7723 H 710.009 -1.2201 -0.821706 0
M  V30 7724 H 711.967 -1.40347 -3.92885 0
M  V30 7725 H 710.597 -0.540058 -3.1825 0
M  V30 7726 H 709.649 -2.86312 -2.50458 0
M  V30 7727 H 710.961 -3.60619 -3.44609 0
M  V30 7728 H 710.115 -2.50207 -5.52703 0
M  V30 7729 H 708.854 -1.65441 -4.58782 0
M  V30 7730 H 707.859 -3.85918 -3.91596 0
M  V30 7731 H 709.084 -4.71327 -4.88904 0
M  V30 7732 H 707.03 -2.7412 -5.95982 0
M  V30 7733 H 706.947 -4.46672 -6.09934 0
M  V30 7734 H 708.215 -3.60022 -6.91378 0
M  V30 7735 N 712.444 0.87505 -1.31075 0
M  V30 7736 C 713.855 1.4433 -1.18431 0
M  V30 7737 C 714.206 1.9506 0.211189 0
M  V30 7738 O 713.331 1.85847 1.10859 0
M  V30 7739 C 713.926 2.62341 -2.14389 0
M  V30 7740 C 712.485 3.15225 -2.05694 0
M  V30 7741 C 711.632 1.87929 -2.03907 0
M  V30 7742 H 714.583 0.684061 -1.432 0
M  V30 7743 H 714.604 3.3887 -1.73053 0
M  V30 7744 H 714.116 2.25388 -3.15946 0
M  V30 7745 H 712.217 3.56812 -1.07314 0
M  V30 7746 H 712.33 3.77853 -2.94558 0
M  V30 7747 H 710.694 2.06679 -1.48849 0
M  V30 7748 H 711.477 1.53221 -3.07211 0
M  V30 7749 N 713.922 1.13953 1.08869 0
M  V30 7750 C 714.885 0.824991 2.13838 0
M  V30 7751 C 715.885 -0.168198 1.59918 0
M  V30 7752 O 717.075 0.0595778 1.74098 0
M  V30 7753 C 714.207 0.228938 3.4013 0
M  V30 7754 H 715.4 1.75521 2.43171 0
M  V30 7755 H 712.953 0.94492 1.24503 0
M  V30 7756 H 713.688 -0.710227 3.16427 0
M  V30 7757 H 713.473 0.944243 3.80561 0
M  V30 7758 H 714.963 0.0259223 4.17592 0
M  V30 7759 N 715.4 -1.26948 0.933913 0
M  V30 7760 C 716.625 -1.98724 0.593589 0
M  V30 7761 C 717.05 -1.6915 -0.822801 0
M  V30 7762 O 716.408 -0.93533 -1.5531 0
M  V30 7763 C 716.456 -3.50834 0.833542 0
M  V30 7764 O 715.56 -4.12284 -0.0978788 0
M  V30 7765 H 714.901 -0.623683 0.227849 0
M  V30 7766 H 717.431 -1.61599 1.25486 0
M  V30 7767 H 717.441 -4.01018 0.75156 0
M  V30 7768 H 716.116 -3.71691 1.86597 0
M  V30 7769 H 714.693 -3.72884 0.0345443 0
M  V30 7770 N 716.879 -0.700114 -1.41195 0
M  V30 7771 C 718.29 -0.307249 -1.84154 0
M  V30 7772 C 718.641 1.15539 -1.58572 0
M  V30 7773 O 717.766 1.88744 -1.05852 0
M  V30 7774 C 718.361 -0.550872 -3.34292 0
M  V30 7775 C 716.92 -0.211877 -3.75803 0
M  V30 7776 C 716.067 -0.830915 -2.64558 0
M  V30 7777 H 719.018 -0.900431 -1.30683 0
M  V30 7778 H 719.039 0.188954 -3.80031 0
M  V30 7779 H 718.551 -1.61548 -3.5288 0
M  V30 7780 H 716.652 0.848283 -3.62815 0
M  V30 7781 H 716.765 -0.67007 -4.74391 0
M  V30 7782 H 715.129 -0.260155 -2.53368 0
M  V30 7783 H 715.912 -1.89948 -2.85963 0
M  V30 7784 N 718.357 1.51182 -0.445186 0
M  V30 7785 C 719.307 2.24804 0.380394 0
M  V30 7786 C 720.291 1.27344 0.983482 0
M  V30 7787 O 721.483 1.52392 0.900322 0
M  V30 7788 C 718.612 3.09922 1.4766 0
M  V30 7789 C 717.698 4.14816 0.882517 0
M  V30 7790 N 718.089 5.05797 0.0183278 0
M  V30 7791 C 716.387 4.30938 1.14927 0
M  V30 7792 C 717.088 5.8084 -0.316152 0
M  V30 7793 N 716.064 5.42759 0.302214 0
M  V30 7794 H 719.866 2.92508 -0.285737 0
M  V30 7795 H 717.38 1.60342 -0.257733 0
M  V30 7796 H 719.377 3.61249 2.08098 0
M  V30 7797 H 718.037 2.43763 2.14498 0
M  V30 7798 H 719.048 5.16725 -0.348679 0
M  V30 7799 H 715.725 3.76005 1.81457 0
M  V30 7800 H 717.115 6.64115 -1.01986 0
M  V30 7801 N 719.835 0.176821 1.56605 0
M  V30 7802 C 721.084 -0.466833 1.96223 0
M  V30 7803 C 721.397 -1.64015 1.06576 0
M  V30 7804 O 722.603 -2.3504 1.35898 0
M  V30 7805 C 721.059 -0.881921 3.48927 0
M  V30 7806 C 720.667 0.266102 4.47209 0
M  V30 7807 C 722.411 -1.49368 3.97353 0
M  V30 7808 C 720.318 -0.168923 5.91159 0
M  V30 7809 H 719.248 -0.178178 0.732645 0
M  V30 7810 H 721.899 0.265929 1.81563 0
M  V30 7811 H 720.281 -1.67082 3.59026 0
M  V30 7812 H 721.455 1.04349 4.4883 0
M  V30 7813 H 719.77 0.788178 4.08872 0
M  V30 7814 H 722.367 -1.8313 5.02362 0
M  V30 7815 H 722.71 -2.3936 3.40606 0
M  V30 7816 H 723.243 -0.769114 3.90294 0
M  V30 7817 H 719.982 0.696351 6.51791 0
M  V30 7818 H 719.502 -0.911552 5.92833 0
M  V30 7819 H 721.181 -0.610938 6.44109 0
M  V30 7820 N 721.313 -1.57302 -0.09688 0
M  V30 7821 C 722.26 -2.01933 -1.11766 0
M  V30 7822 C 723.23 -0.895329 -1.39904 0
M  V30 7823 O 724.415 -1.16119 -1.51397 0
M  V30 7824 C 721.555 -2.44726 -2.43317 0
M  V30 7825 C 720.668 -3.70639 -2.21925 0
M  V30 7826 C 719.803 -4.02318 -3.46862 0
M  V30 7827 C 718.842 -5.21346 -3.20725 0
M  V30 7828 N 717.979 -5.48787 -4.37924 0
M  V30 7829 H 722.819 -2.88919 -0.730075 0
M  V30 7830 H 720.356 -1.42901 -0.348962 0
M  V30 7831 H 722.314 -2.6758 -3.20088 0
M  V30 7832 H 720.944 -1.60753 -2.79926 0
M  V30 7833 H 719.996 -3.55271 -1.35965 0
M  V30 7834 H 721.308 -4.57557 -1.98603 0
M  V30 7835 H 720.462 -4.25939 -4.32042 0
M  V30 7836 H 719.201 -3.13918 -3.73238 0
M  V30 7837 H 718.206 -4.97547 -2.33938 0
M  V30 7838 H 719.431 -6.11343 -2.95697 0
M  V30 7839 H 717.377 -4.63346 -4.64378 0
M  V30 7840 H 717.294 -6.30073 -4.17785 0
M  V30 7841 H 718.562 -5.76943 -5.24173 0
M  V30 7842 N 722.791 0.367657 -1.53252 0
M  V30 7843 C 724.04 1.10782 -1.68554 0
M  V30 7844 C 724.353 1.90523 -0.442765 0
M  V30 7845 O 725.559 2.6729 -0.47629 0
M  V30 7846 C 724.015 2.01863 -2.97959 0
M  V30 7847 C 723.623 1.27443 -4.29491 0
M  V30 7848 C 725.367 2.75883 -3.22628 0
M  V30 7849 C 723.274 2.17414 -5.49987 0
M  V30 7850 H 722.204 0.417272 -0.628013 0
M  V30 7851 H 724.855 0.368971 -1.79752 0
M  V30 7852 H 723.237 2.7947 -2.80558 0
M  V30 7853 H 724.411 0.549138 -4.57516 0
M  V30 7854 H 722.726 0.652935 -4.11249 0
M  V30 7855 H 725.323 3.43421 -4.09837 0
M  V30 7856 H 725.666 3.41138 -2.38601 0
M  V30 7857 H 726.199 2.0536 -3.40693 0
M  V30 7858 H 722.938 1.5674 -6.36485 0
M  V30 7859 H 722.458 2.87799 -5.26243 0
M  V30 7860 H 724.137 2.77019 -5.84696 0
M  V30 7861 N 724.269 1.44576 0.627338 0
M  V30 7862 C 725.179 1.54232 1.76776 0
M  V30 7863 C 726.195 0.427782 1.6866 0
M  V30 7864 O 727.371 0.685671 1.89369 0
M  V30 7865 C 724.436 1.48738 3.13174 0
M  V30 7866 C 723.497 2.71074 3.32893 0
M  V30 7867 C 722.73 2.65832 4.62784 0
M  V30 7868 O 722.953 1.72048 5.43834 0
M  V30 7869 O 721.887 3.56742 4.84787 0
M  V30 7870 H 725.713 2.50586 1.71582 0
M  V30 7871 H 723.298 1.26865 0.789028 0
M  V30 7872 H 725.18 1.48211 3.94476 0
M  V30 7873 H 723.855 0.555292 3.18902 0
M  V30 7874 H 722.762 2.77168 2.51254 0
M  V30 7875 H 724.095 3.63342 3.32029 0
M  V30 7876 N 725.747 -0.868086 1.31537 0
M  V30 7877 C 726.68 -1.97871 1.13676 0
M  V30 7878 C 727.658 -1.62551 0.0397589 0
M  V30 7879 O 728.842 -1.87473 0.196539 0
M  V30 7880 C 725.969 -3.30577 0.73734 0
M  V30 7881 C 725.015 -3.8488 1.83765 0
M  V30 7882 S 725.848 -4.10106 3.44345 0
M  V30 7883 C 727.004 -5.45806 3.06344 0
M  V30 7884 H 727.237 -2.12719 2.07697 0
M  V30 7885 H 724.77 -1.01849 1.16044 0
M  V30 7886 H 726.728 -4.07274 0.513641 0
M  V30 7887 H 725.389 -3.13562 -0.183787 0
M  V30 7888 H 724.582 -4.80821 1.51085 0
M  V30 7889 H 724.184 -3.14981 2.01651 0
M  V30 7890 H 726.476 -6.27535 2.55354 0
M  V30 7891 H 727.419 -5.83437 4.01257 0
M  V30 7892 H 727.827 -5.0917 2.43734 0
M  V30 7893 N 727.225 -1.14528 -1.08264 0
M  V30 7894 C 728.172 -0.833556 -2.15222 0
M  V30 7895 C 729.142 0.209539 -1.64773 0
M  V30 7896 O 730.327 0.0791388 -1.90636 0
M  V30 7897 C 727.467 -0.318799 -3.43624 0
M  V30 7898 C 726.58 -1.42237 -4.07913 0
M  V30 7899 C 725.715 -0.864704 -5.24115 0
M  V30 7900 C 724.754 -1.94585 -5.80347 0
M  V30 7901 N 723.891 -1.40525 -6.87893 0
M  V30 7902 H 728.731 -1.74965 -2.41228 0
M  V30 7903 H 726.268 -0.873169 -1.18381 0
M  V30 7904 H 728.226 -0.00213088 -4.172 0
M  V30 7905 H 726.856 0.560397 -3.17898 0
M  V30 7906 H 725.908 -1.8554 -3.32083 0
M  V30 7907 H 727.22 -2.23901 -4.45724 0
M  V30 7908 H 726.374 -0.500025 -6.04636 0
M  V30 7909 H 725.113 -0.0171219 -4.87697 0
M  V30 7910 H 724.118 -2.31946 -4.98479 0
M  V30 7911 H 725.343 -2.79704 -6.18823 0
M  V30 7912 H 723.289 -0.579873 -6.53432 0
M  V30 7913 H 723.206 -2.15825 -7.24538 0
M  V30 7914 H 724.474 -1.06852 -7.72142 0
M  V30 7915 N 728.703 1.26451 -0.940633 0
M  V30 7916 C 729.651 2.28389 -0.440581 0
M  V30 7917 C 730.645 1.62402 0.481859 0
M  V30 7918 O 731.851 1.76361 0.360132 0
M  V30 7919 H 728.226 0.741716 -0.123938 0
M  V30 7920 H 730.197 2.67967 -1.31288 0
M  V30 7921 C 728.946 3.46576 0.279364 0
M  V30 7922 H 728.269 3.97574 -0.421274 0
M  V30 7923 H 729.709 4.19826 0.59348 0
M  V30 7924 C 728.168 3.01815 1.49697 0
M  V30 7925 O 728.698 3.06607 2.59529 0
M  V30 7926 N 726.904 2.57163 1.35334 0
M  V30 7927 H 726.451 2.53464 0.459743 0
M  V30 7928 H 726.409 2.27578 2.16923 0
M  V30 7929 N 730.181 0.707592 1.40822 0
M  V30 7930 C 731.144 0.0587224 2.29125 0
M  V30 7931 C 732.144 -0.695624 1.44975 0
M  V30 7932 O 733.334 -0.528718 1.65983 0
M  V30 7933 C 730.466 -0.926939 3.28056 0
M  V30 7934 H 731.659 0.836349 2.88002 0
M  V30 7935 H 729.212 0.471778 1.4901 0
M  V30 7936 H 729.947 -1.7319 2.74182 0
M  V30 7937 H 729.732 -0.389015 3.90165 0
M  V30 7938 H 731.222 -1.37837 3.94196 0
M  V30 7939 N 731.66 -1.50943 0.453197 0
M  V30 7940 C 732.888 -2.06628 -0.106135 0
M  V30 7941 C 733.303 -1.31901 -1.35084 0
M  V30 7942 O 732.66 -0.383074 -1.78434 0
M  V30 7943 C 732.711 -3.5914 -0.412368 0
M  V30 7944 O 732.432 -4.31047 0.782948 0
M  V30 7945 C 733.933 -4.31391 -1.02064 0
M  V30 7946 H 731.153 -0.670999 -0.000885896 0
M  V30 7947 H 733.697 -1.94331 0.63684 0
M  V30 7948 H 731.852 -3.71299 -1.10526 0
M  V30 7949 H 732.266 -5.21948 0.516736 0
M  V30 7950 H 733.74 -5.39135 -1.1848 0
M  V30 7951 H 734.217 -3.90714 -2.00598 0
M  V30 7952 H 734.823 -4.23716 -0.366664 0
M  V30 7953 N 733.138 -0.185124 -1.56509 0
M  V30 7954 C 734.068 0.735098 -2.21627 0
M  V30 7955 C 735.049 1.2288 -1.1762 0
M  V30 7956 O 736.234 1.27945 -1.46095 0
M  V30 7957 C 733.364 1.95889 -2.86783 0
M  V30 7958 C 732.318 1.6005 -3.96948 0
M  V30 7959 C 731.644 2.90009 -4.4922 0
M  V30 7960 C 732.944 0.818008 -5.15855 0
M  V30 7961 H 734.638 0.192274 -2.98782 0
M  V30 7962 H 732.184 0.0910393 -1.43712 0
M  V30 7963 H 734.137 2.60779 -3.31017 0
M  V30 7964 H 732.861 2.52608 -2.07018 0
M  V30 7965 H 731.52 0.975237 -3.5339 0
M  V30 7966 H 731.168 3.44797 -3.6623 0
M  V30 7967 H 730.868 2.66778 -5.23549 0
M  V30 7968 H 732.392 3.55904 -4.9615 0
M  V30 7969 H 733.806 1.36979 -5.56695 0
M  V30 7970 H 732.203 0.684207 -5.96187 0
M  V30 7971 H 733.273 -0.182939 -4.84555 0
M  V30 7972 N 734.616 1.57351 0.0885366 0
M  V30 7973 C 735.579 2.01557 1.09121 0
M  V30 7974 C 736.579 0.910052 1.3257 0
M  V30 7975 O 737.769 1.17537 1.28572 0
M  V30 7976 C 734.901 2.38189 2.43883 0
M  V30 7977 H 736.094 2.91361 0.710562 0
M  V30 7978 H 733.647 1.52694 0.333779 0
M  V30 7979 H 734.382 1.5136 2.86811 0
M  V30 7980 H 734.167 3.18846 2.28209 0
M  V30 7981 H 735.657 2.73025 3.15986 0
M  V30 7982 N 736.094 -0.359525 1.53444 0
M  V30 7983 C 737.34 -1.09958 1.71116 0
M  V30 7984 C 737.695 -1.8681 0.460414 0
M  V30 7985 O 736.988 -1.83635 -0.5467 0
M  V30 7986 C 737.182 -2.08287 2.90433 0
M  V30 7987 C 737.011 -1.41098 4.26991 0
M  V30 7988 C 735.781 -1.16255 4.91745 0
M  V30 7989 C 737.979 -0.845517 5.07302 0
M  V30 7990 N 735.961 -0.454798 6.12213 0
M  V30 7991 C 737.332 -0.267455 6.19423 0
M  V30 7992 C 739.387 -0.744797 4.92298 0
M  V30 7993 C 738.09 0.401511 7.18179 0
M  V30 7994 C 740.116 -0.0896013 5.91332 0
M  V30 7995 C 739.478 0.47756 7.02779 0
M  V30 7996 H 735.577 -0.387305 0.679352 0
M  V30 7997 H 738.161 -0.38519 1.90852 0
M  V30 7998 H 736.332 -2.77034 2.72226 0
M  V30 7999 H 738.064 -2.75015 2.96899 0
M  V30 8000 H 734.819 -1.44544 4.51003 0
M  V30 8001 H 735.243 -0.116108 6.769 0
M  V30 8002 H 739.885 -1.16905 4.06317 0
M  V30 8003 H 737.603 0.837694 8.03746 0
M  V30 8004 H 741.189 -0.0125162 5.81799 0
M  V30 8005 H 740.069 0.976522 7.78096 0
M  V30 8006 N 737.572 -1.44907 -0.619662 0
M  V30 8007 C 738.849 -1.38766 -1.37852 0
M  V30 8008 C 739.229 -0.0521393 -2.11036 0
M  V30 8009 O 738.577 0.965613 -2.07095 0
M  V30 8010 C 738.787 -2.59344 -2.33541 0
M  V30 8011 C 740.135 -3.03909 -2.96521 0
M  V30 8012 O 741.159 -2.59631 -2.43865 0
M  V30 8013 O 740.018 -3.80713 -3.92071 0
M  V30 8014 H 737.112 -0.550083 -0.617525 0
M  V30 8015 H 739.658 -1.57015 -0.643759 0
M  V30 8016 H 738.43 -3.48142 -1.78642 0
M  V30 8017 H 738.053 -2.43367 -3.14417 0
M  V30 8018 N 739.05 0.861098 -1.31996 0
M  V30 8019 C 740.275 1.65264 -1.2531 0
M  V30 8020 C 740.7 1.87265 0.177007 0
M  V30 8021 O 740.058 1.4208 1.12619 0
M  V30 8022 C 740.106 2.99284 -2.0115 0
M  V30 8023 O 739.21 3.89508 -1.3549 0
M  V30 8024 H 738.551 0.50409 -0.432192 0
M  V30 8025 H 741.081 1.07297 -1.74208 0
M  V30 8026 H 741.091 3.49154 -2.11081 0
M  V30 8027 H 739.766 2.82591 -3.05148 0
M  V30 8028 H 738.343 3.47966 -1.34066 0
M  V30 8029 N 740.528 1.15101 1.07655 0
M  V30 8030 C 741.753 0.948177 1.84457 0
M  V30 8031 C 742.178 -0.498432 1.81376 0
M  V30 8032 O 741.536 -1.35509 1.20445 0
M  V30 8033 C 741.584 1.46318 3.29581 0
M  V30 8034 O 740.688 0.660342 4.07079 0
M  V30 8035 H 740.029 0.338428 0.571281 0
M  V30 8036 H 742.559 1.5301 1.35828 0
M  V30 8037 H 742.569 1.47468 3.80417 0
M  V30 8038 H 741.244 2.51635 3.31138 0
M  V30 8039 H 739.821 0.718216 3.65918 0
M  V30 8040 N 742.006 -1.2595 0.947325 0
M  V30 8041 C 742.956 -2.23859 0.432547 0
M  V30 8042 C 743.94 -1.53755 -0.474154 0
M  V30 8043 O 745.132 -1.74293 -0.308397 0
M  V30 8044 C 742.261 -3.42027 -0.295318 0
M  V30 8045 C 741.347 -4.19409 0.62903 0
M  V30 8046 N 741.738 -4.74284 1.7575 0
M  V30 8047 C 740.036 -4.43866 0.435805 0
M  V30 8048 C 740.737 -5.32821 2.33401 0
M  V30 8049 N 739.713 -5.18858 1.62135 0
M  V30 8050 H 743.515 -2.63886 1.29388 0
M  V30 8051 H 741.029 -1.41105 0.80393 0
M  V30 8052 H 743.026 -4.11297 -0.681188 0
M  V30 8053 H 741.686 -3.03526 -1.15334 0
M  V30 8054 H 742.697 -4.71641 2.13952 0
M  V30 8055 H 739.374 -4.15768 -0.37994 0
M  V30 8056 H 740.764 -5.86111 3.28517 0
M  V30 8057 N 743.484 -0.715051 -1.40445 0
M  V30 8058 C 744.709 -0.26254 -2.05732 0
M  V30 8059 C 745.134 1.08691 -1.53519 0
M  V30 8060 O 744.492 1.68453 -0.670328 0
M  V30 8061 C 744.54 -0.25195 -3.59719 0
M  V30 8062 O 743.644 0.766998 -4.05205 0
M  V30 8063 H 742.985 -0.123398 -0.652433 0
M  V30 8064 H 745.515 -0.975382 -1.79854 0
M  V30 8065 H 745.525 -0.0894537 -4.07902 0
M  V30 8066 H 744.2 -1.23672 -3.97087 0
M  V30 8067 H 742.777 0.572269 -3.68483 0
M  V30 8068 N 744.962 1.50701 -0.461195 0
M  V30 8069 C 746.187 2.07171 0.0974773 0
M  V30 8070 C 746.612 1.32391 1.3362 0
M  V30 8071 O 745.97 0.368676 1.77512 0
M  V30 8072 C 746.018 3.58651 0.374409 0
M  V30 8073 O 745.122 3.85816 1.4567 0
M  V30 8074 H 744.463 0.663944 -0.00862047 0
M  V30 8075 H 746.993 1.94021 -0.649394 0
M  V30 8076 H 747.003 4.03295 0.617843 0
M  V30 8077 H 745.678 4.12498 -0.530829 0
M  V30 8078 H 744.255 3.53018 1.20136 0
M  V30 8079 N 746.441 0.193421 1.56409 0
M  V30 8080 C 747.69 -0.445995 1.96707 0
M  V30 8081 C 748.003 -1.62876 1.08309 0
M  V30 8082 O 749.209 -2.33586 1.38383 0
M  V30 8083 C 747.665 -0.844863 3.49843 0
M  V30 8084 C 747.273 0.31352 4.46902 0
M  V30 8085 C 749.017 -1.45146 3.98915 0
M  V30 8086 C 746.924 -0.106214 5.91305 0
M  V30 8087 H 745.854 -0.170398 0.734493 0
M  V30 8088 H 748.505 0.285172 1.81271 0
M  V30 8089 H 746.887 -1.63265 3.60778 0
M  V30 8090 H 748.061 1.09103 4.47698 0
M  V30 8091 H 746.376 0.8315 4.08014 0
M  V30 8092 H 748.973 -1.77792 5.04276 0
M  V30 8093 H 749.316 -2.35734 3.43126 0
M  V30 8094 H 749.849 -0.727675 3.91088 0
M  V30 8095 H 746.588 0.765442 6.51016 0
M  V30 8096 H 746.108 -0.848623 5.93766 0
M  V30 8097 H 747.787 -0.542588 6.44721 0
M  V30 8098 N 747.919 -1.57396 -0.0801906 0
M  V30 8099 C 748.851 -1.9982 -1.12271 0
M  V30 8100 C 749.864 -0.902902 -1.35468 0
M  V30 8101 O 751.053 -1.18088 -1.33856 0
M  V30 8102 C 748.153 -2.31476 -2.47532 0
M  V30 8103 C 747.326 -3.62745 -2.44407 0
M  V30 8104 C 746.385 -3.82168 -3.6171 0
M  V30 8105 O 745.411 -4.53852 -3.43522 0
M  V30 8106 N 746.613 -3.2388 -4.81749 0
M  V30 8107 H 749.378 -2.89864 -0.761501 0
M  V30 8108 H 746.939 -1.5965 -0.268965 0
M  V30 8109 H 748.931 -2.4165 -3.24634 0
M  V30 8110 H 747.501 -1.47364 -2.75686 0
M  V30 8111 H 746.721 -3.63403 -1.52747 0
M  V30 8112 H 748.009 -4.48954 -2.39412 0
M  V30 8113 H 747.407 -2.6568 -4.9943 0
M  V30 8114 H 745.964 -3.39515 -5.56392 0
M  V30 8115 N 749.397 0.351382 -1.53633 0
M  V30 8116 C 750.345 1.45142 -1.8176 0
M  V30 8117 C 751.339 1.54819 -0.687571 0
M  V30 8118 O 752.545 1.57536 -0.870772 0
M  V30 8119 H 748.92 0.483789 -0.575719 0
M  V30 8120 H 750.891 1.1863 -2.73806 0
M  V30 8121 C 749.64 2.81779 -2.03706 0
M  V30 8122 H 748.963 2.75097 -2.90107 0
M  V30 8123 H 750.403 3.5789 -2.27356 0
M  V30 8124 C 748.862 3.26762 -0.820271 0
M  V30 8125 O 749.392 4.01697 -0.0158603 0
M  V30 8126 N 747.598 2.83472 -0.639699 0
M  V30 8127 H 747.145 2.22655 -1.29547 0
M  V30 8128 H 747.103 3.13924 0.172995 0
M  V30 8129 N 750.875 1.45233 0.611969 0
M  V30 8130 C 752.1 1.52767 1.40274 0
M  V30 8131 C 752.525 0.159701 1.87421 0
M  V30 8132 O 751.883 -0.854837 1.59882 0
M  V30 8133 C 751.931 2.51286 2.58626 0
M  V30 8134 O 751.035 2.02764 3.59111 0
M  V30 8135 H 750.376 0.515141 0.418958 0
M  V30 8136 H 752.906 1.90547 0.745188 0
M  V30 8137 H 752.916 2.69949 3.05927 0
M  V30 8138 H 751.591 3.50641 2.23659 0
M  V30 8139 H 750.168 1.93957 3.18489 0
M  V30 8140 N 752.353 -0.854086 1.3245 0
M  V30 8141 C 753.764 -1.42427 1.20712 0
M  V30 8142 C 754.115 -1.95371 -0.18013 0
M  V30 8143 O 753.24 -1.87587 -1.07889 0
M  V30 8144 C 753.835 -2.58897 2.18536 0
M  V30 8145 C 752.394 -3.11913 2.10683 0
M  V30 8146 C 751.541 -1.84661 2.06871 0
M  V30 8147 H 754.492 -0.661192 1.4427 0
M  V30 8148 H 754.513 -3.36074 1.78422 0
M  V30 8149 H 754.025 -2.20333 3.19492 0
M  V30 8150 H 752.126 -3.55059 1.12977 0
M  V30 8151 H 752.239 -3.73119 3.00532 0
M  V30 8152 H 750.603 -2.04285 1.52118 0
M  V30 8153 H 751.386 -1.48314 3.09609 0
M  V30 8154 N 753.831 -1.1567 -1.07043 0
M  V30 8155 C 754.778 -0.856336 -2.14326 0
M  V30 8156 C 755.748 0.192051 -1.64986 0
M  V30 8157 O 756.933 0.0589148 -1.90709 0
M  V30 8158 C 754.073 -0.355227 -3.43267 0
M  V30 8159 C 753.186 -1.46555 -4.06381 0
M  V30 8160 C 752.321 -0.920245 -5.23168 0
M  V30 8161 C 751.36 -2.00729 -5.78251 0
M  V30 8162 N 750.497 -1.47813 -6.86364 0
M  V30 8163 H 755.337 -1.77514 -2.39359 0
M  V30 8164 H 752.874 -0.885676 -1.17449 0
M  V30 8165 H 754.832 -0.0463804 -4.17174 0
M  V30 8166 H 753.462 0.526649 -3.18475 0
M  V30 8167 H 752.514 -1.89052 -3.30096 0
M  V30 8168 H 753.826 -2.28616 -4.43324 0
M  V30 8169 H 752.98 -0.564127 -6.04072 0
M  V30 8170 H 751.719 -0.0688477 -4.87651 0
M  V30 8171 H 750.724 -2.3722 -4.95991 0
M  V30 8172 H 751.949 -2.86252 -6.15822 0
M  V30 8173 H 749.895 -0.649145 -6.5278 0
M  V30 8174 H 749.812 -2.23498 -7.22208 0
M  V30 8175 H 751.08 -1.15036 -7.70965 0
M  V30 8176 N 755.309 1.25446 -0.953992 0
M  V30 8177 C 756.239 2.28264 -0.491717 0
M  V30 8178 C 757.22 1.63717 0.461617 0
M  V30 8179 O 758.405 1.90821 0.36071 0
M  V30 8180 C 755.535 3.46525 0.231915 0
M  V30 8181 C 754.489 4.23247 -0.636098 0
M  V30 8182 C 753.815 5.34254 0.218238 0
M  V30 8183 C 755.115 4.85971 -1.91389 0
M  V30 8184 H 756.809 2.67183 -1.35106 0
M  V30 8185 H 754.355 1.2844 -0.651095 0
M  V30 8186 H 756.308 4.17576 0.566439 0
M  V30 8187 H 755.032 3.06594 1.12551 0
M  V30 8188 H 753.691 3.53978 -0.953696 0
M  V30 8189 H 753.339 4.90564 1.11156 0
M  V30 8190 H 753.039 5.86501 -0.359232 0
M  V30 8191 H 754.563 6.08138 0.547743 0
M  V30 8192 H 755.977 5.49168 -1.64581 0
M  V30 8193 H 754.374 5.48391 -2.43696 0
M  V30 8194 H 755.444 4.08192 -2.61738 0
M  V30 8195 N 756.787 0.722489 1.40064 0
M  V30 8196 C 758.015 0.274838 2.05066 0
M  V30 8197 C 758.43 -1.08586 1.54449 0
M  V30 8198 O 757.787 -1.68375 0.704003 0
M  V30 8199 C 757.838 0.253673 3.60609 0
M  V30 8200 O 757.559 1.56064 4.0936 0
M  V30 8201 C 759.06 -0.211684 4.42794 0
M  V30 8202 H 756.28 0.12226 0.659768 0
M  V30 8203 H 758.824 0.982632 1.79345 0
M  V30 8204 H 756.979 -0.405137 3.85276 0
M  V30 8205 H 757.393 1.46576 5.03603 0
M  V30 8206 H 758.867 -0.175341 5.51721 0
M  V30 8207 H 759.344 -1.25493 4.2089 0
M  V30 8208 H 759.95 0.4171 4.2325 0
M  V30 8209 N 758.265 -1.50454 0.469181 0
M  V30 8210 C 759.676 -1.86695 0.0136034 0
M  V30 8211 C 760.027 -1.38413 -1.39055 0
M  V30 8212 O 759.152 -0.748294 -2.03051 0
M  V30 8213 C 759.747 -3.38795 0.0179098 0
M  V30 8214 C 758.306 -3.74455 -0.382191 0
M  V30 8215 C 757.453 -2.74338 0.404207 0
M  V30 8216 H 760.404 -1.43225 0.683547 0
M  V30 8217 H 760.425 -3.72321 -0.78468 0
M  V30 8218 H 759.937 -3.73906 1.04 0
M  V30 8219 H 758.038 -3.44944 -1.4087 0
M  V30 8220 H 758.151 -4.79025 -0.084862 0
M  V30 8221 H 756.515 -2.54305 -0.141829 0
M  V30 8222 H 757.298 -3.12293 1.42577 0
M  V30 8223 N 759.743 -0.201713 -1.56304 0
M  V30 8224 C 760.69 0.716499 -2.19397 0
M  V30 8225 C 761.66 1.20494 -1.14326 0
M  V30 8226 O 762.845 1.26763 -1.42604 0
M  V30 8227 C 759.985 1.92762 -2.86246 0
M  V30 8228 C 759.098 1.47993 -4.0586 0
M  V30 8229 C 758.233 2.64706 -4.60547 0
M  V30 8230 C 757.272 2.16576 -5.72504 0
M  V30 8231 N 756.409 3.26491 -6.21569 0
M  V30 8232 H 761.249 0.171724 -2.97505 0
M  V30 8233 H 758.786 0.073016 -1.46919 0
M  V30 8234 H 760.744 2.6384 -3.23178 0
M  V30 8235 H 759.374 2.44559 -2.10691 0
M  V30 8236 H 758.426 0.66477 -3.74546 0
M  V30 8237 H 759.738 1.08686 -4.86815 0
M  V30 8238 H 758.892 3.43898 -4.99819 0
M  V30 8239 H 757.631 3.0729 -3.78713 0
M  V30 8240 H 756.636 1.3584 -5.32755 0
M  V30 8241 H 757.861 1.75015 -6.56161 0
M  V30 8242 H 755.807 3.68594 -5.42655 0
M  V30 8243 H 755.724 2.91374 -6.97594 0
M  V30 8244 H 756.992 4.05877 -6.65495 0
M  V30 8245 N 761.222 1.57436 0.0718424 0
M  V30 8246 C 762.155 1.98982 1.11721 0
M  V30 8247 C 763.133 0.866731 1.37574 0
M  V30 8248 O 764.317 1.12903 1.50948 0
M  V30 8249 C 761.444 2.32648 2.46155 0
M  V30 8250 C 760.49 3.54964 2.36437 0
M  V30 8251 S 761.323 5.05802 1.75854 0
M  V30 8252 C 762.479 5.42669 3.11867 0
M  V30 8253 H 762.712 2.87338 0.763154 0
M  V30 8254 H 760.245 1.51833 0.280372 0
M  V30 8255 H 762.203 2.52719 3.23486 0
M  V30 8256 H 760.864 1.44821 2.78722 0
M  V30 8257 H 760.057 3.76038 3.35577 0
M  V30 8258 H 759.659 3.34524 1.67242 0
M  V30 8259 H 761.951 5.40737 4.08178 0
M  V30 8260 H 762.894 6.43461 2.95573 0
M  V30 8261 H 763.302 4.70131 3.1247 0
M  V30 8262 N 762.7 -0.34323 1.53817 0
M  V30 8263 C 763.647 -1.42153 1.81827 0
M  V30 8264 C 764.617 -1.52251 0.663996 0
M  V30 8265 O 765.802 -1.67784 0.908461 0
M  V30 8266 C 762.942 -2.78799 2.03384 0
M  V30 8267 C 762.055 -2.7749 3.31094 0
M  V30 8268 C 761.19 -4.05856 3.42717 0
M  V30 8269 C 760.229 -3.98776 4.64375 0
M  V30 8270 N 759.366 -5.18833 4.73029 0
M  V30 8271 H 764.206 -1.17567 2.73829 0
M  V30 8272 H 761.743 -0.569506 1.35628 0
M  V30 8273 H 763.701 -3.58211 2.13872 0
M  V30 8274 H 762.331 -3.01736 1.14696 0
M  V30 8275 H 761.383 -1.90182 3.29446 0
M  V30 8276 H 762.695 -2.68137 4.206 0
M  V30 8277 H 761.849 -4.93691 3.52638 0
M  V30 8278 H 760.588 -4.1799 2.51267 0
M  V30 8279 H 759.593 -3.09325 4.5453 0
M  V30 8280 H 760.818 -3.88224 5.57189 0
M  V30 8281 H 758.764 -5.31511 3.84489 0
M  V30 8282 H 758.681 -5.11737 5.56472 0
M  V30 8283 H 759.949 -6.08439 4.87261 0
M  V30 8284 N 764.178 -1.45556 -0.604258 0
M  V30 8285 C 765.125 -1.54482 -1.71476 0
M  V30 8286 C 766.095 -0.390479 -1.61445 0
M  V30 8287 O 767.28 -0.604371 -1.80975 0
M  V30 8288 C 764.42 -1.52064 -3.09791 0
M  V30 8289 C 763.533 -2.78073 -3.30604 0
M  V30 8290 C 762.668 -2.67304 -4.59044 0
M  V30 8291 C 761.707 -3.88352 -4.73127 0
M  V30 8292 N 760.844 -3.76098 -5.9287 0
M  V30 8293 H 765.684 -2.49349 -1.63184 0
M  V30 8294 H 763.221 -1.23725 -0.795641 0
M  V30 8295 H 765.179 -1.48649 -3.89819 0
M  V30 8296 H 763.809 -0.607442 -3.17033 0
M  V30 8297 H 762.861 -2.91561 -2.44329 0
M  V30 8298 H 764.173 -3.67847 -3.36883 0
M  V30 8299 H 763.327 -2.61875 -5.47272 0
M  V30 8300 H 762.066 -1.75135 -4.55169 0
M  V30 8301 H 761.071 -3.94137 -3.83322 0
M  V30 8302 H 762.296 -4.81591 -4.78797 0
M  V30 8303 H 760.242 -2.867 -5.90033 0
M  V30 8304 H 760.159 -4.59509 -6.00323 0
M  V30 8305 H 761.427 -3.74607 -6.83586 0
M  V30 8306 N 765.656 0.84705 -1.32902 0
M  V30 8307 C 766.933 1.58583 -1.14503 0
M  V30 8308 C 767.313 2.09075 0.291724 0
M  V30 8309 O 766.661 1.88636 1.28952 0
M  V30 8310 C 766.871 2.72605 -2.17916 0
M  V30 8311 C 768.219 3.41993 -2.51646 0
M  V30 8312 O 769.243 2.82838 -2.1652 0
M  V30 8313 O 768.102 4.48761 -3.1189 0
M  V30 8314 H 765.196 0.698756 -0.442345 0
M  V30 8315 H 767.742 0.890516 -1.44457 0
M  V30 8316 H 766.514 2.32876 -3.14459 0
M  V30 8317 H 766.137 3.49807 -1.89 0
M  V30 8318 N 767.134 1.16236 1.06428 0
M  V30 8319 C 768.081 0.86769 2.13869 0
M  V30 8320 C 769.051 -0.183298 1.65086 0
M  V30 8321 O 770.236 -0.0488002 1.90738 0
M  V30 8322 C 767.376 0.373427 3.43074 0
M  V30 8323 C 766.489 1.48708 4.05598 0
M  V30 8324 C 765.624 0.947977 5.22673 0
M  V30 8325 C 764.663 2.03793 5.77178 0
M  V30 8326 N 763.8 1.51451 6.85571 0
M  V30 8327 H 768.64 1.78781 2.38414 0
M  V30 8328 H 766.177 0.891892 1.16977 0
M  V30 8329 H 768.135 0.0685035 4.17144 0
M  V30 8330 H 766.765 -0.509752 3.1875 0
M  V30 8331 H 765.817 1.908 3.29089 0
M  V30 8332 H 767.129 2.30964 4.42105 0
M  V30 8333 H 766.283 0.596154 6.03764 0
M  V30 8334 H 765.022 0.0947081 4.87608 0
M  V30 8335 H 764.027 2.39847 4.94726 0
M  V30 8336 H 765.252 2.89514 6.14295 0
M  V30 8337 H 763.198 0.683755 6.52427 0
M  V30 8338 H 763.115 2.27325 7.21013 0
M  V30 8339 H 764.383 1.19123 7.70344 0
M  V30 8340 N 768.612 -1.24939 0.960631 0
M  V30 8341 C 770.028 -1.45039 0.666018 0
M  V30 8342 C 770.228 -1.86021 -0.774501 0
M  V30 8343 O 769.284 -1.99392 -1.54916 0
M  V30 8344 C 770.597 -2.51775 1.64408 0
M  V30 8345 C 772.145 -2.6561 1.65592 0
M  V30 8346 C 772.62 -3.75536 2.62177 0
M  V30 8347 N 774.111 -3.82954 2.60577 0
M  V30 8348 C 774.846 -4.67517 3.31987 0
M  V30 8349 N 774.342 -5.56321 4.1289 0
M  V30 8350 N 776.135 -4.61535 3.20845 0
M  V30 8351 H 768.286 -0.96632 1.89145 0
M  V30 8352 H 770.549 -0.486034 0.813926 0
M  V30 8353 H 770.255 -2.28534 2.67329 0
M  V30 8354 H 770.129 -3.49804 1.41128 0
M  V30 8355 H 772.516 -2.88212 0.633846 0
M  V30 8356 H 772.597 -1.67962 1.92931 0
M  V30 8357 H 772.241 -3.53684 3.64514 0
M  V30 8358 H 772.171 -4.72682 2.32119 0
M  V30 8359 H 774.662 -3.19478 2.01847 0
M  V30 8360 H 774.975 -6.17787 4.64283 0
M  V30 8361 H 773.32 -5.5601 4.16987 0
M  V30 8362 H 776.511 -3.91169 2.57108 0
M  V30 8363 H 776.684 -5.27214 3.76762 0
M  V30 8364 N 770.09 -0.729906 -1.39679 0
M  V30 8365 C 771.053 -0.0951668 -2.29002 0
M  V30 8366 C 772.053 0.672471 -1.46063 0
M  V30 8367 O 773.243 0.502245 -1.66803 0
M  V30 8368 C 770.375 0.874631 -3.29489 0
M  V30 8369 H 771.568 -0.882062 -2.86635 0
M  V30 8370 H 769.121 -0.495424 -1.4824 0
M  V30 8371 H 769.856 1.68807 -2.76902 0
M  V30 8372 H 769.641 0.326893 -3.90735 0
M  V30 8373 H 771.131 1.31548 -3.96339 0
M  V30 8374 N 771.568 1.50203 -0.477153 0
M  V30 8375 C 772.793 2.07263 0.0754986 0
M  V30 8376 C 773.218 1.33801 1.32208 0
M  V30 8377 O 772.576 0.387482 1.77111 0
M  V30 8378 C 772.624 3.59028 0.336348 0
M  V30 8379 O 771.728 3.87339 1.4157 0
M  V30 8380 H 771.069 0.663815 -0.015662 0
M  V30 8381 H 773.599 1.93321 -0.669936 0
M  V30 8382 H 773.609 4.03927 0.575034 0
M  V30 8383 H 772.284 4.11912 -0.574551 0
M  V30 8384 H 770.861 3.54272 1.16385 0
M  V30 8385 N 773.046 0.209999 1.56195 0
M  V30 8386 C 774.462 -0.145598 1.58934 0
M  V30 8387 C 774.662 -1.59868 1.22656 0
M  V30 8388 O 773.718 -2.33689 0.956336 0
M  V30 8389 C 775.031 0.170243 3.00218 0
M  V30 8390 C 776.579 0.111548 3.12801 0
M  V30 8391 C 777.054 0.400904 4.56242 0
M  V30 8392 N 778.545 0.350058 4.61875 0
M  V30 8393 C 779.28 0.547598 5.70779 0
M  V30 8394 N 778.776 0.806291 6.88092 0
M  V30 8395 N 780.569 0.480827 5.6004 0
M  V30 8396 H 772.72 1.15804 1.78054 0
M  V30 8397 H 774.983 0.463326 0.827063 0
M  V30 8398 H 774.689 1.17833 3.31373 0
M  V30 8399 H 774.563 -0.520208 3.73596 0
M  V30 8400 H 776.95 -0.887162 2.81449 0
M  V30 8401 H 777.031 0.835302 2.41777 0
M  V30 8402 H 776.675 1.397 4.8831 0
M  V30 8403 H 776.605 -0.34391 5.25476 0
M  V30 8404 H 779.096 0.157334 3.77572 0
M  V30 8405 H 779.409 0.945433 7.66995 0
M  V30 8406 H 777.754 0.843355 6.89864 0
M  V30 8407 H 780.945 0.279037 4.67268 0
M  V30 8408 H 781.118 0.638189 6.4485 0
M  V30 8409 N 774.524 -1.57472 -0.0634922 0
M  V30 8410 C 775.772 -1.87283 -0.759563 0
M  V30 8411 C 776.093 -0.803135 -1.77693 0
M  V30 8412 O 775.363 0.167293 -1.95184 0
M  V30 8413 H 773.943 -0.691106 -0.283516 0
M  V30 8414 H 776.605 -1.94864 -0.0376091 0
M  V30 8415 H 775.701 -2.85064 -1.27062 0
M  V30 8416 N 776.003 0.335068 -1.53997 0
M  V30 8417 C 776.95 1.41187 -1.82579 0
M  V30 8418 C 777.92 1.51897 -0.672061 0
M  V30 8419 O 779.105 1.673 -0.917346 0
M  V30 8420 C 776.245 2.77717 -2.0486 0
M  V30 8421 C 775.358 2.7573 -3.32561 0
M  V30 8422 C 774.493 4.04032 -3.44864 0
M  V30 8423 C 773.532 3.96308 -4.66483 0
M  V30 8424 N 772.669 5.16317 -4.75774 0
M  V30 8425 H 777.509 1.16113 -2.74448 0
M  V30 8426 H 775.046 0.562305 -1.35928 0
M  V30 8427 H 777.004 3.57071 -2.15768 0
M  V30 8428 H 775.634 3.01124 -1.16294 0
M  V30 8429 H 774.686 1.88432 -3.3045 0
M  V30 8430 H 775.998 2.65902 -4.22016 0
M  V30 8431 H 775.152 4.91814 -3.55251 0
M  V30 8432 H 773.891 4.16652 -2.53481 0
M  V30 8433 H 772.896 3.06911 -4.56164 0
M  V30 8434 H 774.121 3.85263 -5.5924 0
M  V30 8435 H 772.067 5.29464 -3.87303 0
M  V30 8436 H 771.984 5.08779 -5.59178 0
M  V30 8437 H 773.252 6.05846 -4.9048 0
M  V30 8438 N 777.481 1.45874 0.596531 0
M  V30 8439 C 778.428 1.55389 1.70655 0
M  V30 8440 C 779.398 0.399036 1.61236 0
M  V30 8441 O 780.583 0.61396 1.80652 0
M  V30 8442 C 777.723 1.53705 3.0898 0
M  V30 8443 C 776.836 2.79823 3.29125 0
M  V30 8444 C 775.971 2.69735 4.5762 0
M  V30 8445 C 775.01 3.90856 4.71061 0
M  V30 8446 N 774.147 3.79237 5.90867 0
M  V30 8447 H 778.987 2.50211 1.61859 0
M  V30 8448 H 776.524 1.24146 0.789069 0
M  V30 8449 H 778.482 1.50715 3.89026 0
M  V30 8450 H 777.112 0.624247 3.16706 0
M  V30 8451 H 776.164 2.92852 2.42779 0
M  V30 8452 H 777.476 3.69628 3.34927 0
M  V30 8453 H 776.63 2.64773 5.45875 0
M  V30 8454 H 775.369 1.77547 4.54234 0
M  V30 8455 H 774.374 3.96164 3.81227 0
M  V30 8456 H 775.599 4.84124 4.76236 0
M  V30 8457 H 773.545 2.89825 5.88504 0
M  V30 8458 H 773.462 4.62686 5.97877 0
M  V30 8459 H 774.73 3.78227 6.8159 0
M  V30 8460 N 778.959 -0.83999 1.33349 0
M  V30 8461 C 779.869 -1.98182 1.25543 0
M  V30 8462 C 780.885 -1.73204 0.166208 0
M  V30 8463 O 782.061 -1.97596 0.389589 0
M  V30 8464 C 779.126 -3.32157 0.993614 0
M  V30 8465 C 778.187 -3.70258 2.17273 0
M  V30 8466 C 777.42 -4.9784 1.92331 0
M  V30 8467 O 777.643 -5.63679 0.873074 0
M  V30 8468 O 776.577 -5.33418 2.78835 0
M  V30 8469 H 780.403 -2.07708 2.21565 0
M  V30 8470 H 777.988 -0.972852 1.13384 0
M  V30 8471 H 779.87 -4.12433 0.864711 0
M  V30 8472 H 778.545 -3.23637 0.0636596 0
M  V30 8473 H 777.452 -2.90497 2.35716 0
M  V30 8474 H 778.785 -3.83442 3.08598 0
M  V30 8475 N 780.437 -1.16799 -1.0581 0
M  V30 8476 C 781.384 -0.87902 -2.13405 0
M  V30 8477 C 782.354 0.174541 -1.6518 0
M  V30 8478 O 783.539 0.0386843 -1.90761 0
M  V30 8479 C 780.679 -0.391616 -3.42871 0
M  V30 8480 C 779.792 -1.50857 -4.04804 0
M  V30 8481 C 778.927 -0.975682 -5.22163 0
M  V30 8482 C 777.966 -2.06851 -5.76089 0
M  V30 8483 N 777.103 -1.55085 -6.84758 0
M  V30 8484 H 781.943 -1.80043 -2.37463 0
M  V30 8485 H 779.48 -0.898083 -1.16503 0
M  V30 8486 H 781.438 -0.0906247 -4.17102 0
M  V30 8487 H 780.068 0.49284 -3.19016 0
M  V30 8488 H 779.12 -1.92542 -3.28073 0
M  V30 8489 H 780.432 -2.33305 -4.40874 0
M  V30 8490 H 779.586 -0.628165 -6.03439 0
M  V30 8491 H 778.325 -0.120566 -4.87551 0
M  V30 8492 H 777.33 -2.42467 -4.93447 0
M  V30 8493 H 778.555 -2.92768 -6.12751 0
M  V30 8494 H 776.501 -0.718345 -6.52055 0
M  V30 8495 H 776.418 -2.31145 -7.19797 0
M  V30 8496 H 777.686 -1.23206 -7.69702 0
M  V30 8497 N 781.915 1.24427 -0.967243 0
M  V30 8498 C 783.161 1.92772 -0.629812 0
M  V30 8499 C 783.494 1.75436 0.832827 0
M  V30 8500 O 782.769 1.10716 1.59913 0
M  V30 8501 C 783.052 3.45798 -1.00477 0
M  V30 8502 C 782.905 3.72304 -2.52407 0
M  V30 8503 C 784.224 4.36787 -0.538999 0
M  V30 8504 H 781.343 0.700099 -0.230282 0
M  V30 8505 H 783.985 1.46805 -1.20616 0
M  V30 8506 H 782.135 3.8508 -0.514336 0
M  V30 8507 H 783.807 3.42584 -3.08924 0
M  V30 8508 H 782.05 3.17472 -2.95625 0
M  V30 8509 H 782.721 4.7937 -2.73693 0
M  V30 8510 H 785.197 4.04877 -0.959874 0
M  V30 8511 H 784.073 5.4259 -0.829926 0
M  V30 8512 H 784.334 4.38527 0.560923 0
M  V30 8513 N 783.393 0.737304 1.3929 0
M  V30 8514 C 784.809 0.413132 1.5416 0
M  V30 8515 C 785.009 -1.07574 1.70382 0
M  V30 8516 O 784.065 -1.86185 1.70562 0
M  V30 8517 C 785.378 1.19817 2.75798 0
M  V30 8518 C 786.926 1.18662 2.89635 0
M  V30 8519 C 787.401 1.95427 4.14213 0
M  V30 8520 N 788.892 1.92605 4.21257 0
M  V30 8521 C 789.627 2.48808 5.16606 0
M  V30 8522 N 789.123 3.13659 6.1773 0
M  V30 8523 N 790.916 2.38829 5.08839 0
M  V30 8524 H 783.067 1.70243 1.27008 0
M  V30 8525 H 785.33 0.720802 0.61575 0
M  V30 8526 H 785.036 2.25179 2.70161 0
M  V30 8527 H 784.91 0.804144 3.68529 0
M  V30 8528 H 787.297 0.141112 2.94762 0
M  V30 8529 H 787.378 1.62003 1.97961 0
M  V30 8530 H 787.022 2.9998 4.09847 0
M  V30 8531 H 786.952 1.4949 5.04936 0
M  V30 8532 H 789.443 1.45362 3.48824 0
M  V30 8533 H 789.756 3.54006 6.8695 0
M  V30 8534 H 788.101 3.17749 6.1811 0
M  V30 8535 H 791.292 1.87806 4.28773 0
M  V30 8536 H 791.465 2.82929 5.82971 0
M  V30 8537 N 784.871 -1.49948 0.485112 0
M  V30 8538 C 785.803 -2.26691 -0.338222 0
M  V30 8539 C 786.816 -1.32584 -0.944742 0
M  V30 8540 O 788.005 -1.57989 -0.830772 0
M  V30 8541 C 785.105 -3.04405 -1.48966 0
M  V30 8542 C 784.278 -4.25971 -0.993371 0
M  V30 8543 C 783.337 -4.85861 -2.02052 0
M  V30 8544 O 782.363 -5.46382 -1.59547 0
M  V30 8545 N 783.565 -4.74101 -3.34975 0
M  V30 8546 H 786.33 -2.97989 0.319748 0
M  V30 8547 H 783.891 -1.58772 0.316714 0
M  V30 8548 H 785.883 -3.41348 -2.17403 0
M  V30 8549 H 784.453 -2.35815 -2.05207 0
M  V30 8550 H 783.673 -3.93971 -0.134424 0
M  V30 8551 H 784.961 -5.0476 -0.639934 0
M  V30 8552 H 784.359 -4.26002 -3.72208 0
M  V30 8553 H 782.916 -5.15274 -3.9917 0
M  V30 8554 N 786.349 -0.21828 -1.56081 0
M  V30 8555 C 787.279 0.687922 -2.23136 0
M  V30 8556 C 788.26 1.20357 -1.202 0
M  V30 8557 O 789.445 1.24817 -1.48776 0
M  V30 8558 C 786.575 1.89762 -2.90874 0
M  V30 8559 C 785.529 1.51595 -4.00254 0
M  V30 8560 C 784.855 2.80415 -4.55271 0
M  V30 8561 C 786.155 0.708404 -5.17474 0
M  V30 8562 H 787.849 0.128854 -2.99123 0
M  V30 8563 H 785.395 0.0605354 -1.43873 0
M  V30 8564 H 787.348 2.53699 -3.36474 0
M  V30 8565 H 786.072 2.4816 -2.1233 0
M  V30 8566 H 784.731 0.900058 -3.55379 0
M  V30 8567 H 784.379 3.36951 -3.73461 0
M  V30 8568 H 784.079 2.55613 -5.2909 0
M  V30 8569 H 785.603 3.453 -5.03587 0
M  V30 8570 H 787.017 1.2514 -5.59476 0
M  V30 8571 H 785.414 0.557593 -5.97504 0
M  V30 8572 H 786.484 -0.285679 -4.84058 0
M  V30 8573 N 787.827 1.57504 0.0551401 0
M  V30 8574 C 788.759 2.0158 1.09078 0
M  V30 8575 C 789.772 0.92434 1.34014 0
M  V30 8576 O 790.961 1.20202 1.31961 0
M  V30 8577 C 788.061 2.35385 2.43818 0
M  V30 8578 C 787.234 3.66588 2.38605 0
M  V30 8579 C 786.293 3.87874 3.55585 0
M  V30 8580 O 785.319 4.59259 3.36258 0
M  V30 8581 N 786.521 3.31503 4.76536 0
M  V30 8582 H 789.286 2.91039 0.71529 0
M  V30 8583 H 786.847 1.60058 0.243532 0
M  V30 8584 H 788.839 2.46784 3.20749 0
M  V30 8585 H 787.409 1.51731 2.73307 0
M  V30 8586 H 786.629 3.65787 1.46947 0
M  V30 8587 H 787.917 4.52706 2.32239 0
M  V30 8588 H 787.315 2.73592 4.9514 0
M  V30 8589 H 785.872 3.48324 5.50921 0
M  V30 8590 N 789.305 -0.326896 1.54172 0
M  V30 8591 C 790.721 -0.671034 1.44808 0
M  V30 8592 C 790.921 -1.91781 0.618258 0
M  V30 8593 O 789.977 -2.52235 0.115751 0
M  V30 8594 C 791.29 -0.848147 2.88491 0
M  V30 8595 C 792.838 -0.945702 2.98371 0
M  V30 8596 C 793.313 -1.15501 4.43197 0
M  V30 8597 N 794.804 -1.22183 4.46795 0
M  V30 8598 C 795.539 -1.4016 5.56006 0
M  V30 8599 N 795.035 -1.55202 6.75192 0
M  V30 8600 N 796.828 -1.42841 5.43648 0
M  V30 8601 H 788.979 0.49262 2.06608 0
M  V30 8602 H 791.242 0.158574 0.934643 0
M  V30 8603 H 790.948 -0.00329969 3.517 0
M  V30 8604 H 790.822 -1.74497 3.34411 0
M  V30 8605 H 793.209 -1.78106 2.35292 0
M  V30 8606 H 793.29 -0.0254215 2.55787 0
M  V30 8607 H 792.934 -0.324521 5.06862 0
M  V30 8608 H 792.864 -2.08911 4.83388 0
M  V30 8609 H 795.355 -1.12016 3.60917 0
M  V30 8610 H 795.668 -1.68601 7.54184 0
M  V30 8611 H 794.013 -1.52306 6.78106 0
M  V30 8612 H 797.204 -1.30683 4.49488 0
M  V30 8613 H 797.377 -1.56509 6.28816 0
M  V30 8614 N 790.784 -1.46188 -0.588786 0
M  V30 8615 C 792.012 -1.54743 -1.37339 0
M  V30 8616 C 792.427 -0.186446 -1.87877 0
M  V30 8617 O 791.784 0.815247 -1.63279 0
M  V30 8618 C 791.835 -2.54727 -2.56508 0
M  V30 8619 O 791.556 -3.85539 -2.08066 0
M  V30 8620 C 793.057 -2.73163 -3.49137 0
M  V30 8621 H 790.277 -0.523484 -0.419768 0
M  V30 8622 H 792.821 -1.91543 -0.716345 0
M  V30 8623 H 790.976 -2.20948 -3.18215 0
M  V30 8624 H 791.39 -4.39905 -2.85629 0
M  V30 8625 H 792.864 -3.47057 -4.2925 0
M  V30 8626 H 793.341 -1.79856 -4.00685 0
M  V30 8627 H 793.947 -3.08014 -2.9327 0
M  V30 8628 N 792.262 0.832906 -1.33792 0
M  V30 8629 C 793.172 1.97514 -1.26592 0
M  V30 8630 C 794.188 1.73114 -0.175391 0
M  V30 8631 O 795.364 1.97387 -0.400062 0
M  V30 8632 C 792.429 3.31625 -1.01121 0
M  V30 8633 C 791.49 3.69101 -2.19233 0
M  V30 8634 C 790.723 4.96813 -1.94968 0
M  V30 8635 O 790.946 5.63208 -0.902955 0
M  V30 8636 O 789.88 5.31932 -2.8166 0
M  V30 8637 H 793.706 2.0653 -2.22664 0
M  V30 8638 H 791.291 0.966826 -1.13898 0
M  V30 8639 H 793.173 4.11968 -0.886571 0
M  V30 8640 H 791.848 3.23599 -0.080822 0
M  V30 8641 H 790.755 2.89243 -2.37253 0
M  V30 8642 H 792.088 3.818 -3.10628 0
M  V30 8643 N 793.74 1.17359 1.05189 0
M  V30 8644 C 794.69 0.858445 2.11222 0
M  V30 8645 C 795.674 -0.166991 1.60031 0
M  V30 8646 O 796.866 0.0354456 1.76965 0
M  V30 8647 C 793.995 0.373549 3.41262 0
M  V30 8648 C 793.081 1.43041 3.99249 0
M  V30 8649 N 793.472 2.64387 4.312 0
M  V30 8650 C 791.77 1.28828 4.26989 0
M  V30 8651 C 792.471 3.32296 4.77446 0
M  V30 8652 N 791.447 2.59674 4.77567 0
M  V30 8653 H 795.249 1.78104 2.33786 0
M  V30 8654 H 792.763 1.0623 1.22837 0
M  V30 8655 H 794.76 0.129331 4.16699 0
M  V30 8656 H 793.42 -0.542847 3.2013 0
M  V30 8657 H 794.431 3.01351 4.21198 0
M  V30 8658 H 791.108 0.43353 4.15243 0
M  V30 8659 H 792.498 4.35939 5.11279 0
M  V30 8660 N 795.218 -1.23913 0.973828 0
M  V30 8661 C 796.15 -2.24397 0.466763 0
M  V30 8662 C 797.163 -1.57078 -0.427828 0
M  V30 8663 O 798.352 -1.76973 -0.233019 0
M  V30 8664 C 795.452 -3.37141 -0.344798 0
M  V30 8665 C 794.625 -4.34037 0.541349 0
M  V30 8666 C 793.684 -5.2576 -0.215243 0
M  V30 8667 O 792.71 -5.67842 0.39291 0
M  V30 8668 N 793.912 -5.60702 -1.5031 0
M  V30 8669 H 796.677 -2.68536 1.33074 0
M  V30 8670 H 794.238 -1.38017 0.846346 0
M  V30 8671 H 796.23 -3.95476 -0.859133 0
M  V30 8672 H 794.8 -2.92239 -1.10974 0
M  V30 8673 H 794.02 -3.74302 1.23659 0
M  V30 8674 H 795.308 -4.95738 1.1455 0
M  V30 8675 H 794.706 -5.28451 -2.01882 0
M  V30 8676 H 793.263 -6.21538 -1.96301 0
M  V30 8677 N 796.696 -0.74468 -1.38897 0
M  V30 8678 C 797.659 -0.11945 -2.28889 0
M  V30 8679 C 798.659 0.656942 -1.46768 0
M  V30 8680 O 799.849 0.484525 -1.67326 0
M  V30 8681 C 796.981 0.839635 -3.30398 0
M  V30 8682 H 798.174 -0.912414 -2.85683 0
M  V30 8683 H 795.727 -0.511119 -1.47707 0
M  V30 8684 H 796.462 1.6586 -2.78677 0
M  V30 8685 H 796.247 0.285432 -3.9106 0
M  V30 8686 H 797.737 1.27337 -3.97712 0
M  V30 8687 N 798.174 1.49689 -0.493057 0
M  V30 8688 C 799.42 2.02727 0.0543518 0
M  V30 8689 C 799.753 1.37264 1.37376 0
M  V30 8690 O 799.028 0.505644 1.87812 0
M  V30 8691 C 799.311 3.59456 0.215226 0
M  V30 8692 C 799.164 4.35459 -1.12675 0
M  V30 8693 C 800.483 4.29511 0.959586 0
M  V30 8694 H 797.602 0.736773 0.0182786 0
M  V30 8695 H 800.244 1.78792 -0.642924 0
M  V30 8696 H 798.394 3.79981 0.809122 0
M  V30 8697 H 800.066 4.2645 -1.75891 0
M  V30 8698 H 798.309 3.9833 -1.71801 0
M  V30 8699 H 798.98 5.43454 -0.967578 0
M  V30 8700 H 801.456 4.13594 0.455977 0
M  V30 8701 H 800.332 5.38939 1.04098 0
M  V30 8702 H 800.593 3.94202 2.00144 0
M  V30 8703 N 799.652 0.226554 1.55963 0
M  V30 8704 C 800.582 -0.676079 2.23498 0
M  V30 8705 C 801.563 -1.19718 1.20837 0
M  V30 8706 O 802.748 -1.24027 1.49436 0
M  V30 8707 C 799.878 -1.88217 2.91876 0
M  V30 8708 C 798.832 -1.4947 4.01052 0
M  V30 8709 C 798.158 -2.77997 4.56751 0
M  V30 8710 C 799.458 -0.680951 5.17842 0
M  V30 8711 H 801.152 -0.112989 2.99187 0
M  V30 8712 H 798.698 -0.0529046 1.43903 0
M  V30 8713 H 800.651 -2.51911 3.37815 0
M  V30 8714 H 799.375 -2.47031 2.13643 0
M  V30 8715 H 798.034 -0.881199 3.55852 0
M  V30 8716 H 797.682 -3.34966 3.75243 0
M  V30 8717 H 797.382 -2.52803 5.30438 0
M  V30 8718 H 798.906 -3.42625 5.05411 0
M  V30 8719 H 800.32 -1.22171 5.60131 0
M  V30 8720 H 798.717 -0.525898 5.97791 0
M  V30 8721 H 799.787 0.311346 4.83899 0
M  V30 8722 N 801.13 -1.57531 -0.0467866 0
M  V30 8723 C 802.093 -2.04379 -1.03738 0
M  V30 8724 C 803.093 -0.944881 -1.3011 0
M  V30 8725 O 804.283 -1.20904 -1.25411 0
M  V30 8726 C 801.415 -2.44572 -2.37482 0
M  V30 8727 H 802.608 -2.93142 -0.633063 0
M  V30 8728 H 800.161 -1.53526 -0.293177 0
M  V30 8729 H 800.896 -1.58911 -2.82697 0
M  V30 8730 H 800.681 -3.24785 -2.19675 0
M  V30 8731 H 802.171 -2.81307 -3.08636 0
M  V30 8732 N 802.608 0.318715 -1.54344 0
M  V30 8733 C 803.518 1.41535 -1.87097 0
M  V30 8734 C 804.534 1.56361 -0.763353 0
M  V30 8735 O 805.71 1.71365 -1.05811 0
M  V30 8736 C 802.775 2.76178 -2.09587 0
M  V30 8737 C 801.836 2.70486 -3.3337 0
M  V30 8738 C 801.069 3.98708 -3.54778 0
M  V30 8739 O 801.292 4.9721 -2.79532 0
M  V30 8740 O 800.226 4.01674 -4.48266 0
M  V30 8741 H 804.052 1.16764 -2.80357 0
M  V30 8742 H 801.637 0.51318 -1.4031 0
M  V30 8743 H 803.519 3.55873 -2.25682 0
M  V30 8744 H 802.194 3.00829 -1.19514 0
M  V30 8745 H 801.101 1.89325 -3.22656 0
M  V30 8746 H 802.434 2.50789 -4.23516 0
M  V30 8747 N 804.086 1.46499 0.581025 0
M  V30 8748 C 805.018 1.53225 1.70455 0
M  V30 8749 C 806.031 0.420443 1.57277 0
M  V30 8750 O 807.22 0.688888 1.64671 0
M  V30 8751 C 804.32 1.39803 3.08721 0
M  V30 8752 C 803.493 2.65132 3.47884 0
M  V30 8753 C 802.552 2.45886 4.65217 0
M  V30 8754 O 801.578 3.19615 4.70993 0
M  V30 8755 N 802.78 1.5216 5.60203 0
M  V30 8756 H 805.545 2.50098 1.65139 0
M  V30 8757 H 803.106 1.42576 0.76705 0
M  V30 8758 H 805.098 1.24697 3.8501 0
M  V30 8759 H 803.668 0.51104 3.08394 0
M  V30 8760 H 802.888 2.95169 2.61284 0
M  V30 8761 H 804.176 3.48385 3.70817 0
M  V30 8762 H 803.574 0.913646 5.58273 0
M  V30 8763 H 802.131 1.43017 6.35916 0
M  V30 8764 N 805.565 -0.825799 1.34232 0
M  V30 8765 C 806.512 -1.93651 1.2557 0
M  V30 8766 C 807.482 -1.65578 0.131536 0
M  V30 8767 O 808.667 -1.88231 0.312027 0
M  V30 8768 C 805.807 -3.29862 1.01415 0
M  V30 8769 C 804.92 -3.70247 2.22579 0
M  V30 8770 C 804.055 -4.95392 1.91731 0
M  V30 8771 C 803.094 -5.28349 3.09053 0
M  V30 8772 N 802.231 -6.44671 2.78107 0
M  V30 8773 H 807.071 -2.00392 2.20561 0
M  V30 8774 H 804.608 -0.980441 1.09662 0
M  V30 8775 H 806.566 -4.08356 0.854485 0
M  V30 8776 H 805.196 -3.22642 0.100936 0
M  V30 8777 H 804.248 -2.87169 2.49476 0
M  V30 8778 H 805.56 -3.90575 3.10246 0
M  V30 8779 H 804.714 -5.81665 1.72484 0
M  V30 8780 H 803.453 -4.77059 1.0132 0
M  V30 8781 H 802.458 -4.40574 3.289 0
M  V30 8782 H 803.683 -5.48622 4.00239 0
M  V30 8783 H 801.629 -6.278 1.9027 0
M  V30 8784 H 801.546 -6.65158 3.59306 0
M  V30 8785 H 802.814 -7.34022 2.62358 0
M  V30 8786 N 807.043 -1.17915 -1.04565 0
M  V30 8787 C 808.291 -0.969505 -1.77327 0
M  V30 8788 C 808.612 0.502569 -1.88412 0
M  V30 8789 O 807.882 1.36467 -1.40547 0
M  V30 8790 H 806.462 -0.355723 -0.656864 0
M  V30 8791 H 809.124 -1.48506 -1.26223 0
M  V30 8792 H 808.22 -1.40324 -2.78775 0
M  V30 8793 N 808.521 1.23394 -0.980386 0
M  V30 8794 C 809.471 2.22634 -0.491747 0
M  V30 8795 C 810.455 1.54958 0.433222 0
M  V30 8796 O 811.647 1.75049 0.262078 0
M  V30 8797 C 808.776 3.4269 0.204531 0
M  V30 8798 C 807.862 4.17594 -0.740007 0
M  V30 8799 N 808.253 4.69458 -1.88263 0
M  V30 8800 C 806.551 4.42554 -0.553335 0
M  V30 8801 C 807.252 5.26446 -2.47446 0
M  V30 8802 N 806.228 5.14377 -1.75834 0
M  V30 8803 H 810.03 2.60363 -1.36339 0
M  V30 8804 H 807.544 1.38924 -0.841059 0
M  V30 8805 H 809.541 4.12959 0.571901 0
M  V30 8806 H 808.201 3.06477 1.07246 0
M  V30 8807 H 809.212 4.65803 -2.26381 0
M  V30 8808 H 805.889 4.16629 0.269573 0
M  V30 8809 H 807.279 5.77195 -3.43941 0
M  V30 8810 N 809.999 0.752036 1.385 0
M  V30 8811 C 810.929 0.138718 2.33088 0
M  V30 8812 C 811.91 -0.705318 1.54788 0
M  V30 8813 O 813.095 -0.646821 1.83112 0
M  V30 8814 C 810.225 -0.75641 3.38963 0
M  V30 8815 C 809.179 -0.0152239 4.27997 0
M  V30 8816 C 808.505 -1.0285 5.24715 0
M  V30 8817 C 809.805 1.15226 5.09431 0
M  V30 8818 H 811.499 0.928852 2.84627 0
M  V30 8819 H 809.045 0.448111 1.3685 0
M  V30 8820 H 810.998 -1.19513 4.04097 0
M  V30 8821 H 809.722 -1.57885 2.85902 0
M  V30 8822 H 808.381 0.404061 3.64366 0
M  V30 8823 H 808.029 -1.84496 4.67943 0
M  V30 8824 H 807.729 -0.537238 5.85139 0
M  V30 8825 H 809.253 -1.46657 5.92726 0
M  V30 8826 H 810.667 0.791161 5.67815 0
M  V30 8827 H 809.064 1.57428 5.79082 0
M  V30 8828 H 810.134 1.9659 4.43261 0
M  V30 8829 N 811.477 -1.49425 0.500989 0
M  V30 8830 C 812.407 -2.31971 -0.266775 0
M  V30 8831 C 813.388 -1.40245 -0.962563 0
M  V30 8832 O 814.573 -1.69154 -0.953968 0
M  V30 8833 C 811.703 -3.20757 -1.33163 0
M  V30 8834 C 810.657 -4.21275 -0.75572 0
M  V30 8835 C 809.983 -4.98997 -1.92109 0
M  V30 8836 C 811.283 -5.21686 0.253213 0
M  V30 8837 H 812.977 -2.96408 0.422237 0
M  V30 8838 H 810.523 -1.4254 0.204505 0
M  V30 8839 H 812.476 -3.77315 -1.87646 0
M  V30 8840 H 811.2 -2.54263 -2.04983 0
M  V30 8841 H 809.859 -3.65861 -0.232637 0
M  V30 8842 H 809.507 -4.28951 -2.62698 0
M  V30 8843 H 809.207 -5.67011 -1.54182 0
M  V30 8844 H 810.731 -5.584 -2.47026 0
M  V30 8845 H 812.145 -5.72939 -0.203483 0
M  V30 8846 H 810.542 -5.9759 0.548322 0
M  V30 8847 H 811.612 -4.70596 1.16909 0
M  V30 8848 N 812.955 -0.234822 -1.55841 0
M  V30 8849 C 813.885 0.664217 -2.23854 0
M  V30 8850 C 814.866 1.19076 -1.2147 0
M  V30 8851 O 816.051 1.23232 -1.50091 0
M  V30 8852 C 813.181 1.86666 -2.9287 0
M  V30 8853 C 812.135 1.47341 -4.01839 0
M  V30 8854 C 811.461 2.75571 -4.58219 0
M  V30 8855 C 812.761 0.653479 -5.18196 0
M  V30 8856 H 814.455 0.0971213 -2.99242 0
M  V30 8857 H 812.001 0.0452724 -1.43929 0
M  V30 8858 H 813.954 2.50116 -3.39146 0
M  V30 8859 H 812.678 2.45894 -2.1495 0
M  V30 8860 H 811.337 0.862314 -3.56314 0
M  V30 8861 H 810.985 3.32971 -3.77014 0
M  V30 8862 H 810.685 2.49987 -5.31771 0
M  V30 8863 H 812.209 3.39939 -5.07221 0
M  V30 8864 H 813.623 1.19198 -5.60771 0
M  V30 8865 H 812.02 0.494188 -5.98062 0
M  V30 8866 H 813.09 -0.337004 -4.83728 0
M  V30 8867 N 814.433 1.57553 0.0384317 0
M  V30 8868 C 815.71 1.79977 0.766002 0
M  V30 8869 C 816.09 0.830625 1.94072 0
M  V30 8870 O 815.438 -0.129243 2.28134 0
M  V30 8871 C 815.648 3.27434 1.20781 0
M  V30 8872 C 816.996 3.92167 1.62758 0
M  V30 8873 O 818.02 3.31527 1.30263 0
M  V30 8874 O 816.879 4.98917 2.23035 0
M  V30 8875 H 813.973 0.739787 0.369654 0
M  V30 8876 H 816.519 1.69693 0.0159312 0
M  V30 8877 H 815.291 3.89558 0.368792 0
M  V30 8878 H 814.914 3.42571 2.01819 0
M  V30 8879 N 815.911 -0.310526 1.54511 0
M  V30 8880 C 817.136 -1.07046 1.7764 0
M  V30 8881 C 817.561 -1.80488 0.529696 0
M  V30 8882 O 816.919 -1.73702 -0.519361 0
M  V30 8883 C 816.967 -2.03411 2.97752 0
M  V30 8884 O 816.071 -3.11545 2.7021 0
M  V30 8885 H 815.412 -0.307994 0.588248 0
M  V30 8886 H 817.942 -0.350848 2.01569 0
M  V30 8887 H 817.952 -2.46048 3.2546 0
M  V30 8888 H 816.627 -1.49361 3.88155 0
M  V30 8889 H 815.204 -2.7349 2.53491 0
M  V30 8890 N 817.389 -1.46805 -0.573248 0
M  V30 8891 C 818.666 -1.43082 -1.33368 0
M  V30 8892 C 819.046 -0.119252 -2.10763 0
M  V30 8893 O 818.394 0.899239 -2.10062 0
M  V30 8894 C 818.604 -2.66643 -2.25172 0
M  V30 8895 C 819.952 -3.13188 -2.86702 0
M  V30 8896 O 820.976 -2.67258 -2.35482 0
M  V30 8897 O 819.835 -3.92994 -3.79761 0
M  V30 8898 H 816.929 -0.569451 -0.599712 0
M  V30 8899 H 819.475 -1.58984 -0.59348 0
M  V30 8900 H 818.247 -3.53649 -1.67475 0
M  V30 8901 H 817.87 -2.53247 -3.06516 0
M  V30 8902 N 818.867 0.818669 -1.34668 0
M  V30 8903 C 819.777 1.9616 -1.2868 0
M  V30 8904 C 820.793 1.72918 -0.193742 0
M  V30 8905 O 821.969 1.96951 -0.420975 0
M  V30 8906 C 819.034 3.30534 -1.04633 0
M  V30 8907 C 818.095 3.66755 -2.23136 0
M  V30 8908 C 817.328 4.94717 -2.00227 0
M  V30 8909 O 817.551 5.62218 -0.96264 0
M  V30 8910 O 816.485 5.28915 -2.87286 0
M  V30 8911 H 820.311 2.04157 -2.24842 0
M  V30 8912 H 817.896 0.954691 -1.14917 0
M  V30 8913 H 819.778 4.11005 -0.930216 0
M  V30 8914 H 818.453 3.23495 -0.115139 0
M  V30 8915 H 817.36 2.8671 -2.40308 0
M  V30 8916 H 818.693 3.78484 -3.1466 0
M  V30 8917 N 820.346 1.18468 1.03938 0
M  V30 8918 C 821.762 0.934635 1.29371 0
M  V30 8919 C 821.962 -0.399067 1.97509 0
M  V30 8920 O 821.018 -1.13309 2.25648 0
M  V30 8921 C 822.331 2.10111 2.15114 0
M  V30 8922 C 823.879 2.13955 2.28456 0
M  V30 8923 C 824.354 3.30024 3.17566 0
M  V30 8924 N 825.845 3.29893 3.25153 0
M  V30 8925 C 826.58 4.16346 3.94263 0
M  V30 8926 N 826.076 5.12934 4.65693 0
M  V30 8927 N 827.869 4.04256 3.90556 0
M  V30 8928 H 820.02 2.04294 0.581185 0
M  V30 8929 H 822.283 0.892727 0.318971 0
M  V30 8930 H 821.989 3.06572 1.72355 0
M  V30 8931 H 821.863 2.06283 3.15796 0
M  V30 8932 H 824.25 1.18072 2.7045 0
M  V30 8933 H 824.331 2.2184 1.2736 0
M  V30 8934 H 823.975 4.26181 2.76283 0
M  V30 8935 H 823.905 3.19376 4.18697 0
M  V30 8936 H 826.396 2.59969 2.74271 0
M  V30 8937 H 826.709 5.75271 5.16026 0
M  V30 8938 H 825.054 5.16893 4.64593 0
M  V30 8939 H 828.245 3.28083 3.33885 0
M  V30 8940 H 828.418 4.71848 4.44144 0
M  V30 8941 N 821.824 -1.22873 0.986916 0
M  V30 8942 C 823.235 -1.73264 0.695438 0
M  V30 8943 C 823.586 -1.79679 -0.788023 0
M  V30 8944 O 822.711 -1.43905 -1.61618 0
M  V30 8945 C 823.306 -3.14671 1.2557 0
M  V30 8946 C 821.865 -3.62492 1.01373 0
M  V30 8947 C 821.012 -2.40551 1.37951 0
M  V30 8948 H 823.963 -1.08304 1.15999 0
M  V30 8949 H 823.984 -3.75226 0.631322 0
M  V30 8950 H 823.496 -3.0997 2.33539 0
M  V30 8951 H 821.597 -3.72567 -0.0495917 0
M  V30 8952 H 821.71 -4.48944 1.67289 0
M  V30 8953 H 820.074 -2.41875 0.798033 0
M  V30 8954 H 820.857 -2.38516 2.46911 0
M  V30 8955 N 823.302 -0.75937 -1.38099 0
M  V30 8956 C 824.527 -0.327859 -2.04792 0
M  V30 8957 C 824.952 1.03752 -1.56899 0
M  V30 8958 O 824.31 1.66235 -0.723581 0
M  V30 8959 C 824.358 -0.366264 -3.58735 0
M  V30 8960 O 823.462 0.637697 -4.0744 0
M  V30 8961 H 822.803 -0.144092 -0.648177 0
M  V30 8962 H 825.333 -1.03211 -1.7666 0
M  V30 8963 H 825.343 -0.219179 -4.07411 0
M  V30 8964 H 824.018 -1.36243 -3.92951 0
M  V30 8965 H 822.595 0.454749 -3.70117 0
M  V30 8966 N 824.78 1.49157 -0.508906 0
M  V30 8967 C 826.191 1.86593 -0.0630975 0
M  V30 8968 C 826.542 1.42051 1.35337 0
M  V30 8969 O 825.667 0.801866 2.00995 0
M  V30 8970 C 826.262 3.38629 -0.107729 0
M  V30 8971 C 824.821 3.75336 0.282776 0
M  V30 8972 C 823.968 2.7317 -0.4768 0
M  V30 8973 H 826.919 1.41362 -0.72128 0
M  V30 8974 H 826.94 3.74271 0.685689 0
M  V30 8975 H 826.452 3.71017 -1.13876 0
M  V30 8976 H 824.553 3.48558 1.31675 0
M  V30 8977 H 824.666 4.79081 -0.0421728 0
M  V30 8978 H 823.03 2.54591 0.0743552 0
M  V30 8979 H 823.813 3.08403 -1.50807 0
M  V30 8980 N 826.258 0.243083 1.55714 0
M  V30 8981 C 827.168 -0.668913 2.24862 0
M  V30 8982 C 828.184 -1.19638 1.26344 0
M  V30 8983 O 829.36 -1.23345 1.5921 0
M  V30 8984 C 826.425 -1.85084 2.93163 0
M  V30 8985 C 825.486 -1.36323 4.07081 0
M  V30 8986 C 824.719 -2.48882 4.72116 0
M  V30 8987 O 824.942 -3.67523 4.36214 0
M  V30 8988 O 823.876 -2.18857 5.60701 0
M  V30 8989 H 827.702 -0.109737 3.03502 0
M  V30 8990 H 825.287 0.0117411 1.49395 0
M  V30 8991 H 827.169 -2.54065 3.36197 0
M  V30 8992 H 825.844 -2.39771 2.17466 0
M  V30 8993 H 824.751 -0.640804 3.68571 0
M  V30 8994 H 826.084 -0.86249 4.84584 0
M  V30 8995 N 827.736 -1.57571 -0.0300757 0
M  V30 8996 C 828.646 -2.09892 -1.04798 0
M  V30 8997 C 829.662 -1.03732 -1.39698 0
M  V30 8998 O 830.838 -1.35461 -1.49038 0
M  V30 8999 C 827.903 -2.56707 -2.33028 0
M  V30 9000 C 826.964 -3.77345 -2.04718 0
M  V30 9001 C 826.197 -4.21918 -3.26834 0
M  V30 9002 O 826.42 -3.66025 -4.37472 0
M  V30 9003 O 825.354 -5.14362 -3.12594 0
M  V30 9004 H 829.18 -2.97023 -0.633344 0
M  V30 9005 H 826.765 -1.47344 -0.246991 0
M  V30 9006 H 828.647 -2.87154 -3.08417 0
M  V30 9007 H 827.322 -1.72688 -2.73789 0
M  V30 9008 H 826.229 -3.51919 -1.26901 0
M  V30 9009 H 827.562 -4.62345 -1.68813 0
M  V30 9010 N 829.214 0.302327 -1.54673 0
M  V30 9011 C 830.124 1.39542 -1.88587 0
M  V30 9012 C 831.14 1.55543 -0.779895 0
M  V30 9013 O 832.316 1.70233 -1.07623 0
M  V30 9014 C 829.381 2.7394 -2.12504 0
M  V30 9015 C 828.442 2.66935 -3.3622 0
M  V30 9016 C 827.675 3.94923 -3.58987 0
M  V30 9017 O 827.898 4.94218 -2.84789 0
M  V30 9018 O 826.832 3.96896 -4.52501 0
M  V30 9019 H 830.658 1.13784 -2.81579 0
M  V30 9020 H 828.243 0.49827 -1.40846 0
M  V30 9021 H 830.125 3.5346 -2.29443 0
M  V30 9022 H 828.8 2.99544 -1.22698 0
M  V30 9023 H 827.707 1.85892 -3.24646 0
M  V30 9024 H 829.04 2.46283 -4.26152 0
M  V30 9025 N 830.692 1.47107 0.565454 0
M  V30 9026 C 831.602 1.61591 1.70075 0
M  V30 9027 C 832.618 0.498931 1.66693 0
M  V30 9028 O 833.794 0.765372 1.8629 0
M  V30 9029 C 830.859 1.61887 3.06583 0
M  V30 9030 C 829.92 2.84949 3.21096 0
M  V30 9031 C 829.153 2.85221 4.51093 0
M  V30 9032 O 829.376 1.94959 5.36048 0
M  V30 9033 O 828.31 3.76982 4.69221 0
M  V30 9034 H 832.136 2.57638 1.60799 0
M  V30 9035 H 829.721 1.30097 0.73451 0
M  V30 9036 H 831.603 1.64809 3.87835 0
M  V30 9037 H 830.278 0.69005 3.16259 0
M  V30 9038 H 829.185 2.87575 2.39273 0
M  V30 9039 H 830.518 3.77098 3.1632 0
M  V30 9040 N 832.17 -0.811516 1.35101 0
M  V30 9041 C 833.418 -1.56525 1.27845 0
M  V30 9042 C 833.739 -1.94435 -0.14829 0
M  V30 9043 O 833.009 -1.63203 -1.08359 0
M  V30 9044 H 831.589 -0.580433 0.47022 0
M  V30 9045 H 834.251 -0.968277 1.69146 0
M  V30 9046 H 833.347 -2.48291 1.89097 0
M  V30 9047 N 833.648 -1.19017 -1.03309 0
M  V30 9048 C 834.595 -0.924088 -2.11493 0
M  V30 9049 C 835.565 0.139464 -1.65513 0
M  V30 9050 O 836.75 -0.00178761 -1.908 0
M  V30 9051 C 833.89 -0.464255 -3.41963 0
M  V30 9052 C 833.003 -1.5941 -4.01513 0
M  V30 9053 C 832.138 -1.08622 -5.19976 0
M  V30 9054 C 831.177 -2.19024 -5.71572 0
M  V30 9055 N 830.314 -1.69575 -6.81314 0
M  V30 9056 H 835.154 -1.85039 -2.33591 0
M  V30 9057 H 832.691 -0.922593 -1.14572 0
M  V30 9058 H 834.649 -0.179078 -4.16815 0
M  V30 9059 H 833.279 0.425062 -3.19989 0
M  V30 9060 H 832.331 -1.99458 -3.23915 0
M  V30 9061 H 833.643 -2.42604 -4.35826 0
M  V30 9062 H 832.797 -0.756022 -6.01971 0
M  V30 9063 H 831.536 -0.223955 -4.87186 0
M  V30 9064 H 830.541 -2.5288 -4.88193 0
M  V30 9065 H 831.766 -3.05699 -6.06403 0
M  V30 9066 H 829.712 -0.856494 -6.50385 0
M  V30 9067 H 829.629 -2.46361 -7.14732 0
M  V30 9068 H 830.897 -1.39505 -7.66915 0
M  V30 9069 N 835.127 1.22348 -0.993418 0
M  V30 9070 C 836.077 2.221 -0.515333 0
M  V30 9071 C 837.061 1.55409 0.416762 0
M  V30 9072 O 838.253 1.75317 0.243497 0
M  V30 9073 C 835.382 3.42888 0.168173 0
M  V30 9074 C 834.468 4.16786 -0.784257 0
M  V30 9075 N 834.859 4.67435 -1.93231 0
M  V30 9076 C 833.157 4.41942 -0.600243 0
M  V30 9077 C 833.858 5.23792 -2.53016 0
M  V30 9078 N 832.834 5.12483 -1.8128 0
M  V30 9079 H 836.636 2.58902 -1.39093 0
M  V30 9080 H 834.15 1.38024 -0.855747 0
M  V30 9081 H 836.147 4.13542 0.528069 0
M  V30 9082 H 834.807 3.07598 1.03989 0
M  V30 9083 H 835.818 4.63375 -2.31309 0
M  V30 9084 H 832.495 4.16891 0.225369 0
M  V30 9085 H 833.885 5.73515 -3.50043 0
M  V30 9086 N 836.605 0.766683 1.37694 0
M  V30 9087 C 837.854 0.325425 1.99057 0
M  V30 9088 C 838.167 -1.10275 1.61551 0
M  V30 9089 O 839.373 -1.64513 2.1598 0
M  V30 9090 C 837.829 0.530886 3.55963 0
M  V30 9091 C 837.437 1.96899 4.02411 0
M  V30 9092 C 839.181 0.152997 4.24224 0
M  V30 9093 C 837.088 2.12232 5.52007 0
M  V30 9094 H 836.018 0.117929 0.744721 0
M  V30 9095 H 838.669 0.945091 1.5729 0
M  V30 9096 H 837.051 -0.158162 3.95684 0
M  V30 9097 H 838.225 2.69258 3.73948 0
M  V30 9098 H 836.54 2.303 3.46916 0
M  V30 9099 H 839.137 0.24614 5.34133 0
M  V30 9100 H 839.48 -0.896096 4.06541 0
M  V30 9101 H 840.013 0.794398 3.89787 0
M  V30 9102 H 836.752 3.15442 5.7461 0
M  V30 9103 H 836.272 1.4435 5.82171 0
M  V30 9104 H 837.951 1.9185 6.17902 0
M  V30 9105 N 838.083 -1.48885 0.516809 0
M  V30 9106 C 839.033 -2.26363 -0.272704 0
M  V30 9107 C 840.017 -1.31891 -0.921604 0
M  V30 9108 O 841.209 -1.56514 -0.826589 0
M  V30 9109 C 838.338 -3.16614 -1.32705 0
M  V30 9110 C 837.424 -4.18554 -0.683598 0
M  V30 9111 N 837.815 -5.05308 0.223015 0
M  V30 9112 C 836.113 -4.35931 -0.942351 0
M  V30 9113 C 836.814 -5.7867 0.592918 0
M  V30 9114 N 835.79 -5.43583 -0.042912 0
M  V30 9115 H 839.592 -2.90811 0.424971 0
M  V30 9116 H 837.106 -1.5893 0.333941 0
M  V30 9117 H 839.103 -3.70766 -1.90625 0
M  V30 9118 H 837.763 -2.5372 -2.02624 0
M  V30 9119 H 838.774 -5.14473 0.594818 0
M  V30 9120 H 835.451 -3.84234 -1.6331 0
M  V30 9121 H 836.841 -6.58493 1.33556 0
M  V30 9122 N 839.561 -0.251338 -1.55583 0
M  V30 9123 C 840.491 0.640437 -2.24545 0
M  V30 9124 C 841.472 1.17781 -1.22726 0
M  V30 9125 O 842.657 1.21633 -1.5139 0
M  V30 9126 C 839.787 1.8355 -2.94834 0
M  V30 9127 C 838.741 1.4307 -4.03379 0
M  V30 9128 C 838.067 2.70695 -4.61116 0
M  V30 9129 C 839.367 0.59848 -5.1886 0
M  V30 9130 H 841.061 0.0653772 -2.99329 0
M  V30 9131 H 838.607 0.0300042 -1.43969 0
M  V30 9132 H 840.56 2.46505 -3.4178 0
M  V30 9133 H 839.284 2.43601 -2.17546 0
M  V30 9134 H 837.943 0.824474 -3.57209 0
M  V30 9135 H 837.591 3.28954 -3.80524 0
M  V30 9136 H 837.291 2.44332 -5.34393 0
M  V30 9137 H 838.815 3.34541 -5.10798 0
M  V30 9138 H 840.229 1.13244 -5.62004 0
M  V30 9139 H 838.626 0.430728 -5.98552 0
M  V30 9140 H 839.696 -0.38829 -4.83343 0
M  V30 9141 N 841.039 1.57585 0.0217189 0
M  V30 9142 C 842.287 1.89231 0.709641 0
M  V30 9143 C 842.608 0.849964 1.75501 0
M  V30 9144 O 841.878 -0.115485 1.95559 0
M  V30 9145 H 840.458 0.69838 0.265092 0
M  V30 9146 H 843.12 1.94895 -0.0140688 0
M  V30 9147 H 842.216 2.88333 1.19459 0
M  V30 9148 N 842.517 -0.29412 1.54831 0
M  V30 9149 C 843.467 -1.36476 1.82643 0
M  V30 9150 C 844.451 -1.45638 0.683984 0
M  V30 9151 O 845.643 -1.49675 0.944801 0
M  V30 9152 C 842.772 -2.72865 2.08326 0
M  V30 9153 C 841.858 -2.67898 3.28773 0
M  V30 9154 N 842.249 -2.32547 4.49172 0
M  V30 9155 C 840.547 -2.98991 3.30939 0
M  V30 9156 C 841.248 -2.37048 5.31209 0
M  V30 9157 N 840.224 -2.74679 4.69097 0
M  V30 9158 H 844.026 -1.08119 2.7329 0
M  V30 9159 H 841.54 -0.502718 1.54423 0
M  V30 9160 H 843.537 -3.5007 2.264 0
M  V30 9161 H 842.197 -3.02127 1.1895 0
M  V30 9162 H 843.208 -2.04883 4.7565 0
M  V30 9163 H 839.885 -3.33104 2.51691 0
M  V30 9164 H 841.275 -2.12457 6.37426 0
M  V30 9165 N 843.995 -1.47404 -0.557645 0
M  V30 9166 C 844.925 -1.62736 -1.67449 0
M  V30 9167 C 845.906 -0.476824 -1.6328 0
M  V30 9168 O 847.091 -0.706108 -1.80908 0
M  V30 9169 C 844.221 -1.641 -3.06086 0
M  V30 9170 C 843.175 -2.78377 -3.25101 0
M  V30 9171 C 842.501 -2.64812 -4.6452 0
M  V30 9172 C 843.801 -4.19971 -3.10518 0
M  V30 9173 H 845.495 -2.56232 -1.54873 0
M  V30 9174 H 843.041 -1.23312 -0.743649 0
M  V30 9175 H 844.994 -1.73417 -3.84063 0
M  V30 9176 H 843.718 -0.671652 -3.19619 0
M  V30 9177 H 842.377 -2.6857 -2.49531 0
M  V30 9178 H 842.025 -1.65906 -4.74852 0
M  V30 9179 H 841.725 -3.41477 -4.78191 0
M  V30 9180 H 843.249 -2.76057 -5.44633 0
M  V30 9181 H 844.663 -4.30757 -3.78313 0
M  V30 9182 H 843.06 -4.97419 -3.35699 0
M  V30 9183 H 844.13 -4.38369 -2.0727 0
M  V30 9184 N 845.473 0.80434 -1.35529 0
M  V30 9185 C 846.889 1.10023 -1.15616 0
M  V30 9186 C 847.089 2.01478 0.0298535 0
M  V30 9187 O 846.145 2.42609 0.699778 0
M  V30 9188 C 847.458 1.72905 -2.46017 0
M  V30 9189 C 849.006 1.85315 -2.52245 0
M  V30 9190 C 849.481 2.51612 -3.82695 0
M  V30 9191 N 850.972 2.59095 -3.83958 0
M  V30 9192 C 851.707 3.11167 -4.81625 0
M  V30 9193 N 851.203 3.63659 -5.89681 0
M  V30 9194 N 852.996 3.09741 -4.6906 0
M  V30 9195 H 845.147 0.196428 -2.1149 0
M  V30 9196 H 847.41 0.149735 -0.9361 0
M  V30 9197 H 847.116 1.13171 -3.32994 0
M  V30 9198 H 846.99 2.72579 -2.6073 0
M  V30 9199 H 849.377 2.44191 -1.65695 0
M  V30 9200 H 849.458 0.844886 -2.41444 0
M  V30 9201 H 849.102 1.93385 -4.69643 0
M  V30 9202 H 849.032 3.5298 -3.90785 0
M  V30 9203 H 851.523 2.21908 -3.05884 0
M  V30 9204 H 851.836 4.01699 -6.60195 0
M  V30 9205 H 850.181 3.61852 -5.9337 0
M  V30 9206 H 853.372 2.68011 -3.83781 0
M  V30 9207 H 853.545 3.50016 -5.45338 0
M  V30 9208 N 846.951 1.19563 1.02676 0
M  V30 9209 C 847.881 0.959024 2.12897 0
M  V30 9210 C 848.862 -0.108382 1.69754 0
M  V30 9211 O 850.047 0.0470698 1.94143 0
M  V30 9212 C 847.177 0.499211 3.43693 0
M  V30 9213 C 846.131 1.5087 4.00528 0
M  V30 9214 C 845.457 0.905884 5.2697 0
M  V30 9215 C 846.757 2.88954 4.3509 0
M  V30 9216 H 848.451 1.88084 2.32948 0
M  V30 9217 H 845.997 0.905731 1.11949 0
M  V30 9218 H 847.95 0.320965 4.20176 0
M  V30 9219 H 846.674 -0.458205 3.2337 0
M  V30 9220 H 845.333 1.67413 3.26142 0
M  V30 9221 H 844.981 -0.0591506 5.02965 0
M  V30 9222 H 844.681 1.58 5.65959 0
M  V30 9223 H 846.205 0.73848 6.06118 0
M  V30 9224 H 847.619 2.75981 5.02501 0
M  V30 9225 H 846.016 3.53177 4.85166 0
M  V30 9226 H 847.086 3.41447 3.44299 0
M  V30 9227 N 848.429 -1.21819 0.999893 0
M  V30 9228 C 849.361 -2.23356 0.514256 0
M  V30 9229 C 850.374 -1.5795 -0.394413 0
M  V30 9230 O 851.563 -1.77427 -0.195428 0
M  V30 9231 C 848.663 -3.37797 -0.273207 0
M  V30 9232 C 847.836 -4.32791 0.633293 0
M  V30 9233 C 846.895 -5.26098 -0.103673 0
M  V30 9234 O 845.921 -5.66881 0.513269 0
M  V30 9235 N 847.123 -5.63764 -1.38383 0
M  V30 9236 H 849.888 -2.65653 1.3874 0
M  V30 9237 H 847.449 -1.3619 0.875431 0
M  V30 9238 H 849.441 -3.97209 -0.775053 0
M  V30 9239 H 848.011 -2.94527 -1.0475 0
M  V30 9240 H 847.231 -3.71595 1.31571 0
M  V30 9241 H 848.519 -4.93196 1.25039 0
M  V30 9242 H 847.917 -5.32614 -1.90627 0
M  V30 9243 H 846.474 -6.25562 -1.83073 0
M  V30 9244 N 849.908 -0.773975 -1.37286 0
M  V30 9245 C 851.324 -0.45386 -1.53011 0
M  V30 9246 C 851.524 1.03018 -1.73175 0
M  V30 9247 O 850.58 1.81597 -1.75438 0
M  V30 9248 C 851.893 -1.27087 -2.72524 0
M  V30 9249 C 853.441 -1.26299 -2.86387 0
M  V30 9250 C 853.916 -2.0634 -4.08886 0
M  V30 9251 N 855.407 -2.03706 -4.16003 0
M  V30 9252 C 856.142 -2.62418 -5.09828 0
M  V30 9253 N 855.638 -3.29926 -6.09197 0
M  V30 9254 N 857.431 -2.52236 -5.02328 0
M  V30 9255 H 849.582 -1.73551 -1.22449 0
M  V30 9256 H 851.845 -0.736874 -0.596423 0
M  V30 9257 H 851.551 -2.32263 -2.64096 0
M  V30 9258 H 851.425 -0.90157 -3.66267 0
M  V30 9259 H 853.812 -0.219213 -2.94285 0
M  V30 9260 H 853.893 -1.67195 -1.93596 0
M  V30 9261 H 853.537 -3.10741 -4.01749 0
M  V30 9262 H 853.467 -1.62825 -5.00795 0
M  V30 9263 H 855.958 -1.54559 -3.44848 0
M  V30 9264 H 856.271 -3.72095 -6.77322 0
M  V30 9265 H 854.616 -3.34026 -6.09469 0
M  V30 9266 H 857.807 -1.99108 -4.23643 0
M  V30 9267 H 857.98 -2.98286 -5.75265 0
M  V30 9268 N 851.386 1.48609 -0.524698 0
M  V30 9269 C 852.614 2.06899 0.00742946 0
M  V30 9270 C 853.029 1.38196 1.28637 0
M  V30 9271 O 852.386 0.467771 1.76403 0
M  V30 9272 C 852.437 3.60699 0.240548 0
M  V30 9273 O 852.158 4.26821 -0.987715 0
M  V30 9274 C 853.659 4.35769 0.813652 0
M  V30 9275 H 850.879 0.670278 -0.0311294 0
M  V30 9276 H 853.423 1.91071 -0.728832 0
M  V30 9277 H 851.578 3.76149 0.926845 0
M  V30 9278 H 851.992 5.18889 -0.765175 0
M  V30 9279 H 853.466 5.44174 0.926219 0
M  V30 9280 H 853.943 3.9984 1.81728 0
M  V30 9281 H 854.549 4.24983 0.164086 0
M  V30 9282 N 852.864 0.259585 1.55447 0
M  V30 9283 C 853.794 -0.62852 2.24882 0
M  V30 9284 C 854.775 -1.17128 1.23349 0
M  V30 9285 O 855.96 -1.20829 1.52033 0
M  V30 9286 C 853.09 -1.81983 2.95803 0
M  V30 9287 C 852.044 -1.40929 4.04132 0
M  V30 9288 C 851.37 -2.68246 4.62545 0
M  V30 9289 C 852.67 -0.570956 5.1917 0
M  V30 9290 H 854.364 -0.0495021 2.99359 0
M  V30 9291 H 851.91 -0.0223688 1.43983 0
M  V30 9292 H 853.863 -2.44689 3.43082 0
M  V30 9293 H 852.587 -2.42444 2.18835 0
M  V30 9294 H 851.246 -0.805519 3.57641 0
M  V30 9295 H 850.894 -3.26931 3.82263 0
M  V30 9296 H 850.594 -2.41495 5.35681 0
M  V30 9297 H 852.118 -3.31827 5.12565 0
M  V30 9298 H 853.532 -1.10262 5.62597 0
M  V30 9299 H 851.929 -0.398979 5.98772 0
M  V30 9300 H 852.999 0.413918 4.8313 0
M  V30 9301 N 854.342 -1.57594 -0.0133615 0
M  V30 9302 C 855.292 -2.04048 -1.01726 0
M  V30 9303 C 856.276 -0.932682 -1.3111 0
M  V30 9304 O 857.468 -1.19652 -1.30432 0
M  V30 9305 C 854.597 -2.53637 -2.31351 0
M  V30 9306 C 853.683 -3.71269 -2.04989 0
M  V30 9307 N 854.074 -4.83436 -1.48739 0
M  V30 9308 C 852.372 -3.78943 -2.35198 0
M  V30 9309 C 853.073 -5.64961 -1.38542 0
M  V30 9310 N 852.049 -5.10554 -1.86643 0
M  V30 9311 H 855.851 -2.88188 -0.576623 0
M  V30 9312 H 853.365 -1.60912 -0.219344 0
M  V30 9313 H 855.362 -2.85186 -3.04096 0
M  V30 9314 H 854.022 -1.7091 -2.76079 0
M  V30 9315 H 855.033 -5.04558 -1.16798 0
M  V30 9316 H 851.71 -3.07047 -2.82893 0
M  V30 9317 H 853.1 -6.65092 -0.954075 0
M  V30 9318 N 855.82 0.285905 -1.54985 0
M  V30 9319 C 857.045 1.04207 -1.7932 0
M  V30 9320 C 857.47 1.79622 -0.558343 0
M  V30 9321 O 856.828 1.74506 0.491661 0
M  V30 9322 C 856.876 1.98648 -3.0095 0
M  V30 9323 O 855.98 3.07207 -2.75132 0
M  V30 9324 H 855.321 0.298596 -0.593074 0
M  V30 9325 H 857.851 0.318736 -2.02102 0
M  V30 9326 H 857.861 2.4084 -3.29333 0
M  V30 9327 H 856.536 1.43167 -3.90482 0
M  V30 9328 H 855.113 2.69423 -2.57809 0
M  V30 9329 N 857.298 1.47698 0.54982 0
M  V30 9330 C 858.547 1.53961 1.30303 0
M  V30 9331 C 858.86 0.209731 1.94472 0
M  V30 9332 O 860.066 0.150418 2.71083 0
M  V30 9333 C 858.522 2.71436 2.36328 0
M  V30 9334 C 858.13 4.10983 1.78316 0
M  V30 9335 C 859.874 2.86996 3.12783 0
M  V30 9336 C 857.781 5.19747 2.82164 0
M  V30 9337 H 856.711 0.573098 0.489975 0
M  V30 9338 H 859.362 1.73989 0.583089 0
M  V30 9339 H 857.744 2.44801 3.11269 0
M  V30 9340 H 858.918 4.47552 1.09697 0
M  V30 9341 H 857.233 4.00371 1.1442 0
M  V30 9342 H 859.83 3.65422 3.90347 0
M  V30 9343 H 860.173 1.95712 3.67427 0
M  V30 9344 H 860.706 3.13436 2.44954 0
M  V30 9345 H 857.445 6.12932 2.32366 0
M  V30 9346 H 856.965 4.87688 3.49171 0
M  V30 9347 H 858.644 5.47014 3.4552 0
M  V30 9348 N 858.776 -0.797141 1.35954 0
M  V30 9349 C 860.053 -1.54224 1.2031 0
M  V30 9350 C 860.433 -2.10013 -0.213926 0
M  V30 9351 O 859.781 -1.93292 -1.21862 0
M  V30 9352 C 859.991 -2.6433 2.27883 0
M  V30 9353 C 861.339 -3.32418 2.64165 0
M  V30 9354 O 862.363 -2.74607 2.26868 0
M  V30 9355 O 861.222 -4.36876 3.28331 0
M  V30 9356 H 858.316 -0.681857 0.467974 0
M  V30 9357 H 860.862 -0.836288 1.47663 0
M  V30 9358 H 859.634 -2.21044 3.22885 0
M  V30 9359 H 859.257 -3.42551 2.01853 0
M  V30 9360 N 860.254 -1.20106 -1.0204 0
M  V30 9361 C 861.184 -0.970301 -2.12385 0
M  V30 9362 C 862.165 0.099378 -1.69809 0
M  V30 9363 O 863.35 -0.057365 -1.94115 0
M  V30 9364 C 860.48 -0.517431 -3.43424 0
M  V30 9365 C 859.434 -1.52992 -3.99722 0
M  V30 9366 C 858.76 -0.933817 -5.26483 0
M  V30 9367 C 860.06 -2.91257 -4.33551 0
M  V30 9368 H 861.754 -1.89316 -2.31948 0
M  V30 9369 H 859.3 -0.911655 -1.11467 0
M  V30 9370 H 861.253 -0.343243 -4.2 0
M  V30 9371 H 859.977 0.441049 -3.23608 0
M  V30 9372 H 858.636 -1.6914 -3.2525 0
M  V30 9373 H 858.284 0.0324763 -5.0299 0
M  V30 9374 H 857.984 -1.60999 -5.65113 0
M  V30 9375 H 859.508 -0.770614 -6.05718 0
M  V30 9376 H 860.922 -2.78642 -5.0103 0
M  V30 9377 H 859.319 -3.55745 -4.83286 0
M  V30 9378 H 860.389 -3.43269 -3.42483 0
M  V30 9379 N 861.732 1.21287 -1.00634 0
M  V30 9380 C 862.642 2.27388 -0.577226 0
M  V30 9381 C 863.658 1.69791 0.380399 0
M  V30 9382 O 864.834 1.99918 0.2439 0
M  V30 9383 C 861.899 3.46588 0.0880532 0
M  V30 9384 C 860.96 4.19453 -0.914222 0
M  V30 9385 C 860.193 5.32962 -0.280596 0
M  V30 9386 O 860.416 5.62895 0.922265 0
M  V30 9387 O 859.35 5.93666 -0.992196 0
M  V30 9388 H 863.176 2.66289 -1.46028 0
M  V30 9389 H 860.761 1.2771 -0.775283 0
M  V30 9390 H 862.643 4.18881 0.460094 0
M  V30 9391 H 861.318 3.09585 0.945461 0
M  V30 9392 H 860.225 3.49376 -1.33744 0
M  V30 9393 H 861.558 4.6037 -1.74126 0
M  V30 9394 N 863.21 0.781244 1.36873 0
M  V30 9395 C 864.459 0.34652 1.98701 0
M  V30 9396 C 864.772 -1.08555 1.62712 0
M  V30 9397 O 865.978 -1.62213 2.17713 0
M  V30 9398 C 864.434 0.568611 3.5538 0
M  V30 9399 C 864.042 2.01156 4.003 0
M  V30 9400 C 865.786 0.197983 4.24038 0
M  V30 9401 C 863.693 2.18074 5.49725 0
M  V30 9402 H 862.623 0.125821 0.743428 0
M  V30 9403 H 865.274 0.961721 1.56279 0
M  V30 9404 H 863.656 -0.116185 3.9583 0
M  V30 9405 H 864.83 2.73209 3.71071 0
M  V30 9406 H 863.145 2.33967 3.44454 0
M  V30 9407 H 865.742 0.302778 5.33842 0
M  V30 9408 H 866.085 -0.852927 4.07469 0
M  V30 9409 H 866.618 0.835696 3.88923 0
M  V30 9410 H 863.357 3.21519 5.71232 0
M  V30 9411 H 862.877 1.50517 5.80607 0
M  V30 9412 H 864.556 1.98393 6.15832 0
M  V30 9413 N 864.689 -1.48329 0.532571 0
M  V30 9414 C 865.621 -2.27652 -0.265931 0
M  V30 9415 C 866.634 -1.35522 -0.902083 0
M  V30 9416 O 867.823 -1.60552 -0.780088 0
M  V30 9417 C 864.923 -3.0899 -1.39207 0
M  V30 9418 C 864.096 -4.28915 -0.857349 0
M  V30 9419 C 863.155 -4.92044 -1.86493 0
M  V30 9420 O 862.181 -5.51181 -1.42084 0
M  V30 9421 N 863.383 -4.84518 -3.19723 0
M  V30 9422 H 866.148 -2.96821 0.414389 0
M  V30 9423 H 863.709 -1.57684 0.367066 0
M  V30 9424 H 865.701 -3.48091 -2.06433 0
M  V30 9425 H 864.271 -2.42224 -1.97601 0
M  V30 9426 H 863.491 -3.94199 -0.00901765 0
M  V30 9427 H 864.779 -5.0654 -0.479025 0
M  V30 9428 H 864.177 -4.37628 -3.58467 0
M  V30 9429 H 862.734 -5.27712 -3.82575 0
M  V30 9430 N 866.167 -0.267825 -1.55308 0
M  V30 9431 C 867.077 0.633055 -2.25897 0
M  V30 9432 C 868.093 1.17613 -1.28231 0
M  V30 9433 O 869.269 1.20797 -1.61153 0
M  V30 9434 C 866.334 1.80397 -2.96071 0
M  V30 9435 C 865.395 1.29829 -4.09198 0
M  V30 9436 C 864.628 2.4134 -4.76016 0
M  V30 9437 O 864.851 3.60537 -4.42006 0
M  V30 9438 O 863.785 2.09909 -5.64111 0
M  V30 9439 H 867.611 0.0614381 -3.03638 0
M  V30 9440 H 865.196 -0.0355072 -1.49358 0
M  V30 9441 H 867.078 2.48685 -3.40197 0
M  V30 9442 H 865.753 2.36281 -2.21253 0
M  V30 9443 H 864.66 0.582086 -3.69544 0
M  V30 9444 H 865.993 0.785288 -4.85895 0
M  V30 9445 N 867.645 1.57599 0.00500368 0
M  V30 9446 C 868.893 1.89973 0.68953 0
M  V30 9447 C 869.214 0.868531 1.7459 0
M  V30 9448 O 868.484 -0.0947367 1.95671 0
M  V30 9449 H 867.064 0.701153 0.25767 0
M  V30 9450 H 869.726 1.94869 -0.0347392 0
M  V30 9451 H 868.822 2.89584 1.16394 0
M  V30 9452 N 869.123 -0.277682 1.55134 0
M  V30 9453 C 870.07 -1.34313 1.87693 0
M  V30 9454 C 871.04 -1.49298 0.727973 0
M  V30 9455 O 872.225 -1.6378 0.978807 0
M  V30 9456 C 869.365 -2.69922 2.15026 0
M  V30 9457 C 868.478 -2.63197 3.42565 0
M  V30 9458 C 867.613 -3.90955 3.59622 0
M  V30 9459 C 866.652 -3.78722 4.8087 0
M  V30 9460 N 865.789 -4.98303 4.94609 0
M  V30 9461 H 870.629 -1.05847 2.78569 0
M  V30 9462 H 868.166 -0.511469 1.37922 0
M  V30 9463 H 870.124 -3.48817 2.28872 0
M  V30 9464 H 868.754 -2.966 1.2739 0
M  V30 9465 H 867.806 -1.76038 3.37216 0
M  V30 9466 H 869.118 -2.50056 4.31594 0
M  V30 9467 H 868.272 -4.78291 3.7326 0
M  V30 9468 H 867.011 -4.06957 2.6877 0
M  V30 9469 H 866.016 -2.89769 4.67241 0
M  V30 9470 H 867.241 -3.64242 5.73153 0
M  V30 9471 H 865.187 -5.14725 4.06687 0
M  V30 9472 H 865.104 -4.87675 5.77676 0
M  V30 9473 H 866.372 -5.87225 5.12628 0
M  V30 9474 N 870.601 -1.47988 -0.541979 0
M  V30 9475 C 871.531 -1.64503 -1.65713 0
M  V30 9476 C 872.512 -0.494116 -1.62765 0
M  V30 9477 O 873.697 -0.725256 -1.80149 0
M  V30 9478 C 870.827 -1.67337 -3.04328 0
M  V30 9479 C 869.781 -2.81809 -3.2213 0
M  V30 9480 C 869.107 -2.69724 -4.61685 0
M  V30 9481 C 870.407 -4.23241 -3.06046 0
M  V30 9482 H 872.101 -2.5786 -1.52147 0
M  V30 9483 H 869.647 -1.24094 -0.730529 0
M  V30 9484 H 871.6 -1.77481 -3.82202 0
M  V30 9485 H 870.324 -0.705514 -3.18889 0
M  V30 9486 H 868.983 -2.71201 -2.46669 0
M  V30 9487 H 868.631 -1.70934 -4.73065 0
M  V30 9488 H 868.331 -3.4653 -4.74543 0
M  V30 9489 H 869.855 -2.81818 -5.41674 0
M  V30 9490 H 871.269 -4.34746 -3.73723 0
M  V30 9491 H 869.666 -5.00952 -3.30405 0
M  V30 9492 H 870.736 -4.40543 -2.02609 0
M  V30 9493 N 872.079 0.78992 -1.36375 0
M  V30 9494 C 873.325 1.55007 -1.3077 0
M  V30 9495 C 873.658 1.93871 0.112979 0
M  V30 9496 O 872.933 1.6267 1.06625 0
M  V30 9497 C 873.216 2.82748 -2.22993 0
M  V30 9498 C 873.069 2.50253 -3.73756 0
M  V30 9499 C 874.388 3.84569 -2.13998 0
M  V30 9500 H 871.507 0.562362 -0.476359 0
M  V30 9501 H 874.149 0.907582 -1.66922 0
M  V30 9502 H 872.299 3.37573 -1.92292 0
M  V30 9503 H 873.971 2.01482 -4.14973 0
M  V30 9504 H 872.214 1.83203 -3.93216 0
M  V30 9505 H 872.885 3.41487 -4.33694 0
M  V30 9506 H 875.361 3.39188 -2.4102 0
M  V30 9507 H 874.237 4.717 -2.80697 0
M  V30 9508 H 874.498 4.27491 -1.12711 0
M  V30 9509 N 873.557 1.20646 1.01402 0
M  V30 9510 C 874.805 1.01618 1.74695 0
M  V30 9511 C 875.126 -0.452438 1.89679 0
M  V30 9512 O 874.396 -1.32693 1.44116 0
M  V30 9513 H 872.976 0.373013 0.647202 0
M  V30 9514 H 875.638 1.518 1.22241 0
M  V30 9515 H 874.734 1.47666 2.74957 0
M  V30 9516 N 875.035 -1.20752 1.01276 0
M  V30 9517 C 876.284 -1.8934 0.695229 0
M  V30 9518 C 876.597 -1.79459 -0.77806 0
M  V30 9519 O 877.803 -2.43146 -1.20799 0
M  V30 9520 C 876.259 -3.39548 1.1931 0
M  V30 9521 C 875.867 -3.58023 2.69302 0
M  V30 9522 C 877.611 -4.13714 0.950823 0
M  V30 9523 C 875.518 -5.02037 3.1259 0
M  V30 9524 H 874.448 -0.709084 0.25635 0
M  V30 9525 H 877.099 -1.36629 1.22494 0
M  V30 9526 H 875.481 -3.91559 0.591395 0
M  V30 9527 H 876.655 -3.16416 3.34989 0
M  V30 9528 H 874.97 -2.97222 2.9163 0
M  V30 9529 H 877.567 -5.19891 1.24971 0
M  V30 9530 H 877.91 -4.16147 -0.112791 0
M  V30 9531 H 878.443 -3.67792 1.51571 0
M  V30 9532 H 875.182 -5.04757 4.18211 0
M  V30 9533 H 874.702 -5.44469 2.51621 0
M  V30 9534 H 876.381 -5.70594 3.0501 0
M  V30 9535 N 876.513 -0.788492 -1.36457 0
M  V30 9536 C 877.753 -0.365855 -2.01099 0
M  V30 9537 C 878.117 1.04262 -1.61225 0
M  V30 9538 O 879.318 1.56628 -2.18451 0
M  V30 9539 C 877.589 -0.523344 -3.53548 0
M  V30 9540 S 879.148 -0.188448 -4.38395 0
M  V30 9541 H 875.966 -0.139832 -0.697114 0
M  V30 9542 H 878.568 -1.02678 -1.66365 0
M  V30 9543 H 877.272 -1.54874 -3.80055 0
M  V30 9544 H 876.803 0.153547 -3.931 0
M  V30 9545 H 878.818 1.0103 -4.85806 0
M  V30 9546 N 877.991 1.48044 -0.54043 0
M  V30 9547 C 879.239 2.02097 -0.0101367 0
M  V30 9548 C 879.56 1.41881 1.33771 0
M  V30 9549 O 878.83 0.587923 1.8687 0
M  V30 9550 H 877.41 0.747 -0.000758716 0
M  V30 9551 H 880.072 1.81639 -0.706634 0
M  V30 9552 H 879.168 3.11969 0.0904474 0
M  V30 9553 N 879.47 0.276058 1.55163 0
M  V30 9554 C 880.695 -0.346648 2.04483 0
M  V30 9555 C 881.12 -1.48613 1.15308 0
M  V30 9556 O 880.478 -1.80663 0.151875 0
M  V30 9557 C 880.526 -0.804268 3.51517 0
M  V30 9558 O 879.63 -1.91143 3.65429 0
M  V30 9559 H 878.971 -0.0715251 0.660136 0
M  V30 9560 H 881.501 0.410631 2.00437 0
M  V30 9561 H 881.511 -1.09977 3.92898 0
M  V30 9562 H 880.186 0.0294123 4.1589 0
M  V30 9563 H 878.763 -1.61839 3.3595 0
M  V30 9564 N 880.948 -1.576 0.00335426 0
M  V30 9565 C 882.194 -1.90996 -0.681799 0
M  V30 9566 C 882.527 -0.877643 -1.73237 0
M  V30 9567 O 881.802 0.103183 -1.94226 0
M  V30 9568 C 882.085 -3.34961 -1.32187 0
M  V30 9569 C 881.938 -4.48911 -0.28261 0
M  V30 9570 C 883.257 -3.78408 -2.24711 0
M  V30 9571 H 880.376 -0.694596 -0.246386 0
M  V30 9572 H 883.018 -1.89919 0.055336 0
M  V30 9573 H 881.168 -3.36008 -1.95014 0
M  V30 9574 H 882.84 -4.59999 0.346241 0
M  V30 9575 H 881.083 -4.32 0.394768 0
M  V30 9576 H 881.754 -5.46609 -0.769576 0
M  V30 9577 H 884.23 -3.78934 -1.71897 0
M  V30 9578 H 883.106 -4.79885 -2.66461 0
M  V30 9579 H 883.367 -3.12464 -3.1276 0
M  V30 9580 N 882.426 0.269451 -1.5528 0
M  V30 9581 C 883.674 0.998604 -1.75705 0
M  V30 9582 C 883.995 1.86691 -0.563175 0
M  V30 9583 O 883.265 1.91305 0.421811 0
M  V30 9584 H 881.845 0.371698 -0.647958 0
M  V30 9585 H 884.507 0.292826 -1.92688 0
M  V30 9586 H 883.603 1.63348 -2.6594 0
M  V30 9587 N 883.904 1.48273 0.534124 0
M  V30 9588 C 885.129 1.59988 1.31979 0
M  V30 9589 C 885.554 0.258824 1.86311 0
M  V30 9590 O 884.912 -0.768885 1.64188 0
M  V30 9591 C 884.96 2.64642 2.44943 0
M  V30 9592 O 884.064 2.21515 3.47858 0
M  V30 9593 H 883.405 0.536625 0.391063 0
M  V30 9594 H 885.935 1.94229 0.643135 0
M  V30 9595 H 885.945 2.85786 2.91187 0
M  V30 9596 H 884.62 3.62004 2.04758 0
M  V30 9597 H 883.197 2.10567 3.0776 0
M  V30 9598 N 885.382 -0.782676 1.36792 0
M  V30 9599 C 886.63 -1.53778 1.31136 0
M  V30 9600 C 886.951 -1.94706 -0.107014 0
M  V30 9601 O 886.221 -1.65465 -1.04872 0
M  V30 9602 H 884.801 -0.570328 0.482426 0
M  V30 9603 H 887.463 -0.932181 1.71162 0
M  V30 9604 H 886.559 -2.44224 1.94321 0
M  V30 9605 N 886.86 -1.21182 -1.00761 0
M  V30 9606 C 887.807 -0.968741 -2.09485 0
M  V30 9607 C 888.777 0.104325 -1.65772 0
M  V30 9608 O 889.962 -0.0422587 -1.90753 0
M  V30 9609 C 887.102 -0.536686 -3.40901 0
M  V30 9610 C 886.215 -1.6789 -3.98041 0
M  V30 9611 C 885.35 -1.19627 -5.17555 0
M  V30 9612 C 884.389 -2.31099 -5.66798 0
M  V30 9613 N 883.526 -1.83988 -6.77564 0
M  V30 9614 H 888.366 -1.89952 -2.29613 0
M  V30 9615 H 885.903 -0.946688 -1.12589 0
M  V30 9616 H 887.861 -0.26745 -4.16342 0
M  V30 9617 H 886.491 0.357092 -3.20819 0
M  V30 9618 H 885.543 -2.06284 -3.19611 0
M  V30 9619 H 886.855 -2.51794 -4.30582 0
M  V30 9620 H 886.009 -0.883539 -6.00232 0
M  V30 9621 H 884.748 -0.327244 -4.86601 0
M  V30 9622 H 883.753 -2.63178 -4.82719 0
M  V30 9623 H 884.978 -3.18493 -5.99782 0
M  V30 9624 H 882.924 -0.994257 -6.48422 0
M  V30 9625 H 882.841 -2.61466 -7.09346 0
M  V30 9626 H 884.109 -1.55741 -7.63783 0
M  V30 9627 N 888.338 1.20213 -1.01915 0
M  V30 9628 C 889.566 1.93622 -0.729255 0
M  V30 9629 C 889.981 1.74923 0.710444 0
M  V30 9630 O 889.338 1.06484 1.48214 0
M  V30 9631 C 889.389 3.45651 -1.05865 0
M  V30 9632 O 889.11 3.63741 -2.44181 0
M  V30 9633 C 890.611 4.36201 -0.790176 0
M  V30 9634 H 887.831 0.615333 -0.267594 0
M  V30 9635 H 890.375 1.52633 -1.36101 0
M  V30 9636 H 888.53 3.84511 -0.47225 0
M  V30 9637 H 888.944 4.57702 -2.56143 0
M  V30 9638 H 890.418 5.41516 -1.07071 0
M  V30 9639 H 890.895 4.38334 0.275609 0
M  V30 9640 H 891.501 4.03008 -1.35885 0
M  V30 9641 N 889.816 0.795718 1.36037 0
M  V30 9642 C 891.041 0.38204 2.03851 0
M  V30 9643 C 891.466 -0.995553 1.59594 0
M  V30 9644 O 890.824 -1.64258 0.767401 0
M  V30 9645 C 890.872 0.461248 3.57638 0
M  V30 9646 O 889.976 -0.529448 4.08987 0
M  V30 9647 H 889.317 0.161227 0.644129 0
M  V30 9648 H 891.847 1.07858 1.73861 0
M  V30 9649 H 891.857 0.32712 4.06687 0
M  V30 9650 H 890.532 1.46613 3.89201 0
M  V30 9651 H 889.109 -0.35646 3.71192 0
M  V30 9652 N 891.294 -1.47756 0.548274 0
M  V30 9653 C 892.224 -2.32702 -0.19284 0
M  V30 9654 C 893.205 -1.43237 -0.917457 0
M  V30 9655 O 894.39 -1.72103 -0.89967 0
M  V30 9656 C 891.52 -3.24831 -1.22891 0
M  V30 9657 C 890.474 -4.23466 -0.621312 0
M  V30 9658 C 889.8 -5.04856 -1.76137 0
M  V30 9659 C 891.1 -5.20616 0.419055 0
M  V30 9660 H 892.794 -2.94914 0.516323 0
M  V30 9661 H 890.34 -1.41818 0.24975 0
M  V30 9662 H 892.293 -3.83094 -1.75547 0
M  V30 9663 H 891.017 -2.60656 -1.9679 0
M  V30 9664 H 889.676 -3.66416 -0.116123 0
M  V30 9665 H 889.324 -4.37091 -2.48918 0
M  V30 9666 H 889.024 -5.71629 -1.36065 0
M  V30 9667 H 890.548 -5.65976 -2.29136 0
M  V30 9668 H 891.962 -5.73296 -0.0211034 0
M  V30 9669 H 890.359 -5.95543 0.738163 0
M  V30 9670 H 891.429 -4.66638 1.31822 0
M  V30 9671 N 892.772 -0.284283 -1.55015 0
M  V30 9672 C 894.021 0.33055 -1.98973 0
M  V30 9673 C 894.334 1.56284 -1.17621 0
M  V30 9674 O 895.54 2.2512 -1.51767 0
M  V30 9675 C 893.996 0.639457 -3.54174 0
M  V30 9676 C 893.604 -0.573543 -4.44313 0
M  V30 9677 C 895.348 1.21641 -4.06699 0
M  V30 9678 C 893.255 -0.238715 -5.90918 0
M  V30 9679 H 892.185 0.127285 -0.743179 0
M  V30 9680 H 894.836 -0.390372 -1.793 0
M  V30 9681 H 893.218 1.41953 -3.69683 0
M  V30 9682 H 894.392 -1.3502 -4.40575 0
M  V30 9683 H 892.707 -1.06797 -4.02472 0
M  V30 9684 H 895.304 1.48088 -5.13784 0
M  V30 9685 H 895.647 2.15328 -3.56286 0
M  V30 9686 H 896.18 0.498422 -3.94665 0
M  V30 9687 H 892.919 -1.1437 -6.45445 0
M  V30 9688 H 892.439 0.500997 -5.97704 0
M  V30 9689 H 894.118 0.165774 -6.46788 0
M  V30 9690 N 894.251 1.57596 -0.0117121 0
M  V30 9691 C 895.476 1.95764 0.684938 0
M  V30 9692 C 895.901 0.887285 1.65858 0
M  V30 9693 O 895.259 -0.153508 1.80649 0
M  V30 9694 C 895.307 3.33031 1.38285 0
M  V30 9695 O 894.411 3.28163 2.49765 0
M  V30 9696 H 893.752 0.638767 0.181309 0
M  V30 9697 H 896.282 2.04486 -0.0683883 0
M  V30 9698 H 896.292 3.68866 1.74362 0
M  V30 9699 H 894.967 4.10483 0.669043 0
M  V30 9700 H 893.544 3.04021 2.15929 0
M  V30 9701 N 895.729 -0.261212 1.5542 0
M  V30 9702 C 896.692 -1.30645 1.8832 0
M  V30 9703 C 897.692 -1.41782 0.758588 0
M  V30 9704 O 898.882 -1.40729 1.02669 0
M  V30 9705 C 896.014 -2.6862 2.09895 0
M  V30 9706 H 897.207 -1.02698 2.81768 0
M  V30 9707 H 894.76 -0.499838 1.48092 0
M  V30 9708 H 895.495 -3.0173 1.18868 0
M  V30 9709 H 895.28 -2.61921 2.91787 0
M  V30 9710 H 896.77 -3.44121 2.36581 0
M  V30 9711 N 897.207 -1.48554 -0.526253 0
M  V30 9712 C 898.456 -1.56014 -1.27837 0
M  V30 9713 C 898.769 -0.240643 -1.94114 0
M  V30 9714 O 899.975 -0.193525 -2.70809 0
M  V30 9715 C 898.431 -2.75161 -2.31979 0
M  V30 9716 C 898.039 -4.13768 -1.71755 0
M  V30 9717 C 899.783 -2.91936 -3.08178 0
M  V30 9718 C 897.69 -5.24171 -2.7386 0
M  V30 9719 H 896.62 -0.58082 -0.480795 0
M  V30 9720 H 899.271 -1.74895 -0.555335 0
M  V30 9721 H 897.653 -2.49722 -3.07335 0
M  V30 9722 H 898.827 -4.49241 -1.02563 0
M  V30 9723 H 897.142 -4.02141 -1.08036 0
M  V30 9724 H 899.739 -3.71586 -3.84484 0
M  V30 9725 H 900.082 -2.01533 -3.64267 0
M  V30 9726 H 900.615 -3.17294 -2.39937 0
M  V30 9727 H 897.354 -6.16552 -2.22586 0
M  V30 9728 H 896.874 -4.93181 -3.41368 0
M  V30 9729 H 898.553 -5.52442 -3.36774 0
M  V30 9730 N 898.685 0.775411 -1.37205 0
M  V30 9731 C 899.615 1.90258 -1.35367 0
M  V30 9732 C 900.596 1.68634 -0.222864 0
M  V30 9733 O 901.781 1.89545 -0.422659 0
M  V30 9734 C 898.911 3.27488 -1.15623 0
M  V30 9735 C 897.865 3.63668 -2.25676 0
M  V30 9736 C 897.191 4.994 -1.91059 0
M  V30 9737 C 898.491 3.70797 -3.67841 0
M  V30 9738 H 900.185 1.92053 -2.29687 0
M  V30 9739 H 897.731 0.922597 -1.10563 0
M  V30 9740 H 899.684 4.05976 -1.12968 0
M  V30 9741 H 898.408 3.26117 -0.177573 0
M  V30 9742 H 897.067 2.87486 -2.2748 0
M  V30 9743 H 896.715 4.94565 -0.917324 0
M  V30 9744 H 896.415 5.24576 -2.64751 0
M  V30 9745 H 897.939 5.80291 -1.89985 0
M  V30 9746 H 899.353 4.39444 -3.68187 0
M  V30 9747 H 897.75 4.07468 -4.40556 0
M  V30 9748 H 898.82 2.71549 -4.01732 0
M  V30 9749 N 900.163 1.21714 1.00117 0
M  V30 9750 C 901.411 1.03465 1.73607 0
M  V30 9751 C 901.732 -0.432295 1.90148 0
M  V30 9752 O 901.002 -1.31157 1.45515 0
M  V30 9753 H 899.582 0.379857 0.643209 0
M  V30 9754 H 902.244 1.53088 1.20624 0
M  V30 9755 H 901.34 1.50574 2.73375 0
M  V30 9756 N 901.641 -1.19671 1.02551 0
M  V30 9757 C 902.573 -2.22215 0.561517 0
M  V30 9758 C 903.586 -1.58751 -0.360821 0
M  V30 9759 O 904.775 -1.77802 -0.157749 0
M  V30 9760 C 901.875 -3.383 -0.201494 0
M  V30 9761 C 901.048 -4.3135 0.724952 0
M  V30 9762 C 900.107 -5.26199 0.00794334 0
M  V30 9763 O 899.133 -5.65665 0.633398 0
M  V30 9764 N 900.335 -5.66573 -1.26394 0
M  V30 9765 H 903.1 -2.6265 1.44343 0
M  V30 9766 H 900.661 -1.34303 0.904122 0
M  V30 9767 H 902.653 -3.98764 -0.690625 0
M  V30 9768 H 901.223 -2.96683 -0.98479 0
M  V30 9769 H 900.443 -3.6872 1.39423 0
M  V30 9770 H 901.731 -4.90433 1.35472 0
M  V30 9771 H 901.129 -5.36538 -1.79287 0
M  V30 9772 H 899.686 -6.29304 -1.69763 0
M  V30 9773 N 903.119 -0.802921 -1.35613 0
M  V30 9774 C 904.052 -0.156345 -2.27664 0
M  V30 9775 C 905.03 0.675517 -1.47904 0
M  V30 9776 O 906.214 0.643589 -1.77173 0
M  V30 9777 C 903.341 0.78348 -3.29514 0
M  V30 9778 C 902.387 0.0317062 -4.26488 0
M  V30 9779 S 903.22 -1.30183 -5.19435 0
M  V30 9780 C 904.376 -0.366354 -6.24827 0
M  V30 9781 H 904.609 -0.936803 -2.82155 0
M  V30 9782 H 902.142 -0.597799 -1.42358 0
M  V30 9783 H 904.1 1.32023 -3.8869 0
M  V30 9784 H 902.761 1.53729 -2.73909 0
M  V30 9785 H 901.954 0.745364 -4.98458 0
M  V30 9786 H 901.556 -0.43497 -3.71462 0
M  V30 9787 H 903.848 0.44976 -6.76005 0
M  V30 9788 H 904.791 -1.05513 -7.00195 0
M  V30 9789 H 905.199 0.0363203 -5.64488 0
M  V30 9790 N 904.597 1.47463 -0.556102 0
M  V30 9791 C 905.825 2.06868 -0.0364585 0
M  V30 9792 C 906.24 1.40893 1.25677 0
M  V30 9793 O 905.597 0.505083 1.75371 0
M  V30 9794 C 905.648 3.61128 0.163984 0
M  V30 9795 O 905.369 4.24629 -1.07803 0
M  V30 9796 C 906.87 4.37397 0.721036 0
M  V30 9797 H 904.09 0.669466 -0.0453399 0
M  V30 9798 H 906.634 1.89482 -0.769198 0
M  V30 9799 H 904.789 3.78031 0.84685 0
M  V30 9800 H 905.203 5.17149 -0.875067 0
M  V30 9801 H 906.677 5.46016 0.810584 0
M  V30 9802 H 907.154 4.03604 1.73206 0
M  V30 9803 H 907.76 4.25236 0.073904 0
M  V30 9804 N 906.075 0.2925 1.54862 0
M  V30 9805 C 907.005 -0.580677 2.26165 0
M  V30 9806 C 907.986 -1.14485 1.25806 0
M  V30 9807 O 909.171 -1.17577 1.54562 0
M  V30 9808 C 906.301 -1.75668 2.99596 0
M  V30 9809 C 905.255 -1.32325 4.07031 0
M  V30 9810 C 904.581 -2.58374 4.68131 0
M  V30 9811 C 905.881 -0.460703 5.20264 0
M  V30 9812 H 907.575 0.0140075 2.99397 0
M  V30 9813 H 905.121 0.00817706 1.43998 0
M  V30 9814 H 907.074 -2.37356 3.48195 0
M  V30 9815 H 905.798 -2.37747 2.23928 0
M  V30 9816 H 904.457 -0.729477 3.59269 0
M  V30 9817 H 904.105 -3.18749 3.89112 0
M  V30 9818 H 903.805 -2.30078 5.40683 0
M  V30 9819 H 905.329 -3.2088 5.19489 0
M  V30 9820 H 906.743 -0.983037 5.64809 0
M  V30 9821 H 905.14 -0.271881 5.99484 0
M  V30 9822 H 906.21 0.516304 4.82143 0
M  V30 9823 N 907.553 -1.57587 0.0200696 0
M  V30 9824 C 908.483 -2.12702 -0.963333 0
M  V30 9825 C 909.464 -1.04094 -1.34531 0
M  V30 9826 O 910.649 -1.31881 -1.42552 0
M  V30 9827 C 907.779 -2.64673 -2.24868 0
M  V30 9828 C 906.733 -3.77987 -2.00772 0
M  V30 9829 C 906.059 -4.16351 -3.35494 0
M  V30 9830 C 907.359 -5.0444 -1.35416 0
M  V30 9831 H 909.053 -2.95121 -0.504363 0
M  V30 9832 H 906.599 -1.41966 -0.24116 0
M  V30 9833 H 908.552 -3.01862 -2.94036 0
M  V30 9834 H 907.276 -1.79403 -2.72914 0
M  V30 9835 H 905.935 -3.41223 -1.34025 0
M  V30 9836 H 905.583 -3.28075 -3.81282 0
M  V30 9837 H 905.283 -4.92705 -3.20181 0
M  V30 9838 H 906.807 -4.56115 -4.05945 0
M  V30 9839 H 908.221 -5.39273 -1.94571 0
M  V30 9840 H 906.618 -5.85732 -1.30529 0
M  V30 9841 H 907.688 -4.83803 -0.325923 0
M  V30 9842 N 909.032 0.252966 -1.55557 0
M  V30 9843 C 909.942 1.33472 -1.92931 0
M  V30 9844 C 910.958 1.52983 -0.828985 0
M  V30 9845 O 912.134 1.66723 -1.12984 0
M  V30 9846 C 909.199 2.6704 -2.21112 0
M  V30 9847 C 908.26 2.56103 -3.44542 0
M  V30 9848 C 907.493 3.83302 -3.71369 0
M  V30 9849 O 907.716 4.84907 -3.00368 0
M  V30 9850 O 906.65 3.823 -4.64898 0
M  V30 9851 H 910.476 1.04768 -2.85057 0
M  V30 9852 H 908.061 0.453208 -1.4236 0
M  V30 9853 H 909.943 3.45981 -2.40572 0
M  V30 9854 H 908.618 2.95489 -1.32166 0
M  V30 9855 H 907.525 1.7547 -3.30396 0
M  V30 9856 H 908.858 2.32601 -4.33772 0
M  V30 9857 N 910.51 1.48831 0.518367 0
M  V30 9858 C 911.758 1.57128 1.27103 0
M  V30 9859 C 912.079 0.252098 1.93364 0
M  V30 9860 O 911.349 -0.727281 1.819 0
M  V30 9861 H 909.929 0.578891 0.472116 0
M  V30 9862 H 912.591 1.85361 0.602262 0
M  V30 9863 H 911.687 2.35838 2.04418 0
M  V30 9864 N 911.988 -0.768124 1.37614 0
M  V30 9865 C 913.213 -1.56239 1.36397 0
M  V30 9866 C 913.638 -1.8804 -0.0475839 0
M  V30 9867 O 912.996 -1.495 -1.02564 0
M  V30 9868 C 913.044 -2.84716 2.21289 0
M  V30 9869 O 912.148 -3.79249 1.62001 0
M  V30 9870 H 911.489 -0.473119 0.465891 0
M  V30 9871 H 914.019 -0.950415 1.81186 0
M  V30 9872 H 914.029 -3.33784 2.34632 0
M  V30 9873 H 912.704 -2.60899 3.2389 0
M  V30 9874 H 911.281 -3.37904 1.57719 0
M  V30 9875 N 913.466 -1.22244 -0.994698 0
M  V30 9876 C 914.715 -1.04005 -1.72817 0
M  V30 9877 C 915.028 0.425413 -1.90918 0
M  V30 9878 O 916.234 0.727429 -2.61574 0
M  V30 9879 C 914.69 -1.81244 -3.10932 0
M  V30 9880 C 914.298 -3.32028 -3.00768 0
M  V30 9881 C 916.042 -1.71448 -3.88337 0
M  V30 9882 C 913.949 -4.01716 -4.34026 0
M  V30 9883 H 912.879 -0.385559 -0.647966 0
M  V30 9884 H 915.53 -1.46077 -1.11058 0
M  V30 9885 H 913.912 -1.3197 -3.73363 0
M  V30 9886 H 915.086 -3.88682 -2.47513 0
M  V30 9887 H 913.401 -3.4248 -2.36846 0
M  V30 9888 H 915.998 -2.20836 -4.86965 0
M  V30 9889 H 916.341 -0.674568 -4.10798 0
M  V30 9890 H 916.874 -2.18256 -3.3258 0
M  V30 9891 H 913.613 -5.05952 -4.16765 0
M  V30 9892 H 913.133 -3.49849 -4.87202 0
M  V30 9893 H 914.812 -4.0721 -5.02782 0
M  V30 9894 N 914.944 1.19125 -1.03184 0
M  V30 9895 C 915.907 2.20662 -0.619766 0
M  V30 9896 C 916.907 1.57621 0.318179 0
M  V30 9897 O 918.097 1.73885 0.104783 0
M  V30 9898 C 915.229 3.40774 0.0926696 0
M  V30 9899 H 916.422 2.58633 -1.5182 0
M  V30 9900 H 913.975 1.32855 -0.823364 0
M  V30 9901 H 914.71 3.08324 1.00531 0
M  V30 9902 H 914.495 3.87766 -0.581344 0
M  V30 9903 H 915.985 4.15977 0.367792 0
M  V30 9904 N 916.422 0.810101 1.35185 0
M  V30 9905 C 917.671 0.388589 1.97921 0
M  V30 9906 C 917.984 -1.05079 1.64978 0
M  V30 9907 O 919.19 -1.57559 2.21105 0
M  V30 9908 C 917.646 0.643864 3.54094 0
M  V30 9909 C 917.254 2.09602 3.95943 0
M  V30 9910 C 918.998 0.287883 4.23523 0
M  V30 9911 C 916.905 2.29686 5.44976 0
M  V30 9912 H 915.835 0.141562 0.740592 0
M  V30 9913 H 918.486 0.994653 1.54204 0
M  V30 9914 H 916.868 -0.0321978 3.95987 0
M  V30 9915 H 918.042 2.81018 3.65192 0
M  V30 9916 H 916.357 2.4122 3.39414 0
M  V30 9917 H 918.954 0.415946 5.3308 0
M  V30 9918 H 919.297 -0.766305 4.09186 0
M  V30 9919 H 919.83 0.918004 3.87063 0
M  V30 9920 H 916.569 3.33563 5.64284 0
M  V30 9921 H 916.089 1.62798 5.77284 0
M  V30 9922 H 917.768 2.11411 6.11485 0
M  V30 9923 N 917.9 -1.47166 0.563914 0
M  V30 9924 C 919.125 -2.0735 0.0454698 0
M  V30 9925 C 919.55 -1.41281 -1.24182 0
M  V30 9926 O 918.908 -0.490084 -1.7455 0
M  V30 9927 C 918.956 -3.60378 -0.126453 0
M  V30 9928 O 918.06 -3.94934 -1.18746 0
M  V30 9929 H 917.401 -0.661773 0.0543377 0
M  V30 9930 H 919.931 -1.89086 0.781508 0
M  V30 9931 H 919.941 -4.06593 -0.338554 0
M  V30 9932 H 918.616 -4.07862 0.81373 0
M  V30 9933 H 917.193 -3.60455 -0.955318 0
M  V30 9934 N 919.378 -0.300708 -1.54705 0
M  V30 9935 C 920.626 0.308044 -1.99739 0
M  V30 9936 C 920.947 1.54433 -1.19061 0
M  V30 9937 O 920.217 1.93794 -0.286507 0
M  V30 9938 H 918.797 0.116811 -0.73781 0
M  V30 9939 H 921.459 -0.41197 -1.90496 0
M  V30 9940 H 920.555 0.580287 -3.06658 0
M  V30 9941 N 920.856 1.57574 -0.0284266 0
M  V30 9942 C 922.084 1.96071 0.660575 0
M  V30 9943 C 922.499 0.904881 1.65703 0
M  V30 9944 O 921.856 -0.113379 1.82147 0
M  V30 9945 C 921.907 3.34634 1.36756 0
M  V30 9946 O 921.628 4.36167 0.411041 0
M  V30 9947 C 923.129 3.87758 2.14845 0
M  V30 9948 H 920.349 0.645794 0.182183 0
M  V30 9949 H 922.893 2.04311 -0.0879858 0
M  V30 9950 H 921.048 3.27616 2.06753 0
M  V30 9951 H 921.462 5.16493 0.913 0
M  V30 9952 H 922.936 4.87058 2.59767 0
M  V30 9953 H 923.413 3.21967 2.9872 0
M  V30 9954 H 924.019 3.98043 1.49807 0
M  V30 9955 N 922.334 -0.244713 1.55689 0
M  V30 9956 C 923.581 -0.972446 1.77622 0
M  V30 9957 C 923.909 -1.85235 0.593137 0
M  V30 9958 O 923.164 -1.91064 -0.423464 0
M  V30 9959 C 923.463 -1.8617 3.05083 0
M  V30 9960 C 923.129 -1.13696 4.3633 0
M  V30 9961 C 921.791 -0.936679 4.71996 0
M  V30 9962 C 924.143 -0.623451 5.17458 0
M  V30 9963 C 921.471 -0.210612 5.86322 0
M  V30 9964 C 923.823 0.0891587 6.32537 0
M  V30 9965 C 922.487 0.300904 6.66821 0
M  V30 9966 H 921.757 -0.355843 0.649967 0
M  V30 9967 H 924.404 -0.242372 1.8996 0
M  V30 9968 H 922.709 -2.6589 2.87767 0
M  V30 9969 H 924.406 -2.4265 3.19253 0
M  V30 9970 H 920.996 -1.30301 4.08313 0
M  V30 9971 H 925.18 -0.765725 4.90357 0
M  V30 9972 H 920.436 -0.0361062 6.11389 0
M  V30 9973 H 924.61 0.494685 6.94641 0
M  V30 9974 H 922.237 0.865466 7.55257 0
M  V30 9975 N 923.813 -1.49104 -0.510467 0
M  V30 9976 C 924.776 -1.64569 -1.59529 0
M  V30 9977 C 925.776 -0.517937 -1.5223 0
M  V30 9978 O 926.966 -0.784183 -1.55551 0
M  V30 9979 C 924.098 -1.6342 -2.99177 0
M  V30 9980 H 925.291 -2.61318 -1.4715 0
M  V30 9981 H 922.844 -1.37993 -0.734001 0
M  V30 9982 H 923.579 -0.68221 -3.17043 0
M  V30 9983 H 923.364 -2.45312 -3.05883 0
M  V30 9984 H 924.854 -1.77474 -3.78011 0
M  V30 9985 N 925.291 0.760815 -1.38019 0
M  V30 9986 C 926.521 1.54776 -1.3685 0
M  V30 9987 C 926.929 1.89146 0.0453971 0
M  V30 9988 O 926.272 1.52746 1.0205 0
M  V30 9989 C 926.334 2.87923 -2.15269 0
M  V30 9990 C 925.998 2.76131 -3.64144 0
M  V30 9991 C 926.995 2.46417 -4.57794 0
M  V30 9992 C 924.68 2.9381 -4.07408 0
M  V30 9993 C 926.674 2.34525 -5.92686 0
M  V30 9994 C 924.361 2.81539 -5.42383 0
M  V30 9995 C 925.359 2.51938 -6.34836 0
M  V30 9996 O 925.047 2.39713 -7.67329 0
M  V30 9997 H 924.779 0.485776 -0.470104 0
M  V30 9998 H 927.333 0.949939 -1.82113 0
M  V30 9999 H 925.563 3.49867 -1.64712 0
M  V30 10000 H 927.252 3.49389 -2.06596 0
M  V30 10001 H 928.018 2.32433 -4.25676 0
M  V30 10002 H 923.897 3.15849 -3.35799 0
M  V30 10003 H 927.441 2.11342 -6.64816 0
M  V30 10004 H 923.338 2.95093 -5.741 0
M  V30 10005 H 924.106 2.5498 -7.77771 0
M  V30 10006 N 926.769 1.22769 0.988202 0
M  V30 10007 C 928.015 1.05665 1.73097 0
M  V30 10008 C 928.348 -0.406615 1.89895 0
M  V30 10009 O 927.623 -1.30132 1.44554 0
M  V30 10010 C 927.906 1.77381 3.13382 0
M  V30 10011 C 927.759 3.31332 3.04203 0
M  V30 10012 C 929.078 1.52999 4.12649 0
M  V30 10013 H 926.197 0.385258 0.628288 0
M  V30 10014 H 928.839 1.51171 1.15097 0
M  V30 10015 H 926.989 1.38696 3.62899 0
M  V30 10016 H 928.661 3.79489 2.6227 0
M  V30 10017 H 926.904 3.60767 2.40894 0
M  V30 10018 H 927.575 3.76692 4.03493 0
M  V30 10019 H 930.051 1.86611 3.71908 0
M  V30 10020 H 928.927 2.05666 5.08913 0
M  V30 10021 H 929.188 0.463615 4.39662 0
M  V30 10022 N 928.247 -1.18576 1.03814 0
M  V30 10023 C 929.21 -2.2033 0.63146 0
M  V30 10024 C 930.21 -1.57787 -0.309816 0
M  V30 10025 O 931.4 -1.73938 -0.0955598 0
M  V30 10026 C 928.532 -3.40818 -0.0745963 0
M  V30 10027 H 929.725 -2.57824 1.53189 0
M  V30 10028 H 927.278 -1.32416 0.830398 0
M  V30 10029 H 928.013 -3.08853 -0.988947 0
M  V30 10030 H 927.798 -3.87453 0.6019 0
M  V30 10031 H 929.288 -4.16166 -0.345727 0
M  V30 10032 N 929.725 -0.817259 -1.34754 0
M  V30 10033 C 930.657 -0.192695 -2.28389 0
M  V30 10034 C 931.67 0.614167 -1.50771 0
M  V30 10035 O 932.859 0.444776 -1.7287 0
M  V30 10036 C 929.959 0.748929 -3.30521 0
M  V30 10037 C 929.132 -0.0138762 -4.37398 0
M  V30 10038 C 928.191 0.847825 -5.19325 0
M  V30 10039 O 927.217 0.29487 -5.68436 0
M  V30 10040 N 928.419 2.16843 -5.38479 0
M  V30 10041 H 931.184 -0.997122 -2.82626 0
M  V30 10042 H 928.745 -0.673696 -1.47217 0
M  V30 10043 H 930.737 1.32987 -3.82226 0
M  V30 10044 H 929.307 1.45412 -2.7672 0
M  V30 10045 H 928.527 -0.776093 -3.86485 0
M  V30 10046 H 929.815 -0.539191 -5.05935 0
M  V30 10047 H 929.213 2.64148 -5.00242 0
M  V30 10048 H 927.77 2.69835 -5.93323 0
M  V30 10049 N 931.203 1.46865 -0.571711 0
M  V30 10050 C 932.135 2.28277 0.205479 0
M  V30 10051 C 933.148 1.37866 0.865835 0
M  V30 10052 O 934.337 1.62564 0.737247 0
M  V30 10053 C 931.437 3.12572 1.30965 0
M  V30 10054 C 930.61 4.31038 0.743328 0
M  V30 10055 C 929.669 4.96815 1.73382 0
M  V30 10056 O 928.695 5.54755 1.2742 0
M  V30 10057 N 929.897 4.92825 3.06764 0
M  V30 10058 H 932.662 2.95618 -0.49294 0
M  V30 10059 H 930.223 1.56655 -0.408744 0
M  V30 10060 H 932.215 3.53442 1.97131 0
M  V30 10061 H 930.785 2.47378 1.91109 0
M  V30 10062 H 930.005 3.94084 -0.0955004 0
M  V30 10063 H 931.293 5.07632 0.344556 0
M  V30 10064 H 930.691 4.46978 3.46738 0
M  V30 10065 H 929.248 5.3767 3.68449 0
M  V30 10066 N 932.681 0.308908 1.54543 0
M  V30 10067 C 933.644 -0.550857 2.22482 0
M  V30 10068 C 934.644 -1.0551 1.21344 0
M  V30 10069 O 935.834 -0.949866 1.46025 0
M  V30 10070 C 932.966 -1.76354 2.9174 0
M  V30 10071 H 934.159 0.0428395 2.99869 0
M  V30 10072 H 931.712 0.059825 1.56185 0
M  V30 10073 H 932.447 -2.39686 2.18451 0
M  V30 10074 H 932.232 -1.40954 3.65889 0
M  V30 10075 H 933.722 -2.37417 3.43545 0
M  V30 10076 N 934.159 -1.57557 0.0367827 0
M  V30 10077 C 935.405 -1.93224 -0.635306 0
M  V30 10078 C 935.76 -0.914194 -1.69293 0
M  V30 10079 O 935.053 0.0686974 -1.91477 0
M  V30 10080 C 935.247 -3.33387 -1.28794 0
M  V30 10081 C 935.076 -4.48731 -0.295055 0
M  V30 10082 C 933.846 -5.05185 0.10783 0
M  V30 10083 C 936.044 -5.12294 0.453749 0
M  V30 10084 N 934.026 -6.04054 1.09508 0
M  V30 10085 C 935.397 -6.06335 1.29452 0
M  V30 10086 C 937.452 -4.95244 0.513622 0
M  V30 10087 C 936.155 -6.85158 2.18977 0
M  V30 10088 C 938.181 -5.74682 1.39624 0
M  V30 10089 C 937.543 -6.68344 2.22477 0
M  V30 10090 H 933.642 -0.754772 -0.204555 0
M  V30 10091 H 936.226 -1.94413 0.105751 0
M  V30 10092 H 934.397 -3.33002 -1.9991 0
M  V30 10093 H 936.129 -3.56381 -1.91767 0
M  V30 10094 H 932.884 -4.7284 -0.268192 0
M  V30 10095 H 933.308 -6.5818 1.58518 0
M  V30 10096 H 937.95 -4.2265 -0.112699 0
M  V30 10097 H 935.668 -7.57052 2.82661 0
M  V30 10098 H 939.254 -5.6352 1.44696 0
M  V30 10099 H 938.134 -7.2874 2.89668 0
M  V30 10100 N 935.637 0.236453 -1.55816 0
M  V30 10101 C 936.886 0.960981 -1.77336 0
M  V30 10102 C 937.199 1.86085 -0.602641 0
M  V30 10103 O 938.405 2.62291 -0.701106 0
M  V30 10104 C 936.861 1.75884 -3.13995 0
M  V30 10105 C 936.469 0.905849 -4.38746 0
M  V30 10106 C 938.213 2.47548 -3.44848 0
M  V30 10107 C 936.12 1.7002 -5.66434 0
M  V30 10108 H 935.05 0.362547 -0.661117 0
M  V30 10109 H 937.701 0.215303 -1.82233 0
M  V30 10110 H 936.083 2.54687 -3.03234 0
M  V30 10111 H 937.257 0.159415 -4.60524 0
M  V30 10112 H 935.572 0.30205 -4.15303 0
M  V30 10113 H 938.169 3.07452 -4.37467 0
M  V30 10114 H 938.512 3.19689 -2.66655 0
M  V30 10115 H 939.045 1.75747 -3.56872 0
M  V30 10116 H 935.784 1.02234 -6.47479 0
M  V30 10117 H 935.304 2.42164 -5.48741 0
M  V30 10118 H 936.983 2.26469 -6.0607 0
M  V30 10119 N 937.115 1.49373 0.502552 0
M  V30 10120 C 938.045 1.68839 1.61294 0
M  V30 10121 C 939.026 0.537096 1.61398 0
M  V30 10122 O 940.211 0.772764 1.78163 0
M  V30 10123 C 937.341 1.75347 2.99784 0
M  V30 10124 C 936.295 2.90251 3.14545 0
M  V30 10125 C 935.621 2.8187 4.54371 0
M  V30 10126 C 936.921 4.31207 2.94717 0
M  V30 10127 H 938.615 2.61803 1.45257 0
M  V30 10128 H 936.161 1.25987 0.697371 0
M  V30 10129 H 938.114 1.87552 3.77362 0
M  V30 10130 H 936.838 0.789814 3.16906 0
M  V30 10131 H 935.497 2.77646 2.39392 0
M  V30 10132 H 935.145 1.83416 4.68367 0
M  V30 10133 H 934.845 3.5899 4.65188 0
M  V30 10134 H 936.369 2.96081 5.34012 0
M  V30 10135 H 937.783 4.44501 3.62065 0
M  V30 10136 H 936.18 5.09536 3.17007 0
M  V30 10137 H 937.25 4.45759 1.90857 0
M  V30 10138 N 938.594 -0.753485 1.38421 0
M  V30 10139 C 939.542 -1.8886 1.35774 0
M  V30 10140 C 940.536 -1.67639 0.243608 0
M  V30 10141 O 941.742 -1.75206 0.412649 0
M  V30 10142 H 938.117 -0.62137 0.42356 0
M  V30 10143 H 940.088 -1.88209 2.3156 0
M  V30 10144 C 938.837 -3.26344 1.19979 0
M  V30 10145 H 938.16 -3.43259 2.04971 0
M  V30 10146 H 939.6 -4.06015 1.22181 0
M  V30 10147 C 938.059 -3.36771 -0.0932867 0
M  V30 10148 O 938.589 -3.8718 -1.07027 0
M  V30 10149 N 936.795 -2.90212 -0.150154 0
M  V30 10150 H 936.342 -2.4938 0.645562 0
M  V30 10151 H 936.3 -2.97569 -1.0149 0
M  V30 10152 N 940.072 -1.23292 -0.981677 0
M  V30 10153 C 941.035 -1.01417 -2.05542 0
M  V30 10154 C 942.035 0.0235354 -1.60783 0
M  V30 10155 O 943.225 -0.216082 -1.72855 0
M  V30 10156 C 940.357 -0.534239 -3.36688 0
M  V30 10157 H 941.55 -1.96702 -2.26381 0
M  V30 10158 H 939.103 -1.05318 -1.1549 0
M  V30 10159 H 939.838 0.422452 -3.21537 0
M  V30 10160 H 939.623 -1.28304 -3.70514 0
M  V30 10161 H 941.113 -0.40179 -4.15663 0
M  V30 10162 N 941.55 1.18024 -1.04442 0
M  V30 10163 C 942.778 1.92032 -0.770161 0
M  V30 10164 C 943.193 1.76391 0.673181 0
M  V30 10165 O 942.55 1.09604 1.45922 0
M  V30 10166 C 942.601 3.43328 -1.13173 0
M  V30 10167 O 942.322 3.5848 -2.51841 0
M  V30 10168 C 943.823 4.34427 -0.882523 0
M  V30 10169 H 941.043 0.609518 -0.280586 0
M  V30 10170 H 943.587 1.49711 -1.39308 0
M  V30 10171 H 941.742 3.83423 -0.553704 0
M  V30 10172 H 942.156 4.52166 -2.65794 0
M  V30 10173 H 943.63 5.39123 -1.18533 0
M  V30 10174 H 944.107 4.3882 0.18257 0
M  V30 10175 H 944.713 4.00035 -1.44403 0
M  V30 10176 N 943.028 0.824394 1.34319 0
M  V30 10177 C 943.958 0.262077 2.32025 0
M  V30 10178 C 944.939 -0.622277 1.58309 0
M  V30 10179 O 946.124 -0.548848 1.86283 0
M  V30 10180 C 943.254 -0.57567 3.42496 0
M  V30 10181 C 942.208 0.21167 4.27476 0
M  V30 10182 C 941.534 -0.748913 5.29429 0
M  V30 10183 C 942.834 1.42068 5.02607 0
M  V30 10184 H 944.528 1.07842 2.79304 0
M  V30 10185 H 942.074 0.520022 1.34282 0
M  V30 10186 H 944.027 -0.979251 4.09864 0
M  V30 10187 H 942.751 -1.42508 2.93869 0
M  V30 10188 H 941.41 0.596636 3.61712 0
M  V30 10189 H 941.058 -1.59432 4.77064 0
M  V30 10190 H 940.758 -0.226313 5.87164 0
M  V30 10191 H 942.282 -1.15032 5.99667 0
M  V30 10192 H 943.696 1.09103 5.62823 0
M  V30 10193 H 942.093 1.87903 5.69923 0
M  V30 10194 H 943.163 2.1981 4.32217 0
M  V30 10195 N 944.506 -1.46559 0.579492 0
M  V30 10196 C 945.922 -1.57771 0.240921 0
M  V30 10197 C 946.122 -1.57505 -1.25676 0
M  V30 10198 O 945.178 -1.4903 -2.03829 0
M  V30 10199 C 946.491 -2.87311 0.887285 0
M  V30 10200 C 948.039 -3.00937 0.860576 0
M  V30 10201 C 948.514 -4.33208 1.48642 0
M  V30 10202 N 950.005 -4.39899 1.45062 0
M  V30 10203 C 950.74 -5.40856 1.90428 0
M  V30 10204 N 950.236 -6.48503 2.43752 0
M  V30 10205 N 952.029 -5.32037 1.81364 0
M  V30 10206 H 944.18 -1.44976 1.55228 0
M  V30 10207 H 946.443 -0.691354 0.648639 0
M  V30 10208 H 946.149 -2.93307 1.94071 0
M  V30 10209 H 946.023 -3.75141 0.393577 0
M  V30 10210 H 948.41 -2.94524 -0.184223 0
M  V30 10211 H 948.491 -2.14591 1.39227 0
M  V30 10212 H 948.135 -4.40378 2.5304 0
M  V30 10213 H 948.065 -5.18323 0.92998 0
M  V30 10214 H 950.556 -3.62706 1.0608 0
M  V30 10215 H 950.869 -7.21744 2.76234 0
M  V30 10216 H 949.214 -6.49332 2.47776 0
M  V30 10217 H 952.405 -4.46841 1.39465 0
M  V30 10218 H 952.578 -6.10573 2.17035 0
M  V30 10219 N 945.984 -0.3171 -1.54377 0
M  V30 10220 C 947.261 0.341348 -1.92598 0
M  V30 10221 C 947.641 1.70402 -1.24605 0
M  V30 10222 O 946.989 2.25191 -0.387448 0
M  V30 10223 C 947.199 0.440003 -3.46215 0
M  V30 10224 C 948.547 0.703327 -4.18734 0
M  V30 10225 O 949.571 0.523181 -3.52337 0
M  V30 10226 O 948.43 1.05042 -5.3631 0
M  V30 10227 H 945.524 0.193696 -0.803997 0
M  V30 10228 H 948.07 -0.366341 -1.65699 0
M  V30 10229 H 946.842 -0.517299 -3.87866 0
M  V30 10230 H 946.465 1.19553 -3.792 0
M  V30 10231 N 947.462 1.57535 -0.0451378 0
M  V30 10232 C 948.41 2.12351 0.949205 0
M  V30 10233 C 949.404 1.05386 1.32628 0
M  V30 10234 O 950.61 1.23802 1.30664 0
M  V30 10235 H 946.985 0.678648 0.323945 0
M  V30 10236 H 948.956 2.94806 0.461718 0
M  V30 10237 C 947.705 2.67862 2.21687 0
M  V30 10238 H 947.028 3.49826 1.93551 0
M  V30 10239 H 948.468 3.09844 2.89435 0
M  V30 10240 C 946.927 1.61353 2.95748 0
M  V30 10241 O 947.457 1.02276 3.88462 0
M  V30 10242 N 945.663 1.33017 2.5837 0
M  V30 10243 H 945.21 1.81246 1.83051 0
M  V30 10244 H 945.168 0.619812 3.0823 0
M  V30 10245 N 948.94 -0.228186 1.55939 0
M  V30 10246 C 950.189 -0.951563 1.77843 0
M  V30 10247 C 950.502 -1.85763 0.612501 0
M  V30 10248 O 951.708 -2.61916 0.715006 0
M  V30 10249 C 950.164 -1.74216 3.14923 0
M  V30 10250 C 949.772 -0.882569 4.39221 0
M  V30 10251 C 951.516 -2.45715 3.46156 0
M  V30 10252 C 949.423 -1.67014 5.67327 0
M  V30 10253 H 948.353 -0.359035 0.663031 0
M  V30 10254 H 951.004 -0.205636 1.82344 0
M  V30 10255 H 949.386 -2.53075 3.0458 0
M  V30 10256 H 950.56 -0.13499 4.60602 0
M  V30 10257 H 948.875 -0.280022 4.15457 0
M  V30 10258 H 951.472 -3.05127 4.39092 0
M  V30 10259 H 951.815 -3.1827 2.68346 0
M  V30 10260 H 952.348 -1.73852 3.57799 0
M  V30 10261 H 949.087 -0.987985 6.48012 0
M  V30 10262 H 948.607 -2.3925 5.50018 0
M  V30 10263 H 950.286 -2.23252 6.07262 0
M  V30 10264 N 950.418 -1.49637 -0.494624 0
M  V30 10265 C 951.348 -1.69692 -1.60396 0
M  V30 10266 C 952.329 -0.545648 -1.61111 0
M  V30 10267 O 953.514 -0.782202 -1.77751 0
M  V30 10268 C 950.644 -1.76934 -2.9885 0
M  V30 10269 C 949.598 -2.91915 -3.13001 0
M  V30 10270 C 948.924 -2.84276 -4.5287 0
M  V30 10271 C 950.224 -4.32764 -2.92426 0
M  V30 10272 H 951.918 -2.6257 -1.43866 0
M  V30 10273 H 949.464 -1.26355 -0.690679 0
M  V30 10274 H 951.417 -1.8955 -3.76362 0
M  V30 10275 H 950.141 -0.806609 -3.16483 0
M  V30 10276 H 948.8 -2.78911 -2.37916 0
M  V30 10277 H 948.448 -1.85897 -4.67388 0
M  V30 10278 H 948.148 -3.61452 -4.63278 0
M  V30 10279 H 949.672 -2.98909 -5.32434 0
M  V30 10280 H 951.086 -4.46415 -3.59703 0
M  V30 10281 H 949.483 -5.1121 -3.143 0
M  V30 10282 H 950.553 -4.46765 -1.88491 0
M  V30 10283 N 951.896 0.746133 -1.38819 0
M  V30 10284 C 953.143 1.50545 -1.35434 0
M  V30 10285 C 953.471 1.94427 0.0532669 0
M  V30 10286 O 952.726 1.66285 1.03188 0
M  V30 10287 C 953.025 2.76639 -2.26286 0
M  V30 10288 C 952.691 2.51682 -3.74122 0
M  V30 10289 C 951.353 2.44584 -4.14406 0
M  V30 10290 C 953.705 2.30071 -4.67672 0
M  V30 10291 C 951.033 2.13902 -5.46318 0
M  V30 10292 C 953.385 2.00907 -5.99849 0
M  V30 10293 C 952.049 1.92271 -6.39209 0
M  V30 10294 H 951.319 0.550883 -0.49559 0
M  V30 10295 H 953.966 0.857337 -1.71237 0
M  V30 10296 H 952.271 3.46138 -1.83564 0
M  V30 10297 H 953.968 3.34626 -2.20967 0
M  V30 10298 H 950.558 2.5808 -3.42188 0
M  V30 10299 H 954.742 2.34528 -4.3739 0
M  V30 10300 H 949.998 2.0573 -5.75748 0
M  V30 10301 H 954.172 1.83191 -6.71874 0
M  V30 10302 H 951.799 1.68261 -7.41345 0
M  V30 10303 N 953.375 1.23811 0.975125 0
M  V30 10304 C 954.623 1.07124 1.71373 0
M  V30 10305 C 954.944 -0.391864 1.91022 0
M  V30 10306 O 954.214 -1.28041 1.48265 0
M  V30 10307 H 952.794 0.393415 0.635007 0
M  V30 10308 H 955.456 1.55612 1.17349 0
M  V30 10309 H 954.552 1.56338 2.7012 0
M  V30 10310 N 954.853 -1.17469 1.05066 0
M  V30 10311 C 955.8 -2.21443 0.650512 0
M  V30 10312 C 956.77 -1.62441 -0.346702 0
M  V30 10313 O 957.955 -1.89305 -0.238404 0
M  V30 10314 C 955.095 -3.45087 0.0301014 0
M  V30 10315 C 954.208 -4.18385 1.07599 0
M  V30 10316 C 953.343 -5.29513 0.423038 0
M  V30 10317 C 952.382 -5.94596 1.45333 0
M  V30 10318 N 951.519 -6.97241 0.824623 0
M  V30 10319 H 956.359 -2.55025 1.54163 0
M  V30 10320 H 953.896 -1.25274 0.771032 0
M  V30 10321 H 955.854 -4.15754 -0.347032 0
M  V30 10322 H 954.484 -3.12093 -0.824481 0
M  V30 10323 H 953.536 -3.46446 1.57097 0
M  V30 10324 H 954.848 -4.62899 1.85813 0
M  V30 10325 H 954.002 -6.067 -0.00774975 0
M  V30 10326 H 952.741 -4.86129 -0.391092 0
M  V30 10327 H 951.746 -5.16142 1.89415 0
M  V30 10328 H 952.971 -6.40061 2.26934 0
M  V30 10329 H 950.917 -6.55993 0.0309804 0
M  V30 10330 H 950.834 -7.40059 1.54432 0
M  V30 10331 H 952.102 -7.78375 0.418567 0
M  V30 10332 N 956.331 -0.831506 -1.3388 0
M  V30 10333 C 957.241 -0.261688 -2.33136 0
M  V30 10334 C 958.257 0.608429 -1.63016 0
M  V30 10335 O 959.433 0.514297 -1.94723 0
M  V30 10336 C 956.498 0.559957 -3.42148 0
M  V30 10337 C 955.559 -0.333569 -4.28002 0
M  V30 10338 C 954.792 0.448956 -5.31808 0
M  V30 10339 O 955.015 1.6814 -5.45055 0
M  V30 10340 O 953.949 -0.173197 -6.01651 0
M  V30 10341 H 957.775 -1.08343 -2.83717 0
M  V30 10342 H 955.36 -0.593849 -1.3709 0
M  V30 10343 H 957.242 1.02712 -4.08691 0
M  V30 10344 H 955.917 1.35888 -2.93796 0
M  V30 10345 H 954.824 -0.848416 -3.64352 0
M  V30 10346 H 956.157 -1.09707 -4.79818 0
M  V30 10347 N 957.809 1.4625 -0.587256 0
M  V30 10348 C 959.039 2.06444 -0.0802135 0
M  V30 10349 C 959.447 1.43585 1.23207 0
M  V30 10350 O 958.79 0.536956 1.75677 0
M  V30 10351 C 958.852 3.59165 0.155129 0
M  V30 10352 C 958.516 4.44243 -1.07225 0
M  V30 10353 C 959.513 4.80497 -1.98542 0
M  V30 10354 C 957.198 4.8531 -1.29537 0
M  V30 10355 C 959.192 5.56649 -3.10516 0
M  V30 10356 C 956.879 5.61221 -2.41815 0
M  V30 10357 C 957.877 5.96805 -3.32134 0
M  V30 10358 O 957.565 6.71181 -4.42461 0
M  V30 10359 H 957.297 0.673626 -0.0566063 0
M  V30 10360 H 959.851 1.88797 -0.809004 0
M  V30 10361 H 958.081 3.75137 0.938583 0
M  V30 10362 H 959.77 4.01271 0.611243 0
M  V30 10363 H 960.536 4.49345 -1.82522 0
M  V30 10364 H 956.415 4.5706 -0.601431 0
M  V30 10365 H 959.959 5.84343 -3.81037 0
M  V30 10366 H 955.856 5.91786 -2.57797 0
M  V30 10367 H 956.624 6.8961 -4.40886 0
M  V30 10368 N 959.287 0.325282 1.54207 0
M  V30 10369 C 960.564 -0.33113 1.92777 0
M  V30 10370 C 960.944 -1.69739 1.25506 0
M  V30 10371 O 960.292 -2.24983 0.399385 0
M  V30 10372 C 960.502 -0.421636 3.46444 0
M  V30 10373 C 961.85 -0.681111 4.19101 0
M  V30 10374 O 962.874 -0.504488 3.52609 0
M  V30 10375 O 961.733 -1.02196 5.3686 0
M  V30 10376 H 958.827 -0.18943 0.805013 0
M  V30 10377 H 961.373 0.375123 1.65502 0
M  V30 10378 H 960.145 0.537862 3.87586 0
M  V30 10379 H 959.768 -1.1754 3.79829 0
M  V30 10380 N 960.765 -1.57509 0.0534917 0
M  V30 10381 C 961.675 -2.15152 -0.935249 0
M  V30 10382 C 962.691 -1.10991 -1.34003 0
M  V30 10383 O 963.867 -1.43171 -1.41648 0
M  V30 10384 C 960.932 -2.68699 -2.19093 0
M  V30 10385 C 959.993 -3.87666 -1.84428 0
M  V30 10386 C 959.226 -4.3865 -3.0401 0
M  V30 10387 O 959.449 -3.887 -4.17455 0
M  V30 10388 O 958.383 -5.30209 -2.84889 0
M  V30 10389 H 962.209 -2.99962 -0.475009 0
M  V30 10390 H 959.794 -1.48446 -0.16854 0
M  V30 10391 H 961.676 -3.03098 -2.92762 0
M  V30 10392 H 960.351 -1.86958 -2.6425 0
M  V30 10393 H 959.258 -3.58151 -1.08068 0
M  V30 10394 H 960.591 -4.70643 -1.44068 0
M  V30 10395 N 962.243 0.219913 -1.56058 0
M  V30 10396 C 963.153 1.29349 -1.95719 0
M  V30 10397 C 964.169 1.5119 -0.861248 0
M  V30 10398 O 965.345 1.64289 -1.16495 0
M  V30 10399 C 962.41 2.6229 -2.26726 0
M  V30 10400 C 961.471 2.48738 -3.49897 0
M  V30 10401 C 960.704 3.75339 -3.79416 0
M  V30 10402 O 960.927 4.78427 -3.10586 0
M  V30 10403 O 959.861 3.72352 -4.72903 0
M  V30 10404 H 963.687 0.986979 -2.87215 0
M  V30 10405 H 961.272 0.42291 -1.43289 0
M  V30 10406 H 963.154 3.408 -2.47857 0
M  V30 10407 H 961.829 2.92619 -1.38404 0
M  V30 10408 H 960.736 1.68422 -3.34043 0
M  V30 10409 H 962.069 2.23347 -4.38608 0
M  V30 10410 N 963.721 1.49897 0.486681 0
M  V30 10411 C 965.137 1.36977 0.819109 0
M  V30 10412 C 965.337 0.41385 1.97204 0
M  V30 10413 O 964.393 -0.149249 2.52059 0
M  V30 10414 C 965.706 2.78013 1.14584 0
M  V30 10415 C 967.254 2.86816 1.25321 0
M  V30 10416 C 967.729 4.28651 1.61316 0
M  V30 10417 N 969.22 4.31528 1.68337 0
M  V30 10418 C 969.955 5.38254 1.97662 0
M  V30 10419 N 969.451 6.55207 2.25113 0
M  V30 10420 N 971.244 5.25683 1.99033 0
M  V30 10421 H 963.395 2.10634 -0.273364 0
M  V30 10422 H 965.658 0.946116 -0.0597418 0
M  V30 10423 H 965.364 3.49728 0.371892 0
M  V30 10424 H 965.238 3.1428 2.08585 0
M  V30 10425 H 967.625 2.15329 2.01785 0
M  V30 10426 H 967.706 2.54112 0.293368 0
M  V30 10427 H 967.35 5.00669 0.853968 0
M  V30 10428 H 967.28 4.5883 2.58424 0
M  V30 10429 H 969.771 3.47189 1.49226 0
M  V30 10430 H 970.084 7.32359 2.46717 0
M  V30 10431 H 968.429 6.58408 2.22538 0
M  V30 10432 H 971.62 4.33316 1.77074 0
M  V30 10433 H 971.793 6.08949 2.21552 0
M  V30 10434 N 965.199 -0.738761 1.39212 0
M  V30 10435 C 966.429 -1.5258 1.39295 0
M  V30 10436 C 966.837 -1.89194 -0.0153 0
M  V30 10437 O 966.18 -1.5435 -0.996073 0
M  V30 10438 C 966.242 -2.84462 2.19822 0
M  V30 10439 C 965.906 -2.70303 3.68491 0
M  V30 10440 C 966.903 -2.39102 4.61656 0
M  V30 10441 C 964.588 -2.87291 4.1203 0
M  V30 10442 C 966.582 -2.25066 5.96342 0
M  V30 10443 C 964.269 -2.72874 5.46793 0
M  V30 10444 C 965.267 -2.41807 6.38763 0
M  V30 10445 O 964.955 -2.27475 7.71045 0
M  V30 10446 H 964.687 -0.478236 0.477772 0
M  V30 10447 H 967.241 -0.920846 1.83602 0
M  V30 10448 H 965.471 -3.47202 1.70257 0
M  V30 10449 H 967.16 -3.46058 2.12129 0
M  V30 10450 H 967.926 -2.25632 4.2932 0
M  V30 10451 H 963.805 -3.10466 3.40781 0
M  V30 10452 H 967.349 -2.00739 6.68094 0
M  V30 10453 H 963.246 -2.85922 5.78722 0
M  V30 10454 H 964.014 -2.42574 7.81729 0
M  V30 10455 N 966.677 -1.24326 -0.968545 0
M  V30 10456 C 967.625 -1.03256 -2.08425 0
M  V30 10457 C 968.619 0.0322356 -1.69369 0
M  V30 10458 O 969.825 -0.122251 -1.79584 0
M  V30 10459 H 966.2 -0.31688 -0.681976 0
M  V30 10460 H 968.171 -1.97873 -2.23358 0
M  V30 10461 C 966.92 -0.653144 -3.4151 0
M  V30 10462 H 966.243 -1.46424 -3.72021 0
M  V30 10463 H 967.683 -0.545316 -4.20479 0
M  V30 10464 C 966.142 0.639674 -3.30771 0
M  V30 10465 O 966.672 1.68563 -3.64622 0
M  V30 10466 N 964.878 0.620074 -2.83907 0
M  V30 10467 H 964.425 -0.231449 -2.56558 0
M  V30 10468 H 964.383 1.48528 -2.77104 0
M  V30 10469 N 968.156 1.1691 -1.05688 0
M  V30 10470 C 969.381 1.91745 -0.790478 0
M  V30 10471 C 969.806 1.76568 0.648478 0
M  V30 10472 O 969.164 1.08682 1.45114 0
M  V30 10473 C 969.212 3.4067 -1.18222 0
M  V30 10474 O 968.316 4.11177 -0.317341 0
M  V30 10475 H 967.657 0.5976 -0.28943 0
M  V30 10476 H 970.187 1.48157 -1.41105 0
M  V30 10477 H 970.197 3.91424 -1.15114 0
M  V30 10478 H 968.872 3.51036 -2.2304 0
M  V30 10479 H 967.449 3.70645 -0.409459 0
M  V30 10480 N 969.634 0.838594 1.33437 0
M  V30 10481 C 970.88 0.434813 1.98084 0
M  V30 10482 C 971.213 -1.00331 1.66275 0
M  V30 10483 O 970.488 -1.70139 0.942501 0
M  V30 10484 C 970.771 0.655602 3.54082 0
M  V30 10485 C 970.624 2.14097 3.95578 0
M  V30 10486 C 971.943 0.101576 4.39983 0
M  V30 10487 H 969.062 0.159456 0.719544 0
M  V30 10488 H 971.704 1.05406 1.58081 0
M  V30 10489 H 969.854 0.128501 3.88287 0
M  V30 10490 H 971.526 2.73292 3.71631 0
M  V30 10491 H 969.769 2.62558 3.4532 0
M  V30 10492 H 970.44 2.24621 5.04231 0
M  V30 10493 H 972.916 0.552122 4.12421 0
M  V30 10494 H 971.792 0.28575 5.48156 0
M  V30 10495 H 972.053 -0.994616 4.30767 0
M  V30 10496 N 971.112 -1.45937 0.595003 0
M  V30 10497 C 972.042 -2.33198 -0.11871 0
M  V30 10498 C 973.023 -1.46083 -0.871423 0
M  V30 10499 O 974.208 -1.74879 -0.844461 0
M  V30 10500 C 971.338 -3.28576 -1.12495 0
M  V30 10501 C 970.292 -4.25229 -0.486275 0
M  V30 10502 C 969.618 -5.10204 -1.59986 0
M  V30 10503 C 970.918 -5.19019 0.584473 0
M  V30 10504 H 972.612 -2.93122 0.609886 0
M  V30 10505 H 970.158 -1.40951 0.294742 0
M  V30 10506 H 972.111 -3.88485 -1.6327 0
M  V30 10507 H 970.835 -2.66784 -1.88398 0
M  V30 10508 H 969.494 -3.666 0.000507962 0
M  V30 10509 H 969.142 -4.44789 -2.34886 0
M  V30 10510 H 968.842 -5.75669 -1.1781 0
M  V30 10511 H 970.366 -5.7298 -2.11014 0
M  V30 10512 H 971.78 -5.73073 0.161297 0
M  V30 10513 H 970.177 -5.92893 0.927256 0
M  V30 10514 H 971.247 -4.62208 1.46601 0
M  V30 10515 N 972.59 -0.333456 -1.54032 0
M  V30 10516 C 973.538 0.543414 -2.26163 0
M  V30 10517 C 974.532 1.11037 -1.27934 0
M  V30 10518 O 975.738 1.05727 -1.45677 0
M  V30 10519 H 972.113 0.19391 -0.726569 0
M  V30 10520 H 974.084 -0.0871052 -2.98273 0
M  V30 10521 C 972.833 1.68769 -3.03994 0
M  V30 10522 H 972.156 1.26069 -3.79403 0
M  V30 10523 H 973.596 2.27662 -3.57695 0
M  V30 10524 C 972.055 2.61117 -2.12884 0
M  V30 10525 O 972.585 3.63097 -1.71823 0
M  V30 10526 N 970.791 2.29573 -1.7817 0
M  V30 10527 H 970.338 1.46684 -2.11759 0
M  V30 10528 H 970.296 2.91622 -1.1749 0
M  V30 10529 N 974.068 1.57479 -0.061844 0
M  V30 10530 C 975.293 1.97843 0.622311 0
M  V30 10531 C 975.718 0.939602 1.62951 0
M  V30 10532 O 975.076 -0.095958 1.81046 0
M  V30 10533 C 975.124 3.37262 1.2762 0
M  V30 10534 O 974.228 3.35943 2.39199 0
M  V30 10535 H 973.569 0.644212 0.160896 0
M  V30 10536 H 976.099 2.04165 -0.133409 0
M  V30 10537 H 976.109 3.74226 1.62539 0
M  V30 10538 H 974.784 4.12404 0.538112 0
M  V30 10539 H 973.361 3.10737 2.06148 0
M  V30 10540 N 975.546 -0.211634 1.56173 0
M  V30 10541 C 976.786 -0.941505 1.81425 0
M  V30 10542 C 977.15 -1.8113 0.636862 0
M  V30 10543 O 978.351 -2.57568 0.768907 0
M  V30 10544 C 976.622 -1.75002 3.11623 0
M  V30 10545 S 978.181 -2.53418 3.58225 0
M  V30 10546 H 974.999 -0.316088 0.636875 0
M  V30 10547 H 977.601 -0.206244 1.94409 0
M  V30 10548 H 976.305 -1.10136 3.95346 0
M  V30 10549 H 975.836 -2.5274 3.01473 0
M  V30 10550 H 977.851 -3.77234 3.22349 0
M  V30 10551 N 977.024 -1.50153 -0.478725 0
M  V30 10552 C 978.264 -1.62393 -1.24129 0
M  V30 10553 C 978.628 -0.313774 -1.89419 0
M  V30 10554 O 979.829 -0.311537 -2.66989 0
M  V30 10555 C 978.1 -2.76633 -2.26293 0
M  V30 10556 S 979.659 -3.08961 -3.11591 0
M  V30 10557 H 976.477 -0.572559 -0.421541 0
M  V30 10558 H 979.079 -1.87906 -0.539592 0
M  V30 10559 H 977.783 -3.70319 -1.76896 0
M  V30 10560 H 977.314 -2.53182 -3.01102 0
M  V30 10561 H 979.329 -2.52197 -4.2733 0
M  V30 10562 N 978.502 0.731368 -1.39602 0
M  V30 10563 C 979.432 1.85855 -1.41351 0
M  V30 10564 C 980.413 1.67839 -0.2764 0
M  V30 10565 O 981.598 1.88104 -0.482747 0
M  V30 10566 C 978.728 3.23644 -1.25983 0
M  V30 10567 C 977.682 3.56304 -2.37132 0
M  V30 10568 C 977.008 4.93069 -2.0685 0
M  V30 10569 C 978.308 3.58906 -3.79452 0
M  V30 10570 H 980.002 1.84648 -2.3568 0
M  V30 10571 H 977.548 0.886955 -1.13442 0
M  V30 10572 H 979.501 4.02176 -1.25826 0
M  V30 10573 H 978.225 3.25387 -0.281234 0
M  V30 10574 H 976.884 2.80104 -2.36511 0
M  V30 10575 H 976.532 4.91396 -1.0742 0
M  V30 10576 H 976.232 5.15888 -2.81306 0
M  V30 10577 H 977.756 5.73953 -2.0835 0
M  V30 10578 H 979.17 4.27508 -3.81982 0
M  V30 10579 H 977.567 3.93246 -4.53297 0
M  V30 10580 H 978.637 2.58631 -4.10168 0
M  V30 10581 N 979.98 1.24838 0.961938 0
M  V30 10582 C 981.396 1.01502 1.23165 0
M  V30 10583 C 981.596 -0.272651 1.99647 0
M  V30 10584 O 980.652 -0.987297 2.32398 0
M  V30 10585 C 981.965 2.23366 2.01316 0
M  V30 10586 C 983.513 2.28051 2.14387 0
M  V30 10587 C 983.988 3.49552 2.95935 0
M  V30 10588 N 985.479 3.49904 3.03515 0
M  V30 10589 C 986.214 4.40577 3.66987 0
M  V30 10590 N 985.71 5.41512 4.3213 0
M  V30 10591 N 987.503 4.28275 3.64056 0
M  V30 10592 H 979.654 2.07576 0.450086 0
M  V30 10593 H 981.917 0.911205 0.261551 0
M  V30 10594 H 981.623 3.16913 1.5251 0
M  V30 10595 H 981.497 2.25949 3.02038 0
M  V30 10596 H 983.884 1.35032 2.62393 0
M  V30 10597 H 983.965 2.29491 1.12994 0
M  V30 10598 H 983.609 4.42889 2.4862 0
M  V30 10599 H 983.539 3.45357 3.97538 0
M  V30 10600 H 986.03 2.76885 2.57183 0
M  V30 10601 H 986.343 6.06924 4.78396 0
M  V30 10602 H 984.688 5.45393 4.3078 0
M  V30 10603 H 987.879 3.48653 3.12344 0
M  V30 10604 H 988.052 4.99138 4.13237 0
M  V30 10605 N 981.458 -1.16348 1.06306 0
M  V30 10606 C 982.869 -1.68491 0.80422 0
M  V30 10607 C 983.22 -1.84327 -0.672159 0
M  V30 10608 O 982.345 -1.53892 -1.52139 0
M  V30 10609 C 982.94 -3.06048 1.45328 0
M  V30 10610 C 981.499 -3.55311 1.24221 0
M  V30 10611 C 980.646 -2.31291 1.5297 0
M  V30 10612 H 983.597 -1.00708 1.22652 0
M  V30 10613 H 983.618 -3.70451 0.868674 0
M  V30 10614 H 983.13 -2.9449 2.52779 0
M  V30 10615 H 981.231 -3.72128 0.187447 0
M  V30 10616 H 981.344 -4.37397 1.95502 0
M  V30 10617 H 979.708 -2.3631 0.950241 0
M  V30 10618 H 980.491 -2.22331 2.6158 0
M  V30 10619 N 982.937 -0.845659 -1.3299 0
M  V30 10620 C 984.214 -0.366306 -1.92139 0
M  V30 10621 C 984.594 1.14912 -1.77083 0
M  V30 10622 O 983.942 1.96667 -1.16338 0
M  V30 10623 C 984.152 -0.820716 -3.39213 0
M  V30 10624 C 985.5 -0.832667 -4.16355 0
M  V30 10625 O 986.524 -0.764764 -3.47893 0
M  V30 10626 O 985.383 -0.926658 -5.38586 0
M  V30 10627 H 982.477 -0.105063 -0.820299 0
M  V30 10628 H 985.023 -0.931962 -1.41819 0
M  V30 10629 H 983.795 -1.86357 -3.44074 0
M  V30 10630 H 983.418 -0.232009 -3.96923 0
M  V30 10631 N 984.415 1.45619 -0.602734 0
M  V30 10632 C 985.345 2.33258 0.106342 0
M  V30 10633 C 986.326 1.46543 0.863664 0
M  V30 10634 O 987.511 1.75324 0.835175 0
M  V30 10635 C 984.641 3.29168 1.10751 0
M  V30 10636 C 983.595 4.25481 0.463717 0
M  V30 10637 C 982.921 5.11046 1.57278 0
M  V30 10638 C 984.221 5.18702 -0.61199 0
M  V30 10639 H 985.915 2.92795 -0.625423 0
M  V30 10640 H 983.461 1.40793 -0.302213 0
M  V30 10641 H 985.414 3.89346 1.61208 0
M  V30 10642 H 984.138 2.6778 1.8698 0
M  V30 10643 H 982.797 3.66595 -0.0199496 0
M  V30 10644 H 982.445 4.46029 2.32524 0
M  V30 10645 H 982.145 5.76286 1.14755 0
M  V30 10646 H 983.669 5.74091 2.07972 0
M  V30 10647 H 985.083 5.72979 -0.191686 0
M  V30 10648 H 983.48 5.92393 -0.958686 0
M  V30 10649 H 984.55 4.61424 -1.4905 0
M  V30 10650 N 985.893 0.34162 1.53853 0
M  V30 10651 C 986.856 -0.503541 2.236 0
M  V30 10652 C 987.856 -1.02912 1.23554 0
M  V30 10653 O 989.046 -0.918678 1.48007 0
M  V30 10654 C 986.178 -1.70126 2.95415 0
M  V30 10655 H 987.371 0.106437 2.99711 0
M  V30 10656 H 984.924 0.0929408 1.56023 0
M  V30 10657 H 985.659 -2.34999 2.23486 0
M  V30 10658 H 985.444 -1.33161 3.68796 0
M  V30 10659 H 986.934 -2.30077 3.48503 0
M  V30 10660 N 987.371 -1.57444 0.0701946 0
M  V30 10661 C 988.62 -1.92605 -0.598849 0
M  V30 10662 C 988.933 -0.952058 -1.70866 0
M  V30 10663 O 990.139 -1.19643 -2.43716 0
M  V30 10664 C 988.595 -3.42142 -1.11655 0
M  V30 10665 C 988.203 -4.47984 -0.0378355 0
M  V30 10666 C 989.947 -3.86307 -1.75975 0
M  V30 10667 C 987.854 -5.88652 -0.569495 0
M  V30 10668 H 986.784 -0.718873 -0.22746 0
M  V30 10669 H 989.435 -1.82948 0.14217 0
M  V30 10670 H 987.817 -3.46866 -1.91049 0
M  V30 10671 H 988.991 -4.54874 0.736661 0
M  V30 10672 H 987.306 -4.13277 0.50904 0
M  V30 10673 H 989.903 -4.88784 -2.16782 0
M  V30 10674 H 990.246 -3.23587 -2.61911 0
M  V30 10675 H 990.779 -3.84179 -1.03206 0
M  V30 10676 H 987.518 -6.55013 0.252662 0
M  V30 10677 H 987.038 -5.85285 -1.31155 0
M  V30 10678 H 988.717 -6.38482 -1.04641 0
M  V30 10679 N 988.849 0.203349 -1.56283 0
M  V30 10680 C 989.779 1.2549 -1.96912 0
M  V30 10681 C 990.76 1.47919 -0.839884 0
M  V30 10682 O 991.945 1.59795 -1.10359 0
M  V30 10683 C 989.075 2.6009 -2.30153 0
M  V30 10684 C 988.029 2.52289 -3.45738 0
M  V30 10685 C 987.355 3.91086 -3.64632 0
M  V30 10686 C 988.655 2.05503 -4.80173 0
M  V30 10687 H 990.349 0.917306 -2.85002 0
M  V30 10688 H 987.895 0.439818 -1.37119 0
M  V30 10689 H 989.848 3.33829 -2.5717 0
M  V30 10690 H 988.572 2.95574 -1.38937 0
M  V30 10691 H 987.231 1.81006 -3.18798 0
M  V30 10692 H 986.879 4.23908 -2.7076 0
M  V30 10693 H 986.579 3.86742 -4.42385 0
M  V30 10694 H 988.103 4.66459 -3.94016 0
M  V30 10695 H 989.517 2.68995 -5.06275 0
M  V30 10696 H 987.914 2.1218 -5.61337 0
M  V30 10697 H 988.984 1.00793 -4.74309 0
M  V30 10698 N 990.327 1.50405 0.470755 0
M  V30 10699 C 991.738 1.54266 1.05162 0
M  V30 10700 C 992.089 0.346359 1.93119 0
M  V30 10701 O 991.214 -0.540699 2.09536 0
M  V30 10702 C 991.809 2.7956 1.91394 0
M  V30 10703 C 990.368 2.86101 2.44588 0
M  V30 10704 C 989.515 2.48557 1.22941 0
M  V30 10705 H 992.466 1.56665 0.253359 0
M  V30 10706 H 992.487 2.61434 2.76464 0
M  V30 10707 H 991.999 3.66611 1.27351 0
M  V30 10708 H 990.1 2.03403 3.12183 0
M  V30 10709 H 990.213 3.88999 2.79672 0
M  V30 10710 H 988.577 2.01003 1.56429 0
M  V30 10711 H 989.36 3.37916 0.605598 0
M  V30 10712 N 991.805 -0.723954 1.39988 0
M  V30 10713 C 993.03 -1.5182 1.41299 0
M  V30 10714 C 993.455 -1.88096 0.0122636 0
M  V30 10715 O 992.813 -1.52687 -0.977559 0
M  V30 10716 C 992.861 -2.77532 2.30235 0
M  V30 10717 O 991.965 -3.73903 1.73984 0
M  V30 10718 H 991.306 -0.458058 0.480707 0
M  V30 10719 H 993.836 -0.892291 1.84118 0
M  V30 10720 H 993.846 -3.2615 2.45132 0
M  V30 10721 H 992.521 -2.50462 3.32026 0
M  V30 10722 H 991.098 -3.32715 1.68389 0
M  V30 10723 N 993.283 -1.25346 -0.955304 0
M  V30 10724 C 994.508 -1.12892 -1.73983 0
M  V30 10725 C 994.933 0.313455 -1.8547 0
M  V30 10726 O 994.291 1.22706 -1.33465 0
M  V30 10727 C 994.339 -1.78729 -3.1319 0
M  V30 10728 O 993.443 -1.06648 -3.98372 0
M  V30 10729 H 992.784 -0.394178 -0.534341 0
M  V30 10730 H 995.314 -1.65897 -1.19747 0
M  V30 10731 H 995.324 -1.84987 -3.63653 0
M  V30 10732 H 993.999 -2.83669 -3.04146 0
M  V30 10733 H 992.576 -1.08266 -3.56837 0
M  V30 10734 N 994.761 1.15782 -1.06922 0
M  V30 10735 C 996.038 1.8253 -0.703 0
M  V30 10736 C 996.418 1.94733 0.814994 0
M  V30 10737 O 995.766 1.49537 1.72774 0
M  V30 10738 C 995.976 3.19145 -1.41234 0
M  V30 10739 C 997.324 3.94839 -1.56164 0
M  V30 10740 O 998.348 3.28685 -1.37277 0
M  V30 10741 O 997.207 5.13436 -1.87205 0
M  V30 10742 H 994.301 0.788425 -0.24963 0
M  V30 10743 H 996.847 1.22931 -1.16988 0
M  V30 10744 H 995.619 3.05336 -2.44715 0
M  V30 10745 H 995.242 3.86427 -0.935959 0
M  V30 10746 N 996.239 0.8527 1.3254 0
M  V30 10747 C 997.169 0.311234 2.31416 0
M  V30 10748 C 998.15 -0.588557 1.59593 0
M  V30 10749 O 999.335 -0.509211 1.87405 0
M  V30 10750 C 996.465 -0.502892 3.4364 0
M  V30 10751 C 995.419 0.302296 4.26931 0
M  V30 10752 C 994.745 -0.636445 5.30899 0
M  V30 10753 C 996.045 1.52697 4.99481 0
M  V30 10754 H 997.739 1.13742 2.76953 0
M  V30 10755 H 995.285 0.548389 1.33149 0
M  V30 10756 H 997.238 -0.892092 4.11849 0
M  V30 10757 H 995.962 -1.36242 2.96826 0
M  V30 10758 H 994.621 0.673226 3.60365 0
M  V30 10759 H 994.269 -1.49277 4.80339 0
M  V30 10760 H 993.969 -0.101716 5.87512 0
M  V30 10761 H 995.493 -1.02286 6.01972 0
M  V30 10762 H 996.907 1.21017 5.60382 0
M  V30 10763 H 995.304 1.9995 5.65809 0
M  V30 10764 H 996.374 2.28929 4.27457 0
M  V30 10765 N 997.718 -1.45297 0.610449 0
M  V30 10766 C 998.946 -2.0659 0.113211 0
M  V30 10767 C 999.361 -1.4546 -1.20361 0
M  V30 10768 O 998.718 -0.569823 -1.73376 0
M  V30 10769 C 998.769 -3.61488 -0.0298411 0
M  V30 10770 O 998.49 -4.20336 1.23488 0
M  V30 10771 C 999.991 -4.39772 -0.558202 0
M  V30 10772 H 997.211 -0.667322 0.0701555 0
M  V30 10773 H 999.755 -1.86497 0.838993 0
M  V30 10774 H 997.91 -3.80913 -0.705963 0
M  V30 10775 H 998.324 -5.13545 1.0664 0
M  V30 10776 H 999.798 -5.48648 -0.607375 0
M  V30 10777 H 1000.27 -4.09755 -1.58107 0
M  V30 10778 H 1000.88 -4.25217 0.0839704 0
M  V30 10779 N 999.196 -0.349774 -1.5367 0
M  V30 10780 C 1000.11 0.512421 -2.28935 0
M  V30 10781 C 1001.12 1.1065 -1.34286 0
M  V30 10782 O 1002.3 1.12084 -1.67329 0
M  V30 10783 C 999.363 1.64449 -3.05217 0
M  V30 10784 C 998.424 1.07956 -4.15505 0
M  V30 10785 C 997.657 2.15768 -4.88139 0
M  V30 10786 O 997.88 3.366 -4.60496 0
M  V30 10787 O 996.814 1.79712 -5.74445 0
M  V30 10788 H 1000.64 -0.0996001 -3.03537 0
M  V30 10789 H 998.225 -0.114629 -1.4896 0
M  V30 10790 H 1000.11 2.30302 -3.52901 0
M  V30 10791 H 998.782 2.24221 -2.33467 0
M  V30 10792 H 997.689 0.385381 -3.7211 0
M  V30 10793 H 999.022 0.526621 -4.89375 0
M  V30 10794 N 1000.67 1.57404 -0.0785433 0
M  V30 10795 C 1001.92 1.9292 0.588626 0
M  V30 10796 C 1002.24 0.961106 1.70359 0
M  V30 10797 O 1003.44 1.20934 2.43079 0
M  V30 10798 C 1001.9 3.42729 1.09839 0
M  V30 10799 C 1001.51 4.47998 0.0140773 0
M  V30 10800 C 1003.25 3.87235 1.73924 0
M  V30 10801 C 1001.16 5.88945 0.538269 0
M  V30 10802 H 1000.09 0.720069 0.223645 0
M  V30 10803 H 1002.74 1.8287 -0.15187 0
M  V30 10804 H 1001.12 3.47875 1.89207 0
M  V30 10805 H 1002.29 4.54476 -0.760773 0
M  V30 10806 H 1000.61 4.13001 -0.53095 0
M  V30 10807 H 1003.21 4.89927 2.14186 0
M  V30 10808 H 1003.55 3.24971 2.60191 0
M  V30 10809 H 1004.08 3.84721 1.01168 0
M  V30 10810 H 1000.82 6.5487 -0.287395 0
M  V30 10811 H 1000.34 5.85972 1.28049 0
M  V30 10812 H 1002.02 6.39028 1.01253 0
M  V30 10813 N 1002.15 -0.195058 1.56388 0
M  V30 10814 C 1003.4 -0.913636 1.8027 0
M  V30 10815 C 1003.72 -1.83791 0.651606 0
M  V30 10816 O 1002.99 -1.931 -0.330057 0
M  V30 10817 H 1001.57 -0.34036 0.664954 0
M  V30 10818 H 1004.23 -0.200559 1.93865 0
M  V30 10819 H 1003.33 -1.50473 2.7343 0
M  V30 10820 N 1003.63 -1.50653 -0.462772 0
M  V30 10821 C 1004.54 -1.72923 -1.58539 0
M  V30 10822 C 1005.56 -0.612577 -1.6286 0
M  V30 10823 O 1006.73 -0.891885 -1.80575 0
M  V30 10824 C 1003.8 -1.82623 -2.94703 0
M  V30 10825 C 1002.86 -3.06392 -3.00704 0
M  V30 10826 C 1002.09 -3.15618 -4.30373 0
M  V30 10827 O 1002.31 -2.31423 -5.21344 0
M  V30 10828 O 1001.25 -4.0841 -4.42136 0
M  V30 10829 H 1005.07 -2.68103 -1.42669 0
M  V30 10830 H 1002.66 -1.34848 -0.643144 0
M  V30 10831 H 1004.54 -1.91134 -3.7556 0
M  V30 10832 H 1003.22 -0.906275 -3.10754 0
M  V30 10833 H 1002.12 -3.03375 -2.18894 0
M  V30 10834 H 1003.46 -3.97992 -2.89591 0
M  V30 10835 N 1005.11 0.71652 -1.4037 0
M  V30 10836 C 1006.52 1.02447 -1.22379 0
M  V30 10837 C 1006.72 2.0126 -0.0983394 0
M  V30 10838 O 1005.78 2.46569 0.544071 0
M  V30 10839 C 1007.09 1.56909 -2.56515 0
M  V30 10840 C 1008.64 1.68898 -2.6352 0
M  V30 10841 C 1009.12 2.26765 -3.97922 0
M  V30 10842 N 1010.61 2.34152 -3.99658 0
M  V30 10843 C 1011.34 2.79907 -5.00439 0
M  V30 10844 N 1010.84 3.25422 -6.11615 0
M  V30 10845 N 1012.63 2.79283 -4.87809 0
M  V30 10846 H 1004.78 0.0615306 -2.12311 0
M  V30 10847 H 1007.05 0.0898994 -0.943728 0
M  V30 10848 H 1006.75 0.917649 -3.39517 0
M  V30 10849 H 1006.63 2.55446 -2.77538 0
M  V30 10850 H 1009.01 2.33159 -1.8089 0
M  V30 10851 H 1009.09 0.689626 -2.46329 0
M  V30 10852 H 1008.74 1.63126 -4.80991 0
M  V30 10853 H 1008.67 3.27413 -4.12442 0
M  V30 10854 H 1011.16 2.02006 -3.19378 0
M  V30 10855 H 1011.47 3.58899 -6.84406 0
M  V30 10856 H 1009.82 3.23383 -6.15181 0
M  V30 10857 H 1013.01 2.43061 -4.00049 0
M  V30 10858 H 1013.18 3.14626 -5.66493 0
M  V30 10859 N 1006.59 1.25851 0.948643 0
M  V30 10860 C 1007.83 1.10735 1.69062 0
M  V30 10861 C 1008.16 -0.351257 1.9181 0
M  V30 10862 O 1007.43 -1.24867 1.50947 0
M  V30 10863 H 1006.01 0.406796 0.626519 0
M  V30 10864 H 1008.67 1.58066 1.14022 0
M  V30 10865 H 1007.76 1.62033 2.66743 0
M  V30 10866 N 1008.06 -1.15214 1.07534 0
M  V30 10867 C 1009.03 -2.18209 0.701237 0
M  V30 10868 C 1010.03 -1.58693 -0.25946 0
M  V30 10869 O 1011.22 -1.74154 -0.0401744 0
M  V30 10870 C 1008.35 -3.40883 0.0338703 0
M  V30 10871 H 1009.54 -2.5282 1.61314 0
M  V30 10872 H 1007.1 -1.29707 0.872105 0
M  V30 10873 H 1007.83 -3.11843 -0.890187 0
M  V30 10874 H 1007.62 -3.85342 0.72486 0
M  V30 10875 H 1009.11 -4.17056 -0.213152 0
M  V30 10876 N 1009.54 -0.859717 -1.32086 0
M  V30 10877 C 1010.49 -0.296897 -2.30697 0
M  V30 10878 C 1011.48 0.582473 -1.59071 0
M  V30 10879 O 1012.69 0.469713 -1.73763 0
M  V30 10880 H 1009.07 -0.0773132 -0.748015 0
M  V30 10881 H 1011.04 -1.14273 -2.75652 0
M  V30 10882 C 1009.79 0.495546 -3.44151 0
M  V30 10883 H 1009.11 -0.171829 -3.99431 0
M  V30 10884 H 1010.55 0.854854 -4.15293 0
M  V30 10885 C 1009.01 1.68278 -2.91863 0
M  V30 10886 O 1009.54 2.78194 -2.89777 0
M  V30 10887 N 1007.74 1.51151 -2.48197 0
M  V30 10888 H 1007.29 0.617345 -2.50093 0
M  V30 10889 H 1007.25 2.3073 -2.13567 0
M  V30 10890 N 1011.02 1.44971 -0.618145 0
M  V30 10891 C 1011.95 2.33357 0.0815955 0
M  V30 10892 C 1012.93 1.47451 0.848072 0
M  V30 10893 O 1014.12 1.762 0.816532 0
M  V30 10894 C 1011.25 3.30324 1.07253 0
M  V30 10895 C 1010.2 4.25948 0.418563 0
M  V30 10896 C 1009.53 5.12685 1.51849 0
M  V30 10897 C 1010.83 5.18024 -0.66697 0
M  V30 10898 H 1012.52 2.92115 -0.656442 0
M  V30 10899 H 1010.07 1.40465 -0.317129 0
M  V30 10900 H 1012.02 3.91033 1.57069 0
M  V30 10901 H 1010.74 2.69748 1.8413 0
M  V30 10902 H 1009.4 3.66553 -0.0588308 0
M  V30 10903 H 1009.05 4.4847 2.2778 0
M  V30 10904 H 1008.75 5.7747 1.08637 0
M  V30 10905 H 1010.27 5.76264 2.01871 0
M  V30 10906 H 1011.69 5.72744 -0.252448 0
M  V30 10907 H 1010.09 5.91343 -1.02146 0
M  V30 10908 H 1011.16 4.59817 -1.53936 0
M  V30 10909 N 1012.5 0.357919 1.53482 0
M  V30 10910 C 1013.72 -0.237769 2.06033 0
M  V30 10911 C 1014.15 -1.42292 1.23023 0
M  V30 10912 O 1013.51 -1.79604 0.247427 0
M  V30 10913 C 1013.55 -0.616806 3.55286 0
M  V30 10914 O 1012.66 -1.71503 3.75047 0
M  V30 10915 H 1012 -0.0364322 0.663 0
M  V30 10916 H 1014.53 0.516301 1.97979 0
M  V30 10917 H 1014.54 -0.88996 3.98175 0
M  V30 10918 H 1013.21 0.249825 4.15149 0
M  V30 10919 H 1011.79 -1.43803 3.44057 0
M  V30 10920 N 1013.98 -1.5736 0.0868897 0
M  V30 10921 C 1015.22 -1.9367 -0.577598 0
M  V30 10922 C 1015.55 -0.968844 -1.69229 0
M  V30 10923 O 1014.82 -0.0195061 -1.9589 0
M  V30 10924 H 1013.4 -0.714983 -0.216353 0
M  V30 10925 H 1016.06 -1.94335 0.148294 0
M  V30 10926 H 1015.15 -2.95877 -0.993128 0
M  V30 10927 N 1015.45 0.186762 -1.56489 0
M  V30 10928 C 1016.7 0.904063 -1.80752 0
M  V30 10929 C 1017.02 1.83443 -0.661343 0
M  V30 10930 O 1016.29 1.93272 0.319811 0
M  V30 10931 H 1014.87 0.336828 -0.66675 0
M  V30 10932 H 1017.54 0.190275 -1.93969 0
M  V30 10933 H 1016.63 1.49021 -2.74225 0
M  V30 10934 N 1016.93 1.50896 0.454776 0
M  V30 10935 C 1017.86 1.6712 1.56855 0
M  V30 10936 C 1018.88 0.552223 1.53148 0
M  V30 10937 O 1020.07 0.825969 1.5824 0
M  V30 10938 C 1017.17 1.65464 2.95762 0
M  V30 10939 C 1016.34 2.93662 3.24163 0
M  V30 10940 C 1015.4 2.84428 4.42704 0
M  V30 10941 O 1014.42 3.58382 4.42211 0
M  V30 10942 N 1015.63 1.9909 5.45292 0
M  V30 10943 H 1018.39 2.63194 1.43349 0
M  V30 10944 H 1015.95 1.48564 0.643457 0
M  V30 10945 H 1017.94 1.56878 3.73057 0
M  V30 10946 H 1016.51 0.770568 3.02954 0
M  V30 10947 H 1015.73 3.16251 2.35328 0
M  V30 10948 H 1017.02 3.78558 3.39957 0
M  V30 10949 H 1016.42 1.3835 5.48521 0
M  V30 10950 H 1014.98 1.96396 6.21508 0
M  V30 10951 N 1018.41 -0.709066 1.40748 0
M  V30 10952 C 1019.83 -1.01797 1.22921 0
M  V30 10953 C 1020.03 -2.01205 0.109011 0
M  V30 10954 O 1019.08 -2.46854 -0.530987 0
M  V30 10955 C 1020.4 -1.55546 2.57344 0
M  V30 10956 C 1021.94 -1.67498 2.64412 0
M  V30 10957 C 1022.42 -2.24652 3.99119 0
M  V30 10958 N 1023.91 -2.3203 4.00895 0
M  V30 10959 C 1024.64 -2.7725 5.01917 0
M  V30 10960 N 1024.14 -3.22174 6.13332 0
M  V30 10961 N 1025.93 -2.76692 4.89283 0
M  V30 10962 H 1018.08 -0.0502704 2.12341 0
M  V30 10963 H 1020.35 -0.0848933 0.944191 0
M  V30 10964 H 1020.05 -0.899631 3.39999 0
M  V30 10965 H 1019.93 -2.53971 2.78888 0
M  V30 10966 H 1022.31 -2.32196 1.82123 0
M  V30 10967 H 1022.4 -0.676553 2.46691 0
M  V30 10968 H 1022.04 -1.60573 4.81849 0
M  V30 10969 H 1021.97 -3.25221 4.14173 0
M  V30 10970 H 1024.46 -2.00309 3.20444 0
M  V30 10971 H 1024.77 -3.55265 6.86299 0
M  V30 10972 H 1023.12 -3.20116 6.16888 0
M  V30 10973 H 1026.31 -2.40936 4.01332 0
M  V30 10974 H 1026.48 -3.11617 5.68154 0
M  V30 10975 N 1019.89 -1.26353 -0.941956 0
M  V30 10976 C 1020.82 -1.03634 -2.04432 0
M  V30 10977 C 1021.83 0.00295864 -1.628 0
M  V30 10978 O 1023.02 -0.237029 -1.76919 0
M  V30 10979 C 1020.12 -0.547231 -3.34453 0
M  V30 10980 C 1019.3 -1.65559 -4.04857 0
M  V30 10981 C 1018.36 -1.16466 -5.13149 0
M  V30 10982 O 1017.38 -1.86158 -5.37898 0
M  V30 10983 N 1018.58 -0.0126703 -5.80499 0
M  V30 10984 H 1021.35 -1.98558 -2.24488 0
M  V30 10985 H 1018.91 -1.17728 -1.11138 0
M  V30 10986 H 1020.9 -0.203004 -4.04191 0
M  V30 10987 H 1019.47 0.308401 -3.11075 0
M  V30 10988 H 1018.69 -2.17079 -3.29044 0
M  V30 10989 H 1019.98 -2.39985 -4.48647 0
M  V30 10990 H 1019.38 0.569358 -5.62828 0
M  V30 10991 H 1017.93 0.272486 -6.5123 0
M  V30 10992 N 1021.37 1.14642 -1.08144 0
M  V30 10993 C 1022.78 1.37604 -0.808537 0
M  V30 10994 C 1022.98 1.92868 0.583452 0
M  V30 10995 O 1022.04 2.13964 1.34073 0
M  V30 10996 C 1023.35 2.3396 -1.889 0
M  V30 10997 C 1024.9 2.47605 -1.9147 0
M  V30 10998 C 1025.38 3.47258 -2.98623 0
M  V30 10999 N 1026.87 3.548 -2.97777 0
M  V30 11000 C 1027.6 4.31751 -3.77331 0
M  V30 11001 N 1027.1 5.11966 -4.66757 0
M  V30 11002 N 1028.89 4.2692 -3.65645 0
M  V30 11003 H 1021.04 0.771154 -1.97906 0
M  V30 11004 H 1023.3 0.401694 -0.858688 0
M  V30 11005 H 1023.01 2.00484 -2.88962 0
M  V30 11006 H 1022.88 3.33833 -1.756 0
M  V30 11007 H 1025.27 2.80375 -0.920548 0
M  V30 11008 H 1025.35 1.47702 -2.08848 0
M  V30 11009 H 1025 3.15223 -3.98243 0
M  V30 11010 H 1024.93 4.46935 -2.7849 0
M  V30 11011 H 1027.42 2.97553 -2.3296 0
M  V30 11012 H 1027.73 5.67951 -5.24072 0
M  V30 11013 H 1026.08 5.11245 -4.70801 0
M  V30 11014 H 1029.27 3.63322 -2.95152 0
M  V30 11015 H 1029.44 4.8664 -4.27885 0
M  V30 11016 N 1022.85 0.866709 1.31628 0
M  V30 11017 C 1024.09 0.472185 1.96095 0
M  V30 11018 C 1024.41 -0.979873 1.69286 0
M  V30 11019 O 1025.61 -1.48039 2.27589 0
M  V30 11020 C 1024.07 0.793468 3.51044 0
M  V30 11021 C 1023.68 2.26206 3.86697 0
M  V30 11022 C 1025.42 0.467255 4.21921 0
M  V30 11023 C 1023.33 2.52593 5.34743 0
M  V30 11024 H 1022.26 0.172846 0.733921 0
M  V30 11025 H 1024.91 1.05916 1.49847 0
M  V30 11026 H 1023.29 0.135783 3.95767 0
M  V30 11027 H 1024.47 2.96254 3.52945 0
M  V30 11028 H 1022.78 2.55399 3.28877 0
M  V30 11029 H 1025.38 0.641669 5.30836 0
M  V30 11030 H 1025.72 -0.592065 4.12068 0
M  V30 11031 H 1026.25 1.08134 3.82821 0
M  V30 11032 H 1022.99 3.57196 5.49628 0
M  V30 11033 H 1022.51 1.87136 5.6986 0
M  V30 11034 H 1024.19 2.37156 6.01968 0
M  V30 11035 N 1024.32 -1.44642 0.625825 0
M  V30 11036 C 1025.55 -2.06971 0.133373 0
M  V30 11037 C 1025.97 -1.46421 -1.18078 0
M  V30 11038 O 1025.33 -0.563676 -1.72315 0
M  V30 11039 C 1025.38 -3.6059 0.0265097 0
M  V30 11040 O 1024.48 -3.99615 -1.01889 0
M  V30 11041 H 1023.82 -0.658873 0.0823568 0
M  V30 11042 H 1026.35 -1.85601 0.861002 0
M  V30 11043 H 1026.36 -4.07663 -0.1658 0
M  V30 11044 H 1025.04 -4.04043 0.985986 0
M  V30 11045 H 1023.62 -3.64183 -0.801577 0
M  V30 11046 N 1025.8 -0.366053 -1.5329 0
M  V30 11047 C 1026.73 0.47211 -2.28677 0
M  V30 11048 C 1027.71 1.08353 -1.31125 0
M  V30 11049 O 1028.9 1.10069 -1.59995 0
M  V30 11050 C 1026.03 1.61174 -3.07637 0
M  V30 11051 C 1024.98 1.12755 -4.12881 0
M  V30 11052 C 1024.31 2.35745 -4.79925 0
M  V30 11053 C 1025.61 0.211954 -5.2187 0
M  V30 11054 H 1027.3 -0.156838 -2.98989 0
M  V30 11055 H 1024.85 -0.0768709 -1.43795 0
M  V30 11056 H 1026.8 2.20473 -3.59123 0
M  V30 11057 H 1025.52 2.26793 -2.35016 0
M  V30 11058 H 1024.18 0.557234 -3.6234 0
M  V30 11059 H 1023.83 2.99821 -4.03877 0
M  V30 11060 H 1023.53 2.04019 -5.51044 0
M  V30 11061 H 1025.06 2.95729 -5.34207 0
M  V30 11062 H 1026.47 0.71244 -5.68856 0
M  V30 11063 H 1024.87 -0.0144501 -6.00098 0
M  V30 11064 H 1025.94 -0.745753 -4.79131 0
M  V30 11065 N 1027.28 1.57312 -0.0952337 0
M  V30 11066 C 1028.24 2.12889 0.849161 0
M  V30 11067 C 1029.24 1.05819 1.21075 0
M  V30 11068 O 1030.43 1.31704 1.14016 0
M  V30 11069 C 1027.56 2.6496 2.14498 0
M  V30 11070 H 1028.76 2.97651 0.366566 0
M  V30 11071 H 1026.31 1.55542 0.153762 0
M  V30 11072 H 1027.05 1.83718 2.67242 0
M  V30 11073 H 1026.83 3.43244 1.89542 0
M  V30 11074 H 1028.32 3.07952 2.82056 0
M  V30 11075 N 1028.76 -0.17846 1.56586 0
M  V30 11076 C 1030.17 -0.529957 1.50544 0
M  V30 11077 C 1030.37 -1.85015 0.798237 0
M  V30 11078 O 1029.43 -2.49983 0.355639 0
M  V30 11079 C 1030.74 -0.569314 2.95261 0
M  V30 11080 C 1032.29 -0.657008 3.06027 0
M  V30 11081 C 1032.77 -0.727323 4.52188 0
M  V30 11082 N 1034.26 -0.790406 4.56406 0
M  V30 11083 C 1034.99 -0.865265 5.66834 0
M  V30 11084 N 1034.49 -0.901398 6.86911 0
M  V30 11085 N 1036.28 -0.903736 5.54787 0
M  V30 11086 H 1028.43 0.687304 2.00972 0
M  V30 11087 H 1030.69 0.246936 0.915274 0
M  V30 11088 H 1030.4 0.331934 3.5013 0
M  V30 11089 H 1030.27 -1.41828 3.4952 0
M  V30 11090 H 1032.66 -1.54868 2.51197 0
M  V30 11091 H 1032.74 0.218495 2.54865 0
M  V30 11092 H 1032.39 0.160067 5.07648 0
M  V30 11093 H 1032.32 -1.61887 5.01099 0
M  V30 11094 H 1034.81 -0.771054 3.6995 0
M  V30 11095 H 1035.12 -0.959494 7.6682 0
M  V30 11096 H 1033.47 -0.869795 6.89536 0
M  V30 11097 H 1036.66 -0.872459 4.59898 0
M  V30 11098 H 1036.83 -0.958615 6.4087 0
M  V30 11099 N 1030.24 -1.51135 -0.446768 0
M  V30 11100 C 1031.2 -1.71187 -1.52406 0
M  V30 11101 C 1032.2 -0.582037 -1.49897 0
M  V30 11102 O 1033.39 -0.849452 -1.52085 0
M  V30 11103 C 1030.52 -1.75962 -2.91976 0
M  V30 11104 H 1031.71 -2.67324 -1.35934 0
M  V30 11105 H 1029.27 -1.40982 -0.674813 0
M  V30 11106 H 1030 -0.816065 -3.13864 0
M  V30 11107 H 1029.79 -2.58065 -2.95203 0
M  V30 11108 H 1031.28 -1.93347 -3.70144 0
M  V30 11109 N 1031.71 0.701592 -1.41122 0
M  V30 11110 C 1032.64 1.82815 -1.45262 0
M  V30 11111 C 1033.62 1.67215 -0.311939 0
M  V30 11112 O 1034.81 1.87038 -0.522538 0
M  V30 11113 C 1031.94 3.20899 -1.32819 0
M  V30 11114 C 1030.89 3.51194 -2.44636 0
M  V30 11115 C 1030.22 4.8857 -2.17263 0
M  V30 11116 C 1031.52 3.50777 -3.86979 0
M  V30 11117 H 1033.21 1.79608 -2.39544 0
M  V30 11118 H 1030.76 0.862693 -1.15298 0
M  V30 11119 H 1032.71 3.99417 -1.34329 0
M  V30 11120 H 1031.44 3.24717 -0.350191 0
M  V30 11121 H 1030.1 2.75024 -2.42399 0
M  V30 11122 H 1029.74 4.89007 -1.17819 0
M  V30 11123 H 1029.44 5.09805 -2.92186 0
M  V30 11124 H 1030.97 5.69405 -2.20478 0
M  V30 11125 H 1032.38 4.19309 -3.90964 0
M  V30 11126 H 1030.78 3.83542 -4.61536 0
M  V30 11127 H 1031.85 2.49873 -4.15562 0
M  V30 11128 N 1033.19 1.2685 0.935242 0
M  V30 11129 C 1034.42 1.15371 1.71386 0
M  V30 11130 C 1034.83 -0.293048 1.86917 0
M  V30 11131 O 1034.17 -1.212 1.38044 0
M  V30 11132 C 1034.23 1.75652 3.13666 0
M  V30 11133 C 1033.9 3.24788 3.215 0
M  V30 11134 C 1034.9 4.21525 3.04323 0
M  V30 11135 C 1032.58 3.65359 3.447 0
M  V30 11136 C 1034.57 5.56812 3.10224 0
M  V30 11137 C 1032.26 5.00778 3.50235 0
M  V30 11138 C 1033.26 5.96314 3.33014 0
M  V30 11139 O 1032.95 7.29266 3.38269 0
M  V30 11140 H 1032.68 0.40234 0.54323 0
M  V30 11141 H 1035.23 1.68083 1.18056 0
M  V30 11142 H 1033.46 1.17408 3.68446 0
M  V30 11143 H 1035.15 1.58994 3.73465 0
M  V30 11144 H 1035.92 3.91519 2.86249 0
M  V30 11145 H 1031.8 2.91479 3.57157 0
M  V30 11146 H 1035.34 6.3136 2.967 0
M  V30 11147 H 1031.24 5.30444 3.67831 0
M  V30 11148 H 1032.01 7.37616 3.54774 0
M  V30 11149 N 1034.67 -1.14067 1.0875 0
M  V30 11150 C 1035.9 -1.89582 0.841038 0
M  V30 11151 C 1036.32 -1.78226 -0.601436 0
M  V30 11152 O 1035.68 -1.12491 -1.42181 0
M  V30 11153 C 1035.73 -3.37415 1.27213 0
M  V30 11154 O 1034.83 -4.10191 0.426246 0
M  V30 11155 H 1034.17 -0.589716 0.305173 0
M  V30 11156 H 1036.7 -1.44364 1.44984 0
M  V30 11157 H 1036.71 -3.88234 1.25451 0
M  V30 11158 H 1035.39 -3.44999 2.32268 0
M  V30 11159 H 1033.96 -3.69429 0.507585 0
M  V30 11160 N 1036.15 -0.873678 -1.31166 0
M  V30 11161 C 1037.43 -0.40698 -1.91319 0
M  V30 11162 C 1037.81 1.1113 -1.79481 0
M  V30 11163 O 1037.15 1.94155 -1.20483 0
M  V30 11164 C 1037.36 -0.892484 -3.37396 0
M  V30 11165 C 1038.71 -0.920795 -4.14496 0
M  V30 11166 O 1039.74 -0.838386 -3.46193 0
M  V30 11167 O 1038.59 -1.04069 -5.365 0
M  V30 11168 H 1035.69 -0.122439 -0.817886 0
M  V30 11169 H 1038.23 -0.961835 -1.3981 0
M  V30 11170 H 1037.01 -1.93613 -3.40044 0
M  V30 11171 H 1036.63 -0.31615 -3.96341 0
M  V30 11172 N 1037.63 1.44308 -0.633487 0
M  V30 11173 C 1039.04 1.56768 -0.29931 0
M  V30 11174 C 1039.24 1.62061 1.19743 0
M  V30 11175 O 1038.3 1.56492 1.98158 0
M  V30 11176 C 1039.61 2.8382 -0.993307 0
M  V30 11177 C 1041.16 2.97536 -0.971674 0
M  V30 11178 C 1041.63 4.27393 -1.64618 0
M  V30 11179 N 1043.13 4.34212 -1.61288 0
M  V30 11180 C 1043.86 5.33415 -2.1037 0
M  V30 11181 N 1043.36 6.3901 -2.67653 0
M  V30 11182 N 1045.15 5.24939 -2.00985 0
M  V30 11183 H 1037.3 1.39115 -1.60501 0
M  V30 11184 H 1039.56 0.666804 -0.673852 0
M  V30 11185 H 1039.27 2.85902 -2.04823 0
M  V30 11186 H 1039.14 3.73422 -0.532537 0
M  V30 11187 H 1041.53 2.95005 0.0747854 0
M  V30 11188 H 1041.61 2.09276 -1.47096 0
M  V30 11189 H 1041.26 4.30683 -2.6921 0
M  V30 11190 H 1041.19 5.14515 -1.12171 0
M  V30 11191 H 1043.68 3.58519 -1.19468 0
M  V30 11192 H 1043.99 7.10994 -3.02831 0
M  V30 11193 H 1042.33 6.39689 -2.71705 0
M  V30 11194 H 1045.53 4.41357 -1.55953 0
M  V30 11195 H 1045.7 6.02097 -2.39547 0
M  V30 11196 N 1039.1 0.374177 1.53094 0
M  V30 11197 C 1040.33 -0.215903 2.06273 0
M  V30 11198 C 1040.75 -1.40979 1.24526 0
M  V30 11199 O 1040.11 -1.79331 0.266462 0
M  V30 11200 C 1040.16 -0.579089 3.5592 0
M  V30 11201 O 1039.26 -1.67516 3.76845 0
M  V30 11202 H 1038.61 -0.0293981 0.663349 0
M  V30 11203 H 1041.14 0.537271 1.9742 0
M  V30 11204 H 1041.15 -0.847678 3.99097 0
M  V30 11205 H 1039.82 0.293843 4.14861 0
M  V30 11206 H 1038.4 -1.40146 3.45563 0
M  V30 11207 N 1040.58 -1.57259 0.103575 0
M  V30 11208 C 1041.83 -1.93832 -0.55786 0
M  V30 11209 C 1042.14 -0.988087 -1.68808 0
M  V30 11210 O 1043.35 -1.24786 -2.41124 0
M  V30 11211 C 1041.81 -3.44433 -1.04373 0
M  V30 11212 C 1041.41 -4.47963 0.0571971 0
M  V30 11213 C 1043.16 -3.89953 -1.67742 0
M  V30 11214 C 1041.07 -5.89727 -0.444505 0
M  V30 11215 H 1040 -0.723536 -0.212161 0
M  V30 11216 H 1042.65 -1.82606 0.180944 0
M  V30 11217 H 1041.03 -3.50841 -1.83648 0
M  V30 11218 H 1042.2 -4.53209 0.83298 0
M  V30 11219 H 1040.52 -4.12104 0.596588 0
M  V30 11220 H 1043.11 -4.93272 -2.06365 0
M  V30 11221 H 1043.46 -3.2907 -2.54988 0
M  V30 11222 H 1043.99 -3.86281 -0.950342 0
M  V30 11223 H 1040.73 -6.5433 0.391543 0
M  V30 11224 H 1040.25 -5.87935 -1.18711 0
M  V30 11225 H 1041.93 -6.40558 -0.910739 0
M  V30 11226 N 1042.06 0.170153 -1.56679 0
M  V30 11227 C 1043.29 0.900826 -1.85927 0
M  V30 11228 C 1043.7 1.76285 -0.687033 0
M  V30 11229 O 1043.04 1.80276 0.353029 0
M  V30 11230 C 1043.1 1.82723 -3.096 0
M  V30 11231 C 1042.77 1.14469 -4.42432 0
M  V30 11232 C 1043.76 0.509598 -5.17396 0
M  V30 11233 C 1041.45 1.1411 -4.89167 0
M  V30 11234 C 1043.44 -0.119976 -6.37287 0
M  V30 11235 C 1041.13 0.507703 -6.08987 0
M  V30 11236 C 1042.13 -0.121731 -6.82892 0
M  V30 11237 O 1041.82 -0.74514 -8.00439 0
M  V30 11238 H 1041.55 0.267087 -0.621 0
M  V30 11239 H 1044.1 0.17474 -2.04655 0
M  V30 11240 H 1042.33 2.59367 -2.8682 0
M  V30 11241 H 1044.02 2.42784 -3.25285 0
M  V30 11242 H 1044.79 0.504341 -4.82371 0
M  V30 11243 H 1040.67 1.62043 -4.31582 0
M  V30 11244 H 1044.21 -0.611872 -6.94911 0
M  V30 11245 H 1040.11 0.510548 -6.43478 0
M  V30 11246 H 1040.88 -0.644506 -8.15959 0
M  V30 11247 N 1043.54 1.5137 0.438746 0
M  V30 11248 C 1044.79 1.63202 1.18524 0
M  V30 11249 C 1045.1 0.353408 1.92381 0
M  V30 11250 O 1046.31 0.351086 2.6922 0
M  V30 11251 C 1044.76 2.88218 2.15542 0
M  V30 11252 C 1044.37 4.23078 1.47339 0
M  V30 11253 C 1046.11 3.09407 2.90633 0
M  V30 11254 C 1044.02 5.39246 2.42833 0
M  V30 11255 H 1042.95 0.607864 0.446114 0
M  V30 11256 H 1045.6 1.77835 0.452421 0
M  V30 11257 H 1043.98 2.67216 2.92253 0
M  V30 11258 H 1045.16 4.54457 0.761964 0
M  V30 11259 H 1043.47 4.07755 0.844065 0
M  V30 11260 H 1046.07 3.9337 3.62165 0
M  V30 11261 H 1046.41 2.22428 3.51897 0
M  V30 11262 H 1046.95 3.30743 2.21029 0
M  V30 11263 H 1043.69 6.2848 1.8626 0
M  V30 11264 H 1043.21 5.12245 3.12034 0
M  V30 11265 H 1044.88 5.71137 3.03992 0
M  V30 11266 N 1045.02 -0.694098 1.41492 0
M  V30 11267 C 1045.95 -1.82042 1.46229 0
M  V30 11268 C 1046.93 -1.67047 0.320803 0
M  V30 11269 O 1048.11 -1.86758 0.53245 0
M  V30 11270 C 1045.24 -3.2019 1.34519 0
M  V30 11271 C 1044.2 -3.49892 2.46495 0
M  V30 11272 C 1043.52 -4.87411 2.1985 0
M  V30 11273 C 1044.82 -3.4872 3.88834 0
M  V30 11274 H 1046.52 -1.78335 2.40493 0
M  V30 11275 H 1044.06 -0.856566 1.15754 0
M  V30 11276 H 1046.02 -3.98699 1.36445 0
M  V30 11277 H 1044.74 -3.24527 0.367406 0
M  V30 11278 H 1043.4 -2.73734 2.43854 0
M  V30 11279 H 1043.05 -4.88375 1.20411 0
M  V30 11280 H 1042.75 -5.08248 2.94885 0
M  V30 11281 H 1044.27 -5.68228 2.23494 0
M  V30 11282 H 1045.68 -4.1723 3.93182 0
M  V30 11283 H 1044.08 -3.81089 4.63564 0
M  V30 11284 H 1045.15 -2.47665 4.16881 0
M  V30 11285 N 1046.49 -1.27344 -0.928501 0
M  V30 11286 C 1047.77 -1.04362 -1.65433 0
M  V30 11287 C 1048.15 0.421896 -2.06841 0
M  V30 11288 O 1047.5 1.40496 -1.80203 0
M  V30 11289 C 1047.71 -2.00442 -2.85699 0
M  V30 11290 C 1049.06 -2.29767 -3.57061 0
M  V30 11291 O 1050.08 -1.98409 -2.95825 0
M  V30 11292 O 1048.94 -2.83217 -4.67387 0
M  V30 11293 H 1046.03 -0.397783 -0.72505 0
M  V30 11294 H 1048.58 -1.38606 -0.979109 0
M  V30 11295 H 1047.35 -2.99281 -2.52085 0
M  V30 11296 H 1046.98 -1.66755 -3.60941 0
M  V30 11297 N 1047.97 1.13488 -1.09353 0
M  V30 11298 C 1049.25 1.80998 -0.741559 0
M  V30 11299 C 1049.63 1.96418 0.773505 0
M  V30 11300 O 1048.98 1.53168 1.69563 0
M  V30 11301 C 1049.19 3.16078 -1.47972 0
M  V30 11302 C 1050.54 3.91438 -1.64504 0
M  V30 11303 O 1051.56 3.25699 -1.44218 0
M  V30 11304 O 1050.42 5.0935 -1.98054 0
M  V30 11305 H 1047.51 0.782953 -0.266297 0
M  V30 11306 H 1050.06 1.20422 -1.19569 0
M  V30 11307 H 1048.83 3.00076 -2.51137 0
M  V30 11308 H 1048.45 3.84354 -1.01772 0
M  V30 11309 N 1049.45 0.880621 1.30701 0
M  V30 11310 C 1050.86 0.547993 1.78477 0
M  V30 11311 C 1051.21 -0.935633 1.72454 0
M  V30 11312 O 1050.34 -1.73094 1.29874 0
M  V30 11313 C 1050.93 0.98795 3.24076 0
M  V30 11314 C 1049.49 0.706805 3.69704 0
M  V30 11315 C 1048.64 1.17335 2.51252 0
M  V30 11316 H 1051.59 1.06528 1.17633 0
M  V30 11317 H 1051.61 0.31508 3.79193 0
M  V30 11318 H 1051.12 2.06778 3.28427 0
M  V30 11319 H 1049.22 -0.36122 3.70845 0
M  V30 11320 H 1049.34 1.2913 4.6137 0
M  V30 11321 H 1047.7 0.592808 2.47705 0
M  V30 11322 H 1048.48 2.26083 2.58343 0
M  V30 11323 N 1050.93 -1.4397 0.641131 0
M  V30 11324 C 1051.86 -2.33458 -0.04446 0
M  V30 11325 C 1052.84 -1.48781 -0.824507 0
M  V30 11326 O 1054.03 -1.77477 -0.788397 0
M  V30 11327 C 1051.16 -3.31989 -1.01984 0
M  V30 11328 C 1050.11 -4.2656 -0.350745 0
M  V30 11329 C 1049.44 -5.15036 -1.43673 0
M  V30 11330 C 1050.74 -5.16897 0.749299 0
M  V30 11331 H 1052.43 -2.91034 0.702832 0
M  V30 11332 H 1049.98 -1.39942 0.339435 0
M  V30 11333 H 1051.93 -3.93483 -1.50828 0
M  V30 11334 H 1050.65 -2.72643 -1.79815 0
M  V30 11335 H 1049.31 -3.66413 0.117139 0
M  V30 11336 H 1048.96 -4.52037 -2.20617 0
M  V30 11337 H 1048.66 -5.79125 -0.994358 0
M  V30 11338 H 1050.18 -5.79403 -1.92678 0
M  V30 11339 H 1051.6 -5.7227 0.343534 0
M  V30 11340 H 1049.99 -5.89643 1.11541 0
M  V30 11341 H 1051.06 -4.5731 1.61232 0
M  V30 11342 N 1052.41 -0.382291 -1.52893 0
M  V30 11343 C 1053.63 0.204961 -2.06385 0
M  V30 11344 C 1054.06 1.40316 -1.25271 0
M  V30 11345 O 1053.42 1.79187 -0.275969 0
M  V30 11346 C 1053.46 0.560205 -3.56222 0
M  V30 11347 O 1052.57 1.65515 -3.77728 0
M  V30 11348 H 1051.91 0.0258798 -0.663495 0
M  V30 11349 H 1054.44 -0.547733 -1.97132 0
M  V30 11350 H 1054.45 0.826501 -3.99541 0
M  V30 11351 H 1053.12 -0.31584 -4.14699 0
M  V30 11352 H 1051.7 1.38311 -3.46301 0
M  V30 11353 N 1053.89 1.57202 -0.111913 0
M  V30 11354 C 1054.85 2.13778 0.826534 0
M  V30 11355 C 1055.85 1.07097 1.19945 0
M  V30 11356 O 1057.04 1.32906 1.12613 0
M  V30 11357 C 1054.17 2.6722 2.11675 0
M  V30 11358 H 1055.36 2.98023 0.334975 0
M  V30 11359 H 1052.92 1.55696 0.137256 0
M  V30 11360 H 1053.65 1.86542 2.65278 0
M  V30 11361 H 1053.44 3.45235 1.8589 0
M  V30 11362 H 1054.93 3.10926 2.78774 0
M  V30 11363 N 1055.36 -0.161842 1.56767 0
M  V30 11364 C 1056.29 -1.20226 2.0017 0
M  V30 11365 C 1057.27 -1.4564 0.878807 0
M  V30 11366 O 1058.46 -1.56813 1.14557 0
M  V30 11367 C 1055.59 -2.53897 2.36968 0
M  V30 11368 C 1054.54 -2.43033 3.52305 0
M  V30 11369 C 1053.87 -3.81281 3.74872 0
M  V30 11370 C 1055.17 -1.927 4.85453 0
M  V30 11371 H 1056.86 -0.84142 2.87333 0
M  V30 11372 H 1054.41 -0.403309 1.38237 0
M  V30 11373 H 1056.36 -3.26893 2.6593 0
M  V30 11374 H 1055.09 -2.91787 1.46724 0
M  V30 11375 H 1053.75 -1.7249 3.23485 0
M  V30 11376 H 1053.39 -4.1658 2.81904 0
M  V30 11377 H 1053.09 -3.74877 4.52483 0
M  V30 11378 H 1054.62 -4.55848 4.06245 0
M  V30 11379 H 1056.03 -2.55477 5.13229 0
M  V30 11380 H 1054.43 -1.97222 5.66766 0
M  V30 11381 H 1055.5 -0.881816 4.76814 0
M  V30 11382 N 1056.84 -1.516 -0.430713 0
M  V30 11383 C 1058.12 -1.55142 -1.19123 0
M  V30 11384 C 1058.5 -0.319596 -2.08667 0
M  V30 11385 O 1057.85 0.694927 -2.17676 0
M  V30 11386 C 1058.06 -2.86891 -1.98732 0
M  V30 11387 C 1059.4 -3.39089 -2.55546 0
M  V30 11388 O 1060.43 -2.88486 -2.08936 0
M  V30 11389 O 1059.29 -4.27401 -3.40574 0
M  V30 11390 H 1056.38 -0.624019 -0.542705 0
M  V30 11391 H 1058.93 -1.63917 -0.439244 0
M  V30 11392 H 1057.7 -3.68002 -1.33005 0
M  V30 11393 H 1057.32 -2.81309 -2.80982 0
M  V30 11394 N 1058.32 0.686584 -1.41858 0
M  V30 11395 C 1059.28 1.78214 -1.44126 0
M  V30 11396 C 1060.28 1.57366 -0.330541 0
M  V30 11397 O 1061.47 1.63874 -0.590837 0
M  V30 11398 C 1058.6 3.16704 -1.26142 0
M  V30 11399 H 1059.8 1.77594 -2.41661 0
M  V30 11400 H 1057.35 0.895085 -1.28132 0
M  V30 11401 H 1058.09 3.22957 -0.294823 0
M  V30 11402 H 1057.87 3.33238 -2.06627 0
M  V30 11403 H 1059.36 3.96658 -1.30584 0
M  V30 11404 N 1059.8 1.27835 0.921735 0
M  V30 11405 C 1060.75 1.07723 2.00947 0
M  V30 11406 C 1061.73 0.00336676 1.609 0
M  V30 11407 O 1062.92 0.222593 1.75595 0
M  V30 11408 C 1060.05 0.732732 3.35389 0
M  V30 11409 C 1059.14 1.84504 3.81863 0
M  V30 11410 N 1059.53 3.08551 4.00787 0
M  V30 11411 C 1057.83 1.73308 4.10951 0
M  V30 11412 C 1058.53 3.80974 4.39584 0
M  V30 11413 N 1057.5 3.08773 4.47393 0
M  V30 11414 H 1061.31 2.01854 2.13617 0
M  V30 11415 H 1058.82 1.18637 1.109 0
M  V30 11416 H 1060.82 0.56975 4.12988 0
M  V30 11417 H 1059.48 -0.200885 3.24078 0
M  V30 11418 H 1060.49 3.44248 3.86928 0
M  V30 11419 H 1057.17 0.870698 4.0832 0
M  V30 11420 H 1058.56 4.87617 4.62255 0
M  V30 11421 N 1061.28 -1.12907 1.09954 0
M  V30 11422 C 1062.52 -1.84579 0.840155 0
M  V30 11423 C 1062.85 -1.83605 -0.632692 0
M  V30 11424 O 1062.13 -1.27803 -1.46617 0
M  V30 11425 C 1062.41 -3.32489 1.38286 0
M  V30 11426 C 1062.27 -3.41946 2.92221 0
M  V30 11427 C 1063.58 -4.28091 1.0211 0
M  V30 11428 H 1060.7 -0.670169 0.306663 0
M  V30 11429 H 1063.35 -1.3249 1.36185 0
M  V30 11430 H 1061.5 -3.76978 0.939123 0
M  V30 11431 H 1063.17 -3.06128 3.45085 0
M  V30 11432 H 1061.41 -2.8265 3.29077 0
M  V30 11433 H 1062.08 -4.45983 3.25274 0
M  V30 11434 H 1064.56 -3.91701 1.4039 0
M  V30 11435 H 1063.43 -5.30005 1.42781 0
M  V30 11436 H 1063.69 -4.42044 -0.0700753 0
M  V30 11437 N 1062.75 -0.88754 -1.30232 0
M  V30 11438 C 1064 -0.506277 -1.95656 0
M  V30 11439 C 1064.32 0.948191 -1.70395 0
M  V30 11440 O 1063.59 1.66701 -1.02895 0
M  V30 11441 H 1062.17 -0.184235 -0.723924 0
M  V30 11442 H 1064.83 -1.13118 -1.58715 0
M  V30 11443 H 1063.93 -0.678673 -3.04632 0
M  V30 11444 N 1064.23 1.43628 -0.648757 0
M  V30 11445 C 1065.18 2.32529 0.057536 0
M  V30 11446 C 1066.17 1.48358 0.817699 0
M  V30 11447 O 1067.38 1.64595 0.728605 0
M  V30 11448 H 1063.76 0.75107 0.037388 0
M  V30 11449 H 1065.73 2.89829 -0.710062 0
M  V30 11450 C 1064.48 3.32605 1.01336 0
M  V30 11451 H 1063.8 3.97395 0.437855 0
M  V30 11452 H 1065.24 3.97453 1.47672 0
M  V30 11453 C 1063.7 2.62865 2.10722 0
M  V30 11454 O 1064.23 2.4408 3.19042 0
M  V30 11455 N 1062.43 2.22312 1.87152 0
M  V30 11456 H 1061.98 2.3779 0.990644 0
M  V30 11457 H 1061.94 1.75979 2.60536 0
M  V30 11458 N 1065.71 0.390394 1.52688 0
M  V30 11459 C 1066.66 -0.461191 2.23287 0
M  V30 11460 C 1067.64 -1.02875 1.23716 0
M  V30 11461 O 1068.84 -0.954675 1.49047 0
M  V30 11462 C 1065.97 -1.58736 3.04397 0
M  V30 11463 C 1065.05 -1.03149 4.11365 0
M  V30 11464 N 1065.44 -0.20066 5.05402 0
M  V30 11465 C 1063.74 -1.30388 4.26515 0
M  V30 11466 C 1064.44 0.106548 5.81602 0
M  V30 11467 N 1063.42 -0.497687 5.41317 0
M  V30 11468 H 1067.22 0.1801 2.93348 0
M  V30 11469 H 1064.73 0.199761 1.61167 0
M  V30 11470 H 1066.73 -2.20986 3.53512 0
M  V30 11471 H 1065.39 -2.23147 2.35872 0
M  V30 11472 H 1066.4 0.162168 5.17646 0
M  V30 11473 H 1063.08 -1.94894 3.69219 0
M  V30 11474 H 1064.47 0.779778 6.6736 0
M  V30 11475 N 1067.19 -1.57141 0.120249 0
M  V30 11476 C 1068.44 -1.94413 -0.53727 0
M  V30 11477 C 1068.75 -1.00594 -1.67751 0
M  V30 11478 O 1069.96 -1.27336 -2.39787 0
M  V30 11479 C 1068.41 -3.45521 -1.00714 0
M  V30 11480 C 1068.02 -4.47878 0.104706 0
M  V30 11481 C 1069.76 -3.9171 -1.63596 0
M  V30 11482 C 1067.67 -5.90165 -0.381932 0
M  V30 11483 H 1066.6 -0.725745 -0.204475 0
M  V30 11484 H 1069.25 -1.82404 0.200302 0
M  V30 11485 H 1067.63 -3.52769 -1.79917 0
M  V30 11486 H 1068.81 -4.523 0.881002 0
M  V30 11487 H 1067.12 -4.11448 0.640264 0
M  V30 11488 H 1069.72 -4.95433 -2.01122 0
M  V30 11489 H 1070.06 -3.31756 -2.51483 0
M  V30 11490 H 1070.6 -3.87268 -0.909319 0
M  V30 11491 H 1067.34 -6.53877 0.460921 0
M  V30 11492 H 1066.86 -5.89161 -1.12468 0
M  V30 11493 H 1068.53 -6.41488 -0.842748 0
M  V30 11494 N 1068.67 0.153526 -1.5685 0
M  V30 11495 C 1069.91 0.867232 -1.8299 0
M  V30 11496 C 1070.24 1.81462 -0.700125 0
M  V30 11497 O 1069.5 1.93207 0.311348 0
M  V30 11498 C 1069.8 1.68066 -3.15418 0
M  V30 11499 C 1069.46 0.880635 -4.42217 0
M  V30 11500 C 1068.12 0.659899 -4.76654 0
M  V30 11501 C 1070.48 0.320698 -5.20212 0
M  V30 11502 C 1067.8 -0.131588 -5.86552 0
M  V30 11503 C 1070.16 -0.457794 -6.30941 0
M  V30 11504 C 1068.82 -0.689168 -6.63933 0
M  V30 11505 H 1068.09 0.317343 -0.669608 0
M  V30 11506 H 1070.74 0.131208 -1.9105 0
M  V30 11507 H 1069.04 2.4866 -3.02779 0
M  V30 11508 H 1070.74 2.23623 -3.32857 0
M  V30 11509 H 1067.33 1.06274 -4.15215 0
M  V30 11510 H 1071.51 0.47853 -4.93988 0
M  V30 11511 H 1066.77 -0.320413 -6.1056 0
M  V30 11512 H 1070.94 -0.898839 -6.90575 0
M  V30 11513 H 1068.57 -1.30433 -7.48927 0
M  V30 11514 N 1070.14 1.51827 0.422667 0
M  V30 11515 C 1071.09 1.74791 1.53463 0
M  V30 11516 C 1072.09 0.614602 1.57858 0
M  V30 11517 O 1073.29 0.796336 1.61426 0
M  V30 11518 H 1069.67 0.552524 0.510118 0
M  V30 11519 H 1071.64 2.67974 1.31273 0
M  V30 11520 C 1070.39 1.90339 2.90975 0
M  V30 11521 H 1069.71 2.76958 2.8833 0
M  V30 11522 H 1071.15 2.10413 3.68106 0
M  V30 11523 C 1069.61 0.66695 3.30232 0
M  V30 11524 O 1070.14 -0.171542 4.01334 0
M  V30 11525 N 1068.35 0.506768 2.86147 0
M  V30 11526 H 1067.89 1.19019 2.28456 0
M  V30 11527 H 1067.85 -0.319247 3.12775 0
M  V30 11528 N 1071.62 -0.679052 1.4222 0
M  V30 11529 C 1072.85 -1.47248 1.46058 0
M  V30 11530 C 1073.27 -1.87962 0.0720987 0
M  V30 11531 O 1072.63 -1.5572 -0.928488 0
M  V30 11532 C 1072.68 -2.70067 2.38948 0
M  V30 11533 O 1071.78 -3.68178 1.85791 0
M  V30 11534 H 1071.12 -0.442533 0.495036 0
M  V30 11535 H 1073.65 -0.833263 1.86863 0
M  V30 11536 H 1073.66 -3.18187 2.55385 0
M  V30 11537 H 1072.34 -2.39773 3.39826 0
M  V30 11538 H 1070.92 -3.2719 1.78889 0
M  V30 11539 N 1073.1 -1.28322 -0.914942 0
M  V30 11540 C 1074.06 -1.12169 -1.99877 0
M  V30 11541 C 1075.06 -0.0617252 -1.60681 0
M  V30 11542 O 1076.25 -0.307405 -1.71466 0
M  V30 11543 C 1073.39 -0.711959 -3.33383 0
M  V30 11544 H 1074.58 -2.08425 -2.15636 0
M  V30 11545 H 1072.13 -1.11291 -1.09745 0
M  V30 11546 H 1072.87 0.251418 -3.23324 0
M  V30 11547 H 1072.65 -1.47764 -3.63192 0
M  V30 11548 H 1074.14 -0.621558 -4.12948 0
M  V30 11549 N 1074.58 1.12322 -1.10551 0
M  V30 11550 C 1075.83 1.83216 -0.84349 0
M  V30 11551 C 1076.14 1.85075 0.632992 0
M  V30 11552 O 1077.35 2.51976 1.01095 0
M  V30 11553 C 1075.8 3.28994 -1.45915 0
M  V30 11554 C 1075.41 3.3549 -2.96901 0
M  V30 11555 C 1077.15 4.0485 -1.27657 0
M  V30 11556 C 1075.06 4.7561 -3.51496 0
M  V30 11557 H 1073.99 0.686471 -0.311887 0
M  V30 11558 H 1076.64 1.26463 -1.32964 0
M  V30 11559 H 1075.02 3.85621 -0.900678 0
M  V30 11560 H 1076.2 2.88795 -3.59074 0
M  V30 11561 H 1074.51 2.73107 -3.14327 0
M  V30 11562 H 1077.11 5.08316 -1.65889 0
M  V30 11563 H 1077.45 4.15727 -0.218258 0
M  V30 11564 H 1077.99 3.54584 -1.80318 0
M  V30 11565 H 1074.73 4.69927 -4.56999 0
M  V30 11566 H 1074.25 5.22753 -2.94091 0
M  V30 11567 H 1075.92 5.44552 -3.49388 0
M  V30 11568 N 1076.06 0.894434 1.2976 0
M  V30 11569 C 1077.47 0.589778 1.48303 0
M  V30 11570 C 1077.67 -0.870085 1.81746 0
M  V30 11571 O 1076.73 -1.65065 1.91076 0
M  V30 11572 C 1078.04 1.51107 2.59975 0
M  V30 11573 C 1079.59 1.51571 2.73853 0
M  V30 11574 C 1080.06 2.42316 3.88648 0
M  V30 11575 N 1081.56 2.40333 3.95973 0
M  V30 11576 C 1082.29 3.07254 4.84131 0
M  V30 11577 N 1081.79 3.83435 5.77018 0
M  V30 11578 N 1083.58 2.96438 4.77578 0
M  V30 11579 H 1075.73 1.83871 1.06327 0
M  V30 11580 H 1077.99 0.78758 0.527657 0
M  V30 11581 H 1077.7 2.55097 2.42112 0
M  V30 11582 H 1077.57 1.22767 3.56662 0
M  V30 11583 H 1079.96 0.483277 2.91116 0
M  V30 11584 H 1080.04 1.83946 1.77757 0
M  V30 11585 H 1079.69 3.4565 3.72141 0
M  V30 11586 H 1079.62 2.07252 4.84101 0
M  V30 11587 H 1082.11 1.84979 3.29532 0
M  V30 11588 H 1082.42 4.31565 6.4107 0
M  V30 11589 H 1080.76 3.87542 5.7692 0
M  V30 11590 H 1083.96 2.36442 4.03996 0
M  V30 11591 H 1084.13 3.48867 5.46073 0
M  V30 11592 N 1077.53 -1.43282 0.656365 0
M  V30 11593 C 1078.48 -2.30776 -0.0333155 0
M  V30 11594 C 1079.45 -1.44928 -0.811493 0
M  V30 11595 O 1080.64 -1.73792 -0.787465 0
M  V30 11596 C 1077.78 -3.30548 -0.991566 0
M  V30 11597 C 1076.89 -4.31493 -0.209159 0
M  V30 11598 C 1076.02 -5.18346 -1.16149 0
M  V30 11599 C 1075.06 -6.10983 -0.369699 0
M  V30 11600 N 1074.2 -6.90449 -1.27378 0
M  V30 11601 H 1079.04 -2.89204 0.718668 0
M  V30 11602 H 1076.58 -1.4247 0.366161 0
M  V30 11603 H 1078.54 -3.86905 -1.56078 0
M  V30 11604 H 1077.17 -2.73762 -1.71039 0
M  V30 11605 H 1076.22 -3.77405 0.476394 0
M  V30 11606 H 1077.53 -4.97142 0.406394 0
M  V30 11607 H 1076.68 -5.79345 -1.80124 0
M  V30 11608 H 1075.42 -4.52831 -1.81095 0
M  V30 11609 H 1074.43 -5.49069 0.283377 0
M  V30 11610 H 1075.65 -6.78541 0.275399 0
M  V30 11611 H 1073.6 -6.27579 -1.90999 0
M  V30 11612 H 1073.52 -7.52631 -0.71287 0
M  V30 11613 H 1074.78 -7.5595 -1.90158 0
M  V30 11614 N 1079.01 -0.398486 -1.52479 0
M  V30 11615 C 1079.96 0.449343 -2.23528 0
M  V30 11616 C 1080.95 1.02218 -1.24259 0
M  V30 11617 O 1082.14 0.946757 -1.49551 0
M  V30 11618 C 1079.27 1.5712 -3.05235 0
M  V30 11619 C 1078.35 1.00966 -4.11906 0
M  V30 11620 N 1078.75 0.173855 -5.05501 0
M  V30 11621 C 1077.04 1.28124 -4.272 0
M  V30 11622 C 1077.74 -0.137391 -5.81538 0
M  V30 11623 N 1076.72 0.468972 -5.41573 0
M  V30 11624 H 1080.52 -0.195654 -2.93248 0
M  V30 11625 H 1078.04 -0.208305 -1.61059 0
M  V30 11626 H 1080.03 2.19108 -3.54679 0
M  V30 11627 H 1078.69 2.21893 -2.37052 0
M  V30 11628 H 1079.7 -0.189618 -5.17553 0
M  V30 11629 H 1076.38 1.92933 -3.70247 0
M  V30 11630 H 1077.77 -0.815159 -6.66937 0
M  V30 11631 N 1080.49 1.57075 -0.12858 0
M  V30 11632 C 1081.42 2.18833 0.814519 0
M  V30 11633 C 1082.4 1.13114 1.2704 0
M  V30 11634 O 1083.59 1.41387 1.33129 0
M  V30 11635 C 1080.72 2.79535 2.06101 0
M  V30 11636 C 1079.67 3.9092 1.74257 0
M  V30 11637 C 1079 4.38473 3.06015 0
M  V30 11638 C 1080.3 5.1257 1.00345 0
M  V30 11639 H 1081.99 2.97895 0.299862 0
M  V30 11640 H 1079.54 1.4329 0.14279 0
M  V30 11641 H 1081.49 3.21401 2.72543 0
M  V30 11642 H 1080.21 1.97777 2.59907 0
M  V30 11643 H 1078.87 3.49645 1.102 0
M  V30 11644 H 1078.52 3.53561 3.57776 0
M  V30 11645 H 1078.22 5.13591 2.85479 0
M  V30 11646 H 1079.75 4.82997 3.7356 0
M  V30 11647 H 1081.16 5.51395 1.56959 0
M  V30 11648 H 1079.56 5.93333 0.898693 0
M  V30 11649 H 1080.63 4.84899 -0.0081335 0
M  V30 11650 N 1081.97 -0.145205 1.5693 0
M  V30 11651 C 1082.92 -1.17923 1.98401 0
M  V30 11652 C 1083.89 -1.42591 0.851885 0
M  V30 11653 O 1085.07 -1.54896 1.11409 0
M  V30 11654 C 1082.21 -2.50727 2.37128 0
M  V30 11655 C 1081.32 -2.33218 3.63639 0
M  V30 11656 C 1080.46 -3.5907 3.91462 0
M  V30 11657 C 1079.5 -3.36605 5.11237 0
M  V30 11658 N 1078.64 -4.54592 5.35061 0
M  V30 11659 H 1083.48 -0.818573 2.86537 0
M  V30 11660 H 1081.01 -0.392739 1.4176 0
M  V30 11661 H 1082.97 -3.28165 2.57611 0
M  V30 11662 H 1081.6 -2.84736 1.52069 0
M  V30 11663 H 1080.65 -1.46826 3.50922 0
M  V30 11664 H 1081.96 -2.12579 4.51234 0
M  V30 11665 H 1081.12 -4.44936 4.12453 0
M  V30 11666 H 1079.86 -3.82715 3.02293 0
M  V30 11667 H 1078.86 -2.49127 4.90118 0
M  V30 11668 H 1080.09 -3.14357 6.01961 0
M  V30 11669 H 1078.03 -4.78406 4.48847 0
M  V30 11670 H 1077.95 -4.36962 6.16928 0
M  V30 11671 H 1079.22 -5.41666 5.60551 0
M  V30 11672 N 1083.45 -1.52049 -0.414609 0
M  V30 11673 C 1084.67 -1.6997 -1.18848 0
M  V30 11674 C 1085.1 -0.406058 -1.83665 0
M  V30 11675 O 1084.46 0.635981 -1.69779 0
M  V30 11676 C 1084.5 -2.8327 -2.23138 0
M  V30 11677 O 1083.61 -2.48457 -3.29155 0
M  V30 11678 H 1082.95 -0.566003 -0.347183 0
M  V30 11679 H 1085.48 -1.98726 -0.486757 0
M  V30 11680 H 1085.49 -3.08022 -2.67557 0
M  V30 11681 H 1084.16 -3.7713 -1.75344 0
M  V30 11682 H 1082.74 -2.34357 -2.90054 0
M  V30 11683 N 1084.93 0.6715 -1.42579 0
M  V30 11684 C 1085.87 1.78496 -1.46314 0
M  V30 11685 C 1086.84 1.63091 -0.314743 0
M  V30 11686 O 1088.03 1.83597 -0.519292 0
M  V30 11687 C 1085.17 3.16548 -1.37447 0
M  V30 11688 C 1084.28 3.43216 -2.62348 0
M  V30 11689 C 1083.42 4.71014 -2.456 0
M  V30 11690 C 1082.45 4.90728 -3.65859 0
M  V30 11691 N 1081.59 6.09769 -3.48032 0
M  V30 11692 H 1086.43 1.74638 -2.41466 0
M  V30 11693 H 1083.97 0.852491 -1.19879 0
M  V30 11694 H 1085.93 3.96329 -1.30303 0
M  V30 11695 H 1084.56 3.19522 -0.458891 0
M  V30 11696 H 1083.61 2.57664 -2.79846 0
M  V30 11697 H 1084.92 3.53675 -3.51732 0
M  V30 11698 H 1084.07 5.58892 -2.3606 0
M  V30 11699 H 1082.81 4.62843 -1.53712 0
M  V30 11700 H 1081.82 4.01291 -3.75827 0
M  V30 11701 H 1083.04 5.00741 -4.58732 0
M  V30 11702 H 1080.99 6.02765 -2.58864 0
M  V30 11703 H 1080.91 6.21104 -4.31005 0
M  V30 11704 H 1082.17 7.00317 -3.42311 0
M  V30 11705 N 1086.4 1.28806 0.908124 0
M  V30 11706 C 1087.63 1.19153 1.69146 0
M  V30 11707 C 1088.05 -0.249056 1.8715 0
M  V30 11708 O 1087.4 -1.16772 1.40251 0
M  V30 11709 C 1087.45 1.89167 3.08055 0
M  V30 11710 O 1087.18 3.27599 2.90879 0
M  V30 11711 C 1088.68 1.85886 4.02444 0
M  V30 11712 H 1085.9 0.413359 0.528559 0
M  V30 11713 H 1088.44 1.7003 1.13622 0
M  V30 11714 H 1086.6 1.42146 3.60379 0
M  V30 11715 H 1087.01 3.62743 3.78837 0
M  V30 11716 H 1088.48 2.39454 4.97359 0
M  V30 11717 H 1088.96 0.832483 4.31238 0
M  V30 11718 H 1089.57 2.32612 3.5605 0
M  V30 11719 N 1087.88 -1.11734 1.11145 0
M  V30 11720 C 1089.13 -1.83677 0.859684 0
M  V30 11721 C 1089.46 -1.84265 -0.613182 0
M  V30 11722 O 1088.74 -1.29351 -1.45254 0
M  V30 11723 C 1089.02 -3.31003 1.41805 0
M  V30 11724 C 1088.87 -3.38827 2.95831 0
M  V30 11725 C 1090.19 -4.26984 1.06645 0
M  V30 11726 H 1087.31 -0.666879 0.313754 0
M  V30 11727 H 1089.95 -1.31038 1.37583 0
M  V30 11728 H 1088.1 -3.75961 0.979054 0
M  V30 11729 H 1089.77 -3.02451 3.48312 0
M  V30 11730 H 1088.02 -2.79143 3.32056 0
M  V30 11731 H 1088.69 -4.42508 3.29986 0
M  V30 11732 H 1091.16 -3.9019 1.44537 0
M  V30 11733 H 1090.04 -5.2846 1.48394 0
M  V30 11734 H 1090.3 -4.42094 -0.0231866 0
M  V30 11735 N 1089.36 -0.901303 -1.29284 0
M  V30 11736 C 1090.29 -0.396909 -2.30102 0
M  V30 11737 C 1091.27 0.528919 -1.61668 0
M  V30 11738 O 1092.46 0.439306 -1.89166 0
M  V30 11739 C 1089.59 0.375006 -3.45269 0
M  V30 11740 C 1088.54 -0.46054 -4.25515 0
M  V30 11741 C 1087.87 0.438967 -5.32895 0
M  V30 11742 C 1089.17 -1.7113 -4.93469 0
M  V30 11743 H 1090.86 -1.23943 -2.72541 0
M  V30 11744 H 1088.41 -0.597428 -1.31022 0
M  V30 11745 H 1090.36 0.738622 -4.14876 0
M  V30 11746 H 1089.08 1.25132 -3.01678 0
M  V30 11747 H 1087.74 -0.80651 -3.57618 0
M  V30 11748 H 1087.39 1.31346 -4.85548 0
M  V30 11749 H 1087.09 -0.116406 -5.87485 0
M  V30 11750 H 1088.61 0.79874 -6.05353 0
M  V30 11751 H 1090.03 -1.41732 -5.55504 0
M  V30 11752 H 1088.42 -2.20811 -5.57999 0
M  V30 11753 H 1089.49 -2.44636 -4.18666 0
M  V30 11754 N 1090.84 1.42931 -0.663954 0
M  V30 11755 C 1092.08 2.01683 -0.181738 0
M  V30 11756 C 1092.41 1.52437 1.20802 0
M  V30 11757 O 1091.67 0.71254 1.82267 0
M  V30 11758 C 1091.97 3.57072 -0.153163 0
M  V30 11759 C 1091.63 4.25706 -1.48612 0
M  V30 11760 C 1090.29 4.4417 -1.85111 0
M  V30 11761 C 1092.65 4.6448 -2.36448 0
M  V30 11762 C 1089.97 4.98677 -3.09092 0
M  V30 11763 C 1092.33 5.20362 -3.5973 0
M  V30 11764 C 1090.99 5.37041 -3.96412 0
M  V30 11765 H 1090.26 0.73801 -0.0665026 0
M  V30 11766 H 1092.91 1.71264 -0.856791 0
M  V30 11767 H 1091.21 3.87095 0.605372 0
M  V30 11768 H 1092.91 4.00299 0.236981 0
M  V30 11769 H 1089.5 4.11686 -1.19215 0
M  V30 11770 H 1093.68 4.49898 -2.09537 0
M  V30 11771 H 1088.94 5.09776 -3.37547 0
M  V30 11772 H 1093.11 5.49352 -4.28001 0
M  V30 11773 H 1090.74 5.79042 -4.92559 0
M  V30 11774 N 1092.32 0.406567 1.52266 0
M  V30 11775 C 1093.56 -0.170305 2.02084 0
M  V30 11776 C 1093.89 -1.45008 1.29176 0
M  V30 11777 O 1093.17 -1.90399 0.39731 0
M  V30 11778 C 1093.45 -0.420627 3.57635 0
M  V30 11779 C 1093.31 0.87564 4.41194 0
M  V30 11780 C 1094.62 -1.20387 4.23314 0
M  V30 11781 H 1091.74 -0.0604219 0.734519 0
M  V30 11782 H 1094.39 0.539529 1.82179 0
M  V30 11783 H 1092.54 -1.0253 3.74726 0
M  V30 11784 H 1094.21 1.51192 4.35819 0
M  V30 11785 H 1092.45 1.48718 4.07511 0
M  V30 11786 H 1093.12 0.654916 5.48101 0
M  V30 11787 H 1095.6 -0.691972 4.10306 0
M  V30 11788 H 1094.47 -1.34776 5.32096 0
M  V30 11789 H 1094.73 -2.2238 3.82099 0
M  V30 11790 N 1093.79 -1.57004 0.136909 0
M  V30 11791 C 1095.02 -2.00156 -0.523936 0
M  V30 11792 C 1095.44 -1.01688 -1.59075 0
M  V30 11793 O 1094.79 -0.0123678 -1.82496 0
M  V30 11794 C 1094.85 -3.4326 -1.13379 0
M  V30 11795 O 1094.57 -4.37963 -0.109598 0
M  V30 11796 C 1096.07 -4.01637 -1.87623 0
M  V30 11797 H 1093.29 -0.65681 -0.137263 0
M  V30 11798 H 1095.83 -2.03219 0.228522 0
M  V30 11799 H 1093.99 -3.4108 -1.83693 0
M  V30 11800 H 1094.4 -5.21555 -0.55503 0
M  V30 11801 H 1095.87 -5.03795 -2.25597 0
M  V30 11802 H 1096.35 -3.41781 -2.75831 0
M  V30 11803 H 1096.96 -4.07417 -1.22031 0
M  V30 11804 N 1095.27 0.136881 -1.57004 0
M  V30 11805 C 1096.22 1.17411 -1.95445 0
M  V30 11806 C 1097.21 1.38019 -0.827015 0
M  V30 11807 O 1098.4 1.39412 -1.09057 0
M  V30 11808 C 1095.53 2.50525 -2.34717 0
M  V30 11809 C 1094.61 2.33467 -3.54054 0
M  V30 11810 N 1095 1.86184 -4.70286 0
M  V30 11811 C 1093.3 2.64185 -3.59336 0
M  V30 11812 C 1094 1.82411 -5.5236 0
M  V30 11813 N 1092.98 2.26098 -4.94349 0
M  V30 11814 H 1096.78 0.8008 -2.8278 0
M  V30 11815 H 1094.3 0.344831 -1.58697 0
M  V30 11816 H 1096.29 3.2552 -2.60465 0
M  V30 11817 H 1094.95 2.8863 -1.48738 0
M  V30 11818 H 1095.96 1.55998 -4.93847 0
M  V30 11819 H 1092.64 3.06096 -2.83922 0
M  V30 11820 H 1094.03 1.4726 -6.55564 0
M  V30 11821 N 1096.75 1.52266 0.40654 0
M  V30 11822 C 1097.68 1.72025 1.51459 0
M  V30 11823 C 1098.7 0.600667 1.51314 0
M  V30 11824 O 1099.88 0.875894 1.55532 0
M  V30 11825 C 1096.98 1.7479 2.90348 0
M  V30 11826 C 1096.16 3.03826 3.14656 0
M  V30 11827 C 1095.22 2.98369 4.33431 0
M  V30 11828 O 1094.24 3.7227 4.30586 0
M  V30 11829 N 1095.44 2.16338 5.38682 0
M  V30 11830 H 1098.21 2.67622 1.34903 0
M  V30 11831 H 1095.77 1.50536 0.595867 0
M  V30 11832 H 1097.76 1.68667 3.67877 0
M  V30 11833 H 1096.33 0.86656 3.00349 0
M  V30 11834 H 1095.55 3.23577 2.25148 0
M  V30 11835 H 1096.84 3.89182 3.27742 0
M  V30 11836 H 1096.24 1.55731 5.43842 0
M  V30 11837 H 1094.8 2.1607 6.14945 0
M  V30 11838 N 1098.23 -0.663929 1.42933 0
M  V30 11839 C 1099.16 -1.78899 1.50058 0
M  V30 11840 C 1100.14 -1.66329 0.356164 0
M  V30 11841 O 1101.32 -1.85587 0.571944 0
M  V30 11842 C 1098.45 -3.17265 1.41281 0
M  V30 11843 C 1097.41 -3.44584 2.53861 0
M  V30 11844 C 1096.73 -4.82638 2.3014 0
M  V30 11845 C 1098.03 -3.40394 3.96143 0
M  V30 11846 H 1099.73 -1.73194 2.44222 0
M  V30 11847 H 1097.27 -0.83182 1.17545 0
M  V30 11848 H 1099.23 -3.95715 1.44872 0
M  V30 11849 H 1097.95 -3.23675 0.43616 0
M  V30 11850 H 1096.61 -2.685 2.49606 0
M  V30 11851 H 1096.26 -4.85711 1.30743 0
M  V30 11852 H 1095.96 -5.01879 3.056 0
M  V30 11853 H 1097.48 -5.63359 2.35497 0
M  V30 11854 H 1098.9 -4.08796 4.01943 0
M  V30 11855 H 1097.29 -3.7117 4.71543 0
M  V30 11856 H 1098.36 -2.38767 4.22041 0
M  V30 11857 N 1099.71 -1.29285 -0.901281 0
M  V30 11858 C 1100.64 -1.10086 -2.01032 0
M  V30 11859 C 1101.65 -0.0488364 -1.62727 0
M  V30 11860 O 1102.84 -0.293194 -1.76076 0
M  V30 11861 C 1099.94 -0.653357 -3.32542 0
M  V30 11862 C 1099.11 -1.78355 -3.99385 0
M  V30 11863 C 1098.17 -1.32733 -5.09184 0
M  V30 11864 O 1097.2 -2.03177 -5.31703 0
M  V30 11865 N 1098.4 -0.197345 -5.80164 0
M  V30 11866 H 1101.17 -2.056 -2.18057 0
M  V30 11867 H 1098.73 -1.21204 -1.07337 0
M  V30 11868 H 1100.72 -0.331491 -4.0334 0
M  V30 11869 H 1099.29 0.209278 -3.11899 0
M  V30 11870 H 1098.51 -2.27438 -3.21972 0
M  V30 11871 H 1099.8 -2.54137 -4.40785 0
M  V30 11872 H 1099.19 0.390011 -5.64354 0
M  V30 11873 H 1097.75 0.0651642 -6.51767 0
M  V30 11874 N 1101.18 1.11143 -1.11736 0
M  V30 11875 C 1102.41 1.86474 -0.889435 0
M  V30 11876 C 1102.82 1.80584 0.564438 0
M  V30 11877 O 1102.17 1.18743 1.40163 0
M  V30 11878 C 1102.23 3.36066 -1.27671 0
M  V30 11879 C 1101.89 3.65721 -2.74038 0
M  V30 11880 C 1102.89 3.62941 -3.7225 0
M  V30 11881 C 1100.57 3.94629 -3.10762 0
M  V30 11882 C 1102.57 3.88651 -5.05202 0
M  V30 11883 C 1100.25 4.19997 -4.43899 0
M  V30 11884 C 1101.25 4.16996 -5.40928 0
M  V30 11885 O 1100.94 4.41724 -6.71666 0
M  V30 11886 H 1100.67 0.596438 -0.318178 0
M  V30 11887 H 1103.23 1.41465 -1.48918 0
M  V30 11888 H 1101.46 3.81695 -0.620124 0
M  V30 11889 H 1103.15 3.92769 -1.02409 0
M  V30 11890 H 1103.91 3.40655 -3.45223 0
M  V30 11891 H 1099.79 3.96099 -2.35853 0
M  V30 11892 H 1103.33 3.86224 -5.80927 0
M  V30 11893 H 1099.23 4.4176 -4.70657 0
M  V30 11894 H 1100 4.59276 -6.77501 0
M  V30 11895 N 1102.66 0.908147 1.28804 0
M  V30 11896 C 1103.59 0.409106 2.29888 0
M  V30 11897 C 1104.57 -0.520338 1.61946 0
M  V30 11898 O 1105.76 -0.429268 1.89396 0
M  V30 11899 C 1102.89 -0.35669 3.45463 0
M  V30 11900 C 1101.84 0.4831 4.25265 0
M  V30 11901 C 1101.17 -0.4107 5.3312 0
M  V30 11902 C 1102.47 1.73744 4.92555 0
M  V30 11903 H 1104.16 1.25386 2.7188 0
M  V30 11904 H 1101.71 0.604368 1.30703 0
M  V30 11905 H 1103.66 -0.71661 4.15262 0
M  V30 11906 H 1102.39 -1.2353 3.02337 0
M  V30 11907 H 1101.04 0.825464 3.57186 0
M  V30 11908 H 1100.69 -1.28769 4.86238 0
M  V30 11909 H 1100.39 0.14756 5.87415 0
M  V30 11910 H 1101.92 -0.766626 6.05768 0
M  V30 11911 H 1103.33 1.44676 5.54745 0
M  V30 11912 H 1101.73 2.23767 5.5682 0
M  V30 11913 H 1102.8 2.46853 4.17363 0
M  V30 11914 N 1104.14 -1.42577 0.671525 0
M  V30 11915 C 1105.39 -2.01882 0.192716 0
M  V30 11916 C 1105.72 -1.52959 -1.19654 0
M  V30 11917 O 1104.99 -0.730404 -1.80265 0
M  V30 11918 C 1105.28 -3.59404 0.223734 0
M  V30 11919 C 1105.13 -4.18514 1.64821 0
M  V30 11920 C 1106.45 -4.37996 -0.429858 0
M  V30 11921 H 1103.57 -0.733523 0.0715026 0
M  V30 11922 H 1106.21 -1.69641 0.855689 0
M  V30 11923 H 1104.36 -3.87003 -0.340776 0
M  V30 11924 H 1106.03 -4.01881 2.26472 0
M  V30 11925 H 1104.28 -3.74467 2.1899 0
M  V30 11926 H 1104.95 -5.27643 1.62162 0
M  V30 11927 H 1107.42 -4.16069 0.0506433 0
M  V30 11928 H 1106.3 -5.476 -0.377503 0
M  V30 11929 H 1106.56 -4.15625 -1.50693 0
M  V30 11930 N 1105.62 -0.414636 -1.52048 0
M  V30 11931 C 1106.9 0.218172 -1.94379 0
M  V30 11932 C 1107.28 1.62133 -1.35189 0
M  V30 11933 O 1106.62 2.22271 -0.529877 0
M  V30 11934 C 1106.83 0.218932 -3.48313 0
M  V30 11935 C 1108.18 0.435604 -4.2236 0
M  V30 11936 O 1109.21 0.298049 -3.54951 0
M  V30 11937 O 1108.06 0.707217 -5.41905 0
M  V30 11938 H 1105.16 0.142173 -0.814688 0
M  V30 11939 H 1107.7 -0.470977 -1.63033 0
M  V30 11940 H 1106.48 -0.76292 -3.83791 0
M  V30 11941 H 1106.1 0.951949 -3.86036 0
M  V30 11942 N 1107.1 1.56929 -0.145233 0
M  V30 11943 C 1108.34 1.97959 0.509092 0
M  V30 11944 C 1108.7 1.02813 1.62153 0
M  V30 11945 O 1109.9 1.3288 2.33659 0
M  V30 11946 C 1108.17 3.43012 1.00388 0
M  V30 11947 S 1109.73 4.06064 1.66305 0
M  V30 11948 H 1106.55 0.69167 0.164663 0
M  V30 11949 H 1109.15 1.94064 -0.236529 0
M  V30 11950 H 1107.86 4.0999 0.183454 0
M  V30 11951 H 1107.39 3.50615 1.78417 0
M  V30 11952 H 1109.4 3.98971 2.9502 0
M  V30 11953 N 1108.58 -0.128553 1.57075 0
M  V30 11954 C 1109.85 -0.867766 1.75297 0
M  V30 11955 C 1110.23 -1.98508 0.718176 0
M  V30 11956 O 1109.58 -2.2702 -0.259616 0
M  V30 11957 C 1109.79 -1.39326 3.19983 0
M  V30 11958 C 1111.14 -1.84939 3.82208 0
M  V30 11959 O 1112.16 -1.49027 3.23527 0
M  V30 11960 O 1111.02 -2.51227 4.85332 0
M  V30 11961 H 1108.12 -0.411393 0.717415 0
M  V30 11962 H 1110.66 -0.113038 1.69323 0
M  V30 11963 H 1109.43 -0.591172 3.86809 0
M  V30 11964 H 1109.06 -2.21097 3.30457 0
M  V30 11965 N 1110.05 -1.5248 -0.398459 0
M  V30 11966 C 1110.96 -1.79492 -1.51062 0
M  V30 11967 C 1111.98 -0.681101 -1.60116 0
M  V30 11968 O 1113.16 -0.967671 -1.7663 0
M  V30 11969 C 1110.22 -1.94958 -2.86692 0
M  V30 11970 C 1109.28 -3.1887 -2.87438 0
M  V30 11971 C 1108.51 -3.33588 -4.16599 0
M  V30 11972 O 1108.74 -2.53327 -5.11059 0
M  V30 11973 O 1107.67 -4.26795 -4.24416 0
M  V30 11974 H 1111.5 -2.73913 -1.31169 0
M  V30 11975 H 1109.08 -1.37455 -0.585372 0
M  V30 11976 H 1110.96 -2.06891 -3.67116 0
M  V30 11977 H 1109.64 -1.03726 -3.06631 0
M  V30 11978 H 1108.55 -3.12386 -2.0583 0
M  V30 11979 H 1109.88 -4.09917 -2.7245 0
M  V30 11980 N 1111.53 0.65634 -1.43283 0
M  V30 11981 C 1112.78 1.41837 -1.44949 0
M  V30 11982 C 1113.11 1.94065 -0.0723212 0
M  V30 11983 O 1112.39 1.72092 0.906346 0
M  V30 11984 C 1112.67 2.60206 -2.48927 0
M  V30 11985 C 1112.52 2.1349 -3.95907 0
M  V30 11986 C 1113.84 3.62421 -2.49678 0
M  V30 11987 H 1110.96 0.514398 -0.527792 0
M  V30 11988 H 1113.6 0.74435 -1.74813 0
M  V30 11989 H 1111.75 3.17708 -2.23592 0
M  V30 11990 H 1113.42 1.61012 -4.32288 0
M  V30 11991 H 1111.67 1.4489 -4.08888 0
M  V30 11992 H 1112.34 2.98596 -4.64268 0
M  V30 11993 H 1114.81 3.14671 -2.72252 0
M  V30 11994 H 1113.69 4.42798 -3.24378 0
M  V30 11995 H 1113.95 4.14802 -1.52944 0
M  V30 11996 N 1113.01 1.29761 0.894412 0
M  V30 11997 C 1114.26 1.17409 1.64006 0
M  V30 11998 C 1114.57 -0.272355 1.93695 0
M  V30 11999 O 1115.78 -0.517269 2.66527 0
M  V30 12000 C 1114.23 2.05379 2.95546 0
M  V30 12001 C 1113.84 3.54878 2.73433 0
M  V30 12002 C 1115.59 2.01765 3.73485 0
M  V30 12003 C 1113.49 4.34935 4.00731 0
M  V30 12004 H 1112.42 0.43583 0.615279 0
M  V30 12005 H 1115.07 1.5444 0.990983 0
M  V30 12006 H 1113.46 1.61222 3.61695 0
M  V30 12007 H 1114.63 4.07122 2.15844 0
M  V30 12008 H 1112.94 3.60218 2.08882 0
M  V30 12009 H 1115.54 2.58835 4.67877 0
M  V30 12010 H 1115.88 0.998876 4.04139 0
M  V30 12011 H 1116.42 2.43994 3.14184 0
M  V30 12012 H 1113.16 5.3747 3.75241 0
M  V30 12013 H 1112.68 3.87458 4.5786 0
M  V30 12014 H 1114.36 4.45875 4.68833 0
M  V30 12015 N 1114.49 -1.10549 1.12324 0
M  V30 12016 C 1115.73 -1.82485 0.877817 0
M  V30 12017 C 1116.06 -1.85131 -0.596373 0
M  V30 12018 O 1115.32 -1.30675 -1.45679 0
M  V30 12019 C 1115.62 -3.28997 1.39626 0
M  V30 12020 C 1115.28 -3.465 2.88529 0
M  V30 12021 C 1113.94 -3.50984 3.29186 0
M  V30 12022 C 1116.3 -3.51991 3.84385 0
M  V30 12023 C 1113.62 -3.58525 4.6441 0
M  V30 12024 C 1115.98 -3.61065 5.19437 0
M  V30 12025 C 1114.64 -3.63813 5.5964 0
M  V30 12026 H 1113.91 -0.667758 0.321216 0
M  V30 12027 H 1116.56 -1.30314 1.40323 0
M  V30 12028 H 1114.86 -3.83726 0.791291 0
M  V30 12029 H 1116.56 -3.83165 1.18259 0
M  V30 12030 H 1113.15 -3.43686 2.56082 0
M  V30 12031 H 1117.33 -3.47777 3.54069 0
M  V30 12032 H 1112.59 -3.58934 4.94951 0
M  V30 12033 H 1116.76 -3.64257 5.9354 0
M  V30 12034 H 1114.39 -3.69409 6.6441 0
M  V30 12035 N 1115.97 -0.914965 -1.28321 0
M  V30 12036 C 1116.9 -0.348729 -2.2552 0
M  V30 12037 C 1117.88 0.547737 -1.53097 0
M  V30 12038 O 1119.06 0.491119 -1.8199 0
M  V30 12039 C 1116.19 0.501397 -3.34968 0
M  V30 12040 C 1115.23 -0.329859 -4.25223 0
M  V30 12041 S 1116.07 -1.73737 -5.06533 0
M  V30 12042 C 1117.22 -0.89458 -6.19474 0
M  V30 12043 H 1117.46 -1.17256 -2.732 0
M  V30 12044 H 1114.99 -0.716297 -1.36779 0
M  V30 12045 H 1116.95 0.986061 -3.98481 0
M  V30 12046 H 1115.61 1.29962 -2.85952 0
M  V30 12047 H 1114.8 0.320236 -5.02982 0
M  V30 12048 H 1114.4 -0.748221 -3.66439 0
M  V30 12049 H 1116.69 -0.124776 -6.77385 0
M  V30 12050 H 1117.64 -1.64475 -6.88733 0
M  V30 12051 H 1118.05 -0.442217 -5.62765 0
M  V30 12052 N 1117.44 1.42219 -0.679077 0
M  V30 12053 C 1118.39 2.308 -0.00340316 0
M  V30 12054 C 1119.36 1.462 0.788334 0
M  V30 12055 O 1120.55 1.75023 0.759716 0
M  V30 12056 C 1117.69 3.32084 0.938854 0
M  V30 12057 C 1116.8 4.31772 0.140485 0
M  V30 12058 C 1115.93 5.20128 1.07888 0
M  V30 12059 C 1114.97 6.11493 0.27245 0
M  V30 12060 N 1114.11 6.92388 1.16378 0
M  V30 12061 H 1118.95 2.88024 -0.764587 0
M  V30 12062 H 1116.49 1.41869 -0.38878 0
M  V30 12063 H 1118.44 3.89339 1.49903 0
M  V30 12064 H 1117.07 2.76448 1.66662 0
M  V30 12065 H 1116.13 3.76599 -0.536376 0
M  V30 12066 H 1117.44 4.96432 -0.485433 0
M  V30 12067 H 1116.59 5.82137 1.70884 0
M  V30 12068 H 1115.33 4.55655 1.73868 0
M  V30 12069 H 1114.34 5.48549 -0.370693 0
M  V30 12070 H 1115.56 6.78017 -0.383315 0
M  V30 12071 H 1113.51 6.30538 1.8099 0
M  V30 12072 H 1113.42 7.5367 0.593043 0
M  V30 12073 H 1114.69 7.58879 1.78107 0
M  V30 12074 N 1118.92 0.422693 1.51826 0
M  V30 12075 C 1119.83 -0.40261 2.31119 0
M  V30 12076 C 1120.85 -1.04117 1.39412 0
M  V30 12077 O 1122.02 -1.03973 1.72486 0
M  V30 12078 C 1119.09 -1.49699 3.12716 0
M  V30 12079 C 1118.15 -0.880088 4.20182 0
M  V30 12080 C 1117.38 -1.92232 4.97878 0
M  V30 12081 O 1117.61 -3.14246 4.76031 0
M  V30 12082 O 1116.54 -1.521 5.82365 0
M  V30 12083 H 1120.37 0.244308 3.02716 0
M  V30 12084 H 1117.95 0.185569 1.48243 0
M  V30 12085 H 1119.83 -2.13202 3.63487 0
M  V30 12086 H 1118.51 -2.12826 2.43899 0
M  V30 12087 H 1117.41 -0.207404 3.73525 0
M  V30 12088 H 1118.75 -0.292535 4.9133 0
M  V30 12089 N 1120.4 -1.5685 0.153553 0
M  V30 12090 C 1121.65 -1.95946 -0.494936 0
M  V30 12091 C 1121.97 -1.03975 -1.64967 0
M  V30 12092 O 1121.24 -0.102572 -1.95631 0
M  V30 12093 H 1119.82 -0.723516 -0.185833 0
M  V30 12094 H 1122.48 -1.93531 0.230585 0
M  V30 12095 H 1121.58 -2.99823 -0.866743 0
M  V30 12096 N 1121.88 0.120221 -1.57141 0
M  V30 12097 C 1123.12 0.834128 -1.86606 0
M  V30 12098 C 1123.48 1.77109 -0.741383 0
M  V30 12099 O 1124.68 2.52647 -0.917769 0
M  V30 12100 C 1122.95 1.56536 -3.21296 0
M  V30 12101 S 1124.51 2.32101 -3.7239 0
M  V30 12102 H 1121.33 0.278419 -0.65422 0
M  V30 12103 H 1123.93 0.0925474 -1.95281 0
M  V30 12104 H 1122.64 0.868987 -4.01094 0
M  V30 12105 H 1122.17 2.34734 -3.15696 0
M  V30 12106 H 1124.18 3.57799 -3.43794 0
M  V30 12107 N 1123.36 1.52689 0.390367 0
M  V30 12108 C 1124.61 1.6689 1.13272 0
M  V30 12109 C 1124.92 0.414433 1.91159 0
M  V30 12110 O 1126.12 0.436559 2.67967 0
M  V30 12111 C 1124.58 2.94929 2.06264 0
M  V30 12112 C 1124.19 4.27551 1.33805 0
M  V30 12113 C 1125.93 3.18497 2.80642 0
M  V30 12114 C 1123.84 5.46698 2.25554 0
M  V30 12115 H 1122.77 0.621749 0.426549 0
M  V30 12116 H 1125.42 1.79185 0.395615 0
M  V30 12117 H 1123.8 2.76378 2.83604 0
M  V30 12118 H 1124.98 4.56651 0.616997 0
M  V30 12119 H 1123.29 4.10234 0.713913 0
M  V30 12120 H 1125.89 4.04693 3.49467 0
M  V30 12121 H 1126.23 2.33511 3.44642 0
M  V30 12122 H 1126.76 3.37607 2.10395 0
M  V30 12123 H 1123.5 6.34088 1.66171 0
M  V30 12124 H 1123.02 5.21913 2.95579 0
M  V30 12125 H 1124.7 5.80519 2.85668 0
M  V30 12126 N 1124.83 -0.648732 1.43629 0
M  V30 12127 C 1126.06 -1.4362 1.48932 0
M  V30 12128 C 1126.48 -1.88487 0.108599 0
M  V30 12129 O 1125.83 -1.59768 -0.882066 0
M  V30 12130 C 1125.89 -2.66822 2.43903 0
M  V30 12131 O 1125.61 -2.2383 3.76606 0
M  V30 12132 C 1127.11 -3.60134 2.58493 0
M  V30 12133 H 1124.33 -0.441055 0.505679 0
M  V30 12134 H 1126.87 -0.794936 1.88417 0
M  V30 12135 H 1125.03 -3.27079 2.07601 0
M  V30 12136 H 1125.44 -3.03575 4.27718 0
M  V30 12137 H 1126.91 -4.43234 3.29011 0
M  V30 12138 H 1127.39 -4.07779 1.63134 0
M  V30 12139 H 1128 -3.05756 2.95624 0
M  V30 12140 N 1126.31 -1.30234 -0.887518 0
M  V30 12141 C 1127.22 -1.18316 -2.02579 0
M  V30 12142 C 1128.24 -0.103658 -1.73691 0
M  V30 12143 O 1129.41 -0.3181 -1.98872 0
M  V30 12144 C 1126.48 -0.873222 -3.35523 0
M  V30 12145 C 1125.54 -2.03783 -3.7785 0
M  V30 12146 C 1124.77 -1.74258 -5.0445 0
M  V30 12147 O 1125 -0.669295 -5.6646 0
M  V30 12148 O 1123.93 -2.59423 -5.43124 0
M  V30 12149 H 1127.76 -2.13933 -2.15561 0
M  V30 12150 H 1125.34 -1.09803 -1.0131 0
M  V30 12151 H 1127.22 -0.715463 -4.15282 0
M  V30 12152 H 1125.9 0.053056 -3.23657 0
M  V30 12153 H 1124.81 -2.2509 -2.98806 0
M  V30 12154 H 1126.14 -2.94574 -3.94318 0
M  V30 12155 N 1127.79 1.09952 -1.12909 0
M  V30 12156 C 1129.21 1.34051 -0.866172 0
M  V30 12157 C 1129.41 1.95169 0.501125 0
M  V30 12158 O 1128.46 2.19458 1.24878 0
M  V30 12159 C 1129.78 2.25738 -1.98653 0
M  V30 12160 C 1131.32 2.39261 -2.01799 0
M  V30 12161 C 1131.8 3.3428 -3.13083 0
M  V30 12162 N 1133.29 3.41851 -3.12558 0
M  V30 12163 C 1134.02 4.15358 -3.95304 0
M  V30 12164 N 1133.52 4.91709 -4.88051 0
M  V30 12165 N 1135.31 4.11027 -3.83423 0
M  V30 12166 H 1127.46 0.686521 -2.00999 0
M  V30 12167 H 1129.73 0.364913 -0.874953 0
M  V30 12168 H 1129.43 1.88048 -2.97205 0
M  V30 12169 H 1129.31 3.26085 -1.89601 0
M  V30 12170 H 1131.69 2.76218 -1.03864 0
M  V30 12171 H 1131.78 1.38712 -2.14925 0
M  V30 12172 H 1131.42 2.98048 -4.11254 0
M  V30 12173 H 1131.35 4.34721 -2.97195 0
M  V30 12174 H 1133.84 2.87405 -2.45371 0
M  V30 12175 H 1134.15 5.45212 -5.47689 0
M  V30 12176 H 1132.5 4.90816 -4.92061 0
M  V30 12177 H 1135.69 3.50477 -3.10296 0
M  V30 12178 H 1135.86 4.68054 -4.4814 0
M  V30 12179 N 1129.27 0.921757 1.27833 0
M  V30 12180 C 1130.52 0.557974 1.94245 0
M  V30 12181 C 1130.84 -0.90268 1.72849 0
M  V30 12182 O 1130.11 -1.63915 1.07279 0
M  V30 12183 H 1128.69 0.203364 0.718785 0
M  V30 12184 H 1131.35 1.17286 1.5566 0
M  V30 12185 H 1130.45 0.759202 3.02725 0
M  V30 12186 N 1130.75 -1.41857 0.686609 0
M  V30 12187 C 1131.97 -2.05699 0.222561 0
M  V30 12188 C 1132.39 -1.51636 -1.12481 0
M  V30 12189 O 1131.75 -0.660925 -1.70112 0
M  V30 12190 C 1131.8 -3.61138 0.161818 0
M  V30 12191 O 1131.52 -4.13199 1.45596 0
M  V30 12192 C 1133.02 -4.42112 -0.324304 0
M  V30 12193 H 1130.24 -0.662665 0.10543 0
M  V30 12194 H 1132.78 -1.81788 0.936671 0
M  V30 12195 H 1130.94 -3.8412 -0.503056 0
M  V30 12196 H 1131.35 -5.0717 1.33712 0
M  V30 12197 H 1132.83 -5.51097 -0.315694 0
M  V30 12198 H 1133.3 -4.1756 -1.36164 0
M  V30 12199 H 1133.91 -4.24174 0.309251 0
M  V30 12200 N 1132.22 -0.430739 -1.51599 0
M  V30 12201 C 1133.17 0.401828 -2.24431 0
M  V30 12202 C 1134.16 0.995588 -1.264 0
M  V30 12203 O 1135.35 0.914822 -1.51526 0
M  V30 12204 C 1132.48 1.5061 -3.08499 0
M  V30 12205 C 1131.57 0.922059 -4.13955 0
M  V30 12206 N 1131.96 0.0665912 -5.05756 0
M  V30 12207 C 1130.25 1.19034 -4.29822 0
M  V30 12208 C 1130.96 -0.260713 -5.81115 0
M  V30 12209 N 1129.93 0.353991 -5.42446 0
M  V30 12210 H 1133.73 -0.257813 -2.92767 0
M  V30 12211 H 1131.25 -0.242421 -1.6058 0
M  V30 12212 H 1133.24 2.11535 -3.59247 0
M  V30 12213 H 1131.9 2.16815 -2.41706 0
M  V30 12214 H 1132.92 -0.299356 -5.17034 0
M  V30 12215 H 1129.59 1.85036 -3.74256 0
M  V30 12216 H 1130.98 -0.956442 -6.65058 0
M  V30 12217 N 1133.7 1.56767 -0.161869 0
M  V30 12218 C 1134.61 2.21083 0.784814 0
M  V30 12219 C 1135.63 1.19959 1.26039 0
M  V30 12220 O 1136.8 1.52588 1.31449 0
M  V30 12221 C 1133.87 2.83153 2.00063 0
M  V30 12222 C 1132.93 3.9945 1.57285 0
M  V30 12223 C 1132.16 4.5855 2.7307 0
M  V30 12224 O 1132.39 4.16534 3.89686 0
M  V30 12225 O 1131.32 5.48575 2.47688 0
M  V30 12226 H 1135.15 3.02522 0.267243 0
M  V30 12227 H 1132.73 1.49255 0.0658783 0
M  V30 12228 H 1134.61 3.22546 2.71186 0
M  V30 12229 H 1133.29 2.04718 2.50744 0
M  V30 12230 H 1132.2 3.64745 0.831393 0
M  V30 12231 H 1133.53 4.7945 1.11304 0
M  V30 12232 N 1135.18 -0.111886 1.57202 0
M  V30 12233 C 1136.09 -1.1556 2.04165 0
M  V30 12234 C 1137.11 -1.44898 0.963354 0
M  V30 12235 O 1138.28 -1.55873 1.27536 0
M  V30 12236 C 1135.35 -2.46048 2.44256 0
M  V30 12237 C 1134.41 -2.24043 3.66201 0
M  V30 12238 C 1133.64 -3.4831 4.04371 0
M  V30 12239 O 1133.86 -4.55895 3.42806 0
M  V30 12240 O 1132.8 -3.38891 4.9743 0
M  V30 12241 H 1136.62 -0.786778 2.93332 0
M  V30 12242 H 1134.21 -0.323196 1.45862 0
M  V30 12243 H 1136.09 -3.22916 2.70745 0
M  V30 12244 H 1134.77 -2.8239 1.58233 0
M  V30 12245 H 1133.67 -1.4501 3.44852 0
M  V30 12246 H 1135.01 -1.92602 4.52952 0
M  V30 12247 N 1136.66 -1.52894 -0.382264 0
M  V30 12248 C 1137.59 -1.81122 -1.47367 0
M  V30 12249 C 1138.57 -0.663653 -1.56619 0
M  V30 12250 O 1139.75 -0.911898 -1.71459 0
M  V30 12251 C 1136.88 -1.98615 -2.84902 0
M  V30 12252 C 1135.84 -3.14328 -2.90485 0
M  V30 12253 C 1135.16 -3.17086 -4.30535 0
M  V30 12254 C 1136.46 -4.53263 -2.59519 0
M  V30 12255 H 1138.16 -2.72518 -1.23993 0
M  V30 12256 H 1135.7 -1.3113 -0.595049 0
M  V30 12257 H 1137.66 -2.16946 -3.61265 0
M  V30 12258 H 1136.38 -1.03915 -3.09628 0
M  V30 12259 H 1135.04 -2.95791 -2.16572 0
M  V30 12260 H 1134.69 -2.20055 -4.52311 0
M  V30 12261 H 1134.39 -3.94821 -4.3519 0
M  V30 12262 H 1135.91 -3.3758 -5.08795 0
M  V30 12263 H 1137.33 -4.71867 -3.25598 0
M  V30 12264 H 1135.72 -5.33115 -2.75514 0
M  V30 12265 H 1136.79 -4.59516 -1.54831 0
M  V30 12266 N 1138.14 0.641106 -1.43971 0
M  V30 12267 C 1139.07 1.76599 -1.44527 0
M  V30 12268 C 1140.05 1.59709 -0.305257 0
M  V30 12269 O 1141.23 1.81728 -0.50071 0
M  V30 12270 C 1138.36 3.14052 -1.26843 0
M  V30 12271 C 1137.41 3.49615 -2.44278 0
M  V30 12272 S 1138.24 3.4822 -4.06821 0
M  V30 12273 C 1139.39 4.8831 -3.91541 0
M  V30 12274 H 1139.63 1.75858 -2.3971 0
M  V30 12275 H 1137.16 0.814834 -1.31148 0
M  V30 12276 H 1139.12 3.93376 -1.17327 0
M  V30 12277 H 1137.78 3.12342 -0.331872 0
M  V30 12278 H 1136.97 4.49611 -2.2774 0
M  V30 12279 H 1136.57 2.77732 -2.50482 0
M  V30 12280 H 1138.87 5.77282 -3.54615 0
M  V30 12281 H 1139.81 5.099 -4.91333 0
M  V30 12282 H 1140.22 4.62414 -3.2378 0
M  V30 12283 N 1139.62 1.30703 0.880598 0
M  V30 12284 C 1140.56 1.17369 2.00817 0
M  V30 12285 C 1141.56 0.0845159 1.69189 0
M  V30 12286 O 1142.76 0.245673 1.78316 0
M  V30 12287 H 1139.14 0.363107 0.658527 0
M  V30 12288 H 1141.11 2.12789 2.09197 0
M  V30 12289 C 1139.86 0.886851 3.362 0
M  V30 12290 H 1139.18 1.71704 3.61051 0
M  V30 12291 H 1140.62 0.83368 4.15723 0
M  V30 12292 C 1139.08 -0.410293 3.34392 0
M  V30 12293 O 1139.61 -1.43044 3.75368 0
M  V30 12294 N 1137.82 -0.423023 2.87505 0
M  V30 12295 H 1137.36 0.407637 2.54354 0
M  V30 12296 H 1137.32 -1.29086 2.86678 0
M  V30 12297 N 1141.09 -1.09351 1.1349 0
M  V30 12298 C 1142.02 -2.18037 0.835588 0
M  V30 12299 C 1143 -1.68856 -0.205373 0
M  V30 12300 O 1144.19 -1.94094 -0.0641357 0
M  V30 12301 C 1141.32 -3.45987 0.301661 0
M  V30 12302 C 1140.27 -4.08507 1.27696 0
M  V30 12303 C 1139.6 -5.31292 0.602758 0
M  V30 12304 C 1140.9 -4.50916 2.63575 0
M  V30 12305 H 1142.59 -2.43332 1.74441 0
M  V30 12306 H 1140.14 -1.1695 0.840166 0
M  V30 12307 H 1142.09 -4.21324 0.079928 0
M  V30 12308 H 1140.82 -3.20217 -0.642552 0
M  V30 12309 H 1139.48 -3.3519 1.4847 0
M  V30 12310 H 1139.12 -5.01802 -0.346953 0
M  V30 12311 H 1138.82 -5.74075 1.25345 0
M  V30 12312 H 1140.35 -6.09351 0.390325 0
M  V30 12313 H 1141.76 -5.17474 2.46765 0
M  V30 12314 H 1140.16 -5.04586 3.24827 0
M  V30 12315 H 1141.23 -3.63279 3.2118 0
M  V30 12316 N 1142.57 -0.928524 -1.27343 0
M  V30 12317 C 1143.52 -0.418768 -2.28799 0
M  V30 12318 C 1144.51 0.497334 -1.61935 0
M  V30 12319 O 1145.72 0.376945 -1.76009 0
M  V30 12320 H 1142.09 -0.116855 -0.742865 0
M  V30 12321 H 1144.07 -1.28725 -2.69207 0
M  V30 12322 C 1142.81 0.312422 -3.46294 0
M  V30 12323 H 1142.14 -0.383317 -3.97958 0
M  V30 12324 H 1143.58 0.633514 -4.19241 0
M  V30 12325 C 1142.04 1.5257 -3.00373 0
M  V30 12326 O 1142.57 2.62443 -3.04116 0
M  V30 12327 N 1140.77 1.37782 -2.5586 0
M  V30 12328 H 1140.32 0.483908 -2.53014 0
M  V30 12329 H 1140.28 2.19085 -2.25498 0
M  V30 12330 N 1144.05 1.41491 -0.694123 0
M  V30 12331 C 1145.3 2.00854 -0.224033 0
M  V30 12332 C 1145.62 1.55246 1.17999 0
M  V30 12333 O 1144.89 0.782452 1.79595 0
M  V30 12334 H 1143.47 0.742721 -0.0798368 0
M  V30 12335 H 1146.13 1.73137 -0.894958 0
M  V30 12336 H 1145.23 3.11173 -0.240332 0
M  V30 12337 N 1145.53 0.438773 1.51369 0
M  V30 12338 C 1146.8 -0.18722 1.94702 0
M  V30 12339 C 1147.18 -1.59962 1.37752 0
M  V30 12340 O 1146.53 -2.214 0.565171 0
M  V30 12341 C 1146.74 -0.163491 3.48617 0
M  V30 12342 C 1148.09 -0.368355 4.22999 0
M  V30 12343 O 1149.11 -0.241541 3.5538 0
M  V30 12344 O 1147.97 -0.620916 5.42961 0
M  V30 12345 H 1145.07 -0.129194 0.816846 0
M  V30 12346 H 1147.61 0.496855 1.62263 0
M  V30 12347 H 1146.39 0.823882 3.82528 0
M  V30 12348 H 1146.01 -0.890414 3.87501 0
M  V30 12349 N 1147.01 -1.56678 0.170181 0
M  V30 12350 C 1148.24 -2.00931 -0.480664 0
M  V30 12351 C 1148.64 -1.04947 -1.57425 0
M  V30 12352 O 1147.99 -0.042229 -1.83651 0
M  V30 12353 C 1148.05 -3.4161 -1.11996 0
M  V30 12354 C 1147.71 -4.5669 -0.168167 0
M  V30 12355 C 1148.71 -5.16273 0.613059 0
M  V30 12356 C 1146.39 -5.02259 -0.0643243 0
M  V30 12357 C 1148.39 -6.19852 1.48534 0
M  V30 12358 C 1146.08 -6.05687 0.811542 0
M  V30 12359 C 1147.07 -6.64355 1.58496 0
M  V30 12360 O 1146.76 -7.65778 2.44619 0
M  V30 12361 H 1146.49 -0.66386 -0.12754 0
M  V30 12362 H 1149.05 -2.03635 0.2687 0
M  V30 12363 H 1147.28 -3.35815 -1.91743 0
M  V30 12364 H 1148.97 -3.69823 -1.67289 0
M  V30 12365 H 1149.73 -4.81951 0.542999 0
M  V30 12366 H 1145.61 -4.56307 -0.656102 0
M  V30 12367 H 1149.16 -6.65572 2.08948 0
M  V30 12368 H 1145.05 -6.39435 0.88281 0
M  V30 12369 H 1145.82 -7.83096 2.38122 0
M  V30 12370 N 1148.48 0.103547 -1.57259 0
M  V30 12371 C 1149.45 1.11039 -2.00507 0
M  V30 12372 C 1150.45 1.33432 -0.897361 0
M  V30 12373 O 1151.64 1.29688 -1.16304 0
M  V30 12374 C 1148.77 2.46144 -2.35851 0
M  V30 12375 H 1149.96 0.738332 -2.90669 0
M  V30 12376 H 1147.51 0.348334 -1.52369 0
M  V30 12377 H 1148.25 2.88242 -1.48617 0
M  V30 12378 H 1148.03 2.31241 -3.16654 0
M  V30 12379 H 1149.52 3.18577 -2.69997 0
M  V30 12380 N 1149.96 1.53094 0.37415 0
M  V30 12381 C 1151.19 1.72758 1.13852 0
M  V30 12382 C 1151.6 0.452638 1.83294 0
M  V30 12383 O 1150.96 -0.573906 1.73241 0
M  V30 12384 C 1151.01 2.88724 2.17534 0
M  V30 12385 O 1150.73 4.11284 1.5092 0
M  V30 12386 C 1152.23 3.2019 3.06584 0
M  V30 12387 H 1149.45 0.578028 0.340771 0
M  V30 12388 H 1152 1.99805 0.435683 0
M  V30 12389 H 1150.15 2.64096 2.83429 0
M  V30 12390 H 1150.57 4.76162 2.19932 0
M  V30 12391 H 1152.04 4.04759 3.75332 0
M  V30 12392 H 1152.52 2.35193 3.70919 0
M  V30 12393 H 1153.12 3.46712 2.46315 0
M  V30 12394 N 1151.44 -0.633461 1.44309 0
M  V30 12395 C 1152.69 -1.38902 1.4625 0
M  V30 12396 C 1153 -1.95354 0.0980699 0
M  V30 12397 O 1154.21 -2.715 -0.0049983 0
M  V30 12398 C 1152.66 -2.51477 2.57463 0
M  V30 12399 C 1152.27 -2.01549 4.00103 0
M  V30 12400 C 1154.02 -3.28698 2.68622 0
M  V30 12401 C 1151.92 -3.11452 5.02744 0
M  V30 12402 H 1150.85 -0.521976 0.544112 0
M  V30 12403 H 1153.5 -0.681725 1.70367 0
M  V30 12404 H 1151.89 -3.24771 2.26582 0
M  V30 12405 H 1153.06 -1.35135 4.4054 0
M  V30 12406 H 1151.37 -1.3715 3.93165 0
M  V30 12407 H 1153.97 -4.10624 3.42479 0
M  V30 12408 H 1154.31 -3.78027 1.7436 0
M  V30 12409 H 1154.85 -2.62494 2.98901 0
M  V30 12410 H 1151.59 -2.6707 5.98627 0
M  V30 12411 H 1151.11 -3.76514 4.66902 0
M  V30 12412 H 1152.79 -3.76265 5.2634 0
M  V30 12413 N 1152.92 -1.31168 -0.873655 0
M  V30 12414 C 1154.17 -1.20642 -1.6264 0
M  V30 12415 C 1154.49 0.236286 -1.93059 0
M  V30 12416 O 1153.75 1.18401 -1.55819 0
M  V30 12417 C 1154.05 -1.99204 -2.96736 0
M  V30 12418 C 1153.71 -3.48734 -2.85824 0
M  V30 12419 C 1152.38 -3.89507 -2.82555 0
M  V30 12420 C 1154.73 -4.43905 -2.73127 0
M  V30 12421 C 1152.06 -5.23724 -2.64442 0
M  V30 12422 C 1154.41 -5.78242 -2.56551 0
M  V30 12423 C 1153.07 -6.18241 -2.51663 0
M  V30 12424 H 1152.34 -0.44146 -0.595142 0
M  V30 12425 H 1154.99 -1.62394 -1.01492 0
M  V30 12426 H 1153.29 -1.50122 -3.61899 0
M  V30 12427 H 1154.99 -1.88443 -3.53963 0
M  V30 12428 H 1151.58 -3.1634 -2.89184 0
M  V30 12429 H 1155.76 -4.13338 -2.7471 0
M  V30 12430 H 1151.02 -5.53794 -2.59081 0
M  V30 12431 H 1155.19 -6.51616 -2.45702 0
M  V30 12432 H 1152.82 -7.22185 -2.37387 0
M  V30 12433 N 1154.4 1.08748 -1.14068 0
M  V30 12434 C 1155.34 2.17667 -0.819981 0
M  V30 12435 C 1156.34 1.68207 0.200654 0
M  V30 12436 O 1157.54 1.79909 0.0571014 0
M  V30 12437 H 1153.92 0.710129 -0.247427 0
M  V30 12438 H 1155.89 2.41944 -1.74659 0
M  V30 12439 C 1154.64 3.46315 -0.309985 0
M  V30 12440 H 1153.96 3.84748 -1.08669 0
M  V30 12441 H 1155.4 4.23818 -0.124094 0
M  V30 12442 C 1153.86 3.22762 0.965724 0
M  V30 12443 O 1154.39 3.46034 2.04018 0
M  V30 12444 N 1152.6 2.76326 0.899576 0
M  V30 12445 H 1152.14 2.57588 0.0250598 0
M  V30 12446 H 1152.1 2.60945 1.75371 0
M  V30 12447 N 1155.87 0.935264 1.26849 0
M  V30 12448 C 1156.82 0.430895 2.28574 0
M  V30 12449 C 1157.82 -0.488739 1.62196 0
M  V30 12450 O 1159.02 -0.367605 1.76206 0
M  V30 12451 H 1155.4 0.120793 0.742235 0
M  V30 12452 H 1157.37 1.3015 2.68521 0
M  V30 12453 C 1156.12 -0.294053 3.46454 0
M  V30 12454 H 1155.44 0.404416 3.97749 0
M  V30 12455 H 1156.88 -0.611272 4.19571 0
M  V30 12456 C 1155.34 -1.50975 3.01178 0
M  V30 12457 O 1155.87 -2.60826 3.05504 0
M  V30 12458 N 1154.08 -1.36423 2.56587 0
M  V30 12459 H 1153.62 -0.470483 2.53267 0
M  V30 12460 H 1153.58 -2.17886 2.26656 0
M  V30 12461 N 1157.35 -1.41121 0.701616 0
M  V30 12462 C 1158.28 -2.33436 0.0545974 0
M  V30 12463 C 1159.26 -1.52144 -0.760662 0
M  V30 12464 O 1160.45 -1.80661 -0.712414 0
M  V30 12465 C 1157.58 -3.36015 -0.878117 0
M  V30 12466 C 1156.53 -4.27664 -0.169511 0
M  V30 12467 C 1155.86 -5.20666 -1.21699 0
M  V30 12468 C 1157.16 -5.13254 0.967859 0
M  V30 12469 H 1158.85 -2.87791 0.825637 0
M  V30 12470 H 1156.4 -1.38377 0.398484 0
M  V30 12471 H 1158.35 -3.99526 -1.34004 0
M  V30 12472 H 1157.08 -2.80024 -1.68089 0
M  V30 12473 H 1155.73 -3.65586 0.272441 0
M  V30 12474 H 1155.38 -4.60987 -2.01246 0
M  V30 12475 H 1155.08 -5.82822 -0.747836 0
M  V30 12476 H 1156.61 -5.87053 -1.6793 0
M  V30 12477 H 1158.02 -5.70298 0.585944 0
M  V30 12478 H 1156.42 -5.84381 1.3645 0
M  V30 12479 H 1157.49 -4.5006 1.80483 0
M  V30 12480 N 1158.83 -0.446794 -1.51134 0
M  V30 12481 C 1159.76 0.350229 -2.30858 0
M  V30 12482 C 1160.74 1.0125 -1.36684 0
M  V30 12483 O 1161.93 1.01433 -1.65605 0
M  V30 12484 C 1159.06 1.4464 -3.15748 0
M  V30 12485 C 1158.01 0.907102 -4.18277 0
M  V30 12486 C 1157.34 2.09974 -4.91747 0
M  V30 12487 C 1158.64 -0.0649758 -5.2226 0
M  V30 12488 H 1160.33 -0.315105 -2.97737 0
M  V30 12489 H 1157.88 -0.152985 -1.43185 0
M  V30 12490 H 1159.83 2.01127 -3.70305 0
M  V30 12491 H 1158.55 2.14016 -2.46708 0
M  V30 12492 H 1157.21 0.364382 -3.64785 0
M  V30 12493 H 1156.86 2.77991 -4.19202 0
M  V30 12494 H 1156.56 1.74523 -5.61084 0
M  V30 12495 H 1158.08 2.66996 -5.49131 0
M  V30 12496 H 1159.5 0.4099 -5.71833 0
M  V30 12497 H 1157.9 -0.332529 -5.99178 0
M  V30 12498 H 1158.97 -0.998681 -4.74504 0
M  V30 12499 N 1160.31 1.56586 -0.178487 0
M  V30 12500 C 1161.24 2.21313 0.744486 0
M  V30 12501 C 1162.22 1.17098 1.23377 0
M  V30 12502 O 1163.4 1.45551 1.28563 0
M  V30 12503 C 1160.53 2.8595 1.97103 0
M  V30 12504 C 1159.49 3.96266 1.61732 0
M  V30 12505 C 1158.81 4.47987 2.91911 0
M  V30 12506 C 1160.11 5.15503 0.839868 0
M  V30 12507 H 1161.81 2.98698 0.204938 0
M  V30 12508 H 1159.35 1.43672 0.0971306 0
M  V30 12509 H 1161.31 3.29909 2.6218 0
M  V30 12510 H 1160.03 2.05946 2.53484 0
M  V30 12511 H 1158.69 3.52974 0.990208 0
M  V30 12512 H 1158.34 3.64765 3.46346 0
M  V30 12513 H 1158.04 5.22413 2.68995 0
M  V30 12514 H 1159.56 4.94637 3.58004 0
M  V30 12515 H 1160.98 5.5611 1.39337 0
M  V30 12516 H 1159.37 5.95891 0.709473 0
M  V30 12517 H 1160.44 4.84628 -0.162396 0
M  V30 12518 N 1161.79 -0.095206 1.57312 0
M  V30 12519 C 1163.03 -0.797142 1.85715 0
M  V30 12520 C 1163.36 -1.79275 0.767171 0
M  V30 12521 O 1162.63 -1.94808 -0.206584 0
M  V30 12522 H 1161.21 -0.297382 0.685254 0
M  V30 12523 H 1163.87 -0.0768617 1.94748 0
M  V30 12524 H 1162.96 -1.32779 2.82447 0
M  V30 12525 N 1163.26 -1.53291 -0.366026 0
M  V30 12526 C 1164.17 -1.82656 -1.47221 0
M  V30 12527 C 1165.19 -0.71491 -1.58635 0
M  V30 12528 O 1166.37 -1.00492 -1.74538 0
M  V30 12529 C 1163.43 -2.00995 -2.82492 0
M  V30 12530 C 1162.49 -3.24895 -2.8061 0
M  V30 12531 C 1161.73 -3.4235 -4.09429 0
M  V30 12532 O 1161.95 -2.6411 -5.05571 0
M  V30 12533 O 1160.88 -4.35702 -4.15268 0
M  V30 12534 H 1164.71 -2.76634 -1.2533 0
M  V30 12535 H 1162.29 -1.38665 -0.556084 0
M  V30 12536 H 1164.18 -2.14632 -3.62645 0
M  V30 12537 H 1162.85 -1.10207 -3.04362 0
M  V30 12538 H 1161.76 -3.16682 -1.99157 0
M  V30 12539 H 1163.09 -4.15604 -2.63694 0
M  V30 12540 N 1164.74 0.6258 -1.44643 0
M  V30 12541 C 1165.97 1.41233 -1.51198 0
M  V30 12542 C 1166.39 1.88291 -0.138572 0
M  V30 12543 O 1165.74 1.61151 0.856537 0
M  V30 12544 C 1165.79 2.62908 -2.48117 0
M  V30 12545 O 1165.51 2.1781 -3.80119 0
M  V30 12546 C 1167.02 3.55976 -2.6419 0
M  V30 12547 H 1164.24 0.432954 -0.512632 0
M  V30 12548 H 1166.78 0.76486 -1.89658 0
M  V30 12549 H 1164.93 3.23735 -2.12778 0
M  V30 12550 H 1165.35 2.96732 -4.32493 0
M  V30 12551 H 1166.82 4.37943 -3.3602 0
M  V30 12552 H 1167.3 4.05133 -1.696 0
M  V30 12553 H 1167.91 3.01014 -3.00451 0
M  V30 12554 N 1166.22 1.31629 0.866686 0
M  V30 12555 C 1167.63 1.19347 1.43573 0
M  V30 12556 C 1167.98 -0.198765 1.95191 0
M  V30 12557 O 1167.11 -1.09674 1.86549 0
M  V30 12558 C 1167.7 2.16055 2.6097 0
M  V30 12559 C 1166.26 2.07697 3.13909 0
M  V30 12560 C 1165.41 2.05099 1.86627 0
M  V30 12561 H 1168.36 1.43633 0.674929 0
M  V30 12562 H 1168.38 1.75207 3.37761 0
M  V30 12563 H 1167.89 3.17375 2.23371 0
M  V30 12564 H 1165.99 1.09583 3.56121 0
M  V30 12565 H 1166.11 2.96958 3.75969 0
M  V30 12566 H 1164.47 1.50162 2.05727 0
M  V30 12567 H 1165.25 3.0818 1.51261 0
M  V30 12568 N 1167.7 -1.08142 1.14644 0
M  V30 12569 C 1169.11 -1.62061 0.926986 0
M  V30 12570 C 1169.46 -1.88805 -0.533578 0
M  V30 12571 O 1168.59 -1.64753 -1.40305 0
M  V30 12572 C 1169.18 -2.94425 1.67629 0
M  V30 12573 C 1167.74 -3.45118 1.50235 0
M  V30 12574 C 1166.89 -2.19307 1.69705 0
M  V30 12575 H 1169.84 -0.913326 1.29785 0
M  V30 12576 H 1169.86 -3.62987 1.14107 0
M  V30 12577 H 1169.37 -2.74928 2.73927 0
M  V30 12578 H 1167.47 -3.69713 0.462967 0
M  V30 12579 H 1167.59 -4.2169 2.27408 0
M  V30 12580 H 1165.95 -2.28611 1.12291 0
M  V30 12581 H 1166.73 -2.02315 2.77351 0
M  V30 12582 N 1169.18 -0.941978 -1.26351 0
M  V30 12583 C 1170.42 -0.590845 -1.94002 0
M  V30 12584 C 1170.76 0.868004 -1.73722 0
M  V30 12585 O 1170.03 1.62111 -1.07472 0
M  V30 12586 C 1170.31 -0.934901 -3.47752 0
M  V30 12587 C 1170.17 -2.44855 -3.77314 0
M  V30 12588 C 1171.49 -0.450888 -4.37784 0
M  V30 12589 H 1168.61 -0.21613 -0.704597 0
M  V30 12590 H 1171.25 -1.17634 -1.49205 0
M  V30 12591 H 1169.4 -0.436648 -3.86038 0
M  V30 12592 H 1171.07 -3.01959 -3.48738 0
M  V30 12593 H 1169.31 -2.89169 -3.23363 0
M  V30 12594 H 1169.98 -2.6398 -4.84787 0
M  V30 12595 H 1172.46 -0.878107 -4.06729 0
M  V30 12596 H 1171.34 -0.720439 -5.44152 0
M  V30 12597 H 1171.6 0.649162 -4.37308 0
M  V30 12598 N 1170.66 1.40747 -0.709091 0
M  V30 12599 C 1171.57 2.3454 -0.0532205 0
M  V30 12600 C 1172.58 1.56956 0.751057 0
M  V30 12601 O 1173.76 1.89375 0.685509 0
M  V30 12602 C 1170.82 3.35809 0.862157 0
M  V30 12603 C 1169.88 4.29273 0.0485632 0
M  V30 12604 C 1169.12 5.25705 0.920345 0
M  V30 12605 O 1169.34 5.27933 2.15969 0
M  V30 12606 O 1168.27 6.00806 0.3628 0
M  V30 12607 H 1172.1 2.92232 -0.826698 0
M  V30 12608 H 1169.68 1.4183 -0.469519 0
M  V30 12609 H 1171.57 3.97931 1.38668 0
M  V30 12610 H 1170.24 2.8054 1.61489 0
M  V30 12611 H 1169.15 3.70456 -0.520873 0
M  V30 12612 H 1170.48 4.87676 -0.665807 0
M  V30 12613 N 1172.13 0.454803 1.50895 0
M  V30 12614 C 1173.38 -0.107367 2.01414 0
M  V30 12615 C 1173.7 -1.42243 1.34262 0
M  V30 12616 O 1174.9 -2.06858 1.75846 0
M  V30 12617 C 1173.36 -0.241872 3.59086 0
M  V30 12618 C 1172.97 1.06379 4.35187 0
M  V30 12619 C 1174.71 -0.756873 4.17698 0
M  V30 12620 C 1172.62 0.893973 5.84604 0
M  V30 12621 H 1171.55 -0.0439003 0.752721 0
M  V30 12622 H 1174.2 0.587225 1.7385 0
M  V30 12623 H 1172.58 -0.999873 3.83169 0
M  V30 12624 H 1173.75 1.83148 4.2284 0
M  V30 12625 H 1172.07 1.50865 3.88109 0
M  V30 12626 H 1174.67 -0.900697 5.27059 0
M  V30 12627 H 1175.01 -1.74397 3.7801 0
M  V30 12628 H 1175.54 -0.0567088 3.9776 0
M  V30 12629 H 1172.28 1.85395 6.28736 0
M  V30 12630 H 1171.8 0.166387 5.99569 0
M  V30 12631 H 1173.48 0.554084 6.44623 0
M  V30 12632 N 1173.61 -1.56489 0.186789 0
M  V30 12633 C 1174.56 -2.20034 -0.754164 0
M  V30 12634 C 1175.55 -1.16899 -1.22601 0
M  V30 12635 O 1176.76 -1.35064 -1.18987 0
M  V30 12636 H 1173.13 -0.705058 -0.261529 0
M  V30 12637 H 1175.11 -2.97766 -0.194418 0
M  V30 12638 C 1173.85 -2.86733 -1.9667 0
M  V30 12639 H 1173.18 -3.65831 -1.61268 0
M  V30 12640 H 1174.62 -3.34645 -2.60363 0
M  V30 12641 C 1173.08 -1.87325 -2.8002 0
M  V30 12642 O 1173.61 -1.36835 -3.77676 0
M  V30 12643 N 1171.81 -1.55738 -2.45345 0
M  V30 12644 H 1171.36 -1.9699 -1.6599 0
M  V30 12645 H 1171.32 -0.894805 -3.01398 0
M  V30 12646 N 1175.09 0.086862 -1.5736 0
M  V30 12647 C 1176.31 0.806017 -1.91097 0
M  V30 12648 C 1176.74 1.71082 -0.78183 0
M  V30 12649 O 1176.1 1.79335 0.266175 0
M  V30 12650 C 1176.15 1.5884 -3.23732 0
M  V30 12651 O 1175.25 2.69798 -3.11902 0
M  V30 12652 H 1174.59 0.220899 -0.626179 0
M  V30 12653 H 1177.12 0.059619 -2.04513 0
M  V30 12654 H 1177.13 1.97088 -3.5724 0
M  V30 12655 H 1175.81 0.924426 -4.05496 0
M  V30 12656 H 1174.38 2.34519 -2.89923 0
M  V30 12657 N 1176.57 1.53483 0.357892 0
M  V30 12658 C 1177.51 1.80463 1.43881 0
M  V30 12659 C 1178.48 0.649438 1.52877 0
M  V30 12660 O 1179.67 0.892409 1.68644 0
M  V30 12661 C 1176.81 2.00714 2.80727 0
M  V30 12662 C 1175.92 3.28431 2.80637 0
M  V30 12663 C 1175.06 3.38828 4.09107 0
M  V30 12664 C 1174.1 4.60549 4.03189 0
M  V30 12665 N 1173.23 4.68057 5.23323 0
M  V30 12666 H 1178.07 2.72694 1.20174 0
M  V30 12667 H 1175.61 1.35079 0.582422 0
M  V30 12668 H 1177.57 2.10444 3.60235 0
M  V30 12669 H 1176.2 1.11811 3.02817 0
M  V30 12670 H 1175.25 3.27617 1.93317 0
M  V30 12671 H 1176.56 4.18022 2.72138 0
M  V30 12672 H 1175.72 3.47911 4.97034 0
M  V30 12673 H 1174.46 2.47267 4.20369 0
M  V30 12674 H 1173.46 4.51558 3.13649 0
M  V30 12675 H 1174.69 5.53459 3.93523 0
M  V30 12676 H 1172.63 3.794 5.35156 0
M  V30 12677 H 1172.55 5.51563 5.17024 0
M  V30 12678 H 1173.82 4.81433 6.1306 0
M  V30 12679 N 1178.05 -0.61812 1.44973 0
M  V30 12680 C 1178.99 -1.72942 1.52838 0
M  V30 12681 C 1179.96 -1.6181 0.375056 0
M  V30 12682 O 1181.15 -1.81544 0.587075 0
M  V30 12683 C 1178.29 -3.11228 1.49101 0
M  V30 12684 C 1177.4 -3.33243 2.74906 0
M  V30 12685 C 1176.54 -4.61574 2.62912 0
M  V30 12686 C 1175.57 -4.76811 3.8382 0
M  V30 12687 N 1174.71 -5.96432 3.70424 0
M  V30 12688 H 1179.55 -1.65556 2.47781 0
M  V30 12689 H 1177.09 -0.807411 1.2296 0
M  V30 12690 H 1179.05 -3.9122 1.44923 0
M  V30 12691 H 1177.68 -3.17598 0.577163 0
M  V30 12692 H 1176.73 -2.471 2.89216 0
M  V30 12693 H 1178.04 -3.40377 3.64616 0
M  V30 12694 H 1177.19 -5.49746 2.56641 0
M  V30 12695 H 1175.93 -4.5682 1.70784 0
M  V30 12696 H 1174.94 -3.87066 3.90461 0
M  V30 12697 H 1176.16 -4.83371 4.77001 0
M  V30 12698 H 1174.11 -5.92742 2.81057 0
M  V30 12699 H 1174.03 -6.0468 4.5376 0
M  V30 12700 H 1175.29 -6.8713 3.68067 0
M  V30 12701 N 1179.52 -1.32087 -0.859693 0
M  V30 12702 C 1180.43 -1.22587 -2.00024 0
M  V30 12703 C 1181.45 -0.140477 -1.73432 0
M  V30 12704 O 1182.63 -0.360213 -1.98153 0
M  V30 12705 C 1179.69 -0.944195 -3.33595 0
M  V30 12706 C 1178.75 -2.11752 -3.73443 0
M  V30 12707 C 1177.98 -1.84919 -5.0064 0
M  V30 12708 O 1178.21 -0.789299 -5.64913 0
M  V30 12709 O 1177.14 -2.70885 -5.37499 0
M  V30 12710 H 1180.97 -2.18457 -2.10974 0
M  V30 12711 H 1178.55 -1.11927 -0.989577 0
M  V30 12712 H 1180.43 -0.803389 -4.13671 0
M  V30 12713 H 1179.11 -0.0156083 -3.23696 0
M  V30 12714 H 1178.02 -2.31378 -2.93965 0
M  V30 12715 H 1179.35 -3.02872 -3.87981 0
M  V30 12716 N 1181 1.07532 -1.15215 0
M  V30 12717 C 1182.23 1.83817 -0.949687 0
M  V30 12718 C 1182.64 1.82004 0.501991 0
M  V30 12719 O 1182 1.23014 1.34811 0
M  V30 12720 C 1182.05 3.30978 -1.45382 0
M  V30 12721 O 1181.77 3.32844 -2.84863 0
M  V30 12722 C 1183.27 4.24037 -1.29257 0
M  V30 12723 H 1180.49 0.58 -0.337404 0
M  V30 12724 H 1183.04 1.35752 -1.52944 0
M  V30 12725 H 1181.19 3.76399 -0.916638 0
M  V30 12726 H 1181.61 4.24773 -3.07682 0
M  V30 12727 H 1183.08 5.25371 -1.69379 0
M  V30 12728 H 1183.56 4.38563 -0.236519 0
M  V30 12729 H 1184.16 3.8445 -1.81874 0
M  V30 12730 N 1182.48 0.948665 1.2585 0
M  V30 12731 C 1183.71 0.616741 1.98018 0
M  V30 12732 C 1184.13 -0.803005 1.70098 0
M  V30 12733 O 1183.49 -1.54208 0.953392 0
M  V30 12734 C 1183.54 0.874429 3.49837 0
M  V30 12735 O 1182.64 -0.0497568 4.1237 0
M  V30 12736 H 1181.98 0.235112 0.620982 0
M  V30 12737 H 1184.51 1.27364 1.60124 0
M  V30 12738 H 1184.52 0.798309 4.00114 0
M  V30 12739 H 1183.2 1.90922 3.69488 0
M  V30 12740 H 1181.77 0.0780591 3.72818 0
M  V30 12741 N 1183.96 -1.40369 0.716545 0
M  V30 12742 C 1185.21 -2.00473 0.255959 0
M  V30 12743 C 1185.53 -1.57104 -1.15514 0
M  V30 12744 O 1184.8 -0.810925 -1.78328 0
M  V30 12745 H 1183.38 -0.741357 0.0916427 0
M  V30 12746 H 1186.04 -1.71692 0.922389 0
M  V30 12747 H 1185.14 -3.10752 0.289806 0
M  V30 12748 N 1185.44 -0.462799 -1.50652 0
M  V30 12749 C 1186.66 0.0952726 -2.07181 0
M  V30 12750 C 1187.09 1.33479 -1.32533 0
M  V30 12751 O 1186.44 1.77473 -0.370564 0
M  V30 12752 C 1186.49 0.370592 -3.58691 0
M  V30 12753 O 1185.6 1.4526 -3.85971 0
M  V30 12754 H 1184.94 -0.00932702 -0.663934 0
M  V30 12755 H 1187.47 -0.651458 -1.93951 0
M  V30 12756 H 1187.48 0.613551 -4.0336 0
M  V30 12757 H 1186.15 -0.535219 -4.12442 0
M  V30 12758 H 1184.73 1.1976 -3.53146 0
M  V30 12759 N 1186.91 1.56388 -0.195085 0
M  V30 12760 C 1187.85 2.16316 0.757643 0
M  V30 12761 C 1188.86 1.12498 1.17678 0
M  V30 12762 O 1190.05 1.39591 1.11251 0
M  V30 12763 C 1187.15 2.7104 2.03447 0
M  V30 12764 C 1186.32 3.99759 1.77514 0
M  V30 12765 C 1185.38 4.3931 2.89644 0
M  V30 12766 O 1184.41 5.06732 2.59252 0
M  V30 12767 N 1185.61 4.02813 4.17998 0
M  V30 12768 H 1188.37 2.98696 0.24517 0
M  V30 12769 H 1185.93 1.61895 -0.0131194 0
M  V30 12770 H 1187.93 2.94483 2.776 0
M  V30 12771 H 1186.5 1.93114 2.45817 0
M  V30 12772 H 1185.72 3.84448 0.8714 0
M  V30 12773 H 1187 4.83782 1.57585 0
M  V30 12774 H 1186.4 3.4858 4.45543 0
M  V30 12775 H 1184.96 4.31206 4.88779 0
M  V30 12776 N 1188.39 -0.0785156 1.57404 0
M  V30 12777 C 1189.34 -1.09402 2.03224 0
M  V30 12778 C 1190.31 -1.38849 0.911596 0
M  V30 12779 O 1191.49 -1.50031 1.17878 0
M  V30 12780 C 1188.63 -2.40444 2.47549 0
M  V30 12781 C 1187.75 -2.17585 3.73203 0
M  V30 12782 C 1186.88 -3.42143 4.06339 0
M  V30 12783 C 1185.92 -3.14619 5.25054 0
M  V30 12784 N 1185.06 -4.31489 5.5386 0
M  V30 12785 H 1189.9 -0.696307 2.89751 0
M  V30 12786 H 1187.44 -0.332261 1.43298 0
M  V30 12787 H 1189.39 -3.16944 2.71298 0
M  V30 12788 H 1188.02 -2.78031 1.64009 0
M  V30 12789 H 1187.08 -1.3181 3.56834 0
M  V30 12790 H 1188.39 -1.93249 4.59844 0
M  V30 12791 H 1187.54 -4.27042 4.30953 0
M  V30 12792 H 1186.28 -3.69549 3.18253 0
M  V30 12793 H 1185.29 -2.28116 5.00243 0
M  V30 12794 H 1186.51 -2.88543 6.14752 0
M  V30 12795 H 1184.46 -4.58939 4.68734 0
M  V30 12796 H 1184.37 -4.10403 6.34906 0
M  V30 12797 H 1185.64 -5.17404 5.83021 0
M  V30 12798 N 1189.87 -1.5367 -0.349747 0
M  V30 12799 C 1190.82 -1.81223 -1.42922 0
M  V30 12800 C 1191.79 -0.657536 -1.52531 0
M  V30 12801 O 1192.97 -0.90134 -1.68168 0
M  V30 12802 C 1190.11 -2.022 -2.79659 0
M  V30 12803 C 1189.23 -3.29915 -2.78891 0
M  V30 12804 C 1188.36 -3.40993 -4.07305 0
M  V30 12805 C 1187.4 -4.6268 -4.00741 0
M  V30 12806 N 1186.54 -4.70826 -5.20833 0
M  V30 12807 H 1191.38 -2.73328 -1.18727 0
M  V30 12808 H 1188.91 -1.35386 -0.57525 0
M  V30 12809 H 1190.87 -2.12351 -3.59114 0
M  V30 12810 H 1189.5 -1.13416 -3.0222 0
M  V30 12811 H 1188.55 -3.28637 -1.91577 0
M  V30 12812 H 1189.87 -4.19459 -2.69917 0
M  V30 12813 H 1189.02 -3.50542 -4.95182 0
M  V30 12814 H 1187.76 -2.49493 -4.19052 0
M  V30 12815 H 1186.76 -4.53215 -3.11249 0
M  V30 12816 H 1187.99 -5.55538 -3.90582 0
M  V30 12817 H 1185.93 -3.82233 -5.33136 0
M  V30 12818 H 1185.85 -5.54297 -5.14092 0
M  V30 12819 H 1187.12 -4.84677 -6.10499 0
M  V30 12820 N 1191.35 0.610423 -1.45298 0
M  V30 12821 C 1192.57 1.40112 -1.52917 0
M  V30 12822 C 1193 1.87404 -0.161696 0
M  V30 12823 O 1192.36 1.59973 0.853135 0
M  V30 12824 C 1192.4 2.58359 -2.51561 0
M  V30 12825 O 1191.51 3.58895 -2.03146 0
M  V30 12826 H 1190.85 0.41841 -0.515586 0
M  V30 12827 H 1193.38 0.743159 -1.90626 0
M  V30 12828 H 1193.39 3.0564 -2.70275 0
M  V30 12829 H 1192.06 2.23286 -3.50879 0
M  V30 12830 H 1190.64 3.18282 -1.94296 0
M  V30 12831 N 1192.83 1.32541 0.852676 0
M  V30 12832 C 1193.76 1.17471 1.96807 0
M  V30 12833 C 1194.77 0.109198 1.62433 0
M  V30 12834 O 1195.96 0.358342 1.74866 0
M  V30 12835 C 1193.06 0.776328 3.29888 0
M  V30 12836 C 1192.23 1.93055 3.9249 0
M  V30 12837 C 1191.29 1.51539 5.03907 0
M  V30 12838 O 1190.32 2.22771 5.23796 0
M  V30 12839 N 1191.52 0.412533 5.79032 0
M  V30 12840 H 1194.29 2.13551 2.10276 0
M  V30 12841 H 1191.85 1.25104 1.02764 0
M  V30 12842 H 1193.84 0.48096 4.01832 0
M  V30 12843 H 1192.41 -0.0933749 3.12461 0
M  V30 12844 H 1191.63 2.39231 3.13309 0
M  V30 12845 H 1192.92 2.70321 4.3105 0
M  V30 12846 H 1192.31 -0.180286 5.65413 0
M  V30 12847 H 1190.87 0.17678 6.5156 0
M  V30 12848 N 1194.3 -1.0692 1.15784 0
M  V30 12849 C 1195.58 -1.76367 0.845825 0
M  V30 12850 C 1195.96 -2.00594 -0.657672 0
M  V30 12851 O 1195.31 -1.62794 -1.60345 0
M  V30 12852 C 1195.52 -3.06913 1.66149 0
M  V30 12853 C 1196.87 -3.81181 1.87046 0
M  V30 12854 O 1197.89 -3.16737 1.62961 0
M  V30 12855 O 1196.75 -4.96936 2.27413 0
M  V30 12856 H 1193.84 -0.766095 0.311493 0
M  V30 12857 H 1196.39 -1.13246 1.26386 0
M  V30 12858 H 1195.16 -2.84924 2.68205 0
M  V30 12859 H 1194.79 -3.77767 1.24007 0
M  V30 12860 N 1195.78 -0.955326 -1.25345 0
M  V30 12861 C 1196.73 -0.474888 -2.25862 0
M  V30 12862 C 1197.7 0.472996 -1.59223 0
M  V30 12863 O 1198.88 0.386094 -1.86853 0
M  V30 12864 C 1196.02 0.240554 -3.44261 0
M  V30 12865 C 1195.14 -0.74465 -4.25534 0
M  V30 12866 C 1194.27 -0.00657513 -5.312 0
M  V30 12867 C 1193.31 -0.982666 -6.04161 0
M  V30 12868 N 1192.45 -0.275418 -7.0156 0
M  V30 12869 H 1197.29 -1.33693 -2.66327 0
M  V30 12870 H 1194.83 -0.670439 -1.30933 0
M  V30 12871 H 1196.78 0.671933 -4.11753 0
M  V30 12872 H 1195.41 1.06664 -3.04668 0
M  V30 12873 H 1194.47 -1.29451 -3.57696 0
M  V30 12874 H 1195.78 -1.48948 -4.76042 0
M  V30 12875 H 1194.93 0.483404 -6.04771 0
M  V30 12876 H 1193.67 0.771035 -4.81567 0
M  V30 12877 H 1192.68 -1.48364 -5.29404 0
M  V30 12878 H 1193.9 -1.76052 -6.55883 0
M  V30 12879 H 1191.85 0.483441 -6.54216 0
M  V30 12880 H 1191.76 -0.959324 -7.49889 0
M  V30 12881 H 1193.03 0.193002 -7.79261 0
M  V30 12882 N 1197.26 1.39987 -0.723979 0
M  V30 12883 C 1198.51 2.00334 -0.266587 0
M  V30 12884 C 1198.83 1.57714 1.14679 0
M  V30 12885 O 1198.1 0.82037 1.77895 0
M  V30 12886 H 1196.68 0.740861 -0.095573 0
M  V30 12887 H 1199.34 1.712 -0.931481 0
M  V30 12888 H 1198.44 3.10594 -0.306282 0
M  V30 12889 N 1198.74 0.470782 1.50404 0
M  V30 12890 C 1200.15 0.0155901 1.86693 0
M  V30 12891 C 1200.5 -1.38908 1.38561 0
M  V30 12892 O 1199.63 -2.02971 0.750454 0
M  V30 12893 C 1200.22 0.0215152 3.38793 0
M  V30 12894 C 1198.78 -0.378206 3.74495 0
M  V30 12895 C 1197.93 0.407126 2.74295 0
M  V30 12896 H 1200.88 0.68507 1.43152 0
M  V30 12897 H 1200.9 -0.780717 3.72404 0
M  V30 12898 H 1200.41 1.04397 3.73795 0
M  V30 12899 H 1198.51 -1.40503 3.45094 0
M  V30 12900 H 1198.63 -0.0797643 4.79034 0
M  V30 12901 H 1196.99 -0.139123 2.5432 0
M  V30 12902 H 1197.77 1.42909 3.12141 0
M  V30 12903 N 1200.22 -1.56282 0.203376 0
M  V30 12904 C 1201.16 -2.19473 -0.714164 0
M  V30 12905 C 1202.13 -1.14454 -1.20372 0
M  V30 12906 O 1203.32 -1.42739 -1.26611 0
M  V30 12907 C 1200.46 -2.86451 -1.92457 0
M  V30 12908 C 1199.57 -4.06017 -1.47561 0
M  V30 12909 C 1198.71 -4.60829 -2.64216 0
M  V30 12910 C 1197.75 -5.72734 -2.15967 0
M  V30 12911 N 1196.88 -6.21916 -3.25829 0
M  V30 12912 H 1201.72 -2.97523 -0.168558 0
M  V30 12913 H 1199.26 -1.46926 -0.0714525 0
M  V30 12914 H 1201.22 -3.23459 -2.63496 0
M  V30 12915 H 1199.85 -2.10951 -2.44335 0
M  V30 12916 H 1198.9 -3.74617 -0.660784 0
M  V30 12917 H 1200.21 -4.8693 -1.08168 0
M  V30 12918 H 1199.37 -5.00185 -3.43366 0
M  V30 12919 H 1198.11 -3.7904 -3.06887 0
M  V30 12920 H 1197.11 -5.32899 -1.35273 0
M  V30 12921 H 1198.34 -6.56346 -1.74316 0
M  V30 12922 H 1196.28 -5.43047 -3.68016 0
M  V30 12923 H 1196.2 -6.97904 -2.90631 0
M  V30 12924 H 1197.47 -6.65927 -4.05168 0
M  V30 12925 N 1201.7 0.070167 -1.57444 0
M  V30 12926 C 1202.92 0.781894 -1.91557 0
M  V30 12927 C 1203.34 1.71037 -0.799489 0
M  V30 12928 O 1202.7 1.81082 0.227062 0
M  V30 12929 C 1202.75 1.57415 -3.25427 0
M  V30 12930 O 1202.47 0.682991 -4.32743 0
M  V30 12931 C 1203.97 2.38673 -3.73564 0
M  V30 12932 H 1201.19 0.222211 -0.633138 0
M  V30 12933 H 1203.73 0.0399504 -2.04461 0
M  V30 12934 H 1201.89 2.26835 -3.14045 0
M  V30 12935 H 1202.3 1.2342 -5.09772 0
M  V30 12936 H 1203.78 2.89716 -4.6986 0
M  V30 12937 H 1204.25 3.18269 -3.02657 0
M  V30 12938 H 1204.86 1.74405 -3.87896 0
M  V30 12939 N 1203.17 1.53854 0.341593 0
M  V30 12940 C 1204.42 1.70856 1.07948 0
M  V30 12941 C 1204.74 0.475474 1.89114 0
M  V30 12942 O 1204.01 -0.510592 1.89129 0
M  V30 12943 H 1202.59 0.629914 0.401519 0
M  V30 12944 H 1205.25 1.91112 0.382393 0
M  V30 12945 H 1204.35 2.5803 1.75575 0
M  V30 12946 N 1204.65 -0.602709 1.4562 0
M  V30 12947 C 1205.88 -1.39299 1.53657 0
M  V30 12948 C 1206.3 -1.87315 0.171632 0
M  V30 12949 O 1205.66 -1.60423 -0.844639 0
M  V30 12950 C 1205.71 -2.57021 2.52928 0
M  V30 12951 O 1204.81 -3.57812 2.05047 0
M  V30 12952 H 1204.15 -0.41567 0.517798 0
M  V30 12953 H 1206.68 -0.73304 1.91018 0
M  V30 12954 H 1206.69 -3.04202 2.71892 0
M  V30 12955 H 1205.37 -2.21422 3.52058 0
M  V30 12956 H 1203.94 -3.17247 1.95981 0
M  V30 12957 N 1206.13 -1.32992 -0.845635 0
M  V30 12958 C 1207.38 -1.24249 -1.60281 0
M  V30 12959 C 1207.71 0.193049 -1.93238 0
M  V30 12960 O 1206.98 1.1326 -1.58122 0
M  V30 12961 C 1207.27 -2.1111 -2.91727 0
M  V30 12962 C 1207.12 -3.63088 -2.65494 0
M  V30 12963 C 1208.44 -1.97913 -3.93089 0
M  V30 12964 H 1205.56 -0.452698 -0.581578 0
M  V30 12965 H 1208.2 -1.63026 -0.975828 0
M  V30 12966 H 1206.35 -1.78169 -3.45236 0
M  V30 12967 H 1208.02 -4.06287 -2.18469 0
M  V30 12968 H 1206.26 -3.85304 -1.99306 0
M  V30 12969 H 1206.94 -4.19202 -3.59129 0
M  V30 12970 H 1209.41 -2.26788 -3.48864 0
M  V30 12971 H 1208.29 -2.60952 -4.82903 0
M  V30 12972 H 1208.55 -0.949378 -4.31786 0
M  V30 12973 N 1207.61 1.06304 -1.1635 0
M  V30 12974 C 1208.55 2.13776 -0.869965 0
M  V30 12975 C 1209.52 1.65105 0.181541 0
M  V30 12976 O 1210.71 1.90743 0.0467705 0
M  V30 12977 C 1207.85 3.43034 -0.377077 0
M  V30 12978 C 1206.96 4.0544 -1.4914 0
M  V30 12979 C 1206.1 5.22572 -0.953538 0
M  V30 12980 C 1205.14 5.76961 -2.04407 0
M  V30 12981 N 1204.27 6.85409 -1.52181 0
M  V30 12982 H 1209.11 2.38224 -1.79034 0
M  V30 12983 H 1206.65 1.16882 -0.893136 0
M  V30 12984 H 1208.61 4.17136 -0.0729426 0
M  V30 12985 H 1207.24 3.18804 0.506359 0
M  V30 12986 H 1206.29 3.28886 -1.9115 0
M  V30 12987 H 1207.6 4.41859 -2.31434 0
M  V30 12988 H 1206.76 6.037 -0.602579 0
M  V30 12989 H 1205.5 4.87598 -0.099897 0
M  V30 12990 H 1204.5 4.9447 -2.40373 0
M  V30 12991 H 1205.73 6.13987 -2.90167 0
M  V30 12992 H 1203.67 6.52354 -0.690697 0
M  V30 12993 H 1203.59 7.2077 -2.28092 0
M  V30 12994 H 1204.86 7.70217 -1.19942 0
M  V30 12995 N 1209.09 0.96196 1.24836 0
M  V30 12996 C 1210.03 0.48686 2.25607 0
M  V30 12997 C 1211 -0.464546 1.59472 0
M  V30 12998 O 1212.19 -0.376179 1.87055 0
M  V30 12999 C 1209.33 -0.222294 3.44383 0
M  V30 13000 C 1208.44 0.767206 4.25133 0
M  V30 13001 C 1207.58 0.0347458 5.31189 0
M  V30 13002 C 1206.61 1.01469 6.03631 0
M  V30 13003 N 1205.75 0.312619 7.01404 0
M  V30 13004 H 1210.59 1.35104 2.65614 0
M  V30 13005 H 1208.13 0.677373 1.30576 0
M  V30 13006 H 1210.09 -0.650087 4.12104 0
M  V30 13007 H 1208.72 -1.05047 3.0523 0
M  V30 13008 H 1207.77 1.31346 3.57005 0
M  V30 13009 H 1209.08 1.5147 4.75245 0
M  V30 13010 H 1208.23 -0.451325 6.05019 0
M  V30 13011 H 1206.97 -0.745485 4.81969 0
M  V30 13012 H 1205.98 1.51169 5.28609 0
M  V30 13013 H 1207.2 1.79527 6.5494 0
M  V30 13014 H 1205.15 -0.44874 6.54463 0
M  V30 13015 H 1205.07 0.999079 7.49369 0
M  V30 13016 H 1206.33 -0.151673 7.79352 0
M  V30 13017 N 1210.56 -1.39601 0.731392 0
M  V30 13018 C 1211.47 -2.34425 0.090527 0
M  V30 13019 C 1212.49 -1.58131 -0.725992 0
M  V30 13020 O 1213.67 -1.90441 -0.655294 0
M  V30 13021 C 1210.73 -3.37138 -0.808624 0
M  V30 13022 C 1209.79 -4.29295 0.0197365 0
M  V30 13023 C 1209.02 -5.27102 -0.836593 0
M  V30 13024 O 1209.25 -5.31302 -2.07543 0
M  V30 13025 O 1208.18 -6.01307 -0.267172 0
M  V30 13026 H 1212.01 -2.9088 0.873084 0
M  V30 13027 H 1209.59 -1.41066 0.492024 0
M  V30 13028 H 1211.47 -4.00087 -1.32319 0
M  V30 13029 H 1210.15 -2.83074 -1.57006 0
M  V30 13030 H 1209.06 -3.69581 0.579744 0
M  V30 13031 H 1210.39 -4.86555 0.743308 0
M  V30 13032 N 1212.04 -0.478751 -1.50152 0
M  V30 13033 C 1212.99 0.311426 -2.28689 0
M  V30 13034 C 1213.96 0.980375 -1.34082 0
M  V30 13035 O 1215.14 0.991337 -1.63025 0
M  V30 13036 C 1212.28 1.38302 -3.16175 0
M  V30 13037 C 1211.4 0.728084 -4.2582 0
M  V30 13038 C 1210.53 1.77822 -5.00552 0
M  V30 13039 C 1209.57 1.10395 -6.02063 0
M  V30 13040 N 1208.71 2.09728 -6.70044 0
M  V30 13041 H 1213.55 -0.364592 -2.95761 0
M  V30 13042 H 1211.09 -0.191645 -1.45846 0
M  V30 13043 H 1213.04 2.01606 -3.65255 0
M  V30 13044 H 1211.67 2.0281 -2.51133 0
M  V30 13045 H 1210.73 -0.0177026 -3.80396 0
M  V30 13046 H 1212.04 0.196209 -4.98414 0
M  V30 13047 H 1211.19 2.48687 -5.53389 0
M  V30 13048 H 1209.93 2.34392 -4.27682 0
M  V30 13049 H 1208.94 0.38096 -5.48479 0
M  V30 13050 H 1210.16 0.545045 -6.76909 0
M  V30 13051 H 1208.11 2.65301 -5.9996 0
M  V30 13052 H 1208.02 1.61546 -7.38538 0
M  V30 13053 H 1209.29 2.7995 -7.27495 0
M  V30 13054 N 1213.52 1.56172 -0.211661 0
M  V30 13055 C 1214.48 2.18602 0.688906 0
M  V30 13056 C 1215.48 1.14508 1.12892 0
M  V30 13057 O 1216.67 1.39799 1.03932 0
M  V30 13058 C 1213.81 2.80141 1.94253 0
M  V30 13059 H 1215 2.9955 0.144765 0
M  V30 13060 H 1212.55 1.56254 0.0379615 0
M  V30 13061 H 1213.29 2.03035 2.52878 0
M  V30 13062 H 1213.07 3.56358 1.63558 0
M  V30 13063 H 1214.56 3.28026 2.58436 0
M  V30 13064 N 1215 -0.0618163 1.57479 0
M  V30 13065 C 1216.24 -0.760193 1.88013 0
M  V30 13066 C 1216.58 -1.76718 0.805258 0
M  V30 13067 O 1215.85 -1.93633 -0.183408 0
M  V30 13068 C 1216.14 -1.45924 3.29208 0
M  V30 13069 C 1215.99 -0.467994 4.47359 0
M  V30 13070 C 1217.31 -2.40166 3.68793 0
M  V30 13071 H 1214.43 -0.274896 0.683814 0
M  V30 13072 H 1217.07 -0.0232433 1.89986 0
M  V30 13073 H 1215.22 -2.08741 3.27657 0
M  V30 13074 H 1216.89 0.155735 4.61037 0
M  V30 13075 H 1215.13 0.215797 4.33263 0
M  V30 13076 H 1215.8 -0.994942 5.42959 0
M  V30 13077 H 1218.28 -1.87419 3.71501 0
M  V30 13078 H 1217.16 -2.86076 4.68457 0
M  V30 13079 H 1217.42 -3.25413 2.99264 0
M  V30 13080 N 1216.48 -1.54033 -0.333429 0
M  V30 13081 C 1217.42 -1.82729 -1.40992 0
M  V30 13082 C 1218.39 -0.673677 -1.51825 0
M  V30 13083 O 1219.58 -0.919126 -1.67203 0
M  V30 13084 C 1216.72 -2.05155 -2.77498 0
M  V30 13085 C 1215.83 -3.32854 -2.75376 0
M  V30 13086 C 1214.97 -3.45294 -4.03665 0
M  V30 13087 C 1214.01 -4.66905 -3.95811 0
M  V30 13088 N 1213.14 -4.76323 -5.1581 0
M  V30 13089 H 1217.98 -2.74572 -1.15821 0
M  V30 13090 H 1215.52 -1.35988 -0.560859 0
M  V30 13091 H 1217.48 -2.16148 -3.56841 0
M  V30 13092 H 1216.11 -1.16615 -3.01 0
M  V30 13093 H 1215.16 -3.30651 -1.88081 0
M  V30 13094 H 1216.47 -4.22299 -2.65453 0
M  V30 13095 H 1215.63 -3.55775 -4.91436 0
M  V30 13096 H 1214.36 -2.53924 -4.16382 0
M  V30 13097 H 1213.37 -4.56491 -3.06425 0
M  V30 13098 H 1214.59 -5.59649 -3.84668 0
M  V30 13099 H 1212.54 -3.87866 -5.29052 0
M  V30 13100 H 1212.46 -5.59719 -5.08184 0
M  V30 13101 H 1213.73 -4.91125 -6.05324 0
M  V30 13102 N 1217.95 0.594978 -1.45938 0
M  V30 13103 C 1219.37 1.17703 -1.44924 0
M  V30 13104 C 1219.72 1.9534 -0.183522 0
M  V30 13105 O 1218.84 2.04276 0.714163 0
M  V30 13106 C 1219.44 2.14119 -2.62561 0
M  V30 13107 C 1218 2.67674 -2.64627 0
M  V30 13108 C 1217.14 1.43312 -2.37397 0
M  V30 13109 H 1220.09 0.383583 -1.53995 0
M  V30 13110 H 1220.11 2.97374 -2.3738 0
M  V30 13111 H 1219.63 1.57586 -3.54667 0
M  V30 13112 H 1217.73 3.28111 -1.76562 0
M  V30 13113 H 1217.84 3.11246 -3.64229 0
M  V30 13114 H 1216.2 1.72702 -1.87206 0
M  V30 13115 H 1216.99 0.886276 -3.31663 0
M  V30 13116 N 1219.43 1.33438 0.838571 0
M  V30 13117 C 1220.34 1.25753 1.98049 0
M  V30 13118 C 1221.36 0.168051 1.73187 0
M  V30 13119 O 1222.53 0.391691 1.97554 0
M  V30 13120 C 1219.6 0.997148 3.32051 0
M  V30 13121 C 1218.66 2.17667 3.70027 0
M  V30 13122 C 1217.89 1.92861 4.97635 0
M  V30 13123 O 1218.12 0.879072 5.63585 0
M  V30 13124 O 1217.05 2.79402 5.33121 0
M  V30 13125 H 1220.88 2.21786 2.07472 0
M  V30 13126 H 1218.46 1.13488 0.971645 0
M  V30 13127 H 1220.34 0.869099 4.1234 0
M  V30 13128 H 1219.02 0.0671036 3.2363 0
M  V30 13129 H 1217.93 2.36025 2.90246 0
M  V30 13130 H 1219.26 3.09006 3.83114 0
M  V30 13131 N 1220.91 -1.05686 1.16912 0
M  V30 13132 C 1221.82 -2.16824 0.8958 0
M  V30 13133 C 1222.84 -1.73482 -0.134215 0
M  V30 13134 O 1224.01 -2.01352 0.0438776 0
M  V30 13135 C 1221.08 -3.44298 0.407427 0
M  V30 13136 C 1220.14 -4.02114 1.50342 0
M  V30 13137 C 1219.37 -5.23503 1.03826 0
M  V30 13138 O 1219.59 -5.70295 -0.109579 0
M  V30 13139 O 1218.53 -5.73432 1.8292 0
M  V30 13140 H 1222.35 -2.42725 1.82533 0
M  V30 13141 H 1219.94 -1.15339 0.949589 0
M  V30 13142 H 1221.82 -4.21159 0.142356 0
M  V30 13143 H 1220.5 -3.19908 -0.494009 0
M  V30 13144 H 1219.4 -3.26715 1.82231 0
M  V30 13145 H 1220.74 -4.30811 2.38039 0
M  V30 13146 N 1222.39 -0.968567 -1.24324 0
M  V30 13147 C 1223.64 -0.629682 -1.9204 0
M  V30 13148 C 1223.96 0.837906 -1.7608 0
M  V30 13149 O 1223.23 1.5982 -1.13289 0
M  V30 13150 H 1221.81 -0.229901 -0.710742 0
M  V30 13151 H 1224.47 -1.22982 -1.512 0
M  V30 13152 H 1223.57 -0.871034 -2.99699 0
M  V30 13153 N 1223.87 1.39211 -0.738786 0
M  V30 13154 C 1224.8 2.29117 -0.0616489 0
M  V30 13155 C 1225.81 1.47008 0.699462 0
M  V30 13156 O 1227 1.70041 0.542998 0
M  V30 13157 C 1224.1 3.25692 0.936893 0
M  V30 13158 C 1223.27 4.3676 0.236515 0
M  V30 13159 C 1222.33 5.1362 1.1437 0
M  V30 13160 O 1221.36 5.65816 0.619762 0
M  V30 13161 N 1222.56 5.25184 2.4731 0
M  V30 13162 H 1225.33 2.8787 -0.833711 0
M  V30 13163 H 1222.89 1.50832 -0.588323 0
M  V30 13164 H 1224.88 3.73987 1.54648 0
M  V30 13165 H 1223.45 2.67943 1.61014 0
M  V30 13166 H 1222.67 3.90293 -0.553594 0
M  V30 13167 H 1223.96 5.08192 -0.248707 0
M  V30 13168 H 1223.35 4.84302 2.92349 0
M  V30 13169 H 1221.91 5.76905 3.03355 0
M  V30 13170 N 1225.34 0.486708 1.49896 0
M  V30 13171 C 1226.27 -0.288898 2.31706 0
M  V30 13172 C 1227.26 -0.975901 1.3932 0
M  V30 13173 O 1228.44 -0.970065 1.68236 0
M  V30 13174 C 1225.57 -1.36218 3.19471 0
M  V30 13175 C 1224.52 -0.795884 4.20535 0
M  V30 13176 C 1223.85 -1.96862 4.97141 0
M  V30 13177 C 1225.15 0.203421 5.21904 0
M  V30 13178 H 1226.84 0.393934 2.96797 0
M  V30 13179 H 1224.39 0.190894 1.42729 0
M  V30 13180 H 1226.34 -1.91238 3.75508 0
M  V30 13181 H 1225.07 -2.074 2.52295 0
M  V30 13182 H 1223.73 -0.267538 3.65622 0
M  V30 13183 H 1223.37 -2.66779 4.26425 0
M  V30 13184 H 1223.07 -1.59585 5.65514 0
M  V30 13185 H 1224.6 -2.52343 5.56017 0
M  V30 13186 H 1226.01 -0.258144 5.72719 0
M  V30 13187 H 1224.41 0.491273 5.98086 0
M  V30 13188 H 1225.48 1.12414 4.7169 0
M  V30 13189 N 1226.82 -1.56058 0.219941 0
M  V30 13190 C 1228.07 -1.98554 -0.412808 0
M  V30 13191 C 1228.4 -1.10742 -1.5953 0
M  V30 13192 O 1227.68 -0.164757 -1.93801 0
M  V30 13193 C 1227.96 -3.4995 -0.848923 0
M  V30 13194 C 1227.81 -4.48535 0.337094 0
M  V30 13195 C 1229.13 -4.05703 -1.70567 0
M  V30 13196 H 1226.25 -0.721869 -0.148576 0
M  V30 13197 H 1228.89 -1.87356 0.315852 0
M  V30 13198 H 1227.04 -3.59624 -1.46979 0
M  V30 13199 H 1228.72 -4.50874 0.975216 0
M  V30 13200 H 1226.96 -4.22474 0.984798 0
M  V30 13201 H 1227.63 -5.51999 -0.0109665 0
M  V30 13202 H 1230.11 -3.98964 -1.18182 0
M  V30 13203 H 1228.98 -5.11955 -1.97972 0
M  V30 13204 H 1229.24 -3.52487 -2.66844 0
M  V30 13205 N 1228.3 0.053464 -1.57509 0
M  V30 13206 C 1229.23 1.08863 -2.01696 0
M  V30 13207 C 1230.25 1.33916 -0.925765 0
M  V30 13208 O 1231.44 1.31833 -1.20343 0
M  V30 13209 C 1228.54 2.43567 -2.35644 0
M  V30 13210 C 1227.71 2.38215 -3.66841 0
M  V30 13211 C 1226.77 3.55172 -3.88252 0
M  V30 13212 O 1225.79 3.35769 -4.59617 0
M  V30 13213 N 1227 4.76182 -3.3201 0
M  V30 13214 H 1229.76 0.712192 -2.91115 0
M  V30 13215 H 1227.32 0.241829 -1.60084 0
M  V30 13216 H 1229.31 3.20486 -2.47125 0
M  V30 13217 H 1227.88 2.73145 -1.52022 0
M  V30 13218 H 1227.1 1.46557 -3.65943 0
M  V30 13219 H 1228.39 2.31757 -4.52953 0
M  V30 13220 H 1227.79 4.94849 -2.74118 0
M  V30 13221 H 1226.35 5.5055 -3.4891 0
M  V30 13222 N 1229.78 1.54207 0.325255 0
M  V30 13223 C 1230.71 1.86467 1.40543 0
M  V30 13224 C 1231.69 0.721324 1.54048 0
M  V30 13225 O 1232.88 0.974905 1.67956 0
M  V30 13226 C 1230.01 2.09052 2.77335 0
M  V30 13227 C 1228.96 3.24893 2.78619 0
M  V30 13228 C 1228.29 3.32846 4.1847 0
M  V30 13229 C 1229.59 4.62582 2.42518 0
M  V30 13230 H 1231.28 2.76932 1.13794 0
M  V30 13231 H 1228.83 1.33248 0.545971 0
M  V30 13232 H 1230.78 2.30204 3.52964 0
M  V30 13233 H 1229.5 1.15335 3.05558 0
M  V30 13234 H 1228.16 3.03625 2.05444 0
M  V30 13235 H 1227.81 2.3669 4.43832 0
M  V30 13236 H 1227.51 4.10701 4.20237 0
M  V30 13237 H 1229.03 3.56231 4.95915 0
M  V30 13238 H 1230.45 4.83627 3.07861 0
M  V30 13239 H 1228.84 5.42974 2.55538 0
M  V30 13240 H 1229.91 4.64946 1.3767 0
M  V30 13241 N 1231.26 -0.58723 1.46251 0
M  V30 13242 C 1232.17 -1.72455 1.59048 0
M  V30 13243 C 1233.18 -1.67416 0.47413 0
M  V30 13244 O 1234.36 -1.87406 0.737633 0
M  V30 13245 C 1231.42 -3.08953 1.57318 0
M  V30 13246 C 1230.49 -3.25291 2.80151 0
M  V30 13247 C 1229.72 -4.55277 2.78493 0
M  V30 13248 O 1229.94 -5.38883 1.8698 0
M  V30 13249 O 1228.88 -4.74765 3.69975 0
M  V30 13250 H 1232.7 -1.64606 2.55223 0
M  V30 13251 H 1230.29 -0.753742 1.28993 0
M  V30 13252 H 1232.17 -3.90239 1.59033 0
M  V30 13253 H 1230.84 -3.17249 0.643025 0
M  V30 13254 H 1229.75 -2.43515 2.83991 0
M  V30 13255 H 1231.08 -3.21883 3.7236 0
M  V30 13256 N 1232.74 -1.33881 -0.831482 0
M  V30 13257 C 1233.65 -1.26802 -1.97379 0
M  V30 13258 C 1234.66 -0.177233 -1.73095 0
M  V30 13259 O 1235.84 -0.402163 -1.97344 0
M  V30 13260 C 1232.9 -1.01474 -3.31517 0
M  V30 13261 C 1231.96 -2.19626 -3.68867 0
M  V30 13262 C 1231.2 -1.95497 -4.96605 0
M  V30 13263 O 1231.42 -0.908948 -5.63111 0
M  V30 13264 O 1230.35 -2.82226 -5.31632 0
M  V30 13265 H 1234.18 -2.22883 -2.06293 0
M  V30 13266 H 1231.76 -1.14001 -0.965613 0
M  V30 13267 H 1233.65 -0.890954 -4.11874 0
M  V30 13268 H 1232.32 -0.0842656 -3.2359 0
M  V30 13269 H 1231.23 -2.37561 -2.88991 0
M  V30 13270 H 1232.56 -3.11034 -3.81469 0
M  V30 13271 N 1234.21 1.05064 -1.1747 0
M  V30 13272 C 1235.16 2.12841 -0.89259 0
M  V30 13273 C 1236.13 1.65288 0.16402 0
M  V30 13274 O 1237.32 1.90782 0.026537 0
M  V30 13275 C 1234.46 3.42614 -0.41344 0
M  V30 13276 C 1233.57 4.03835 -1.53432 0
M  V30 13277 C 1232.7 5.21531 -1.00891 0
M  V30 13278 C 1231.74 5.74761 -2.10515 0
M  V30 13279 N 1230.88 6.83756 -1.59442 0
M  V30 13280 H 1235.72 2.36312 -1.81551 0
M  V30 13281 H 1233.26 1.15929 -0.905483 0
M  V30 13282 H 1235.21 4.17035 -0.117181 0
M  V30 13283 H 1233.84 3.19323 0.472517 0
M  V30 13284 H 1232.9 3.2684 -1.94627 0
M  V30 13285 H 1234.21 4.3938 -2.36108 0
M  V30 13286 H 1233.36 6.03027 -0.666575 0
M  V30 13287 H 1232.1 4.87464 -0.151608 0
M  V30 13288 H 1231.11 4.91893 -2.45604 0
M  V30 13289 H 1232.33 6.10875 -2.96663 0
M  V30 13290 H 1230.28 6.51584 -0.759849 0
M  V30 13291 H 1230.19 7.18311 -2.35724 0
M  V30 13292 H 1231.46 7.68901 -1.28105 0
M  V30 13293 N 1235.69 0.975146 1.23809 0
M  V30 13294 C 1236.94 0.639858 1.91704 0
M  V30 13295 C 1237.26 -0.828557 1.76522 0
M  V30 13296 O 1236.53 -1.59217 1.14135 0
M  V30 13297 H 1235.11 0.233667 0.709513 0
M  V30 13298 H 1237.77 1.23782 1.50545 0
M  V30 13299 H 1236.87 0.886915 2.99233 0
M  V30 13300 N 1237.17 -1.38817 0.746158 0
M  V30 13301 C 1238.1 -2.29081 0.0737986 0
M  V30 13302 C 1239.11 -1.47377 -0.691656 0
M  V30 13303 O 1240.3 -1.70326 -0.533973 0
M  V30 13304 C 1237.4 -3.26185 -0.919607 0
M  V30 13305 C 1236.58 -4.36879 -0.213349 0
M  V30 13306 C 1235.64 -5.1422 -1.11644 0
M  V30 13307 O 1234.66 -5.66137 -0.589747 0
M  V30 13308 N 1235.86 -5.26488 -2.44521 0
M  V30 13309 H 1238.63 -2.87424 0.848966 0
M  V30 13310 H 1236.19 -1.50518 0.596314 0
M  V30 13311 H 1238.18 -3.74802 -1.52662 0
M  V30 13312 H 1236.75 -2.68793 -1.5959 0
M  V30 13313 H 1235.97 -3.89994 0.574285 0
M  V30 13314 H 1237.26 -5.08053 0.275655 0
M  V30 13315 H 1236.66 -4.85846 -2.89777 0
M  V30 13316 H 1235.21 -5.78505 -3.00291 0
M  V30 13317 N 1238.65 -0.49465 -1.49636 0
M  V30 13318 C 1239.9 0.0520143 -2.02033 0
M  V30 13319 C 1240.22 1.38071 -1.37701 0
M  V30 13320 O 1239.49 1.88589 -0.530181 0
M  V30 13321 H 1238.07 0.0222123 -0.74667 0
M  V30 13322 H 1240.73 -0.650445 -1.83726 0
M  V30 13323 H 1239.82 0.186337 -3.11543 0
M  V30 13324 N 1240.13 1.55939 -0.228214 0
M  V30 13325 C 1241.35 2.0332 0.409364 0
M  V30 13326 C 1241.78 1.10683 1.52088 0
M  V30 13327 O 1241.13 0.0962484 1.81044 0
M  V30 13328 C 1241.18 3.48877 0.911981 0
M  V30 13329 O 1240.29 3.59378 2.02289 0
M  V30 13330 H 1239.63 0.657625 0.0917909 0
M  V30 13331 H 1242.16 2.01605 -0.348802 0
M  V30 13332 H 1242.17 3.89331 1.22007 0
M  V30 13333 H 1240.84 4.15783 0.0984902 0
M  V30 13334 H 1239.42 3.30815 1.72093 0
M  V30 13335 N 1241.6 -0.0451101 1.57535 0
M  V30 13336 C 1242.85 -0.740209 1.88809 0
M  V30 13337 C 1243.18 -1.75854 0.823956 0
M  V30 13338 O 1242.46 -1.93817 -0.16286 0
M  V30 13339 C 1242.74 -1.42424 3.30737 0
M  V30 13340 C 1242.59 -0.42052 4.4783 0
M  V30 13341 C 1243.91 -2.36241 3.7132 0
M  V30 13342 H 1241.03 -0.267628 0.686691 0
M  V30 13343 H 1243.67 -0.00309149 1.9 0
M  V30 13344 H 1241.82 -2.05254 3.29853 0
M  V30 13345 H 1243.5 0.204625 4.60846 0
M  V30 13346 H 1241.74 0.261739 4.3301 0
M  V30 13347 H 1242.41 -0.937298 5.43984 0
M  V30 13348 H 1244.89 -1.83468 3.73468 0
M  V30 13349 H 1243.76 -2.81091 4.71465 0
M  V30 13350 H 1244.02 -3.2222 3.02699 0
M  V30 13351 N 1243.08 -1.54377 -0.317073 0
M  V30 13352 C 1244.49 -1.64062 -0.891105 0
M  V30 13353 C 1244.84 -0.538863 -1.88655 0
M  V30 13354 O 1243.97 0.32718 -2.13912 0
M  V30 13355 C 1244.56 -2.97395 -1.62302 0
M  V30 13356 C 1243.12 -3.09253 -2.14568 0
M  V30 13357 C 1242.27 -2.59664 -0.973146 0
M  V30 13358 H 1245.22 -1.58418 -0.0944829 0
M  V30 13359 H 1245.24 -2.87918 -2.48764 0
M  V30 13360 H 1244.75 -3.77562 -0.898268 0
M  V30 13361 H 1242.86 -2.33774 -2.90139 0
M  V30 13362 H 1242.97 -4.15159 -2.39123 0
M  V30 13363 H 1241.33 -2.15719 -1.35416 0
M  V30 13364 H 1242.12 -3.42294 -0.262611 0
M  V30 13365 N 1244.56 0.579466 -1.4656 0
M  V30 13366 C 1245.81 1.33738 -1.5325 0
M  V30 13367 C 1246.16 1.91527 -0.183045 0
M  V30 13368 O 1245.45 1.73698 0.80867 0
M  V30 13369 C 1245.65 2.48417 -2.56951 0
M  V30 13370 C 1245.48 2.01862 -4.01848 0
M  V30 13371 C 1244.25 1.86729 -4.69532 0
M  V30 13372 C 1246.45 1.57633 -4.89547 0
M  V30 13373 N 1244.43 1.34279 -5.99034 0
M  V30 13374 C 1245.8 1.16797 -6.08899 0
M  V30 13375 C 1247.85 1.45481 -4.76172 0
M  V30 13376 C 1246.56 0.650182 -7.16355 0
M  V30 13377 C 1248.58 0.951049 -5.83703 0
M  V30 13378 C 1247.94 0.552488 -7.0223 0
M  V30 13379 H 1244.04 0.482241 -0.615603 0
M  V30 13380 H 1246.63 0.659411 -1.83193 0
M  V30 13381 H 1244.8 3.13773 -2.28912 0
M  V30 13382 H 1246.53 3.15374 -2.53616 0
M  V30 13383 H 1243.29 2.08773 -4.25101 0
M  V30 13384 H 1243.71 1.10207 -6.6797 0
M  V30 13385 H 1248.35 1.74912 -3.84923 0
M  V30 13386 H 1246.07 0.343456 -8.0737 0
M  V30 13387 H 1249.66 0.860884 -5.75396 0
M  V30 13388 H 1248.54 0.168703 -7.84019 0
M  V30 13389 N 1246.04 1.3432 0.824371 0
M  V30 13390 C 1247.26 1.2982 1.61745 0
M  V30 13391 C 1247.69 -0.125298 1.87682 0
M  V30 13392 O 1247.05 -1.08658 1.45131 0
M  V30 13393 C 1247.09 2.09327 2.93623 0
M  V30 13394 O 1246.2 1.4618 3.85623 0
M  V30 13395 H 1245.54 0.445929 0.491979 0
M  V30 13396 H 1248.07 1.77101 1.02452 0
M  V30 13397 H 1248.08 2.20629 3.43201 0
M  V30 13398 H 1246.75 3.12825 2.74069 0
M  V30 13399 H 1245.33 1.43611 3.44137 0
M  V30 13400 N 1247.52 -1.0444 1.18026 0
M  V30 13401 C 1248.76 -1.77838 0.974756 0
M  V30 13402 C 1249.1 -1.87792 -0.494755 0
M  V30 13403 O 1248.37 -1.38327 -1.36733 0
M  V30 13404 C 1248.65 -3.21315 1.62569 0
M  V30 13405 C 1248.51 -3.19327 3.16781 0
M  V30 13406 C 1249.83 -4.19337 1.33583 0
M  V30 13407 H 1246.94 -0.645575 0.35553 0
M  V30 13408 H 1249.59 -1.22023 1.45638 0
M  V30 13409 H 1247.74 -3.68974 1.21617 0
M  V30 13410 H 1249.41 -2.79687 3.66842 0
M  V30 13411 H 1247.65 -2.57461 3.49137 0
M  V30 13412 H 1248.32 -4.20626 3.5746 0
M  V30 13413 H 1250.8 -3.80208 1.69059 0
M  V30 13414 H 1249.67 -5.17953 1.81702 0
M  V30 13415 H 1249.94 -4.41346 0.258016 0
M  V30 13416 N 1248.99 -0.981699 -1.2329 0
M  V30 13417 C 1250.22 -0.668399 -1.95489 0
M  V30 13418 C 1250.63 0.768976 -1.72868 0
M  V30 13419 O 1249.98 1.52925 -1.01783 0
M  V30 13420 C 1250.04 -0.880535 -3.4855 0
M  V30 13421 C 1249.7 -2.30023 -3.9489 0
M  V30 13422 C 1250.7 -3.27899 -4.03458 0
M  V30 13423 C 1248.38 -2.63167 -4.27842 0
M  V30 13424 C 1250.38 -4.56999 -4.44332 0
M  V30 13425 C 1248.06 -3.92489 -4.68397 0
M  V30 13426 C 1249.06 -4.89216 -4.76609 0
M  V30 13427 O 1248.75 -6.16229 -5.16253 0
M  V30 13428 H 1248.48 -0.247255 -0.629159 0
M  V30 13429 H 1251.04 -1.31606 -1.57699 0
M  V30 13430 H 1249.27 -0.175698 -3.86301 0
M  V30 13431 H 1250.96 -0.564198 -4.0196 0
M  V30 13432 H 1251.72 -3.03624 -3.78203 0
M  V30 13433 H 1247.6 -1.88588 -4.20661 0
M  V30 13434 H 1251.14 -5.32498 -4.50656 0
M  V30 13435 H 1247.04 -4.16558 -4.93102 0
M  V30 13436 H 1247.81 -6.20001 -5.34361 0
M  V30 13437 N 1250.47 1.3842 -0.753509 0
M  V30 13438 C 1251.72 1.99723 -0.309021 0
M  V30 13439 C 1252.04 1.60111 1.11308 0
M  V30 13440 O 1251.31 0.85792 1.76115 0
M  V30 13441 H 1249.89 0.738667 -0.111266 0
M  V30 13442 H 1252.55 1.69186 -0.967586 0
M  V30 13443 H 1251.65 3.09874 -0.372095 0
M  V30 13444 N 1251.95 0.502579 1.49372 0
M  V30 13445 C 1253.2 -0.0414423 2.02758 0
M  V30 13446 C 1253.53 -1.36499 1.38136 0
M  V30 13447 O 1252.8 -1.87487 0.517593 0
M  V30 13448 C 1253.09 -0.192333 3.59586 0
M  V30 13449 C 1252.94 1.15445 4.34733 0
M  V30 13450 C 1254.26 -0.932218 4.30114 0
M  V30 13451 H 1251.38 -0.0135869 0.736875 0
M  V30 13452 H 1254.02 0.654296 1.78379 0
M  V30 13453 H 1252.17 -0.78491 3.80488 0
M  V30 13454 H 1253.84 1.78603 4.25322 0
M  V30 13455 H 1252.09 1.74333 3.97228 0
M  V30 13456 H 1252.76 1.00216 5.42827 0
M  V30 13457 H 1255.23 -0.429632 4.13876 0
M  V30 13458 H 1254.11 -1.00664 5.39591 0
M  V30 13459 H 1254.37 -1.9763 3.95468 0
M  V30 13460 N 1253.43 -1.55816 0.23648 0
M  V30 13461 C 1254.66 -2.02789 -0.39501 0
M  V30 13462 C 1255.07 -1.1153 -1.52832 0
M  V30 13463 O 1254.41 -0.120084 -1.83307 0
M  V30 13464 C 1254.47 -3.46052 -0.974066 0
M  V30 13465 C 1254.14 -4.56993 0.0256825 0
M  V30 13466 C 1255.13 -5.13208 0.831477 0
M  V30 13467 C 1252.82 -5.0208 0.148759 0
M  V30 13468 C 1254.81 -6.12994 1.74691 0
M  V30 13469 C 1252.5 -6.017 1.0677 0
M  V30 13470 C 1253.5 -6.57035 1.86531 0
M  V30 13471 O 1253.18 -7.54714 2.76878 0
M  V30 13472 H 1252.92 -0.668672 -0.0992687 0
M  V30 13473 H 1255.47 -2.02312 0.354826 0
M  V30 13474 H 1253.7 -3.43645 -1.77327 0
M  V30 13475 H 1255.39 -3.76586 -1.51453 0
M  V30 13476 H 1256.16 -4.79214 0.746922 0
M  V30 13477 H 1252.03 -4.58679 -0.461976 0
M  V30 13478 H 1255.58 -6.56111 2.36989 0
M  V30 13479 H 1251.48 -6.35115 1.15322 0
M  V30 13480 H 1252.24 -7.72292 2.71122 0
M  V30 13481 N 1254.91 0.036755 -1.57557 0
M  V30 13482 C 1256.16 0.728107 -1.881 0
M  V30 13483 C 1256.47 1.7693 -0.833974 0
M  V30 13484 O 1257.67 2.5127 -1.02837 0
M  V30 13485 C 1256.13 1.34604 -3.33781 0
M  V30 13486 C 1255.74 0.341599 -4.46696 0
M  V30 13487 C 1257.48 2.01772 -3.73481 0
M  V30 13488 C 1255.39 0.967444 -5.83433 0
M  V30 13489 H 1254.32 0.275695 -0.701789 0
M  V30 13490 H 1256.97 -0.0177555 -1.83491 0
M  V30 13491 H 1255.35 2.14135 -3.3311 0
M  V30 13492 H 1256.53 -0.426441 -4.58823 0
M  V30 13493 H 1254.84 -0.227558 -4.15778 0
M  V30 13494 H 1257.44 2.49435 -4.72955 0
M  V30 13495 H 1257.78 2.83255 -3.05077 0
M  V30 13496 H 1258.31 1.29026 -3.76294 0
M  V30 13497 H 1255.05 0.19219 -6.55218 0
M  V30 13498 H 1254.57 1.70551 -5.75041 0
M  V30 13499 H 1256.25 1.47705 -6.29914 0
M  V30 13500 N 1256.39 1.54543 0.308881 0
M  V30 13501 C 1257.32 1.81309 1.40212 0
M  V30 13502 C 1258.33 0.69568 1.47187 0
M  V30 13503 O 1259.52 0.973034 1.49647 0
M  V30 13504 C 1256.62 1.92901 2.78644 0
M  V30 13505 C 1255.79 3.23222 2.94697 0
M  V30 13506 C 1254.85 3.25329 4.13579 0
M  V30 13507 O 1253.88 3.989 4.06039 0
M  V30 13508 N 1255.08 2.50158 5.23833 0
M  V30 13509 H 1257.84 2.75659 1.1761 0
M  V30 13510 H 1255.41 1.54021 0.498925 0
M  V30 13511 H 1257.4 1.91721 3.56406 0
M  V30 13512 H 1255.97 1.05582 2.9423 0
M  V30 13513 H 1255.19 3.37241 2.04113 0
M  V30 13514 H 1256.48 4.09238 3.02328 0
M  V30 13515 H 1255.87 1.90002 5.32838 0
M  V30 13516 H 1254.43 2.5474 5.99959 0
M  V30 13517 N 1257.86 -0.571685 1.46866 0
M  V30 13518 C 1258.83 -1.66198 1.57832 0
M  V30 13519 C 1259.83 -1.54242 0.454547 0
M  V30 13520 O 1261.02 -1.58661 0.719191 0
M  V30 13521 C 1258.15 -3.05678 1.5091 0
M  V30 13522 H 1259.34 -1.57829 2.5501 0
M  V30 13523 H 1256.89 -0.790433 1.3484 0
M  V30 13524 H 1257.63 -3.19593 0.550529 0
M  V30 13525 H 1257.41 -3.15765 2.32454 0
M  V30 13526 H 1258.9 -3.85027 1.61692 0
M  V30 13527 N 1259.34 -1.34755 -0.817236 0
M  V30 13528 C 1260.3 -1.26687 -1.91006 0
M  V30 13529 C 1261.3 -0.180745 -1.59781 0
M  V30 13530 O 1262.49 -0.433748 -1.68714 0
M  V30 13531 C 1259.63 -0.957293 -3.27183 0
M  V30 13532 H 1260.82 -2.23846 -1.99582 0
M  V30 13533 H 1258.37 -1.19125 -1.01187 0
M  V30 13534 H 1259.11 0.0108917 -3.24298 0
M  V30 13535 H 1258.89 -1.74297 -3.5123 0
M  V30 13536 H 1260.38 -0.926161 -4.072 0
M  V30 13537 N 1260.82 1.03812 -1.18578 0
M  V30 13538 C 1262.07 1.76706 -0.980776 0
M  V30 13539 C 1262.39 1.88729 0.490562 0
M  V30 13540 O 1261.66 1.41413 1.35569 0
M  V30 13541 H 1260.24 0.654586 -0.359898 0
M  V30 13542 H 1262.9 1.25274 -1.49306 0
M  V30 13543 H 1262 2.77876 -1.42096 0
M  V30 13544 N 1262.3 0.988223 1.22768 0
M  V30 13545 C 1263.55 0.660154 1.91014 0
M  V30 13546 C 1263.87 -0.809788 1.77391 0
M  V30 13547 O 1263.14 -1.57998 1.15817 0
M  V30 13548 H 1261.72 0.24118 0.706995 0
M  V30 13549 H 1264.38 1.25372 1.49224 0
M  V30 13550 H 1263.47 0.918603 2.98275 0
M  V30 13551 N 1263.78 -1.38018 0.760839 0
M  V30 13552 C 1265.19 -1.82645 0.387022 0
M  V30 13553 C 1265.54 -1.63445 -1.08536 0
M  V30 13554 O 1264.66 -1.13958 -1.83963 0
M  V30 13555 C 1265.26 -3.3158 0.69569 0
M  V30 13556 C 1263.82 -3.74527 0.375063 0
M  V30 13557 C 1262.96 -2.60696 0.94515 0
M  V30 13558 H 1265.91 -1.26644 0.956396 0
M  V30 13559 H 1265.94 -3.80493 -0.0235511 0
M  V30 13560 H 1265.45 -3.45522 1.76737 0
M  V30 13561 H 1263.55 -3.6616 -0.689741 0
M  V30 13562 H 1263.66 -4.71029 0.875685 0
M  V30 13563 H 1262.03 -2.51997 0.370065 0
M  V30 13564 H 1262.81 -2.77434 2.02201 0
M  V30 13565 N 1265.25 -0.510493 -1.49103 0
M  V30 13566 C 1266.18 0.251999 -2.32136 0
M  V30 13567 C 1267.16 0.953613 -1.40855 0
M  V30 13568 O 1268.35 0.943178 -1.69758 0
M  V30 13569 C 1265.48 1.31118 -3.21598 0
M  V30 13570 C 1264.43 0.72888 -4.21748 0
M  V30 13571 C 1263.76 1.88928 -5.0021 0
M  V30 13572 C 1265.06 -0.286425 -5.21514 0
M  V30 13573 H 1266.75 -0.441102 -2.96133 0
M  V30 13574 H 1264.3 -0.213577 -1.42407 0
M  V30 13575 H 1266.25 1.8524 -3.78503 0
M  V30 13576 H 1264.98 2.0336 -2.55563 0
M  V30 13577 H 1263.64 0.209336 -3.66002 0
M  V30 13578 H 1263.28 2.59961 -4.30615 0
M  V30 13579 H 1262.98 1.50568 -5.67981 0
M  V30 13580 H 1264.51 2.43465 -5.59962 0
M  V30 13581 H 1265.92 0.166997 -5.73057 0
M  V30 13582 H 1264.32 -0.586361 -5.97228 0
M  V30 13583 H 1265.39 -1.19904 -4.69842 0
M  V30 13584 N 1266.73 1.55688 -0.24474 0
M  V30 13585 C 1267.69 2.20014 0.642382 0
M  V30 13586 C 1268.69 1.16877 1.10437 0
M  V30 13587 O 1269.88 1.41972 1.00943 0
M  V30 13588 C 1267.02 2.84198 1.88267 0
M  V30 13589 H 1268.21 2.9979 0.0811937 0
M  V30 13590 H 1265.76 1.56299 0.00480917 0
M  V30 13591 H 1266.5 2.08354 2.48514 0
M  V30 13592 H 1266.28 3.59747 1.55963 0
M  V30 13593 H 1267.77 3.33434 2.5142 0
M  V30 13594 N 1268.21 -0.0283989 1.57574 0
M  V30 13595 C 1269.46 -0.719077 1.89303 0
M  V30 13596 C 1269.78 -1.75325 0.84211 0
M  V30 13597 O 1269.04 -1.95071 -0.15683 0
M  V30 13598 C 1269.34 -1.4247 3.27776 0
M  V30 13599 C 1269 -0.526442 4.47816 0
M  V30 13600 C 1267.67 -0.279038 4.8039 0
M  V30 13601 C 1270.02 0.0937038 5.21116 0
M  V30 13602 C 1267.35 0.597277 5.83652 0
M  V30 13603 C 1269.7 0.957725 6.25308 0
M  V30 13604 C 1268.36 1.21458 6.56357 0
M  V30 13605 H 1267.63 -0.263129 0.692708 0
M  V30 13606 H 1270.28 0.0210252 1.91488 0
M  V30 13607 H 1268.58 -2.23813 3.21582 0
M  V30 13608 H 1270.28 -1.96466 3.49574 0
M  V30 13609 H 1266.87 -0.729426 4.22347 0
M  V30 13610 H 1271.06 -0.084469 4.96228 0
M  V30 13611 H 1266.31 0.804582 6.06083 0
M  V30 13612 H 1270.49 1.44476 6.81249 0
M  V30 13613 H 1268.11 1.89534 7.36193 0
M  V30 13614 N 1269.69 -1.54705 -0.300681 0
M  V30 13615 C 1270.62 -1.88679 -1.37559 0
M  V30 13616 C 1271.6 -0.74574 -1.52881 0
M  V30 13617 O 1272.78 -1.0015 -1.66384 0
M  V30 13618 C 1269.91 -2.13438 -2.73974 0
M  V30 13619 C 1268.87 -3.29284 -2.73415 0
M  V30 13620 C 1268.19 -3.39462 -4.13122 0
M  V30 13621 C 1269.49 -4.66382 -2.35128 0
M  V30 13622 H 1271.19 -2.78707 -1.09373 0
M  V30 13623 H 1268.73 -1.341 -0.524704 0
M  V30 13624 H 1270.69 -2.35791 -3.49257 0
M  V30 13625 H 1269.41 -1.20181 -3.03684 0
M  V30 13626 H 1268.07 -3.06855 -2.00588 0
M  V30 13627 H 1267.72 -2.43721 -4.4001 0
M  V30 13628 H 1267.42 -4.17334 -4.1365 0
M  V30 13629 H 1268.94 -3.64075 -4.90185 0
M  V30 13630 H 1270.36 -4.88463 -3.00128 0
M  V30 13631 H 1268.75 -5.4697 -2.46867 0
M  V30 13632 H 1269.82 -4.67078 -1.30256 0
M  V30 13633 N 1271.17 0.563888 -1.47167 0
M  V30 13634 C 1272.41 1.32331 -1.53676 0
M  V30 13635 C 1272.75 1.93213 -0.195593 0
M  V30 13636 O 1272.02 1.77508 0.795068 0
M  V30 13637 C 1272.3 2.43848 -2.64972 0
M  V30 13638 C 1272.16 1.8788 -4.08682 0
M  V30 13639 C 1273.48 3.45809 -2.72221 0
M  V30 13640 H 1270.59 0.479791 -0.559437 0
M  V30 13641 H 1273.24 0.631669 -1.79192 0
M  V30 13642 H 1271.39 3.02846 -2.43345 0
M  V30 13643 H 1273.06 1.33195 -4.41652 0
M  V30 13644 H 1271.3 1.18593 -4.17275 0
M  V30 13645 H 1271.97 2.68465 -4.82318 0
M  V30 13646 H 1274.45 2.9672 -2.91713 0
M  V30 13647 H 1273.32 4.21272 -3.51882 0
M  V30 13648 H 1273.59 4.04236 -1.79014 0
M  V30 13649 N 1272.64 1.35187 0.810078 0
M  V30 13650 C 1273.89 1.27602 1.56207 0
M  V30 13651 C 1274.21 -0.148621 1.95035 0
M  V30 13652 O 1275.41 -0.346721 2.69277 0
M  V30 13653 C 1273.87 2.23759 2.81886 0
M  V30 13654 C 1273.48 3.71549 2.5031 0
M  V30 13655 C 1275.22 2.25109 3.59898 0
M  V30 13656 C 1273.13 4.5954 3.7226 0
M  V30 13657 H 1272.06 0.474078 0.586316 0
M  V30 13658 H 1274.71 1.6043 0.890759 0
M  V30 13659 H 1273.09 1.83898 3.5071 0
M  V30 13660 H 1274.26 4.20025 1.89515 0
M  V30 13661 H 1272.58 3.72773 1.85551 0
M  V30 13662 H 1275.18 2.88066 4.50469 0
M  V30 13663 H 1275.52 1.25387 3.96968 0
M  V30 13664 H 1276.05 2.63481 2.98031 0
M  V30 13665 H 1272.79 5.60246 3.403 0
M  V30 13666 H 1272.31 4.15792 4.32293 0
M  V30 13667 H 1273.99 4.74789 4.39528 0
M  V30 13668 N 1274.12 -1.03182 1.19127 0
M  V30 13669 C 1275.06 -2.10977 0.869702 0
M  V30 13670 C 1276.03 -1.61687 -0.172032 0
M  V30 13671 O 1277.22 -1.88436 -0.0490025 0
M  V30 13672 C 1274.34 -3.37359 0.301049 0
M  V30 13673 C 1273.39 -4.05515 1.32137 0
M  V30 13674 S 1274.22 -4.51415 2.88071 0
M  V30 13675 C 1275.38 -5.81018 2.32741 0
M  V30 13676 H 1275.61 -2.37929 1.78261 0
M  V30 13677 H 1273.15 -1.16079 1.01809 0
M  V30 13678 H 1275.1 -4.10495 -0.0205205 0
M  V30 13679 H 1273.76 -3.08507 -0.590118 0
M  V30 13680 H 1272.96 -4.9639 0.872547 0
M  V30 13681 H 1272.56 -3.38536 1.58963 0
M  V30 13682 H 1274.85 -6.5542 1.71552 0
M  V30 13683 H 1275.79 -6.30677 3.21951 0
M  V30 13684 H 1276.2 -5.36549 1.75429 0
M  V30 13685 N 1275.6 -0.99472 -1.22242 0
M  V30 13686 C 1276.56 -0.551619 -2.22463 0
M  V30 13687 C 1277.56 0.366498 -1.56568 0
M  V30 13688 O 1278.75 0.158204 -1.7348 0
M  V30 13689 C 1275.89 0.197416 -3.40328 0
M  V30 13690 H 1277.08 -1.43795 -2.63179 0
M  V30 13691 H 1274.63 -0.782121 -1.35324 0
M  V30 13692 H 1275.37 1.09965 -3.05087 0
M  V30 13693 H 1275.15 -0.461829 -3.89371 0
M  V30 13694 H 1276.64 0.495534 -4.1465 0
M  V30 13695 N 1277.08 1.37613 -0.768148 0
M  V30 13696 C 1278.01 2.3291 -0.165911 0
M  V30 13697 C 1278.99 1.556 0.687205 0
M  V30 13698 O 1280.17 1.83854 0.625407 0
M  V30 13699 C 1277.3 3.39822 0.7168 0
M  V30 13700 C 1276.26 4.27986 -0.0347264 0
M  V30 13701 C 1275.58 5.2588 0.967192 0
M  V30 13702 C 1276.88 5.08052 -1.21164 0
M  V30 13703 H 1278.58 2.83524 -0.962006 0
M  V30 13704 H 1276.12 1.36318 -0.464051 0
M  V30 13705 H 1278.08 4.05464 1.14789 0
M  V30 13706 H 1276.8 2.87725 1.54538 0
M  V30 13707 H 1275.46 3.6387 -0.446557 0
M  V30 13708 H 1275.11 4.70064 1.79022 0
M  V30 13709 H 1274.81 5.85726 0.468913 0
M  V30 13710 H 1276.33 5.94397 1.3973 0
M  V30 13711 H 1277.75 5.66853 -0.857373 0
M  V30 13712 H 1276.14 5.77206 -1.64176 0
M  V30 13713 H 1277.21 4.40936 -2.0175 0
M  V30 13714 N 1278.56 0.518393 1.4883 0
M  V30 13715 C 1279.8 -0.0199053 2.0249 0
M  V30 13716 C 1280.13 -1.35375 1.39657 0
M  V30 13717 O 1279.39 -1.88454 0.527586 0
M  V30 13718 C 1279.69 -0.203001 3.56823 0
M  V30 13719 C 1279.35 1.05502 4.38384 0
M  V30 13720 C 1278.01 1.39982 4.60389 0
M  V30 13721 C 1280.37 1.89042 4.85708 0
M  V30 13722 C 1277.69 2.57922 5.26966 0
M  V30 13723 C 1280.05 3.06151 5.53583 0
M  V30 13724 C 1278.71 3.40991 5.73831 0
M  V30 13725 H 1277.98 -0.00728388 0.740964 0
M  V30 13726 H 1280.63 0.682073 1.78941 0
M  V30 13727 H 1278.93 -0.987653 3.79147 0
M  V30 13728 H 1280.63 -0.634234 3.95953 0
M  V30 13729 H 1277.22 0.77647 4.21508 0
M  V30 13730 H 1281.4 1.63716 4.6852 0
M  V30 13731 H 1276.66 2.85132 5.40842 0
M  V30 13732 H 1280.83 3.71198 5.89224 0
M  V30 13733 H 1278.46 4.32479 6.25193 0
M  V30 13734 N 1280.03 -1.55556 0.252993 0
M  V30 13735 C 1280.97 -2.17683 -0.684776 0
M  V30 13736 C 1281.95 -1.13077 -1.16843 0
M  V30 13737 O 1283.13 -1.41495 -1.24545 0
M  V30 13738 C 1280.26 -2.78239 -1.93134 0
M  V30 13739 C 1279.3 -3.95953 -1.58504 0
M  V30 13740 S 1280.14 -5.31135 -0.682367 0
M  V30 13741 C 1281.29 -5.95147 -1.93779 0
M  V30 13742 H 1281.52 -2.96886 -0.156823 0
M  V30 13743 H 1279.06 -1.54355 0.0374019 0
M  V30 13744 H 1281.02 -3.13763 -2.64694 0
M  V30 13745 H 1279.68 -1.98971 -2.43042 0
M  V30 13746 H 1278.87 -4.36936 -2.51203 0
M  V30 13747 H 1278.47 -3.61738 -0.949815 0
M  V30 13748 H 1280.76 -6.13035 -2.88435 0
M  V30 13749 H 1281.71 -6.90445 -1.57135 0
M  V30 13750 H 1282.11 -5.24279 -2.09266 0
M  V30 13751 N 1281.51 0.0200419 -1.57587 0
M  V30 13752 C 1282.44 1.01715 -2.10181 0
M  V30 13753 C 1283.42 1.37136 -1.00636 0
M  V30 13754 O 1284.61 1.45862 -1.2821 0
M  V30 13755 C 1281.74 2.31531 -2.58865 0
M  V30 13756 C 1280.69 2.10327 -3.72755 0
M  V30 13757 C 1280.02 3.45981 -4.07678 0
M  V30 13758 C 1281.32 1.4821 -5.0083 0
M  V30 13759 H 1283.01 0.579307 -2.93742 0
M  V30 13760 H 1280.56 0.277211 -1.41307 0
M  V30 13761 H 1282.51 3.01623 -2.94281 0
M  V30 13762 H 1281.24 2.77392 -1.72399 0
M  V30 13763 H 1279.89 1.42665 -3.37701 0
M  V30 13764 H 1279.54 3.89508 -3.18265 0
M  V30 13765 H 1279.24 3.32616 -4.84397 0
M  V30 13766 H 1280.77 4.17421 -4.45637 0
M  V30 13767 H 1282.18 2.08232 -5.34146 0
M  V30 13768 H 1280.58 1.45393 -5.82221 0
M  V30 13769 H 1281.65 0.448942 -4.82817 0
M  V30 13770 N 1282.99 1.54862 0.292472 0
M  V30 13771 C 1283.94 1.87168 1.38097 0
M  V30 13772 C 1284.93 0.746176 1.52081 0
M  V30 13773 O 1286.14 0.930281 1.54097 0
M  V30 13774 H 1282.51 0.593769 0.461456 0
M  V30 13775 H 1284.48 2.78135 1.0809 0
M  V30 13776 C 1283.23 2.14315 2.73796 0
M  V30 13777 H 1282.56 3.00398 2.63821 0
M  V30 13778 H 1284 2.40853 3.48949 0
M  V30 13779 C 1282.46 0.944424 3.23392 0
M  V30 13780 O 1282.99 0.169208 4.01343 0
M  V30 13781 N 1281.19 0.747456 2.80823 0
M  V30 13782 H 1280.74 1.37953 2.17547 0
M  V30 13783 H 1280.7 -0.0530199 3.14355 0
M  V30 13784 N 1284.47 -0.556076 1.47464 0
M  V30 13785 C 1285.71 -1.31515 1.54375 0
M  V30 13786 C 1286.05 -1.93106 0.205837 0
M  V30 13787 O 1285.32 -1.77927 -0.785643 0
M  V30 13788 C 1285.61 -2.4244 2.66261 0
M  V30 13789 C 1285.46 -1.8571 4.09673 0
M  V30 13790 C 1286.78 -3.4436 2.74051 0
M  V30 13791 H 1283.9 -0.476817 0.561974 0
M  V30 13792 H 1286.54 -0.622157 1.79525 0
M  V30 13793 H 1284.69 -3.01551 2.44948 0
M  V30 13794 H 1286.36 -1.30851 4.42353 0
M  V30 13795 H 1284.6 -1.16379 4.17898 0
M  V30 13796 H 1285.27 -2.65904 4.83735 0
M  V30 13797 H 1287.75 -2.95169 2.93282 0
M  V30 13798 H 1286.63 -4.194 3.54111 0
M  V30 13799 H 1286.89 -4.03281 1.81155 0
M  V30 13800 N 1285.95 -1.35615 -0.802897 0
M  V30 13801 C 1287.2 -1.28839 -1.55708 0
M  V30 13802 C 1287.52 0.135906 -1.94526 0
M  V30 13803 O 1286.79 1.07317 -1.6389 0
M  V30 13804 H 1285.37 -0.473906 -0.577427 0
M  V30 13805 H 1288.03 -1.69759 -0.957487 0
M  V30 13806 H 1287.12 -1.90675 -2.47082 0
M  V30 13807 N 1287.43 1.02549 -1.19673 0
M  V30 13808 C 1288.65 1.8016 -1.02748 0
M  V30 13809 C 1289.08 1.83372 0.419105 0
M  V30 13810 O 1288.43 1.26222 1.30144 0
M  V30 13811 C 1288.48 3.22907 -1.60509 0
M  V30 13812 O 1287.59 4.03823 -0.836702 0
M  V30 13813 H 1286.93 0.556027 -0.362946 0
M  V30 13814 H 1289.46 1.29047 -1.5877 0
M  V30 13815 H 1289.47 3.73646 -1.63868 0
M  V30 13816 H 1288.14 3.19885 -2.65794 0
M  V30 13817 H 1286.72 3.6245 -0.876626 0
M  V30 13818 N 1288.9 1.00119 1.21713 0
M  V30 13819 C 1290.13 0.700431 1.94683 0
M  V30 13820 C 1290.55 -0.736333 1.73849 0
M  V30 13821 O 1289.9 -1.49778 1.04272 0
M  V30 13822 C 1289.95 1.00722 3.47185 0
M  V30 13823 O 1289.68 2.38754 3.67326 0
M  V30 13824 C 1291.18 0.725335 4.37326 0
M  V30 13825 H 1288.4 0.25843 0.619238 0
M  V30 13826 H 1290.94 1.3382 1.54636 0
M  V30 13827 H 1289.1 0.415117 3.85169 0
M  V30 13828 H 1289.51 2.49321 4.61454 0
M  V30 13829 H 1290.98 0.990202 5.43046 0
M  V30 13830 H 1291.46 -0.340649 4.37877 0
M  V30 13831 H 1292.07 1.29888 4.04981 0
M  V30 13832 N 1290.38 -1.37203 0.775435 0
M  V30 13833 C 1291.34 -2.28566 0.170406 0
M  V30 13834 C 1292.34 -1.48195 -0.624085 0
M  V30 13835 O 1293.53 -1.68364 -0.447132 0
M  V30 13836 C 1290.67 -3.32186 -0.765829 0
M  V30 13837 H 1291.86 -2.8358 0.975824 0
M  V30 13838 H 1289.41 -1.46531 0.543895 0
M  V30 13839 H 1290.15 -2.82303 -1.59611 0
M  V30 13840 H 1289.93 -3.91598 -0.198251 0
M  V30 13841 H 1291.42 -4.0045 -1.18446 0
M  V30 13842 N 1291.86 -0.526279 -1.48553 0
M  V30 13843 C 1293.11 0.0091665 -2.02498 0
M  V30 13844 C 1293.43 1.34632 -1.40373 0
M  V30 13845 O 1292.69 1.88172 -0.537573 0
M  V30 13846 C 1292.99 0.184075 -3.56926 0
M  V30 13847 C 1292.65 -1.07825 -4.37818 0
M  V30 13848 C 1291.32 -1.42422 -4.59641 0
M  V30 13849 C 1293.67 -1.91616 -4.84699 0
M  V30 13850 C 1291 -2.60713 -5.25591 0
M  V30 13851 C 1293.35 -3.09082 -5.51952 0
M  V30 13852 C 1292.01 -3.44029 -5.72014 0
M  V30 13853 H 1291.28 0.00335426 -0.740992 0
M  V30 13854 H 1293.93 -0.691553 -1.78577 0
M  V30 13855 H 1292.23 0.967532 -3.79666 0
M  V30 13856 H 1293.93 0.613226 -3.96283 0
M  V30 13857 H 1290.52 -0.798812 -4.2109 0
M  V30 13858 H 1294.71 -1.66199 -4.67645 0
M  V30 13859 H 1289.96 -2.87996 -5.39322 0
M  V30 13860 H 1294.14 -3.74317 -5.87247 0
M  V30 13861 H 1291.76 -4.35789 -6.2289 0
M  V30 13862 N 1293.34 1.5542 -0.261239 0
M  V30 13863 C 1294.56 2.04142 0.366144 0
M  V30 13864 C 1294.99 1.13884 1.49706 0
M  V30 13865 O 1294.35 0.134629 1.80799 0
M  V30 13866 C 1294.39 3.50733 0.837774 0
M  V30 13867 O 1293.5 3.63588 1.94621 0
M  V30 13868 H 1292.84 0.659424 0.077821 0
M  V30 13869 H 1295.37 2.0082 -0.391487 0
M  V30 13870 H 1295.38 3.91831 1.13721 0
M  V30 13871 H 1294.05 4.15899 0.0102742 0
M  V30 13872 H 1292.63 3.34391 1.65037 0
M  V30 13873 N 1294.82 -0.0116844 1.57596 0
M  V30 13874 C 1296.04 -0.71026 1.94327 0
M  V30 13875 C 1296.46 -1.67952 0.862418 0
M  V30 13876 O 1295.82 -1.818 -0.159698 0
M  V30 13877 C 1295.87 -1.45228 3.31045 0
M  V30 13878 O 1295.59 -0.52191 4.3498 0
M  V30 13879 C 1297.09 -2.24644 3.82165 0
M  V30 13880 H 1294.31 -0.198559 0.640949 0
M  V30 13881 H 1296.85 0.0359615 2.04468 0
M  V30 13882 H 1295.01 -2.15023 3.22248 0
M  V30 13883 H 1295.42 -1.04415 5.14002 0
M  V30 13884 H 1296.9 -2.72078 4.80289 0
M  V30 13885 H 1297.37 -3.06817 3.14261 0
M  V30 13886 H 1297.98 -1.59888 3.94101 0
M  V30 13887 N 1296.29 -1.55015 -0.284256 0
M  V30 13888 C 1297.54 -1.76276 -1.01481 0
M  V30 13889 C 1297.89 -0.550981 -1.84342 0
M  V30 13890 O 1297.19 0.456483 -1.86083 0
M  V30 13891 C 1297.38 -3.00246 -1.93874 0
M  V30 13892 C 1297.21 -4.33365 -1.20104 0
M  V30 13893 C 1295.98 -4.9683 -0.921324 0
M  V30 13894 C 1298.18 -5.10822 -0.597078 0
M  V30 13895 N 1296.16 -6.13703 -0.155654 0
M  V30 13896 C 1297.53 -6.1999 0.0349821 0
M  V30 13897 C 1299.59 -4.95345 -0.503796 0
M  V30 13898 C 1298.29 -7.15365 0.751319 0
M  V30 13899 C 1300.32 -5.91065 0.198923 0
M  V30 13900 C 1299.68 -6.99614 0.819767 0
M  V30 13901 H 1295.78 -0.697434 -0.353709 0
M  V30 13902 H 1298.36 -1.92503 -0.291645 0
M  V30 13903 H 1296.53 -2.85414 -2.63426 0
M  V30 13904 H 1298.26 -3.09959 -2.60206 0
M  V30 13905 H 1295.02 -4.57517 -1.22375 0
M  V30 13906 H 1295.44 -6.76661 0.214183 0
M  V30 13907 H 1300.08 -4.11535 -0.969477 0
M  V30 13908 H 1297.8 -7.98704 1.22872 0
M  V30 13909 H 1301.39 -5.81167 0.271267 0
M  V30 13910 H 1300.27 -7.72407 1.35487 0
M  V30 13911 N 1297.77 0.548248 -1.47757 0
M  V30 13912 C 1299.02 1.30458 -1.56052 0
M  V30 13913 C 1299.37 1.91096 -0.22363 0
M  V30 13914 O 1298.67 1.75375 0.771644 0
M  V30 13915 C 1298.86 2.42911 -2.62162 0
M  V30 13916 C 1298.69 1.93293 -4.06039 0
M  V30 13917 C 1297.46 1.76727 -4.73387 0
M  V30 13918 C 1299.66 1.47214 -4.9278 0
M  V30 13919 N 1297.64 1.21543 -6.01748 0
M  V30 13920 C 1299.01 1.03855 -6.1124 0
M  V30 13921 C 1301.06 1.35348 -4.79151 0
M  V30 13922 C 1299.77 0.498086 -7.17573 0
M  V30 13923 C 1301.79 0.827023 -5.85589 0
M  V30 13924 C 1301.16 0.40341 -7.03244 0
M  V30 13925 H 1297.25 0.469075 -0.625694 0
M  V30 13926 H 1299.84 0.620405 -1.84551 0
M  V30 13927 H 1298.01 3.08847 -2.35516 0
M  V30 13928 H 1299.74 3.09924 -2.60249 0
M  V30 13929 H 1296.5 1.99709 -4.29433 0
M  V30 13930 H 1296.92 0.960132 -6.70157 0
M  V30 13931 H 1301.56 1.66708 -3.88546 0
M  V30 13932 H 1299.28 0.172123 -8.07917 0
M  V30 13933 H 1302.87 0.738641 -5.77092 0
M  V30 13934 H 1301.75 0.00236338 -7.842 0
M  V30 13935 N 1299.25 1.36039 0.795694 0
M  V30 13936 C 1300.18 1.32528 1.92246 0
M  V30 13937 C 1301.16 0.197805 1.68946 0
M  V30 13938 O 1302.35 0.394474 1.90151 0
M  V30 13939 C 1299.48 1.10748 3.29169 0
M  V30 13940 C 1298.43 2.20253 3.66978 0
M  V30 13941 C 1297.76 1.83624 5.02181 0
M  V30 13942 C 1299.06 3.62296 3.76216 0
M  V30 13943 H 1300.75 2.2681 1.95442 0
M  V30 13944 H 1298.3 1.09181 0.938908 0
M  V30 13945 H 1300.25 1.06929 4.07608 0
M  V30 13946 H 1298.97 0.129141 3.26345 0
M  V30 13947 H 1297.63 2.23187 2.90832 0
M  V30 13948 H 1297.28 0.843804 4.95872 0
M  V30 13949 H 1296.98 2.56935 5.28449 0
M  V30 13950 H 1298.5 1.81349 5.83048 0
M  V30 13951 H 1299.92 3.61623 4.44861 0
M  V30 13952 H 1298.31 4.34459 4.13963 0
M  V30 13953 H 1299.38 3.97657 2.77483 0
M  V30 13954 N 1300.73 -1.01913 1.20215 0
M  V30 13955 C 1301.95 -1.79613 1.03702 0
M  V30 13956 C 1302.38 -1.83591 -0.409374 0
M  V30 13957 O 1301.74 -1.26911 -1.29473 0
M  V30 13958 C 1301.78 -3.22052 1.62219 0
M  V30 13959 O 1300.89 -4.03374 0.858106 0
M  V30 13960 H 1300.23 -0.554095 0.365889 0
M  V30 13961 H 1302.76 -1.28203 1.59452 0
M  V30 13962 H 1302.77 -3.72772 1.65847 0
M  V30 13963 H 1301.44 -3.18471 2.67487 0
M  V30 13964 H 1300.02 -3.6198 0.895835 0
M  V30 13965 N 1302.21 -1.00763 -1.2118 0
M  V30 13966 C 1303.44 -0.709715 -1.94027 0
M  V30 13967 C 1303.84 0.732135 -1.7446 0
M  V30 13968 O 1303.19 1.50731 -1.05004 0
M  V30 13969 C 1303.25 -0.95427 -3.46603 0
M  V30 13970 C 1302.91 -2.38347 -3.89923 0
M  V30 13971 C 1303.91 -3.36383 -3.96412 0
M  V30 13972 C 1301.6 -2.72183 -4.22163 0
M  V30 13973 C 1303.59 -4.66321 -4.34538 0
M  V30 13974 C 1301.28 -4.02336 -4.59966 0
M  V30 13975 C 1302.27 -4.99216 -4.66125 0
M  V30 13976 O 1301.96 -6.27041 -5.03065 0
M  V30 13977 H 1301.69 -0.260545 -0.623773 0
M  V30 13978 H 1304.25 -1.34922 -1.54872 0
M  V30 13979 H 1302.48 -0.257599 -3.85841 0
M  V30 13980 H 1304.17 -0.649333 -4.00673 0
M  V30 13981 H 1304.93 -3.11578 -3.71677 0
M  V30 13982 H 1300.81 -1.97468 -4.16566 0
M  V30 13983 H 1304.36 -5.41938 -4.3926 0
M  V30 13984 H 1300.25 -4.26924 -4.84155 0
M  V30 13985 H 1301.02 -6.31196 -5.21089 0
M  V30 13986 N 1303.68 1.3679 -0.7827 0
M  V30 13987 C 1304.93 2.0016 -0.361585 0
M  V30 13988 C 1305.29 1.61011 1.05324 0
M  V30 13989 O 1304.58 0.851491 1.7164 0
M  V30 13990 C 1304.77 3.54489 -0.455232 0
M  V30 13991 C 1304.6 4.08627 -1.87761 0
M  V30 13992 C 1303.37 4.3908 -2.50073 0
M  V30 13993 C 1305.57 4.28858 -2.83876 0
M  V30 13994 N 1303.55 4.79 -3.8397 0
M  V30 13995 C 1304.92 4.71507 -4.02593 0
M  V30 13996 C 1306.98 4.11013 -2.81021 0
M  V30 13997 C 1305.68 4.98181 -5.18852 0
M  V30 13998 C 1307.71 4.3883 -3.96463 0
M  V30 13999 C 1307.07 4.81729 -5.13922 0
M  V30 14000 H 1303.17 0.761099 -0.179588 0
M  V30 14001 H 1305.75 1.65913 -1.01887 0
M  V30 14002 H 1303.92 3.88019 0.171926 0
M  V30 14003 H 1305.65 4.04699 -0.0110089 0
M  V30 14004 H 1302.41 4.28547 -2.01605 0
M  V30 14005 H 1302.83 5.03253 -4.52841 0
M  V30 14006 H 1307.48 3.77009 -1.91375 0
M  V30 14007 H 1305.19 5.3107 -6.0909 0
M  V30 14008 H 1308.78 4.266 -3.95606 0
M  V30 14009 H 1307.66 5.02838 -6.01767 0
M  V30 14010 N 1305.16 0.53415 1.48272 0
M  V30 14011 C 1306.41 -0.000450626 2.017 0
M  V30 14012 C 1306.72 -1.34926 1.41613 0
M  V30 14013 O 1307.93 -1.97246 1.86564 0
M  V30 14014 C 1306.39 -0.0511883 3.59864 0
M  V30 14015 C 1305.99 1.29298 4.28936 0
M  V30 14016 C 1307.74 -0.534397 4.21123 0
M  V30 14017 C 1305.65 1.2026 5.79044 0
M  V30 14018 H 1304.58 -0.00393844 0.75399 0
M  V30 14019 H 1307.23 0.678554 1.70493 0
M  V30 14020 H 1305.61 -0.795358 3.8793 0
M  V30 14021 H 1306.78 2.05305 4.12537 0
M  V30 14022 H 1305.1 1.71226 3.79566 0
M  V30 14023 H 1307.69 -0.620048 5.31093 0
M  V30 14024 H 1308.04 -1.54114 3.86723 0
M  V30 14025 H 1308.57 0.154215 3.97501 0
M  V30 14026 H 1305.31 2.18463 6.18025 0
M  V30 14027 H 1304.83 0.483971 5.97844 0
M  V30 14028 H 1306.51 0.895005 6.4078 0
M  V30 14029 N 1306.64 -1.55279 0.269478 0
M  V30 14030 C 1307.59 -2.22304 -0.620435 0
M  V30 14031 C 1308.56 -1.19457 -1.15409 0
M  V30 14032 O 1309.74 -1.4798 -1.20443 0
M  V30 14033 C 1306.88 -2.94356 -1.80134 0
M  V30 14034 C 1306 -4.1191 -1.30207 0
M  V30 14035 C 1305.13 -4.71621 -2.44433 0
M  V30 14036 C 1304.17 -5.81379 -1.91481 0
M  V30 14037 N 1303.31 -6.35176 -2.99158 0
M  V30 14038 H 1308.15 -2.9797 -0.0422165 0
M  V30 14039 H 1305.68 -1.47097 -0.00907173 0
M  V30 14040 H 1307.64 -3.34343 -2.4954 0
M  V30 14041 H 1306.27 -2.21124 -2.35168 0
M  V30 14042 H 1305.32 -3.77082 -0.501301 0
M  V30 14043 H 1306.64 -4.9108 -0.874183 0
M  V30 14044 H 1305.79 -5.14298 -3.21842 0
M  V30 14045 H 1304.53 -3.91715 -2.90535 0
M  V30 14046 H 1303.53 -5.38157 -1.12549 0
M  V30 14047 H 1304.76 -6.63149 -1.46322 0
M  V30 14048 H 1302.7 -5.58167 -3.44652 0
M  V30 14049 H 1302.62 -7.09602 -2.60769 0
M  V30 14050 H 1303.89 -6.82512 -3.7656 0
M  V30 14051 N 1308.12 0.00332656 -1.576 0
M  V30 14052 C 1309.05 1.02391 -2.05058 0
M  V30 14053 C 1310.06 1.30903 -0.967901 0
M  V30 14054 O 1311.25 1.27937 -1.24476 0
M  V30 14055 C 1308.35 2.35947 -2.43274 0
M  V30 14056 C 1307.53 2.26423 -3.74234 0
M  V30 14057 C 1306.58 3.4264 -3.99355 0
M  V30 14058 O 1305.61 3.20977 -4.70067 0
M  V30 14059 N 1306.81 4.65379 -3.46991 0
M  V30 14060 H 1309.58 0.619216 -2.93233 0
M  V30 14061 H 1307.14 0.190777 -1.60772 0
M  V30 14062 H 1309.13 3.12462 -2.57196 0
M  V30 14063 H 1307.7 2.6817 -1.60635 0
M  V30 14064 H 1306.92 1.34841 -3.70421 0
M  V30 14065 H 1308.21 2.17229 -4.60097 0
M  V30 14066 H 1307.61 4.85878 -2.89723 0
M  V30 14067 H 1306.16 5.39171 -3.66249 0
M  V30 14068 N 1309.6 1.55164 0.276031 0
M  V30 14069 C 1310.84 1.7528 1.00604 0
M  V30 14070 C 1311.17 0.555256 1.86928 0
M  V30 14071 O 1310.44 -0.429917 1.91124 0
M  V30 14072 H 1309.02 0.646377 0.374441 0
M  V30 14073 H 1311.68 1.92562 0.300992 0
M  V30 14074 H 1310.77 2.65245 1.64473 0
M  V30 14075 N 1311.07 -0.540404 1.48045 0
M  V30 14076 C 1312.3 -1.32656 1.59427 0
M  V30 14077 C 1312.72 -1.86419 0.250924 0
M  V30 14078 O 1312.08 -1.63861 -0.775838 0
M  V30 14079 C 1312.13 -2.46062 2.63602 0
M  V30 14080 O 1311.23 -3.48794 2.20038 0
M  V30 14081 H 1310.58 -0.393334 0.534962 0
M  V30 14082 H 1313.11 -0.651363 1.93955 0
M  V30 14083 H 1313.12 -2.92396 2.84549 0
M  V30 14084 H 1311.79 -2.06291 3.61133 0
M  V30 14085 H 1310.37 -3.0865 2.0926 0
M  V30 14086 N 1312.55 -1.36459 -0.788468 0
M  V30 14087 C 1313.8 -1.30483 -1.54333 0
M  V30 14088 C 1314.12 0.115266 -1.94659 0
M  V30 14089 O 1313.39 1.05573 -1.65019 0
M  V30 14090 H 1311.97 -0.480004 -0.572368 0
M  V30 14091 H 1314.63 -1.70765 -0.939428 0
M  V30 14092 H 1313.73 -1.93284 -2.45046 0
M  V30 14093 N 1314.03 1.01274 -1.20754 0
M  V30 14094 C 1314.98 2.12012 -0.95675 0
M  V30 14095 C 1315.97 1.69143 0.0932738 0
M  V30 14096 O 1317.18 1.79908 -0.0574298 0
M  V30 14097 H 1313.55 0.692956 -0.292088 0
M  V30 14098 H 1315.52 2.30347 -1.89692 0
M  V30 14099 C 1314.27 3.43643 -0.529602 0
M  V30 14100 H 1313.6 3.77058 -1.32918 0
M  V30 14101 H 1315.04 4.22171 -0.393376 0
M  V30 14102 C 1313.5 3.2825 0.758505 0
M  V30 14103 O 1314.03 3.58309 1.81598 0
M  V30 14104 N 1312.23 2.81487 0.722022 0
M  V30 14105 H 1311.78 2.57226 -0.138807 0
M  V30 14106 H 1311.74 2.7157 1.58421 0
M  V30 14107 N 1315.51 1.01404 1.20644 0
M  V30 14108 C 1316.74 0.72104 1.93929 0
M  V30 14109 C 1317.15 -0.717853 1.7462 0
M  V30 14110 O 1316.51 -1.48664 1.05855 0
M  V30 14111 C 1316.56 1.04399 3.46097 0
M  V30 14112 O 1316.28 2.42637 3.64773 0
M  V30 14113 C 1317.78 0.771678 4.36532 0
M  V30 14114 H 1315 0.264983 0.616462 0
M  V30 14115 H 1317.55 1.35453 1.53208 0
M  V30 14116 H 1315.7 0.455946 3.84708 0
M  V30 14117 H 1316.12 2.54201 4.58783 0
M  V30 14118 H 1317.59 1.04774 5.41965 0
M  V30 14119 H 1318.07 -0.294188 4.38214 0
M  V30 14120 H 1318.67 1.34176 4.0358 0
M  V30 14121 N 1316.99 -1.36373 0.789944 0
M  V30 14122 C 1318.22 -2.03482 0.37453 0
M  V30 14123 C 1318.63 -1.59562 -1.00923 0
M  V30 14124 O 1317.99 -0.785289 -1.64741 0
M  V30 14125 C 1318.04 -3.58942 0.429255 0
M  V30 14126 O 1317.76 -4.01261 1.75845 0
M  V30 14127 C 1319.26 -4.433 0.00453729 0
M  V30 14128 H 1316.48 -0.653019 0.154295 0
M  V30 14129 H 1319.02 -1.74339 1.06894 0
M  V30 14130 H 1317.18 -3.86793 -0.21674 0
M  V30 14131 H 1317.59 -4.95854 1.70964 0
M  V30 14132 H 1319.07 -5.5192 0.0939653 0
M  V30 14133 H 1319.54 -4.26509 -1.04816 0
M  V30 14134 H 1320.15 -4.20712 0.623041 0
M  V30 14135 N 1318.47 -0.542005 -1.47987 0
M  V30 14136 C 1319.71 -0.0123299 -2.02796 0
M  V30 14137 C 1320.04 1.32789 -1.41707 0
M  V30 14138 O 1319.32 1.86048 -0.567119 0
M  V30 14139 C 1319.6 0.0969277 -3.5997 0
M  V30 14140 C 1319.46 -1.26931 -4.31519 0
M  V30 14141 C 1320.77 0.817854 -4.32434 0
M  V30 14142 H 1317.89 -0.00595479 -0.736976 0
M  V30 14143 H 1320.54 -0.70136 -1.76581 0
M  V30 14144 H 1318.69 0.683755 -3.82436 0
M  V30 14145 H 1320.36 -1.89817 -4.20437 0
M  V30 14146 H 1318.6 -1.84804 -3.92467 0
M  V30 14147 H 1319.27 -1.14573 -5.39979 0
M  V30 14148 H 1321.75 0.319749 -4.1487 0
M  V30 14149 H 1320.62 0.863225 -5.4207 0
M  V30 14150 H 1320.88 1.87075 -4.00569 0
M  V30 14151 N 1319.94 1.55134 -0.277709 0
M  V30 14152 C 1321.17 2.04061 0.341601 0
M  V30 14153 C 1321.59 1.15597 1.49274 0
M  V30 14154 O 1320.94 0.176625 1.81643 0
M  V30 14155 C 1320.99 3.52074 0.820139 0
M  V30 14156 O 1320.72 4.37171 -0.28516 0
M  V30 14157 C 1322.22 4.16899 1.507 0
M  V30 14158 H 1319.44 0.666501 0.0775708 0
M  V30 14159 H 1321.98 2.00336 -0.410559 0
M  V30 14160 H 1320.14 3.56233 1.52238 0
M  V30 14161 H 1320.55 5.24434 0.0832022 0
M  V30 14162 H 1322.02 5.22061 1.79323 0
M  V30 14163 H 1322.5 3.65227 2.43939 0
M  V30 14164 H 1323.11 4.16749 0.848541 0
M  V30 14165 N 1321.42 0.00503138 1.57599 0
M  V30 14166 C 1322.84 -0.351109 1.5569 0
M  V30 14167 C 1323.04 -1.74465 1.00818 0
M  V30 14168 O 1322.09 -2.44144 0.64422 0
M  V30 14169 C 1323.41 -0.221738 2.99881 0
M  V30 14170 C 1324.95 -0.296303 3.11594 0
M  V30 14171 C 1325.43 -0.195998 4.5758 0
M  V30 14172 N 1326.92 -0.253741 4.62504 0
M  V30 14173 C 1327.66 -0.199546 5.73053 0
M  V30 14174 N 1327.15 -0.0956553 6.92734 0
M  V30 14175 N 1328.94 -0.251779 5.61536 0
M  V30 14176 H 1321.1 0.916578 1.91605 0
M  V30 14177 H 1323.36 0.351802 0.880306 0
M  V30 14178 H 1323.06 0.737255 3.43886 0
M  V30 14179 H 1322.94 -1.00178 3.63654 0
M  V30 14180 H 1325.33 -1.24574 2.67517 0
M  V30 14181 H 1325.41 0.513692 2.50589 0
M  V30 14182 H 1325.05 0.749918 5.02333 0
M  V30 14183 H 1324.98 -1.02455 5.16537 0
M  V30 14184 H 1327.47 -0.335163 3.76411 0
M  V30 14185 H 1327.78 -0.0603357 7.72776 0
M  V30 14186 H 1326.13 -0.0612113 6.94973 0
M  V30 14187 H 1329.32 -0.331173 4.66927 0
M  V30 14188 H 1329.49 -0.206078 6.47672 0
M  V30 14189 N 1322.9 -1.55308 -0.267798 0
M  V30 14190 C 1324.15 -1.75811 -0.996734 0
M  V30 14191 C 1324.47 -0.565161 -1.8663 0
M  V30 14192 O 1323.74 0.419775 -1.9135 0
M  V30 14193 H 1322.32 -0.648353 -0.371008 0
M  V30 14194 H 1324.98 -1.92719 -0.290775 0
M  V30 14195 H 1324.08 -2.66113 -1.63064 0
M  V30 14196 N 1324.38 0.532545 -1.4833 0
M  V30 14197 C 1325.33 1.65832 -1.63103 0
M  V30 14198 C 1326.32 1.61929 -0.497538 0
M  V30 14199 O 1327.53 1.66817 -0.676176 0
M  V30 14200 H 1323.9 0.549152 -0.513748 0
M  V30 14201 H 1325.87 1.50515 -2.57658 0
M  V30 14202 C 1324.62 3.04113 -1.68555 0
M  V30 14203 H 1323.94 3.07809 -2.55135 0
M  V30 14204 H 1325.38 3.82506 -1.82936 0
M  V30 14205 C 1323.84 3.34225 -0.423711 0
M  V30 14206 O 1324.37 3.99005 0.464523 0
M  V30 14207 N 1322.58 2.89087 -0.296192 0
M  V30 14208 H 1322.13 2.36547 -1.01997 0
M  V30 14209 H 1322.08 3.09604 0.547082 0
M  V30 14210 N 1325.86 1.36875 0.78122 0
M  V30 14211 C 1326.77 1.3404 1.92537 0
M  V30 14212 C 1327.78 0.241354 1.72318 0
M  V30 14213 O 1328.96 0.475128 1.95715 0
M  V30 14214 C 1326.02 1.13708 3.27523 0
M  V30 14215 C 1325.08 2.33165 3.60462 0
M  V30 14216 C 1324.32 2.13793 4.89007 0
M  V30 14217 O 1324.54 1.11732 5.5935 0
M  V30 14218 O 1323.47 3.01762 5.20791 0
M  V30 14219 H 1327.3 2.30386 1.97879 0
M  V30 14220 H 1324.88 1.17506 0.922637 0
M  V30 14221 H 1326.77 1.0432 4.08283 0
M  V30 14222 H 1325.44 0.204306 3.23055 0
M  V30 14223 H 1324.35 2.48123 2.79974 0
M  V30 14224 H 1325.68 3.24977 3.69663 0
M  V30 14225 N 1327.33 -1.00632 1.21289 0
M  V30 14226 C 1328.56 -1.77967 1.05524 0
M  V30 14227 C 1328.98 -1.84621 -0.395023 0
M  V30 14228 O 1328.33 -1.30664 -1.27409 0
M  V30 14229 C 1328.38 -3.21939 1.64432 0
M  V30 14230 O 1328.11 -3.15669 3.03784 0
M  V30 14231 C 1329.61 -4.1578 1.5376 0
M  V30 14232 H 1326.83 -0.559341 0.370646 0
M  V30 14233 H 1329.37 -1.26604 1.60598 0
M  V30 14234 H 1327.53 -3.70415 1.13453 0
M  V30 14235 H 1327.94 -4.06112 3.31924 0
M  V30 14236 H 1329.41 -5.14602 1.99722 0
M  V30 14237 H 1329.89 -4.36438 0.491811 0
M  V30 14238 H 1330.5 -3.73192 2.0398 0
M  V30 14239 N 1328.81 -1.02043 -1.20104 0
M  V30 14240 C 1330.04 -0.731142 -1.94085 0
M  V30 14241 C 1330.46 0.702467 -1.74491 0
M  V30 14242 O 1329.82 1.48387 -1.04168 0
M  V30 14243 C 1329.87 -1.07691 -3.44144 0
M  V30 14244 O 1328.97 -0.190751 -4.11959 0
M  V30 14245 H 1328.31 -0.270917 -0.606218 0
M  V30 14246 H 1330.84 -1.36483 -1.52426 0
M  V30 14247 H 1330.85 -1.03023 -3.94779 0
M  V30 14248 H 1329.53 -2.1214 -3.57728 0
M  V30 14249 H 1328.1 -0.29529 -3.71729 0
M  V30 14250 N 1330.29 1.35952 -0.797165 0
M  V30 14251 C 1331.54 1.99327 -0.373695 0
M  V30 14252 C 1331.87 1.63111 1.05396 0
M  V30 14253 O 1331.14 0.889736 1.72956 0
M  V30 14254 C 1331.43 3.5593 -0.54641 0
M  V30 14255 C 1331.28 4.01975 -2.01832 0
M  V30 14256 C 1332.6 4.40087 0.0337694 0
M  V30 14257 H 1329.72 0.724107 -0.137254 0
M  V30 14258 H 1332.36 1.61248 -1.00495 0
M  V30 14259 H 1330.51 3.88499 -0.00903959 0
M  V30 14260 H 1332.18 3.79859 -2.61735 0
M  V30 14261 H 1330.43 3.5323 -2.51815 0
M  V30 14262 H 1331.1 5.109 -2.09009 0
M  V30 14263 H 1333.57 4.13923 -0.425039 0
M  V30 14264 H 1332.45 5.48775 -0.117054 0
M  V30 14265 H 1332.71 4.27504 1.12661 0
M  V30 14266 N 1331.77 0.549846 1.47697 0
M  V30 14267 C 1332.99 0.0256819 2.07384 0
M  V30 14268 C 1333.42 -1.25525 1.4009 0
M  V30 14269 O 1332.78 -1.7501 0.473406 0
M  V30 14270 C 1332.82 -0.160835 3.60241 0
M  V30 14271 O 1331.93 -1.22509 3.93783 0
M  V30 14272 H 1331.27 0.0480204 0.662261 0
M  V30 14273 H 1333.8 0.763429 1.89823 0
M  V30 14274 H 1333.81 -0.377337 4.06251 0
M  V30 14275 H 1332.48 0.774774 4.0862 0
M  V30 14276 H 1331.06 -0.98967 3.59527 0
M  V30 14277 N 1333.25 -1.54984 0.285932 0
M  V30 14278 C 1334.52 -1.91872 -0.380083 0
M  V30 14279 C 1334.9 -1.21146 -1.72878 0
M  V30 14280 O 1334.25 -0.341999 -2.25926 0
M  V30 14281 C 1334.46 -3.45258 -0.509667 0
M  V30 14282 C 1335.81 -4.17232 -0.787549 0
M  V30 14283 O 1336.83 -3.51211 -0.594062 0
M  V30 14284 O 1335.69 -5.34085 -1.15826 0
M  V30 14285 H 1332.79 -0.799931 -0.209856 0
M  V30 14286 H 1335.33 -1.66403 0.332882 0
M  V30 14287 H 1334.1 -3.88829 0.439049 0
M  V30 14288 H 1333.73 -3.76715 -1.27168 0
M  V30 14289 N 1334.72 -0.0133892 -1.57594 0
M  V30 14290 C 1335.95 0.682855 -1.95836 0
M  V30 14291 C 1336.37 1.65763 -0.889049 0
M  V30 14292 O 1335.73 1.80665 0.151585 0
M  V30 14293 C 1335.78 1.37931 -3.33178 0
M  V30 14294 O 1334.88 2.49416 -3.28429 0
M  V30 14295 H 1334.23 0.180629 -0.638959 0
M  V30 14296 H 1336.76 -0.0705644 -2.04478 0
M  V30 14297 H 1336.77 1.73969 -3.69051 0
M  V30 14298 H 1335.44 0.664675 -4.10554 0
M  V30 14299 H 1334.02 2.15606 -3.04251 0
M  V30 14300 N 1336.2 1.55448 0.259558 0
M  V30 14301 C 1337.14 1.84197 1.3471 0
M  V30 14302 C 1338.11 0.69603 1.4695 0
M  V30 14303 O 1339.3 0.940458 1.63364 0
M  V30 14304 C 1336.42 2.01549 2.72205 0
M  V30 14305 C 1335.47 3.2415 2.77181 0
M  V30 14306 S 1336.3 4.81149 2.35066 0
M  V30 14307 C 1337.46 5.0149 3.74511 0
M  V30 14308 H 1337.69 2.76153 1.10122 0
M  V30 14309 H 1335.23 1.47392 0.459893 0
M  V30 14310 H 1337.18 2.12231 3.51381 0
M  V30 14311 H 1335.84 1.10458 2.94037 0
M  V30 14312 H 1335.04 3.33219 3.78129 0
M  V30 14313 H 1334.64 3.12128 2.06038 0
M  V30 14314 H 1336.93 4.88057 4.69901 0
M  V30 14315 H 1337.87 6.03507 3.70385 0
M  V30 14316 H 1338.28 4.294 3.66437 0
M  V30 14317 N 1337.68 -0.524672 1.4861 0
M  V30 14318 C 1338.63 -1.62872 1.63527 0
M  V30 14319 C 1339.6 -1.59097 0.477202 0
M  V30 14320 O 1340.78 -1.77443 0.701341 0
M  V30 14321 C 1337.92 -3.01116 1.68592 0
M  V30 14322 C 1337.04 -3.15085 2.95542 0
M  V30 14323 C 1336.17 -4.4392 2.91734 0
M  V30 14324 C 1335.21 -4.51436 4.13366 0
M  V30 14325 N 1334.35 -5.71667 4.07605 0
M  V30 14326 H 1339.19 -1.49462 2.57808 0
M  V30 14327 H 1336.72 -0.727578 1.27846 0
M  V30 14328 H 1338.68 -3.81212 1.6951 0
M  V30 14329 H 1337.31 -3.13285 0.777975 0
M  V30 14330 H 1336.36 -2.28207 3.04345 0
M  V30 14331 H 1337.68 -3.165 3.85524 0
M  V30 14332 H 1336.83 -5.32312 2.91083 0
M  V30 14333 H 1335.57 -4.45034 1.9949 0
M  V30 14334 H 1334.57 -3.6145 4.14287 0
M  V30 14335 H 1335.8 -4.52057 5.06776 0
M  V30 14336 H 1333.74 -5.73668 3.18184 0
M  V30 14337 H 1333.66 -5.74599 4.91297 0
M  V30 14338 H 1334.93 -6.62331 4.1102 0
M  V30 14339 N 1339.16 -1.37287 -0.77395 0
M  V30 14340 C 1340.44 -1.2291 -1.52159 0
M  V30 14341 C 1340.82 0.178249 -2.10346 0
M  V30 14342 O 1340.16 1.18564 -1.95333 0
M  V30 14343 C 1340.37 -2.32337 -2.60424 0
M  V30 14344 C 1341.72 -2.69769 -3.27887 0
M  V30 14345 O 1342.75 -2.31497 -2.70717 0
M  V30 14346 O 1341.6 -3.35699 -4.31241 0
M  V30 14347 H 1338.7 -0.47948 -0.673816 0
M  V30 14348 H 1341.24 -1.49061 -0.811105 0
M  V30 14349 H 1340.02 -3.26591 -2.15532 0
M  V30 14350 H 1339.64 -2.07638 -3.39076 0
M  V30 14351 N 1340.64 0.999871 -1.21821 0
M  V30 14352 C 1341.58 2.10985 -0.979183 0
M  V30 14353 C 1342.58 1.69232 0.0753287 0
M  V30 14354 O 1343.78 1.79837 -0.0765083 0
M  V30 14355 H 1340.16 0.689819 -0.299421 0
M  V30 14356 H 1342.13 2.28322 -1.92124 0
M  V30 14357 C 1340.88 3.43062 -0.56602 0
M  V30 14358 H 1340.2 3.75627 -1.36909 0
M  V30 14359 H 1341.64 4.2173 -0.43813 0
M  V30 14360 C 1340.1 3.29036 0.723647 0
M  V30 14361 O 1340.63 3.60214 1.77788 0
M  V30 14362 N 1338.84 2.82237 0.692126 0
M  V30 14363 H 1338.38 2.57064 -0.166082 0
M  V30 14364 H 1338.34 2.73235 1.55532 0
M  V30 14365 N 1342.11 1.02678 1.19562 0
M  V30 14366 C 1343.53 0.752027 1.70884 0
M  V30 14367 C 1343.88 -0.728523 1.82173 0
M  V30 14368 O 1343 -1.56799 1.49141 0
M  V30 14369 C 1343.6 1.35848 3.10372 0
M  V30 14370 C 1342.16 1.13236 3.58963 0
M  V30 14371 C 1341.3 1.45785 2.35886 0
M  V30 14372 H 1344.25 1.19497 1.04432 0
M  V30 14373 H 1344.27 0.754347 3.72948 0
M  V30 14374 H 1343.79 2.43604 3.02124 0
M  V30 14375 H 1341.89 0.0729271 3.72529 0
M  V30 14376 H 1342 1.81959 4.43202 0
M  V30 14377 H 1340.36 0.877125 2.3912 0
M  V30 14378 H 1341.15 2.54619 2.30269 0
M  V30 14379 N 1343.59 -1.35528 0.804364 0
M  V30 14380 C 1344.54 -2.27241 0.18591 0
M  V30 14381 C 1345.53 -1.47669 -0.638956 0
M  V30 14382 O 1346.72 -1.69891 -0.496578 0
M  V30 14383 C 1343.85 -3.36769 -0.666446 0
M  V30 14384 C 1342.93 -4.23767 0.168027 0
M  V30 14385 N 1343.32 -4.90618 1.22994 0
M  V30 14386 C 1341.62 -4.45971 -0.0507088 0
M  V30 14387 C 1342.32 -5.55092 1.7392 0
M  V30 14388 N 1341.3 -5.33441 1.04601 0
M  V30 14389 H 1345.1 -2.7642 0.998467 0
M  V30 14390 H 1342.62 -1.49029 0.645301 0
M  V30 14391 H 1344.61 -4.01419 -1.12554 0
M  V30 14392 H 1343.27 -2.89143 -1.47738 0
M  V30 14393 H 1344.28 -4.92155 1.61256 0
M  V30 14394 H 1340.96 -4.09147 -0.830958 0
M  V30 14395 H 1342.35 -6.18434 2.62659 0
M  V30 14396 N 1345.07 -0.557671 -1.47404 0
M  V30 14397 C 1346 0.237612 -2.2696 0
M  V30 14398 C 1346.98 0.919871 -1.34079 0
M  V30 14399 O 1348.17 0.938767 -1.63461 0
M  V30 14400 C 1345.29 1.33863 -3.11124 0
M  V30 14401 C 1344.34 0.764877 -4.19585 0
M  V30 14402 S 1345.17 -0.388893 -5.34086 0
M  V30 14403 C 1346.33 0.713932 -6.21815 0
M  V30 14404 H 1346.56 -0.437477 -2.94064 0
M  V30 14405 H 1344.09 -0.344004 -1.50519 0
M  V30 14406 H 1346.05 1.96917 -3.60186 0
M  V30 14407 H 1344.71 1.98556 -2.43381 0
M  V30 14408 H 1343.91 1.5917 -4.78206 0
M  V30 14409 H 1343.51 0.210502 -3.73407 0
M  V30 14410 H 1345.8 1.60592 -6.58192 0
M  V30 14411 H 1346.74 0.165069 -7.07908 0
M  V30 14412 H 1347.15 1.00681 -5.55449 0
M  V30 14413 N 1346.55 1.54831 -0.294147 0
M  V30 14414 C 1347.48 2.20696 0.61854 0
M  V30 14415 C 1348.49 1.19754 1.10285 0
M  V30 14416 O 1349.68 1.46383 1.02148 0
M  V30 14417 C 1346.78 2.83429 1.85798 0
M  V30 14418 C 1345.96 4.10239 1.51731 0
M  V30 14419 C 1345.02 4.56841 2.61119 0
M  V30 14420 O 1344.04 5.22194 2.26501 0
M  V30 14421 N 1345.24 4.2858 3.91534 0
M  V30 14422 H 1348.01 2.9965 0.054714 0
M  V30 14423 H 1345.57 1.61484 -0.116052 0
M  V30 14424 H 1347.56 3.11541 2.5831 0
M  V30 14425 H 1346.13 2.08356 2.33038 0
M  V30 14426 H 1345.35 3.89212 0.625142 0
M  V30 14427 H 1346.64 4.92824 1.26499 0
M  V30 14428 H 1346.04 3.7621 4.22472 0
M  V30 14429 H 1344.59 4.61418 4.60366 0
M  V30 14430 N 1348.03 0.0217466 1.57585 0
M  V30 14431 C 1349.26 -0.667911 1.95506 0
M  V30 14432 C 1349.67 -1.66616 0.89642 0
M  V30 14433 O 1349.01 -1.83232 -0.131059 0
M  V30 14434 C 1349.07 -1.43696 3.29533 0
M  V30 14435 C 1348.73 -0.59787 4.53072 0
M  V30 14436 C 1349.73 0.12372 5.19753 0
M  V30 14437 C 1347.42 -0.53744 4.99417 0
M  V30 14438 C 1349.41 0.894491 6.31092 0
M  V30 14439 C 1347.1 0.237041 6.1064 0
M  V30 14440 C 1348.1 0.95172 6.76337 0
M  V30 14441 O 1347.78 1.71352 7.85426 0
M  V30 14442 H 1347.52 -0.189544 0.648883 0
M  V30 14443 H 1350.07 0.0755682 2.05261 0
M  V30 14444 H 1348.3 -2.22541 3.16247 0
M  V30 14445 H 1349.99 -2.01402 3.52409 0
M  V30 14446 H 1350.75 0.0863208 4.84923 0
M  V30 14447 H 1346.63 -1.08327 4.48092 0
M  V30 14448 H 1350.18 1.45285 6.82304 0
M  V30 14449 H 1346.07 0.276183 6.44909 0
M  V30 14450 H 1346.84 1.63252 8.02054 0
M  V30 14451 N 1349.51 -1.55583 -0.251311 0
M  V30 14452 C 1350.74 -1.80996 -0.99619 0
M  V30 14453 C 1351.14 -0.594534 -1.79616 0
M  V30 14454 O 1350.49 0.446197 -1.78199 0
M  V30 14455 C 1350.55 -2.99691 -1.98559 0
M  V30 14456 C 1350.21 -4.35888 -1.37297 0
M  V30 14457 C 1351.21 -5.14051 -0.777672 0
M  V30 14458 C 1348.89 -4.82579 -1.39366 0
M  V30 14459 C 1350.89 -6.3705 -0.211225 0
M  V30 14460 C 1348.58 -6.05528 -0.823357 0
M  V30 14461 C 1349.57 -6.82602 -0.233163 0
M  V30 14462 O 1349.26 -8.03229 0.328345 0
M  V30 14463 H 1348.99 -0.606287 -0.298985 0
M  V30 14464 H 1351.55 -2.03471 -0.280813 0
M  V30 14465 H 1349.78 -2.7296 -2.73915 0
M  V30 14466 H 1351.47 -3.12235 -2.59354 0
M  V30 14467 H 1352.23 -4.791 -0.754228 0
M  V30 14468 H 1348.11 -4.22582 -1.84243 0
M  V30 14469 H 1351.66 -6.97152 0.250073 0
M  V30 14470 H 1347.55 -6.39957 -0.844114 0
M  V30 14471 H 1348.32 -8.18205 0.219785 0
M  V30 14472 N 1350.98 0.516783 -1.48886 0
M  V30 14473 C 1351.95 1.60226 -1.63891 0
M  V30 14474 C 1352.95 1.52448 -0.511479 0
M  V30 14475 O 1354.14 1.55882 -0.777582 0
M  V30 14476 C 1351.27 2.99867 -1.62151 0
M  V30 14477 H 1352.46 1.48256 -2.60692 0
M  V30 14478 H 1350.01 0.739844 -1.37681 0
M  V30 14479 H 1350.75 3.1733 -0.668764 0
M  V30 14480 H 1350.53 3.0692 -2.44013 0
M  V30 14481 H 1352.02 3.7876 -1.7587 0
M  V30 14482 N 1352.46 1.37696 0.766659 0
M  V30 14483 C 1353.69 1.36564 1.56093 0
M  V30 14484 C 1354.11 -0.0455828 1.88045 0
M  V30 14485 O 1353.47 -1.02405 1.49609 0
M  V30 14486 C 1353.52 2.21592 2.84481 0
M  V30 14487 O 1352.62 1.62404 3.79076 0
M  V30 14488 H 1351.96 0.466394 0.472623 0
M  V30 14489 H 1354.49 1.81287 0.948486 0
M  V30 14490 H 1354.5 2.34987 3.33534 0
M  V30 14491 H 1353.18 3.24167 2.60554 0
M  V30 14492 H 1351.75 1.58078 3.37736 0
M  V30 14493 N 1353.94 -0.993397 1.22349 0
M  V30 14494 C 1355.19 -1.72707 1.04189 0
M  V30 14495 C 1355.5 -1.90963 -0.423381 0
M  V30 14496 O 1356.71 -2.61651 -0.724645 0
M  V30 14497 C 1355.16 -3.10739 1.81575 0
M  V30 14498 C 1354.77 -3.00415 3.32347 0
M  V30 14499 C 1356.52 -3.88155 1.71861 0
M  V30 14500 C 1354.42 -4.33598 4.02177 0
M  V30 14501 H 1353.35 -0.647556 0.386248 0
M  V30 14502 H 1356 -1.10902 1.46195 0
M  V30 14503 H 1354.39 -3.73222 1.32367 0
M  V30 14504 H 1355.56 -2.47099 3.88946 0
M  V30 14505 H 1353.87 -2.36482 3.42732 0
M  V30 14506 H 1356.47 -4.8673 2.21354 0
M  V30 14507 H 1356.81 -4.10726 0.678939 0
M  V30 14508 H 1357.35 -3.32347 2.18609 0
M  V30 14509 H 1354.09 -4.16226 5.06395 0
M  V30 14510 H 1353.61 -4.86829 3.50367 0
M  V30 14511 H 1355.29 -5.02348 4.07744 0
M  V30 14512 N 1355.42 -1.03311 -1.19015 0
M  V30 14513 C 1356.65 -0.750712 -1.92478 0
M  V30 14514 C 1357.06 0.694964 -1.75974 0
M  V30 14515 O 1356.4 1.4847 -1.08177 0
M  V30 14516 C 1356.46 -1.02757 -3.44501 0
M  V30 14517 C 1356.12 -2.46565 -3.84779 0
M  V30 14518 C 1357.12 -3.44716 -3.89187 0
M  V30 14519 C 1354.81 -2.81076 -4.16295 0
M  V30 14520 C 1356.8 -4.75433 -4.24549 0
M  V30 14521 C 1354.49 -4.12002 -4.51329 0
M  V30 14522 C 1355.49 -5.08991 -4.55431 0
M  V30 14523 O 1355.17 -6.37571 -4.89652 0
M  V30 14524 H 1354.91 -0.273717 -0.618106 0
M  V30 14525 H 1357.46 -1.38176 -1.51975 0
M  V30 14526 H 1355.69 -0.339383 -3.85208 0
M  V30 14527 H 1357.38 -0.734175 -3.99205 0
M  V30 14528 H 1358.14 -3.19392 -3.64985 0
M  V30 14529 H 1354.02 -2.0626 -4.12284 0
M  V30 14530 H 1357.57 -5.51133 -4.27666 0
M  V30 14531 H 1353.46 -4.37098 -4.7499 0
M  V30 14532 H 1354.23 -6.42107 -5.07583 0
M  V30 14533 N 1356.9 1.35099 -0.81154 0
M  V30 14534 C 1357.86 2.28033 -0.230947 0
M  V30 14535 C 1358.86 1.49798 0.584575 0
M  V30 14536 O 1360.05 1.6949 0.402336 0
M  V30 14537 C 1357.18 3.341 0.677486 0
M  V30 14538 H 1358.37 2.80893 -1.05067 0
M  V30 14539 H 1355.93 1.45038 -0.582554 0
M  V30 14540 H 1356.66 2.86435 1.5207 0
M  V30 14541 H 1356.45 3.91986 0.0943563 0
M  V30 14542 H 1357.94 4.0345 1.07787 0
M  V30 14543 N 1358.37 0.56548 1.47106 0
M  V30 14544 C 1359.3 -0.16567 2.32912 0
M  V30 14545 C 1360.28 -0.900678 1.44298 0
M  V30 14546 O 1361.47 -0.879523 1.73142 0
M  V30 14547 C 1358.6 -1.19092 3.26243 0
M  V30 14548 C 1357.55 -0.571849 4.24163 0
M  V30 14549 C 1356.88 -1.70233 5.06878 0
M  V30 14550 C 1358.18 0.479785 5.20092 0
M  V30 14551 H 1359.87 0.550705 2.94292 0
M  V30 14552 H 1357.42 0.266284 1.41517 0
M  V30 14553 H 1359.37 -1.71064 3.85117 0
M  V30 14554 H 1358.1 -1.93734 2.62934 0
M  V30 14555 H 1356.76 -0.073353 3.66527 0
M  V30 14556 H 1356.4 -2.438 4.39967 0
M  V30 14557 H 1356.1 -1.29384 5.73178 0
M  V30 14558 H 1357.63 -2.22515 5.68612 0
M  V30 14559 H 1359.04 0.0458042 5.73282 0
M  V30 14560 H 1357.44 0.807615 5.94641 0
M  V30 14561 H 1358.51 1.37259 4.65068 0
M  V30 14562 N 1359.85 -1.54672 0.302354 0
M  V30 14563 C 1361.08 -2.05041 -0.311891 0
M  V30 14564 C 1361.5 -1.17814 -1.46634 0
M  V30 14565 O 1360.86 -0.182517 -1.80379 0
M  V30 14566 C 1360.91 -3.52831 -0.744489 0
M  V30 14567 O 1360.01 -3.68621 -1.84913 0
M  V30 14568 H 1359.35 -0.661255 -0.0603102 0
M  V30 14569 H 1361.88 -1.99711 0.444593 0
M  V30 14570 H 1361.89 -3.94708 -1.03293 0
M  V30 14571 H 1360.57 -4.1578 0.0999976 0
M  V30 14572 H 1359.15 -3.38649 -1.56113 0
M  V30 14573 N 1361.33 -0.0301034 -1.57571 0
M  V30 14574 C 1362.26 0.986212 -2.05789 0
M  V30 14575 C 1363.24 1.31682 -0.95387 0
M  V30 14576 O 1364.43 1.43332 -1.22427 0
M  V30 14577 C 1361.55 2.30598 -2.48077 0
M  V30 14578 C 1360.6 2.12991 -3.69509 0
M  V30 14579 S 1361.43 1.42782 -5.16114 0
M  V30 14580 C 1362.59 2.76126 -5.61699 0
M  V30 14581 H 1362.82 0.575769 -2.91671 0
M  V30 14582 H 1360.35 0.181613 -1.53328 0
M  V30 14583 H 1362.31 3.06469 -2.73107 0
M  V30 14584 H 1360.97 2.68775 -1.62539 0
M  V30 14585 H 1360.17 3.1056 -3.96949 0
M  V30 14586 H 1359.77 1.45263 -3.44637 0
M  V30 14587 H 1362.06 3.72361 -5.65998 0
M  V30 14588 H 1363 2.53349 -6.61226 0
M  V30 14589 H 1363.41 2.81418 -4.89351 0
M  V30 14590 N 1362.81 1.55714 0.243056 0
M  V30 14591 C 1363.77 1.89832 1.28438 0
M  V30 14592 C 1364.77 0.775083 1.40887 0
M  V30 14593 O 1365.96 1.04304 1.39521 0
M  V30 14594 C 1363.09 2.13016 2.66153 0
M  V30 14595 H 1364.29 2.82947 0.994022 0
M  V30 14596 H 1361.84 1.48665 0.482521 0
M  V30 14597 H 1362.57 1.22381 3.00322 0
M  V30 14598 H 1362.36 2.94824 2.58498 0
M  V30 14599 H 1363.85 2.40581 3.41336 0
M  V30 14600 N 1364.29 -0.50888 1.49158 0
M  V30 14601 C 1365.53 -1.26537 1.58481 0
M  V30 14602 C 1365.87 -1.92353 0.267168 0
M  V30 14603 O 1365.14 -1.80336 -0.728639 0
M  V30 14604 C 1365.42 -2.33846 2.73839 0
M  V30 14605 C 1365.28 -1.72582 4.15374 0
M  V30 14606 C 1366.6 -3.35467 2.84868 0
M  V30 14607 H 1363.71 -0.458697 0.576859 0
M  V30 14608 H 1366.36 -0.564728 1.81413 0
M  V30 14609 H 1364.51 -2.93605 2.54417 0
M  V30 14610 H 1366.18 -1.16711 4.46292 0
M  V30 14611 H 1364.42 -1.03025 4.21389 0
M  V30 14612 H 1365.09 -2.5038 4.91949 0
M  V30 14613 H 1367.57 -2.85689 3.02524 0
M  V30 14614 H 1366.44 -4.07922 3.67275 0
M  V30 14615 H 1366.71 -3.97313 1.93894 0
M  V30 14616 N 1365.76 -1.381 -0.759346 0
M  V30 14617 C 1366.7 -1.29241 -1.88075 0
M  V30 14618 C 1367.68 -0.170526 -1.61703 0
M  V30 14619 O 1368.86 -0.346865 -1.85281 0
M  V30 14620 C 1365.99 -1.00115 -3.23566 0
M  V30 14621 C 1365.03 -2.14161 -3.68832 0
M  V30 14622 S 1365.87 -3.76251 -3.81045 0
M  V30 14623 C 1367.02 -3.49301 -5.19365 0
M  V30 14624 H 1367.25 -2.24152 -1.95303 0
M  V30 14625 H 1364.79 -1.23869 -0.921734 0
M  V30 14626 H 1366.75 -0.839934 -4.01815 0
M  V30 14627 H 1365.41 -0.0693088 -3.14024 0
M  V30 14628 H 1364.6 -1.89313 -4.67094 0
M  V30 14629 H 1364.2 -2.2636 -2.9772 0
M  V30 14630 H 1366.49 -3.05058 -6.04935 0
M  V30 14631 H 1367.44 -4.46935 -5.49231 0
M  V30 14632 H 1367.84 -2.83944 -4.87889 0
M  V30 14633 N 1367.24 0.986894 -1.22875 0
M  V30 14634 C 1368.17 2.09628 -1.0285 0
M  V30 14635 C 1369.15 1.70019 0.0525118 0
M  V30 14636 O 1370.34 1.93883 -0.110874 0
M  V30 14637 C 1367.47 3.41866 -0.61194 0
M  V30 14638 C 1366.42 3.95351 -1.63956 0
M  V30 14639 C 1365.75 5.23707 -1.07865 0
M  V30 14640 C 1367.05 4.25354 -3.03102 0
M  V30 14641 H 1368.74 2.26639 -1.95641 0
M  V30 14642 H 1366.29 1.0891 -0.942048 0
M  V30 14643 H 1368.24 4.18893 -0.458936 0
M  V30 14644 H 1366.97 3.24701 0.35164 0
M  V30 14645 H 1365.62 3.20462 -1.78045 0
M  V30 14646 H 1365.27 5.02888 -0.106246 0
M  V30 14647 H 1364.97 5.60459 -1.76522 0
M  V30 14648 H 1366.5 6.03362 -0.937359 0
M  V30 14649 H 1367.91 4.93156 -2.92353 0
M  V30 14650 H 1366.31 4.73292 -3.68938 0
M  V30 14651 H 1367.38 3.32887 -3.52583 0
M  V30 14652 N 1368.72 1.0394 1.18466 0
M  V30 14653 C 1369.97 0.737233 1.87744 0
M  V30 14654 C 1370.28 -0.737891 1.81148 0
M  V30 14655 O 1371.49 -1.15353 2.45776 0
M  V30 14656 C 1369.94 1.26844 3.36806 0
M  V30 14657 C 1369.55 2.7721 3.51935 0
M  V30 14658 C 1371.3 1.04274 4.11494 0
M  V30 14659 C 1369.2 3.23696 4.9495 0
M  V30 14660 H 1368.13 0.272082 0.703198 0
M  V30 14661 H 1370.78 1.25507 1.33866 0
M  V30 14662 H 1369.17 0.67847 3.90145 0
M  V30 14663 H 1370.34 3.41954 3.08875 0
M  V30 14664 H 1368.66 2.98179 2.90652 0
M  V30 14665 H 1371.25 1.3652 5.16978 0
M  V30 14666 H 1371.6 -0.0200645 4.16295 0
M  V30 14667 H 1372.13 1.59726 3.64325 0
M  V30 14668 H 1368.87 4.29351 4.95316 0
M  V30 14669 H 1368.39 2.63687 5.38729 0
M  V30 14670 H 1370.07 3.17645 5.63658 0
M  V30 14671 N 1370.2 -1.34667 0.818693 0
M  V30 14672 C 1371.13 -2.32134 0.252239 0
M  V30 14673 C 1372.11 -1.58044 -0.628982 0
M  V30 14674 O 1373.29 -1.86049 -0.55674 0
M  V30 14675 C 1370.42 -3.42249 -0.590183 0
M  V30 14676 C 1369.38 -4.27562 0.193547 0
M  V30 14677 C 1368.7 -5.29107 -0.771349 0
M  V30 14678 C 1370 -5.03205 1.39936 0
M  V30 14679 H 1371.7 -2.79758 1.06657 0
M  V30 14680 H 1369.24 -1.34502 0.514325 0
M  V30 14681 H 1371.2 -4.09445 -0.996616 0
M  V30 14682 H 1369.92 -2.93262 -1.43752 0
M  V30 14683 H 1368.58 -3.61962 0.581297 0
M  V30 14684 H 1368.23 -4.76384 -1.61453 0
M  V30 14685 H 1367.93 -5.87063 -0.251201 0
M  V30 14686 H 1369.45 -5.99174 -1.17573 0
M  V30 14687 H 1370.87 -5.6328 1.06717 0
M  V30 14688 H 1369.26 -5.70715 1.85485 0
M  V30 14689 H 1370.33 -4.33145 2.17976 0
M  V30 14690 N 1371.68 -0.573274 -1.46804 0
M  V30 14691 C 1372.62 0.165358 -2.30207 0
M  V30 14692 C 1373.59 0.89312 -1.40045 0
M  V30 14693 O 1374.78 0.885653 -1.68999 0
M  V30 14694 C 1371.92 1.17915 -3.2433 0
M  V30 14695 C 1371.03 0.455805 -4.29589 0
M  V30 14696 C 1370.17 1.45629 -5.10848 0
M  V30 14697 C 1369.21 0.718822 -6.07865 0
M  V30 14698 N 1368.34 1.66691 -6.82025 0
M  V30 14699 H 1373.18 -0.551947 -2.92844 0
M  V30 14700 H 1370.72 -0.28401 -1.44332 0
M  V30 14701 H 1372.68 1.77969 -3.77337 0
M  V30 14702 H 1371.31 1.86429 -2.63523 0
M  V30 14703 H 1370.36 -0.259584 -3.79513 0
M  V30 14704 H 1371.67 -0.121161 -4.98653 0
M  V30 14705 H 1370.83 2.1299 -5.68084 0
M  V30 14706 H 1369.56 2.06718 -4.41723 0
M  V30 14707 H 1368.57 0.0313773 -5.49791 0
M  V30 14708 H 1369.79 0.113452 -6.79005 0
M  V30 14709 H 1367.74 2.26608 -6.15617 0
M  V30 14710 H 1367.66 1.14251 -7.47317 0
M  V30 14711 H 1368.93 2.33117 -7.43826 0
M  V30 14712 N 1373.15 1.5451 -0.310553 0
M  V30 14713 C 1374.12 2.2254 0.548489 0
M  V30 14714 C 1375.12 1.21456 1.05381 0
M  V30 14715 O 1376.31 1.46126 0.948311 0
M  V30 14716 C 1373.44 2.91927 1.76043 0
M  V30 14717 H 1374.63 2.99865 -0.0460306 0
M  V30 14718 H 1372.19 1.56179 -0.061487 0
M  V30 14719 H 1372.92 2.18706 2.39454 0
M  V30 14720 H 1372.71 3.66038 1.40564 0
M  V30 14721 H 1374.2 3.43797 2.37051 0
M  V30 14722 N 1374.63 0.0384594 1.57553 0
M  V30 14723 C 1375.88 -0.637533 1.91359 0
M  V30 14724 C 1376.2 -1.7275 0.91744 0
M  V30 14725 O 1377.4 -2.46078 1.14709 0
M  V30 14726 C 1375.86 -1.18526 3.39823 0
M  V30 14727 C 1375.47 -0.128086 4.47817 0
M  V30 14728 C 1377.21 -1.83723 3.82683 0
M  V30 14729 C 1375.12 -0.687978 5.87385 0
M  V30 14730 H 1374.05 -0.241898 0.714144 0
M  V30 14731 H 1376.7 0.105281 1.83198 0
M  V30 14732 H 1375.08 -1.97999 3.42947 0
M  V30 14733 H 1376.25 0.644865 4.56265 0
M  V30 14734 H 1374.57 0.425672 4.14219 0
M  V30 14735 H 1377.17 -2.26585 4.84317 0
M  V30 14736 H 1377.51 -2.68377 3.18244 0
M  V30 14737 H 1378.04 -1.10926 3.82021 0
M  V30 14738 H 1374.78 0.120642 6.55389 0
M  V30 14739 H 1374.3 -1.4292 5.82524 0
M  V30 14740 H 1375.98 -1.17483 6.36244 0
M  V30 14741 N 1376.11 -1.55841 -0.234795 0
M  V30 14742 C 1377.53 -1.48536 -0.583885 0
M  V30 14743 C 1377.73 -0.731018 -1.87772 0
M  V30 14744 O 1376.78 -0.265287 -2.51103 0
M  V30 14745 C 1378.1 -2.93017 -0.675389 0
M  V30 14746 C 1379.64 -3.03459 -0.766906 0
M  V30 14747 C 1380.12 -4.49272 -0.889868 0
M  V30 14748 N 1381.61 -4.5326 -0.95443 0
M  V30 14749 C 1382.35 -5.63346 -1.06905 0
M  V30 14750 N 1381.84 -6.83215 -1.14845 0
M  V30 14751 N 1383.63 -5.51169 -1.10315 0
M  V30 14752 H 1375.79 -2.0332 0.614405 0
M  V30 14753 H 1378.05 -0.923581 0.213779 0
M  V30 14754 H 1377.75 -3.51099 0.205493 0
M  V30 14755 H 1377.63 -3.4418 -1.54337 0
M  V30 14756 H 1380.02 -2.4545 -1.63823 0
M  V30 14757 H 1380.1 -2.55487 0.126472 0
M  V30 14758 H 1379.74 -5.07895 -0.0230489 0
M  V30 14759 H 1379.67 -4.94937 -1.79847 0
M  V30 14760 H 1382.16 -3.6693 -0.903923 0
M  V30 14761 H 1382.47 -7.62863 -1.23532 0
M  V30 14762 H 1380.82 -6.85952 -1.11781 0
M  V30 14763 H 1384.01 -4.56453 -1.03769 0
M  V30 14764 H 1384.18 -6.36998 -1.18903 0
M  V30 14765 N 1377.59 0.500963 -1.49426 0
M  V30 14766 C 1378.84 1.25261 -1.58601 0
M  V30 14767 C 1379.16 1.93056 -0.274647 0
M  V30 14768 O 1378.43 1.82736 0.706003 0
M  V30 14769 H 1377.01 0.465328 -0.584362 0
M  V30 14770 H 1379.67 0.580588 -1.86052 0
M  V30 14771 H 1378.77 2.01652 -2.38208 0
M  V30 14772 N 1379.07 1.38501 0.752011 0
M  V30 14773 C 1380.31 1.34995 1.51341 0
M  V30 14774 C 1380.65 -0.0594724 1.94109 0
M  V30 14775 O 1379.92 -1.02098 1.65548 0
M  V30 14776 C 1380.2 2.30705 2.76491 0
M  V30 14777 C 1380.06 3.80515 2.39851 0
M  V30 14778 C 1381.38 2.24521 3.78521 0
M  V30 14779 H 1378.5 0.491687 0.549011 0
M  V30 14780 H 1381.14 1.69361 0.861205 0
M  V30 14781 H 1379.29 2.01529 3.32142 0
M  V30 14782 H 1380.96 4.20371 1.89962 0
M  V30 14783 H 1379.2 3.98119 1.7229 0
M  V30 14784 H 1379.87 4.42946 3.29397 0
M  V30 14785 H 1382.35 2.50282 3.32413 0
M  V30 14786 H 1381.23 2.93598 4.63779 0
M  V30 14787 H 1381.49 1.24457 4.2422 0
M  V30 14788 N 1380.55 -0.980364 1.23396 0
M  V30 14789 C 1381.79 -1.72421 1.06765 0
M  V30 14790 C 1382.12 -1.90151 -0.394515 0
M  V30 14791 O 1381.4 -1.4538 -1.29209 0
M  V30 14792 C 1381.68 -3.12246 1.79372 0
M  V30 14793 C 1381.54 -3.02087 3.33262 0
M  V30 14794 C 1382.85 -4.11667 1.55624 0
M  V30 14795 H 1379.97 -0.625822 0.389251 0
M  V30 14796 H 1382.62 -1.14132 1.51901 0
M  V30 14797 H 1380.77 -3.62008 1.41004 0
M  V30 14798 H 1382.44 -2.59848 3.81152 0
M  V30 14799 H 1380.68 -2.38592 3.62293 0
M  V30 14800 H 1381.35 -4.01087 3.79254 0
M  V30 14801 H 1383.83 -3.70712 1.88975 0
M  V30 14802 H 1382.7 -5.07593 2.08902 0
M  V30 14803 H 1382.96 -4.39358 0.491601 0
M  V30 14804 N 1382.02 -1.04567 -1.17913 0
M  V30 14805 C 1383.27 -0.752023 -1.88018 0
M  V30 14806 C 1383.6 0.720567 -1.8066 0
M  V30 14807 O 1382.85 1.54207 -1.20493 0
M  V30 14808 C 1383.15 -1.1699 -3.3771 0
M  V30 14809 C 1382.82 -2.64363 -3.65271 0
M  V30 14810 C 1381.48 -3.04622 -3.72503 0
M  V30 14811 C 1383.83 -3.59626 -3.77251 0
M  V30 14812 C 1381.16 -4.39023 -3.89199 0
M  V30 14813 C 1383.51 -4.93752 -3.95465 0
M  V30 14814 C 1382.18 -5.33675 -4.00933 0
M  V30 14815 H 1381.45 -0.275185 -0.688008 0
M  V30 14816 H 1384.09 -1.31161 -1.39532 0
M  V30 14817 H 1382.4 -0.529202 -3.8821 0
M  V30 14818 H 1384.1 -0.919981 -3.90304 0
M  V30 14819 H 1380.69 -2.32182 -3.60263 0
M  V30 14820 H 1384.87 -3.29665 -3.70992 0
M  V30 14821 H 1380.13 -4.69466 -3.91679 0
M  V30 14822 H 1384.3 -5.67467 -4.03676 0
M  V30 14823 H 1381.93 -6.37825 -4.13623 0
M  V30 14824 N 1383.5 1.34231 -0.825823 0
M  V30 14825 C 1384.75 1.9849 -0.415891 0
M  V30 14826 C 1385.08 1.6531 1.01913 0
M  V30 14827 O 1384.36 0.926223 1.7103 0
M  V30 14828 C 1384.64 3.54691 -0.621785 0
M  V30 14829 C 1384.49 3.97603 -2.10313 0
M  V30 14830 C 1385.81 4.4006 -0.0595871 0
M  V30 14831 H 1382.93 0.721032 -0.152582 0
M  V30 14832 H 1385.57 1.5908 -1.03892 0
M  V30 14833 H 1383.72 3.88392 -0.0914439 0
M  V30 14834 H 1385.39 3.74221 -2.69733 0
M  V30 14835 H 1383.64 3.47809 -2.59251 0
M  V30 14836 H 1384.31 5.06352 -2.19799 0
M  V30 14837 H 1386.78 4.12929 -0.512743 0
M  V30 14838 H 1385.66 5.48403 -0.233431 0
M  V30 14839 H 1385.92 4.29798 1.03568 0
M  V30 14840 N 1384.98 0.581051 1.46498 0
M  V30 14841 C 1385.93 -0.153147 2.30291 0
M  V30 14842 C 1386.9 -0.885681 1.40517 0
M  V30 14843 O 1388.08 -0.876678 1.69467 0
M  V30 14844 C 1385.22 -1.16193 3.24951 0
M  V30 14845 C 1384.33 -0.433016 4.29824 0
M  V30 14846 C 1383.47 -1.42918 5.11613 0
M  V30 14847 C 1382.51 -0.686576 6.08237 0
M  V30 14848 N 1381.65 -1.63072 6.829 0
M  V30 14849 H 1386.49 0.56747 2.92547 0
M  V30 14850 H 1384.02 0.29166 1.4418 0
M  V30 14851 H 1385.98 -1.75965 3.78275 0
M  V30 14852 H 1384.61 -1.85028 2.64508 0
M  V30 14853 H 1383.66 0.279707 3.7937 0
M  V30 14854 H 1384.97 0.147604 4.98582 0
M  V30 14855 H 1384.13 -2.09975 5.69206 0
M  V30 14856 H 1382.87 -2.04373 4.42813 0
M  V30 14857 H 1381.87 -0.00222013 5.498 0
M  V30 14858 H 1383.1 -0.0774416 6.79056 0
M  V30 14859 H 1381.04 -2.2334 6.1681 0
M  V30 14860 H 1380.96 -1.10286 7.47912 0
M  V30 14861 H 1382.23 -2.29169 7.45052 0
M  V30 14862 N 1386.46 -1.54343 0.318742 0
M  V30 14863 C 1387.71 -2.00084 -0.284713 0
M  V30 14864 C 1388.03 -1.20855 -1.53033 0
M  V30 14865 O 1387.3 -0.309104 -1.93446 0
M  V30 14866 H 1385.88 -0.739123 -0.108193 0
M  V30 14867 H 1388.54 -1.90002 0.434174 0
M  V30 14868 H 1387.63 -3.07314 -0.544459 0
M  V30 14869 N 1387.94 -0.0468143 -1.5753 0
M  V30 14870 C 1389.16 0.637648 -1.96829 0
M  V30 14871 C 1389.58 1.64635 -0.924158 0
M  V30 14872 O 1388.94 1.82267 0.0921139 0
M  V30 14873 C 1388.99 1.32842 -3.36207 0
M  V30 14874 O 1388.71 0.360111 -4.36617 0
M  V30 14875 C 1390.21 2.10305 -3.90239 0
M  V30 14876 H 1387.43 0.174634 -0.647876 0
M  V30 14877 H 1389.97 -0.111824 -2.04194 0
M  V30 14878 H 1388.13 2.02915 -3.30006 0
M  V30 14879 H 1388.54 0.852661 -5.17523 0
M  V30 14880 H 1390.02 2.54065 -4.90056 0
M  V30 14881 H 1390.49 2.94942 -3.25432 0
M  V30 14882 H 1391.1 1.45152 -3.99764 0
M  V30 14883 N 1389.41 1.55964 0.226527 0
M  V30 14884 C 1390.34 1.95028 1.284 0
M  V30 14885 C 1391.33 0.817833 1.49149 0
M  V30 14886 O 1392.51 1.07975 1.61416 0
M  V30 14887 C 1389.64 2.26266 2.63478 0
M  V30 14888 C 1388.59 3.41954 2.57393 0
M  V30 14889 C 1387.92 3.58786 3.96456 0
M  V30 14890 C 1389.22 4.77069 2.12608 0
M  V30 14891 H 1390.91 2.83608 0.959513 0
M  V30 14892 H 1388.46 1.36451 0.460125 0
M  V30 14893 H 1390.41 2.52186 3.3761 0
M  V30 14894 H 1389.14 1.34533 2.97604 0
M  V30 14895 H 1387.8 3.16076 1.85719 0
M  V30 14896 H 1387.44 2.64437 4.27881 0
M  V30 14897 H 1387.14 4.36595 3.93267 0
M  V30 14898 H 1388.67 3.87048 4.72256 0
M  V30 14899 H 1390.08 5.02226 2.76481 0
M  V30 14900 H 1388.48 5.58126 2.2049 0
M  V30 14901 H 1389.55 4.7276 1.07823 0
M  V30 14902 N 1390.89 -0.493031 1.4969 0
M  V30 14903 C 1392.31 -0.824908 1.36629 0
M  V30 14904 C 1392.51 -1.97378 0.405487 0
M  V30 14905 O 1391.56 -2.51993 -0.159933 0
M  V30 14906 C 1392.88 -1.15761 2.77524 0
M  V30 14907 C 1394.43 -1.26536 2.86282 0
M  V30 14908 C 1394.9 -1.63131 4.27963 0
M  V30 14909 N 1396.39 -1.70165 4.30811 0
M  V30 14910 C 1397.13 -1.99942 5.37411 0
M  V30 14911 N 1396.62 -2.27888 6.54247 0
M  V30 14912 N 1398.42 -2.0126 5.24834 0
M  V30 14913 H 1390.57 0.264433 2.10748 0
M  V30 14914 H 1392.83 0.0557306 0.94636 0
M  V30 14915 H 1392.54 -0.386714 3.49567 0
M  V30 14916 H 1392.41 -2.09915 3.13393 0
M  V30 14917 H 1394.8 -2.02696 2.14472 0
M  V30 14918 H 1394.88 -0.304137 2.53986 0
M  V30 14919 H 1394.52 -0.875184 5.00303 0
M  V30 14920 H 1394.45 -2.60367 4.5773 0
M  V30 14921 H 1396.94 -1.50696 3.46553 0
M  V30 14922 H 1397.26 -2.4982 7.31307 0
M  V30 14923 H 1395.6 -2.25327 6.57459 0
M  V30 14924 H 1398.79 -1.78909 4.32561 0
M  V30 14925 H 1398.96 -2.24131 6.08004 0
M  V30 14926 N 1392.37 -1.38898 -0.744656 0
M  V30 14927 C 1393.33 -1.36633 -1.84022 0
M  V30 14928 C 1394.33 -0.265187 -1.58598 0
M  V30 14929 O 1395.52 -0.522569 -1.66177 0
M  V30 14930 C 1392.66 -1.12938 -3.21649 0
M  V30 14931 H 1393.85 -2.34111 -1.87435 0
M  V30 14932 H 1391.4 -1.24322 -0.947302 0
M  V30 14933 H 1392.14 -0.161027 -3.239 0
M  V30 14934 H 1391.92 -1.9267 -3.41498 0
M  V30 14935 H 1393.41 -1.14071 -4.01718 0
M  V30 14936 N 1393.85 0.973806 -1.23914 0
M  V30 14937 C 1395.07 1.7564 -1.10296 0
M  V30 14938 C 1395.5 1.84984 0.340954 0
M  V30 14939 O 1394.86 1.31629 1.24674 0
M  V30 14940 C 1394.9 3.15809 -1.7406 0
M  V30 14941 O 1394.01 3.99911 -1.00722 0
M  V30 14942 H 1393.35 0.540133 -0.386202 0
M  V30 14943 H 1395.88 1.22197 -1.64101 0
M  V30 14944 H 1395.89 3.66359 -1.79568 0
M  V30 14945 H 1394.56 3.08324 -2.79122 0
M  V30 14946 H 1393.14 3.58405 -1.02956 0
M  V30 14947 N 1395.33 1.05191 1.17357 0
M  V30 14948 C 1396.55 0.782343 1.92079 0
M  V30 14949 C 1396.98 -0.655957 1.76292 0
M  V30 14950 O 1396.33 -1.45573 1.08065 0
M  V30 14951 C 1396.38 1.16777 3.41168 0
M  V30 14952 O 1395.49 0.299908 4.11308 0
M  V30 14953 H 1394.83 0.286894 0.598822 0
M  V30 14954 H 1397.36 1.40476 1.48754 0
M  V30 14955 H 1397.37 1.13454 3.91909 0
M  V30 14956 H 1396.04 2.2155 3.51978 0
M  V30 14957 H 1394.62 0.393744 3.70815 0
M  V30 14958 N 1396.8 -1.33791 0.83293 0
M  V30 14959 C 1398.22 -1.50893 0.519955 0
M  V30 14960 C 1398.42 -1.7749 -0.953919 0
M  V30 14961 O 1397.48 -1.83168 -1.73798 0
M  V30 14962 C 1398.79 -2.66741 1.38815 0
M  V30 14963 C 1400.34 -2.80625 1.38631 0
M  V30 14964 C 1400.81 -3.99528 2.23922 0
M  V30 14965 N 1402.3 -4.06753 2.21599 0
M  V30 14966 C 1403.04 -4.97937 2.84335 0
M  V30 14967 N 1402.53 -5.94276 3.561 0
M  V30 14968 N 1404.33 -4.90887 2.73837 0
M  V30 14969 H 1396.48 -1.14788 1.7871 0
M  V30 14970 H 1398.74 -0.563822 0.762108 0
M  V30 14971 H 1398.45 -2.53748 2.43525 0
M  V30 14972 H 1398.32 -3.62001 1.05996 0
M  V30 14973 H 1400.71 -2.93053 0.346951 0
M  V30 14974 H 1400.79 -1.86144 1.75454 0
M  V30 14975 H 1400.43 -3.8786 3.27914 0
M  V30 14976 H 1400.36 -4.93242 1.84444 0
M  V30 14977 H 1402.85 -3.37802 1.69406 0
M  V30 14978 H 1403.17 -6.60504 4.01191 0
M  V30 14979 H 1401.51 -5.9437 3.60207 0
M  V30 14980 H 1404.7 -4.14586 2.17338 0
M  V30 14981 H 1404.88 -5.61752 3.23014 0
M  V30 14982 N 1398.28 -0.588812 -1.46187 0
M  V30 14983 C 1399.21 0.128595 -2.33146 0
M  V30 14984 C 1400.19 0.877608 -1.45712 0
M  V30 14985 O 1401.38 0.851866 -1.74519 0
M  V30 14986 C 1398.51 1.13886 -3.28096 0
M  V30 14987 C 1397.46 0.504296 -4.25019 0
M  V30 14988 C 1396.79 1.62147 -5.09522 0
M  V30 14989 C 1398.09 -0.562466 -5.19263 0
M  V30 14990 H 1399.78 -0.597455 -2.93378 0
M  V30 14991 H 1397.33 -0.288764 -1.41075 0
M  V30 14992 H 1399.28 1.64916 -3.8779 0
M  V30 14993 H 1398.01 1.89527 -2.65983 0
M  V30 14994 H 1396.66 0.0150325 -3.66597 0
M  V30 14995 H 1396.31 2.36769 -4.4379 0
M  V30 14996 H 1396.01 1.20249 -5.75164 0
M  V30 14997 H 1397.54 2.13441 -5.7208 0
M  V30 14998 H 1398.95 -0.137003 -5.73136 0
M  V30 14999 H 1397.35 -0.902115 -5.93281 0
M  V30 15000 H 1398.42 -1.4464 -4.62825 0
M  V30 15001 N 1399.76 1.54172 -0.326923 0
M  V30 15002 C 1400.71 2.21189 0.553126 0
M  V30 15003 C 1401.69 1.19356 1.07903 0
M  V30 15004 O 1402.89 1.44972 1.01549 0
M  V30 15005 C 1400.02 2.97573 1.71188 0
M  V30 15006 C 1399.1 4.06748 1.20071 0
M  V30 15007 N 1399.49 5.0414 0.409473 0
M  V30 15008 C 1397.79 4.20759 1.47913 0
M  V30 15009 C 1398.49 5.81546 0.134036 0
M  V30 15010 N 1397.47 5.38796 0.721097 0
M  V30 15011 H 1401.27 2.93841 -0.0586462 0
M  V30 15012 H 1398.78 1.61855 -0.132947 0
M  V30 15013 H 1400.78 3.44072 2.35415 0
M  V30 15014 H 1399.44 2.26443 2.32709 0
M  V30 15015 H 1400.45 5.17874 0.0520181 0
M  V30 15016 H 1397.13 3.60844 2.09995 0
M  V30 15017 H 1398.52 6.70013 -0.503156 0
M  V30 15018 N 1401.24 0.0551678 1.57503 0
M  V30 15019 C 1402.52 -0.657808 1.84207 0
M  V30 15020 C 1402.9 -1.88798 0.944372 0
M  V30 15021 O 1402.24 -2.28499 0.00641728 0
M  V30 15022 C 1402.45 -1.0113 3.34026 0
M  V30 15023 C 1403.8 -1.39189 4.01138 0
M  V30 15024 O 1404.83 -1.10353 3.38675 0
M  V30 15025 O 1403.68 -1.93023 5.11277 0
M  V30 15026 H 1400.78 -0.325084 0.760427 0
M  V30 15027 H 1403.32 0.0848352 1.69488 0
M  V30 15028 H 1402.1 -0.13688 3.91061 0
M  V30 15029 H 1401.72 -1.81126 3.53948 0
M  V30 15030 N 1402.72 -1.56081 -0.218252 0
M  V30 15031 C 1403.63 -1.95856 -1.29141 0
M  V30 15032 C 1404.64 -0.862857 -1.51099 0
M  V30 15033 O 1405.82 -1.1667 -1.64165 0
M  V30 15034 C 1402.88 -2.27005 -2.62049 0
M  V30 15035 C 1401.94 -3.50162 -2.48365 0
M  V30 15036 C 1401.18 -3.79815 -3.74935 0
M  V30 15037 O 1401.4 -3.11095 -4.78096 0
M  V30 15038 O 1400.33 -4.73299 -3.71849 0
M  V30 15039 H 1404.16 -2.8732 -0.983922 0
M  V30 15040 H 1401.75 -1.43334 -0.421385 0
M  V30 15041 H 1403.63 -2.4822 -3.40536 0
M  V30 15042 H 1402.3 -1.38715 -2.92472 0
M  V30 15043 H 1401.21 -3.34222 -1.68066 0
M  V30 15044 H 1402.54 -4.38845 -2.22881 0
M  V30 15045 N 1404.2 0.485086 -1.49949 0
M  V30 15046 C 1405.13 1.59312 -1.7071 0
M  V30 15047 C 1406.11 1.6076 -0.555896 0
M  V30 15048 O 1407.29 1.77249 -0.793504 0
M  V30 15049 C 1404.42 2.97718 -1.78834 0
M  V30 15050 C 1403.38 3.11136 -2.93902 0
M  V30 15051 C 1402.7 4.51051 -2.87154 0
M  V30 15052 C 1404 2.89665 -4.34617 0
M  V30 15053 H 1405.7 1.42192 -2.6348 0
M  V30 15054 H 1403.24 0.68262 -1.26792 0
M  V30 15055 H 1405.19 3.75148 -1.91943 0
M  V30 15056 H 1403.92 3.15963 -0.826744 0
M  V30 15057 H 1402.58 2.36135 -2.80421 0
M  V30 15058 H 1402.23 4.66195 -1.88869 0
M  V30 15059 H 1401.93 4.60967 -3.64394 0
M  V30 15060 H 1403.45 5.3052 -3.02293 0
M  V30 15061 H 1404.86 3.56853 -4.48697 0
M  V30 15062 H 1403.26 3.11039 -5.13201 0
M  V30 15063 H 1404.33 1.85642 -4.47956 0
M  V30 15064 N 1405.67 1.39291 0.737279 0
M  V30 15065 C 1406.92 1.3639 1.49679 0
M  V30 15066 C 1407.25 -0.0408859 1.94457 0
M  V30 15067 O 1406.5 -1.02127 1.66939 0
M  V30 15068 C 1406.8 2.28043 2.75193 0
M  V30 15069 C 1406.47 3.75717 2.49294 0
M  V30 15070 C 1405.13 4.15955 2.41941 0
M  V30 15071 C 1407.48 4.69127 2.27088 0
M  V30 15072 C 1404.81 5.47669 2.10419 0
M  V30 15073 C 1407.16 6.01116 1.97084 0
M  V30 15074 C 1405.83 6.4042 1.88197 0
M  V30 15075 H 1405.1 0.499088 0.547716 0
M  V30 15076 H 1407.74 1.71779 0.846416 0
M  V30 15077 H 1406.05 1.85765 3.44962 0
M  V30 15078 H 1407.75 2.23093 3.33212 0
M  V30 15079 H 1404.34 3.43825 2.55896 0
M  V30 15080 H 1408.52 4.38875 2.31739 0
M  V30 15081 H 1403.78 5.77046 2.02059 0
M  V30 15082 H 1407.95 6.73026 1.78909 0
M  V30 15083 H 1405.58 7.42401 1.63537 0
M  V30 15084 N 1407.15 -0.967221 1.24429 0
M  V30 15085 C 1408.57 -1.23594 1.00979 0
M  V30 15086 C 1408.77 -1.99529 -0.281112 0
M  V30 15087 O 1407.82 -2.31977 -0.997139 0
M  V30 15088 C 1409.14 -2.02261 2.22511 0
M  V30 15089 C 1410.68 -2.15352 2.2714 0
M  V30 15090 C 1411.16 -2.97414 3.48294 0
M  V30 15091 N 1412.65 -3.04996 3.48614 0
M  V30 15092 C 1413.39 -3.68851 4.39017 0
M  V30 15093 N 1412.88 -4.34421 5.39676 0
M  V30 15094 N 1414.67 -3.65868 4.26728 0
M  V30 15095 H 1406.83 -0.458881 2.07384 0
M  V30 15096 H 1409.09 -0.265411 0.910088 0
M  V30 15097 H 1408.79 -1.53852 3.16263 0
M  V30 15098 H 1408.67 -3.02993 2.24667 0
M  V30 15099 H 1411.06 -2.62964 1.33919 0
M  V30 15100 H 1411.14 -1.13966 2.2901 0
M  V30 15101 H 1410.78 -2.50495 4.41831 0
M  V30 15102 H 1410.71 -3.98998 3.43668 0
M  V30 15103 H 1413.2 -2.58354 2.75793 0
M  V30 15104 H 1413.51 -4.80965 6.04891 0
M  V30 15105 H 1411.86 -4.33089 5.43562 0
M  V30 15106 H 1415.05 -3.13819 3.47325 0
M  V30 15107 H 1415.22 -4.15349 4.97382 0
M  V30 15108 N 1408.63 -1.05812 -1.16797 0
M  V30 15109 C 1410.05 -0.780649 -1.39205 0
M  V30 15110 C 1410.25 0.622191 -1.91653 0
M  V30 15111 O 1409.3 1.38357 -2.11219 0
M  V30 15112 C 1410.61 -1.84148 -2.37718 0
M  V30 15113 C 1412.16 -1.86442 -2.51413 0
M  V30 15114 C 1412.64 -2.91566 -3.53204 0
M  V30 15115 N 1414.13 -2.90568 -3.60727 0
M  V30 15116 C 1414.86 -3.68556 -4.39265 0
M  V30 15117 N 1414.36 -4.56348 -5.21266 0
M  V30 15118 N 1416.15 -3.56969 -4.342 0
M  V30 15119 H 1408.3 -1.96313 -0.810871 0
M  V30 15120 H 1410.57 -0.850421 -0.418913 0
M  V30 15121 H 1410.27 -2.84864 -2.06265 0
M  V30 15122 H 1410.15 -1.68838 -3.37303 0
M  V30 15123 H 1412.53 -0.863873 -2.82172 0
M  V30 15124 H 1412.61 -2.0583 -1.5188 0
M  V30 15125 H 1412.26 -3.91811 -3.23182 0
M  V30 15126 H 1412.19 -2.69429 -4.52455 0
M  V30 15127 H 1414.68 -2.26918 -3.02186 0
M  V30 15128 H 1414.99 -5.12523 -5.78394 0
M  V30 15129 H 1413.34 -4.60406 -5.20626 0
M  V30 15130 H 1416.53 -2.87772 -3.69195 0
M  V30 15131 H 1416.7 -4.17993 -4.95162 0
M  V30 15132 N 1410.11 1.33347 -0.840014 0
M  V30 15133 C 1411.36 1.97007 -0.432581 0
M  V30 15134 C 1411.67 1.67278 1.01378 0
M  V30 15135 O 1412.88 2.2456 1.52595 0
M  V30 15136 C 1411.33 3.52572 -0.72258 0
M  V30 15137 C 1410.94 3.91176 -2.1837 0
M  V30 15138 C 1412.68 4.22776 -0.382153 0
M  V30 15139 C 1410.59 5.39724 -2.41768 0
M  V30 15140 H 1409.52 0.737255 -0.158024 0
M  V30 15141 H 1412.17 1.5195 -1.02876 0
M  V30 15142 H 1410.55 3.9596 -0.0560179 0
M  V30 15143 H 1411.73 3.58842 -2.89083 0
M  V30 15144 H 1410.04 3.33956 -2.48721 0
M  V30 15145 H 1412.64 5.32021 -0.534588 0
M  V30 15146 H 1412.98 4.10792 0.674967 0
M  V30 15147 H 1413.52 3.84922 -1.004 0
M  V30 15148 H 1410.25 5.56713 -3.4605 0
M  V30 15149 H 1409.77 5.73514 -1.75617 0
M  V30 15150 H 1411.45 6.06624 -2.2498 0
M  V30 15151 N 1411.59 0.596556 1.45873 0
M  V30 15152 C 1412.52 -0.116229 2.33211 0
M  V30 15153 C 1413.5 -0.869868 1.46176 0
M  V30 15154 O 1414.68 -0.842599 1.74968 0
M  V30 15155 C 1411.81 -1.12145 3.28696 0
M  V30 15156 C 1410.77 -0.481749 4.2528 0
M  V30 15157 C 1410.09 -1.59443 5.10374 0
M  V30 15158 C 1411.39 0.589996 5.18957 0
M  V30 15159 H 1413.09 0.613005 2.93057 0
M  V30 15160 H 1410.63 0.296242 1.4092 0
M  V30 15161 H 1412.58 -1.62857 3.88659 0
M  V30 15162 H 1411.31 -1.88114 2.66985 0
M  V30 15163 H 1409.97 0.0044092 3.666 0
M  V30 15164 H 1409.62 -2.34413 4.45039 0
M  V30 15165 H 1409.32 -1.17197 5.75794 0
M  V30 15166 H 1410.84 -2.10404 5.73204 0
M  V30 15167 H 1412.25 0.167395 5.73056 0
M  V30 15168 H 1410.65 0.933565 5.92794 0
M  V30 15169 H 1411.72 1.47093 4.62052 0
M  V30 15170 N 1413.06 -1.53996 0.335095 0
M  V30 15171 C 1414.48 -1.59591 -0.0171422 0
M  V30 15172 C 1414.68 -1.35132 -1.49471 0
M  V30 15173 O 1413.74 -1.14141 -2.25229 0
M  V30 15174 C 1415.05 -2.97872 0.411443 0
M  V30 15175 C 1416.6 -3.10887 0.363072 0
M  V30 15176 C 1417.07 -4.51532 0.766995 0
M  V30 15177 N 1418.56 -4.57557 0.72085 0
M  V30 15178 C 1419.3 -5.64516 1.00544 0
M  V30 15179 N 1418.79 -6.79365 1.35777 0
M  V30 15180 N 1420.59 -5.54349 0.930243 0
M  V30 15181 H 1412.74 -1.68151 1.29766 0
M  V30 15182 H 1415 -0.787067 0.528422 0
M  V30 15183 H 1414.71 -3.20809 1.44134 0
M  V30 15184 H 1414.58 -3.76571 -0.217678 0
M  V30 15185 H 1416.97 -2.87679 -0.657642 0
M  V30 15186 H 1417.05 -2.34266 1.02728 0
M  V30 15187 H 1416.69 -4.75474 1.78568 0
M  V30 15188 H 1416.62 -5.26539 0.0803511 0
M  V30 15189 H 1419.11 -3.75079 0.460867 0
M  V30 15190 H 1419.43 -7.56891 1.55999 0
M  V30 15191 H 1417.77 -6.80833 1.39614 0
M  V30 15192 H 1420.96 -4.63503 0.654402 0
M  V30 15193 H 1421.14 -6.37616 1.15539 0
M  V30 15194 N 1414.54 -0.0635198 -1.57472 0
M  V30 15195 C 1415.77 0.620205 -1.9791 0
M  V30 15196 C 1416.19 1.62851 -0.941335 0
M  V30 15197 O 1415.55 1.81056 0.0940313 0
M  V30 15198 C 1415.6 1.27261 -3.37397 0
M  V30 15199 O 1414.7 2.38841 -3.36197 0
M  V30 15200 H 1414.04 0.16021 -0.644382 0
M  V30 15201 H 1416.57 -0.135582 -2.0415 0
M  V30 15202 H 1416.58 1.6214 -3.74399 0
M  V30 15203 H 1415.26 0.533723 -4.12461 0
M  V30 15204 H 1413.83 2.05817 -3.10956 0
M  V30 15205 N 1416.02 1.56195 0.209972 0
M  V30 15206 C 1417.43 1.69811 0.775969 0
M  V30 15207 C 1417.78 0.667543 1.84495 0
M  V30 15208 O 1416.91 -0.179043 2.15658 0
M  V30 15209 C 1417.5 3.07869 1.41429 0
M  V30 15210 C 1416.06 3.233 1.92755 0
M  V30 15211 C 1415.21 2.6575 0.791958 0
M  V30 15212 H 1418.16 1.58693 -0.0148727 0
M  V30 15213 H 1418.18 3.04371 2.28339 0
M  V30 15214 H 1417.69 3.82853 0.63604 0
M  V30 15215 H 1415.79 2.53206 2.73345 0
M  V30 15216 H 1415.91 4.30645 2.09956 0
M  V30 15217 H 1414.27 2.24535 1.20234 0
M  V30 15218 H 1415.05 3.4329 0.0261877 0
M  V30 15219 N 1417.5 -0.477127 1.50204 0
M  V30 15220 C 1418.43 -1.59442 1.63259 0
M  V30 15221 C 1419.41 -1.55327 0.480864 0
M  V30 15222 O 1420.59 -1.75038 0.699578 0
M  V30 15223 C 1417.72 -2.98009 1.6096 0
M  V30 15224 C 1416.77 -3.20301 2.8162 0
M  V30 15225 S 1417.6 -3.00849 4.43001 0
M  V30 15226 C 1418.75 -4.41769 4.43386 0
M  V30 15227 H 1418.99 -1.48128 2.5777 0
M  V30 15228 H 1416.52 -0.66403 1.39392 0
M  V30 15229 H 1418.48 -3.779 1.60319 0
M  V30 15230 H 1417.14 -3.06718 0.676948 0
M  V30 15231 H 1416.33 -4.21515 2.76299 0
M  V30 15232 H 1415.93 -2.48173 2.79797 0
M  V30 15233 H 1418.23 -5.34294 4.16576 0
M  V30 15234 H 1419.17 -4.52135 5.44958 0
M  V30 15235 H 1419.58 -4.23565 3.73166 0
M  V30 15236 N 1418.98 -1.3968 -0.729882 0
M  V30 15237 C 1419.92 -1.38808 -1.84393 0
M  V30 15238 C 1420.89 -0.247035 -1.64253 0
M  V30 15239 O 1422.08 -0.44293 -1.85588 0
M  V30 15240 C 1419.22 -1.2424 -3.2196 0
M  V30 15241 C 1418.33 -2.47932 -3.53771 0
M  V30 15242 C 1417.47 -2.25913 -4.80767 0
M  V30 15243 C 1416.51 -3.45254 -5.05436 0
M  V30 15244 N 1415.64 -3.2252 -6.23638 0
M  V30 15245 H 1420.48 -2.34038 -1.84473 0
M  V30 15246 H 1418.02 -1.16252 -0.901332 0
M  V30 15247 H 1419.98 -1.13804 -4.01378 0
M  V30 15248 H 1418.61 -0.326375 -3.21146 0
M  V30 15249 H 1417.66 -2.68952 -2.69015 0
M  V30 15250 H 1418.97 -3.36806 -3.67917 0
M  V30 15251 H 1418.13 -2.12748 -5.68175 0
M  V30 15252 H 1416.86 -1.34441 -4.68804 0
M  V30 15253 H 1415.87 -3.58912 -4.16488 0
M  V30 15254 H 1417.09 -4.37634 -5.19282 0
M  V30 15255 H 1415.04 -2.33718 -6.12953 0
M  V30 15256 H 1414.96 -4.04954 -6.38395 0
M  V30 15257 H 1416.23 -3.1306 -7.13872 0
M  V30 15258 N 1420.45 0.960609 -1.2494 0
M  V30 15259 C 1421.7 1.70448 -1.09333 0
M  V30 15260 C 1422.03 1.91012 0.366687 0
M  V30 15261 O 1421.28 1.4743 1.28697 0
M  V30 15262 C 1421.58 3.09564 -1.78619 0
M  V30 15263 C 1421.25 3.08819 -3.28545 0
M  V30 15264 C 1419.91 3.08323 -3.69446 0
M  V30 15265 C 1422.26 3.02606 -4.24357 0
M  V30 15266 C 1419.59 2.99356 -5.04582 0
M  V30 15267 C 1421.94 2.9518 -5.5951 0
M  V30 15268 C 1420.61 2.93017 -5.99748 0
M  V30 15269 H 1419.88 0.623714 -0.400078 0
M  V30 15270 H 1422.52 1.12273 -1.55136 0
M  V30 15271 H 1420.83 3.71247 -1.2523 0
M  V30 15272 H 1422.53 3.6593 -1.64001 0
M  V30 15273 H 1419.12 3.09974 -2.95997 0
M  V30 15274 H 1423.3 3.02113 -3.93753 0
M  V30 15275 H 1418.56 2.96046 -5.34946 0
M  V30 15276 H 1422.73 2.89333 -6.3345 0
M  V30 15277 H 1420.36 2.85824 -7.04421 0
M  V30 15278 N 1421.93 1.0643 1.16234 0
M  V30 15279 C 1423.18 0.78184 1.86798 0
M  V30 15280 C 1423.51 -0.691734 1.81784 0
M  V30 15281 O 1422.76 -1.52271 1.22931 0
M  V30 15282 C 1423.06 1.22348 3.35806 0
M  V30 15283 C 1422.73 2.7014 3.61019 0
M  V30 15284 C 1421.39 3.1051 3.6761 0
M  V30 15285 C 1423.74 3.65582 3.71482 0
M  V30 15286 C 1421.07 4.45159 3.82165 0
M  V30 15287 C 1423.42 4.99981 3.87559 0
M  V30 15288 C 1422.09 5.39986 3.92392 0
M  V30 15289 H 1421.36 0.286096 0.683542 0
M  V30 15290 H 1424 1.33364 1.37427 0
M  V30 15291 H 1422.31 0.590896 3.87319 0
M  V30 15292 H 1424 0.981959 3.88791 0
M  V30 15293 H 1420.59 2.37884 3.56524 0
M  V30 15294 H 1424.78 3.35525 3.657 0
M  V30 15295 H 1420.03 4.75637 3.8416 0
M  V30 15296 H 1424.21 5.73817 3.94597 0
M  V30 15297 H 1421.84 6.44324 4.03423 0
M  V30 15298 N 1423.41 -1.329 0.847073 0
M  V30 15299 C 1424.69 -1.921 0.368351 0
M  V30 15300 C 1425.07 -1.77205 -1.14724 0
M  V30 15301 O 1424.42 -1.16547 -1.96543 0
M  V30 15302 C 1424.63 -3.39125 0.824326 0
M  V30 15303 C 1425.97 -4.16267 0.837097 0
M  V30 15304 O 1427 -3.47812 0.768466 0
M  V30 15305 O 1425.86 -5.38487 0.932389 0
M  V30 15306 H 1422.95 -0.820187 0.105936 0
M  V30 15307 H 1425.5 -1.41719 0.933471 0
M  V30 15308 H 1424.27 -3.43875 1.86723 0
M  V30 15309 H 1423.89 -3.96898 0.236233 0
M  V30 15310 N 1424.89 -0.604284 -1.45555 0
M  V30 15311 C 1426.12 -0.104452 -2.06636 0
M  V30 15312 C 1426.53 1.20976 -1.44949 0
M  V30 15313 O 1425.89 1.73616 -0.562468 0
M  V30 15314 C 1425.94 0.0451646 -3.61472 0
M  V30 15315 O 1425.66 -1.21705 -4.20856 0
M  V30 15316 C 1427.16 0.57684 -4.39531 0
M  V30 15317 H 1424.38 -0.067326 -0.667614 0
M  V30 15318 H 1426.93 -0.831079 -1.86851 0
M  V30 15319 H 1425.08 0.722104 -3.80611 0
M  V30 15320 H 1425.49 -1.04462 -5.13992 0
M  V30 15321 H 1426.97 0.630627 -5.48386 0
M  V30 15322 H 1427.45 1.59842 -4.09081 0
M  V30 15323 H 1428.05 -0.0659444 -4.25249 0
M  V30 15324 N 1426.37 1.53816 -0.343257 0
M  V30 15325 C 1427.59 2.05326 0.254744 0
M  V30 15326 C 1428.01 1.21824 1.44237 0
M  V30 15327 O 1427.37 0.253507 1.80731 0
M  V30 15328 C 1427.42 3.55235 0.670075 0
M  V30 15329 O 1427.14 4.35568 -0.470322 0
M  V30 15330 C 1428.64 4.22915 1.32882 0
M  V30 15331 H 1425.86 0.669191 0.0492324 0
M  V30 15332 H 1428.4 1.98415 -0.495159 0
M  V30 15333 H 1426.56 3.6237 1.36992 0
M  V30 15334 H 1426.97 5.24315 -0.139303 0
M  V30 15335 H 1428.45 5.29197 1.57019 0
M  V30 15336 H 1428.92 3.75244 2.28229 0
M  V30 15337 H 1429.53 4.19973 0.67102 0
M  V30 15338 N 1427.84 0.0718701 1.57436 0
M  V30 15339 C 1429.26 -0.460784 1.80924 0
M  V30 15340 C 1429.61 -1.69637 0.985781 0
M  V30 15341 O 1428.73 -2.15395 0.208319 0
M  V30 15342 C 1429.33 -0.842738 3.28151 0
M  V30 15343 C 1427.89 -1.32026 3.52486 0
M  V30 15344 C 1427.03 -0.305466 2.75612 0
M  V30 15345 H 1429.98 0.297566 1.55885 0
M  V30 15346 H 1430 -1.70414 3.40205 0
M  V30 15347 H 1429.52 0.056733 3.88059 0
M  V30 15348 H 1427.62 -2.23822 2.97883 0
M  V30 15349 H 1427.73 -1.29813 4.61178 0
M  V30 15350 H 1426.09 -0.782758 2.42374 0
M  V30 15351 H 1426.88 0.586279 3.38257 0
M  V30 15352 N 1429.32 -1.56304 -0.201686 0
M  V30 15353 C 1430.55 -1.84341 -0.939465 0
M  V30 15354 C 1430.97 -0.653544 -1.77128 0
M  V30 15355 O 1430.32 0.377813 -1.78546 0
M  V30 15356 C 1430.37 -3.11111 -1.84098 0
M  V30 15357 O 1430.09 -4.25509 -1.04276 0
M  V30 15358 C 1431.6 -3.52279 -2.69099 0
M  V30 15359 H 1428.82 -0.61232 -0.274419 0
M  V30 15360 H 1431.36 -2.03409 -0.210924 0
M  V30 15361 H 1429.51 -2.9396 -2.52322 0
M  V30 15362 H 1429.93 -4.97655 -1.6565 0
M  V30 15363 H 1431.4 -4.43965 -3.28023 0
M  V30 15364 H 1431.88 -2.74959 -3.42482 0
M  V30 15365 H 1432.49 -3.71939 -2.06256 0
M  V30 15366 N 1430.8 0.469154 -1.50455 0
M  V30 15367 C 1432.05 1.21868 -1.61222 0
M  V30 15368 C 1432.37 1.9243 -0.315535 0
M  V30 15369 O 1431.64 1.84192 0.667083 0
M  V30 15370 H 1430.22 0.452828 -0.594101 0
M  V30 15371 H 1432.88 0.540993 -1.87241 0
M  V30 15372 H 1431.98 1.96554 -2.42431 0
M  V30 15373 N 1432.28 1.40065 0.722464 0
M  V30 15374 C 1433.69 1.21944 1.02965 0
M  V30 15375 C 1433.89 0.0898069 2.013 0
M  V30 15376 O 1432.95 -0.554519 2.46336 0
M  V30 15377 C 1434.26 2.55848 1.57995 0
M  V30 15378 C 1435.81 2.62801 1.70013 0
M  V30 15379 C 1436.29 3.96957 2.2845 0
M  V30 15380 N 1437.78 3.98662 2.35844 0
M  V30 15381 C 1438.51 4.99248 2.82026 0
M  V30 15382 N 1438.01 6.1023 3.28012 0
M  V30 15383 N 1439.8 4.8662 2.81349 0
M  V30 15384 H 1431.95 2.12283 0.0705301 0
M  V30 15385 H 1434.22 0.943338 0.0938991 0
M  V30 15386 H 1433.92 3.39125 0.932034 0
M  V30 15387 H 1433.8 2.76452 2.5662 0
M  V30 15388 H 1436.18 1.799 2.33923 0
M  V30 15389 H 1436.26 2.46034 0.700062 0
M  V30 15390 H 1435.91 4.80295 1.65164 0
M  V30 15391 H 1435.84 4.1105 3.29158 0
M  V30 15392 H 1438.33 3.18518 2.03358 0
M  V30 15393 H 1438.64 6.82878 3.61797 0
M  V30 15394 H 1436.99 6.13805 3.25988 0
M  V30 15395 H 1440.18 3.99015 2.44755 0
M  V30 15396 H 1440.35 5.65155 3.17024 0
M  V30 15397 N 1433.76 -0.95397 1.25448 0
M  V30 15398 C 1435.01 -1.69305 1.09631 0
M  V30 15399 C 1435.32 -1.92213 -0.362413 0
M  V30 15400 O 1436.53 -2.63824 -0.641036 0
M  V30 15401 C 1434.98 -3.04805 1.91369 0
M  V30 15402 C 1434.59 -2.8969 3.41737 0
M  V30 15403 C 1436.33 -3.82491 1.84123 0
M  V30 15404 C 1434.24 -4.20584 4.15768 0
M  V30 15405 H 1433.17 -0.63494 0.406654 0
M  V30 15406 H 1435.82 -1.06195 1.49649 0
M  V30 15407 H 1434.2 -3.68822 1.44174 0
M  V30 15408 H 1435.38 -2.346 3.9661 0
M  V30 15409 H 1433.69 -2.25458 3.50082 0
M  V30 15410 H 1436.29 -4.79442 2.36727 0
M  V30 15411 H 1436.63 -4.08358 0.809265 0
M  V30 15412 H 1437.17 -3.25224 2.29072 0
M  V30 15413 H 1433.9 -3.99905 5.19381 0
M  V30 15414 H 1433.42 -4.75436 3.65678 0
M  V30 15415 H 1435.1 -4.89122 4.2352 0
M  V30 15416 N 1435.24 -1.07045 -1.15668 0
M  V30 15417 C 1436.17 -0.709413 -2.22463 0
M  V30 15418 C 1437.15 0.30169 -1.67403 0
M  V30 15419 O 1438.33 0.175131 -1.93409 0
M  V30 15420 C 1435.46 -0.103121 -3.47147 0
M  V30 15421 C 1434.42 -1.04103 -4.15146 0
M  V30 15422 C 1433.74 -0.297656 -5.33871 0
M  V30 15423 C 1435.04 -2.37332 -4.65264 0
M  V30 15424 H 1436.74 -1.60227 -2.52918 0
M  V30 15425 H 1434.28 -0.771846 -1.21567 0
M  V30 15426 H 1436.23 0.161371 -4.21091 0
M  V30 15427 H 1434.96 0.824792 -3.16014 0
M  V30 15428 H 1433.62 -1.2904 -3.43139 0
M  V30 15429 H 1433.27 0.633618 -4.98993 0
M  V30 15430 H 1432.97 -0.922789 -5.80309 0
M  V30 15431 H 1434.49 -0.0408892 -6.10586 0
M  V30 15432 H 1435.9 -2.1674 -5.30751 0
M  V30 15433 H 1434.3 -2.95412 -5.22352 0
M  V30 15434 H 1435.37 -2.99859 -3.81068 0
M  V30 15435 N 1436.71 1.32449 -0.85411 0
M  V30 15436 C 1437.66 2.30821 -0.287115 0
M  V30 15437 C 1438.66 1.58823 0.58921 0
M  V30 15438 O 1439.86 1.73563 0.477075 0
M  V30 15439 H 1436.24 0.748336 -0.0741416 0
M  V30 15440 H 1438.21 2.76134 -1.13104 0
M  V30 15441 C 1436.96 3.43937 0.51013 0
M  V30 15442 H 1436.28 3.995 -0.154895 0
M  V30 15443 H 1437.72 4.14927 0.872451 0
M  V30 15444 C 1436.18 2.91147 1.69513 0
M  V30 15445 O 1436.71 2.88595 2.7942 0
M  V30 15446 N 1434.91 2.47554 1.52202 0
M  V30 15447 H 1434.46 2.49829 0.627941 0
M  V30 15448 H 1434.42 2.12587 2.31633 0
M  V30 15449 N 1438.19 0.611994 1.45232 0
M  V30 15450 C 1439.61 0.276005 1.57195 0
M  V30 15451 C 1439.81 -1.22136 1.60266 0
M  V30 15452 O 1438.86 -2.00459 1.53533 0
M  V30 15453 C 1440.18 0.951064 2.85263 0
M  V30 15454 C 1441.72 0.927398 2.98945 0
M  V30 15455 C 1442.2 1.58255 4.2979 0
M  V30 15456 N 1443.69 1.54825 4.36559 0
M  V30 15457 C 1444.43 2.02428 5.3648 0
M  V30 15458 N 1443.92 2.58137 6.42913 0
M  V30 15459 N 1445.71 1.9317 5.27865 0
M  V30 15460 H 1437.87 1.58418 1.41483 0
M  V30 15461 H 1440.13 0.663879 0.676734 0
M  V30 15462 H 1439.83 2.00557 2.88912 0
M  V30 15463 H 1439.71 0.477044 3.74171 0
M  V30 15464 H 1442.1 -0.118571 2.94862 0
M  V30 15465 H 1442.18 1.43973 2.11437 0
M  V30 15466 H 1441.82 2.62787 4.34632 0
M  V30 15467 H 1441.75 1.04521 5.16123 0
M  V30 15468 H 1444.24 1.14133 3.60253 0
M  V30 15469 H 1444.55 2.92243 7.15412 0
M  V30 15470 H 1442.9 2.62179 6.43652 0
M  V30 15471 H 1446.09 1.49384 4.43624 0
M  V30 15472 H 1446.26 2.30582 6.05587 0
M  V30 15473 N 1439.67 -1.53632 0.351409 0
M  V30 15474 C 1440.92 -2.0104 -0.242687 0
M  V30 15475 C 1441.24 -1.23906 -1.49925 0
M  V30 15476 O 1440.5 -0.316927 -1.93117 0
M  V30 15477 C 1440.8 -3.5242 -0.594561 0
M  V30 15478 C 1440.46 -4.47333 0.566031 0
M  V30 15479 C 1439.13 -4.73001 0.884515 0
M  V30 15480 C 1441.48 -5.03566 1.34426 0
M  V30 15481 C 1438.81 -5.52156 1.98346 0
M  V30 15482 C 1441.16 -5.8392 2.43351 0
M  V30 15483 C 1439.82 -6.0788 2.7575 0
M  V30 15484 H 1439.09 -0.735659 -0.0888056 0
M  V30 15485 H 1441.74 -1.85362 0.480948 0
M  V30 15486 H 1440.04 -3.65971 -1.39902 0
M  V30 15487 H 1441.74 -3.86565 -1.06625 0
M  V30 15488 H 1438.33 -4.27494 0.307751 0
M  V30 15489 H 1442.52 -4.83694 1.11146 0
M  V30 15490 H 1437.77 -5.68942 2.23863 0
M  V30 15491 H 1441.95 -6.26505 3.04079 0
M  V30 15492 H 1439.57 -6.69001 3.61029 0
M  V30 15493 N 1441.15 -0.0802183 -1.57396 0
M  V30 15494 C 1442.37 0.599179 -1.98556 0
M  V30 15495 C 1442.8 1.61844 -0.958555 0
M  V30 15496 O 1442.16 1.81146 0.0748226 0
M  V30 15497 C 1442.2 1.23675 -3.38728 0
M  V30 15498 O 1441.31 2.35262 -3.38712 0
M  V30 15499 H 1440.65 0.153366 -0.646045 0
M  V30 15500 H 1443.18 -0.157227 -2.03995 0
M  V30 15501 H 1443.19 1.5816 -3.76098 0
M  V30 15502 H 1441.86 0.489946 -4.13004 0
M  V30 15503 H 1440.44 2.02507 -3.13122 0
M  V30 15504 N 1442.63 1.56409 0.193394 0
M  V30 15505 C 1443.57 1.94681 1.23968 0
M  V30 15506 C 1444.54 0.807634 1.45143 0
M  V30 15507 O 1445.73 1.06593 1.58248 0
M  V30 15508 C 1442.87 2.29306 2.57901 0
M  V30 15509 C 1441.98 3.56296 2.4429 0
M  V30 15510 C 1441.12 3.80235 3.70938 0
M  V30 15511 C 1440.15 5.00645 3.52167 0
M  V30 15512 N 1439.29 5.20829 4.70831 0
M  V30 15513 H 1444.13 2.83884 0.906298 0
M  V30 15514 H 1441.67 1.40486 0.436146 0
M  V30 15515 H 1443.63 2.47398 3.35932 0
M  V30 15516 H 1442.26 1.43241 2.89278 0
M  V30 15517 H 1441.31 3.46241 1.57547 0
M  V30 15518 H 1442.62 4.44483 2.26354 0
M  V30 15519 H 1441.77 3.98575 4.57408 0
M  V30 15520 H 1440.51 2.90381 3.91829 0
M  V30 15521 H 1439.52 4.82225 2.64081 0
M  V30 15522 H 1440.74 5.92009 3.32719 0
M  V30 15523 H 1438.69 4.33923 4.91983 0
M  V30 15524 H 1438.61 6.03199 4.55726 0
M  V30 15525 H 1439.87 5.4363 5.58648 0
M  V30 15526 N 1444.1 -0.461169 1.50702 0
M  V30 15527 C 1445.38 -1.22225 1.52711 0
M  V30 15528 C 1445.76 -2.09268 0.27749 0
M  V30 15529 O 1445.11 -2.16232 -0.738642 0
M  V30 15530 C 1445.32 -2.04472 2.82829 0
M  V30 15531 C 1446.67 -2.62326 3.33872 0
M  V30 15532 O 1447.69 -2.14706 2.84218 0
M  V30 15533 O 1446.55 -3.49116 4.20453 0
M  V30 15534 H 1443.64 -0.555168 0.612958 0
M  V30 15535 H 1446.19 -0.47218 1.62999 0
M  V30 15536 H 1444.96 -1.40392 3.65247 0
M  V30 15537 H 1444.58 -2.86593 2.75591 0
M  V30 15538 N 1445.58 -1.40446 -0.715026 0
M  V30 15539 C 1446.51 -1.35159 -1.83868 0
M  V30 15540 C 1447.49 -0.221884 -1.61079 0
M  V30 15541 O 1448.68 -0.405635 -1.84084 0
M  V30 15542 C 1445.8 -1.10358 -3.20217 0
M  V30 15543 C 1444.85 -2.25787 -3.61832 0
M  V30 15544 S 1445.68 -3.88183 -3.68882 0
M  V30 15545 C 1446.84 -3.65647 -5.07989 0
M  V30 15546 H 1447.07 -2.30252 -1.88073 0
M  V30 15547 H 1444.6 -1.26738 -0.881859 0
M  V30 15548 H 1446.56 -0.967343 -3.9894 0
M  V30 15549 H 1445.22 -0.169178 -3.13644 0
M  V30 15550 H 1444.42 -2.04078 -4.60834 0
M  V30 15551 H 1444.02 -2.35717 -2.90368 0
M  V30 15552 H 1446.31 -3.24149 -5.94923 0
M  V30 15553 H 1447.25 -4.64182 -5.34734 0
M  V30 15554 H 1447.66 -2.99322 -4.78609 0
M  V30 15555 N 1447.06 0.947303 -1.25952 0
M  V30 15556 C 1448.34 1.66964 -1.01894 0
M  V30 15557 C 1448.72 2.06192 0.452555 0
M  V30 15558 O 1448.06 1.78098 1.43156 0
M  V30 15559 C 1448.27 2.88643 -1.96179 0
M  V30 15560 C 1449.62 3.60432 -2.24441 0
M  V30 15561 O 1450.65 2.98737 -1.93996 0
M  V30 15562 O 1449.51 4.7154 -2.76247 0
M  V30 15563 H 1446.6 0.730875 -0.386976 0
M  V30 15564 H 1449.15 0.999577 -1.37137 0
M  V30 15565 H 1447.92 2.565 -2.95506 0
M  V30 15566 H 1447.54 3.63377 -1.61379 0
M  V30 15567 N 1448.54 1.07657 1.15099 0
M  V30 15568 C 1449.45 0.711198 2.2356 0
M  V30 15569 C 1450.46 -0.278932 1.7175 0
M  V30 15570 O 1451.64 -0.124788 2.01013 0
M  V30 15571 C 1448.71 0.117855 3.465 0
M  V30 15572 C 1447.77 1.16162 4.13286 0
M  V30 15573 C 1447 0.596494 5.30356 0
M  V30 15574 O 1447.22 -0.586474 5.67377 0
M  V30 15575 O 1446.16 1.34288 5.86729 0
M  V30 15576 H 1449.98 1.61578 2.5715 0
M  V30 15577 H 1447.57 0.84973 1.22882 0
M  V30 15578 H 1449.45 -0.210613 4.20873 0
M  V30 15579 H 1448.12 -0.760008 3.14652 0
M  V30 15580 H 1447.03 1.54249 3.4082 0
M  V30 15581 H 1448.36 2.01149 4.49221 0
M  V30 15582 N 1450.02 -1.31994 0.861122 0
M  V30 15583 C 1451.26 -1.97317 0.468371 0
M  V30 15584 C 1451.6 -1.67954 -0.974941 0
M  V30 15585 O 1450.87 -0.971243 -1.68514 0
M  V30 15586 C 1451.15 -3.52918 0.715607 0
M  V30 15587 C 1451.01 -3.91888 2.20781 0
M  V30 15588 C 1452.33 -4.39747 0.17624 0
M  V30 15589 H 1449.44 -0.716733 0.171646 0
M  V30 15590 H 1452.09 -1.56269 1.08074 0
M  V30 15591 H 1450.24 -3.88013 0.194387 0
M  V30 15592 H 1451.91 -3.66938 2.7956 0
M  V30 15593 H 1450.15 -3.40813 2.68382 0
M  V30 15594 H 1450.82 -5.00346 2.33147 0
M  V30 15595 H 1453.3 -4.11424 0.622043 0
M  V30 15596 H 1452.17 -5.47592 0.378748 0
M  V30 15597 H 1452.44 -4.32393 -0.921358 0
M  V30 15598 N 1451.49 -0.619688 -1.44906 0
M  V30 15599 C 1452.77 -0.0510703 -1.95533 0
M  V30 15600 C 1453.15 1.42013 -1.56191 0
M  V30 15601 O 1452.5 2.12879 -0.830356 0
M  V30 15602 C 1452.71 -0.261896 -3.48016 0
M  V30 15603 C 1454.06 -0.149057 -4.24338 0
M  V30 15604 O 1455.08 -0.192655 -3.55679 0
M  V30 15605 O 1453.94 -0.0443345 -5.46482 0
M  V30 15606 H 1451.03 0.0288461 -0.826497 0
M  V30 15607 H 1453.58 -0.690594 -1.55013 0
M  V30 15608 H 1452.35 -1.28319 -3.69662 0
M  V30 15609 H 1451.98 0.412314 -3.95456 0
M  V30 15610 N 1452.97 1.53444 -0.359552 0
M  V30 15611 C 1454.22 2.01464 0.232366 0
M  V30 15612 C 1454.55 1.24656 1.48911 0
M  V30 15613 O 1453.83 0.338574 1.9153 0
M  V30 15614 C 1454.11 3.56172 0.530403 0
M  V30 15615 C 1453.96 4.43678 -0.739556 0
M  V30 15616 C 1455.28 4.19412 1.33347 0
M  V30 15617 H 1452.4 0.732314 0.0829802 0
M  V30 15618 H 1455.04 1.83752 -0.483253 0
M  V30 15619 H 1453.19 3.71396 1.14004 0
M  V30 15620 H 1454.86 4.40263 -1.37719 0
M  V30 15621 H 1453.11 4.11892 -1.36117 0
M  V30 15622 H 1453.78 5.49856 -0.486062 0
M  V30 15623 H 1456.25 4.07984 0.817816 0
M  V30 15624 H 1455.13 5.277 1.51075 0
M  V30 15625 H 1455.39 3.7508 2.34024 0
M  V30 15626 N 1454.45 0.0885642 1.57351 0
M  V30 15627 C 1455.87 -0.268088 1.57332 0
M  V30 15628 C 1456.07 -1.68875 1.09924 0
M  V30 15629 O 1455.12 -2.40385 0.772729 0
M  V30 15630 C 1456.44 -0.0624654 3.00635 0
M  V30 15631 C 1457.98 -0.130717 3.12727 0
M  V30 15632 C 1458.46 0.0468305 4.57976 0
M  V30 15633 N 1459.95 -0.00822093 4.63199 0
M  V30 15634 C 1460.68 0.104497 5.73305 0
M  V30 15635 N 1460.18 0.271682 6.92267 0
M  V30 15636 N 1461.97 0.0462333 5.62081 0
M  V30 15637 H 1454.12 1.01686 1.86477 0
M  V30 15638 H 1456.39 0.397971 0.86042 0
M  V30 15639 H 1456.09 0.918505 3.39494 0
M  V30 15640 H 1455.97 -0.807602 3.68453 0
M  V30 15641 H 1458.35 -1.10219 2.73744 0
M  V30 15642 H 1458.44 0.645801 2.47514 0
M  V30 15643 H 1458.08 1.01514 4.97652 0
M  V30 15644 H 1458.01 -0.7493 5.21242 0
M  V30 15645 H 1460.5 -0.135164 3.77658 0
M  V30 15646 H 1460.81 0.349381 7.7201 0
M  V30 15647 H 1459.16 0.307265 6.9432 0
M  V30 15648 H 1462.35 -0.0831995 4.68026 0
M  V30 15649 H 1462.52 0.137529 6.47854 0
M  V30 15650 N 1455.93 -1.56509 -0.185096 0
M  V30 15651 C 1456.86 -1.98363 -1.23184 0
M  V30 15652 C 1457.84 -0.85709 -1.46929 0
M  V30 15653 O 1459.02 -1.12216 -1.58497 0
M  V30 15654 C 1456.15 -2.33172 -2.57387 0
M  V30 15655 C 1455.11 -3.48658 -2.48236 0
M  V30 15656 C 1454.43 -3.69171 -3.86804 0
M  V30 15657 C 1455.73 -4.82538 -1.99885 0
M  V30 15658 H 1457.43 -2.86053 -0.883982 0
M  V30 15659 H 1454.97 -1.37623 -0.423786 0
M  V30 15660 H 1456.93 -2.61048 -3.30805 0
M  V30 15661 H 1455.65 -1.42377 -2.93933 0
M  V30 15662 H 1454.31 -3.20889 -1.77273 0
M  V30 15663 H 1453.96 -2.75689 -4.20719 0
M  V30 15664 H 1453.66 -4.46868 -3.81553 0
M  V30 15665 H 1455.18 -3.99433 -4.61829 0
M  V30 15666 H 1456.6 -5.0938 -2.63068 0
M  V30 15667 H 1454.99 -5.63775 -2.05614 0
M  V30 15668 H 1456.06 -4.75453 -0.952503 0
M  V30 15669 N 1457.41 0.45317 -1.50944 0
M  V30 15670 C 1458.82 1.03354 -1.55482 0
M  V30 15671 C 1459.17 1.92701 -0.368873 0
M  V30 15672 O 1458.29 2.10153 0.516208 0
M  V30 15673 C 1458.89 1.88118 -2.81775 0
M  V30 15674 C 1457.45 2.41232 -2.88936 0
M  V30 15675 C 1456.59 1.20032 -2.49975 0
M  V30 15676 H 1459.55 0.235059 -1.5695 0
M  V30 15677 H 1459.57 2.73394 -2.64643 0
M  V30 15678 H 1459.08 1.23064 -3.68072 0
M  V30 15679 H 1457.18 3.09788 -2.07032 0
M  V30 15680 H 1457.29 2.75113 -3.92237 0
M  V30 15681 H 1455.66 1.54072 -2.02815 0
M  V30 15682 H 1456.44 0.56612 -3.386 0
M  V30 15683 N 1458.88 1.40823 0.707568 0
M  V30 15684 C 1460.13 1.39535 1.46753 0
M  V30 15685 C 1460.46 0.000370511 1.945 0
M  V30 15686 O 1459.71 -0.985628 1.69068 0
M  V30 15687 C 1460.01 2.33829 2.70294 0
M  V30 15688 C 1459.68 3.8092 2.41269 0
M  V30 15689 C 1458.34 4.20993 2.33063 0
M  V30 15690 C 1460.69 4.73839 2.17086 0
M  V30 15691 C 1458.02 5.52009 1.98754 0
M  V30 15692 C 1460.37 6.05161 1.84289 0
M  V30 15693 C 1459.04 6.44268 1.74571 0
M  V30 15694 H 1458.31 0.510593 0.537006 0
M  V30 15695 H 1460.95 1.73536 0.809789 0
M  V30 15696 H 1459.26 1.9304 3.40944 0
M  V30 15697 H 1460.96 2.30111 3.28405 0
M  V30 15698 H 1457.55 3.49175 2.48545 0
M  V30 15699 H 1461.73 4.43691 2.22377 0
M  V30 15700 H 1456.99 5.81202 1.89774 0
M  V30 15701 H 1461.16 6.7667 1.64593 0
M  V30 15702 H 1458.79 7.45703 1.47753 0
M  V30 15703 N 1460.36 -0.94061 1.26453 0
M  V30 15704 C 1461.29 -2.04322 1.03852 0
M  V30 15705 C 1462.31 -1.628 -0.00122618 0
M  V30 15706 O 1463.5 -1.76894 0.238911 0
M  V30 15707 C 1460.6 -3.34394 0.550789 0
M  V30 15708 C 1459.77 -4.0468 1.6599 0
M  V30 15709 C 1458.83 -5.13025 1.17012 0
M  V30 15710 O 1457.85 -5.37699 1.8673 0
M  V30 15711 N 1459.06 -5.80497 0.0188478 0
M  V30 15712 H 1461.82 -2.24276 1.98797 0
M  V30 15713 H 1459.38 -1.11013 1.17846 0
M  V30 15714 H 1461.37 -4.04169 0.207305 0
M  V30 15715 H 1459.94 -3.11108 -0.30509 0
M  V30 15716 H 1459.16 -3.28813 2.17429 0
M  V30 15717 H 1460.45 -4.48392 2.40463 0
M  V30 15718 H 1459.85 -5.62888 -0.563368 0
M  V30 15719 H 1458.41 -6.51259 -0.265556 0
M  V30 15720 N 1461.84 -1.08266 -1.14527 0
M  V30 15721 C 1462.8 -0.715117 -2.17758 0
M  V30 15722 C 1463.8 0.24935 -1.58855 0
M  V30 15723 O 1464.99 0.0290846 -1.74176 0
M  V30 15724 C 1462.13 -0.055575 -3.40855 0
M  V30 15725 H 1463.32 -1.62921 -2.51787 0
M  V30 15726 H 1460.87 -0.880346 -1.2915 0
M  V30 15727 H 1461.61 0.870312 -3.12404 0
M  V30 15728 H 1461.39 -0.749382 -3.84872 0
M  V30 15729 H 1462.88 0.186592 -4.17183 0
M  V30 15730 N 1463.32 1.31536 -0.86811 0
M  V30 15731 C 1464.23 2.32326 -0.32588 0
M  V30 15732 C 1465.25 1.64632 0.563243 0
M  V30 15733 O 1466.42 1.96067 0.460403 0
M  V30 15734 C 1463.49 3.43562 0.46539 0
M  V30 15735 C 1462.55 4.26919 -0.451472 0
M  V30 15736 C 1461.78 5.32844 0.302129 0
M  V30 15737 O 1462 5.49485 1.53045 0
M  V30 15738 O 1460.94 6.00944 -0.339048 0
M  V30 15739 H 1464.76 2.80622 -1.16126 0
M  V30 15740 H 1462.35 1.35401 -0.631428 0
M  V30 15741 H 1464.23 4.11368 0.914028 0
M  V30 15742 H 1462.91 2.97432 1.27734 0
M  V30 15743 H 1461.81 3.61874 -0.948571 0
M  V30 15744 H 1463.15 4.7661 -1.22897 0
M  V30 15745 N 1464.8 0.627364 1.44575 0
M  V30 15746 C 1465.73 -0.129056 2.27835 0
M  V30 15747 C 1466.71 -0.854852 1.38315 0
M  V30 15748 O 1467.89 -0.859709 1.67754 0
M  V30 15749 C 1465.02 -1.18866 3.17157 0
M  V30 15750 C 1464.07 -0.563816 4.22757 0
M  V30 15751 S 1464.9 0.643269 5.31622 0
M  V30 15752 C 1466.05 -0.416443 6.24513 0
M  V30 15753 H 1466.29 0.577281 2.91641 0
M  V30 15754 H 1463.82 0.415427 1.48706 0
M  V30 15755 H 1465.78 -1.79508 3.69171 0
M  V30 15756 H 1464.44 -1.86717 2.52578 0
M  V30 15757 H 1463.63 -1.36173 4.85256 0
M  V30 15758 H 1463.23 -0.0321045 3.73986 0
M  V30 15759 H 1465.53 -1.29006 6.65104 0
M  V30 15760 H 1466.47 0.172871 7.07889 0
M  V30 15761 H 1466.88 -0.740651 5.5962 0
M  V30 15762 N 1466.28 -1.53251 0.367684 0
M  V30 15763 C 1467.52 -2.01287 -0.221351 0
M  V30 15764 C 1467.85 -1.25489 -1.48603 0
M  V30 15765 O 1467.11 -0.337392 -1.9277 0
M  V30 15766 C 1467.4 -3.53031 -0.557149 0
M  V30 15767 C 1467.07 -4.46708 0.613444 0
M  V30 15768 C 1465.73 -4.72036 0.934633 0
M  V30 15769 C 1468.08 -5.02112 1.3976 0
M  V30 15770 C 1465.41 -5.50021 2.04191 0
M  V30 15771 C 1467.76 -5.81306 2.49531 0
M  V30 15772 C 1466.43 -6.04921 2.82182 0
M  V30 15773 H 1465.7 -0.73656 -0.080998 0
M  V30 15774 H 1468.35 -1.84842 0.500581 0
M  V30 15775 H 1466.65 -3.67434 -1.36012 0
M  V30 15776 H 1468.35 -3.87674 -1.02519 0
M  V30 15777 H 1464.94 -4.27143 0.353075 0
M  V30 15778 H 1469.12 -4.82488 1.1627 0
M  V30 15779 H 1464.38 -5.66536 2.29884 0
M  V30 15780 H 1468.55 -6.23245 3.10707 0
M  V30 15781 H 1466.18 -6.65134 3.68104 0
M  V30 15782 N 1467.75 -0.0969077 -1.57302 0
M  V30 15783 C 1469 0.566072 -1.93594 0
M  V30 15784 C 1469.32 1.69226 -0.980922 0
M  V30 15785 O 1470.52 2.41651 -1.23763 0
M  V30 15786 C 1468.98 1.05832 -3.43988 0
M  V30 15787 C 1468.59 -0.038207 -4.47984 0
M  V30 15788 C 1470.33 1.69393 -3.89238 0
M  V30 15789 C 1468.24 0.4695 -5.89533 0
M  V30 15790 H 1467.17 0.215226 -0.72263 0
M  V30 15791 H 1469.82 -0.173202 -1.82681 0
M  V30 15792 H 1468.2 1.85134 -3.50059 0
M  V30 15793 H 1469.37 -0.813761 -4.53558 0
M  V30 15794 H 1467.69 -0.579113 -4.12353 0
M  V30 15795 H 1470.29 2.08454 -4.92393 0
M  V30 15796 H 1470.63 2.56381 -3.27986 0
M  V30 15797 H 1471.16 0.966709 -3.85875 0
M  V30 15798 H 1467.9 -0.363802 -6.5449 0
M  V30 15799 H 1467.42 1.21202 -5.87427 0
M  V30 15800 H 1469.1 0.937885 -6.40166 0
M  V30 15801 N 1469.23 1.56605 0.176793 0
M  V30 15802 C 1470.16 1.9254 1.24342 0
M  V30 15803 C 1471.18 0.81792 1.40762 0
M  V30 15804 O 1472.37 1.09636 1.40862 0
M  V30 15805 C 1469.47 2.15822 2.61293 0
M  V30 15806 C 1468.64 3.47035 2.66243 0
M  V30 15807 C 1467.7 3.5921 3.84519 0
M  V30 15808 O 1466.72 4.31876 3.70771 0
M  V30 15809 N 1467.93 2.93653 5.00748 0
M  V30 15810 H 1470.69 2.84635 0.938246 0
M  V30 15811 H 1468.25 1.57695 0.366597 0
M  V30 15812 H 1470.24 2.21237 3.38875 0
M  V30 15813 H 1468.81 1.30138 2.84223 0
M  V30 15814 H 1468.03 3.53326 1.74798 0
M  V30 15815 H 1469.32 4.33388 2.66557 0
M  V30 15816 H 1468.72 2.34476 5.14818 0
M  V30 15817 H 1467.28 3.04671 5.76211 0
M  V30 15818 N 1470.71 -0.445159 1.51182 0
M  V30 15819 C 1471.66 -1.5604 1.72494 0
M  V30 15820 C 1472.65 -1.58753 0.591101 0
M  V30 15821 O 1473.86 -1.62591 0.772285 0
M  V30 15822 H 1470.23 -0.518265 0.544891 0
M  V30 15823 H 1472.2 -1.35237 2.65995 0
M  V30 15824 C 1470.95 -2.93768 1.85999 0
M  V30 15825 H 1470.28 -2.9241 2.72647 0
M  V30 15826 H 1471.72 -3.71189 2.04926 0
M  V30 15827 C 1470.17 -3.31186 0.617853 0
M  V30 15828 O 1470.7 -4.01035 -0.231101 0
M  V30 15829 N 1468.91 -2.86868 0.464234 0
M  V30 15830 H 1468.46 -2.30198 1.15614 0
M  V30 15831 H 1468.42 -3.12267 -0.365643 0
M  V30 15832 N 1472.19 -1.41197 -0.700089 0
M  V30 15833 C 1473.43 -1.40519 -1.46227 0
M  V30 15834 C 1473.77 -0.0126108 -1.94196 0
M  V30 15835 O 1473.04 0.958837 -1.69223 0
M  V30 15836 C 1473.32 -2.40808 -2.67738 0
M  V30 15837 C 1473.18 -3.89154 -2.25563 0
M  V30 15838 C 1474.5 -2.38415 -3.69927 0
M  V30 15839 H 1471.62 -0.511724 -0.530384 0
M  V30 15840 H 1474.26 -1.72441 -0.797754 0
M  V30 15841 H 1472.41 -2.13717 -3.24434 0
M  V30 15842 H 1474.08 -4.27132 -1.74229 0
M  V30 15843 H 1472.32 -4.04239 -1.57395 0
M  V30 15844 H 1472.99 -4.54866 -3.12731 0
M  V30 15845 H 1475.47 -2.62447 -3.22895 0
M  V30 15846 H 1474.35 -3.10609 -4.52563 0
M  V30 15847 H 1474.61 -1.40116 -4.19309 0
M  V30 15848 N 1473.67 0.933891 -1.2695 0
M  V30 15849 C 1474.91 1.67539 -1.1231 0
M  V30 15850 C 1475.23 1.92765 0.331788 0
M  V30 15851 O 1476.43 2.6481 0.598983 0
M  V30 15852 C 1474.89 3.01722 -1.96194 0
M  V30 15853 C 1474.5 2.84216 -3.46302 0
M  V30 15854 C 1476.24 3.79513 -1.90185 0
M  V30 15855 C 1474.15 4.13916 -4.22407 0
M  V30 15856 H 1473.08 0.62839 -0.416704 0
M  V30 15857 H 1475.73 1.03801 -1.5132 0
M  V30 15858 H 1474.11 3.66482 -1.50023 0
M  V30 15859 H 1475.29 2.28261 -4.00292 0
M  V30 15860 H 1473.6 2.1986 -3.53625 0
M  V30 15861 H 1476.2 4.75615 -2.44325 0
M  V30 15862 H 1476.54 4.07019 -0.874129 0
M  V30 15863 H 1477.07 3.21539 -2.34217 0
M  V30 15864 H 1473.81 3.91591 -5.25677 0
M  V30 15865 H 1473.33 4.69558 -3.73196 0
M  V30 15866 H 1475.01 4.82322 -4.31248 0
M  V30 15867 N 1475.14 1.08871 1.13951 0
M  V30 15868 C 1476.07 0.744715 2.21306 0
M  V30 15869 C 1477.05 -0.275019 1.67862 0
M  V30 15870 O 1478.24 -0.144339 1.93663 0
M  V30 15871 C 1475.37 0.158336 3.46939 0
M  V30 15872 C 1474.32 1.10695 4.13438 0
M  V30 15873 C 1473.65 0.382552 5.3333 0
M  V30 15874 C 1474.95 2.44704 4.61429 0
M  V30 15875 H 1476.64 1.6423 2.50337 0
M  V30 15876 H 1474.19 0.791088 1.20324 0
M  V30 15877 H 1476.14 -0.0943587 4.21294 0
M  V30 15878 H 1474.87 -0.774413 3.17286 0
M  V30 15879 H 1473.53 1.34482 3.41043 0
M  V30 15880 H 1473.17 -0.554153 4.99938 0
M  V30 15881 H 1472.87 1.01499 5.78767 0
M  V30 15882 H 1474.4 0.138023 6.10444 0
M  V30 15883 H 1475.81 2.25156 5.27236 0
M  V30 15884 H 1474.21 3.03684 5.17586 0
M  V30 15885 H 1475.28 3.05883 3.76249 0
M  V30 15886 N 1476.62 -1.31073 0.875073 0
M  V30 15887 C 1477.87 -1.96809 0.489273 0
M  V30 15888 C 1478.2 -1.68979 -0.957073 0
M  V30 15889 O 1477.48 -0.989061 -1.67475 0
M  V30 15890 C 1477.76 -3.52139 0.752998 0
M  V30 15891 C 1477.61 -3.89524 2.24925 0
M  V30 15892 C 1478.93 -4.39535 0.222871 0
M  V30 15893 H 1476.05 -0.714873 0.179238 0
M  V30 15894 H 1478.69 -1.55114 1.09725 0
M  V30 15895 H 1476.84 -3.87785 0.23553 0
M  V30 15896 H 1478.51 -3.63953 2.83436 0
M  V30 15897 H 1476.76 -3.37948 2.71981 0
M  V30 15898 H 1477.43 -4.97845 2.38441 0
M  V30 15899 H 1479.9 -4.10741 0.665645 0
M  V30 15900 H 1478.78 -5.47159 0.436806 0
M  V30 15901 H 1479.04 -4.33346 -0.875445 0
M  V30 15902 N 1478.1 -0.635022 -1.4424 0
M  V30 15903 C 1479.35 -0.141067 -2.02008 0
M  V30 15904 C 1479.68 1.23849 -1.49973 0
M  V30 15905 O 1478.93 1.83666 -0.675673 0
M  V30 15906 C 1479.23 -0.081191 -3.57308 0
M  V30 15907 C 1478.9 -1.40004 -4.28614 0
M  V30 15908 C 1477.56 -1.76125 -4.4781 0
M  V30 15909 C 1479.91 -2.27041 -4.6915 0
M  V30 15910 C 1477.24 -2.98982 -5.04804 0
M  V30 15911 C 1479.59 -3.49173 -5.27504 0
M  V30 15912 C 1478.25 -3.85512 -5.44919 0
M  V30 15913 H 1477.52 -0.05162 -0.7392 0
M  V30 15914 H 1480.17 -0.822112 -1.72955 0
M  V30 15915 H 1478.48 0.68324 -3.85797 0
M  V30 15916 H 1480.17 0.317584 -3.9974 0
M  V30 15917 H 1476.76 -1.10897 -4.14005 0
M  V30 15918 H 1480.95 -2.0043 -4.54028 0
M  V30 15919 H 1476.2 -3.27208 -5.16473 0
M  V30 15920 H 1480.38 -4.16847 -5.57864 0
M  V30 15921 H 1478 -4.80793 -5.88848 0
M  V30 15922 N 1479.58 1.53054 -0.375806 0
M  V30 15923 C 1480.83 2.01401 0.210673 0
M  V30 15924 C 1481.15 1.26275 1.47935 0
M  V30 15925 O 1480.41 0.347611 1.92588 0
M  V30 15926 C 1480.71 3.53321 0.538419 0
M  V30 15927 C 1480.37 4.46376 -0.637126 0
M  V30 15928 C 1479.04 4.71534 -0.959653 0
M  V30 15929 C 1481.39 5.01364 -1.42421 0
M  V30 15930 C 1478.72 5.4893 -2.07105 0
M  V30 15931 C 1481.07 5.79975 -2.5261 0
M  V30 15932 C 1479.73 6.03416 -2.85386 0
M  V30 15933 H 1479 0.736979 0.0770907 0
M  V30 15934 H 1481.65 1.84574 -0.510376 0
M  V30 15935 H 1479.95 3.6815 1.34062 0
M  V30 15936 H 1481.65 3.88212 1.00461 0
M  V30 15937 H 1478.24 4.2695 -0.375722 0
M  V30 15938 H 1482.42 4.81865 -1.18828 0
M  V30 15939 H 1477.68 5.65309 -2.32886 0
M  V30 15940 H 1481.85 6.21588 -3.14008 0
M  V30 15941 H 1479.48 6.63172 -3.71627 0
M  V30 15942 N 1481.06 0.105248 1.57248 0
M  V30 15943 C 1482.3 -0.559306 1.96599 0
M  V30 15944 C 1482.66 -1.64717 0.986529 0
M  V30 15945 O 1483.86 -2.36965 1.2689 0
M  V30 15946 C 1482.13 -1.09085 3.40346 0
M  V30 15947 S 1483.69 -1.76586 4.017 0
M  V30 15948 H 1480.51 -0.182213 0.687255 0
M  V30 15949 H 1483.11 0.187064 1.94603 0
M  V30 15950 H 1481.82 -0.287734 4.0939 0
M  V30 15951 H 1481.35 -1.87282 3.45961 0
M  V30 15952 H 1483.36 -3.05078 3.91334 0
M  V30 15953 N 1482.53 -1.56697 -0.168486 0
M  V30 15954 C 1483.78 -1.82424 -0.885965 0
M  V30 15955 C 1484.11 -0.683543 -1.81773 0
M  V30 15956 O 1483.39 0.314319 -1.91943 0
M  V30 15957 C 1483.67 -3.18553 -1.67917 0
M  V30 15958 C 1483.52 -4.43154 -0.770343 0
M  V30 15959 C 1484.84 -3.51654 -2.64627 0
M  V30 15960 H 1481.96 -0.663594 -0.320644 0
M  V30 15961 H 1484.6 -1.89391 -0.15205 0
M  V30 15962 H 1482.75 -3.12745 -2.30484 0
M  V30 15963 H 1484.43 -4.61032 -0.157328 0
M  V30 15964 H 1482.67 -4.33729 -0.0785653 0
M  V30 15965 H 1483.34 -5.34961 -1.36092 0
M  V30 15966 H 1485.82 -3.57934 -2.12185 0
M  V30 15967 H 1484.69 -4.47975 -3.17191 0
M  V30 15968 H 1484.95 -2.76503 -3.44961 0
M  V30 15969 N 1484.01 0.437135 -1.51416 0
M  V30 15970 C 1485.26 1.18421 -1.63771 0
M  V30 15971 C 1485.58 1.91718 -0.356282 0
M  V30 15972 O 1484.85 1.85566 0.627863 0
M  V30 15973 H 1483.43 0.440125 -0.603572 0
M  V30 15974 H 1486.09 0.501155 -1.88347 0
M  V30 15975 H 1485.19 1.91367 -2.46546 0
M  V30 15976 N 1485.49 1.41566 0.692592 0
M  V30 15977 C 1486.42 1.38067 1.81694 0
M  V30 15978 C 1487.4 0.247482 1.60706 0
M  V30 15979 O 1488.59 0.43487 1.83415 0
M  V30 15980 C 1485.71 1.15438 3.18421 0
M  V30 15981 C 1484.76 2.31515 3.58194 0
M  V30 15982 S 1485.59 3.94003 3.6266 0
M  V30 15983 C 1486.75 3.73683 5.02108 0
M  V30 15984 H 1486.98 2.33215 1.84386 0
M  V30 15985 H 1484.51 1.28125 0.861585 0
M  V30 15986 H 1486.47 1.03069 3.9735 0
M  V30 15987 H 1485.13 0.219055 3.13335 0
M  V30 15988 H 1484.33 2.11383 4.57529 0
M  V30 15989 H 1483.93 2.40307 2.86581 0
M  V30 15990 H 1486.22 3.33573 5.89691 0
M  V30 15991 H 1487.16 4.72631 5.27281 0
M  V30 15992 H 1487.57 3.06899 4.73786 0
M  V30 15993 N 1486.97 -0.927146 1.27443 0
M  V30 15994 C 1488.22 -1.66941 1.13197 0
M  V30 15995 C 1488.53 -1.92939 -0.32156 0
M  V30 15996 O 1489.74 -2.65124 -0.584931 0
M  V30 15997 C 1488.19 -3.00677 1.97791 0
M  V30 15998 C 1487.8 -2.82376 3.47805 0
M  V30 15999 C 1489.54 -3.78499 1.92195 0
M  V30 16000 C 1487.45 -4.1167 4.24596 0
M  V30 16001 H 1486.38 -0.626171 0.420031 0
M  V30 16002 H 1489.03 -1.02997 1.51868 0
M  V30 16003 H 1487.41 -3.65681 1.51965 0
M  V30 16004 H 1488.59 -2.26135 4.01497 0
M  V30 16005 H 1486.9 -2.17982 3.54786 0
M  V30 16006 H 1489.5 -4.74312 2.46844 0
M  V30 16007 H 1489.84 -4.0655 0.895702 0
M  V30 16008 H 1490.38 -3.20292 2.35919 0
M  V30 16009 H 1487.12 -3.88798 5.27747 0
M  V30 16010 H 1486.64 -4.67573 3.75681 0
M  V30 16011 H 1488.31 -4.80028 4.338 0
M  V30 16012 N 1488.45 -1.09474 -1.13372 0
M  V30 16013 C 1489.41 -0.738173 -2.16988 0
M  V30 16014 C 1490.41 0.232488 -1.5911 0
M  V30 16015 O 1491.6 0.0106093 -1.74197 0
M  V30 16016 C 1488.73 -0.091724 -3.40777 0
M  V30 16017 H 1489.92 -1.65582 -2.50045 0
M  V30 16018 H 1487.48 -0.893994 -1.28209 0
M  V30 16019 H 1488.21 0.837129 -3.13309 0
M  V30 16020 H 1488 -0.790161 -3.84056 0
M  V30 16021 H 1489.49 0.142334 -4.17357 0
M  V30 16022 N 1489.92 1.30607 -0.882012 0
M  V30 16023 C 1491.17 1.95869 -0.497978 0
M  V30 16024 C 1491.49 1.69991 0.955405 0
M  V30 16025 O 1490.76 1.02188 1.67136 0
M  V30 16026 H 1489.34 0.724699 -0.181165 0
M  V30 16027 H 1492.01 1.59193 -1.12444 0
M  V30 16028 H 1491.1 3.04917 -0.665754 0
M  V30 16029 N 1491.4 0.642663 1.43901 0
M  V30 16030 C 1492.65 0.152003 2.0223 0
M  V30 16031 C 1492.98 -1.22711 1.50518 0
M  V30 16032 O 1492.26 -1.817 0.693937 0
M  V30 16033 C 1492.54 0.151278 3.59782 0
M  V30 16034 C 1492.39 1.56356 4.2175 0
M  V30 16035 C 1493.71 -0.518016 4.37041 0
M  V30 16036 H 1490.83 0.0567094 0.734815 0
M  V30 16037 H 1493.47 0.821337 1.7133 0
M  V30 16038 H 1491.62 -0.418679 3.86237 0
M  V30 16039 H 1493.29 2.18329 4.06362 0
M  V30 16040 H 1491.54 2.11401 3.78803 0
M  V30 16041 H 1492.21 1.51499 5.30803 0
M  V30 16042 H 1494.68 -0.0331947 4.16087 0
M  V30 16043 H 1493.56 -0.487754 5.46729 0
M  V30 16044 H 1493.82 -1.59036 4.12504 0
M  V30 16045 N 1492.88 -1.52852 0.383918 0
M  V30 16046 C 1494.13 -2.0151 -0.199989 0
M  V30 16047 C 1494.46 -1.27058 -1.47263 0
M  V30 16048 O 1493.71 -0.357819 -1.92401 0
M  V30 16049 C 1494.01 -3.53602 -0.519674 0
M  V30 16050 C 1493.68 -4.46032 0.660789 0
M  V30 16051 C 1492.34 -4.71018 0.984646 0
M  V30 16052 C 1494.69 -5.00602 1.45077 0
M  V30 16053 C 1492.02 -5.47824 2.10013 0
M  V30 16054 C 1494.37 -5.78627 2.55682 0
M  V30 16055 C 1493.03 -6.01894 2.88582 0
M  V30 16056 H 1492.3 -0.737377 -0.0731812 0
M  V30 16057 H 1494.95 -1.843 0.520157 0
M  V30 16058 H 1493.26 -3.68856 -1.32108 0
M  V30 16059 H 1494.95 -3.88739 -0.984011 0
M  V30 16060 H 1491.54 -4.26745 0.398359 0
M  V30 16061 H 1495.73 -4.81228 1.21381 0
M  V30 16062 H 1490.98 -5.64066 2.3588 0
M  V30 16063 H 1495.16 -6.19914 3.173 0
M  V30 16064 H 1492.78 -6.61192 3.75138 0
M  V30 16065 N 1494.36 -0.113586 -1.5719 0
M  V30 16066 C 1495.77 0.412653 -1.82083 0
M  V30 16067 C 1496.12 1.66964 -1.03041 0
M  V30 16068 O 1495.25 2.14767 -0.265354 0
M  V30 16069 C 1495.84 0.755439 -3.3027 0
M  V30 16070 C 1494.4 1.22634 -3.55862 0
M  V30 16071 C 1493.55 0.232285 -2.76325 0
M  V30 16072 H 1496.5 -0.338792 -1.55042 0
M  V30 16073 H 1496.52 1.61335 -3.44603 0
M  V30 16074 H 1496.03 -0.1596 -3.87772 0
M  V30 16075 H 1494.13 2.15846 -3.03713 0
M  V30 16076 H 1494.25 1.1754 -4.64458 0
M  V30 16077 H 1492.61 0.718222 -2.44364 0
M  V30 16078 H 1493.39 -0.675756 -3.36583 0
M  V30 16079 N 1495.84 1.56784 0.160173 0
M  V30 16080 C 1497.08 1.83782 0.871526 0
M  V30 16081 C 1497.44 0.695726 1.79381 0
M  V30 16082 O 1496.73 -0.307168 1.89122 0
M  V30 16083 C 1496.93 3.14703 1.69402 0
M  V30 16084 C 1496.75 4.41538 0.852869 0
M  V30 16085 C 1495.52 5.0258 0.523604 0
M  V30 16086 C 1497.72 5.13952 0.189264 0
M  V30 16087 N 1495.7 6.12999 -0.332518 0
M  V30 16088 C 1497.08 6.17752 -0.527548 0
M  V30 16089 C 1499.13 4.97782 0.108577 0
M  V30 16090 C 1497.83 7.07133 -1.31741 0
M  V30 16091 C 1499.86 5.87615 -0.667985 0
M  V30 16092 C 1499.22 6.90887 -1.37312 0
M  V30 16093 H 1495.32 0.723336 0.297169 0
M  V30 16094 H 1497.9 1.94212 0.137749 0
M  V30 16095 H 1496.08 3.05445 2.39913 0
M  V30 16096 H 1497.81 3.29657 2.34752 0
M  V30 16097 H 1494.56 4.65794 0.85631 0
M  V30 16098 H 1494.99 6.72819 -0.751215 0
M  V30 16099 H 1499.63 4.17937 0.639385 0
M  V30 16100 H 1497.35 7.86414 -1.85952 0
M  V30 16101 H 1500.93 5.77174 -0.732234 0
M  V30 16102 H 1499.81 7.59198 -1.96438 0
M  V30 16103 N 1497.32 -0.429099 1.51646 0
M  V30 16104 C 1498.56 -1.17784 1.64722 0
M  V30 16105 C 1498.89 -1.90998 0.367415 0
M  V30 16106 O 1498.15 -1.8463 -0.648862 0
M  V30 16107 C 1498.44 -2.2131 2.80636 0
M  V30 16108 C 1498.11 -1.65048 4.19607 0
M  V30 16109 C 1496.77 -1.49428 4.57411 0
M  V30 16110 C 1499.12 -1.23765 5.06292 0
M  V30 16111 C 1496.45 -0.910109 5.79598 0
M  V30 16112 C 1498.8 -0.667743 6.29066 0
M  V30 16113 C 1497.47 -0.498507 6.65636 0
M  V30 16114 H 1496.74 -0.431001 0.60276 0
M  V30 16115 H 1499.39 -0.46775 1.857 0
M  V30 16116 H 1497.69 -2.98388 2.53913 0
M  V30 16117 H 1499.39 -2.79079 2.87951 0
M  V30 16118 H 1495.98 -1.78185 3.89805 0
M  V30 16119 H 1500.16 -1.3465 4.77685 0
M  V30 16120 H 1495.42 -0.766825 6.06572 0
M  V30 16121 H 1499.59 -0.339377 6.95573 0
M  V30 16122 H 1497.22 -0.0437292 7.60187 0
M  V30 16123 N 1498.79 -1.41931 -0.685074 0
M  V30 16124 C 1499.72 -1.47385 -1.81107 0
M  V30 16125 C 1500.7 -0.331433 -1.6684 0
M  V30 16126 O 1501.89 -0.544331 -1.86415 0
M  V30 16127 C 1499.02 -1.36555 -3.19327 0
M  V30 16128 C 1497.97 -2.48718 -3.48315 0
M  V30 16129 C 1497.3 -2.2295 -4.86002 0
M  V30 16130 C 1498.6 -3.91047 -3.46237 0
M  V30 16131 H 1500.29 -2.41624 -1.768 0
M  V30 16132 H 1497.84 -1.16297 -0.849178 0
M  V30 16133 H 1499.79 -1.38981 -3.97822 0
M  V30 16134 H 1498.52 -0.388063 -3.24286 0
M  V30 16135 H 1497.18 -2.45592 -2.72176 0
M  V30 16136 H 1496.82 -1.23518 -4.87598 0
M  V30 16137 H 1496.52 -2.98116 -5.0636 0
M  V30 16138 H 1498.05 -2.27108 -5.66793 0
M  V30 16139 H 1499.46 -3.95831 -4.14718 0
M  V30 16140 H 1497.86 -4.65981 -3.7813 0
M  V30 16141 H 1498.93 -4.1845 -2.45006 0
M  V30 16142 N 1500.27 0.920374 -1.27933 0
M  V30 16143 C 1501.52 1.67131 -1.1487 0
M  V30 16144 C 1501.85 1.91816 0.303343 0
M  V30 16145 O 1501.13 1.51379 1.22125 0
M  V30 16146 C 1501.41 3.03332 -1.94066 0
M  V30 16147 C 1501.26 2.85842 -3.47296 0
M  V30 16148 C 1502.58 4.03773 -1.75087 0
M  V30 16149 H 1499.7 0.606537 -0.418666 0
M  V30 16150 H 1502.34 1.06755 -1.57173 0
M  V30 16151 H 1500.49 3.54869 -1.58116 0
M  V30 16152 H 1502.16 2.41367 -3.93115 0
M  V30 16153 H 1500.41 2.21035 -3.73264 0
M  V30 16154 H 1501.08 3.82535 -3.97958 0
M  V30 16155 H 1503.55 3.61274 -2.06447 0
M  V30 16156 H 1502.43 4.97048 -2.32882 0
M  V30 16157 H 1502.69 4.36512 -0.700665 0
M  V30 16158 N 1501.75 1.10074 1.1279 0
M  V30 16159 C 1502.71 0.74967 2.16593 0
M  V30 16160 C 1503.71 -0.224046 1.59232 0
M  V30 16161 O 1504.9 -0.00137104 1.742 0
M  V30 16162 C 1502.03 0.109795 3.40723 0
M  V30 16163 H 1503.23 1.66906 2.49164 0
M  V30 16164 H 1500.78 0.900781 1.27733 0
M  V30 16165 H 1501.52 -0.820501 3.13749 0
M  V30 16166 H 1501.3 0.810517 3.83631 0
M  V30 16167 H 1502.79 -0.120198 4.17427 0
M  V30 16168 N 1503.23 -1.30138 0.888926 0
M  V30 16169 C 1504.47 -1.96279 0.51012 0
M  V30 16170 C 1504.81 -1.69984 -0.939096 0
M  V30 16171 O 1504.08 -1.00677 -1.66416 0
M  V30 16172 C 1504.36 -3.51321 0.790305 0
M  V30 16173 C 1504.22 -3.87116 2.29044 0
M  V30 16174 C 1505.54 -4.39274 0.269477 0
M  V30 16175 H 1502.66 -0.712931 0.18681 0
M  V30 16176 H 1505.3 -1.53942 1.11364 0
M  V30 16177 H 1503.45 -3.87514 0.276647 0
M  V30 16178 H 1505.12 -3.60926 2.87281 0
M  V30 16179 H 1503.36 -3.35044 2.7555 0
M  V30 16180 H 1504.03 -4.95288 2.43708 0
M  V30 16181 H 1506.51 -4.10012 0.709173 0
M  V30 16182 H 1505.39 -5.46665 0.494815 0
M  V30 16183 H 1505.65 -4.3425 -0.829434 0
M  V30 16184 N 1504.71 -0.650285 -1.43559 0
M  V30 16185 C 1505.95 -0.162164 -2.01448 0
M  V30 16186 C 1506.27 1.22717 -1.51544 0
M  V30 16187 O 1505.54 1.81917 -0.726855 0
M  V30 16188 H 1504.12 -0.0569599 -0.744825 0
M  V30 16189 H 1506.79 -0.841294 -1.75807 0
M  V30 16190 H 1505.88 -0.144531 -3.11765 0
M  V30 16191 N 1506.18 1.52647 -0.392018 0
M  V30 16192 C 1507.59 1.86522 0.0814091 0
M  V30 16193 C 1507.95 1.31158 1.45918 0
M  V30 16194 O 1507.07 0.644007 2.06595 0
M  V30 16195 C 1507.67 3.38448 0.1545 0
M  V30 16196 C 1506.22 3.72025 0.572227 0
M  V30 16197 C 1505.37 2.7604 -0.264093 0
M  V30 16198 H 1508.32 1.46517 -0.609785 0
M  V30 16199 H 1508.34 3.67846 0.973109 0
M  V30 16200 H 1507.86 3.78713 -0.848396 0
M  V30 16201 H 1505.96 3.37329 1.58239 0
M  V30 16202 H 1506.07 4.77973 0.328491 0
M  V30 16203 H 1504.43 2.53254 0.271042 0
M  V30 16204 H 1505.22 3.19143 -1.26502 0
M  V30 16205 N 1507.66 0.121921 1.57128 0
M  V30 16206 C 1508.59 -0.823788 2.18486 0
M  V30 16207 C 1509.57 -1.27519 1.12574 0
M  V30 16208 O 1510.76 -1.33727 1.40822 0
M  V30 16209 C 1507.89 -2.07284 2.78659 0
M  V30 16210 C 1506.84 -1.75912 3.90178 0
M  V30 16211 C 1506.17 -3.07871 4.37172 0
M  V30 16212 C 1507.47 -1.02517 5.1214 0
M  V30 16213 H 1509.16 -0.312488 2.97765 0
M  V30 16214 H 1506.71 -0.148862 1.43228 0
M  V30 16215 H 1508.66 -2.73903 3.20242 0
M  V30 16216 H 1507.39 -2.60743 1.96673 0
M  V30 16217 H 1506.04 -1.11681 3.49174 0
M  V30 16218 H 1505.69 -3.59271 3.52041 0
M  V30 16219 H 1505.39 -2.87653 5.12376 0
M  V30 16220 H 1506.92 -3.75604 4.81409 0
M  V30 16221 H 1508.33 -1.59295 5.50725 0
M  V30 16222 H 1506.73 -0.923836 5.92946 0
M  V30 16223 H 1507.8 -0.0124219 4.84898 0
M  V30 16224 N 1509.14 -1.56867 -0.151857 0
M  V30 16225 C 1510.39 -1.83353 -0.866566 0
M  V30 16226 C 1510.72 -0.702784 -1.81038 0
M  V30 16227 O 1509.99 0.293944 -1.92266 0
M  V30 16228 C 1510.28 -3.20316 -1.64529 0
M  V30 16229 C 1510.13 -4.43946 -0.723297 0
M  V30 16230 C 1511.45 -3.54441 -2.60882 0
M  V30 16231 H 1508.57 -0.666957 -0.313588 0
M  V30 16232 H 1511.21 -1.89541 -0.131954 0
M  V30 16233 H 1509.36 -3.15172 -2.27154 0
M  V30 16234 H 1511.03 -4.61173 -0.10842 0
M  V30 16235 H 1509.28 -4.33788 -0.0325582 0
M  V30 16236 H 1509.95 -5.36374 -1.3041 0
M  V30 16237 H 1512.42 -3.60164 -2.08377 0
M  V30 16238 H 1511.3 -4.51314 -3.12422 0
M  V30 16239 H 1511.56 -2.80146 -3.42009 0
M  V30 16240 N 1510.62 0.421051 -1.51871 0
M  V30 16241 C 1511.87 1.16611 -1.64574 0
M  V30 16242 C 1512.18 1.91955 -0.375835 0
M  V30 16243 O 1513.39 2.68792 -0.382481 0
M  V30 16244 C 1511.84 2.12164 -2.90714 0
M  V30 16245 C 1511.45 1.42392 -4.24769 0
M  V30 16246 C 1513.19 2.87002 -3.12778 0
M  V30 16247 C 1511.1 2.36523 -5.42043 0
M  V30 16248 H 1510.03 0.438989 -0.613029 0
M  V30 16249 H 1512.68 0.431636 -1.78351 0
M  V30 16250 H 1511.06 2.89114 -2.70608 0
M  V30 16251 H 1512.24 0.708875 -4.55315 0
M  V30 16252 H 1510.55 0.796421 -4.08713 0
M  V30 16253 H 1513.15 3.5755 -3.9757 0
M  V30 16254 H 1513.49 3.49277 -2.2652 0
M  V30 16255 H 1514.03 2.17154 -3.333 0
M  V30 16256 H 1510.77 1.78913 -6.30611 0
M  V30 16257 H 1510.29 3.06034 -5.15852 0
M  V30 16258 H 1511.96 2.97306 -5.74646 0
M  V30 16259 N 1512.1 1.42293 0.677538 0
M  V30 16260 C 1513.03 1.48344 1.80323 0
M  V30 16261 C 1514.01 0.340276 1.66662 0
M  V30 16262 O 1515.19 0.554209 1.86124 0
M  V30 16263 C 1512.32 1.38247 3.18599 0
M  V30 16264 C 1511.28 2.50562 3.46991 0
M  V30 16265 C 1510.6 2.25524 4.84812 0
M  V30 16266 C 1511.9 3.92877 3.44158 0
M  V30 16267 H 1513.6 2.42558 1.75516 0
M  V30 16268 H 1511.14 1.16746 0.842999 0
M  V30 16269 H 1513.1 1.41089 3.97079 0
M  V30 16270 H 1511.82 0.405255 3.24076 0
M  V30 16271 H 1510.48 2.47032 2.7087 0
M  V30 16272 H 1510.13 1.26102 4.86937 0
M  V30 16273 H 1509.83 3.00797 5.04772 0
M  V30 16274 H 1511.35 2.3011 5.65581 0
M  V30 16275 H 1512.76 3.98024 4.12613 0
M  V30 16276 H 1511.16 4.6798 3.75653 0
M  V30 16277 H 1512.23 4.19743 2.42783 0
M  V30 16278 N 1513.57 -0.913576 1.28419 0
M  V30 16279 C 1514.82 -1.66273 1.15584 0
M  V30 16280 C 1515.15 -1.92242 -0.295541 0
M  V30 16281 O 1514.4 -1.52104 -1.23137 0
M  V30 16282 C 1514.7 -3.02722 1.89985 0
M  V30 16283 C 1514.37 -2.96413 3.3978 0
M  V30 16284 C 1513.03 -2.94399 3.80635 0
M  V30 16285 C 1515.38 -2.86648 4.35296 0
M  V30 16286 C 1512.71 -2.80422 5.15345 0
M  V30 16287 C 1515.06 -2.74211 5.7008 0
M  V30 16288 C 1513.73 -2.70556 6.1021 0
M  V30 16289 H 1513 -0.608435 0.422951 0
M  V30 16290 H 1515.64 -1.06438 1.59196 0
M  V30 16291 H 1513.95 -3.66344 1.38923 0
M  V30 16292 H 1515.65 -3.59591 1.7747 0
M  V30 16293 H 1512.24 -2.98775 3.07297 0
M  V30 16294 H 1516.42 -2.87291 4.04695 0
M  V30 16295 H 1511.68 -2.75987 5.45565 0
M  V30 16296 H 1515.85 -2.65624 6.43752 0
M  V30 16297 H 1513.48 -2.59483 7.14544 0
M  V30 16298 N 1515.05 -1.1067 -1.12204 0
M  V30 16299 C 1516.28 -0.873095 -1.88127 0
M  V30 16300 C 1516.7 0.571099 -1.79221 0
M  V30 16301 O 1516.06 1.40251 -1.14888 0
M  V30 16302 C 1516.11 -1.32922 -3.35208 0
M  V30 16303 O 1515.21 -0.495807 -4.09409 0
M  V30 16304 H 1514.55 -0.315138 -0.584452 0
M  V30 16305 H 1517.08 -1.47413 -1.41882 0
M  V30 16306 H 1517.09 -1.32023 -3.86049 0
M  V30 16307 H 1515.77 -2.38091 -3.41007 0
M  V30 16308 H 1514.35 -0.570216 -3.68515 0
M  V30 16309 N 1516.53 1.29665 -0.895815 0
M  V30 16310 C 1517.78 1.96006 -0.520522 0
M  V30 16311 C 1518.11 1.7048 0.930068 0
M  V30 16312 O 1517.38 1.01558 1.6588 0
M  V30 16313 C 1517.67 3.50897 -0.808925 0
M  V30 16314 C 1517.52 3.85896 -2.31093 0
M  V30 16315 C 1518.84 4.39125 -0.292769 0
M  V30 16316 H 1515.96 0.711931 -0.190588 0
M  V30 16317 H 1518.6 1.53349 -1.12179 0
M  V30 16318 H 1516.75 3.87362 -0.297194 0
M  V30 16319 H 1518.42 3.59397 -2.89191 0
M  V30 16320 H 1516.67 3.33578 -2.77323 0
M  V30 16321 H 1517.34 4.93989 -2.46331 0
M  V30 16322 H 1519.81 4.0963 -0.730906 0
M  V30 16323 H 1518.69 5.46395 -0.523799 0
M  V30 16324 H 1518.95 4.34683 0.806393 0
M  V30 16325 N 1518.01 0.657889 1.43212 0
M  V30 16326 C 1518.94 -0.0172114 2.33494 0
M  V30 16327 C 1519.92 -0.807087 1.49733 0
M  V30 16328 O 1521.1 -0.767631 1.78385 0
M  V30 16329 C 1518.23 -0.981029 3.33156 0
M  V30 16330 C 1517.19 -0.30094 4.26941 0
M  V30 16331 C 1516.51 -1.37653 5.16678 0
M  V30 16332 C 1517.81 0.809572 5.15988 0
M  V30 16333 H 1519.51 0.736749 2.90194 0
M  V30 16334 H 1517.05 0.355744 1.39537 0
M  V30 16335 H 1519.01 -1.46226 3.95216 0
M  V30 16336 H 1517.73 -1.76621 2.74723 0
M  V30 16337 H 1516.39 0.159893 3.66251 0
M  V30 16338 H 1516.04 -2.15326 4.54581 0
M  V30 16339 H 1515.74 -0.926704 5.80246 0
M  V30 16340 H 1517.26 -1.85903 5.81612 0
M  V30 16341 H 1518.68 0.410297 5.7183 0
M  V30 16342 H 1517.07 1.18415 5.88301 0
M  V30 16343 H 1518.14 1.66558 4.55397 0
M  V30 16344 N 1519.49 -1.52437 0.400108 0
M  V30 16345 C 1520.44 -2.23576 -0.446964 0
M  V30 16346 C 1521.42 -1.24368 -1.02085 0
M  V30 16347 O 1522.61 -1.49652 -0.945165 0
M  V30 16348 C 1519.74 -3.05402 -1.56795 0
M  V30 16349 C 1518.83 -4.12013 -1.00527 0
M  V30 16350 N 1519.22 -5.05519 -0.168475 0
M  V30 16351 C 1517.52 -4.27337 -1.27669 0
M  V30 16352 C 1518.22 -5.81523 0.143579 0
M  V30 16353 N 1517.19 -5.41623 -0.463209 0
M  V30 16354 H 1521 -2.93227 0.198775 0
M  V30 16355 H 1518.51 -1.61036 0.210019 0
M  V30 16356 H 1520.51 -3.54912 -2.1873 0
M  V30 16357 H 1519.17 -2.37288 -2.2164 0
M  V30 16358 H 1520.18 -5.17532 0.195125 0
M  V30 16359 H 1516.85 -3.70452 -1.92539 0
M  V30 16360 H 1518.24 -6.6685 0.822256 0
M  V30 16361 N 1520.96 -0.130252 -1.57061 0
M  V30 16362 C 1522.21 0.52488 -1.94751 0
M  V30 16363 C 1522.53 1.67107 -1.0166 0
M  V30 16364 O 1523.73 2.38971 -1.28861 0
M  V30 16365 C 1522.19 0.985118 -3.46155 0
M  V30 16366 C 1521.8 -0.133222 -4.47802 0
M  V30 16367 C 1523.54 1.61099 -3.92743 0
M  V30 16368 C 1521.45 0.344346 -5.90397 0
M  V30 16369 H 1520.38 0.19985 -0.727032 0
M  V30 16370 H 1523.03 -0.211912 -1.82272 0
M  V30 16371 H 1521.41 1.77667 -3.53907 0
M  V30 16372 H 1522.58 -0.909784 -4.5173 0
M  V30 16373 H 1520.9 -0.666449 -4.11032 0
M  V30 16374 H 1523.5 1.97963 -4.96704 0
M  V30 16375 H 1523.84 2.49366 -3.3335 0
M  V30 16376 H 1524.37 0.884641 -3.87839 0
M  V30 16377 H 1521.11 -0.502547 -6.53571 0
M  V30 16378 H 1520.63 1.08714 -5.89865 0
M  V30 16379 H 1522.31 0.801885 -6.42012 0
M  V30 16380 N 1522.44 1.56945 0.143535 0
M  V30 16381 C 1523.69 1.8381 0.856831 0
M  V30 16382 C 1524.02 0.712375 1.80662 0
M  V30 16383 O 1523.3 -0.283743 1.92419 0
M  V30 16384 C 1523.58 3.21184 1.62828 0
M  V30 16385 C 1523.43 4.44324 0.699744 0
M  V30 16386 C 1524.75 3.5582 2.58999 0
M  V30 16387 H 1521.87 0.668611 0.310046 0
M  V30 16388 H 1524.51 1.89609 0.1219 0
M  V30 16389 H 1522.66 3.16372 2.2548 0
M  V30 16390 H 1524.34 4.61224 0.0839619 0
M  V30 16391 H 1522.58 4.33799 0.0095529 0
M  V30 16392 H 1523.25 5.37058 1.27564 0
M  V30 16393 H 1525.73 3.61264 2.06464 0
M  V30 16394 H 1524.6 4.52964 3.10024 0
M  V30 16395 H 1524.86 2.81956 3.40519 0
M  V30 16396 N 1523.92 -0.412991 1.52093 0
M  V30 16397 C 1525.15 -1.18667 1.70096 0
M  V30 16398 C 1525.57 -1.83622 0.408012 0
M  V30 16399 O 1524.93 -1.69847 -0.634174 0
M  V30 16400 C 1524.98 -2.22837 2.83507 0
M  V30 16401 O 1524.08 -3.2889 2.48807 0
M  V30 16402 H 1523.42 -0.346581 0.566373 0
M  V30 16403 H 1525.95 -0.484642 1.98777 0
M  V30 16404 H 1525.96 -2.67229 3.08306 0
M  V30 16405 H 1524.64 -1.74942 3.77317 0
M  V30 16406 H 1523.21 -2.89804 2.34665 0
M  V30 16407 N 1525.4 -1.4265 -0.669982 0
M  V30 16408 C 1526.82 -1.25682 -0.983682 0
M  V30 16409 C 1527.02 -0.164456 -2.00828 0
M  V30 16410 O 1526.07 0.462711 -2.48224 0
M  V30 16411 C 1527.38 -2.61536 -1.4839 0
M  V30 16412 C 1528.93 -2.6893 -1.60143 0
M  V30 16413 C 1529.41 -4.05162 -2.1356 0
M  V30 16414 N 1530.9 -4.07141 -2.20886 0
M  V30 16415 C 1531.63 -5.09371 -2.63303 0
M  V30 16416 N 1531.13 -6.21983 -3.05137 0
M  V30 16417 N 1532.92 -4.96727 -2.63094 0
M  V30 16418 H 1525.07 -2.12398 0.0083059 0
M  V30 16419 H 1527.34 -0.946173 -0.058823 0
M  V30 16420 H 1527.04 -3.42351 -0.805527 0
M  V30 16421 H 1526.92 -2.85786 -2.46183 0
M  V30 16422 H 1529.3 -1.88457 -2.27085 0
M  V30 16423 H 1529.38 -2.48463 -0.608266 0
M  V30 16424 H 1529.03 -4.86094 -1.47224 0
M  V30 16425 H 1528.96 -4.22984 -3.13676 0
M  V30 16426 H 1531.45 -3.25846 -1.91396 0
M  V30 16427 H 1531.76 -6.95835 -3.36204 0
M  V30 16428 H 1530.11 -6.25481 -3.02983 0
M  V30 16429 H 1533.3 -4.07824 -2.29777 0
M  V30 16430 H 1533.47 -5.76531 -2.95831 0
M  V30 16431 N 1526.88 0.906753 -1.28902 0
M  V30 16432 C 1528.12 1.65903 -1.16636 0
M  V30 16433 C 1528.46 1.92127 0.282981 0
M  V30 16434 O 1527.73 1.52666 1.20513 0
M  V30 16435 C 1528.01 3.01257 -1.97272 0
M  V30 16436 C 1527.87 2.82143 -3.50308 0
M  V30 16437 C 1529.19 4.01893 -1.7936 0
M  V30 16438 H 1526.31 0.602063 -0.425076 0
M  V30 16439 H 1528.95 1.05081 -1.58297 0
M  V30 16440 H 1527.1 3.53172 -1.61871 0
M  V30 16441 H 1528.77 2.37184 -3.95653 0
M  V30 16442 H 1527.01 2.17063 -3.75588 0
M  V30 16443 H 1527.68 3.78293 -4.01993 0
M  V30 16444 H 1530.16 3.59064 -2.10267 0
M  V30 16445 H 1529.04 4.9455 -2.38141 0
M  V30 16446 H 1529.3 4.35745 -0.746923 0
M  V30 16447 N 1528.36 1.11264 1.11616 0
M  V30 16448 C 1529.29 0.79149 2.19676 0
M  V30 16449 C 1530.27 -0.239351 1.68408 0
M  V30 16450 O 1531.45 -0.103228 1.93925 0
M  V30 16451 C 1528.58 0.231891 3.46525 0
M  V30 16452 C 1527.54 1.19439 4.10997 0
M  V30 16453 C 1526.86 0.495593 5.32398 0
M  V30 16454 C 1528.16 2.54437 4.56135 0
M  V30 16455 H 1529.86 1.69503 2.46797 0
M  V30 16456 H 1527.4 0.816433 1.18619 0
M  V30 16457 H 1529.35 -0.00497468 4.214 0
M  V30 16458 H 1528.08 -0.706938 3.18857 0
M  V30 16459 H 1526.74 1.41686 3.38113 0
M  V30 16460 H 1526.39 -0.447984 5.01001 0
M  V30 16461 H 1526.09 1.13753 5.76484 0
M  V30 16462 H 1527.61 0.267476 6.10014 0
M  V30 16463 H 1529.02 2.36289 5.22341 0
M  V30 16464 H 1527.42 3.14595 5.11028 0
M  V30 16465 H 1528.49 3.13795 3.69676 0
M  V30 16466 N 1529.83 -1.29188 0.902679 0
M  V30 16467 C 1531.08 -1.94718 0.526082 0
M  V30 16468 C 1531.4 -1.71924 -0.932816 0
M  V30 16469 O 1532.6 -2.31585 -1.41707 0
M  V30 16470 C 1531.06 -3.48723 0.889974 0
M  V30 16471 C 1530.67 -3.80312 2.36784 0
M  V30 16472 C 1532.41 -4.20472 0.58343 0
M  V30 16473 C 1530.32 -5.27574 2.67244 0
M  V30 16474 H 1529.25 -0.728875 0.193019 0
M  V30 16475 H 1531.9 -1.46869 1.10008 0
M  V30 16476 H 1530.28 -3.95242 0.244872 0
M  V30 16477 H 1531.45 -3.44641 3.05875 0
M  V30 16478 H 1529.77 -3.21709 2.64371 0
M  V30 16479 H 1532.37 -5.28864 0.787813 0
M  V30 16480 H 1532.71 -4.13544 -0.478204 0
M  V30 16481 H 1533.24 -3.79693 1.1865 0
M  V30 16482 H 1529.98 -5.39569 3.72217 0
M  V30 16483 H 1529.5 -5.64482 2.0278 0
M  V30 16484 H 1531.18 -5.95199 2.53666 0
M  V30 16485 N 1531.31 -0.665475 -1.42861 0
M  V30 16486 C 1532.73 -0.334157 -1.56063 0
M  V30 16487 C 1532.93 1.16104 -1.64688 0
M  V30 16488 O 1531.98 1.94622 -1.60867 0
M  V30 16489 C 1533.3 -1.05628 -2.81537 0
M  V30 16490 C 1534.84 -1.03771 -2.95297 0
M  V30 16491 C 1535.32 -1.74098 -4.2362 0
M  V30 16492 N 1536.81 -1.7092 -4.30512 0
M  V30 16493 C 1537.55 -2.222 -5.28597 0
M  V30 16494 N 1537.04 -2.81821 -6.32889 0
M  V30 16495 N 1538.83 -2.12628 -5.20332 0
M  V30 16496 H 1530.99 -1.6356 -1.35506 0
M  V30 16497 H 1533.25 -0.688538 -0.651628 0
M  V30 16498 H 1532.95 -2.11141 -2.81269 0
M  V30 16499 H 1532.83 -0.615586 -3.72143 0
M  V30 16500 H 1535.22 0.00905324 -2.95099 0
M  V30 16501 H 1535.3 -1.51721 -2.05948 0
M  V30 16502 H 1534.94 -2.78737 -4.2458 0
M  V30 16503 H 1534.87 -1.23604 -5.11888 0
M  V30 16504 H 1537.36 -1.27425 -3.55769 0
M  V30 16505 H 1537.67 -3.18594 -7.04072 0
M  V30 16506 H 1536.02 -2.85887 -6.33478 0
M  V30 16507 H 1539.21 -1.65746 -4.37774 0
M  V30 16508 H 1539.38 -2.52899 -5.96612 0
M  V30 16509 N 1532.79 1.52222 -0.408187 0
M  V30 16510 C 1533.7 2.30725 0.424645 0
M  V30 16511 C 1534.72 1.38412 1.05442 0
M  V30 16512 O 1535.89 1.71486 1.05614 0
M  V30 16513 C 1532.96 3.11273 1.52677 0
M  V30 16514 C 1532.02 4.19323 0.920143 0
M  V30 16515 C 1531.25 4.96021 1.96974 0
M  V30 16516 O 1531.47 4.73011 3.18774 0
M  V30 16517 O 1530.41 5.80887 1.5765 0
M  V30 16518 H 1534.23 3.02935 -0.215411 0
M  V30 16519 H 1531.82 1.48413 -0.171414 0
M  V30 16520 H 1533.7 3.61436 2.16661 0
M  V30 16521 H 1532.38 2.41857 2.15144 0
M  V30 16522 H 1531.28 3.7331 0.243037 0
M  V30 16523 H 1532.62 4.91028 0.339405 0
M  V30 16524 N 1534.27 0.138579 1.5699 0
M  V30 16525 C 1535.2 -0.800568 2.19347 0
M  V30 16526 C 1536.18 -1.26318 1.13921 0
M  V30 16527 O 1537.36 -1.32226 1.42232 0
M  V30 16528 C 1534.49 -2.04317 2.80842 0
M  V30 16529 C 1533.45 -1.71764 3.92022 0
M  V30 16530 C 1532.77 -3.03217 4.40413 0
M  V30 16531 C 1534.07 -0.970789 5.13199 0
M  V30 16532 H 1535.77 -0.280888 2.98079 0
M  V30 16533 H 1533.31 -0.133663 1.43378 0
M  V30 16534 H 1535.27 -2.70491 3.2313 0
M  V30 16535 H 1533.99 -2.58643 1.99428 0
M  V30 16536 H 1532.65 -1.07972 3.50339 0
M  V30 16537 H 1532.3 -3.55517 3.55832 0
M  V30 16538 H 1532 -2.82203 5.15398 0
M  V30 16539 H 1533.52 -3.70477 4.85365 0
M  V30 16540 H 1534.94 -1.53445 5.52384 0
M  V30 16541 H 1533.33 -0.860895 5.93893 0
M  V30 16542 H 1534.4 0.0390088 4.84884 0
M  V30 16543 N 1535.75 -1.57019 -0.13521 0
M  V30 16544 C 1536.69 -1.99148 -1.16657 0
M  V30 16545 C 1537.66 -0.860947 -1.42045 0
M  V30 16546 O 1538.85 -1.12393 -1.54183 0
M  V30 16547 C 1535.99 -2.3872 -2.49212 0
M  V30 16548 C 1535.1 -3.65117 -2.30898 0
M  V30 16549 C 1534.24 -3.9374 -3.5657 0
M  V30 16550 C 1533.27 -5.1337 -3.33343 0
M  V30 16551 N 1532.41 -5.37945 -4.51176 0
M  V30 16552 H 1537.25 -2.87052 -0.800312 0
M  V30 16553 H 1534.79 -1.42007 -0.383705 0
M  V30 16554 H 1536.75 -2.59695 -3.26518 0
M  V30 16555 H 1535.38 -1.53879 -2.83762 0
M  V30 16556 H 1534.43 -3.5185 -1.44588 0
M  V30 16557 H 1535.74 -4.52578 -2.09701 0
M  V30 16558 H 1534.89 -4.15277 -4.423 0
M  V30 16559 H 1533.63 -3.04723 -3.80782 0
M  V30 16560 H 1532.64 -4.91694 -2.46002 0
M  V30 16561 H 1533.86 -6.0395 -3.10517 0
M  V30 16562 H 1531.81 -4.51884 -4.75539 0
M  V30 16563 H 1531.73 -6.19698 -4.33025 0
M  V30 16564 H 1532.99 -5.63989 -5.38086 0
M  V30 16565 N 1537.22 0.404919 -1.52309 0
M  V30 16566 C 1538.64 0.743846 -1.41206 0
M  V30 16567 C 1538.84 1.94678 -0.519874 0
M  V30 16568 O 1537.9 2.52497 0.0127417 0
M  V30 16569 C 1539.21 0.99384 -2.83802 0
M  V30 16570 C 1540.76 1.0963 -2.93173 0
M  V30 16571 C 1541.23 1.37902 -4.36746 0
M  V30 16572 N 1542.72 1.44758 -4.39999 0
M  V30 16573 C 1543.46 1.68269 -5.48154 0
M  V30 16574 N 1542.95 1.89356 -6.6642 0
M  V30 16575 N 1544.75 1.70318 -5.35675 0
M  V30 16576 H 1536.9 -0.386855 -2.08847 0
M  V30 16577 H 1539.16 -0.110811 -0.941501 0
M  V30 16578 H 1538.87 0.182249 -3.51227 0
M  V30 16579 H 1538.74 1.91287 -3.25099 0
M  V30 16580 H 1541.13 1.89847 -2.25925 0
M  V30 16581 H 1541.21 0.155539 -2.55327 0
M  V30 16582 H 1540.85 0.582004 -5.04554 0
M  V30 16583 H 1540.78 2.33237 -4.72132 0
M  V30 16584 H 1543.27 1.30235 -3.5475 0
M  V30 16585 H 1543.59 2.06758 -7.44628 0
M  V30 16586 H 1541.93 1.86612 -6.69478 0
M  V30 16587 H 1545.12 1.53385 -4.42256 0
M  V30 16588 H 1545.3 1.88302 -6.20037 0
M  V30 16589 N 1538.7 1.43003 0.662408 0
M  V30 16590 C 1539.63 1.50248 1.78739 0
M  V30 16591 C 1540.61 0.357934 1.66291 0
M  V30 16592 O 1541.8 0.573919 1.85526 0
M  V30 16593 C 1538.93 1.41618 3.17114 0
M  V30 16594 C 1537.88 2.54228 3.44314 0
M  V30 16595 C 1537.21 2.30653 4.82393 0
M  V30 16596 C 1538.51 3.96505 3.39972 0
M  V30 16597 H 1540.2 2.44406 1.72934 0
M  V30 16598 H 1537.75 1.17633 0.830569 0
M  V30 16599 H 1539.7 1.45293 3.9556 0
M  V30 16600 H 1538.43 0.439605 3.23628 0
M  V30 16601 H 1537.08 2.49891 2.68235 0
M  V30 16602 H 1536.73 1.3126 4.85572 0
M  V30 16603 H 1536.43 3.06134 5.01554 0
M  V30 16604 H 1537.96 2.36096 5.63108 0
M  V30 16605 H 1539.37 4.02378 4.08368 0
M  V30 16606 H 1537.77 4.71937 3.70668 0
M  V30 16607 H 1538.84 4.22295 2.38318 0
M  V30 16608 N 1540.18 -0.899904 1.29381 0
M  V30 16609 C 1541.46 -1.63067 1.08021 0
M  V30 16610 C 1541.84 -2.0773 -0.375716 0
M  V30 16611 O 1541.19 -1.83288 -1.36447 0
M  V30 16612 C 1541.4 -2.81163 2.06757 0
M  V30 16613 C 1542.74 -3.51854 2.37664 0
M  V30 16614 O 1543.77 -2.91332 2.0495 0
M  V30 16615 O 1542.63 -4.60962 2.93558 0
M  V30 16616 H 1539.72 -0.71601 0.413835 0
M  V30 16617 H 1542.27 -0.947991 1.40752 0
M  V30 16618 H 1541.04 -2.45355 3.04822 0
M  V30 16619 H 1540.66 -3.57137 1.74754 0
M  V30 16620 N 1541.66 -1.11854 -1.11024 0
M  V30 16621 C 1542.61 -0.77596 -2.19275 0
M  V30 16622 C 1543.6 0.234503 -1.67769 0
M  V30 16623 O 1544.81 0.0933372 -1.79758 0
M  V30 16624 H 1541.18 -0.23307 -0.71497 0
M  V30 16625 H 1543.15 -1.69749 -2.45414 0
M  V30 16626 C 1541.9 -0.240148 -3.4687 0
M  V30 16627 H 1541.22 -1.00895 -3.86859 0
M  V30 16628 H 1542.66 -0.0386799 -4.23982 0
M  V30 16629 C 1541.12 1.03056 -3.20751 0
M  V30 16630 O 1541.65 2.10948 -3.41854 0
M  V30 16631 N 1539.86 0.955066 -2.74457 0
M  V30 16632 H 1539.41 0.0769523 -2.57485 0
M  V30 16633 H 1539.36 1.80593 -2.57359 0
M  V30 16634 N 1543.14 1.28707 -0.909517 0
M  V30 16635 C 1544.39 1.94437 -0.536401 0
M  V30 16636 C 1544.7 1.72416 0.923685 0
M  V30 16637 O 1545.9 2.32333 1.40477 0
M  V30 16638 C 1544.36 3.48246 -0.908455 0
M  V30 16639 C 1543.97 3.79051 -2.38798 0
M  V30 16640 C 1545.71 4.20156 -0.605721 0
M  V30 16641 C 1543.62 5.2615 -2.70038 0
M  V30 16642 H 1542.55 0.727842 -0.196882 0
M  V30 16643 H 1545.2 1.46283 -1.10786 0
M  V30 16644 H 1543.58 3.95107 -0.265829 0
M  V30 16645 H 1544.76 3.43014 -3.07698 0
M  V30 16646 H 1543.07 3.20303 -2.66074 0
M  V30 16647 H 1545.67 5.28439 -0.815849 0
M  V30 16648 H 1546.01 4.13792 0.456266 0
M  V30 16649 H 1546.54 3.79059 -1.20662 0
M  V30 16650 H 1543.28 5.37587 -3.75073 0
M  V30 16651 H 1542.8 5.63399 -2.05771 0
M  V30 16652 H 1544.48 5.93846 -2.56819 0
M  V30 16653 N 1544.61 0.673042 1.42506 0
M  V30 16654 C 1545.84 0.202922 2.05902 0
M  V30 16655 C 1546.26 -1.13923 1.50556 0
M  V30 16656 O 1545.61 -1.70735 0.644662 0
M  V30 16657 C 1545.67 0.12735 3.61276 0
M  V30 16658 O 1545.39 1.41646 4.1457 0
M  V30 16659 C 1546.89 -0.366477 4.41783 0
M  V30 16660 H 1544.11 0.0991021 0.663641 0
M  V30 16661 H 1546.65 0.919282 1.82673 0
M  V30 16662 H 1544.81 -0.539687 3.83622 0
M  V30 16663 H 1545.22 1.28866 5.08423 0
M  V30 16664 H 1546.69 -0.368267 5.5077 0
M  V30 16665 H 1547.17 -1.40142 4.16241 0
M  V30 16666 H 1547.78 0.268761 4.2445 0
M  V30 16667 N 1546.09 -1.52004 0.416254 0
M  V30 16668 C 1547.02 -2.24913 -0.441208 0
M  V30 16669 C 1548.04 -1.28139 -1.0042 0
M  V30 16670 O 1549.23 -1.54037 -0.901928 0
M  V30 16671 C 1546.33 -2.97298 -1.62688 0
M  V30 16672 C 1545.5 -4.20999 -1.18652 0
M  V30 16673 C 1544.56 -4.76146 -2.2399 0
M  V30 16674 O 1543.58 -5.38541 -1.84288 0
M  V30 16675 N 1544.79 -4.58338 -3.56239 0
M  V30 16676 H 1547.55 -2.99137 0.183576 0
M  V30 16677 H 1545.11 -1.60051 0.244008 0
M  V30 16678 H 1547.1 -3.31082 -2.32737 0
M  V30 16679 H 1545.67 -2.26216 -2.15744 0
M  V30 16680 H 1544.89 -3.92948 -0.313877 0
M  V30 16681 H 1546.18 -5.01318 -0.869365 0
M  V30 16682 H 1545.58 -4.08592 -3.91241 0
M  V30 16683 H 1544.14 -4.96542 -4.22244 0
M  V30 16684 N 1547.57 -0.146903 -1.56914 0
M  V30 16685 C 1548.8 0.514426 -2.00919 0
M  V30 16686 C 1549.22 1.57632 -1.02634 0
M  V30 16687 O 1548.58 1.813 -0.00207478 0
M  V30 16688 C 1548.63 1.09197 -3.43669 0
M  V30 16689 O 1547.73 2.20684 -3.48385 0
M  V30 16690 H 1547.07 0.125827 -0.651969 0
M  V30 16691 H 1549.6 -0.243607 -2.03145 0
M  V30 16692 H 1549.61 1.42066 -3.82467 0
M  V30 16693 H 1548.29 0.314336 -4.1471 0
M  V30 16694 H 1546.86 1.89045 -3.21429 0
M  V30 16695 N 1549.05 1.57088 0.126881 0
M  V30 16696 C 1550.46 1.73685 0.684865 0
M  V30 16697 C 1550.81 0.764401 1.80697 0
M  V30 16698 O 1549.94 -0.0644761 2.16304 0
M  V30 16699 C 1550.53 3.14933 1.24911 0
M  V30 16700 C 1549.09 3.33063 1.75346 0
M  V30 16701 C 1548.24 2.69575 0.649976 0
M  V30 16702 H 1551.19 1.58391 -0.0989715 0
M  V30 16703 H 1551.21 3.16047 2.11884 0
M  V30 16704 H 1550.72 3.85686 0.432204 0
M  V30 16705 H 1548.82 2.67339 2.59539 0
M  V30 16706 H 1548.93 4.41169 1.86833 0
M  V30 16707 H 1547.3 2.30592 1.08163 0
M  V30 16708 H 1548.08 3.42946 -0.15582 0
M  V30 16709 N 1550.53 -0.396836 1.52522 0
M  V30 16710 C 1551.77 -1.14263 1.67183 0
M  V30 16711 C 1552.1 -1.90176 0.407845 0
M  V30 16712 O 1551.36 -1.85965 -0.609553 0
M  V30 16713 C 1551.66 -2.15308 2.85267 0
M  V30 16714 C 1551.32 -1.56111 4.23013 0
M  V30 16715 C 1549.98 -1.39692 4.60478 0
M  V30 16716 C 1552.34 -1.12998 5.08803 0
M  V30 16717 C 1549.66 -0.786963 5.81398 0
M  V30 16718 C 1552.02 -0.534159 6.30341 0
M  V30 16719 C 1550.68 -0.357204 6.66544 0
M  V30 16720 H 1549.95 -0.418118 0.611766 0
M  V30 16721 H 1552.6 -0.428255 1.8665 0
M  V30 16722 H 1550.9 -2.92935 2.60185 0
M  V30 16723 H 1552.6 -2.72908 2.93806 0
M  V30 16724 H 1549.19 -1.69876 3.93497 0
M  V30 16725 H 1553.37 -1.24488 4.80434 0
M  V30 16726 H 1548.63 -0.63799 6.08062 0
M  V30 16727 H 1552.8 -0.191759 6.96136 0
M  V30 16728 H 1550.43 0.117528 7.60109 0
M  V30 16729 N 1552.01 -1.43353 -0.654814 0
M  V30 16730 C 1552.94 -1.51194 -1.7794 0
M  V30 16731 C 1553.92 -0.366747 -1.66099 0
M  V30 16732 O 1555.1 -0.58375 -1.85219 0
M  V30 16733 C 1552.23 -1.43298 -3.16359 0
M  V30 16734 C 1551.19 -2.5605 -3.42961 0
M  V30 16735 C 1550.51 -2.33208 -4.81163 0
M  V30 16736 C 1551.81 -3.98303 -3.37864 0
M  V30 16737 H 1553.51 -2.4532 -1.71635 0
M  V30 16738 H 1551.05 -1.18072 -0.824319 0
M  V30 16739 H 1553 -1.47388 -3.94784 0
M  V30 16740 H 1551.73 -0.456761 -3.2339 0
M  V30 16741 H 1550.39 -2.5131 -2.66906 0
M  V30 16742 H 1550.04 -1.33833 -4.84869 0
M  V30 16743 H 1549.74 -3.08789 -4.99923 0
M  V30 16744 H 1551.26 -2.39079 -5.61848 0
M  V30 16745 H 1552.67 -4.04538 -4.06229 0
M  V30 16746 H 1551.07 -4.73897 -3.6816 0
M  V30 16747 H 1552.14 -4.23552 -2.36075 0
M  V30 16748 N 1553.48 0.89303 -1.29857 0
M  V30 16749 C 1554.71 1.6827 -1.21243 0
M  V30 16750 C 1555.13 1.86778 0.222621 0
M  V30 16751 O 1554.49 1.39291 1.1605 0
M  V30 16752 C 1554.54 3.041 -1.93792 0
M  V30 16753 O 1553.64 3.92696 -1.25951 0
M  V30 16754 H 1552.98 0.514479 -0.419771 0
M  V30 16755 H 1555.51 1.11513 -1.7154 0
M  V30 16756 H 1555.52 3.54198 -2.02504 0
M  V30 16757 H 1554.2 2.89948 -2.98166 0
M  V30 16758 H 1552.78 3.51132 -1.25541 0
M  V30 16759 N 1554.96 1.12442 1.10429 0
M  V30 16760 C 1555.91 0.761266 2.14916 0
M  V30 16761 C 1556.9 -0.239768 1.59103 0
M  V30 16762 O 1558.09 -0.045261 1.76942 0
M  V30 16763 C 1555.22 0.217596 3.4261 0
M  V30 16764 C 1554.3 1.24692 4.05355 0
M  V30 16765 N 1554.69 2.44456 4.42804 0
M  V30 16766 C 1552.99 1.09229 4.32418 0
M  V30 16767 C 1553.69 3.10186 4.92097 0
M  V30 16768 N 1552.67 2.37634 4.88908 0
M  V30 16769 H 1556.47 1.67262 2.41662 0
M  V30 16770 H 1553.98 1.0052 1.27552 0
M  V30 16771 H 1555.98 -0.0607568 4.16856 0
M  V30 16772 H 1554.64 -0.688215 3.17323 0
M  V30 16773 H 1555.65 2.81837 4.34498 0
M  V30 16774 H 1552.33 0.24379 4.16788 0
M  V30 16775 H 1553.72 4.12179 5.3062 0
M  V30 16776 N 1556.44 -1.28223 0.91633 0
M  V30 16777 C 1557.69 -1.94149 0.546705 0
M  V30 16778 C 1558 -1.72904 -0.914529 0
M  V30 16779 O 1559.21 -2.33075 -1.39243 0
M  V30 16780 C 1557.66 -3.47759 0.92691 0
M  V30 16781 C 1557.27 -3.77779 2.40805 0
M  V30 16782 C 1559.02 -4.19829 0.627994 0
M  V30 16783 C 1556.92 -5.2471 2.72825 0
M  V30 16784 H 1555.85 -0.726787 0.200739 0
M  V30 16785 H 1558.5 -1.45694 1.1156 0
M  V30 16786 H 1556.89 -3.9496 0.286779 0
M  V30 16787 H 1558.06 -3.41377 3.09513 0
M  V30 16788 H 1556.37 -3.18887 2.67769 0
M  V30 16789 H 1558.97 -5.27999 0.843862 0
M  V30 16790 H 1559.31 -4.14028 -0.434315 0
M  V30 16791 H 1559.85 -3.78413 1.22671 0
M  V30 16792 H 1556.59 -5.35591 3.77919 0
M  V30 16793 H 1556.11 -5.623 2.08756 0
M  V30 16794 H 1557.79 -5.92475 2.59965 0
M  V30 16795 N 1557.92 -0.68059 -1.42147 0
M  V30 16796 C 1559.15 -0.213839 -2.05792 0
M  V30 16797 C 1559.56 1.13123 -1.51158 0
M  V30 16798 O 1558.92 1.7039 -0.653708 0
M  V30 16799 C 1558.97 -0.146507 -3.61203 0
M  V30 16800 O 1558.69 -1.43843 -4.13813 0
M  V30 16801 C 1560.19 0.343043 -4.41971 0
M  V30 16802 H 1557.41 -0.10262 -0.663106 0
M  V30 16803 H 1559.95 -0.928957 -1.82183 0
M  V30 16804 H 1558.11 0.519335 -3.83903 0
M  V30 16805 H 1558.52 -1.31561 -5.07732 0
M  V30 16806 H 1560 0.339053 -5.50958 0
M  V30 16807 H 1560.47 1.37933 -4.16979 0
M  V30 16808 H 1561.08 -0.291267 -4.24301 0
M  V30 16809 N 1559.4 1.51781 -0.424309 0
M  V30 16810 C 1560.62 2.06871 0.147968 0
M  V30 16811 C 1561.05 1.29093 1.36808 0
M  V30 16812 O 1560.4 0.325279 1.78358 0
M  V30 16813 C 1560.45 3.57631 0.461757 0
M  V30 16814 O 1559.56 3.82149 1.55035 0
M  V30 16815 H 1558.9 0.663957 0.00757275 0
M  V30 16816 H 1561.43 1.95547 -0.601888 0
M  V30 16817 H 1561.44 4.01668 0.716005 0
M  V30 16818 H 1560.11 4.1367 -0.430081 0
M  V30 16819 H 1558.69 3.49984 1.28709 0
M  V30 16820 N 1560.87 0.155222 1.56834 0
M  V30 16821 C 1562.1 -0.503763 2.01189 0
M  V30 16822 C 1562.52 -1.57086 1.03468 0
M  V30 16823 O 1561.88 -1.81296 0.0116895 0
M  V30 16824 C 1561.93 -1.07373 3.44243 0
M  V30 16825 O 1561.03 -2.18834 3.49551 0
M  V30 16826 H 1560.37 -0.122368 0.652627 0
M  V30 16827 H 1562.9 0.254377 2.03013 0
M  V30 16828 H 1562.91 -1.40036 3.83215 0
M  V30 16829 H 1561.59 -0.292339 4.14871 0
M  V30 16830 H 1560.17 -1.87337 3.22427 0
M  V30 16831 N 1562.35 -1.57153 -0.118549 0
M  V30 16832 C 1563.6 -1.84064 -0.824832 0
M  V30 16833 C 1563.91 -0.740941 -1.81023 0
M  V30 16834 O 1565.12 -0.896464 -2.56273 0
M  V30 16835 C 1563.58 -3.26338 -1.51761 0
M  V30 16836 C 1563.18 -4.44318 -0.573174 0
M  V30 16837 C 1564.93 -3.62496 -2.209 0
M  V30 16838 C 1562.83 -5.7762 -1.2692 0
M  V30 16839 H 1561.76 -0.686521 -0.311777 0
M  V30 16840 H 1564.42 -1.83336 -0.0775833 0
M  V30 16841 H 1562.8 -3.21537 -2.3115 0
M  V30 16842 H 1563.97 -4.60418 0.187529 0
M  V30 16843 H 1562.29 -4.16398 0.0112747 0
M  V30 16844 H 1564.88 -4.5936 -2.73666 0
M  V30 16845 H 1565.23 -2.89952 -2.9872 0
M  V30 16846 H 1565.76 -3.69084 -1.48399 0
M  V30 16847 H 1562.5 -6.53335 -0.532285 0
M  V30 16848 H 1562.02 -5.65406 -2.00191 0
M  V30 16849 H 1563.7 -6.21391 -1.80227 0
M  V30 16850 N 1563.83 0.388742 -1.5273 0
M  V30 16851 C 1564.76 1.49441 -1.73781 0
M  V30 16852 C 1565.77 1.50602 -0.618285 0
M  V30 16853 O 1566.96 1.545 -0.893986 0
M  V30 16854 C 1564.06 2.88288 -1.78166 0
M  V30 16855 C 1563.24 3.11089 -3.07478 0
M  V30 16856 C 1562.3 4.2992 -3.03407 0
M  V30 16857 O 1561.32 4.26212 -3.77269 0
M  V30 16858 N 1562.52 5.36121 -2.2261 0
M  V30 16859 H 1565.29 1.3177 -2.69178 0
M  V30 16860 H 1562.85 0.578258 -1.51221 0
M  V30 16861 H 1564.84 3.65884 -1.72949 0
M  V30 16862 H 1563.41 2.99317 -0.901553 0
M  V30 16863 H 1562.63 2.21356 -3.26183 0
M  V30 16864 H 1563.92 3.23177 -3.92981 0
M  V30 16865 H 1563.32 5.41988 -1.62067 0
M  V30 16866 H 1561.87 6.12381 -2.23232 0
M  V30 16867 N 1565.31 1.43698 0.647203 0
M  V30 16868 C 1566.56 1.45346 1.40425 0
M  V30 16869 C 1566.88 0.081129 1.94831 0
M  V30 16870 O 1566.15 -0.884379 1.74801 0
M  V30 16871 H 1564.73 0.535145 0.521181 0
M  V30 16872 H 1567.39 1.79349 0.762887 0
M  V30 16873 H 1566.48 2.16954 2.2436 0
M  V30 16874 N 1566.79 -0.886131 1.30328 0
M  V30 16875 C 1567.72 -2.00793 1.19183 0
M  V30 16876 C 1568.7 -1.69899 0.08276 0
M  V30 16877 O 1569.88 -1.92389 0.264593 0
M  V30 16878 C 1567.01 -3.35922 0.881669 0
M  V30 16879 C 1565.97 -3.81072 1.94855 0
M  V30 16880 C 1565.29 -5.1348 1.4914 0
M  V30 16881 C 1566.59 -3.99923 3.35944 0
M  V30 16882 H 1568.29 -2.10375 2.13032 0
M  V30 16883 H 1565.83 -1.0108 1.02561 0
M  V30 16884 H 1567.79 -4.13922 0.790359 0
M  V30 16885 H 1566.51 -3.26469 -0.0925037 0
M  V30 16886 H 1565.17 -3.053 2.02947 0
M  V30 16887 H 1564.82 -5.00453 0.50553 0
M  V30 16888 H 1564.52 -5.44659 2.205 0
M  V30 16889 H 1566.04 -5.94005 1.41386 0
M  V30 16890 H 1567.45 -4.68364 3.30617 0
M  V30 16891 H 1565.85 -4.42477 4.05381 0
M  V30 16892 H 1566.92 -3.03816 3.77921 0
M  V30 16893 N 1568.26 -1.13026 -1.09832 0
M  V30 16894 C 1569.23 -0.806832 -2.14529 0
M  V30 16895 C 1570.23 0.18175 -1.5977 0
M  V30 16896 O 1571.42 -0.0448155 -1.74142 0
M  V30 16897 C 1568.55 -0.200093 -3.40312 0
M  V30 16898 H 1569.74 -1.73453 -2.44651 0
M  V30 16899 H 1567.3 -0.934331 -1.25299 0
M  V30 16900 H 1568.03 0.737028 -3.15814 0
M  V30 16901 H 1567.82 -0.911945 -3.81348 0
M  V30 16902 H 1569.31 0.00948247 -4.17599 0
M  V30 16903 N 1569.74 1.27735 -0.923117 0
M  V30 16904 C 1570.97 1.98682 -0.577317 0
M  V30 16905 C 1571.39 1.68904 0.843608 0
M  V30 16906 O 1570.74 0.947021 1.56006 0
M  V30 16907 C 1570.79 3.52804 -0.788144 0
M  V30 16908 O 1570.51 3.81537 -2.15316 0
M  V30 16909 C 1572.02 4.41006 -0.450437 0
M  V30 16910 H 1569.24 0.634186 -0.2192 0
M  V30 16911 H 1571.78 1.62702 -1.23888 0
M  V30 16912 H 1569.93 3.87012 -0.173441 0
M  V30 16913 H 1570.35 4.76142 -2.19976 0
M  V30 16914 H 1571.82 5.48175 -0.648674 0
M  V30 16915 H 1572.3 4.3489 0.613806 0
M  V30 16916 H 1572.91 4.1231 -1.04308 0
M  V30 16917 N 1571.22 0.688118 1.41784 0
M  V30 16918 C 1572.47 0.213085 2.00571 0
M  V30 16919 C 1572.78 -1.19176 1.55101 0
M  V30 16920 O 1573.99 -1.76387 2.06397 0
M  V30 16921 C 1572.44 0.330075 3.58383 0
M  V30 16922 C 1572.05 1.73981 4.12837 0
M  V30 16923 C 1573.8 -0.0855651 4.24414 0
M  V30 16924 C 1571.7 1.80886 5.63058 0
M  V30 16925 H 1570.63 0.075906 0.750169 0
M  V30 16926 H 1573.28 0.855236 1.62351 0
M  V30 16927 H 1571.67 -0.380199 3.94171 0
M  V30 16928 H 1572.84 2.47825 3.88484 0
M  V30 16929 H 1571.16 2.10447 3.59306 0
M  V30 16930 H 1573.75 -0.0543142 5.34672 0
M  V30 16931 H 1574.1 -1.12307 4.00865 0
M  V30 16932 H 1574.63 0.574169 3.93635 0
M  V30 16933 H 1571.37 2.82663 5.91424 0
M  V30 16934 H 1570.89 1.11417 5.89361 0
M  V30 16935 H 1572.57 1.56835 6.27704 0
M  V30 16936 N 1572.7 -1.51554 0.432352 0
M  V30 16937 C 1573.65 -2.24474 -0.39944 0
M  V30 16938 C 1574.63 -1.26505 -0.994242 0
M  V30 16939 O 1575.82 -1.51623 -0.913209 0
M  V30 16940 C 1572.95 -3.08659 -1.50282 0
M  V30 16941 C 1572.04 -4.14053 -0.917654 0
M  V30 16942 N 1572.43 -5.05763 -0.061209 0
M  V30 16943 C 1570.73 -4.29949 -1.18576 0
M  V30 16944 C 1571.43 -5.81087 0.266897 0
M  V30 16945 N 1570.41 -5.42484 -0.348218 0
M  V30 16946 H 1574.21 -2.92739 0.260928 0
M  V30 16947 H 1571.72 -1.60555 0.24413 0
M  V30 16948 H 1573.72 -3.59472 -2.11153 0
M  V30 16949 H 1572.38 -2.41936 -2.16557 0
M  V30 16950 H 1573.39 -5.17002 0.304858 0
M  V30 16951 H 1570.07 -3.74453 -1.84638 0
M  V30 16952 H 1571.46 -6.64956 0.963519 0
M  V30 16953 N 1574.18 -0.163538 -1.56749 0
M  V30 16954 C 1575.14 0.755801 -2.1638 0
M  V30 16955 C 1576.14 1.16359 -1.10982 0
M  V30 16956 O 1577.33 1.08182 -1.36537 0
M  V30 16957 C 1574.46 2.02775 -2.74035 0
M  V30 16958 H 1575.65 0.23681 -2.98964 0
M  V30 16959 H 1573.21 0.0859925 -1.56063 0
M  V30 16960 H 1573.94 2.59002 -1.95163 0
M  V30 16961 H 1573.73 1.74439 -3.5116 0
M  V30 16962 H 1575.22 2.684 -3.19923 0
M  V30 16963 N 1575.65 1.57214 0.110213 0
M  V30 16964 C 1576.88 1.8923 0.829187 0
M  V30 16965 C 1577.29 0.753834 1.73534 0
M  V30 16966 O 1576.64 -0.283946 1.81492 0
M  V30 16967 C 1576.7 3.16351 1.7077 0
M  V30 16968 C 1576.36 4.46479 0.974949 0
M  V30 16969 C 1577.36 5.18965 0.311696 0
M  V30 16970 C 1575.04 4.93167 0.953516 0
M  V30 16971 C 1577.04 6.36364 -0.363191 0
M  V30 16972 C 1574.72 6.10482 0.274836 0
M  V30 16973 C 1575.72 6.81929 -0.382355 0
M  V30 16974 O 1575.41 7.97011 -1.05019 0
M  V30 16975 H 1575.14 0.630744 0.243184 0
M  V30 16976 H 1577.7 2.05173 0.09648 0
M  V30 16977 H 1575.93 2.96513 2.48227 0
M  V30 16978 H 1577.62 3.34317 2.30189 0
M  V30 16979 H 1578.38 4.83944 0.319815 0
M  V30 16980 H 1574.26 4.37454 1.45448 0
M  V30 16981 H 1577.8 6.92069 -0.876728 0
M  V30 16982 H 1573.7 6.44958 0.26451 0
M  V30 16983 H 1574.47 8.12903 -0.95555 0
M  V30 16984 N 1577.13 -0.380637 1.52934 0
M  V30 16985 C 1578.08 -1.48584 1.78957 0
M  V30 16986 C 1579.07 -1.56103 0.657901 0
M  V30 16987 O 1580.28 -1.59169 0.84055 0
M  V30 16988 H 1576.66 -0.494687 0.566382 0
M  V30 16989 H 1578.63 -1.23833 2.71492 0
M  V30 16990 C 1577.38 -2.85615 1.98291 0
M  V30 16991 H 1576.7 -2.80583 2.84804 0
M  V30 16992 H 1578.14 -3.62164 2.20485 0
M  V30 16993 C 1576.6 -3.28267 0.757764 0
M  V30 16994 O 1577.13 -4.01654 -0.0608007 0
M  V30 16995 N 1575.33 -2.84641 0.585486 0
M  V30 16996 H 1574.88 -2.25087 1.25274 0
M  V30 16997 H 1574.84 -3.13536 -0.232871 0
M  V30 16998 N 1578.61 -1.44039 -0.639573 0
M  V30 16999 C 1579.56 -1.50254 -1.75192 0
M  V30 17000 C 1580.53 -0.350994 -1.62349 0
M  V30 17001 O 1581.71 -0.56006 -1.82395 0
M  V30 17002 C 1578.85 -1.44464 -3.13407 0
M  V30 17003 C 1577.97 -2.69929 -3.37287 0
M  V30 17004 C 1577.1 -2.56031 -4.65426 0
M  V30 17005 C 1576.14 -3.76699 -4.82456 0
M  V30 17006 N 1575.28 -3.61529 -6.01865 0
M  V30 17007 H 1580.12 -2.45296 -1.69216 0
M  V30 17008 H 1577.65 -1.21748 -0.825576 0
M  V30 17009 H 1579.61 -1.39099 -3.93328 0
M  V30 17010 H 1578.24 -0.529951 -3.1842 0
M  V30 17011 H 1577.29 -2.85516 -2.51366 0
M  V30 17012 H 1578.61 -3.59523 -3.45753 0
M  V30 17013 H 1577.76 -2.48451 -5.53495 0
M  V30 17014 H 1576.5 -1.63983 -4.59305 0
M  V30 17015 H 1575.5 -3.84672 -3.92819 0
M  V30 17016 H 1576.73 -4.69772 -4.90398 0
M  V30 17017 H 1574.67 -2.72226 -5.96849 0
M  V30 17018 H 1574.59 -4.44733 -6.1135 0
M  V30 17019 H 1575.86 -3.57826 -6.92518 0
M  V30 17020 N 1580.09 0.879207 -1.30796 0
M  V30 17021 C 1581.34 1.62828 -1.19715 0
M  V30 17022 C 1581.66 1.93429 0.247031 0
M  V30 17023 O 1580.93 1.57478 1.16522 0
M  V30 17024 H 1579.51 0.603607 -0.440077 0
M  V30 17025 H 1582.17 1.05309 -1.64 0
M  V30 17026 H 1581.27 2.57591 -1.76219 0
M  V30 17027 N 1581.57 1.13606 1.09231 0
M  V30 17028 C 1582.5 0.77306 2.15769 0
M  V30 17029 C 1583.51 -0.206148 1.6149 0
M  V30 17030 O 1584.7 0.014338 1.78494 0
M  V30 17031 C 1581.8 0.125475 3.38668 0
M  V30 17032 C 1580.97 1.13728 4.22356 0
M  V30 17033 C 1580.03 0.515021 5.23674 0
M  V30 17034 O 1579.06 1.1756 5.56928 0
M  V30 17035 N 1580.26 -0.712028 5.76117 0
M  V30 17036 H 1583.03 1.68984 2.47517 0
M  V30 17037 H 1580.59 1.02935 1.24964 0
M  V30 17038 H 1582.58 -0.303109 4.03563 0
M  V30 17039 H 1581.15 -0.694284 3.04792 0
M  V30 17040 H 1580.37 1.74309 3.53568 0
M  V30 17041 H 1581.66 1.82106 4.75094 0
M  V30 17042 H 1581.06 -1.26745 5.51319 0
M  V30 17043 H 1579.61 -1.08324 6.42736 0
M  V30 17044 N 1583.05 -1.27244 0.929878 0
M  V30 17045 C 1583.96 -2.30506 0.436355 0
M  V30 17046 C 1584.97 -1.67131 -0.484054 0
M  V30 17047 O 1586.15 -1.9804 -0.366332 0
M  V30 17048 C 1583.21 -3.45391 -0.300942 0
M  V30 17049 C 1582.27 -4.24279 0.654647 0
M  V30 17050 C 1581.51 -5.33679 -0.047558 0
M  V30 17051 O 1581.73 -5.56161 -1.26654 0
M  V30 17052 O 1580.66 -5.98642 0.62538 0
M  V30 17053 H 1584.49 -2.74762 1.29382 0
M  V30 17054 H 1582.07 -1.32234 0.695311 0
M  V30 17055 H 1583.96 -4.1526 -0.716718 0
M  V30 17056 H 1582.63 -3.03187 -1.13398 0
M  V30 17057 H 1581.54 -3.56936 1.12015 0
M  V30 17058 H 1582.87 -4.70204 1.45497 0
M  V30 17059 N 1584.52 -0.695628 -1.41417 0
M  V30 17060 C 1585.77 -0.226618 -2.01228 0
M  V30 17061 C 1586.1 1.17376 -1.5509 0
M  V30 17062 O 1585.35 1.80635 -0.752964 0
M  V30 17063 C 1585.65 -0.232664 -3.56642 0
M  V30 17064 C 1585.32 -1.58057 -4.2229 0
M  V30 17065 C 1583.98 -1.94959 -4.39937 0
M  V30 17066 C 1586.33 -2.46735 -4.59098 0
M  V30 17067 C 1583.66 -3.20123 -4.91669 0
M  V30 17068 C 1586.01 -3.71232 -5.1222 0
M  V30 17069 C 1584.68 -4.08277 -5.28078 0
M  V30 17070 H 1583.95 -0.0829255 -0.736345 0
M  V30 17071 H 1586.59 -0.894729 -1.69313 0
M  V30 17072 H 1584.9 0.518995 -3.88347 0
M  V30 17073 H 1586.6 0.147754 -4.00728 0
M  V30 17074 H 1583.19 -1.28356 -4.08929 0
M  V30 17075 H 1587.37 -2.19506 -4.45119 0
M  V30 17076 H 1582.63 -3.48819 -5.02131 0
M  V30 17077 H 1586.8 -4.40132 -5.39682 0
M  V30 17078 H 1584.43 -5.05335 -5.67927 0
M  V30 17079 N 1586 1.51322 -0.440383 0
M  V30 17080 C 1586.93 2.30708 0.360013 0
M  V30 17081 C 1587.91 1.36254 1.01828 0
M  V30 17082 O 1589.1 1.65174 1.02134 0
M  V30 17083 C 1586.23 3.15132 1.45977 0
M  V30 17084 C 1585.18 4.17889 0.924825 0
M  V30 17085 C 1584.51 4.90853 2.12056 0
M  V30 17086 C 1585.81 5.22282 -0.0428362 0
M  V30 17087 H 1587.5 2.97868 -0.30248 0
M  V30 17088 H 1585.05 1.43249 -0.146914 0
M  V30 17089 H 1587 3.69449 2.02695 0
M  V30 17090 H 1585.72 2.45798 2.1506 0
M  V30 17091 H 1584.38 3.64627 0.379842 0
M  V30 17092 H 1584.03 4.1802 2.79765 0
M  V30 17093 H 1583.73 5.60339 1.769 0
M  V30 17094 H 1585.26 5.47995 2.69322 0
M  V30 17095 H 1586.67 5.71654 0.434137 0
M  V30 17096 H 1585.07 5.99314 -0.307126 0
M  V30 17097 H 1586.14 4.74923 -0.978557 0
M  V30 17098 N 1587.48 0.171848 1.5666 0
M  V30 17099 C 1588.43 -0.770535 2.14585 0
M  V30 17100 C 1589.41 -1.19247 1.08023 0
M  V30 17101 O 1590.61 -1.15474 1.34144 0
M  V30 17102 C 1587.73 -1.99956 2.79057 0
M  V30 17103 C 1586.82 -1.59959 3.92777 0
M  V30 17104 N 1587.21 -0.909224 4.97561 0
M  V30 17105 C 1585.51 -1.89057 4.03947 0
M  V30 17106 C 1586.21 -0.7122 5.77324 0
M  V30 17107 N 1585.19 -1.25379 5.28943 0
M  V30 17108 H 1588.99 -0.234114 2.92966 0
M  V30 17109 H 1586.5 -0.0288117 1.62374 0
M  V30 17110 H 1588.5 -2.68492 3.18932 0
M  V30 17111 H 1587.16 -2.54092 2.02157 0
M  V30 17112 H 1588.17 -0.567214 5.14785 0
M  V30 17113 H 1584.85 -2.44868 3.38151 0
M  V30 17114 H 1586.24 -0.166225 6.71694 0
M  V30 17115 N 1588.96 -1.5727 -0.101874 0
M  V30 17116 C 1590.37 -1.5295 -0.455899 0
M  V30 17117 C 1590.57 -0.887526 -1.80901 0
M  V30 17118 O 1589.63 -0.477143 -2.47951 0
M  V30 17119 C 1590.94 -2.97687 -0.424625 0
M  V30 17120 C 1592.49 -3.08867 -0.506963 0
M  V30 17121 C 1592.97 -4.55197 -0.505907 0
M  V30 17122 N 1594.46 -4.59718 -0.566856 0
M  V30 17123 C 1595.19 -5.7038 -0.587766 0
M  V30 17124 N 1594.69 -6.9049 -0.56529 0
M  V30 17125 N 1596.48 -5.58535 -0.632067 0
M  V30 17126 H 1588.63 -1.97381 0.784509 0
M  V30 17127 H 1590.89 -0.902141 0.291284 0
M  V30 17128 H 1590.6 -3.48094 0.502312 0
M  V30 17129 H 1590.47 -3.56022 -1.24612 0
M  V30 17130 H 1592.86 -2.58451 -1.42432 0
M  V30 17131 H 1592.94 -2.53496 0.342544 0
M  V30 17132 H 1592.59 -5.06263 0.407477 0
M  V30 17133 H 1592.52 -5.08399 -1.37253 0
M  V30 17134 H 1595.01 -3.73271 -0.589696 0
M  V30 17135 H 1595.32 -7.70588 -0.584342 0
M  V30 17136 H 1593.67 -6.92957 -0.532444 0
M  V30 17137 H 1596.86 -4.63606 -0.647109 0
M  V30 17138 H 1597.03 -6.44783 -0.644895 0
M  V30 17139 N 1590.44 0.372521 -1.53134 0
M  V30 17140 C 1591.67 1.13503 -1.72628 0
M  V30 17141 C 1592.07 1.83725 -0.451877 0
M  V30 17142 O 1591.42 1.74152 0.584539 0
M  V30 17143 C 1591.48 2.21445 -2.832 0
M  V30 17144 C 1591.14 1.7105 -4.23782 0
M  V30 17145 C 1592.14 1.17832 -5.06371 0
M  V30 17146 C 1589.82 1.76773 -4.70167 0
M  V30 17147 C 1591.82 0.710049 -6.33433 0
M  V30 17148 C 1589.51 1.29558 -5.97208 0
M  V30 17149 C 1590.5 0.767634 -6.78673 0
M  V30 17150 O 1590.19 0.302432 -8.03331 0
M  V30 17151 H 1589.92 0.3456 -0.580979 0
M  V30 17152 H 1592.48 0.439479 -2.00643 0
M  V30 17153 H 1590.71 2.94473 -2.50644 0
M  V30 17154 H 1592.4 2.83036 -2.90939 0
M  V30 17155 H 1593.16 1.12754 -4.71711 0
M  V30 17156 H 1589.04 2.16808 -4.06836 0
M  V30 17157 H 1592.59 0.297293 -6.96966 0
M  V30 17158 H 1588.48 1.34327 -6.31369 0
M  V30 17159 H 1589.25 0.4224 -8.17409 0
M  V30 17160 N 1591.91 1.44376 0.631925 0
M  V30 17161 C 1592.85 1.47167 1.75711 0
M  V30 17162 C 1593.86 0.365158 1.58652 0
M  V30 17163 O 1595.05 0.630852 1.66981 0
M  V30 17164 C 1592.15 1.28916 3.13423 0
M  V30 17165 C 1591.32 2.52798 3.56948 0
M  V30 17166 C 1590.38 2.29458 4.73535 0
M  V30 17167 O 1589.41 3.02941 4.81887 0
M  V30 17168 N 1590.61 1.32467 5.65184 0
M  V30 17169 H 1593.37 2.44168 1.73788 0
M  V30 17170 H 1590.93 1.39805 0.816465 0
M  V30 17171 H 1592.93 1.1115 3.89137 0
M  V30 17172 H 1591.5 0.402828 3.09994 0
M  V30 17173 H 1590.72 2.85846 2.71451 0
M  V30 17174 H 1592 3.35198 3.82779 0
M  V30 17175 H 1591.4 0.717762 5.61128 0
M  V30 17176 H 1589.96 1.2068 6.40531 0
M  V30 17177 N 1593.39 -0.872258 1.31261 0
M  V30 17178 C 1594.3 -2.01185 1.20673 0
M  V30 17179 C 1595.32 -1.73558 0.123921 0
M  V30 17180 O 1596.49 -1.98487 0.341288 0
M  V30 17181 C 1593.56 -3.34481 0.91232 0
M  V30 17182 C 1592.62 -3.75446 2.08179 0
M  V30 17183 C 1591.85 -5.02382 1.80134 0
M  V30 17184 O 1592.08 -5.6564 0.735358 0
M  V30 17185 O 1591.01 -5.40059 2.65744 0
M  V30 17186 H 1594.84 -2.13049 2.16434 0
M  V30 17187 H 1592.42 -1.00021 1.10978 0
M  V30 17188 H 1594.3 -4.14419 0.763879 0
M  V30 17189 H 1592.98 -3.23696 -0.0152802 0
M  V30 17190 H 1591.88 -2.96159 2.28562 0
M  V30 17191 H 1593.22 -3.90853 2.99156 0
M  V30 17192 N 1594.87 -1.14184 -1.08627 0
M  V30 17193 C 1595.8 -0.849455 -2.17501 0
M  V30 17194 C 1596.78 0.194617 -1.68983 0
M  V30 17195 O 1597.97 0.0517757 -1.94131 0
M  V30 17196 C 1595.1 -0.323685 -3.45788 0
M  V30 17197 C 1594.05 -1.30294 -4.07685 0
M  V30 17198 C 1593.38 -0.636575 -5.30897 0
M  V30 17199 C 1594.68 -2.66441 -4.49229 0
M  V30 17200 H 1596.37 -1.75987 -2.42217 0
M  V30 17201 H 1593.92 -0.847595 -1.16412 0
M  V30 17202 H 1595.87 -0.106754 -4.21265 0
M  V30 17203 H 1594.59 0.62215 -3.20619 0
M  V30 17204 H 1593.25 -1.50601 -3.34238 0
M  V30 17205 H 1592.9 0.314995 -5.02013 0
M  V30 17206 H 1592.6 -1.28998 -5.73266 0
M  V30 17207 H 1594.12 -0.429117 -6.0909 0
M  V30 17208 H 1595.54 -2.50055 -5.15893 0
M  V30 17209 H 1593.93 -3.28033 -5.02508 0
M  V30 17210 H 1595 -3.23486 -3.61226 0
M  V30 17211 N 1596.35 1.26749 -0.936613 0
M  V30 17212 C 1597.28 2.2892 -0.460213 0
M  V30 17213 C 1598.26 1.63065 0.484135 0
M  V30 17214 O 1599.44 1.90305 0.386973 0
M  V30 17215 C 1596.57 3.46172 0.279648 0
M  V30 17216 C 1595.53 4.24083 -0.57771 0
M  V30 17217 C 1594.85 5.33903 0.291843 0
M  V30 17218 C 1596.15 4.88562 -1.84673 0
M  V30 17219 H 1597.85 2.69019 -1.31412 0
M  V30 17220 H 1595.39 1.29325 -0.633333 0
M  V30 17221 H 1597.35 4.16755 0.623931 0
M  V30 17222 H 1596.07 3.05014 1.16765 0
M  V30 17223 H 1594.73 3.55258 -0.904824 0
M  V30 17224 H 1594.38 4.88986 1.17906 0
M  V30 17225 H 1594.08 5.8694 -0.278372 0
M  V30 17226 H 1595.6 6.07326 0.631498 0
M  V30 17227 H 1597.02 5.51384 -1.56997 0
M  V30 17228 H 1595.41 5.51697 -2.36115 0
M  V30 17229 H 1596.48 4.11761 -2.56088 0
M  V30 17230 N 1597.83 0.703118 1.41046 0
M  V30 17231 C 1599.1 0.164985 1.94903 0
M  V30 17232 C 1599.48 -1.32665 1.64205 0
M  V30 17233 O 1598.83 -2.07675 0.953058 0
M  V30 17234 C 1599.04 0.464354 3.45897 0
M  V30 17235 C 1600.39 0.396205 4.22747 0
M  V30 17236 O 1601.41 0.399698 3.5395 0
M  V30 17237 O 1600.27 0.362874 5.45294 0
M  V30 17238 H 1597.37 0.0193901 0.826773 0
M  V30 17239 H 1599.91 0.779796 1.50722 0
M  V30 17240 H 1598.68 1.49653 3.61552 0
M  V30 17241 H 1598.31 -0.18105 3.97188 0
M  V30 17242 N 1599.3 -1.51086 0.448402 0
M  V30 17243 C 1600.58 -1.94817 -0.174819 0
M  V30 17244 C 1600.96 -1.38767 -1.59081 0
M  V30 17245 O 1600.31 -0.579257 -2.21036 0
M  V30 17246 C 1600.52 -3.48714 -0.14129 0
M  V30 17247 C 1601.87 -4.23225 -0.341414 0
M  V30 17248 O 1602.89 -3.55527 -0.218908 0
M  V30 17249 O 1601.75 -5.43346 -0.586331 0
M  V30 17250 H 1598.84 -0.817652 -0.12399 0
M  V30 17251 H 1601.39 -1.61944 0.507177 0
M  V30 17252 H 1600.16 -3.81996 0.848222 0
M  V30 17253 H 1599.79 -3.88061 -0.865722 0
M  V30 17254 N 1600.78 -0.180154 -1.56567 0
M  V30 17255 C 1601.73 0.763484 -2.19713 0
M  V30 17256 C 1602.72 1.23095 -1.16378 0
M  V30 17257 O 1603.93 1.19558 -1.34558 0
M  V30 17258 H 1600.31 0.264515 -0.703943 0
M  V30 17259 H 1602.28 0.207039 -2.97681 0
M  V30 17260 C 1601.03 1.97884 -2.85897 0
M  V30 17261 H 1600.35 1.62818 -3.65144 0
M  V30 17262 H 1601.79 2.61779 -3.33538 0
M  V30 17263 C 1600.25 2.80811 -1.86136 0
M  V30 17264 O 1600.78 3.78253 -1.35232 0
M  V30 17265 N 1598.98 2.46003 -1.54697 0
M  V30 17266 H 1598.53 1.66823 -1.96285 0
M  V30 17267 H 1598.49 3.01774 -0.88202 0
M  V30 17268 N 1602.26 1.57322 0.0935319 0
M  V30 17269 C 1603.19 1.98861 1.13961 0
M  V30 17270 C 1604.21 0.891385 1.36228 0
M  V30 17271 O 1605.39 1.16949 1.34853 0
M  V30 17272 C 1602.49 2.29369 2.49485 0
M  V30 17273 C 1601.67 3.6066 2.47473 0
M  V30 17274 C 1600.73 3.79087 3.64937 0
M  V30 17275 O 1599.75 4.50923 3.47357 0
M  V30 17276 N 1600.95 3.19784 4.84478 0
M  V30 17277 H 1603.72 2.89208 0.786048 0
M  V30 17278 H 1601.28 1.59416 0.282491 0
M  V30 17279 H 1603.27 2.38889 3.26671 0
M  V30 17280 H 1601.84 1.45021 2.76925 0
M  V30 17281 H 1601.06 3.62095 1.55823 0
M  V30 17282 H 1602.35 4.46908 2.43209 0
M  V30 17283 H 1601.75 2.61436 5.01665 0
M  V30 17284 H 1600.31 3.34786 5.59251 0
M  V30 17285 N 1603.74 -0.364395 1.53329 0
M  V30 17286 C 1604.7 -1.42927 1.79178 0
M  V30 17287 C 1605.7 -1.4653 0.662235 0
M  V30 17288 O 1606.89 -1.4727 0.930442 0
M  V30 17289 C 1604.02 -2.82035 1.91492 0
M  V30 17290 H 1605.22 -1.21281 2.74283 0
M  V30 17291 H 1602.77 -0.597596 1.44425 0
M  V30 17292 H 1603.5 -3.08993 0.984579 0
M  V30 17293 H 1603.29 -2.80818 2.73649 0
M  V30 17294 H 1604.78 -3.59148 2.13078 0
M  V30 17295 N 1605.22 -1.44709 -0.62426 0
M  V30 17296 C 1606.63 -1.42523 -1.20599 0
M  V30 17297 C 1606.98 -0.144129 -1.9567 0
M  V30 17298 O 1606.1 0.755175 -2.02796 0
M  V30 17299 C 1606.7 -2.58194 -2.19365 0
M  V30 17300 C 1605.26 -2.59181 -2.72951 0
M  V30 17301 C 1604.4 -2.34461 -1.48065 0
M  V30 17302 H 1607.36 -1.5319 -0.414532 0
M  V30 17303 H 1607.38 -2.3134 -3.02096 0
M  V30 17304 H 1606.89 -3.5142 -1.64699 0
M  V30 17305 H 1604.99 -1.69916 -3.31601 0
M  V30 17306 H 1605.1 -3.57884 -3.18521 0
M  V30 17307 H 1603.47 -1.83688 -1.76439 0
M  V30 17308 H 1604.25 -3.2981 -0.952918 0
M  V30 17309 N 1606.69 0.865285 -1.31722 0
M  V30 17310 C 1607.94 1.61868 -1.21675 0
M  V30 17311 C 1608.27 1.93206 0.223988 0
M  V30 17312 O 1607.52 1.5657 1.17407 0
M  V30 17313 C 1607.82 2.95462 -2.0109 0
M  V30 17314 C 1607.49 2.83598 -3.50547 0
M  V30 17315 C 1606.15 2.80069 -3.91299 0
M  V30 17316 C 1608.5 2.70295 -4.45635 0
M  V30 17317 C 1605.83 2.61102 -5.25398 0
M  V30 17318 C 1608.18 2.52864 -5.79864 0
M  V30 17319 C 1606.85 2.47722 -6.19831 0
M  V30 17320 H 1606.12 0.592319 -0.445241 0
M  V30 17321 H 1608.76 1.00456 -1.63036 0
M  V30 17322 H 1607.07 3.60935 -1.52424 0
M  V30 17323 H 1608.77 3.52756 -1.90693 0
M  V30 17324 H 1605.36 2.87164 -3.18175 0
M  V30 17325 H 1609.54 2.72073 -4.15078 0
M  V30 17326 H 1604.8 2.55549 -5.55432 0
M  V30 17327 H 1608.97 2.41548 -6.53167 0
M  V30 17328 H 1606.6 2.32784 -7.23682 0
M  V30 17329 N 1608.17 1.14759 1.0802 0
M  V30 17330 C 1609.42 0.918248 1.80484 0
M  V30 17331 C 1609.75 -0.554986 1.86414 0
M  V30 17332 O 1609 -1.42732 1.33888 0
M  V30 17333 C 1609.3 1.4692 3.25805 0
M  V30 17334 C 1608.97 2.96176 3.39987 0
M  V30 17335 C 1607.63 3.36923 3.43564 0
M  V30 17336 C 1609.98 3.92131 3.43341 0
M  V30 17337 C 1607.31 4.72281 3.48092 0
M  V30 17338 C 1609.66 5.27351 3.49404 0
M  V30 17339 C 1608.33 5.67605 3.51256 0
M  V30 17340 H 1607.6 0.336011 0.660437 0
M  V30 17341 H 1610.24 1.43191 1.27156 0
M  V30 17342 H 1608.55 0.876571 3.81868 0
M  V30 17343 H 1610.24 1.26765 3.80436 0
M  V30 17344 H 1606.83 2.63675 3.37896 0
M  V30 17345 H 1611.02 3.61728 3.39804 0
M  V30 17346 H 1606.27 5.02823 3.4782 0
M  V30 17347 H 1610.45 6.01507 3.50946 0
M  V30 17348 H 1608.08 6.72474 3.54517 0
M  V30 17349 N 1609.65 -1.26251 0.943322 0
M  V30 17350 C 1610.58 -2.28673 0.472347 0
M  V30 17351 C 1611.56 -1.63319 -0.475481 0
M  V30 17352 O 1612.75 -1.90508 -0.376875 0
M  V30 17353 C 1609.88 -3.46316 -0.261286 0
M  V30 17354 C 1608.83 -4.23771 0.600192 0
M  V30 17355 C 1608.16 -5.3405 -0.263525 0
M  V30 17356 C 1609.46 -4.87576 1.87262 0
M  V30 17357 H 1611.15 -2.68319 1.32836 0
M  V30 17358 H 1608.7 -1.28987 0.640182 0
M  V30 17359 H 1610.65 -4.1708 -0.601821 0
M  V30 17360 H 1609.37 -3.05629 -1.15146 0
M  V30 17361 H 1608.03 -3.54774 0.923651 0
M  V30 17362 H 1607.68 -4.89604 -1.15312 0
M  V30 17363 H 1607.38 -5.86784 0.309495 0
M  V30 17364 H 1608.9 -6.07652 -0.599281 0
M  V30 17365 H 1610.32 -5.50544 1.59919 0
M  V30 17366 H 1608.72 -5.50437 2.39038 0
M  V30 17367 H 1609.79 -4.10397 2.58268 0
M  V30 17368 N 1611.13 -0.710588 -1.40671 0
M  V30 17369 C 1612.38 -0.247949 -2.00976 0
M  V30 17370 C 1612.7 1.15725 -1.56327 0
M  V30 17371 O 1611.96 1.79826 -0.77208 0
M  V30 17372 C 1612.26 -0.270478 -3.56375 0
M  V30 17373 C 1611.92 -1.62528 -4.2059 0
M  V30 17374 C 1610.59 -1.99614 -4.37844 0
M  V30 17375 C 1612.94 -2.51591 -4.56455 0
M  V30 17376 C 1610.27 -3.2532 -4.88246 0
M  V30 17377 C 1612.62 -3.76644 -5.08254 0
M  V30 17378 C 1611.28 -4.13855 -5.23718 0
M  V30 17379 H 1610.55 -0.0907308 -0.735424 0
M  V30 17380 H 1613.2 -0.912636 -1.68354 0
M  V30 17381 H 1611.5 0.477777 -3.88876 0
M  V30 17382 H 1613.2 0.105243 -4.00862 0
M  V30 17383 H 1609.79 -1.32686 -4.07544 0
M  V30 17384 H 1613.98 -2.24215 -4.42766 0
M  V30 17385 H 1609.23 -3.54125 -4.98403 0
M  V30 17386 H 1613.41 -4.45832 -5.34983 0
M  V30 17387 H 1611.03 -5.1133 -5.62535 0
M  V30 17388 N 1612.61 1.50847 -0.456408 0
M  V30 17389 C 1613.84 2.0665 0.101737 0
M  V30 17390 C 1614.25 1.32188 1.34803 0
M  V30 17391 O 1613.61 0.38687 1.78352 0
M  V30 17392 C 1613.66 3.59227 0.404724 0
M  V30 17393 O 1613.38 4.30879 -0.79212 0
M  V30 17394 C 1614.88 4.31607 1.01145 0
M  V30 17395 H 1612.1 0.671 -0.000542219 0
M  V30 17396 H 1614.64 1.94195 -0.640974 0
M  V30 17397 H 1612.8 3.71533 1.09735 0
M  V30 17398 H 1613.21 5.21837 -0.527843 0
M  V30 17399 H 1614.69 5.39386 1.17332 0
M  V30 17400 H 1615.16 3.9114 1.99765 0
M  V30 17401 H 1615.77 4.23794 0.357645 0
M  V30 17402 N 1614.09 0.188454 1.56469 0
M  V30 17403 C 1615.33 -0.454307 1.99287 0
M  V30 17404 C 1615.69 -1.59256 1.07245 0
M  V30 17405 O 1616.89 -2.29905 1.39273 0
M  V30 17406 C 1615.16 -0.908909 3.4565 0
M  V30 17407 S 1616.72 -1.55044 4.10496 0
M  V30 17408 H 1613.54 -0.145527 0.695948 0
M  V30 17409 H 1616.14 0.289956 1.93338 0
M  V30 17410 H 1614.84 -0.0703211 4.1034 0
M  V30 17411 H 1614.38 -1.6868 3.55402 0
M  V30 17412 H 1616.39 -2.83905 4.06955 0
M  V30 17413 N 1615.56 -1.5737 -0.0851874 0
M  V30 17414 C 1616.53 -2.01789 -1.08692 0
M  V30 17415 C 1617.53 -0.912872 -1.32376 0
M  V30 17416 O 1618.72 -1.1781 -1.28322 0
M  V30 17417 C 1615.85 -2.38708 -2.43375 0
M  V30 17418 H 1617.04 -2.91511 -0.704359 0
M  V30 17419 H 1614.59 -1.52765 -0.330528 0
M  V30 17420 H 1615.33 -1.5197 -2.86488 0
M  V30 17421 H 1615.11 -3.19331 -2.2753 0
M  V30 17422 H 1616.6 -2.73697 -3.15404 0
M  V30 17423 N 1617.04 0.356258 -1.53521 0
M  V30 17424 C 1617.97 1.45965 -1.75413 0
M  V30 17425 C 1618.95 1.51015 -0.602774 0
M  V30 17426 O 1620.14 1.68925 -0.836459 0
M  V30 17427 C 1617.26 2.84276 -1.84132 0
M  V30 17428 C 1616.31 2.96909 -3.06182 0
M  V30 17429 S 1617.14 2.64695 -4.65507 0
M  V30 17430 C 1618.3 4.05138 -4.77089 0
M  V30 17431 H 1618.53 1.27176 -2.68726 0
M  V30 17432 H 1616.06 0.551163 -1.44227 0
M  V30 17433 H 1618.02 3.63965 -1.89842 0
M  V30 17434 H 1616.68 3.00369 -0.918542 0
M  V30 17435 H 1615.88 3.98226 -3.08921 0
M  V30 17436 H 1615.48 2.25154 -2.98633 0
M  V30 17437 H 1617.77 4.99502 -4.57717 0
M  V30 17438 H 1618.71 4.074 -5.79164 0
M  V30 17439 H 1619.12 3.92572 -4.05644 0
M  V30 17440 N 1618.52 1.45038 0.616577 0
M  V30 17441 C 1619.94 1.29246 0.936359 0
M  V30 17442 C 1620.14 0.238879 2.00079 0
M  V30 17443 O 1619.19 -0.370265 2.4977 0
M  V30 17444 C 1620.5 2.66863 1.38581 0
M  V30 17445 C 1622.05 2.74688 1.50051 0
M  V30 17446 C 1622.53 4.12809 1.98375 0
M  V30 17447 N 1624.02 4.15058 2.05623 0
M  V30 17448 C 1624.75 5.18793 2.44216 0
M  V30 17449 N 1624.25 6.3288 2.81843 0
M  V30 17450 N 1626.04 5.06149 2.44477 0
M  V30 17451 H 1618.19 2.12221 -0.0871304 0
M  V30 17452 H 1620.46 0.947705 0.0236659 0
M  V30 17453 H 1620.16 3.45105 0.677911 0
M  V30 17454 H 1620.04 2.94726 2.35407 0
M  V30 17455 H 1622.42 1.96756 2.19934 0
M  V30 17456 H 1622.5 2.50549 0.515631 0
M  V30 17457 H 1622.15 4.91223 1.29082 0
M  V30 17458 H 1622.08 4.34334 2.97761 0
M  V30 17459 H 1624.57 3.32726 1.79171 0
M  V30 17460 H 1624.88 7.07834 3.10147 0
M  V30 17461 H 1623.23 6.36295 2.7956 0
M  V30 17462 H 1626.42 4.16071 2.14482 0
M  V30 17463 H 1626.59 5.87114 2.74229 0
M  V30 17464 N 1620 -0.858287 1.32179 0
M  V30 17465 C 1621.24 -1.61444 1.23723 0
M  V30 17466 C 1621.6 -1.91358 -0.199954 0
M  V30 17467 O 1620.89 -1.54239 -1.1367 0
M  V30 17468 C 1621.09 -2.94391 2.02654 0
M  V30 17469 C 1620.91 -2.7746 3.53901 0
M  V30 17470 C 1619.68 -2.76033 4.23242 0
M  V30 17471 C 1621.88 -2.51478 4.48624 0
M  V30 17472 N 1619.86 -2.50274 5.60568 0
M  V30 17473 C 1621.24 -2.35092 5.737 0
M  V30 17474 C 1623.29 -2.36917 4.37921 0
M  V30 17475 C 1621.99 -2.05624 6.89283 0
M  V30 17476 C 1624.02 -2.08839 5.533 0
M  V30 17477 C 1623.38 -1.9325 6.77373 0
M  V30 17478 H 1619.48 -0.594623 0.507885 0
M  V30 17479 H 1622.06 -1.00921 1.66502 0
M  V30 17480 H 1620.24 -3.52899 1.62225 0
M  V30 17481 H 1621.97 -3.59361 1.86123 0
M  V30 17482 H 1618.72 -2.8884 3.75325 0
M  V30 17483 H 1619.15 -2.40333 6.32905 0
M  V30 17484 H 1623.79 -2.47691 3.4265 0
M  V30 17485 H 1621.51 -1.93587 7.8457 0
M  V30 17486 H 1625.09 -1.98355 5.46943 0
M  V30 17487 H 1623.97 -1.71832 7.65143 0
M  V30 17488 N 1621.48 -1.1533 -1.07409 0
M  V30 17489 C 1622.41 -0.872476 -2.16587 0
M  V30 17490 C 1623.39 0.176683 -1.6918 0
M  V30 17491 O 1624.57 0.0311826 -1.94175 0
M  V30 17492 C 1621.7 -0.360342 -3.45426 0
M  V30 17493 C 1620.66 -1.34611 -4.06281 0
M  V30 17494 C 1619.98 -0.692848 -5.30192 0
M  V30 17495 C 1621.28 -2.71191 -4.46378 0
M  V30 17496 H 1622.98 -1.78546 -2.40336 0
M  V30 17497 H 1620.52 -0.859895 -1.15507 0
M  V30 17498 H 1622.47 -0.151429 -4.21128 0
M  V30 17499 H 1621.2 0.588109 -3.21261 0
M  V30 17500 H 1619.86 -1.54137 -3.32622 0
M  V30 17501 H 1619.51 0.261732 -5.02319 0
M  V30 17502 H 1619.21 -1.35071 -5.71865 0
M  V30 17503 H 1620.73 -0.493695 -6.08601 0
M  V30 17504 H 1622.14 -2.55513 -5.13212 0
M  V30 17505 H 1620.54 -3.33345 -4.99 0
M  V30 17506 H 1621.61 -3.273 -3.57775 0
M  V30 17507 N 1622.95 1.25748 -0.950004 0
M  V30 17508 C 1623.92 2.24307 -0.47106 0
M  V30 17509 C 1624.92 1.55145 0.422704 0
M  V30 17510 O 1626.11 1.72797 0.220642 0
M  V30 17511 C 1623.24 3.39395 0.319979 0
M  V30 17512 H 1624.43 2.68192 -1.34214 0
M  V30 17513 H 1621.98 1.38056 -0.732827 0
M  V30 17514 H 1622.72 3.00925 1.20892 0
M  V30 17515 H 1622.5 3.90783 -0.321157 0
M  V30 17516 H 1623.99 4.12594 0.644697 0
M  V30 17517 N 1624.43 0.718038 1.40292 0
M  V30 17518 C 1625.68 0.258986 2.0114 0
M  V30 17519 C 1626.01 -1.1456 1.56811 0
M  V30 17520 O 1625.29 -1.77766 0.789276 0
M  V30 17521 C 1625.57 0.341778 3.58474 0
M  V30 17522 C 1625.42 1.78492 4.12869 0
M  V30 17523 C 1626.74 -0.285622 4.39172 0
M  V30 17524 H 1623.86 0.0955806 0.730776 0
M  V30 17525 H 1626.5 0.911 1.66736 0
M  V30 17526 H 1624.65 -0.213354 3.87914 0
M  V30 17527 H 1626.32 2.39562 3.94218 0
M  V30 17528 H 1624.57 2.31183 3.67065 0
M  V30 17529 H 1625.24 1.79423 5.22026 0
M  V30 17530 H 1627.71 0.187411 4.15678 0
M  V30 17531 H 1626.59 -0.19726 5.48545 0
M  V30 17532 H 1626.85 -1.36947 4.20355 0
M  V30 17533 N 1625.91 -1.50602 0.464402 0
M  V30 17534 C 1627.33 -1.59162 0.118173 0
M  V30 17535 C 1627.53 -1.47313 -1.37481 0
M  V30 17536 O 1626.58 -1.32819 -2.14745 0
M  V30 17537 C 1627.9 -2.93313 0.662411 0
M  V30 17538 C 1629.44 -3.06692 0.625244 0
M  V30 17539 C 1629.92 -4.43407 1.14691 0
M  V30 17540 N 1631.41 -4.49801 1.10604 0
M  V30 17541 C 1632.14 -5.53964 1.48026 0
M  V30 17542 N 1631.64 -6.65413 1.92865 0
M  V30 17543 N 1633.43 -5.44471 1.39671 0
M  V30 17544 H 1625.58 -1.56548 1.4355 0
M  V30 17545 H 1627.85 -0.739451 0.593225 0
M  V30 17546 H 1627.55 -3.07439 1.70805 0
M  V30 17547 H 1627.43 -3.77061 0.102251 0
M  V30 17548 H 1629.81 -2.92217 -0.411466 0
M  V30 17549 H 1629.9 -2.24717 1.22213 0
M  V30 17550 H 1629.54 -4.5863 2.18222 0
M  V30 17551 H 1629.47 -5.23963 0.526306 0
M  V30 17552 H 1631.96 -3.69824 0.77709 0
M  V30 17553 H 1632.27 -7.40947 2.19585 0
M  V30 17554 H 1630.62 -6.66551 1.96812 0
M  V30 17555 H 1633.81 -4.56289 1.04487 0
M  V30 17556 H 1633.98 -6.25531 1.69161 0
M  V30 17557 N 1627.39 -0.19675 -1.56367 0
M  V30 17558 C 1628.32 0.718607 -2.22167 0
M  V30 17559 C 1629.3 1.22002 -1.1853 0
M  V30 17560 O 1630.48 1.26856 -1.47042 0
M  V30 17561 C 1627.61 1.93753 -2.88231 0
M  V30 17562 C 1626.57 1.57096 -3.98127 0
M  V30 17563 C 1625.89 2.86663 -4.51363 0
M  V30 17564 C 1627.19 0.779649 -5.16448 0
M  V30 17565 H 1628.89 0.170064 -2.98917 0
M  V30 17566 H 1626.43 0.0803568 -1.43776 0
M  V30 17567 H 1628.39 2.58312 -3.32946 0
M  V30 17568 H 1627.11 2.51063 -2.0889 0
M  V30 17569 H 1625.77 0.948947 -3.54105 0
M  V30 17570 H 1625.42 3.42066 -3.68782 0
M  V30 17571 H 1625.12 2.6288 -5.25517 0
M  V30 17572 H 1626.64 3.52207 -4.98781 0
M  V30 17573 H 1628.06 1.32838 -5.57698 0
M  V30 17574 H 1626.45 0.639882 -5.96679 0
M  V30 17575 H 1627.52 -0.218944 -4.84405 0
M  V30 17576 N 1628.87 1.57413 0.0768405 0
M  V30 17577 C 1630.14 1.78056 0.809663 0
M  V30 17578 C 1630.52 0.783053 1.9604 0
M  V30 17579 O 1629.87 -0.184836 2.27751 0
M  V30 17580 C 1630.08 3.24391 1.2873 0
M  V30 17581 C 1631.43 3.88082 1.72272 0
M  V30 17582 O 1632.45 3.28251 1.38309 0
M  V30 17583 O 1631.31 4.93329 2.35135 0
M  V30 17584 H 1628.41 0.730553 0.387584 0
M  V30 17585 H 1630.95 1.69603 0.057307 0
M  V30 17586 H 1629.72 3.88543 0.463678 0
M  V30 17587 H 1629.35 3.37548 2.10112 0
M  V30 17588 N 1630.34 -0.348112 1.53707 0
M  V30 17589 C 1631.27 -1.43296 1.8436 0
M  V30 17590 C 1632.26 -1.55102 0.698376 0
M  V30 17591 O 1633.44 -1.69385 0.949864 0
M  V30 17592 C 1630.57 -2.80407 2.04912 0
M  V30 17593 C 1629.52 -2.83412 3.20721 0
M  V30 17594 C 1628.85 -4.23365 3.26597 0
M  V30 17595 C 1630.15 -2.49358 4.58931 0
M  V30 17596 H 1631.84 -1.17892 2.75212 0
M  V30 17597 H 1629.39 -0.565692 1.32423 0
M  V30 17598 H 1631.34 -3.56343 2.24939 0
M  V30 17599 H 1630.07 -3.07236 1.10786 0
M  V30 17600 H 1628.73 -2.09929 3.00542 0
M  V30 17601 H 1628.37 -4.47297 2.30076 0
M  V30 17602 H 1628.07 -4.26287 4.04417 0
M  V30 17603 H 1629.6 -5.01149 3.4883 0
M  V30 17604 H 1631.01 -3.15006 4.79003 0
M  V30 17605 H 1629.41 -2.6357 5.3912 0
M  V30 17606 H 1630.48 -1.44557 4.62851 0
M  V30 17607 N 1631.82 -1.45363 -0.608876 0
M  V30 17608 C 1633.07 -1.48586 -1.364 0
M  V30 17609 C 1633.38 -0.131213 -1.95159 0
M  V30 17610 O 1634.59 -0.0410845 -2.71469 0
M  V30 17611 C 1633.05 -2.61694 -2.47071 0
M  V30 17612 C 1632.65 -4.03466 -1.94729 0
M  V30 17613 C 1634.4 -2.74162 -3.24091 0
M  V30 17614 C 1632.31 -5.07958 -3.02874 0
M  V30 17615 H 1631.24 -0.552893 -0.512665 0
M  V30 17616 H 1633.89 -1.71499 -0.65271 0
M  V30 17617 H 1632.27 -2.32062 -3.20879 0
M  V30 17618 H 1633.44 -4.4277 -1.27638 0
M  V30 17619 H 1631.76 -3.95436 -1.30457 0
M  V30 17620 H 1634.35 -3.494 -4.04752 0
M  V30 17621 H 1634.7 -1.80751 -3.75013 0
M  V30 17622 H 1635.23 -3.03313 -2.57383 0
M  V30 17623 H 1631.97 -6.03073 -2.56871 0
M  V30 17624 H 1631.49 -4.73225 -3.68535 0
M  V30 17625 H 1633.17 -5.3265 -3.67277 0
M  V30 17626 N 1633.3 0.851265 -1.32632 0
M  V30 17627 C 1634.53 1.64328 -1.26535 0
M  V30 17628 C 1634.95 1.87392 0.163086 0
M  V30 17629 O 1634.31 1.42913 1.1156 0
M  V30 17630 C 1634.36 2.97781 -2.03369 0
M  V30 17631 O 1633.46 3.8849 -1.38381 0
M  V30 17632 H 1632.8 0.500864 -0.435926 0
M  V30 17633 H 1635.33 1.06 -1.75001 0
M  V30 17634 H 1635.34 3.47576 -2.1367 0
M  V30 17635 H 1634.02 2.80316 -3.07239 0
M  V30 17636 H 1632.59 3.4696 -1.36649 0
M  V30 17637 N 1634.78 1.15898 1.06796 0
M  V30 17638 C 1636.03 0.931848 1.78884 0
M  V30 17639 C 1636.34 -0.54197 1.87942 0
M  V30 17640 O 1637.55 -0.886848 2.56607 0
M  V30 17641 C 1636 1.61788 3.21485 0
M  V30 17642 C 1635.61 3.12911 3.2061 0
M  V30 17643 C 1637.35 1.47252 3.98142 0
M  V30 17644 C 1635.26 3.74275 4.579 0
M  V30 17645 H 1634.19 0.344998 0.670442 0
M  V30 17646 H 1636.84 1.38974 1.19827 0
M  V30 17647 H 1635.22 1.08769 3.80769 0
M  V30 17648 H 1636.4 3.72732 2.70938 0
M  V30 17649 H 1634.71 3.27273 2.57451 0
M  V30 17650 H 1637.31 1.90484 4.9962 0
M  V30 17651 H 1637.65 0.420766 4.14168 0
M  V30 17652 H 1638.19 1.97398 3.45367 0
M  V30 17653 H 1634.93 4.79376 4.47078 0
M  V30 17654 H 1634.45 3.19238 5.07786 0
M  V30 17655 H 1636.12 3.75532 5.26863 0
M  V30 17656 N 1636.26 -1.25243 0.956659 0
M  V30 17657 C 1637.22 -2.24054 0.482949 0
M  V30 17658 C 1638.22 -1.55367 -0.41447 0
M  V30 17659 O 1639.41 -1.72912 -0.211475 0
M  V30 17660 C 1636.54 -3.3956 -0.301975 0
M  V30 17661 H 1637.73 -2.67476 1.35634 0
M  V30 17662 H 1635.29 -1.37665 0.740138 0
M  V30 17663 H 1636.02 -3.01561 -1.19294 0
M  V30 17664 H 1635.81 -3.90607 0.341876 0
M  V30 17665 H 1637.3 -4.1293 -0.622807 0
M  V30 17666 N 1637.73 -0.725468 -1.3991 0
M  V30 17667 C 1638.66 -0.094211 -2.3331 0
M  V30 17668 C 1639.65 0.734728 -1.53414 0
M  V30 17669 O 1640.83 0.681647 -1.81844 0
M  V30 17670 C 1637.96 0.820958 -3.37457 0
M  V30 17671 C 1636.91 0.0968983 -4.2789 0
M  V30 17672 C 1636.24 1.12845 -5.22657 0
M  V30 17673 C 1637.54 -1.05483 -5.11537 0
M  V30 17674 H 1639.23 -0.874365 -2.86348 0
M  V30 17675 H 1636.78 -0.421913 -1.3768 0
M  V30 17676 H 1638.73 1.27203 -4.01743 0
M  V30 17677 H 1637.46 1.63312 -2.82837 0
M  V30 17678 H 1636.12 -0.334454 -3.65071 0
M  V30 17679 H 1635.76 1.93392 -4.64337 0
M  V30 17680 H 1635.46 0.648805 -5.84007 0
M  V30 17681 H 1636.99 1.57942 -5.89819 0
M  V30 17682 H 1638.4 -0.682657 -5.69221 0
M  V30 17683 H 1636.8 -1.46349 -5.81981 0
M  V30 17684 H 1637.87 -1.88095 -4.46932 0
M  V30 17685 N 1639.21 1.50354 -0.472382 0
M  V30 17686 C 1640.46 2.01526 0.0838536 0
M  V30 17687 C 1640.77 1.35913 1.40667 0
M  V30 17688 O 1641.98 1.78248 2.04792 0
M  V30 17689 C 1640.44 3.59344 0.199949 0
M  V30 17690 C 1640.04 4.33916 -1.11451 0
M  V30 17691 C 1641.79 4.18553 0.708075 0
M  V30 17692 C 1639.7 5.83521 -0.962138 0
M  V30 17693 H 1638.63 0.753182 0.0351127 0
M  V30 17694 H 1641.28 1.73153 -0.607474 0
M  V30 17695 H 1639.66 3.8431 0.955088 0
M  V30 17696 H 1640.83 4.20673 -1.8807 0
M  V30 17697 H 1639.15 3.86322 -1.55385 0
M  V30 17698 H 1641.74 5.28075 0.839126 0
M  V30 17699 H 1642.09 3.80019 1.69973 0
M  V30 17700 H 1642.62 3.97799 0.0102847 0
M  V30 17701 H 1639.36 6.26529 -1.9272 0
M  V30 17702 H 1638.88 5.99334 -0.236348 0
M  V30 17703 H 1640.56 6.43933 -0.629276 0
M  V30 17704 N 1640.69 0.205039 1.56261 0
M  V30 17705 C 1641.92 -0.43642 2.02245 0
M  V30 17706 C 1642.33 -1.54504 1.08508 0
M  V30 17707 O 1641.69 -1.82269 0.0916991 0
M  V30 17708 C 1641.74 -0.983483 3.47865 0
M  V30 17709 O 1641.46 0.0809166 4.38025 0
M  V30 17710 C 1642.96 -1.69983 4.09415 0
M  V30 17711 H 1640.18 -0.108577 0.662157 0
M  V30 17712 H 1642.73 0.316659 2.02033 0
M  V30 17713 H 1640.88 -1.6869 3.48744 0
M  V30 17714 H 1641.3 -0.327751 5.23475 0
M  V30 17715 H 1642.77 -2.03481 5.13127 0
M  V30 17716 H 1643.25 -2.60711 3.5345 0
M  V30 17717 H 1643.85 -1.04202 4.12337 0
M  V30 17718 N 1642.17 -1.57451 -0.0684915 0
M  V30 17719 C 1643.4 -1.9164 -0.779855 0
M  V30 17720 C 1643.81 -0.801309 -1.70952 0
M  V30 17721 O 1643.17 0.225134 -1.81106 0
M  V30 17722 C 1643.22 -3.25594 -1.57068 0
M  V30 17723 O 1642.94 -4.32816 -0.678385 0
M  V30 17724 C 1644.44 -3.73818 -2.38275 0
M  V30 17725 H 1641.66 -0.633374 -0.221537 0
M  V30 17726 H 1644.21 -2.04465 -0.0377746 0
M  V30 17727 H 1642.36 -3.14287 -2.26501 0
M  V30 17728 H 1642.78 -5.09903 -1.22877 0
M  V30 17729 H 1644.25 -4.70168 -2.89216 0
M  V30 17730 H 1644.73 -3.02995 -3.17947 0
M  V30 17731 H 1645.33 -3.88081 -1.73992 0
M  V30 17732 N 1643.65 0.339955 -1.5389 0
M  V30 17733 C 1644.88 1.09975 -1.75251 0
M  V30 17734 C 1645.29 1.8224 -0.493355 0
M  V30 17735 O 1644.65 1.74477 0.535173 0
M  V30 17736 C 1644.7 2.11048 -2.93498 0
M  V30 17737 O 1644.42 1.41721 -4.14544 0
M  V30 17738 C 1645.92 2.99375 -3.26939 0
M  V30 17739 H 1643.14 0.327811 -0.585475 0
M  V30 17740 H 1645.68 0.391068 -2.00726 0
M  V30 17741 H 1643.84 2.77476 -2.70344 0
M  V30 17742 H 1644.25 2.09271 -4.80943 0
M  V30 17743 H 1645.73 3.66223 -4.13019 0
M  V30 17744 H 1646.2 3.65588 -2.43397 0
M  V30 17745 H 1646.81 2.38531 -3.52112 0
M  V30 17746 N 1645.13 1.45684 0.601159 0
M  V30 17747 C 1646.37 1.4974 1.35729 0
M  V30 17748 C 1646.69 0.143072 1.94474 0
M  V30 17749 O 1645.96 -0.82832 1.77527 0
M  V30 17750 H 1644.54 0.551455 0.503892 0
M  V30 17751 H 1647.21 1.81685 0.705443 0
M  V30 17752 H 1646.3 2.23982 2.17344 0
M  V30 17753 N 1646.6 -0.84422 1.33082 0
M  V30 17754 C 1647.53 -1.96899 1.25511 0
M  V30 17755 C 1648.51 -1.69549 0.13677 0
M  V30 17756 O 1649.7 -1.9145 0.325667 0
M  V30 17757 C 1646.83 -3.32947 0.988094 0
M  V30 17758 C 1645.78 -3.7468 2.06879 0
M  V30 17759 C 1645.11 -5.08475 1.65401 0
M  V30 17760 C 1646.41 -3.89033 3.48498 0
M  V30 17761 H 1648.1 -2.03491 2.19617 0
M  V30 17762 H 1645.65 -0.977659 1.05725 0
M  V30 17763 H 1647.6 -4.11198 0.921645 0
M  V30 17764 H 1646.33 -3.26598 0.0114067 0
M  V30 17765 H 1644.99 -2.98689 2.12557 0
M  V30 17766 H 1644.63 -4.98592 0.66449 0
M  V30 17767 H 1644.33 -5.37368 2.37717 0
M  V30 17768 H 1645.86 -5.89207 1.60212 0
M  V30 17769 H 1647.27 -4.57609 3.4535 0
M  V30 17770 H 1645.67 -4.29357 4.19253 0
M  V30 17771 H 1646.74 -2.91639 3.87395 0
M  V30 17772 N 1648.08 -1.16463 -1.0618 0
M  V30 17773 C 1649.01 -0.815728 -2.13122 0
M  V30 17774 C 1649.99 0.213124 -1.61197 0
M  V30 17775 O 1651.18 0.0969425 -1.88251 0
M  V30 17776 C 1648.3 -0.215095 -3.38016 0
M  V30 17777 C 1647.35 -1.21774 -4.08746 0
M  V30 17778 S 1648.18 -2.7649 -4.586 0
M  V30 17779 C 1649.34 -2.17879 -5.86753 0
M  V30 17780 H 1649.57 -1.72148 -2.42389 0
M  V30 17781 H 1647.1 -0.98822 -1.18632 0
M  V30 17782 H 1649.06 0.124982 -4.1031 0
M  V30 17783 H 1647.72 0.66844 -3.06905 0
M  V30 17784 H 1646.92 -0.745936 -4.98449 0
M  V30 17785 H 1646.52 -1.50296 -3.42472 0
M  V30 17786 H 1648.81 -1.54817 -6.59574 0
M  V30 17787 H 1649.75 -3.05797 -6.38666 0
M  V30 17788 H 1650.16 -1.61717 -5.4084 0
M  V30 17789 N 1649.56 1.24734 -0.963288 0
M  V30 17790 C 1650.81 1.91987 -0.618386 0
M  V30 17791 C 1651.12 1.76179 0.849726 0
M  V30 17792 O 1652.33 2.38082 1.30496 0
M  V30 17793 C 1650.78 3.44079 -1.05534 0
M  V30 17794 C 1650.39 3.68582 -2.5466 0
M  V30 17795 C 1652.14 4.17209 -0.783378 0
M  V30 17796 C 1650.04 5.14223 -2.92111 0
M  V30 17797 H 1648.97 0.718836 -0.227575 0
M  V30 17798 H 1651.62 1.41453 -1.1689 0
M  V30 17799 H 1650.01 3.93624 -0.433168 0
M  V30 17800 H 1651.18 3.29655 -3.2197 0
M  V30 17801 H 1649.49 3.08729 -2.79419 0
M  V30 17802 H 1652.09 5.24503 -1.03924 0
M  V30 17803 H 1652.43 4.15355 0.280352 0
M  V30 17804 H 1652.97 3.736 -1.36631 0
M  V30 17805 H 1649.71 5.21195 -3.97537 0
M  V30 17806 H 1649.23 5.54164 -2.29482 0
M  V30 17807 H 1650.91 5.82419 -2.81775 0
M  V30 17808 N 1651.04 0.732878 1.39523 0
M  V30 17809 C 1652.28 0.280305 2.00854 0
M  V30 17810 C 1652.62 -1.12891 1.58017 0
M  V30 17811 O 1651.89 -1.76919 0.808086 0
M  V30 17812 C 1652.17 0.37978 3.58092 0
M  V30 17813 C 1652.03 1.82861 4.10953 0
M  V30 17814 C 1653.35 -0.239026 4.3945 0
M  V30 17815 H 1650.47 0.103326 0.729721 0
M  V30 17816 H 1653.11 0.928634 1.6576 0
M  V30 17817 H 1651.26 -0.172198 3.88118 0
M  V30 17818 H 1652.93 2.4373 3.91655 0
M  V30 17819 H 1651.17 2.35064 3.64592 0
M  V30 17820 H 1651.84 1.84949 5.20094 0
M  V30 17821 H 1654.32 0.231488 4.15456 0
M  V30 17822 H 1653.2 -0.139068 5.48724 0
M  V30 17823 H 1653.46 -1.32481 4.21783 0
M  V30 17824 N 1652.52 -1.50101 0.480349 0
M  V30 17825 C 1653.45 -2.31581 -0.298718 0
M  V30 17826 C 1654.43 -1.38905 -0.981798 0
M  V30 17827 O 1655.61 -1.67823 -0.977188 0
M  V30 17828 C 1652.74 -3.18891 -1.37571 0
M  V30 17829 C 1651.7 -4.20194 -0.813704 0
M  V30 17830 C 1651.02 -4.96302 -1.98968 0
M  V30 17831 C 1652.32 -5.21985 0.181295 0
M  V30 17832 H 1654.02 -2.96961 0.381349 0
M  V30 17833 H 1651.56 -1.42809 0.184842 0
M  V30 17834 H 1653.51 -3.74694 -1.92828 0
M  V30 17835 H 1652.24 -2.51414 -2.08467 0
M  V30 17836 H 1650.9 -3.65506 -0.283034 0
M  V30 17837 H 1650.55 -4.2529 -2.68584 0
M  V30 17838 H 1650.25 -5.64833 -1.61981 0
M  V30 17839 H 1651.77 -5.54943 -2.54698 0
M  V30 17840 H 1653.18 -5.72604 -0.28242 0
M  V30 17841 H 1651.58 -5.98289 0.465916 0
M  V30 17842 H 1652.65 -4.72162 1.10413 0
M  V30 17843 N 1653.99 -0.213323 -1.5615 0
M  V30 17844 C 1654.93 0.739954 -2.1587 0
M  V30 17845 C 1655.9 1.19683 -1.10067 0
M  V30 17846 O 1657.09 1.28106 -1.38279 0
M  V30 17847 C 1654.22 2.00152 -2.73234 0
M  V30 17848 C 1653.26 1.68529 -3.91791 0
M  V30 17849 S 1654.09 0.817317 -5.29226 0
M  V30 17850 C 1655.25 2.08863 -5.90023 0
M  V30 17851 H 1655.48 0.232328 -2.96391 0
M  V30 17852 H 1653.02 0.00189263 -1.544 0
M  V30 17853 H 1654.97 2.72594 -3.06925 0
M  V30 17854 H 1653.64 2.48027 -1.92722 0
M  V30 17855 H 1652.83 2.62241 -4.30402 0
M  V30 17856 H 1652.43 1.04157 -3.59204 0
M  V30 17857 H 1654.72 3.03943 -6.05495 0
M  V30 17858 H 1655.67 1.74656 -6.86222 0
M  V30 17859 H 1656.07 2.22541 -5.18783 0
M  V30 17860 N 1655.47 1.57485 0.0601405 0
M  V30 17861 C 1656.42 2.00939 1.07739 0
M  V30 17862 C 1657.41 0.893348 1.33821 0
M  V30 17863 O 1658.6 1.15727 1.33927 0
M  V30 17864 C 1655.73 2.46657 2.38778 0
M  V30 17865 C 1654.81 3.65019 2.1592 0
M  V30 17866 N 1655.2 4.78807 1.63025 0
M  V30 17867 C 1653.5 3.71794 2.46344 0
M  V30 17868 C 1654.2 5.60599 1.55253 0
M  V30 17869 N 1653.18 5.04788 2.01718 0
M  V30 17870 H 1656.98 2.86349 0.661923 0
M  V30 17871 H 1654.5 1.6019 0.267017 0
M  V30 17872 H 1656.49 2.76032 3.12429 0
M  V30 17873 H 1655.15 1.62639 2.81031 0
M  V30 17874 H 1656.16 5.00868 1.31725 0
M  V30 17875 H 1652.84 2.98513 2.91884 0
M  V30 17876 H 1654.23 6.61966 1.1511 0
M  V30 17877 N 1656.95 -0.331789 1.54068 0
M  V30 17878 C 1658.2 -1.06858 1.71539 0
M  V30 17879 C 1658.52 -1.88808 0.487506 0
M  V30 17880 O 1657.79 -1.8945 -0.498539 0
M  V30 17881 H 1656.37 -0.3975 0.632457 0
M  V30 17882 H 1659.03 -0.370216 1.91352 0
M  V30 17883 H 1658.13 -1.73929 2.59143 0
M  V30 17884 N 1658.43 -1.46001 -0.593424 0
M  V30 17885 C 1659.36 -1.51774 -1.71748 0
M  V30 17886 C 1660.37 -0.407093 -1.57628 0
M  V30 17887 O 1661.56 -0.674903 -1.65249 0
M  V30 17888 C 1658.66 -1.3718 -3.09895 0
M  V30 17889 C 1657.84 -2.62173 -3.5012 0
M  V30 17890 C 1656.89 -2.41933 -4.67285 0
M  V30 17891 O 1655.92 -3.15611 -4.73686 0
M  V30 17892 N 1657.12 -1.47405 -5.61473 0
M  V30 17893 H 1659.89 -2.48689 -1.67253 0
M  V30 17894 H 1657.45 -1.41921 -0.779111 0
M  V30 17895 H 1659.44 -1.21428 -3.86054 0
M  V30 17896 H 1658.01 -0.484876 -3.08817 0
M  V30 17897 H 1657.23 -2.92943 -2.63777 0
M  V30 17898 H 1658.52 -3.45229 -3.73758 0
M  V30 17899 H 1657.92 -0.866282 -5.59028 0
M  V30 17900 H 1656.47 -1.3762 -6.37106 0
M  V30 17901 N 1659.91 0.83715 -1.33527 0
M  V30 17902 C 1661.16 1.58747 -1.24428 0
M  V30 17903 C 1661.47 1.94696 0.187885 0
M  V30 17904 O 1662.67 2.68524 0.400903 0
M  V30 17905 C 1661.13 2.86337 -2.18035 0
M  V30 17906 C 1660.74 2.57745 -3.66431 0
M  V30 17907 C 1662.48 3.6436 -2.17812 0
M  V30 17908 C 1660.39 3.81443 -4.51946 0
M  V30 17909 H 1659.32 0.595749 -0.462168 0
M  V30 17910 H 1661.97 0.922901 -1.58603 0
M  V30 17911 H 1660.35 3.54344 -1.76795 0
M  V30 17912 H 1661.53 1.97939 -4.16121 0
M  V30 17913 H 1659.84 1.93023 -3.68959 0
M  V30 17914 H 1662.44 4.56181 -2.78932 0
M  V30 17915 H 1662.78 3.99414 -1.17364 0
M  V30 17916 H 1663.31 3.03279 -2.57423 0
M  V30 17917 H 1660.05 3.51519 -5.53276 0
M  V30 17918 H 1659.57 4.40582 -4.06998 0
M  V30 17919 H 1661.25 4.49004 -4.65837 0
M  V30 17920 N 1661.38 1.17024 1.05561 0
M  V30 17921 C 1662.8 0.962856 1.59956 0
M  V30 17922 C 1663.15 -0.491388 1.89947 0
M  V30 17923 O 1662.27 -1.366 1.67838 0
M  V30 17924 C 1662.87 1.74146 2.90617 0
M  V30 17925 C 1661.43 1.57885 3.41686 0
M  V30 17926 C 1660.57 1.74548 2.15472 0
M  V30 17927 H 1663.52 1.31787 0.88419 0
M  V30 17928 H 1663.54 1.22165 3.60355 0
M  V30 17929 H 1663.06 2.79984 2.68758 0
M  V30 17930 H 1661.16 0.545207 3.6859 0
M  V30 17931 H 1661.27 2.36745 4.16519 0
M  V30 17932 H 1659.63 1.17356 2.26052 0
M  V30 17933 H 1660.42 2.81789 1.96087 0
M  V30 17934 N 1662.86 -1.24221 0.969889 0
M  V30 17935 C 1664.27 -1.74206 0.671494 0
M  V30 17936 C 1664.62 -1.78576 -0.81271 0
M  V30 17937 O 1663.75 -1.41664 -1.63586 0
M  V30 17938 C 1664.34 -3.16371 1.21222 0
M  V30 17939 C 1662.9 -3.63855 0.96368 0
M  V30 17940 C 1662.05 -2.42429 1.34623 0
M  V30 17941 H 1665 -1.09893 1.14496 0
M  V30 17942 H 1665.02 -3.7606 0.579552 0
M  V30 17943 H 1664.53 -3.13159 2.29245 0
M  V30 17944 H 1662.64 -3.72463 -0.100931 0
M  V30 17945 H 1662.75 -4.51207 1.61087 0
M  V30 17946 H 1661.11 -2.42952 0.764624 0
M  V30 17947 H 1661.9 -2.41896 2.436 0
M  V30 17948 N 1664.34 -0.740267 -1.39132 0
M  V30 17949 C 1665.3 -0.112183 -2.28925 0
M  V30 17950 C 1666.3 0.661598 -1.46559 0
M  V30 17951 O 1667.49 0.489835 -1.67171 0
M  V30 17952 C 1664.63 0.850121 -3.3013 0
M  V30 17953 H 1665.82 -0.903339 -2.85972 0
M  V30 17954 H 1663.37 -0.506427 -1.47868 0
M  V30 17955 H 1664.11 1.66744 -2.78149 0
M  V30 17956 H 1663.89 0.297847 -3.90967 0
M  V30 17957 H 1665.38 1.28599 -3.97306 0
M  V30 17958 N 1665.82 1.49844 -0.488302 0
M  V30 17959 C 1667.05 2.06519 0.0577968 0
M  V30 17960 C 1667.46 1.35039 1.32519 0
M  V30 17961 O 1666.8 0.418468 1.7887 0
M  V30 17962 C 1666.86 3.57328 0.394577 0
M  V30 17963 C 1666.53 4.50411 -0.773259 0
M  V30 17964 C 1667.52 4.9268 -1.66019 0
M  V30 17965 C 1665.21 4.92875 -0.968465 0
M  V30 17966 C 1667.2 5.76139 -2.72659 0
M  V30 17967 C 1664.89 5.76113 -2.03806 0
M  V30 17968 C 1665.89 6.17648 -2.91548 0
M  V30 17969 O 1665.57 6.99224 -3.96663 0
M  V30 17970 H 1665.31 0.675902 -0.0115057 0
M  V30 17971 H 1667.86 1.93777 -0.681149 0
M  V30 17972 H 1666.09 3.68033 1.18695 0
M  V30 17973 H 1667.78 3.96295 0.877786 0
M  V30 17974 H 1668.55 4.60528 -1.52114 0
M  V30 17975 H 1664.42 4.60056 -0.294936 0
M  V30 17976 H 1667.97 6.08478 -3.41174 0
M  V30 17977 H 1663.87 6.07678 -2.17711 0
M  V30 17978 H 1664.63 7.17507 -3.93861 0
M  V30 17979 N 1667.3 0.221601 1.56034 0
M  V30 17980 C 1668.26 -0.674973 2.19036 0
M  V30 17981 C 1669.26 -1.1216 1.15225 0
M  V30 17982 O 1670.45 -1.0304 1.40458 0
M  V30 17983 C 1667.58 -1.92465 2.81372 0
M  V30 17984 H 1668.77 -0.125689 2.99637 0
M  V30 17985 H 1666.33 -0.0280114 1.56275 0
M  V30 17986 H 1667.06 -2.5158 2.04641 0
M  V30 17987 H 1666.85 -1.61286 3.57392 0
M  V30 17988 H 1668.34 -2.56342 3.29664 0
M  V30 17989 N 1668.77 -1.57515 -0.0517878 0
M  V30 17990 C 1670.02 -1.87843 -0.745624 0
M  V30 17991 C 1670.34 -0.816318 -1.77091 0
M  V30 17992 O 1669.61 0.152784 -1.95303 0
M  V30 17993 H 1668.19 -0.693194 -0.278372 0
M  V30 17994 H 1670.86 -1.94886 -0.0231267 0
M  V30 17995 H 1669.95 -2.86001 -1.2494 0
M  V30 17996 N 1670.25 0.323614 -1.54242 0
M  V30 17997 C 1671.18 1.40344 -1.86616 0
M  V30 17998 C 1672.16 1.53972 -0.722963 0
M  V30 17999 O 1673.35 1.67852 -0.976692 0
M  V30 18000 C 1670.48 2.77112 -2.09347 0
M  V30 18001 C 1669.43 2.78273 -3.25189 0
M  V30 18002 C 1668.76 4.18116 -3.33291 0
M  V30 18003 C 1670.06 2.42025 -4.6284 0
M  V30 18004 H 1671.75 1.13499 -2.77053 0
M  V30 18005 H 1669.3 0.544553 -1.33306 0
M  V30 18006 H 1671.25 3.52719 -2.3058 0
M  V30 18007 H 1669.98 3.05435 -1.1566 0
M  V30 18008 H 1668.64 2.05121 -3.03844 0
M  V30 18009 H 1668.28 4.4358 -2.37163 0
M  V30 18010 H 1667.98 4.19799 -4.11147 0
M  V30 18011 H 1669.51 4.95536 -3.56758 0
M  V30 18012 H 1670.92 3.07346 -4.83954 0
M  V30 18013 H 1669.32 2.5496 -5.43245 0
M  V30 18014 H 1670.39 1.37175 -4.65092 0
M  V30 18015 N 1671.73 1.46313 0.585673 0
M  V30 18016 C 1672.69 1.56239 1.67696 0
M  V30 18017 C 1673.69 0.439808 1.54668 0
M  V30 18018 O 1674.88 0.704019 1.5934 0
M  V30 18019 C 1672.02 1.47986 3.07104 0
M  V30 18020 H 1673.21 2.53492 1.60255 0
M  V30 18021 H 1670.76 1.3408 0.803264 0
M  V30 18022 H 1671.5 0.520007 3.20104 0
M  V30 18023 H 1671.28 2.2943 3.17969 0
M  V30 18024 H 1672.77 1.5801 3.86552 0
M  V30 18025 N 1673.21 -0.830057 1.33969 0
M  V30 18026 C 1674.46 -1.58084 1.25269 0
M  V30 18027 C 1674.77 -1.94792 -0.177557 0
M  V30 18028 O 1675.98 -2.68733 -0.386657 0
M  V30 18029 C 1674.43 -2.85177 2.1955 0
M  V30 18030 C 1674.04 -2.55798 3.67792 0
M  V30 18031 C 1675.79 -3.632 2.19741 0
M  V30 18032 C 1673.69 -3.79041 4.53963 0
M  V30 18033 H 1672.62 -0.593289 0.465321 0
M  V30 18034 H 1675.27 -0.914476 1.5909 0
M  V30 18035 H 1673.66 -3.53401 1.78672 0
M  V30 18036 H 1674.83 -1.9573 4.17165 0
M  V30 18037 H 1673.14 -1.91064 3.69978 0
M  V30 18038 H 1675.74 -4.54695 2.81347 0
M  V30 18039 H 1676.08 -3.98786 1.1948 0
M  V30 18040 H 1676.62 -3.0191 2.59028 0
M  V30 18041 H 1673.36 -3.4858 5.55133 0
M  V30 18042 H 1672.88 -4.38417 4.09329 0
M  V30 18043 H 1674.56 -4.46527 4.68212 0
M  V30 18044 N 1674.69 -1.17582 -1.04939 0
M  V30 18045 C 1675.91 -0.99097 -1.82194 0
M  V30 18046 C 1676.34 0.455965 -1.8249 0
M  V30 18047 O 1675.7 1.32661 -1.23575 0
M  V30 18048 C 1675.74 -1.53971 -3.26076 0
M  V30 18049 O 1674.85 -0.755172 -4.05427 0
M  V30 18050 H 1674.19 -0.351669 -0.563227 0
M  V30 18051 H 1676.72 -1.56138 -1.3222 0
M  V30 18052 H 1676.73 -1.56307 -3.76872 0
M  V30 18053 H 1675.4 -2.59295 -3.25175 0
M  V30 18054 H 1673.98 -0.803423 -3.64142 0
M  V30 18055 N 1676.17 1.23705 -0.976463 0
M  V30 18056 C 1677.4 1.95771 -0.660107 0
M  V30 18057 C 1677.8 1.72541 0.776297 0
M  V30 18058 O 1677.15 1.01134 1.53355 0
M  V30 18059 C 1677.21 3.4892 -0.865752 0
M  V30 18060 C 1676.87 3.95862 -2.28347 0
M  V30 18061 C 1677.87 4.04844 -3.26186 0
M  V30 18062 C 1675.55 4.28953 -2.61351 0
M  V30 18063 C 1677.55 4.46265 -4.55111 0
M  V30 18064 C 1675.24 4.70057 -3.905 0
M  V30 18065 C 1676.23 4.78679 -4.87192 0
M  V30 18066 O 1675.92 5.1886 -6.14035 0
M  V30 18067 H 1675.65 0.630202 -0.244585 0
M  V30 18068 H 1678.21 1.58255 -1.30937 0
M  V30 18069 H 1676.44 3.86372 -0.159321 0
M  V30 18070 H 1678.13 4.02195 -0.547154 0
M  V30 18071 H 1678.89 3.79486 -3.02018 0
M  V30 18072 H 1674.77 4.21456 -1.86803 0
M  V30 18073 H 1678.32 4.5291 -5.30583 0
M  V30 18074 H 1674.21 4.94863 -4.14464 0
M  V30 18075 H 1674.98 5.36984 -6.1773 0
M  V30 18076 N 1677.64 0.747635 1.38738 0
M  V30 18077 C 1678.61 0.124321 2.28863 0
M  V30 18078 C 1679.61 -0.653816 1.46908 0
M  V30 18079 O 1680.8 -0.480963 1.67429 0
M  V30 18080 C 1677.93 -0.832601 3.30576 0
M  V30 18081 H 1679.12 0.918492 2.85489 0
M  V30 18082 H 1676.67 0.514262 1.47598 0
M  V30 18083 H 1677.41 -1.65267 2.79029 0
M  V30 18084 H 1677.19 -0.277109 3.9112 0
M  V30 18085 H 1678.68 -1.2649 3.97982 0
M  V30 18086 N 1679.12 -1.49583 0.496242 0
M  V30 18087 C 1680.37 -2.02738 -0.050037 0
M  V30 18088 C 1680.7 -1.37556 -1.37083 0
M  V30 18089 O 1679.98 -0.50964 -1.87704 0
M  V30 18090 C 1680.26 -3.59501 -0.207575 0
M  V30 18091 C 1680.11 -4.35218 1.13601 0
M  V30 18092 C 1681.43 -4.29715 -0.950443 0
M  V30 18093 H 1678.55 -0.736811 -0.0167105 0
M  V30 18094 H 1681.19 -1.78654 0.646728 0
M  V30 18095 H 1679.34 -3.80152 -0.801033 0
M  V30 18096 H 1681.01 -4.26075 1.76798 0
M  V30 18097 H 1679.26 -3.97964 1.72648 0
M  V30 18098 H 1679.93 -5.43247 0.979142 0
M  V30 18099 H 1682.4 -4.1369 -0.447173 0
M  V30 18100 H 1681.28 -5.39159 -1.02951 0
M  V30 18101 H 1681.54 -3.94627 -1.99304 0
M  V30 18102 N 1680.6 -0.229873 -1.55915 0
M  V30 18103 C 1681.53 0.70927 -2.1795 0
M  V30 18104 C 1682.54 1.15142 -1.15092 0
M  V30 18105 O 1683.73 1.08114 -1.42034 0
M  V30 18106 C 1680.83 1.97359 -2.75504 0
M  V30 18107 C 1680.01 1.68565 -4.03614 0
M  V30 18108 C 1679.07 2.79786 -4.45652 0
M  V30 18109 O 1678.09 2.479 -5.12381 0
M  V30 18110 N 1679.29 4.08921 -4.12024 0
M  V30 18111 H 1682.06 0.178573 -2.99168 0
M  V30 18112 H 1679.62 -0.0491789 -1.61825 0
M  V30 18113 H 1681.61 2.70972 -3.00593 0
M  V30 18114 H 1680.18 2.41454 -1.98542 0
M  V30 18115 H 1679.4 0.785547 -3.86294 0
M  V30 18116 H 1680.69 1.46769 -4.87172 0
M  V30 18117 H 1680.09 4.37667 -3.58419 0
M  V30 18118 H 1678.64 4.79052 -4.41987 0
M  V30 18119 N 1682.08 1.5754 0.0434337 0
M  V30 18120 C 1683.01 2.08648 1.04824 0
M  V30 18121 C 1683.99 0.985894 1.38615 0
M  V30 18122 O 1685.17 1.2603 1.4775 0
M  V30 18123 C 1682.3 2.55399 2.35348 0
M  V30 18124 C 1681.26 3.69592 2.15837 0
M  V30 18125 C 1680.58 4.02497 3.51995 0
M  V30 18126 C 1681.88 4.98575 1.55629 0
M  V30 18127 H 1683.58 2.9285 0.622849 0
M  V30 18128 H 1681.12 1.40879 0.298158 0
M  V30 18129 H 1683.08 2.89771 3.05958 0
M  V30 18130 H 1681.8 1.68262 2.7992 0
M  V30 18131 H 1680.46 3.35546 1.47663 0
M  V30 18132 H 1680.11 3.12448 3.94189 0
M  V30 18133 H 1679.81 4.79406 3.39771 0
M  V30 18134 H 1681.33 4.39391 4.23991 0
M  V30 18135 H 1682.75 5.30996 2.16138 0
M  V30 18136 H 1681.14 5.79998 1.54021 0
M  V30 18137 H 1682.21 4.82098 0.520567 0
M  V30 18138 N 1683.56 -0.31543 1.54411 0
M  V30 18139 C 1684.78 -1.07173 1.76979 0
M  V30 18140 C 1685.2 -1.81432 0.522285 0
M  V30 18141 O 1684.56 -1.75306 -0.507348 0
M  V30 18142 C 1684.61 -2.06352 2.96818 0
M  V30 18143 O 1684.33 -1.35108 4.16746 0
M  V30 18144 C 1685.83 -2.94136 3.31661 0
M  V30 18145 H 1683.05 -0.318455 0.590616 0
M  V30 18146 H 1685.59 -0.359085 2.01323 0
M  V30 18147 H 1683.75 -2.7314 2.74724 0
M  V30 18148 H 1684.16 -2.01593 4.84211 0
M  V30 18149 H 1685.64 -3.59606 4.18793 0
M  V30 18150 H 1686.11 -3.6167 2.49182 0
M  V30 18151 H 1686.72 -2.32899 3.55863 0
M  V30 18152 N 1685.03 -1.46622 -0.577906 0
M  V30 18153 C 1686.28 -1.5188 -1.3333 0
M  V30 18154 C 1686.6 -0.173993 -1.94222 0
M  V30 18155 O 1685.87 0.799972 -1.78822 0
M  V30 18156 H 1684.45 -0.559401 -0.495055 0
M  V30 18157 H 1687.12 -1.82785 -0.676449 0
M  V30 18158 H 1686.21 -2.27411 -2.13754 0
M  V30 18159 N 1686.51 0.822941 -1.34408 0
M  V30 18160 C 1687.44 1.94878 -1.28627 0
M  V30 18161 C 1688.42 1.6931 -0.163727 0
M  V30 18162 O 1689.61 1.90908 -0.356083 0
M  V30 18163 C 1686.74 3.31333 -1.04094 0
M  V30 18164 C 1685.69 3.71341 -2.12814 0
M  V30 18165 C 1685.02 5.05779 -1.73469 0
M  V30 18166 C 1686.32 3.83439 -3.54643 0
M  V30 18167 H 1688.01 1.99972 -2.22827 0
M  V30 18168 H 1685.56 0.960715 -1.07267 0
M  V30 18169 H 1687.51 4.0968 -0.986947 0
M  V30 18170 H 1686.24 3.26539 -0.0633642 0
M  V30 18171 H 1684.89 2.95269 -2.17282 0
M  V30 18172 H 1684.54 4.97471 -0.743727 0
M  V30 18173 H 1684.24 5.33518 -2.46236 0
M  V30 18174 H 1685.77 5.86583 -1.69566 0
M  V30 18175 H 1687.18 4.52057 -3.52587 0
M  V30 18176 H 1685.58 4.22632 -4.2603 0
M  V30 18177 H 1686.65 2.85439 -3.91986 0
M  V30 18178 N 1687.99 1.18137 1.04314 0
M  V30 18179 C 1689.24 0.975203 1.77471 0
M  V30 18180 C 1689.57 -0.495399 1.88085 0
M  V30 18181 O 1688.82 -1.38401 1.38361 0
M  V30 18182 C 1689.12 1.57211 3.20966 0
M  V30 18183 C 1688.79 3.06842 3.30392 0
M  V30 18184 C 1687.45 3.47683 3.32671 0
M  V30 18185 C 1689.8 4.02855 3.30692 0
M  V30 18186 C 1687.13 4.83116 3.3289 0
M  V30 18187 C 1689.48 5.382 3.3245 0
M  V30 18188 C 1688.14 5.78492 3.33021 0
M  V30 18189 H 1687.41 0.356852 0.649413 0
M  V30 18190 H 1690.06 1.47163 1.22536 0
M  V30 18191 H 1688.37 0.997616 3.78886 0
M  V30 18192 H 1690.06 1.38804 3.76211 0
M  V30 18193 H 1686.65 2.74291 3.29336 0
M  V30 18194 H 1690.84 3.72355 3.28124 0
M  V30 18195 H 1686.09 5.13634 3.31647 0
M  V30 18196 H 1690.27 6.12367 3.31631 0
M  V30 18197 H 1687.89 6.83412 3.32944 0
M  V30 18198 N 1689.47 -1.23186 0.98301 0
M  V30 18199 C 1690.4 -2.24044 0.483426 0
M  V30 18200 C 1691.41 -1.57392 -0.416143 0
M  V30 18201 O 1692.6 -1.77141 -0.219861 0
M  V30 18202 C 1689.7 -3.37388 -0.319733 0
M  V30 18203 C 1688.88 -4.33623 0.57359 0
M  V30 18204 C 1687.93 -5.25905 -0.176165 0
M  V30 18205 O 1686.96 -5.67535 0.435099 0
M  V30 18206 N 1688.16 -5.61804 -1.46139 0
M  V30 18207 H 1690.93 -2.67539 1.35066 0
M  V30 18208 H 1688.49 -1.37384 0.856579 0
M  V30 18209 H 1690.48 -3.96103 -0.829719 0
M  V30 18210 H 1689.05 -2.93056 -1.08799 0
M  V30 18211 H 1688.27 -3.73373 1.26437 0
M  V30 18212 H 1689.56 -4.94873 1.18231 0
M  V30 18213 H 1688.96 -5.29936 -1.97949 0
M  V30 18214 H 1687.51 -6.22979 -1.91676 0
M  V30 18215 N 1690.95 -0.754982 -1.38339 0
M  V30 18216 C 1692.19 -0.311762 -2.00086 0
M  V30 18217 C 1692.52 1.10693 -1.59929 0
M  V30 18218 O 1691.78 1.77279 -0.8289 0
M  V30 18219 C 1692.08 -0.383719 -3.55334 0
M  V30 18220 C 1691.74 -1.75826 -4.15206 0
M  V30 18221 C 1690.4 -2.13443 -4.31272 0
M  V30 18222 C 1692.76 -2.65985 -4.4822 0
M  V30 18223 C 1690.08 -3.40689 -4.77649 0
M  V30 18224 C 1692.44 -3.92623 -4.96014 0
M  V30 18225 C 1691.1 -4.30307 -5.10286 0
M  V30 18226 H 1690.37 -0.114082 -0.732166 0
M  V30 18227 H 1693.02 -0.965735 -1.65366 0
M  V30 18228 H 1691.32 0.353817 -3.90199 0
M  V30 18229 H 1693.02 -0.022341 -4.00994 0
M  V30 18230 H 1689.61 -1.45585 -4.03117 0
M  V30 18231 H 1693.79 -2.38188 -4.35408 0
M  V30 18232 H 1689.05 -3.69802 -4.86884 0
M  V30 18233 H 1693.22 -4.62626 -5.20529 0
M  V30 18234 H 1690.85 -5.28968 -5.45982 0
M  V30 18235 N 1692.42 1.49318 -0.504168 0
M  V30 18236 C 1693.65 2.06869 0.0359415 0
M  V30 18237 C 1694.07 1.3641 1.30529 0
M  V30 18238 O 1693.42 0.443416 1.77031 0
M  V30 18239 C 1693.48 3.60333 0.290233 0
M  V30 18240 O 1693.2 4.28141 -0.928801 0
M  V30 18241 C 1694.7 4.34606 0.873628 0
M  V30 18242 H 1691.92 0.670643 -0.0218893 0
M  V30 18243 H 1694.46 1.92058 -0.702432 0
M  V30 18244 H 1692.62 3.74836 0.978594 0
M  V30 18245 H 1693.03 5.19894 -0.693595 0
M  V30 18246 H 1694.5 5.42846 1.00112 0
M  V30 18247 H 1694.98 3.97297 1.87221 0
M  V30 18248 H 1695.59 4.24717 0.222638 0
M  V30 18249 N 1693.9 0.238138 1.5579 0
M  V30 18250 C 1695.15 -0.389608 1.99022 0
M  V30 18251 C 1695.48 -1.58226 1.12597 0
M  V30 18252 O 1694.76 -1.93595 0.187363 0
M  V30 18253 C 1695.04 -0.808025 3.50917 0
M  V30 18254 C 1694.89 0.389417 4.48111 0
M  V30 18255 C 1696.21 -1.6582 4.07666 0
M  V30 18256 H 1693.33 -0.140141 0.723553 0
M  V30 18257 H 1695.97 0.337696 1.86975 0
M  V30 18258 H 1694.12 -1.42772 3.61315 0
M  V30 18259 H 1695.79 1.02777 4.49705 0
M  V30 18260 H 1694.04 1.03404 4.21296 0
M  V30 18261 H 1694.71 0.0534549 5.51974 0
M  V30 18262 H 1697.18 -1.13518 4.00316 0
M  V30 18263 H 1696.06 -1.91984 5.14231 0
M  V30 18264 H 1696.32 -2.62712 3.55577 0
M  V30 18265 N 1695.38 -1.57561 -0.0350783 0
M  V30 18266 C 1696.8 -1.54746 -0.390618 0
M  V30 18267 C 1697 -0.963454 -1.76974 0
M  V30 18268 O 1696.05 -0.581878 -2.45704 0
M  V30 18269 C 1697.37 -2.9922 -0.297984 0
M  V30 18270 C 1698.91 -3.10739 -0.375506 0
M  V30 18271 C 1699.39 -4.56933 -0.312387 0
M  V30 18272 N 1700.88 -4.61709 -0.371364 0
M  V30 18273 C 1701.61 -5.72359 -0.34532 0
M  V30 18274 N 1701.11 -6.92266 -0.271921 0
M  V30 18275 N 1702.9 -5.60713 -0.394605 0
M  V30 18276 H 1695.05 -1.93876 0.867519 0
M  V30 18277 H 1697.32 -0.888974 0.329285 0
M  V30 18278 H 1697.02 -3.45651 0.649499 0
M  V30 18279 H 1696.9 -3.60987 -1.094 0
M  V30 18280 H 1699.28 -2.6426 -1.31342 0
M  V30 18281 H 1699.37 -2.51815 0.449752 0
M  V30 18282 H 1699.01 -5.04079 0.621834 0
M  V30 18283 H 1698.94 -5.13762 -1.15567 0
M  V30 18284 H 1701.43 -3.75436 -0.430848 0
M  V30 18285 H 1701.74 -7.72373 -0.256983 0
M  V30 18286 H 1700.09 -6.94592 -0.238058 0
M  V30 18287 H 1703.28 -4.65933 -0.449896 0
M  V30 18288 H 1703.45 -6.46938 -0.37084 0
M  V30 18289 N 1696.86 0.307236 -1.54576 0
M  V30 18290 C 1697.79 1.38357 -1.88095 0
M  V30 18291 C 1698.77 1.53196 -0.739253 0
M  V30 18292 O 1699.95 1.66807 -0.99444 0
M  V30 18293 C 1697.08 2.74876 -2.12274 0
M  V30 18294 C 1696.04 2.74809 -3.28122 0
M  V30 18295 C 1695.36 4.14557 -3.37707 0
M  V30 18296 C 1696.66 2.37103 -4.65381 0
M  V30 18297 H 1698.36 1.10554 -2.78241 0
M  V30 18298 H 1695.9 0.530383 -1.33877 0
M  V30 18299 H 1697.86 3.50254 -2.34308 0
M  V30 18300 H 1696.58 3.04191 -1.18893 0
M  V30 18301 H 1695.24 2.01887 -3.06002 0
M  V30 18302 H 1694.89 4.41039 -2.41854 0
M  V30 18303 H 1694.59 4.15415 -4.15577 0
M  V30 18304 H 1696.11 4.91724 -3.61994 0
M  V30 18305 H 1697.53 3.02196 -4.87186 0
M  V30 18306 H 1695.92 2.49184 -5.45919 0
M  V30 18307 H 1696.99 1.32235 -4.66521 0
M  V30 18308 N 1698.34 1.46926 0.570122 0
M  V30 18309 C 1699.3 1.58009 1.6603 0
M  V30 18310 C 1700.3 0.456188 1.54193 0
M  V30 18311 O 1701.49 0.720879 1.58584 0
M  V30 18312 C 1698.62 1.51235 3.05517 0
M  V30 18313 H 1699.81 2.55178 1.57558 0
M  V30 18314 H 1697.37 1.34924 0.788998 0
M  V30 18315 H 1698.1 0.553929 3.19534 0
M  V30 18316 H 1697.89 2.3279 3.15518 0
M  V30 18317 H 1699.38 1.62101 3.84854 0
M  V30 18318 N 1699.82 -0.815801 1.34842 0
M  V30 18319 C 1701.04 -1.60915 1.30848 0
M  V30 18320 C 1701.47 -1.87758 -0.113345 0
M  V30 18321 O 1700.82 -1.4582 -1.07732 0
M  V30 18322 C 1700.87 -2.92284 2.11192 0
M  V30 18323 O 1699.98 -3.84685 1.48632 0
M  V30 18324 H 1699.32 -0.48913 0.449052 0
M  V30 18325 H 1701.85 -1.01322 1.7775 0
M  V30 18326 H 1701.86 -3.41789 2.2281 0
M  V30 18327 H 1700.53 -2.72071 3.14563 0
M  V30 18328 H 1699.11 -3.43215 1.458 0
M  V30 18329 N 1701.29 -1.18689 -1.03686 0
M  V30 18330 C 1702.2 -0.932473 -2.15272 0
M  V30 18331 C 1703.22 0.104751 -1.73684 0
M  V30 18332 O 1704.4 -0.0780471 -2.01249 0
M  V30 18333 C 1701.46 -0.465807 -3.43557 0
M  V30 18334 C 1700.52 -1.57146 -3.99504 0
M  V30 18335 C 1699.75 -1.12696 -5.21666 0
M  V30 18336 O 1699.98 0.0127657 -5.70399 0
M  V30 18337 O 1698.91 -1.92627 -5.70244 0
M  V30 18338 H 1702.74 -1.86626 -2.39592 0
M  V30 18339 H 1700.32 -0.969029 -1.13711 0
M  V30 18340 H 1702.2 -0.213819 -4.20857 0
M  V30 18341 H 1700.88 0.43964 -3.20701 0
M  V30 18342 H 1699.79 -1.8775 -3.23575 0
M  V30 18343 H 1701.12 -2.45317 -4.26709 0
M  V30 18344 N 1702.77 1.22662 -0.989529 0
M  V30 18345 C 1704 1.95343 -0.681822 0
M  V30 18346 C 1704.41 1.73139 0.752889 0
M  V30 18347 O 1703.77 1.02838 1.50766 0
M  V30 18348 C 1703.82 3.4813 -0.974049 0
M  V30 18349 O 1703.54 3.69587 -2.35238 0
M  V30 18350 C 1705.04 4.37998 -0.683571 0
M  V30 18351 H 1702.26 0.621675 -0.252509 0
M  V30 18352 H 1704.81 1.55906 -1.32339 0
M  V30 18353 H 1702.96 3.85548 -0.378344 0
M  V30 18354 H 1703.38 4.63812 -2.44906 0
M  V30 18355 H 1704.85 5.43966 -0.938338 0
M  V30 18356 H 1705.33 4.37532 0.382417 0
M  V30 18357 H 1705.93 4.06202 -1.26017 0
M  V30 18358 N 1704.25 0.762308 1.37937 0
M  V30 18359 C 1705.16 0.142724 2.34165 0
M  V30 18360 C 1706.18 -0.690588 1.59709 0
M  V30 18361 O 1707.35 -0.61271 1.91854 0
M  V30 18362 C 1704.42 -0.733325 3.38856 0
M  V30 18363 C 1703.48 0.115359 4.29145 0
M  V30 18364 C 1702.71 -0.718972 5.28835 0
M  V30 18365 O 1702.93 -1.95656 5.35794 0
M  V30 18366 O 1701.87 -0.133162 6.01753 0
M  V30 18367 H 1705.69 0.937662 2.88863 0
M  V30 18368 H 1703.28 0.523325 1.39935 0
M  V30 18369 H 1705.16 -1.23374 4.02935 0
M  V30 18370 H 1703.84 -1.50661 2.86501 0
M  V30 18371 H 1702.74 0.661926 3.68197 0
M  V30 18372 H 1704.08 0.851505 4.84779 0
M  V30 18373 N 1705.73 -1.49049 0.51208 0
M  V30 18374 C 1706.69 -2.27838 -0.249491 0
M  V30 18375 C 1707.69 -1.34321 -0.884004 0
M  V30 18376 O 1708.88 -1.57379 -0.74682 0
M  V30 18377 C 1706.01 -3.12637 -1.35908 0
M  V30 18378 H 1707.21 -2.96625 0.442029 0
M  V30 18379 H 1704.76 -1.53996 0.267406 0
M  V30 18380 H 1705.49 -2.48441 -2.0844 0
M  V30 18381 H 1705.28 -3.81408 -0.909427 0
M  V30 18382 H 1706.77 -3.72117 -1.89523 0
M  V30 18383 N 1707.21 -0.246397 -1.55662 0
M  V30 18384 C 1708.62 0.108465 -1.59231 0
M  V30 18385 C 1708.82 1.56961 -1.26354 0
M  V30 18386 O 1707.88 2.31393 -1.01062 0
M  V30 18387 C 1709.19 -0.240265 -2.99739 0
M  V30 18388 C 1710.74 -0.184523 -3.12456 0
M  V30 18389 C 1711.21 -0.507279 -4.55182 0
M  V30 18390 N 1712.7 -0.457761 -4.60933 0
M  V30 18391 C 1713.44 -0.680664 -5.69346 0
M  V30 18392 N 1712.94 -0.966667 -6.86023 0
M  V30 18393 N 1714.73 -0.611405 -5.58765 0
M  V30 18394 H 1706.88 -1.19928 -1.75303 0
M  V30 18395 H 1709.14 -0.482503 -0.816024 0
M  V30 18396 H 1708.85 -1.25535 -3.28533 0
M  V30 18397 H 1708.72 0.432872 -3.74708 0
M  V30 18398 H 1711.11 0.821232 -2.83443 0
M  V30 18399 H 1711.19 -0.891504 -2.39762 0
M  V30 18400 H 1710.83 -1.51059 -4.84916 0
M  V30 18401 H 1710.76 0.221174 -5.26135 0
M  V30 18402 H 1713.26 -0.245414 -3.77102 0
M  V30 18403 H 1713.57 -1.12419 -7.6458 0
M  V30 18404 H 1711.91 -1.00413 -6.87708 0
M  V30 18405 H 1715.1 -0.388018 -4.66489 0
M  V30 18406 H 1715.28 -0.788519 -6.43185 0
M  V30 18407 N 1708.68 1.57577 0.026722 0
M  V30 18408 C 1709.93 1.89379 0.717062 0
M  V30 18409 C 1710.26 0.843976 1.75235 0
M  V30 18410 O 1709.51 -0.154755 1.95087 0
M  V30 18411 C 1709.81 3.27927 1.42121 0
M  V30 18412 C 1709.48 4.47872 0.521676 0
M  V30 18413 C 1708.14 4.8042 0.273926 0
M  V30 18414 C 1710.49 5.21105 -0.0992493 0
M  V30 18415 C 1707.82 5.83588 -0.603488 0
M  V30 18416 C 1710.17 6.25206 -0.964379 0
M  V30 18417 C 1708.84 6.56227 -1.22157 0
M  V30 18418 H 1708.11 0.692988 0.262391 0
M  V30 18419 H 1710.75 1.91486 -0.0230629 0
M  V30 18420 H 1709.06 3.2182 2.23471 0
M  V30 18421 H 1710.76 3.49783 1.96094 0
M  V30 18422 H 1707.35 4.22425 0.724931 0
M  V30 18423 H 1711.53 4.96237 0.0791882 0
M  V30 18424 H 1706.79 6.05997 -0.811031 0
M  V30 18425 H 1710.96 6.81094 -1.45201 0
M  V30 18426 H 1708.59 7.35991 -1.90317 0
M  V30 18427 N 1710.16 -0.299034 1.54737 0
M  V30 18428 C 1711.39 -1.0529 1.78105 0
M  V30 18429 C 1711.8 -1.80868 0.541499 0
M  V30 18430 O 1711.16 -1.75834 -0.488726 0
M  V30 18431 C 1711.21 -2.03192 2.9899 0
M  V30 18432 O 1710.93 -1.30681 4.18156 0
M  V30 18433 C 1712.43 -2.90602 3.34762 0
M  V30 18434 H 1709.65 -0.312173 0.593961 0
M  V30 18435 H 1712.2 -0.337712 2.01692 0
M  V30 18436 H 1710.35 -2.70211 2.77606 0
M  V30 18437 H 1710.77 -1.96446 4.86322 0
M  V30 18438 H 1712.24 -3.55144 4.22584 0
M  V30 18439 H 1712.72 -3.59006 2.53004 0
M  V30 18440 H 1713.32 -2.29112 3.58313 0
M  V30 18441 N 1711.64 -1.47227 -0.562322 0
M  V30 18442 C 1712.86 -1.5744 -1.35008 0
M  V30 18443 C 1713.29 -0.223223 -1.86771 0
M  V30 18444 O 1712.65 0.800078 -1.62691 0
M  V30 18445 C 1712.7 -2.5992 -2.49948 0
M  V30 18446 O 1711.8 -2.14836 -3.52022 0
M  V30 18447 H 1711.14 -0.529064 -0.401232 0
M  V30 18448 H 1713.67 -1.92966 -0.680084 0
M  V30 18449 H 1713.68 -2.80177 -2.96588 0
M  V30 18450 H 1712.36 -3.58031 -2.11629 0
M  V30 18451 H 1710.93 -2.04655 -3.11722 0
M  V30 18452 N 1713.12 0.808639 -1.35273 0
M  V30 18453 C 1714.36 1.56794 -1.28621 0
M  V30 18454 C 1714.7 1.93697 0.139686 0
M  V30 18455 O 1713.97 1.61185 1.08856 0
M  V30 18456 C 1714.25 2.85794 -2.19075 0
M  V30 18457 C 1714.11 2.5538 -3.70271 0
M  V30 18458 C 1715.43 3.87481 -2.08678 0
M  V30 18459 H 1712.55 0.568873 -0.468564 0
M  V30 18460 H 1715.19 0.930499 -1.65655 0
M  V30 18461 H 1713.34 3.40191 -1.87622 0
M  V30 18462 H 1715.01 2.07182 -4.12157 0
M  V30 18463 H 1713.25 1.88605 -3.90654 0
M  V30 18464 H 1713.92 3.47432 -4.28947 0
M  V30 18465 H 1716.4 3.42478 -2.36323 0
M  V30 18466 H 1715.28 4.75523 -2.7417 0
M  V30 18467 H 1715.54 4.29004 -1.06809 0
M  V30 18468 N 1714.6 1.19237 1.03055 0
M  V30 18469 C 1715.51 0.943876 2.14775 0
M  V30 18470 C 1716.52 -0.0955384 1.73738 0
M  V30 18471 O 1717.7 0.0887187 2.01204 0
M  V30 18472 C 1714.76 0.48402 3.43305 0
M  V30 18473 C 1713.82 1.59262 3.98665 0
M  V30 18474 C 1713.06 1.15461 5.21061 0
M  V30 18475 O 1713.28 0.0174841 5.70397 0
M  V30 18476 O 1712.21 1.95648 5.69215 0
M  V30 18477 H 1716.04 1.87894 2.38599 0
M  V30 18478 H 1713.63 0.975046 1.13195 0
M  V30 18479 H 1715.51 0.236135 4.20738 0
M  V30 18480 H 1714.18 -0.422626 3.20929 0
M  V30 18481 H 1713.09 1.89464 3.22574 0
M  V30 18482 H 1714.42 2.47576 4.25402 0
M  V30 18483 N 1716.07 -1.22136 0.99602 0
M  V30 18484 C 1717.49 -1.43072 0.707285 0
M  V30 18485 C 1717.69 -1.88163 -0.720906 0
M  V30 18486 O 1716.75 -2.03747 -1.49142 0
M  V30 18487 C 1718.06 -2.46963 1.71551 0
M  V30 18488 C 1719.61 -2.60758 1.73131 0
M  V30 18489 C 1720.08 -3.67873 2.72825 0
M  V30 18490 N 1721.57 -3.75334 2.71438 0
M  V30 18491 C 1722.31 -4.57817 3.45241 0
M  V30 18492 N 1721.8 -5.44268 4.28654 0
M  V30 18493 N 1723.6 -4.52157 3.33932 0
M  V30 18494 H 1715.75 -0.911751 1.91836 0
M  V30 18495 H 1718.01 -0.462523 0.827512 0
M  V30 18496 H 1717.72 -2.20784 2.73765 0
M  V30 18497 H 1717.59 -3.45618 1.51089 0
M  V30 18498 H 1719.98 -2.86279 0.716132 0
M  V30 18499 H 1720.06 -1.62367 1.97663 0
M  V30 18500 H 1719.7 -3.43098 3.74494 0
M  V30 18501 H 1719.63 -4.6584 2.45562 0
M  V30 18502 H 1722.12 -3.13566 2.10915 0
M  V30 18503 H 1722.44 -6.04236 4.81786 0
M  V30 18504 H 1720.78 -5.43839 4.3274 0
M  V30 18505 H 1723.97 -3.83645 2.68206 0
M  V30 18506 H 1724.15 -5.16207 3.91707 0
M  V30 18507 N 1717.55 -0.769612 -1.37531 0
M  V30 18508 C 1718.8 -0.329661 -1.98988 0
M  V30 18509 C 1719.11 1.0993 -1.61786 0
M  V30 18510 O 1720.32 1.64053 -2.1633 0
M  V30 18511 C 1718.78 -0.538461 -3.55849 0
M  V30 18512 C 1718.38 -1.97755 -4.01991 0
M  V30 18513 C 1720.13 -0.162026 -4.24191 0
M  V30 18514 C 1718.04 -2.13406 -5.51554 0
M  V30 18515 H 1716.97 -0.119514 -0.744468 0
M  V30 18516 H 1719.62 -0.948436 -1.57089 0
M  V30 18517 H 1718 0.14974 -3.95717 0
M  V30 18518 H 1719.17 -2.70053 -3.73374 0
M  V30 18519 H 1717.49 -2.31038 -3.46425 0
M  V30 18520 H 1720.08 -0.257508 -5.3408 0
M  V30 18521 H 1720.43 0.887442 -4.06731 0
M  V30 18522 H 1720.96 -0.802692 -3.89617 0
M  V30 18523 H 1717.7 -3.16664 -5.73937 0
M  V30 18524 H 1717.22 -1.45589 -5.81862 0
M  V30 18525 H 1718.9 -1.93165 -6.17492 0
M  V30 18526 N 1719.03 1.48775 -0.519977 0
M  V30 18527 C 1719.98 2.31123 0.261738 0
M  V30 18528 C 1720.97 1.40595 0.94496 0
M  V30 18529 O 1722.18 1.57552 0.870484 0
M  V30 18530 H 1718.55 0.744875 0.103272 0
M  V30 18531 H 1720.52 2.94949 -0.452514 0
M  V30 18532 C 1719.27 3.22409 1.30184 0
M  V30 18533 H 1718.6 3.92007 0.785524 0
M  V30 18534 H 1720.04 3.82932 1.82042 0
M  V30 18535 C 1718.5 2.43321 2.33016 0
M  V30 18536 O 1719.03 2.15087 3.39265 0
M  V30 18537 N 1717.23 2.04998 2.05971 0
M  V30 18538 H 1716.78 2.2816 1.19586 0
M  V30 18539 H 1716.74 1.52393 2.74998 0
M  V30 18540 N 1720.51 0.254649 1.55529 0
M  V30 18541 C 1721.46 -0.655705 2.18368 0
M  V30 18542 C 1722.44 -1.13353 1.14192 0
M  V30 18543 O 1723.63 -1.08201 1.40077 0
M  V30 18544 C 1720.76 -1.84883 2.89263 0
M  V30 18545 C 1719.85 -1.38914 4.00704 0
M  V30 18546 N 1720.24 -0.6442 5.01681 0
M  V30 18547 C 1718.54 -1.67379 4.13401 0
M  V30 18548 C 1719.24 -0.405172 5.80287 0
M  V30 18549 N 1718.22 -0.971651 5.34846 0
M  V30 18550 H 1722.02 -0.0784898 2.93795 0
M  V30 18551 H 1719.53 0.0573 1.62299 0
M  V30 18552 H 1721.53 -2.51209 3.32716 0
M  V30 18553 H 1720.19 -2.43019 2.15341 0
M  V30 18554 H 1721.2 -0.293541 5.17067 0
M  V30 18555 H 1717.88 -2.26599 3.50656 0
M  V30 18556 H 1719.27 0.190059 6.71631 0
M  V30 18557 N 1721.99 -1.57589 -0.0183649 0
M  V30 18558 C 1723.22 -1.93743 -0.71745 0
M  V30 18559 C 1723.62 -0.853727 -1.68844 0
M  V30 18560 O 1722.97 0.177648 -1.82839 0
M  V30 18561 C 1723.03 -3.25769 -1.52036 0
M  V30 18562 C 1722.69 -4.51404 -0.71298 0
M  V30 18563 C 1723.69 -5.19899 -0.00859461 0
M  V30 18564 C 1721.38 -4.97887 -0.664364 0
M  V30 18565 C 1723.37 -6.33164 0.733592 0
M  V30 18566 C 1721.06 -6.11046 0.0815603 0
M  V30 18567 C 1722.05 -6.7854 0.779288 0
M  V30 18568 O 1721.74 -7.89532 1.51308 0
M  V30 18569 H 1721.47 -0.643849 -0.205996 0
M  V30 18570 H 1724.03 -2.05387 0.023306 0
M  V30 18571 H 1722.26 -3.10481 -2.30518 0
M  V30 18572 H 1723.95 -3.47169 -2.10305 0
M  V30 18573 H 1724.71 -4.84986 -0.0371173 0
M  V30 18574 H 1720.59 -4.4519 -1.19696 0
M  V30 18575 H 1724.14 -6.8578 1.27873 0
M  V30 18576 H 1720.03 -6.45403 0.111968 0
M  V30 18577 H 1720.8 -8.05949 1.42787 0
M  V30 18578 N 1723.46 0.290824 -1.54893 0
M  V30 18579 C 1724.71 1.02244 -1.73865 0
M  V30 18580 C 1725.03 1.88079 -0.537166 0
M  V30 18581 O 1726.23 2.64584 -0.608908 0
M  V30 18582 C 1724.69 1.86762 -3.07649 0
M  V30 18583 C 1724.3 1.0588 -4.35308 0
M  V30 18584 C 1726.04 2.59461 -3.35976 0
M  V30 18585 C 1723.95 1.89734 -5.60138 0
M  V30 18586 H 1722.88 0.385455 -0.648028 0
M  V30 18587 H 1725.53 0.27893 -1.81368 0
M  V30 18588 H 1723.91 2.6514 -2.94137 0
M  V30 18589 H 1725.08 0.320443 -4.59684 0
M  V30 18590 H 1723.4 0.447169 -4.13992 0
M  V30 18591 H 1726 3.22569 -4.26442 0
M  V30 18592 H 1726.34 3.28823 -2.55306 0
M  V30 18593 H 1726.87 1.88126 -3.50505 0
M  V30 18594 H 1723.61 1.24825 -6.43505 0
M  V30 18595 H 1723.13 2.61215 -5.39932 0
M  V30 18596 H 1724.81 2.47535 -5.97775 0
M  V30 18597 N 1724.94 1.47523 0.554506 0
M  V30 18598 C 1725.89 1.60213 1.66134 0
M  V30 18599 C 1726.86 0.445051 1.60027 0
M  V30 18600 O 1728.04 0.665449 1.7882 0
M  V30 18601 C 1725.18 1.62491 3.04452 0
M  V30 18602 C 1724.3 2.89134 3.20976 0
M  V30 18603 C 1723.43 2.82731 4.49707 0
M  V30 18604 C 1722.47 4.04187 4.59673 0
M  V30 18605 N 1721.61 3.96004 5.79763 0
M  V30 18606 H 1726.45 2.54744 1.54626 0
M  V30 18607 H 1723.99 1.26355 0.753189 0
M  V30 18608 H 1725.94 1.61795 3.84549 0
M  V30 18609 H 1724.57 0.714698 3.14789 0
M  V30 18610 H 1723.63 2.99685 2.34292 0
M  V30 18611 H 1724.94 3.79069 3.24203 0
M  V30 18612 H 1724.09 2.80299 5.38068 0
M  V30 18613 H 1722.83 1.90483 4.48963 0
M  V30 18614 H 1721.84 4.06921 3.69724 0
M  V30 18615 H 1723.06 4.97565 4.62175 0
M  V30 18616 H 1721.01 3.06561 5.79962 0
M  V30 18617 H 1720.92 4.7962 5.8438 0
M  V30 18618 H 1722.19 3.97593 6.70478 0
M  V30 18619 N 1726.42 -0.801453 1.357 0
M  V30 18620 C 1727.65 -1.59001 1.32386 0
M  V30 18621 C 1728.06 -1.88548 -0.0975432 0
M  V30 18622 O 1727.42 -1.49199 -1.05099 0
M  V30 18623 C 1727.47 -2.91822 2.13359 0
M  V30 18624 O 1727.19 -2.63554 3.49958 0
M  V30 18625 C 1728.69 -3.86169 2.17689 0
M  V30 18626 H 1725.91 -0.493557 0.45458 0
M  V30 18627 H 1728.46 -0.995616 1.78627 0
M  V30 18628 H 1726.61 -3.47763 1.70704 0
M  V30 18629 H 1727.03 -3.48397 3.92071 0
M  V30 18630 H 1728.5 -4.76461 2.78727 0
M  V30 18631 H 1728.98 -4.23134 1.17704 0
M  V30 18632 H 1729.58 -3.36163 2.60527 0
M  V30 18633 N 1727.9 -1.19782 -1.02421 0
M  V30 18634 C 1728.83 -0.963553 -2.12692 0
M  V30 18635 C 1729.81 0.104769 -1.69777 0
M  V30 18636 O 1730.99 -0.0512017 -1.94132 0
M  V30 18637 C 1728.12 -0.506525 -3.43586 0
M  V30 18638 C 1727.08 -1.51722 -4.00206 0
M  V30 18639 C 1726.4 -0.917097 -5.26776 0
M  V30 18640 C 1727.7 -2.89879 -4.34474 0
M  V30 18641 H 1729.4 -1.88579 -2.32547 0
M  V30 18642 H 1726.94 -0.908111 -1.11756 0
M  V30 18643 H 1728.9 -0.329907 -4.20107 0
M  V30 18644 H 1727.62 0.451322 -3.23467 0
M  V30 18645 H 1726.28 -1.68106 -3.25785 0
M  V30 18646 H 1725.93 0.0484457 -5.02977 0
M  V30 18647 H 1725.63 -1.59204 -5.65622 0
M  V30 18648 H 1727.15 -0.751379 -6.05959 0
M  V30 18649 H 1728.57 -2.7705 -5.01913 0
M  V30 18650 H 1726.96 -3.54209 -4.84413 0
M  V30 18651 H 1728.03 -3.42179 -3.43571 0
M  V30 18652 N 1729.38 1.21606 -1.00248 0
M  V30 18653 C 1730.6 1.95149 -0.702249 0
M  V30 18654 C 1731.03 1.73429 0.728293 0
M  V30 18655 O 1730.39 1.01953 1.49917 0
M  V30 18656 C 1730.43 3.45705 -1.0257 0
M  V30 18657 O 1729.54 4.12196 -0.129575 0
M  V30 18658 H 1728.88 0.610173 -0.261888 0
M  V30 18659 H 1731.41 1.54435 -1.34205 0
M  V30 18660 H 1731.42 3.96265 -0.97151 0
M  V30 18661 H 1730.09 3.60838 -2.06806 0
M  V30 18662 H 1728.67 3.72126 -0.240074 0
M  V30 18663 N 1730.86 0.776895 1.37121 0
M  V30 18664 C 1731.79 0.180738 2.32799 0
M  V30 18665 C 1732.77 -0.677284 1.56035 0
M  V30 18666 O 1733.95 -0.613687 1.84249 0
M  V30 18667 C 1731.08 -0.695148 3.40272 0
M  V30 18668 C 1730.04 0.0619772 4.27955 0
M  V30 18669 C 1729.36 -0.933688 5.26485 0
M  V30 18670 C 1730.66 1.24396 5.0727 0
M  V30 18671 H 1732.36 0.980039 2.82906 0
M  V30 18672 H 1729.9 0.472722 1.3602 0
M  V30 18673 H 1731.85 -1.12205 4.06187 0
M  V30 18674 H 1730.58 -1.52702 2.88703 0
M  V30 18675 H 1729.24 0.469717 3.63578 0
M  V30 18676 H 1728.89 -1.76025 4.71194 0
M  V30 18677 H 1728.59 -0.431608 5.86013 0
M  V30 18678 H 1730.11 -1.35942 5.95275 0
M  V30 18679 H 1731.52 0.89345 5.66295 0
M  V30 18680 H 1729.92 1.67848 5.76149 0
M  V30 18681 H 1730.99 2.04553 4.39643 0
M  V30 18682 N 1732.33 -1.48497 0.527859 0
M  V30 18683 C 1733.24 -2.3337 -0.239957 0
M  V30 18684 C 1734.26 -1.46353 -0.941101 0
M  V30 18685 O 1735.44 -1.79337 -0.916532 0
M  V30 18686 C 1732.5 -3.22421 -1.27458 0
M  V30 18687 C 1731.56 -4.25309 -0.584017 0
M  V30 18688 C 1730.79 -5.10105 -1.56935 0
M  V30 18689 O 1731.02 -4.96846 -2.80178 0
M  V30 18690 O 1729.95 -5.91578 -1.10991 0
M  V30 18691 H 1733.78 -3.00265 0.455458 0
M  V30 18692 H 1731.36 -1.46582 0.288809 0
M  V30 18693 H 1733.24 -3.7751 -1.87254 0
M  V30 18694 H 1731.92 -2.58189 -1.95244 0
M  V30 18695 H 1730.83 -3.7406 0.0543828 0
M  V30 18696 H 1732.16 -4.92173 0.0518646 0
M  V30 18697 N 1733.81 -0.262893 -1.55392 0
M  V30 18698 C 1734.77 0.616662 -2.20749 0
M  V30 18699 C 1735.77 1.09066 -1.18158 0
M  V30 18700 O 1736.96 0.992797 -1.4314 0
M  V30 18701 C 1734.1 1.84937 -2.86376 0
M  V30 18702 H 1735.29 0.0462013 -2.99864 0
M  V30 18703 H 1732.84 -0.013432 -1.56294 0
M  V30 18704 H 1733.58 2.46066 -2.1124 0
M  V30 18705 H 1733.36 1.51754 -3.61543 0
M  V30 18706 H 1734.85 2.47511 -3.36345 0
M  V30 18707 N 1735.29 1.57597 0.0100073 0
M  V30 18708 C 1736.7 1.78287 0.554143 0
M  V30 18709 C 1737.05 0.896332 1.74529 0
M  V30 18710 O 1736.18 0.0961505 2.16186 0
M  V30 18711 C 1736.77 3.23331 1.01206 0
M  V30 18712 C 1735.33 3.45152 1.50157 0
M  V30 18713 C 1734.48 2.73654 0.448221 0
M  V30 18714 H 1737.43 1.57221 -0.216189 0
M  V30 18715 H 1737.45 3.30893 1.87856 0
M  V30 18716 H 1736.96 3.87829 0.144921 0
M  V30 18717 H 1735.06 2.85854 2.38994 0
M  V30 18718 H 1735.18 4.53813 1.53594 0
M  V30 18719 H 1733.54 2.3798 0.907603 0
M  V30 18720 H 1734.32 3.40846 -0.40978 0
M  V30 18721 N 1736.77 -0.282606 1.55045 0
M  V30 18722 C 1737.73 -1.33228 1.86502 0
M  V30 18723 C 1738.73 -1.42814 0.738977 0
M  V30 18724 O 1739.92 -1.42131 1.0072 0
M  V30 18725 C 1737.05 -2.71488 2.06173 0
M  V30 18726 H 1738.25 -1.06571 2.80326 0
M  V30 18727 H 1735.8 -0.520199 1.47389 0
M  V30 18728 H 1736.53 -3.03339 1.14699 0
M  V30 18729 H 1736.32 -2.65917 2.8815 0
M  V30 18730 H 1737.81 -3.47348 2.31817 0
M  V30 18731 N 1738.25 -1.47815 -0.546675 0
M  V30 18732 C 1739.66 -1.33566 -0.873628 0
M  V30 18733 C 1739.86 -0.334067 -1.98711 0
M  V30 18734 O 1738.92 0.250675 -2.51253 0
M  V30 18735 C 1740.23 -2.73171 -1.25691 0
M  V30 18736 C 1741.78 -2.81535 -1.36774 0
M  V30 18737 C 1742.25 -4.21804 -1.78454 0
M  V30 18738 N 1743.74 -4.24396 -1.85586 0
M  V30 18739 C 1744.48 -5.29854 -2.19186 0
M  V30 18740 N 1743.98 -6.45606 -2.51326 0
M  V30 18741 N 1745.77 -5.17237 -2.2005 0
M  V30 18742 H 1737.92 -2.11564 0.188285 0
M  V30 18743 H 1740.18 -0.947754 0.0215773 0
M  V30 18744 H 1739.89 -3.47946 -0.512485 0
M  V30 18745 H 1739.76 -3.05622 -2.21077 0
M  V30 18746 H 1742.15 -2.07025 -2.10297 0
M  V30 18747 H 1742.23 -2.52724 -0.395504 0
M  V30 18748 H 1741.87 -4.96823 -1.05498 0
M  V30 18749 H 1741.8 -4.48046 -2.76699 0
M  V30 18750 H 1744.3 -3.40895 -1.63092 0
M  V30 18751 H 1744.61 -7.21825 -2.76022 0
M  V30 18752 H 1742.95 -6.48909 -2.48883 0
M  V30 18753 H 1746.14 -4.2583 -1.94387 0
M  V30 18754 H 1746.32 -5.99529 -2.45905 0
M  V30 18755 N 1739.72 0.794246 -1.36123 0
M  V30 18756 C 1740.97 1.54708 -1.29416 0
M  V30 18757 C 1741.29 1.95195 0.125849 0
M  V30 18758 O 1742.49 2.69663 0.315271 0
M  V30 18759 C 1740.95 2.79256 -2.27034 0
M  V30 18760 C 1740.56 2.45957 -3.74445 0
M  V30 18761 C 1742.3 3.57246 -2.29294 0
M  V30 18762 C 1740.21 3.66871 -4.63853 0
M  V30 18763 H 1739.14 0.580743 -0.480888 0
M  V30 18764 H 1741.79 0.871975 -1.61458 0
M  V30 18765 H 1740.17 3.4854 -1.87979 0
M  V30 18766 H 1741.34 1.846 -4.22208 0
M  V30 18767 H 1739.66 1.81187 -3.74913 0
M  V30 18768 H 1742.26 4.47076 -2.93304 0
M  V30 18769 H 1742.6 3.95478 -1.30011 0
M  V30 18770 H 1743.13 2.94936 -2.66941 0
M  V30 18771 H 1739.87 3.33739 -5.6418 0
M  V30 18772 H 1739.39 4.27411 -4.20809 0
M  V30 18773 H 1741.07 4.33957 -4.79886 0
M  V30 18774 N 1741.2 1.20323 1.01785 0
M  V30 18775 C 1742.15 0.950946 2.10299 0
M  V30 18776 C 1743.12 -0.118376 1.65678 0
M  V30 18777 O 1744.3 0.0260849 1.90782 0
M  V30 18778 C 1741.44 0.507765 3.41344 0
M  V30 18779 C 1740.56 1.6451 3.9945 0
M  V30 18780 C 1739.69 1.15235 5.1855 0
M  V30 18781 C 1738.73 2.26285 5.68737 0
M  V30 18782 N 1737.87 1.78237 6.79099 0
M  V30 18783 H 1742.71 1.87999 2.31215 0
M  V30 18784 H 1740.24 0.937108 1.13387 0
M  V30 18785 H 1742.2 0.232143 4.16554 0
M  V30 18786 H 1740.83 -0.384278 3.20505 0
M  V30 18787 H 1739.88 2.03567 3.21348 0
M  V30 18788 H 1741.2 2.48135 4.32702 0
M  V30 18789 H 1740.35 0.832619 6.0096 0
M  V30 18790 H 1739.09 0.285978 4.86861 0
M  V30 18791 H 1738.09 2.59076 4.84933 0
M  V30 18792 H 1739.32 3.13397 6.02461 0
M  V30 18793 H 1737.27 0.939248 6.49241 0
M  V30 18794 H 1737.18 2.55443 7.11537 0
M  V30 18795 H 1738.45 1.4926 7.65076 0
M  V30 18796 N 1742.68 -1.21073 1.00892 0
M  V30 18797 C 1743.63 -2.25613 0.565829 0
M  V30 18798 C 1744.62 -1.64812 -0.391588 0
M  V30 18799 O 1745.83 -1.78078 -0.262352 0
M  V30 18800 H 1742.2 -0.733755 0.164643 0
M  V30 18801 H 1744.17 -2.60321 1.45862 0
M  V30 18802 C 1742.92 -3.47589 -0.087861 0
M  V30 18803 H 1742.25 -3.94647 0.639828 0
M  V30 18804 H 1743.69 -4.22459 -0.361115 0
M  V30 18805 C 1742.14 -3.09609 -1.32829 0
M  V30 18806 O 1742.67 -3.20449 -2.4223 0
M  V30 18807 N 1740.88 -2.64234 -1.2095 0
M  V30 18808 H 1740.43 -2.55613 -0.319301 0
M  V30 18809 H 1740.39 -2.39191 -2.04046 0
M  V30 18810 N 1744.16 -0.784156 -1.36707 0
M  V30 18811 C 1745.11 -0.177044 -2.3012 0
M  V30 18812 C 1746.08 0.6761 -1.51717 0
M  V30 18813 O 1747.26 0.625878 -1.80243 0
M  V30 18814 C 1744.4 0.686337 -3.38206 0
M  V30 18815 C 1743.51 -0.184772 -4.31605 0
M  V30 18816 C 1742.65 0.684485 -5.26772 0
M  V30 18817 C 1741.69 -0.188402 -6.1181 0
M  V30 18818 N 1740.82 0.639537 -6.99181 0
M  V30 18819 H 1745.66 -0.979125 -2.81455 0
M  V30 18820 H 1743.2 -0.494419 -1.38542 0
M  V30 18821 H 1745.16 1.20185 -3.99514 0
M  V30 18822 H 1743.79 1.4539 -2.88204 0
M  V30 18823 H 1742.84 -0.818204 -3.71496 0
M  V30 18824 H 1744.15 -0.857567 -4.91373 0
M  V30 18825 H 1743.31 1.26601 -5.93344 0
M  V30 18826 H 1742.05 1.39092 -4.67445 0
M  V30 18827 H 1741.05 -0.782364 -5.44205 0
M  V30 18828 H 1742.28 -0.89236 -6.73212 0
M  V30 18829 H 1740.22 1.33036 -6.42369 0
M  V30 18830 H 1740.14 0.0243097 -7.55996 0
M  V30 18831 H 1741.41 1.20505 -7.70129 0
M  V30 18832 N 1745.64 1.48215 -0.535727 0
M  V30 18833 C 1746.6 2.28206 0.213212 0
M  V30 18834 C 1747.6 1.3571 0.862522 0
M  V30 18835 O 1748.79 1.58547 0.721688 0
M  V30 18836 C 1745.92 3.1476 1.30917 0
M  V30 18837 H 1747.11 2.95884 -0.489163 0
M  V30 18838 H 1744.67 1.53551 -0.291872 0
M  V30 18839 H 1745.4 2.51726 2.04462 0
M  V30 18840 H 1745.19 3.82806 0.848633 0
M  V30 18841 H 1746.68 3.75085 1.83579 0
M  V30 18842 N 1747.11 0.27113 1.5525 0
M  V30 18843 C 1748.53 -0.2274 1.8531 0
M  V30 18844 C 1748.88 -1.55752 1.19314 0
M  V30 18845 O 1748 -2.11008 0.480046 0
M  V30 18846 C 1748.6 -0.419382 3.36194 0
M  V30 18847 C 1747.16 -0.862149 3.66393 0
M  V30 18848 C 1746.3 0.0468534 2.7726 0
M  V30 18849 H 1749.25 0.493032 1.50847 0
M  V30 18850 H 1749.27 -1.25852 3.59084 0
M  V30 18851 H 1748.79 0.548856 3.84199 0
M  V30 18852 H 1746.89 -1.842 3.23884 0
M  V30 18853 H 1747 -0.702231 4.73926 0
M  V30 18854 H 1745.36 -0.468769 2.50349 0
M  V30 18855 H 1746.15 1.0109 3.28079 0
M  V30 18856 N 1748.59 -1.576 -0.00164943 0
M  V30 18857 C 1749.82 -1.95176 -0.701511 0
M  V30 18858 C 1750.24 -0.873191 -1.66604 0
M  V30 18859 O 1749.6 0.168818 -1.80512 0
M  V30 18860 C 1749.65 -3.31847 -1.41104 0
M  V30 18861 O 1748.75 -3.26034 -2.52539 0
M  V30 18862 H 1748.09 -0.637207 -0.186718 0
M  V30 18863 H 1750.62 -2.04536 0.0510494 0
M  V30 18864 H 1750.63 -3.67374 -1.77483 0
M  V30 18865 H 1749.31 -4.09901 -0.70382 0
M  V30 18866 H 1747.89 -3.0218 -2.18499 0
M  V30 18867 N 1750.07 0.274379 -1.55193 0
M  V30 18868 C 1751.48 0.845522 -1.66457 0
M  V30 18869 C 1751.83 1.87097 -0.590684 0
M  V30 18870 O 1750.96 2.14733 0.268065 0
M  V30 18871 C 1751.55 1.54039 -3.01757 0
M  V30 18872 C 1750.11 2.05958 -3.15053 0
M  V30 18873 C 1749.26 0.901169 -2.62248 0
M  V30 18874 H 1752.21 0.0507599 -1.58619 0
M  V30 18875 H 1752.23 2.40729 -2.94669 0
M  V30 18876 H 1751.74 0.793807 -3.79895 0
M  V30 18877 H 1749.84 2.83582 -2.41686 0
M  V30 18878 H 1749.96 2.27584 -4.21595 0
M  V30 18879 H 1748.32 1.29416 -2.19371 0
M  V30 18880 H 1749.1 0.168116 -3.42888 0
M  V30 18881 N 1751.55 1.48103 0.538828 0
M  V30 18882 C 1752.83 1.46155 1.29992 0
M  V30 18883 C 1753.21 0.16841 2.10427 0
M  V30 18884 O 1752.55 -0.849967 2.12103 0
M  V30 18885 C 1752.76 2.71826 2.18888 0
M  V30 18886 C 1754.11 3.19794 2.79315 0
M  V30 18887 O 1755.14 2.72681 2.2918 0
M  V30 18888 O 1753.99 4.0175 3.70485 0
M  V30 18889 H 1751.09 0.583293 0.586258 0
M  V30 18890 H 1753.63 1.60326 0.556212 0
M  V30 18891 H 1752.41 3.57462 1.59176 0
M  V30 18892 H 1752.03 2.60332 3.00521 0
M  V30 18893 N 1753.03 -0.787016 1.36542 0
M  V30 18894 C 1754.27 -1.54659 1.32107 0
M  V30 18895 C 1754.63 -1.92149 -0.0982377 0
M  V30 18896 O 1753.92 -1.60047 -1.05335 0
M  V30 18897 C 1754.11 -2.83235 2.17974 0
M  V30 18898 C 1753.94 -2.5831 3.68111 0
M  V30 18899 C 1752.71 -2.53209 4.37279 0
M  V30 18900 C 1754.91 -2.27344 4.61323 0
M  V30 18901 N 1752.89 -2.20208 5.73046 0
M  V30 18902 C 1754.26 -2.04351 5.85355 0
M  V30 18903 C 1756.32 -2.13371 4.49864 0
M  V30 18904 C 1755.02 -1.68797 6.99214 0
M  V30 18905 C 1757.05 -1.79216 5.63592 0
M  V30 18906 C 1756.41 -1.57072 6.86664 0
M  V30 18907 H 1752.51 -0.566866 0.53869 0
M  V30 18908 H 1755.09 -0.919533 1.71618 0
M  V30 18909 H 1753.26 -3.43803 1.80704 0
M  V30 18910 H 1755 -3.4899 2.0491 0
M  V30 18911 H 1751.75 -2.68538 3.90108 0
M  V30 18912 H 1752.18 -2.06446 6.44755 0
M  V30 18913 H 1756.82 -2.2918 3.55298 0
M  V30 18914 H 1754.54 -1.51726 7.93728 0
M  V30 18915 H 1758.12 -1.69084 5.56688 0
M  V30 18916 H 1757 -1.31032 7.73175 0
M  V30 18917 N 1754.5 -1.20861 -1.01145 0
M  V30 18918 C 1755.92 -1.02156 -1.56272 0
M  V30 18919 C 1756.27 0.420552 -1.9164 0
M  V30 18920 O 1755.39 1.30277 -1.72792 0
M  V30 18921 C 1755.99 -1.84812 -2.83954 0
M  V30 18922 C 1754.55 -1.70458 -3.35591 0
M  V30 18923 C 1753.69 -1.82425 -2.08846 0
M  V30 18924 H 1756.64 -1.34978 -0.834669 0
M  V30 18925 H 1756.66 -1.35455 -3.55573 0
M  V30 18926 H 1756.18 -2.89765 -2.58181 0
M  V30 18927 H 1754.28 -0.681631 -3.66312 0
M  V30 18928 H 1754.39 -2.52041 -4.07446 0
M  V30 18929 H 1752.75 -1.25665 -2.21541 0
M  V30 18930 H 1753.54 -2.88872 -1.85493 0
M  V30 18931 N 1755.98 1.20536 -1.01532 0
M  V30 18932 C 1756.91 2.22683 -0.542658 0
M  V30 18933 C 1757.93 1.5844 0.374267 0
M  V30 18934 O 1759.12 1.77661 0.172818 0
M  V30 18935 C 1756.22 3.38117 0.230168 0
M  V30 18936 C 1755.39 4.3195 -0.688356 0
M  V30 18937 C 1754.45 5.26187 0.0366686 0
M  V30 18938 O 1753.47 5.66182 -0.585418 0
M  V30 18939 N 1754.68 5.65481 1.31193 0
M  V30 18940 H 1757.44 2.63864 -1.42111 0
M  V30 18941 H 1755 1.35065 -0.892703 0
M  V30 18942 H 1756.99 3.98164 0.724408 0
M  V30 18943 H 1755.56 2.95837 1.00991 0
M  V30 18944 H 1754.78 3.69889 -1.36292 0
M  V30 18945 H 1756.07 4.91564 -1.3131 0
M  V30 18946 H 1755.47 5.34998 1.83829 0
M  V30 18947 H 1754.03 6.27842 1.75092 0
M  V30 18948 N 1757.46 0.791395 1.36289 0
M  V30 18949 C 1758.37 0.192362 2.3381 0
M  V30 18950 C 1759.39 -0.656556 1.61138 0
M  V30 18951 O 1760.56 -0.571877 1.9311 0
M  V30 18952 C 1757.63 -0.661283 3.40335 0
M  V30 18953 C 1756.69 0.206361 4.28804 0
M  V30 18954 C 1755.92 -0.606636 5.30241 0
M  V30 18955 O 1756.14 -1.84247 5.39823 0
M  V30 18956 O 1755.08 -0.00549116 6.019 0
M  V30 18957 H 1758.9 0.998723 2.86809 0
M  V30 18958 H 1756.49 0.552889 1.38793 0
M  V30 18959 H 1758.37 -1.148 4.05461 0
M  V30 18960 H 1757.05 -1.4455 2.89632 0
M  V30 18961 H 1755.95 0.739877 3.66711 0
M  V30 18962 H 1757.29 0.954142 4.82863 0
M  V30 18963 N 1758.94 -1.47929 0.54358 0
M  V30 18964 C 1760.19 -2.02095 0.0144379 0
M  V30 18965 C 1760.51 -1.42166 -1.33469 0
M  V30 18966 O 1759.78 -0.591899 -1.86744 0
M  V30 18967 H 1758.36 -0.746996 0.00234858 0
M  V30 18968 H 1761.02 -1.81488 0.710498 0
M  V30 18969 H 1760.12 -3.11987 -0.0838074 0
M  V30 18970 N 1760.42 -0.27936 -1.55104 0
M  V30 18971 C 1761.33 0.616249 -2.26361 0
M  V30 18972 C 1762.34 1.16656 -1.29102 0
M  V30 18973 O 1763.52 1.19596 -1.62046 0
M  V30 18974 C 1760.58 1.78191 -2.97403 0
M  V30 18975 C 1759.65 1.26785 -4.10151 0
M  V30 18976 C 1758.88 2.37795 -4.77796 0
M  V30 18977 O 1759.1 3.57242 -4.44673 0
M  V30 18978 O 1758.04 2.05711 -5.65656 0
M  V30 18979 H 1761.86 0.0388715 -3.03675 0
M  V30 18980 H 1759.45 -0.0466058 -1.49327 0
M  V30 18981 H 1761.33 2.4615 -3.42036 0
M  V30 18982 H 1760 2.3463 -2.23003 0
M  V30 18983 H 1758.91 0.554608 -3.69966 0
M  V30 18984 H 1760.24 0.749157 -4.86465 0
M  V30 18985 N 1761.9 1.57599 -0.0067085 0
M  V30 18986 C 1763.14 1.9114 0.677733 0
M  V30 18987 C 1763.47 0.881328 1.7305 0
M  V30 18988 O 1762.75 -0.099049 1.94248 0
M  V30 18989 C 1763.03 3.35241 1.31474 0
M  V30 18990 C 1762.89 4.4897 0.273055 0
M  V30 18991 C 1764.2 3.78886 2.23905 0
M  V30 18992 H 1761.32 0.695119 0.244907 0
M  V30 18993 H 1763.97 1.89907 -0.059378 0
M  V30 18994 H 1762.12 3.36423 1.94299 0
M  V30 18995 H 1763.79 4.59924 -0.356031 0
M  V30 18996 H 1762.03 4.31915 -0.403961 0
M  V30 18997 H 1762.7 5.46772 0.757941 0
M  V30 18998 H 1765.18 3.79299 1.7109 0
M  V30 18999 H 1764.05 4.80451 2.65439 0
M  V30 19000 H 1764.31 3.13129 3.12094 0
M  V30 19001 N 1763.37 -0.266145 1.55336 0
M  V30 19002 C 1764.6 -1.01489 1.80299 0
M  V30 19003 C 1765.02 -1.79679 0.579742 0
M  V30 19004 O 1764.37 -1.76831 -0.451319 0
M  V30 19005 C 1764.42 -1.96805 3.03233 0
M  V30 19006 O 1764.15 -1.21782 4.20834 0
M  V30 19007 C 1765.65 -2.83436 3.40851 0
M  V30 19008 H 1762.87 -0.299504 0.600449 0
M  V30 19009 H 1765.41 -0.294854 2.02363 0
M  V30 19010 H 1763.57 -2.64262 2.83275 0
M  V30 19011 H 1763.98 -1.86086 4.9038 0
M  V30 19012 H 1765.45 -3.461 4.30022 0
M  V30 19013 H 1765.93 -3.53559 2.60562 0
M  V30 19014 H 1766.54 -2.2146 3.63092 0
M  V30 19015 N 1764.85 -1.48386 -0.530967 0
M  V30 19016 C 1766.1 -1.56354 -1.28685 0
M  V30 19017 C 1766.43 -0.237022 -1.9305 0
M  V30 19018 O 1765.68 0.772595 -1.79804 0
M  V30 19019 C 1765.98 -2.64979 -2.39835 0
M  V30 19020 C 1765.65 -4.07446 -1.93129 0
M  V30 19021 C 1764.31 -4.46222 -1.80108 0
M  V30 19022 C 1766.66 -4.96732 -1.5782 0
M  V30 19023 C 1763.99 -5.7209 -1.30113 0
M  V30 19024 C 1766.34 -6.23088 -1.09288 0
M  V30 19025 C 1765 -6.60722 -0.948835 0
M  V30 19026 H 1764.27 -0.572139 -0.470891 0
M  V30 19027 H 1766.92 -1.82099 -0.592626 0
M  V30 19028 H 1765.23 -2.3309 -3.14923 0
M  V30 19029 H 1766.92 -2.68359 -2.97967 0
M  V30 19030 H 1763.51 -3.76822 -2.04213 0
M  V30 19031 H 1767.7 -4.67452 -1.6674 0
M  V30 19032 H 1762.95 -5.99974 -1.17647 0
M  V30 19033 H 1767.13 -6.91669 -0.810376 0
M  V30 19034 H 1764.75 -7.5814 -0.559235 0
M  V30 19035 N 1766.33 0.779763 -1.36958 0
M  V30 19036 C 1767.24 1.92394 -1.34245 0
M  V30 19037 C 1768.26 1.72292 -0.243187 0
M  V30 19038 O 1769.43 1.95665 -0.477211 0
M  V30 19039 C 1766.5 3.27402 -1.14057 0
M  V30 19040 C 1765.56 3.60213 -2.33548 0
M  V30 19041 C 1764.79 4.88779 -2.14314 0
M  V30 19042 O 1765.01 5.59231 -1.12327 0
M  V30 19043 O 1763.95 5.20469 -3.02316 0
M  V30 19044 H 1767.77 1.97633 -2.30596 0
M  V30 19045 H 1765.36 0.921386 -1.17605 0
M  V30 19046 H 1767.24 4.08172 -1.04755 0
M  V30 19047 H 1765.92 3.23033 -0.207744 0
M  V30 19048 H 1764.82 2.7971 -2.48421 0
M  V30 19049 H 1766.16 3.69317 -3.25371 0
M  V30 19050 N 1767.81 1.21396 1.00503 0
M  V30 19051 C 1768.76 0.97023 2.11398 0
M  V30 19052 C 1769.75 -0.0825019 1.69199 0
M  V30 19053 O 1770.96 0.0688841 1.79868 0
M  V30 19054 H 1767.33 0.296494 0.691083 0
M  V30 19055 H 1769.3 1.91155 2.29134 0
M  V30 19056 C 1768.05 0.551472 3.43299 0
M  V30 19057 H 1767.37 1.35316 3.76204 0
M  V30 19058 H 1768.81 0.420249 4.21912 0
M  V30 19059 C 1767.27 -0.737588 3.28727 0
M  V30 19060 O 1767.8 -1.79313 3.59458 0
M  V30 19061 N 1766.01 -0.704084 2.81942 0
M  V30 19062 H 1765.56 0.155183 2.57132 0
M  V30 19063 H 1765.51 -1.56689 2.72573 0
M  V30 19064 N 1769.29 -1.19996 1.0217 0
M  V30 19065 C 1770.25 -2.21179 0.601036 0
M  V30 19066 C 1771.25 -1.57345 -0.331531 0
M  V30 19067 O 1772.44 -1.73789 -0.119521 0
M  V30 19068 C 1769.57 -3.40683 -0.121557 0
M  V30 19069 H 1770.76 -2.5991 1.49622 0
M  V30 19070 H 1768.32 -1.33548 0.812071 0
M  V30 19071 H 1769.05 -3.07461 -1.03142 0
M  V30 19072 H 1768.84 -3.88245 0.548448 0
M  V30 19073 H 1770.33 -4.1565 -0.403046 0
M  V30 19074 N 1770.76 -0.798611 -1.35867 0
M  V30 19075 C 1771.67 -0.204758 -2.33705 0
M  V30 19076 C 1772.69 0.648001 -1.61484 0
M  V30 19077 O 1773.87 0.561628 -1.93411 0
M  V30 19078 C 1770.93 0.643225 -3.40681 0
M  V30 19079 C 1769.99 -0.229099 -4.28688 0
M  V30 19080 C 1769.22 0.578508 -5.30555 0
M  V30 19081 O 1769.45 1.81382 -5.40793 0
M  V30 19082 O 1768.38 -0.0264291 -6.01894 0
M  V30 19083 H 1772.21 -1.01392 -2.86275 0
M  V30 19084 H 1769.79 -0.560242 -1.38498 0
M  V30 19085 H 1771.67 1.12648 -4.06065 0
M  V30 19086 H 1770.35 1.43012 -2.90395 0
M  V30 19087 H 1769.26 -0.759314 -3.66313 0
M  V30 19088 H 1770.59 -0.979736 -4.82351 0
M  V30 19089 N 1772.24 1.47639 -0.551417 0
M  V30 19090 C 1773.17 2.26857 0.247231 0
M  V30 19091 C 1774.15 1.33688 0.925546 0
M  V30 19092 O 1775.34 1.63061 0.945688 0
M  V30 19093 C 1772.46 3.10554 1.35181 0
M  V30 19094 C 1771.51 4.19257 0.782657 0
M  V30 19095 S 1772.34 5.34246 -0.366249 0
M  V30 19096 C 1773.5 6.21507 0.740284 0
M  V30 19097 H 1773.73 2.94246 -0.425008 0
M  V30 19098 H 1771.26 1.50663 -0.33762 0
M  V30 19099 H 1773.22 3.59348 1.98442 0
M  V30 19100 H 1771.88 2.42537 1.99586 0
M  V30 19101 H 1771.08 4.77527 1.61196 0
M  V30 19102 H 1770.68 3.73315 0.226329 0
M  V30 19103 H 1772.97 6.57505 1.6338 0
M  V30 19104 H 1773.91 7.07831 0.195076 0
M  V30 19105 H 1774.32 5.55017 1.03035 0
M  V30 19106 N 1773.72 0.287581 1.54954 0
M  V30 19107 C 1775.14 -0.0662092 1.59463 0
M  V30 19108 C 1775.34 -1.53556 1.30471 0
M  V30 19109 O 1774.39 -2.28632 1.07161 0
M  V30 19110 C 1775.71 0.319651 2.98996 0
M  V30 19111 C 1777.25 0.2673 3.11857 0
M  V30 19112 C 1777.73 0.627784 4.53677 0
M  V30 19113 N 1779.22 0.579808 4.59557 0
M  V30 19114 C 1779.95 0.831377 5.67341 0
M  V30 19115 N 1779.45 1.14821 6.83219 0
M  V30 19116 N 1781.24 0.759337 5.56947 0
M  V30 19117 H 1773.39 1.24534 1.72062 0
M  V30 19118 H 1775.66 0.503969 0.802944 0
M  V30 19119 H 1775.36 1.34201 3.25089 0
M  V30 19120 H 1775.24 -0.333373 3.75724 0
M  V30 19121 H 1777.62 -0.745794 2.8552 0
M  V30 19122 H 1777.71 0.954759 2.37314 0
M  V30 19123 H 1777.35 1.63862 4.80741 0
M  V30 19124 H 1777.28 -0.0816007 5.26537 0
M  V30 19125 H 1779.77 0.34531 3.76319 0
M  V30 19126 H 1780.08 1.32651 7.6133 0
M  V30 19127 H 1778.43 1.18612 6.84804 0
M  V30 19128 H 1781.62 0.511563 4.65296 0
M  V30 19129 H 1781.79 0.95877 6.40868 0
M  V30 19130 N 1775.2 -1.57593 0.0150662 0
M  V30 19131 C 1776.43 -1.95221 -0.676193 0
M  V30 19132 C 1776.84 -0.889349 -1.66995 0
M  V30 19133 O 1776.18 0.138825 -1.83175 0
M  V30 19134 C 1776.24 -3.28921 -1.45092 0
M  V30 19135 C 1775.91 -4.52815 -0.61707 0
M  V30 19136 C 1776.9 -5.19801 0.101686 0
M  V30 19137 C 1774.59 -4.99184 -0.558606 0
M  V30 19138 C 1776.58 -6.31466 0.86773 0
M  V30 19139 C 1774.27 -6.10735 0.211154 0
M  V30 19140 C 1775.27 -6.76734 0.923041 0
M  V30 19141 O 1774.95 -7.86145 1.68021 0
M  V30 19142 H 1774.69 -0.648074 -0.192293 0
M  V30 19143 H 1777.24 -2.05291 0.0668663 0
M  V30 19144 H 1775.47 -3.15301 -2.2388 0
M  V30 19145 H 1777.16 -3.51552 -2.02894 0
M  V30 19146 H 1777.93 -4.84955 0.0657637 0
M  V30 19147 H 1773.8 -4.47629 -1.10226 0
M  V30 19148 H 1777.35 -6.82913 1.42391 0
M  V30 19149 H 1773.25 -6.4502 0.248843 0
M  V30 19150 H 1774.01 -8.02739 1.5985 0
M  V30 19151 N 1776.68 0.257904 -1.55475 0
M  V30 19152 C 1778.09 0.605871 -1.47653 0
M  V30 19153 C 1778.29 1.88837 -0.703063 0
M  V30 19154 O 1777.35 2.51469 -0.227981 0
M  V30 19155 C 1778.66 0.718813 -2.91982 0
M  V30 19156 C 1780.21 0.81187 -3.02287 0
M  V30 19157 C 1780.68 0.956465 -4.47901 0
M  V30 19158 N 1782.18 1.02161 -4.51793 0
M  V30 19159 C 1782.91 1.15256 -5.61697 0
M  V30 19160 N 1782.41 1.24975 -6.81435 0
M  V30 19161 N 1784.2 1.18485 -5.4947 0
M  V30 19162 H 1776.35 -0.584154 -2.04209 0
M  V30 19163 H 1778.61 -0.200045 -0.926653 0
M  V30 19164 H 1778.32 -0.15335 -3.51366 0
M  V30 19165 H 1778.19 1.59429 -3.41851 0
M  V30 19166 H 1780.58 1.67449 -2.42991 0
M  V30 19167 H 1780.66 -0.0885307 -2.55647 0
M  V30 19168 H 1780.31 0.0984438 -5.07805 0
M  V30 19169 H 1780.24 1.87174 -4.92213 0
M  V30 19170 H 1782.73 0.958295 -3.65548 0
M  V30 19171 H 1783.04 1.34843 -7.60945 0
M  V30 19172 H 1781.38 1.21952 -6.84217 0
M  V30 19173 H 1784.58 1.10534 -4.54863 0
M  V30 19174 H 1784.75 1.28346 -6.35162 0
M  V30 19175 N 1778.15 1.48666 0.52309 0
M  V30 19176 C 1779.06 1.66396 1.65377 0
M  V30 19177 C 1780.08 0.546469 1.65196 0
M  V30 19178 O 1781.26 0.818413 1.84022 0
M  V30 19179 C 1778.32 1.70602 3.01821 0
M  V30 19180 C 1777.38 2.94028 3.12803 0
M  V30 19181 C 1776.62 2.98024 4.42739 0
M  V30 19182 O 1776.84 2.10232 5.30244 0
M  V30 19183 O 1775.77 3.90266 4.58231 0
M  V30 19184 H 1779.6 2.62138 1.53354 0
M  V30 19185 H 1777.18 1.32148 0.696948 0
M  V30 19186 H 1779.07 1.75849 3.82956 0
M  V30 19187 H 1777.74 0.780346 3.14153 0
M  V30 19188 H 1776.65 2.9431 2.30938 0
M  V30 19189 H 1777.98 3.86003 3.0539 0
M  V30 19190 N 1779.63 -0.772489 1.37369 0
M  V30 19191 C 1780.58 -1.90713 1.33158 0
M  V30 19192 C 1781.57 -1.67959 0.220482 0
M  V30 19193 O 1782.78 -1.75758 0.388465 0
M  V30 19194 H 1779.16 -0.627149 0.414956 0
M  V30 19195 H 1781.13 -1.91382 2.28944 0
M  V30 19196 C 1779.88 -3.27966 1.1547 0
M  V30 19197 H 1779.2 -3.46052 2.00221 0
M  V30 19198 H 1780.64 -4.0766 1.16574 0
M  V30 19199 C 1779.1 -3.3661 -0.139688 0
M  V30 19200 O 1779.63 -3.85668 -1.12353 0
M  V30 19201 N 1777.83 -2.89977 -0.190134 0
M  V30 19202 H 1777.38 -2.50246 0.611134 0
M  V30 19203 H 1777.34 -2.96142 -1.05582 0
M  V30 19204 N 1781.11 -1.21927 -0.998575 0
M  V30 19205 C 1782.04 -1.00845 -2.106 0
M  V30 19206 C 1783.02 0.068733 -1.69961 0
M  V30 19207 O 1784.21 -0.0923686 -1.9398 0
M  V30 19208 C 1781.34 -0.57929 -3.42435 0
M  V30 19209 C 1780.29 -1.60177 -3.96897 0
M  V30 19210 C 1779.62 -1.02863 -5.24713 0
M  V30 19211 C 1780.92 -2.9903 -4.28227 0
M  V30 19212 H 1782.61 -1.93469 -2.28495 0
M  V30 19213 H 1780.16 -0.931612 -1.09804 0
M  V30 19214 H 1782.11 -0.418944 -4.19312 0
M  V30 19215 H 1780.83 0.382608 -3.24351 0
M  V30 19216 H 1779.49 -1.74979 -3.22146 0
M  V30 19217 H 1779.14 -0.058254 -5.02966 0
M  V30 19218 H 1778.84 -1.71166 -5.62117 0
M  V30 19219 H 1780.36 -0.879743 -6.04229 0
M  V30 19220 H 1781.78 -2.87634 -4.95923 0
M  V30 19221 H 1780.18 -3.64404 -4.76791 0
M  V30 19222 H 1781.25 -3.4939 -3.36236 0
M  V30 19223 N 1782.59 1.19452 -1.02805 0
M  V30 19224 C 1784 1.70804 -0.753845 0
M  V30 19225 C 1784.35 1.8225 0.726584 0
M  V30 19226 O 1783.48 1.49307 1.56641 0
M  V30 19227 C 1784.07 3.10227 -1.36178 0
M  V30 19228 C 1782.63 3.58842 -1.13618 0
M  V30 19229 C 1781.78 2.3573 -1.46036 0
M  V30 19230 H 1784.73 1.04305 -1.19608 0
M  V30 19231 H 1784.75 3.72867 -0.758315 0
M  V30 19232 H 1784.26 3.01864 -2.43925 0
M  V30 19233 H 1782.36 3.72521 -0.0768914 0
M  V30 19234 H 1782.47 4.43008 -1.82431 0
M  V30 19235 H 1780.84 2.39027 -0.879669 0
M  V30 19236 H 1781.62 2.29998 -2.54864 0
M  V30 19237 N 1784.07 0.805805 1.35442 0
M  V30 19238 C 1785 0.230077 2.32364 0
M  V30 19239 C 1785.98 -0.644034 1.57436 0
M  V30 19240 O 1787.16 -0.574467 1.85509 0
M  V30 19241 C 1784.29 -0.622814 3.4167 0
M  V30 19242 C 1783.25 0.152739 4.27727 0
M  V30 19243 C 1782.57 -0.821803 5.28347 0
M  V30 19244 C 1783.87 1.35128 5.04517 0
M  V30 19245 H 1785.57 1.03983 2.80763 0
M  V30 19246 H 1783.11 0.501467 1.34986 0
M  V30 19247 H 1785.07 -1.03564 4.08476 0
M  V30 19248 H 1783.79 -1.46544 2.91877 0
M  V30 19249 H 1782.45 0.546732 3.625 0
M  V30 19250 H 1782.1 -1.65991 4.74822 0
M  V30 19251 H 1781.8 -0.307209 5.86796 0
M  V30 19252 H 1783.32 -1.23285 5.98024 0
M  V30 19253 H 1784.73 1.01337 5.64273 0
M  V30 19254 H 1783.13 1.80031 5.72459 0
M  V30 19255 H 1784.2 2.13833 4.35205 0
M  V30 19256 N 1785.54 -1.47344 0.559239 0
M  V30 19257 C 1786.79 -2.02768 0.0359962 0
M  V30 19258 C 1787.12 -1.43247 -1.31126 0
M  V30 19259 O 1786.4 -0.588793 -1.85374 0
M  V30 19260 C 1786.68 -3.60058 -0.0549111 0
M  V30 19261 C 1786.53 -4.30008 1.31958 0
M  V30 19262 C 1787.85 -4.33359 -0.767331 0
M  V30 19263 H 1784.97 -0.736856 0.0145552 0
M  V30 19264 H 1787.61 -1.75751 0.72192 0
M  V30 19265 H 1785.76 -3.83208 -0.639076 0
M  V30 19266 H 1787.44 -4.18193 1.94711 0
M  V30 19267 H 1785.68 -3.90283 1.89372 0
M  V30 19268 H 1786.35 -5.38605 1.20867 0
M  V30 19269 H 1788.83 -4.15215 -0.27131 0
M  V30 19270 H 1787.7 -5.4304 -0.799905 0
M  V30 19271 H 1787.96 -4.02725 -1.82387 0
M  V30 19272 N 1787.02 -0.295795 -1.54799 0
M  V30 19273 C 1787.95 0.575863 -2.26288 0
M  V30 19274 C 1788.93 1.14217 -1.26049 0
M  V30 19275 O 1790.12 1.17248 -1.54812 0
M  V30 19276 C 1787.25 1.7503 -2.9997 0
M  V30 19277 C 1786.2 1.31459 -4.07311 0
M  V30 19278 C 1785.53 2.57377 -4.6868 0
M  V30 19279 C 1786.83 0.449629 -5.20361 0
M  V30 19280 H 1788.52 -0.0203797 -2.99393 0
M  V30 19281 H 1786.07 -0.0112418 -1.43996 0
M  V30 19282 H 1788.02 2.36615 -3.487 0
M  V30 19283 H 1786.75 2.3727 -2.24434 0
M  V30 19284 H 1785.4 0.721829 -3.59423 0
M  V30 19285 H 1785.05 3.1792 -3.89789 0
M  V30 19286 H 1784.75 2.28927 -5.41171 0
M  V30 19287 H 1786.28 3.19774 -5.2017 0
M  V30 19288 H 1787.69 0.971014 -5.65017 0
M  V30 19289 H 1786.09 0.259121 -5.9954 0
M  V30 19290 H 1787.16 -0.526564 -4.82032 0
M  V30 19291 N 1788.5 1.57583 -0.0234236 0
M  V30 19292 C 1789.45 2.09872 0.960327 0
M  V30 19293 C 1790.42 0.999466 1.32665 0
M  V30 19294 O 1791.6 1.27332 1.42095 0
M  V30 19295 C 1788.74 2.62578 2.23935 0
M  V30 19296 C 1787.86 3.86491 1.92999 0
M  V30 19297 C 1786.99 4.27611 3.15154 0
M  V30 19298 C 1786.03 5.44298 2.80011 0
M  V30 19299 N 1785.17 5.80601 3.94775 0
M  V30 19300 H 1790.01 2.93647 0.507502 0
M  V30 19301 H 1787.54 1.45147 0.238911 0
M  V30 19302 H 1789.5 2.91223 2.98739 0
M  V30 19303 H 1788.13 1.81643 2.66844 0
M  V30 19304 H 1787.18 3.6461 1.08462 0
M  V30 19305 H 1788.5 4.71377 1.63112 0
M  V30 19306 H 1787.65 4.57663 3.98284 0
M  V30 19307 H 1786.39 3.41481 3.48198 0
M  V30 19308 H 1785.39 5.13946 1.95293 0
M  V30 19309 H 1786.62 6.32122 2.4819 0
M  V30 19310 H 1784.57 4.97427 4.27671 0
M  V30 19311 H 1784.48 6.60113 3.68492 0
M  V30 19312 H 1785.75 6.15255 4.78624 0
M  V30 19313 N 1789.98 -0.249655 1.5561 0
M  V30 19314 C 1790.93 -1.30906 1.90085 0
M  V30 19315 C 1791.9 -1.4796 0.754784 0
M  V30 19316 O 1793.08 -1.61988 1.00819 0
M  V30 19317 C 1790.22 -2.66 2.19859 0
M  V30 19318 C 1789.33 -2.56976 3.47257 0
M  V30 19319 C 1788.47 -3.84404 3.66615 0
M  V30 19320 C 1787.51 -3.69986 4.87623 0
M  V30 19321 N 1786.65 -4.89301 5.03517 0
M  V30 19322 H 1791.49 -1.00805 2.80432 0
M  V30 19323 H 1789.02 -0.486509 1.38822 0
M  V30 19324 H 1790.98 -3.44632 2.35126 0
M  V30 19325 H 1789.61 -2.94254 1.32719 0
M  V30 19326 H 1788.66 -1.69927 3.40337 0
M  V30 19327 H 1789.97 -2.42231 4.36034 0
M  V30 19328 H 1789.13 -4.7148 3.81826 0
M  V30 19329 H 1787.87 -4.02043 2.76066 0
M  V30 19330 H 1786.87 -2.81294 4.72391 0
M  V30 19331 H 1788.1 -3.53845 5.7963 0
M  V30 19332 H 1786.04 -5.07306 4.15905 0
M  V30 19333 H 1785.96 -4.77176 5.86378 0
M  V30 19334 H 1787.23 -5.77883 5.23137 0
M  V30 19335 N 1791.46 -1.48941 -0.515198 0
M  V30 19336 C 1792.7 -1.57943 -1.27207 0
M  V30 19337 C 1793.04 -0.259011 -1.92465 0
M  V30 19338 O 1792.31 0.736277 -1.80026 0
M  V30 19339 C 1792.59 -2.72846 -2.35005 0
M  V30 19340 C 1792.45 -4.14639 -1.74341 0
M  V30 19341 C 1793.77 -2.83444 -3.36672 0
M  V30 19342 H 1790.89 -0.574909 -0.461138 0
M  V30 19343 H 1793.53 -1.81172 -0.572413 0
M  V30 19344 H 1791.68 -2.5317 -2.94681 0
M  V30 19345 H 1793.35 -4.45793 -1.18602 0
M  V30 19346 H 1791.59 -4.20948 -1.0481 0
M  V30 19347 H 1792.26 -4.90883 -2.52463 0
M  V30 19348 H 1794.74 -3.01311 -2.86969 0
M  V30 19349 H 1793.62 -3.65542 -4.09475 0
M  V30 19350 H 1793.88 -1.92208 -3.98131 0
M  V30 19351 N 1792.94 0.765193 -1.37777 0
M  V30 19352 C 1794.16 1.55948 -1.3673 0
M  V30 19353 C 1794.59 1.8805 0.0435817 0
M  V30 19354 O 1793.94 1.49718 1.02246 0
M  V30 19355 C 1793.99 2.84245 -2.21895 0
M  V30 19356 O 1793.1 3.78903 -1.62807 0
M  V30 19357 H 1792.44 0.472127 -0.466897 0
M  V30 19358 H 1794.97 0.946556 -1.81388 0
M  V30 19359 H 1794.98 3.33284 -2.35342 0
M  V30 19360 H 1793.65 2.60209 -3.24444 0
M  V30 19361 H 1792.23 3.37568 -1.58437 0
M  V30 19362 N 1794.41 1.22455 0.992094 0
M  V30 19363 C 1795.66 1.0496 1.73175 0
M  V30 19364 C 1795.99 -0.41518 1.90017 0
M  V30 19365 O 1795.24 -1.32408 1.44107 0
M  V30 19366 C 1795.54 1.70683 3.1401 0
M  V30 19367 C 1795.21 3.20579 3.1708 0
M  V30 19368 C 1793.87 3.6148 3.17626 0
M  V30 19369 C 1796.22 4.16519 3.13308 0
M  V30 19370 C 1793.55 4.968 3.121 0
M  V30 19371 C 1795.9 5.51816 3.09324 0
M  V30 19372 C 1794.57 5.92096 3.08185 0
M  V30 19373 H 1793.84 0.384075 0.633694 0
M  V30 19374 H 1796.48 1.52228 1.16184 0
M  V30 19375 H 1794.79 1.15742 3.74314 0
M  V30 19376 H 1796.49 1.54636 3.69985 0
M  V30 19377 H 1793.08 2.88012 3.17406 0
M  V30 19378 H 1797.26 3.85937 3.12036 0
M  V30 19379 H 1792.52 5.27238 3.09564 0
M  V30 19380 H 1796.69 6.25882 3.0536 0
M  V30 19381 H 1794.32 6.96919 3.03658 0
M  V30 19382 N 1795.89 -1.18905 1.03437 0
M  V30 19383 C 1797.12 -1.92678 0.753853 0
M  V30 19384 C 1797.53 -1.75814 -0.688111 0
M  V30 19385 O 1796.89 -1.08363 -1.46846 0
M  V30 19386 C 1796.94 -3.44275 1.10258 0
M  V30 19387 O 1796.66 -3.60602 2.48793 0
M  V30 19388 C 1798.16 -4.35159 0.84566 0
M  V30 19389 H 1795.38 -0.611875 0.275408 0
M  V30 19390 H 1797.93 -1.50887 1.38034 0
M  V30 19391 H 1796.08 -3.83878 0.521177 0
M  V30 19392 H 1796.5 -4.54403 2.61951 0
M  V30 19393 H 1797.97 -5.40109 1.13958 0
M  V30 19394 H 1798.45 -4.3865 -0.219767 0
M  V30 19395 H 1799.05 -4.01245 1.41006 0
M  V30 19396 N 1797.37 -0.812977 -1.35013 0
M  V30 19397 C 1798.62 -0.392801 -1.97838 0
M  V30 19398 C 1798.93 1.04728 -1.65201 0
M  V30 19399 O 1800.14 1.57088 -2.2144 0
M  V30 19400 C 1798.59 -0.651399 -3.53956 0
M  V30 19401 C 1798.2 -2.10444 -3.95496 0
M  V30 19402 C 1799.95 -0.296897 -4.2346 0
M  V30 19403 C 1797.85 -2.30845 -5.44485 0
M  V30 19404 H 1796.78 -0.143138 -0.740289 0
M  V30 19405 H 1799.43 -0.997933 -1.53992 0
M  V30 19406 H 1797.82 0.0237698 -3.95993 0
M  V30 19407 H 1798.99 -2.81795 -3.64593 0
M  V30 19408 H 1797.3 -2.41942 -3.389 0
M  V30 19409 H 1799.9 -0.427291 -5.3299 0
M  V30 19410 H 1800.24 0.757594 -4.09349 0
M  V30 19411 H 1800.78 -0.92624 -3.86866 0
M  V30 19412 H 1797.52 -3.34763 -5.63572 0
M  V30 19413 H 1797.04 -1.64027 -5.76936 0
M  V30 19414 H 1798.72 -2.12712 -6.11034 0
M  V30 19415 N 1798.85 1.47045 -0.567045 0
M  V30 19416 C 1799.79 2.30135 0.175115 0
M  V30 19417 C 1800.76 1.39665 0.899049 0
M  V30 19418 O 1801.95 1.68623 0.892809 0
M  V30 19419 C 1799.09 3.23827 1.19289 0
M  V30 19420 C 1798.2 4.29392 0.474011 0
M  V30 19421 C 1797.34 5.10226 1.47793 0
M  V30 19422 C 1796.38 6.07554 0.744584 0
M  V30 19423 N 1795.51 6.81313 1.69581 0
M  V30 19424 H 1800.35 2.93075 -0.539529 0
M  V30 19425 H 1797.89 1.44451 -0.277889 0
M  V30 19426 H 1799.85 3.76579 1.79567 0
M  V30 19427 H 1798.48 2.6273 1.87544 0
M  V30 19428 H 1797.53 3.7962 -0.243494 0
M  V30 19429 H 1798.84 4.987 -0.100022 0
M  V30 19430 H 1798 5.67176 2.15397 0
M  V30 19431 H 1796.74 4.40842 2.08589 0
M  V30 19432 H 1795.74 5.49773 0.0546832 0
M  V30 19433 H 1796.97 6.78951 0.142235 0
M  V30 19434 H 1794.91 6.14651 2.29216 0
M  V30 19435 H 1794.83 7.46826 1.17418 0
M  V30 19436 H 1796.1 7.42831 2.36268 0
M  V30 19437 N 1800.33 0.304 1.5464 0
M  V30 19438 C 1801.74 -0.188042 1.85751 0
M  V30 19439 C 1802.09 -1.53186 1.22591 0
M  V30 19440 O 1801.21 -2.09943 0.524696 0
M  V30 19441 C 1801.81 -0.347976 3.37008 0
M  V30 19442 C 1800.37 -0.784238 3.68139 0
M  V30 19443 C 1799.51 0.105654 2.77099 0
M  V30 19444 H 1802.46 0.524918 1.49767 0
M  V30 19445 H 1802.49 -1.18207 3.61673 0
M  V30 19446 H 1802 0.630227 3.82949 0
M  V30 19447 H 1800.1 -1.77288 3.27719 0
M  V30 19448 H 1800.21 -0.601546 4.75309 0
M  V30 19449 H 1798.58 -0.415561 2.51287 0
M  V30 19450 H 1799.36 1.08027 3.25861 0
M  V30 19451 N 1801.8 -1.57568 0.0317802 0
M  V30 19452 C 1802.75 -2.10379 -0.949183 0
M  V30 19453 C 1803.72 -1.00649 -1.32133 0
M  V30 19454 O 1804.91 -1.28084 -1.41418 0
M  V30 19455 C 1802.05 -2.63762 -2.22539 0
M  V30 19456 C 1801.16 -3.87509 -1.90946 0
M  V30 19457 C 1800.29 -4.29276 -3.12882 0
M  V30 19458 C 1799.33 -5.45775 -2.77121 0
M  V30 19459 N 1798.47 -5.82686 -3.9169 0
M  V30 19460 H 1803.31 -2.93912 -0.491922 0
M  V30 19461 H 1800.85 -1.45272 -0.23121 0
M  V30 19462 H 1802.8 -2.92803 -2.9719 0
M  V30 19463 H 1801.43 -1.83055 -2.65877 0
M  V30 19464 H 1800.49 -3.6518 -1.06526 0
M  V30 19465 H 1801.8 -4.72235 -1.6061 0
M  V30 19466 H 1800.95 -4.59768 -3.95851 0
M  V30 19467 H 1799.69 -3.43323 -3.46382 0
M  V30 19468 H 1798.7 -5.14974 -1.92565 0
M  V30 19469 H 1799.92 -6.3343 -2.44834 0
M  V30 19470 H 1797.87 -4.99688 -4.25027 0
M  V30 19471 H 1797.78 -6.62058 -3.64986 0
M  V30 19472 H 1799.05 -6.17785 -4.75355 0
M  V30 19473 N 1803.28 0.241399 -1.5574 0
M  V30 19474 C 1804.19 1.32034 -1.93918 0
M  V30 19475 C 1805.21 1.52363 -0.840331 0
M  V30 19476 O 1806.38 1.65879 -1.1422 0
M  V30 19477 C 1803.45 2.6539 -2.2309 0
M  V30 19478 C 1802.51 2.53536 -3.46436 0
M  V30 19479 C 1801.74 3.80532 -3.74208 0
M  V30 19480 O 1801.97 4.82662 -3.03964 0
M  V30 19481 O 1800.9 3.78834 -4.67727 0
M  V30 19482 H 1804.73 1.02647 -2.85827 0
M  V30 19483 H 1802.31 0.442616 -1.42693 0
M  V30 19484 H 1804.19 3.44184 -2.43137 0
M  V30 19485 H 1802.87 2.94499 -1.34358 0
M  V30 19486 H 1801.78 1.73009 -3.3169 0
M  V30 19487 H 1803.11 2.29371 -4.35488 0
M  V30 19488 N 1804.76 1.49212 0.507292 0
M  V30 19489 C 1805.71 1.65417 1.60953 0
M  V30 19490 C 1806.68 0.495737 1.5853 0
M  V30 19491 O 1807.86 0.722002 1.76612 0
M  V30 19492 C 1805 1.72095 2.99128 0
M  V30 19493 C 1804.12 2.99199 3.11615 0
M  V30 19494 C 1803.25 2.96895 4.40485 0
M  V30 19495 C 1802.29 4.18607 4.46581 0
M  V30 19496 N 1801.43 4.14248 5.66871 0
M  V30 19497 H 1806.27 2.59535 1.46444 0
M  V30 19498 H 1803.8 1.28687 0.712609 0
M  V30 19499 H 1805.76 1.73947 3.79207 0
M  V30 19500 H 1804.39 0.814484 3.12356 0
M  V30 19501 H 1803.44 3.06988 2.24639 0
M  V30 19502 H 1804.76 3.89192 3.11979 0
M  V30 19503 H 1803.91 2.97275 5.28878 0
M  V30 19504 H 1802.65 2.0467 4.42675 0
M  V30 19505 H 1801.65 4.18477 3.56591 0
M  V30 19506 H 1802.88 5.12017 4.46112 0
M  V30 19507 H 1800.82 3.24857 5.69916 0
M  V30 19508 H 1800.74 4.97969 5.68826 0
M  V30 19509 H 1802.01 4.18722 6.57489 0
M  V30 19510 N 1806.24 -0.757876 1.38181 0
M  V30 19511 C 1807.49 -1.51222 1.33472 0
M  V30 19512 C 1807.8 -1.9546 -0.0740525 0
M  V30 19513 O 1809.01 -2.70404 -0.243664 0
M  V30 19514 C 1807.46 -2.73138 2.34358 0
M  V30 19515 C 1807.07 -2.35943 3.80835 0
M  V30 19516 C 1808.81 -3.51041 2.38685 0
M  V30 19517 C 1806.72 -3.54444 4.73417 0
M  V30 19518 H 1805.65 -0.567789 0.496116 0
M  V30 19519 H 1808.3 -0.828861 1.63714 0
M  V30 19520 H 1806.68 -3.43433 1.97153 0
M  V30 19521 H 1807.86 -1.73341 4.26954 0
M  V30 19522 H 1806.17 -1.71184 3.79585 0
M  V30 19523 H 1808.77 -4.39143 3.05054 0
M  V30 19524 H 1809.11 -3.91892 1.40451 0
M  V30 19525 H 1809.65 -2.87755 2.74667 0
M  V30 19526 H 1806.39 -3.18663 5.7283 0
M  V30 19527 H 1805.91 -4.16103 4.31993 0
M  V30 19528 H 1807.58 -4.21081 4.91223 0
M  V30 19529 N 1807.72 -1.22979 -0.985586 0
M  V30 19530 C 1808.96 -1.05667 -1.72275 0
M  V30 19531 C 1809.29 0.408045 -1.90683 0
M  V30 19532 O 1808.56 1.29293 -1.47174 0
M  V30 19533 H 1807.14 -0.388017 -0.63832 0
M  V30 19534 H 1809.8 -1.54612 -1.18665 0
M  V30 19535 H 1808.89 -1.54043 -2.71436 0
M  V30 19536 N 1809.19 1.18355 -1.04066 0
M  V30 19537 C 1810.44 1.87665 -0.73923 0
M  V30 19538 C 1810.76 1.81226 0.735963 0
M  V30 19539 O 1811.96 2.45899 1.15091 0
M  V30 19540 C 1810.42 3.36671 -1.27203 0
M  V30 19541 C 1810.03 3.5164 -2.77585 0
M  V30 19542 C 1811.77 4.11383 -1.04712 0
M  V30 19543 C 1809.68 4.94605 -3.24222 0
M  V30 19544 H 1808.61 0.702908 -0.27283 0
M  V30 19545 H 1811.26 1.33733 -1.25649 0
M  V30 19546 H 1809.64 3.90072 -0.682621 0
M  V30 19547 H 1810.81 3.08511 -3.42283 0
M  V30 19548 H 1809.13 2.90334 -2.98488 0
M  V30 19549 H 1811.73 5.16832 -1.37071 0
M  V30 19550 H 1812.07 4.16297 0.0156344 0
M  V30 19551 H 1812.6 3.64154 -1.60114 0
M  V30 19552 H 1809.34 4.94859 -4.29878 0
M  V30 19553 H 1808.86 5.38449 -2.6426 0
M  V30 19554 H 1810.54 5.6332 -3.18245 0
M  V30 19555 N 1810.67 0.820125 1.3458 0
M  V30 19556 C 1811.92 0.407473 1.98664 0
M  V30 19557 C 1812.25 -1.02613 1.64877 0
M  V30 19558 O 1811.53 -1.71421 0.918964 0
M  V30 19559 C 1811.81 0.606744 3.54952 0
M  V30 19560 C 1811.66 2.08626 3.98491 0
M  V30 19561 C 1812.98 0.0409321 4.40081 0
M  V30 19562 H 1810.1 0.149524 0.721673 0
M  V30 19563 H 1812.74 1.03217 1.59519 0
M  V30 19564 H 1810.89 0.0749788 3.88428 0
M  V30 19565 H 1812.56 2.68144 3.75361 0
M  V30 19566 H 1810.81 2.57774 3.48905 0
M  V30 19567 H 1811.48 2.17651 5.07279 0
M  V30 19568 H 1813.95 0.495234 4.13142 0
M  V30 19569 H 1812.83 0.210182 5.48497 0
M  V30 19570 H 1813.09 -1.05389 4.29355 0
M  V30 19571 N 1812.15 -1.46743 0.574835 0
M  V30 19572 C 1813.4 -2.02019 0.057302 0
M  V30 19573 C 1813.72 -1.44965 -1.30423 0
M  V30 19574 O 1812.99 -0.631377 -1.85447 0
M  V30 19575 H 1811.57 -0.746778 0.018193 0
M  V30 19576 H 1814.23 -1.7994 0.748834 0
M  V30 19577 H 1813.33 -3.12095 -0.0176114 0
M  V30 19578 N 1813.63 -0.312197 -1.54477 0
M  V30 19579 C 1815.04 0.0408317 -1.59548 0
M  V30 19580 C 1815.24 1.51461 -1.32898 0
M  V30 19581 O 1814.3 2.26899 -1.10785 0
M  V30 19582 C 1815.61 -0.367179 -2.9845 0
M  V30 19583 C 1817.16 -0.31688 -3.11392 0
M  V30 19584 C 1817.64 -0.699881 -4.52621 0
M  V30 19585 N 1819.13 -0.652846 -4.58576 0
M  V30 19586 C 1819.86 -0.921531 -5.65946 0
M  V30 19587 N 1819.36 -1.25676 -6.81306 0
M  V30 19588 N 1821.15 -0.847847 -5.55669 0
M  V30 19589 H 1813.3 -1.27255 -1.70059 0
M  V30 19590 H 1815.57 -0.516679 -0.794825 0
M  V30 19591 H 1815.27 -1.39356 -3.22913 0
M  V30 19592 H 1815.15 0.273556 -3.76207 0
M  V30 19593 H 1817.53 0.700275 -2.86671 0
M  V30 19594 H 1817.61 -0.992393 -2.35765 0
M  V30 19595 H 1817.26 -1.7149 -4.78073 0
M  V30 19596 H 1817.19 -0.00217708 -5.266 0
M  V30 19597 H 1819.68 -0.405135 -3.75722 0
M  V30 19598 H 1819.99 -1.44746 -7.59123 0
M  V30 19599 H 1818.34 -1.29491 -6.8283 0
M  V30 19600 H 1821.53 -0.585523 -4.64424 0
M  V30 19601 H 1821.7 -1.06061 -6.39261 0
M  V30 19602 N 1815.11 1.57549 -0.040136 0
M  V30 19603 C 1816.33 1.96557 0.645986 0
M  V30 19604 C 1816.75 0.91717 1.65026 0
M  V30 19605 O 1816.11 -0.0998395 1.82227 0
M  V30 19606 C 1816.16 3.35641 1.34266 0
M  V30 19607 O 1815.88 4.36461 0.378616 0
M  V30 19608 C 1817.38 3.89344 2.11957 0
M  V30 19609 H 1814.6 0.64713 0.177379 0
M  V30 19610 H 1817.14 2.0424 -0.103167 0
M  V30 19611 H 1815.3 3.29143 2.04312 0
M  V30 19612 H 1815.71 5.17157 0.874592 0
M  V30 19613 H 1817.19 4.88975 2.5614 0
M  V30 19614 H 1817.66 3.24178 2.96319 0
M  V30 19615 H 1818.27 3.99145 1.46845 0
M  V30 19616 N 1816.58 -0.233136 1.55866 0
M  V30 19617 C 1817.83 -0.957324 1.77988 0
M  V30 19618 C 1818.15 -1.85325 0.606593 0
M  V30 19619 O 1817.42 -1.92237 -0.377047 0
M  V30 19620 H 1816 -0.356474 0.656457 0
M  V30 19621 H 1818.67 -0.247774 1.93319 0
M  V30 19622 H 1817.76 -1.57096 2.6968 0
M  V30 19623 N 1818.06 -1.49479 -0.499372 0
M  V30 19624 C 1819.29 -1.63025 -1.28209 0
M  V30 19625 C 1819.71 -0.302238 -1.85656 0
M  V30 19626 O 1819.07 0.730355 -1.65938 0
M  V30 19627 C 1819.12 -2.70287 -2.38699 0
M  V30 19628 O 1818.22 -2.29573 -3.42593 0
M  V30 19629 H 1817.56 -0.545605 -0.378432 0
M  V30 19630 H 1820.09 -1.95677 -0.597628 0
M  V30 19631 H 1820.1 -2.92505 -2.84438 0
M  V30 19632 H 1818.78 -3.66684 -1.96253 0
M  V30 19633 H 1817.36 -2.17692 -3.02761 0
M  V30 19634 N 1819.54 0.750537 -1.38581 0
M  V30 19635 C 1820.79 1.50676 -1.34689 0
M  V30 19636 C 1821.11 1.94903 0.0615414 0
M  V30 19637 O 1820.38 1.67867 1.00982 0
M  V30 19638 H 1818.96 0.558914 -0.495605 0
M  V30 19639 H 1821.62 0.891979 -1.73291 0
M  V30 19640 H 1820.72 2.39623 -1.99969 0
M  V30 19641 N 1821.02 1.235 0.979051 0
M  V30 19642 C 1821.97 1.01737 2.07167 0
M  V30 19643 C 1822.94 -0.0656067 1.6597 0
M  V30 19644 O 1824.12 0.0867676 1.90603 0
M  V30 19645 C 1821.26 0.616104 3.39556 0
M  V30 19646 C 1820.37 1.77135 3.94014 0
M  V30 19647 C 1819.51 1.31674 5.14622 0
M  V30 19648 C 1818.55 2.44265 5.6125 0
M  V30 19649 N 1817.69 1.99752 6.73085 0
M  V30 19650 H 1822.53 1.9526 2.25117 0
M  V30 19651 H 1820.06 0.972707 1.10349 0
M  V30 19652 H 1822.02 0.364549 4.15604 0
M  V30 19653 H 1820.65 -0.282117 3.21565 0
M  V30 19654 H 1819.7 2.13687 3.14709 0
M  V30 19655 H 1821.01 2.61775 4.24588 0
M  V30 19656 H 1820.17 1.02339 5.98006 0
M  V30 19657 H 1818.91 0.440724 4.85705 0
M  V30 19658 H 1817.91 2.74373 4.76445 0
M  V30 19659 H 1819.14 3.32405 5.92186 0
M  V30 19660 H 1817.08 1.14532 6.45924 0
M  V30 19661 H 1817 2.77951 7.0305 0
M  V30 19662 H 1818.27 1.73525 7.5994 0
M  V30 19663 N 1822.5 -1.17802 1.04693 0
M  V30 19664 C 1823.72 -1.92408 0.774194 0
M  V30 19665 C 1824.15 -1.76012 -0.663424 0
M  V30 19666 O 1823.51 -1.07447 -1.4603 0
M  V30 19667 C 1823.55 -3.4166 1.1533 0
M  V30 19668 O 1822.66 -4.11431 0.282469 0
M  V30 19669 H 1822 -0.600033 0.284353 0
M  V30 19670 H 1824.53 -1.49348 1.39844 0
M  V30 19671 H 1824.54 -3.92386 1.11791 0
M  V30 19672 H 1823.21 -3.52914 2.20056 0
M  V30 19673 H 1821.79 -3.70979 0.378021 0
M  V30 19674 N 1823.98 -0.827251 -1.34143 0
M  V30 19675 C 1825.2 -0.429514 -2.02904 0
M  V30 19676 C 1825.63 0.958033 -1.61874 0
M  V30 19677 O 1824.98 1.62422 -0.805528 0
M  V30 19678 C 1825.03 -0.544592 -3.56464 0
M  V30 19679 O 1824.14 0.433849 -4.10112 0
M  V30 19680 H 1823.48 -0.176216 -0.64019 0
M  V30 19681 H 1826.01 -1.11887 -1.71297 0
M  V30 19682 H 1826.02 -0.421949 -4.05812 0
M  V30 19683 H 1824.69 -1.55657 -3.85673 0
M  V30 19684 H 1823.27 0.269729 -3.71923 0
M  V30 19685 N 1825.45 1.46436 -0.582609 0
M  V30 19686 C 1826.38 2.33089 0.138477 0
M  V30 19687 C 1827.36 1.45339 0.883777 0
M  V30 19688 O 1828.55 1.74156 0.859257 0
M  V30 19689 C 1825.68 3.27611 1.15276 0
M  V30 19690 C 1824.63 4.24801 0.522308 0
M  V30 19691 C 1823.96 5.0883 1.64306 0
M  V30 19692 C 1825.26 5.19496 -0.540449 0
M  V30 19693 H 1826.95 2.93629 -0.585013 0
M  V30 19694 H 1824.5 1.41196 -0.282781 0
M  V30 19695 H 1826.45 3.87087 1.66558 0
M  V30 19696 H 1825.18 2.65177 1.90653 0
M  V30 19697 H 1823.84 3.66587 0.0305728 0
M  V30 19698 H 1823.48 4.42782 2.38649 0
M  V30 19699 H 1823.18 5.74649 1.22686 0
M  V30 19700 H 1824.71 5.7117 2.15864 0
M  V30 19701 H 1826.12 5.73189 -0.112706 0
M  V30 19702 H 1824.52 5.93658 -0.876957 0
M  V30 19703 H 1825.59 4.63434 -1.42677 0
M  V30 19704 N 1826.93 0.320385 1.54309 0
M  V30 19705 C 1828.18 -0.282584 2.00115 0
M  V30 19706 C 1828.5 -1.52904 1.21018 0
M  V30 19707 O 1827.77 -1.93413 0.311163 0
M  V30 19708 H 1826.35 -0.107406 0.739238 0
M  V30 19709 H 1829.01 0.436196 1.89956 0
M  V30 19710 H 1828.11 -0.541189 3.07372 0
M  V30 19711 N 1828.41 -1.57525 0.0484906 0
M  V30 19712 C 1829.34 -2.06926 -0.962128 0
M  V30 19713 C 1830.32 -0.969173 -1.3056 0
M  V30 19714 O 1831.5 -1.24091 -1.41893 0
M  V30 19715 C 1828.63 -2.50752 -2.27687 0
M  V30 19716 C 1827.68 -3.7197 -2.08664 0
M  V30 19717 S 1828.51 -5.17745 -1.36749 0
M  V30 19718 C 1829.67 -5.64883 -2.69552 0
M  V30 19719 H 1829.9 -2.92323 -0.541691 0
M  V30 19720 H 1827.43 -1.5353 -0.163706 0
M  V30 19721 H 1829.39 -2.76665 -3.03261 0
M  V30 19722 H 1828.05 -1.65665 -2.66859 0
M  V30 19723 H 1827.24 -4.00546 -3.05907 0
M  V30 19724 H 1826.85 -3.46309 -1.41231 0
M  V30 19725 H 1829.14 -5.70305 -3.6573 0
M  V30 19726 H 1830.08 -6.64138 -2.45615 0
M  V30 19727 H 1830.49 -4.92602 -2.75688 0
M  V30 19728 N 1829.89 0.224867 -1.55988 0
M  V30 19729 C 1830.85 1.26214 -1.91318 0
M  V30 19730 C 1831.85 1.39973 -0.791472 0
M  V30 19731 O 1833.04 1.38295 -1.05926 0
M  V30 19732 C 1830.17 2.63648 -2.16107 0
M  V30 19733 H 1831.37 0.960933 -2.84088 0
M  V30 19734 H 1828.92 0.465138 -1.49218 0
M  V30 19735 H 1829.65 2.98873 -1.25878 0
M  V30 19736 H 1829.44 2.5504 -2.97821 0
M  V30 19737 H 1830.93 3.38505 -2.44548 0
M  V30 19738 N 1831.37 1.49742 0.491438 0
M  V30 19739 C 1832.3 1.70033 1.60034 0
M  V30 19740 C 1833.28 0.549076 1.60994 0
M  V30 19741 O 1834.46 0.785983 1.77584 0
M  V30 19742 C 1831.59 1.7757 2.98473 0
M  V30 19743 C 1830.55 2.9258 3.12379 0
M  V30 19744 C 1829.87 2.85239 4.52264 0
M  V30 19745 C 1831.17 4.33385 2.91504 0
M  V30 19746 H 1832.87 2.62875 1.43307 0
M  V30 19747 H 1830.41 1.26502 0.687989 0
M  V30 19748 H 1832.36 1.90351 3.75958 0
M  V30 19749 H 1831.09 0.813343 3.1631 0
M  V30 19750 H 1829.75 2.79417 2.37322 0
M  V30 19751 H 1829.4 1.86892 4.66991 0
M  V30 19752 H 1829.1 3.62437 4.62508 0
M  V30 19753 H 1830.62 3.00041 5.31797 0
M  V30 19754 H 1832.03 4.4718 3.58752 0
M  V30 19755 H 1830.43 5.11878 3.13211 0
M  V30 19756 H 1831.5 4.47166 1.87539 0
M  V30 19757 N 1832.84 -0.743177 1.38977 0
M  V30 19758 C 1834.09 -1.50256 1.35755 0
M  V30 19759 C 1834.42 -1.94438 -0.0491287 0
M  V30 19760 O 1833.67 -1.66505 -1.02834 0
M  V30 19761 C 1833.97 -2.76157 2.26874 0
M  V30 19762 C 1833.64 -2.50885 3.74657 0
M  V30 19763 C 1832.3 -2.43702 4.14925 0
M  V30 19764 C 1834.65 -2.29075 4.6816 0
M  V30 19765 C 1831.98 -2.12738 5.46772 0
M  V30 19766 C 1834.33 -1.9963 6.00275 0
M  V30 19767 C 1833 -1.9091 6.39617 0
M  V30 19768 H 1832.27 -0.549827 0.496761 0
M  V30 19769 H 1834.91 -0.85369 1.71419 0
M  V30 19770 H 1833.22 -3.45746 1.84301 0
M  V30 19771 H 1834.92 -3.34155 2.21679 0
M  V30 19772 H 1831.51 -2.57351 3.42737 0
M  V30 19773 H 1835.69 -2.33597 4.37888 0
M  V30 19774 H 1830.95 -2.04504 5.76184 0
M  V30 19775 H 1835.12 -1.8176 6.72262 0
M  V30 19776 H 1832.75 -1.66683 7.41701 0
M  V30 19777 N 1834.32 -1.24018 -0.972487 0
M  V30 19778 C 1835.74 -1.00454 -1.24021 0
M  V30 19779 C 1835.94 0.289568 -1.99409 0
M  V30 19780 O 1834.99 1.00696 -2.31552 0
M  V30 19781 C 1836.31 -2.21651 -2.03202 0
M  V30 19782 C 1837.86 -2.26225 -2.16312 0
M  V30 19783 C 1838.33 -3.47031 -2.98888 0
M  V30 19784 N 1839.82 -3.47318 -3.06471 0
M  V30 19785 C 1840.56 -4.3745 -3.70709 0
M  V30 19786 N 1840.05 -5.37829 -4.36705 0
M  V30 19787 N 1841.85 -4.25173 -3.67674 0
M  V30 19788 H 1834 -2.07187 -0.467668 0
M  V30 19789 H 1836.26 -0.908955 -0.269267 0
M  V30 19790 H 1835.97 -3.15608 -1.55191 0
M  V30 19791 H 1835.84 -2.2338 -3.03943 0
M  V30 19792 H 1838.23 -1.32803 -2.63529 0
M  V30 19793 H 1838.31 -2.28525 -1.14936 0
M  V30 19794 H 1837.95 -4.40765 -2.52366 0
M  V30 19795 H 1837.88 -3.41974 -4.00452 0
M  V30 19796 H 1840.37 -2.74695 -2.59521 0
M  V30 19797 H 1840.69 -6.02846 -4.83525 0
M  V30 19798 H 1839.03 -5.41721 -4.35389 0
M  V30 19799 H 1842.22 -3.45992 -3.15289 0
M  V30 19800 H 1842.39 -4.95617 -4.17454 0
M  V30 19801 N 1835.8 1.17245 -1.05316 0
M  V30 19802 C 1836.73 2.23491 -0.67631 0
M  V30 19803 C 1837.71 1.66937 0.326507 0
M  V30 19804 O 1838.9 1.93127 0.203823 0
M  V30 19805 C 1836.03 3.47262 -0.0515755 0
M  V30 19806 C 1834.98 4.16646 -0.97929 0
M  V30 19807 C 1834.31 5.34254 -0.218369 0
M  V30 19808 C 1835.61 4.68736 -2.30399 0
M  V30 19809 H 1837.3 2.55269 -1.56455 0
M  V30 19810 H 1834.85 1.22699 -0.753714 0
M  V30 19811 H 1836.8 4.20805 0.223865 0
M  V30 19812 H 1835.52 3.14755 0.871614 0
M  V30 19813 H 1834.18 3.45017 -1.23931 0
M  V30 19814 H 1833.83 4.97998 0.707624 0
M  V30 19815 H 1833.53 5.81615 -0.83654 0
M  V30 19816 H 1835.05 6.1058 0.0497574 0
M  V30 19817 H 1836.47 5.3391 -2.08837 0
M  V30 19818 H 1834.87 5.2668 -2.87625 0
M  V30 19819 H 1835.94 3.85477 -2.94169 0
M  V30 19820 N 1837.28 0.834353 1.33702 0
M  V30 19821 C 1838.52 0.428521 1.98221 0
M  V30 19822 C 1838.86 -1.00858 1.65956 0
M  V30 19823 O 1838.13 -1.70437 0.937094 0
M  V30 19824 C 1838.42 0.644357 3.54288 0
M  V30 19825 C 1838.27 2.1284 3.96256 0
M  V30 19826 C 1839.59 0.0876063 4.40013 0
M  V30 19827 H 1836.71 0.15717 0.720046 0
M  V30 19828 H 1839.35 1.04903 1.58415 0
M  V30 19829 H 1837.5 0.116173 3.88326 0
M  V30 19830 H 1839.17 2.72111 3.72496 0
M  V30 19831 H 1837.41 2.61461 3.46151 0
M  V30 19832 H 1838.08 2.23019 5.04942 0
M  V30 19833 H 1840.56 0.539025 4.12594 0
M  V30 19834 H 1839.44 0.268345 5.48244 0
M  V30 19835 H 1839.7 -1.00829 4.30449 0
M  V30 19836 N 1838.76 -1.46125 0.590367 0
M  V30 19837 C 1839.67 -2.34177 -0.140761 0
M  V30 19838 C 1840.68 -1.50213 -0.878181 0
M  V30 19839 O 1841.86 -1.83063 -0.839644 0
M  V30 19840 C 1838.92 -3.27537 -1.13669 0
M  V30 19841 C 1837.98 -4.27403 -0.403103 0
M  V30 19842 C 1837.22 -5.16302 -1.35159 0
M  V30 19843 O 1837.44 -5.08283 -2.58853 0
M  V30 19844 O 1836.37 -5.95753 -0.858003 0
M  V30 19845 H 1840.2 -2.98063 0.582401 0
M  V30 19846 H 1837.79 -1.45225 0.35072 0
M  V30 19847 H 1839.67 -3.85112 -1.71074 0
M  V30 19848 H 1838.34 -2.66237 -1.84118 0
M  V30 19849 H 1837.25 -3.73493 0.212986 0
M  V30 19850 H 1838.58 -4.9151 0.260565 0
M  V30 19851 N 1840.23 -0.328564 -1.54137 0
M  V30 19852 C 1841.16 0.527734 -2.27458 0
M  V30 19853 C 1842.15 1.11518 -1.28444 0
M  V30 19854 O 1843.33 1.13938 -1.57264 0
M  V30 19855 C 1840.46 1.68628 -3.03615 0
M  V30 19856 C 1839.41 1.22789 -4.10008 0
M  V30 19857 C 1838.74 2.47378 -4.74034 0
M  V30 19858 C 1840.04 0.339152 -5.21198 0
M  V30 19859 H 1841.73 -0.0838808 -2.99282 0
M  V30 19860 H 1839.28 -0.0417829 -1.43939 0
M  V30 19861 H 1841.23 2.29165 -3.5364 0
M  V30 19862 H 1839.96 2.32456 -2.29416 0
M  V30 19863 H 1838.62 0.645427 -3.60874 0
M  V30 19864 H 1838.26 3.09581 -3.96445 0
M  V30 19865 H 1837.96 2.17396 -5.45905 0
M  V30 19866 H 1839.49 3.08668 -5.26836 0
M  V30 19867 H 1840.9 0.850947 -5.6695 0
M  V30 19868 H 1839.3 0.131892 -5.99955 0
M  V30 19869 H 1840.37 -0.628692 -4.80807 0
M  V30 19870 N 1841.71 1.57497 -0.0568439 0
M  V30 19871 C 1842.94 1.97645 0.628589 0
M  V30 19872 C 1843.36 0.934424 1.63249 0
M  V30 19873 O 1842.72 -0.101706 1.81015 0
M  V30 19874 C 1842.77 3.36855 1.2869 0
M  V30 19875 O 1841.87 3.35182 2.40264 0
M  V30 19876 H 1841.21 0.643698 0.16294 0
M  V30 19877 H 1843.74 2.04206 -0.126927 0
M  V30 19878 H 1843.75 3.73708 1.63726 0
M  V30 19879 H 1842.43 4.12231 0.551203 0
M  V30 19880 H 1841.01 3.10081 2.07133 0
M  V30 19881 N 1843.19 -0.216591 1.56105 0
M  V30 19882 C 1844.44 -0.938392 1.78993 0
M  V30 19883 C 1844.76 -1.84671 0.626215 0
M  V30 19884 O 1844.03 -1.92626 -0.356636 0
M  V30 19885 H 1842.61 -0.349491 0.660201 0
M  V30 19886 H 1845.27 -0.227256 1.93571 0
M  V30 19887 H 1844.37 -1.54227 2.71331 0
M  V30 19888 N 1844.67 -1.5 -0.48349 0
M  V30 19889 C 1845.92 -1.60052 -1.23401 0
M  V30 19890 C 1846.24 -0.297159 -1.92723 0
M  V30 19891 O 1845.51 0.684629 -1.83547 0
M  V30 19892 H 1844.09 -0.589753 -0.458477 0
M  V30 19893 H 1846.75 -1.86716 -0.558835 0
M  V30 19894 H 1845.85 -2.40545 -1.98858 0
M  V30 19895 N 1846.15 0.735796 -1.39369 0
M  V30 19896 C 1847.39 1.50799 -1.37982 0
M  V30 19897 C 1847.75 1.91984 0.0248794 0
M  V30 19898 O 1848.95 2.68301 0.163755 0
M  V30 19899 C 1847.22 2.71494 -2.32434 0
M  V30 19900 S 1848.78 3.61153 -2.49227 0
M  V30 19901 H 1845.6 0.515828 -0.489329 0
M  V30 19902 H 1848.2 0.862229 -1.75459 0
M  V30 19903 H 1846.91 2.39376 -3.33358 0
M  V30 19904 H 1846.44 3.41 -1.96169 0
M  V30 19905 H 1848.45 4.6508 -1.72959 0
M  V30 19906 N 1847.63 1.24532 0.965897 0
M  V30 19907 C 1848.87 1.0801 1.70343 0
M  V30 19908 C 1849.19 -0.380738 1.91859 0
M  V30 19909 O 1850.39 -0.666181 2.632 0
M  V30 19910 C 1848.85 1.88452 3.06617 0
M  V30 19911 C 1848.46 3.38957 2.92937 0
M  V30 19912 C 1850.2 1.80465 3.8423 0
M  V30 19913 C 1848.11 4.11736 4.24532 0
M  V30 19914 H 1847.04 0.400577 0.638791 0
M  V30 19915 H 1849.69 1.48629 1.07618 0
M  V30 19916 H 1848.07 1.40648 3.70181 0
M  V30 19917 H 1849.25 3.94353 2.38374 0
M  V30 19918 H 1847.56 3.47915 2.28788 0
M  V30 19919 H 1850.16 2.32142 4.81679 0
M  V30 19920 H 1850.5 0.770262 4.09112 0
M  V30 19921 H 1851.03 2.25958 3.27395 0
M  V30 19922 H 1847.77 5.15541 4.04842 0
M  V30 19923 H 1847.29 3.61125 4.78904 0
M  V30 19924 H 1848.97 4.18833 4.93141 0
M  V30 19925 N 1849.1 -1.16685 1.05936 0
M  V30 19926 C 1850.05 -2.20953 0.66695 0
M  V30 19927 C 1851.02 -1.62694 -0.334621 0
M  V30 19928 O 1852.21 -1.89477 -0.22433 0
M  V30 19929 C 1849.35 -3.45055 0.0557459 0
M  V30 19930 C 1848.46 -4.17574 1.10706 0
M  V30 19931 C 1847.59 -5.29184 0.462377 0
M  V30 19932 C 1846.63 -5.935 1.49748 0
M  V30 19933 N 1845.77 -6.96608 0.876416 0
M  V30 19934 H 1850.61 -2.53872 1.56054 0
M  V30 19935 H 1848.15 -1.24697 0.780321 0
M  V30 19936 H 1850.1 -4.16001 -0.316125 0
M  V30 19937 H 1848.73 -3.12697 -0.801265 0
M  V30 19938 H 1847.79 -3.45269 1.59668 0
M  V30 19939 H 1849.1 -4.61505 1.89248 0
M  V30 19940 H 1848.25 -6.06689 0.0373376 0
M  V30 19941 H 1846.99 -4.86407 -0.354955 0
M  V30 19942 H 1846 -5.1472 1.93245 0
M  V30 19943 H 1847.22 -6.38357 2.31684 0
M  V30 19944 H 1845.17 -6.55952 0.0797299 0
M  V30 19945 H 1845.08 -7.38891 1.59927 0
M  V30 19946 H 1846.35 -7.78043 0.4764 0
M  V30 19947 N 1850.58 -0.841432 -1.33258 0
M  V30 19948 C 1851.83 -0.434677 -1.96961 0
M  V30 19949 C 1852.14 1.012 -1.67386 0
M  V30 19950 O 1853.35 1.52356 -2.24722 0
M  V30 19951 C 1851.81 -0.726332 -3.52495 0
M  V30 19952 C 1851.41 -2.18786 -3.90943 0
M  V30 19953 C 1853.16 -0.386652 -4.22735 0
M  V30 19954 C 1851.06 -2.42343 -5.39466 0
M  V30 19955 H 1849.99 -0.158809 -0.737086 0
M  V30 19956 H 1852.65 -1.03037 -1.51841 0
M  V30 19957 H 1851.03 -0.0602315 -3.95954 0
M  V30 19958 H 1852.2 -2.89465 -3.58534 0
M  V30 19959 H 1850.52 -2.49076 -3.33691 0
M  V30 19960 H 1853.11 -0.540249 -5.31964 0
M  V30 19961 H 1853.46 0.670595 -4.10863 0
M  V30 19962 H 1853.99 -1.00809 -3.84815 0
M  V30 19963 H 1850.73 -3.46642 -5.56345 0
M  V30 19964 H 1850.25 -1.76227 -5.73327 0
M  V30 19965 H 1851.93 -2.25625 -6.06385 0
M  V30 19966 N 1852.06 1.4581 -0.598108 0
M  V30 19967 C 1853.34 1.95588 -0.0220376 0
M  V30 19968 C 1853.72 1.54066 1.44316 0
M  V30 19969 O 1853.06 0.798663 2.14088 0
M  V30 19970 C 1853.27 3.48366 -0.210204 0
M  V30 19971 C 1854.62 4.24513 -0.0860474 0
M  V30 19972 O 1855.65 3.55925 -0.139833 0
M  V30 19973 O 1854.51 5.46488 0.0367961 0
M  V30 19974 H 1851.6 0.825977 0.0411123 0
M  V30 19975 H 1854.15 1.56021 -0.667506 0
M  V30 19976 H 1852.92 3.71526 -1.22818 0
M  V30 19977 H 1852.54 3.94801 0.470974 0
M  V30 19978 N 1853.54 0.336733 1.53961 0
M  V30 19979 C 1854.79 -0.261343 2.00403 0
M  V30 19980 C 1855.11 -1.51612 1.22633 0
M  V30 19981 O 1854.38 -1.93072 0.331659 0
M  V30 19982 H 1852.96 -0.0995594 0.740336 0
M  V30 19983 H 1855.62 0.456319 1.89483 0
M  V30 19984 H 1854.71 -0.508557 3.07929 0
M  V30 19985 N 1855.02 -1.57465 0.0651956 0
M  V30 19986 C 1856.26 -1.93524 -0.606325 0
M  V30 19987 C 1856.59 -0.944947 -1.6966 0
M  V30 19988 O 1855.87 0.0268871 -1.94481 0
M  V30 19989 C 1856.15 -3.3989 -1.18941 0
M  V30 19990 C 1856.01 -4.49675 -0.106235 0
M  V30 19991 C 1857.32 -3.86935 -2.09689 0
M  V30 19992 H 1854.44 -0.703729 -0.218939 0
M  V30 19993 H 1857.09 -1.89556 0.12982 0
M  V30 19994 H 1855.24 -3.43402 -1.81679 0
M  V30 19995 H 1856.91 -4.58286 0.526483 0
M  V30 19996 H 1855.15 -4.30118 0.563985 0
M  V30 19997 H 1855.82 -5.49208 -0.554488 0
M  V30 19998 H 1858.3 -3.85387 -1.56895 0
M  V30 19999 H 1857.17 -4.89972 -2.47424 0
M  V30 20000 H 1857.43 -3.24496 -3.00258 0
M  V30 20001 N 1856.49 0.20831 -1.56217 0
M  V30 20002 C 1857.91 0.55859 -1.49506 0
M  V30 20003 C 1858.11 1.86504 -0.762784 0
M  V30 20004 O 1857.17 2.50616 -0.307868 0
M  V30 20005 C 1858.48 0.625557 -2.94121 0
M  V30 20006 C 1860.03 0.715289 -3.04717 0
M  V30 20007 C 1860.5 0.813485 -4.50718 0
M  V30 20008 N 1861.99 0.87736 -4.54815 0
M  V30 20009 C 1862.73 0.973279 -5.65079 0
M  V30 20010 N 1862.22 1.03232 -6.85066 0
M  V30 20011 N 1864.02 1.00944 -5.52962 0
M  V30 20012 H 1856.17 -0.648826 -2.02247 0
M  V30 20013 H 1858.43 -0.229425 -0.91982 0
M  V30 20014 H 1858.14 -0.265056 -3.507 0
M  V30 20015 H 1858.01 1.48473 -3.4675 0
M  V30 20016 H 1860.4 1.59634 -2.48196 0
M  V30 20017 H 1860.48 -0.169818 -2.55236 0
M  V30 20018 H 1860.12 -0.0631602 -5.07861 0
M  V30 20019 H 1860.05 1.7142 -4.97918 0
M  V30 20020 H 1862.54 0.841513 -3.68411 0
M  V30 20021 H 1862.86 1.10566 -7.6485 0
M  V30 20022 H 1861.2 1.00122 -6.8775 0
M  V30 20023 H 1864.39 0.960065 -4.58149 0
M  V30 20024 H 1864.57 1.08074 -6.38924 0
M  V30 20025 N 1857.97 1.50255 0.475528 0
M  V30 20026 C 1859.22 1.60263 1.22468 0
M  V30 20027 C 1859.53 0.306389 1.93185 0
M  V30 20028 O 1860.74 0.285331 2.69997 0
M  V30 20029 C 1859.2 2.82876 2.22506 0
M  V30 20030 C 1858.8 4.19359 1.57612 0
M  V30 20031 C 1860.55 3.02228 2.98091 0
M  V30 20032 C 1858.45 5.33164 2.55911 0
M  V30 20033 H 1857.38 0.596804 0.460804 0
M  V30 20034 H 1860.04 1.76679 0.495653 0
M  V30 20035 H 1858.42 2.6001 2.98682 0
M  V30 20036 H 1859.59 4.52463 0.872559 0
M  V30 20037 H 1857.91 4.05576 0.943247 0
M  V30 20038 H 1860.5 3.84422 3.7165 0
M  V30 20039 H 1860.85 2.13781 3.57216 0
M  V30 20040 H 1861.38 3.25255 2.29029 0
M  V30 20041 H 1858.12 6.23751 2.01531 0
M  V30 20042 H 1857.64 5.04484 3.24432 0
M  V30 20043 H 1859.32 5.63554 3.17829 0
M  V30 20044 N 1859.45 -0.728395 1.39758 0
M  V30 20045 C 1860.67 -1.52268 1.40816 0
M  V30 20046 C 1861.1 -1.88099 0.00629167 0
M  V30 20047 O 1860.46 -1.52376 -0.982402 0
M  V30 20048 C 1860.51 -2.78262 2.29353 0
M  V30 20049 O 1859.61 -3.74453 1.72796 0
M  V30 20050 H 1858.95 -0.459582 0.47925 0
M  V30 20051 H 1861.48 -0.898132 1.83833 0
M  V30 20052 H 1861.49 -3.26927 2.44096 0
M  V30 20053 H 1860.17 -2.51515 3.31229 0
M  V30 20054 H 1858.74 -3.33248 1.67332 0
M  V30 20055 N 1860.93 -1.25042 -0.959279 0
M  V30 20056 C 1862.2 -1.00297 -1.67928 0
M  V30 20057 C 1862.58 0.47221 -2.05751 0
M  V30 20058 O 1861.93 1.44849 -1.76723 0
M  V30 20059 C 1862.14 -1.93416 -2.90502 0
M  V30 20060 C 1863.49 -2.20992 -3.62557 0
M  V30 20061 O 1864.51 -1.91136 -3.00575 0
M  V30 20062 O 1863.37 -2.71735 -4.74154 0
M  V30 20063 H 1860.47 -0.379984 -0.734535 0
M  V30 20064 H 1863.01 -1.36177 -1.01262 0
M  V30 20065 H 1861.79 -2.93045 -2.59308 0
M  V30 20066 H 1861.41 -1.57904 -3.649 0
M  V30 20067 N 1862.41 1.16121 -1.06553 0
M  V30 20068 C 1863.66 1.86055 -0.778871 0
M  V30 20069 C 1863.97 1.82747 0.697357 0
M  V30 20070 O 1865.17 2.48285 1.09849 0
M  V30 20071 C 1863.63 3.33897 -1.34315 0
M  V30 20072 C 1863.24 3.45673 -2.84981 0
M  V30 20073 C 1864.98 4.09069 -1.13415 0
M  V30 20074 C 1862.89 4.87616 -3.34641 0
M  V30 20075 H 1861.82 0.696963 -0.287678 0
M  V30 20076 H 1864.47 1.31038 -1.28458 0
M  V30 20077 H 1862.85 3.88536 -0.765208 0
M  V30 20078 H 1864.03 3.01181 -3.4875 0
M  V30 20079 H 1862.34 2.83938 -3.04579 0
M  V30 20080 H 1864.94 5.13809 -1.48002 0
M  V30 20081 H 1865.28 4.16237 -0.0726719 0
M  V30 20082 H 1865.81 3.60676 -1.67802 0
M  V30 20083 H 1862.55 4.85629 -4.40278 0
M  V30 20084 H 1862.07 5.32722 -2.75622 0
M  V30 20085 H 1863.75 5.56443 -3.30122 0
M  V30 20086 N 1863.88 0.848487 1.3281 0
M  V30 20087 C 1865.13 0.44797 1.97073 0
M  V30 20088 C 1865.45 -0.998358 1.67505 0
M  V30 20089 O 1864.72 -1.69683 0.97901 0
M  V30 20090 H 1863.3 0.162663 0.729075 0
M  V30 20091 H 1865.97 1.08356 1.62003 0
M  V30 20092 H 1865.06 0.587939 3.06512 0
M  V30 20093 N 1865.36 -1.4549 0.605832 0
M  V30 20094 C 1866.29 -2.3328 -0.101377 0
M  V30 20095 C 1867.27 -1.46727 -0.860543 0
M  V30 20096 O 1868.46 -1.75501 -0.831441 0
M  V30 20097 C 1865.59 -3.29403 -1.1005 0
M  V30 20098 C 1864.54 -4.25578 -0.45466 0
M  V30 20099 C 1863.87 -5.11379 -1.5619 0
M  V30 20100 C 1865.17 -5.18571 0.623028 0
M  V30 20101 H 1866.86 -2.92661 0.631653 0
M  V30 20102 H 1864.41 -1.40728 0.305208 0
M  V30 20103 H 1866.36 -3.89688 -1.60379 0
M  V30 20104 H 1865.09 -2.68177 -1.8641 0
M  V30 20105 H 1863.74 -3.66589 0.027752 0
M  V30 20106 H 1863.39 -4.46523 -2.31574 0
M  V30 20107 H 1863.09 -5.76528 -1.13529 0
M  V30 20108 H 1864.62 -5.74532 -2.0675 0
M  V30 20109 H 1866.03 -5.72937 0.203881 0
M  V30 20110 H 1864.43 -5.92187 0.971292 0
M  V30 20111 H 1865.5 -4.61106 1.50032 0
M  V30 20112 N 1866.84 -0.344893 -1.5378 0
M  V30 20113 C 1867.8 0.498781 -2.23707 0
M  V30 20114 C 1868.8 1.02649 -1.23773 0
M  V30 20115 O 1869.99 0.915526 -1.48202 0
M  V30 20116 C 1867.13 1.69497 -2.95776 0
M  V30 20117 H 1868.32 -0.112815 -2.99688 0
M  V30 20118 H 1865.87 -0.0962613 -1.56003 0
M  V30 20119 H 1866.61 2.34522 -2.23986 0
M  V30 20120 H 1866.39 1.32376 -3.69079 0
M  V30 20121 H 1867.88 2.29334 -3.48992 0
M  V30 20122 N 1868.32 1.57428 -0.0735454 0
M  V30 20123 C 1869.6 1.84962 0.636265 0
M  V30 20124 C 1869.98 0.966341 1.87683 0
M  V30 20125 O 1869.32 0.0330837 2.28476 0
M  V30 20126 C 1869.53 3.35184 0.972251 0
M  V30 20127 C 1870.88 4.02735 1.34499 0
M  V30 20128 O 1871.91 3.3994 1.06393 0
M  V30 20129 O 1870.76 5.13495 1.87043 0
M  V30 20130 H 1867.86 0.764169 0.316187 0
M  V30 20131 H 1870.4 1.69377 -0.104609 0
M  V30 20132 H 1869.18 3.91194 0.0912319 0
M  V30 20133 H 1868.8 3.56038 1.76983 0
M  V30 20134 N 1869.8 -0.200022 1.56326 0
M  V30 20135 C 1870.73 -1.25071 1.97179 0
M  V30 20136 C 1871.71 -1.4774 0.84303 0
M  V30 20137 O 1872.89 -1.5956 1.10699 0
M  V30 20138 C 1870.02 -2.596 2.30706 0
M  V30 20139 C 1868.98 -2.51552 3.46274 0
M  V30 20140 C 1868.3 -3.90309 3.65463 0
M  V30 20141 C 1869.6 -2.0448 4.80609 0
M  V30 20142 H 1871.3 -0.911238 2.85196 0
M  V30 20143 H 1868.84 -0.436899 1.37212 0
M  V30 20144 H 1870.8 -3.33281 2.5788 0
M  V30 20145 H 1869.52 -2.95278 1.39565 0
M  V30 20146 H 1868.18 -1.80327 3.19183 0
M  V30 20147 H 1867.83 -4.23331 2.71662 0
M  V30 20148 H 1867.53 -3.858 4.43207 0
M  V30 20149 H 1869.05 -4.65619 3.95008 0
M  V30 20150 H 1870.46 -2.67917 5.06847 0
M  V30 20151 H 1868.86 -2.10985 5.61788 0
M  V30 20152 H 1869.93 -0.997828 4.74522 0
M  V30 20153 N 1871.27 -1.50505 -0.467553 0
M  V30 20154 C 1872.69 -1.38009 -0.801599 0
M  V30 20155 C 1872.89 -0.43893 -1.96661 0
M  V30 20156 O 1871.95 0.117139 -2.52228 0
M  V30 20157 C 1873.26 -2.79449 -1.11034 0
M  V30 20158 C 1874.81 -2.88389 -1.21659 0
M  V30 20159 C 1875.28 -4.3067 -1.55844 0
M  V30 20160 N 1876.77 -4.33637 -1.62829 0
M  V30 20161 C 1877.51 -5.40727 -1.90791 0
M  V30 20162 N 1877 -6.58021 -2.16751 0
M  V30 20163 N 1878.8 -5.28175 -1.92323 0
M  V30 20164 H 1870.95 -2.10268 0.300165 0
M  V30 20165 H 1873.21 -0.945278 0.0717853 0
M  V30 20166 H 1872.92 -3.50173 -0.327326 0
M  V30 20167 H 1872.79 -3.16911 -2.04566 0
M  V30 20168 H 1875.18 -2.17881 -1.99027 0
M  V30 20169 H 1875.26 -2.54465 -0.260984 0
M  V30 20170 H 1874.9 -5.01716 -0.79014 0
M  V30 20171 H 1874.83 -4.62083 -2.5256 0
M  V30 20172 H 1877.32 -3.49061 -1.44793 0
M  V30 20173 H 1877.64 -7.35442 -2.37371 0
M  V30 20174 H 1875.98 -6.61189 -2.14136 0
M  V30 20175 H 1879.17 -4.35536 -1.71541 0
M  V30 20176 H 1879.35 -6.11721 -2.13779 0
M  V30 20177 N 1872.75 0.720973 -1.40142 0
M  V30 20178 C 1873.98 1.51519 -1.41622 0
M  V30 20179 C 1874.4 1.88093 -0.0162669 0
M  V30 20180 O 1873.76 1.52895 0.974307 0
M  V30 20181 C 1873.81 2.77041 -2.30826 0
M  V30 20182 O 1872.91 3.73532 -1.74779 0
M  V30 20183 H 1872.25 0.457034 -0.481681 0
M  V30 20184 H 1874.78 0.88837 -1.84307 0
M  V30 20185 H 1874.79 3.25628 -2.45826 0
M  V30 20186 H 1873.47 2.49755 -3.32558 0
M  V30 20187 H 1872.05 3.32356 -1.69097 0
M  V30 20188 N 1874.23 1.25549 0.952634 0
M  V30 20189 C 1875.18 1.06108 2.04963 0
M  V30 20190 C 1876.15 -0.0303872 1.66072 0
M  V30 20191 O 1877.33 0.127178 1.90376 0
M  V30 20192 C 1874.47 0.68799 3.38173 0
M  V30 20193 C 1873.59 1.85452 3.90168 0
M  V30 20194 C 1872.72 1.4256 5.11713 0
M  V30 20195 C 1871.76 2.56115 5.55942 0
M  V30 20196 N 1870.9 2.13984 6.68697 0
M  V30 20197 H 1875.74 1.99991 2.20925 0
M  V30 20198 H 1873.27 0.995895 1.08261 0
M  V30 20199 H 1875.23 0.452622 4.14737 0
M  V30 20200 H 1873.86 -0.213845 3.22091 0
M  V30 20201 H 1872.91 2.20314 3.10106 0
M  V30 20202 H 1874.23 2.70722 4.1894 0
M  V30 20203 H 1873.38 1.15 5.95701 0
M  V30 20204 H 1872.12 0.54365 4.8466 0
M  V30 20205 H 1871.12 2.84417 4.70518 0
M  V30 20206 H 1872.35 3.44891 5.85002 0
M  V30 20207 H 1870.29 1.28208 6.4335 0
M  V30 20208 H 1870.21 2.92801 6.96996 0
M  V30 20209 H 1871.48 1.89605 7.56089 0
M  V30 20210 N 1875.71 -1.15554 1.07168 0
M  V30 20211 C 1876.64 -2.22387 0.71178 0
M  V30 20212 C 1877.62 -1.67435 -0.299908 0
M  V30 20213 O 1878.8 -1.93427 -0.173073 0
M  V30 20214 C 1875.93 -3.47136 0.106815 0
M  V30 20215 C 1874.89 -4.15035 1.04545 0
M  V30 20216 C 1874.21 -5.33839 0.303337 0
M  V30 20217 C 1875.51 -4.65011 2.37827 0
M  V30 20218 H 1877.21 -2.52748 1.60496 0
M  V30 20219 H 1874.75 -1.21485 0.773139 0
M  V30 20220 H 1876.71 -4.21108 -0.15689 0
M  V30 20221 H 1875.43 -3.16101 -0.821429 0
M  V30 20222 H 1874.09 -3.43001 1.29405 0
M  V30 20223 H 1873.74 -4.9906 -0.628308 0
M  V30 20224 H 1873.44 -5.8021 0.928964 0
M  V30 20225 H 1874.96 -6.10582 0.0473869 0
M  V30 20226 H 1876.38 -5.3052 2.17305 0
M  V30 20227 H 1874.77 -5.22038 2.95967 0
M  V30 20228 H 1875.84 -3.80748 3.00264 0
M  V30 20229 N 1877.19 -0.855519 -1.32358 0
M  V30 20230 C 1878.41 -0.472456 -2.01947 0
M  V30 20231 C 1878.84 0.923482 -1.6387 0
M  V30 20232 O 1878.2 1.60677 -0.839799 0
M  V30 20233 C 1878.24 -0.620081 -3.55229 0
M  V30 20234 O 1877.35 0.34676 -4.1094 0
M  V30 20235 H 1876.69 -0.189756 -0.636309 0
M  V30 20236 H 1879.22 -1.15495 -1.68885 0
M  V30 20237 H 1879.23 -0.507933 -4.04826 0
M  V30 20238 H 1877.9 -1.63802 -3.82285 0
M  V30 20239 H 1876.48 0.190778 -3.72412 0
M  V30 20240 N 1878.67 1.45167 -0.61354 0
M  V30 20241 C 1879.91 2.01407 -0.10861 0
M  V30 20242 C 1880.23 1.48701 1.27072 0
M  V30 20243 O 1881.43 1.96956 1.8687 0
M  V30 20244 C 1879.89 3.59614 -0.143466 0
M  V30 20245 C 1879.5 4.21317 -1.52302 0
M  V30 20246 C 1881.24 4.23396 0.305912 0
M  V30 20247 C 1879.15 5.71694 -1.51393 0
M  V30 20248 H 1878.08 0.7531 -0.0368359 0
M  V30 20249 H 1880.73 1.66575 -0.769748 0
M  V30 20250 H 1879.11 3.91664 0.584438 0
M  V30 20251 H 1880.29 4.00832 -2.2731 0
M  V30 20252 H 1878.6 3.69753 -1.91499 0
M  V30 20253 H 1881.2 5.33668 0.331977 0
M  V30 20254 H 1881.54 3.9449 1.32978 0
M  V30 20255 H 1882.07 3.96086 -0.36892 0
M  V30 20256 H 1878.81 6.05308 -2.5156 0
M  V30 20257 H 1878.33 5.94353 -0.80652 0
M  V30 20258 H 1880.01 6.35003 -1.24017 0
M  V30 20259 N 1880.14 0.353044 1.53595 0
M  V30 20260 C 1881.39 -0.2416 2.00248 0
M  V30 20261 C 1881.71 -1.5089 1.24465 0
M  V30 20262 O 1882.91 -2.18137 1.61643 0
M  V30 20263 C 1881.37 -0.481075 3.5667 0
M  V30 20264 C 1880.98 0.77087 4.41318 0
M  V30 20265 C 1882.72 -1.03406 4.11713 0
M  V30 20266 C 1880.63 0.501671 5.89268 0
M  V30 20267 H 1879.56 -0.0940573 0.74811 0
M  V30 20268 H 1882.21 0.469845 1.77383 0
M  V30 20269 H 1880.59 -1.25346 3.75639 0
M  V30 20270 H 1881.76 1.54509 4.34124 0
M  V30 20271 H 1880.08 1.24617 3.97315 0
M  V30 20272 H 1882.68 -1.25058 5.1987 0
M  V30 20273 H 1883.02 -1.99245 3.65523 0
M  V30 20274 H 1883.55 -0.322144 3.96493 0
M  V30 20275 H 1880.29 1.43005 6.39711 0
M  V30 20276 H 1879.81 -0.234284 5.99342 0
M  V30 20277 H 1881.49 0.122468 6.46884 0
M  V30 20278 N 1881.62 -1.57387 0.0818932 0
M  V30 20279 C 1883.03 -1.81214 -0.449254 0
M  V30 20280 C 1883.38 -0.996563 -1.69006 0
M  V30 20281 O 1882.51 -0.22203 -2.15258 0
M  V30 20282 C 1883.1 -3.28681 -0.821827 0
M  V30 20283 C 1881.66 -3.53319 -1.29779 0
M  V30 20284 C 1880.81 -2.75801 -0.287911 0
M  V30 20285 H 1883.76 -1.55693 0.307486 0
M  V30 20286 H 1883.78 -3.41283 -1.68245 0
M  V30 20287 H 1883.29 -3.88015 0.081441 0
M  V30 20288 H 1881.39 -2.99302 -2.21921 0
M  V30 20289 H 1881.51 -4.61996 -1.26874 0
M  V30 20290 H 1879.87 -2.42867 -0.76731 0
M  V30 20291 H 1880.65 -3.37877 0.607805 0
M  V30 20292 N 1883.1 0.191729 -1.56429 0
M  V30 20293 C 1884.03 1.26174 -1.91345 0
M  V30 20294 C 1885.04 1.41536 -0.804451 0
M  V30 20295 O 1886.23 1.41902 -1.08287 0
M  V30 20296 C 1883.33 2.63341 -2.13319 0
M  V30 20297 C 1882.51 2.69543 -3.44479 0
M  V30 20298 C 1881.57 3.87929 -3.55524 0
M  V30 20299 O 1880.59 3.74875 -4.28319 0
M  V30 20300 N 1881.79 5.03527 -2.88861 0
M  V30 20301 H 1884.56 0.965364 -2.83727 0
M  V30 20302 H 1882.12 0.381628 -1.57338 0
M  V30 20303 H 1884.11 3.40971 -2.17993 0
M  V30 20304 H 1882.68 2.85452 -1.2742 0
M  V30 20305 H 1881.9 1.78161 -3.51642 0
M  V30 20306 H 1883.19 2.7068 -4.30824 0
M  V30 20307 H 1882.59 5.17032 -2.29553 0
M  V30 20308 H 1881.14 5.79092 -2.99159 0
M  V30 20309 N 1884.58 1.50751 0.459565 0
M  V30 20310 C 1885.49 1.7326 1.58171 0
M  V30 20311 C 1886.5 0.616042 1.6273 0
M  V30 20312 O 1887.68 0.895726 1.80385 0
M  V30 20313 C 1884.74 1.83249 2.94314 0
M  V30 20314 C 1883.81 3.07031 3.00051 0
M  V30 20315 C 1883.04 3.16534 4.297 0
M  V30 20316 O 1883.26 2.32532 5.2085 0
M  V30 20317 O 1882.2 4.0935 4.41266 0
M  V30 20318 H 1886.02 2.68406 1.42098 0
M  V30 20319 H 1883.61 1.34985 0.640273 0
M  V30 20320 H 1885.49 1.91933 3.75153 0
M  V30 20321 H 1884.16 0.912887 3.10561 0
M  V30 20322 H 1883.07 3.0384 2.18248 0
M  V30 20323 H 1884.4 3.98608 2.88743 0
M  V30 20324 N 1886.06 -0.713531 1.40522 0
M  V30 20325 C 1887.47 -1.29276 1.34702 0
M  V30 20326 C 1887.82 -1.96188 0.0214862 0
M  V30 20327 O 1886.94 -1.97676 -0.880513 0
M  V30 20328 C 1887.54 -2.35082 2.43971 0
M  V30 20329 C 1886.1 -2.88624 2.41605 0
M  V30 20330 C 1885.24 -1.62437 2.24743 0
M  V30 20331 H 1888.19 -0.509517 1.50298 0
M  V30 20332 H 1888.22 -3.15971 2.11996 0
M  V30 20333 H 1887.73 -1.86353 3.40432 0
M  V30 20334 H 1885.83 -3.41578 1.48847 0
M  V30 20335 H 1885.94 -3.40278 3.37265 0
M  V30 20336 H 1884.31 -1.8758 1.72296 0
M  V30 20337 H 1885.09 -1.1573 3.23205 0
M  V30 20338 N 1887.53 -1.26053 -0.945962 0
M  V30 20339 C 1888.78 -1.1148 -1.69411 0
M  V30 20340 C 1889.11 0.341927 -1.91166 0
M  V30 20341 O 1888.39 1.2515 -1.48888 0
M  V30 20342 C 1888.67 -1.87915 -3.07181 0
M  V30 20343 C 1888.52 -3.41466 -2.92781 0
M  V30 20344 C 1889.84 -1.66917 -4.07218 0
M  V30 20345 H 1886.96 -0.406361 -0.614849 0
M  V30 20346 H 1889.6 -1.54991 -1.099 0
M  V30 20347 H 1887.75 -1.50934 -3.57982 0
M  V30 20348 H 1889.43 -3.88172 -2.49238 0
M  V30 20349 H 1887.67 -3.68735 -2.2851 0
M  V30 20350 H 1888.34 -3.90171 -3.90475 0
M  V30 20351 H 1890.82 -1.99127 -3.6536 0
M  V30 20352 H 1889.69 -2.22821 -5.01639 0
M  V30 20353 H 1889.95 -0.612576 -4.37835 0
M  V30 20354 N 1889.01 1.14984 -1.07779 0
M  V30 20355 C 1889.94 2.22006 -0.723564 0
M  V30 20356 C 1890.92 1.67592 0.291024 0
M  V30 20357 O 1892.11 1.93516 0.162812 0
M  V30 20358 C 1889.24 3.47074 -0.125223 0
M  V30 20359 C 1888.19 4.14475 -1.06745 0
M  V30 20360 C 1887.52 5.33671 -0.331643 0
M  V30 20361 C 1888.82 4.63744 -2.4029 0
M  V30 20362 H 1890.51 2.51893 -1.61834 0
M  V30 20363 H 1888.06 1.21073 -0.779571 0
M  V30 20364 H 1890.01 4.21185 0.134555 0
M  V30 20365 H 1888.73 3.16533 0.804654 0
M  V30 20366 H 1887.39 3.4231 -1.31222 0
M  V30 20367 H 1887.04 4.99387 0.601833 0
M  V30 20368 H 1886.74 5.7971 -0.959721 0
M  V30 20369 H 1888.27 6.10548 -0.0797668 0
M  V30 20370 H 1889.68 5.2936 -2.20115 0
M  V30 20371 H 1888.08 5.20461 -2.98732 0
M  V30 20372 H 1889.15 3.79151 -3.02279 0
M  V30 20373 N 1890.49 0.862526 1.31902 0
M  V30 20374 C 1891.74 0.469775 1.96976 0
M  V30 20375 C 1892.06 -0.976339 1.6822 0
M  V30 20376 O 1891.32 -1.70131 0.967153 0
M  V30 20377 C 1891.62 0.664872 3.51161 0
M  V30 20378 C 1891.28 2.08264 3.99921 0
M  V30 20379 C 1889.95 2.47039 4.12947 0
M  V30 20380 C 1892.3 3.00762 4.25666 0
M  V30 20381 C 1889.63 3.77568 4.49065 0
M  V30 20382 C 1891.98 4.30797 4.63245 0
M  V30 20383 C 1890.64 4.69496 4.74478 0
M  V30 20384 H 1889.91 0.171903 0.720785 0
M  V30 20385 H 1892.56 1.09409 1.57169 0
M  V30 20386 H 1890.86 -0.0426255 3.91777 0
M  V30 20387 H 1892.56 0.340921 3.99548 0
M  V30 20388 H 1889.15 1.77158 3.90273 0
M  V30 20389 H 1893.34 2.72034 4.15104 0
M  V30 20390 H 1888.59 4.07323 4.55958 0
M  V30 20391 H 1892.77 5.02527 4.8212 0
M  V30 20392 H 1890.39 5.70682 5.02221 0
M  V30 20393 N 1891.97 -1.4484 0.62123 0
M  V30 20394 C 1893.19 -2.07012 0.126801 0
M  V30 20395 C 1893.62 -1.46046 -1.18542 0
M  V30 20396 O 1892.98 -0.558202 -1.72493 0
M  V30 20397 C 1893.02 -3.60597 0.0150611 0
M  V30 20398 O 1892.13 -3.9929 -1.03157 0
M  V30 20399 H 1891.47 -0.659131 0.0802646 0
M  V30 20400 H 1894 -1.85874 0.855105 0
M  V30 20401 H 1894.01 -4.07608 -0.178742 0
M  V30 20402 H 1892.68 -4.04354 0.973153 0
M  V30 20403 H 1891.26 -3.63927 -0.813135 0
M  V30 20404 N 1893.45 -0.361184 -1.53405 0
M  V30 20405 C 1894.69 0.229427 -2.00794 0
M  V30 20406 C 1895.02 1.49642 -1.25029 0
M  V30 20407 O 1894.29 1.9252 -0.362333 0
M  V30 20408 H 1892.87 0.0877687 -0.741826 0
M  V30 20409 H 1895.53 -0.486406 -1.88733 0
M  V30 20410 H 1894.62 0.459504 -3.08699 0
M  V30 20411 N 1894.92 1.57341 -0.0902386 0
M  V30 20412 C 1896.15 1.98513 0.583126 0
M  V30 20413 C 1896.57 0.969208 1.62024 0
M  V30 20414 O 1895.92 -0.041815 1.82452 0
M  V30 20415 C 1895.98 3.39743 1.2352 0
M  V30 20416 O 1895.7 4.37444 0.239568 0
M  V30 20417 C 1897.2 3.9589 1.99463 0
M  V30 20418 H 1894.42 0.652446 0.156701 0
M  V30 20419 H 1896.96 2.03808 -0.168092 0
M  V30 20420 H 1895.12 3.35477 1.93738 0
M  V30 20421 H 1895.53 5.19677 0.709619 0
M  V30 20422 H 1897 4.96876 2.40454 0
M  V30 20423 H 1897.48 3.33441 2.85856 0
M  V30 20424 H 1898.09 4.03615 1.34072 0
M  V30 20425 N 1896.4 -0.183431 1.56529 0
M  V30 20426 C 1897.65 -0.903332 1.8157 0
M  V30 20427 C 1897.98 -1.82417 0.666167 0
M  V30 20428 O 1897.26 -1.91635 -0.332621 0
M  V30 20429 C 1897.54 -1.70949 3.16936 0
M  V30 20430 C 1897.39 -0.812595 4.42399 0
M  V30 20431 C 1898.71 -2.6797 3.49113 0
M  V30 20432 H 1895.83 -0.326961 0.660504 0
M  V30 20433 H 1898.47 -0.170115 1.89237 0
M  V30 20434 H 1896.62 -2.33458 3.10531 0
M  V30 20435 H 1898.29 -0.201313 4.60861 0
M  V30 20436 H 1896.54 -0.119949 4.33634 0
M  V30 20437 H 1897.21 -1.4119 5.33638 0
M  V30 20438 H 1899.68 -2.15591 3.55893 0
M  V30 20439 H 1898.56 -3.21451 4.44927 0
M  V30 20440 H 1898.82 -3.47584 2.73199 0
M  V30 20441 N 1897.88 -1.50992 -0.451564 0
M  V30 20442 C 1899.3 -1.38852 -0.786916 0
M  V30 20443 C 1899.5 -0.459764 -1.96185 0
M  V30 20444 O 1898.55 0.0903799 -2.52338 0
M  V30 20445 C 1899.87 -2.80611 -1.08064 0
M  V30 20446 C 1901.41 -2.89663 -1.18593 0
M  V30 20447 C 1901.89 -4.32299 -1.51267 0
M  V30 20448 N 1903.38 -4.3534 -1.5822 0
M  V30 20449 C 1904.11 -5.42721 -1.85046 0
M  V30 20450 N 1903.61 -6.60282 -2.09759 0
M  V30 20451 N 1905.4 -5.30185 -1.8671 0
M  V30 20452 H 1897.55 -2.09938 0.32245 0
M  V30 20453 H 1899.82 -0.944464 0.0818072 0
M  V30 20454 H 1899.52 -3.50501 -0.290167 0
M  V30 20455 H 1899.4 -3.19063 -2.01193 0
M  V30 20456 H 1901.78 -2.1998 -1.96705 0
M  V30 20457 H 1901.87 -2.54728 -0.23398 0
M  V30 20458 H 1901.51 -5.02526 -0.736882 0
M  V30 20459 H 1901.44 -4.64736 -2.47645 0
M  V30 20460 H 1903.93 -3.50577 -1.41082 0
M  V30 20461 H 1904.24 -7.37918 -2.29557 0
M  V30 20462 H 1902.59 -6.63423 -2.07111 0
M  V30 20463 H 1905.78 -4.3733 -1.66912 0
M  V30 20464 H 1905.95 -6.13954 -2.07279 0
M  V30 20465 N 1899.36 0.706069 -1.40899 0
M  V30 20466 C 1900.58 1.50008 -1.43221 0
M  V30 20467 C 1901.01 1.88065 -0.0362158 0
M  V30 20468 O 1900.37 1.5392 0.958036 0
M  V30 20469 C 1900.41 2.74578 -2.33751 0
M  V30 20470 O 1899.52 3.71657 -1.78731 0
M  V30 20471 H 1898.86 0.451899 -0.486501 0
M  V30 20472 H 1901.39 0.868772 -1.85239 0
M  V30 20473 H 1901.4 3.23002 -2.49266 0
M  V30 20474 H 1900.07 2.46214 -3.35189 0
M  V30 20475 H 1898.65 3.30544 -1.72612 0
M  V30 20476 N 1900.84 1.26553 0.939264 0
M  V30 20477 C 1901.78 1.08092 2.05958 0
M  V30 20478 C 1902.78 0.00730279 1.69398 0
M  V30 20479 O 1903.98 0.164131 1.7925 0
M  V30 20480 H 1900.36 0.33271 0.674394 0
M  V30 20481 H 1902.33 2.03032 2.18679 0
M  V30 20482 C 1901.08 0.732672 3.39893 0
M  V30 20483 H 1900.4 1.55067 3.68503 0
M  V30 20484 H 1901.84 0.643305 4.19091 0
M  V30 20485 C 1900.3 -0.5623 3.32174 0
M  V30 20486 O 1900.83 -1.60007 3.68457 0
M  V30 20487 N 1899.04 -0.553643 2.85277 0
M  V30 20488 H 1898.58 0.291265 2.55948 0
M  V30 20489 H 1898.54 -1.4202 2.80495 0
M  V30 20490 N 1902.31 -1.14411 1.08387 0
M  V30 20491 C 1903.24 -2.21619 0.735327 0
M  V30 20492 C 1904.23 -1.67744 -0.282132 0
M  V30 20493 O 1905.41 -1.936 -0.152547 0
M  V30 20494 C 1902.54 -3.47003 0.143628 0
M  V30 20495 C 1901.49 -4.13903 1.08941 0
M  V30 20496 C 1900.82 -5.33487 0.359941 0
M  V30 20497 C 1902.12 -4.62463 2.42746 0
M  V30 20498 H 1903.81 -2.51031 1.63168 0
M  V30 20499 H 1901.36 -1.20658 0.785981 0
M  V30 20500 H 1903.31 -4.21251 -0.112217 0
M  V30 20501 H 1902.04 -3.16955 -0.787856 0
M  V30 20502 H 1900.7 -3.4161 1.33035 0
M  V30 20503 H 1900.34 -4.99699 -0.57534 0
M  V30 20504 H 1900.04 -5.79192 0.990451 0
M  V30 20505 H 1901.57 -6.10497 0.112145 0
M  V30 20506 H 1902.98 -5.28185 2.22919 0
M  V30 20507 H 1901.38 -5.18869 3.01488 0
M  V30 20508 H 1902.45 -3.77542 3.04286 0
M  V30 20509 N 1903.79 -0.869509 -1.31443 0
M  V30 20510 C 1905.07 -0.400903 -1.91447 0
M  V30 20511 C 1905.45 1.117 -1.79127 0
M  V30 20512 O 1904.8 1.94536 -1.19866 0
M  V30 20513 C 1905.01 -0.881767 -3.37677 0
M  V30 20514 C 1906.36 -0.90763 -4.14786 0
M  V30 20515 O 1907.38 -0.82739 -3.46457 0
M  V30 20516 O 1906.24 -1.02365 -5.36827 0
M  V30 20517 H 1903.33 -0.119842 -0.818271 0
M  V30 20518 H 1905.88 -0.957391 -1.40115 0
M  V30 20519 H 1904.65 -1.92533 -3.40657 0
M  V30 20520 H 1904.27 -0.303565 -3.96439 0
M  V30 20521 N 1905.27 1.44508 -0.628902 0
M  V30 20522 C 1906.68 1.85457 -0.215122 0
M  V30 20523 C 1907.03 1.52619 1.23296 0
M  V30 20524 O 1906.16 0.963178 1.93783 0
M  V30 20525 C 1906.75 3.36621 -0.383645 0
M  V30 20526 C 1905.31 3.76392 -0.0243904 0
M  V30 20527 C 1904.46 2.68369 -0.698081 0
M  V30 20528 H 1907.41 1.35006 -0.834208 0
M  V30 20529 H 1907.43 3.78617 0.378049 0
M  V30 20530 H 1906.94 3.6049 -1.43767 0
M  V30 20531 H 1905.04 3.58139 1.02798 0
M  V30 20532 H 1905.16 4.7714 -0.432898 0
M  V30 20533 H 1903.52 2.54349 -0.133605 0
M  V30 20534 H 1904.3 2.95071 -1.75465 0
M  V30 20535 N 1906.75 0.369315 1.53212 0
M  V30 20536 C 1908 -0.219209 2.0131 0
M  V30 20537 C 1908.32 -1.48469 1.25647 0
M  V30 20538 O 1907.58 -1.92734 0.339443 0
M  V30 20539 C 1907.88 -0.553392 3.5309 0
M  V30 20540 C 1907.54 0.618198 4.46642 0
M  V30 20541 C 1906.21 0.939656 4.71936 0
M  V30 20542 C 1908.56 1.40294 5.01963 0
M  V30 20543 C 1905.89 2.04776 5.49803 0
M  V30 20544 C 1908.24 2.50149 5.81041 0
M  V30 20545 C 1906.9 2.82826 6.0462 0
M  V30 20546 H 1906.17 -0.0802141 0.736646 0
M  V30 20547 H 1908.82 0.502547 1.84788 0
M  V30 20548 H 1907.12 -1.35621 3.67579 0
M  V30 20549 H 1908.82 -1.02106 3.87783 0
M  V30 20550 H 1905.41 0.35762 4.27105 0
M  V30 20551 H 1909.6 1.16784 4.82364 0
M  V30 20552 H 1904.85 2.30487 5.66291 0
M  V30 20553 H 1909.03 3.1137 6.22914 0
M  V30 20554 H 1906.65 3.68812 6.64742 0
M  V30 20555 N 1908.23 -1.57291 0.0985816 0
M  V30 20556 C 1909.18 -2.1545 -0.876584 0
M  V30 20557 C 1910.17 -1.09827 -1.28974 0
M  V30 20558 O 1911.38 -1.28166 -1.26386 0
M  V30 20559 H 1907.75 -0.689252 -0.300725 0
M  V30 20560 H 1909.72 -2.96204 -0.36139 0
M  V30 20561 C 1908.47 -2.75232 -2.12468 0
M  V30 20562 H 1907.79 -3.56194 -1.81565 0
M  V30 20563 H 1909.23 -3.19489 -2.78752 0
M  V30 20564 C 1907.69 -1.71298 -2.90101 0
M  V30 20565 O 1908.22 -1.15402 -3.84767 0
M  V30 20566 N 1906.43 -1.41709 -2.53706 0
M  V30 20567 H 1905.98 -1.87354 -1.76794 0
M  V30 20568 H 1905.93 -0.724072 -3.05949 0
M  V30 20569 N 1909.71 0.175127 -1.56624 0
M  V30 20570 C 1910.64 1.24137 -1.92672 0
M  V30 20571 C 1911.65 1.40675 -0.819417 0
M  V30 20572 O 1912.84 1.40746 -1.09786 0
M  V30 20573 C 1909.94 2.61063 -2.161 0
M  V30 20574 C 1909.11 2.65874 -3.47318 0
M  V30 20575 C 1908.17 3.84136 -3.59619 0
M  V30 20576 O 1907.2 3.70311 -4.32271 0
M  V30 20577 N 1908.4 5.00435 -2.94186 0
M  V30 20578 H 1911.16 0.935217 -2.84735 0
M  V30 20579 H 1908.73 0.364919 -1.57734 0
M  V30 20580 H 1910.72 3.38639 -2.21597 0
M  V30 20581 H 1909.29 2.84085 -1.3044 0
M  V30 20582 H 1908.51 1.74422 -3.53512 0
M  V30 20583 H 1909.8 2.66096 -4.33671 0
M  V30 20584 H 1909.19 5.14568 -2.35024 0
M  V30 20585 H 1907.75 5.75886 -3.05284 0
M  V30 20586 N 1911.18 1.5123 0.44355 0
M  V30 20587 C 1912.41 1.67146 1.21432 0
M  V30 20588 C 1912.82 0.365681 1.85632 0
M  V30 20589 O 1912.16 -0.665141 1.71235 0
M  V30 20590 C 1912.23 2.72562 2.34415 0
M  V30 20591 C 1911.89 4.15341 1.90632 0
M  V30 20592 C 1912.89 5.00323 1.41325 0
M  V30 20593 C 1910.57 4.61409 1.98513 0
M  V30 20594 C 1912.57 6.29431 1.00476 0
M  V30 20595 C 1910.25 5.90515 1.57276 0
M  V30 20596 C 1911.25 6.74353 1.08339 0
M  V30 20597 O 1910.94 8.01046 0.676843 0
M  V30 20598 H 1910.67 0.564225 0.372325 0
M  V30 20599 H 1913.23 1.98375 0.532597 0
M  V30 20600 H 1911.46 2.36634 3.05845 0
M  V30 20601 H 1913.14 2.77419 2.96299 0
M  V30 20602 H 1913.91 4.65938 1.34636 0
M  V30 20603 H 1909.79 3.96279 2.3555 0
M  V30 20604 H 1913.33 6.94821 0.622093 0
M  V30 20605 H 1909.23 6.24415 1.63633 0
M  V30 20606 H 1910 8.14549 0.803247 0
M  V30 20607 N 1912.66 -0.698586 1.41271 0
M  V30 20608 C 1913.89 -1.48743 1.43816 0
M  V30 20609 C 1914.3 -1.88752 0.0425858 0
M  V30 20610 O 1913.66 -1.56584 -0.937425 0
M  V30 20611 C 1913.71 -2.75192 2.34418 0
M  V30 20612 O 1913.43 -2.36869 3.68544 0
M  V30 20613 C 1914.93 -3.68957 2.45735 0
M  V30 20614 H 1912.15 -0.458477 0.489938 0
M  V30 20615 H 1914.7 -0.860372 1.85521 0
M  V30 20616 H 1912.85 -3.34142 1.9603 0
M  V30 20617 H 1913.27 -3.18354 4.16834 0
M  V30 20618 H 1914.74 -4.54473 3.13302 0
M  V30 20619 H 1915.22 -4.13237 1.48767 0
M  V30 20620 H 1915.82 -3.15912 2.84745 0
M  V30 20621 N 1914.14 -1.27049 -0.93254 0
M  V30 20622 C 1915.05 -1.11156 -2.06595 0
M  V30 20623 C 1916.07 -0.0428245 -1.73947 0
M  V30 20624 O 1917.24 -0.248326 -1.99863 0
M  V30 20625 C 1914.31 -0.755297 -3.38373 0
M  V30 20626 C 1913.37 -1.90439 -3.84749 0
M  V30 20627 C 1912.6 -1.56502 -5.10238 0
M  V30 20628 O 1912.82 -0.470696 -5.68455 0
M  V30 20629 O 1911.76 -2.40262 -5.51868 0
M  V30 20630 H 1915.58 -2.0626 -2.22914 0
M  V30 20631 H 1913.17 -1.06191 -1.05089 0
M  V30 20632 H 1915.05 -0.569728 -4.17531 0
M  V30 20633 H 1913.73 0.166262 -3.23273 0
M  V30 20634 H 1912.63 -2.14498 -3.06499 0
M  V30 20635 H 1913.97 -2.80598 -4.04383 0
M  V30 20636 N 1915.62 1.13835 -1.08993 0
M  V30 20637 C 1916.89 1.81232 -0.735809 0
M  V30 20638 C 1917.27 1.96172 0.779737 0
M  V30 20639 O 1916.62 1.52629 1.70049 0
M  V30 20640 C 1916.83 3.16546 -1.46968 0
M  V30 20641 C 1918.18 3.91958 -1.6326 0
M  V30 20642 O 1919.2 3.26155 -1.43183 0
M  V30 20643 O 1918.06 5.09976 -1.96435 0
M  V30 20644 H 1915.16 0.783794 -0.26381 0
M  V30 20645 H 1917.7 1.20801 -1.19186 0
M  V30 20646 H 1916.48 3.00872 -2.50183 0
M  V30 20647 H 1916.1 3.84676 -1.00551 0
M  V30 20648 N 1917.1 0.876467 1.3098 0
M  V30 20649 C 1918.03 0.294228 2.27304 0
M  V30 20650 C 1919.04 -0.546404 1.53357 0
M  V30 20651 O 1920.23 -0.367339 1.74679 0
M  V30 20652 C 1917.33 -0.600972 3.33529 0
M  V30 20653 C 1916.5 0.208678 4.36902 0
M  V30 20654 C 1915.56 -0.615677 5.22586 0
M  V30 20655 O 1914.59 -0.0413981 5.69185 0
M  V30 20656 N 1915.79 -1.92644 5.47603 0
M  V30 20657 H 1918.55 1.12201 2.77905 0
M  V30 20658 H 1916.12 0.738597 1.44071 0
M  V30 20659 H 1918.11 -1.15831 3.8777 0
M  V30 20660 H 1916.68 -1.32943 2.82922 0
M  V30 20661 H 1915.9 0.947462 3.82644 0
M  V30 20662 H 1917.19 0.763998 5.03031 0
M  V30 20663 H 1916.58 -2.41605 5.11511 0
M  V30 20664 H 1915.14 -2.43141 6.04752 0
M  V30 20665 N 1918.57 -1.44173 0.636557 0
M  V30 20666 C 1919.82 -2.01209 0.140639 0
M  V30 20667 C 1920.14 -1.50704 -1.2469 0
M  V30 20668 O 1921.34 -1.99904 -1.83713 0
M  V30 20669 C 1919.8 -3.5934 0.20066 0
M  V30 20670 C 1919.41 -4.18841 1.58985 0
M  V30 20671 C 1921.15 -4.23829 -0.238514 0
M  V30 20672 C 1919.06 -5.69213 1.60469 0
M  V30 20673 H 1917.99 -0.752418 0.0488124 0
M  V30 20674 H 1920.64 -1.65329 0.796151 0
M  V30 20675 H 1919.02 -3.92544 -0.522054 0
M  V30 20676 H 1920.19 -3.97165 2.33658 0
M  V30 20677 H 1918.51 -3.66659 1.97357 0
M  V30 20678 H 1921.11 -5.34129 -0.247033 0
M  V30 20679 H 1921.45 -3.96556 -1.26685 0
M  V30 20680 H 1921.98 -3.95449 0.431887 0
M  V30 20681 H 1918.72 -6.01229 2.61158 0
M  V30 20682 H 1918.24 -5.92995 0.900975 0
M  V30 20683 H 1919.92 -6.3295 1.34104 0
M  V30 20684 N 1920.05 -0.377435 -1.53014 0
M  V30 20685 C 1921.3 0.201362 -2.02401 0
M  V30 20686 C 1921.65 1.45452 -1.25942 0
M  V30 20687 O 1920.95 1.88413 -0.347988 0
M  V30 20688 C 1921.14 0.534659 -3.53378 0
M  V30 20689 C 1920.97 -0.684647 -4.44458 0
M  V30 20690 C 1919.74 -1.20032 -4.90836 0
M  V30 20691 C 1921.94 -1.55343 -4.90279 0
M  V30 20692 N 1919.92 -2.37842 -5.65955 0
M  V30 20693 C 1921.29 -2.57806 -5.63858 0
M  V30 20694 C 1923.34 -1.57492 -4.72335 0
M  V30 20695 C 1922.05 -3.62288 -6.21401 0
M  V30 20696 C 1924.07 -2.60875 -5.30753 0
M  V30 20697 C 1923.44 -3.6206 -6.04228 0
M  V30 20698 H 1919.53 0.0360846 -0.781167 0
M  V30 20699 H 1922.12 -0.524652 -1.87498 0
M  V30 20700 H 1920.29 1.22974 -3.68418 0
M  V30 20701 H 1922.02 1.09958 -3.89476 0
M  V30 20702 H 1918.78 -0.763131 -4.67411 0
M  V30 20703 H 1919.2 -2.97418 -6.0817 0
M  V30 20704 H 1923.84 -0.806132 -4.15044 0
M  V30 20705 H 1921.56 -4.40042 -6.77782 0
M  V30 20706 H 1925.15 -2.63406 -5.18757 0
M  V30 20707 H 1924.03 -4.40745 -6.48624 0
M  V30 20708 N 1921.53 1.57237 -0.106922 0
M  V30 20709 C 1922.81 1.8627 0.596889 0
M  V30 20710 C 1923.19 1.00593 1.85591 0
M  V30 20711 O 1922.54 0.0815394 2.28354 0
M  V30 20712 C 1922.75 3.37171 0.900934 0
M  V30 20713 C 1924.09 4.05497 1.25926 0
M  V30 20714 O 1925.12 3.4212 0.99158 0
M  V30 20715 O 1923.98 5.17347 1.76109 0
M  V30 20716 H 1921.07 0.770704 0.299907 0
M  V30 20717 H 1923.62 1.69117 -0.140513 0
M  V30 20718 H 1922.39 3.91299 0.00823337 0
M  V30 20719 H 1922.01 3.59712 1.69391 0
M  V30 20720 N 1923.01 -0.166818 1.56715 0
M  V30 20721 C 1923.97 -1.19027 1.95871 0
M  V30 20722 C 1924.97 -1.36939 0.842877 0
M  V30 20723 O 1926.16 -1.34268 1.10985 0
M  V30 20724 C 1923.29 -2.55446 2.25743 0
M  V30 20725 H 1924.49 -0.854834 2.87459 0
M  V30 20726 H 1922.04 -0.409436 1.50842 0
M  V30 20727 H 1922.77 -2.93996 1.36884 0
M  V30 20728 H 1922.56 -2.4381 3.07081 0
M  V30 20729 H 1924.05 -3.29196 2.56943 0
M  V30 20730 N 1924.49 -1.51463 -0.435524 0
M  V30 20731 C 1925.42 -1.75856 -1.53613 0
M  V30 20732 C 1926.4 -0.608449 -1.58846 0
M  V30 20733 O 1927.58 -0.85135 -1.74544 0
M  V30 20734 C 1924.71 -1.88525 -2.91677 0
M  V30 20735 C 1923.67 -3.03972 -3.01305 0
M  V30 20736 C 1922.99 -3.01828 -4.41366 0
M  V30 20737 C 1924.29 -4.43905 -2.75219 0
M  V30 20738 H 1925.99 -2.68013 -1.33452 0
M  V30 20739 H 1923.53 -1.28968 -0.640564 0
M  V30 20740 H 1925.49 -2.04173 -3.68634 0
M  V30 20741 H 1924.21 -0.930179 -3.13074 0
M  V30 20742 H 1922.87 -2.88033 -2.26788 0
M  V30 20743 H 1922.52 -2.04095 -4.59733 0
M  V30 20744 H 1922.22 -3.79353 -4.48737 0
M  V30 20745 H 1923.74 -3.19572 -5.20294 0
M  V30 20746 H 1925.15 -4.60187 -3.41908 0
M  V30 20747 H 1923.55 -5.2315 -2.93998 0
M  V30 20748 H 1924.62 -4.53818 -1.70814 0
M  V30 20749 N 1925.96 0.691085 -1.4164 0
M  V30 20750 C 1926.87 1.83467 -1.46209 0
M  V30 20751 C 1927.89 1.70397 -0.352267 0
M  V30 20752 O 1929.07 1.92234 -0.60068 0
M  V30 20753 C 1926.13 3.19485 -1.34648 0
M  V30 20754 C 1925.19 3.44631 -2.55984 0
M  V30 20755 C 1924.43 4.7416 -2.44964 0
M  V30 20756 O 1924.65 5.50955 -1.47664 0
M  V30 20757 O 1923.58 5.0019 -3.34804 0
M  V30 20758 H 1927.41 1.82568 -2.42698 0
M  V30 20759 H 1924.99 0.844729 -1.23226 0
M  V30 20760 H 1926.88 4.00684 -1.30501 0
M  V30 20761 H 1925.55 3.21058 -0.41276 0
M  V30 20762 H 1924.46 2.63345 -2.65707 0
M  V30 20763 H 1925.79 3.47877 -3.48199 0
M  V30 20764 N 1927.44 1.27542 0.925789 0
M  V30 20765 C 1928.86 1.04988 1.20207 0
M  V30 20766 C 1929.06 -0.215359 2.00346 0
M  V30 20767 O 1928.11 -0.920331 2.3513 0
M  V30 20768 C 1929.43 2.2904 1.94836 0
M  V30 20769 C 1930.98 2.34098 2.07767 0
M  V30 20770 C 1931.45 3.57884 2.85802 0
M  V30 20771 N 1932.94 3.58453 2.93369 0
M  V30 20772 C 1933.68 4.50907 3.54218 0
M  V30 20773 N 1933.17 5.53667 4.16443 0
M  V30 20774 N 1934.97 4.38527 3.5164 0
M  V30 20775 H 1927.12 2.0878 0.390449 0
M  V30 20776 H 1929.38 0.918323 0.235346 0
M  V30 20777 H 1929.09 3.21151 1.4337 0
M  V30 20778 H 1928.96 2.34507 2.95442 0
M  V30 20779 H 1931.35 1.42492 2.58418 0
M  V30 20780 H 1931.43 2.32633 1.06375 0
M  V30 20781 H 1931.07 4.49828 2.35834 0
M  V30 20782 H 1931 3.56601 3.87484 0
M  V30 20783 H 1933.49 2.84138 2.49147 0
M  V30 20784 H 1933.81 6.20377 4.60817 0
M  V30 20785 H 1932.15 5.57507 4.14983 0
M  V30 20786 H 1935.34 3.57455 3.0223 0
M  V30 20787 H 1935.51 5.10769 3.98772 0
M  V30 20788 N 1928.92 -1.13255 1.09595 0
M  V30 20789 C 1930.15 -1.88411 0.854927 0
M  V30 20790 C 1930.56 -1.79214 -0.593949 0
M  V30 20791 O 1929.92 -1.15995 -1.40895 0
M  V30 20792 C 1929.97 -3.37946 1.28353 0
M  V30 20793 O 1929.69 -3.46907 2.67558 0
M  V30 20794 C 1931.19 -4.30065 1.07514 0
M  V30 20795 H 1928.41 -0.596416 0.307455 0
M  V30 20796 H 1930.96 -1.43358 1.45838 0
M  V30 20797 H 1929.11 -3.80576 0.72393 0
M  V30 20798 H 1929.53 -4.39878 2.8567 0
M  V30 20799 H 1931 -5.33309 1.42428 0
M  V30 20800 H 1931.48 -4.39198 0.0130611 0
M  V30 20801 H 1932.08 -3.93206 1.62077 0
M  V30 20802 N 1930.4 -0.883401 -1.30514 0
M  V30 20803 C 1931.35 -0.320484 -2.25736 0
M  V30 20804 C 1932.33 0.550165 -1.51202 0
M  V30 20805 O 1933.52 0.394846 -1.7254 0
M  V30 20806 C 1930.65 0.465347 -3.40131 0
M  V30 20807 C 1929.74 -0.419301 -4.22022 0
M  V30 20808 N 1930.13 -1.51903 -4.82451 0
M  V30 20809 C 1928.43 -0.214132 -4.45486 0
M  V30 20810 C 1929.13 -2.06567 -5.43788 0
M  V30 20811 N 1928.11 -1.36084 -5.26291 0
M  V30 20812 H 1931.91 -1.1608 -2.70005 0
M  V30 20813 H 1929.42 -0.732634 -1.44935 0
M  V30 20814 H 1931.42 0.885249 -4.07393 0
M  V30 20815 H 1930.08 1.30312 -2.97403 0
M  V30 20816 H 1931.09 -1.90189 -4.81714 0
M  V30 20817 H 1927.77 0.586602 -4.13358 0
M  V30 20818 H 1929.16 -2.98909 -6.0175 0
M  V30 20819 N 1931.88 1.43833 -0.644194 0
M  V30 20820 C 1932.81 2.2797 0.102458 0
M  V30 20821 C 1933.79 1.39303 0.838652 0
M  V30 20822 O 1934.97 1.68745 0.840073 0
M  V30 20823 C 1932.1 3.18522 1.15157 0
M  V30 20824 C 1931.14 4.23386 0.51444 0
M  V30 20825 S 1931.98 5.30835 -0.705268 0
M  V30 20826 C 1933.13 6.24957 0.343531 0
M  V30 20827 H 1933.37 2.90948 -0.611277 0
M  V30 20828 H 1930.9 1.48211 -0.432753 0
M  V30 20829 H 1932.86 3.71241 1.75187 0
M  V30 20830 H 1931.52 2.54739 1.83757 0
M  V30 20831 H 1930.71 4.86812 1.305 0
M  V30 20832 H 1930.31 3.73998 -0.0115435 0
M  V30 20833 H 1932.61 6.66565 1.21235 0
M  V30 20834 H 1933.55 7.07639 -0.255473 0
M  V30 20835 H 1933.96 5.60446 0.675291 0
M  V30 20836 N 1933.35 0.385544 1.52811 0
M  V30 20837 C 1934.3 -0.451417 2.26342 0
M  V30 20838 C 1935.27 -1.06094 1.27801 0
M  V30 20839 O 1936.46 -1.08968 1.56623 0
M  V30 20840 C 1933.6 -1.57477 3.07075 0
M  V30 20841 C 1932.71 -0.988468 4.20539 0
M  V30 20842 C 1931.84 -2.08256 4.88675 0
M  V30 20843 C 1930.88 -1.47196 5.94138 0
M  V30 20844 N 1930.02 -2.5052 6.55884 0
M  V30 20845 H 1934.86 0.182092 2.97443 0
M  V30 20846 H 1932.4 0.101628 1.46749 0
M  V30 20847 H 1934.36 -2.23677 3.52171 0
M  V30 20848 H 1932.99 -2.17864 2.38191 0
M  V30 20849 H 1932.04 -0.216168 3.79785 0
M  V30 20850 H 1933.35 -0.502223 4.96265 0
M  V30 20851 H 1932.5 -2.82235 5.37055 0
M  V30 20852 H 1931.24 -2.60239 4.12464 0
M  V30 20853 H 1930.25 -0.717401 5.45099 0
M  V30 20854 H 1931.47 -0.960124 6.72279 0
M  V30 20855 H 1929.42 -3.0168 5.82516 0
M  V30 20856 H 1929.34 -2.0664 7.27211 0
M  V30 20857 H 1930.6 -3.24141 7.0891 0
M  V30 20858 N 1934.83 -1.57178 0.115259 0
M  V30 20859 C 1935.74 -2.18656 -0.850101 0
M  V30 20860 C 1936.76 -1.16164 -1.29545 0
M  V30 20861 O 1937.93 -1.48619 -1.35921 0
M  V30 20862 C 1935 -2.77089 -2.0838 0
M  V30 20863 C 1934.06 -3.94604 -1.69074 0
M  V30 20864 C 1933.29 -4.50242 -2.86563 0
M  V30 20865 O 1933.52 -4.04782 -4.0188 0
M  V30 20866 O 1932.45 -5.4098 -2.63864 0
M  V30 20867 H 1936.28 -3.01595 -0.356934 0
M  V30 20868 H 1933.86 -1.48993 -0.110158 0
M  V30 20869 H 1935.74 -3.14353 -2.80642 0
M  V30 20870 H 1934.42 -1.97184 -2.56711 0
M  V30 20871 H 1933.33 -3.62116 -0.939308 0
M  V30 20872 H 1934.66 -4.75934 -1.25489 0
M  V30 20873 N 1936.31 0.158505 -1.56801 0
M  V30 20874 C 1937.55 0.879385 -1.84516 0
M  V30 20875 C 1937.92 1.78864 -0.697973 0
M  V30 20876 O 1939.12 2.5481 -0.855886 0
M  V30 20877 C 1937.39 1.64324 -3.17383 0
M  V30 20878 S 1938.95 2.41113 -3.6662 0
M  V30 20879 H 1935.76 0.29429 -0.647236 0
M  V30 20880 H 1938.37 0.14014 -1.94997 0
M  V30 20881 H 1937.07 0.966538 -3.98856 0
M  V30 20882 H 1936.6 2.42362 -3.09878 0
M  V30 20883 H 1938.62 3.66076 -3.34967 0
M  V30 20884 N 1937.79 1.51692 0.427485 0
M  V30 20885 C 1939.04 1.64079 1.17308 0
M  V30 20886 C 1939.35 0.367695 1.92113 0
M  V30 20887 O 1940.56 0.371083 2.68952 0
M  V30 20888 C 1939.01 2.89812 2.13394 0
M  V30 20889 C 1938.62 4.24161 1.44191 0
M  V30 20890 C 1940.37 3.11559 2.88325 0
M  V30 20891 C 1938.27 5.41036 2.38819 0
M  V30 20892 H 1937.2 0.611162 0.441584 0
M  V30 20893 H 1939.85 1.78167 0.439193 0
M  V30 20894 H 1938.24 2.6938 2.90259 0
M  V30 20895 H 1939.41 4.5501 0.72817 0
M  V30 20896 H 1937.72 4.08371 0.813739 0
M  V30 20897 H 1940.32 3.96051 3.59232 0
M  V30 20898 H 1940.66 2.25037 3.50234 0
M  V30 20899 H 1941.2 3.32376 2.18565 0
M  V30 20900 H 1937.94 6.29847 1.81585 0
M  V30 20901 H 1937.46 5.1455 3.08218 0
M  V30 20902 H 1939.14 5.73381 2.9974 0
M  V30 20903 N 1939.27 -0.683564 1.42004 0
M  V30 20904 C 1940.23 -1.77907 1.44505 0
M  V30 20905 C 1941.23 -1.57295 0.333889 0
M  V30 20906 O 1942.42 -1.63748 0.594323 0
M  V30 20907 C 1939.55 -3.16434 1.26815 0
M  V30 20908 H 1940.75 -1.7708 2.42039 0
M  V30 20909 H 1938.3 -0.892355 1.28323 0
M  V30 20910 H 1939.03 -3.22894 0.301695 0
M  V30 20911 H 1938.82 -3.32798 2.07335 0
M  V30 20912 H 1940.31 -3.96379 1.31428 0
M  V30 20913 N 1940.75 -1.28031 -0.919012 0
M  V30 20914 C 1941.68 -1.07305 -2.0253 0
M  V30 20915 C 1942.69 -0.0264063 -1.62779 0
M  V30 20916 O 1943.88 -0.268902 -1.76463 0
M  V30 20917 C 1940.98 -0.607467 -3.33411 0
M  V30 20918 C 1940.15 -1.72834 -4.01805 0
M  V30 20919 C 1939.21 -1.25703 -5.10965 0
M  V30 20920 O 1938.24 -1.9583 -5.34452 0
M  V30 20921 N 1939.44 -0.117374 -5.80381 0
M  V30 20922 H 1942.2 -2.02575 -2.2087 0
M  V30 20923 H 1939.77 -1.19713 -1.08997 0
M  V30 20924 H 1941.76 -0.275875 -4.03759 0
M  V30 20925 H 1940.33 0.252241 -3.11581 0
M  V30 20926 H 1939.55 -2.22979 -3.25075 0
M  V30 20927 H 1940.84 -2.48038 -4.44246 0
M  V30 20928 H 1940.23 0.467747 -5.63763 0
M  V30 20929 H 1938.79 0.154978 -6.51616 0
M  V30 20930 N 1942.22 1.12672 -1.10194 0
M  V30 20931 C 1943.15 2.20422 -0.770492 0
M  V30 20932 C 1944.13 1.68172 0.25541 0
M  V30 20933 O 1945.32 1.93818 0.121728 0
M  V30 20934 C 1942.45 3.4673 -0.198815 0
M  V30 20935 C 1941.4 4.12118 -1.15512 0
M  V30 20936 C 1940.73 5.32847 -0.444768 0
M  V30 20937 C 1942.03 4.58542 -2.50073 0
M  V30 20938 H 1943.72 2.48404 -1.67141 0
M  V30 20939 H 1941.27 1.19392 -0.805077 0
M  V30 20940 H 1943.22 4.21376 0.0451853 0
M  V30 20941 H 1941.95 3.18168 0.737331 0
M  V30 20942 H 1940.61 3.3945 -1.38453 0
M  V30 20943 H 1940.25 5.00551 0.49577 0
M  V30 20944 H 1939.95 5.77543 -1.08247 0
M  V30 20945 H 1941.48 6.10241 -0.209255 0
M  V30 20946 H 1942.89 5.24572 -2.31294 0
M  V30 20947 H 1941.29 5.14007 -3.09704 0
M  V30 20948 H 1942.36 3.72654 -3.10254 0
M  V30 20949 N 1943.7 0.89031 1.30043 0
M  V30 20950 C 1945.11 0.561241 1.78065 0
M  V30 20951 C 1945.46 -0.922791 1.73144 0
M  V30 20952 O 1944.59 -1.72124 1.31157 0
M  V30 20953 C 1945.18 1.01201 3.23332 0
M  V30 20954 C 1943.74 0.734261 3.69169 0
M  V30 20955 C 1942.89 1.19199 2.50373 0
M  V30 20956 H 1945.84 1.074 1.16838 0
M  V30 20957 H 1945.86 0.343251 3.78949 0
M  V30 20958 H 1945.37 2.09213 3.26881 0
M  V30 20959 H 1943.47 -0.33365 3.71103 0
M  V30 20960 H 1943.59 1.32556 4.60397 0
M  V30 20961 H 1941.95 0.6112 2.47258 0
M  V30 20962 H 1942.73 2.27997 2.56656 0
M  V30 20963 N 1945.18 -1.43489 0.651812 0
M  V30 20964 C 1946.11 -2.33484 -0.0271093 0
M  V30 20965 C 1947.09 -1.4939 -0.813427 0
M  V30 20966 O 1948.28 -1.78058 -0.775186 0
M  V30 20967 C 1945.41 -3.32737 -0.995143 0
M  V30 20968 C 1944.36 -4.26809 -0.319036 0
M  V30 20969 C 1943.69 -5.1609 -1.39842 0
M  V30 20970 C 1944.99 -5.16326 0.787692 0
M  V30 20971 H 1946.68 -2.90503 0.724441 0
M  V30 20972 H 1944.23 -1.39686 0.349826 0
M  V30 20973 H 1946.18 -3.94593 -1.479 0
M  V30 20974 H 1944.9 -2.73972 -1.77784 0
M  V30 20975 H 1943.56 -3.66316 0.144366 0
M  V30 20976 H 1943.21 -4.53664 -2.17251 0
M  V30 20977 H 1942.91 -5.79848 -0.951292 0
M  V30 20978 H 1944.43 -5.80819 -1.88367 0
M  V30 20979 H 1945.85 -5.71999 0.386053 0
M  V30 20980 H 1944.24 -5.88798 1.1592 0
M  V30 20981 H 1945.31 -4.56099 1.64626 0
M  V30 20982 N 1946.66 -0.393643 -1.52605 0
M  V30 20983 C 1947.6 0.439408 -2.26579 0
M  V30 20984 C 1948.57 1.05415 -1.28362 0
M  V30 20985 O 1949.76 1.08136 -1.57198 0
M  V30 20986 C 1946.9 1.55846 -3.07906 0
M  V30 20987 C 1946.01 0.966152 -4.21058 0
M  V30 20988 C 1945.15 2.05662 -4.89772 0
M  V30 20989 C 1944.19 1.44043 -5.9491 0
M  V30 20990 N 1943.32 2.47039 -6.57203 0
M  V30 20991 H 1948.16 -0.197864 -2.97342 0
M  V30 20992 H 1945.7 -0.109409 -1.46693 0
M  V30 20993 H 1947.66 2.21807 -3.53352 0
M  V30 20994 H 1946.29 2.16598 -2.39343 0
M  V30 20995 H 1945.34 0.196024 -3.79895 0
M  V30 20996 H 1946.65 0.475898 -4.96525 0
M  V30 20997 H 1945.81 2.79383 -5.38544 0
M  V30 20998 H 1944.55 2.58048 -4.13839 0
M  V30 20999 H 1943.55 0.688483 -5.45472 0
M  V30 21000 H 1944.78 0.924458 -6.72778 0
M  V30 21001 H 1942.72 2.98586 -5.84108 0
M  V30 21002 H 1942.64 2.02781 -7.28297 0
M  V30 21003 H 1943.91 3.20377 -7.10619 0
M  V30 21004 N 1948.14 1.57115 -0.123593 0
M  V30 21005 C 1949.07 2.18573 0.821462 0
M  V30 21006 C 1950.05 1.1271 1.27399 0
M  V30 21007 O 1951.23 1.40964 1.33577 0
M  V30 21008 C 1948.36 2.78879 2.06987 0
M  V30 21009 C 1947.32 3.90365 1.75497 0
M  V30 21010 C 1946.64 4.37499 3.07406 0
M  V30 21011 C 1947.94 5.12249 1.01972 0
M  V30 21012 H 1949.64 2.97798 0.309319 0
M  V30 21013 H 1947.18 1.43244 0.147338 0
M  V30 21014 H 1949.13 3.20534 2.73562 0
M  V30 21015 H 1947.86 1.96951 2.60534 0
M  V30 21016 H 1946.52 3.49293 1.1131 0
M  V30 21017 H 1946.17 3.52424 3.58896 0
M  V30 21018 H 1945.87 5.12682 2.87108 0
M  V30 21019 H 1947.39 4.81808 3.75091 0
M  V30 21020 H 1948.8 5.50894 1.58709 0
M  V30 21021 H 1947.2 5.93044 0.917526 0
M  V30 21022 H 1948.27 4.84899 0.00726173 0
M  V30 21023 N 1949.61 -0.150187 1.56883 0
M  V30 21024 C 1950.52 -1.20504 2.01286 0
M  V30 21025 C 1951.54 -1.47204 0.927733 0
M  V30 21026 O 1952.72 -1.58937 1.23697 0
M  V30 21027 C 1949.78 -2.51932 2.38184 0
M  V30 21028 C 1948.84 -2.32906 3.60629 0
M  V30 21029 C 1948.07 -3.58067 3.95757 0
M  V30 21030 O 1948.3 -4.64119 3.31587 0
M  V30 21031 O 1947.23 -3.5092 4.89018 0
M  V30 21032 H 1951.06 -0.858075 2.91326 0
M  V30 21033 H 1948.64 -0.358669 1.45031 0
M  V30 21034 H 1950.52 -3.29423 2.6279 0
M  V30 21035 H 1949.2 -2.86165 1.513 0
M  V30 21036 H 1948.11 -1.53377 3.41213 0
M  V30 21037 H 1949.44 -2.0359 4.4812 0
M  V30 21038 N 1951.09 -1.51916 -0.419434 0
M  V30 21039 C 1952.32 -1.69592 -1.19387 0
M  V30 21040 C 1952.74 -0.400225 -1.83793 0
M  V30 21041 O 1952.1 0.641368 -1.69576 0
M  V30 21042 C 1952.15 -2.8256 -2.24036 0
M  V30 21043 O 1951.25 -2.4741 -3.29942 0
M  V30 21044 H 1950.59 -0.564898 -0.348978 0
M  V30 21045 H 1953.12 -1.9857 -0.493064 0
M  V30 21046 H 1953.13 -3.07171 -2.68533 0
M  V30 21047 H 1951.81 -3.76572 -1.7654 0
M  V30 21048 H 1950.39 -2.33435 -2.90796 0
M  V30 21049 N 1952.57 0.676023 -1.42365 0
M  V30 21050 C 1953.48 1.81906 -1.48147 0
M  V30 21051 C 1954.5 1.70014 -0.37032 0
M  V30 21052 O 1955.67 1.91586 -0.621036 0
M  V30 21053 C 1952.74 3.18039 -1.38029 0
M  V30 21054 C 1951.8 3.41897 -2.59625 0
M  V30 21055 C 1951.03 4.71536 -2.4998 0
M  V30 21056 O 1951.25 5.49358 -1.535 0
M  V30 21057 O 1950.19 4.9661 -3.40091 0
M  V30 21058 H 1954.01 1.79984 -2.44621 0
M  V30 21059 H 1951.6 0.831611 -1.24115 0
M  V30 21060 H 1953.48 3.99277 -1.34743 0
M  V30 21061 H 1952.16 3.20602 -0.446789 0
M  V30 21062 H 1951.06 2.60512 -2.68485 0
M  V30 21063 H 1952.4 3.44164 -3.51869 0
M  V30 21064 N 1954.05 1.28517 0.912209 0
M  V30 21065 C 1955.29 1.15932 1.66396 0
M  V30 21066 C 1955.63 -0.291123 1.92006 0
M  V30 21067 O 1954.9 -1.21159 1.52154 0
M  V30 21068 C 1955.19 1.95993 3.0209 0
M  V30 21069 C 1955.04 3.49109 2.83625 0
M  V30 21070 C 1956.36 1.77655 4.0265 0
M  V30 21071 H 1953.48 0.42252 0.603859 0
M  V30 21072 H 1956.12 1.5785 1.05752 0
M  V30 21073 H 1954.27 1.60372 3.53855 0
M  V30 21074 H 1955.94 3.94644 2.38859 0
M  V30 21075 H 1954.18 3.74664 2.18653 0
M  V30 21076 H 1954.85 4.00386 3.79993 0
M  V30 21077 H 1957.33 2.08743 3.59952 0
M  V30 21078 H 1956.21 2.36043 4.95555 0
M  V30 21079 H 1956.47 0.728445 4.36057 0
M  V30 21080 N 1955.53 -1.12086 1.1079 0
M  V30 21081 C 1956.46 -2.17072 0.70392 0
M  V30 21082 C 1957.44 -1.59873 -0.296571 0
M  V30 21083 O 1958.62 -1.87493 -0.194599 0
M  V30 21084 C 1955.75 -3.38677 0.0392219 0
M  V30 21085 C 1954.79 -4.1452 1.00377 0
M  V30 21086 S 1955.63 -4.72343 2.52294 0
M  V30 21087 C 1956.78 -5.97279 1.87106 0
M  V30 21088 H 1957.02 -2.51004 1.59325 0
M  V30 21089 H 1954.55 -1.23605 0.925262 0
M  V30 21090 H 1956.51 -4.09107 -0.33795 0
M  V30 21091 H 1955.17 -3.03018 -0.82696 0
M  V30 21092 H 1954.36 -5.01651 0.486009 0
M  V30 21093 H 1953.96 -3.49817 1.32304 0
M  V30 21094 H 1956.26 -6.66726 1.20346 0
M  V30 21095 H 1957.2 -6.53688 2.72208 0
M  V30 21096 H 1957.61 -5.4851 1.33405 0
M  V30 21097 N 1957 -0.897194 -1.29569 0
M  V30 21098 C 1957.91 -0.377551 -2.31542 0
M  V30 21099 C 1958.93 0.526431 -1.65845 0
M  V30 21100 O 1960.11 0.416614 -1.97044 0
M  V30 21101 C 1957.17 0.388744 -3.44514 0
M  V30 21102 C 1956.23 -0.546458 -4.25808 0
M  V30 21103 C 1955.47 0.183361 -5.33385 0
M  V30 21104 O 1955.69 1.40767 -5.52757 0
M  V30 21105 O 1954.62 -0.472827 -6.0004 0
M  V30 21106 H 1958.45 -1.22348 -2.77965 0
M  V30 21107 H 1956.03 -0.661433 -1.33961 0
M  V30 21108 H 1957.92 0.822167 -4.13302 0
M  V30 21109 H 1956.59 1.21077 -3.00203 0
M  V30 21110 H 1955.5 -1.02894 -3.59671 0
M  V30 21111 H 1956.83 -1.33483 -4.73754 0
M  V30 21112 N 1958.48 1.43142 -0.659413 0
M  V30 21113 C 1959.43 2.32565 0.040254 0
M  V30 21114 C 1960.42 1.48961 0.806651 0
M  V30 21115 O 1961.63 1.65131 0.716353 0
M  V30 21116 H 1958.01 0.751327 0.0318053 0
M  V30 21117 H 1959.98 2.89293 -0.731581 0
M  V30 21118 C 1958.73 3.33349 0.988614 0
M  V30 21119 H 1958.05 3.9771 0.40831 0
M  V30 21120 H 1959.49 3.9854 1.44714 0
M  V30 21121 C 1957.95 2.64423 2.08763 0
M  V30 21122 O 1958.48 2.46444 3.17219 0
M  V30 21123 N 1956.68 2.23697 1.85494 0
M  V30 21124 H 1956.23 2.38519 0.972945 0
M  V30 21125 H 1956.19 1.7791 2.59221 0
M  V30 21126 N 1959.96 0.40173 1.52394 0
M  V30 21127 C 1961.21 -0.17611 2.01331 0
M  V30 21128 C 1961.53 -1.46274 1.28953 0
M  V30 21129 O 1960.8 -1.91492 0.413249 0
M  V30 21130 H 1959.38 -0.0680697 0.743892 0
M  V30 21131 H 1962.04 0.536274 1.87377 0
M  V30 21132 H 1961.14 -0.377497 3.09809 0
M  V30 21133 N 1961.44 -1.57047 0.131923 0
M  V30 21134 C 1962.72 -1.87196 -0.567179 0
M  V30 21135 C 1963.1 -1.03533 -1.83968 0
M  V30 21136 O 1962.44 -0.117858 -2.28196 0
M  V30 21137 C 1962.65 -3.38561 -0.847179 0
M  V30 21138 C 1964 -4.07449 -1.19459 0
M  V30 21139 O 1965.03 -3.43654 -0.937026 0
M  V30 21140 O 1963.88 -5.20083 -1.67856 0
M  V30 21141 H 1960.98 -0.775378 -0.287608 0
M  V30 21142 H 1963.52 -1.68872 0.167401 0
M  V30 21143 H 1962.3 -3.91263 0.05402 0
M  V30 21144 H 1961.92 -3.62361 -1.63647 0
M  V30 21145 N 1962.92 0.141865 -1.5696 0
M  V30 21146 C 1963.86 1.19416 -1.99606 0
M  V30 21147 C 1964.86 1.44182 -0.889268 0
M  V30 21148 O 1966.06 1.44414 -1.07446 0
M  V30 21149 H 1962.44 0.402085 -0.635477 0
M  V30 21150 H 1964.41 0.80782 -2.87257 0
M  V30 21151 C 1963.16 2.51868 -2.39704 0
M  V30 21152 H 1962.48 2.33642 -3.24425 0
M  V30 21153 H 1963.92 3.24113 -2.73362 0
M  V30 21154 C 1962.38 3.12785 -1.25169 0
M  V30 21155 O 1962.91 3.97845 -0.555208 0
M  V30 21156 N 1961.12 2.72312 -1.01461 0
M  V30 21157 H 1960.66 2.0324 -1.58276 0
M  V30 21158 H 1960.62 3.13403 -0.250181 0
M  V30 21159 N 1964.39 1.52136 0.411372 0
M  V30 21160 C 1965.64 1.66085 1.15853 0
M  V30 21161 C 1965.97 0.38968 1.90556 0
M  V30 21162 O 1965.22 -0.62727 1.85375 0
M  V30 21163 C 1965.52 2.832 2.1802 0
M  V30 21164 C 1965.19 4.21504 1.6014 0
M  V30 21165 C 1963.85 4.59124 1.4408 0
M  V30 21166 C 1966.2 5.07702 1.17848 0
M  V30 21167 C 1963.53 5.80621 0.842405 0
M  V30 21168 C 1965.88 6.29802 0.594283 0
M  V30 21169 C 1964.55 6.66172 0.420791 0
M  V30 21170 H 1963.82 0.607749 0.423937 0
M  V30 21171 H 1966.46 1.86233 0.446046 0
M  V30 21172 H 1964.77 2.57378 2.95405 0
M  V30 21173 H 1966.47 2.91189 2.75699 0
M  V30 21174 H 1963.06 3.91858 1.73623 0
M  V30 21175 H 1967.24 4.79224 1.29066 0
M  V30 21176 H 1962.5 6.07426 0.695983 0
M  V30 21177 H 1966.67 6.95921 0.258177 0
M  V30 21178 H 1964.3 7.60187 -0.044991 0
M  V30 21179 N 1965.87 -0.668464 1.42721 0
M  V30 21180 C 1967.1 -1.46158 1.47148 0
M  V30 21181 C 1967.52 -1.87903 0.0860652 0
M  V30 21182 O 1966.88 -1.56406 -0.91689 0
M  V30 21183 C 1966.93 -2.68284 2.40949 0
M  V30 21184 O 1966.03 -3.66787 1.88522 0
M  V30 21185 H 1965.37 -0.438842 0.498311 0
M  V30 21186 H 1967.9 -0.819353 1.87477 0
M  V30 21187 H 1967.91 -3.1628 2.57742 0
M  V30 21188 H 1966.59 -2.3724 3.41599 0
M  V30 21189 H 1965.17 -3.25851 1.81315 0
M  V30 21190 N 1967.35 -1.28999 -0.905381 0
M  V30 21191 C 1968.6 -1.16813 -1.65779 0
M  V30 21192 C 1968.93 0.280936 -1.92157 0
M  V30 21193 O 1968.21 1.2035 -1.52794 0
M  V30 21194 C 1968.49 -1.97593 -3.01047 0
M  V30 21195 C 1968.34 -3.50608 -2.8177 0
M  V30 21196 C 1969.66 -1.79788 -4.01702 0
M  V30 21197 H 1966.78 -0.425716 -0.60161 0
M  V30 21198 H 1969.42 -1.58409 -1.04913 0
M  V30 21199 H 1967.57 -1.62246 -3.52999 0
M  V30 21200 H 1969.24 -3.95905 -2.36763 0
M  V30 21201 H 1967.49 -3.75818 -2.16663 0
M  V30 21202 H 1968.16 -4.02396 -3.77865 0
M  V30 21203 H 1970.63 -2.10649 -3.5884 0
M  V30 21204 H 1969.51 -2.38667 -4.94297 0
M  V30 21205 H 1969.77 -0.75156 -4.35665 0
M  V30 21206 N 1968.83 1.11497 -1.11383 0
M  V30 21207 C 1970.08 1.8286 -0.860611 0
M  V30 21208 C 1970.4 1.85032 0.615471 0
M  V30 21209 O 1969.67 1.32047 1.44708 0
M  V30 21210 H 1968.25 0.677153 -0.315392 0
M  V30 21211 H 1970.91 1.34963 -1.40609 0
M  V30 21212 H 1970.01 2.86743 -1.23227 0
M  V30 21213 N 1970.31 0.904053 1.29092 0
M  V30 21214 C 1971.22 0.389825 2.31339 0
M  V30 21215 C 1972.23 -0.517628 1.66122 0
M  V30 21216 O 1973.41 -0.406158 1.97262 0
M  V30 21217 C 1970.47 -0.370468 3.44715 0
M  V30 21218 C 1969.54 0.569032 4.25512 0
M  V30 21219 C 1968.77 -0.155071 5.33475 0
M  V30 21220 O 1968.99 -1.37834 5.53496 0
M  V30 21221 O 1967.93 0.504642 5.99781 0
M  V30 21222 H 1971.75 1.2382 2.77313 0
M  V30 21223 H 1969.34 0.668528 1.33608 0
M  V30 21224 H 1971.22 -0.800237 4.13732 0
M  V30 21225 H 1969.89 -1.19484 3.00841 0
M  V30 21226 H 1968.8 1.048 3.59121 0
M  V30 21227 H 1970.13 1.35994 4.7304 0
M  V30 21228 N 1971.79 -1.4279 0.666995 0
M  V30 21229 C 1973.2 -1.56027 0.335817 0
M  V30 21230 C 1973.4 -1.64812 -1.15928 0
M  V30 21231 O 1972.46 -1.61074 -1.94451 0
M  V30 21232 C 1973.77 -2.81425 1.05928 0
M  V30 21233 C 1975.32 -2.95187 1.04085 0
M  V30 21234 C 1975.79 -4.23435 1.74548 0
M  V30 21235 N 1977.28 -4.3033 1.71379 0
M  V30 21236 C 1978.02 -5.2836 2.22762 0
M  V30 21237 N 1977.52 -6.32589 2.82494 0
M  V30 21238 N 1979.31 -5.20106 2.13182 0
M  V30 21239 H 1971.46 -1.35332 1.63704 0
M  V30 21240 H 1973.72 -0.650895 0.689231 0
M  V30 21241 H 1973.43 -2.81044 2.1144 0
M  V30 21242 H 1973.3 -3.72077 0.619546 0
M  V30 21243 H 1975.69 -2.95099 -0.00591289 0
M  V30 21244 H 1975.77 -2.05786 1.5194 0
M  V30 21245 H 1975.41 -4.24283 2.79189 0
M  V30 21246 H 1975.34 -5.11756 1.24149 0
M  V30 21247 H 1977.84 -3.55633 1.27803 0
M  V30 21248 H 1978.15 -7.03733 3.19343 0
M  V30 21249 H 1976.49 -6.33173 2.86561 0
M  V30 21250 H 1979.68 -4.37597 1.66211 0
M  V30 21251 H 1979.86 -5.96343 2.53534 0
M  V30 21252 N 1973.26 -0.409806 -1.52179 0
M  V30 21253 C 1974.2 0.450738 -2.24724 0
M  V30 21254 C 1975.21 1.00962 -1.27713 0
M  V30 21255 O 1976.4 0.908449 -1.53654 0
M  V30 21256 C 1973.5 1.63947 -2.96605 0
M  V30 21257 C 1972.67 1.20435 -4.20493 0
M  V30 21258 C 1971.73 2.26007 -4.75192 0
M  V30 21259 O 1970.76 1.86569 -5.37755 0
M  V30 21260 N 1971.96 3.58179 -4.56824 0
M  V30 21261 H 1974.72 -0.170894 -2.99212 0
M  V30 21262 H 1972.28 -0.237221 -1.60153 0
M  V30 21263 H 1974.28 2.34138 -3.30093 0
M  V30 21264 H 1972.85 2.16701 -2.25299 0
M  V30 21265 H 1972.07 0.330532 -3.92812 0
M  V30 21266 H 1973.35 0.890608 -5.00945 0
M  V30 21267 H 1972.75 3.92969 -4.0693 0
M  V30 21268 H 1971.31 4.24345 -4.94747 0
M  V30 21269 N 1974.74 1.56975 -0.14025 0
M  V30 21270 C 1975.67 2.19432 0.798233 0
M  V30 21271 C 1976.65 1.14055 1.26196 0
M  V30 21272 O 1977.84 1.42373 1.32074 0
M  V30 21273 C 1974.97 2.81059 2.04018 0
M  V30 21274 C 1973.92 3.92204 1.71347 0
M  V30 21275 C 1973.25 4.40735 3.02748 0
M  V30 21276 C 1974.55 5.13302 0.965327 0
M  V30 21277 H 1976.24 2.98109 0.277716 0
M  V30 21278 H 1973.79 1.43392 0.132137 0
M  V30 21279 H 1975.74 3.23417 2.70147 0
M  V30 21280 H 1974.46 1.99703 2.5843 0
M  V30 21281 H 1973.12 3.50454 1.07599 0
M  V30 21282 H 1972.77 3.5621 3.55138 0
M  V30 21283 H 1972.47 5.15698 2.81654 0
M  V30 21284 H 1974 4.85759 3.6996 0
M  V30 21285 H 1975.41 5.52547 1.52857 0
M  V30 21286 H 1973.81 5.93984 0.854574 0
M  V30 21287 H 1974.88 4.8488 -0.0441688 0
M  V30 21288 N 1976.22 -0.133539 1.57033 0
M  V30 21289 C 1977.15 -1.16595 2.02306 0
M  V30 21290 C 1978.13 -1.44031 0.904933 0
M  V30 21291 O 1979.32 -1.54721 1.17367 0
M  V30 21292 C 1976.45 -2.49581 2.41509 0
M  V30 21293 C 1975.4 -2.36639 3.56631 0
M  V30 21294 C 1974.73 -3.74457 3.81688 0
M  V30 21295 C 1976.03 -1.83912 4.88849 0
M  V30 21296 H 1977.72 -0.789456 2.88804 0
M  V30 21297 H 1975.27 -0.378309 1.38942 0
M  V30 21298 H 1977.22 -3.22043 2.71783 0
M  V30 21299 H 1975.94 -2.89093 1.51964 0
M  V30 21300 H 1974.6 -1.66628 3.26544 0
M  V30 21301 H 1974.25 -4.11428 2.89372 0
M  V30 21302 H 1973.95 -3.66655 4.59171 0
M  V30 21303 H 1975.47 -4.48446 4.14401 0
M  V30 21304 H 1976.89 -2.46178 5.17754 0
M  V30 21305 H 1975.28 -1.86967 5.70231 0
M  V30 21306 H 1976.35 -0.795669 4.78327 0
M  V30 21307 N 1977.7 -1.52352 -0.403298 0
M  V30 21308 C 1978.94 -1.68377 -1.15881 0
M  V30 21309 C 1979.3 -0.407785 -1.8762 0
M  V30 21310 O 1980.5 -0.444209 -2.65104 0
M  V30 21311 C 1978.77 -2.87568 -2.12226 0
M  V30 21312 S 1980.33 -3.24106 -2.95806 0
M  V30 21313 H 1977.15 -0.592856 -0.392482 0
M  V30 21314 H 1979.75 -1.90362 -0.445274 0
M  V30 21315 H 1978.46 -3.78675 -1.5822 0
M  V30 21316 H 1977.99 -2.67874 -2.8811 0
M  V30 21317 H 1980 -2.73181 -4.1423 0
M  V30 21318 N 1979.18 0.660885 -1.43074 0
M  V30 21319 C 1980.42 1.41668 -1.43572 0
M  V30 21320 C 1980.74 1.95506 -0.0607715 0
M  V30 21321 O 1981.94 2.71441 0.0568092 0
M  V30 21322 C 1980.4 2.56345 -2.52617 0
M  V30 21323 C 1980.01 2.09147 -3.96183 0
M  V30 21324 C 1981.75 3.33765 -2.623 0
M  V30 21325 C 1979.66 3.20989 -4.96709 0
M  V30 21326 H 1978.59 0.532264 -0.534051 0
M  V30 21327 H 1981.24 0.714113 -1.69035 0
M  V30 21328 H 1979.62 3.29036 -2.20343 0
M  V30 21329 H 1980.8 1.43518 -4.3788 0
M  V30 21330 H 1979.11 1.44628 -3.90476 0
M  V30 21331 H 1981.71 4.17085 -3.34581 0
M  V30 21332 H 1982.05 3.81285 -1.67114 0
M  V30 21333 H 1982.58 2.6815 -2.93837 0
M  V30 21334 H 1979.32 2.78445 -5.93421 0
M  V30 21335 H 1978.84 3.85356 -4.59631 0
M  V30 21336 H 1980.52 3.86241 -5.19063 0
M  V30 21337 N 1980.65 1.29477 0.898527 0
M  V30 21338 C 1981.62 1.14706 1.98432 0
M  V30 21339 C 1982.62 0.0821822 1.6059 0
M  V30 21340 O 1983.81 0.329216 1.71061 0
M  V30 21341 C 1980.94 0.754356 3.32449 0
M  V30 21342 H 1982.13 2.11154 2.12964 0
M  V30 21343 H 1979.69 1.1268 1.08319 0
M  V30 21344 H 1980.42 -0.210224 3.23618 0
M  V30 21345 H 1980.21 1.52377 3.61281 0
M  V30 21346 H 1981.7 0.674095 4.12123 0
M  V30 21347 N 1982.13 -1.10905 1.11972 0
M  V30 21348 C 1983.55 -1.3478 0.854776 0
M  V30 21349 C 1983.75 -1.94737 -0.517653 0
M  V30 21350 O 1982.8 -2.18391 -1.26734 0
M  V30 21351 C 1984.12 -2.27414 1.96732 0
M  V30 21352 C 1985.67 -2.40964 1.99764 0
M  V30 21353 C 1986.14 -3.36923 3.10237 0
M  V30 21354 N 1987.63 -3.44488 3.09648 0
M  V30 21355 C 1988.37 -4.18695 3.91768 0
M  V30 21356 N 1987.86 -4.95829 4.83865 0
M  V30 21357 N 1989.66 -4.14263 3.79924 0
M  V30 21358 H 1981.81 -0.703538 2.0041 0
M  V30 21359 H 1984.07 -0.372318 0.871828 0
M  V30 21360 H 1983.78 -1.90561 2.956 0
M  V30 21361 H 1983.65 -3.27681 1.86829 0
M  V30 21362 H 1986.04 -2.77089 1.01518 0
M  V30 21363 H 1986.12 -1.40529 2.13741 0
M  V30 21364 H 1985.76 -3.01524 4.08712 0
M  V30 21365 H 1985.69 -4.37225 2.93499 0
M  V30 21366 H 1988.18 -2.89475 2.42925 0
M  V30 21367 H 1988.5 -5.49836 5.43047 0
M  V30 21368 H 1986.84 -4.9497 4.87883 0
M  V30 21369 H 1990.03 -3.53095 3.07314 0
M  V30 21370 H 1990.2 -4.71837 4.44155 0
M  V30 21371 N 1983.61 -0.910886 -1.2861 0
M  V30 21372 C 1984.57 -0.401862 -2.2565 0
M  V30 21373 C 1985.57 0.470212 -1.53771 0
M  V30 21374 O 1986.76 0.273674 -1.72037 0
M  V30 21375 C 1983.9 0.424193 -3.38251 0
M  V30 21376 H 1985.09 -1.25903 -2.72192 0
M  V30 21377 H 1982.64 -0.690027 -1.40244 0
M  V30 21378 H 1983.38 1.30088 -2.97065 0
M  V30 21379 H 1983.16 -0.200837 -3.91585 0
M  V30 21380 H 1984.65 0.771267 -4.10416 0
M  V30 21381 N 1985.09 1.42434 -0.674558 0
M  V30 21382 C 1986.02 2.33498 -0.0100395 0
M  V30 21383 C 1987 1.50665 0.789558 0
M  V30 21384 O 1988.18 1.79268 0.74676 0
M  V30 21385 C 1985.31 3.34279 0.942081 0
M  V30 21386 C 1984.27 4.27263 0.251094 0
M  V30 21387 C 1983.59 5.18249 1.31614 0
M  V30 21388 C 1984.89 5.15008 -0.869735 0
M  V30 21389 H 1986.59 2.89314 -0.770566 0
M  V30 21390 H 1984.13 1.39112 -0.372004 0
M  V30 21391 H 1986.09 3.96896 1.41604 0
M  V30 21392 H 1984.81 2.76765 1.73403 0
M  V30 21393 H 1983.47 3.6604 -0.202625 0
M  V30 21394 H 1983.12 4.57063 2.10006 0
M  V30 21395 H 1982.82 5.81288 0.858923 0
M  V30 21396 H 1984.34 5.83742 1.79103 0
M  V30 21397 H 1985.76 5.71312 -0.477004 0
M  V30 21398 H 1984.15 5.86879 -1.25273 0
M  V30 21399 H 1985.22 4.53422 -1.71861 0
M  V30 21400 N 1986.57 0.417871 1.51959 0
M  V30 21401 C 1987.5 -0.394222 2.30148 0
M  V30 21402 C 1988.48 -1.0384 1.34727 0
M  V30 21403 O 1989.66 -1.04575 1.63639 0
M  V30 21404 C 1986.79 -1.50639 3.1293 0
M  V30 21405 C 1985.75 -0.986759 4.1647 0
M  V30 21406 C 1985.07 -2.1932 4.8765 0
M  V30 21407 C 1986.37 -0.0347019 5.22288 0
M  V30 21408 H 1988.07 0.258228 2.98284 0
M  V30 21409 H 1985.61 0.125633 1.43451 0
M  V30 21410 H 1987.57 -2.08157 3.664 0
M  V30 21411 H 1986.29 -2.18685 2.42579 0
M  V30 21412 H 1984.95 -0.43393 3.64023 0
M  V30 21413 H 1984.6 -2.8594 4.1382 0
M  V30 21414 H 1984.3 -1.85199 5.57652 0
M  V30 21415 H 1985.82 -2.77427 5.43936 0
M  V30 21416 H 1987.23 -0.518951 5.70946 0
M  V30 21417 H 1985.63 0.218124 5.99703 0
M  V30 21418 H 1986.7 0.907947 4.76324 0
M  V30 21419 N 1988.04 -1.56898 0.148573 0
M  V30 21420 C 1989.46 -1.58241 -0.207826 0
M  V30 21421 C 1989.66 -1.16291 -1.64556 0
M  V30 21422 O 1988.72 -0.863939 -2.3726 0
M  V30 21423 C 1990.03 -3.00654 0.0523559 0
M  V30 21424 C 1991.58 -3.12998 -0.0112297 0
M  V30 21425 C 1992.05 -4.57463 0.221641 0
M  V30 21426 N 1993.54 -4.62893 0.168624 0
M  V30 21427 C 1994.28 -5.72488 0.323296 0
M  V30 21428 N 1993.77 -6.90725 0.535776 0
M  V30 21429 N 1995.57 -5.61495 0.26079 0
M  V30 21430 H 1987.72 -1.82459 1.08731 0
M  V30 21431 H 1989.98 -0.8446 0.430529 0
M  V30 21432 H 1989.69 -3.3574 1.04745 0
M  V30 21433 H 1989.56 -3.71268 -0.666346 0
M  V30 21434 H 1991.95 -2.77752 -0.996873 0
M  V30 21435 H 1992.03 -2.44868 0.739826 0
M  V30 21436 H 1991.67 -4.93413 1.20439 0
M  V30 21437 H 1991.6 -5.23722 -0.549756 0
M  V30 21438 H 1994.09 -3.77899 0.00911581 0
M  V30 21439 H 1994.41 -7.70113 0.643862 0
M  V30 21440 H 1992.75 -6.92641 0.572117 0
M  V30 21441 H 1995.94 -4.68002 0.095543 0
M  V30 21442 H 1996.12 -6.46857 0.384765 0
M  V30 21443 N 1989.52 0.125209 -1.57102 0
M  V30 21444 C 1990.47 1.15956 -1.96312 0
M  V30 21445 C 1991.46 1.37401 -0.837249 0
M  V30 21446 O 1992.65 1.38597 -1.1009 0
M  V30 21447 C 1989.78 2.48774 -2.36573 0
M  V30 21448 C 1988.86 2.30829 -3.55779 0
M  V30 21449 N 1989.25 1.82684 -4.71657 0
M  V30 21450 C 1987.55 2.61507 -3.61289 0
M  V30 21451 C 1988.25 1.78301 -5.537 0
M  V30 21452 N 1987.23 2.22418 -4.96015 0
M  V30 21453 H 1991.03 0.779763 -2.83367 0
M  V30 21454 H 1988.55 0.333028 -1.58949 0
M  V30 21455 H 1990.54 3.23576 -2.62877 0
M  V30 21456 H 1989.2 2.87516 -1.50879 0
M  V30 21457 H 1990.21 1.52323 -4.94993 0
M  V30 21458 H 1986.89 3.03978 -2.86189 0
M  V30 21459 H 1988.28 1.42384 -6.5664 0
M  V30 21460 N 1991 1.52564 0.395213 0
M  V30 21461 C 1992.24 1.68989 1.14987 0
M  V30 21462 C 1992.6 0.417729 1.87401 0
M  V30 21463 O 1993.81 0.458262 2.64865 0
M  V30 21464 C 1992.08 2.88689 2.10698 0
M  V30 21465 S 1993.64 3.2567 2.94083 0
M  V30 21466 H 1990.45 0.594929 0.389333 0
M  V30 21467 H 1993.06 1.90595 0.435173 0
M  V30 21468 H 1991.76 3.79509 1.5621 0
M  V30 21469 H 1991.29 2.69398 2.86685 0
M  V30 21470 H 1993.31 2.75374 4.12776 0
M  V30 21471 N 1992.48 -0.653289 1.43422 0
M  V30 21472 C 1993.43 -1.76618 1.48576 0
M  V30 21473 C 1994.4 -1.62677 0.335486 0
M  V30 21474 O 1995.58 -1.82921 0.54263 0
M  V30 21475 C 1992.72 -3.14772 1.41467 0
M  V30 21476 C 1991.83 -3.39847 2.66698 0
M  V30 21477 C 1990.97 -4.67848 2.51578 0
M  V30 21478 C 1990.01 -4.86029 3.72078 0
M  V30 21479 N 1989.14 -6.05287 3.55769 0
M  V30 21480 H 1993.98 -1.71549 2.4367 0
M  V30 21481 H 1991.52 -0.837156 1.20955 0
M  V30 21482 H 1993.48 -3.94638 1.3534 0
M  V30 21483 H 1992.11 -3.18911 0.499543 0
M  V30 21484 H 1991.16 -2.54079 2.83104 0
M  V30 21485 H 1992.47 -3.49168 3.56207 0
M  V30 21486 H 1991.63 -5.55841 2.43158 0
M  V30 21487 H 1990.37 -4.60848 1.59593 0
M  V30 21488 H 1989.37 -3.96472 3.80907 0
M  V30 21489 H 1990.6 -4.94859 4.65072 0
M  V30 21490 H 1988.54 -5.9942 2.66519 0
M  V30 21491 H 1988.46 -6.15565 4.3888 0
M  V30 21492 H 1989.73 -6.95901 3.51201 0
M  V30 21493 N 1993.96 -1.29952 -0.891648 0
M  V30 21494 C 1995.21 -1.17758 -1.63756 0
M  V30 21495 C 1995.52 0.268231 -1.93752 0
M  V30 21496 O 1996.72 0.511595 -2.66636 0
M  V30 21497 C 1995.18 -2.06008 -2.95108 0
M  V30 21498 C 1994.79 -3.55459 -2.72677 0
M  V30 21499 C 1996.53 -2.0256 -3.73055 0
M  V30 21500 C 1994.44 -4.35787 -3.99805 0
M  V30 21501 H 1993.37 -0.437139 -0.61435 0
M  V30 21502 H 1996.02 -1.54651 -0.987694 0
M  V30 21503 H 1994.4 -1.61991 -3.61351 0
M  V30 21504 H 1995.58 -4.0758 -2.14977 0
M  V30 21505 H 1993.89 -3.60662 -2.08115 0
M  V30 21506 H 1996.49 -2.5983 -4.67325 0
M  V30 21507 H 1996.83 -1.00748 -4.03925 0
M  V30 21508 H 1997.36 -2.44662 -3.13664 0
M  V30 21509 H 1994.1 -5.38268 -3.74096 0
M  V30 21510 H 1993.62 -3.88432 -4.57035 0
M  V30 21511 H 1995.3 -4.46872 -4.67883 0
M  V30 21512 N 1995.44 1.1031 -1.12559 0
M  V30 21513 C 1996.37 2.18738 -0.817073 0
M  V30 21514 C 1997.35 1.68675 0.219681 0
M  V30 21515 O 1998.53 1.94033 0.0805889 0
M  V30 21516 C 1995.66 3.46231 -0.272317 0
M  V30 21517 C 1994.62 4.09575 -1.24228 0
M  V30 21518 C 1993.94 5.31784 -0.557693 0
M  V30 21519 C 1995.24 4.53135 -2.59743 0
M  V30 21520 H 1996.94 2.44802 -1.72372 0
M  V30 21521 H 1994.48 1.17658 -0.830221 0
M  V30 21522 H 1996.43 4.21377 -0.0442049 0
M  V30 21523 H 1995.16 3.19661 0.669677 0
M  V30 21524 H 1993.82 3.36437 -1.45622 0
M  V30 21525 H 1993.47 5.0149 0.389484 0
M  V30 21526 H 1993.17 5.75117 -1.20473 0
M  V30 21527 H 1994.69 6.0966 -0.338649 0
M  V30 21528 H 1996.1 5.19548 -2.42369 0
M  V30 21529 H 1994.5 5.07322 -3.20537 0
M  V30 21530 H 1995.57 3.65989 -3.18088 0
M  V30 21531 N 1996.91 0.917694 1.28125 0
M  V30 21532 C 1998.16 0.548771 1.94091 0
M  V30 21533 C 1998.48 -0.912688 1.73001 0
M  V30 21534 O 1999.68 -1.38994 2.33223 0
M  V30 21535 C 1998.14 0.930611 3.4766 0
M  V30 21536 C 1997.75 2.41207 3.77523 0
M  V30 21537 C 1999.49 0.632461 4.19762 0
M  V30 21538 C 1997.4 2.73383 5.24419 0
M  V30 21539 H 1996.33 0.201513 0.726573 0
M  V30 21540 H 1998.98 1.11715 1.45575 0
M  V30 21541 H 1997.36 0.290982 3.94929 0
M  V30 21542 H 1998.53 3.09876 3.41048 0
M  V30 21543 H 1996.85 2.68108 3.18602 0
M  V30 21544 H 1999.45 0.849481 5.27909 0
M  V30 21545 H 1999.79 -0.429909 4.14074 0
M  V30 21546 H 2000.32 1.23073 3.78283 0
M  V30 21547 H 1997.06 3.78489 5.35188 0
M  V30 21548 H 1996.58 2.09354 5.62077 0
M  V30 21549 H 1998.26 2.60595 5.92198 0
M  V30 21550 N 1998.39 -1.42074 0.682102 0
M  V30 21551 C 1999.32 -2.33489 0.0224223 0
M  V30 21552 C 2000.3 -1.51082 -0.781557 0
M  V30 21553 O 2001.49 -1.79662 -0.737243 0
M  V30 21554 C 1998.62 -3.34773 -0.92434 0
M  V30 21555 C 1997.57 -4.2739 -0.228431 0
M  V30 21556 C 1996.9 -5.1894 -1.28863 0
M  V30 21557 C 1998.2 -5.14539 0.897035 0
M  V30 21558 H 1999.89 -2.88901 0.785898 0
M  V30 21559 H 1997.44 -1.38913 0.379376 0
M  V30 21560 H 1999.39 -3.97641 -1.39497 0
M  V30 21561 H 1998.11 -2.77681 -1.71932 0
M  V30 21562 H 1996.77 -3.65927 0.222034 0
M  V30 21563 H 1996.42 -4.5817 -2.07579 0
M  V30 21564 H 1996.12 -5.81736 -0.828084 0
M  V30 21565 H 1997.65 -5.84683 -1.76005 0
M  V30 21566 H 1999.06 -5.71051 0.507296 0
M  V30 21567 H 1997.46 -5.86206 1.28383 0
M  V30 21568 H 1998.53 -4.52505 1.74263 0
M  V30 21569 N 1999.87 -0.425924 -1.51735 0
M  V30 21570 C 2001.15 0.203721 -1.94536 0
M  V30 21571 C 2001.53 1.61124 -1.3639 0
M  V30 21572 O 2000.87 2.21871 -0.54638 0
M  V30 21573 C 2001.08 0.193041 -3.48466 0
M  V30 21574 C 2002.43 0.404204 -4.22672 0
M  V30 21575 O 2003.46 0.271662 -3.55163 0
M  V30 21576 O 2002.32 0.666926 -5.42415 0
M  V30 21577 H 1999.41 0.136115 -0.815722 0
M  V30 21578 H 2001.96 -0.48308 -1.62679 0
M  V30 21579 H 2000.73 -0.791421 -3.83213 0
M  V30 21580 H 2000.35 0.923235 -3.86733 0
M  V30 21581 N 2001.35 1.56817 -0.156891 0
M  V30 21582 C 2002.26 2.20833 0.79183 0
M  V30 21583 C 2003.27 1.19558 1.26419 0
M  V30 21584 O 2004.45 1.5217 1.31933 0
M  V30 21585 C 2001.51 2.82517 2.00961 0
M  V30 21586 C 2000.58 3.98948 1.58552 0
M  V30 21587 C 1999.81 4.57681 2.74525 0
M  V30 21588 O 2000.03 4.15295 3.91007 0
M  V30 21589 O 1998.97 5.47786 2.49428 0
M  V30 21590 H 2002.79 3.02436 0.276846 0
M  V30 21591 H 2000.38 1.49233 0.0706167 0
M  V30 21592 H 2002.26 3.21683 2.72209 0
M  V30 21593 H 2000.93 2.03921 2.51392 0
M  V30 21594 H 1999.84 3.64479 0.84297 0
M  V30 21595 H 2001.17 4.79094 1.12826 0
M  V30 21596 N 2002.83 -0.116876 1.57166 0
M  V30 21597 C 2003.79 -1.12735 1.99558 0
M  V30 21598 C 2004.79 -1.34188 0.886016 0
M  V30 21599 O 2005.98 -1.30669 1.15201 0
M  V30 21600 C 2003.11 -2.48135 2.33756 0
M  V30 21601 H 2004.3 -0.762948 2.90033 0
M  V30 21602 H 2001.86 -0.36124 1.52068 0
M  V30 21603 H 2002.59 -2.89492 1.46167 0
M  V30 21604 H 2002.38 -2.33918 3.14682 0
M  V30 21605 H 2003.87 -3.20855 2.67286 0
M  V30 21606 N 2004.3 -1.52772 -0.387116 0
M  V30 21607 C 2005.53 -1.71787 -1.15312 0
M  V30 21608 C 2005.95 -0.437082 -1.83671 0
M  V30 21609 O 2005.3 0.588573 -1.72749 0
M  V30 21610 C 2005.35 -2.86869 -2.19974 0
M  V30 21611 O 2005.08 -4.0999 -1.54402 0
M  V30 21612 C 2006.58 -3.17579 -3.09287 0
M  V30 21613 H 2003.8 -0.575118 -0.345659 0
M  V30 21614 H 2006.34 -1.99428 -0.452607 0
M  V30 21615 H 2004.5 -2.61684 -2.85658 0
M  V30 21616 H 2004.91 -4.7428 -2.23961 0
M  V30 21617 H 2006.38 -4.01562 -3.7875 0
M  V30 21618 H 2006.86 -2.3204 -3.729 0
M  V30 21619 H 2007.47 -3.44611 -2.49246 0
M  V30 21620 N 2005.78 0.645673 -1.43767 0
M  V30 21621 C 2006.74 1.74013 -1.49171 0
M  V30 21622 C 2007.74 1.56355 -0.375476 0
M  V30 21623 O 2008.93 1.62115 -0.637529 0
M  V30 21624 C 2006.07 3.12961 -1.3516 0
M  V30 21625 H 2007.26 1.706 -2.46649 0
M  V30 21626 H 2004.81 0.858019 -1.30643 0
M  V30 21627 H 2005.55 3.2198 -0.387199 0
M  V30 21628 H 2005.33 3.27184 -2.16086 0
M  V30 21629 H 2006.82 3.92755 -1.41891 0
M  V30 21630 N 2007.26 1.30423 0.884744 0
M  V30 21631 C 2008.22 1.16804 1.97204 0
M  V30 21632 C 2009.22 0.0992103 1.60494 0
M  V30 21633 O 2010.41 0.34734 1.70702 0
M  V30 21634 C 2007.54 0.789574 3.3163 0
M  V30 21635 H 2008.74 2.13401 2.10713 0
M  V30 21636 H 2006.29 1.13823 1.07117 0
M  V30 21637 H 2007.03 -0.175888 3.23823 0
M  V30 21638 H 2006.81 1.562 3.59644 0
M  V30 21639 H 2008.3 0.717768 4.11385 0
M  V30 21640 N 2008.74 -1.09711 1.13142 0
M  V30 21641 C 2009.67 -2.1553 0.749806 0
M  V30 21642 C 2010.65 -1.60466 -0.262593 0
M  V30 21643 O 2011.83 -1.87863 -0.154785 0
M  V30 21644 C 2008.96 -3.38518 0.111052 0
M  V30 21645 C 2008.01 -4.12297 1.09147 0
M  V30 21646 S 2008.84 -4.66885 2.62257 0
M  V30 21647 C 2009.99 -5.93176 1.99733 0
M  V30 21648 H 2010.23 -2.47568 1.64613 0
M  V30 21649 H 2007.76 -1.21615 0.951273 0
M  V30 21650 H 2009.72 -4.09731 -0.251096 0
M  V30 21651 H 2008.38 -3.04704 -0.762499 0
M  V30 21652 H 2007.57 -5.00507 0.592307 0
M  V30 21653 H 2007.17 -3.46932 1.39694 0
M  V30 21654 H 2009.47 -6.64023 1.34461 0
M  V30 21655 H 2010.41 -6.47767 2.86013 0
M  V30 21656 H 2010.82 -5.45557 1.45009 0
M  V30 21657 N 2010.22 -0.924476 -1.27637 0
M  V30 21658 C 2011.49 -0.481742 -1.89575 0
M  V30 21659 C 2011.87 1.04002 -1.83703 0
M  V30 21660 O 2011.22 1.89277 -1.28009 0
M  V30 21661 C 2011.43 -1.02419 -3.33633 0
M  V30 21662 C 2012.78 -1.08274 -4.10563 0
M  V30 21663 O 2013.8 -0.97359 -3.42636 0
M  V30 21664 O 2012.66 -1.25042 -5.32003 0
M  V30 21665 H 2009.76 -0.15444 -0.812451 0
M  V30 21666 H 2012.3 -1.01596 -1.35928 0
M  V30 21667 H 2011.07 -2.06808 -3.32184 0
M  V30 21668 H 2010.7 -0.471435 -3.94795 0
M  V30 21669 N 2011.69 1.41711 -0.689627 0
M  V30 21670 C 2012.92 2.05652 -0.226938 0
M  V30 21671 C 2013.34 1.51875 1.12158 0
M  V30 21672 O 2012.69 0.664544 1.69971 0
M  V30 21673 C 2012.75 3.61102 -0.169503 0
M  V30 21674 O 2012.47 4.12888 -1.46475 0
M  V30 21675 C 2013.97 4.4218 0.314894 0
M  V30 21676 H 2011.19 0.66244 -0.10684 0
M  V30 21677 H 2013.73 1.81588 -0.940538 0
M  V30 21678 H 2011.89 3.84226 0.49488 0
M  V30 21679 H 2012.3 5.06884 -1.34791 0
M  V30 21680 H 2013.77 5.51162 0.303964 0
M  V30 21681 H 2014.25 4.17848 1.35275 0
M  V30 21682 H 2014.86 4.24107 -0.318278 0
M  V30 21683 N 2013.17 0.433965 1.51507 0
M  V30 21684 C 2014.08 -0.385423 2.31412 0
M  V30 21685 C 2015.1 -1.03078 1.40182 0
M  V30 21686 O 2016.27 -1.02688 1.73254 0
M  V30 21687 C 2013.34 -1.47371 3.13819 0
M  V30 21688 C 2012.4 -0.848838 4.20824 0
M  V30 21689 C 2011.63 -1.88527 4.99293 0
M  V30 21690 O 2011.86 -3.107 4.78353 0
M  V30 21691 O 2010.79 -1.47768 5.83479 0
M  V30 21692 H 2014.62 0.266798 3.02526 0
M  V30 21693 H 2012.2 0.19658 1.48101 0
M  V30 21694 H 2014.08 -2.10495 3.65061 0
M  V30 21695 H 2012.76 -2.11008 2.45474 0
M  V30 21696 H 2011.67 -0.179639 3.73668 0
M  V30 21697 H 2013 -0.256013 4.91534 0
M  V30 21698 N 2014.65 -1.56732 0.165206 0
M  V30 21699 C 2015.88 -2.01069 -0.487749 0
M  V30 21700 C 2016.29 -1.04541 -1.57215 0
M  V30 21701 O 2015.65 -0.0452829 -1.82444 0
M  V30 21702 C 2015.7 -3.45249 -1.07169 0
M  V30 21703 O 2015.42 -4.38089 -0.0305845 0
M  V30 21704 C 2016.92 -4.04956 -1.80348 0
M  V30 21705 H 2014.14 -0.659179 -0.125394 0
M  V30 21706 H 2016.69 -2.02774 0.26514 0
M  V30 21707 H 2014.84 -3.44338 -1.77511 0
M  V30 21708 H 2015.26 -5.22471 -0.460866 0
M  V30 21709 H 2016.73 -5.07783 -2.16474 0
M  V30 21710 H 2017.21 -3.467 -2.69621 0
M  V30 21711 H 2017.81 -4.09552 -1.14662 0
M  V30 21712 N 2016.13 0.10854 -1.57226 0
M  V30 21713 C 2017.41 0.845372 -1.76388 0
M  V30 21714 C 2017.79 1.97577 -0.743397 0
M  V30 21715 O 2017.13 2.27333 0.230685 0
M  V30 21716 C 2017.34 1.3524 -3.21732 0
M  V30 21717 C 2018.69 1.80056 -3.84532 0
M  V30 21718 O 2019.72 1.44895 -3.25398 0
M  V30 21719 O 2018.57 2.45026 -4.88492 0
M  V30 21720 H 2015.67 0.402224 -0.722596 0
M  V30 21721 H 2018.21 0.0914662 -1.69453 0
M  V30 21722 H 2016.99 0.541866 -3.8753 0
M  V30 21723 H 2016.61 2.16871 -3.33246 0
M  V30 21724 N 2017.61 1.52975 0.379009 0
M  V30 21725 C 2018.54 1.81436 1.46981 0
M  V30 21726 C 2019.52 0.666985 1.56478 0
M  V30 21727 O 2020.7 0.915545 1.71264 0
M  V30 21728 C 2017.83 1.99221 2.84479 0
M  V30 21729 C 2016.79 3.14946 2.89816 0
M  V30 21730 C 2016.11 3.18001 4.2986 0
M  V30 21731 C 2017.41 4.53814 2.58554 0
M  V30 21732 H 2019.11 2.72781 1.23413 0
M  V30 21733 H 2016.65 1.31257 0.592257 0
M  V30 21734 H 2018.61 2.17714 3.60803 0
M  V30 21735 H 2017.33 1.04573 3.09406 0
M  V30 21736 H 2015.99 2.96251 2.15942 0
M  V30 21737 H 2015.64 2.21017 4.51841 0
M  V30 21738 H 2015.34 3.95746 4.34349 0
M  V30 21739 H 2016.86 3.38662 5.08075 0
M  V30 21740 H 2018.27 4.72559 3.24593 0
M  V30 21741 H 2016.67 5.33701 2.74379 0
M  V30 21742 H 2017.74 4.59845 1.53853 0
M  V30 21743 N 2019.08 -0.63804 1.44107 0
M  V30 21744 C 2020.01 -1.76164 1.5326 0
M  V30 21745 C 2021 -1.6566 0.386107 0
M  V30 21746 O 2022.18 -1.84525 0.605326 0
M  V30 21747 C 2019.31 -3.14665 1.4698 0
M  V30 21748 C 2018.26 -3.39949 2.60035 0
M  V30 21749 C 2017.59 -4.78409 2.38808 0
M  V30 21750 C 2018.89 -3.33193 4.02219 0
M  V30 21751 H 2020.58 -1.6876 2.47306 0
M  V30 21752 H 2018.13 -0.810483 1.19026 0
M  V30 21753 H 2020.08 -3.93037 1.51986 0
M  V30 21754 H 2018.81 -3.22835 0.494471 0
M  V30 21755 H 2017.47 -2.63955 2.54408 0
M  V30 21756 H 2017.11 -4.83274 1.39483 0
M  V30 21757 H 2016.81 -4.96285 3.14602 0
M  V30 21758 H 2018.34 -5.5902 2.4562 0
M  V30 21759 H 2019.75 -4.0148 4.09252 0
M  V30 21760 H 2018.15 -3.62605 4.78161 0
M  V30 21761 H 2019.22 -2.31116 4.26279 0
M  V30 21762 N 2020.56 -1.3089 -0.877815 0
M  V30 21763 C 2021.81 -1.19488 -1.62498 0
M  V30 21764 C 2022.12 0.247666 -1.94026 0
M  V30 21765 O 2023.33 0.483286 -2.67164 0
M  V30 21766 C 2021.79 -2.09126 -2.92906 0
M  V30 21767 C 2021.39 -3.58331 -2.68891 0
M  V30 21768 C 2023.14 -2.06505 -3.70885 0
M  V30 21769 C 2021.05 -4.40003 -3.9516 0
M  V30 21770 H 2019.98 -0.44363 -0.609679 0
M  V30 21771 H 2022.63 -1.5569 -0.971235 0
M  V30 21772 H 2021.01 -1.65815 -3.59613 0
M  V30 21773 H 2022.18 -4.09838 -2.10642 0
M  V30 21774 H 2020.5 -3.62849 -2.04278 0
M  V30 21775 H 2023.09 -2.64772 -4.64543 0
M  V30 21776 H 2023.44 -1.05026 -4.02834 0
M  V30 21777 H 2023.97 -2.47975 -3.11052 0
M  V30 21778 H 2020.71 -5.42205 -3.68366 0
M  V30 21779 H 2020.23 -3.93258 -4.52889 0
M  V30 21780 H 2021.91 -4.5181 -4.63117 0
M  V30 21781 N 2022.04 1.0911 -1.13723 0
M  V30 21782 C 2022.97 2.15687 -0.775355 0
M  V30 21783 C 2023.99 1.61511 0.204429 0
M  V30 21784 O 2025.17 1.78493 -0.0162374 0
M  V30 21785 C 2022.27 3.38654 -0.129079 0
M  V30 21786 C 2021.45 4.22235 -1.14178 0
M  V30 21787 C 2020.51 5.23618 -0.520594 0
M  V30 21788 O 2019.53 5.56802 -1.18152 0
M  V30 21789 N 2020.73 5.76192 0.705897 0
M  V30 21790 H 2023.5 2.47337 -1.69247 0
M  V30 21791 H 2021.06 1.24855 -1.03067 0
M  V30 21792 H 2023.05 4.03595 0.298814 0
M  V30 21793 H 2021.62 3.04866 0.69104 0
M  V30 21794 H 2020.84 3.53382 -1.74685 0
M  V30 21795 H 2022.13 4.749 -1.82612 0
M  V30 21796 H 2021.53 5.51453 1.26158 0
M  V30 21797 H 2020.09 6.42851 1.0764 0
M  V30 21798 N 2023.52 0.931232 1.27145 0
M  V30 21799 C 2024.43 0.438807 2.3046 0
M  V30 21800 C 2025.44 -0.482275 1.67183 0
M  V30 21801 O 2026.62 -0.364225 1.98079 0
M  V30 21802 C 2023.69 -0.297266 3.45423 0
M  V30 21803 C 2022.75 0.659161 4.24209 0
M  V30 21804 C 2021.98 -0.0418787 5.33684 0
M  V30 21805 O 2022.2 -1.26062 5.56295 0
M  V30 21806 O 2021.14 0.631751 5.98575 0
M  V30 21807 H 2024.96 1.29675 2.74624 0
M  V30 21808 H 2022.55 0.696718 1.3216 0
M  V30 21809 H 2024.43 -0.712299 4.15336 0
M  V30 21810 H 2023.1 -1.13075 3.03308 0
M  V30 21811 H 2022.01 1.12394 3.56817 0
M  V30 21812 H 2023.34 1.45997 4.70049 0
M  V30 21813 N 2025 -1.41343 0.697132 0
M  V30 21814 C 2026.23 -2.05528 0.237841 0
M  V30 21815 C 2026.64 -1.52468 -1.11351 0
M  V30 21816 O 2026 -0.673549 -1.69616 0
M  V30 21817 C 2026.05 -3.61007 0.188651 0
M  V30 21818 O 2025.77 -4.12106 1.48662 0
M  V30 21819 C 2027.27 -4.42341 -0.291439 0
M  V30 21820 H 2024.49 -0.661864 0.110352 0
M  V30 21821 H 2027.03 -1.81086 0.950155 0
M  V30 21822 H 2025.19 -3.84483 -0.474496 0
M  V30 21823 H 2025.6 -5.06162 1.37477 0
M  V30 21824 H 2027.08 -5.51316 -0.274731 0
M  V30 21825 H 2027.55 -4.1856 -1.33057 0
M  V30 21826 H 2028.16 -4.23933 0.340765 0
M  V30 21827 N 2026.48 -0.441993 -1.51275 0
M  V30 21828 C 2027.72 0.124439 -2.01316 0
M  V30 21829 C 2028.04 1.43376 -1.33051 0
M  V30 21830 O 2029.24 2.08342 -1.74086 0
M  V30 21831 C 2027.7 0.272307 -3.58868 0
M  V30 21832 C 2027.31 -1.02686 -4.36073 0
M  V30 21833 C 2029.05 0.792259 -4.17041 0
M  V30 21834 C 2026.96 -0.844378 -5.85341 0
M  V30 21835 H 2025.89 0.0502803 -0.752322 0
M  V30 21836 H 2028.54 -0.572465 -1.74342 0
M  V30 21837 H 2026.92 1.03232 -3.82308 0
M  V30 21838 H 2028.1 -1.79557 -4.24377 0
M  V30 21839 H 2026.41 -1.4757 -3.89374 0
M  V30 21840 H 2029.01 0.94535 -5.26277 0
M  V30 21841 H 2029.35 1.77595 -3.76518 0
M  V30 21842 H 2029.88 0.0904292 -3.97697 0
M  V30 21843 H 2026.62 -1.80058 -6.30285 0
M  V30 21844 H 2026.14 -0.115549 -5.99689 0
M  V30 21845 H 2027.82 -0.499412 -6.4507 0
M  V30 21846 N 2027.95 1.56642 -0.173515 0
M  V30 21847 C 2029.37 1.58552 0.182625 0
M  V30 21848 C 2029.57 1.18895 1.62685 0
M  V30 21849 O 2028.63 0.901576 2.35856 0
M  V30 21850 C 2029.94 3.00533 -0.100181 0
M  V30 21851 C 2031.49 3.12976 -0.038567 0
M  V30 21852 C 2031.96 4.57053 -0.294392 0
M  V30 21853 N 2033.45 4.62566 -0.242245 0
M  V30 21854 C 2034.19 5.71901 -0.414333 0
M  V30 21855 N 2033.68 6.89785 -0.645597 0
M  V30 21856 N 2035.48 5.61009 -0.350085 0
M  V30 21857 H 2027.63 1.80706 -1.1162 0
M  V30 21858 H 2029.89 0.837643 -0.443912 0
M  V30 21859 H 2029.6 3.34031 -1.10073 0
M  V30 21860 H 2029.47 3.72281 0.607196 0
M  V30 21861 H 2031.86 2.79303 0.952559 0
M  V30 21862 H 2031.94 2.4366 -0.778688 0
M  V30 21863 H 2031.58 4.91435 -1.28274 0
M  V30 21864 H 2031.51 5.24531 0.466366 0
M  V30 21865 H 2034 3.77837 -0.0692351 0
M  V30 21866 H 2034.32 7.68991 -0.766299 0
M  V30 21867 H 2032.66 6.91643 -0.682238 0
M  V30 21868 H 2035.85 4.67791 -0.169986 0
M  V30 21869 H 2036.03 6.46163 -0.487625 0
M  V30 21870 N 2029.43 -0.1002 1.57281 0
M  V30 21871 C 2030.34 -1.14039 2.05018 0
M  V30 21872 C 2031.36 -1.44178 0.974096 0
M  V30 21873 O 2032.53 -1.54921 1.28691 0
M  V30 21874 C 2029.6 -2.44226 2.46078 0
M  V30 21875 C 2028.66 -2.21315 3.67856 0
M  V30 21876 C 2027.89 -3.45295 4.06948 0
M  V30 21877 O 2028.12 -4.53334 3.46185 0
M  V30 21878 O 2027.05 -3.35185 4.99935 0
M  V30 21879 H 2030.88 -0.764957 2.93908 0
M  V30 21880 H 2028.46 -0.312347 1.46098 0
M  V30 21881 H 2030.34 -3.20895 2.73138 0
M  V30 21882 H 2029.02 -2.81206 1.60327 0
M  V30 21883 H 2027.92 -1.42444 3.4592 0
M  V30 21884 H 2029.26 -1.89231 4.54371 0
M  V30 21885 N 2030.91 -1.53174 -0.370891 0
M  V30 21886 C 2031.87 -1.7857 -1.43685 0
M  V30 21887 C 2032.87 -0.656018 -1.4681 0
M  V30 21888 O 2034.06 -0.924191 -1.47663 0
M  V30 21889 C 2031.19 -1.90295 -2.82844 0
M  V30 21890 H 2032.39 -2.73766 -1.22442 0
M  V30 21891 H 2029.94 -1.4417 -0.603713 0
M  V30 21892 H 2030.68 -0.971472 -3.09407 0
M  V30 21893 H 2030.46 -2.72456 -2.81975 0
M  V30 21894 H 2031.95 -2.11554 -3.60048 0
M  V30 21895 N 2032.39 0.630389 -1.44443 0
M  V30 21896 C 2033.63 1.38993 -1.47265 0
M  V30 21897 C 2033.96 1.94213 -0.105537 0
M  V30 21898 O 2033.22 1.7415 0.89277 0
M  V30 21899 C 2033.52 2.57255 -2.48102 0
M  V30 21900 C 2033.18 2.20319 -3.93408 0
M  V30 21901 C 2031.84 2.09959 -4.32979 0
M  V30 21902 C 2034.2 1.91148 -4.84883 0
M  V30 21903 C 2031.52 1.68616 -5.61948 0
M  V30 21904 C 2033.88 1.51298 -6.14241 0
M  V30 21905 C 2032.54 1.39479 -6.52765 0
M  V30 21906 H 2031.81 0.508613 -0.538882 0
M  V30 21907 H 2034.46 0.714772 -1.77661 0
M  V30 21908 H 2032.76 3.30007 -2.11193 0
M  V30 21909 H 2034.46 3.15483 -2.47531 0
M  V30 21910 H 2031.05 2.29301 -3.62103 0
M  V30 21911 H 2035.23 1.98061 -4.55066 0
M  V30 21912 H 2030.49 1.5807 -5.90613 0
M  V30 21913 H 2034.66 1.27764 -6.8458 0
M  V30 21914 H 2032.29 1.07216 -7.52601 0
M  V30 21915 N 2033.87 1.31354 0.870861 0
M  V30 21916 C 2034.83 1.18889 1.95954 0
M  V30 21917 C 2035.83 0.116227 1.60379 0
M  V30 21918 O 2037.02 0.365426 1.70324 0
M  V30 21919 C 2034.15 0.824704 3.30774 0
M  V30 21920 H 2035.34 2.15624 2.08438 0
M  V30 21921 H 2032.9 1.14952 1.05904 0
M  V30 21922 H 2033.63 -0.141533 3.23991 0
M  V30 21923 H 2033.42 1.60006 3.57967 0
M  V30 21924 H 2034.91 0.761361 4.10601 0
M  V30 21925 N 2035.34 -1.08505 1.143 0
M  V30 21926 C 2036.62 -1.77515 0.82144 0
M  V30 21927 C 2037 -1.99668 -0.685253 0
M  V30 21928 O 2036.35 -1.60569 -1.62573 0
M  V30 21929 C 2036.56 -3.09174 1.61903 0
M  V30 21930 C 2037.91 -3.83722 1.81775 0
M  V30 21931 O 2038.93 -3.18952 1.58581 0
M  V30 21932 O 2037.79 -5.00023 2.20543 0
M  V30 21933 H 2034.88 -0.770315 0.300906 0
M  V30 21934 H 2037.43 -1.14976 1.24814 0
M  V30 21935 H 2036.2 -2.88593 2.64253 0
M  V30 21936 H 2035.82 -3.7944 1.1879 0
M  V30 21937 N 2036.82 -0.937962 -1.26649 0
M  V30 21938 C 2038.06 -0.591253 -1.95662 0
M  V30 21939 C 2038.43 0.853316 -1.71996 0
M  V30 21940 O 2039.63 1.3088 -2.34785 0
M  V30 21941 C 2037.9 -0.920382 -3.45346 0
M  V30 21942 S 2039.46 -0.683733 -4.3344 0
M  V30 21943 H 2036.27 -0.217883 -0.676793 0
M  V30 21944 H 2038.88 -1.20859 -1.53666 0
M  V30 21945 H 2037.58 -1.96921 -3.6007 0
M  V30 21946 H 2037.11 -0.292641 -3.9231 0
M  V30 21947 H 2039.13 0.453606 -4.94122 0
M  V30 21948 N 2038.3 1.40971 -0.704618 0
M  V30 21949 C 2039.53 2.05399 -0.248738 0
M  V30 21950 C 2039.94 1.53056 1.10541 0
M  V30 21951 O 2039.3 0.682534 1.69256 0
M  V30 21952 C 2039.35 3.60902 -0.207794 0
M  V30 21953 O 2039.07 4.11311 -1.50846 0
M  V30 21954 C 2040.57 4.42489 0.267977 0
M  V30 21955 H 2037.79 0.661269 -0.11386 0
M  V30 21956 H 2040.34 1.8058 -0.959745 0
M  V30 21957 H 2038.49 3.84729 0.4541 0
M  V30 21958 H 2038.91 5.05426 -1.4016 0
M  V30 21959 H 2040.38 5.51454 0.245489 0
M  V30 21960 H 2040.86 4.1926 1.30836 0
M  V30 21961 H 2041.46 4.23746 -0.363242 0
M  V30 21962 N 2039.78 0.45001 1.51039 0
M  V30 21963 C 2040.71 -0.40053 2.24658 0
M  V30 21964 C 2041.69 -1.01409 1.27102 0
M  V30 21965 O 2042.87 -1.05411 1.56272 0
M  V30 21966 C 2040 -1.55933 3.0067 0
M  V30 21967 C 2039.05 -1.06522 4.12983 0
M  V30 21968 S 2039.88 0.00304687 5.355 0
M  V30 21969 C 2041.04 -1.16012 6.15054 0
M  V30 21970 H 2041.27 0.224453 2.96452 0
M  V30 21971 H 2038.8 0.234654 1.52606 0
M  V30 21972 H 2040.76 -2.22358 3.45061 0
M  V30 21973 H 2039.42 -2.15576 2.28442 0
M  V30 21974 H 2038.61 -1.93213 4.65494 0
M  V30 21975 H 2038.22 -0.479013 3.7092 0
M  V30 21976 H 2040.51 -2.076 6.4491 0
M  V30 21977 H 2041.45 -0.674722 7.04878 0
M  V30 21978 H 2041.86 -1.40442 5.46751 0
M  V30 21979 N 2041.26 -1.56548 0.18182 0
M  V30 21980 C 2042.19 -2.21471 -0.739774 0
M  V30 21981 C 2043.17 -1.17361 -1.23128 0
M  V30 21982 O 2044.35 -1.45825 -1.28253 0
M  V30 21983 C 2041.48 -2.86369 -1.96494 0
M  V30 21984 C 2040.44 -3.96609 -1.60888 0
M  V30 21985 C 2039.76 -4.48607 -2.90957 0
M  V30 21986 C 2041.06 -5.15681 -0.828895 0
M  V30 21987 H 2042.76 -2.98741 -0.19858 0
M  V30 21988 H 2040.3 -1.43692 -0.0940725 0
M  V30 21989 H 2042.26 -3.30466 -2.61477 0
M  V30 21990 H 2040.98 -2.06485 -2.53045 0
M  V30 21991 H 2039.64 -3.53184 -0.982694 0
M  V30 21992 H 2039.29 -3.65501 -3.45569 0
M  V30 21993 H 2038.99 -5.22984 -2.67882 0
M  V30 21994 H 2040.51 -4.95397 -3.56951 0
M  V30 21995 H 2041.92 -5.56405 -1.38153 0
M  V30 21996 H 2040.32 -5.96041 -0.696789 0
M  V30 21997 H 2041.39 -4.84592 0.172711 0
M  V30 21998 N 2042.73 0.0918577 -1.57332 0
M  V30 21999 C 2043.96 0.808218 -1.90461 0
M  V30 22000 C 2044.38 1.72122 -0.775843 0
M  V30 22001 O 2043.73 1.80752 0.251995 0
M  V30 22002 C 2043.79 1.61885 -3.23227 0
M  V30 22003 O 2043.51 0.742563 -4.31761 0
M  V30 22004 C 2045.01 2.43798 -3.7024 0
M  V30 22005 H 2042.23 0.230915 -0.630015 0
M  V30 22006 H 2044.77 0.0681235 -2.04387 0
M  V30 22007 H 2042.93 2.31142 -3.1089 0
M  V30 22008 H 2043.34 1.30433 -5.08023 0
M  V30 22009 H 2044.81 2.96164 -4.65823 0
M  V30 22010 H 2045.29 3.2241 -2.98242 0
M  V30 22011 H 2045.9 1.79734 -3.85455 0
M  V30 22012 N 2044.21 1.53368 0.362763 0
M  V30 22013 C 2045.46 1.68906 1.10243 0
M  V30 22014 C 2045.77 0.448846 1.90381 0
M  V30 22015 O 2046.98 0.484821 2.67136 0
M  V30 22016 C 2045.44 2.98602 2.0091 0
M  V30 22017 C 2045.04 4.29895 1.26071 0
M  V30 22018 C 2046.79 3.23507 2.74852 0
M  V30 22019 C 2044.7 5.50678 2.15657 0
M  V30 22020 H 2043.63 0.629342 0.415265 0
M  V30 22021 H 2046.28 1.79869 0.363231 0
M  V30 22022 H 2044.66 2.81449 2.78572 0
M  V30 22023 H 2045.83 4.57689 0.534529 0
M  V30 22024 H 2044.15 4.11455 0.639803 0
M  V30 22025 H 2046.74 4.10931 3.42111 0
M  V30 22026 H 2047.09 2.39689 3.40374 0
M  V30 22027 H 2047.62 3.41347 2.04271 0
M  V30 22028 H 2044.36 6.36982 1.54707 0
M  V30 22029 H 2043.88 5.27159 2.86117 0
M  V30 22030 H 2045.56 5.85578 2.75151 0
M  V30 22031 N 2045.69 -0.62272 1.44776 0
M  V30 22032 C 2046.65 -1.71618 1.5192 0
M  V30 22033 C 2047.65 -1.55738 0.400303 0
M  V30 22034 O 2048.84 -1.6108 0.66324 0
M  V30 22035 C 2045.98 -3.10771 1.40122 0
M  V30 22036 H 2047.17 -1.66655 2.49332 0
M  V30 22037 H 2044.72 -0.837126 1.31992 0
M  V30 22038 H 2045.46 -3.21323 0.438374 0
M  V30 22039 H 2045.24 -3.23705 2.21264 0
M  V30 22040 H 2046.73 -3.90448 1.48122 0
M  V30 22041 N 2047.17 -1.31814 -0.863883 0
M  V30 22042 C 2048.12 -1.16567 -1.9595 0
M  V30 22043 C 2049.1 -0.0750277 -1.60725 0
M  V30 22044 O 2050.29 -0.300581 -1.74429 0
M  V30 22045 C 2047.42 -0.881386 -3.31793 0
M  V30 22046 C 2046.51 -2.01329 -3.73266 0
M  V30 22047 N 2046.9 -3.26096 -3.86646 0
M  V30 22048 C 2045.2 -1.91439 -4.02824 0
M  V30 22049 C 2045.9 -4.00175 -4.22179 0
M  V30 22050 N 2044.88 -3.28393 -4.33196 0
M  V30 22051 H 2048.68 -2.11168 -2.04415 0
M  V30 22052 H 2046.19 -1.23459 -1.05506 0
M  V30 22053 H 2048.19 -0.753128 -4.10041 0
M  V30 22054 H 2046.85 0.0563426 -3.24651 0
M  V30 22055 H 2047.86 -3.6114 -3.71212 0
M  V30 22056 H 2044.54 -1.0517 -4.04037 0
M  V30 22057 H 2045.93 -5.07722 -4.40078 0
M  V30 22058 N 2048.65 1.07897 -1.14873 0
M  V30 22059 C 2050.06 1.32467 -0.89021 0
M  V30 22060 C 2050.26 1.96041 0.46584 0
M  V30 22061 O 2049.32 2.21675 1.20899 0
M  V30 22062 C 2050.63 2.22118 -2.02692 0
M  V30 22063 C 2052.18 2.35583 -2.06082 0
M  V30 22064 C 2052.65 3.28579 -3.19061 0
M  V30 22065 N 2054.15 3.36158 -3.18673 0
M  V30 22066 C 2054.88 4.0816 -4.02731 0
M  V30 22067 N 2054.38 4.82826 -4.96841 0
M  V30 22068 N 2056.17 4.04045 -3.90774 0
M  V30 22069 H 2048.32 0.650155 -2.02205 0
M  V30 22070 H 2050.58 0.349072 -0.881393 0
M  V30 22071 H 2050.29 1.82656 -3.00549 0
M  V30 22072 H 2050.16 3.22612 -1.95452 0
M  V30 22073 H 2052.55 2.743 -1.08829 0
M  V30 22074 H 2052.63 1.34812 -2.17392 0
M  V30 22075 H 2052.28 2.90582 -4.16563 0
M  V30 22076 H 2052.21 4.2929 -3.04988 0
M  V30 22077 H 2054.7 2.82932 -2.50515 0
M  V30 22078 H 2055.01 5.35244 -5.57434 0
M  V30 22079 H 2053.35 4.81861 -5.00834 0
M  V30 22080 H 2056.55 3.44823 -3.16567 0
M  V30 22081 H 2056.72 4.59895 -4.56509 0
M  V30 22082 N 2050.12 0.944665 1.2615 0
M  V30 22083 C 2051.05 0.47478 2.28622 0
M  V30 22084 C 2052.04 -0.473742 1.6337 0
M  V30 22085 O 2053.22 -0.374847 1.90548 0
M  V30 22086 C 2050.35 -0.2576 3.46343 0
M  V30 22087 C 2049.3 0.604701 4.23707 0
M  V30 22088 C 2048.63 -0.257841 5.34078 0
M  V30 22089 C 2049.93 1.8778 4.87377 0
M  V30 22090 H 2051.62 1.33122 2.68177 0
M  V30 22091 H 2049.17 0.641555 1.28919 0
M  V30 22092 H 2051.12 -0.597382 4.17144 0
M  V30 22093 H 2049.85 -1.14821 3.05751 0
M  V30 22094 H 2048.51 0.927426 3.54675 0
M  V30 22095 H 2048.15 -1.1479 4.89727 0
M  V30 22096 H 2047.85 0.315739 5.86751 0
M  V30 22097 H 2049.38 -0.592815 6.07715 0
M  V30 22098 H 2050.79 1.60505 5.50374 0
M  V30 22099 H 2049.19 2.39623 5.50182 0
M  V30 22100 H 2050.26 2.58705 4.10122 0
M  V30 22101 N 2051.6 -1.40596 0.712085 0
M  V30 22102 C 2052.55 -2.27975 0.0337791 0
M  V30 22103 C 2053.54 -1.43074 -0.736121 0
M  V30 22104 O 2054.73 -1.66197 -0.608897 0
M  V30 22105 C 2051.86 -3.31568 -0.889801 0
M  V30 22106 C 2050.94 -4.23943 -0.115273 0
M  V30 22107 N 2051.33 -4.97735 0.899639 0
M  V30 22108 C 2049.63 -4.44638 -0.348346 0
M  V30 22109 C 2050.33 -5.65465 1.36472 0
M  V30 22110 N 2049.31 -5.39235 0.687525 0
M  V30 22111 H 2053.11 -2.82469 0.811689 0
M  V30 22112 H 2050.63 -1.53005 0.544362 0
M  V30 22113 H 2052.62 -3.93009 -1.39103 0
M  V30 22114 H 2051.28 -2.78634 -1.66713 0
M  V30 22115 H 2052.29 -5.01823 1.28038 0
M  V30 22116 H 2048.97 -4.02686 -1.10227 0
M  V30 22117 H 2050.36 -6.3459 2.20783 0
M  V30 22118 N 2053.08 -0.458013 -1.50798 0
M  V30 22119 C 2054.31 0.0995379 -2.0666 0
M  V30 22120 C 2054.72 1.34662 -1.32331 0
M  V30 22121 O 2054.08 1.78311 -0.388768 0
M  V30 22122 C 2054.13 0.400901 -3.5927 0
M  V30 22123 O 2053.85 -0.796705 -4.30795 0
M  V30 22124 C 2055.35 1.00686 -4.31714 0
M  V30 22125 H 2052.57 -0.00125628 -0.670999 0
M  V30 22126 H 2055.12 -0.643041 -1.94127 0
M  V30 22127 H 2053.27 1.0934 -3.7165 0
M  V30 22128 H 2053.69 -0.533396 -5.21781 0
M  V30 22129 H 2055.16 1.16758 -5.39511 0
M  V30 22130 H 2055.64 1.99349 -3.91352 0
M  V30 22131 H 2056.24 0.353135 -4.23831 0
M  V30 22132 N 2054.56 1.56449 -0.190119 0
M  V30 22133 C 2055.81 1.9773 0.450624 0
M  V30 22134 C 2056.14 1.07678 1.61614 0
M  V30 22135 O 2055.41 0.127743 1.9408 0
M  V30 22136 C 2055.7 3.48267 0.915552 0
M  V30 22137 C 2055.55 4.49097 -0.251436 0
M  V30 22138 C 2056.87 4.02374 1.78278 0
M  V30 22139 H 2053.99 0.718902 0.162325 0
M  V30 22140 H 2056.63 1.87925 -0.28004 0
M  V30 22141 H 2054.78 3.56753 1.53816 0
M  V30 22142 H 2056.45 4.52653 -0.888996 0
M  V30 22143 H 2054.69 4.24276 -0.903996 0
M  V30 22144 H 2055.37 5.51877 0.116306 0
M  V30 22145 H 2057.84 3.96636 1.25774 0
M  V30 22146 H 2056.72 5.08084 2.07706 0
M  V30 22147 H 2056.98 3.4733 2.73522 0
M  V30 22148 N 2056.04 -0.0835127 1.57379 0
M  V30 22149 C 2056.97 -1.101 2.05913 0
M  V30 22150 C 2057.95 -1.41079 0.950298 0
M  V30 22151 O 2059.13 -1.50909 1.2223 0
M  V30 22152 C 2056.26 -2.41772 2.49327 0
M  V30 22153 C 2055.22 -2.25173 3.63979 0
M  V30 22154 C 2054.54 -3.62124 3.93408 0
M  V30 22155 C 2055.84 -1.68267 4.94453 0
M  V30 22156 H 2057.54 -0.697176 2.9117 0
M  V30 22157 H 2055.08 -0.333914 1.40075 0
M  V30 22158 H 2057.04 -3.13234 2.81891 0
M  V30 22159 H 2055.76 -2.84112 1.61084 0
M  V30 22160 H 2054.42 -1.56154 3.3168 0
M  V30 22161 H 2054.07 -4.02013 3.02315 0
M  V30 22162 H 2053.77 -3.51861 4.70603 0
M  V30 22163 H 2055.29 -4.35036 4.28458 0
M  V30 22164 H 2056.71 -2.29582 5.25324 0
M  V30 22165 H 2055.1 -1.68731 5.7589 0
M  V30 22166 H 2056.17 -0.64309 4.80617 0
M  V30 22167 N 2057.52 -1.53558 -0.354624 0
M  V30 22168 C 2058.76 -1.69934 -1.09393 0
M  V30 22169 C 2059.08 -0.459423 -1.89511 0
M  V30 22170 O 2058.35 0.526608 -1.88689 0
M  V30 22171 H 2056.93 -0.626487 -0.406845 0
M  V30 22172 H 2059.6 -1.90781 -0.398582 0
M  V30 22173 H 2058.69 -2.56533 -1.77757 0
M  V30 22174 N 2058.99 0.615033 -1.45104 0
M  V30 22175 C 2060.22 1.40596 -1.52471 0
M  V30 22176 C 2060.64 1.87454 -0.155745 0
M  V30 22177 O 2060 1.59701 0.858209 0
M  V30 22178 C 2060.05 2.59156 -2.5074 0
M  V30 22179 O 2059.15 3.59538 -2.02006 0
M  V30 22180 H 2058.49 0.420045 -0.514255 0
M  V30 22181 H 2061.02 0.749208 -1.90389 0
M  V30 22182 H 2061.03 3.06496 -2.69303 0
M  V30 22183 H 2059.71 2.24399 -3.50169 0
M  V30 22184 H 2058.29 3.18897 -1.93284 0
M  V30 22185 N 2060.47 1.3227 0.85688 0
M  V30 22186 C 2061.75 1.13324 1.59427 0
M  V30 22187 C 2062.13 -0.307216 2.08853 0
M  V30 22188 O 2061.48 -1.30347 1.87675 0
M  V30 22189 C 2061.69 2.15889 2.74213 0
M  V30 22190 C 2063.03 2.49103 3.4385 0
M  V30 22191 O 2064.06 2.14417 2.84436 0
M  V30 22192 O 2062.92 3.08555 4.51061 0
M  V30 22193 H 2060.01 0.437152 0.702016 0
M  V30 22194 H 2062.56 1.43793 0.901202 0
M  V30 22195 H 2061.33 3.12724 2.35201 0
M  V30 22196 H 2060.95 1.86401 3.51198 0
M  V30 22197 N 2061.95 -1.07287 1.15444 0
M  V30 22198 C 2063.37 -1.31993 0.897222 0
M  V30 22199 C 2063.57 -1.96286 -0.455437 0
M  V30 22200 O 2062.62 -2.22313 -1.19722 0
M  V30 22201 C 2063.93 -2.2104 2.03868 0
M  V30 22202 C 2065.48 -2.34486 2.07329 0
M  V30 22203 C 2065.96 -3.26882 3.20799 0
M  V30 22204 N 2067.45 -3.34463 3.20451 0
M  V30 22205 C 2068.18 -4.06019 4.0489 0
M  V30 22206 N 2067.68 -4.80184 4.99395 0
M  V30 22207 N 2069.47 -4.01967 3.92911 0
M  V30 22208 H 2061.62 -0.639423 2.02547 0
M  V30 22209 H 2063.89 -0.344393 0.883231 0
M  V30 22210 H 2063.59 -1.8106 3.01513 0
M  V30 22211 H 2063.47 -3.21571 1.9716 0
M  V30 22212 H 2065.85 -2.73719 1.10282 0
M  V30 22213 H 2065.93 -1.33658 2.18104 0
M  V30 22214 H 2065.58 -2.88368 4.18098 0
M  V30 22215 H 2065.51 -4.27667 3.0726 0
M  V30 22216 H 2068 -2.816 2.52012 0
M  V30 22217 H 2068.31 -5.32281 5.60265 0
M  V30 22218 H 2066.66 -4.79198 5.03383 0
M  V30 22219 H 2069.85 -3.43139 3.18392 0
M  V30 22220 H 2070.02 -4.57468 4.58942 0
M  V30 22221 N 2063.43 -0.951342 -1.25647 0
M  V30 22222 C 2064.68 -0.600038 -1.92568 0
M  V30 22223 C 2064.99 0.866499 -1.7536 0
M  V30 22224 O 2066.2 1.32762 -2.36826 0
M  V30 22225 C 2064.65 -1.02246 -3.45071 0
M  V30 22226 C 2064.26 -2.51131 -3.70995 0
M  V30 22227 C 2066 -0.743532 -4.17938 0
M  V30 22228 C 2063.91 -2.87191 -5.16987 0
M  V30 22229 H 2062.84 -0.220706 -0.720975 0
M  V30 22230 H 2065.49 -1.15535 -1.42562 0
M  V30 22231 H 2063.87 -0.395588 -3.94019 0
M  V30 22232 H 2065.05 -3.18809 -3.32712 0
M  V30 22233 H 2063.36 -2.76461 -3.11381 0
M  V30 22234 H 2065.96 -0.989148 -5.25471 0
M  V30 22235 H 2066.3 0.319973 -4.15069 0
M  V30 22236 H 2066.84 -1.3306 -3.74887 0
M  V30 22237 H 2063.57 -3.92545 -5.24965 0
M  V30 22238 H 2063.09 -2.24183 -5.56329 0
M  V30 22239 H 2064.77 -2.76205 -5.85081 0
M  V30 22240 N 2064.91 1.40216 -0.719531 0
M  V30 22241 C 2065.84 2.28192 -0.0185278 0
M  V30 22242 C 2066.82 1.43553 0.763632 0
M  V30 22243 O 2068 1.72961 0.749443 0
M  V30 22244 C 2065.13 3.24179 0.981108 0
M  V30 22245 C 2064.17 4.25518 0.289289 0
M  V30 22246 S 2065.01 5.26351 -0.985661 0
M  V30 22247 C 2066.16 6.25899 0.011772 0
M  V30 22248 H 2066.4 2.87299 -0.764643 0
M  V30 22249 H 2063.93 1.45709 -0.510709 0
M  V30 22250 H 2065.89 3.80005 1.55262 0
M  V30 22251 H 2064.55 2.64122 1.69995 0
M  V30 22252 H 2063.74 4.93045 1.04512 0
M  V30 22253 H 2063.34 3.73411 -0.209776 0
M  V30 22254 H 2065.63 6.72054 0.857313 0
M  V30 22255 H 2066.58 7.0529 -0.630218 0
M  V30 22256 H 2066.99 5.63238 0.377261 0
M  V30 22257 N 2066.38 0.466004 1.50553 0
M  V30 22258 C 2067.63 -0.0908736 2.02596 0
M  V30 22259 C 2067.96 -1.39827 1.34767 0
M  V30 22260 O 2067.24 -1.88693 0.471719 0
M  V30 22261 C 2067.52 -0.279963 3.5901 0
M  V30 22262 C 2067.37 1.0481 4.37419 0
M  V30 22263 C 2068.69 -1.03683 4.27712 0
M  V30 22264 H 2065.81 -0.031552 0.736324 0
M  V30 22265 H 2068.45 0.610602 1.79921 0
M  V30 22266 H 2066.6 -0.877461 3.78461 0
M  V30 22267 H 2068.28 1.68178 4.29551 0
M  V30 22268 H 2066.52 1.64595 4.01361 0
M  V30 22269 H 2067.19 0.869493 5.45109 0
M  V30 22270 H 2069.67 -0.53043 4.12705 0
M  V30 22271 H 2068.54 -1.13792 5.36975 0
M  V30 22272 H 2068.8 -2.07215 3.90531 0
M  V30 22273 N 2067.86 -1.56346 0.198413 0
M  V30 22274 C 2068.79 -2.22244 -0.716243 0
M  V30 22275 C 2069.77 -1.1866 -1.21876 0
M  V30 22276 O 2070.96 -1.47177 -1.26699 0
M  V30 22277 C 2068.09 -2.88437 -1.93446 0
M  V30 22278 C 2067.04 -3.98294 -1.56672 0
M  V30 22279 C 2066.37 -4.51668 -2.86182 0
M  V30 22280 C 2067.67 -5.16531 -0.774153 0
M  V30 22281 H 2069.36 -2.98935 -0.166883 0
M  V30 22282 H 2066.91 -1.43784 -0.0788267 0
M  V30 22283 H 2068.86 -3.33221 -2.57957 0
M  V30 22284 H 2067.58 -2.09157 -2.5084 0
M  V30 22285 H 2066.24 -3.54206 -0.945178 0
M  V30 22286 H 2065.89 -3.69146 -3.41673 0
M  V30 22287 H 2065.59 -5.25796 -2.6232 0
M  V30 22288 H 2067.12 -4.99155 -3.51676 0
M  V30 22289 H 2068.53 -5.57839 -1.32244 0
M  V30 22290 H 2066.93 -5.96746 -0.633532 0
M  V30 22291 H 2068 -4.84382 0.224098 0
M  V30 22292 N 2069.34 0.0751653 -1.57421 0
M  V30 22293 C 2070.3 1.07404 -2.02477 0
M  V30 22294 C 2071.3 1.31792 -0.921282 0
M  V30 22295 O 2072.49 1.27569 -1.18625 0
M  V30 22296 C 2069.63 2.4185 -2.40253 0
M  V30 22297 H 2070.82 0.685783 -2.91954 0
M  V30 22298 H 2068.37 0.320795 -1.52973 0
M  V30 22299 H 2069.11 2.85515 -1.53791 0
M  V30 22300 H 2068.89 2.25492 -3.20774 0
M  V30 22301 H 2070.38 3.13655 -2.75699 0
M  V30 22302 N 2070.82 1.53744 0.346476 0
M  V30 22303 C 2071.75 1.77836 1.44592 0
M  V30 22304 C 2072.76 0.659581 1.4884 0
M  V30 22305 O 2073.95 0.936252 1.51976 0
M  V30 22306 C 2071.05 1.86049 2.83265 0
M  V30 22307 C 2070.23 3.1594 3.02491 0
M  V30 22308 C 2069.28 3.15147 4.21389 0
M  V30 22309 O 2068.31 3.88879 4.15646 0
M  V30 22310 N 2069.51 2.37309 5.29778 0
M  V30 22311 H 2072.28 2.72709 1.24297 0
M  V30 22312 H 2069.84 1.52758 0.536336 0
M  V30 22313 H 2071.83 1.82973 3.60975 0
M  V30 22314 H 2070.4 0.983753 2.96717 0
M  V30 22315 H 2069.62 3.32163 2.12277 0
M  V30 22316 H 2070.91 4.01743 3.12217 0
M  V30 22317 H 2070.31 1.76952 5.37312 0
M  V30 22318 H 2068.86 2.40034 6.05992 0
M  V30 22319 N 2072.3 -0.607329 1.45428 0
M  V30 22320 C 2073.54 -1.36363 1.49163 0
M  V30 22321 C 2073.87 -1.94533 0.134827 0
M  V30 22322 O 2073.14 -1.77174 -0.835838 0
M  V30 22323 H 2071.72 -0.506225 0.549314 0
M  V30 22324 H 2074.38 -0.713138 1.81385 0
M  V30 22325 H 2073.47 -2.18292 2.23058 0
M  V30 22326 N 2073.77 -1.32722 -0.849853 0
M  V30 22327 C 2074.71 -1.1789 -1.96557 0
M  V30 22328 C 2075.72 -0.112655 -1.6241 0
M  V30 22329 O 2076.91 -0.362063 -1.74789 0
M  V30 22330 C 2074.01 -0.783347 -3.29722 0
M  V30 22331 C 2073.18 -1.9389 -3.92078 0
M  V30 22332 C 2072.24 -1.52611 -5.03583 0
M  V30 22333 O 2071.27 -2.23885 -5.2332 0
M  V30 22334 N 2072.47 -0.424856 -5.78943 0
M  V30 22335 H 2075.23 -2.13998 -2.09821 0
M  V30 22336 H 2072.79 -1.25323 -1.02498 0
M  V30 22337 H 2074.79 -0.489511 -4.01729 0
M  V30 22338 H 2073.36 0.0867245 -3.1248 0
M  V30 22339 H 2072.58 -2.39897 -3.12799 0
M  V30 22340 H 2073.86 -2.71238 -4.30473 0
M  V30 22341 H 2073.26 0.168251 -5.6545 0
M  V30 22342 H 2071.82 -0.190647 -6.51521 0
M  V30 22343 N 2075.25 1.06673 -1.16011 0
M  V30 22344 C 2076.5 1.79666 -0.940641 0
M  V30 22345 C 2076.83 1.86814 0.530502 0
M  V30 22346 O 2076.11 1.35692 1.39348 0
M  V30 22347 C 2076.39 3.24359 -1.56407 0
M  V30 22348 C 2076.24 3.25315 -3.10629 0
M  V30 22349 C 2077.56 4.2181 -1.25556 0
M  V30 22350 H 2074.68 0.652242 -0.343145 0
M  V30 22351 H 2077.32 1.2478 -1.43282 0
M  V30 22352 H 2075.47 3.71227 -1.14553 0
M  V30 22353 H 2077.14 2.86637 -3.61438 0
M  V30 22354 H 2075.39 2.64077 -3.4416 0
M  V30 22355 H 2076.06 4.27371 -3.49368 0
M  V30 22356 H 2078.53 3.83365 -1.61772 0
M  V30 22357 H 2077.41 5.21326 -1.71785 0
M  V30 22358 H 2077.67 4.41758 -0.173744 0
M  V30 22359 N 2076.73 0.957992 1.25141 0
M  V30 22360 C 2077.98 0.615503 1.93234 0
M  V30 22361 C 2078.31 -0.845811 1.74813 0
M  V30 22362 O 2077.58 -1.60729 1.09528 0
M  V30 22363 C 2077.87 0.979109 3.46533 0
M  V30 22364 C 2077.72 2.4964 3.74165 0
M  V30 22365 C 2079.04 0.506601 4.37175 0
M  V30 22366 H 2076.16 0.225085 0.701787 0
M  V30 22367 H 2078.8 1.19525 1.47695 0
M  V30 22368 H 2076.95 0.485773 3.85451 0
M  V30 22369 H 2078.62 3.06376 3.44865 0
M  V30 22370 H 2076.87 2.93263 3.19655 0
M  V30 22371 H 2077.54 2.70132 4.81386 0
M  V30 22372 H 2080.01 0.929831 4.05578 0
M  V30 22373 H 2078.89 0.789676 5.4319 0
M  V30 22374 H 2079.15 -0.59342 4.38099 0
M  V30 22375 N 2078.21 -1.39832 0.726957 0
M  V30 22376 C 2079.12 -2.34453 0.0830837 0
M  V30 22377 C 2080.13 -1.579 -0.731009 0
M  V30 22378 O 2081.31 -1.90232 -0.661338 0
M  V30 22379 C 2078.38 -3.3688 -0.819324 0
M  V30 22380 C 2077.44 -4.293 0.00610659 0
M  V30 22381 C 2076.67 -5.26834 -0.853324 0
M  V30 22382 O 2076.89 -5.30641 -2.09228 0
M  V30 22383 O 2075.83 -6.01219 -0.286261 0
M  V30 22384 H 2079.65 -2.91155 0.863845 0
M  V30 22385 H 2077.24 -1.41221 0.487543 0
M  V30 22386 H 2079.12 -3.99665 -1.33589 0
M  V30 22387 H 2077.79 -2.82574 -1.57904 0
M  V30 22388 H 2076.7 -3.69763 0.568007 0
M  V30 22389 H 2078.03 -4.86789 0.727856 0
M  V30 22390 N 2079.69 -0.473982 -1.50304 0
M  V30 22391 C 2080.93 0.0800096 -2.02342 0
M  V30 22392 C 2081.26 1.39461 -1.35576 0
M  V30 22393 O 2080.52 1.89937 -0.471407 0
M  V30 22394 C 2080.82 0.308841 -3.56063 0
M  V30 22395 C 2080.48 -0.924412 -4.41322 0
M  V30 22396 C 2079.14 -1.26253 -4.64342 0
M  V30 22397 C 2081.5 -1.7454 -4.91106 0
M  V30 22398 C 2078.82 -2.42164 -5.34391 0
M  V30 22399 C 2081.18 -2.89582 -5.62428 0
M  V30 22400 C 2079.84 -3.23805 -5.83701 0
M  V30 22401 H 2079.11 0.0292776 -0.740421 0
M  V30 22402 H 2081.76 -0.62865 -1.80887 0
M  V30 22403 H 2080.06 1.09977 -3.76048 0
M  V30 22404 H 2081.76 0.7515 -3.93895 0
M  V30 22405 H 2078.35 -0.650995 -4.23627 0
M  V30 22406 H 2082.53 -1.49735 -4.73173 0
M  V30 22407 H 2077.79 -2.6895 -5.49068 0
M  V30 22408 H 2081.96 -3.53542 -5.99984 0
M  V30 22409 H 2079.59 -4.13729 -6.37756 0
M  V30 22410 N 2081.16 1.56239 -0.206702 0
M  V30 22411 C 2082.44 1.89689 0.477219 0
M  V30 22412 C 2082.82 1.12193 1.78818 0
M  V30 22413 O 2082.17 0.226599 2.27374 0
M  V30 22414 C 2082.38 3.42218 0.684683 0
M  V30 22415 C 2083.73 4.12685 0.998827 0
M  V30 22416 O 2084.75 3.47734 0.771997 0
M  V30 22417 O 2083.61 5.275 1.42851 0
M  V30 22418 H 2080.7 0.788217 0.250286 0
M  V30 22419 H 2083.25 1.67881 -0.247781 0
M  V30 22420 H 2082.02 3.90559 -0.240635 0
M  V30 22421 H 2081.65 3.69756 1.46172 0
M  V30 22422 N 2082.64 -0.0668159 1.57458 0
M  V30 22423 C 2083.87 -0.777815 1.91723 0
M  V30 22424 C 2084.29 -1.70866 0.803128 0
M  V30 22425 O 2083.64 -1.8113 -0.223207 0
M  V30 22426 C 2083.69 -1.56722 3.25761 0
M  V30 22427 O 2083.41 -0.673779 4.32888 0
M  V30 22428 C 2084.92 -2.37877 3.74071 0
M  V30 22429 H 2082.14 -0.220863 0.633609 0
M  V30 22430 H 2084.68 -0.0355987 2.04469 0
M  V30 22431 H 2082.83 -2.26166 3.14527 0
M  V30 22432 H 2083.25 -1.22335 5.10034 0
M  V30 22433 H 2084.72 -2.88716 4.70476 0
M  V30 22434 H 2085.2 -3.17625 3.03334 0
M  V30 22435 H 2085.81 -1.73579 3.88266 0
M  V30 22436 N 2084.12 -1.53926 -0.338317 0
M  V30 22437 C 2085.53 -1.62818 -0.913629 0
M  V30 22438 C 2085.88 -0.512813 -1.8938 0
M  V30 22439 O 2085.01 0.356629 -2.13441 0
M  V30 22440 C 2085.6 -2.9513 -1.66385 0
M  V30 22441 C 2084.16 -3.06267 -2.1881 0
M  V30 22442 C 2083.31 -2.58298 -1.00884 0
M  V30 22443 H 2086.26 -1.58273 -0.116306 0
M  V30 22444 H 2086.28 -2.84463 -2.52708 0
M  V30 22445 H 2085.79 -3.76288 -0.950215 0
M  V30 22446 H 2083.89 -2.29753 -2.93333 0
M  V30 22447 H 2084.01 -4.11824 -2.44822 0
M  V30 22448 H 2082.37 -2.13832 -1.38376 0
M  V30 22449 H 2083.15 -3.419 -0.309757 0
M  V30 22450 N 2085.6 0.599608 -1.45748 0
M  V30 22451 C 2086.82 1.38971 -1.53954 0
M  V30 22452 C 2087.25 1.87278 -0.175618 0
M  V30 22453 O 2086.61 1.60602 0.841223 0
M  V30 22454 C 2086.66 2.56482 -2.53474 0
M  V30 22455 O 2085.76 3.57375 -2.05808 0
M  V30 22456 H 2085.1 0.414567 -0.518681 0
M  V30 22457 H 2087.63 0.728972 -1.91173 0
M  V30 22458 H 2087.64 3.03623 -2.72539 0
M  V30 22459 H 2086.32 2.20672 -3.52529 0
M  V30 22460 H 2084.89 3.1683 -1.96656 0
M  V30 22461 N 2087.08 1.33171 0.842803 0
M  V30 22462 C 2088.32 1.24589 1.60017 0
M  V30 22463 C 2088.66 -0.188935 1.93279 0
M  V30 22464 O 2087.93 -1.12923 1.58362 0
M  V30 22465 C 2088.21 2.11731 2.91277 0
M  V30 22466 C 2088.07 3.63652 2.64721 0
M  V30 22467 C 2089.39 1.98749 3.92666 0
M  V30 22468 H 2086.51 0.453935 0.580613 0
M  V30 22469 H 2089.15 1.63234 0.972356 0
M  V30 22470 H 2087.3 1.78904 3.44856 0
M  V30 22471 H 2088.97 4.06751 2.17604 0
M  V30 22472 H 2087.21 3.85728 1.98486 0
M  V30 22473 H 2087.88 4.19966 3.58236 0
M  V30 22474 H 2090.36 2.2753 3.48381 0
M  V30 22475 H 2089.24 2.61979 4.82347 0
M  V30 22476 H 2089.5 0.958565 4.31583 0
M  V30 22477 N 2088.56 -1.06056 1.16576 0
M  V30 22478 C 2089.49 -2.15554 0.897693 0
M  V30 22479 C 2090.47 -1.69375 -0.156927 0
M  V30 22480 O 2091.65 -1.94198 -0.00851939 0
M  V30 22481 C 2088.78 -3.44982 0.40063 0
M  V30 22482 C 2087.74 -4.04682 1.39343 0
M  V30 22483 C 2087.06 -5.29347 0.754677 0
M  V30 22484 C 2088.36 -4.43182 2.76381 0
M  V30 22485 H 2090.06 -2.38236 1.81339 0
M  V30 22486 H 2087.6 -1.14495 0.873316 0
M  V30 22487 H 2089.55 -4.20922 0.200566 0
M  V30 22488 H 2088.28 -3.21926 -0.550576 0
M  V30 22489 H 2086.94 -3.308 1.58009 0
M  V30 22490 H 2086.59 -5.0259 -0.203091 0
M  V30 22491 H 2086.29 -5.7025 1.41735 0
M  V30 22492 H 2087.81 -6.07983 0.564687 0
M  V30 22493 H 2089.22 -5.10195 2.61485 0
M  V30 22494 H 2087.62 -4.95076 3.39146 0
M  V30 22495 H 2088.69 -3.53931 3.31453 0
M  V30 22496 N 2090.03 -0.964615 -1.24631 0
M  V30 22497 C 2090.96 -0.511091 -2.27838 0
M  V30 22498 C 2091.94 0.447692 -1.64103 0
M  V30 22499 O 2093.13 0.344485 -1.9112 0
M  V30 22500 C 2090.26 0.202467 -3.46709 0
M  V30 22501 C 2089.21 -0.672032 -4.22691 0
M  V30 22502 C 2088.54 0.172842 -5.34421 0
M  V30 22503 C 2089.84 -1.9551 -4.84327 0
M  V30 22504 H 2091.53 -1.37371 -2.66025 0
M  V30 22505 H 2089.08 -0.661983 -1.27882 0
M  V30 22506 H 2091.03 0.530942 -4.18042 0
M  V30 22507 H 2089.76 1.09942 -3.07539 0
M  V30 22508 H 2088.42 -0.983734 -3.53155 0
M  V30 22509 H 2088.06 1.06985 -4.91491 0
M  V30 22510 H 2087.76 -0.409046 -5.86175 0
M  V30 22511 H 2089.29 0.496057 -6.08582 0
M  V30 22512 H 2090.7 -1.69241 -5.4775 0
M  V30 22513 H 2089.1 -2.48346 -5.46301 0
M  V30 22514 H 2090.17 -2.65197 -4.05954 0
M  V30 22515 N 2091.51 1.39445 -0.734362 0
M  V30 22516 C 2092.74 2.0535 -0.290903 0
M  V30 22517 C 2093.16 1.55004 1.06562 0
M  V30 22518 O 2092.52 0.693509 1.67512 0
M  V30 22519 C 2092.57 3.59337 -0.301562 0
M  V30 22520 O 2091.67 4.06225 0.711013 0
M  V30 22521 H 2091.01 0.650668 -0.132389 0
M  V30 22522 H 2093.54 1.78491 -1.00011 0
M  V30 22523 H 2093.55 4.0774 -0.14573 0
M  V30 22524 H 2092.23 3.95343 -1.2914 0
M  V30 22525 H 2090.8 3.69237 0.521369 0
M  V30 22526 N 2092.99 0.481946 1.5005 0
M  V30 22527 C 2093.94 -0.320472 2.30382 0
M  V30 22528 C 2094.93 -0.980434 1.38144 0
M  V30 22529 O 2096.14 -0.910298 1.55285 0
M  V30 22530 H 2092.51 -0.122196 0.742006 0
M  V30 22531 H 2094.48 0.377305 2.96005 0
M  V30 22532 C 2093.23 -1.38347 3.18991 0
M  V30 22533 H 2092.56 -0.885033 3.89881 0
M  V30 22534 H 2094 -1.91728 3.78175 0
M  V30 22535 C 2092.45 -2.39133 2.37313 0
M  V30 22536 O 2092.98 -3.44629 2.06383 0
M  V30 22537 N 2091.19 -2.11122 1.9969 0
M  V30 22538 H 2090.74 -1.25354 2.25043 0
M  V30 22539 H 2090.7 -2.78787 1.45345 0
M  V30 22540 N 2094.47 -1.56127 0.214985 0
M  V30 22541 C 2095.74 -1.8994 -0.467153 0
M  V30 22542 C 2096.12 -1.13139 -1.78221 0
M  V30 22543 O 2095.47 -0.238654 -2.2725 0
M  V30 22544 C 2095.68 -3.42576 -0.666524 0
M  V30 22545 C 2097.03 -4.13209 -0.976927 0
M  V30 22546 O 2098.05 -3.48138 -0.753545 0
M  V30 22547 O 2096.91 -5.2825 -1.40052 0
M  V30 22548 H 2094.01 -0.789533 -0.246102 0
M  V30 22549 H 2096.55 -1.67748 0.256681 0
M  V30 22550 H 2095.33 -3.90426 0.261344 0
M  V30 22551 H 2094.95 -3.70526 -1.44209 0
M  V30 22552 N 2095.95 0.0584645 -1.57492 0
M  V30 22553 C 2097.17 0.771417 -1.9252 0
M  V30 22554 C 2097.6 1.69644 -0.812561 0
M  V30 22555 O 2096.95 1.79786 0.233784 0
M  V30 22556 C 2097 1.52975 -3.26544 0
M  V30 22557 O 2096.11 2.64128 -3.16718 0
M  V30 22558 H 2095.45 0.209569 -0.630061 0
M  V30 22559 H 2097.98 0.022721 -2.04587 0
M  V30 22560 H 2097.99 1.90612 -3.60737 0
M  V30 22561 H 2096.66 0.851136 -4.07098 0
M  V30 22562 H 2095.24 2.29251 -2.94106 0
M  V30 22563 N 2097.42 1.54103 0.330149 0
M  V30 22564 C 2098.65 1.76264 1.09297 0
M  V30 22565 C 2099.07 0.5067 1.81147 0
M  V30 22566 O 2098.43 -0.541409 1.73027 0
M  V30 22567 C 2098.48 2.95141 2.07181 0
M  V30 22568 O 2097.58 2.66226 3.14956 0
M  V30 22569 H 2096.92 0.584284 0.31545 0
M  V30 22570 H 2099.45 2.01107 0.376453 0
M  V30 22571 H 2099.46 3.22305 2.50167 0
M  V30 22572 H 2098.14 3.86224 1.54285 0
M  V30 22573 H 2096.72 2.49992 2.76692 0
M  V30 22574 N 2098.9 -0.59187 1.46064 0
M  V30 22575 C 2100.32 -0.914287 1.30816 0
M  V30 22576 C 2100.52 -1.99645 0.272804 0
M  V30 22577 O 2099.57 -2.50363 -0.327818 0
M  V30 22578 C 2100.89 -1.34032 2.69176 0
M  V30 22579 C 2102.44 -1.45367 2.77196 0
M  V30 22580 C 2102.91 -1.9134 4.16117 0
M  V30 22581 N 2104.4 -1.98548 4.18489 0
M  V30 22582 C 2105.14 -2.35376 5.22863 0
M  V30 22583 N 2104.63 -2.7106 6.37572 0
M  V30 22584 N 2106.43 -2.35851 5.10226 0
M  V30 22585 H 2098.58 0.123139 2.12043 0
M  V30 22586 H 2100.84 -0.00757695 0.94797 0
M  V30 22587 H 2100.55 -0.619238 3.46206 0
M  V30 22588 H 2100.42 -2.3037 2.98679 0
M  V30 22589 H 2102.81 -2.16563 2.0046 0
M  V30 22590 H 2102.89 -0.473031 2.51388 0
M  V30 22591 H 2102.53 -1.20726 4.93343 0
M  V30 22592 H 2102.46 -2.90346 4.39325 0
M  V30 22593 H 2104.95 -1.73498 3.35719 0
M  V30 22594 H 2105.27 -2.98088 7.12996 0
M  V30 22595 H 2103.61 -2.68719 6.40948 0
M  V30 22596 H 2106.8 -2.07389 4.19651 0
M  V30 22597 H 2106.97 -2.64224 5.91684 0
M  V30 22598 N 2100.38 -1.33616 -0.835729 0
M  V30 22599 C 2101.63 -1.25251 -1.59118 0
M  V30 22600 C 2101.96 0.180895 -1.93657 0
M  V30 22601 O 2101.21 1.1389 -1.59146 0
M  V30 22602 C 2101.51 -2.07621 -2.90909 0
M  V30 22603 C 2101.18 -3.56777 -2.75719 0
M  V30 22604 C 2099.84 -3.9744 -2.71283 0
M  V30 22605 C 2102.19 -4.51545 -2.60301 0
M  V30 22606 C 2099.52 -5.31083 -2.49334 0
M  V30 22607 C 2101.87 -5.85353 -2.39885 0
M  V30 22608 C 2100.53 -6.25195 -2.33853 0
M  V30 22609 H 2099.8 -0.458325 -0.582254 0
M  V30 22610 H 2102.45 -1.65234 -0.967991 0
M  V30 22611 H 2100.76 -1.60426 -3.5745 0
M  V30 22612 H 2102.45 -1.98504 -3.48421 0
M  V30 22613 H 2099.04 -3.24492 -2.80005 0
M  V30 22614 H 2103.23 -4.21036 -2.62759 0
M  V30 22615 H 2098.48 -5.60987 -2.43113 0
M  V30 22616 H 2102.66 -6.58386 -2.26939 0
M  V30 22617 H 2100.28 -7.28688 -2.16606 0
M  V30 22618 N 2101.86 1.05436 -1.17136 0
M  V30 22619 C 2103.09 1.8181 -0.981263 0
M  V30 22620 C 2103.5 1.83173 0.473739 0
M  V30 22621 O 2102.84 1.25581 1.34071 0
M  V30 22622 C 2102.9 3.29286 -1.44261 0
M  V30 22623 C 2102.57 3.5161 -2.91924 0
M  V30 22624 C 2103.56 3.43938 -3.89875 0
M  V30 22625 C 2101.25 3.78652 -3.30043 0
M  V30 22626 C 2103.24 3.6299 -5.23944 0
M  V30 22627 C 2100.93 3.97352 -4.64278 0
M  V30 22628 C 2101.93 3.8952 -5.61038 0
M  V30 22629 O 2101.61 4.07702 -6.92845 0
M  V30 22630 H 2101.35 0.57984 -0.347507 0
M  V30 22631 H 2103.9 1.33868 -1.55784 0
M  V30 22632 H 2102.13 3.78131 -0.80958 0
M  V30 22633 H 2103.82 3.87177 -1.21857 0
M  V30 22634 H 2104.59 3.23027 -3.61772 0
M  V30 22635 H 2100.46 3.83853 -2.553 0
M  V30 22636 H 2104.01 3.56793 -5.99454 0
M  V30 22637 H 2099.91 4.17755 -4.92088 0
M  V30 22638 H 2100.67 4.24941 -6.99548 0
M  V30 22639 N 2103.34 0.971211 1.24118 0
M  V30 22640 C 2104.3 0.509064 2.23475 0
M  V30 22641 C 2105.3 -0.39631 1.5584 0
M  V30 22642 O 2106.49 -0.191281 1.73147 0
M  V30 22643 C 2103.62 -0.262327 3.39889 0
M  V30 22644 H 2104.81 1.38746 2.65875 0
M  V30 22645 H 2102.37 0.756154 1.36792 0
M  V30 22646 H 2103.1 -1.15767 3.02933 0
M  V30 22647 H 2102.89 0.387439 3.90181 0
M  V30 22648 H 2104.38 -0.574574 4.13628 0
M  V30 22649 N 2104.81 -1.39054 0.741747 0
M  V30 22650 C 2105.75 -2.28134 0.0548289 0
M  V30 22651 C 2106.73 -1.4475 -0.740697 0
M  V30 22652 O 2107.91 -1.74132 -0.721832 0
M  V30 22653 C 2105.04 -3.25699 -0.92941 0
M  V30 22654 C 2104.08 -4.25924 -0.221557 0
M  V30 22655 S 2104.92 -5.24716 1.06927 0
M  V30 22656 C 2106.07 -6.25838 0.0878046 0
M  V30 22657 H 2106.3 -2.86046 0.810253 0
M  V30 22658 H 2103.84 -1.44878 0.533825 0
M  V30 22659 H 2105.8 -3.82427 -1.49197 0
M  V30 22660 H 2104.46 -2.66793 -1.65772 0
M  V30 22661 H 2103.65 -4.94645 -0.966549 0
M  V30 22662 H 2103.25 -3.7303 0.269156 0
M  V30 22663 H 2105.54 -6.73333 -0.750286 0
M  V30 22664 H 2106.49 -7.04198 0.742344 0
M  V30 22665 H 2106.89 -5.63767 -0.287607 0
M  V30 22666 N 2106.29 -0.489897 -1.49792 0
M  V30 22667 C 2107.54 0.0585441 -2.02415 0
M  V30 22668 C 2107.87 1.38015 -1.37048 0
M  V30 22669 O 2107.12 1.89427 -0.491526 0
M  V30 22670 C 2107.42 0.271059 -3.56371 0
M  V30 22671 C 2107.09 -0.971168 -4.40317 0
M  V30 22672 C 2105.75 -1.31171 -4.62977 0
M  V30 22673 C 2108.1 -1.79739 -4.89227 0
M  V30 22674 C 2105.43 -2.47819 -5.31792 0
M  V30 22675 C 2107.78 -2.95531 -5.59325 0
M  V30 22676 C 2106.45 -3.29978 -5.80234 0
M  V30 22677 H 2105.72 0.0214228 -0.74069 0
M  V30 22678 H 2108.36 -0.6478 -1.8021 0
M  V30 22679 H 2106.67 1.05983 -3.77193 0
M  V30 22680 H 2108.36 0.70968 -3.9467 0
M  V30 22681 H 2104.95 -0.695889 -4.22913 0
M  V30 22682 H 2109.14 -1.54746 -4.71559 0
M  V30 22683 H 2104.39 -2.74759 -5.46185 0
M  V30 22684 H 2108.57 -3.59885 -5.96201 0
M  V30 22685 H 2106.2 -4.2047 -6.33332 0
M  V30 22686 N 2107.77 1.56011 -0.223262 0
M  V30 22687 C 2108.73 2.19108 0.672641 0
M  V30 22688 C 2109.73 1.15344 1.12038 0
M  V30 22689 O 2110.92 1.40567 1.0289 0
M  V30 22690 C 2108.06 2.81576 1.92165 0
M  V30 22691 H 2109.25 2.9965 0.1225 0
M  V30 22692 H 2106.8 1.56278 0.0263484 0
M  V30 22693 H 2107.54 2.04909 2.51362 0
M  V30 22694 H 2107.32 3.57564 1.60906 0
M  V30 22695 H 2108.81 3.29937 2.55991 0
M  V30 22696 N 2109.25 -0.0501116 1.5752 0
M  V30 22697 C 2110.21 -1.0417 2.0416 0
M  V30 22698 C 2111.21 -1.30309 0.942133 0
M  V30 22699 O 2112.4 -1.25665 1.20639 0
M  V30 22700 C 2109.53 -2.37997 2.4407 0
M  V30 22701 H 2110.73 -0.639249 2.93008 0
M  V30 22702 H 2108.28 -0.296417 1.53464 0
M  V30 22703 H 2109.01 -2.83032 1.58314 0
M  V30 22704 H 2108.8 -2.2036 3.2432 0
M  V30 22705 H 2110.29 -3.09229 2.80654 0
M  V30 22706 N 2110.73 -1.54276 -0.321972 0
M  V30 22707 C 2111.69 -1.83051 -1.37931 0
M  V30 22708 C 2112.69 -0.702392 -1.44648 0
M  V30 22709 O 2113.88 -0.970701 -1.44648 0
M  V30 22710 C 2111.01 -1.99197 -2.76647 0
M  V30 22711 H 2112.2 -2.77523 -1.1367 0
M  V30 22712 H 2109.76 -1.46018 -0.55754 0
M  V30 22713 H 2110.49 -1.06942 -3.0616 0
M  V30 22714 H 2110.28 -2.81289 -2.73164 0
M  V30 22715 H 2111.77 -2.22902 -3.53135 0
M  V30 22716 N 2112.2 0.584116 -1.46376 0
M  V30 22717 C 2113.11 1.72116 -1.59415 0
M  V30 22718 C 2114.13 1.67314 -0.477692 0
M  V30 22719 O 2115.31 1.87248 -0.74162 0
M  V30 22720 C 2112.37 3.08617 -1.57975 0
M  V30 22721 C 2111.43 3.24694 -2.80842 0
M  V30 22722 C 2110.67 4.54683 -2.79462 0
M  V30 22723 O 2110.89 5.38484 -1.88126 0
M  V30 22724 O 2109.82 4.73977 -3.70985 0
M  V30 22725 H 2113.65 1.64062 -2.55572 0
M  V30 22726 H 2111.23 0.750995 -1.29153 0
M  V30 22727 H 2113.12 3.899 -1.59863 0
M  V30 22728 H 2111.79 3.17111 -0.649775 0
M  V30 22729 H 2110.7 2.4291 -2.84509 0
M  V30 22730 H 2112.03 3.2109 -3.73044 0
M  V30 22731 N 2113.68 1.34058 0.828631 0
M  V30 22732 C 2114.63 1.25159 1.96056 0
M  V30 22733 C 2115.63 0.150843 1.68727 0
M  V30 22734 O 2116.83 0.315456 1.77214 0
M  V30 22735 H 2113.21 0.388669 0.643771 0
M  V30 22736 H 2115.18 2.20835 2.00685 0
M  V30 22737 C 2113.93 1.0181 3.32461 0
M  V30 22738 H 2113.25 1.8574 3.54035 0
M  V30 22739 H 2114.69 0.996172 4.12132 0
M  V30 22740 C 2113.15 -0.278758 3.35745 0
M  V30 22741 O 2113.68 -1.28204 3.80692 0
M  V30 22742 N 2111.88 -0.309877 2.88943 0
M  V30 22743 H 2111.43 0.507134 2.52559 0
M  V30 22744 H 2111.39 -1.17737 2.91523 0
M  V30 22745 N 2115.16 -1.04814 1.17694 0
M  V30 22746 C 2116.11 -2.12651 0.897118 0
M  V30 22747 C 2117.08 -1.65323 -0.160501 0
M  V30 22748 O 2118.26 -1.90787 -0.0224765 0
M  V30 22749 C 2115.4 -3.42526 0.420731 0
M  V30 22750 C 2114.52 -4.03508 1.54291 0
M  V30 22751 C 2113.65 -5.21315 1.02001 0
M  V30 22752 C 2112.69 -5.74311 2.11738 0
M  V30 22753 N 2111.83 -6.83415 1.60897 0
M  V30 22754 H 2116.67 -2.35925 1.82054 0
M  V30 22755 H 2114.2 -1.15736 0.907948 0
M  V30 22756 H 2116.16 -4.1701 0.126057 0
M  V30 22757 H 2114.79 -3.19423 -0.46572 0
M  V30 22758 H 2113.84 -3.26425 1.95323 0
M  V30 22759 H 2115.16 -4.38876 2.37042 0
M  V30 22760 H 2114.31 -6.02884 0.679408 0
M  V30 22761 H 2113.05 -4.87431 0.161982 0
M  V30 22762 H 2112.05 -4.91369 2.46651 0
M  V30 22763 H 2113.28 -6.10242 2.97963 0
M  V30 22764 H 2111.23 -6.51421 0.773715 0
M  V30 22765 H 2111.14 -7.17807 2.37252 0
M  V30 22766 H 2112.41 -7.68627 1.29741 0
M  V30 22767 N 2116.64 -0.977779 -1.23601 0
M  V30 22768 C 2117.89 -0.646167 -1.9223 0
M  V30 22769 C 2118.22 0.817893 -1.76137 0
M  V30 22770 O 2117.49 1.58966 -1.12071 0
M  V30 22771 C 2117.78 -1.03412 -3.44932 0
M  V30 22772 C 2117.63 -2.55561 -3.70147 0
M  V30 22773 C 2118.95 -0.576087 -4.36313 0
M  V30 22774 H 2116.07 -0.236222 -0.698118 0
M  V30 22775 H 2118.71 -1.21859 -1.45775 0
M  V30 22776 H 2116.86 -0.547033 -3.84629 0
M  V30 22777 H 2118.53 -3.11824 -3.39947 0
M  V30 22778 H 2116.77 -2.98312 -3.14949 0
M  V30 22779 H 2117.45 -2.77756 -4.77028 0
M  V30 22780 H 2119.92 -0.994237 -4.04047 0
M  V30 22781 H 2118.8 -0.875993 -5.41865 0
M  V30 22782 H 2119.06 0.523647 -4.38988 0
M  V30 22783 N 2118.12 1.38658 -0.749111 0
M  V30 22784 C 2119.08 2.28849 -0.126757 0
M  V30 22785 C 2120.08 1.46977 0.652253 0
M  V30 22786 O 2121.27 1.6748 0.479181 0
M  V30 22787 C 2118.4 3.30665 0.829083 0
M  V30 22788 H 2119.6 2.85391 -0.921529 0
M  V30 22789 H 2117.15 1.47543 -0.515832 0
M  V30 22790 H 2117.88 2.79205 1.6497 0
M  V30 22791 H 2117.67 3.91149 0.272946 0
M  V30 22792 H 2119.16 3.98117 1.26067 0
M  V30 22793 N 2119.6 0.497834 1.49531 0
M  V30 22794 C 2120.84 -0.0478795 2.02743 0
M  V30 22795 C 2121.17 -1.36937 1.37702 0
M  V30 22796 O 2120.45 -1.8765 0.511637 0
M  V30 22797 C 2120.73 -0.203749 3.59523 0
M  V30 22798 C 2120.59 1.14064 4.35097 0
M  V30 22799 C 2121.9 -0.945869 4.29815 0
M  V30 22800 H 2119.02 -0.0159264 0.736828 0
M  V30 22801 H 2121.67 0.648629 1.78586 0
M  V30 22802 H 2119.82 -0.796987 3.80237 0
M  V30 22803 H 2121.49 1.77252 4.25887 0
M  V30 22804 H 2119.73 1.73071 3.9778 0
M  V30 22805 H 2120.4 0.984923 5.43142 0
M  V30 22806 H 2122.88 -0.44277 4.13738 0
M  V30 22807 H 2121.75 -1.02377 5.39268 0
M  V30 22808 H 2122.01 -1.98884 3.94839 0
M  V30 22809 N 2121.07 -1.5589 0.231532 0
M  V30 22810 C 2122.02 -2.20725 -0.674461 0
M  V30 22811 C 2122.99 -1.16607 -1.18288 0
M  V30 22812 O 2124.18 -1.44999 -1.24016 0
M  V30 22813 C 2121.32 -2.89876 -1.87259 0
M  V30 22814 C 2120.43 -4.08613 -1.40213 0
M  V30 22815 C 2119.56 -4.6552 -2.55861 0
M  V30 22816 C 2118.6 -5.76537 -2.05601 0
M  V30 22817 N 2117.74 -6.27692 -3.14558 0
M  V30 22818 H 2122.58 -2.97779 -0.114866 0
M  V30 22819 H 2120.12 -1.47031 -0.0449395 0
M  V30 22820 H 2122.07 -3.28159 -2.57619 0
M  V30 22821 H 2120.7 -2.15324 -2.4049 0
M  V30 22822 H 2119.76 -3.75748 -0.593106 0
M  V30 22823 H 2121.07 -4.88802 -0.993676 0
M  V30 22824 H 2120.22 -5.06297 -3.34288 0
M  V30 22825 H 2118.96 -3.84514 -3.00001 0
M  V30 22826 H 2117.97 -5.35252 -1.25639 0
M  V30 22827 H 2119.19 -6.59384 -1.62449 0
M  V30 22828 H 2117.14 -5.49597 -3.58161 0
M  V30 22829 H 2117.05 -7.03032 -2.77996 0
M  V30 22830 H 2118.32 -6.73127 -3.93091 0
M  V30 22831 N 2122.55 0.0417572 -1.57545 0
M  V30 22832 C 2123.8 0.733648 -1.88314 0
M  V30 22833 C 2124.12 1.76568 -0.827577 0
M  V30 22834 O 2123.39 1.95397 0.140345 0
M  V30 22835 H 2121.97 0.273952 -0.694953 0
M  V30 22836 H 2124.63 0.010717 -1.94897 0
M  V30 22837 H 2123.73 1.23116 -2.8679 0
M  V30 22838 O 2124.07 1.60439 0.184839 0
M  V30 22839 H 2124.76 1.75357 0.82277 0
M  V30 END ATOM
M  V30 BEGIN BOND
M  V30 END BOND
M  V30 END CTAB
M  END
$$$$
