drugbank_target|Q9Y6I3 Epsin-1 (DB03316; DB03401)
 OpenBabel12092120533D

  0  0  0     0  0            999 V3000
M  V30 BEGIN CTAB
M  V30 COUNTS 8341 8473 0 0 0
M  V30 BEGIN ATOM
M  V30 1 H -0.908 1.98254 -0.117106 0
M  V30 2 N 0 1.576 0 0
M  V30 3 C 0.933 2.03868 1.02534 0
M  V30 4 C 1.911 0.928543 1.3348 0
M  V30 5 O 3.095 1.19667 1.45644 0
M  V30 6 C 0.222 2.43627 2.35294 0
M  V30 7 C -0.732 3.65373 2.2001 0
M  V30 8 S 0.101 5.13292 1.52614 0
M  V30 9 C 1.257 5.56322 2.86805 0
M  V30 10 H 1.49 2.90518 0.631377 0
M  V30 11 H -0.977 1.52953 0.210867 0
M  V30 12 H 0.981 2.67203 3.11629 0
M  V30 13 H -0.358 1.57376 2.7183 0
M  V30 14 H -1.165 3.90944 3.18086 0
M  V30 15 H -1.563 3.418 1.51819 0
M  V30 16 H 0.729 5.58782 3.83104 0
M  V30 17 H 1.672 6.56266 2.65933 0
M  V30 18 H 2.08 4.83886 2.90714 0
M  V30 19 N 1.4781 -0.272755 1.55222 0
M  V30 20 C 2.7031 -1.02683 1.80197 0
M  V30 21 C 3.1281 -1.79142 0.573551 0
M  V30 22 O 2.4861 -1.74917 -0.476849 0
M  V30 23 C 2.5341 -1.9609 3.02624 0
M  V30 24 O 1.6381 -3.04863 2.77727 0
M  V30 25 H 0.9791 -0.293557 0.595584 0
M  V30 26 H 3.5091 -0.30159 2.02365 0
M  V30 27 H 3.5191 -2.38039 3.31363 0
M  V30 28 H 2.1941 -1.39851 3.91682 0
M  V30 29 H 0.7711 -2.67228 2.60084 0
M  V30 30 N 2.9562 -1.48159 -0.537278 0
M  V30 31 C 4.1842 -1.59454 -1.31841 0
M  V30 32 C 4.5992 -0.252065 -1.8711 0
M  V30 33 O 3.9562 0.757621 -1.66031 0
M  V30 34 C 4.0072 -2.63546 -2.47439 0
M  V30 35 O 3.7282 -3.92583 -1.94449 0
M  V30 36 C 5.2292 -2.85212 -3.39366 0
M  V30 37 H 2.4492 -0.53785 -0.401196 0
M  V30 38 H 4.9932 -1.93932 -0.648891 0
M  V30 39 H 3.1482 -2.31946 -3.1029 0
M  V30 40 H 3.5622 -4.49629 -2.70063 0
M  V30 41 H 5.0362 -3.61863 -4.16844 0
M  V30 42 H 5.5132 -1.93765 -3.94147 0
M  V30 43 H 6.1192 -3.18086 -2.82314 0
M  V30 44 N 4.4343 0.785586 -1.36625 0
M  V30 45 C 5.6593 1.57963 -1.34397 0
M  V30 46 C 6.0843 1.87964 0.071526 0
M  V30 47 O 5.4423 1.48182 1.0446 0
M  V30 48 C 5.4903 2.87511 -2.17646 0
M  V30 49 O 4.5943 3.81281 -1.57158 0
M  V30 50 H 3.9353 0.479014 -0.459828 0
M  V30 51 H 6.4653 0.973411 -1.79961 0
M  V30 52 H 6.4753 3.36745 -2.30362 0
M  V30 53 H 5.1503 2.65002 -3.20541 0
M  V30 54 H 3.7273 3.39885 -1.53403 0
M  V30 55 N 5.9124 1.20967 1.01018 0
M  V30 56 C 7.1374 1.0503 1.78839 0
M  V30 57 C 7.5624 -0.395752 1.8389 0
M  V30 58 O 6.9204 -1.28529 1.27867 0
M  V30 59 C 6.9684 1.64602 3.2084 0
M  V30 60 O 6.0724 0.887988 4.02726 0
M  V30 61 H 5.4134 0.369987 0.551367 0
M  V30 62 H 7.9434 1.60399 1.27018 0
M  V30 63 H 7.9534 1.68607 3.71532 0
M  V30 64 H 6.6284 2.69841 3.16479 0
M  V30 65 H 5.2054 0.922648 3.61305 0
M  V30 66 N 7.3905 -1.2043 1.01659 0
M  V30 67 C 8.3205 -2.25466 0.607226 0
M  V30 68 C 9.3015 -1.65853 -0.377716 0
M  V30 69 O 10.4865 -1.92409 -0.263149 0
M  V30 70 C 7.6165 -3.47256 -0.0552949 0
M  V30 71 C 6.5705 -4.19462 0.850632 0
M  V30 72 C 5.8965 -5.34673 0.0538859 0
M  V30 73 C 7.1965 -4.75603 2.15868 0
M  V30 74 H 8.8905 -2.59962 1.48526 0
M  V30 75 H 6.4365 -1.2496 0.715605 0
M  V30 76 H 8.3895 -4.19917 -0.353233 0
M  V30 77 H 7.1135 -3.11924 -0.968045 0
M  V30 78 H 5.7725 -3.48667 1.13257 0
M  V30 79 H 5.4205 -4.95585 -0.860514 0
M  V30 80 H 5.1205 -5.83913 0.657192 0
M  V30 81 H 6.6445 -6.10138 -0.237598 0
M  V30 82 H 8.0585 -5.40083 1.92311 0
M  V30 83 H 6.4555 -5.3528 2.71284 0
M  V30 84 H 7.5255 -3.94346 2.82169 0
M  V30 85 N 8.8686 -0.792821 -1.36206 0
M  V30 86 C 10.2846 -0.474903 -1.52371 0
M  V30 87 C 10.4846 1.00622 -1.74578 0
M  V30 88 O 9.5406 1.79162 -1.77924 0
M  V30 89 C 10.8536 -1.3083 -2.70747 0
M  V30 90 C 12.4016 -1.30234 -2.84619 0
M  V30 91 C 12.8766 -2.11956 -4.06004 0
M  V30 92 N 14.3676 -2.09419 -4.13156 0
M  V30 93 C 15.1026 -2.69419 -5.06163 0
M  V30 94 N 14.5986 -3.3829 -6.04592 0
M  V30 95 N 16.3916 -2.59134 -4.98804 0
M  V30 96 H 8.5426 -1.75222 -1.20046 0
M  V30 97 H 10.8056 -0.745024 -0.586211 0
M  V30 98 H 10.5116 -2.35881 -2.6087 0
M  V30 99 H 10.3856 -0.95196 -3.6499 0
M  V30 100 H 12.7726 -0.259748 -2.93955 0
M  V30 101 H 12.8536 -1.69847 -1.91274 0
M  V30 102 H 12.4976 -3.16248 -3.97429 0
M  V30 103 H 12.4276 -1.69711 -4.98503 0
M  V30 104 H 14.9186 -1.59297 -3.42685 0
M  V30 105 H 15.2316 -3.81394 -6.7213 0
M  V30 106 H 13.5766 -3.42393 -6.04807 0
M  V30 107 H 16.7676 -2.04927 -4.20859 0
M  V30 108 H 16.9406 -3.06185 -5.711 0
M  V30 109 N 10.3467 1.47872 -0.545128 0
M  V30 110 C 11.7627 1.5829 -0.204032 0
M  V30 111 C 11.9627 1.54529 1.29317 0
M  V30 112 O 11.0187 1.44232 2.07252 0
M  V30 113 C 12.3317 2.89304 -0.819987 0
M  V30 114 C 13.8797 3.02864 -0.790105 0
M  V30 115 C 14.3547 4.3656 -1.38491 0
M  V30 116 N 15.8457 4.43165 -1.34755 0
M  V30 117 C 16.5807 5.45153 -1.77753 0
M  V30 118 N 16.0767 6.54016 -2.2855 0
M  V30 119 N 17.8697 5.36125 -1.68897 0
M  V30 120 H 10.0207 1.4856 -1.51802 0
M  V30 121 H 12.2837 0.706305 -0.632327 0
M  V30 122 H 11.9897 2.97757 -1.87173 0
M  V30 123 H 11.8637 3.75957 -0.305915 0
M  V30 124 H 14.2507 2.94014 0.252913 0
M  V30 125 H 14.3317 2.17782 -1.34181 0
M  V30 126 H 13.9757 4.46164 -2.42693 0
M  V30 127 H 13.9057 5.20353 -0.808754 0
M  V30 128 H 16.3967 3.65083 -0.975855 0
M  V30 129 H 16.7097 7.27994 -2.59314 0
M  V30 130 H 15.0547 6.54938 -2.32553 0
M  V30 131 H 18.2457 4.49975 -1.28998 0
M  V30 132 H 18.4187 6.15472 -2.02726 0
M  V30 133 N 11.8248 0.280983 1.55075 0
M  V30 134 C 12.7568 -0.637268 2.20163 0
M  V30 135 C 13.7698 -1.11298 1.18813 0
M  V30 136 O 14.9588 -1.03388 1.4551 0
M  V30 137 C 12.0588 -1.88199 2.81841 0
M  V30 138 C 11.2318 -1.55211 4.08936 0
M  V30 139 C 10.2908 -2.64991 4.54606 0
M  V30 140 O 9.3168 -2.30929 5.2025 0
M  V30 141 N 10.5188 -3.95161 4.25238 0
M  V30 142 H 13.2838 -0.0801694 2.99593 0
M  V30 143 H 10.8448 0.102329 1.61576 0
M  V30 144 H 12.8368 -2.60948 3.09335 0
M  V30 145 H 11.4068 -2.34799 2.06369 0
M  V30 146 H 10.6268 -0.658185 3.88666 0
M  V30 147 H 11.9148 -1.30681 4.91732 0
M  V30 148 H 11.3128 -4.25653 3.72607 0
M  V30 149 H 9.8698 -4.6427 4.5749 0
M  V30 150 N 13.3029 -1.57598 0.00835791 0
M  V30 151 C 14.2359 -2.04409 -1.01451 0
M  V30 152 C 15.2139 -0.935609 -1.32985 0
M  V30 153 O 16.3979 -1.20437 -1.45007 0
M  V30 154 C 13.5249 -2.44872 -2.33999 0
M  V30 155 C 12.5709 -3.66535 -2.18069 0
M  V30 156 S 13.4039 -5.14095 -1.4989 0
M  V30 157 C 14.5599 -5.57835 -2.8385 0
M  V30 158 H 14.7929 -2.90849 -0.615961 0
M  V30 159 H 12.3259 -1.53063 -0.202752 0
M  V30 160 H 14.2839 -2.68852 -3.10208 0
M  V30 161 H 12.9449 -1.58815 -2.70992 0
M  V30 162 H 12.1379 -3.92626 -3.16008 0
M  V30 163 H 11.7399 -3.426 -1.50004 0
M  V30 164 H 14.0319 -5.60806 -3.80136 0
M  V30 165 H 14.9749 -6.57667 -2.62449 0
M  V30 166 H 15.3829 -4.85421 -2.88144 0
M  V30 167 N 14.781 0.264519 -1.55364 0
M  V30 168 C 15.728 1.32717 -1.88825 0
M  V30 169 C 16.698 1.48675 -0.740605 0
M  V30 170 O 17.883 1.62945 -0.992657 0
M  V30 171 C 15.023 2.68089 -2.17307 0
M  V30 172 C 14.136 2.60284 -3.44785 0
M  V30 173 C 13.271 3.87892 -3.62924 0
M  V30 174 C 12.31 3.74631 -4.84064 0
M  V30 175 N 11.447 4.94092 -4.98816 0
M  V30 176 H 16.287 1.03481 -2.79456 0
M  V30 177 H 13.824 0.499757 -1.3835 0
M  V30 178 H 15.782 3.46864 -2.31821 0
M  V30 179 H 14.412 2.95509 -1.299 0
M  V30 180 H 13.464 1.73173 -3.38697 0
M  V30 181 H 14.776 2.46388 -4.33698 0
M  V30 182 H 13.93 4.75109 -3.77302 0
M  V30 183 H 12.669 4.04664 -2.7221 0
M  V30 184 H 11.674 2.85797 -4.69681 0
M  V30 185 H 12.899 3.5937 -5.76221 0
M  V30 186 H 10.845 5.11259 -4.11036 0
M  V30 187 H 10.762 4.8276 -5.81789 0
M  V30 188 H 12.03 5.82857 -5.17588 0
M  V30 189 N 16.2591 1.48442 0.529413 0
M  V30 190 C 17.2071 1.63452 1.65487 0
M  V30 191 C 18.2011 0.500955 1.61823 0
M  V30 192 O 19.4071 0.679695 1.66674 0
M  V30 193 H 15.7821 0.514905 0.548066 0
M  V30 194 H 17.7531 2.57975 1.49971 0
M  V30 195 C 16.5021 1.69196 3.03756 0
M  V30 196 H 15.8251 2.55784 3.07269 0
M  V30 197 H 17.2651 1.83743 3.82119 0
M  V30 198 C 15.7241 0.430765 3.34135 0
M  V30 199 O 16.2541 -0.4561 3.99102 0
M  V30 200 N 14.4601 0.302293 2.89023 0
M  V30 201 H 14.0071 1.02496 2.36331 0
M  V30 202 H 13.9651 -0.540546 3.09718 0
M  V30 203 N 17.7372 -0.778329 1.37039 0
M  V30 204 C 18.9862 -1.53189 1.3121 0
M  V30 205 C 19.2992 -1.95328 -0.103095 0
M  V30 206 O 20.5052 -2.70012 -0.283826 0
M  V30 207 C 18.9612 -2.76591 2.30272 0
M  V30 208 C 18.5692 -2.41577 3.77286 0
M  V30 209 C 20.3132 -3.5455 2.33441 0
M  V30 210 C 18.2202 -3.61441 4.68096 0
M  V30 211 H 17.1502 -0.5751 0.487622 0
M  V30 212 H 19.8012 -0.853101 1.62464 0
M  V30 213 H 18.1832 -3.46326 1.92027 0
M  V30 214 H 19.3572 -1.79668 4.2433 0
M  V30 215 H 17.6722 -1.76806 3.76999 0
M  V30 216 H 20.2692 -4.43628 2.98493 0
M  V30 217 H 20.6122 -3.93936 1.34611 0
M  V30 218 H 21.1452 -2.91805 2.7036 0
M  V30 219 H 17.8842 -3.27142 5.6803 0
M  V30 220 H 17.4042 -4.22478 4.25761 0
M  V30 221 H 19.0832 -4.28335 4.8491 0
M  V30 222 N 19.2153 -1.21501 -1.00376 0
M  V30 223 C 20.4613 -1.03452 -1.74429 0
M  V30 224 C 20.7943 0.430764 -1.89362 0
M  V30 225 O 20.0693 1.31962 -1.42886 0
M  V30 226 C 20.3523 -1.73375 -3.15615 0
M  V30 227 C 20.2053 -3.27431 -3.08397 0
M  V30 228 C 21.5243 -1.47732 -4.14564 0
M  V30 229 H 18.6433 -0.377226 -0.633143 0
M  V30 230 H 21.2853 -1.49693 -1.17013 0
M  V30 231 H 19.4353 -1.34064 -3.64636 0
M  V30 232 H 21.1073 -3.76119 -2.67081 0
M  V30 233 H 19.3503 -3.5767 -2.45468 0
M  V30 234 H 20.0213 -3.71524 -4.08258 0
M  V30 235 H 22.4973 -1.8186 -3.74254 0
M  V30 236 H 21.3733 -1.99169 -5.11491 0
M  V30 237 H 21.6343 -0.407589 -4.40217 0
M  V30 238 N 20.6934 1.19889 -1.02296 0
M  V30 239 C 21.6434 2.20777 -0.56934 0
M  V30 240 C 22.6274 1.56379 0.378741 0
M  V30 241 O 23.8194 1.75859 0.200673 0
M  V30 242 C 20.9484 3.43196 0.0845077 0
M  V30 243 C 20.0344 4.14749 -0.88566 0
M  V30 244 N 20.4254 4.62584 -2.04573 0
M  V30 245 C 18.7234 4.40347 -0.707835 0
M  V30 246 C 19.4244 5.17466 -2.65714 0
M  V30 247 N 18.4004 5.0791 -1.93723 0
M  V30 248 H 22.2024 2.55434 -1.45365 0
M  V30 249 H 19.7164 1.35897 -0.88915 0
M  V30 250 H 21.7134 4.14707 0.427067 0
M  V30 251 H 20.3734 3.10042 0.964574 0
M  V30 252 H 21.3844 4.57597 -2.4254 0
M  V30 253 H 18.0614 4.17317 0.12364 0
M  V30 254 H 19.4514 5.64808 -3.63925 0
M  V30 255 N 22.1715 0.800033 1.35784 0
M  V30 256 C 23.1195 0.193851 2.31791 0
M  V30 257 C 24.1135 -0.652744 1.56319 0
M  V30 258 O 25.3195 -0.546641 1.71499 0
M  V30 259 H 21.6945 0.04392 0.750716 0
M  V30 260 H 23.6655 1.01883 2.80468 0
M  V30 261 C 22.4145 -0.648338 3.41602 0
M  V30 262 H 21.7375 -0.00624665 3.998 0
M  V30 263 H 23.1775 -1.03898 4.11073 0
M  V30 264 C 21.6365 -1.8111 2.84079 0
M  V30 265 O 22.1665 -2.90825 2.77099 0
M  V30 266 N 20.3725 -1.62056 2.41218 0
M  V30 267 H 19.9195 -0.728123 2.47095 0
M  V30 268 H 19.8775 -2.40013 2.03079 0
M  V30 269 N 23.6496 -1.47581 0.552962 0
M  V30 270 C 24.8796 -2.06575 0.0320091 0
M  V30 271 C 25.2876 -1.4067 -1.26525 0
M  V30 272 O 24.6306 -0.495808 -1.76883 0
M  V30 273 C 24.6926 -3.58705 -0.238913 0
M  V30 274 C 24.3566 -4.46625 0.968272 0
M  V30 275 C 25.3536 -4.85 1.87274 0
M  V30 276 C 23.0386 -4.88201 1.18175 0
M  V30 277 C 25.0326 -5.63745 2.9744 0
M  V30 278 C 22.7196 -5.66712 2.28651 0
M  V30 279 C 23.7176 -6.04394 3.18114 0
M  V30 280 O 23.4056 -6.81324 4.26676 0
M  V30 281 H 23.1376 -0.674763 0.0408689 0
M  V30 282 H 25.6916 -1.90634 0.764719 0
M  V30 283 H 23.9216 -3.72844 -1.02588 0
M  V30 284 H 25.6106 -3.99735 -0.704731 0
M  V30 285 H 26.3766 -4.53482 1.71984 0
M  V30 286 H 22.2556 -4.58339 0.494593 0
M  V30 287 H 25.7996 -5.93077 3.67296 0
M  V30 288 H 21.6966 -5.97642 2.43915 0
M  V30 289 H 22.4646 -6.99712 4.24671 0
M  V30 290 N 25.1277 -0.289203 -1.54924 0
M  V30 291 C 26.3527 0.329299 -2.04769 0
M  V30 292 C 26.7777 1.4763 -1.16564 0
M  V30 293 O 26.1357 1.80527 -0.167186 0
M  V30 294 C 26.1837 0.774438 -3.52186 0
M  V30 295 O 25.2877 1.88038 -3.67036 0
M  V30 296 H 24.6287 0.0659259 -0.660719 0
M  V30 297 H 27.1587 -0.42761 -2.00082 0
M  V30 298 H 27.1687 1.06642 -3.93816 0
M  V30 299 H 25.8437 -0.0646707 -4.1585 0
M  V30 300 H 24.4207 1.58985 -3.3731 0
M  V30 301 N 26.6058 1.57591 -0.0167156 0
M  V30 302 C 27.5158 2.1291 0.98521 0
M  V30 303 C 28.5318 1.07834 1.36557 0
M  V30 304 O 29.7078 1.39826 1.44951 0
M  V30 305 C 26.7728 2.63512 2.25305 0
M  V30 306 C 25.8338 3.83256 1.93426 0
M  V30 307 C 25.0668 4.31435 3.14165 0
M  V30 308 O 25.2898 3.78851 4.26413 0
M  V30 309 O 24.2238 5.23416 2.97186 0
M  V30 310 H 28.0498 2.98772 0.544888 0
M  V30 311 H 25.6348 1.48012 0.203141 0
M  V30 312 H 27.5168 2.96183 2.99756 0
M  V30 313 H 26.1918 1.8074 2.68542 0
M  V30 314 H 25.0988 3.55531 1.16398 0
M  V30 315 H 26.4318 4.67153 1.55013 0
M  V30 316 N 28.0839 -0.256276 1.55502 0
M  V30 317 C 29.0469 -1.30047 1.88734 0
M  V30 318 C 30.0469 -1.4154 0.763086 0
M  V30 319 O 31.2369 -1.40403 1.03115 0
M  V30 320 C 28.3689 -2.67953 2.10747 0
M  V30 321 H 29.5619 -1.01802 2.82093 0
M  V30 322 H 27.1149 -0.495134 1.4825 0
M  V30 323 H 27.8499 -3.01351 1.19825 0
M  V30 324 H 27.6349 -2.60993 2.92617 0
M  V30 325 H 29.1249 -3.43368 2.37673 0
M  V30 326 N 29.562 -1.4872 -0.521534 0
M  V30 327 C 30.472 -1.66569 -1.65203 0
M  V30 328 C 31.488 -0.548197 -1.65139 0
M  V30 329 O 32.664 -0.820339 -1.83936 0
M  V30 330 C 29.729 -1.70917 -3.01642 0
M  V30 331 C 28.79 -2.94356 -3.12495 0
M  V30 332 C 28.023 -2.98487 -4.42426 0
M  V30 333 O 28.246 -2.10786 -5.30024 0
M  V30 334 O 27.18 -3.90746 -4.57822 0
M  V30 335 H 31.006 -2.62298 -1.5308 0
M  V30 336 H 28.591 -1.3222 -0.695565 0
M  V30 337 H 30.473 -1.7625 -3.82771 0
M  V30 338 H 29.148 -0.783633 -3.14071 0
M  V30 339 H 28.055 -2.94552 -2.3063 0
M  V30 340 H 29.388 -3.86322 -3.04986 0
M  V30 341 N 31.0401 0.771051 -1.3745 0
M  V30 342 C 32.2891 1.52491 -1.3202 0
M  V30 343 C 32.6021 1.9538 0.0927347 0
M  V30 344 O 33.8081 2.70159 0.269503 0
M  V30 345 C 32.2641 2.75366 -2.31736 0
M  V30 346 C 31.8721 2.39573 -3.78562 0
M  V30 347 C 33.6161 3.53307 -2.35318 0
M  V30 348 C 31.5231 3.58954 -4.70007 0
M  V30 349 H 30.4531 0.572506 -0.490666 0
M  V30 350 H 33.1041 0.844474 -1.62914 0
M  V30 351 H 31.4861 3.45303 -1.93861 0
M  V30 352 H 32.6601 1.77415 -4.25277 0
M  V30 353 H 30.9751 1.74805 -3.77932 0
M  V30 354 H 33.5721 4.42039 -3.00842 0
M  V30 355 H 33.9151 3.93217 -1.36698 0
M  V30 356 H 34.4481 2.90367 -2.71904 0
M  V30 357 H 31.1871 3.24125 -5.69757 0
M  V30 358 H 30.7071 4.20214 -4.27996 0
M  V30 359 H 32.3861 4.25758 -4.87175 0
M  V30 360 N 32.5182 1.22032 0.997298 0
M  V30 361 C 33.4652 0.986467 2.08656 0
M  V30 362 C 34.4352 -0.0902671 1.65855 0
M  V30 363 O 35.6202 0.0584294 1.90711 0
M  V30 364 C 32.7602 0.565569 3.40434 0
M  V30 365 C 31.8732 1.71259 3.96604 0
M  V30 366 C 31.0082 1.24011 5.16522 0
M  V30 367 C 30.0472 2.35896 5.64818 0
M  V30 368 N 29.1842 1.89726 6.7598 0
M  V30 369 H 34.0242 1.91892 2.27994 0
M  V30 370 H 31.5612 0.956199 1.11782 0
M  V30 371 H 33.5192 0.302738 4.161 0
M  V30 372 H 32.1492 -0.329879 3.2111 0
M  V30 373 H 31.2012 2.08986 3.17851 0
M  V30 374 H 32.5132 2.55436 4.28432 0
M  V30 375 H 31.6672 0.934395 5.99461 0
M  V30 376 H 30.4062 0.368487 4.86306 0
M  V30 377 H 29.4112 2.67261 4.8047 0
M  V30 378 H 30.6362 3.23567 5.97061 0
M  V30 379 H 28.5822 1.0492 6.47555 0
M  V30 380 H 28.4992 2.67471 7.07103 0
M  V30 381 H 29.7672 1.62211 7.62435 0
M  V30 382 N 33.9963 -1.19345 1.0293 0
M  V30 383 C 35.2423 -1.89318 0.727083 0
M  V30 384 C 35.5753 -1.79446 -0.742483 0
M  V30 385 O 34.8503 -1.1871 -1.54072 0
M  V30 386 C 35.1333 -3.40238 1.17942 0
M  V30 387 C 34.9863 -3.58979 2.71024 0
M  V30 388 C 36.3053 -4.33479 0.760548 0
M  V30 389 H 33.4243 -0.687475 0.265606 0
M  V30 390 H 36.0663 -1.40477 1.2793 0
M  V30 391 H 34.2163 -3.81964 0.709608 0
M  V30 392 H 35.8883 -3.26421 3.25955 0
M  V30 393 H 34.1313 -3.02018 3.11396 0
M  V30 394 H 34.8023 -4.64823 2.9773 0
M  V30 395 H 37.2783 -3.99469 1.16464 0
M  V30 396 H 36.1543 -5.37664 1.10493 0
M  V30 397 H 36.4153 -4.40813 -0.337063 0
M  V30 398 N 35.4744 -0.807222 -1.35358 0
M  V30 399 C 36.8904 -0.491038 -1.51858 0
M  V30 400 C 37.0904 0.987648 -1.75635 0
M  V30 401 O 36.1464 1.77265 -1.79815 0
M  V30 402 C 37.4594 -1.33695 -2.69344 0
M  V30 403 C 39.0074 -1.33246 -2.83222 0
M  V30 404 C 39.4824 -2.1625 -4.03733 0
M  V30 405 N 40.9734 -2.1379 -4.10911 0
M  V30 406 C 41.7084 -2.74772 -5.03277 0
M  V30 407 N 41.2044 -3.44684 -6.0097 0
M  V30 408 N 42.9974 -2.6441 -4.96028 0
M  V30 409 H 35.1484 -1.76485 -1.18181 0
M  V30 410 H 37.4114 -0.751199 -0.578276 0
M  V30 411 H 37.1174 -2.38634 -2.58354 0
M  V30 412 H 36.9914 -0.990618 -3.6396 0
M  V30 413 H 39.3784 -0.290911 -2.93663 0
M  V30 414 H 39.4594 -1.71866 -1.89461 0
M  V30 415 H 39.1034 -3.20445 -3.94052 0
M  V30 416 H 39.0334 -1.74989 -4.96675 0
M  V30 417 H 41.5244 -1.62923 -3.40976 0
M  V30 418 H 41.8374 -3.88501 -6.68047 0
M  V30 419 H 40.1824 -3.48788 -6.01142 0
M  V30 420 H 43.3734 -2.0938 -4.18662 0
M  V30 421 H 43.5464 -3.12225 -5.6782 0
M  V30 422 N 36.9525 1.47285 -0.560781 0
M  V30 423 C 37.8625 2.33846 0.187954 0
M  V30 424 C 38.8785 1.48412 0.908293 0
M  V30 425 O 40.0545 1.81332 0.876388 0
M  V30 426 C 37.1195 3.25178 1.2025 0
M  V30 427 C 36.1805 4.26504 0.489208 0
M  V30 428 C 35.4135 5.13472 1.45542 0
M  V30 429 O 35.6365 5.02959 2.6905 0
M  V30 430 O 34.5705 5.93902 0.977963 0
M  V30 431 H 38.3965 2.99177 -0.522177 0
M  V30 432 H 35.9815 1.45903 -0.321364 0
M  V30 433 H 37.8635 3.81584 1.78805 0
M  V30 434 H 36.5385 2.6247 1.89449 0
M  V30 435 H 35.4455 3.73847 -0.137627 0
M  V30 436 H 36.7785 4.91935 -0.161399 0
M  V30 437 N 38.4306 0.297415 1.54768 0
M  V30 438 C 39.3936 -0.567375 2.22066 0
M  V30 439 C 40.3936 -1.06409 1.20556 0
M  V30 440 O 41.5836 -0.960691 1.45315 0
M  V30 441 C 38.7156 -1.78517 2.90421 0
M  V30 442 H 39.9086 0.0205534 2.99893 0
M  V30 443 H 37.4616 0.0482163 1.56226 0
M  V30 444 H 38.1966 -2.41303 2.16664 0
M  V30 445 H 37.9816 -1.43669 3.64831 0
M  V30 446 H 39.4716 -2.39964 3.41771 0
M  V30 447 N 39.9087 -1.5758 0.0250728 0
M  V30 448 C 41.1367 -1.9593 -0.664747 0
M  V30 449 C 41.5517 -0.901352 -1.65895 0
M  V30 450 O 40.9087 0.117255 -1.82123 0
M  V30 451 C 40.9597 -3.34342 -1.37468 0
M  V30 452 O 40.6807 -4.36079 -0.420324 0
M  V30 453 C 42.1817 -3.873 -2.1567 0
M  V30 454 H 39.4017 -0.645405 -0.183557 0
M  V30 455 H 41.9457 -2.04329 0.0836372 0
M  V30 456 H 40.1007 -3.27175 -2.0745 0
M  V30 457 H 40.5147 -5.16297 -0.923991 0
M  V30 458 H 41.9887 -4.86504 -2.60803 0
M  V30 459 H 42.4657 -3.21331 -2.99405 0
M  V30 460 H 43.0717 -3.97723 -1.50654 0
M  V30 461 N 41.3868 0.248026 -1.55636 0
M  V30 462 C 42.6118 0.998028 -1.81808 0
M  V30 463 C 43.0368 1.78207 -0.601979 0
M  V30 464 O 42.3948 1.75653 0.448961 0
M  V30 465 C 42.4428 1.9125 -3.05705 0
M  V30 466 O 41.5468 3.00406 -2.82542 0
M  V30 467 H 40.8878 0.284045 -0.600179 0
M  V30 468 H 43.4178 0.269357 -2.02819 0
M  V30 469 H 43.4278 2.32737 -3.35108 0
M  V30 470 H 42.1028 1.33602 -3.93857 0
M  V30 471 H 40.6798 2.63056 -2.64303 0
M  V30 472 N 42.8649 1.48995 0.513639 0
M  V30 473 C 43.8129 1.65199 1.63744 0
M  V30 474 C 44.8069 0.51809 1.61283 0
M  V30 475 O 46.0129 0.697335 1.65943 0
M  V30 476 H 42.3879 0.52069 0.542574 0
M  V30 477 H 44.3589 2.59552 1.47226 0
M  V30 478 C 43.1079 1.72409 3.01945 0
M  V30 479 H 42.4309 2.59029 3.04539 0
M  V30 480 H 43.8709 1.87785 3.80148 0
M  V30 481 C 42.3299 0.46618 3.33659 0
M  V30 482 O 42.8599 -0.413744 3.99564 0
M  V30 483 N 41.0659 0.332931 2.88687 0
M  V30 484 H 40.6129 1.04996 2.35231 0
M  V30 485 H 40.5709 -0.507665 3.10274 0
M  V30 486 N 44.343 -0.763751 1.37857 0
M  V30 487 C 45.62 -1.51244 1.24035 0
M  V30 488 C 46 -2.10472 -0.162649 0
M  V30 489 O 45.348 -1.96206 -1.17112 0
M  V30 490 C 45.558 -2.58694 2.34261 0
M  V30 491 C 46.906 -3.25878 2.72193 0
M  V30 492 O 47.93 -2.68993 2.33497 0
M  V30 493 O 46.789 -4.2874 3.38887 0
M  V30 494 H 43.883 -0.670243 0.484462 0
M  V30 495 H 46.429 -0.800031 1.49658 0
M  V30 496 H 45.201 -2.13105 3.2818 0
M  V30 497 H 44.824 -3.37527 2.10146 0
M  V30 498 N 45.8211 -1.22559 -0.990812 0
M  V30 499 C 47.2321 -1.04791 -1.54518 0
M  V30 500 C 47.5831 0.387998 -1.92325 0
M  V30 501 O 46.7081 1.27328 -1.74976 0
M  V30 502 C 47.3031 -1.896 -2.80779 0
M  V30 503 C 45.8621 -1.76124 -3.32652 0
M  V30 504 C 45.0091 -1.8594 -2.05722 0
M  V30 505 H 47.9601 -1.36374 -0.811662 0
M  V30 506 H 47.9811 -1.41464 -3.53225 0
M  V30 507 H 47.4931 -2.94101 -2.53231 0
M  V30 508 H 45.5941 -0.743643 -3.65104 0
M  V30 509 H 45.7071 -2.58913 -4.03114 0
M  V30 510 H 44.0711 -1.29403 -2.19379 0
M  V30 511 H 44.8541 -2.91976 -1.80568 0
M  V30 512 N 47.2992 1.18797 -1.03562 0
M  V30 513 C 48.5452 1.89192 -0.746867 0
M  V30 514 C 48.9002 1.78531 0.717245 0
M  V30 515 O 48.1932 1.17137 1.51622 0
M  V30 516 C 48.3872 3.38692 -1.14117 0
M  V30 517 C 48.2162 3.63902 -2.64207 0
M  V30 518 C 46.9862 3.81553 -3.31279 0
M  V30 519 C 49.1842 3.64903 -3.62423 0
M  V30 520 N 47.1662 3.94455 -4.70402 0
M  V30 521 C 48.5372 3.83458 -4.87196 0
M  V30 522 C 50.5922 3.47965 -3.56125 0
M  V30 523 C 49.2952 3.86829 -6.06429 0
M  V30 524 C 51.3212 3.52616 -4.7478 0
M  V30 525 C 50.6832 3.71663 -5.9837 0
M  V30 526 H 46.7822 0.711141 -0.325273 0
M  V30 527 H 49.3662 1.42727 -1.32428 0
M  V30 528 H 47.5372 3.83864 -0.591889 0
M  V30 529 H 49.2692 3.96634 -0.803966 0
M  V30 530 H 46.0242 3.80723 -2.81686 0
M  V30 531 H 46.4482 4.0474 -5.42692 0
M  V30 532 H 51.0902 3.32189 -2.61553 0
M  V30 533 H 48.8082 4.01395 -7.01362 0
M  V30 534 H 52.3942 3.40791 -4.71543 0
M  V30 535 H 51.2742 3.75145 -6.88648 0
M  V30 536 N 48.7773 0.814389 1.34928 0
M  V30 537 C 50.0253 0.397636 1.9815 0
M  V30 538 C 50.3463 -1.04069 1.64908 0
M  V30 539 O 49.6163 -1.72121 0.93548 0
M  V30 540 H 48.1963 0.144043 0.732981 0
M  V30 541 H 50.8583 1.04195 1.6471 0
M  V30 542 H 49.9543 0.509688 3.0791 0
M  V30 543 N 50.2554 -1.46986 0.568584 0
M  V30 544 C 51.6664 -1.86188 0.138219 0
M  V30 545 C 52.0174 -1.47388 -1.29504 0
M  V30 546 O 51.1424 -0.88219 -1.97602 0
M  V30 547 C 51.7374 -3.3792 0.244065 0
M  V30 548 C 50.2964 -3.76171 -0.131335 0
M  V30 549 C 49.4434 -2.71027 0.586465 0
M  V30 550 H 52.3944 -1.38342 0.777645 0
M  V30 551 H 52.4154 -3.76729 -0.534351 0
M  V30 552 H 51.9274 -3.66128 1.28731 0
M  V30 553 H 50.0284 -3.5358 -1.17526 0
M  V30 554 H 50.1414 -4.78523 0.235146 0
M  V30 555 H 48.5054 -2.54684 0.0282722 0
M  V30 556 H 49.2884 -3.02077 1.63109 0
M  V30 557 N 51.7335 -0.305618 -1.54608 0
M  V30 558 C 52.9585 0.307562 -2.05107 0
M  V30 559 C 53.3835 1.46385 -1.18123 0
M  V30 560 O 52.7415 1.8034 -0.186324 0
M  V30 561 C 52.7895 0.73704 -3.52987 0
M  V30 562 O 51.8935 1.84134 -3.6901 0
M  V30 563 H 51.2345 0.0589143 -0.661381 0
M  V30 564 H 53.7645 -0.448807 -1.99617 0
M  V30 565 H 53.7745 1.02459 -3.94925 0
M  V30 566 H 52.4495 -0.108773 -4.15758 0
M  V30 567 H 51.0265 1.55398 -3.38978 0
M  V30 568 N 53.2116 1.57565 -0.0334293 0
M  V30 569 C 54.4366 1.96689 0.657895 0
M  V30 570 C 54.8616 0.910057 1.64619 0
M  V30 571 O 54.2196 -0.128598 1.80843 0
M  V30 572 C 54.2676 3.34905 1.33683 0
M  V30 573 O 53.3716 3.31574 2.45219 0
M  V30 574 H 52.7126 0.641205 0.172489 0
M  V30 575 H 55.2426 2.04372 -0.0965621 0
M  V30 576 H 55.2526 3.71234 1.69262 0
M  V30 577 H 53.9276 4.11366 0.612411 0
M  V30 578 H 52.5046 3.06968 2.11719 0
M  V30 579 N 54.6897 -0.239769 1.55765 0
M  V30 580 C 55.9147 -0.988373 1.82335 0
M  V30 581 C 56.3397 -1.77886 0.611421 0
M  V30 582 O 55.6977 -1.75889 -0.439639 0
M  V30 583 C 55.7457 -1.89627 3.06715 0
M  V30 584 O 54.8497 -2.98904 2.84131 0
M  V30 585 H 54.1907 -0.280858 0.601677 0
M  V30 586 H 56.7207 -0.258597 2.02959 0
M  V30 587 H 56.7307 -2.30957 3.36338 0
M  V30 588 H 55.4057 -1.31511 3.9456 0
M  V30 589 H 53.9827 -2.61651 2.65694 0
M  V30 590 N 56.1678 -1.49265 -0.50573 0
M  V30 591 C 57.0978 -1.68495 -1.61653 0
M  V30 592 C 58.0788 -0.53366 -1.61512 0
M  V30 593 O 59.2638 -0.76897 -1.78327 0
M  V30 594 C 56.3938 -1.74709 -3.00157 0
M  V30 595 C 55.3478 -2.89581 -3.15162 0
M  V30 596 C 54.6738 -2.80903 -4.5497 0
M  V30 597 C 55.9738 -4.30578 -2.95634 0
M  V30 598 H 57.6678 -2.61493 -1.45814 0
M  V30 599 H 55.2138 -1.25838 -0.70005 0
M  V30 600 H 57.1668 -1.86748 -3.77761 0
M  V30 601 H 55.8908 -0.783067 -3.17074 0
M  V30 602 H 54.5498 -2.77136 -2.39982 0
M  V30 603 H 54.1978 -1.82419 -4.68756 0
M  V30 604 H 53.8978 -3.57999 -4.65951 0
M  V30 605 H 55.4218 -2.94944 -5.34641 0
M  V30 606 H 56.8358 -4.4373 -3.63011 0
M  V30 607 H 55.2328 -5.0886 -3.18091 0
M  V30 608 H 56.3028 -4.45352 -1.91806 0
M  V30 609 N 57.6459 0.756429 -1.3826 0
M  V30 610 C 58.5789 1.87802 -1.29637 0
M  V30 611 C 59.5569 1.61667 -0.173939 0
M  V30 612 O 60.7409 1.85208 -0.350775 0
M  V30 613 C 57.8679 3.23354 -1.00797 0
M  V30 614 C 56.9139 3.68379 -2.14939 0
M  V30 615 S 57.7469 3.8025 -3.77054 0
M  V30 616 C 58.9029 5.18626 -3.50396 0
M  V30 617 H 59.1359 1.94829 -2.24564 0
M  V30 618 H 56.6689 0.919117 -1.24063 0
M  V30 619 H 58.6269 4.01637 -0.848413 0
M  V30 620 H 57.2879 3.14008 -0.0759369 0
M  V30 621 H 56.4809 4.66693 -1.90299 0
M  V30 622 H 56.0829 2.97242 -2.26988 0
M  V30 623 H 58.3749 6.04289 -3.06334 0
M  V30 624 H 59.3179 5.48286 -4.48094 0
M  V30 625 H 59.7259 4.87289 -2.84973 0
M  V30 626 N 59.124 1.23083 0.984299 0
M  V30 627 C 60.349 1.088 1.76571 0
M  V30 628 C 60.774 -0.356657 1.84688 0
M  V30 629 O 60.132 -1.25788 1.30565 0
M  V30 630 C 60.18 1.71371 3.17277 0
M  V30 631 O 59.284 0.973213 4.00752 0
M  V30 632 H 58.625 0.381599 0.543395 0
M  V30 633 H 61.155 1.63057 1.23587 0
M  V30 634 H 61.165 1.76449 3.67872 0
M  V30 635 H 59.84 2.76493 3.10684 0
M  V30 636 H 58.417 0.999078 3.59267 0
M  V30 637 N 60.6021 -1.18246 1.0419 0
M  V30 638 C 61.5121 -2.25574 0.644476 0
M  V30 639 C 62.5281 -1.70845 -0.329826 0
M  V30 640 O 63.7041 -2.00554 -0.184443 0
M  V30 641 C 60.7691 -3.46697 0.014877 0
M  V30 642 C 59.8301 -4.16554 1.03834 0
M  V30 643 C 59.0631 -5.31894 0.438692 0
M  V30 644 O 59.2861 -5.65385 -0.754752 0
M  V30 645 O 58.2201 -5.90459 1.168 0
M  V30 646 H 62.0461 -2.61836 1.53869 0
M  V30 647 H 59.6311 -1.25352 0.812854 0
M  V30 648 H 61.5131 -4.20062 -0.335538 0
M  V30 649 H 60.1881 -3.12255 -0.853138 0
M  V30 650 H 59.0951 -3.45251 1.44057 0
M  V30 651 H 60.4281 -4.54998 1.87716 0
M  V30 652 N 62.0802 -0.821533 -1.34494 0
M  V30 653 C 63.3292 -0.405355 -1.97585 0
M  V30 654 C 63.6422 1.03677 -1.65863 0
M  V30 655 O 64.8482 1.55679 -2.22433 0
M  V30 656 C 63.3042 -0.673861 -3.53535 0
M  V30 657 C 62.9122 -2.12951 -3.94152 0
M  V30 658 C 64.6562 -0.32378 -4.23263 0
M  V30 659 C 62.5632 -2.34298 -5.43009 0
M  V30 660 H 61.4932 -0.147836 -0.739365 0
M  V30 661 H 64.1442 -1.00769 -1.53355 0
M  V30 662 H 62.5262 -0.00137554 -3.96 0
M  V30 663 H 63.7002 -2.84104 -3.62797 0
M  V30 664 H 62.0152 -2.44089 -3.37356 0
M  V30 665 H 64.6122 -0.461126 -5.32708 0
M  V30 666 H 64.9552 0.731586 -4.09821 0
M  V30 667 H 65.4882 -0.950786 -3.8627 0
M  V30 668 H 62.2272 -3.38335 -5.61435 0
M  V30 669 H 61.7472 -1.67687 -5.75883 0
M  V30 670 H 63.4262 -2.16588 -6.09671 0
M  V30 671 N 63.5583 1.46682 -0.576371 0
M  V30 672 C 64.5213 2.28707 0.150239 0
M  V30 673 C 65.5213 1.38035 0.824794 0
M  V30 674 O 66.7113 1.60476 0.677719 0
M  V30 675 C 63.8433 3.18248 1.22192 0
M  V30 676 H 65.0363 2.94423 -0.570521 0
M  V30 677 H 62.5893 1.52688 -0.334078 0
M  V30 678 H 63.3243 2.57265 1.97447 0
M  V30 679 H 63.1093 3.85 0.742812 0
M  V30 680 H 64.5993 3.80001 1.73172 0
M  V30 681 N 65.0364 0.313813 1.54444 0
M  V30 682 C 66.3134 -0.345447 1.92525 0
M  V30 683 C 66.6934 -1.70667 1.24242 0
M  V30 684 O 66.0414 -2.25273 0.382654 0
M  V30 685 C 66.2514 -0.44737 3.46121 0
M  V30 686 C 67.5994 -0.712238 4.18584 0
M  V30 687 O 68.6234 -0.530678 3.52225 0
M  V30 688 O 67.4824 -1.06183 5.36085 0
M  V30 689 H 64.5764 -0.195407 0.803583 0
M  V30 690 H 67.1224 0.362813 1.65776 0
M  V30 691 H 65.8944 0.509043 3.87975 0
M  V30 692 H 65.5174 -1.20359 3.78945 0
M  V30 693 N 66.5145 -1.57545 0.0417849 0
M  V30 694 C 67.4445 -2.14009 -0.933929 0
M  V30 695 C 68.4255 -1.05938 -1.33083 0
M  V30 696 O 69.6105 -1.33833 -1.40721 0
M  V30 697 C 66.7405 -2.67747 -2.21199 0
M  V30 698 C 65.6945 -3.80718 -1.95544 0
M  V30 699 C 65.0205 -4.20935 -3.29724 0
M  V30 700 C 66.3205 -5.06258 -1.28452 0
M  V30 701 H 68.0145 -2.95788 -0.463645 0
M  V30 702 H 65.5605 -1.42285 -0.221573 0
M  V30 703 H 67.5135 -3.05886 -2.89848 0
M  V30 704 H 66.2375 -1.83147 -2.70416 0
M  V30 705 H 64.8965 -3.43037 -1.2931 0
M  V30 706 H 64.5445 -3.33298 -3.76724 0
M  V30 707 H 64.2445 -4.9707 -3.13361 0
M  V30 708 H 65.7685 -4.61666 -3.9962 0
M  V30 709 H 67.1825 -5.41903 -1.8712 0
M  V30 710 H 65.5795 -5.87475 -1.22445 0
M  V30 711 H 66.6495 -4.84207 -0.259219 0
M  V30 712 N 67.9926 0.231505 -1.5589 0
M  V30 713 C 69.2206 0.974505 -1.82513 0
M  V30 714 C 69.6356 1.78344 -0.619591 0
M  V30 715 O 68.9926 1.77792 0.411848 0
M  V30 716 C 69.0436 1.90007 -3.07538 0
M  V30 717 O 68.7646 1.12385 -4.2344 0
M  V30 718 C 70.2656 2.75779 -3.47075 0
M  V30 719 H 67.4856 0.286065 -0.606966 0
M  V30 720 H 70.0296 0.249739 -2.02969 0
M  V30 721 H 68.1846 2.57891 -2.89086 0
M  V30 722 H 68.5986 1.75125 -4.944 0
M  V30 723 H 70.0726 3.36443 -4.37619 0
M  V30 724 H 70.5496 3.47672 -2.68367 0
M  V30 725 H 71.1556 2.13323 -3.67931 0
M  V30 726 N 69.4707 1.49531 0.497807 0
M  V30 727 C 70.7007 1.62657 1.27382 0
M  V30 728 C 71.1087 0.298488 1.86831 0
M  V30 729 O 70.4517 -0.72647 1.68725 0
M  V30 730 C 70.5137 2.6393 2.44093 0
M  V30 731 C 70.1777 4.08195 2.05489 0
M  V30 732 C 71.1747 4.949 1.59279 0
M  V30 733 C 68.8597 4.53948 2.15026 0
M  V30 734 C 70.8537 6.25397 1.23113 0
M  V30 735 C 68.5407 5.84458 1.78473 0
M  V30 736 C 69.5387 6.70006 1.32591 0
M  V30 737 O 69.2267 7.98083 0.965327 0
M  V30 738 H 68.9587 0.550429 0.392434 0
M  V30 739 H 71.5127 1.96325 0.603801 0
M  V30 740 H 69.7427 2.25449 3.14181 0
M  V30 741 H 71.4317 2.66552 3.06113 0
M  V30 742 H 72.1977 4.60779 1.51354 0
M  V30 743 H 68.0767 3.87525 2.4969 0
M  V30 744 H 71.6207 6.92125 0.872299 0
M  V30 745 H 67.5177 6.18107 1.86048 0
M  V30 746 H 68.2857 8.11122 1.09652 0
M  V30 747 N 70.9488 -0.749086 1.3866 0
M  V30 748 C 71.8968 -1.88428 1.36373 0
M  V30 749 C 72.8908 -1.67561 0.248929 0
M  V30 750 O 74.0968 -1.75074 0.41821 0
M  V30 751 H 70.4718 -0.620023 0.42553 0
M  V30 752 H 72.4428 -1.87473 2.32156 0
M  V30 753 C 71.1918 -3.25961 1.21014 0
M  V30 754 H 70.5148 -3.42607 2.06059 0
M  V30 755 H 71.9548 -4.05625 1.23469 0
M  V30 756 C 70.4138 -3.36799 -0.0825941 0
M  V30 757 O 70.9438 -3.87517 -1.05797 0
M  V30 758 N 69.1498 -2.90258 -0.140939 0
M  V30 759 H 68.6968 -2.49174 0.653477 0
M  V30 760 H 68.6548 -2.97889 -1.00545 0
M  V30 761 N 72.4269 -1.23603 -0.977757 0
M  V30 762 C 73.6729 -1.07129 -1.72195 0
M  V30 763 C 74.0059 0.390501 -1.90233 0
M  V30 764 O 73.2809 1.28902 -1.45653 0
M  V30 765 C 73.5639 -1.80031 -3.11867 0
M  V30 766 C 73.4169 -3.33899 -3.01383 0
M  V30 767 C 74.7359 -1.56492 -4.11337 0
M  V30 768 H 71.8549 -0.390571 -0.624999 0
M  V30 769 H 74.4969 -1.52142 -1.13811 0
M  V30 770 H 72.6469 -1.41768 -3.6171 0
M  V30 771 H 74.3189 -3.81699 -2.59043 0
M  V30 772 H 72.5619 -3.62796 -2.37827 0
M  V30 773 H 73.2329 -3.801 -4.00285 0
M  V30 774 H 75.7089 -1.89757 -3.70313 0
M  V30 775 H 74.5849 -2.09973 -5.07151 0
M  V30 776 H 74.8459 -0.500874 -4.39254 0
M  V30 777 N 73.905 1.17692 -1.04816 0
M  V30 778 C 75.151 1.88137 -0.75711 0
M  V30 779 C 75.484 1.80604 0.713841 0
M  V30 780 O 74.759 1.21146 1.52164 0
M  V30 781 C 75.042 3.38318 -1.2334 0
M  V30 782 C 74.895 3.54622 -2.76701 0
M  V30 783 C 76.214 4.32214 -0.829415 0
M  V30 784 H 73.333 0.683163 -0.27651 0
M  V30 785 H 75.975 1.38424 -1.30149 0
M  V30 786 H 74.125 3.80787 -0.770286 0
M  V30 787 H 75.797 3.21194 -3.31107 0
M  V30 788 H 74.04 2.97026 -3.16161 0
M  V30 789 H 74.711 4.60028 -3.05088 0
M  V30 790 H 77.187 3.97565 -1.22805 0
M  V30 791 H 76.063 5.35838 -1.19033 0
M  V30 792 H 76.324 4.41294 0.266891 0
M  V30 793 N 75.3831 0.828654 1.34056 0
M  V30 794 C 76.3461 0.259927 2.27721 0
M  V30 795 C 77.3461 -0.565478 1.50529 0
M  V30 796 O 78.5361 -0.38075 1.69988 0
M  V30 797 C 75.6681 -0.634944 3.34935 0
M  V30 798 H 76.8611 1.0863 2.79534 0
M  V30 799 H 74.4141 0.600951 1.44285 0
M  V30 800 H 75.1491 -1.48416 2.88346 0
M  V30 801 H 74.9341 -0.0444999 3.92075 0
M  V30 802 H 76.4241 -1.02648 4.04788 0
M  V30 803 N 76.8612 -1.46375 0.584142 0
M  V30 804 C 78.1082 -2.02378 0.0702675 0
M  V30 805 C 78.4362 -1.45545 -1.29023 0
M  V30 806 O 77.6912 -0.610967 -1.85918 0
M  V30 807 C 77.9902 -3.57373 -0.0439342 0
M  V30 808 C 77.6562 -4.33252 1.24915 0
M  V30 809 C 76.3182 -4.53701 1.60341 0
M  V30 810 C 78.6702 -4.7681 2.1048 0
M  V30 811 C 75.9982 -5.1496 2.81128 0
M  V30 812 C 78.3502 -5.39404 3.30494 0
M  V30 813 C 77.0142 -5.5808 3.66201 0
M  V30 814 H 76.2842 -0.740554 0.0257127 0
M  V30 815 H 78.9312 -1.75727 0.761065 0
M  V30 816 H 77.2362 -3.83169 -0.817869 0
M  V30 817 H 78.9332 -3.98384 -0.457318 0
M  V30 818 H 75.5232 -4.17633 0.963364 0
M  V30 819 H 79.7072 -4.60766 1.84414 0
M  V30 820 H 74.9632 -5.27611 3.08928 0
M  V30 821 H 79.1372 -5.72114 3.97063 0
M  V30 822 H 76.7642 -6.05318 4.59885 0
M  V30 823 N 78.3393 -0.321999 -1.54275 0
M  V30 824 C 79.5643 0.285791 -2.05422 0
M  V30 825 C 79.9893 1.45124 -1.19669 0
M  V30 826 O 79.3473 1.80132 -0.205441 0
M  V30 827 C 79.3953 0.69956 -3.53749 0
M  V30 828 O 78.4993 1.8021 -3.70942 0
M  V30 829 H 77.8403 0.0518962 -0.661969 0
M  V30 830 H 80.3703 -0.469954 -1.9913 0
M  V30 831 H 80.3803 0.982649 -3.9599 0
M  V30 832 H 79.0553 -0.152864 -4.15619 0
M  V30 833 H 77.6323 1.51794 -3.40607 0
M  V30 834 N 79.8174 1.5752 -0.0501392 0
M  V30 835 C 80.7274 2.14952 0.939827 0
M  V30 836 C 81.7434 1.10706 1.34239 0
M  V30 837 O 82.9194 1.42869 1.41952 0
M  V30 838 C 79.9844 2.68232 2.19665 0
M  V30 839 C 79.0454 3.87272 1.85253 0
M  V30 840 C 78.2784 4.38002 3.04943 0
M  V30 841 O 78.5014 3.87811 4.18281 0
M  V30 842 O 77.4354 5.29602 2.86017 0
M  V30 843 H 81.2614 2.9986 0.481392 0
M  V30 844 H 78.8464 1.4841 0.171699 0
M  V30 845 H 80.7284 3.02475 2.93406 0
M  V30 846 H 79.4034 1.86395 2.64648 0
M  V30 847 H 78.3104 3.5792 1.0883 0
M  V30 848 H 79.6434 4.70336 1.4507 0
M  V30 849 N 81.2955 -0.223234 1.56011 0
M  V30 850 C 82.5445 -0.945912 1.78144 0
M  V30 851 C 82.8575 -1.85567 0.618396 0
M  V30 852 O 84.0635 -2.61688 0.723318 0
M  V30 853 C 82.5195 -1.73216 3.15475 0
M  V30 854 C 82.1275 -0.868619 4.39499 0
M  V30 855 C 83.8715 -2.44615 3.46935 0
M  V30 856 C 81.7785 -1.65212 5.67855 0
M  V30 857 H 80.7085 -0.356929 0.664167 0
M  V30 858 H 83.3595 -0.199845 1.82409 0
M  V30 859 H 81.7415 -2.52107 3.05382 0
M  V30 860 H 82.9155 -0.120366 4.60643 0
M  V30 861 H 81.2305 -0.26683 4.15544 0
M  V30 862 H 83.8275 -3.03732 4.40058 0
M  V30 863 H 84.1705 -3.17417 2.69355 0
M  V30 864 H 84.7035 -1.72715 3.58349 0
M  V30 865 H 81.4425 -0.967407 6.48322 0
M  V30 866 H 80.9625 -2.37503 5.50774 0
M  V30 867 H 82.6415 -2.21322 6.07968 0
M  V30 868 N 82.7736 -1.49793 -0.48987 0
M  V30 869 C 83.7066 -1.61898 -1.60823 0
M  V30 870 C 84.6846 -0.467651 -1.5573 0
M  V30 871 O 85.8686 -0.684682 -1.75626 0
M  V30 872 C 82.9956 -1.58422 -2.99366 0
M  V30 873 C 82.0416 -2.78889 -3.22682 0
M  V30 874 S 82.8746 -4.40429 -3.04602 0
M  V30 875 C 84.0306 -4.39617 -4.4552 0
M  V30 876 H 84.2636 -2.56502 -1.50312 0
M  V30 877 H 81.7966 -1.38822 -0.675849 0
M  V30 878 H 83.7546 -1.57103 -3.79248 0
M  V30 879 H 82.4156 -0.650866 -3.07283 0
M  V30 880 H 81.6086 -2.72708 -4.23847 0
M  V30 881 H 81.2106 -2.77678 -2.50541 0
M  V30 882 H 83.5026 -4.12022 -5.37814 0
M  V30 883 H 84.4456 -5.41097 -4.56749 0
M  V30 884 H 84.8536 -3.69554 -4.2672 0
M  V30 885 N 84.2517 0.741722 -1.39055 0
M  V30 886 C 85.4767 1.53607 -1.39354 0
M  V30 887 C 85.9017 1.88096 0.0116905 0
M  V30 888 O 85.2597 1.5143 0.996924 0
M  V30 889 C 85.3077 2.80441 -2.26682 0
M  V30 890 O 84.4117 3.76088 -1.69208 0
M  V30 891 H 83.7527 0.464142 -0.474835 0
M  V30 892 H 86.2827 0.915665 -1.82967 0
M  V30 893 H 86.2927 3.29246 -2.40959 0
M  V30 894 H 84.9677 2.5467 -3.2881 0
M  V30 895 H 83.5447 3.34833 -1.64138 0
M  V30 896 N 85.7298 1.2412 0.971189 0
M  V30 897 C 86.6628 0.97373 2.06382 0
M  V30 898 C 87.6408 -0.0912662 1.62344 0
M  V30 899 O 88.8248 0.0449365 1.88446 0
M  V30 900 C 85.9518 0.468746 3.35441 0
M  V30 901 C 84.9978 1.52176 3.98428 0
M  V30 902 S 85.8308 3.10203 4.36503 0
M  V30 903 C 86.9868 2.61398 5.68702 0
M  V30 904 H 87.2198 1.89893 2.28753 0
M  V30 905 H 84.7528 1.07466 1.10862 0
M  V30 906 H 86.7108 0.184012 4.10087 0
M  V30 907 H 85.3718 -0.435688 3.11064 0
M  V30 908 H 84.5648 1.11876 4.91426 0
M  V30 909 H 84.1668 1.75632 3.30196 0
M  V30 910 H 86.4588 2.03992 6.4606 0
M  V30 911 H 87.4018 3.52972 6.13854 0
M  V30 912 H 87.8098 2.01941 5.27143 0
M  V30 913 N 87.2079 -1.17134 1.05439 0
M  V30 914 C 88.4569 -1.86791 0.761049 0
M  V30 915 C 88.7699 -1.82072 -0.714795 0
M  V30 916 O 89.9759 -2.47223 -1.12218 0
M  V30 917 C 88.4319 -3.35166 1.31117 0
M  V30 918 C 88.0399 -3.48381 2.81664 0
M  V30 919 C 89.7839 -4.10134 1.09499 0
M  V30 920 C 87.6909 -4.90793 3.29964 0
M  V30 921 H 86.6209 -0.699681 0.281002 0
M  V30 922 H 89.2719 -1.3226 1.27199 0
M  V30 923 H 87.6539 -3.8925 0.72803 0
M  V30 924 H 88.8279 -3.04502 3.45855 0
M  V30 925 H 87.1429 -2.86836 3.01851 0
M  V30 926 H 89.7399 -5.152 1.43084 0
M  V30 927 H 90.0829 -4.16287 0.0328772 0
M  V30 928 H 90.6159 -3.62264 1.64346 0
M  V30 929 H 87.3549 -4.89816 4.35616 0
M  V30 930 H 86.8749 -5.35333 2.70516 0
M  V30 931 H 88.5539 -5.59573 3.24787 0
M  V30 932 N 88.686 -0.835752 -1.33615 0
M  V30 933 C 89.932 -0.439817 -1.98588 0
M  V30 934 C 90.287 0.989274 -1.65019 0
M  V30 935 O 89.58 1.68168 -0.918159 0
M  V30 936 C 89.774 -0.593925 -3.52431 0
M  V30 937 C 89.603 -2.03644 -4.00948 0
M  V30 938 C 88.373 -2.67103 -4.28934 0
M  V30 939 C 90.571 -3.00479 -4.17393 0
M  V30 940 N 88.553 -4.02462 -4.6357 0
M  V30 941 C 89.924 -4.20777 -4.55353 0
M  V30 942 C 91.979 -2.96926 -3.99674 0
M  V30 943 C 90.682 -5.37994 -4.77447 0
M  V30 944 C 92.708 -4.1337 -4.22941 0
M  V30 945 C 92.07 -5.32422 -4.61201 0
M  V30 946 H 88.169 -0.209303 -0.75347 0
M  V30 947 H 90.753 -1.08316 -1.61789 0
M  V30 948 H 88.924 0.019599 -3.88395 0
M  V30 949 H 90.656 -0.169738 -4.04344 0
M  V30 950 H 87.411 -2.18259 -4.20309 0
M  V30 951 H 87.835 -4.72232 -4.85104 0
M  V30 952 H 92.477 -2.06015 -3.69212 0
M  V30 953 H 90.195 -6.29451 -5.06771 0
M  V30 954 H 93.781 -4.12034 -4.10754 0
M  V30 955 H 92.661 -6.21027 -4.78848 0
M  V30 956 N 90.1641 1.46063 -0.591896 0
M  V30 957 C 91.1111 2.30399 0.136069 0
M  V30 958 C 92.0811 1.41169 0.875238 0
M  V30 959 O 93.2661 1.70112 0.86409 0
M  V30 960 C 90.4061 3.25804 1.13781 0
M  V30 961 C 89.5191 4.30134 0.401137 0
M  V30 962 C 88.6541 5.12659 1.39121 0
M  V30 963 C 87.6931 6.0873 0.641462 0
M  V30 964 N 86.8301 6.8409 1.58004 0
M  V30 965 H 91.6701 2.92118 -0.589144 0
M  V30 966 H 89.2071 1.43959 -0.302342 0
M  V30 967 H 91.1651 3.79569 1.73156 0
M  V30 968 H 89.7951 2.65872 1.83062 0
M  V30 969 H 88.8471 3.79152 -0.307826 0
M  V30 970 H 90.1591 4.98458 -0.184565 0
M  V30 971 H 89.3131 5.70747 2.05749 0
M  V30 972 H 88.0521 4.44316 2.01084 0
M  V30 973 H 87.0571 5.49786 -0.0385419 0
M  V30 974 H 88.2821 6.79095 0.0270945 0
M  V30 975 H 86.2281 6.18449 2.18761 0
M  V30 976 H 86.1451 7.48709 1.04738 0
M  V30 977 H 87.4131 7.4673 2.23639 0
M  V30 978 N 91.6422 0.330177 1.54103 0
M  V30 979 C 93.0582 -0.0222371 1.59585 0
M  V30 980 C 93.2582 -1.49902 1.34654 0
M  V30 981 O 92.3142 -2.25592 1.13421 0
M  V30 982 C 93.6272 0.401932 2.98002 0
M  V30 983 C 95.1752 0.353145 3.11001 0
M  V30 984 C 95.6502 0.752576 4.51775 0
M  V30 985 N 97.1412 0.706239 4.57784 0
M  V30 986 C 97.8762 0.987417 5.64834 0
M  V30 987 N 97.3722 1.33607 6.79795 0
M  V30 988 N 99.1652 0.91254 5.54643 0
M  V30 989 H 91.3162 1.29228 1.68564 0
M  V30 990 H 93.5792 0.525906 0.78875 0
M  V30 991 H 93.2852 1.4311 3.21267 0
M  V30 992 H 93.1592 -0.229699 3.765 0
M  V30 993 H 95.5462 -0.666822 2.87467 0
M  V30 994 H 95.6272 1.0198 2.34593 0
M  V30 995 H 95.2712 1.77049 4.76042 0
M  V30 996 H 95.2012 0.0635409 5.26562 0
M  V30 997 H 97.6922 0.44889 3.75224 0
M  V30 998 H 98.0052 1.53582 7.57385 0
M  V30 999 H 96.3502 1.37439 6.81275 0
M  V30 1000 H 99.5412 0.639601 4.6371 0
M  V30 1001 H 99.7142 1.13503 6.37982 0
M  V30 1002 N 93.1203 -1.57491 0.0584922 0
M  V30 1003 C 94.0503 -2.14988 -0.911178 0
M  V30 1004 C 95.0313 -1.07343 -1.31952 0
M  V30 1005 O 96.2163 -1.35318 -1.39294 0
M  V30 1006 C 93.3463 -2.70078 -2.18347 0
M  V30 1007 C 92.3003 -3.82771 -1.91495 0
M  V30 1008 C 91.6263 -4.24408 -3.25241 0
M  V30 1009 C 92.9263 -5.07592 -1.23075 0
M  V30 1010 H 94.6203 -2.96263 -0.432246 0
M  V30 1011 H 92.1663 -1.42512 -0.206469 0
M  V30 1012 H 94.1193 -3.08943 -2.86587 0
M  V30 1013 H 92.8433 -1.86005 -2.68458 0
M  V30 1014 H 91.5023 -3.44389 -1.25664 0
M  V30 1015 H 91.1503 -3.37275 -3.73168 0
M  V30 1016 H 90.8503 -5.00366 -3.08071 0
M  V30 1017 H 92.3743 -4.65879 -3.94701 0
M  V30 1018 H 93.7883 -5.43857 -1.81362 0
M  V30 1019 H 92.1853 -5.88741 -1.16207 0
M  V30 1020 H 93.2553 -4.84454 -0.207847 0
M  V30 1021 N 94.5984 0.214957 -1.56127 0
M  V30 1022 C 95.5464 1.28601 -1.93816 0
M  V30 1023 C 96.5404 1.48175 -0.821016 0
M  V30 1024 O 97.7464 1.49271 -1.0059 0
M  V30 1025 H 94.1214 0.431302 -0.616022 0
M  V30 1026 H 96.0924 0.940991 -2.83175 0
M  V30 1027 C 94.8414 2.62779 -2.27689 0
M  V30 1028 H 94.1644 2.48527 -3.13168 0
M  V30 1029 H 95.6044 3.36517 -2.57939 0
M  V30 1030 C 94.0634 3.18285 -1.10436 0
M  V30 1031 O 94.5934 4.00002 -0.368945 0
M  V30 1032 N 92.7994 2.7675 -0.886433 0
M  V30 1033 H 92.3464 2.10404 -1.48619 0
M  V30 1034 H 92.3044 3.14229 -0.103656 0
M  V30 1035 N 96.0765 1.50051 0.48192 0
M  V30 1036 C 97.3535 1.51009 1.2432 0
M  V30 1037 C 97.7335 0.248587 2.09631 0
M  V30 1038 O 97.0815 -0.768409 2.15192 0
M  V30 1039 C 97.2915 2.79981 2.08355 0
M  V30 1040 C 98.6395 3.3022 2.66908 0
M  V30 1041 O 99.6635 2.81228 2.18607 0
M  V30 1042 O 98.5225 4.15595 3.54884 0
M  V30 1043 H 95.6165 0.605239 0.563573 0
M  V30 1044 H 98.1625 1.62332 0.494627 0
M  V30 1045 H 96.9345 3.63275 1.45419 0
M  V30 1046 H 96.5575 2.7161 2.90368 0
M  V30 1047 N 97.5546 -0.734337 1.39446 0
M  V30 1048 C 98.5046 -1.83949 1.34709 0
M  V30 1049 C 99.4886 -1.59279 0.227851 0
M  V30 1050 O 100.681 -1.70771 0.465438 0
M  V30 1051 C 97.8096 -3.21884 1.19356 0
M  V30 1052 C 96.8956 -3.52381 2.35984 0
M  V30 1053 N 97.2866 -3.53811 3.61457 0
M  V30 1054 C 95.5846 -3.82747 2.28956 0
M  V30 1055 C 96.2856 -3.82122 4.38586 0
M  V30 1056 N 95.2616 -3.9993 3.68181 0
M  V30 1057 H 99.0636 -1.83361 2.29687 0
M  V30 1058 H 96.5776 -0.932609 1.32952 0
M  V30 1059 H 98.5746 -4.00998 1.14046 0
M  V30 1060 H 97.2346 -3.23711 0.253295 0
M  V30 1061 H 98.2456 -3.35107 3.94872 0
M  V30 1062 H 94.9226 -3.92175 1.43194 0
M  V30 1063 H 96.3126 -3.89691 5.47349 0
M  V30 1064 N 99.0327 -1.24633 -0.964593 0
M  V30 1065 C 100.281 -1.08573 -1.70459 0
M  V30 1066 C 100.602 0.375655 -1.91347 0
M  V30 1067 O 99.8717 1.26779 -1.49345 0
M  V30 1068 H 98.4517 -0.398784 -0.631649 0
M  V30 1069 H 101.114 -1.56601 -1.16026 0
M  V30 1070 H 100.21 -1.58623 -2.68785 0
M  V30 1071 N 100.511 1.16574 -1.06058 0
M  V30 1072 C 101.458 2.20883 -0.669263 0
M  V30 1073 C 102.428 1.62729 0.332918 0
M  V30 1074 O 103.613 1.895 0.222346 0
M  V30 1075 C 100.753 3.45049 -0.0593572 0
M  V30 1076 C 99.8658 4.17458 -1.11143 0
M  V30 1077 C 99.0008 5.29135 -0.467916 0
M  V30 1078 C 98.0398 5.93343 -1.50369 0
M  V30 1079 N 97.1768 6.96516 -0.883706 0
M  V30 1080 H 102.017 2.53709 -1.5632 0
M  V30 1081 H 99.5538 1.24616 -0.781625 0
M  V30 1082 H 101.512 4.16033 0.311771 0
M  V30 1083 H 100.142 3.12781 0.797992 0
M  V30 1084 H 99.1938 3.45101 -1.60029 0
M  V30 1085 H 100.506 4.61307 -1.89731 0
M  V30 1086 H 99.6598 6.06684 -0.0436871 0
M  V30 1087 H 98.3988 4.86443 0.349864 0
M  V30 1088 H 97.4038 5.14517 -1.93784 0
M  V30 1089 H 98.6288 6.38114 -2.32352 0
M  V30 1090 H 96.5748 6.55943 -0.086595 0
M  V30 1091 H 96.4918 7.38723 -1.607 0
M  V30 1092 H 97.7598 7.77993 -0.484543 0
M  V30 1093 N 101.989 0.842826 1.3317 0
M  V30 1094 C 102.937 0.267495 2.31057 0
M  V30 1095 C 103.931 -0.602682 1.58316 0
M  V30 1096 O 105.137 -0.491803 1.73151 0
M  V30 1097 H 101.512 0.0677813 0.748939 0
M  V30 1098 H 103.483 1.10754 2.77085 0
M  V30 1099 C 102.232 -0.539331 3.43492 0
M  V30 1100 H 101.555 0.12095 3.99617 0
M  V30 1101 H 102.995 -0.90767 4.14171 0
M  V30 1102 C 101.454 -1.71981 2.89697 0
M  V30 1103 O 101.984 -2.81862 2.86211 0
M  V30 1104 N 100.19 -1.54299 2.46252 0
M  V30 1105 H 99.7369 -0.649143 2.49287 0
M  V30 1106 H 99.6949 -2.33431 2.10612 0
M  V30 1107 N 103.467 -1.45747 0.599634 0
M  V30 1108 C 104.713 -2.03153 0.100263 0
M  V30 1109 C 105.068 -1.46073 -1.25221 0
M  V30 1110 O 104.361 -0.622878 -1.81193 0
M  V30 1111 C 104.555 -3.57399 -0.00602758 0
M  V30 1112 C 104.384 -4.2944 1.3346 0
M  V30 1113 C 103.154 -4.6768 1.91321 0
M  V30 1114 C 105.352 -4.61905 2.2616 0
M  V30 1115 N 103.334 -5.24544 3.18946 0
M  V30 1116 C 104.705 -5.19518 3.3838 0
M  V30 1117 C 106.76 -4.43841 2.25631 0
M  V30 1118 C 105.463 -5.60972 4.50226 0
M  V30 1119 C 107.489 -4.86322 3.36518 0
M  V30 1120 C 106.851 -5.44021 4.4746 0
M  V30 1121 H 102.95 -0.777911 0.0798696 0
M  V30 1122 H 105.534 -1.77674 0.796244 0
M  V30 1123 H 103.705 -3.82556 -0.671212 0
M  V30 1124 H 105.437 -4.01457 -0.51133 0
M  V30 1125 H 102.192 -4.5098 1.44617 0
M  V30 1126 H 102.616 -5.57483 3.84112 0
M  V30 1127 H 107.258 -3.98552 1.41123 0
M  V30 1128 H 104.976 -6.0523 5.35464 0
M  V30 1129 H 108.562 -4.74084 3.37247 0
M  V30 1130 H 107.442 -5.76289 5.31846 0
M  V30 1131 N 104.945 -0.338344 -1.53925 0
M  V30 1132 C 106.361 0.0137736 -1.59594 0
M  V30 1133 C 106.561 1.49186 -1.35447 0
M  V30 1134 O 105.617 2.24987 -1.14616 0
M  V30 1135 C 106.93 -0.41773 -2.97784 0
M  V30 1136 C 108.478 -0.369633 -3.1081 0
M  V30 1137 C 108.953 -0.776524 -4.51369 0
M  V30 1138 N 110.444 -0.730506 -4.57403 0
M  V30 1139 C 111.179 -1.01736 -5.64303 0
M  V30 1140 N 110.675 -1.3721 -6.79077 0
M  V30 1141 N 112.468 -0.941942 -5.54151 0
M  V30 1142 H 104.619 -1.3012 -1.67876 0
M  V30 1143 H 106.882 -0.530082 -0.78595 0
M  V30 1144 H 106.588 -1.44811 -3.20504 0
M  V30 1145 H 106.462 0.209729 -3.76616 0
M  V30 1146 H 108.849 0.651568 -2.87817 0
M  V30 1147 H 108.93 -1.03223 -2.34049 0
M  V30 1148 H 108.574 -1.79571 -4.75096 0
M  V30 1149 H 108.504 -0.0914649 -5.26521 0
M  V30 1150 H 110.995 -0.468783 -3.74981 0
M  V30 1151 H 111.308 -1.57597 -7.5656 0
M  V30 1152 H 109.653 -1.4105 -6.80536 0
M  V30 1153 H 112.844 -0.664184 -4.63364 0
M  V30 1154 H 113.017 -1.16884 -6.37371 0
M  V30 1155 N 106.423 1.57458 -0.0668435 0
M  V30 1156 C 107.373 2.0896 0.912119 0
M  V30 1157 C 108.357 0.998186 1.26195 0
M  V30 1158 O 109.549 1.26133 1.24175 0
M  V30 1159 C 106.678 2.6508 2.18145 0
M  V30 1160 C 105.764 3.81218 1.85832 0
M  V30 1161 N 106.155 4.90378 1.23948 0
M  V30 1162 C 104.453 3.9042 2.15612 0
M  V30 1163 C 105.154 5.71279 1.09616 0
M  V30 1164 N 104.13 5.19389 1.60423 0
M  V30 1165 H 107.932 2.90749 0.42924 0
M  V30 1166 H 105.446 1.6182 0.137184 0
M  V30 1167 H 107.443 3.0029 2.89192 0
M  V30 1168 H 106.103 1.84736 2.67025 0
M  V30 1169 H 107.114 5.09847 0.909731 0
M  V30 1170 H 103.791 3.21043 2.66903 0
M  V30 1171 H 105.181 6.69085 0.614425 0
M  V30 1172 N 107.901 -0.206675 1.56239 0
M  V30 1173 C 109.147 -0.930218 1.80208 0
M  V30 1174 C 109.48 -1.83387 0.638981 0
M  V30 1175 O 108.755 -1.91119 -0.361066 0
M  V30 1176 C 109.038 -1.75641 3.1436 0
M  V30 1177 C 108.891 -0.878257 4.41142 0
M  V30 1178 C 110.21 -2.73129 3.45092 0
M  V30 1179 H 107.329 -0.336742 0.655571 0
M  V30 1180 H 109.971 -0.198222 1.88963 0
M  V30 1181 H 108.121 -2.38048 3.07027 0
M  V30 1182 H 109.793 -0.269787 4.6051 0
M  V30 1183 H 108.036 -0.184385 4.33408 0
M  V30 1184 H 108.707 -1.49106 5.3148 0
M  V30 1185 H 111.183 -2.20856 3.52649 0
M  V30 1186 H 110.059 -3.28028 4.40101 0
M  V30 1187 H 110.32 -3.51606 2.68003 0
M  V30 1188 N 109.379 -1.50304 -0.473955 0
M  V30 1189 C 110.609 -1.64663 -1.24778 0
M  V30 1190 C 111.017 -0.328174 -1.86332 0
M  V30 1191 O 110.36 0.699536 -1.69859 0
M  V30 1192 C 110.422 -2.6778 -2.39863 0
M  V30 1193 C 110.086 -4.11413 -1.98969 0
M  V30 1194 C 111.083 -4.97372 -1.51385 0
M  V30 1195 C 108.768 -4.57312 -2.07777 0
M  V30 1196 C 110.762 -6.27277 -1.13148 0
M  V30 1197 C 108.449 -5.87223 -1.69152 0
M  V30 1198 C 109.447 -6.72031 -1.21915 0
M  V30 1199 O 109.135 -7.99518 -0.838237 0
M  V30 1200 H 108.867 -0.556602 -0.383627 0
M  V30 1201 H 111.421 -1.9726 -0.572491 0
M  V30 1202 H 109.651 -2.30419 -3.10554 0
M  V30 1203 H 111.34 -2.71388 -3.01833 0
M  V30 1204 H 112.106 -4.63128 -1.44004 0
M  V30 1205 H 107.985 -3.91449 -2.43493 0
M  V30 1206 H 111.529 -6.93425 -0.762077 0
M  V30 1207 H 107.426 -6.20989 -1.76191 0
M  V30 1208 H 108.194 -8.12764 -0.967339 0
M  V30 1209 N 110.857 0.726932 -1.39834 0
M  V30 1210 C 111.804 1.841 -1.39197 0
M  V30 1211 C 112.774 1.642 -0.250502 0
M  V30 1212 O 113.959 1.85494 -0.446846 0
M  V30 1213 C 111.099 3.21697 -1.24919 0
M  V30 1214 C 110.212 3.53247 -2.48678 0
M  V30 1215 C 109.347 4.80289 -2.26928 0
M  V30 1216 C 108.386 5.04707 -3.4632 0
M  V30 1217 N 107.523 6.22956 -3.23836 0
M  V30 1218 H 112.363 1.83979 -2.34427 0
M  V30 1219 H 109.9 0.898876 -1.16442 0
M  V30 1220 H 111.858 4.01137 -1.1465 0
M  V30 1221 H 110.488 3.21076 -0.333153 0
M  V30 1222 H 109.54 2.68447 -2.69519 0
M  V30 1223 H 110.852 3.67205 -3.37582 0
M  V30 1224 H 110.006 5.67725 -2.13947 0
M  V30 1225 H 108.745 4.68519 -1.35431 0
M  V30 1226 H 107.75 4.1573 -3.5979 0
M  V30 1227 H 108.975 5.18357 -4.38729 0
M  V30 1228 H 106.921 6.12459 -2.35011 0
M  V30 1229 H 106.838 6.37539 -4.063 0
M  V30 1230 H 108.106 7.1321 -3.14566 0
M  V30 1231 N 112.336 1.25143 0.95797 0
M  V30 1232 C 113.299 1.05321 2.03569 0
M  V30 1233 C 114.299 0.007152 1.60798 0
M  V30 1234 O 115.489 0.24903 1.72411 0
M  V30 1235 C 112.621 0.598394 3.35607 0
M  V30 1236 H 113.814 2.00986 2.22586 0
M  V30 1237 H 111.367 1.07502 1.13459 0
M  V30 1238 H 112.102 -0.361014 3.22284 0
M  V30 1239 H 111.887 1.35351 3.67998 0
M  V30 1240 H 113.377 0.48104 4.1482 0
M  V30 1241 N 113.814 -1.1601 1.06675 0
M  V30 1242 C 114.747 -2.1947 0.625168 0
M  V30 1243 C 115.725 -1.58699 -0.354041 0
M  V30 1244 O 116.909 -1.86669 -0.262098 0
M  V30 1245 C 114.036 -3.38598 -0.0829593 0
M  V30 1246 C 113.082 -4.1787 0.853611 0
M  V30 1247 S 113.915 -4.81135 2.35094 0
M  V30 1248 C 115.071 -6.03639 1.65441 0
M  V30 1249 H 115.304 -2.56587 1.50168 0
M  V30 1250 H 112.837 -1.26862 0.880078 0
M  V30 1251 H 114.795 -4.07621 -0.485288 0
M  V30 1252 H 113.456 -2.99839 -0.935716 0
M  V30 1253 H 112.649 -5.03078 0.304755 0
M  V30 1254 H 112.251 -3.54361 1.196 0
M  V30 1255 H 114.543 -6.70632 0.962201 0
M  V30 1256 H 115.486 -6.63081 2.48454 0
M  V30 1257 H 115.894 -5.52965 1.13534 0
M  V30 1258 N 115.292 -0.849877 -1.32721 0
M  V30 1259 C 116.52 -0.464754 -2.01613 0
M  V30 1260 C 116.935 0.937191 -1.63897 0
M  V30 1261 O 116.292 1.61081 -0.857856 0
M  V30 1262 C 116.343 -0.588638 -3.56675 0
M  V30 1263 O 116.064 -1.93535 -3.93034 0
M  V30 1264 C 117.565 -0.2019 -4.4284 0
M  V30 1265 H 114.785 -0.183215 -0.645502 0
M  V30 1266 H 117.329 -1.1455 -1.69407 0
M  V30 1267 H 115.484 0.0443159 -3.87375 0
M  V30 1268 H 115.898 -1.92871 -4.87751 0
M  V30 1269 H 117.372 -0.339599 -5.50954 0
M  V30 1270 H 117.849 0.857224 -4.30753 0
M  V30 1271 H 118.455 -0.809733 -4.17521 0
M  V30 1272 N 116.77 1.45427 -0.607355 0
M  V30 1273 C 117.7 2.3329 0.0989352 0
M  V30 1274 C 118.681 1.46816 0.859007 0
M  V30 1275 O 119.866 1.75588 0.829604 0
M  V30 1276 C 116.996 3.29518 1.09705 0
M  V30 1277 C 115.95 4.25626 0.450206 0
M  V30 1278 C 115.276 5.11542 1.55655 0
M  V30 1279 C 116.576 5.18505 -0.628455 0
M  V30 1280 H 118.27 2.92595 -0.634716 0
M  V30 1281 H 115.816 1.40696 -0.306681 0
M  V30 1282 H 117.769 3.89855 1.59971 0
M  V30 1283 H 116.493 2.68372 1.86129 0
M  V30 1284 H 115.152 3.66586 -0.0315886 0
M  V30 1285 H 114.8 4.46765 2.31107 0
M  V30 1286 H 114.5 5.76647 1.12925 0
M  V30 1287 H 116.024 5.74748 2.06148 0
M  V30 1288 H 117.438 5.72916 -0.209877 0
M  V30 1289 H 115.835 5.92085 -0.977489 0
M  V30 1290 H 116.905 4.60948 -1.50514 0
M  V30 1291 N 118.248 0.346503 1.53744 0
M  V30 1292 C 119.181 -0.552023 2.21423 0
M  V30 1293 C 120.159 -1.09798 1.19929 0
M  V30 1294 O 121.343 -1.1577 1.4876 0
M  V30 1295 C 118.47 -1.75972 2.89398 0
M  V30 1296 C 117.516 -1.34295 4.04805 0
M  V30 1297 S 118.349 -0.360263 5.34287 0
M  V30 1298 C 119.505 -1.57473 6.05767 0
M  V30 1299 H 119.738 0.0228119 2.97291 0
M  V30 1300 H 117.271 0.130579 1.53847 0
M  V30 1301 H 119.229 -2.45256 3.2918 0
M  V30 1302 H 117.89 -2.30578 2.1329 0
M  V30 1303 H 117.083 -2.24349 4.51313 0
M  V30 1304 H 116.685 -0.729555 3.66815 0
M  V30 1305 H 118.977 -2.50875 6.29339 0
M  V30 1306 H 119.92 -1.15138 6.98676 0
M  V30 1307 H 120.328 -1.77212 5.35963 0
M  V30 1308 N 119.726 -1.57421 0.075193 0
M  V30 1309 C 120.636 -2.1642 -0.905511 0
M  V30 1310 C 121.652 -1.12828 -1.32461 0
M  V30 1311 O 122.828 -1.45109 -1.39661 0
M  V30 1312 C 119.893 -2.71693 -2.15369 0
M  V30 1313 C 118.954 -3.90171 -1.79068 0
M  V30 1314 C 118.187 -4.42798 -2.97936 0
M  V30 1315 O 118.41 -3.94416 -4.12058 0
M  V30 1316 O 117.344 -5.34085 -2.77555 0
M  V30 1317 H 121.17 -3.00588 -0.433626 0
M  V30 1318 H 118.755 -1.48664 -0.148067 0
M  V30 1319 H 120.637 -3.07104 -2.88557 0
M  V30 1320 H 119.312 -1.90582 -2.61649 0
M  V30 1321 H 118.219 -3.59606 -1.03122 0
M  V30 1322 H 119.552 -4.72584 -1.37569 0
M  V30 1323 N 121.204 0.198386 -1.56346 0
M  V30 1324 C 122.434 0.934215 -1.84271 0
M  V30 1325 C 122.842 1.77496 -0.655125 0
M  V30 1326 O 122.185 1.7961 0.385488 0
M  V30 1327 C 122.247 1.88278 -3.06254 0
M  V30 1328 C 121.911 1.22431 -4.40295 0
M  V30 1329 C 122.908 0.602839 -5.16393 0
M  V30 1330 C 120.593 1.22915 -4.87029 0
M  V30 1331 C 122.587 -0.0050083 -6.374 0
M  V30 1332 C 120.274 0.617465 -6.07973 0
M  V30 1333 C 121.272 0.00146341 -6.83 0
M  V30 1334 O 120.96 -0.600642 -8.01653 0
M  V30 1335 H 120.692 0.278245 -0.616081 0
M  V30 1336 H 123.246 0.211626 -2.04307 0
M  V30 1337 H 121.476 2.64498 -2.82095 0
M  V30 1338 H 123.165 2.48612 -3.20853 0
M  V30 1339 H 123.931 0.591265 -4.81382 0
M  V30 1340 H 119.81 1.69801 -4.28589 0
M  V30 1341 H 123.354 -0.48643 -6.95902 0
M  V30 1342 H 119.251 0.62653 -6.42452 0
M  V30 1343 H 120.019 -0.497225 -8.16988 0
M  V30 1344 N 122.682 1.50554 0.465978 0
M  V30 1345 C 123.612 1.72722 1.57128 0
M  V30 1346 C 124.593 0.576294 1.6004 0
M  V30 1347 O 125.778 0.81598 1.76225 0
M  V30 1348 C 122.908 1.82605 2.95419 0
M  V30 1349 C 121.862 2.97835 3.07373 0
M  V30 1350 C 121.188 2.92867 4.47363 0
M  V30 1351 C 122.488 4.38265 2.84114 0
M  V30 1352 H 124.182 2.65267 1.38829 0
M  V30 1353 H 121.728 1.2765 0.666441 0
M  V30 1354 H 123.681 1.96698 3.72677 0
M  V30 1355 H 122.405 0.866858 3.14886 0
M  V30 1356 H 121.064 2.83401 2.3255 0
M  V30 1357 H 120.712 1.94783 4.63755 0
M  V30 1358 H 120.412 3.70227 4.56296 0
M  V30 1359 H 121.936 3.09015 5.26633 0
M  V30 1360 H 123.35 4.53198 3.51118 0
M  V30 1361 H 121.747 5.17115 3.04487 0
M  V30 1362 H 122.817 4.50281 1.7993 0
M  V30 1363 N 124.16 -0.719506 1.40217 0
M  V30 1364 C 125.409 -1.47486 1.37589 0
M  V30 1365 C 125.722 -1.9559 -0.0201568 0
M  V30 1366 O 126.928 -2.70973 -0.169049 0
M  V30 1367 C 125.384 -2.66575 2.41796 0
M  V30 1368 C 124.992 -2.25358 3.87192 0
M  V30 1369 C 126.736 -3.4433 2.48269 0
M  V30 1370 C 124.643 -3.41262 4.83005 0
M  V30 1371 H 123.573 -0.553901 0.511576 0
M  V30 1372 H 126.224 -0.783427 1.65936 0
M  V30 1373 H 124.606 -3.3787 2.06543 0
M  V30 1374 H 125.78 -1.61509 4.31569 0
M  V30 1375 H 124.095 -1.60657 3.84159 0
M  V30 1376 H 126.692 -4.30569 3.17041 0
M  V30 1377 H 127.035 -3.87872 1.51198 0
M  V30 1378 H 127.568 -2.80076 2.82493 0
M  V30 1379 H 124.307 -3.02755 5.81394 0
M  V30 1380 H 123.827 -4.0404 4.43297 0
M  V30 1381 H 125.506 -4.07383 5.02641 0
M  V30 1382 N 125.638 -1.25649 -0.95132 0
M  V30 1383 C 126.585 -1.06323 -2.04851 0
M  V30 1384 C 127.555 0.0286491 -1.66075 0
M  V30 1385 O 128.74 -0.12917 -1.90362 0
M  V30 1386 C 125.88 -0.691529 -3.381 0
M  V30 1387 C 124.993 -1.85861 -3.89974 0
M  V30 1388 C 124.128 -1.43096 -5.11563 0
M  V30 1389 C 123.167 -2.56696 -5.55674 0
M  V30 1390 N 122.304 -2.14684 -6.68472 0
M  V30 1391 H 127.144 -2.00222 -2.20715 0
M  V30 1392 H 124.681 -0.997027 -1.08156 0
M  V30 1393 H 126.639 -0.456963 -4.1469 0
M  V30 1394 H 125.269 0.210474 -3.22113 0
M  V30 1395 H 124.321 -2.20639 -3.09875 0
M  V30 1396 H 125.633 -2.71161 -4.18657 0
M  V30 1397 H 124.787 -1.15624 -5.9558 0
M  V30 1398 H 123.526 -0.548722 -4.84603 0
M  V30 1399 H 122.531 -2.84909 -4.7022 0
M  V30 1400 H 123.756 -3.45503 -5.8464 0
M  V30 1401 H 121.702 -1.28881 -6.43215 0
M  V30 1402 H 121.619 -2.9353 -6.96689 0
M  V30 1403 H 122.887 -1.90397 -7.5589 0
M  V30 1404 N 127.117 1.15442 -1.07289 0
M  V30 1405 C 128.345 1.90096 -0.81676 0
M  V30 1406 C 128.76 1.7798 0.629966 0
M  V30 1407 O 128.117 1.1313 1.43206 0
M  V30 1408 C 128.168 3.40466 -1.21512 0
M  V30 1409 O 127.889 3.52232 -2.60508 0
M  V30 1410 C 129.39 4.32145 -0.988198 0
M  V30 1411 H 126.61 0.602495 -0.295366 0
M  V30 1412 H 129.154 1.4627 -1.42918 0
M  V30 1413 H 127.309 3.81958 -0.647039 0
M  V30 1414 H 127.723 4.45549 -2.76742 0
M  V30 1415 H 129.197 5.36072 -1.31645 0
M  V30 1416 H 129.674 4.39135 0.0755063 0
M  V30 1417 H 130.28 3.96395 -1.54115 0
M  V30 1418 N 128.595 0.856903 1.32268 0
M  V30 1419 C 129.843 0.460474 1.96784 0
M  V30 1420 C 130.164 -0.987701 1.68135 0
M  V30 1421 O 129.434 -1.69058 0.989765 0
M  V30 1422 H 128.014 0.167289 0.728027 0
M  V30 1423 H 130.676 1.09383 1.61312 0
M  V30 1424 H 129.772 0.60739 3.06133 0
M  V30 1425 N 130.073 -1.45103 0.615059 0
M  V30 1426 C 131.298 -2.07064 0.117988 0
M  V30 1427 C 131.723 -1.4554 -1.19163 0
M  V30 1428 O 131.081 -0.550855 -1.72729 0
M  V30 1429 C 131.129 -3.606 -0.000288387 0
M  V30 1430 O 130.233 -3.98847 -1.04856 0
M  V30 1431 H 129.574 -0.659467 0.0774581 0
M  V30 1432 H 132.104 -1.86236 0.847186 0
M  V30 1433 H 132.114 -4.07529 -0.196091 0
M  V30 1434 H 130.789 -4.04765 0.955932 0
M  V30 1435 H 129.366 -3.63577 -0.828619 0
M  V30 1436 N 131.551 -0.354651 -1.53558 0
M  V30 1437 C 132.461 0.50515 -2.29097 0
M  V30 1438 C 133.477 1.10223 -1.34636 0
M  V30 1439 O 134.653 1.11553 -1.67684 0
M  V30 1440 C 131.718 1.63479 -3.05738 0
M  V30 1441 C 130.779 1.06636 -4.15845 0
M  V30 1442 C 130.012 2.14217 -4.88822 0
M  V30 1443 O 130.235 3.35137 -4.61562 0
M  V30 1444 O 129.169 1.77887 -5.75013 0
M  V30 1445 H 132.995 -0.109237 -3.03503 0
M  V30 1446 H 130.58 -0.119357 -1.48922 0
M  V30 1447 H 132.462 2.2918 -3.5363 0
M  V30 1448 H 131.137 2.23478 -2.34178 0
M  V30 1449 H 130.044 0.373565 -3.7223 0
M  V30 1450 H 131.377 0.511081 -4.89539 0
M  V30 1451 N 133.029 1.57378 -0.0835403 0
M  V30 1452 C 134.445 1.57246 0.273109 0
M  V30 1453 C 134.645 1.09385 1.69225 0
M  V30 1454 O 133.701 0.765051 2.40631 0
M  V30 1455 C 135.014 3.00614 0.0720628 0
M  V30 1456 C 136.562 3.12684 0.1407 0
M  V30 1457 C 137.037 4.57989 -0.0322094 0
M  V30 1458 N 138.528 4.63194 0.0230085 0
M  V30 1459 C 139.263 5.73335 -0.0861941 0
M  V30 1460 N 138.759 6.9235 -0.24958 0
M  V30 1461 N 140.552 5.62093 -0.0282886 0
M  V30 1462 H 132.703 1.86801 -1.0109 0
M  V30 1463 H 134.966 0.861687 -0.395222 0
M  V30 1464 H 134.672 3.39786 -0.907662 0
M  V30 1465 H 134.546 3.68193 0.81936 0
M  V30 1466 H 136.933 2.73391 1.11092 0
M  V30 1467 H 137.014 2.47719 -0.637896 0
M  V30 1468 H 136.658 4.97973 -0.999247 0
M  V30 1469 H 136.588 5.21 0.765937 0
M  V30 1470 H 139.079 3.77613 0.14722 0
M  V30 1471 H 139.392 7.72117 -0.324733 0
M  V30 1472 H 137.737 6.94415 -0.285097 0
M  V30 1473 H 140.928 4.67997 0.0981408 0
M  V30 1474 H 141.101 6.47895 -0.116845 0
M  V30 1475 N 134.507 -0.190092 1.56449 0
M  V30 1476 C 135.753 -0.911052 1.81184 0
M  V30 1477 C 136.086 -1.82699 0.658396 0
M  V30 1478 O 135.361 -1.91491 -0.340775 0
M  V30 1479 C 135.644 -1.72297 3.16205 0
M  V30 1480 C 135.497 -0.831419 4.42049 0
M  V30 1481 C 136.816 -2.69454 3.47969 0
M  V30 1482 H 133.935 -0.32977 0.659106 0
M  V30 1483 H 136.577 -0.178169 1.89163 0
M  V30 1484 H 134.727 -2.34778 3.09534 0
M  V30 1485 H 136.399 -0.220929 4.60771 0
M  V30 1486 H 134.642 -0.138406 4.33579 0
M  V30 1487 H 135.313 -1.43461 5.33032 0
M  V30 1488 H 137.789 -2.17104 3.54972 0
M  V30 1489 H 136.665 -3.23342 4.43555 0
M  V30 1490 H 136.926 -3.48744 2.71717 0
M  V30 1491 N 135.985 -1.50799 -0.457987 0
M  V30 1492 C 137.21 -1.66496 -1.23668 0
M  V30 1493 C 137.635 -0.353288 -1.84752 0
M  V30 1494 O 136.993 0.684346 -1.67888 0
M  V30 1495 C 137.041 -2.76763 -2.3116 0
M  V30 1496 O 136.145 -2.38928 -3.36136 0
M  V30 1497 H 135.486 -0.555828 -0.363252 0
M  V30 1498 H 138.016 -1.9725 -0.543474 0
M  V30 1499 H 138.026 -3.00232 -2.76269 0
M  V30 1500 H 136.701 -3.71954 -1.86073 0
M  V30 1501 H 135.278 -2.25953 -2.96647 0
M  V30 1502 N 137.463 0.71206 -1.40597 0
M  V30 1503 C 138.395 1.83704 -1.37061 0
M  V30 1504 C 139.408 1.60453 -0.275426 0
M  V30 1505 O 140.597 1.70262 -0.53602 0
M  V30 1506 C 137.697 3.20172 -1.11099 0
M  V30 1507 C 136.87 3.7059 -2.3234 0
M  V30 1508 C 135.929 4.85681 -2.02485 0
M  V30 1509 O 134.955 4.9815 -2.75382 0
M  V30 1510 N 136.157 5.71735 -1.00497 0
M  V30 1511 H 138.922 1.87235 -2.34016 0
M  V30 1512 H 136.483 0.893739 -1.34996 0
M  V30 1513 H 138.475 3.94768 -0.891064 0
M  V30 1514 H 137.045 3.11767 -0.227989 0
M  V30 1515 H 136.265 2.87085 -2.7014 0
M  V30 1516 H 137.553 4.01011 -3.13157 0
M  V30 1517 H 136.951 5.64275 -0.401298 0
M  V30 1518 H 135.508 6.463 -0.844942 0
M  V30 1519 N 138.941 1.26152 0.944643 0
M  V30 1520 C 139.873 1.03199 2.04652 0
M  V30 1521 C 140.886 -0.00642356 1.62799 0
M  V30 1522 O 142.075 0.233263 1.76969 0
M  V30 1523 C 139.175 0.540111 3.34568 0
M  V30 1524 C 138.348 1.64697 4.05208 0
M  V30 1525 C 137.407 1.15374 5.13396 0
M  V30 1526 O 136.433 1.85013 5.38293 0
M  V30 1527 N 137.635 0.00031529 5.805 0
M  V30 1528 H 140.4 1.9808 2.2491 0
M  V30 1529 H 137.961 1.17491 1.11389 0
M  V30 1530 H 139.953 0.194401 4.04233 0
M  V30 1531 H 138.523 -0.315021 3.11009 0
M  V30 1532 H 137.743 2.16379 3.29506 0
M  V30 1533 H 139.031 2.3903 4.49157 0
M  V30 1534 H 138.429 -0.581336 5.62705 0
M  V30 1535 H 136.986 -0.286346 6.51171 0
M  V30 1536 N 140.419 -1.14872 1.07899 0
M  V30 1537 C 141.659 -1.8745 0.814965 0
M  V30 1538 C 142.023 -1.80758 -0.64733 0
M  V30 1539 O 143.224 -2.48422 -1.02664 0
M  V30 1540 C 141.495 -3.32286 1.31607 0
M  V30 1541 S 143.054 -4.22537 1.18357 0
M  V30 1542 H 139.872 -0.646833 0.295174 0
M  V30 1543 H 142.474 -1.38555 1.37923 0
M  V30 1544 H 141.178 -3.34703 2.37491 0
M  V30 1545 H 140.709 -3.86238 0.747261 0
M  V30 1546 H 142.724 -4.96044 0.124586 0
M  V30 1547 N 141.898 -0.863906 -1.31812 0
M  V30 1548 C 142.845 -0.313303 -2.28664 0
M  V30 1549 C 143.815 0.584868 -1.55462 0
M  V30 1550 O 145 0.517805 -1.83639 0
M  V30 1551 C 142.14 0.48441 -3.41683 0
M  V30 1552 C 141.253 -0.440594 -4.29747 0
M  V30 1553 C 140.388 0.370652 -5.29905 0
M  V30 1554 C 139.427 -0.551164 -6.09613 0
M  V30 1555 N 138.564 0.223462 -7.01744 0
M  V30 1556 H 143.404 -1.14444 -2.75148 0
M  V30 1557 H 140.941 -0.575769 -1.35364 0
M  V30 1558 H 142.899 0.962627 -4.05943 0
M  V30 1559 H 141.529 1.28029 -2.96325 0
M  V30 1560 H 140.581 -1.03724 -3.65986 0
M  V30 1561 H 141.893 -1.14767 -4.85417 0
M  V30 1562 H 141.047 0.911638 -5.99812 0
M  V30 1563 H 139.786 1.11105 -4.74876 0
M  V30 1564 H 138.791 -1.10396 -5.38603 0
M  V30 1565 H 140.016 -1.29032 -6.66729 0
M  V30 1566 H 137.962 0.946787 -6.49132 0
M  V30 1567 H 137.879 -0.424399 -7.54808 0
M  V30 1568 H 139.147 0.745876 -7.75923 0
M  V30 1569 N 143.376 1.44774 -0.622745 0
M  V30 1570 C 144.286 2.34433 0.0886031 0
M  V30 1571 C 145.302 1.52131 0.844529 0
M  V30 1572 O 146.478 1.84886 0.798691 0
M  V30 1573 C 143.543 3.29986 1.0635 0
M  V30 1574 C 142.604 4.28195 0.307873 0
M  V30 1575 C 141.837 5.19183 1.23633 0
M  V30 1576 O 142.06 5.13918 2.47476 0
M  V30 1577 O 140.994 5.97515 0.725189 0
M  V30 1578 H 144.82 2.96693 -0.648599 0
M  V30 1579 H 142.405 1.44408 -0.382957 0
M  V30 1580 H 144.287 3.88825 1.6246 0
M  V30 1581 H 142.962 2.70269 1.78146 0
M  V30 1582 H 141.869 3.72927 -0.296064 0
M  V30 1583 H 143.202 4.90808 -0.3699 0
M  V30 1584 N 144.854 0.36279 1.53368 0
M  V30 1585 C 145.802 -0.500155 2.27159 0
M  V30 1586 C 146.796 -1.08575 1.3003 0
M  V30 1587 O 148.002 -1.02927 1.47668 0
M  V30 1588 H 144.377 -0.180009 0.730138 0
M  V30 1589 H 146.348 0.14401 2.98052 0
M  V30 1590 C 145.097 -1.62937 3.07159 0
M  V30 1591 H 144.42 -1.18806 3.8174 0
M  V30 1592 H 145.86 -2.20795 3.61975 0
M  V30 1593 C 144.319 -2.57007 2.17829 0
M  V30 1594 O 144.849 -3.59752 1.78721 0
M  V30 1595 N 143.055 -2.26131 1.82518 0
M  V30 1596 H 142.602 -1.42616 2.14519 0
M  V30 1597 H 142.56 -2.89327 1.23034 0
M  V30 1598 N 146.332 -1.57332 0.0918853 0
M  V30 1599 C 147.265 -2.09499 -0.904735 0
M  V30 1600 C 148.243 -1.00479 -1.27839 0
M  V30 1601 O 149.427 -1.27954 -1.38419 0
M  V30 1602 C 146.554 -2.56931 -2.2069 0
M  V30 1603 C 145.6 -3.77579 -1.98334 0
M  V30 1604 S 146.433 -5.21317 -1.22428 0
M  V30 1605 C 147.589 -5.72097 -2.53882 0
M  V30 1606 H 147.822 -2.93705 -0.460922 0
M  V30 1607 H 145.355 -1.53923 -0.121332 0
M  V30 1608 H 147.313 -2.84917 -2.95521 0
M  V30 1609 H 145.974 -1.72956 -2.62192 0
M  V30 1610 H 145.167 -4.08824 -2.94752 0
M  V30 1611 H 144.769 -3.5007 -1.31633 0
M  V30 1612 H 147.061 -5.80168 -3.49874 0
M  V30 1613 H 148.004 -6.70654 -2.27219 0
M  V30 1614 H 148.412 -5.00012 -2.62007 0
M  V30 1615 N 147.81 0.181792 -1.56548 0
M  V30 1616 C 149.04 0.914618 -1.85252 0
M  V30 1617 C 149.448 1.76791 -0.673914 0
M  V30 1618 O 148.791 1.80009 0.366416 0
M  V30 1619 C 148.853 1.85019 -3.08234 0
M  V30 1620 C 148.517 1.17754 -4.41569 0
M  V30 1621 C 149.514 0.548035 -5.17003 0
M  V30 1622 C 147.199 1.17742 -4.88305 0
M  V30 1623 C 149.193 -0.0726128 -6.37359 0
M  V30 1624 C 146.88 0.552946 -6.08593 0
M  V30 1625 C 147.878 -0.070978 -6.82963 0
M  V30 1626 O 147.566 -0.685635 -8.00971 0
M  V30 1627 H 147.298 0.271695 -0.618998 0
M  V30 1628 H 149.852 0.189944 -2.0452 0
M  V30 1629 H 148.082 2.61491 -2.84885 0
M  V30 1630 H 149.771 2.45195 -3.23472 0
M  V30 1631 H 150.537 0.540174 -4.81982 0
M  V30 1632 H 146.416 1.65246 -4.30366 0
M  V30 1633 H 149.96 -0.560213 -6.95347 0
M  V30 1634 H 145.857 0.558354 -6.43081 0
M  V30 1635 H 146.625 -0.58385 -8.16415 0
M  V30 1636 N 149.288 1.51039 0.449983 0
M  V30 1637 C 150.251 1.70863 1.5277 0
M  V30 1638 C 151.251 0.578846 1.5002 0
M  V30 1639 O 152.441 0.846213 1.52266 0
M  V30 1640 C 149.573 1.75341 2.9235 0
M  V30 1641 H 150.766 2.67034 1.36502 0
M  V30 1642 H 148.319 1.40838 0.677812 0
M  V30 1643 H 149.054 0.809383 3.14037 0
M  V30 1644 H 148.839 2.57436 2.95752 0
M  V30 1645 H 150.329 1.92559 3.70555 0
M  V30 1646 N 150.766 -0.704594 1.40972 0
M  V30 1647 C 152.012 -1.46675 1.40051 0
M  V30 1648 C 152.345 -1.94199 0.00641102 0
M  V30 1649 O 151.62 -1.68916 -0.964235 0
M  V30 1650 C 151.903 -2.68505 2.39952 0
M  V30 1651 C 151.756 -2.26805 3.88432 0
M  V30 1652 C 153.075 -3.70686 2.37233 0
M  V30 1653 H 150.194 -0.532015 0.510028 0
M  V30 1654 H 152.836 -0.803255 1.72185 0
M  V30 1655 H 150.986 -3.25114 2.1268 0
M  V30 1656 H 152.658 -1.75592 4.26574 0
M  V30 1657 H 150.901 -1.58685 4.03734 0
M  V30 1658 H 151.572 -3.14181 4.53866 0
M  V30 1659 H 154.048 -3.23731 2.61415 0
M  V30 1660 H 152.924 -4.53553 3.09162 0
M  V30 1661 H 153.185 -4.19754 1.38777 0
M  V30 1662 N 152.244 -1.26651 -0.937939 0
M  V30 1663 C 153.176 -1.04283 -2.04102 0
M  V30 1664 C 154.189 -0.00221014 -1.628 0
M  V30 1665 O 155.378 -0.242645 -1.76843 0
M  V30 1666 C 152.478 -0.557846 -3.34277 0
M  V30 1667 C 151.651 -1.66843 -4.04329 0
M  V30 1668 C 150.71 -1.18095 -5.12777 0
M  V30 1669 O 149.736 -1.87865 -5.37304 0
M  V30 1670 N 150.938 -0.0311006 -5.80492 0
M  V30 1671 H 153.703 -1.9927 -2.23856 0
M  V30 1672 H 151.264 -1.1808 -1.10764 0
M  V30 1673 H 153.256 -0.215836 -4.04124 0
M  V30 1674 H 151.826 0.298523 -3.11171 0
M  V30 1675 H 151.046 -2.18123 -3.28353 0
M  V30 1676 H 152.334 -2.41408 -4.47883 0
M  V30 1677 H 151.732 0.551486 -5.63005 0
M  V30 1678 H 150.289 0.251809 -6.51313 0
M  V30 1679 N 153.722 1.14298 -1.08507 0
M  V30 1680 C 154.95 1.89219 -0.836876 0
M  V30 1681 C 155.365 1.78638 0.611054 0
M  V30 1682 O 154.722 1.14643 1.41998 0
M  V30 1683 C 154.773 3.39158 -1.25116 0
M  V30 1684 O 154.494 3.49449 -2.64229 0
M  V30 1685 C 155.995 4.31073 -1.03398 0
M  V30 1686 H 153.215 0.599328 -0.301739 0
M  V30 1687 H 155.759 1.44746 -1.44461 0
M  V30 1688 H 153.914 3.81251 -0.687514 0
M  V30 1689 H 154.328 4.42589 -2.81452 0
M  V30 1690 H 155.802 5.34646 -1.37323 0
M  V30 1691 H 156.279 4.3919 0.0289259 0
M  V30 1692 H 156.885 3.94738 -1.58311 0
M  V30 1693 N 155.201 0.870884 1.31352 0
M  V30 1694 C 156.131 0.343096 2.30966 0
M  V30 1695 C 157.112 -0.566507 1.60389 0
M  V30 1696 O 158.297 -0.483336 1.88089 0
M  V30 1697 C 155.427 -0.455487 3.443 0
M  V30 1698 C 154.381 0.361103 4.26474 0
M  V30 1699 C 153.707 -0.563221 5.31725 0
M  V30 1700 C 155.007 1.59566 4.97329 0
M  V30 1701 H 156.701 1.17548 2.75359 0
M  V30 1702 H 154.247 0.566686 1.32381 0
M  V30 1703 H 156.2 -0.83525 4.13039 0
M  V30 1704 H 154.924 -1.32139 2.98675 0
M  V30 1705 H 153.583 0.722825 3.59403 0
M  V30 1706 H 153.231 -1.42643 4.82351 0
M  V30 1707 H 152.931 -0.0207409 5.87596 0
M  V30 1708 H 154.455 -0.939808 6.03324 0
M  V30 1709 H 155.869 1.28728 5.58661 0
M  V30 1710 H 154.266 2.07728 5.63 0
M  V30 1711 H 155.336 2.34798 4.24262 0
M  V30 1712 N 156.679 -1.44442 0.630414 0
M  V30 1713 C 157.626 -2.30678 -0.0749355 0
M  V30 1714 C 158.596 -1.4344 -0.837502 0
M  V30 1715 O 159.781 -1.72343 -0.818684 0
M  V30 1716 C 156.921 -3.28706 -1.05103 0
M  V30 1717 C 156.034 -4.31046 -0.286954 0
M  V30 1718 C 155.169 -5.16167 -1.2548 0
M  V30 1719 C 154.208 -6.10216 -0.479843 0
M  V30 1720 N 153.345 -6.88039 -1.39811 0
M  V30 1721 H 158.185 -2.90454 0.666386 0
M  V30 1722 H 155.722 -1.43107 0.340404 0
M  V30 1723 H 157.68 -3.84027 -1.63031 0
M  V30 1724 H 156.31 -2.70632 -1.75949 0
M  V30 1725 H 155.362 -3.78203 0.408243 0
M  V30 1726 H 156.674 -4.97794 0.316657 0
M  V30 1727 H 155.828 -5.76002 -1.90544 0
M  V30 1728 H 154.567 -4.49491 -1.89233 0
M  V30 1729 H 153.572 -5.49491 0.184295 0
M  V30 1730 H 154.797 -6.78928 0.152965 0
M  V30 1731 H 152.743 -6.24032 -2.02287 0
M  V30 1732 H 152.66 -7.51223 -0.848508 0
M  V30 1733 H 153.928 -7.52397 -2.03762 0
M  V30 1734 N 158.157 -0.370918 -1.53173 0
M  V30 1735 C 159.434 0.273754 -1.93675 0
M  V30 1736 C 159.814 1.65938 -1.3049 0
M  V30 1737 O 159.162 2.23698 -0.465999 0
M  V30 1738 C 159.372 0.318602 -3.47543 0
M  V30 1739 C 160.72 0.556392 -4.20939 0
M  V30 1740 O 161.744 0.399587 -3.53952 0
M  V30 1741 O 160.603 0.862133 -5.39657 0
M  V30 1742 H 157.697 0.165448 -0.810281 0
M  V30 1743 H 160.243 -0.42409 -1.64315 0
M  V30 1744 H 159.015 -0.652687 -3.85818 0
M  V30 1745 H 158.638 1.06212 -3.83151 0
M  V30 1746 N 159.635 1.57281 -0.100228 0
M  V30 1747 C 160.882 1.94537 0.562268 0
M  V30 1748 C 161.21 0.982315 1.67871 0
M  V30 1749 O 160.465 0.00280936 1.957 0
M  V30 1750 C 160.764 3.38305 1.15259 0
M  V30 1751 C 160.43 4.50618 0.159409 0
M  V30 1752 C 159.092 4.81066 -0.113741 0
M  V30 1753 C 161.444 5.18615 -0.518461 0
M  V30 1754 C 158.772 5.76835 -1.07137 0
M  V30 1755 C 161.124 6.15412 -1.46459 0
M  V30 1756 C 159.788 6.44262 -1.74592 0
M  V30 1757 H 159.058 0.711863 0.205748 0
M  V30 1758 H 161.705 1.90679 -0.17715 0
M  V30 1759 H 160.01 3.38766 1.96836 0
M  V30 1760 H 161.707 3.64435 1.67297 0
M  V30 1761 H 158.297 4.2689 0.382491 0
M  V30 1762 H 162.481 4.95264 -0.320581 0
M  V30 1763 H 157.737 5.975 -1.29628 0
M  V30 1764 H 161.911 6.67194 -1.99564 0
M  V30 1765 H 159.538 7.1828 -2.48953 0
M  V30 1766 N 161.113 -0.173488 1.56642 0
M  V30 1767 C 162.045 -1.23935 1.92802 0
M  V30 1768 C 163.058 -1.40589 0.820889 0
M  V30 1769 O 164.247 -1.40631 1.09933 0
M  V30 1770 C 161.347 -2.60837 2.16373 0
M  V30 1771 C 160.52 -2.6551 3.47596 0
M  V30 1772 C 159.579 -3.8376 3.60021 0
M  V30 1773 O 158.605 -3.69859 4.32658 0
M  V30 1774 N 159.807 -5.00127 2.94709 0
M  V30 1775 H 162.572 -0.932236 2.84832 0
M  V30 1776 H 160.133 -0.363268 1.57772 0
M  V30 1777 H 162.125 -3.38407 2.21952 0
M  V30 1778 H 160.695 -2.83948 1.30738 0
M  V30 1779 H 159.915 -1.74052 3.53694 0
M  V30 1780 H 161.203 -2.65641 4.33949 0
M  V30 1781 H 160.601 -5.14322 2.35563 0
M  V30 1782 H 159.158 -5.75567 3.05886 0
M  V30 1783 N 162.591 -1.51276 -0.441967 0
M  V30 1784 C 163.821 -1.67273 -1.21257 0
M  V30 1785 C 164.229 -0.367624 -1.85594 0
M  V30 1786 O 163.572 0.663349 -1.71305 0
M  V30 1787 C 163.634 -2.72807 -2.34129 0
M  V30 1788 C 163.298 -4.1554 -1.90198 0
M  V30 1789 C 164.295 -5.00471 -1.40801 0
M  V30 1790 C 161.98 -4.61616 -1.9803 0
M  V30 1791 C 163.974 -6.29536 -0.998174 0
M  V30 1792 C 161.661 -5.90679 -1.56658 0
M  V30 1793 C 162.659 -6.74466 -1.07633 0
M  V30 1794 O 162.347 -8.01116 -0.668459 0
M  V30 1795 H 162.079 -0.564614 -0.371734 0
M  V30 1796 H 164.633 -1.9843 -0.530521 0
M  V30 1797 H 162.863 -2.36954 -3.05597 0
M  V30 1798 H 164.552 -2.77729 -2.96009 0
M  V30 1799 H 165.318 -4.66079 -1.34148 0
M  V30 1800 H 161.197 -3.96526 -2.35135 0
M  V30 1801 H 164.741 -6.94885 -0.61482 0
M  V30 1802 H 160.638 -6.24586 -1.62979 0
M  V30 1803 H 161.406 -8.14633 -0.794722 0
M  V30 1804 N 164.069 0.697108 -1.41344 0
M  V30 1805 C 165.315 1.4593 -1.40827 0
M  V30 1806 C 165.648 1.94193 -0.0167098 0
M  V30 1807 O 164.923 1.69425 0.955263 0
M  V30 1808 C 165.206 2.67229 -2.41373 0
M  V30 1809 C 165.059 2.24741 -3.8963 0
M  V30 1810 C 166.378 3.69423 -2.39196 0
M  V30 1811 H 163.497 0.529303 -0.512842 0
M  V30 1812 H 166.139 0.794112 -1.72609 0
M  V30 1813 H 164.289 3.23982 -2.14401 0
M  V30 1814 H 165.961 1.73327 -4.27499 0
M  V30 1815 H 164.204 1.56542 -4.0457 0
M  V30 1816 H 164.875 3.1177 -4.55525 0
M  V30 1817 H 167.351 3.2234 -2.63128 0
M  V30 1818 H 166.227 4.51907 -3.11563 0
M  V30 1819 H 166.488 4.19012 -1.41001 0
M  V30 1820 N 165.547 1.27147 0.931209 0
M  V30 1821 C 166.824 1.0401 1.65654 0
M  V30 1822 C 167.204 -0.426297 2.06751 0
M  V30 1823 O 166.552 -1.40879 1.79904 0
M  V30 1824 C 166.762 1.99834 2.86125 0
M  V30 1825 C 168.11 2.29007 3.57549 0
M  V30 1826 O 169.134 1.97779 2.96246 0
M  V30 1827 O 167.993 2.82222 4.67989 0
M  V30 1828 H 165.087 0.396239 0.725895 0
M  V30 1829 H 167.633 1.38397 0.982056 0
M  V30 1830 H 166.405 2.98744 2.52721 0
M  V30 1831 H 166.028 1.65987 3.61295 0
M  V30 1832 N 167.025 -1.13721 1.09112 0
M  V30 1833 C 168.441 -1.36914 0.820174 0
M  V30 1834 C 168.641 -1.93356 -0.567079 0
M  V30 1835 O 167.697 -2.15093 -1.32255 0
M  V30 1836 C 169.01 -2.3235 1.90877 0
M  V30 1837 C 170.558 -2.45973 1.93562 0
M  V30 1838 C 171.033 -3.44714 3.01556 0
M  V30 1839 N 172.524 -3.52263 3.00775 0
M  V30 1840 C 173.259 -4.28536 3.80978 0
M  V30 1841 N 172.755 -5.07991 4.71081 0
M  V30 1842 N 174.548 -4.23804 3.69251 0
M  V30 1843 H 166.699 -0.754348 1.98553 0
M  V30 1844 H 168.962 -0.3944 0.862063 0
M  V30 1845 H 168.668 -1.98027 2.90651 0
M  V30 1846 H 168.542 -3.32332 1.78424 0
M  V30 1847 H 170.929 -2.79584 0.944286 0
M  V30 1848 H 171.01 -1.45926 2.10093 0
M  V30 1849 H 170.654 -3.11835 4.00901 0
M  V30 1850 H 170.584 -4.44558 2.82269 0
M  V30 1851 H 173.075 -2.95567 2.35475 0
M  V30 1852 H 173.388 -5.63487 5.28869 0
M  V30 1853 H 171.733 -5.07235 4.75119 0
M  V30 1854 H 174.924 -3.60806 2.98222 0
M  V30 1855 H 175.097 -4.82995 4.31995 0
M  V30 1856 N 168.503 -0.877838 -1.30888 0
M  V30 1857 C 169.78 -0.413052 -1.91189 0
M  V30 1858 C 170.16 1.1056 -1.79832 0
M  V30 1859 O 169.508 1.93771 -1.21099 0
M  V30 1860 C 169.718 -0.903191 -3.3711 0
M  V30 1861 C 171.066 -0.93395 -4.14201 0
M  V30 1862 O 172.09 -0.849373 -3.45925 0
M  V30 1863 O 170.949 -1.05772 -5.36167 0
M  V30 1864 H 168.043 -0.125035 -0.817493 0
M  V30 1865 H 170.589 -0.966269 -1.39504 0
M  V30 1866 H 169.361 -1.94692 -3.39427 0
M  V30 1867 H 168.984 -0.328732 -3.96239 0
M  V30 1868 N 169.982 1.44106 -0.638065 0
M  V30 1869 C 171.23 2.01579 -0.145043 0
M  V30 1870 C 171.551 1.50496 1.24 0
M  V30 1871 O 170.821 0.711374 1.82527 0
M  V30 1872 H 169.401 0.745282 -0.05063 0
M  V30 1873 H 172.063 1.76516 -0.826327 0
M  V30 1874 H 171.159 3.11877 -0.118039 0
M  V30 1875 N 171.46 0.379036 1.52974 0
M  V30 1876 C 172.407 -0.461048 2.26148 0
M  V30 1877 C 173.377 -1.06637 1.27349 0
M  V30 1878 O 174.562 -1.09633 1.56157 0
M  V30 1879 C 171.702 -1.58782 3.06402 0
M  V30 1880 C 170.815 -1.00636 4.20115 0
M  V30 1881 C 169.95 -2.10334 4.87784 0
M  V30 1882 C 168.989 -1.49724 5.93506 0
M  V30 1883 N 168.126 -2.5331 6.54812 0
M  V30 1884 H 172.966 0.169429 2.97518 0
M  V30 1885 H 170.503 0.0953806 1.4679 0
M  V30 1886 H 172.461 -2.25174 3.51215 0
M  V30 1887 H 171.091 -2.18876 2.37261 0
M  V30 1888 H 170.143 -0.232332 3.7969 0
M  V30 1889 H 171.455 -0.523343 4.96047 0
M  V30 1890 H 170.609 -2.84519 5.35849 0
M  V30 1891 H 169.348 -2.61992 4.11353 0
M  V30 1892 H 168.353 -0.740598 5.44789 0
M  V30 1893 H 169.578 -0.988732 6.71864 0
M  V30 1894 H 167.524 -3.04156 5.81227 0
M  V30 1895 H 167.441 -2.09734 7.26325 0
M  V30 1896 H 168.709 -3.27155 7.07524 0
M  V30 1897 N 172.938 -1.57226 0.108567 0
M  V30 1898 C 174.215 -1.86333 -0.594939 0
M  V30 1899 C 174.595 -1.00788 -1.85486 0
M  V30 1900 O 173.943 -0.0839293 -2.28346 0
M  V30 1901 C 174.153 -3.37265 -0.897405 0
M  V30 1902 C 175.501 -4.05629 -1.25501 0
M  V30 1903 O 176.525 -3.42224 -0.987998 0
M  V30 1904 O 175.384 -5.17531 -1.75567 0
M  V30 1905 H 172.478 -0.771018 -0.2991 0
M  V30 1906 H 175.024 -1.69102 0.142283 0
M  V30 1907 H 173.796 -3.913 -0.00413806 0
M  V30 1908 H 173.419 -3.59889 -1.69014 0
M  V30 1909 N 174.416 0.165178 -1.56732 0
M  V30 1910 C 175.348 1.22911 -1.93457 0
M  V30 1911 C 176.361 1.40152 -0.828333 0
M  V30 1912 O 177.55 1.40046 -1.10677 0
M  V30 1913 C 174.65 2.59686 -2.17753 0
M  V30 1914 C 173.823 2.63663 -3.48999 0
M  V30 1915 C 172.882 3.81845 -3.62051 0
M  V30 1916 O 171.908 3.67559 -4.34613 0
M  V30 1917 N 173.11 4.98557 -2.97357 0
M  V30 1918 H 175.875 0.917118 -2.85323 0
M  V30 1919 H 173.436 0.354895 -1.57962 0
M  V30 1920 H 175.428 3.37225 -2.23743 0
M  V30 1921 H 173.998 2.83251 -1.32242 0
M  V30 1922 H 173.218 1.72173 -3.54612 0
M  V30 1923 H 174.506 2.63336 -4.35352 0
M  V30 1924 H 173.904 5.13065 -2.38287 0
M  V30 1925 H 172.461 5.73936 -3.08934 0
M  V30 1926 N 175.894 1.51508 0.433938 0
M  V30 1927 C 177.142 1.6402 1.18075 0
M  V30 1928 C 177.463 0.360328 1.91642 0
M  V30 1929 O 176.733 -0.623945 1.85698 0
M  V30 1930 H 175.313 0.6045 0.43885 0
M  V30 1931 H 177.975 1.88452 0.497178 0
M  V30 1932 H 177.071 2.46949 1.90847 0
M  V30 1933 N 177.372 -0.689602 1.41712 0
M  V30 1934 C 178.618 -1.45181 1.41599 0
M  V30 1935 C 178.951 -1.94181 0.0270081 0
M  V30 1936 O 178.226 -1.6993 -0.946265 0
M  V30 1937 C 178.509 -2.65945 2.42787 0
M  V30 1938 C 178.362 -2.22672 3.90816 0
M  V30 1939 C 179.681 -3.68149 2.41151 0
M  V30 1940 H 176.8 -0.526576 0.515642 0
M  V30 1941 H 179.442 -0.784947 1.73028 0
M  V30 1942 H 177.592 -3.2284 2.16116 0
M  V30 1943 H 179.264 -1.71058 4.28412 0
M  V30 1944 H 177.507 -1.54394 4.05395 0
M  V30 1945 H 178.178 -3.0935 4.57172 0
M  V30 1946 H 180.654 -3.2094 2.64834 0
M  V30 1947 H 179.53 -4.50248 3.13955 0
M  V30 1948 H 179.791 -4.18259 1.43221 0
M  V30 1949 N 178.85 -1.27639 -0.924453 0
M  V30 1950 C 179.798 -1.10485 -2.04685 0
M  V30 1951 C 180.792 -0.0270421 -1.69378 0
M  V30 1952 O 181.998 -0.185008 -1.79047 0
M  V30 1953 H 178.373 -0.340546 -0.670472 0
M  V30 1954 H 180.344 -2.05566 -2.16298 0
M  V30 1955 C 179.093 -0.772229 -3.39016 0
M  V30 1956 H 178.416 -1.59351 -3.66671 0
M  V30 1957 H 179.856 -0.692097 -4.18313 0
M  V30 1958 C 178.315 0.523554 -3.32807 0
M  V30 1959 O 178.845 1.55702 -3.70297 0
M  V30 1960 N 177.051 0.520363 -2.85903 0
M  V30 1961 H 176.598 -0.32107 -2.55591 0
M  V30 1962 H 176.556 1.38742 -2.82131 0
M  V30 1963 N 180.328 1.1314 -1.09713 0
M  V30 1964 C 181.574 1.84757 -0.836224 0
M  V30 1965 C 181.907 1.8347 0.636598 0
M  V30 1966 O 181.182 1.27491 1.46889 0
M  V30 1967 C 181.465 3.32782 -1.37578 0
M  V30 1968 C 181.318 3.42567 -2.91493 0
M  V30 1969 C 182.637 4.28307 -1.01198 0
M  V30 1970 H 179.756 0.67082 -0.305236 0
M  V30 1971 H 182.398 1.3278 -1.35903 0
M  V30 1972 H 180.548 3.77177 -0.931097 0
M  V30 1973 H 182.22 3.06862 -3.44432 0
M  V30 1974 H 180.463 2.83349 -3.28475 0
M  V30 1975 H 181.134 4.46674 -3.24324 0
M  V30 1976 H 183.61 3.91999 -1.39556 0
M  V30 1977 H 182.486 5.30307 -1.41653 0
M  V30 1978 H 182.747 4.42029 0.0794833 0
M  V30 1979 N 181.806 0.884767 1.30421 0
M  V30 1980 C 183.222 0.57874 1.48737 0
M  V30 1981 C 183.422 -0.883567 1.81095 0
M  V30 1982 O 182.478 -1.6648 1.89844 0
M  V30 1983 C 183.791 1.49171 2.61091 0
M  V30 1984 C 185.339 1.49532 2.74971 0
M  V30 1985 C 185.814 2.39421 3.90438 0
M  V30 1986 N 187.305 2.37383 3.97748 0
M  V30 1987 C 188.04 3.03647 4.86401 0
M  V30 1988 N 187.536 3.79136 5.79852 0
M  V30 1989 N 189.329 2.9288 4.79768 0
M  V30 1990 H 181.48 1.83075 1.0769 0
M  V30 1991 H 183.743 0.783637 0.533495 0
M  V30 1992 H 183.449 2.53291 2.44001 0
M  V30 1993 H 183.323 1.20113 3.57565 0
M  V30 1994 H 185.71 0.46163 2.91467 0
M  V30 1995 H 185.791 1.8262 1.79119 0
M  V30 1996 H 185.435 3.42874 3.74699 0
M  V30 1997 H 185.365 2.03649 4.85628 0
M  V30 1998 H 187.856 1.82525 3.30897 0
M  V30 1999 H 188.169 4.26789 6.4426 0
M  V30 2000 H 186.514 3.83243 5.79784 0
M  V30 2001 H 189.705 2.33433 4.05742 0
M  V30 2002 H 189.878 3.448 5.4865 0
M  V30 2003 N 183.284 -1.43765 0.645699 0
M  V30 2004 C 184.194 -2.34544 -0.0512957 0
M  V30 2005 C 185.21 -1.53455 -0.82022 0
M  V30 2006 O 186.386 -1.86133 -0.769176 0
M  V30 2007 C 183.451 -3.31636 -1.01087 0
M  V30 2008 C 182.512 -4.2863 -0.239712 0
M  V30 2009 C 181.745 -5.21084 -1.15358 0
M  V30 2010 O 181.968 -5.1779 -2.39269 0
M  V30 2011 O 180.902 -5.98593 -0.630038 0
M  V30 2012 H 184.728 -2.95624 0.695718 0
M  V30 2013 H 182.313 -1.43781 0.405882 0
M  V30 2014 H 184.195 -3.9136 -1.56254 0
M  V30 2015 H 182.87 -2.73069 -1.73824 0
M  V30 2016 H 181.777 -3.72408 0.355356 0
M  V30 2017 H 183.11 -4.90157 0.447936 0
M  V30 2018 N 184.763 -0.387143 -1.52771 0
M  V30 2019 C 185.71 0.449048 -2.26389 0
M  V30 2020 C 186.68 1.05961 -1.27912 0
M  V30 2021 O 187.865 1.08804 -1.56737 0
M  V30 2022 C 185.005 1.57155 -3.0724 0
M  V30 2023 C 184.118 0.984066 -4.20643 0
M  V30 2024 C 183.253 2.07745 -4.88892 0
M  V30 2025 C 182.292 1.46574 -5.94292 0
M  V30 2026 N 181.429 2.49834 -6.56146 0
M  V30 2027 H 186.269 -0.185205 -2.97424 0
M  V30 2028 H 183.806 -0.103164 -1.46738 0
M  V30 2029 H 185.764 2.23309 -3.52405 0
M  V30 2030 H 184.394 2.17615 -2.38419 0
M  V30 2031 H 183.446 0.212193 -3.79808 0
M  V30 2032 H 184.758 0.497029 -4.96318 0
M  V30 2033 H 183.912 2.81673 -5.3735 0
M  V30 2034 H 182.651 2.59807 -4.12737 0
M  V30 2035 H 181.656 0.711696 -5.45174 0
M  V30 2036 H 182.881 0.953088 -6.72379 0
M  V30 2037 H 180.827 3.0107 -5.82832 0
M  V30 2038 H 180.744 2.05879 -7.27427 0
M  V30 2039 H 182.012 3.23399 -7.09249 0
M  V30 2040 N 186.241 1.57166 -0.116904 0
M  V30 2041 C 187.204 2.14039 0.819742 0
M  V30 2042 C 188.204 1.07477 1.19605 0
M  V30 2043 O 189.394 1.33263 1.1219 0
M  V30 2044 C 186.526 2.67891 2.10826 0
M  V30 2045 H 187.719 2.98128 0.325511 0
M  V30 2046 H 185.272 1.55739 0.132312 0
M  V30 2047 H 186.007 1.87384 2.64685 0
M  V30 2048 H 185.792 3.45823 1.84793 0
M  V30 2049 H 187.282 3.11809 2.77785 0
M  V30 2050 N 187.719 -0.156864 1.56817 0
M  V30 2051 C 188.666 -1.19394 1.97519 0
M  V30 2052 C 189.636 -1.4322 0.841265 0
M  V30 2053 O 190.821 -1.55719 1.10255 0
M  V30 2054 C 187.961 -2.52483 2.35258 0
M  V30 2055 C 187.074 -2.35914 3.61896 0
M  V30 2056 C 186.209 -3.61969 3.88782 0
M  V30 2057 C 185.248 -3.40395 5.08722 0
M  V30 2058 N 184.385 -4.58556 5.31668 0
M  V30 2059 H 189.225 -0.839845 2.85921 0
M  V30 2060 H 186.762 -0.403264 1.41464 0
M  V30 2061 H 188.72 -3.30071 2.55165 0
M  V30 2062 H 187.35 -2.85859 1.49949 0
M  V30 2063 H 186.402 -1.49429 3.49821 0
M  V30 2064 H 187.714 -2.15926 4.49641 0
M  V30 2065 H 186.868 -4.47989 4.09135 0
M  V30 2066 H 185.607 -3.84951 2.9944 0
M  V30 2067 H 184.612 -2.52763 4.88253 0
M  V30 2068 H 185.837 -3.18822 5.99608 0
M  V30 2069 H 183.783 -4.81729 4.45279 0
M  V30 2070 H 183.7 -4.41535 6.13664 0
M  V30 2071 H 184.968 -5.45817 5.5651 0
M  V30 2072 N 189.197 -1.51736 -0.425897 0
M  V30 2073 C 190.129 -1.70083 -1.53638 0
M  V30 2074 C 191.142 -0.581349 -1.52066 0
M  V30 2075 O 192.331 -0.856017 -1.56635 0
M  V30 2076 C 189.431 -1.71078 -2.9255 0
M  V30 2077 C 188.604 -2.99795 -3.185 0
M  V30 2078 C 187.663 -2.92825 -4.37196 0
M  V30 2079 O 186.689 -3.66756 -4.35291 0
M  V30 2080 N 187.891 -2.0946 -5.41393 0
M  V30 2081 H 190.656 -2.65882 -1.383 0
M  V30 2082 H 188.217 -1.49765 -0.614988 0
M  V30 2083 H 190.209 -1.63969 -3.69995 0
M  V30 2084 H 188.779 -0.828242 -3.01428 0
M  V30 2085 H 187.999 -3.20684 -2.2925 0
M  V30 2086 H 189.287 -3.84977 -3.32671 0
M  V30 2087 H 188.685 -1.48792 -5.45781 0
M  V30 2088 H 187.242 -2.08221 -6.17647 0
M  V30 2089 N 190.675 0.682077 -1.42076 0
M  V30 2090 C 191.605 1.80796 -1.47767 0
M  V30 2091 C 192.586 1.6677 -0.334954 0
M  V30 2092 O 193.771 1.863 -0.548264 0
M  V30 2093 C 190.901 3.19038 -1.37229 0
M  V30 2094 C 189.855 3.47789 -2.49453 0
M  V30 2095 C 189.181 4.8553 -2.23975 0
M  V30 2096 C 190.481 3.45411 -3.91776 0
M  V30 2097 H 192.175 1.7629 -2.41997 0
M  V30 2098 H 189.721 0.846721 -1.16476 0
M  V30 2099 H 191.674 3.97528 -1.39821 0
M  V30 2100 H 190.398 3.24204 -0.394907 0
M  V30 2101 H 189.057 2.71657 -2.46166 0
M  V30 2102 H 188.705 4.87337 -1.24547 0
M  V30 2103 H 188.405 5.0573 -2.99184 0
M  V30 2104 H 189.929 5.66312 -2.28304 0
M  V30 2105 H 191.343 4.13882 -3.96705 0
M  V30 2106 H 189.74 3.77145 -4.66778 0
M  V30 2107 H 190.81 2.44122 -4.18966 0
M  V30 2108 N 192.153 1.28127 0.917671 0
M  V30 2109 C 193.399 1.15223 1.66888 0
M  V30 2110 C 193.732 -0.299293 1.9188 0
M  V30 2111 O 193.007 -1.21805 1.51637 0
M  V30 2112 C 193.29 1.94706 3.02922 0
M  V30 2113 C 193.143 3.47898 2.85109 0
M  V30 2114 C 194.462 1.75939 4.03402 0
M  V30 2115 H 191.581 0.419946 0.605652 0
M  V30 2116 H 194.223 1.57398 1.06423 0
M  V30 2117 H 192.373 1.58864 3.54534 0
M  V30 2118 H 194.045 3.93624 2.40537 0
M  V30 2119 H 192.288 3.7373 2.20246 0
M  V30 2120 H 192.959 3.98765 3.81694 0
M  V30 2121 H 195.435 2.07209 3.60837 0
M  V30 2122 H 194.311 2.33931 4.96556 0
M  V30 2123 H 194.572 0.709877 4.36364 0
M  V30 2124 N 193.631 -1.12557 1.10312 0
M  V30 2125 C 194.594 -2.16434 0.75424 0
M  V30 2126 C 195.594 -1.59278 -0.220685 0
M  V30 2127 O 196.784 -1.742 0.00230591 0
M  V30 2128 C 193.916 -3.40699 0.116987 0
M  V30 2129 H 195.109 -2.48811 1.67431 0
M  V30 2130 H 192.662 -1.27542 0.903475 0
M  V30 2131 H 193.397 -3.13921 -0.813877 0
M  V30 2132 H 193.182 -3.83459 0.818613 0
M  V30 2133 H 194.672 -4.17451 -0.111387 0
M  V30 2134 N 195.109 -0.891671 -1.2995 0
M  V30 2135 C 196.039 -0.379797 -2.30391 0
M  V30 2136 C 197.02 0.540919 -1.6127 0
M  V30 2137 O 198.205 0.453352 -1.88834 0
M  V30 2138 C 195.335 0.400654 -3.44981 0
M  V30 2139 C 194.289 -0.428905 -4.25846 0
M  V30 2140 C 193.615 0.478557 -5.32554 0
M  V30 2141 C 194.915 -1.67458 -4.94727 0
M  V30 2142 H 196.609 -1.21914 -2.73454 0
M  V30 2143 H 194.155 -0.587675 -1.31462 0
M  V30 2144 H 196.108 0.769434 -4.14316 0
M  V30 2145 H 194.832 1.27371 -3.0074 0
M  V30 2146 H 193.491 -0.779911 -3.58208 0
M  V30 2147 H 193.139 1.34951 -4.84559 0
M  V30 2148 H 192.839 -0.0727433 -5.87555 0
M  V30 2149 H 194.363 0.843705 -6.04743 0
M  V30 2150 H 195.777 -1.376 -5.56542 0
M  V30 2151 H 194.174 -2.16659 -5.59624 0
M  V30 2152 H 195.244 -2.41518 -4.20473 0
M  V30 2153 N 196.587 1.43421 -0.653314 0
M  V30 2154 C 197.517 2.33487 0.0246656 0
M  V30 2155 C 198.498 1.49475 0.811863 0
M  V30 2156 O 199.683 1.78139 0.773322 0
M  V30 2157 C 196.813 3.32841 0.99166 0
M  V30 2158 C 195.767 4.26842 0.314568 0
M  V30 2159 C 195.093 5.16236 1.39302 0
M  V30 2160 C 196.393 5.16243 -0.793095 0
M  V30 2161 H 198.087 2.90427 -0.727481 0
M  V30 2162 H 195.633 1.39649 -0.351287 0
M  V30 2163 H 197.586 3.94747 1.47487 0
M  V30 2164 H 196.31 2.74158 1.77497 0
M  V30 2165 H 194.969 3.663 -0.148199 0
M  V30 2166 H 194.617 4.53891 2.16776 0
M  V30 2167 H 194.317 5.79948 0.945223 0
M  V30 2168 H 195.841 5.81015 1.87759 0
M  V30 2169 H 197.255 5.71958 -0.392039 0
M  V30 2170 H 195.652 5.88676 -1.16536 0
M  V30 2171 H 196.722 4.55927 -1.65103 0
M  V30 2172 N 198.065 0.39524 1.52563 0
M  V30 2173 C 199.481 0.0454682 1.59535 0
M  V30 2174 C 199.681 -1.44056 1.4089 0
M  V30 2175 O 198.737 -2.20579 1.22888 0
M  V30 2176 C 200.05 0.527963 2.96029 0
M  V30 2177 C 201.598 0.484733 3.09224 0
M  V30 2178 C 202.073 0.943512 4.48176 0
M  V30 2179 N 203.564 0.899765 4.54377 0
M  V30 2180 C 204.299 1.22609 5.60138 0
M  V30 2181 N 203.795 1.62319 6.73516 0
M  V30 2182 N 205.588 1.14696 5.50274 0
M  V30 2183 H 197.739 1.36261 1.62931 0
M  V30 2184 H 200.002 0.558887 0.765735 0
M  V30 2185 H 199.708 1.56607 3.14908 0
M  V30 2186 H 199.582 -0.0698056 3.77135 0
M  V30 2187 H 201.969 -0.544298 2.90037 0
M  V30 2188 H 202.05 1.11838 2.30056 0
M  V30 2189 H 201.694 1.9708 4.68104 0
M  V30 2190 H 201.624 0.286817 5.25818 0
M  V30 2191 H 204.115 0.607632 3.72983 0
M  V30 2192 H 204.428 1.85567 7.5019 0
M  V30 2193 H 202.773 1.66211 6.74833 0
M  V30 2194 H 205.964 0.835701 4.6058 0
M  V30 2195 H 206.137 1.40459 6.32594 0
M  V30 2196 N 199.544 -1.57102 0.125237 0
M  V30 2197 C 200.821 -1.86953 -0.575142 0
M  V30 2198 C 201.201 -1.02749 -1.84407 0
M  V30 2199 O 200.549 -0.108144 -2.28244 0
M  V30 2200 C 200.759 -3.38198 -0.861583 0
M  V30 2201 C 202.107 -4.06937 -1.21192 0
M  V30 2202 O 203.131 -3.43252 -0.951645 0
M  V30 2203 O 201.99 -5.19364 -1.70068 0
M  V30 2204 H 199.084 -0.774147 -0.290906 0
M  V30 2205 H 201.63 -1.68942 0.160211 0
M  V30 2206 H 200.402 -3.91282 0.0373647 0
M  V30 2207 H 200.025 -3.61661 -1.65188 0
M  V30 2208 N 201.022 0.148545 -1.56898 0
M  V30 2209 C 201.932 1.20293 -2.01412 0
M  V30 2210 C 202.948 1.47107 -0.929273 0
M  V30 2211 O 204.124 1.58807 -1.23863 0
M  V30 2212 C 201.189 2.51682 -2.38447 0
M  V30 2213 C 200.25 2.32529 -3.60872 0
M  V30 2214 C 199.483 3.57653 -3.96132 0
M  V30 2215 O 199.706 4.63771 -3.32073 0
M  V30 2216 O 198.64 3.50408 -4.89385 0
M  V30 2217 H 202.466 0.855025 -2.91416 0
M  V30 2218 H 200.051 0.357151 -1.45068 0
M  V30 2219 H 201.933 3.29147 -2.63135 0
M  V30 2220 H 200.608 2.86006 -1.51599 0
M  V30 2221 H 199.515 1.53019 -3.41373 0
M  V30 2222 H 200.848 2.03121 -4.48333 0
M  V30 2223 N 202.5 1.5196 0.417844 0
M  V30 2224 C 203.777 1.56146 1.17803 0
M  V30 2225 C 204.157 0.337275 2.08388 0
M  V30 2226 O 203.505 -0.676447 2.18258 0
M  V30 2227 C 203.715 2.88566 1.96293 0
M  V30 2228 C 205.063 3.41244 2.52662 0
M  V30 2229 O 206.087 2.90247 2.06483 0
M  V30 2230 O 204.946 4.30273 3.36938 0
M  V30 2231 H 202.04 0.628598 0.537395 0
M  V30 2232 H 204.586 1.64283 0.425331 0
M  V30 2233 H 203.358 3.69116 1.2988 0
M  V30 2234 H 202.981 2.83681 2.78587 0
M  V30 2235 N 203.978 -0.674533 1.42435 0
M  V30 2236 C 205.394 -0.98769 1.25367 0
M  V30 2237 C 205.594 -2.00879 0.158044 0
M  V30 2238 O 204.65 -2.48075 -0.470633 0
M  V30 2239 C 205.963 -1.49224 2.6106 0
M  V30 2240 C 207.511 -1.61 2.68417 0
M  V30 2241 C 207.986 -2.14852 4.04478 0
M  V30 2242 N 209.477 -2.22185 4.06434 0
M  V30 2243 C 210.212 -2.64928 5.08528 0
M  V30 2244 N 209.708 -3.07121 6.21006 0
M  V30 2245 N 211.501 -2.64679 4.95885 0
M  V30 2246 H 203.652 0.00152503 2.124 0
M  V30 2247 H 205.915 -0.0618434 0.945981 0
M  V30 2248 H 205.621 -0.816453 3.42092 0
M  V30 2249 H 205.495 -2.47094 2.84999 0
M  V30 2250 H 207.882 -2.27686 1.87732 0
M  V30 2251 H 207.963 -0.616195 2.48267 0
M  V30 2252 H 207.607 -1.48775 4.85622 0
M  V30 2253 H 207.537 -3.15024 4.2198 0
M  V30 2254 H 210.028 -1.92435 3.25234 0
M  V30 2255 H 210.341 -3.38423 6.94759 0
M  V30 2256 H 208.686 -3.04978 6.24511 0
M  V30 2257 H 211.877 -2.31078 4.07088 0
M  V30 2258 H 212.05 -2.9767 5.75584 0
M  V30 2259 N 205.456 -1.28612 -0.910864 0
M  V30 2260 C 206.386 -1.15326 -2.03032 0
M  V30 2261 C 207.367 -0.0502924 -1.70026 0
M  V30 2262 O 208.552 -0.227797 -1.92859 0
M  V30 2263 C 205.682 -0.817343 -3.37545 0
M  V30 2264 C 204.636 -1.8754 -3.84724 0
M  V30 2265 C 203.962 -1.39305 -5.16235 0
M  V30 2266 C 205.262 -3.28244 -4.06267 0
M  V30 2267 H 206.956 -2.08975 -2.14406 0
M  V30 2268 H 204.502 -1.00612 -1.03021 0
M  V30 2269 H 206.455 -0.711151 -4.15356 0
M  V30 2270 H 205.179 0.154846 -3.26233 0
M  V30 2271 H 203.838 -1.97079 -3.09121 0
M  V30 2272 H 203.486 -0.409846 -5.01328 0
M  V30 2273 H 203.186 -2.10057 -5.48771 0
M  V30 2274 H 204.71 -1.30014 -5.96598 0
M  V30 2275 H 206.124 -3.21611 -4.74594 0
M  V30 2276 H 204.521 -3.96855 -4.5014 0
M  V30 2277 H 205.591 -3.72048 -3.10979 0
M  V30 2278 N 206.934 1.1197 -1.10907 0
M  V30 2279 C 208.35 1.35591 -0.841852 0
M  V30 2280 C 208.55 1.94233 0.536246 0
M  V30 2281 O 207.606 2.1717 1.28816 0
M  V30 2282 C 208.919 2.29284 -1.94549 0
M  V30 2283 C 210.467 2.42862 -1.97451 0
M  V30 2284 C 210.942 3.39873 -3.07002 0
M  V30 2285 N 212.433 3.47433 -3.06341 0
M  V30 2286 C 213.168 4.22421 -3.87748 0
M  V30 2287 N 212.664 5.00432 -4.79103 0
M  V30 2288 N 214.457 4.17876 -3.75946 0
M  V30 2289 H 206.608 0.722664 -1.99728 0
M  V30 2290 H 208.871 0.380635 -0.868229 0
M  V30 2291 H 208.577 1.93378 -2.93765 0
M  V30 2292 H 208.451 3.29452 -1.83688 0
M  V30 2293 H 210.838 2.78046 -0.988645 0
M  V30 2294 H 210.919 1.42566 -2.12388 0
M  V30 2295 H 210.563 3.05417 -4.05811 0
M  V30 2296 H 210.493 4.40011 -2.89306 0
M  V30 2297 H 212.984 2.91784 -2.40147 0
M  V30 2298 H 213.297 5.55002 -5.37766 0
M  V30 2299 H 211.642 4.99612 -4.83128 0
M  V30 2300 H 214.833 3.56016 -3.03924 0
M  V30 2301 H 215.006 4.76061 -4.39624 0
M  V30 2302 N 208.412 0.89855 1.29475 0
M  V30 2303 C 209.322 0.379974 2.31502 0
M  V30 2304 C 210.338 -0.524695 1.659 0
M  V30 2305 O 211.514 -0.414551 1.97087 0
M  V30 2306 C 208.579 -0.385138 3.44554 0
M  V30 2307 C 207.64 0.550914 4.2575 0
M  V30 2308 C 206.873 -0.177778 5.33404 0
M  V30 2309 O 207.096 -1.40189 5.52904 0
M  V30 2310 O 206.03 0.479106 5.9999 0
M  V30 2311 H 209.856 1.22639 2.77837 0
M  V30 2312 H 207.441 0.662834 1.33891 0
M  V30 2313 H 209.323 -0.817841 4.13388 0
M  V30 2314 H 207.998 -1.20763 3.0033 0
M  V30 2315 H 206.905 1.03271 3.59564 0
M  V30 2316 H 208.238 1.33979 4.73614 0
M  V30 2317 N 209.89 -1.43072 0.660911 0
M  V30 2318 C 210.8 -2.34585 -0.0264163 0
M  V30 2319 C 211.816 -1.54316 -0.803898 0
M  V30 2320 O 212.992 -1.86939 -0.749391 0
M  V30 2321 C 210.057 -3.32689 -0.975639 0
M  V30 2322 C 209.118 -4.2886 -0.194236 0
M  V30 2323 C 208.351 -5.22278 -1.09825 0
M  V30 2324 O 208.574 -5.20299 -2.33763 0
M  V30 2325 O 207.508 -5.99228 -0.566513 0
M  V30 2326 H 211.334 -2.94869 0.727034 0
M  V30 2327 H 208.919 -1.43342 0.42111 0
M  V30 2328 H 210.801 -3.92995 -1.52094 0
M  V30 2329 H 209.476 -2.74898 -1.70918 0
M  V30 2330 H 208.383 -3.72011 0.394835 0
M  V30 2331 H 209.716 -4.89655 0.499899 0
M  V30 2332 N 211.368 -0.403325 -1.52352 0
M  V30 2333 C 212.784 -0.0539281 -1.59509 0
M  V30 2334 C 212.984 1.43307 -1.41652 0
M  V30 2335 O 212.04 2.19924 -1.24056 0
M  V30 2336 C 213.353 -0.543654 -2.95745 0
M  V30 2337 C 214.901 -0.501125 -3.08962 0
M  V30 2338 C 215.376 -0.967267 -4.47669 0
M  V30 2339 N 216.867 -0.923849 -4.53893 0
M  V30 2340 C 217.602 -1.25578 -5.5948 0
M  V30 2341 N 217.098 -1.65889 -6.72646 0
M  V30 2342 N 218.891 -1.17613 -5.49658 0
M  V30 2343 H 211.042 -1.37123 -1.62206 0
M  V30 2344 H 213.305 -0.56294 -0.76276 0
M  V30 2345 H 213.011 -1.58275 -3.14073 0
M  V30 2346 H 212.885 0.0498042 -3.77167 0
M  V30 2347 H 215.272 0.528909 -2.90321 0
M  V30 2348 H 215.353 -1.13056 -2.2946 0
M  V30 2349 H 214.997 -1.9956 -4.67053 0
M  V30 2350 H 214.927 -0.314698 -5.25659 0
M  V30 2351 H 217.418 -0.627403 -3.72655 0
M  V30 2352 H 217.731 -1.89543 -7.49195 0
M  V30 2353 H 216.076 -1.69787 -6.73942 0
M  V30 2354 H 219.267 -0.860115 -4.6013 0
M  V30 2355 H 219.44 -1.43812 -6.3184 0
M  V30 2356 N 212.846 1.57033 -0.133567 0
M  V30 2357 C 213.809 2.14897 0.796995 0
M  V30 2358 C 214.809 1.0874 1.18458 0
M  V30 2359 O 215.999 1.34446 1.1077 0
M  V30 2360 C 213.131 2.70112 2.07973 0
M  V30 2361 H 214.324 2.98457 0.293873 0
M  V30 2362 H 211.877 1.55871 0.115787 0
M  V30 2363 H 212.612 1.9018 2.62682 0
M  V30 2364 H 212.397 3.47764 1.81115 0
M  V30 2365 H 213.887 3.14738 2.74462 0
M  V30 2366 N 214.325 -0.140222 1.56975 0
M  V30 2367 C 215.275 -1.17827 1.95194 0
M  V30 2368 C 216.259 -1.38195 0.824075 0
M  V30 2369 O 217.451 -1.39643 1.0876 0
M  V30 2370 C 214.58 -2.51024 2.34184 0
M  V30 2371 C 213.666 -2.3422 3.53556 0
M  V30 2372 N 214.057 -1.87185 4.69889 0
M  V30 2373 C 212.355 -2.64949 3.58773 0
M  V30 2374 C 213.056 -1.83586 5.5197 0
M  V30 2375 N 212.032 -2.2715 4.93866 0
M  V30 2376 H 215.834 -0.806817 2.82609 0
M  V30 2377 H 213.348 -0.348208 1.58623 0
M  V30 2378 H 215.345 -3.26074 2.59772 0
M  V30 2379 H 214.005 -2.88945 1.48124 0
M  V30 2380 H 215.016 -1.57048 4.93514 0
M  V30 2381 H 211.693 -3.067 2.8327 0
M  V30 2382 H 213.083 -1.48655 6.55249 0
M  V30 2383 N 215.803 -1.52179 -0.40978 0
M  V30 2384 C 216.766 -1.74853 -1.48186 0
M  V30 2385 C 217.766 -0.618417 -1.48433 0
M  V30 2386 O 218.956 -0.886286 -1.49969 0
M  V30 2387 C 216.088 -1.8303 -2.87598 0
M  V30 2388 H 217.281 -2.70559 -1.29374 0
M  V30 2389 H 214.834 -1.42586 -0.640233 0
M  V30 2390 H 215.569 -0.89236 -3.11781 0
M  V30 2391 H 215.354 -2.65187 -2.88822 0
M  V30 2392 H 216.844 -2.02316 -3.65319 0
M  V30 2393 N 217.281 0.66697 -1.42791 0
M  V30 2394 C 218.211 1.79218 -1.49677 0
M  V30 2395 C 219.192 1.66405 -0.352623 0
M  V30 2396 O 220.377 1.85708 -0.567993 0
M  V30 2397 C 217.507 3.17565 -1.40605 0
M  V30 2398 C 216.461 3.45124 -2.53127 0
M  V30 2399 C 215.787 4.83127 -2.29112 0
M  V30 2400 C 217.087 3.41236 -3.95418 0
M  V30 2401 H 218.781 1.73713 -2.43853 0
M  V30 2402 H 216.327 0.83432 -1.17367 0
M  V30 2403 H 218.28 3.96022 -1.44029 0
M  V30 2404 H 217.004 3.23767 -0.429271 0
M  V30 2405 H 215.663 2.69031 -2.49034 0
M  V30 2406 H 215.311 4.85988 -1.29709 0
M  V30 2407 H 215.011 5.02528 -3.04531 0
M  V30 2408 H 216.535 5.63859 -2.34297 0
M  V30 2409 H 217.949 4.09651 -4.01073 0
M  V30 2410 H 216.346 3.72173 -4.70752 0
M  V30 2411 H 217.416 2.39665 -4.21532 0
M  V30 2412 N 218.759 1.29093 0.90403 0
M  V30 2413 C 219.706 1.13853 2.00764 0
M  V30 2414 C 220.676 0.0330084 1.66067 0
M  V30 2415 O 221.861 0.199733 1.89752 0
M  V30 2416 C 219.001 0.816537 3.35301 0
M  V30 2417 C 218.114 2.00206 3.82807 0
M  V30 2418 C 217.249 1.61983 5.059 0
M  V30 2419 C 216.288 2.77143 5.45764 0
M  V30 2420 N 215.425 2.39346 6.60044 0
M  V30 2421 H 220.265 2.08276 2.13132 0
M  V30 2422 H 217.802 1.03648 1.04381 0
M  V30 2423 H 219.76 0.610557 4.12708 0
M  V30 2424 H 218.39 -0.090779 3.22672 0
M  V30 2425 H 217.442 2.31988 3.01473 0
M  V30 2426 H 218.754 2.86512 4.08304 0
M  V30 2427 H 217.908 1.37649 5.90879 0
M  V30 2428 H 216.647 0.728202 4.82233 0
M  V30 2429 H 215.652 3.02165 4.59322 0
M  V30 2430 H 216.877 3.66964 5.71414 0
M  V30 2431 H 214.823 1.52665 6.37989 0
M  V30 2432 H 214.74 3.19185 6.85315 0
M  V30 2433 H 216.008 2.1832 7.48303 0
M  V30 2434 N 220.237 -1.11381 1.11499 0
M  V30 2435 C 221.465 -1.86934 0.88675 0
M  V30 2436 C 221.88 -1.80195 -0.563476 0
M  V30 2437 O 221.237 -1.18367 -1.38908 0
M  V30 2438 C 221.288 -3.35722 1.34064 0
M  V30 2439 O 221.009 -3.4232 2.73401 0
M  V30 2440 C 222.51 -4.2818 1.14791 0
M  V30 2441 H 219.73 -0.591117 0.317523 0
M  V30 2442 H 222.274 -1.40865 1.48248 0
M  V30 2443 H 220.429 -3.79294 0.788355 0
M  V30 2444 H 220.843 -4.34971 2.93087 0
M  V30 2445 H 222.317 -5.30817 1.5145 0
M  V30 2446 H 222.794 -4.39113 0.0875279 0
M  V30 2447 H 223.4 -3.90402 1.68721 0
M  V30 2448 N 221.715 -0.905404 -1.28997 0
M  V30 2449 C 222.662 -0.385892 -2.27551 0
M  V30 2450 C 223.632 0.535113 -1.57244 0
M  V30 2451 O 224.817 0.459119 -1.85194 0
M  V30 2452 C 221.957 0.375461 -3.43051 0
M  V30 2453 C 221.07 -0.577092 -4.28128 0
M  V30 2454 C 220.205 0.201879 -5.30816 0
M  V30 2455 C 219.244 -0.744829 -6.07551 0
M  V30 2456 N 218.381 9.42587e-05 -7.021 0
M  V30 2457 H 223.221 -1.23139 -2.71368 0
M  V30 2458 H 220.758 -0.618542 -1.33463 0
M  V30 2459 H 222.716 0.832992 -4.088 0
M  V30 2460 H 221.346 1.18537 -3.00248 0
M  V30 2461 H 220.398 -1.15315 -3.62501 0
M  V30 2462 H 221.71 -1.30152 -4.8152 0
M  V30 2463 H 220.864 0.720351 -6.02408 0
M  V30 2464 H 219.603 0.959413 -4.7817 0
M  V30 2465 H 218.608 -1.27475 -5.34818 0
M  V30 2466 H 219.833 -1.50178 -6.62286 0
M  V30 2467 H 217.779 0.739791 -6.51815 0
M  V30 2468 H 217.696 -0.664321 -7.53076 0
M  V30 2469 H 218.964 0.498644 -7.77903 0
M  V30 2470 N 223.193 1.4272 -0.668489 0
M  V30 2471 C 224.103 2.34596 0.0139753 0
M  V30 2472 C 225.119 1.5474 0.795703 0
M  V30 2473 O 226.295 1.87334 0.739466 0
M  V30 2474 C 223.36 3.33202 0.957982 0
M  V30 2475 C 222.421 4.28957 0.17149 0
M  V30 2476 C 221.654 5.22853 1.07053 0
M  V30 2477 O 221.877 5.21531 2.31001 0
M  V30 2478 O 220.811 5.9952 0.534727 0
M  V30 2479 H 224.637 2.9448 -0.742661 0
M  V30 2480 H 222.222 1.43117 -0.428705 0
M  V30 2481 H 224.104 3.93796 1.50008 0
M  V30 2482 H 222.779 2.758 1.69458 0
M  V30 2483 H 221.686 3.71796 -0.414558 0
M  V30 2484 H 223.019 4.89383 -0.52586 0
M  V30 2485 N 224.671 0.411399 1.52136 0
M  V30 2486 C 225.618 -0.412975 2.27075 0
M  V30 2487 C 226.588 -1.03912 1.29582 0
M  V30 2488 O 227.773 -1.06296 1.58448 0
M  V30 2489 C 224.913 -1.52247 3.09701 0
M  V30 2490 C 224.026 -0.917021 4.22155 0
M  V30 2491 C 223.161 -1.9994 4.92135 0
M  V30 2492 C 222.2 -1.37101 5.96548 0
M  V30 2493 N 221.337 -2.39364 6.60038 0
M  V30 2494 H 226.177 0.232499 2.97092 0
M  V30 2495 H 223.714 0.126496 1.46555 0
M  V30 2496 H 225.672 -2.17674 3.55913 0
M  V30 2497 H 224.302 -2.13794 2.41851 0
M  V30 2498 H 223.354 -0.151742 3.80097 0
M  V30 2499 H 224.666 -0.418006 4.97045 0
M  V30 2500 H 223.82 -2.73088 5.41763 0
M  V30 2501 H 222.559 -2.53208 4.16818 0
M  V30 2502 H 221.564 -0.624873 5.46237 0
M  V30 2503 H 222.789 -0.845998 6.7381 0
M  V30 2504 H 220.735 -2.91759 5.87548 0
M  V30 2505 H 220.652 -1.9428 7.3061 0
M  V30 2506 H 221.92 -3.12074 7.14304 0
M  V30 2507 N 226.149 -1.5696 0.141893 0
M  V30 2508 C 227.079 -2.19516 -0.795936 0
M  V30 2509 C 228.06 -1.14187 -1.26077 0
M  V30 2510 O 229.245 -1.42511 -1.31925 0
M  V30 2511 C 226.375 -2.81272 -2.03723 0
M  V30 2512 C 225.329 -3.92384 -1.70936 0
M  V30 2513 C 224.655 -4.41052 -3.02287 0
M  V30 2514 C 225.955 -5.13403 -0.959954 0
M  V30 2515 H 227.649 -2.98138 -0.274596 0
M  V30 2516 H 225.195 -1.43406 -0.130636 0
M  V30 2517 H 227.148 -3.237 -2.69808 0
M  V30 2518 H 225.872 -1.99973 -2.58221 0
M  V30 2519 H 224.531 -3.50566 -1.07232 0
M  V30 2520 H 224.179 -3.56582 -3.54765 0
M  V30 2521 H 223.879 -5.15993 -2.81114 0
M  V30 2522 H 225.403 -4.86146 -3.69451 0
M  V30 2523 H 226.817 -5.52706 -1.52279 0
M  V30 2524 H 225.214 -5.94073 -0.848357 0
M  V30 2525 H 226.284 -4.84875 0.0492434 0
M  V30 2526 N 227.627 0.131896 -1.57047 0
M  V30 2527 C 228.59 1.14638 -1.98471 0
M  V30 2528 C 229.59 1.35029 -0.873148 0
M  V30 2529 O 230.78 1.31764 -1.13946 0
M  V30 2530 C 227.912 2.50358 -2.31373 0
M  V30 2531 H 229.105 0.79064 -2.8929 0
M  V30 2532 H 226.658 0.375761 -1.51716 0
M  V30 2533 H 227.393 2.90876 -1.43393 0
M  V30 2534 H 227.178 2.36915 -3.12432 0
M  V30 2535 H 228.668 3.23395 -2.64207 0
M  V30 2536 N 229.106 1.52395 0.401703 0
M  V30 2537 C 230.038 1.72505 1.50912 0
M  V30 2538 C 231.051 0.605468 1.51122 0
M  V30 2539 O 232.24 0.880828 1.55254 0
M  V30 2540 C 229.34 1.75711 2.89791 0
M  V30 2541 C 228.513 3.04824 3.1369 0
M  V30 2542 C 227.572 2.99743 4.32482 0
M  V30 2543 O 226.598 3.73635 4.29402 0
M  V30 2544 N 227.8 2.18047 5.37992 0
M  V30 2545 H 230.565 2.68049 1.34052 0
M  V30 2546 H 228.126 1.50724 0.591084 0
M  V30 2547 H 230.118 1.69834 3.6734 0
M  V30 2548 H 228.688 0.876092 3.00072 0
M  V30 2549 H 227.908 3.2429 2.24119 0
M  V30 2550 H 229.196 3.90221 3.26504 0
M  V30 2551 H 228.594 1.57456 5.43345 0
M  V30 2552 H 227.151 2.18021 6.14256 0
M  V30 2553 N 230.584 -0.659388 1.43143 0
M  V30 2554 C 231.812 -1.44723 1.47861 0
M  V30 2555 C 232.227 -1.88563 0.0945886 0
M  V30 2556 O 231.584 -1.59108 -0.893915 0
M  V30 2557 C 231.635 -2.68627 2.41913 0
M  V30 2558 O 231.356 -2.26623 3.74932 0
M  V30 2559 C 232.857 -3.62045 2.55809 0
M  V30 2560 H 230.077 -0.444801 0.502387 0
M  V30 2561 H 232.621 -0.808916 1.87821 0
M  V30 2562 H 230.776 -3.28613 2.05164 0
M  V30 2563 H 231.19 -3.06745 4.2545 0
M  V30 2564 H 232.664 -4.45666 3.25708 0
M  V30 2565 H 233.141 -4.08981 1.60099 0
M  V30 2566 H 233.747 -3.07944 2.93344 0
M  V30 2567 N 232.062 -1.29571 -0.897171 0
M  V30 2568 C 233.025 -1.14913 -1.98312 0
M  V30 2569 C 234.025 -0.0838629 -1.60581 0
M  V30 2570 O 235.215 -0.331006 -1.71026 0
M  V30 2571 C 232.347 -0.757835 -3.3237 0
M  V30 2572 H 233.54 -2.11377 -2.12743 0
M  V30 2573 H 231.093 -1.12793 -1.08201 0
M  V30 2574 H 231.828 0.206837 -3.2364 0
M  V30 2575 H 231.613 -1.52755 -3.61121 0
M  V30 2576 H 233.103 -0.678408 -4.12053 0
M  V30 2577 N 233.54 1.10788 -1.12088 0
M  V30 2578 C 234.768 1.86461 -0.896651 0
M  V30 2579 C 235.183 1.80492 0.553912 0
M  V30 2580 O 234.54 1.19102 1.38278 0
M  V30 2581 C 234.591 3.35006 -1.35843 0
M  V30 2582 O 234.312 3.40866 -2.75213 0
M  V30 2583 C 235.813 4.27565 -1.1706 0
M  V30 2584 H 233.033 0.589425 -0.320654 0
M  V30 2585 H 235.577 1.40076 -1.48993 0
M  V30 2586 H 233.732 3.7887 -0.808458 0
M  V30 2587 H 234.146 4.33411 -2.9539 0
M  V30 2588 H 235.62 5.30007 -1.54263 0
M  V30 2589 H 236.097 4.3906 -0.110814 0
M  V30 2590 H 236.703 3.89501 -1.70789 0
M  V30 2591 N 235.018 0.912232 1.28515 0
M  V30 2592 C 235.981 0.404223 2.25607 0
M  V30 2593 C 236.981 -0.468602 1.53821 0
M  V30 2594 O 238.171 -0.271873 1.72065 0
M  V30 2595 C 235.303 -0.420653 3.38295 0
M  V30 2596 H 236.496 1.26188 2.7206 0
M  V30 2597 H 234.049 0.691495 1.40171 0
M  V30 2598 H 234.784 -1.29777 2.97201 0
M  V30 2599 H 234.569 0.204935 3.91564 0
M  V30 2600 H 236.059 -0.766971 4.10496 0
M  V30 2601 N 236.496 -1.42363 0.676048 0
M  V30 2602 C 237.721 -2.06377 0.205705 0
M  V30 2603 C 238.146 -1.50463 -1.12883 0
M  V30 2604 O 237.504 -0.623619 -1.70237 0
M  V30 2605 C 237.552 -3.60277 0.152655 0
M  V30 2606 O 236.656 -4.02935 -0.87845 0
M  V30 2607 H 235.997 -0.655588 0.105359 0
M  V30 2608 H 238.527 -1.82475 0.925412 0
M  V30 2609 H 238.537 -4.07993 -0.0230675 0
M  V30 2610 H 237.212 -4.00346 1.12675 0
M  V30 2611 H 235.789 -3.66764 -0.673668 0
M  V30 2612 N 237.974 -0.419461 -1.51915 0
M  V30 2613 C 239.199 0.154572 -2.06823 0
M  V30 2614 C 239.624 1.3722 -1.28656 0
M  V30 2615 O 238.982 1.78461 -0.319583 0
M  V30 2616 C 239.03 0.473172 -3.57482 0
M  V30 2617 O 238.134 1.56255 -3.81652 0
M  V30 2618 H 237.475 0.0096924 -0.663929 0
M  V30 2619 H 240.005 -0.595642 -1.95738 0
M  V30 2620 H 240.015 0.728825 -4.01438 0
M  V30 2621 H 238.69 -0.416873 -4.13805 0
M  V30 2622 H 237.267 1.29825 -3.49571 0
M  V30 2623 N 239.452 1.56882 -0.150215 0
M  V30 2624 C 240.415 2.1573 0.774157 0
M  V30 2625 C 241.415 1.0999 1.17298 0
M  V30 2626 O 242.605 1.35613 1.09338 0
M  V30 2627 C 239.737 2.72302 2.05096 0
M  V30 2628 H 240.93 2.98752 0.262201 0
M  V30 2629 H 238.483 1.55985 0.099248 0
M  V30 2630 H 239.218 1.92956 2.6065 0
M  V30 2631 H 239.003 3.49665 1.77416 0
M  V30 2632 H 240.493 3.17632 2.71109 0
M  V30 2633 N 240.93 -0.123565 1.57115 0
M  V30 2634 C 241.893 -1.13583 1.99076 0
M  V30 2635 C 242.893 -1.34564 0.880296 0
M  V30 2636 O 244.083 -1.31158 1.14644 0
M  V30 2637 C 241.215 -2.49128 2.32698 0
M  V30 2638 H 242.408 -0.775287 2.89706 0
M  V30 2639 H 239.961 -0.36771 1.51913 0
M  V30 2640 H 240.696 -2.90111 1.44934 0
M  V30 2641 H 240.481 -2.35255 3.13684 0
M  V30 2642 H 241.971 -3.2199 2.65918 0
M  V30 2643 N 242.408 -1.52605 -0.393616 0
M  V30 2644 C 243.654 -1.67672 -1.14079 0
M  V30 2645 C 243.987 -0.413121 -1.89755 0
M  V30 2646 O 243.262 0.588952 -1.85369 0
M  V30 2647 C 243.545 -2.9088 -2.12276 0
M  V30 2648 C 243.398 -4.27329 -1.40394 0
M  V30 2649 C 244.717 -3.09628 -3.12759 0
M  V30 2650 H 241.836 -0.610168 -0.413356 0
M  V30 2651 H 244.478 -1.85193 -0.424696 0
M  V30 2652 H 242.628 -2.76073 -2.73342 0
M  V30 2653 H 244.3 -4.53894 -0.82327 0
M  V30 2654 H 242.543 -4.2802 -0.705801 0
M  V30 2655 H 243.214 -5.09615 -2.12123 0
M  V30 2656 H 245.69 -3.23436 -2.61779 0
M  V30 2657 H 244.566 -3.97322 -3.78717 0
M  V30 2658 H 244.827 -2.23637 -3.81365 0
M  V30 2659 N 243.887 0.651787 -1.4349 0
M  V30 2660 C 245.135 1.40888 -1.44897 0
M  V30 2661 C 245.456 1.94856 -0.0749086 0
M  V30 2662 O 244.726 1.74518 0.889956 0
M  V30 2663 H 243.306 0.522887 -0.533478 0
M  V30 2664 H 245.968 0.768609 -1.79104 0
M  V30 2665 H 245.064 2.25052 -2.16236 0
M  V30 2666 N 245.365 1.30045 0.890287 0
M  V30 2667 C 246.59 1.21598 1.68014 0
M  V30 2668 C 247.015 -0.218678 1.86825 0
M  V30 2669 O 246.373 -1.15756 1.39536 0
M  V30 2670 C 246.421 1.94434 3.03691 0
M  V30 2671 O 245.525 1.2678 3.92429 0
M  V30 2672 H 244.866 0.420856 0.513592 0
M  V30 2673 H 247.396 1.71775 1.11151 0
M  V30 2674 H 247.406 2.03251 3.5377 0
M  V30 2675 H 246.081 2.98777 2.89318 0
M  V30 2676 H 244.658 1.26282 3.50866 0
M  V30 2677 N 246.843 -1.10192 1.12674 0
M  V30 2678 C 248.091 -1.81845 0.881861 0
M  V30 2679 C 248.412 -1.85737 -0.593867 0
M  V30 2680 O 247.682 -1.33724 -1.4316 0
M  V30 2681 H 246.262 -0.673432 0.323261 0
M  V30 2682 H 248.924 -1.33316 1.42172 0
M  V30 2683 H 248.02 -2.85288 1.2656 0
M  V30 2684 N 248.321 -0.919034 -1.28029 0
M  V30 2685 C 249.732 -0.600735 -1.76771 0
M  V30 2686 C 250.083 0.884024 -1.75156 0
M  V30 2687 O 249.208 1.69163 -1.34956 0
M  V30 2688 C 249.803 -1.08372 -3.21 0
M  V30 2689 C 248.362 -0.816248 -3.67443 0
M  V30 2690 C 247.509 -1.24742 -2.47658 0
M  V30 2691 H 250.46 -1.09974 -1.14418 0
M  V30 2692 H 250.481 -0.427512 -3.78091 0
M  V30 2693 H 249.993 -2.16437 -3.22144 0
M  V30 2694 H 248.094 0.250968 -3.71754 0
M  V30 2695 H 248.207 -1.4277 -4.57333 0
M  V30 2696 H 246.571 -0.666083 -2.45836 0
M  V30 2697 H 247.354 -2.33653 -2.51518 0
M  V30 2698 N 249.799 1.42003 -0.683588 0
M  V30 2699 C 251.21 1.84501 -0.285736 0
M  V30 2700 C 251.561 1.57213 1.17382 0
M  V30 2701 O 250.686 1.03642 1.89966 0
M  V30 2702 C 251.281 3.34912 -0.511821 0
M  V30 2703 C 249.84 3.76025 -0.168005 0
M  V30 2704 C 248.987 2.6551 -0.799983 0
M  V30 2705 H 251.938 1.31724 -0.885119 0
M  V30 2706 H 251.959 3.79784 0.233292 0
M  V30 2707 H 251.471 3.54741 -1.57418 0
M  V30 2708 H 249.572 3.61801 0.890567 0
M  V30 2709 H 249.685 4.75141 -0.614661 0
M  V30 2710 H 248.049 2.53654 -0.230568 0
M  V30 2711 H 248.832 2.8816 -1.86597 0
M  V30 2712 N 251.277 0.427512 1.51691 0
M  V30 2713 C 252.688 -0.0378867 1.86662 0
M  V30 2714 C 253.039 -1.42819 1.34525 0
M  V30 2715 O 252.164 -2.05037 0.692014 0
M  V30 2716 C 252.759 -0.0755266 3.38716 0
M  V30 2717 C 251.318 -0.485309 3.73258 0
M  V30 2718 C 250.465 0.328399 2.75349 0
M  V30 2719 H 253.416 0.64379 1.45055 0
M  V30 2720 H 253.437 -0.887056 3.70016 0
M  V30 2721 H 252.949 0.936487 3.76632 0
M  V30 2722 H 251.05 -1.50329 3.40928 0
M  V30 2723 H 251.163 -0.21693 4.78609 0
M  V30 2724 H 249.527 -0.211905 2.53817 0
M  V30 2725 H 250.31 1.3391 3.16106 0
M  V30 2726 N 252.755 -1.56801 0.158532 0
M  V30 2727 C 253.665 -2.20916 -0.789518 0
M  V30 2728 C 254.681 -1.1969 -1.26294 0
M  V30 2729 O 255.857 -1.52308 -1.31773 0
M  V30 2730 C 252.922 -2.82727 -2.00665 0
M  V30 2731 C 251.983 -3.99114 -1.58134 0
M  V30 2732 C 251.216 -4.57968 -2.74045 0
M  V30 2733 O 251.439 -4.15704 -3.90572 0
M  V30 2734 O 250.373 -5.48047 -2.48855 0
M  V30 2735 H 254.199 -3.02464 -0.273681 0
M  V30 2736 H 251.784 -1.4924 -0.0690548 0
M  V30 2737 H 253.666 -3.21968 -2.71872 0
M  V30 2738 H 252.341 -2.04184 -2.51179 0
M  V30 2739 H 251.248 -3.64567 -0.839155 0
M  V30 2740 H 252.581 -4.79212 -1.12325 0
M  V30 2741 N 254.233 0.115231 -1.57178 0
M  V30 2742 C 255.196 1.12526 -1.99676 0
M  V30 2743 C 256.196 1.34095 -0.88742 0
M  V30 2744 O 257.386 1.30548 -1.15337 0
M  V30 2745 C 254.518 2.4789 -2.34015 0
M  V30 2746 H 255.711 0.759912 -2.90113 0
M  V30 2747 H 253.264 0.359648 -1.52106 0
M  V30 2748 H 253.999 2.89339 -1.4647 0
M  V30 2749 H 253.784 2.33588 -3.14927 0
M  V30 2750 H 255.274 3.20575 -2.67622 0
M  V30 2751 N 255.711 1.52812 0.385517 0
M  V30 2752 C 256.621 1.80766 1.49535 0
M  V30 2753 C 257.637 0.694651 1.59532 0
M  V30 2754 O 258.813 0.982611 1.75803 0
M  V30 2755 C 255.878 1.97381 2.85029 0
M  V30 2756 C 254.939 3.21295 2.84724 0
M  V30 2757 C 254.172 3.37108 4.13756 0
M  V30 2758 O 254.395 2.5765 5.08893 0
M  V30 2759 O 253.329 4.30378 4.20783 0
M  V30 2760 H 257.155 2.75015 1.28842 0
M  V30 2761 H 254.74 1.37946 0.573697 0
M  V30 2762 H 256.622 2.09996 3.65349 0
M  V30 2763 H 255.297 1.06322 3.05741 0
M  V30 2764 H 254.204 3.1412 2.03174 0
M  V30 2765 H 255.537 4.12212 2.68965 0
M  V30 2766 N 257.189 -0.644168 1.43834 0
M  V30 2767 C 258.121 -1.76955 1.45669 0
M  V30 2768 C 259.134 -1.58956 0.351666 0
M  V30 2769 O 260.323 -1.6751 0.616644 0
M  V30 2770 C 257.423 -3.14507 1.26248 0
M  V30 2771 C 256.596 -3.59083 2.49757 0
M  V30 2772 C 255.655 -4.75467 2.25427 0
M  V30 2773 O 254.681 -4.84444 2.98836 0
M  V30 2774 N 255.883 -5.66289 1.27661 0
M  V30 2775 H 258.648 -1.75856 2.42682 0
M  V30 2776 H 256.209 -0.828312 1.39106 0
M  V30 2777 H 258.201 -3.90067 1.0784 0
M  V30 2778 H 256.771 -3.10325 0.376478 0
M  V30 2779 H 255.991 -2.7387 2.8353 0
M  V30 2780 H 257.279 -3.85613 3.31934 0
M  V30 2781 H 256.677 -5.61718 0.670064 0
M  V30 2782 H 255.234 -6.41533 1.15234 0
M  V30 2783 N 258.668 -1.30515 -0.883378 0
M  V30 2784 C 259.631 -1.1701 -1.97082 0
M  V30 2785 C 260.631 -0.10089 -1.60483 0
M  V30 2786 O 261.821 -0.349127 -1.70666 0
M  V30 2787 C 258.953 -0.793045 -3.31547 0
M  V30 2788 H 260.146 -2.13622 -2.10489 0
M  V30 2789 H 257.699 -1.13935 -1.06998 0
M  V30 2790 H 258.434 0.172499 -3.23841 0
M  V30 2791 H 258.219 -1.56576 -3.5948 0
M  V30 2792 H 259.709 -0.722073 -4.1131 0
M  V30 2793 N 260.146 1.09593 -1.13257 0
M  V30 2794 C 261.392 1.82181 -0.904521 0
M  V30 2795 C 261.747 1.83967 0.563358 0
M  V30 2796 O 261.04 1.29566 1.41149 0
M  V30 2797 C 261.234 3.27802 -1.42411 0
M  V30 2798 C 261.063 3.40201 -2.94097 0
M  V30 2799 C 259.833 3.52104 -3.62424 0
M  V30 2800 C 262.031 3.32875 -3.92044 0
M  V30 2801 N 260.013 3.53169 -5.0214 0
M  V30 2802 C 261.384 3.40789 -5.17941 0
M  V30 2803 C 263.439 3.16531 -3.84334 0
M  V30 2804 C 262.142 3.34042 -6.37031 0
M  V30 2805 C 264.168 3.11109 -5.02956 0
M  V30 2806 C 263.53 3.19614 -6.27715 0
M  V30 2807 H 259.629 0.681015 -0.384373 0
M  V30 2808 H 262.213 1.3099 -1.44048 0
M  V30 2809 H 260.384 3.77466 -0.915086 0
M  V30 2810 H 262.116 3.88393 -1.13722 0
M  V30 2811 H 258.871 3.5548 -3.12939 0
M  V30 2812 H 259.295 3.57291 -5.75041 0
M  V30 2813 H 263.937 3.08827 -2.88766 0
M  V30 2814 H 261.655 3.4051 -7.32857 0
M  V30 2815 H 265.241 2.99601 -4.98729 0
M  V30 2816 H 264.121 3.15432 -7.17964 0
M  V30 2817 N 261.624 0.925811 1.2754 0
M  V30 2818 C 263.035 0.610102 1.7645 0
M  V30 2819 C 263.386 -0.874723 1.75622 0
M  V30 2820 O 262.511 -1.68444 1.35851 0
M  V30 2821 C 263.106 1.10073 3.20421 0
M  V30 2822 C 261.665 0.835723 3.67005 0
M  V30 2823 C 260.812 1.26054 2.46993 0
M  V30 2824 H 263.763 1.10579 1.13833 0
M  V30 2825 H 263.784 0.447557 3.77859 0
M  V30 2826 H 263.296 2.18143 3.20991 0
M  V30 2827 H 261.397 -0.231249 3.71882 0
M  V30 2828 H 261.51 1.45193 4.56569 0
M  V30 2829 H 259.874 0.679111 2.45479 0
M  V30 2830 H 260.657 2.34984 2.50275 0
M  V30 2831 N 263.102 -1.41638 0.69111 0
M  V30 2832 C 264.034 -2.29194 -0.0161523 0
M  V30 2833 C 265.047 -1.44549 -0.748955 0
M  V30 2834 O 266.236 -1.681 -0.6004 0
M  V30 2835 C 263.336 -3.22325 -1.0469 0
M  V30 2836 C 262.509 -4.35706 -0.384621 0
M  V30 2837 C 261.568 -5.09443 -1.31737 0
M  V30 2838 O 260.594 -5.63386 -0.811451 0
M  V30 2839 N 261.796 -5.16487 -2.64993 0
M  V30 2840 H 264.561 -2.90534 0.735523 0
M  V30 2841 H 262.122 -1.52742 0.53679 0
M  V30 2842 H 264.114 -3.68522 -1.67252 0
M  V30 2843 H 262.684 -2.62323 -1.70015 0
M  V30 2844 H 261.904 -3.91948 0.420804 0
M  V30 2845 H 263.192 -5.08743 0.0760765 0
M  V30 2846 H 262.59 -4.741 -3.08619 0
M  V30 2847 H 261.147 -5.66276 -3.22761 0
M  V30 2848 N 264.58 -0.43555 -1.51462 0
M  V30 2849 C 265.805 0.132627 -2.06976 0
M  V30 2850 C 266.23 1.35848 -1.30104 0
M  V30 2851 O 265.588 1.78112 -0.338493 0
M  V30 2852 C 265.636 0.43523 -3.57964 0
M  V30 2853 O 264.74 1.52198 -3.83288 0
M  V30 2854 H 264.081 0.00265 -0.663995 0
M  V30 2855 H 266.611 -0.616369 -1.95095 0
M  V30 2856 H 266.621 0.686206 -4.02188 0
M  V30 2857 H 265.296 -0.460739 -4.1334 0
M  V30 2858 H 263.873 1.2611 -3.50928 0
M  V30 2859 N 266.058 1.56714 -0.166846 0
M  V30 2860 C 267.283 2.01557 0.488833 0
M  V30 2861 C 267.708 1.0463 1.56314 0
M  V30 2862 O 267.066 0.0251304 1.81283 0
M  V30 2863 C 267.114 3.4503 1.04818 0
M  V30 2864 O 266.218 3.51163 2.16236 0
M  V30 2865 H 265.559 0.653516 0.117526 0
M  V30 2866 H 268.089 2.02818 -0.269421 0
M  V30 2867 H 268.099 3.84243 1.37191 0
M  V30 2868 H 266.774 4.15077 0.261572 0
M  V30 2869 H 265.351 3.23807 1.84942 0
M  V30 2870 N 267.536 -0.106894 1.57237 0
M  V30 2871 C 268.784 -0.810921 1.85117 0
M  V30 2872 C 269.105 -1.7984 0.753827 0
M  V30 2873 O 268.375 -1.94649 -0.221056 0
M  V30 2874 H 266.955 -0.302466 0.683025 0
M  V30 2875 H 269.617 -0.0913324 1.94686 0
M  V30 2876 H 268.713 -1.34875 2.81452 0
M  V30 2877 N 269.014 -1.53014 -0.377408 0
M  V30 2878 C 269.924 -1.81557 -1.48574 0
M  V30 2879 C 270.94 -0.703102 -1.59162 0
M  V30 2880 O 272.116 -0.99192 -1.75279 0
M  V30 2881 C 269.181 -1.9889 -2.83978 0
M  V30 2882 C 268.242 -3.22801 -2.83016 0
M  V30 2883 C 267.475 -3.39298 -4.11962 0
M  V30 2884 O 267.698 -2.60345 -5.0752 0
M  V30 2885 O 266.632 -4.32604 -4.18494 0
M  V30 2886 H 270.458 -2.75695 -1.27382 0
M  V30 2887 H 268.043 -1.38248 -0.566373 0
M  V30 2888 H 269.925 -2.11931 -3.6423 0
M  V30 2889 H 268.6 -1.07942 -3.05172 0
M  V30 2890 H 267.507 -3.15193 -2.01505 0
M  V30 2891 H 268.84 -4.13632 -2.66775 0
M  V30 2892 N 270.492 0.636531 -1.44174 0
M  V30 2893 C 271.402 1.77754 -1.53103 0
M  V30 2894 C 272.418 1.68928 -0.417034 0
M  V30 2895 O 273.594 1.89801 -0.6736 0
M  V30 2896 C 270.659 3.14115 -1.46741 0
M  V30 2897 C 269.72 3.34612 -2.68948 0
M  V30 2898 C 268.953 4.64467 -2.6288 0
M  V30 2899 O 269.176 5.44919 -1.68581 0
M  V30 2900 O 268.11 4.87049 -3.53648 0
M  V30 2901 H 271.936 1.73174 -2.49489 0
M  V30 2902 H 269.521 0.79709 -1.2636 0
M  V30 2903 H 271.403 3.95412 -1.45696 0
M  V30 2904 H 270.078 3.19249 -0.534975 0
M  V30 2905 H 268.985 2.53014 -2.75562 0
M  V30 2906 H 270.318 3.34336 -3.61221 0
M  V30 2907 N 271.97 1.30982 0.876444 0
M  V30 2908 C 272.88 1.2003 2.01569 0
M  V30 2909 C 273.896 0.11838 1.73597 0
M  V30 2910 O 275.072 0.33495 1.98595 0
M  V30 2911 C 272.137 0.901637 3.34771 0
M  V30 2912 C 271.198 2.06979 3.76109 0
M  V30 2913 C 270.431 1.78529 5.02954 0
M  V30 2914 O 270.654 0.717296 5.65872 0
M  V30 2915 O 269.588 2.64019 5.40905 0
M  V30 2916 H 273.414 2.15753 2.13739 0
M  V30 2917 H 270.999 1.10658 1.00375 0
M  V30 2918 H 272.881 0.750645 4.1466 0
M  V30 2919 H 271.556 -0.0256141 3.2369 0
M  V30 2920 H 270.463 2.27616 2.96887 0
M  V30 2921 H 271.796 2.97907 3.91807 0
M  V30 2922 N 273.449 -1.08991 1.13837 0
M  V30 2923 C 274.379 -2.17771 0.842507 0
M  V30 2924 C 275.36 -1.6892 -0.20001 0
M  V30 2925 O 276.545 -1.94113 -0.0579731 0
M  V30 2926 C 273.675 -3.4589 0.312644 0
M  V30 2927 C 272.629 -4.08099 1.28992 0
M  V30 2928 C 271.955 -5.31098 0.619623 0
M  V30 2929 C 273.255 -4.50077 2.65005 0
M  V30 2930 H 274.949 -2.42777 1.75213 0
M  V30 2931 H 272.495 -1.16682 0.843875 0
M  V30 2932 H 274.448 -4.21297 0.0933043 0
M  V30 2933 H 273.172 -3.20419 -0.632382 0
M  V30 2934 H 271.831 -3.34717 1.49533 0
M  V30 2935 H 271.479 -5.0191 -0.33102 0
M  V30 2936 H 271.179 -5.73674 1.27167 0
M  V30 2937 H 272.703 -6.09224 0.409669 0
M  V30 2938 H 274.117 -5.16688 2.48407 0
M  V30 2939 H 272.514 -5.03553 3.26427 0
M  V30 2940 H 273.584 -3.62257 3.22332 0
M  V30 2941 N 274.927 -0.932562 -1.27047 0
M  V30 2942 C 275.859 -0.392734 -2.2581 0
M  V30 2943 C 276.872 0.479241 -1.55586 0
M  V30 2944 O 278.061 0.291078 -1.76111 0
M  V30 2945 C 275.161 0.455456 -3.35826 0
M  V30 2946 C 274.334 -0.398355 -4.35582 0
M  V30 2947 C 273.393 0.387985 -5.24768 0
M  V30 2948 O 272.419 -0.206003 -5.68827 0
M  V30 2949 N 273.621 1.68664 -5.55457 0
M  V30 2950 H 276.386 -1.24173 -2.72766 0
M  V30 2951 H 273.947 -0.800511 -1.40725 0
M  V30 2952 H 275.939 0.988692 -3.92437 0
M  V30 2953 H 274.509 1.20522 -2.88432 0
M  V30 2954 H 273.729 -1.11286 -3.78165 0
M  V30 2955 H 275.017 -0.981889 -4.99236 0
M  V30 2956 H 274.415 2.19147 -5.21528 0
M  V30 2957 H 272.972 2.1663 -6.14748 0
M  V30 2958 N 276.405 1.4127 -0.698611 0
M  V30 2959 C 277.335 2.33447 -0.049629 0
M  V30 2960 C 278.316 1.51982 0.763898 0
M  V30 2961 O 279.501 1.80509 0.716257 0
M  V30 2962 C 276.631 3.35828 0.885267 0
M  V30 2963 C 275.585 4.27627 0.178613 0
M  V30 2964 C 274.911 5.20406 1.22807 0
M  V30 2965 C 276.211 5.13459 -0.956933 0
M  V30 2966 H 277.905 2.87966 -0.81951 0
M  V30 2967 H 275.451 1.38461 -0.395538 0
M  V30 2968 H 277.404 3.9924 1.34854 0
M  V30 2969 H 276.128 2.79666 1.68685 0
M  V30 2970 H 274.787 3.65643 -0.26466 0
M  V30 2971 H 274.435 4.60558 2.02226 0
M  V30 2972 H 274.135 5.82661 0.760239 0
M  V30 2973 H 275.659 5.86695 1.69179 0
M  V30 2974 H 277.073 5.70421 -0.573805 0
M  V30 2975 H 275.47 5.8467 -1.35205 0
M  V30 2976 H 276.54 4.50443 -1.79524 0
M  V30 2977 N 277.883 0.443576 1.51229 0
M  V30 2978 C 278.815 -0.400608 2.25672 0
M  V30 2979 C 279.828 -0.980945 1.29928 0
M  V30 2980 O 281.017 -0.874024 1.55638 0
M  V30 2981 C 278.117 -1.57304 3.00181 0
M  V30 2982 C 277.29 -1.11046 4.23069 0
M  V30 2983 C 276.349 -2.15374 4.80105 0
M  V30 2984 O 275.375 -1.74554 5.41774 0
M  V30 2985 N 276.577 -3.47922 4.64683 0
M  V30 2986 H 279.342 0.23745 2.98758 0
M  V30 2987 H 276.903 0.272809 1.59585 0
M  V30 2988 H 278.895 -2.26733 3.35223 0
M  V30 2989 H 277.465 -2.11632 2.30066 0
M  V30 2990 H 276.685 -0.243019 3.9345 0
M  V30 2991 H 277.973 -0.778888 5.02803 0
M  V30 2992 H 277.371 -3.83815 4.15575 0
M  V30 2993 H 275.928 -4.13228 5.0407 0
M  V30 2994 N 279.361 -1.56624 0.175154 0
M  V30 2995 C 280.291 -2.21155 -0.749195 0
M  V30 2996 C 281.272 -1.16836 -1.23626 0
M  V30 2997 O 282.457 -1.45277 -1.28873 0
M  V30 2998 C 279.587 -2.8553 -1.97711 0
M  V30 2999 C 278.541 -3.95921 -1.62575 0
M  V30 3000 C 277.867 -4.47365 -2.92864 0
M  V30 3001 C 279.167 -5.15323 -0.850838 0
M  V30 3002 H 280.861 -2.98653 -0.211295 0
M  V30 3003 H 278.407 -1.43651 -0.100188 0
M  V30 3004 H 280.36 -3.2935 -2.62881 0
M  V30 3005 H 279.084 -2.05406 -2.53921 0
M  V30 3006 H 277.743 -3.52762 -0.997719 0
M  V30 3007 H 277.391 -3.64027 -3.47122 0
M  V30 3008 H 277.091 -5.21839 -2.70106 0
M  V30 3009 H 278.615 -4.93873 -3.59056 0
M  V30 3010 H 280.029 -5.55812 -1.40521 0
M  V30 3011 H 278.426 -5.95739 -0.722154 0
M  V30 3012 H 279.496 -4.84661 0.152082 0
M  V30 3013 N 280.839 0.0985539 -1.57292 0
M  V30 3014 C 281.802 1.10402 -2.00858 0
M  V30 3015 C 282.802 1.33146 -0.901593 0
M  V30 3016 O 283.992 1.29318 -1.16716 0
M  V30 3017 C 281.124 2.45394 -2.36632 0
M  V30 3018 H 282.317 0.729099 -2.90902 0
M  V30 3019 H 279.87 0.343495 -1.52479 0
M  V30 3020 H 280.605 2.87769 -1.49531 0
M  V30 3021 H 280.39 2.30235 -3.17387 0
M  V30 3022 H 281.88 3.17718 -2.71007 0
M  V30 3023 N 282.317 1.53212 0.369288 0
M  V30 3024 C 283.247 1.82365 1.45826 0
M  V30 3025 C 284.228 0.676907 1.56051 0
M  V30 3026 O 285.413 0.926401 1.70679 0
M  V30 3027 C 282.543 2.01023 2.83208 0
M  V30 3028 C 281.497 3.1678 2.8781 0
M  V30 3029 C 280.823 3.20724 4.27832 0
M  V30 3030 C 282.123 4.55447 2.55667 0
M  V30 3031 H 283.817 2.73559 1.21678 0
M  V30 3032 H 281.363 1.3163 0.583911 0
M  V30 3033 H 283.316 2.20001 3.59413 0
M  V30 3034 H 282.04 1.06536 3.08736 0
M  V30 3035 H 280.699 2.97616 2.14056 0
M  V30 3036 H 280.347 2.23882 4.50429 0
M  V30 3037 H 280.047 3.98496 4.31827 0
M  V30 3038 H 281.571 3.41881 5.05915 0
M  V30 3039 H 282.985 4.74611 3.21586 0
M  V30 3040 H 281.382 5.35432 2.70984 0
M  V30 3041 H 282.452 4.60812 1.5093 0
M  V30 3042 N 283.795 -0.628877 1.44509 0
M  V30 3043 C 284.758 -1.72263 1.51188 0
M  V30 3044 C 285.758 -1.55907 0.39367 0
M  V30 3045 O 286.948 -1.61361 0.656377 0
M  V30 3046 C 284.08 -3.11365 1.38798 0
M  V30 3047 H 285.273 -1.67714 2.4862 0
M  V30 3048 H 282.826 -0.842737 1.31634 0
M  V30 3049 H 283.561 -3.21507 0.424693 0
M  V30 3050 H 283.346 -3.24644 2.19884 0
M  V30 3051 H 284.836 -3.91075 1.46458 0
M  V30 3052 N 285.273 -1.31445 -0.869486 0
M  V30 3053 C 286.206 -1.13465 -1.97992 0
M  V30 3054 C 287.184 -0.0380291 -1.62556 0
M  V30 3055 O 288.368 -0.194544 -1.87493 0
M  V30 3056 C 285.495 -0.733822 -3.30655 0
M  V30 3057 C 284.541 -1.83356 -3.85075 0
M  V30 3058 S 285.374 -3.43909 -4.10472 0
M  V30 3059 C 286.53 -3.05763 -5.46132 0
M  V30 3060 H 286.763 -2.07471 -2.1294 0
M  V30 3061 H 284.296 -1.15936 -1.01972 0
M  V30 3062 H 286.254 -0.509306 -4.07328 0
M  V30 3063 H 284.915 0.187123 -3.13542 0
M  V30 3064 H 284.108 -1.50574 -4.80982 0
M  V30 3065 H 283.71 -2.01315 -3.15195 0
M  V30 3066 H 286.002 -2.54686 -6.27807 0
M  V30 3067 H 286.945 -4.00635 -5.83864 0
M  V30 3068 H 287.353 -2.43192 -5.09429 0
M  V30 3069 N 286.751 1.08385 -1.14413 0
M  V30 3070 C 287.976 1.85057 -0.936413 0
M  V30 3071 C 288.401 1.81055 0.509971 0
M  V30 3072 O 287.759 1.1958 1.36273 0
M  V30 3073 C 287.807 3.30505 -1.44217 0
M  V30 3074 O 286.911 4.07491 -0.634409 0
M  V30 3075 H 286.252 0.573425 -0.334784 0
M  V30 3076 H 288.782 1.36799 -1.52142 0
M  V30 3077 H 288.792 3.81348 -1.45043 0
M  V30 3078 H 287.467 3.32734 -2.49522 0
M  V30 3079 H 286.044 3.66368 -0.694902 0
M  V30 3080 N 288.23 0.939286 1.26551 0
M  V30 3081 C 289.177 0.446088 2.26448 0
M  V30 3082 C 290.147 -0.493234 1.58608 0
M  V30 3083 O 291.332 -0.409857 1.86346 0
M  V30 3084 C 288.472 -0.284375 3.43926 0
M  V30 3085 C 287.585 0.690399 4.26448 0
M  V30 3086 C 286.72 -0.0610712 5.31165 0
M  V30 3087 C 285.759 0.905649 6.05363 0
M  V30 3088 N 284.896 0.186055 7.01853 0
M  V30 3089 H 289.736 1.30291 2.68008 0
M  V30 3090 H 287.273 0.65371 1.31776 0
M  V30 3091 H 289.231 -0.724313 4.10864 0
M  V30 3092 H 287.861 -1.10535 3.03285 0
M  V30 3093 H 286.913 1.24885 3.59316 0
M  V30 3094 H 288.225 1.42873 4.779 0
M  V30 3095 H 287.379 -0.56038 6.04106 0
M  V30 3096 H 286.118 -0.832297 4.80546 0
M  V30 3097 H 285.123 1.4161 5.3125 0
M  V30 3098 H 286.348 1.67685 6.58072 0
M  V30 3099 H 284.294 -0.566714 6.53548 0
M  V30 3100 H 284.211 0.863752 7.51049 0
M  V30 3101 H 285.479 -0.292221 7.78952 0
M  V30 3102 N 289.708 -1.40897 0.706093 0
M  V30 3103 C 290.618 -2.3455 0.0482286 0
M  V30 3104 C 291.634 -1.56796 -0.754396 0
M  V30 3105 O 292.81 -1.89228 -0.689538 0
M  V30 3106 C 289.875 -3.35625 -0.869303 0
M  V30 3107 C 288.936 -4.29261 -0.0576994 0
M  V30 3108 C 288.169 -5.25508 -0.931531 0
M  V30 3109 O 288.392 -5.27472 -2.17092 0
M  V30 3110 O 287.326 -6.00727 -0.375587 0
M  V30 3111 H 291.152 -2.92407 0.820476 0
M  V30 3112 H 288.737 -1.4193 0.4665 0
M  V30 3113 H 290.619 -3.97635 -1.39514 0
M  V30 3114 H 289.294 -2.80196 -1.62086 0
M  V30 3115 H 288.201 -3.70566 0.512988 0
M  V30 3116 H 289.534 -4.87817 0.655426 0
M  V30 3117 N 291.186 -0.45159 -1.50991 0
M  V30 3118 C 292.096 0.358431 -2.31846 0
M  V30 3119 C 293.112 1.01438 -1.41373 0
M  V30 3120 O 294.288 1.00663 -1.74439 0
M  V30 3121 C 291.353 1.43704 -3.15515 0
M  V30 3122 C 290.414 0.799742 -4.21785 0
M  V30 3123 C 289.647 1.82696 -5.01456 0
M  V30 3124 O 289.87 3.05105 -4.81941 0
M  V30 3125 O 288.804 1.40958 -5.85162 0
M  V30 3126 H 292.63 -0.302032 -3.02194 0
M  V30 3127 H 290.215 -0.213825 -1.47862 0
M  V30 3128 H 292.097 2.06227 -3.67489 0
M  V30 3129 H 290.772 2.08133 -2.47916 0
M  V30 3130 H 289.679 0.136084 -3.73852 0
M  V30 3131 H 291.012 0.198718 -4.91799 0
M  V30 3132 N 292.664 1.56529 -0.183458 0
M  V30 3133 C 293.627 2.17324 0.728223 0
M  V30 3134 C 294.627 1.12453 1.14939 0
M  V30 3135 O 295.817 1.37902 1.06437 0
M  V30 3136 C 292.949 2.76591 1.99274 0
M  V30 3137 H 294.142 2.99241 0.198772 0
M  V30 3138 H 291.695 1.5616 0.0661391 0
M  V30 3139 H 292.43 1.98441 2.56499 0
M  V30 3140 H 292.215 3.5335 1.69959 0
M  V30 3141 H 293.705 3.23311 2.6431 0
M  V30 3142 N 294.142 -0.090211 1.57342 0
M  V30 3143 C 295.419 -0.824761 1.77361 0
M  V30 3144 C 295.799 -1.96698 0.76637 0
M  V30 3145 O 295.147 -2.27586 -0.204179 0
M  V30 3146 C 295.357 -1.31481 3.23286 0
M  V30 3147 C 296.705 -1.75563 3.86604 0
M  V30 3148 O 297.729 -1.41093 3.27065 0
M  V30 3149 O 296.588 -2.39317 4.91314 0
M  V30 3150 H 293.682 -0.393776 0.727234 0
M  V30 3151 H 296.228 -0.0717138 1.69548 0
M  V30 3152 H 295 -0.496671 3.88135 0
M  V30 3153 H 294.623 -2.12973 3.35751 0
M  V30 3154 N 295.62 -1.53406 -0.361157 0
M  V30 3155 C 296.552 -1.76446 -1.46286 0
M  V30 3156 C 297.565 -0.645322 -1.49464 0
M  V30 3157 O 298.754 -0.921681 -1.52864 0
M  V30 3158 C 295.854 -1.83332 -2.85031 0
M  V30 3159 C 295.027 -3.13033 -3.05498 0
M  V30 3160 C 294.086 -3.11104 -4.24383 0
M  V30 3161 O 293.112 -3.84888 -4.19344 0
M  V30 3162 N 294.314 -2.32234 -5.32022 0
M  V30 3163 H 297.079 -2.71508 -1.26899 0
M  V30 3164 H 294.64 -1.52238 -0.550915 0
M  V30 3165 H 296.632 -1.79514 -3.62708 0
M  V30 3166 H 295.202 -0.955342 -2.97644 0
M  V30 3167 H 294.422 -3.30119 -2.15442 0
M  V30 3168 H 295.71 -3.9874 -3.16044 0
M  V30 3169 H 295.108 -1.71807 -5.38979 0
M  V30 3170 H 293.665 -2.3423 -6.08259 0
M  V30 3171 N 297.098 0.621204 -1.44841 0
M  V30 3172 C 298.509 1.20298 -1.42777 0
M  V30 3173 C 298.86 1.95639 -0.148259 0
M  V30 3174 O 297.985 2.02955 0.750892 0
M  V30 3175 C 298.58 2.1882 -2.58657 0
M  V30 3176 C 297.139 2.72403 -2.59756 0
M  V30 3177 C 296.286 1.4757 -2.34773 0
M  V30 3178 H 299.237 0.411297 -1.53278 0
M  V30 3179 H 299.258 3.01607 -2.31977 0
M  V30 3180 H 298.77 1.63957 -3.51766 0
M  V30 3181 H 296.871 3.31242 -1.70615 0
M  V30 3182 H 296.984 3.17765 -3.58556 0
M  V30 3183 H 295.348 1.76051 -1.8406 0
M  V30 3184 H 296.131 0.945954 -3.3001 0
M  V30 3185 N 298.576 1.31904 0.862503 0
M  V30 3186 C 299.987 1.19803 1.43193 0
M  V30 3187 C 300.338 -0.192567 1.95253 0
M  V30 3188 O 299.463 -1.09081 1.86896 0
M  V30 3189 C 300.058 2.16883 2.60283 0
M  V30 3190 C 298.617 2.08692 3.13248 0
M  V30 3191 C 297.764 2.05691 1.85975 0
M  V30 3192 H 300.715 1.43846 0.670365 0
M  V30 3193 H 300.736 1.76278 3.37204 0
M  V30 3194 H 300.248 3.18083 2.22363 0
M  V30 3195 H 298.349 1.10713 3.55771 0
M  V30 3196 H 298.462 2.9815 3.75025 0
M  V30 3197 H 296.826 1.50814 2.05249 0
M  V30 3198 H 297.609 3.08659 1.50282 0
M  V30 3199 N 300.054 -1.07777 1.14986 0
M  V30 3200 C 301.279 -1.84558 0.946213 0
M  V30 3201 C 301.704 -1.81323 -0.500362 0
M  V30 3202 O 301.062 -1.20301 -1.35637 0
M  V30 3203 C 301.11 -3.29736 1.45968 0
M  V30 3204 O 300.214 -4.07149 0.65601 0
M  V30 3205 H 299.555 -0.571641 0.33782 0
M  V30 3206 H 302.085 -1.35991 1.52865 0
M  V30 3207 H 302.095 -3.80574 1.47063 0
M  V30 3208 H 300.77 -3.31406 2.51283 0
M  V30 3209 H 299.347 -3.65994 0.714322 0
M  V30 3210 N 301.532 -0.945985 -1.26051 0
M  V30 3211 C 302.772 -0.603665 -1.95282 0
M  V30 3212 C 303.136 0.842377 -1.72534 0
M  V30 3213 O 304.337 1.29387 -2.35611 0
M  V30 3214 C 302.608 -0.942292 -3.44754 0
M  V30 3215 S 304.167 -0.711242 -4.32997 0
M  V30 3216 H 300.985 -0.222176 -0.675395 0
M  V30 3217 H 303.587 -1.21832 -1.52896 0
M  V30 3218 H 302.291 -1.99203 -3.58812 0
M  V30 3219 H 301.822 -0.317546 -3.92116 0
M  V30 3220 H 303.837 0.422221 -4.944 0
M  V30 3221 N 303.011 1.40521 -0.713556 0
M  V30 3222 C 304.259 2.00527 -0.251692 0
M  V30 3223 C 304.58 1.56857 1.15848 0
M  V30 3224 O 303.85 0.807127 1.785 0
M  V30 3225 H 302.43 0.741551 -0.0900646 0
M  V30 3226 H 305.092 1.71887 -0.918733 0
M  V30 3227 H 304.188 3.10813 -0.283192 0
M  V30 3228 N 304.489 0.459591 1.5075 0
M  V30 3229 C 305.9 0.00171547 1.867 0
M  V30 3230 C 306.251 -1.39934 1.37525 0
M  V30 3231 O 305.376 -2.03523 0.735349 0
M  V30 3232 C 305.971 -0.00366298 3.388 0
M  V30 3233 C 304.53 -0.406026 3.74204 0
M  V30 3234 C 303.677 0.38673 2.7459 0
M  V30 3235 H 306.628 0.674413 1.43657 0
M  V30 3236 H 306.649 -0.808371 3.71814 0
M  V30 3237 H 306.161 1.01617 3.74561 0
M  V30 3238 H 304.262 -1.43063 3.4404 0
M  V30 3239 H 304.375 -0.115362 4.78961 0
M  V30 3240 H 302.739 -0.158019 2.54209 0
M  V30 3241 H 303.522 1.40585 3.13194 0
M  V30 3242 N 305.967 -1.56429 0.191757 0
M  V30 3243 C 306.877 -2.22541 -0.742481 0
M  V30 3244 C 307.893 -1.22342 -1.23727 0
M  V30 3245 O 309.069 -1.55069 -1.28513 0
M  V30 3246 C 306.134 -2.8692 -1.94623 0
M  V30 3247 C 305.195 -4.02378 -1.49633 0
M  V30 3248 C 304.428 -4.63678 -2.6427 0
M  V30 3249 O 304.651 -4.23895 -3.81666 0
M  V30 3250 O 303.585 -5.53202 -2.37174 0
M  V30 3251 H 307.411 -3.02977 -0.209462 0
M  V30 3252 H 304.996 -1.49353 -0.0373832 0
M  V30 3253 H 306.878 -3.27663 -2.64982 0
M  V30 3254 H 305.553 -2.09466 -2.46791 0
M  V30 3255 H 304.46 -3.66265 -0.761636 0
M  V30 3256 H 305.793 -4.81487 -1.02134 0
M  V30 3257 N 307.445 0.0818655 -1.57387 0
M  V30 3258 C 308.722 0.815343 -1.77796 0
M  V30 3259 C 309.102 1.96289 -0.77679 0
M  V30 3260 O 308.45 2.27691 0.192106 0
M  V30 3261 C 308.66 1.29765 -3.23978 0
M  V30 3262 C 310.008 1.7351 -3.8753 0
M  V30 3263 O 311.032 1.39356 -3.27808 0
M  V30 3264 O 309.891 2.36708 -4.92576 0
M  V30 3265 H 306.985 0.389914 -0.729312 0
M  V30 3266 H 309.531 0.0627213 -1.69584 0
M  V30 3267 H 308.303 0.47608 -3.88393 0
M  V30 3268 H 307.926 2.11189 -3.36875 0
M  V30 3269 N 308.923 1.53595 0.353017 0
M  V30 3270 C 310.2 1.61002 1.11075 0
M  V30 3271 C 310.58 0.425356 2.0677 0
M  V30 3272 O 309.928 -0.583267 2.2093 0
M  V30 3273 C 310.138 2.96631 1.83877 0
M  V30 3274 C 311.486 3.51653 2.37961 0
M  V30 3275 O 312.51 2.98743 1.93987 0
M  V30 3276 O 311.369 4.44177 3.18386 0
M  V30 3277 H 308.463 0.650825 0.510251 0
M  V30 3278 H 311.009 1.6594 0.35527 0
M  V30 3279 H 309.781 3.74293 1.14108 0
M  V30 3280 H 309.404 2.95242 2.66304 0
M  V30 3281 N 310.401 -0.613514 1.45168 0
M  V30 3282 C 311.364 -1.7065 1.53007 0
M  V30 3283 C 312.364 -1.5548 0.410184 0
M  V30 3284 O 313.554 -1.60656 0.673455 0
M  V30 3285 C 310.686 -3.09875 1.42093 0
M  V30 3286 H 311.879 -1.65068 2.50385 0
M  V30 3287 H 309.432 -0.828728 1.32521 0
M  V30 3288 H 310.167 -3.21039 0.458769 0
M  V30 3289 H 309.952 -3.22293 2.23315 0
M  V30 3290 H 311.442 -3.895 1.50598 0
M  V30 3291 N 311.879 -1.3236 -0.855495 0
M  V30 3292 C 312.811 -1.17052 -1.97057 0
M  V30 3293 C 313.824 -0.10574 -1.62456 0
M  V30 3294 O 315.013 -0.354619 -1.74942 0
M  V30 3295 C 312.113 -0.769305 -3.30053 0
M  V30 3296 C 311.286 -1.9222 -3.929 0
M  V30 3297 C 310.345 -1.50466 -5.04228 0
M  V30 3298 O 309.371 -2.21655 -5.24269 0
M  V30 3299 N 310.573 -0.400209 -5.79119 0
M  V30 3300 H 313.338 -2.13103 -2.1073 0
M  V30 3301 H 310.899 -1.24885 -1.0303 0
M  V30 3302 H 312.891 -0.472407 -4.01933 0
M  V30 3303 H 311.461 0.100025 -3.1244 0
M  V30 3304 H 310.681 -2.38563 -3.13817 0
M  V30 3305 H 311.969 -2.69403 -4.31624 0
M  V30 3306 H 311.367 0.192319 -5.65373 0
M  V30 3307 H 309.924 -0.162912 -6.51596 0
M  V30 3308 N 313.357 1.07166 -1.15556 0
M  V30 3309 C 314.287 2.16403 -0.877046 0
M  V30 3310 C 315.268 1.69217 0.173111 0
M  V30 3311 O 316.453 1.94181 0.027084 0
M  V30 3312 C 313.583 3.45349 -0.367632 0
M  V30 3313 C 312.537 4.05995 -1.35468 0
M  V30 3314 C 311.863 5.30045 -0.704038 0
M  V30 3315 C 313.163 4.45804 -2.72132 0
M  V30 3316 H 314.857 2.39959 -1.79053 0
M  V30 3317 H 312.403 1.15325 -0.862331 0
M  V30 3318 H 314.356 4.21095 -0.160317 0
M  V30 3319 H 313.08 3.21385 0.581326 0
M  V30 3320 H 311.739 3.32296 -1.54839 0
M  V30 3321 H 311.387 5.02373 0.251128 0
M  V30 3322 H 311.087 5.71579 -1.36277 0
M  V30 3323 H 312.611 6.08495 -0.50654 0
M  V30 3324 H 314.025 5.12671 -2.56595 0
M  V30 3325 H 312.422 4.98296 -3.34397 0
M  V30 3326 H 313.492 3.57083 -3.28054 0
M  V30 3327 N 314.835 0.952656 1.25548 0
M  V30 3328 C 315.767 0.428609 2.25157 0
M  V30 3329 C 316.78 -0.454428 1.56329 0
M  V30 3330 O 317.969 -0.263023 1.76552 0
M  V30 3331 C 315.069 -0.401972 3.36508 0
M  V30 3332 C 314.242 0.467601 4.34893 0
M  V30 3333 C 313.301 -0.30445 5.25319 0
M  V30 3334 O 312.327 0.296473 5.68427 0
M  V30 3335 N 313.529 -1.59805 5.5807 0
M  V30 3336 H 316.294 1.28497 2.70756 0
M  V30 3337 H 313.855 0.822798 1.39433 0
M  V30 3338 H 315.847 -0.926134 3.9396 0
M  V30 3339 H 314.417 -1.15918 2.90313 0
M  V30 3340 H 313.637 1.17288 3.76347 0
M  V30 3341 H 314.925 1.06119 4.97611 0
M  V30 3342 H 314.323 -2.10823 5.24948 0
M  V30 3343 H 312.88 -2.06822 6.18116 0
M  V30 3344 N 316.313 -1.40141 0.720998 0
M  V30 3345 C 317.243 -2.33339 0.0867621 0
M  V30 3346 C 318.224 -1.53178 -0.739622 0
M  V30 3347 O 319.409 -1.81625 -0.687449 0
M  V30 3348 C 316.539 -3.37194 -0.831728 0
M  V30 3349 C 315.493 -4.27857 -0.110558 0
M  V30 3350 C 314.819 -5.22294 -1.14513 0
M  V30 3351 C 316.119 -5.11872 1.0385 0
M  V30 3352 H 317.813 -2.86626 0.865219 0
M  V30 3353 H 315.359 -1.37814 0.417516 0
M  V30 3354 H 317.312 -4.01335 -1.28485 0
M  V30 3355 H 316.036 -2.82314 -1.64214 0
M  V30 3356 H 314.695 -3.65176 0.322797 0
M  V30 3357 H 314.343 -4.63717 -1.94874 0
M  V30 3358 H 314.043 -5.83797 -0.667446 0
M  V30 3359 H 315.567 -5.89312 -1.59824 0
M  V30 3360 H 316.981 -5.69436 0.664482 0
M  V30 3361 H 315.378 -5.82445 1.4449 0
M  V30 3362 H 316.448 -4.4753 1.86668 0
M  V30 3363 N 317.792 -0.46758 -1.50504 0
M  V30 3364 C 318.755 0.317059 -2.26996 0
M  V30 3365 C 319.755 0.923513 -1.31635 0
M  V30 3366 O 320.945 0.793239 -1.55091 0
M  V30 3367 C 318.077 1.45134 -3.08462 0
M  V30 3368 H 319.27 -0.353723 -2.97807 0
M  V30 3369 H 316.823 -0.221545 -1.54722 0
M  V30 3370 H 317.558 2.15728 -2.4214 0
M  V30 3371 H 317.343 1.02232 -3.78538 0
M  V30 3372 H 318.833 2.00493 -3.66323 0
M  V30 3373 N 319.27 1.56325 -0.20005 0
M  V30 3374 C 320.2 2.22318 0.713916 0
M  V30 3375 C 321.181 1.18788 1.21752 0
M  V30 3376 O 322.366 1.47309 1.26545 0
M  V30 3377 C 319.496 2.88639 1.93144 0
M  V30 3378 C 318.45 3.98457 1.56255 0
M  V30 3379 C 317.776 4.51967 2.85709 0
M  V30 3380 C 319.076 5.16612 0.768747 0
M  V30 3381 H 320.77 2.98952 0.163755 0
M  V30 3382 H 318.316 1.43792 0.0773219 0
M  V30 3383 H 320.269 3.33491 2.57608 0
M  V30 3384 H 318.993 2.09419 2.50621 0
M  V30 3385 H 317.652 3.54305 0.941471 0
M  V30 3386 H 317.3 3.69503 3.41287 0
M  V30 3387 H 317 5.26071 2.6177 0
M  V30 3388 H 318.524 4.99523 3.51154 0
M  V30 3389 H 319.938 5.57977 1.3166 0
M  V30 3390 H 318.335 5.96812 0.627286 0
M  V30 3391 H 319.405 4.84358 -0.229168 0
M  V30 3392 N 320.748 -0.0735177 1.57428 0
M  V30 3393 C 321.973 -0.789787 1.91774 0
M  V30 3394 C 322.398 -1.70413 0.796306 0
M  V30 3395 O 321.756 -1.79555 -0.250961 0
M  V30 3396 C 321.804 -1.5609 3.25067 0
M  V30 3397 O 320.908 -2.67144 3.14178 0
M  V30 3398 H 320.249 -0.215582 0.628029 0
M  V30 3399 H 322.779 -0.0422781 2.04556 0
M  V30 3400 H 322.789 -1.94052 3.58898 0
M  V30 3401 H 321.464 -0.890015 4.06265 0
M  V30 3402 H 320.041 -2.32052 2.91901 0
M  V30 3403 N 322.226 -1.5378 -0.344866 0
M  V30 3404 C 323.156 -1.84662 -1.42906 0
M  V30 3405 C 324.137 -0.701648 -1.54955 0
M  V30 3406 O 325.322 -0.953438 -1.69184 0
M  V30 3407 C 322.452 -2.05503 -2.79974 0
M  V30 3408 C 321.406 -3.21318 -2.82734 0
M  V30 3409 C 320.732 -3.2749 -4.22675 0
M  V30 3410 C 322.032 -4.59456 -2.48389 0
M  V30 3411 H 323.726 -2.75461 -1.17311 0
M  V30 3412 H 321.272 -1.32542 -0.562896 0
M  V30 3413 H 323.225 -2.25691 -3.55867 0
M  V30 3414 H 321.949 -1.11434 -3.07002 0
M  V30 3415 H 320.608 -3.00984 -2.09294 0
M  V30 3416 H 320.256 -2.31019 -4.4681 0
M  V30 3417 H 319.956 -4.05316 -4.25433 0
M  V30 3418 H 321.48 -3.49887 -5.00412 0
M  V30 3419 H 322.894 -4.79667 -3.13995 0
M  V30 3420 H 321.291 -5.39675 -2.62432 0
M  V30 3421 H 322.361 -4.63155 -1.4358 0
M  V30 3422 N 323.704 0.605807 -1.45491 0
M  V30 3423 C 324.929 1.39625 -1.53361 0
M  V30 3424 C 325.354 1.87351 -0.167645 0
M  V30 3425 O 324.712 1.60243 0.848051 0
M  V30 3426 C 324.76 2.57559 -2.5238 0
M  V30 3427 O 323.864 3.58248 -2.04285 0
M  V30 3428 H 323.205 0.416771 -0.516912 0
M  V30 3429 H 325.735 0.737103 -1.90861 0
M  V30 3430 H 325.745 3.0478 -2.71244 0
M  V30 3431 H 324.42 2.22171 -3.51586 0
M  V30 3432 H 322.997 3.17664 -1.95305 0
M  V30 3433 N 325.182 1.32811 0.848464 0
M  V30 3434 C 326.598 1.11937 1.13764 0
M  V30 3435 C 326.798 -0.0960789 2.01271 0
M  V30 3436 O 325.854 -0.779165 2.40178 0
M  V30 3437 C 327.167 2.402 1.809 0
M  V30 3438 C 328.715 2.46016 1.93508 0
M  V30 3439 C 329.19 3.74215 2.64059 0
M  V30 3440 N 330.681 3.75232 2.71579 0
M  V30 3441 C 331.416 4.71134 3.26833 0
M  V30 3442 N 330.912 5.77406 3.8285 0
M  V30 3443 N 332.705 4.58623 3.24995 0
M  V30 3444 H 324.856 2.1073 0.265855 0
M  V30 3445 H 327.119 0.930671 0.180431 0
M  V30 3446 H 326.825 3.29093 1.24058 0
M  V30 3447 H 326.699 2.51628 2.81004 0
M  V30 3448 H 329.086 1.57577 2.49506 0
M  V30 3449 H 329.167 2.38536 0.923811 0
M  V30 3450 H 328.811 4.63031 2.08722 0
M  V30 3451 H 328.741 3.78968 3.65637 0
M  V30 3452 H 331.232 2.98423 2.31845 0
M  V30 3453 H 331.545 6.46632 4.23187 0
M  V30 3454 H 329.89 5.81152 3.81165 0
M  V30 3455 H 333.081 3.74762 2.80484 0
M  V30 3456 H 333.254 5.33535 3.67756 0
M  V30 3457 N 326.66 -1.06551 1.16123 0
M  V30 3458 C 327.57 -2.17484 0.879662 0
M  V30 3459 C 328.586 -1.73377 -0.147104 0
M  V30 3460 O 329.762 -2.01379 0.0289128 0
M  V30 3461 C 326.827 -3.44591 0.381829 0
M  V30 3462 C 325.888 -4.0322 1.4735 0
M  V30 3463 C 325.121 -5.24261 0.999324 0
M  V30 3464 O 325.344 -5.70198 -0.151957 0
M  V30 3465 O 324.278 -5.74775 1.78653 0
M  V30 3466 H 328.104 -2.44075 1.80724 0
M  V30 3467 H 325.689 -1.16042 0.940992 0
M  V30 3468 H 327.571 -4.21254 0.111053 0
M  V30 3469 H 326.246 -3.19532 -0.51777 0
M  V30 3470 H 325.153 -3.2806 1.79798 0
M  V30 3471 H 326.486 -4.32568 2.34831 0
M  V30 3472 N 328.138 -0.959301 -1.25041 0
M  V30 3473 C 329.048 -0.489994 -2.29426 0
M  V30 3474 C 330.064 0.444944 -1.68215 0
M  V30 3475 O 331.24 0.320046 -1.98841 0
M  V30 3476 C 328.305 0.220309 -3.45999 0
M  V30 3477 C 327.366 -0.753418 -4.22637 0
M  V30 3478 C 326.599 -0.076918 -5.33645 0
M  V30 3479 O 326.822 1.13649 -5.58963 0
M  V30 3480 O 325.756 -0.764824 -5.97021 0
M  V30 3481 H 329.582 -1.35755 -2.71669 0
M  V30 3482 H 327.167 -0.725961 -1.30576 0
M  V30 3483 H 329.049 0.619677 -4.16819 0
M  V30 3484 H 327.724 1.06296 -3.0575 0
M  V30 3485 H 326.631 -1.20308 -3.54227 0
M  V30 3486 H 327.964 -1.56423 -4.66683 0
M  V30 3487 N 329.616 1.39756 -0.72842 0
M  V30 3488 C 330.566 2.2792 -0.0603424 0
M  V30 3489 C 331.55 1.43922 0.719399 0
M  V30 3490 O 332.742 1.66895 0.589489 0
M  V30 3491 C 329.871 3.32582 0.851104 0
M  V30 3492 C 328.957 4.24049 0.0658641 0
M  V30 3493 N 329.348 4.96653 -0.957578 0
M  V30 3494 C 327.646 4.45013 0.296509 0
M  V30 3495 C 328.347 5.63836 -1.43052 0
M  V30 3496 N 327.323 5.38397 -0.750315 0
M  V30 3497 H 331.125 2.81504 -0.84455 0
M  V30 3498 H 328.639 1.5236 -0.562155 0
M  V30 3499 H 330.636 3.94603 1.34514 0
M  V30 3500 H 329.296 2.80558 1.63454 0
M  V30 3501 H 330.307 5.00297 -1.33877 0
M  V30 3502 H 326.984 4.03943 1.05527 0
M  V30 3503 H 328.374 6.31974 -2.28163 0
M  V30 3504 N 331.094 0.475555 1.50254 0
M  V30 3505 C 332.371 -0.139685 1.95101 0
M  V30 3506 C 332.751 -1.56555 1.41611 0
M  V30 3507 O 332.099 -2.19956 0.618993 0
M  V30 3508 C 332.309 -0.0784298 3.48912 0
M  V30 3509 C 333.657 -0.265095 4.23772 0
M  V30 3510 O 334.681 -0.154808 3.55863 0
M  V30 3511 O 333.54 -0.488327 5.44314 0
M  V30 3512 H 330.634 -0.109236 0.819754 0
M  V30 3513 H 333.18 0.536276 1.61004 0
M  V30 3514 H 331.952 0.916918 3.80405 0
M  V30 3515 H 331.575 -0.795655 3.89558 0
M  V30 3516 N 332.573 -1.56217 0.208337 0
M  V30 3517 C 333.52 -2.19699 -0.707192 0
M  V30 3518 C 334.49 -1.14836 -1.20008 0
M  V30 3519 O 335.675 -1.4314 -1.26157 0
M  V30 3520 C 332.815 -2.87061 -1.91546 0
M  V30 3521 C 331.928 -4.06483 -1.46271 0
M  V30 3522 C 331.063 -4.61665 -2.62752 0
M  V30 3523 C 330.102 -5.73417 -2.14147 0
M  V30 3524 N 329.239 -6.22948 -3.23853 0
M  V30 3525 H 334.079 -2.97575 -0.159111 0
M  V30 3526 H 331.616 -1.46948 -0.0667874 0
M  V30 3527 H 333.574 -3.24294 -2.62468 0
M  V30 3528 H 332.204 -2.11725 -2.43664 0
M  V30 3529 H 331.256 -3.74825 -0.648886 0
M  V30 3530 H 332.568 -4.87271 -1.06622 0
M  V30 3531 H 331.722 -5.01272 -3.41776 0
M  V30 3532 H 330.461 -3.80013 -3.05682 0
M  V30 3533 H 329.466 -5.33326 -1.33581 0
M  V30 3534 H 330.691 -6.56897 -1.72232 0
M  V30 3535 H 328.637 -5.44213 -3.6629 0
M  V30 3536 H 328.554 -6.98823 -2.88414 0
M  V30 3537 H 329.822 -6.6721 -4.03052 0
M  V30 3538 N 334.051 0.0651679 -1.57465 0
M  V30 3539 C 334.961 1.09448 -2.07505 0
M  V30 3540 C 335.977 1.41974 -1.00595 0
M  V30 3541 O 337.153 1.52018 -1.32107 0
M  V30 3542 C 334.218 2.38689 -2.51453 0
M  V30 3543 C 333.279 2.13073 -3.72691 0
M  V30 3544 C 332.512 3.36152 -4.14533 0
M  V30 3545 O 332.735 4.45517 -3.56189 0
M  V30 3546 O 331.669 3.23974 -5.07272 0
M  V30 3547 H 335.495 0.69935 -2.95538 0
M  V30 3548 H 333.08 0.279752 -1.46757 0
M  V30 3549 H 334.962 3.14736 -2.80212 0
M  V30 3550 H 333.637 2.77568 -1.66546 0
M  V30 3551 H 332.544 1.34709 -3.49005 0
M  V30 3552 H 333.877 1.79071 -4.5847 0
M  V30 3553 N 335.529 1.53961 0.336706 0
M  V30 3554 C 336.439 1.85432 1.43708 0
M  V30 3555 C 337.455 0.745053 1.57242 0
M  V30 3556 O 338.631 1.03804 1.72588 0
M  V30 3557 C 335.696 2.06349 2.78605 0
M  V30 3558 C 334.757 3.30191 2.74358 0
M  V30 3559 C 333.99 3.50101 4.02822 0
M  V30 3560 O 334.213 2.7371 5.00439 0
M  V30 3561 O 333.147 4.43547 4.06878 0
M  V30 3562 H 336.973 2.78975 1.20028 0
M  V30 3563 H 334.558 1.39701 0.52952 0
M  V30 3564 H 336.44 2.21513 3.58483 0
M  V30 3565 H 335.115 1.15995 3.02203 0
M  V30 3566 H 334.022 3.20425 1.93078 0
M  V30 3567 H 335.355 4.2056 2.55715 0
M  V30 3568 N 337.007 -0.598083 1.45811 0
M  V30 3569 C 338.423 -0.919847 1.30426 0
M  V30 3570 C 338.623 -1.99759 0.264303 0
M  V30 3571 O 337.679 -2.50221 -0.338472 0
M  V30 3572 C 338.992 -1.35176 2.68603 0
M  V30 3573 C 340.54 -1.46546 2.76574 0
M  V30 3574 C 341.015 -1.9311 4.15298 0
M  V30 3575 N 342.506 -2.00328 4.1764 0
M  V30 3576 C 343.241 -2.37599 5.21856 0
M  V30 3577 N 342.737 -2.73771 6.36413 0
M  V30 3578 N 344.53 -2.38021 5.09218 0
M  V30 3579 H 336.681 0.114111 2.12093 0
M  V30 3580 H 338.944 -0.0116121 0.947929 0
M  V30 3581 H 338.65 -0.633969 3.45939 0
M  V30 3582 H 338.524 -2.3164 2.97696 0
M  V30 3583 H 340.911 -2.17415 1.99537 0
M  V30 3584 H 340.992 -0.483727 2.51185 0
M  V30 3585 H 340.636 -1.22824 4.92825 0
M  V30 3586 H 340.566 -2.92213 4.38086 0
M  V30 3587 H 343.057 -1.74925 3.34977 0
M  V30 3588 H 343.37 -3.0112 7.11721 0
M  V30 3589 H 341.715 -2.71445 6.39799 0
M  V30 3590 H 344.906 -2.09174 4.18765 0
M  V30 3591 H 345.079 -2.66741 5.90554 0
M  V30 3592 N 338.485 -1.33259 -0.841409 0
M  V30 3593 C 339.734 -1.23921 -1.59143 0
M  V30 3594 C 340.047 0.1941 -1.94635 0
M  V30 3595 O 341.253 0.409474 -2.68394 0
M  V30 3596 C 339.709 -2.17119 -2.87032 0
M  V30 3597 C 339.317 -3.65606 -2.58914 0
M  V30 3598 C 341.061 -2.16648 -3.65053 0
M  V30 3599 C 338.968 -4.50726 -3.82884 0
M  V30 3600 H 337.898 -0.460264 -0.597221 0
M  V30 3601 H 340.549 -1.58307 -0.927959 0
M  V30 3602 H 338.931 -1.75663 -3.54906 0
M  V30 3603 H 340.105 -4.15487 -1.99267 0
M  V30 3604 H 338.42 -3.68341 -1.942 0
M  V30 3605 H 341.017 -2.77474 -4.57069 0
M  V30 3606 H 341.36 -1.16088 -3.99787 0
M  V30 3607 H 341.893 -2.56453 -3.041 0
M  V30 3608 H 338.632 -5.52151 -3.53283 0
M  V30 3609 H 338.152 -4.0559 -4.41879 0
M  V30 3610 H 339.831 -4.64401 -4.50489 0
M  V30 3611 N 339.963 1.05934 -1.16686 0
M  V30 3612 C 341.379 1.30938 -0.912542 0
M  V30 3613 C 341.579 1.96803 0.432533 0
M  V30 3614 O 340.635 2.23693 1.17123 0
M  V30 3615 C 341.948 2.18649 -2.06429 0
M  V30 3616 C 343.496 2.32055 -2.10047 0
M  V30 3617 C 343.971 3.23122 -3.24586 0
M  V30 3618 N 345.462 3.30706 -3.24327 0
M  V30 3619 C 346.197 4.01273 -4.09594 0
M  V30 3620 N 345.693 4.74332 -5.04956 0
M  V30 3621 N 347.486 3.97361 -3.97569 0
M  V30 3622 H 339.637 0.615777 -2.03278 0
M  V30 3623 H 341.9 0.334077 -0.887185 0
M  V30 3624 H 341.606 1.77534 -3.03603 0
M  V30 3625 H 341.48 3.19252 -2.00894 0
M  V30 3626 H 343.867 2.72415 -1.13464 0
M  V30 3627 H 343.948 1.31107 -2.19647 0
M  V30 3628 H 343.592 2.83477 -4.2143 0
M  V30 3629 H 343.522 4.24057 -3.12223 0
M  V30 3630 H 346.013 2.78644 -2.55276 0
M  V30 3631 H 346.326 5.25716 -5.6643 0
M  V30 3632 H 344.671 4.733 -5.08933 0
M  V30 3633 H 347.862 3.39405 -3.22369 0
M  V30 3634 H 348.035 4.52089 -4.64241 0
M  V30 3635 N 341.441 0.965919 1.2453 0
M  V30 3636 C 342.857 0.67216 1.44756 0
M  V30 3637 C 343.057 -0.766609 1.86347 0
M  V30 3638 O 342.113 -1.5407 2.00047 0
M  V30 3639 C 343.426 1.65473 2.51076 0
M  V30 3640 C 344.974 1.66716 2.64905 0
M  V30 3641 C 345.449 2.63766 3.74421 0
M  V30 3642 N 346.94 2.62198 3.81846 0
M  V30 3643 C 347.675 3.33966 4.66106 0
M  V30 3644 N 347.171 4.15245 5.54566 0
M  V30 3645 N 348.964 3.22799 4.60171 0
M  V30 3646 H 341.115 1.89553 0.958293 0
M  V30 3647 H 343.378 0.815979 0.482579 0
M  V30 3648 H 343.084 2.68296 2.27399 0
M  V30 3649 H 342.958 1.4261 3.49202 0
M  V30 3650 H 345.345 0.646057 2.87941 0
M  V30 3651 H 345.426 1.93642 1.67142 0
M  V30 3652 H 345.07 3.6601 3.52135 0
M  V30 3653 H 345 2.34121 4.71694 0
M  V30 3654 H 347.491 2.032 3.18619 0
M  V30 3655 H 347.804 4.66898 6.15814 0
M  V30 3656 H 346.149 4.1934 5.54237 0
M  V30 3657 H 349.34 2.58764 3.90075 0
M  V30 3658 H 349.513 3.78994 5.25612 0
M  V30 3659 N 342.919 -1.39368 0.735821 0
M  V30 3660 C 344.167 -2.00101 0.283562 0
M  V30 3661 C 344.488 -1.5868 -1.13338 0
M  V30 3662 O 343.758 -0.835423 -1.77193 0
M  V30 3663 H 342.338 -0.740024 0.101851 0
M  V30 3664 H 345 -1.70404 0.945962 0
M  V30 3665 H 344.096 -3.10323 0.332604 0
M  V30 3666 N 344.397 -0.483516 -1.5 0
M  V30 3667 C 345.674 0.129337 -1.95172 0
M  V30 3668 C 346.054 1.55802 -1.4244 0
M  V30 3669 O 345.402 2.19625 -0.630649 0
M  V30 3670 C 345.612 0.0599251 -3.48949 0
M  V30 3671 C 346.96 0.242617 -4.23906 0
M  V30 3672 O 347.984 0.135933 -3.55941 0
M  V30 3673 O 346.843 0.459454 -5.44565 0
M  V30 3674 H 343.937 0.104887 -0.820322 0
M  V30 3675 H 346.483 -0.544807 -1.60717 0
M  V30 3676 H 345.255 -0.937079 -3.79914 0
M  V30 3677 H 344.878 0.774984 -3.89974 0
M  V30 3678 N 345.875 1.56104 -0.216619 0
M  V30 3679 C 347.152 1.89988 0.465165 0
M  V30 3680 C 347.532 1.13326 1.78102 0
M  V30 3681 O 346.88 0.241033 2.27225 0
M  V30 3682 C 347.09 3.42646 0.662939 0
M  V30 3683 C 348.438 4.13311 0.972602 0
M  V30 3684 O 349.462 3.48217 0.749901 0
M  V30 3685 O 348.321 5.28396 1.39499 0
M  V30 3686 H 345.415 0.78979 0.245276 0
M  V30 3687 H 347.961 1.67721 -0.258436 0
M  V30 3688 H 346.733 3.90399 -0.26543 0
M  V30 3689 H 346.356 3.70677 1.43821 0
M  V30 3690 N 347.353 -0.0568162 1.57498 0
M  V30 3691 C 348.283 -1.06593 2.0775 0
M  V30 3692 C 349.264 -1.39448 0.974082 0
M  V30 3693 O 350.449 -1.48815 1.24771 0
M  V30 3694 C 347.579 -2.37509 2.5339 0
M  V30 3695 C 346.533 -2.1897 3.67745 0
M  V30 3696 C 345.859 -3.55402 3.99492 0
M  V30 3697 C 347.159 -1.59859 4.97235 0
M  V30 3698 H 348.853 -0.647706 2.9231 0
M  V30 3699 H 346.399 -0.310116 1.40621 0
M  V30 3700 H 348.352 -3.08409 2.87162 0
M  V30 3701 H 347.076 -2.8134 1.65878 0
M  V30 3702 H 345.735 -1.50508 3.3428 0
M  V30 3703 H 345.383 -3.9683 3.09088 0
M  V30 3704 H 345.083 -3.43831 4.76502 0
M  V30 3705 H 346.607 -4.27708 4.35773 0
M  V30 3706 H 348.021 -2.20642 5.29141 0
M  V30 3707 H 346.418 -1.58942 5.78669 0
M  V30 3708 H 347.488 -0.561506 4.81638 0
M  V30 3709 N 348.832 -1.54138 -0.328536 0
M  V30 3710 C 350.248 -1.44736 -0.672574 0
M  V30 3711 C 350.448 -0.616217 -1.91846 0
M  V30 3712 O 349.504 -0.113067 -2.52247 0
M  V30 3713 C 350.817 -2.884 -0.851217 0
M  V30 3714 C 352.365 -2.98271 -0.948877 0
M  V30 3715 C 352.84 -4.43074 -1.15973 0
M  V30 3716 N 354.331 -4.46665 -1.22658 0
M  V30 3717 C 355.066 -5.55857 -1.40751 0
M  V30 3718 N 354.562 -6.75026 -1.5592 0
M  V30 3719 N 356.355 -5.43495 -1.4342 0
M  V30 3720 H 348.506 -2.06661 0.490421 0
M  V30 3721 H 350.769 -0.934812 0.157579 0
M  V30 3722 H 350.475 -3.51699 -0.00704236 0
M  V30 3723 H 350.349 -3.34225 -1.74853 0
M  V30 3724 H 352.736 -2.35102 -1.78356 0
M  V30 3725 H 352.817 -2.55785 -0.0281435 0
M  V30 3726 H 352.461 -5.06827 -0.329915 0
M  V30 3727 H 352.391 -4.83165 -2.09426 0
M  V30 3728 H 354.882 -3.60797 -1.124 0
M  V30 3729 H 355.195 -7.54004 -1.69404 0
M  V30 3730 H 353.54 -6.77944 -1.53027 0
M  V30 3731 H 356.731 -4.49349 -1.31162 0
M  V30 3732 H 356.904 -6.28649 -1.57178 0
M  V30 3733 N 350.31 0.590341 -1.46126 0
M  V30 3734 C 351.24 1.71032 -1.58966 0
M  V30 3735 C 352.221 1.64302 -0.440335 0
M  V30 3736 O 353.406 1.82436 -0.665634 0
M  V30 3737 C 350.536 3.09665 -1.57241 0
M  V30 3738 C 349.49 3.31221 -2.71066 0
M  V30 3739 C 348.816 4.70303 -2.54399 0
M  V30 3740 C 350.116 3.19796 -4.1295 0
M  V30 3741 H 351.81 1.60543 -2.52718 0
M  V30 3742 H 349.356 0.770933 -1.21625 0
M  V30 3743 H 351.309 3.87831 -1.64819 0
M  V30 3744 H 350.033 3.21036 -0.600289 0
M  V30 3745 H 348.692 2.55452 -2.62944 0
M  V30 3746 H 348.34 4.78429 -1.55288 0
M  V30 3747 H 348.04 4.85679 -3.30741 0
M  V30 3748 H 349.564 5.50647 -2.63857 0
M  V30 3749 H 350.978 3.87815 -4.22223 0
M  V30 3750 H 349.375 3.46696 -4.89818 0
M  V30 3751 H 350.445 2.16983 -4.33643 0
M  V30 3752 N 351.788 1.33704 0.83433 0
M  V30 3753 C 352.72 1.20172 1.9517 0
M  V30 3754 C 353.733 0.131572 1.62267 0
M  V30 3755 O 354.922 0.382406 1.74356 0
M  V30 3756 C 352.022 0.821716 3.28787 0
M  V30 3757 C 351.195 1.98446 3.89792 0
M  V30 3758 C 350.254 1.58469 5.01771 0
M  V30 3759 O 349.28 2.29968 5.20676 0
M  V30 3760 N 350.482 0.492291 5.78409 0
M  V30 3761 H 353.247 2.16429 2.07313 0
M  V30 3762 H 350.808 1.26509 1.0103 0
M  V30 3763 H 352.8 0.536291 4.01131 0
M  V30 3764 H 351.37 -0.0503058 3.1256 0
M  V30 3765 H 350.59 2.43526 3.09982 0
M  V30 3766 H 351.878 2.76236 4.27283 0
M  V30 3767 H 351.276 -0.102349 5.65607 0
M  V30 3768 H 349.833 0.266555 6.51255 0
M  V30 3769 N 353.266 -1.05314 1.17247 0
M  V30 3770 C 354.199 -2.12512 0.831507 0
M  V30 3771 C 355.177 -1.61351 -0.201168 0
M  V30 3772 O 356.361 -1.88317 -0.0829831 0
M  V30 3773 C 353.488 -3.37848 0.24015 0
M  V30 3774 C 352.534 -4.07832 1.24801 0
M  V30 3775 S 353.367 -4.56537 2.79882 0
M  V30 3776 C 354.523 -5.85122 2.22223 0
M  V30 3777 H 354.756 -2.41106 1.7394 0
M  V30 3778 H 352.289 -1.17896 0.996988 0
M  V30 3779 H 354.247 -4.10391 -0.0945588 0
M  V30 3780 H 352.908 -3.07392 -0.645668 0
M  V30 3781 H 352.101 -4.97883 0.78287 0
M  V30 3782 H 351.703 -3.41348 1.52831 0
M  V30 3783 H 353.995 -6.58408 1.59703 0
M  V30 3784 H 354.938 -6.36381 3.10523 0
M  V30 3785 H 355.346 -5.39626 1.65722 0
M  V30 3786 N 354.744 -0.972509 -1.24016 0
M  V30 3787 C 355.707 -0.511403 -2.23422 0
M  V30 3788 C 356.707 0.394679 -1.55881 0
M  V30 3789 O 357.897 0.189469 -1.73167 0
M  V30 3790 C 355.029 0.258769 -3.39916 0
M  V30 3791 H 356.222 -1.39024 -2.6573 0
M  V30 3792 H 353.775 -0.757585 -1.36713 0
M  V30 3793 H 354.51 1.1545 -3.03054 0
M  V30 3794 H 354.295 -0.391522 -3.9014 0
M  V30 3795 H 355.785 0.570244 -4.13688 0
M  V30 3796 N 356.222 1.38976 -0.743202 0
M  V30 3797 C 357.471 1.99581 -0.291592 0
M  V30 3798 C 357.784 1.59656 1.13001 0
M  V30 3799 O 358.99 2.13157 1.68156 0
M  V30 3800 C 357.446 3.56813 -0.470391 0
M  V30 3801 C 357.054 4.05695 -1.90041 0
M  V30 3802 C 358.798 4.24423 -0.0809709 0
M  V30 3803 C 356.705 5.5553 -2.02832 0
M  V30 3804 H 355.635 0.746615 -0.105272 0
M  V30 3805 H 358.286 1.58872 -0.918258 0
M  V30 3806 H 356.668 3.95359 0.225299 0
M  V30 3807 H 357.842 3.78464 -2.62872 0
M  V30 3808 H 356.157 3.50775 -2.24379 0
M  V30 3809 H 358.754 5.34474 -0.155445 0
M  V30 3810 H 359.097 4.04962 0.96497 0
M  V30 3811 H 359.63 3.9108 -0.728124 0
M  V30 3812 H 356.369 5.79881 -3.05643 0
M  V30 3813 H 355.889 5.84537 -1.34448 0
M  V30 3814 H 357.568 6.21069 -1.81335 0
M  V30 3815 N 357.7 0.491464 1.49741 0
M  V30 3816 C 358.61 -0.296835 2.32715 0
M  V30 3817 C 359.626 -0.976536 1.44013 0
M  V30 3818 O 360.802 -0.960023 1.77047 0
M  V30 3819 C 357.867 -1.35288 3.19215 0
M  V30 3820 C 356.928 -0.687632 4.23757 0
M  V30 3821 C 356.161 -1.69336 5.06123 0
M  V30 3822 O 356.384 -2.92219 4.89861 0
M  V30 3823 O 355.318 -1.25394 5.88693 0
M  V30 3824 H 359.144 0.382048 3.01287 0
M  V30 3825 H 356.729 0.252953 1.47243 0
M  V30 3826 H 358.611 -1.96411 3.72828 0
M  V30 3827 H 357.286 -2.01487 2.53347 0
M  V30 3828 H 356.193 -0.0369159 3.74082 0
M  V30 3829 H 357.526 -0.0682566 4.92153 0
M  V30 3830 N 359.178 -1.55987 0.224894 0
M  V30 3831 C 360.088 -2.24066 -0.69511 0
M  V30 3832 C 361.104 -1.24939 -1.21104 0
M  V30 3833 O 362.28 -1.5776 -1.25195 0
M  V30 3834 C 359.345 -2.90983 -1.88493 0
M  V30 3835 C 358.406 -4.05462 -1.41064 0
M  V30 3836 C 357.639 -4.69179 -2.54375 0
M  V30 3837 O 357.862 -4.31895 -3.72589 0
M  V30 3838 O 356.796 -5.58108 -2.25386 0
M  V30 3839 H 360.622 -3.03353 -0.145149 0
M  V30 3840 H 358.207 -1.49399 -0.00569476 0
M  V30 3841 H 360.089 -3.33209 -2.57972 0
M  V30 3842 H 358.764 -2.14653 -2.42293 0
M  V30 3843 H 357.671 -3.67798 -0.683774 0
M  V30 3844 H 359.004 -4.83545 -0.918985 0
M  V30 3845 N 360.656 0.0484629 -1.57525 0
M  V30 3846 C 361.881 0.759177 -1.93006 0
M  V30 3847 C 362.306 1.69125 -0.823317 0
M  V30 3848 O 361.664 1.79931 0.222364 0
M  V30 3849 C 361.712 1.50899 -3.27509 0
M  V30 3850 O 360.816 2.62112 -3.18388 0
M  V30 3851 H 360.157 0.205564 -0.631379 0
M  V30 3852 H 362.687 0.00972959 -2.04598 0
M  V30 3853 H 362.697 1.88317 -3.6194 0
M  V30 3854 H 361.372 0.825269 -4.0763 0
M  V30 3855 H 359.949 2.27379 -2.95556 0
M  V30 3856 N 362.134 1.5431 0.320358 0
M  V30 3857 C 363.081 1.83918 1.39438 0
M  V30 3858 C 364.051 0.686525 1.51248 0
M  V30 3859 O 365.236 0.933269 1.66417 0
M  V30 3860 C 362.376 2.075 2.75749 0
M  V30 3861 C 361.489 3.35177 2.72544 0
M  V30 3862 C 360.624 3.48704 4.00723 0
M  V30 3863 C 359.663 4.70244 3.91838 0
M  V30 3864 N 358.8 4.80679 5.11754 0
M  V30 3865 H 363.64 2.75544 1.13489 0
M  V30 3866 H 361.177 1.36459 0.549309 0
M  V30 3867 H 363.135 2.19166 3.54996 0
M  V30 3868 H 361.765 1.19163 3 0
M  V30 3869 H 360.817 3.32233 1.85271 0
M  V30 3870 H 362.129 4.24534 2.61863 0
M  V30 3871 H 361.283 3.59928 4.88402 0
M  V30 3872 H 360.022 2.57445 4.14214 0
M  V30 3873 H 359.027 4.59072 3.02544 0
M  V30 3874 H 360.252 5.6289 3.7991 0
M  V30 3875 H 358.198 3.92337 5.25745 0
M  V30 3876 H 358.115 5.64007 5.0342 0
M  V30 3877 H 359.383 4.96239 6.01138 0
M  V30 3878 N 363.613 -0.582584 1.46437 0
M  V30 3879 C 365.029 -0.905962 1.31394 0
M  V30 3880 C 365.229 -1.99468 0.285476 0
M  V30 3881 O 364.285 -2.50566 -0.311914 0
M  V30 3882 C 365.598 -1.3232 2.70022 0
M  V30 3883 C 367.146 -1.43604 2.78113 0
M  V30 3884 C 367.621 -1.88694 4.17323 0
M  V30 3885 N 369.112 -1.95887 4.19741 0
M  V30 3886 C 369.847 -2.32051 5.24347 0
M  V30 3887 N 369.343 -2.67006 6.39281 0
M  V30 3888 N 371.136 -2.32606 5.11713 0
M  V30 3889 H 363.287 0.1366 2.1196 0
M  V30 3890 H 365.55 -0.00155736 0.947999 0
M  V30 3891 H 365.256 -0.597242 3.46592 0
M  V30 3892 H 365.13 -2.28469 3.00136 0
M  V30 3893 H 367.517 -2.15286 2.01832 0
M  V30 3894 H 367.598 -0.457059 2.51684 0
M  V30 3895 H 367.242 -1.1759 4.941 0
M  V30 3896 H 367.172 -2.8755 4.4116 0
M  V30 3897 H 369.663 -1.71362 3.36814 0
M  V30 3898 H 369.976 -2.93554 7.14875 0
M  V30 3899 H 368.321 -2.64644 6.42642 0
M  V30 3900 H 371.512 -2.04721 4.2096 0
M  V30 3901 H 371.685 -2.60462 5.93349 0
M  V30 3902 N 365.091 -1.34144 -0.827227 0
M  V30 3903 C 366.001 -1.27428 -1.96975 0
M  V30 3904 C 367.017 -0.182728 -1.73038 0
M  V30 3905 O 368.193 -0.408426 -1.97215 0
M  V30 3906 C 365.258 -1.02526 -3.31194 0
M  V30 3907 C 364.319 -2.20796 -3.68168 0
M  V30 3908 C 363.552 -1.97073 -4.95982 0
M  V30 3909 O 363.775 -0.926822 -5.6282 0
M  V30 3910 O 362.709 -2.83912 -5.30733 0
M  V30 3911 H 366.535 -2.23537 -2.05584 0
M  V30 3912 H 364.12 -1.14307 -0.961989 0
M  V30 3913 H 366.002 -0.904026 -4.11589 0
M  V30 3914 H 364.677 -0.0945389 -3.23562 0
M  V30 3915 H 363.584 -2.38477 -2.88235 0
M  V30 3916 H 364.917 -3.12243 -3.8048 0
M  V30 3917 N 366.569 1.04691 -1.17803 0
M  V30 3918 C 367.797 1.81446 -0.99423 0
M  V30 3919 C 368.212 1.83174 0.457459 0
M  V30 3920 O 367.569 1.26265 1.31771 0
M  V30 3921 C 367.62 3.27334 -1.5341 0
M  V30 3922 O 367.341 3.25798 -2.92895 0
M  V30 3923 C 368.842 4.20759 -1.39559 0
M  V30 3924 H 366.062 0.571599 -0.351447 0
M  V30 3925 H 368.606 1.31982 -1.56208 0
M  V30 3926 H 366.761 3.74052 -1.00815 0
M  V30 3927 H 367.175 4.17144 -3.17949 0
M  V30 3928 H 368.649 5.21084 -1.82141 0
M  V30 3929 H 369.126 4.37856 -0.343394 0
M  V30 3930 H 369.732 3.79901 -1.91195 0
M  V30 3931 N 368.047 0.979072 1.23499 0
M  V30 3932 C 369.295 0.645941 1.91499 0
M  V30 3933 C 369.616 -0.822948 1.76784 0
M  V30 3934 O 368.886 -1.58854 1.14639 0
M  V30 3935 H 367.466 0.235919 0.708767 0
M  V30 3936 H 370.128 1.2426 1.50152 0
M  V30 3937 H 369.224 0.896411 2.9895 0
M  V30 3938 N 369.525 -1.3858 0.750561 0
M  V30 3939 C 370.773 -1.99789 0.30477 0
M  V30 3940 C 371.094 -1.59874 -1.11649 0
M  V30 3941 O 370.364 -0.85417 -1.76297 0
M  V30 3942 H 368.944 -0.738902 0.109694 0
M  V30 3943 H 371.606 -1.69391 0.963983 0
M  V30 3944 H 370.702 -3.09952 0.365499 0
M  V30 3945 N 371.003 -0.499398 -1.49478 0
M  V30 3946 C 371.95 0.279881 -2.29097 0
M  V30 3947 C 372.92 0.961805 -1.3542 0
M  V30 3948 O 374.105 0.968777 -1.64376 0
M  V30 3949 C 371.245 1.33932 -3.18051 0
M  V30 3950 C 370.358 0.669333 -4.26783 0
M  V30 3951 C 369.493 1.70907 -5.02955 0
M  V30 3952 C 368.532 1.02087 -6.03527 0
M  V30 3953 N 367.669 2.00474 -6.7287 0
M  V30 3954 H 372.509 -0.405317 -2.95231 0
M  V30 3955 H 370.046 -0.211726 -1.45568 0
M  V30 3956 H 372.004 1.96553 -3.67998 0
M  V30 3957 H 370.634 1.9933 -2.53904 0
M  V30 3958 H 369.686 -0.0701234 -3.80335 0
M  V30 3959 H 370.998 0.127503 -4.98637 0
M  V30 3960 H 370.152 2.41037 -5.56764 0
M  V30 3961 H 368.891 2.28476 -4.30871 0
M  V30 3962 H 367.896 0.305338 -5.48951 0
M  V30 3963 H 369.121 0.451708 -6.77596 0
M  V30 3964 H 367.067 2.57007 -6.03559 0
M  V30 3965 H 366.984 1.51353 -7.40694 0
M  V30 3966 H 368.252 2.69897 -7.31284 0
M  V30 3967 N 372.481 1.55866 -0.233164 0
M  V30 3968 C 373.391 2.24431 0.683217 0
M  V30 3969 C 374.407 1.2558 1.2044 0
M  V30 3970 O 375.583 1.58422 1.24356 0
M  V30 3971 C 372.648 2.91979 1.86947 0
M  V30 3972 C 371.709 4.06204 1.38912 0
M  V30 3973 C 370.942 4.70522 2.51883 0
M  V30 3974 O 371.165 4.33865 3.70293 0
M  V30 3975 O 370.099 5.59296 2.22423 0
M  V30 3976 H 373.925 3.03426 0.129059 0
M  V30 3977 H 371.51 1.494 -0.0022283 0
M  V30 3978 H 373.392 3.34573 2.56201 0
M  V30 3979 H 372.067 2.15935 2.41151 0
M  V30 3980 H 370.974 3.68155 0.664259 0
M  V30 3981 H 372.307 4.84025 0.893328 0
M  V30 3982 N 373.959 -0.0401083 1.57549 0
M  V30 3983 C 374.869 -1.06133 2.0922 0
M  V30 3984 C 375.885 -1.40356 1.0284 0
M  V30 3985 O 377.061 -1.49897 1.34509 0
M  V30 3986 C 374.126 -2.34658 2.55218 0
M  V30 3987 C 373.187 -2.07117 3.76033 0
M  V30 3988 C 372.42 -3.29514 4.19829 0
M  V30 3989 O 372.643 -4.39794 3.63232 0
M  V30 3990 O 371.577 -3.15863 5.12362 0
M  V30 3991 H 375.403 -0.652244 2.96613 0
M  V30 3992 H 372.988 -0.256368 1.47184 0
M  V30 3993 H 374.87 -3.10239 2.85184 0
M  V30 3994 H 373.545 -2.74883 1.70941 0
M  V30 3995 H 372.452 -1.29139 3.51104 0
M  V30 3996 H 373.785 -1.71754 4.61261 0
M  V30 3997 N 375.437 -1.54477 -0.31217 0
M  V30 3998 C 376.662 -1.77526 -1.07235 0
M  V30 3999 C 377.087 -0.527775 -1.80544 0
M  V30 4000 O 376.445 0.52121 -1.73646 0
M  V30 4001 C 376.493 -2.97535 -2.03728 0
M  V30 4002 O 375.597 -2.69878 -3.11833 0
M  V30 4003 H 374.938 -0.58792 -0.30862 0
M  V30 4004 H 377.468 -2.01532 -0.352993 0
M  V30 4005 H 377.478 -3.25198 -2.46395 0
M  V30 4006 H 376.153 -3.87996 -1.49774 0
M  V30 4007 H 374.73 -2.53199 -2.7376 0
M  V30 4008 N 376.915 0.57481 -1.46744 0
M  V30 4009 C 378.14 1.36341 -1.56288 0
M  V30 4010 C 378.565 1.86954 -0.207347 0
M  V30 4011 O 377.923 1.62006 0.813871 0
M  V30 4012 C 377.971 2.52147 -2.57787 0
M  V30 4013 O 377.075 3.53834 -2.11838 0
M  V30 4014 H 376.416 0.405713 -0.525636 0
M  V30 4015 H 378.946 0.696453 -1.92382 0
M  V30 4016 H 378.956 2.98958 -2.77648 0
M  V30 4017 H 377.631 2.14663 -3.5622 0
M  V30 4018 H 376.208 3.1345 -2.01999 0
M  V30 4019 N 378.394 1.34581 0.820102 0
M  V30 4020 C 379.324 1.29038 1.94606 0
M  V30 4021 C 380.305 0.1673 1.69275 0
M  V30 4022 O 381.49 0.360112 1.90832 0
M  V30 4023 C 378.62 1.04793 3.31113 0
M  V30 4024 C 377.574 2.13597 3.70891 0
M  V30 4025 C 376.9 1.74537 5.05412 0
M  V30 4026 C 378.2 3.55451 3.8269 0
M  V30 4027 H 379.894 2.23248 1.99501 0
M  V30 4028 H 377.44 1.0747 0.958449 0
M  V30 4029 H 379.393 0.995592 4.0947 0
M  V30 4030 H 378.117 0.0702565 3.26524 0
M  V30 4031 H 376.776 2.17905 2.9481 0
M  V30 4032 H 376.424 0.754226 4.97313 0
M  V30 4033 H 376.124 2.47361 5.32997 0
M  V30 4034 H 377.648 1.70803 5.86224 0
M  V30 4035 H 379.062 3.5354 4.51312 0
M  V30 4036 H 377.459 4.26922 4.21732 0
M  V30 4037 H 378.529 3.92587 2.84611 0
M  V30 4038 N 379.872 -1.04064 1.18357 0
M  V30 4039 C 380.805 -2.11618 0.854 0
M  V30 4040 C 381.783 -1.61555 -0.184043 0
M  V30 4041 O 382.967 -1.88395 -0.0630048 0
M  V30 4042 C 380.094 -3.37574 0.27597 0
M  V30 4043 C 379.14 -4.06485 1.2912 0
M  V30 4044 S 379.973 -4.53543 2.84709 0
M  V30 4045 C 381.129 -5.82732 2.28417 0
M  V30 4046 H 381.362 -2.39247 1.76488 0
M  V30 4047 H 378.895 -1.16832 1.00944 0
M  V30 4048 H 380.853 -4.10468 -0.051026 0
M  V30 4049 H 379.514 -3.0806 -0.613028 0
M  V30 4050 H 378.707 -4.97024 0.835633 0
M  V30 4051 H 378.309 -3.39708 1.56443 0
M  V30 4052 H 380.601 -6.56677 1.66677 0
M  V30 4053 H 381.544 -6.33052 3.17256 0
M  V30 4054 H 381.952 -5.37838 1.71436 0
M  V30 4055 N 381.35 -0.985608 -1.22978 0
M  V30 4056 C 382.627 -0.573599 -1.87001 0
M  V30 4057 C 383.007 0.949213 -1.88555 0
M  V30 4058 O 382.355 1.82811 -1.37086 0
M  V30 4059 C 382.565 -1.18564 -3.28243 0
M  V30 4060 C 383.913 -1.28163 -4.04796 0
M  V30 4061 O 384.937 -1.13949 -3.37482 0
M  V30 4062 O 383.796 -1.50832 -5.25273 0
M  V30 4063 H 380.89 -0.193868 -0.803955 0
M  V30 4064 H 383.436 -1.08102 -1.30813 0
M  V30 4065 H 382.208 -2.22758 -3.21706 0
M  V30 4066 H 381.831 -0.663363 -3.92027 0
M  V30 4067 N 382.828 1.3818 -0.7579 0
M  V30 4068 C 383.758 2.33027 -0.148597 0
M  V30 4069 C 384.739 1.55085 0.69875 0
M  V30 4070 O 385.924 1.83384 0.639053 0
M  V30 4071 C 383.054 3.3928 0.742034 0
M  V30 4072 C 382.008 4.28 -0.00291946 0
M  V30 4073 C 381.334 5.25146 1.00625 0
M  V30 4074 C 382.634 5.08938 -1.17385 0
M  V30 4075 H 384.328 2.84231 -0.940909 0
M  V30 4076 H 381.874 1.36659 -0.453908 0
M  V30 4077 H 383.827 4.046 1.17799 0
M  V30 4078 H 382.551 2.86569 1.56671 0
M  V30 4079 H 381.21 3.64192 -0.419504 0
M  V30 4080 H 380.858 4.68721 1.8251 0
M  V30 4081 H 380.558 5.85361 0.512428 0
M  V30 4082 H 382.082 5.93342 1.44143 0
M  V30 4083 H 383.496 5.67474 -0.815224 0
M  V30 4084 H 381.893 5.7841 -1.59882 0
M  V30 4085 H 382.963 4.42424 -1.98468 0
M  V30 4086 N 384.306 0.507319 1.49211 0
M  V30 4087 C 385.269 -0.256763 2.27757 0
M  V30 4088 C 386.269 -0.888287 1.34038 0
M  V30 4089 O 387.459 -0.751841 1.5714 0
M  V30 4090 C 384.591 -1.36905 3.12202 0
M  V30 4091 H 385.784 0.432557 2.96764 0
M  V30 4092 H 383.337 0.262488 1.5408 0
M  V30 4093 H 384.072 -2.09233 2.47775 0
M  V30 4094 H 383.857 -0.921599 3.81115 0
M  V30 4095 H 385.347 -1.9071 3.7151 0
M  V30 4096 N 385.784 -1.5574 0.241426 0
M  V30 4097 C 387.061 -1.90704 -0.434881 0
M  V30 4098 C 387.441 -1.16145 -1.76277 0
M  V30 4099 O 386.789 -0.277152 -2.26813 0
M  V30 4100 C 386.999 -3.43657 -0.608343 0
M  V30 4101 C 388.347 -4.14806 -0.906725 0
M  V30 4102 O 389.371 -3.49366 -0.694408 0
M  V30 4103 O 388.23 -5.30548 -1.31075 0
M  V30 4104 H 385.324 -0.793592 -0.23268 0
M  V30 4105 H 387.87 -1.67288 0.285086 0
M  V30 4106 H 386.642 -3.89927 0.327505 0
M  V30 4107 H 386.265 -3.72918 -1.37906 0
M  V30 4108 N 387.262 0.0317525 -1.57568 0
M  V30 4109 C 388.508 0.724175 -1.8943 0
M  V30 4110 C 388.841 1.75149 -0.838836 0
M  V30 4111 O 388.116 1.93948 0.146422 0
M  V30 4112 C 388.399 1.39615 -3.31933 0
M  V30 4113 C 388.252 0.382537 -4.4817 0
M  V30 4114 C 389.571 2.33084 -3.73309 0
M  V30 4115 H 386.69 0.261797 -0.688935 0
M  V30 4116 H 389.332 -0.013017 -1.89996 0
M  V30 4117 H 387.482 2.02451 -3.31581 0
M  V30 4118 H 389.154 -0.243689 -4.60656 0
M  V30 4119 H 387.397 -0.29844 -4.32772 0
M  V30 4120 H 388.068 0.891145 -5.44759 0
M  V30 4121 H 390.544 1.80295 -3.7501 0
M  V30 4122 H 389.42 2.77084 -4.73831 0
M  V30 4123 H 389.681 3.19643 -3.05419 0
M  V30 4124 N 388.74 1.54641 0.303973 0
M  V30 4125 C 389.987 1.7378 1.03955 0
M  V30 4126 C 390.315 0.521986 1.87365 0
M  V30 4127 O 389.57 -0.496099 1.89308 0
M  V30 4128 C 389.869 2.97753 1.97681 0
M  V30 4129 C 389.535 4.31671 1.30271 0
M  V30 4130 C 388.197 4.68075 1.11619 0
M  V30 4131 C 390.549 5.147 0.82055 0
M  V30 4132 C 387.877 5.8509 0.434304 0
M  V30 4133 C 390.229 6.32416 0.152395 0
M  V30 4134 C 388.893 6.67484 -0.0461067 0
M  V30 4135 H 388.163 0.635908 0.380398 0
M  V30 4136 H 390.81 1.88896 0.314718 0
M  V30 4137 H 389.115 2.77406 2.76682 0
M  V30 4138 H 390.812 3.09756 2.54661 0
M  V30 4139 H 387.402 4.03041 1.45795 0
M  V30 4140 H 391.586 4.87077 0.952374 0
M  V30 4141 H 386.842 6.10806 0.269495 0
M  V30 4142 H 391.016 6.96023 -0.229126 0
M  V30 4143 H 388.643 7.58011 -0.576494 0
M  V30 4144 N 390.218 -0.567019 1.47046 0
M  V30 4145 C 391.446 -1.35027 1.56765 0
M  V30 4146 C 391.861 -1.8758 0.214316 0
M  V30 4147 O 391.218 -1.64471 -0.790919 0
M  V30 4148 C 391.269 -2.52698 2.58507 0
M  V30 4149 O 390.99 -2.0232 3.88585 0
M  V30 4150 C 392.491 -3.45043 2.78316 0
M  V30 4151 H 389.711 -0.41195 0.529658 0
M  V30 4152 H 392.255 -0.687832 1.92585 0
M  V30 4153 H 390.41 -3.149 2.25648 0
M  V30 4154 H 390.824 -2.79068 4.44096 0
M  V30 4155 H 392.298 -4.2405 3.53391 0
M  V30 4156 H 392.775 -3.97971 1.85784 0
M  V30 4157 H 393.381 -2.88665 3.12334 0
M  V30 4158 N 391.696 -1.35014 -0.812953 0
M  V30 4159 C 392.659 -1.27292 -1.90602 0
M  V30 4160 C 393.659 -0.185817 -1.59723 0
M  V30 4161 O 394.849 -0.439102 -1.68575 0
M  V30 4162 C 391.981 -0.967676 -3.26877 0
M  V30 4163 H 393.174 -2.24479 -1.9887 0
M  V30 4164 H 390.727 -1.19446 -1.00808 0
M  V30 4165 H 391.462 0.0005954 -3.243 0
M  V30 4166 H 391.247 -1.75412 -3.50675 0
M  V30 4167 H 392.737 -0.939085 -4.06904 0
M  V30 4168 N 393.175 1.03435 -1.18907 0
M  V30 4169 C 394.586 1.58195 -0.991523 0
M  V30 4170 C 394.937 1.90801 0.457081 0
M  V30 4171 O 394.062 1.70272 1.33553 0
M  V30 4172 C 394.657 2.87432 -1.79355 0
M  V30 4173 C 393.216 3.38785 -1.64017 0
M  V30 4174 C 392.363 2.12292 -1.78402 0
M  V30 4175 H 395.314 0.860299 -1.33359 0
M  V30 4176 H 395.335 3.58096 -1.28638 0
M  V30 4177 H 394.847 2.63669 -2.84781 0
M  V30 4178 H 392.948 3.67547 -0.611536 0
M  V30 4179 H 393.061 4.12186 -2.44212 0
M  V30 4180 H 391.425 2.23901 -1.2141 0
M  V30 4181 H 392.208 1.90977 -2.85277 0
M  V30 4182 N 394.653 0.992116 1.22453 0
M  V30 4183 C 395.616 0.546883 2.2258 0
M  V30 4184 C 396.616 -0.369829 1.56489 0
M  V30 4185 O 397.806 -0.161896 1.73446 0
M  V30 4186 C 394.938 -0.204659 3.40285 0
M  V30 4187 H 396.131 1.43234 2.63484 0
M  V30 4188 H 393.684 0.779239 1.3549 0
M  V30 4189 H 394.419 -1.10614 3.04853 0
M  V30 4190 H 394.204 0.45354 3.89468 0
M  V30 4191 H 395.694 -0.504358 4.14543 0
M  V30 4192 N 396.131 -1.37776 0.765217 0
M  V30 4193 C 397.542 -1.82521 0.392819 0
M  V30 4194 C 397.893 -1.63789 -1.08017 0
M  V30 4195 O 397.018 -1.14542 -1.83601 0
M  V30 4196 C 397.613 -3.31358 0.706214 0
M  V30 4197 C 396.172 -3.74406 0.386952 0
M  V30 4198 C 395.319 -2.60394 0.953422 0
M  V30 4199 H 398.27 -1.2634 0.960412 0
M  V30 4200 H 398.291 -3.80498 -0.0114706 0
M  V30 4201 H 397.803 -3.44959 1.77833 0
M  V30 4202 H 395.904 -3.66377 -0.678112 0
M  V30 4203 H 396.017 -4.70749 0.890636 0
M  V30 4204 H 394.381 -2.51878 0.378064 0
M  V30 4205 H 395.164 -2.76791 2.03081 0
M  V30 4206 N 397.609 -0.515225 -1.4894 0
M  V30 4207 C 398.572 0.244681 -2.2789 0
M  V30 4208 C 399.572 0.881166 -1.34507 0
M  V30 4209 O 400.762 0.743497 -1.57537 0
M  V30 4210 C 397.894 1.35247 -3.12923 0
M  V30 4211 H 399.087 -0.448289 -2.96531 0
M  V30 4212 H 396.64 -0.270656 -1.53939 0
M  V30 4213 H 397.375 2.07916 -2.48881 0
M  V30 4214 H 397.16 0.901374 -3.81599 0
M  V30 4215 H 398.65 1.88737 -3.72516 0
M  V30 4216 N 399.087 1.5561 -0.249682 0
M  V30 4217 C 400.498 1.84979 0.252949 0
M  V30 4218 C 400.849 1.17153 1.57384 0
M  V30 4219 O 399.974 0.450884 2.11651 0
M  V30 4220 C 400.569 3.35584 0.465732 0
M  V30 4221 C 399.128 3.65169 0.912624 0
M  V30 4222 C 398.275 2.77299 -0.00859085 0
M  V30 4223 H 401.226 1.51513 -0.47217 0
M  V30 4224 H 401.247 3.57313 1.30795 0
M  V30 4225 H 400.759 3.8492 -0.49579 0
M  V30 4226 H 398.86 3.21312 1.88652 0
M  V30 4227 H 398.973 4.72912 0.767559 0
M  V30 4228 H 397.337 2.49678 0.50327 0
M  V30 4229 H 398.12 3.29442 -0.965537 0
M  V30 4230 N 400.565 -0.0233959 1.57583 0
M  V30 4231 C 401.793 -0.724682 1.93794 0
M  V30 4232 C 402.208 -1.68588 0.849912 0
M  V30 4233 O 401.565 -1.81676 -0.173204 0
M  V30 4234 C 401.616 -1.47684 3.29957 0
M  V30 4235 O 401.337 -0.554222 4.3458 0
M  V30 4236 C 402.838 -2.27477 3.80485 0
M  V30 4237 H 400.058 -0.203317 0.639455 0
M  V30 4238 H 402.602 0.0207653 2.04489 0
M  V30 4239 H 400.757 -2.17412 3.20641 0
M  V30 4240 H 401.171 -1.08232 5.13212 0
M  V30 4241 H 402.645 -2.7564 4.78254 0
M  V30 4242 H 403.122 -3.09144 3.11972 0
M  V30 4243 H 403.728 -1.62813 3.92902 0
M  V30 4244 N 402.043 -1.548 -0.295768 0
M  V30 4245 C 403.271 -1.78327 -1.04914 0
M  V30 4246 C 403.686 -0.545316 -1.80753 0
M  V30 4247 O 403.043 0.485013 -1.75937 0
M  V30 4248 C 403.094 -2.99418 -2.02561 0
M  V30 4249 O 402.815 -4.18431 -1.29798 0
M  V30 4250 C 404.316 -3.35375 -2.89895 0
M  V30 4251 H 401.536 -0.594618 -0.310918 0
M  V30 4252 H 404.08 -2.01763 -0.333454 0
M  V30 4253 H 402.235 -2.78175 -2.69624 0
M  V30 4254 H 402.649 -4.86736 -1.95419 0
M  V30 4255 H 404.123 -4.23332 -3.54251 0
M  V30 4256 H 404.6 -2.53761 -3.58472 0
M  V30 4257 H 405.206 -3.58796 -2.28355 0
M  V30 4258 N 403.521 0.559213 -1.47345 0
M  V30 4259 C 404.798 1.31997 -1.44348 0
M  V30 4260 C 405.178 2.1064 -0.139358 0
M  V30 4261 O 404.526 2.1091 0.879153 0
M  V30 4262 C 404.736 2.22618 -2.68779 0
M  V30 4263 C 406.084 2.83701 -3.1591 0
M  V30 4264 O 407.108 2.32921 -2.69493 0
M  V30 4265 O 405.967 3.75993 -3.966 0
M  V30 4266 H 403.061 0.594251 -0.575147 0
M  V30 4267 H 405.607 0.578282 -1.59543 0
M  V30 4268 H 404.379 1.64093 -3.55231 0
M  V30 4269 H 404.002 3.04085 -2.5616 0
M  V30 4270 N 404.999 1.35443 0.805782 0
M  V30 4271 C 406.41 1.25768 1.37983 0
M  V30 4272 C 406.761 -0.10958 1.95894 0
M  V30 4273 O 405.886 -1.01056 1.91355 0
M  V30 4274 C 406.481 2.27727 2.5085 0
M  V30 4275 C 405.04 2.2179 3.04115 0
M  V30 4276 C 404.187 2.13393 1.77084 0
M  V30 4277 H 407.138 1.4656 0.608752 0
M  V30 4278 H 407.159 1.90422 3.29424 0
M  V30 4279 H 406.671 3.27227 2.08671 0
M  V30 4280 H 404.772 1.25703 3.50756 0
M  V30 4281 H 404.885 3.13788 3.62042 0
M  V30 4282 H 403.249 1.59384 1.98668 0
M  V30 4283 H 404.032 3.14755 1.37056 0
M  V30 4284 N 406.477 -1.02803 1.19454 0
M  V30 4285 C 407.723 -1.76598 1.0092 0
M  V30 4286 C 408.078 -1.86939 -0.455142 0
M  V30 4287 O 407.371 -1.37575 -1.33355 0
M  V30 4288 C 407.565 -3.18941 1.6128 0
M  V30 4289 C 407.394 -3.22476 3.13431 0
M  V30 4290 C 406.164 -3.30375 3.82336 0
M  V30 4291 C 408.362 -3.09451 4.10785 0
M  V30 4292 N 406.344 -3.23292 5.21877 0
M  V30 4293 C 407.715 -3.10012 5.36929 0
M  V30 4294 C 409.77 -2.93585 4.02135 0
M  V30 4295 C 408.473 -2.96334 6.55423 0
M  V30 4296 C 410.499 -2.81256 5.20239 0
M  V30 4297 C 409.861 -2.82472 6.45282 0
M  V30 4298 H 405.96 -0.657447 0.423424 0
M  V30 4299 H 408.544 -1.22369 1.5144 0
M  V30 4300 H 406.715 -3.71489 1.1336 0
M  V30 4301 H 408.447 -3.81102 1.36173 0
M  V30 4302 H 405.202 -3.3663 3.33132 0
M  V30 4303 H 405.626 -3.23156 5.94894 0
M  V30 4304 H 410.268 -2.91466 3.0628 0
M  V30 4305 H 407.986 -2.97203 7.51463 0
M  V30 4306 H 411.572 -2.70014 5.15348 0
M  V30 4307 H 410.452 -2.73036 7.35133 0
M  V30 4308 N 407.956 -0.998596 -1.21925 0
M  V30 4309 C 409.204 -0.676325 -1.90448 0
M  V30 4310 C 409.525 0.794719 -1.78071 0
M  V30 4311 O 408.795 1.5701 -1.17152 0
M  V30 4312 H 407.375 -0.247165 -0.704925 0
M  V30 4313 H 410.037 -1.26633 -1.48156 0
M  V30 4314 H 409.133 -0.943858 -2.97486 0
M  V30 4315 N 409.434 1.37368 -0.772513 0
M  V30 4316 C 410.682 1.99279 -0.336516 0
M  V30 4317 C 411.003 1.6163 1.09091 0
M  V30 4318 O 410.273 0.882109 1.74916 0
M  V30 4319 H 408.853 0.737063 -0.121435 0
M  V30 4320 H 411.515 1.67836 -0.990809 0
M  V30 4321 H 410.611 3.09332 -0.414763 0
M  V30 4322 N 410.912 0.523116 1.48665 0
M  V30 4323 C 412.323 0.0808997 1.86525 0
M  V30 4324 C 412.674 -1.33975 1.43336 0
M  V30 4325 O 411.799 -2.00221 0.821009 0
M  V30 4326 C 412.394 0.140037 3.3851 0
M  V30 4327 C 410.953 -0.246948 3.75589 0
M  V30 4328 C 410.1 0.502845 2.72703 0
M  V30 4329 H 413.051 0.734736 1.40667 0
M  V30 4330 H 413.072 -0.649945 3.74908 0
M  V30 4331 H 412.584 1.17412 3.69914 0
M  V30 4332 H 410.685 -1.28343 3.49798 0
M  V30 4333 H 410.798 0.0878859 4.79019 0
M  V30 4334 H 409.162 -0.0500581 2.54651 0
M  V30 4335 H 409.945 1.53743 3.0695 0
M  V30 4336 N 412.39 -1.55475 0.257931 0
M  V30 4337 C 413.353 -2.20551 -0.623706 0
M  V30 4338 C 414.353 -1.17809 -1.09443 0
M  V30 4339 O 415.543 -1.42823 -0.997362 0
M  V30 4340 C 412.675 -2.85784 -1.8585 0
M  V30 4341 H 413.868 -2.99848 -0.0557743 0
M  V30 4342 H 411.421 -1.56298 0.0084422 0
M  V30 4343 H 412.156 -2.10453 -2.46739 0
M  V30 4344 H 411.941 -3.61057 -1.52907 0
M  V30 4345 H 413.431 -3.35553 -2.48584 0
M  V30 4346 N 413.868 0.0150385 -1.57593 0
M  V30 4347 C 415.279 0.559832 -1.78109 0
M  V30 4348 C 415.63 1.74814 -0.890756 0
M  V30 4349 O 414.755 2.16216 -0.0892482 0
M  V30 4350 C 415.35 1.02238 -3.23006 0
M  V30 4351 C 413.909 1.51258 -3.44671 0
M  V30 4352 C 413.056 0.456955 -2.73509 0
M  V30 4353 H 416.007 -0.211169 -1.57289 0
M  V30 4354 H 416.028 1.88912 -3.30292 0
M  V30 4355 H 415.54 0.157302 -3.87781 0
M  V30 4356 H 413.641 2.39905 -2.8509 0
M  V30 4357 H 413.754 1.55042 -4.5332 0
M  V30 4358 H 412.118 0.915196 -2.37689 0
M  V30 4359 H 412.901 -0.398896 -3.40975 0
M  V30 4360 N 415.346 1.54954 0.287554 0
M  V30 4361 C 416.279 1.81737 1.3801 0
M  V30 4362 C 417.257 0.669412 1.48181 0
M  V30 4363 O 418.441 0.910839 1.65033 0
M  V30 4364 C 415.568 1.96606 2.75796 0
M  V30 4365 C 414.614 3.19098 2.82982 0
M  V30 4366 S 415.447 4.7683 2.43707 0
M  V30 4367 C 416.603 4.94653 3.83496 0
M  V30 4368 H 416.836 2.74122 1.15085 0
M  V30 4369 H 414.369 1.46538 0.486403 0
M  V30 4370 H 416.327 2.05858 3.55152 0
M  V30 4371 H 414.988 1.05136 2.95982 0
M  V30 4372 H 414.181 3.26344 3.84077 0
M  V30 4373 H 413.783 3.08361 2.11635 0
M  V30 4374 H 416.075 4.79502 4.78628 0
M  V30 4375 H 417.018 5.96728 3.8121 0
M  V30 4376 H 417.426 4.2272 3.74123 0
M  V30 4377 N 416.824 -0.551391 1.4764 0
M  V30 4378 C 417.787 -1.64007 1.60107 0
M  V30 4379 C 418.787 -1.53601 0.47576 0
M  V30 4380 O 419.977 -1.57655 0.740988 0
M  V30 4381 C 417.109 -3.03569 1.55108 0
M  V30 4382 H 418.302 -1.543 2.57161 0
M  V30 4383 H 415.855 -0.771776 1.35917 0
M  V30 4384 H 416.59 -3.18804 0.594519 0
M  V30 4385 H 416.375 -3.12532 2.36783 0
M  V30 4386 H 417.865 -3.82762 1.66982 0
M  V30 4387 N 418.302 -1.35869 -0.798587 0
M  V30 4388 C 419.265 -1.29307 -1.89242 0
M  V30 4389 C 420.265 -0.202747 -1.59517 0
M  V30 4390 O 421.455 -0.456957 -1.681 0
M  V30 4391 C 418.587 -1.00229 -3.25833 0
M  V30 4392 H 419.78 -2.26576 -1.96478 0
M  V30 4393 H 417.333 -1.20509 -0.995358 0
M  V30 4394 H 418.068 -0.033801 -3.24282 0
M  V30 4395 H 417.853 -1.79121 -3.48795 0
M  V30 4396 H 419.343 -0.98219 -4.05885 0
M  V30 4397 N 419.78 1.02168 -1.19998 0
M  V30 4398 C 420.743 2.08765 -0.94604 0
M  V30 4399 C 421.743 1.60618 0.0763846 0
M  V30 4400 O 422.933 1.73472 -0.159135 0
M  V30 4401 C 420.065 3.38262 -0.423255 0
M  V30 4402 H 421.258 2.32726 -1.89153 0
M  V30 4403 H 418.811 1.1889 -1.01464 0
M  V30 4404 H 419.546 3.19974 0.527938 0
M  V30 4405 H 419.331 3.74532 -1.16053 0
M  V30 4406 H 420.821 4.16759 -0.264911 0
M  V30 4407 N 421.258 1.00505 1.21394 0
M  V30 4408 C 422.504 0.688793 1.90745 0
M  V30 4409 C 422.837 -0.778486 1.77914 0
M  V30 4410 O 422.112 -1.56433 1.15581 0
M  V30 4411 C 422.395 1.11063 3.42545 0
M  V30 4412 C 422.248 2.63737 3.64367 0
M  V30 4413 C 423.567 0.673059 4.34923 0
M  V30 4414 H 420.686 0.251702 0.692687 0
M  V30 4415 H 423.328 1.25074 1.43026 0
M  V30 4416 H 421.478 0.632508 3.83317 0
M  V30 4417 H 423.15 3.19313 3.32922 0
M  V30 4418 H 421.393 3.05248 3.08231 0
M  V30 4419 H 422.064 2.88305 4.70727 0
M  V30 4420 H 424.54 1.08392 4.01734 0
M  V30 4421 H 423.416 0.996383 5.39781 0
M  V30 4422 H 423.677 -0.425808 4.40045 0
M  V30 4423 N 422.737 -1.36956 0.779787 0
M  V30 4424 C 424.148 -1.82094 0.412156 0
M  V30 4425 C 424.499 -1.64926 -1.06273 0
M  V30 4426 O 423.624 -1.16483 -1.82375 0
M  V30 4427 C 424.219 -3.3059 0.741319 0
M  V30 4428 C 422.778 -3.73974 0.426641 0
M  V30 4429 C 421.925 -2.59368 0.980987 0
M  V30 4430 H 424.876 -1.25314 0.973758 0
M  V30 4431 H 424.897 -3.80489 0.028887 0
M  V30 4432 H 424.409 -3.43054 1.81482 0
M  V30 4433 H 422.51 -3.67076 -0.639215 0
M  V30 4434 H 422.623 -4.69778 0.940515 0
M  V30 4435 H 420.987 -2.51463 0.404757 0
M  V30 4436 H 421.77 -2.74621 2.06005 0
M  V30 4437 N 424.215 -0.530993 -1.48385 0
M  V30 4438 C 425.443 -0.00134122 -2.069 0
M  V30 4439 C 425.858 1.2805 -1.3874 0
M  V30 4440 O 425.215 1.76204 -0.475244 0
M  V30 4441 C 425.266 0.225256 -3.60798 0
M  V30 4442 O 424.987 -1.0058 -4.26398 0
M  V30 4443 C 426.488 0.795172 -4.3611 0
M  V30 4444 H 423.708 -0.0339704 -0.67014 0
M  V30 4445 H 426.252 -0.736926 -1.90761 0
M  V30 4446 H 424.407 0.910891 -3.76539 0
M  V30 4447 H 424.821 -0.787165 -5.1856 0
M  V30 4448 H 426.295 0.903143 -5.44562 0
M  V30 4449 H 426.772 1.80031 -4.00606 0
M  V30 4450 H 427.378 0.146069 -4.25049 0
M  V30 4451 N 425.693 1.55336 -0.266172 0
M  V30 4452 C 426.656 2.20878 0.612001 0
M  V30 4453 C 427.656 1.18388 1.08816 0
M  V30 4454 O 428.846 1.4335 0.989774 0
M  V30 4455 C 425.978 2.86765 1.84332 0
M  V30 4456 H 427.171 2.99873 0.0398718 0
M  V30 4457 H 424.724 1.56291 -0.0167309 0
M  V30 4458 H 425.459 2.11759 2.45619 0
M  V30 4459 H 425.244 3.61862 1.5099 0
M  V30 4460 H 426.734 3.36867 2.46801 0
M  V30 4461 N 427.171 -0.0066808 1.57599 0
M  V30 4462 C 428.134 -0.985035 2.06953 0
M  V30 4463 C 429.134 -1.27663 0.977687 0
M  V30 4464 O 430.324 -1.22293 1.24057 0
M  V30 4465 C 427.456 -2.3118 2.50536 0
M  V30 4466 H 428.649 -0.558255 2.94658 0
M  V30 4467 H 426.202 -0.254011 1.54222 0
M  V30 4468 H 426.937 -2.78561 1.66054 0
M  V30 4469 H 426.722 -2.11338 3.3027 0
M  V30 4470 H 428.212 -3.01377 2.8907 0
M  V30 4471 N 428.649 -1.55105 -0.279332 0
M  V30 4472 C 430.06 -1.66186 -0.850832 0
M  V30 4473 C 430.411 -0.584707 -1.87285 0
M  V30 4474 O 429.536 0.274919 -2.14647 0
M  V30 4475 C 430.131 -3.01264 -1.55001 0
M  V30 4476 C 428.69 -3.14394 -2.06963 0
M  V30 4477 C 427.837 -2.61959 -0.909536 0
M  V30 4478 H 430.788 -1.58602 -0.0558235 0
M  V30 4479 H 430.809 -2.93899 -2.41669 0
M  V30 4480 H 430.321 -3.7964 -0.805931 0
M  V30 4481 H 428.422 -2.4078 -2.84352 0
M  V30 4482 H 428.535 -4.20867 -2.28928 0
M  V30 4483 H 426.899 -2.18957 -1.30116 0
M  V30 4484 H 427.682 -3.42833 -0.179062 0
M  V30 4485 N 430.127 0.543554 -1.4793 0
M  V30 4486 C 431.355 1.32516 -1.58894 0
M  V30 4487 C 431.77 1.87215 -0.244131 0
M  V30 4488 O 431.127 1.65709 0.764652 0
M  V30 4489 C 431.178 2.48554 -2.62494 0
M  V30 4490 O 430.899 1.96112 -3.91755 0
M  V30 4491 C 432.4 3.40572 -2.8377 0
M  V30 4492 H 429.62 0.403472 -0.536145 0
M  V30 4493 H 432.164 0.657106 -1.93655 0
M  V30 4494 H 430.319 3.1127 -2.30629 0
M  V30 4495 H 430.733 2.71967 -4.4848 0
M  V30 4496 H 432.207 4.18375 -3.60093 0
M  V30 4497 H 432.684 3.94965 -1.92092 0
M  V30 4498 H 433.29 2.8366 -3.16887 0
M  V30 4499 N 431.605 1.3629 0.791371 0
M  V30 4500 C 432.83 1.33726 1.58531 0
M  V30 4501 C 433.255 -0.0794933 1.87932 0
M  V30 4502 O 432.613 -1.05087 1.47738 0
M  V30 4503 C 432.661 2.16425 2.88431 0
M  V30 4504 O 431.765 1.5554 3.81944 0
M  V30 4505 H 431.106 0.457793 0.480959 0
M  V30 4506 H 433.636 1.79547 0.981031 0
M  V30 4507 H 433.646 2.28933 3.37718 0
M  V30 4508 H 432.321 3.19415 2.66359 0
M  V30 4509 H 430.898 1.51961 3.40532 0
M  V30 4510 N 433.083 -1.0153 1.20538 0
M  V30 4511 C 434.36 -1.72327 0.925343 0
M  V30 4512 C 434.74 -2.03383 -0.565547 0
M  V30 4513 O 434.088 -1.69934 -1.52757 0
M  V30 4514 C 434.298 -2.9902 1.79967 0
M  V30 4515 C 435.646 -3.72258 2.04228 0
M  V30 4516 O 436.67 -3.08979 1.77231 0
M  V30 4517 O 435.529 -4.86053 2.4983 0
M  V30 4518 H 432.623 -0.751099 0.346092 0
M  V30 4519 H 435.169 -1.07366 1.31417 0
M  V30 4520 H 433.941 -2.72402 2.80915 0
M  V30 4521 H 433.564 -3.71721 1.41099 0
M  V30 4522 N 434.561 -1.01147 -1.20859 0
M  V30 4523 C 435.972 -0.730205 -1.71828 0
M  V30 4524 C 436.323 0.751662 -1.8123 0
M  V30 4525 O 435.448 1.58686 -1.47132 0
M  V30 4526 C 436.043 -1.31885 -3.12077 0
M  V30 4527 C 434.602 -1.08656 -3.60376 0
M  V30 4528 C 433.749 -1.42769 -2.37723 0
M  V30 4529 H 436.7 -1.18158 -1.05945 0
M  V30 4530 H 436.721 -0.706793 -3.73878 0
M  V30 4531 H 436.233 -2.39737 -3.05201 0
M  V30 4532 H 434.334 -0.0254814 -3.72591 0
M  V30 4533 H 434.447 -1.76301 -4.45483 0
M  V30 4534 H 432.811 -0.846603 -2.40218 0
M  V30 4535 H 433.594 -2.51666 -2.33493 0
M  V30 4536 N 436.039 1.36541 -0.78704 0
M  V30 4537 C 437.285 2.00044 -0.367938 0
M  V30 4538 C 437.64 1.61345 1.04812 0
M  V30 4539 O 436.933 0.856936 1.71368 0
M  V30 4540 C 437.127 3.54343 -0.466485 0
M  V30 4541 C 436.956 4.08029 -1.89058 0
M  V30 4542 C 435.726 4.38284 -2.51466 0
M  V30 4543 C 437.924 4.27954 -2.85236 0
M  V30 4544 N 435.906 4.77778 -3.85488 0
M  V30 4545 C 437.277 4.70227 -4.04088 0
M  V30 4546 C 439.332 4.10119 -2.82324 0
M  V30 4547 C 438.035 4.96532 -5.20432 0
M  V30 4548 C 440.061 4.37569 -3.97854 0
M  V30 4549 C 439.423 4.80095 -5.15449 0
M  V30 4550 H 435.522 0.760525 -0.182004 0
M  V30 4551 H 438.106 1.65589 -1.02413 0
M  V30 4552 H 436.277 3.88072 0.159606 0
M  V30 4553 H 438.009 4.04693 -0.0238577 0
M  V30 4554 H 434.764 4.27905 -2.02965 0
M  V30 4555 H 435.188 5.01813 -4.54437 0
M  V30 4556 H 439.83 3.76399 -1.92571 0
M  V30 4557 H 437.548 5.29134 -6.10773 0
M  V30 4558 H 441.134 4.25341 -3.96958 0
M  V30 4559 H 440.014 5.00925 -6.0336 0
M  V30 4560 N 437.518 0.538854 1.48102 0
M  V30 4561 C 438.766 0.00798599 2.02098 0
M  V30 4562 C 439.087 -1.33922 1.41739 0
M  V30 4563 O 438.357 -1.86932 0.585934 0
M  V30 4564 H 436.937 -3.62179e-05 0.747 0
M  V30 4565 H 439.599 0.7047 1.81714 0
M  V30 4566 H 438.695 -0.0937672 3.11959 0
M  V30 4567 N 438.996 -1.55193 0.274407 0
M  V30 4568 C 440.244 -1.99187 -0.341902 0
M  V30 4569 C 440.565 -1.16422 -1.56431 0
M  V30 4570 O 439.835 -0.253573 -1.94252 0
M  V30 4571 H 438.415 -0.735721 -0.129317 0
M  V30 4572 H 441.077 -1.91168 0.379578 0
M  V30 4573 H 440.173 -3.05629 -0.632253 0
M  V30 4574 N 440.474 -0.00167713 -1.576 0
M  V30 4575 C 441.885 0.54091 -1.78693 0
M  V30 4576 C 442.236 1.7386 -0.909247 0
M  V30 4577 O 441.361 2.16109 -0.112176 0
M  V30 4578 C 441.956 0.98806 -3.24072 0
M  V30 4579 C 440.515 1.47594 -3.46256 0
M  V30 4580 C 439.662 0.42792 -2.73978 0
M  V30 4581 H 442.613 -0.22784 -1.57056 0
M  V30 4582 H 442.634 1.85398 -3.32277 0
M  V30 4583 H 442.146 0.116164 -3.87926 0
M  V30 4584 H 440.247 2.36868 -2.87618 0
M  V30 4585 H 440.36 1.50225 -4.54939 0
M  V30 4586 H 438.724 0.889934 -2.38647 0
M  V30 4587 H 439.507 -0.435038 -3.40532 0
M  V30 4588 N 441.952 1.55251 0.271103 0
M  V30 4589 C 443.363 1.66635 0.842007 0
M  V30 4590 C 443.714 0.594631 1.86972 0
M  V30 4591 O 442.839 -0.263532 2.14789 0
M  V30 4592 C 443.434 3.02082 1.53401 0
M  V30 4593 C 441.993 3.15487 2.05293 0
M  V30 4594 C 441.14 2.62438 0.895631 0
M  V30 4595 H 444.091 1.58629 0.0474117 0
M  V30 4596 H 444.112 2.95176 2.40107 0
M  V30 4597 H 443.624 3.80062 0.785786 0
M  V30 4598 H 441.725 2.42284 2.83071 0
M  V30 4599 H 441.838 4.22075 2.26693 0
M  V30 4600 H 440.202 2.19644 1.28953 0
M  V30 4601 H 440.985 3.42923 0.160878 0
M  V30 4602 N 443.43 -0.535701 1.48216 0
M  V30 4603 C 444.676 -1.29375 1.56173 0
M  V30 4604 C 445.009 -1.92804 0.232429 0
M  V30 4605 O 444.284 -1.78992 -0.761048 0
M  V30 4606 C 444.567 -2.38747 2.69577 0
M  V30 4607 C 444.42 -1.80046 4.12193 0
M  V30 4608 C 445.739 -3.40551 2.78771 0
M  V30 4609 H 442.858 -0.469027 0.568491 0
M  V30 4610 H 445.5 -0.597358 1.80365 0
M  V30 4611 H 443.65 -2.98147 2.4908 0
M  V30 4612 H 445.322 -1.24742 4.44114 0
M  V30 4613 H 443.565 -1.10609 4.19462 0
M  V30 4614 H 444.236 -2.59212 4.87353 0
M  V30 4615 H 446.712 -2.91099 2.97322 0
M  V30 4616 H 445.588 -4.1448 3.59857 0
M  V30 4617 H 445.849 -4.00746 1.86696 0
M  V30 4618 N 444.908 -1.36708 -0.784132 0
M  V30 4619 C 446.319 -1.27947 -1.35965 0
M  V30 4620 C 446.67 0.0784013 -1.96043 0
M  V30 4621 O 445.795 0.979989 -1.92938 0
M  V30 4622 C 446.39 -2.31689 -2.47195 0
M  V30 4623 C 444.949 -2.26601 -3.00548 0
M  V30 4624 C 444.096 -2.16184 -1.73666 0
M  V30 4625 H 447.047 -1.4751 -0.585358 0
M  V30 4626 H 447.068 -1.95638 -3.26352 0
M  V30 4627 H 446.58 -3.30506 -2.03439 0
M  V30 4628 H 444.681 -1.31268 -3.48711 0
M  V30 4629 H 444.794 -3.19508 -3.57004 0
M  V30 4630 H 443.158 -1.62524 -1.96107 0
M  V30 4631 H 443.941 -3.16896 -1.32031 0
M  V30 4632 N 446.386 1.0089 -1.21074 0
M  V30 4633 C 447.797 1.56056 -1.02486 0
M  V30 4634 C 448.148 1.91728 0.416506 0
M  V30 4635 O 447.273 1.73066 1.29912 0
M  V30 4636 C 447.868 2.83563 -1.85411 0
M  V30 4637 C 446.427 3.3523 -1.71166 0
M  V30 4638 C 445.574 2.0846 -1.82865 0
M  V30 4639 H 448.525 0.831818 -1.35154 0
M  V30 4640 H 448.546 3.55286 -1.36205 0
M  V30 4641 H 448.058 2.57569 -2.9031 0
M  V30 4642 H 446.159 3.66167 -0.689361 0
M  V30 4643 H 446.272 4.06913 -2.52901 0
M  V30 4644 H 444.636 2.21275 -1.26132 0
M  V30 4645 H 445.419 1.84883 -2.89263 0
M  V30 4646 N 447.864 1.01787 1.20321 0
M  V30 4647 C 448.827 0.593972 2.2137 0
M  V30 4648 C 449.827 -0.336553 1.57239 0
M  V30 4649 O 451.017 -0.125069 1.7375 0
M  V30 4650 C 448.149 -0.132433 3.40643 0
M  V30 4651 H 449.342 1.48791 2.60387 0
M  V30 4652 H 446.895 0.807803 1.33807 0
M  V30 4653 H 447.63 -1.04123 3.0713 0
M  V30 4654 H 447.415 0.53605 3.88418 0
M  V30 4655 H 448.905 -0.416314 4.1552 0
M  V30 4656 N 449.342 -1.36122 0.79427 0
M  V30 4657 C 450.305 -2.28309 0.201889 0
M  V30 4658 C 451.305 -1.49041 -0.603603 0
M  V30 4659 O 452.495 -1.68964 -0.423888 0
M  V30 4660 C 449.627 -3.3321 -0.719978 0
M  V30 4661 H 450.82 -2.82208 1.01481 0
M  V30 4662 H 448.373 -1.45768 0.564037 0
M  V30 4663 H 449.108 -2.84475 -1.55706 0
M  V30 4664 H 448.893 -3.91835 -0.144266 0
M  V30 4665 H 450.383 -4.02044 -1.12916 0
M  V30 4666 N 450.82 -0.546701 -1.47814 0
M  V30 4667 C 452.097 0.0464413 -1.95545 0
M  V30 4668 C 452.477 1.4962 -1.48919 0
M  V30 4669 O 451.825 2.16752 -0.723232 0
M  V30 4670 C 452.035 -0.0881298 -3.48889 0
M  V30 4671 C 453.383 0.0626059 -4.24554 0
M  V30 4672 O 454.407 -0.0151555 -3.56197 0
M  V30 4673 O 453.266 0.228071 -5.46024 0
M  V30 4674 H 450.36 0.0700004 -0.824032 0
M  V30 4675 H 452.906 -0.612482 -1.58262 0
M  V30 4676 H 451.678 -1.09737 -3.75597 0
M  V30 4677 H 451.301 0.608886 -3.9291 0
M  V30 4678 N 452.299 1.55045 -0.282633 0
M  V30 4679 C 453.71 1.85473 0.213655 0
M  V30 4680 C 454.061 1.20465 1.54863 0
M  V30 4681 O 453.186 0.495676 2.10647 0
M  V30 4682 C 453.781 3.36496 0.394445 0
M  V30 4683 C 452.34 3.67022 0.834961 0
M  V30 4684 C 451.487 2.77218 -0.0674081 0
M  V30 4685 H 454.438 1.50478 -0.504202 0
M  V30 4686 H 454.459 3.60007 1.23186 0
M  V30 4687 H 453.971 3.83782 -0.577326 0
M  V30 4688 H 452.072 3.25241 1.81794 0
M  V30 4689 H 452.185 4.74433 0.667075 0
M  V30 4690 H 450.549 2.5069 0.450196 0
M  V30 4691 H 451.332 3.2732 -1.0352 0
M  V30 4692 N 453.777 0.010035 1.57597 0
M  V30 4693 C 455.023 -0.668011 1.92118 0
M  V30 4694 C 455.378 -1.70821 0.885328 0
M  V30 4695 O 454.671 -1.91333 -0.101187 0
M  V30 4696 C 454.865 -1.34434 3.31153 0
M  V30 4697 C 454.694 -0.371176 4.48166 0
M  V30 4698 C 453.464 0.0220686 5.05295 0
M  V30 4699 C 455.662 0.366731 5.12991 0
M  V30 4700 N 453.644 0.9924 6.05826 0
M  V30 4701 C 455.015 1.19142 6.08445 0
M  V30 4702 C 457.07 0.429489 4.96044 0
M  V30 4703 C 455.773 2.07317 6.88776 0
M  V30 4704 C 457.799 1.2985 5.76969 0
M  V30 4705 C 457.161 2.11101 6.72023 0
M  V30 4706 H 453.26 -0.217337 0.751192 0
M  V30 4707 H 455.844 0.0727375 1.94564 0
M  V30 4708 H 454.015 -2.05533 3.29561 0
M  V30 4709 H 455.747 -1.97789 3.53075 0
M  V30 4710 H 452.502 -0.348409 4.72317 0
M  V30 4711 H 452.926 1.47324 6.60776 0
M  V30 4712 H 457.568 -0.18442 4.22398 0
M  V30 4713 H 455.286 2.69771 7.61741 0
M  V30 4714 H 458.872 1.3511 5.65894 0
M  V30 4715 H 457.752 2.77257 7.33552 0
M  V30 4716 N 455.255 -1.55392 -0.262866 0
M  V30 4717 C 456.503 -1.76127 -0.991147 0
M  V30 4718 C 456.824 -0.571083 -1.8645 0
M  V30 4719 O 456.094 0.413698 -1.91482 0
M  V30 4720 H 454.674 -0.649528 -0.368948 0
M  V30 4721 H 457.336 -1.9281 -0.284655 0
M  V30 4722 H 456.432 -2.6663 -1.62219 0
M  V30 4723 N 456.733 0.527833 -1.48498 0
M  V30 4724 C 457.981 1.28101 -1.56316 0
M  V30 4725 C 458.302 1.9352 -0.239781 0
M  V30 4726 O 457.572 1.81433 0.738849 0
M  V30 4727 H 456.152 0.475793 -0.575873 0
M  V30 4728 H 458.814 0.614052 -1.84974 0
M  V30 4729 H 457.91 2.05916 -2.34532 0
M  V30 4730 N 458.211 1.37122 0.776871 0
M  V30 4731 C 459.622 1.28667 1.35284 0
M  V30 4732 C 459.973 -0.0680035 1.96082 0
M  V30 4733 O 459.098 -0.969743 1.93455 0
M  V30 4734 C 459.693 2.32997 2.45963 0
M  V30 4735 C 458.252 2.28191 2.99342 0
M  V30 4736 C 457.399 2.17101 1.72517 0
M  V30 4737 H 460.35 1.47819 0.577527 0
M  V30 4738 H 460.371 1.97366 3.2531 0
M  V30 4739 H 459.883 3.3158 2.01684 0
M  V30 4740 H 457.984 1.33115 3.4801 0
M  V30 4741 H 458.097 3.21397 3.55304 0
M  V30 4742 H 456.461 1.63562 1.95242 0
M  V30 4743 H 457.244 3.17591 1.30348 0
M  V30 4744 N 459.689 -1.00246 1.21608 0
M  V30 4745 C 460.652 -2.07233 0.979133 0
M  V30 4746 C 461.652 -1.6072 -0.0508219 0
M  V30 4747 O 462.842 -1.73196 0.186712 0
M  V30 4748 C 459.974 -3.37546 0.477016 0
M  V30 4749 H 461.167 -2.29687 1.92831 0
M  V30 4750 H 458.72 -1.17261 1.03342 0
M  V30 4751 H 459.455 -3.20773 -0.476966 0
M  V30 4752 H 459.24 -3.72638 1.21997 0
M  V30 4753 H 460.73 -4.16285 0.331181 0
M  V30 4754 N 461.167 -1.02423 -1.1978 0
M  V30 4755 C 462.578 -0.748389 -1.71044 0
M  V30 4756 C 462.929 0.732398 -1.82017 0
M  V30 4757 O 462.054 1.57116 -1.48807 0
M  V30 4758 C 462.649 -1.35187 -3.1066 0
M  V30 4759 C 461.208 -1.12472 -3.59203 0
M  V30 4760 C 460.355 -1.45283 -2.36195 0
M  V30 4761 H 463.306 -1.19275 -1.04686 0
M  V30 4762 H 463.327 -0.746408 -3.73107 0
M  V30 4763 H 462.839 -2.4296 -3.02642 0
M  V30 4764 H 460.94 -0.0649983 -3.72543 0
M  V30 4765 H 461.053 -1.81016 -4.43588 0
M  V30 4766 H 459.417 -0.872034 -2.39307 0
M  V30 4767 H 460.2 -2.54129 -2.30811 0
M  V30 4768 N 462.645 1.35699 -0.801477 0
M  V30 4769 C 463.873 2.03157 -0.391768 0
M  V30 4770 C 464.288 1.60412 0.995668 0
M  V30 4771 O 463.645 0.799228 1.64069 0
M  V30 4772 C 463.696 3.58566 -0.459671 0
M  V30 4773 O 463.417 3.99756 -1.7924 0
M  V30 4774 C 464.918 4.4328 -0.0421205 0
M  V30 4775 H 462.138 0.651688 -0.159825 0
M  V30 4776 H 464.682 1.73426 -1.08368 0
M  V30 4777 H 462.837 3.86963 0.183939 0
M  V30 4778 H 463.251 4.94387 -1.75162 0
M  V30 4779 H 464.725 5.51821 -0.140754 0
M  V30 4780 H 465.202 4.27383 1.01196 0
M  V30 4781 H 465.808 4.20168 -0.658687 0
M  V30 4782 N 464.123 0.554532 1.47522 0
M  V30 4783 C 465.534 0.120446 1.86311 0
M  V30 4784 C 465.885 -1.30904 1.46145 0
M  V30 4785 O 465.01 -1.98434 0.863294 0
M  V30 4786 C 465.605 0.211808 3.38137 0
M  V30 4787 C 464.164 -0.167224 3.76028 0
M  V30 4788 C 463.311 0.560576 2.71575 0
M  V30 4789 H 466.262 0.764408 1.39077 0
M  V30 4790 H 466.283 -0.570275 3.76202 0
M  V30 4791 H 465.795 1.25232 3.6734 0
M  V30 4792 H 463.896 -1.20894 3.52442 0
M  V30 4793 H 464.009 0.189473 4.78725 0
M  V30 4794 H 462.373 0.00396836 2.547 0
M  V30 4795 H 463.156 1.60219 3.0362 0
M  V30 4796 N 465.601 -1.54893 0.290851 0
M  V30 4797 C 466.564 -2.21824 -0.576784 0
M  V30 4798 C 467.564 -1.20104 -1.06919 0
M  V30 4799 O 468.754 -1.44906 -0.966843 0
M  V30 4800 C 465.886 -2.89662 -1.79747 0
M  V30 4801 H 467.079 -2.99899 0.00784051 0
M  V30 4802 H 464.632 -1.56245 0.0415934 0
M  V30 4803 H 465.367 -2.15639 -2.42219 0
M  V30 4804 H 465.152 -3.64219 -1.45214 0
M  V30 4805 H 466.642 -3.4075 -2.4141 0
M  V30 4806 N 467.08 -0.0183926 -1.57589 0
M  V30 4807 C 468.305 0.676634 -1.96052 0
M  V30 4808 C 468.73 1.6548 -0.894307 0
M  V30 4809 O 468.088 1.80712 0.145849 0
M  V30 4810 C 468.136 1.36872 -3.33614 0
M  V30 4811 O 467.24 2.48372 -3.29219 0
M  V30 4812 H 466.581 0.1786 -0.63953 0
M  V30 4813 H 469.111 -0.077056 -2.04455 0
M  V30 4814 H 469.121 1.72797 -3.69601 0
M  V30 4815 H 467.796 0.651636 -4.10763 0
M  V30 4816 H 466.373 2.14639 -3.04934 0
M  V30 4817 N 468.558 1.5553 0.254621 0
M  V30 4818 C 469.806 1.7665 0.981793 0
M  V30 4819 C 470.127 0.580963 1.86145 0
M  V30 4820 O 469.397 -0.403537 1.91699 0
M  V30 4821 H 467.977 0.651475 0.365498 0
M  V30 4822 H 470.639 1.92958 0.274426 0
M  V30 4823 H 469.735 2.67486 1.60802 0
M  V30 4824 N 470.036 -0.519951 1.48776 0
M  V30 4825 C 471.313 -1.28123 1.47797 0
M  V30 4826 C 471.693 -2.10196 0.195157 0
M  V30 4827 O 471.041 -2.13167 -0.822925 0
M  V30 4828 C 471.251 -2.15413 2.74587 0
M  V30 4829 C 472.599 -2.75225 3.23321 0
M  V30 4830 O 473.623 -2.25694 2.75574 0
M  V30 4831 O 472.482 -3.65346 4.06429 0
M  V30 4832 H 469.576 -0.578793 0.590701 0
M  V30 4833 H 472.122 -0.535779 1.6102 0
M  V30 4834 H 470.894 -1.54617 3.59457 0
M  V30 4835 H 470.517 -2.97186 2.64132 0
M  V30 4836 N 471.514 -1.37532 -0.769588 0
M  V30 4837 C 472.925 -1.29382 -1.346 0
M  V30 4838 C 473.276 0.0576039 -1.96115 0
M  V30 4839 O 472.401 0.95947 -1.93967 0
M  V30 4840 C 472.996 -2.34298 -2.44724 0
M  V30 4841 C 471.555 -2.29776 -2.98128 0
M  V30 4842 C 470.702 -2.18013 -1.71364 0
M  V30 4843 H 473.653 -1.48123 -0.56968 0
M  V30 4844 H 473.674 -1.99089 -3.24259 0
M  V30 4845 H 473.186 -3.32645 -1.99922 0
M  V30 4846 H 471.287 -1.34959 -3.47299 0
M  V30 4847 H 471.4 -3.23276 -3.53595 0
M  V30 4848 H 469.764 -1.64595 -1.94372 0
M  V30 4849 H 470.547 -3.18278 -1.28662 0
M  V30 4850 N 472.992 0.995999 -1.22138 0
M  V30 4851 C 474.238 1.7386 -1.05567 0
M  V30 4852 C 474.593 1.8808 0.405418 0
M  V30 4853 O 473.886 1.41062 1.29661 0
M  V30 4854 C 474.08 3.14553 -1.6968 0
M  V30 4855 C 473.909 3.14053 -3.21871 0
M  V30 4856 C 472.679 3.20121 -3.90961 0
M  V30 4857 C 474.877 2.98451 -4.18845 0
M  V30 4858 N 472.859 3.09342 -5.30265 0
M  V30 4859 C 474.23 2.95667 -5.4496 0
M  V30 4860 C 476.285 2.8282 -4.09777 0
M  V30 4861 C 474.988 2.78852 -6.63049 0
M  V30 4862 C 477.014 2.67364 -5.27513 0
M  V30 4863 C 476.376 2.65264 -6.52544 0
M  V30 4864 H 472.475 0.645989 -0.440706 0
M  V30 4865 H 475.059 1.1831 -1.54631 0
M  V30 4866 H 473.23 3.68353 -1.2317 0
M  V30 4867 H 474.962 3.77358 -1.4623 0
M  V30 4868 H 471.717 3.27679 -3.4194 0
M  V30 4869 H 472.141 3.0727 -6.03253 0
M  V30 4870 H 476.783 2.83243 -3.139 0
M  V30 4871 H 474.501 2.77175 -7.59078 0
M  V30 4872 H 478.087 2.56256 -5.22326 0
M  V30 4873 H 476.967 2.5345 -7.42114 0
M  V30 4874 N 474.47 1.03057 1.19235 0
M  V30 4875 C 475.886 0.747947 1.40989 0
M  V30 4876 C 476.086 -0.666752 1.90149 0
M  V30 4877 O 475.142 -1.43249 2.07933 0
M  V30 4878 C 476.455 1.7855 2.41951 0
M  V30 4879 C 478.003 1.80524 2.55695 0
M  V30 4880 C 478.478 2.83243 3.59913 0
M  V30 4881 N 479.969 2.8207 3.67411 0
M  V30 4882 C 480.704 3.58204 4.47747 0
M  V30 4883 N 480.2 4.44057 5.31775 0
M  V30 4884 N 481.993 3.46738 4.42413 0
M  V30 4885 H 474.144 1.94367 0.856468 0
M  V30 4886 H 476.407 0.840412 0.438647 0
M  V30 4887 H 476.113 2.79973 2.12857 0
M  V30 4888 H 475.987 1.6092 3.41152 0
M  V30 4889 H 478.374 0.79778 2.84112 0
M  V30 4890 H 478.455 2.02229 1.56643 0
M  V30 4891 H 478.099 3.84161 3.32239 0
M  V30 4892 H 478.029 2.58795 4.5862 0
M  V30 4893 H 480.52 2.19803 3.074 0
M  V30 4894 H 480.833 4.98884 5.90199 0
M  V30 4895 H 479.178 4.48129 5.3123 0
M  V30 4896 H 482.369 2.79077 3.75811 0
M  V30 4897 H 482.542 4.06322 5.04783 0
M  V30 4898 N 475.948 -1.35272 0.808662 0
M  V30 4899 C 477.359 -1.81179 0.450688 0
M  V30 4900 C 477.71 -1.67143 -1.02751 0
M  V30 4901 O 476.835 -1.20325 -1.79864 0
M  V30 4902 C 477.43 -3.28943 0.811275 0
M  V30 4903 C 475.989 -3.72985 0.505871 0
M  V30 4904 C 475.136 -2.57229 1.03578 0
M  V30 4905 H 478.087 -1.2322 1.00012 0
M  V30 4906 H 478.108 -3.80342 0.109588 0
M  V30 4907 H 477.62 -3.39127 1.88718 0
M  V30 4908 H 475.721 -3.68349 -0.561209 0
M  V30 4909 H 475.834 -4.67677 1.03995 0
M  V30 4910 H 474.198 -2.50548 0.458005 0
M  V30 4911 H 474.981 -2.7019 2.11784 0
M  V30 4912 N 477.426 -0.562348 -1.47226 0
M  V30 4913 C 478.389 0.172056 -2.28553 0
M  V30 4914 C 479.389 0.837928 -1.37242 0
M  V30 4915 O 480.579 0.693001 -1.59822 0
M  V30 4916 C 477.711 1.25223 -3.17068 0
M  V30 4917 H 478.904 -0.542401 -2.94954 0
M  V30 4918 H 476.457 -0.319493 -1.53 0
M  V30 4919 H 477.192 1.99892 -2.55369 0
M  V30 4920 H 476.977 0.779515 -3.84273 0
M  V30 4921 H 478.467 1.76791 -3.78332 0
M  V30 4922 N 478.904 1.54736 -0.299062 0
M  V30 4923 C 479.867 2.22127 0.565012 0
M  V30 4924 C 480.867 1.20669 1.06281 0
M  V30 4925 O 482.057 1.45417 0.959145 0
M  V30 4926 C 479.189 2.90611 1.78208 0
M  V30 4927 H 480.382 2.99891 -0.0237448 0
M  V30 4928 H 477.935 1.5622 -0.0498788 0
M  V30 4929 H 478.67 2.16921 2.41072 0
M  V30 4930 H 478.455 3.64984 1.43281 0
M  V30 4931 H 479.945 3.42026 2.396 0
M  V30 4932 N 480.382 0.0267497 1.57577 0
M  V30 4933 C 481.793 -0.512413 1.79531 0
M  V30 4934 C 482.144 -1.72391 0.936791 0
M  V30 4935 O 481.269 -2.15903 0.146543 0
M  V30 4936 C 481.864 -0.936378 3.25603 0
M  V30 4937 C 480.423 -1.42067 3.4856 0
M  V30 4938 C 479.57 -0.384278 2.74624 0
M  V30 4939 H 482.521 0.252797 1.56674 0
M  V30 4940 H 482.542 -1.80088 3.35184 0
M  V30 4941 H 482.054 -0.0544332 3.88062 0
M  V30 4942 H 480.155 -2.32262 2.9135 0
M  V30 4943 H 480.268 -1.42968 4.57271 0
M  V30 4944 H 478.632 -0.851855 2.40032 0
M  V30 4945 H 479.415 0.489159 3.39797 0
M  V30 4946 N 481.861 -1.55662 -0.24637 0
M  V30 4947 C 482.824 -1.89558 -1.28842 0
M  V30 4948 C 483.824 -0.772082 -1.41052 0
M  V30 4949 O 485.014 -1.04007 -1.39743 0
M  V30 4950 C 482.146 -2.12449 -2.66605 0
M  V30 4951 H 483.339 -2.82735 -1.00004 0
M  V30 4952 H 480.892 -1.48562 -0.485684 0
M  V30 4953 H 481.627 -1.21742 -3.00582 0
M  V30 4954 H 481.412 -2.94273 -2.59125 0
M  V30 4955 H 482.902 -2.39854 -3.41847 0
M  V30 4956 N 483.339 0.512053 -1.4905 0
M  V30 4957 C 484.587 1.26436 -1.57665 0
M  V30 4958 C 484.908 1.93255 -0.260293 0
M  V30 4959 O 484.178 1.82206 0.719564 0
M  V30 4960 H 482.758 0.469658 -0.580888 0
M  V30 4961 H 485.42 0.594398 -1.85615 0
M  V30 4962 H 484.516 2.03417 -2.36702 0
M  V30 4963 N 484.817 1.37938 0.762283 0
M  V30 4964 C 486.228 1.30094 1.33912 0
M  V30 4965 C 486.579 -0.0472026 1.96143 0
M  V30 4966 O 485.704 -0.94917 1.94473 0
M  V30 4967 C 486.299 2.35592 2.43478 0
M  V30 4968 C 484.858 2.31353 2.96905 0
M  V30 4969 C 484.005 2.18919 1.70205 0
M  V30 4970 H 486.956 1.48423 0.561816 0
M  V30 4971 H 486.977 2.00806 3.23199 0
M  V30 4972 H 486.489 3.33701 1.98155 0
M  V30 4973 H 484.59 1.36799 3.46579 0
M  V30 4974 H 484.703 3.25147 3.51875 0
M  V30 4975 H 483.067 1.65624 1.93496 0
M  V30 4976 H 483.85 3.18956 1.26973 0
M  V30 4977 N 486.295 -0.989507 1.22664 0
M  V30 4978 C 487.52 -1.77031 1.08051 0
M  V30 4979 C 487.945 -1.84535 -0.364483 0
M  V30 4980 O 487.303 -1.3003 -1.2634 0
M  V30 4981 C 487.351 -3.18 1.70024 0
M  V30 4982 O 486.455 -4.01161 0.956216 0
M  V30 4983 H 485.796 -0.545008 0.379292 0
M  V30 4984 H 488.326 -1.24277 1.62531 0
M  V30 4985 H 488.336 -3.68616 1.74888 0
M  V30 4986 H 487.011 -3.11853 2.75174 0
M  V30 4987 H 485.588 -3.59687 0.98384 0
M  V30 4988 N 487.773 -1.03688 -1.18687 0
M  V30 4989 C 489.019 -0.739123 -1.88851 0
M  V30 4990 C 489.352 0.731042 -1.79915 0
M  V30 4991 O 488.627 1.53313 -1.19688 0
M  V30 4992 C 488.91 -1.20106 -3.3948 0
M  V30 4993 C 488.763 -2.73304 -3.57246 0
M  V30 4994 C 490.082 -0.788134 -4.32986 0
M  V30 4995 H 487.201 -0.269978 -0.68577 0
M  V30 4996 H 489.843 -1.28822 -1.3966 0
M  V30 4997 H 487.993 -0.733915 -3.81505 0
M  V30 4998 H 489.665 -3.28027 -3.24339 0
M  V30 4999 H 487.908 -3.13313 -3.00029 0
M  V30 5000 H 488.579 -3.00684 -4.62918 0
M  V30 5001 H 491.055 -1.19005 -3.98719 0
M  V30 5002 H 489.931 -1.13915 -5.36949 0
M  V30 5003 H 490.192 0.308988 -4.41019 0
M  V30 5004 N 489.251 1.34841 -0.815825 0
M  V30 5005 C 490.528 1.92908 -0.323416 0
M  V30 5006 C 490.908 1.74479 1.18828 0
M  V30 5007 O 490.256 1.11928 1.99209 0
M  V30 5008 C 490.466 3.40957 -0.744952 0
M  V30 5009 C 491.814 4.18107 -0.739716 0
M  V30 5010 O 492.838 3.49511 -0.68708 0
M  V30 5011 O 491.697 5.40517 -0.806456 0
M  V30 5012 H 488.791 0.822436 -0.0867646 0
M  V30 5013 H 491.337 1.4386 -0.90014 0
M  V30 5014 H 490.109 3.4814 -1.78646 0
M  V30 5015 H 489.732 3.97341 -0.143535 0
M  V30 5016 N 490.729 0.570148 1.46925 0
M  V30 5017 C 492.14 0.1402 1.86173 0
M  V30 5018 C 492.491 -1.29347 1.47526 0
M  V30 5019 O 491.616 -1.97508 0.884292 0
M  V30 5020 C 492.211 0.247661 3.37894 0
M  V30 5021 C 490.77 -0.127332 3.76185 0
M  V30 5022 C 489.917 0.589349 2.70965 0
M  V30 5023 H 492.868 0.779117 1.38259 0
M  V30 5024 H 492.889 -0.530341 3.76786 0
M  V30 5025 H 492.401 1.29121 3.65991 0
M  V30 5026 H 490.502 -1.17149 3.53704 0
M  V30 5027 H 490.615 0.240238 4.78497 0
M  V30 5028 H 488.979 0.0309824 2.54681 0
M  V30 5029 H 489.762 1.6343 3.01903 0
M  V30 5030 N 492.207 -1.54576 0.307264 0
M  V30 5031 C 493.453 -2.01272 -0.293453 0
M  V30 5032 C 493.808 -1.19178 -1.51044 0
M  V30 5033 O 493.101 -0.261704 -1.89804 0
M  V30 5034 C 493.295 -3.50572 -0.695253 0
M  V30 5035 C 493.124 -4.47118 0.481249 0
M  V30 5036 C 491.894 -4.958 0.97524 0
M  V30 5037 C 494.092 -4.96853 1.32823 0
M  V30 5038 N 492.074 -5.76212 2.11785 0
M  V30 5039 C 493.445 -5.75028 2.31824 0
M  V30 5040 C 495.5 -4.79026 1.35788 0
M  V30 5041 C 494.203 -6.37276 3.33574 0
M  V30 5042 C 496.229 -5.42097 2.364 0
M  V30 5043 C 495.591 -6.2011 3.34129 0
M  V30 5044 H 491.69 -0.778709 -0.0716705 0
M  V30 5045 H 494.274 -1.89695 0.438602 0
M  V30 5046 H 492.445 -3.62427 -1.39647 0
M  V30 5047 H 494.177 -3.84056 -1.27604 0
M  V30 5048 H 490.932 -4.70405 0.549184 0
M  V30 5049 H 491.356 -6.21101 2.69375 0
M  V30 5050 H 495.998 -4.18288 0.616021 0
M  V30 5051 H 493.716 -6.97144 4.08676 0
M  V30 5052 H 497.302 -5.30229 2.39475 0
M  V30 5053 H 496.182 -6.68049 4.10707 0
M  V30 5054 N 493.685 -0.035106 -1.57561 0
M  V30 5055 C 494.933 0.64096 -1.91667 0
M  V30 5056 C 495.254 1.72323 -0.912681 0
M  V30 5057 O 494.524 1.95849 0.0449089 0
M  V30 5058 H 493.104 0.239743 -0.707483 0
M  V30 5059 H 495.766 -0.084321 -1.94718 0
M  V30 5060 H 494.862 1.08987 -2.92452 0
M  V30 5061 N 495.163 1.55791 0.238111 0
M  V30 5062 C 496.411 1.77681 0.963001 0
M  V30 5063 C 496.732 0.600674 1.85518 0
M  V30 5064 O 496.002 -0.383182 1.92116 0
M  V30 5065 H 494.582 0.655315 0.358568 0
M  V30 5066 H 497.244 1.93239 0.253945 0
M  V30 5067 H 496.34 2.69177 1.57956 0
M  V30 5068 N 496.642 -0.504142 1.49319 0
M  V30 5069 C 497.87 -1.28256 1.62351 0
M  V30 5070 C 498.285 -1.86502 0.293682 0
M  V30 5071 O 497.642 -1.67678 -0.720449 0
M  V30 5072 C 497.693 -2.41507 2.68992 0
M  V30 5073 O 497.414 -1.85656 3.96817 0
M  V30 5074 C 498.915 -3.32929 2.927 0
M  V30 5075 H 496.135 -0.389115 0.546654 0
M  V30 5076 H 498.679 -0.605531 1.95329 0
M  V30 5077 H 496.834 -3.05046 2.38801 0
M  V30 5078 H 497.248 -2.59981 4.55533 0
M  V30 5079 H 498.722 -4.0868 3.71058 0
M  V30 5080 H 499.199 -3.89733 2.02496 0
M  V30 5081 H 499.805 -2.75158 3.24296 0
M  V30 5082 N 498.12 -1.38341 -0.754957 0
M  V30 5083 C 499.531 -1.30803 -1.3322 0
M  V30 5084 C 499.882 0.0368 -1.96165 0
M  V30 5085 O 499.007 0.938844 -1.94974 0
M  V30 5086 C 499.602 -2.3688 -2.42225 0
M  V30 5087 C 498.161 -2.32925 -2.95674 0
M  V30 5088 C 497.308 -2.19819 -1.69042 0
M  V30 5089 H 500.259 -1.48719 -0.553937 0
M  V30 5090 H 500.28 -2.02517 -3.22129 0
M  V30 5091 H 499.792 -3.34747 -1.96383 0
M  V30 5092 H 497.893 -1.38635 -3.45848 0
M  V30 5093 H 498.006 -3.27008 -3.50146 0
M  V30 5094 H 496.37 -1.66648 -1.92615 0
M  V30 5095 H 497.153 -3.19625 -1.25279 0
M  V30 5096 N 499.598 0.982988 -1.23187 0
M  V30 5097 C 500.561 2.05649 -1.01198 0
M  V30 5098 C 501.561 1.6078 0.0252464 0
M  V30 5099 O 502.751 1.72878 -0.214243 0
M  V30 5100 C 499.883 3.36744 -0.530656 0
M  V30 5101 H 501.076 2.2659 -1.96461 0
M  V30 5102 H 498.629 1.15602 -1.05195 0
M  V30 5103 H 499.364 3.21492 0.425873 0
M  V30 5104 H 499.149 3.7065 -1.2791 0
M  V30 5105 H 500.639 4.15705 -0.397366 0
M  V30 5106 N 501.076 1.04316 1.18135 0
M  V30 5107 C 502.487 0.775505 1.69832 0
M  V30 5108 C 502.838 -0.703348 1.8316 0
M  V30 5109 O 501.963 -1.54729 1.51287 0
M  V30 5110 C 502.558 1.40112 3.0847 0
M  V30 5111 C 501.117 1.18172 3.57368 0
M  V30 5112 C 500.264 1.49022 2.33854 0
M  V30 5113 H 503.215 1.20925 1.02775 0
M  V30 5114 H 503.236 0.805672 3.71873 0
M  V30 5115 H 502.748 2.47744 2.98738 0
M  V30 5116 H 500.849 0.124258 3.72393 0
M  V30 5117 H 500.962 1.8805 4.40652 0
M  V30 5118 H 499.326 0.909995 2.37889 0
M  V30 5119 H 500.109 2.57768 2.26738 0
M  V30 5120 N 502.554 -1.34406 0.822964 0
M  V30 5121 C 503.517 -2.2783 0.250271 0
M  V30 5122 C 504.517 -1.50288 -0.571854 0
M  V30 5123 O 505.707 -1.69825 -0.387952 0
M  V30 5124 C 502.839 -3.34663 -0.649137 0
M  V30 5125 H 504.032 -2.79992 1.07444 0
M  V30 5126 H 501.585 -1.44539 0.594829 0
M  V30 5127 H 502.32 -2.87714 -1.49637 0
M  V30 5128 H 502.105 -3.92052 -0.0611199 0
M  V30 5129 H 503.595 -4.04349 -1.04363 0
M  V30 5130 N 504.032 -0.577932 -1.46621 0
M  V30 5131 C 504.995 0.147805 -2.28723 0
M  V30 5132 C 505.995 0.823325 -1.38123 0
M  V30 5133 O 507.185 0.676011 -1.60548 0
M  V30 5134 C 504.317 1.21853 -3.18378 0
M  V30 5135 H 505.51 -0.573654 -2.94362 0
M  V30 5136 H 503.063 -0.335703 -1.52652 0
M  V30 5137 H 503.798 1.97173 -2.57475 0
M  V30 5138 H 503.583 0.738714 -3.85078 0
M  V30 5139 H 505.073 1.72768 -3.80186 0
M  V30 5140 N 505.51 1.54411 -0.315457 0
M  V30 5141 C 506.758 2.00023 0.288971 0
M  V30 5142 C 507.079 1.20529 1.5329 0
M  V30 5143 O 506.349 0.304986 1.93511 0
M  V30 5144 H 504.929 0.738891 0.109766 0
M  V30 5145 H 507.591 1.90094 -0.430129 0
M  V30 5146 H 506.687 3.07198 0.550999 0
M  V30 5147 N 506.988 0.0434614 1.5754 0
M  V30 5148 C 507.898 -0.94893 2.14552 0
M  V30 5149 C 508.914 -1.34707 1.10136 0
M  V30 5150 O 510.09 -1.42557 1.42266 0
M  V30 5151 C 507.155 -2.208 2.67298 0
M  V30 5152 C 506.216 -1.86893 3.86484 0
M  V30 5153 C 505.449 -3.06797 4.36705 0
M  V30 5154 O 505.672 -4.19921 3.86034 0
M  V30 5155 O 504.606 -2.8826 5.28384 0
M  V30 5156 H 508.432 -0.494099 2.99654 0
M  V30 5157 H 506.017 -0.177989 1.48336 0
M  V30 5158 H 507.899 -2.94686 3.01228 0
M  V30 5159 H 506.574 -2.65436 1.85272 0
M  V30 5160 H 505.481 -1.10347 3.57455 0
M  V30 5161 H 506.814 -1.47062 4.69716 0
M  V30 5162 N 508.466 -1.55915 -0.229846 0
M  V30 5163 C 509.714 -1.7819 -0.953565 0
M  V30 5164 C 510.035 -0.610504 -1.85197 0
M  V30 5165 O 509.305 0.372988 -1.92316 0
M  V30 5166 H 507.885 -0.657208 -0.355087 0
M  V30 5167 H 510.547 -1.9337 -0.243693 0
M  V30 5168 H 509.643 -2.70011 -1.56527 0
M  V30 5169 N 509.944 0.496216 -1.49584 0
M  V30 5170 C 511.355 1.07765 -1.52459 0
M  V30 5171 C 511.706 1.93679 -0.31353 0
M  V30 5172 O 510.831 2.08588 0.576186 0
M  V30 5173 C 511.426 1.96111 -2.76271 0
M  V30 5174 C 509.985 2.49409 -2.81908 0
M  V30 5175 C 509.132 1.27142 -2.46435 0
M  V30 5176 H 512.083 0.279914 -1.56212 0
M  V30 5177 H 512.104 2.80862 -2.56704 0
M  V30 5178 H 511.616 1.33555 -3.64396 0
M  V30 5179 H 509.717 3.1559 -1.98074 0
M  V30 5180 H 509.83 2.86234 -3.84196 0
M  V30 5181 H 508.194 1.59818 -1.98319 0
M  V30 5182 H 508.977 0.662866 -3.3684 0
M  V30 5183 N 511.423 1.38739 0.74761 0
M  V30 5184 C 512.651 1.38521 1.53686 0
M  V30 5185 C 513.066 -0.0235129 1.88785 0
M  V30 5186 O 512.423 -0.991662 1.53207 0
M  V30 5187 C 512.474 2.24641 2.83229 0
M  V30 5188 O 512.195 3.60026 2.49625 0
M  V30 5189 C 513.696 2.32669 3.77333 0
M  V30 5190 H 510.916 0.473589 0.475347 0
M  V30 5191 H 513.46 1.82395 0.924786 0
M  V30 5192 H 511.615 1.84213 3.40799 0
M  V30 5193 H 512.029 4.05435 3.3275 0
M  V30 5194 H 513.503 2.97201 4.65162 0
M  V30 5195 H 513.98 1.3421 4.18192 0
M  V30 5196 H 514.586 2.73512 3.25685 0
M  V30 5197 N 512.901 -0.976442 1.23707 0
M  V30 5198 C 514.312 -1.53284 1.06587 0
M  V30 5199 C 514.663 -1.92765 -0.365526 0
M  V30 5200 O 513.788 -1.7645 -1.25277 0
M  V30 5201 C 514.383 -2.78548 1.92864 0
M  V30 5202 C 512.942 -3.30574 1.79994 0
M  V30 5203 C 512.089 -2.03538 1.88328 0
M  V30 5204 H 515.04 -0.795692 1.37311 0
M  V30 5205 H 515.061 -3.5155 1.45577 0
M  V30 5206 H 514.573 -2.49782 2.97037 0
M  V30 5207 H 512.674 -3.64211 0.786202 0
M  V30 5208 H 512.787 -4.00065 2.636 0
M  V30 5209 H 511.151 -2.17853 1.31954 0
M  V30 5210 H 511.934 -1.77149 2.94063 0
M  V30 5211 N 514.379 -1.04941 -1.1758 0
M  V30 5212 C 515.656 -0.671918 -1.83697 0
M  V30 5213 C 516.036 0.847929 -1.93322 0
M  V30 5214 O 515.384 1.75287 -1.46583 0
M  V30 5215 C 515.594 -1.35797 -3.21497 0
M  V30 5216 C 516.942 -1.4944 -3.97433 0
M  V30 5217 O 517.966 -1.31678 -3.30967 0
M  V30 5218 O 516.825 -1.78463 -5.1654 0
M  V30 5219 H 513.919 -0.236212 -0.792548 0
M  V30 5220 H 516.465 -1.14884 -1.24899 0
M  V30 5221 H 515.237 -2.39498 -3.09446 0
M  V30 5222 H 514.86 -0.870236 -3.8796 0
M  V30 5223 N 515.857 1.33968 -0.830081 0
M  V30 5224 C 517.268 1.80439 -0.479455 0
M  V30 5225 C 517.619 1.68756 1.00079 0
M  V30 5226 O 516.744 1.23171 1.77927 0
M  V30 5227 C 517.339 3.27611 -0.863505 0
M  V30 5228 C 515.898 3.72133 -0.565145 0
M  V30 5229 C 515.045 2.55549 -1.07657 0
M  V30 5230 H 517.996 1.21614 -1.0196 0
M  V30 5231 H 518.017 3.8012 -0.170083 0
M  V30 5232 H 517.529 3.36082 -1.94089 0
M  V30 5233 H 515.63 3.69196 0.502536 0
M  V30 5234 H 515.743 4.65963 -1.11422 0
M  V30 5235 H 514.107 2.49788 -0.497807 0
M  V30 5236 H 514.89 2.66786 -2.16055 0
M  V30 5237 N 517.335 0.585699 1.46312 0
M  V30 5238 C 518.581 0.0808731 2.03239 0
M  V30 5239 C 518.936 -1.26609 1.44872 0
M  V30 5240 O 518.229 -1.81779 0.60556 0
M  V30 5241 C 518.423 -0.0401312 3.57377 0
M  V30 5242 C 518.252 1.29356 4.30694 0
M  V30 5243 C 517.022 1.86849 4.69484 0
M  V30 5244 C 519.22 2.21742 4.64042 0
M  V30 5245 N 517.202 3.13926 5.27564 0
M  V30 5246 C 518.573 3.33408 5.22723 0
M  V30 5247 C 520.628 2.21386 4.45974 0
M  V30 5248 C 519.331 4.44852 5.65242 0
M  V30 5249 C 521.357 3.31862 4.89511 0
M  V30 5250 C 520.719 4.42248 5.48266 0
M  V30 5251 H 516.818 0.072443 0.778637 0
M  V30 5252 H 519.402 0.779254 1.78426 0
M  V30 5253 H 517.573 -0.707686 3.81898 0
M  V30 5254 H 519.305 -0.549615 4.00951 0
M  V30 5255 H 516.06 1.40307 4.52339 0
M  V30 5256 H 516.484 3.78775 5.61122 0
M  V30 5257 H 521.126 1.37314 3.99881 0
M  V30 5258 H 518.844 5.29665 6.10312 0
M  V30 5259 H 522.43 3.32708 4.7728 0
M  V30 5260 H 521.31 5.26323 5.81338 0
M  V30 5261 N 518.813 -1.54241 0.323641 0
M  V30 5262 C 520.061 -2.00174 -0.278359 0
M  V30 5263 C 520.382 -1.2134 -1.52648 0
M  V30 5264 O 519.652 -0.315244 -1.93347 0
M  V30 5265 H 518.232 -0.739463 -0.105845 0
M  V30 5266 H 520.894 -1.89864 0.440204 0
M  V30 5267 H 519.99 -3.07486 -0.5347 0
M  V30 5268 N 520.291 -0.0518155 -1.57515 0
M  V30 5269 C 521.516 0.634896 -1.97443 0
M  V30 5270 C 521.941 1.63546 -0.929207 0
M  V30 5271 O 521.299 1.80981 0.107484 0
M  V30 5272 C 521.347 1.29765 -3.36442 0
M  V30 5273 O 520.451 2.41333 -3.34413 0
M  V30 5274 H 519.792 0.164994 -0.643174 0
M  V30 5275 H 522.322 -0.120407 -2.04245 0
M  V30 5276 H 522.332 1.64918 -3.73184 0
M  V30 5277 H 521.007 0.564361 -4.12053 0
M  V30 5278 H 519.584 2.08122 -3.09418 0
M  V30 5279 N 521.769 1.56035 0.221574 0
M  V30 5280 C 522.994 1.83476 0.967026 0
M  V30 5281 C 523.419 0.632139 1.7716 0
M  V30 5282 O 522.777 -0.419082 1.7639 0
M  V30 5283 C 522.825 3.08907 1.86034 0
M  V30 5284 O 521.929 2.876 2.95567 0
M  V30 5285 H 521.27 0.604913 0.273817 0
M  V30 5286 H 523.8 2.03247 0.234893 0
M  V30 5287 H 523.81 3.3901 2.27016 0
M  V30 5288 H 522.485 3.96068 1.26898 0
M  V30 5289 H 521.062 2.6873 2.58532 0
M  V30 5290 N 523.247 -0.488276 1.49845 0
M  V30 5291 C 524.524 -1.24959 1.50481 0
M  V30 5292 C 524.904 -2.09735 0.239698 0
M  V30 5293 O 524.252 -2.14865 -0.777524 0
M  V30 5294 C 524.462 -2.0954 2.79095 0
M  V30 5295 C 525.81 -2.68305 3.29086 0
M  V30 5296 O 526.834 -2.19797 2.80299 0
M  V30 5297 O 525.693 -3.56643 4.14087 0
M  V30 5298 H 522.787 -0.566133 0.602845 0
M  V30 5299 H 525.333 -0.501504 1.6212 0
M  V30 5300 H 524.105 -1.46958 3.62656 0
M  V30 5301 H 523.728 -2.91517 2.70377 0
M  V30 5302 N 524.725 -1.39134 -0.740242 0
M  V30 5303 C 525.973 -1.35803 -1.49673 0
M  V30 5304 C 526.294 0.0470897 -1.94943 0
M  V30 5305 O 525.564 0.997347 -1.68611 0
M  V30 5306 H 524.144 -0.499736 -0.555224 0
M  V30 5307 H 526.806 -1.73947 -0.879107 0
M  V30 5308 H 525.902 -2.0174 -2.38133 0
M  V30 5309 N 526.204 0.969867 -1.24223 0
M  V30 5310 C 527.452 1.70918 -1.0785 0
M  V30 5311 C 527.773 1.91186 0.383763 0
M  V30 5312 O 527.043 1.48806 1.27411 0
M  V30 5313 H 525.623 0.633334 -0.396103 0
M  V30 5314 H 528.285 1.16689 -1.56108 0
M  V30 5315 H 527.381 2.69455 -1.57482 0
M  V30 5316 N 527.682 1.05563 1.17022 0
M  V30 5317 C 528.928 0.769074 1.87652 0
M  V30 5318 C 529.261 -0.702326 1.81055 0
M  V30 5319 O 528.536 -1.5139 1.22112 0
M  V30 5320 C 528.819 1.25492 3.37526 0
M  V30 5321 C 528.672 2.78953 3.52853 0
M  V30 5322 C 529.991 0.856919 4.31677 0
M  V30 5323 H 527.11 0.280854 0.681388 0
M  V30 5324 H 529.752 1.31027 1.37593 0
M  V30 5325 H 527.902 0.794516 3.80289 0
M  V30 5326 H 529.574 3.33146 3.19079 0
M  V30 5327 H 527.817 3.18046 2.95007 0
M  V30 5328 H 528.488 3.08011 4.58076 0
M  V30 5329 H 530.964 1.25334 3.96775 0
M  V30 5330 H 529.84 1.22443 5.35069 0
M  V30 5331 H 530.101 -0.238787 4.41455 0
M  V30 5332 N 529.16 -1.33526 0.837174 0
M  V30 5333 C 530.571 -1.80182 0.489017 0
M  V30 5334 C 530.922 -1.69285 -0.991826 0
M  V30 5335 O 530.047 -1.24113 -1.77271 0
M  V30 5336 C 530.642 -3.27149 0.880866 0
M  V30 5337 C 529.201 -3.71828 0.584872 0
M  V30 5338 C 528.348 -2.54974 1.09011 0
M  V30 5339 H 531.299 -1.21071 1.02603 0
M  V30 5340 H 531.32 -3.80024 0.190239 0
M  V30 5341 H 530.832 -3.35048 1.95869 0
M  V30 5342 H 528.933 -3.69457 -0.48295 0
M  V30 5343 H 529.046 -4.65366 1.13892 0
M  V30 5344 H 527.41 -2.4952 0.511047 0
M  V30 5345 H 528.193 -2.65637 2.17467 0
M  V30 5346 N 530.638 -0.59345 -1.46 0
M  V30 5347 C 531.884 -0.0832754 -2.02629 0
M  V30 5348 C 532.217 1.27749 -1.46266 0
M  V30 5349 O 531.492 1.8395 -0.631866 0
M  V30 5350 C 531.775 -0.0290756 -3.60088 0
M  V30 5351 C 531.628 -1.41951 -4.26814 0
M  V30 5352 C 532.947 0.666055 -4.35031 0
M  V30 5353 H 530.066 -0.031736 -0.736316 0
M  V30 5354 H 532.708 -0.762711 -1.74019 0
M  V30 5355 H 530.858 0.549532 -3.84594 0
M  V30 5356 H 532.53 -2.04411 -4.13538 0
M  V30 5357 H 530.773 -1.98422 -3.8576 0
M  V30 5358 H 531.444 -1.33395 -5.3564 0
M  V30 5359 H 533.92 0.174401 -4.15734 0
M  V30 5360 H 532.796 0.673041 -5.44758 0
M  V30 5361 H 533.057 1.72946 -4.06869 0
M  V30 5362 N 532.116 1.54067 -0.331816 0
M  V30 5363 C 533.341 2.05599 0.272705 0
M  V30 5364 C 533.766 1.2059 1.44359 0
M  V30 5365 O 533.124 0.216907 1.79998 0
M  V30 5366 C 533.172 3.54188 0.677021 0
M  V30 5367 O 532.276 3.72082 1.77844 0
M  V30 5368 H 531.617 0.662286 0.0476801 0
M  V30 5369 H 534.147 1.98826 -0.482624 0
M  V30 5370 H 534.157 3.96608 0.957415 0
M  V30 5371 H 532.832 4.15513 -0.179325 0
M  V30 5372 H 531.409 3.41566 1.49622 0
M  V30 5373 N 533.594 0.0601682 1.57485 0
M  V30 5374 C 534.842 -0.610386 1.92662 0
M  V30 5375 C 535.163 -1.70849 0.939981 0
M  V30 5376 O 534.433 -1.95895 -0.0137455 0
M  V30 5377 H 533.013 -0.228457 0.711208 0
M  V30 5378 H 535.675 0.115288 1.94559 0
M  V30 5379 H 534.771 -1.0432 2.94149 0
M  V30 5380 N 535.072 -1.5615 -0.213296 0
M  V30 5381 C 536.483 -1.69645 -0.779582 0
M  V30 5382 C 536.834 -0.663615 -1.84636 0
M  V30 5383 O 535.959 0.183633 -2.15619 0
M  V30 5384 C 536.554 -3.07567 -1.42084 0
M  V30 5385 C 535.113 -3.22889 -1.93442 0
M  V30 5386 C 534.26 -2.65581 -0.797612 0
M  V30 5387 H 537.211 -1.58696 0.0114951 0
M  V30 5388 H 537.232 -3.03884 -2.28986 0
M  V30 5389 H 536.744 -3.82716 -0.644187 0
M  V30 5390 H 534.845 -2.52623 -2.73884 0
M  V30 5391 H 534.958 -4.30197 -2.10872 0
M  V30 5392 H 533.322 -2.24278 -1.20712 0
M  V30 5393 H 534.105 -3.43284 -0.033494 0
M  V30 5394 N 536.55 0.480323 -1.50102 0
M  V30 5395 C 537.775 1.26126 -1.64642 0
M  V30 5396 C 538.2 1.85257 -0.325823 0
M  V30 5397 O 537.558 1.66854 0.709194 0
M  V30 5398 C 537.606 2.35243 -2.73301 0
M  V30 5399 O 536.71 3.39646 -2.33911 0
M  V30 5400 H 536.051 0.371463 -0.550374 0
M  V30 5401 H 538.581 0.572696 -1.96421 0
M  V30 5402 H 538.591 2.80695 -2.96098 0
M  V30 5403 H 537.266 1.91574 -3.6915 0
M  V30 5404 H 535.843 2.99969 -2.21525 0
M  V30 5405 N 538.028 1.39524 0.732853 0
M  V30 5406 C 538.991 1.38189 1.82857 0
M  V30 5407 C 539.991 0.278624 1.58368 0
M  V30 5408 O 541.181 0.536639 1.65728 0
M  V30 5409 C 538.313 1.15661 3.2068 0
M  V30 5410 H 539.506 2.35692 1.85444 0
M  V30 5411 H 537.059 1.2512 0.936728 0
M  V30 5412 H 537.794 0.188482 3.23752 0
M  V30 5413 H 537.579 1.95559 3.39852 0
M  V30 5414 H 539.069 1.17472 4.00737 0
M  V30 5415 N 539.506 -0.963266 1.24736 0
M  V30 5416 C 540.731 -1.74699 1.11781 0
M  V30 5417 C 541.156 -1.85267 -0.325258 0
M  V30 5418 O 540.514 -1.32681 -1.23553 0
M  V30 5419 C 540.562 -3.14322 1.76731 0
M  V30 5420 O 539.666 -3.99043 1.04109 0
M  V30 5421 H 539.007 -0.53684 0.390767 0
M  V30 5422 H 541.537 -1.20801 1.65131 0
M  V30 5423 H 541.547 -3.64824 1.82668 0
M  V30 5424 H 540.222 -3.05946 2.81726 0
M  V30 5425 H 538.799 -3.5752 1.05991 0
M  V30 5426 N 540.985 -1.06182 -1.16461 0
M  V30 5427 C 542.262 -0.691364 -1.82974 0
M  V30 5428 C 542.642 0.827377 -1.9421 0
M  V30 5429 O 541.99 1.73723 -1.48434 0
M  V30 5430 C 542.2 -1.39199 -3.20038 0
M  V30 5431 C 543.548 -1.53647 -3.95825 0
M  V30 5432 O 544.572 -1.35181 -3.29552 0
M  V30 5433 O 543.431 -1.83932 -5.14618 0
M  V30 5434 H 540.525 -0.244605 -0.789998 0
M  V30 5435 H 543.071 -1.16203 -1.23673 0
M  V30 5436 H 541.843 -2.42766 -3.06888 0
M  V30 5437 H 541.466 -0.911335 -3.87015 0
M  V30 5438 N 542.463 1.3308 -0.844243 0
M  V30 5439 C 543.874 1.7992 -0.498566 0
M  V30 5440 C 544.225 1.69808 0.982834 0
M  V30 5441 O 543.35 1.25051 1.7661 0
M  V30 5442 C 543.945 3.26677 -0.898204 0
M  V30 5443 C 542.504 3.71513 -0.604583 0
M  V30 5444 C 541.651 2.54393 -1.10362 0
M  V30 5445 H 544.602 1.20526 -1.03244 0
M  V30 5446 H 544.623 3.79918 -0.21039 0
M  V30 5447 H 544.135 3.34004 -1.97643 0
M  V30 5448 H 542.236 3.69708 0.46335 0
M  V30 5449 H 542.349 4.64755 -1.16358 0
M  V30 5450 H 540.713 2.49246 -0.524273 0
M  V30 5451 H 541.496 2.6448 -2.18873 0
M  V30 5452 N 543.941 0.601185 1.45683 0
M  V30 5453 C 545.187 0.102425 2.03142 0
M  V30 5454 C 545.542 -1.25066 1.46207 0
M  V30 5455 O 544.835 -1.81126 0.624806 0
M  V30 5456 C 545.029 -0.00222425 3.574 0
M  V30 5457 C 544.858 1.33917 4.29298 0
M  V30 5458 C 543.628 1.91818 4.67476 0
M  V30 5459 C 545.826 2.26652 4.61664 0
M  V30 5460 N 543.808 3.19504 5.24204 0
M  V30 5461 C 545.179 3.38933 5.19157 0
M  V30 5462 C 547.234 2.26103 4.43601 0
M  V30 5463 C 545.937 4.50823 5.60492 0
M  V30 5464 C 547.963 3.37036 4.85964 0
M  V30 5465 C 547.325 4.48039 5.43545 0
M  V30 5466 H 543.424 0.0806974 0.777825 0
M  V30 5467 H 546.008 0.798134 1.77589 0
M  V30 5468 H 544.179 -0.66714 3.82627 0
M  V30 5469 H 545.911 -0.507058 4.01511 0
M  V30 5470 H 542.666 1.45097 4.50826 0
M  V30 5471 H 543.09 3.84705 5.57073 0
M  V30 5472 H 547.732 1.41547 3.98402 0
M  V30 5473 H 545.45 5.36108 6.0466 0
M  V30 5474 H 549.036 3.37752 4.73725 0
M  V30 5475 H 547.916 5.32459 5.75723 0
M  V30 5476 N 545.419 -1.53889 0.339982 0
M  V30 5477 C 546.647 -2.05271 -0.259114 0
M  V30 5478 C 547.062 -1.21517 -1.44496 0
M  V30 5479 O 546.419 -0.24966 -1.80784 0
M  V30 5480 C 546.47 -3.55092 -0.677634 0
M  V30 5481 O 546.191 -4.35667 0.461051 0
M  V30 5482 C 547.692 -4.22631 -1.33782 0
M  V30 5483 H 544.912 -0.669085 -0.0506566 0
M  V30 5484 H 547.456 -1.9852 0.490935 0
M  V30 5485 H 545.611 -3.62077 -1.37763 0
M  V30 5486 H 546.025 -5.24343 0.128144 0
M  V30 5487 H 547.499 -5.28861 -1.58145 0
M  V30 5488 H 547.976 -3.74758 -2.29027 0
M  V30 5489 H 548.582 -4.19829 -0.679957 0
M  V30 5490 N 546.897 -0.0685191 -1.57451 0
M  V30 5491 C 548.308 0.464634 -1.80826 0
M  V30 5492 C 548.659 1.69847 -0.982169 0
M  V30 5493 O 547.784 2.15439 -0.203734 0
M  V30 5494 C 548.379 0.849721 -3.27971 0
M  V30 5495 C 546.938 1.32776 -3.52204 0
M  V30 5496 C 546.085 0.311332 -2.75547 0
M  V30 5497 H 549.036 -0.294248 -1.55948 0
M  V30 5498 H 549.057 1.71138 -3.39841 0
M  V30 5499 H 548.569 -0.0484736 -3.8807 0
M  V30 5500 H 546.67 2.24456 -2.97406 0
M  V30 5501 H 546.783 1.30794 -4.60901 0
M  V30 5502 H 545.147 0.787915 -2.42206 0
M  V30 5503 H 545.93 -0.579078 -3.38381 0
M  V30 5504 N 548.375 1.56261 0.205012 0
M  V30 5505 C 549.338 1.92908 1.23771 0
M  V30 5506 C 550.338 0.809208 1.38955 0
M  V30 5507 O 551.528 1.07676 1.36936 0
M  V30 5508 C 548.66 2.19442 2.60879 0
M  V30 5509 H 549.853 2.85287 0.924728 0
M  V30 5510 H 547.406 1.49798 0.446125 0
M  V30 5511 H 548.141 1.29668 2.97248 0
M  V30 5512 H 547.926 3.0104 2.51232 0
M  V30 5513 H 549.416 2.48833 3.35368 0
M  V30 5514 N 549.853 -0.472356 1.50355 0
M  V30 5515 C 551.264 -1.05326 1.54154 0
M  V30 5516 C 551.615 -1.93155 0.344303 0
M  V30 5517 O 550.74 -2.09479 -0.542928 0
M  V30 5518 C 551.335 -1.91691 2.79356 0
M  V30 5519 C 549.894 -2.44892 2.8584 0
M  V30 5520 C 549.041 -1.23205 2.48426 0
M  V30 5521 H 551.992 -0.255027 1.56637 0
M  V30 5522 H 552.013 -2.76742 2.6114 0
M  V30 5523 H 551.525 -1.27741 3.66475 0
M  V30 5524 H 549.626 -3.12399 2.0307 0
M  V30 5525 H 549.739 -2.80086 3.88701 0
M  V30 5526 H 548.103 -1.56643 2.00836 0
M  V30 5527 H 548.886 -0.609194 3.37852 0
M  V30 5528 N 551.331 -1.39911 -0.725443 0
M  V30 5529 C 552.294 -1.39156 -1.82121 0
M  V30 5530 C 553.294 -0.287018 -1.58218 0
M  V30 5531 O 554.484 -0.545421 -1.65441 0
M  V30 5532 C 551.616 -1.1736 -3.20062 0
M  V30 5533 H 552.809 -2.36672 -1.84191 0
M  V30 5534 H 550.362 -1.25615 -0.930079 0
M  V30 5535 H 551.097 -0.205648 -3.23647 0
M  V30 5536 H 550.882 -1.97358 -3.3881 0
M  V30 5537 H 552.372 -1.19596 -4.00108 0
M  V30 5538 N 552.809 0.956637 -1.25245 0
M  V30 5539 C 554.056 1.701 -1.09874 0
M  V30 5540 C 554.384 1.91128 0.36062 0
M  V30 5541 O 553.639 1.47837 1.28229 0
M  V30 5542 C 553.938 3.08996 -1.79601 0
M  V30 5543 C 553.604 3.07774 -3.29523 0
M  V30 5544 C 552.266 3.07149 -3.70423 0
M  V30 5545 C 554.618 3.01257 -4.25316 0
M  V30 5546 C 551.946 2.97752 -5.0553 0
M  V30 5547 C 554.298 2.93403 -5.60444 0
M  V30 5548 C 552.962 2.91111 -6.00675 0
M  V30 5549 H 552.232 0.62244 -0.402056 0
M  V30 5550 H 554.879 1.1178 -1.55491 0
M  V30 5551 H 553.184 3.70848 -1.26408 0
M  V30 5552 H 554.881 3.65407 -1.65162 0
M  V30 5553 H 551.471 3.09032 -2.9698 0
M  V30 5554 H 555.655 3.00861 -3.9471 0
M  V30 5555 H 550.911 2.94346 -5.35883 0
M  V30 5556 H 555.085 2.87321 -6.34366 0
M  V30 5557 H 552.712 2.83586 -7.05325 0
M  V30 5558 N 554.287 1.06798 1.15896 0
M  V30 5559 C 555.512 0.808739 1.90982 0
M  V30 5560 C 555.937 -0.6316 1.77179 0
M  V30 5561 O 555.295 -1.4407 1.10061 0
M  V30 5562 C 555.343 1.21468 3.39526 0
M  V30 5563 O 554.447 0.356562 4.10856 0
M  V30 5564 H 553.788 0.29512 0.594811 0
M  V30 5565 H 556.318 1.42513 1.46804 0
M  V30 5566 H 556.328 1.18844 3.90308 0
M  V30 5567 H 555.003 2.26379 3.48891 0
M  V30 5568 H 553.58 0.444808 3.70238 0
M  V30 5569 N 555.766 -1.3263 0.851289 0
M  V30 5570 C 557.043 -1.91982 0.374448 0
M  V30 5571 C 557.423 -1.77568 -1.14161 0
M  V30 5572 O 556.771 -1.1717 -1.96172 0
M  V30 5573 C 556.981 -3.38862 0.835088 0
M  V30 5574 C 558.329 -4.15999 0.850309 0
M  V30 5575 O 559.353 -3.47566 0.779505 0
M  V30 5576 O 558.212 -5.38189 0.949481 0
M  V30 5577 H 555.306 -0.819846 0.10854 0
M  V30 5578 H 557.852 -1.41422 0.937966 0
M  V30 5579 H 556.624 -3.43281 1.87814 0
M  V30 5580 H 556.247 -3.96821 0.248833 0
M  V30 5581 N 557.244 -0.608902 -1.45362 0
M  V30 5582 C 558.655 -0.189511 -1.85736 0
M  V30 5583 C 559.006 1.2539 -1.50903 0
M  V30 5584 O 558.131 1.95094 -0.936347 0
M  V30 5585 C 558.726 -0.33716 -3.37118 0
M  V30 5586 C 557.285 0.0275487 -3.7639 0
M  V30 5587 C 556.432 -0.660983 -2.69307 0
M  V30 5588 H 559.383 -0.815499 -1.36144 0
M  V30 5589 H 559.404 0.430257 -3.7806 0
M  V30 5590 H 558.916 -1.38779 -3.62439 0
M  V30 5591 H 557.017 1.0773 -3.56686 0
M  V30 5592 H 557.13 -0.367018 -4.77692 0
M  V30 5593 H 555.494 -0.0984958 -2.54509 0
M  V30 5594 H 556.277 -1.71377 -2.97464 0
M  V30 5595 N 558.722 1.53707 -0.348139 0
M  V30 5596 C 559.968 2.01979 0.239986 0
M  V30 5597 C 560.323 1.23141 1.47831 0
M  V30 5598 O 559.616 0.311936 1.89044 0
M  V30 5599 C 559.81 3.52292 0.602061 0
M  V30 5600 C 559.639 4.45684 -0.599625 0
M  V30 5601 C 558.409 4.9304 -1.10635 0
M  V30 5602 C 560.607 4.93156 -1.4595 0
M  V30 5603 N 558.589 5.70394 -2.26988 0
M  V30 5604 C 559.96 5.6868 -2.46988 0
M  V30 5605 C 562.015 4.75257 -1.48441 0
M  V30 5606 C 560.718 6.28208 -3.50353 0
M  V30 5607 C 562.744 5.35639 -2.50689 0
M  V30 5608 C 562.106 6.11034 -3.50453 0
M  V30 5609 H 558.205 0.780335 0.0509992 0
M  V30 5610 H 560.789 1.88466 -0.488742 0
M  V30 5611 H 558.96 3.66002 1.29989 0
M  V30 5612 H 560.692 3.87304 1.17377 0
M  V30 5613 H 557.447 4.68784 -0.67371 0
M  V30 5614 H 557.871 6.13741 -2.85747 0
M  V30 5615 H 562.513 4.16508 -0.726707 0
M  V30 5616 H 560.231 6.86064 -4.27015 0
M  V30 5617 H 563.817 5.23693 -2.53449 0
M  V30 5618 H 562.697 6.56925 -4.28275 0
M  V30 5619 N 560.2 0.0768682 1.57412 0
M  V30 5620 C 561.448 -0.589918 1.93299 0
M  V30 5621 C 561.769 -1.69842 0.958049 0
M  V30 5622 O 561.039 -1.95899 0.00703261 0
M  V30 5623 H 559.619 -0.220901 0.713591 0
M  V30 5624 H 562.281 0.135917 1.94425 0
M  V30 5625 H 561.377 -1.01195 2.95239 0
M  V30 5626 N 561.678 -1.56367 -0.196722 0
M  V30 5627 C 562.926 -1.80172 -0.915554 0
M  V30 5628 C 563.247 -0.649649 -1.8386 0
M  V30 5629 O 562.517 0.332111 -1.93064 0
M  V30 5630 H 561.097 -0.664592 -0.341067 0
M  V30 5631 H 563.759 -1.93844 -0.202622 0
M  V30 5632 H 562.855 -2.7327 -1.50764 0
M  V30 5633 N 563.156 0.464375 -1.50603 0
M  V30 5634 C 564.381 1.24372 -1.65971 0
M  V30 5635 C 564.806 1.84901 -0.345453 0
M  V30 5636 O 564.164 1.67596 0.691457 0
M  V30 5637 C 564.212 2.32331 -2.7578 0
M  V30 5638 O 563.316 3.37146 -2.375 0
M  V30 5639 H 562.657 0.365604 -0.554283 0
M  V30 5640 H 565.187 0.55183 -1.97018 0
M  V30 5641 H 565.197 2.77539 -2.99059 0
M  V30 5642 H 563.872 1.87648 -3.71162 0
M  V30 5643 H 562.449 2.97602 -2.24694 0
M  V30 5644 N 564.634 1.40294 0.718013 0
M  V30 5645 C 566.045 1.34289 1.29705 0
M  V30 5646 C 566.396 0.0152228 1.96194 0
M  V30 5647 O 565.521 -0.88682 1.97394 0
M  V30 5648 C 566.116 2.43219 2.3586 0
M  V30 5649 C 564.675 2.40682 2.89394 0
M  V30 5650 C 563.822 2.24223 1.63154 0
M  V30 5651 H 566.773 1.50135 0.514312 0
M  V30 5652 H 566.794 2.10986 3.16647 0
M  V30 5653 H 566.306 3.39836 1.87439 0
M  V30 5654 H 564.407 1.47756 3.42051 0
M  V30 5655 H 564.52 3.36177 3.41353 0
M  V30 5656 H 562.884 1.71696 1.88129 0
M  V30 5657 H 563.667 3.22834 1.16761 0
M  V30 5658 N 566.112 -0.949982 1.2575 0
M  V30 5659 C 567.075 -2.02894 1.06615 0
M  V30 5660 C 568.075 -1.60791 0.0173905 0
M  V30 5661 O 569.265 -1.72249 0.260003 0
M  V30 5662 C 566.397 -3.35219 0.619751 0
M  V30 5663 H 567.59 -2.21302 2.02399 0
M  V30 5664 H 565.143 -1.12772 1.08223 0
M  V30 5665 H 565.878 -3.22508 -0.340486 0
M  V30 5666 H 565.663 -3.67129 1.37692 0
M  V30 5667 H 567.153 -4.14505 0.507443 0
M  V30 5668 N 567.59 -1.07411 -1.15328 0
M  V30 5669 C 568.537 -0.694995 -2.20087 0
M  V30 5670 C 569.507 0.313904 -1.63107 0
M  V30 5671 O 570.692 0.200216 -1.89747 0
M  V30 5672 C 567.832 -0.0996218 -3.44956 0
M  V30 5673 C 566.945 -1.16007 -4.16133 0
M  V30 5674 C 566.08 -0.529636 -5.28553 0
M  V30 5675 C 565.119 -1.57283 -5.91548 0
M  V30 5676 N 564.256 -0.964932 -6.95438 0
M  V30 5677 H 569.096 -1.5927 -2.51867 0
M  V30 5678 H 566.633 -0.796115 -1.23695 0
M  V30 5679 H 568.591 0.263197 -4.16369 0
M  V30 5680 H 567.221 0.761435 -3.13691 0
M  V30 5681 H 566.273 -1.64045 -3.4321 0
M  V30 5682 H 567.585 -1.95101 -4.59061 0
M  V30 5683 H 566.739 -0.114487 -6.06592 0
M  V30 5684 H 565.478 0.29307 -4.86819 0
M  V30 5685 H 564.483 -1.99775 -5.12221 0
M  V30 5686 H 565.708 -2.39783 -6.35359 0
M  V30 5687 H 563.654 -0.16314 -6.55797 0
M  V30 5688 H 563.571 -1.69311 -7.36797 0
M  V30 5689 H 564.839 -0.575305 -7.77374 0
M  V30 5690 N 569.068 1.32177 -0.85831 0
M  V30 5691 C 570.479 1.79381 -0.517621 0
M  V30 5692 C 570.83 1.70841 0.964769 0
M  V30 5693 O 569.955 1.26917 1.75274 0
M  V30 5694 C 570.55 3.25706 -0.932801 0
M  V30 5695 C 569.109 3.70851 -0.643953 0
M  V30 5696 C 568.256 2.53208 -1.13054 0
M  V30 5697 H 571.207 1.19424 -1.04516 0
M  V30 5698 H 571.228 3.79673 -0.250674 0
M  V30 5699 H 570.74 3.31889 -2.01174 0
M  V30 5700 H 568.841 3.70178 0.424112 0
M  V30 5701 H 568.954 4.63495 -1.21281 0
M  V30 5702 H 567.318 2.48676 -0.550679 0
M  V30 5703 H 568.101 2.62143 -2.21666 0
M  V30 5704 N 570.547 0.616602 1.45037 0
M  V30 5705 C 571.772 0.120192 2.07051 0
M  V30 5706 C 572.197 -1.19008 1.45666 0
M  V30 5707 O 571.555 -1.7267 0.552692 0
M  V30 5708 C 571.603 0.00354901 3.606 0
M  V30 5709 O 570.707 -1.04431 3.98958 0
M  V30 5710 H 570.048 0.0781599 0.659384 0
M  V30 5711 H 572.578 0.849167 1.86146 0
M  V30 5712 H 572.588 -0.191754 4.07549 0
M  V30 5713 H 571.263 0.960239 4.04663 0
M  V30 5714 H 569.84 -0.824749 3.63665 0
M  V30 5715 N 572.025 -1.5352 0.356285 0
M  V30 5716 C 573.253 -2.05534 -0.237328 0
M  V30 5717 C 573.668 -1.23043 -1.43199 0
M  V30 5718 O 573.025 -0.268821 -1.80509 0
M  V30 5719 C 573.076 -3.55791 -0.639933 0
M  V30 5720 O 572.797 -4.35154 0.507233 0
M  V30 5721 C 574.298 -4.24027 -1.29292 0
M  V30 5722 H 571.518 -0.669585 -0.0435572 0
M  V30 5723 H 574.062 -1.97988 0.511963 0
M  V30 5724 H 572.217 -3.63518 -1.33915 0
M  V30 5725 H 572.631 -5.24178 0.18375 0
M  V30 5726 H 574.105 -5.30509 -1.52527 0
M  V30 5727 H 574.582 -3.77166 -2.25039 0
M  V30 5728 H 575.188 -4.20527 -0.63539 0
M  V30 5729 N 573.503 -0.0852151 -1.57369 0
M  V30 5730 C 574.451 0.894856 -2.14698 0
M  V30 5731 C 575.445 1.29903 -1.08727 0
M  V30 5732 O 576.651 1.27471 -1.27088 0
M  V30 5733 H 573.026 0.306569 -0.686673 0
M  V30 5734 H 574.997 0.386542 -2.95886 0
M  V30 5735 C 573.746 2.14798 -2.73417 0
M  V30 5736 H 573.069 1.84585 -3.54638 0
M  V30 5737 H 574.509 2.81456 -3.1711 0
M  V30 5738 C 572.968 2.91546 -1.68828 0
M  V30 5739 O 573.498 3.85733 -1.12129 0
M  V30 5740 N 571.704 2.54901 -1.39549 0
M  V30 5741 H 571.251 1.7838 -1.85845 0
M  V30 5742 H 571.209 3.06553 -0.698054 0
M  V30 5743 N 574.981 1.5647 0.188427 0
M  V30 5744 C 576.229 1.80655 0.905986 0
M  V30 5745 C 576.55 0.659391 1.83513 0
M  V30 5746 O 575.82 -0.321868 1.93238 0
M  V30 5747 H 574.4 0.666391 0.337538 0
M  V30 5748 H 577.062 1.93949 0.192339 0
M  V30 5749 H 576.158 2.74066 1.49313 0
M  V30 5750 N 576.459 -0.456382 1.50847 0
M  V30 5751 C 577.687 -1.23026 1.66349 0
M  V30 5752 C 578.102 -1.85473 0.352868 0
M  V30 5753 O 577.459 -1.69885 -0.666739 0
M  V30 5754 C 577.51 -2.32827 2.76539 0
M  V30 5755 O 577.231 -1.72938 4.02522 0
M  V30 5756 C 578.732 -3.23448 3.03144 0
M  V30 5757 H 575.952 -0.371527 0.558756 0
M  V30 5758 H 578.496 -0.543082 1.97157 0
M  V30 5759 H 576.651 -2.97294 2.48384 0
M  V30 5760 H 577.065 -2.45357 4.63573 0
M  V30 5761 H 578.539 -3.96669 3.83872 0
M  V30 5762 H 579.016 -3.83094 2.14793 0
M  V30 5763 H 579.622 -2.64702 3.32886 0
M  V30 5764 N 577.937 -1.40673 -0.710563 0
M  V30 5765 C 579.165 -1.42547 -1.4996 0
M  V30 5766 C 579.58 -0.0265485 -1.88781 0
M  V30 5767 O 578.937 0.950694 -1.55782 0
M  V30 5768 C 578.988 -2.32071 -2.77173 0
M  V30 5769 O 578.709 -3.66518 -2.39992 0
M  V30 5770 C 580.21 -2.42591 -3.71032 0
M  V30 5771 H 577.43 -0.486025 -0.462623 0
M  V30 5772 H 579.974 -1.84783 -0.876102 0
M  V30 5773 H 578.129 -1.93184 -3.35795 0
M  V30 5774 H 578.543 -4.14115 -3.21884 0
M  V30 5775 H 580.017 -3.09429 -4.57119 0
M  V30 5776 H 580.494 -1.4525 -4.14486 0
M  V30 5777 H 581.1 -2.82051 -3.18319 0
M  V30 5778 N 579.415 0.9433 -1.26252 0
M  V30 5779 C 580.378 2.02326 -1.07689 0
M  V30 5780 C 581.378 1.60779 -0.0259174 0
M  V30 5781 O 582.568 1.72108 -0.269134 0
M  V30 5782 C 579.7 3.34886 -0.63752 0
M  V30 5783 H 580.893 2.20225 -2.0357 0
M  V30 5784 H 578.446 1.12197 -1.08819 0
M  V30 5785 H 579.181 3.22684 0.323377 0
M  V30 5786 H 578.966 3.66393 -1.39637 0
M  V30 5787 H 580.456 4.14231 -0.529418 0
M  V30 5788 N 580.893 1.08022 1.14757 0
M  V30 5789 C 581.856 0.71048 2.1791 0
M  V30 5790 C 582.856 -0.252731 1.58801 0
M  V30 5791 O 584.046 -0.0327915 1.74169 0
M  V30 5792 C 581.178 0.0483203 3.40866 0
M  V30 5793 H 582.371 1.62384 2.52134 0
M  V30 5794 H 579.924 0.877595 1.29337 0
M  V30 5795 H 580.659 -0.876959 3.12218 0
M  V30 5796 H 580.444 0.741189 3.85031 0
M  V30 5797 H 581.934 -0.195471 4.17142 0
M  V30 5798 N 582.371 -1.3172 0.865308 0
M  V30 5799 C 583.619 -1.96487 0.472995 0
M  V30 5800 C 583.94 -1.68761 -0.976975 0
M  V30 5801 O 583.21 -1.00051 -1.68424 0
M  V30 5802 H 581.79 -0.726947 0.171922 0
M  V30 5803 H 584.452 -1.60612 1.10407 0
M  V30 5804 H 583.548 -3.0574 0.62687 0
M  V30 5805 N 583.85 -0.624285 -1.44708 0
M  V30 5806 C 585.098 -0.125802 -2.01708 0
M  V30 5807 C 585.418 1.2543 -1.49306 0
M  V30 5808 O 584.689 1.83198 -0.693924 0
M  V30 5809 H 583.269 -0.0435161 -0.745731 0
M  V30 5810 H 585.931 -0.809446 -1.77296 0
M  V30 5811 H 585.027 -0.0882734 -3.11975 0
M  V30 5812 N 585.328 1.53329 -0.364422 0
M  V30 5813 C 586.575 2.01239 0.225634 0
M  V30 5814 C 586.903 1.25172 1.48869 0
M  V30 5815 O 586.158 0.333289 1.92841 0
M  V30 5816 C 586.457 3.52911 0.564661 0
M  V30 5817 C 586.123 4.46837 -0.603936 0
M  V30 5818 C 584.785 4.72234 -0.924585 0
M  V30 5819 C 587.137 5.02409 -1.38691 0
M  V30 5820 C 584.465 5.50454 -2.0302 0
M  V30 5821 C 586.817 5.81836 -2.48293 0
M  V30 5822 C 585.481 6.0552 -2.80894 0
M  V30 5823 H 584.751 0.736386 0.0825654 0
M  V30 5824 H 587.398 1.84948 -0.496645 0
M  V30 5825 H 585.703 3.67144 1.36794 0
M  V30 5826 H 587.4 3.87455 1.03344 0
M  V30 5827 H 583.99 4.27217 -0.343983 0
M  V30 5828 H 588.174 4.82735 -1.15243 0
M  V30 5829 H 583.43 5.67024 -2.28678 0
M  V30 5830 H 587.604 6.23905 -3.0938 0
M  V30 5831 H 585.231 6.65916 -3.66688 0
M  V30 5832 N 586.806 0.0935595 1.57322 0
M  V30 5833 C 588.083 -0.612692 1.85756 0
M  V30 5834 C 588.463 -1.86439 0.99013 0
M  V30 5835 O 587.811 -2.28416 0.0621362 0
M  V30 5836 C 588.021 -0.929547 3.36393 0
M  V30 5837 C 589.369 -1.29366 4.04413 0
M  V30 5838 O 590.393 -1.02061 3.41265 0
M  V30 5839 O 589.252 -1.80498 5.15832 0
M  V30 5840 H 586.346 -0.306444 0.768128 0
M  V30 5841 H 588.892 0.126141 1.69231 0
M  V30 5842 H 587.664 -0.0414766 3.91278 0
M  V30 5843 H 587.287 -1.72441 3.5826 0
M  V30 5844 N 588.284 -1.56567 -0.180126 0
M  V30 5845 C 589.512 -1.85618 -0.913972 0
M  V30 5846 C 589.927 -0.677892 -1.7621 0
M  V30 5847 O 589.284 0.353171 -1.7905 0
M  V30 5848 C 589.335 -3.13619 -1.79793 0
M  V30 5849 O 589.056 -4.26906 -0.98402 0
M  V30 5850 C 590.557 -3.55954 -2.64219 0
M  V30 5851 H 587.777 -0.616043 -0.265954 0
M  V30 5852 H 590.321 -2.03681 -0.182872 0
M  V30 5853 H 588.476 -2.97409 -2.48247 0
M  V30 5854 H 588.89 -4.9989 -1.58776 0
M  V30 5855 H 590.364 -4.48444 -3.21873 0
M  V30 5856 H 590.841 -2.79653 -3.38661 0
M  V30 5857 H 591.447 -3.74746 -2.01111 0
M  V30 5858 N 589.762 0.448376 -1.51087 0
M  V30 5859 C 590.672 1.56882 -1.74428 0
M  V30 5860 C 591.688 1.62268 -0.62809 0
M  V30 5861 O 592.864 1.79716 -0.909075 0
M  V30 5862 C 589.929 2.92947 -1.85426 0
M  V30 5863 C 588.99 2.97766 -3.09247 0
M  V30 5864 C 588.223 4.27341 -3.19711 0
M  V30 5865 O 588.446 5.19112 -2.36387 0
M  V30 5866 O 587.38 4.38219 -4.12611 0
M  V30 5867 H 591.206 1.40104 -2.69452 0
M  V30 5868 H 588.791 0.630247 -1.35456 0
M  V30 5869 H 590.673 3.73719 -1.94709 0
M  V30 5870 H 589.348 3.09876 -0.935887 0
M  V30 5871 H 588.255 2.15989 -3.0545 0
M  V30 5872 H 589.588 2.8578 -4.00738 0
M  V30 5873 N 591.24 1.41047 0.703093 0
M  V30 5874 C 592.651 1.35657 1.28274 0
M  V30 5875 C 593.002 0.0360309 1.96167 0
M  V30 5876 O 592.127 -0.865833 1.98324 0
M  V30 5877 C 592.722 2.45707 2.33267 0
M  V30 5878 C 591.281 2.43738 2.86825 0
M  V30 5879 C 590.428 2.25941 1.60767 0
M  V30 5880 H 593.379 1.50672 0.49836 0
M  V30 5881 H 593.4 2.14333 3.14391 0
M  V30 5882 H 592.912 3.41805 1.83824 0
M  V30 5883 H 591.013 1.51375 3.40465 0
M  V30 5884 H 591.126 3.39779 3.37768 0
M  V30 5885 H 589.49 1.73681 1.86298 0
M  V30 5886 H 590.273 3.24054 1.1333 0
M  V30 5887 N 592.718 -0.936591 1.26751 0
M  V30 5888 C 593.995 -1.66094 1.03306 0
M  V30 5889 C 594.375 -2.06568 -0.435058 0
M  V30 5890 O 593.723 -1.79305 -1.41641 0
M  V30 5891 C 593.933 -2.86969 1.98619 0
M  V30 5892 C 595.281 -3.58516 2.27489 0
M  V30 5893 O 596.305 -2.97082 1.96522 0
M  V30 5894 O 595.164 -4.69181 2.80235 0
M  V30 5895 H 592.258 -0.727568 0.393158 0
M  V30 5896 H 594.804 -0.987914 1.3798 0
M  V30 5897 H 593.576 -2.53985 2.9767 0
M  V30 5898 H 593.199 -3.61996 1.64454 0
M  V30 5899 N 594.196 -1.08629 -1.14182 0
M  V30 5900 C 595.106 -0.730126 -2.22949 0
M  V30 5901 C 596.122 0.26436 -1.7198 0
M  V30 5902 O 597.298 0.107742 -2.01112 0
M  V30 5903 C 594.363 -0.147227 -3.46387 0
M  V30 5904 C 593.424 -1.19662 -4.12286 0
M  V30 5905 C 592.657 -0.641437 -5.29831 0
M  V30 5906 O 592.88 0.538351 -5.67854 0
M  V30 5907 O 591.814 -1.39257 -5.85569 0
M  V30 5908 H 595.64 -1.63753 -2.55771 0
M  V30 5909 H 593.225 -0.860118 -1.22157 0
M  V30 5910 H 595.107 0.174923 -4.21037 0
M  V30 5911 H 593.782 0.733304 -3.15285 0
M  V30 5912 H 592.689 -1.57133 -3.395 0
M  V30 5913 H 594.022 -2.0495 -4.475 0
M  V30 5914 N 595.674 1.31259 -0.872281 0
M  V30 5915 C 596.921 1.96622 -0.484365 0
M  V30 5916 C 597.249 1.68939 0.963841 0
M  V30 5917 O 596.504 0.97974 1.6941 0
M  V30 5918 C 596.803 3.50659 -0.690889 0
M  V30 5919 C 596.469 3.98366 -2.11224 0
M  V30 5920 C 595.131 4.11104 -2.50094 0
M  V30 5921 C 597.483 4.23425 -3.0391 0
M  V30 5922 C 594.811 4.46254 -3.80887 0
M  V30 5923 C 597.163 4.60039 -4.3422 0
M  V30 5924 C 595.827 4.70984 -4.73001 0
M  V30 5925 H 595.097 0.71949 -0.177242 0
M  V30 5926 H 597.744 1.56353 -1.10571 0
M  V30 5927 H 596.049 3.91798 0.0135782 0
M  V30 5928 H 597.746 3.99284 -0.370534 0
M  V30 5929 H 594.336 3.88949 -1.80047 0
M  V30 5930 H 598.52 4.13075 -2.75104 0
M  V30 5931 H 593.776 4.52926 -4.10692 0
M  V30 5932 H 597.95 4.78381 -5.06088 0
M  V30 5933 H 595.577 4.97977 -5.7439 0
M  V30 5934 N 597.152 0.631951 1.44375 0
M  V30 5935 C 598.377 0.142146 2.06912 0
M  V30 5936 C 598.802 -1.17456 1.4692 0
M  V30 5937 O 598.16 -1.72074 0.570975 0
M  V30 5938 C 598.208 0.0417952 3.60576 0
M  V30 5939 O 597.312 -1.00194 4.00044 0
M  V30 5940 H 596.653 0.0851491 0.658518 0
M  V30 5941 H 599.183 0.868863 1.85235 0
M  V30 5942 H 599.193 -0.148517 4.0773 0
M  V30 5943 H 597.868 1.0031 4.03622 0
M  V30 5944 H 596.445 -0.786131 3.64519 0
M  V30 5945 N 598.631 -1.53133 0.372548 0
M  V30 5946 C 599.908 -1.93704 -0.271693 0
M  V30 5947 C 600.288 -1.30667 -1.65799 0
M  V30 5948 O 599.636 -0.46838 -2.23648 0
M  V30 5949 C 599.846 -3.47576 -0.314903 0
M  V30 5950 C 601.194 -4.20998 -0.551912 0
M  V30 5951 O 602.218 -3.53994 -0.39582 0
M  V30 5952 O 601.077 -5.39748 -0.85639 0
M  V30 5953 H 598.171 -0.810457 -0.164586 0
M  V30 5954 H 600.717 -1.6427 0.425838 0
M  V30 5955 H 599.489 -3.85749 0.656792 0
M  V30 5956 H 599.112 -3.83264 -1.05804 0
M  V30 5957 N 600.109 -0.101901 -1.5727 0
M  V30 5958 C 601.356 0.560197 -1.94597 0
M  V30 5959 C 601.684 1.67767 -0.984101 0
M  V30 5960 O 600.939 1.95699 -0.00489193 0
M  V30 5961 C 601.238 1.14898 -3.38427 0
M  V30 5962 C 600.904 0.154613 -4.50635 0
M  V30 5963 C 599.566 -0.118861 -4.81053 0
M  V30 5964 C 601.918 -0.523979 -5.18559 0
M  V30 5965 C 599.246 -1.0775 -5.76721 0
M  V30 5966 C 601.598 -1.47114 -6.15256 0
M  V30 5967 C 600.262 -1.75278 -6.44076 0
M  V30 5968 H 599.532 0.204991 -0.712081 0
M  V30 5969 H 602.179 -0.17918 -1.9066 0
M  V30 5970 H 600.484 1.96476 -3.38976 0
M  V30 5971 H 602.181 1.66909 -3.64613 0
M  V30 5972 H 598.771 0.377948 -4.2693 0
M  V30 5973 H 602.955 -0.325851 -4.95229 0
M  V30 5974 H 598.211 -1.30263 -5.97362 0
M  V30 5975 H 602.385 -2.00274 -6.66981 0
M  V30 5976 H 600.012 -2.49717 -7.18015 0
M  V30 5977 N 601.587 1.56661 0.17182 0
M  V30 5978 C 602.864 1.72838 0.915778 0
M  V30 5979 C 603.244 0.66316 2.00413 0
M  V30 5980 O 602.592 -0.322123 2.26218 0
M  V30 5981 C 602.802 3.16019 1.48097 0
M  V30 5982 C 604.15 3.76962 1.95408 0
M  V30 5983 O 605.174 3.19294 1.57892 0
M  V30 5984 O 604.033 4.78219 2.64516 0
M  V30 5985 H 601.127 0.705797 0.431021 0
M  V30 5986 H 603.673 1.68947 0.159689 0
M  V30 5987 H 602.445 3.85031 0.697618 0
M  V30 5988 H 602.068 3.24234 2.30126 0
M  V30 5989 N 603.065 -0.440357 1.51323 0
M  V30 5990 C 604.481 -0.7766 1.39431 0
M  V30 5991 C 604.681 -1.95838 0.474296 0
M  V30 5992 O 603.737 -2.52398 -0.0716692 0
M  V30 5993 C 605.05 -1.05981 2.81405 0
M  V30 5994 C 606.598 -1.16442 2.90534 0
M  V30 5995 C 607.073 -1.48058 4.33408 0
M  V30 5996 N 608.564 -1.54988 4.36501 0
M  V30 5997 C 609.299 -1.81017 5.44078 0
M  V30 5998 N 608.795 -2.04858 6.61819 0
M  V30 5999 N 610.588 -1.82774 5.31554 0
M  V30 6000 H 602.739 0.338006 2.09693 0
M  V30 6001 H 605.002 0.0888072 0.943831 0
M  V30 6002 H 604.708 -0.264173 3.50706 0
M  V30 6003 H 604.582 -1.98822 3.20546 0
M  V30 6004 H 606.969 -1.95068 2.21432 0
M  V30 6005 H 607.05 -0.215088 2.54894 0
M  V30 6006 H 606.694 -0.699605 5.03059 0
M  V30 6007 H 606.624 -2.44192 4.66559 0
M  V30 6008 H 609.115 -1.38479 3.51613 0
M  V30 6009 H 609.428 -2.2408 7.396 0
M  V30 6010 H 607.773 -2.02187 6.6494 0
M  V30 6011 H 610.964 -1.63665 4.38556 0
M  V30 6012 H 611.137 -2.02722 6.15474 0
M  V30 6013 N 604.543 -1.41418 -0.695603 0
M  V30 6014 C 605.473 -1.46035 -1.82197 0
M  V30 6015 C 606.454 -0.319025 -1.67082 0
M  V30 6016 O 607.639 -0.530462 -1.86815 0
M  V30 6017 C 604.769 -1.34179 -3.20333 0
M  V30 6018 C 603.723 -2.46123 -3.50154 0
M  V30 6019 C 603.049 -2.19332 -4.87645 0
M  V30 6020 C 604.349 -3.88463 -3.49133 0
M  V30 6021 H 606.043 -2.40303 -1.78591 0
M  V30 6022 H 603.589 -1.15663 -0.857797 0
M  V30 6023 H 605.542 -1.36021 -3.98844 0
M  V30 6024 H 604.266 -0.363952 -3.24566 0
M  V30 6025 H 602.925 -2.43563 -2.73994 0
M  V30 6026 H 602.573 -1.19891 -4.88503 0
M  V30 6027 H 602.273 -2.94344 -5.08562 0
M  V30 6028 H 603.797 -2.22889 -5.68465 0
M  V30 6029 H 605.211 -3.92738 -4.17648 0
M  V30 6030 H 603.608 -4.63158 -3.81582 0
M  V30 6031 H 604.678 -4.16617 -2.48109 0
M  V30 6032 N 606.021 0.929856 -1.27246 0
M  V30 6033 C 607.437 1.20542 -1.04603 0
M  V30 6034 C 607.637 2.00276 0.221754 0
M  V30 6035 O 606.693 2.34835 0.927833 0
M  V30 6036 C 608.006 1.95566 -2.28417 0
M  V30 6037 C 609.554 2.08513 -2.33433 0
M  V30 6038 C 610.029 2.86943 -3.5697 0
M  V30 6039 N 611.52 2.94512 -3.57515 0
M  V30 6040 C 612.255 3.55656 -4.49774 0
M  V30 6041 N 611.751 4.18209 -5.52334 0
M  V30 6042 N 613.544 3.53038 -4.37402 0
M  V30 6043 H 605.695 0.397113 -2.08655 0
M  V30 6044 H 607.958 0.238277 -0.917566 0
M  V30 6045 H 607.664 1.44395 -3.20691 0
M  V30 6046 H 607.538 2.9619 -2.33563 0
M  V30 6047 H 609.925 2.58872 -1.41666 0
M  V30 6048 H 610.006 1.07117 -2.32292 0
M  V30 6049 H 609.65 2.37268 -4.49072 0
M  V30 6050 H 609.58 3.8862 -3.55362 0
M  V30 6051 H 612.071 2.50053 -2.83341 0
M  V30 6052 H 612.384 4.62796 -6.18902 0
M  V30 6053 H 610.729 4.16761 -5.56179 0
M  V30 6054 H 613.92 3.0337 -3.56489 0
M  V30 6055 H 614.093 4.004 -5.09493 0
M  V30 6056 N 607.499 1.09233 1.13605 0
M  V30 6057 C 608.727 0.848908 1.88683 0
M  V30 6058 C 609.142 -0.599667 1.79024 0
M  V30 6059 O 608.499 -1.41265 1.15544 0
M  V30 6060 C 608.55 1.27273 3.38355 0
M  V30 6061 O 608.271 2.66449 3.47759 0
M  V30 6062 C 609.772 1.0614 4.30406 0
M  V30 6063 H 606.992 0.305549 0.597395 0
M  V30 6064 H 609.536 1.4538 1.43823 0
M  V30 6065 H 607.691 0.711776 3.80805 0
M  V30 6066 H 608.105 2.84264 4.40788 0
M  V30 6067 H 609.579 1.40725 5.33761 0
M  V30 6068 H 610.056 -0.000960332 4.392 0
M  V30 6069 H 610.662 1.60821 3.93722 0
M  V30 6070 N 608.977 -1.30795 0.87923 0
M  V30 6071 C 609.94 -2.26563 0.346676 0
M  V30 6072 C 610.94 -1.52578 -0.507597 0
M  V30 6073 O 612.13 -1.71318 -0.315575 0
M  V30 6074 C 609.262 -3.37115 -0.506611 0
M  V30 6075 H 610.455 -2.75183 1.19223 0
M  V30 6076 H 608.008 -1.41886 0.655598 0
M  V30 6077 H 608.743 -2.93802 -1.37299 0
M  V30 6078 H 608.528 -3.91959 0.105218 0
M  V30 6079 H 610.018 -4.08412 -0.871192 0
M  V30 6080 N 610.455 -0.639598 -1.44038 0
M  V30 6081 C 611.385 0.0469443 -2.33453 0
M  V30 6082 C 612.366 0.82609 -1.48694 0
M  V30 6083 O 613.551 0.790285 -1.77393 0
M  V30 6084 C 610.681 1.02338 -3.3188 0
M  V30 6085 C 609.635 0.355284 -4.26523 0
M  V30 6086 C 608.961 1.44221 -5.14883 0
M  V30 6087 C 610.261 -0.743798 -5.16977 0
M  V30 6088 H 611.955 -0.699735 -2.91108 0
M  V30 6089 H 609.501 -0.337946 -1.39978 0
M  V30 6090 H 611.454 1.51247 -3.93322 0
M  V30 6091 H 610.178 1.80105 -2.72451 0
M  V30 6092 H 608.837 -0.113239 -3.66425 0
M  V30 6093 H 608.485 2.21097 -4.51802 0
M  V30 6094 H 608.185 1.00052 -5.79019 0
M  V30 6095 H 609.709 1.93295 -5.79197 0
M  V30 6096 H 611.123 -0.337444 -5.72306 0
M  V30 6097 H 609.52 -1.10914 -5.89761 0
M  V30 6098 H 610.59 -1.60745 -4.57481 0
M  V30 6099 N 611.933 1.52934 -0.380664 0
M  V30 6100 C 613.344 1.86457 0.0952684 0
M  V30 6101 C 613.695 1.3007 1.46889 0
M  V30 6102 O 612.82 0.628636 2.07068 0
M  V30 6103 C 613.415 3.38323 0.179648 0
M  V30 6104 C 611.974 3.71589 0.599858 0
M  V30 6105 C 611.121 2.76228 -0.243572 0
M  V30 6106 H 614.072 1.46966 -0.59888 0
M  V30 6107 H 614.093 3.67113 1.00042 0
M  V30 6108 H 613.605 3.79333 -0.820228 0
M  V30 6109 H 611.706 3.36144 1.60742 0
M  V30 6110 H 611.819 4.77715 0.364003 0
M  V30 6111 H 610.183 2.53045 0.289855 0
M  V30 6112 H 610.966 3.20074 -1.24127 0
M  V30 6113 N 613.412 0.11024 1.57214 0
M  V30 6114 C 614.64 -0.557834 1.99238 0
M  V30 6115 C 615.055 -1.60778 0.989734 0
M  V30 6116 O 614.412 -1.82491 -0.0186092 0
M  V30 6117 C 614.463 -1.19189 3.41286 0
M  V30 6118 O 614.184 -0.183919 4.37714 0
M  V30 6119 C 615.685 -1.94413 3.98395 0
M  V30 6120 H 612.905 -0.148392 0.654386 0
M  V30 6121 H 615.449 0.193996 2.03578 0
M  V30 6122 H 613.604 -1.89456 3.37913 0
M  V30 6123 H 614.018 -0.643475 5.20538 0
M  V30 6124 H 615.492 -2.34116 4.99894 0
M  V30 6125 H 615.969 -2.81592 3.3705 0
M  V30 6126 H 616.575 -1.28928 4.05287 0
M  V30 6127 N 614.89 -1.56749 -0.16351 0
M  V30 6128 C 616.115 -1.86938 -0.898264 0
M  V30 6129 C 616.54 -0.697456 -1.74692 0
M  V30 6130 O 615.898 0.353327 -1.77824 0
M  V30 6131 C 615.946 -3.15599 -1.74441 0
M  V30 6132 O 615.05 -2.98371 -2.8469 0
M  V30 6133 H 614.391 -0.614659 -0.251178 0
M  V30 6134 H 616.921 -2.03979 -0.159298 0
M  V30 6135 H 616.931 -3.47202 -2.14277 0
M  V30 6136 H 615.606 -4.00505 -1.1211 0
M  V30 6137 H 614.183 -2.7814 -2.4838 0
M  V30 6138 N 616.368 0.432326 -1.51554 0
M  V30 6139 C 617.616 1.17901 -1.64146 0
M  V30 6140 C 617.937 1.91604 -0.362367 0
M  V30 6141 O 617.207 1.85764 0.621968 0
M  V30 6142 H 615.787 0.438206 -0.604966 0
M  V30 6143 H 618.449 0.495172 -1.88505 0
M  V30 6144 H 617.545 1.90584 -2.47152 0
M  V30 6145 N 617.846 1.41785 0.688094 0
M  V30 6146 C 619.071 1.45117 1.48175 0
M  V30 6147 C 619.496 0.060129 1.88004 0
M  V30 6148 O 618.854 -0.938385 1.55126 0
M  V30 6149 C 618.902 2.37224 2.71583 0
M  V30 6150 O 618.006 1.83443 3.69354 0
M  V30 6151 H 617.347 0.492208 0.445676 0
M  V30 6152 H 619.877 1.86329 0.845145 0
M  V30 6153 H 619.887 2.53353 3.19806 0
M  V30 6154 H 618.562 3.38293 2.41931 0
M  V30 6155 H 617.139 1.76802 3.28322 0
M  V30 6156 N 619.324 -0.923095 1.27737 0
M  V30 6157 C 620.549 -1.71054 1.17283 0
M  V30 6158 C 620.974 -1.86208 -0.266153 0
M  V30 6159 O 620.332 -1.36545 -1.1927 0
M  V30 6160 C 620.38 -3.0854 1.86642 0
M  V30 6161 O 619.484 -3.95528 1.16752 0
M  V30 6162 H 618.825 -0.524136 0.407649 0
M  V30 6163 H 621.355 -1.15487 1.6889 0
M  V30 6164 H 621.365 -3.58828 1.94182 0
M  V30 6165 H 620.04 -2.96828 2.91317 0
M  V30 6166 H 618.617 -3.53967 1.17312 0
M  V30 6167 N 620.802 -1.09834 -1.13024 0
M  V30 6168 C 621.765 -0.745058 -2.16752 0
M  V30 6169 C 622.765 0.227435 -1.59183 0
M  V30 6170 O 623.955 0.0050786 -1.74199 0
M  V30 6171 C 621.087 -0.102543 -3.40746 0
M  V30 6172 H 622.28 -1.66375 -2.49518 0
M  V30 6173 H 619.833 -0.898061 -1.27924 0
M  V30 6174 H 620.568 0.827177 -3.13573 0
M  V30 6175 H 620.353 -0.80235 -3.83803 0
M  V30 6176 H 621.843 0.129082 -4.174 0
M  V30 6177 N 622.28 1.30327 -0.886154 0
M  V30 6178 C 623.528 1.9571 -0.504195 0
M  V30 6179 C 623.849 1.70294 0.950003 0
M  V30 6180 O 623.119 1.02718 1.66811 0
M  V30 6181 H 621.699 0.72412 -0.183465 0
M  V30 6182 H 624.361 1.58835 -1.12949 0
M  V30 6183 H 623.457 3.04704 -0.675431 0
M  V30 6184 N 623.758 0.647228 1.43697 0
M  V30 6185 C 624.668 -0.0487997 2.34549 0
M  V30 6186 C 625.684 -0.818586 1.53542 0
M  V30 6187 O 626.86 -0.767195 1.86215 0
M  V30 6188 C 623.925 -1.00734 3.31743 0
M  V30 6189 C 622.986 -0.23515 4.28655 0
M  V30 6190 C 622.219 -1.14803 5.21206 0
M  V30 6191 O 622.442 -2.38717 5.18045 0
M  V30 6192 O 621.376 -0.623667 5.9866 0
M  V30 6193 H 625.202 0.698863 2.9555 0
M  V30 6194 H 622.787 0.407412 1.43738 0
M  V30 6195 H 624.669 -1.55837 3.91526 0
M  V30 6196 H 623.344 -1.73534 2.73254 0
M  V30 6197 H 622.251 0.359319 3.7237 0
M  V30 6198 H 623.584 0.453152 4.9011 0
M  V30 6199 N 625.236 -1.5273 0.388769 0
M  V30 6200 C 626.166 -2.29353 -0.438111 0
M  V30 6201 C 627.147 -1.32719 -1.06394 0
M  V30 6202 O 628.332 -1.61612 -1.07681 0
M  V30 6203 C 625.462 -3.09995 -1.56589 0
M  V30 6204 C 624.416 -4.14509 -1.06613 0
M  V30 6205 C 623.742 -4.83372 -2.28594 0
M  V30 6206 C 625.042 -5.22127 -0.134459 0
M  V30 6207 H 626.736 -2.98723 0.201206 0
M  V30 6208 H 624.282 -1.43665 0.0982089 0
M  V30 6209 H 626.235 -3.62357 -2.15118 0
M  V30 6210 H 624.959 -2.38357 -2.23279 0
M  V30 6211 H 623.618 -3.63128 -0.503383 0
M  V30 6212 H 623.266 -4.08283 -2.93792 0
M  V30 6213 H 622.966 -5.54012 -1.95817 0
M  V30 6214 H 624.49 -5.38538 -2.87766 0
M  V30 6215 H 625.904 -5.69851 -0.627914 0
M  V30 6216 H 624.301 -6.00011 0.103534 0
M  V30 6217 H 625.371 -4.77971 0.816798 0
M  V30 6218 N 626.714 -0.118576 -1.57153 0
M  V30 6219 C 627.624 0.845484 -2.18835 0
M  V30 6220 C 628.64 1.29299 -1.16438 0
M  V30 6221 O 629.816 1.35607 -1.48905 0
M  V30 6222 C 626.881 2.07795 -2.77529 0
M  V30 6223 C 625.942 1.6824 -3.9496 0
M  V30 6224 C 625.175 2.85612 -4.50845 0
M  V30 6225 O 625.398 4.01025 -4.05629 0
M  V30 6226 O 624.332 2.62721 -5.41536 0
M  V30 6227 H 628.158 0.350568 -3.0167 0
M  V30 6228 H 625.743 0.107013 -1.49016 0
M  V30 6229 H 627.625 2.79978 -3.14945 0
M  V30 6230 H 626.3 2.56294 -1.97725 0
M  V30 6231 H 625.207 0.931663 -3.62313 0
M  V30 6232 H 626.54 1.24484 -4.76198 0
M  V30 6233 N 628.193 1.56834 0.155195 0
M  V30 6234 C 629.123 2.00678 1.19376 0
M  V30 6235 C 630.104 0.884973 1.45266 0
M  V30 6236 O 631.289 1.1522 1.56326 0
M  V30 6237 C 628.419 2.38042 2.5289 0
M  V30 6238 C 627.373 3.53332 2.41538 0
M  V30 6239 C 626.699 3.76485 3.79688 0
M  V30 6240 C 627.999 4.86265 1.9064 0
M  V30 6241 H 629.693 2.87688 0.829232 0
M  V30 6242 H 627.239 1.38407 0.397445 0
M  V30 6243 H 629.192 2.67314 3.25763 0
M  V30 6244 H 627.916 1.4796 2.91162 0
M  V30 6245 H 626.575 3.24213 1.71117 0
M  V30 6246 H 626.223 2.83667 4.15382 0
M  V30 6247 H 625.923 4.54068 3.72956 0
M  V30 6248 H 627.447 4.08174 4.54122 0
M  V30 6249 H 628.861 5.14308 2.53299 0
M  V30 6250 H 627.258 5.67597 1.94818 0
M  V30 6251 H 628.328 4.77184 0.861596 0
M  V30 6252 N 629.671 -0.424282 1.51781 0
M  V30 6253 C 630.601 -1.52305 1.7699 0
M  V30 6254 C 631.582 -1.5839 0.620209 0
M  V30 6255 O 632.767 -1.73908 0.864268 0
M  V30 6256 C 629.897 -2.90271 1.90683 0
M  V30 6257 C 628.851 -2.99043 3.06198 0
M  V30 6258 C 628.177 -4.39116 3.05092 0
M  V30 6259 C 629.477 -2.7192 4.45934 0
M  V30 6260 H 631.171 -1.31461 2.68995 0
M  V30 6261 H 628.717 -0.630985 1.29439 0
M  V30 6262 H 630.67 -3.6711 2.06901 0
M  V30 6263 H 629.394 -3.12376 0.953365 0
M  V30 6264 H 628.053 -2.24646 2.89706 0
M  V30 6265 H 627.701 -4.58207 2.07498 0
M  V30 6266 H 627.401 -4.45912 3.82669 0
M  V30 6267 H 628.925 -5.17911 3.2342 0
M  V30 6268 H 630.339 -3.38487 4.62709 0
M  V30 6269 H 628.736 -2.90111 5.25315 0
M  V30 6270 H 629.806 -1.67445 4.55072 0
M  V30 6271 N 631.149 -1.42148 -0.680565 0
M  V30 6272 C 632.112 -1.4488 -1.77602 0
M  V30 6273 C 633.112 -0.337209 -1.57224 0
M  V30 6274 O 634.302 -0.597778 -1.63622 0
M  V30 6275 C 631.434 -1.27483 -3.16166 0
M  V30 6276 H 632.627 -2.42412 -1.76568 0
M  V30 6277 H 630.18 -1.28511 -0.889645 0
M  V30 6278 H 630.915 -0.30851 -3.22829 0
M  V30 6279 H 630.7 -2.08037 -3.3236 0
M  V30 6280 H 632.19 -1.32265 -3.96101 0
M  V30 6281 N 632.627 0.916307 -1.28225 0
M  V30 6282 C 633.875 1.6619 -1.15002 0
M  V30 6283 C 634.196 1.92642 0.302329 0
M  V30 6284 O 633.466 1.54076 1.20985 0
M  V30 6285 H 632.046 0.615964 -0.422608 0
M  V30 6286 H 634.708 1.09963 -1.60917 0
M  V30 6287 H 633.804 2.62533 -1.68769 0
M  V30 6288 N 634.105 1.10431 1.1244 0
M  V30 6289 C 635.015 0.765502 2.21759 0
M  V30 6290 C 636.031 -0.236966 1.72379 0
M  V30 6291 O 637.207 -0.0757329 2.01258 0
M  V30 6292 C 634.272 0.202316 3.46109 0
M  V30 6293 C 633.333 1.26205 4.1033 0
M  V30 6294 C 632.566 0.725648 5.28744 0
M  V30 6295 O 632.789 -0.447942 5.68638 0
M  V30 6296 O 631.723 1.48555 5.83279 0
M  V30 6297 H 635.549 1.67801 2.53133 0
M  V30 6298 H 633.134 0.879443 1.20773 0
M  V30 6299 H 635.016 -0.107918 4.21262 0
M  V30 6300 H 633.691 -0.683052 3.16411 0
M  V30 6301 H 632.598 1.62514 3.36957 0
M  V30 6302 H 633.931 2.12044 4.44183 0
M  V30 6303 N 635.583 -1.29855 0.893053 0
M  V30 6304 C 636.829 -1.96116 0.516349 0
M  V30 6305 C 637.162 -1.70281 -0.933695 0
M  V30 6306 O 636.437 -1.01205 -1.66096 0
M  V30 6307 C 636.72 -3.51068 0.801455 0
M  V30 6308 C 636.573 -3.86387 2.30272 0
M  V30 6309 C 637.892 -4.39186 0.283423 0
M  V30 6310 H 635.011 -0.712335 0.189072 0
M  V30 6311 H 637.653 -1.53587 1.11852 0
M  V30 6312 H 635.803 -3.87424 0.288949 0
M  V30 6313 H 637.475 -3.60012 2.88425 0
M  V30 6314 H 635.718 -3.34167 2.76613 0
M  V30 6315 H 636.389 -4.94512 2.45279 0
M  V30 6316 H 638.865 -4.09785 0.722187 0
M  V30 6317 H 637.741 -5.46505 0.512169 0
M  V30 6318 H 638.002 -4.34511 -0.815643 0
M  V30 6319 N 637.061 -0.65484 -1.43351 0
M  V30 6320 C 638.472 -0.248506 -1.85039 0
M  V30 6321 C 638.823 1.20526 -1.54816 0
M  V30 6322 O 637.948 1.92016 -0.99794 0
M  V30 6323 C 638.543 -0.444241 -3.35875 0
M  V30 6324 C 637.102 -0.0922108 -3.76287 0
M  V30 6325 C 636.249 -0.746327 -2.67068 0
M  V30 6326 H 639.2 -0.8584 -1.33481 0
M  V30 6327 H 639.221 0.309762 -3.79237 0
M  V30 6328 H 638.733 -1.50239 -3.5784 0
M  V30 6329 H 636.834 0.96328 -3.59933 0
M  V30 6330 H 636.947 -0.518807 -4.76283 0
M  V30 6331 H 635.311 -0.179416 -2.54067 0
M  V30 6332 H 636.094 -1.80754 -2.91861 0
M  V30 6333 N 638.539 1.52521 -0.396863 0
M  V30 6334 C 639.502 2.2527 0.422604 0
M  V30 6335 C 640.502 1.27184 0.983913 0
M  V30 6336 O 641.692 1.51222 0.864723 0
M  V30 6337 C 638.824 3.01356 1.59365 0
M  V30 6338 H 640.017 2.99133 -0.214416 0
M  V30 6339 H 637.57 1.55587 -0.149128 0
M  V30 6340 H 638.305 2.31813 2.26789 0
M  V30 6341 H 638.09 3.73357 1.19779 0
M  V30 6342 H 639.58 3.56571 2.17363 0
M  V30 6343 N 640.017 0.126909 1.57088 0
M  V30 6344 C 641.433 -0.229641 1.57939 0
M  V30 6345 C 641.633 -1.66145 1.1401 0
M  V30 6346 O 640.689 -2.3843 0.831119 0
M  V30 6347 C 642.002 0.0108648 3.00698 0
M  V30 6348 C 643.55 -0.054418 3.12953 0
M  V30 6349 C 644.025 0.158497 4.57726 0
M  V30 6350 N 645.516 0.104735 4.63082 0
M  V30 6351 C 646.251 0.24427 5.72879 0
M  V30 6352 N 645.747 0.440415 6.91399 0
M  V30 6353 N 647.54 0.183286 5.61801 0
M  V30 6354 H 639.691 1.06203 1.83942 0
M  V30 6355 H 641.954 0.418834 0.85046 0
M  V30 6356 H 641.66 1.00102 3.37154 0
M  V30 6357 H 641.534 -0.717512 3.70313 0
M  V30 6358 H 643.921 -1.0351 2.7635 0
M  V30 6359 H 644.002 0.705967 2.45865 0
M  V30 6360 H 643.646 1.13619 4.95028 0
M  V30 6361 H 643.576 -0.62197 5.22914 0
M  V30 6362 H 646.067 -0.0430298 3.77876 0
M  V30 6363 H 646.38 0.537536 7.70928 0
M  V30 6364 H 644.725 0.476488 6.93365 0
M  V30 6365 H 647.916 0.0309561 4.6809 0
M  V30 6366 H 648.089 0.295471 6.47326 0
M  V30 6367 N 641.495 -1.56914 -0.146875 0
M  V30 6368 C 642.72 -1.87881 -0.878386 0
M  V30 6369 C 643.145 -0.715945 -1.73942 0
M  V30 6370 O 642.503 0.334447 -1.78189 0
M  V30 6371 C 642.551 -3.17431 -1.71084 0
M  V30 6372 O 641.655 -3.01374 -2.81509 0
M  V30 6373 H 640.996 -0.617289 -0.244644 0
M  V30 6374 H 643.526 -2.04136 -0.137654 0
M  V30 6375 H 643.536 -3.49455 -2.10582 0
M  V30 6376 H 642.211 -4.01671 -1.07856 0
M  V30 6377 H 640.788 -2.80758 -2.45416 0
M  V30 6378 N 642.974 0.416227 -1.52004 0
M  V30 6379 C 644.385 0.995319 -1.57957 0
M  V30 6380 C 644.736 1.91744 -0.415754 0
M  V30 6381 O 643.861 2.11349 0.464808 0
M  V30 6382 C 644.456 1.81191 -2.86278 0
M  V30 6383 C 643.015 2.34115 -2.94732 0
M  V30 6384 C 642.162 1.139 -2.52828 0
M  V30 6385 H 645.113 0.196716 -1.57476 0
M  V30 6386 H 645.134 2.66859 -2.71231 0
M  V30 6387 H 644.646 1.14051 -3.70963 0
M  V30 6388 H 642.747 3.04647 -2.14525 0
M  V30 6389 H 642.86 2.65466 -3.98829 0
M  V30 6390 H 641.224 1.49081 -2.06511 0
M  V30 6391 H 642.007 0.483383 -3.3988 0
M  V30 6392 N 644.452 1.42507 0.673017 0
M  V30 6393 C 645.7 1.42789 1.43023 0
M  V30 6394 C 646.021 0.0459738 1.94946 0
M  V30 6395 O 645.291 -0.915765 1.73178 0
M  V30 6396 H 643.871 0.525657 0.530748 0
M  V30 6397 H 646.533 1.77944 0.795113 0
M  V30 6398 H 645.629 2.12872 2.28237 0
M  V30 6399 N 645.93 -0.909495 1.28709 0
M  V30 6400 C 646.893 -1.99399 1.13016 0
M  V30 6401 C 647.893 -1.60654 0.068536 0
M  V30 6402 O 649.083 -1.71334 0.314671 0
M  V30 6403 C 646.215 -3.33078 0.726085 0
M  V30 6404 H 647.408 -2.14751 2.09338 0
M  V30 6405 H 644.961 -1.09272 1.11756 0
M  V30 6406 H 645.696 -3.23428 -0.23771 0
M  V30 6407 H 645.481 -3.62562 1.49302 0
M  V30 6408 H 646.971 -4.12681 0.639058 0
M  V30 6409 N 647.408 -1.11026 -1.11852 0
M  V30 6410 C 648.655 -0.85646 -1.83497 0
M  V30 6411 C 648.983 0.617938 -1.84423 0
M  V30 6412 O 648.238 1.47194 -1.28966 0
M  V30 6413 C 648.537 -1.35777 -3.30604 0
M  V30 6414 C 648.203 -2.84465 -3.49843 0
M  V30 6415 C 646.865 -3.25068 -3.54802 0
M  V30 6416 C 649.217 -3.80251 -3.56453 0
M  V30 6417 C 646.545 -4.60194 -3.63921 0
M  V30 6418 C 648.897 -5.15188 -3.67102 0
M  V30 6419 C 647.561 -5.55356 -3.70319 0
M  V30 6420 H 646.831 -0.313401 -0.671462 0
M  V30 6421 H 649.478 -1.38792 -1.31943 0
M  V30 6422 H 647.783 -0.746455 -3.84624 0
M  V30 6423 H 649.48 -1.13779 -3.8452 0
M  V30 6424 H 646.07 -2.52054 -3.46651 0
M  V30 6425 H 650.254 -3.49986 -3.51886 0
M  V30 6426 H 645.51 -4.90728 -3.64686 0
M  V30 6427 H 649.684 -5.89248 -3.71159 0
M  V30 6428 H 647.311 -6.60054 -3.77138 0
M  V30 6429 N 648.886 1.2938 -0.899927 0
M  V30 6430 C 650.163 1.9046 -0.445443 0
M  V30 6431 C 650.543 1.81683 1.07492 0
M  V30 6432 O 649.891 1.24371 1.91688 0
M  V30 6433 C 650.101 3.35529 -0.960279 0
M  V30 6434 C 651.449 4.12556 -1.00412 0
M  V30 6435 O 652.473 3.44434 -0.907965 0
M  V30 6436 O 651.332 5.34294 -1.14857 0
M  V30 6437 H 648.426 0.815253 -0.138893 0
M  V30 6438 H 650.972 1.37844 -0.989808 0
M  V30 6439 H 649.744 3.36074 -2.00425 0
M  V30 6440 H 649.367 3.95624 -0.395939 0
M  V30 6441 N 650.364 0.662433 1.43002 0
M  V30 6442 C 651.297 -0.073459 2.28082 0
M  V30 6443 C 652.275 -0.820869 1.40358 0
M  V30 6444 O 653.459 -0.818545 1.698 0
M  V30 6445 C 650.586 -1.11097 3.19961 0
M  V30 6446 C 649.632 -0.460557 4.24006 0
M  V30 6447 S 650.465 0.772717 5.29896 0
M  V30 6448 C 651.621 -0.264028 6.25343 0
M  V30 6449 H 651.854 0.648227 2.90147 0
M  V30 6450 H 649.387 0.451566 1.47649 0
M  V30 6451 H 651.345 -1.70452 3.73439 0
M  V30 6452 H 650.006 -1.80503 2.57056 0
M  V30 6453 H 649.199 -1.24299 4.88432 0
M  V30 6454 H 648.801 0.0591038 3.73953 0
M  V30 6455 H 651.093 -1.12748 6.68052 0
M  V30 6456 H 652.036 0.345443 7.07257 0
M  V30 6457 H 652.444 -0.603964 5.6126 0
M  V30 6458 N 651.842 -1.52309 0.404946 0
M  V30 6459 C 653.067 -2.06666 -0.1743 0
M  V30 6460 C 653.492 -1.27341 -1.38441 0
M  V30 6461 O 652.85 -0.302539 -1.78758 0
M  V30 6462 C 652.898 -3.57014 -0.507262 0
M  V30 6463 O 652.002 -3.80144 -1.59889 0
M  V30 6464 H 651.343 -0.663807 -0.0160273 0
M  V30 6465 H 653.873 -1.96297 0.576937 0
M  V30 6466 H 653.883 -4.00724 -0.767098 0
M  V30 6467 H 652.558 -4.14184 0.377368 0
M  V30 6468 H 651.135 -3.48316 -1.33155 0
M  V30 6469 N 653.32 -0.135238 -1.57019 0
M  V30 6470 C 654.568 0.51777 -1.95355 0
M  V30 6471 C 654.889 1.6617 -1.02042 0
M  V30 6472 O 654.159 1.95738 -0.0797343 0
M  V30 6473 H 652.739 0.194264 -0.721298 0
M  V30 6474 H 655.401 -0.207983 -1.93787 0
M  V30 6475 H 654.497 0.901675 -2.98791 0
M  V30 6476 N 654.798 1.5699 0.138552 0
M  V30 6477 C 656.044 1.84081 0.85099 0
M  V30 6478 C 656.377 0.718107 1.80435 0
M  V30 6479 O 655.652 -0.277633 1.92508 0
M  V30 6480 C 655.935 3.21699 1.61808 0
M  V30 6481 C 655.788 4.44544 0.685633 0
M  V30 6482 C 657.107 3.5664 2.57868 0
M  V30 6483 H 654.226 0.669592 0.307922 0
M  V30 6484 H 656.868 1.89646 0.11588 0
M  V30 6485 H 655.018 3.17086 2.24474 0
M  V30 6486 H 656.69 4.61248 0.0693179 0
M  V30 6487 H 654.933 4.338 -0.00421993 0
M  V30 6488 H 655.604 5.3746 1.25858 0
M  V30 6489 H 658.08 3.61918 2.05316 0
M  V30 6490 H 656.956 4.53946 3.08584 0
M  V30 6491 H 657.217 2.83036 3.39622 0
M  V30 6492 N 656.276 -0.40816 1.52223 0
M  V30 6493 C 657.692 -0.74685 1.41047 0
M  V30 6494 C 657.892 -1.94788 0.51573 0
M  V30 6495 O 656.948 -2.52494 -0.0181156 0
M  V30 6496 C 658.261 -0.999878 2.83589 0
M  V30 6497 C 659.809 -1.10253 2.92939 0
M  V30 6498 C 660.284 -1.38832 4.36451 0
M  V30 6499 N 661.775 -1.45694 4.3969 0
M  V30 6500 C 662.51 -1.69435 5.47795 0
M  V30 6501 N 662.006 -1.90774 6.66016 0
M  V30 6502 N 663.799 -1.71458 5.35312 0
M  V30 6503 H 655.95 0.382409 2.08929 0
M  V30 6504 H 658.213 0.108807 0.941735 0
M  V30 6505 H 657.919 -0.189723 3.51188 0
M  V30 6506 H 657.793 -1.91978 3.24691 0
M  V30 6507 H 660.18 -1.90328 2.2552 0
M  V30 6508 H 660.261 -0.160973 2.55293 0
M  V30 6509 H 659.905 -0.592741 5.04429 0
M  V30 6510 H 659.835 -2.34241 4.71634 0
M  V30 6511 H 662.326 -1.3099 3.54472 0
M  V30 6512 H 662.639 -2.08342 7.44186 0
M  V30 6513 H 660.984 -1.88037 6.69079 0
M  V30 6514 H 664.175 -1.54326 4.41929 0
M  V30 6515 H 664.348 -1.89621 6.19635 0
M  V30 6516 N 657.755 -1.42862 -0.66545 0
M  V30 6517 C 659.003 -1.43546 -1.42264 0
M  V30 6518 C 659.324 -0.0563116 -1.94919 0
M  V30 6519 O 658.594 0.906568 -1.73661 0
M  V30 6520 H 657.174 -0.528464 -0.527953 0
M  V30 6521 H 659.836 -1.78363 -0.785665 0
M  V30 6522 H 658.932 -2.14079 -2.27105 0
M  V30 6523 N 659.233 0.902656 -1.29189 0
M  V30 6524 C 660.458 1.69167 -1.19989 0
M  V30 6525 C 660.883 1.86607 0.236495 0
M  V30 6526 O 660.241 1.38425 1.17082 0
M  V30 6527 C 660.289 3.05532 -1.91527 0
M  V30 6528 O 659.393 3.93621 -1.2303 0
M  V30 6529 H 658.734 0.517584 -0.415936 0
M  V30 6530 H 661.264 1.12785 -1.70706 0
M  V30 6531 H 661.274 3.55693 -1.99866 0
M  V30 6532 H 659.949 2.92156 -2.96003 0
M  V30 6533 H 658.526 3.52055 -1.22928 0
M  V30 6534 N 660.711 1.11618 1.11262 0
M  V30 6535 C 661.641 0.79846 2.19424 0
M  V30 6536 C 662.622 -0.234003 1.68483 0
M  V30 6537 O 663.807 -0.0970704 1.93957 0
M  V30 6538 C 660.937 0.242892 3.4645 0
M  V30 6539 C 659.891 1.20744 4.10615 0
M  V30 6540 C 659.217 0.512494 5.32238 0
M  V30 6541 C 660.517 2.55884 4.55325 0
M  V30 6542 H 662.211 1.70286 2.46258 0
M  V30 6543 H 659.757 0.820195 1.18359 0
M  V30 6544 H 661.71 0.00840447 4.21399 0
M  V30 6545 H 660.434 -0.696811 3.1908 0
M  V30 6546 H 659.093 1.42759 3.37662 0
M  V30 6547 H 658.741 -0.432075 5.01141 0
M  V30 6548 H 658.441 1.15583 5.7612 0
M  V30 6549 H 659.965 0.286842 6.09926 0
M  V30 6550 H 661.379 2.37946 5.21588 0
M  V30 6551 H 659.776 3.16216 5.10027 0
M  V30 6552 H 660.846 3.14968 3.68678 0
M  V30 6553 N 662.189 -1.289 0.906776 0
M  V30 6554 C 663.152 -2.25777 0.394656 0
M  V30 6555 C 664.152 -1.53621 -0.475119 0
M  V30 6556 O 665.342 -1.71949 -0.279165 0
M  V30 6557 C 662.474 -3.38113 -0.43499 0
M  V30 6558 H 663.667 -2.72592 1.25033 0
M  V30 6559 H 661.22 -1.40463 0.685547 0
M  V30 6560 H 661.955 -2.96648 -1.31036 0
M  V30 6561 H 661.74 -3.91647 0.188334 0
M  V30 6562 H 663.23 -4.10168 -0.784365 0
M  V30 6563 N 663.667 -0.670007 -1.42649 0
M  V30 6564 C 664.577 0.0114788 -2.34597 0
M  V30 6565 C 665.593 0.794055 -1.54825 0
M  V30 6566 O 666.769 0.737472 -1.87412 0
M  V30 6567 C 663.834 0.954436 -3.33304 0
M  V30 6568 C 662.895 0.166925 -4.28975 0
M  V30 6569 C 662.128 1.06497 -5.22967 0
M  V30 6570 O 662.351 2.30446 -5.21777 0
M  V30 6571 O 661.285 0.528347 -5.99577 0
M  V30 6572 H 665.111 -0.745794 -2.944 0
M  V30 6573 H 662.696 -0.430228 -1.43071 0
M  V30 6574 H 664.578 1.49589 -3.93956 0
M  V30 6575 H 663.253 1.69164 -2.7598 0
M  V30 6576 H 662.16 -0.418515 -3.71752 0
M  V30 6577 H 663.493 -0.531067 -4.89327 0
M  V30 6578 N 665.145 1.52092 -0.413018 0
M  V30 6579 C 666.108 2.25706 0.398687 0
M  V30 6580 C 667.108 1.28221 0.970368 0
M  V30 6581 O 668.298 1.52131 0.848635 0
M  V30 6582 C 665.43 3.03029 1.5616 0
M  V30 6583 H 666.623 2.98888 -0.246131 0
M  V30 6584 H 664.176 1.5542 -0.165622 0
M  V30 6585 H 664.911 2.34205 2.24317 0
M  V30 6586 H 664.696 3.74606 1.15812 0
M  V30 6587 H 666.186 3.58857 2.13569 0
M  V30 6588 N 666.623 0.143563 1.56945 0
M  V30 6589 C 667.869 -0.50916 1.96304 0
M  V30 6590 C 668.202 -1.64741 1.0283 0
M  V30 6591 O 667.477 -1.94374 0.0700361 0
M  V30 6592 C 667.76 -1.0186 3.45393 0
M  V30 6593 C 667.613 0.117923 4.49645 0
M  V30 6594 C 668.932 -1.90151 3.96901 0
M  V30 6595 H 666.051 -0.183608 0.713763 0
M  V30 6596 H 668.693 0.224095 1.88674 0
M  V30 6597 H 666.843 -1.64345 3.52027 0
M  V30 6598 H 668.515 0.754145 4.55094 0
M  V30 6599 H 666.758 0.777568 4.26774 0
M  V30 6600 H 667.429 -0.280187 5.51288 0
M  V30 6601 H 669.905 -1.375 3.92725 0
M  V30 6602 H 668.781 -2.22707 5.0169 0
M  V30 6603 H 669.042 -2.83718 3.39052 0
M  V30 6604 N 668.101 -1.57061 -0.130224 0
M  V30 6605 C 669.349 -1.83893 -0.838313 0
M  V30 6606 C 669.67 -0.727046 -1.80939 0
M  V30 6607 O 668.94 0.249927 -1.94299 0
M  V30 6608 H 667.52 -0.67846 -0.312573 0
M  V30 6609 H 670.182 -1.94529 -0.120224 0
M  V30 6610 H 669.278 -2.79419 -1.39038 0
M  V30 6611 N 669.579 0.400081 -1.52437 0
M  V30 6612 C 670.804 1.17221 -1.71096 0
M  V30 6613 C 671.229 1.83269 -0.423565 0
M  V30 6614 O 670.587 1.70378 0.619751 0
M  V30 6615 C 670.635 2.20425 -2.85386 0
M  V30 6616 O 669.739 3.26769 -2.51586 0
M  V30 6617 H 669.08 0.341766 -0.569291 0
M  V30 6618 H 671.61 0.467772 -1.99181 0
M  V30 6619 H 671.62 2.64605 -3.10561 0
M  V30 6620 H 670.295 1.71737 -3.78786 0
M  V30 6621 H 668.872 2.87804 -2.37114 0
M  V30 6622 N 671.057 1.43213 0.657864 0
M  V30 6623 C 672.468 1.39669 1.23893 0
M  V30 6624 C 672.819 0.0984217 1.95953 0
M  V30 6625 O 671.944 -0.8023 2.00978 0
M  V30 6626 C 672.539 2.53004 2.25332 0
M  V30 6627 C 671.098 2.5274 2.78926 0
M  V30 6628 C 670.245 2.30941 1.53497 0
M  V30 6629 H 673.196 1.52181 0.450172 0
M  V30 6630 H 673.217 2.24226 3.07413 0
M  V30 6631 H 672.729 3.4748 1.72856 0
M  V30 6632 H 670.83 1.6213 3.35477 0
M  V30 6633 H 670.943 3.50352 3.26787 0
M  V30 6634 H 669.307 1.7952 1.80678 0
M  V30 6635 H 670.09 3.27496 1.02963 0
M  V30 6636 N 672.536 -0.895792 1.29666 0
M  V30 6637 C 673.947 -1.46195 1.1612 0
M  V30 6638 C 674.298 -1.94699 -0.242195 0
M  V30 6639 O 673.423 -1.8406 -1.13802 0
M  V30 6640 C 674.018 -2.65718 2.10189 0
M  V30 6641 C 672.577 -3.18458 2.00653 0
M  V30 6642 C 671.724 -1.91149 2.00891 0
M  V30 6643 H 674.675 -0.706756 1.42094 0
M  V30 6644 H 674.696 -3.4158 1.6764 0
M  V30 6645 H 674.208 -2.30386 3.12321 0
M  V30 6646 H 672.309 -3.58474 1.01623 0
M  V30 6647 H 672.422 -3.82491 2.88509 0
M  V30 6648 H 670.786 -2.09021 1.45542 0
M  V30 6649 H 671.569 -1.58089 3.04734 0
M  V30 6650 N 674.014 -1.12206 -1.10668 0
M  V30 6651 C 675.425 -0.890657 -1.64086 0
M  V30 6652 C 675.776 0.575502 -1.8757 0
M  V30 6653 O 674.901 1.4394 -1.61587 0
M  V30 6654 C 675.496 -1.61029 -2.98085 0
M  V30 6655 C 674.055 -1.4251 -3.48379 0
M  V30 6656 C 673.202 -1.64778 -2.23033 0
M  V30 6657 H 676.153 -1.27718 -0.94201 0
M  V30 6658 H 676.174 -1.05993 -3.65439 0
M  V30 6659 H 675.686 -2.67735 -2.80962 0
M  V30 6660 H 673.787 -0.380497 -3.70652 0
M  V30 6661 H 673.9 -2.17959 -4.26651 0
M  V30 6662 H 672.264 -1.07171 -2.31055 0
M  V30 6663 H 673.047 -2.72776 -2.08443 0
M  V30 6664 N 675.492 1.28418 -0.913599 0
M  V30 6665 C 676.455 2.25564 -0.406624 0
M  V30 6666 C 677.455 1.5387 0.466965 0
M  V30 6667 O 678.645 1.72094 0.270042 0
M  V30 6668 C 675.777 3.38339 0.417053 0
M  V30 6669 H 676.97 2.71926 -1.26477 0
M  V30 6670 H 674.523 1.40098 -0.692986 0
M  V30 6671 H 675.258 2.97339 1.29461 0
M  V30 6672 H 675.043 3.91542 -0.209102 0
M  V30 6673 H 676.533 4.10578 0.762602 0
M  V30 6674 N 676.97 0.677563 1.42291 0
M  V30 6675 C 677.933 0.0101085 2.29198 0
M  V30 6676 C 678.933 -0.726219 1.43467 0
M  V30 6677 O 680.123 -0.563807 1.64824 0
M  V30 6678 C 677.255 -0.996316 3.26016 0
M  V30 6679 H 678.448 0.775071 2.89711 0
M  V30 6680 H 676.001 0.440065 1.49977 0
M  V30 6681 H 676.736 -1.78967 2.70446 0
M  V30 6682 H 676.521 -0.471687 3.89253 0
M  V30 6683 H 678.011 -1.46167 3.91184 0
M  V30 6684 N 678.448 -1.51871 0.421078 0
M  V30 6685 C 679.676 -2.06356 -0.14994 0
M  V30 6686 C 680.091 -1.29006 -1.37851 0
M  V30 6687 O 679.448 -0.345139 -1.79207 0
M  V30 6688 C 679.499 -3.58185 -0.488454 0
M  V30 6689 O 679.22 -4.32611 0.691341 0
M  V30 6690 C 680.721 -4.29129 -1.11191 0
M  V30 6691 H 677.941 -0.67083 -0.0151186 0
M  V30 6692 H 680.485 -1.95638 0.595476 0
M  V30 6693 H 678.64 -3.68871 -1.18376 0
M  V30 6694 H 679.054 -5.22927 0.405906 0
M  V30 6695 H 680.528 -5.36501 -1.29889 0
M  V30 6696 H 681.005 -3.86371 -2.0884 0
M  V30 6697 H 681.611 -4.22843 -0.456458 0
M  V30 6698 N 679.926 -0.151884 -1.56866 0
M  V30 6699 C 681.337 0.368128 -1.83035 0
M  V30 6700 C 681.688 1.64402 -1.07082 0
M  V30 6701 O 680.813 2.14056 -0.317647 0
M  V30 6702 C 681.408 0.674676 -3.32014 0
M  V30 6703 C 679.967 1.13919 -3.58747 0
M  V30 6704 C 679.114 0.164833 -2.7681 0
M  V30 6705 H 682.065 -0.376499 -1.54169 0
M  V30 6706 H 682.086 1.52883 -3.48435 0
M  V30 6707 H 681.598 -0.254113 -3.87267 0
M  V30 6708 H 679.699 2.08375 -3.08886 0
M  V30 6709 H 679.812 1.06179 -4.67186 0
M  V30 6710 H 678.176 0.658419 -2.46043 0
M  V30 6711 H 678.959 -0.757633 -3.34836 0
M  V30 6712 N 681.404 1.57128 0.121893 0
M  V30 6713 C 682.632 1.88883 0.844451 0
M  V30 6714 C 683.047 0.742824 1.73573 0
M  V30 6715 O 682.404 -0.286475 1.80238 0
M  V30 6716 C 682.455 3.20076 1.68029 0
M  V30 6717 O 682.176 4.30264 0.824898 0
M  V30 6718 C 683.677 3.65515 2.50826 0
M  V30 6719 H 680.897 0.62549 0.242907 0
M  V30 6720 H 683.441 2.04219 0.107151 0
M  V30 6721 H 681.596 3.06418 2.37038 0
M  V30 6722 H 682.01 5.05439 1.40113 0
M  V30 6723 H 683.484 4.60081 3.05008 0
M  V30 6724 H 683.961 2.92029 3.28048 0
M  V30 6725 H 684.567 3.81952 1.87064 0
M  V30 6726 N 682.882 -0.391992 1.52647 0
M  V30 6727 C 684.293 -0.970064 1.5952 0
M  V30 6728 C 684.644 -1.91059 0.446207 0
M  V30 6729 O 683.769 -2.12062 -0.431125 0
M  V30 6730 C 684.364 -1.76614 2.89125 0
M  V30 6731 C 682.923 -2.29396 2.9842 0
M  V30 6732 C 682.07 -1.09864 2.54608 0
M  V30 6733 H 685.021 -0.171638 1.57769 0
M  V30 6734 H 685.042 -2.62511 2.75442 0
M  V30 6735 H 684.554 -1.08135 3.72731 0
M  V30 6736 H 682.655 -3.01196 2.19344 0
M  V30 6737 H 682.768 -2.59088 4.03002 0
M  V30 6738 H 681.132 -1.45777 2.08857 0
M  V30 6739 H 681.915 -0.429249 3.40606 0
M  V30 6740 N 684.36 -1.4356 -0.65026 0
M  V30 6741 C 685.588 -1.48779 -1.43779 0
M  V30 6742 C 686.003 -0.106593 -1.88499 0
M  V30 6743 O 685.36 0.883766 -1.59674 0
M  V30 6744 C 685.411 -2.43618 -2.67081 0
M  V30 6745 O 685.132 -3.76367 -2.24231 0
M  V30 6746 C 686.633 -2.5811 -3.60409 0
M  V30 6747 H 683.853 -0.50521 -0.441593 0
M  V30 6748 H 686.397 -1.88332 -0.796941 0
M  V30 6749 H 684.552 -2.07253 -3.273 0
M  V30 6750 H 684.966 -4.27394 -3.0403 0
M  V30 6751 H 686.44 -3.28539 -4.43583 0
M  V30 6752 H 686.917 -1.627 -4.07953 0
M  V30 6753 H 687.523 -2.95298 -3.0607 0
M  V30 6754 N 685.838 0.888903 -1.30139 0
M  V30 6755 C 687.249 1.45578 -1.16893 0
M  V30 6756 C 687.6 1.94825 0.231866 0
M  V30 6757 O 686.725 1.84661 1.12824 0
M  V30 6758 C 687.32 2.646 -2.11595 0
M  V30 6759 C 685.879 3.17389 -2.02339 0
M  V30 6760 C 685.026 1.90081 -2.01902 0
M  V30 6761 H 687.977 0.69921 -1.42467 0
M  V30 6762 H 687.998 3.40687 -1.69449 0
M  V30 6763 H 687.51 2.28726 -3.13538 0
M  V30 6764 H 685.611 3.5793 -1.03523 0
M  V30 6765 H 685.724 3.80955 -2.90534 0
M  V30 6766 H 684.088 2.08246 -1.46648 0
M  V30 6767 H 684.871 1.5647 -3.05568 0
M  V30 6768 N 687.317 1.12792 1.10072 0
M  V30 6769 C 688.728 0.899346 1.63611 0
M  V30 6770 C 689.079 -0.565547 1.87872 0
M  V30 6771 O 688.204 -1.43081 1.62348 0
M  V30 6772 C 688.799 1.62608 2.97227 0
M  V30 6773 C 687.358 1.44356 3.47618 0
M  V30 6774 C 686.505 1.65958 2.22156 0
M  V30 6775 H 689.456 1.28216 0.935223 0
M  V30 6776 H 689.477 1.0793 3.64872 0
M  V30 6777 H 688.989 2.69221 2.79538 0
M  V30 6778 H 687.09 0.400148 3.70445 0
M  V30 6779 H 687.203 2.20218 4.25489 0
M  V30 6780 H 685.567 1.08395 2.30484 0
M  V30 6781 H 686.35 2.73877 2.06993 0
M  V30 6782 N 688.795 -1.27931 0.920396 0
M  V30 6783 C 690.023 -1.98805 0.573087 0
M  V30 6784 C 690.438 -1.68724 -0.847201 0
M  V30 6785 O 689.795 -0.943699 -1.56207 0
M  V30 6786 C 689.846 -3.52971 0.780633 0
M  V30 6787 O 689.567 -3.81994 2.14504 0
M  V30 6788 C 691.068 -4.411 0.44105 0
M  V30 6789 H 688.288 -0.634651 0.21785 0
M  V30 6790 H 690.832 -1.62965 1.23542 0
M  V30 6791 H 688.987 -3.87048 0.165204 0
M  V30 6792 H 689.401 -4.76609 2.18962 0
M  V30 6793 H 690.875 -5.48312 0.637006 0
M  V30 6794 H 691.352 -4.34758 -0.62306 0
M  V30 6795 H 691.958 -4.12532 1.0343 0
M  V30 6796 N 690.273 -0.685099 -1.4193 0
M  V30 6797 C 691.689 -0.355632 -1.55587 0
M  V30 6798 C 691.889 1.13823 -1.66273 0
M  V30 6799 O 690.945 1.92387 -1.63534 0
M  V30 6800 C 692.258 -1.09498 -2.80055 0
M  V30 6801 C 693.806 -1.07831 -2.93839 0
M  V30 6802 C 694.281 -1.79919 -4.21181 0
M  V30 6803 N 695.772 -1.76837 -4.28115 0
M  V30 6804 C 696.507 -2.29463 -5.25485 0
M  V30 6805 N 696.003 -2.90516 -6.28945 0
M  V30 6806 N 697.796 -2.19779 -5.17353 0
M  V30 6807 H 689.947 -1.65412 -1.33239 0
M  V30 6808 H 692.21 -0.697453 -0.642078 0
M  V30 6809 H 691.916 -2.14997 -2.78333 0
M  V30 6810 H 691.79 -0.666813 -3.71259 0
M  V30 6811 H 694.177 -0.0316152 -2.95083 0
M  V30 6812 H 694.258 -1.54545 -2.03837 0
M  V30 6813 H 693.902 -2.84562 -4.20698 0
M  V30 6814 H 693.832 -1.30647 -5.10136 0
M  V30 6815 H 696.323 -1.32315 -3.53979 0
M  V30 6816 H 696.636 -3.28266 -6.99615 0
M  V30 6817 H 694.981 -2.94589 -6.29478 0
M  V30 6818 H 698.172 -1.71763 -4.35448 0
M  V30 6819 H 698.345 -2.61097 -5.9307 0
M  V30 6820 N 691.751 1.51645 -0.429126 0
M  V30 6821 C 692.698 2.27542 0.386446 0
M  V30 6822 C 693.668 1.30786 1.02393 0
M  V30 6823 O 694.853 1.59678 1.0444 0
M  V30 6824 C 691.993 3.11457 1.48623 0
M  V30 6825 C 691.106 4.23196 0.867691 0
M  V30 6826 C 690.241 4.94435 1.94183 0
M  V30 6827 C 689.28 5.98108 1.30129 0
M  V30 6828 N 688.417 6.62786 2.31644 0
M  V30 6829 H 693.257 2.968 -0.267155 0
M  V30 6830 H 690.794 1.46397 -0.143591 0
M  V30 6831 H 692.752 3.58429 2.13506 0
M  V30 6832 H 691.382 2.44329 2.10957 0
M  V30 6833 H 690.434 3.80248 0.107373 0
M  V30 6834 H 691.746 4.97499 0.35997 0
M  V30 6835 H 690.9 5.44914 2.66747 0
M  V30 6836 H 689.639 4.19744 2.48326 0
M  V30 6837 H 688.644 5.4693 0.561082 0
M  V30 6838 H 689.869 6.74751 0.767303 0
M  V30 6839 H 687.815 5.90913 2.84883 0
M  V30 6840 H 687.732 7.32828 1.85741 0
M  V30 6841 H 689 7.17897 3.03717 0
M  V30 6842 N 693.229 0.160201 1.56784 0
M  V30 6843 C 694.457 -0.494165 2.00912 0
M  V30 6844 C 694.872 -1.57548 1.04038 0
M  V30 6845 O 694.229 -1.82457 0.0394581 0
M  V30 6846 C 694.28 -1.08271 3.44905 0
M  V30 6847 O 694.001 -0.0445704 4.38077 0
M  V30 6848 C 695.502 -1.8164 4.04378 0
M  V30 6849 H 692.722 -0.127498 0.658776 0
M  V30 6850 H 695.266 0.258665 2.02858 0
M  V30 6851 H 693.421 -1.78609 3.4377 0
M  V30 6852 H 693.835 -0.477544 5.22322 0
M  V30 6853 H 695.309 -2.18094 5.07089 0
M  V30 6854 H 695.786 -2.70727 3.45838 0
M  V30 6855 H 696.392 -1.15969 4.09184 0
M  V30 6856 N 694.707 -1.5719 -0.113559 0
M  V30 6857 C 696.118 -1.74259 -0.670116 0
M  V30 6858 C 696.469 -0.779694 -1.80042 0
M  V30 6859 O 695.594 0.0461353 -2.16351 0
M  V30 6860 C 696.189 -3.15981 -1.22236 0
M  V30 6861 C 694.748 -3.34537 -1.72516 0
M  V30 6862 C 693.895 -2.70116 -0.627098 0
M  V30 6863 H 696.846 -1.58301 0.112396 0
M  V30 6864 H 696.867 -3.17832 -2.09197 0
M  V30 6865 H 696.379 -3.86038 -0.39949 0
M  V30 6866 H 694.48 -2.6953 -2.57263 0
M  V30 6867 H 694.593 -4.42737 -1.83086 0
M  V30 6868 H 692.957 -2.31501 -1.06204 0
M  V30 6869 H 693.74 -3.42802 0.184889 0
M  V30 6870 N 696.185 0.383891 -1.52853 0
M  V30 6871 C 697.095 1.49343 -1.80925 0
M  V30 6872 C 698.111 1.59458 -0.696348 0
M  V30 6873 O 699.287 1.75698 -0.984481 0
M  V30 6874 C 696.352 2.84819 -1.97684 0
M  V30 6875 C 695.413 2.84382 -3.21598 0
M  V30 6876 C 694.646 4.13397 -3.37548 0
M  V30 6877 O 694.869 5.08619 -2.58192 0
M  V30 6878 O 693.803 4.20325 -4.30826 0
M  V30 6879 H 697.629 1.2855 -2.75152 0
M  V30 6880 H 695.214 0.572229 -1.38007 0
M  V30 6881 H 697.096 3.65125 -2.10385 0
M  V30 6882 H 695.771 3.05627 -1.06647 0
M  V30 6883 H 694.678 2.0284 -3.14336 0
M  V30 6884 H 696.011 2.68526 -4.12498 0
M  V30 6885 N 697.663 1.43903 0.642637 0
M  V30 6886 C 698.888 1.49758 1.43483 0
M  V30 6887 C 699.313 0.119911 1.87717 0
M  V30 6888 O 698.671 -0.888558 1.58033 0
M  V30 6889 C 698.719 2.45744 2.63898 0
M  V30 6890 O 697.823 1.95101 3.63331 0
M  V30 6891 H 697.164 0.506138 0.429791 0
M  V30 6892 H 699.694 1.88923 0.785438 0
M  V30 6893 H 699.704 2.63399 3.11584 0
M  V30 6894 H 698.379 3.45818 2.31046 0
M  V30 6895 H 696.956 1.87158 3.22531 0
M  V30 6896 N 699.141 -0.881989 1.30609 0
M  V30 6897 C 700.388 -1.63405 1.19604 0
M  V30 6898 C 700.716 -1.92905 -0.248574 0
M  V30 6899 O 699.971 -1.55062 -1.19391 0
M  V30 6900 C 700.27 -2.97999 1.97311 0
M  V30 6901 C 699.936 -2.88039 3.46907 0
M  V30 6902 C 698.598 -2.85029 3.877 0
M  V30 6903 C 700.95 -2.75948 4.42156 0
M  V30 6904 C 698.278 -2.67772 5.2203 0
M  V30 6905 C 700.63 -2.60228 5.76597 0
M  V30 6906 C 699.294 -2.55595 6.16626 0
M  V30 6907 H 698.564 -0.597941 0.437662 0
M  V30 6908 H 701.211 -1.02524 1.61744 0
M  V30 6909 H 699.516 -3.62847 1.47815 0
M  V30 6910 H 701.213 -3.55156 1.86186 0
M  V30 6911 H 697.803 -2.91192 3.14492 0
M  V30 6912 H 701.987 -2.77337 4.1158 0
M  V30 6913 H 697.243 -2.62601 5.52133 0
M  V30 6914 H 701.417 -2.49847 6.50038 0
M  V30 6915 H 699.044 -2.41981 7.20659 0
M  V30 6916 N 700.619 -1.13374 -1.09472 0
M  V30 6917 C 701.549 -0.833268 -2.18126 0
M  V30 6918 C 702.53 0.207169 -1.68834 0
M  V30 6919 O 703.715 0.0662012 -1.94087 0
M  V30 6920 C 700.845 -0.297979 -3.46019 0
M  V30 6921 C 699.799 -1.27261 -4.08642 0
M  V30 6922 C 699.125 -0.597104 -5.31356 0
M  V30 6923 C 700.425 -2.63095 -4.51197 0
M  V30 6924 H 702.119 -1.74182 -2.43518 0
M  V30 6925 H 699.665 -0.838921 -1.17039 0
M  V30 6926 H 701.618 -0.0754444 -4.21332 0
M  V30 6927 H 700.342 0.645959 -3.20148 0
M  V30 6928 H 699.001 -1.48113 -3.35348 0
M  V30 6929 H 698.649 0.352293 -5.01765 0
M  V30 6930 H 698.349 -1.24734 -5.74208 0
M  V30 6931 H 699.873 -0.38384 -6.09392 0
M  V30 6932 H 701.287 -2.46214 -5.17737 0
M  V30 6933 H 699.684 -3.2429 -5.04932 0
M  V30 6934 H 700.754 -3.20793 -3.6362 0
M  V30 6935 N 702.098 1.27442 -0.927168 0
M  V30 6936 C 703.346 1.94007 -0.566203 0
M  V30 6937 C 703.667 1.7323 0.895345 0
M  V30 6938 O 702.937 1.07973 1.63459 0
M  V30 6939 H 701.517 0.717917 -0.206409 0
M  V30 6940 H 704.179 1.55161 -1.17945 0
M  V30 6941 H 703.275 3.02401 -0.772028 0
M  V30 6942 N 703.576 0.692616 1.41565 0
M  V30 6943 C 704.987 0.297478 1.84315 0
M  V30 6944 C 705.338 -1.16379 1.57957 0
M  V30 6945 O 704.463 -1.89303 1.0485 0
M  V30 6946 C 705.058 0.533136 3.34579 0
M  V30 6947 C 703.617 0.191944 3.7591 0
M  V30 6948 C 702.764 0.816873 2.64995 0
M  V30 6949 H 705.715 0.893488 1.31158 0
M  V30 6950 H 705.736 -0.209105 3.79925 0
M  V30 6951 H 705.248 1.59674 3.53731 0
M  V30 6952 H 703.349 -0.867512 3.6236 0
M  V30 6953 H 703.462 0.644902 4.7474 0
M  V30 6954 H 701.826 0.246715 2.53502 0
M  V30 6955 H 702.609 1.88429 2.86966 0
M  V30 6956 N 705.054 -1.51416 0.437162 0
M  V30 6957 C 706.002 -2.29328 -0.388765 0
M  V30 6958 C 706.996 -1.35171 -1.02104 0
M  V30 6959 O 708.202 -1.52513 -0.956024 0
M  V30 6960 H 704.577 -0.738048 -0.144183 0
M  V30 6961 H 706.548 -2.96995 0.289212 0
M  V30 6962 C 705.297 -3.14741 -1.47761 0
M  V30 6963 H 704.62 -3.8708 -1.00045 0
M  V30 6964 H 706.06 -3.72313 -2.02877 0
M  V30 6965 C 704.519 -2.30105 -2.46076 0
M  V30 6966 O 705.049 -1.96055 -3.50607 0
M  V30 6967 N 703.255 -1.93331 -2.1696 0
M  V30 6968 H 702.802 -2.2122 -1.31983 0
M  V30 6969 H 702.76 -1.36999 -2.82982 0
M  V30 6970 N 706.532 -0.168513 -1.56696 0
M  V30 6971 C 707.495 0.748928 -2.16619 0
M  V30 6972 C 708.495 1.16007 -1.11351 0
M  V30 6973 O 709.685 1.07748 -1.3688 0
M  V30 6974 C 706.817 2.01904 -2.74677 0
M  V30 6975 H 708.01 0.227317 -2.99037 0
M  V30 6976 H 705.563 0.0810372 -1.5609 0
M  V30 6977 H 706.298 2.58381 -1.95985 0
M  V30 6978 H 706.083 1.73323 -3.51712 0
M  V30 6979 H 707.573 2.67383 -3.20774 0
M  V30 6980 N 708.01 1.57248 0.105221 0
M  V30 6981 C 708.973 2.00388 1.11252 0
M  V30 6982 C 709.973 0.89594 1.33527 0
M  V30 6983 O 711.163 1.16166 1.29811 0
M  V30 6984 C 708.295 2.35589 2.46395 0
M  V30 6985 H 709.488 2.90591 0.741424 0
M  V30 6986 H 707.041 1.52332 0.349956 0
M  V30 6987 H 707.776 1.4831 2.884 0
M  V30 6988 H 707.561 3.16408 2.31578 0
M  V30 6989 H 709.051 2.69658 3.18864 0
M  V30 6990 N 709.488 -0.375779 1.53054 0
M  V30 6991 C 710.418 -1.46598 1.81745 0
M  V30 6992 C 711.399 -1.56337 0.670286 0
M  V30 6993 O 712.584 -1.71071 0.919158 0
M  V30 6994 C 709.714 -2.84058 1.99821 0
M  V30 6995 C 708.668 -2.8915 3.15557 0
M  V30 6996 C 707.994 -4.29187 3.18908 0
M  V30 6997 C 709.294 -2.57595 4.54359 0
M  V30 6998 H 710.988 -1.22837 2.73041 0
M  V30 6999 H 708.534 -0.589485 1.31381 0
M  V30 7000 H 710.487 -3.60342 2.18475 0
M  V30 7001 H 709.211 -3.09184 1.05226 0
M  V30 7002 H 707.87 -2.15316 2.96706 0
M  V30 7003 H 707.518 -4.51374 2.2197 0
M  V30 7004 H 707.218 -4.33512 3.96662 0
M  V30 7005 H 708.742 -5.07359 3.39734 0
M  V30 7006 H 710.156 -3.23595 4.73243 0
M  V30 7007 H 708.553 -2.73252 5.34279 0
M  V30 7008 H 709.623 -1.52882 4.60169 0
M  V30 7009 N 710.966 -1.44241 -0.634997 0
M  V30 7010 C 712.212 -1.47038 -1.39669 0
M  V30 7011 C 712.545 -0.101122 -1.93937 0
M  V30 7012 O 711.82 0.880699 -1.73418 0
M  V30 7013 C 712.103 -2.52763 -2.56482 0
M  V30 7014 C 711.956 -3.99032 -2.07589 0
M  V30 7015 C 713.275 -2.55031 -3.58674 0
M  V30 7016 H 710.394 -0.53537 -0.506506 0
M  V30 7017 H 713.036 -1.75898 -0.718317 0
M  V30 7018 H 711.186 -2.28284 -3.14354 0
M  V30 7019 H 712.858 -4.3463 -1.54577 0
M  V30 7020 H 711.101 -4.10994 -1.38804 0
M  V30 7021 H 711.772 -4.68649 -2.91671 0
M  V30 7022 H 714.248 -2.76893 -3.10595 0
M  V30 7023 H 713.124 -3.30916 -4.37934 0
M  V30 7024 H 713.385 -1.59085 -4.12486 0
M  V30 7025 N 712.444 0.87505 -1.31075 0
M  V30 7026 C 713.721 1.60976 -1.11113 0
M  V30 7027 C 714.101 2.08409 0.336006 0
M  V30 7028 O 713.449 1.85858 1.32924 0
M  V30 7029 C 713.659 2.77166 -2.12085 0
M  V30 7030 C 715.007 3.47254 -2.44335 0
M  V30 7031 O 716.031 2.87367 -2.10472 0
M  V30 7032 O 714.89 4.55276 -3.02301 0
M  V30 7033 H 711.984 0.707982 -0.427424 0
M  V30 7034 H 714.53 0.920957 -1.42536 0
M  V30 7035 H 713.302 2.39494 -3.09449 0
M  V30 7036 H 712.925 3.53737 -1.81538 0
M  V30 7037 N 713.922 1.13953 1.08869 0
M  V30 7038 C 714.852 0.844824 2.17681 0
M  V30 7039 C 715.833 -0.198213 1.68941 0
M  V30 7040 O 717.018 -0.0559073 1.9412 0
M  V30 7041 C 714.148 0.316325 3.45856 0
M  V30 7042 C 713.102 1.29426 4.07962 0
M  V30 7043 C 712.428 0.625275 5.31031 0
M  V30 7044 C 713.728 2.65484 4.49795 0
M  V30 7045 H 715.422 1.75471 2.42591 0
M  V30 7046 H 712.968 0.845116 1.16592 0
M  V30 7047 H 714.921 0.0977876 4.21287 0
M  V30 7048 H 713.645 -0.628972 3.20486 0
M  V30 7049 H 712.304 1.49889 3.34558 0
M  V30 7050 H 711.952 -0.325678 5.01945 0
M  V30 7051 H 711.652 1.27777 5.73539 0
M  V30 7052 H 713.176 0.416152 6.0918 0
M  V30 7053 H 714.59 2.48957 5.16424 0
M  V30 7054 H 712.987 3.26963 5.03205 0
M  V30 7055 H 714.057 3.22717 3.61914 0
M  V30 7056 N 715.4 -1.26948 0.933913 0
M  V30 7057 C 716.677 -1.89212 0.495784 0
M  V30 7058 C 717.057 -1.84469 -1.02637 0
M  V30 7059 O 716.405 -1.29409 -1.88323 0
M  V30 7060 C 716.615 -3.32865 1.0489 0
M  V30 7061 C 717.963 -4.09749 1.11315 0
M  V30 7062 O 718.987 -3.41905 0.998966 0
M  V30 7063 O 717.846 -5.31061 1.28983 0
M  V30 7064 H 714.94 -0.811284 0.160459 0
M  V30 7065 H 717.486 -1.35171 1.02601 0
M  V30 7066 H 716.258 -3.30642 2.09265 0
M  V30 7067 H 715.881 -3.94435 0.500692 0
M  V30 7068 N 716.879 -0.700114 -1.41195 0
M  V30 7069 C 718.104 -0.240704 -2.05998 0
M  V30 7070 C 718.529 1.10313 -1.52357 0
M  V30 7071 O 717.887 1.69154 -0.652424 0
M  V30 7072 C 717.935 -0.213783 -3.59966 0
M  V30 7073 O 717.039 0.809933 -4.04368 0
M  V30 7074 H 716.38 -0.116471 -0.653705 0
M  V30 7075 H 718.91 -0.956251 -1.80878 0
M  V30 7076 H 718.92 -0.0461852 -4.07974 0
M  V30 7077 H 717.595 -1.19454 -3.98376 0
M  V30 7078 H 716.172 0.611319 -3.67855 0
M  V30 7079 N 718.357 1.51182 -0.445186 0
M  V30 7080 C 719.287 2.30821 0.352686 0
M  V30 7081 C 720.268 1.36576 1.01395 0
M  V30 7082 O 721.453 1.65497 1.01609 0
M  V30 7083 C 718.583 3.15593 1.44976 0
M  V30 7084 C 717.537 4.1818 0.911553 0
M  V30 7085 C 716.863 4.91523 2.10497 0
M  V30 7086 C 718.163 5.22266 -0.059418 0
M  V30 7087 H 719.857 2.97771 -0.311936 0
M  V30 7088 H 717.403 1.43201 -0.151461 0
M  V30 7089 H 719.356 3.70091 2.01521 0
M  V30 7090 H 718.08 2.4648 2.14278 0
M  V30 7091 H 716.739 3.64746 0.368264 0
M  V30 7092 H 716.387 4.18906 2.78437 0
M  V30 7093 H 716.087 5.60898 1.7512 0
M  V30 7094 H 717.611 5.48847 2.6758 0
M  V30 7095 H 719.025 5.71789 0.415985 0
M  V30 7096 H 717.422 5.99213 -0.326152 0
M  V30 7097 H 718.492 4.7461 -0.993631 0
M  V30 7098 N 719.835 0.176821 1.56605 0
M  V30 7099 C 721.081 -0.467406 1.9734 0
M  V30 7100 C 721.414 -1.62523 1.06301 0
M  V30 7101 O 720.689 -1.94182 0.11125 0
M  V30 7102 C 720.972 -0.945106 3.47476 0
M  V30 7103 C 720.825 0.213273 4.49294 0
M  V30 7104 C 722.144 -1.8169 4.00845 0
M  V30 7105 H 719.263 -0.168426 0.717497 0
M  V30 7106 H 721.905 0.264065 1.88156 0
M  V30 7107 H 720.055 -1.56841 3.55434 0
M  V30 7108 H 721.727 0.850508 4.53392 0
M  V30 7109 H 719.97 0.867918 4.25029 0
M  V30 7110 H 720.641 -0.163187 5.51759 0
M  V30 7111 H 723.117 -1.29139 3.95553 0
M  V30 7112 H 721.993 -2.12015 5.06301 0
M  V30 7113 H 722.254 -2.76463 3.44994 0
M  V30 7114 N 721.313 -1.57302 -0.09688 0
M  V30 7115 C 722.538 -1.9058 -0.818169 0
M  V30 7116 C 722.963 -0.770921 -1.71576 0
M  V30 7117 O 722.321 0.277588 -1.79162 0
M  V30 7118 C 722.369 -3.22714 -1.60898 0
M  V30 7119 O 721.473 -3.10178 -2.71779 0
M  V30 7120 H 720.814 -0.624759 -0.224882 0
M  V30 7121 H 723.344 -2.04471 -0.07264 0
M  V30 7122 H 723.354 -3.55978 -1.99358 0
M  V30 7123 H 722.029 -4.04899 -0.950227 0
M  V30 7124 H 720.606 -2.88424 -2.3636 0
M  V30 7125 N 722.791 0.367657 -1.53252 0
M  V30 7126 C 724.207 0.709191 -1.42978 0
M  V30 7127 C 724.407 1.93352 -0.567193 0
M  V30 7128 O 723.463 2.52453 -0.0488349 0
M  V30 7129 C 724.776 0.924338 -2.86141 0
M  V30 7130 C 726.324 1.02448 -2.95759 0
M  V30 7131 C 726.799 1.27211 -4.39979 0
M  V30 7132 N 728.29 1.33986 -4.43398 0
M  V30 7133 C 729.025 1.54852 -5.52095 0
M  V30 7134 N 728.521 1.73049 -6.7084 0
M  V30 7135 N 730.314 1.57205 -5.39669 0
M  V30 7136 H 722.465 -0.437669 -2.07842 0
M  V30 7137 H 724.728 -0.133737 -0.938519 0
M  V30 7138 H 724.434 0.0965455 -3.51567 0
M  V30 7139 H 724.308 1.83302 -3.29667 0
M  V30 7140 H 726.695 1.84282 -2.30487 0
M  V30 7141 H 726.776 0.0932301 -2.5563 0
M  V30 7142 H 726.42 0.458792 -5.05824 0
M  V30 7143 H 726.35 2.21654 -4.77679 0
M  V30 7144 H 728.841 1.21545 -3.5782 0
M  V30 7145 H 729.154 1.88538 -7.49449 0
M  V30 7146 H 727.499 1.70231 -6.7383 0
M  V30 7147 H 730.69 1.42555 -4.45865 0
M  V30 7148 H 730.863 1.73126 -6.24445 0
M  V30 7149 N 724.269 1.44576 0.627338 0
M  V30 7150 C 725.68 1.42266 1.20902 0
M  V30 7151 C 726.031 0.139964 1.957 0
M  V30 7152 O 725.156 -0.759489 2.02634 0
M  V30 7153 C 725.751 2.57727 2.19914 0
M  V30 7154 C 724.31 2.58599 2.73502 0
M  V30 7155 C 723.457 2.34145 1.48564 0
M  V30 7156 H 726.408 1.53102 0.417791 0
M  V30 7157 H 726.429 2.30697 3.02588 0
M  V30 7158 H 725.941 3.51068 1.65447 0
M  V30 7159 H 724.042 1.6921 3.31962 0
M  V30 7160 H 724.155 3.57205 3.19282 0
M  V30 7161 H 722.519 1.83313 1.76829 0
M  V30 7162 H 723.302 3.29606 0.959935 0
M  V30 7163 N 725.747 -0.868086 1.31537 0
M  V30 7164 C 726.995 -1.61807 1.21091 0
M  V30 7165 C 727.316 -1.93631 -0.230623 0
M  V30 7166 O 726.586 -1.5846 -1.15183 0
M  V30 7167 H 725.166 -0.599854 0.445178 0
M  V30 7168 H 727.828 -1.03915 1.64887 0
M  V30 7169 H 726.924 -2.56088 1.78396 0
M  V30 7170 N 727.225 -1.14528 -1.08264 0
M  V30 7171 C 728.636 -0.925261 -1.6216 0
M  V30 7172 C 728.987 0.535587 -1.88748 0
M  V30 7173 O 728.112 1.4048 -1.64604 0
M  V30 7174 C 728.707 -1.67316 -2.94603 0
M  V30 7175 C 727.266 -1.49868 -3.45278 0
M  V30 7176 C 726.413 -1.69471 -2.19487 0
M  V30 7177 H 729.364 -1.29687 -0.914707 0
M  V30 7178 H 729.385 -1.13721 -3.63109 0
M  V30 7179 H 728.897 -2.73635 -2.75219 0
M  V30 7180 H 726.998 -0.459032 -3.69762 0
M  V30 7181 H 727.111 -2.2696 -4.21931 0
M  V30 7182 H 725.475 -1.12048 -2.2873 0
M  V30 7183 H 726.258 -2.77136 -2.0261 0
M  V30 7184 N 728.703 1.26451 -0.940633 0
M  V30 7185 C 729.931 1.97868 -0.604642 0
M  V30 7186 C 730.346 1.70051 0.820251 0
M  V30 7187 O 729.703 0.96843 1.54686 0
M  V30 7188 C 729.754 3.51684 -0.836689 0
M  V30 7189 O 729.475 3.78533 -2.20554 0
M  V30 7190 C 730.976 4.40343 -0.511169 0
M  V30 7191 H 728.196 0.631105 -0.227919 0
M  V30 7192 H 730.74 1.60979 -1.26119 0
M  V30 7193 H 728.895 3.86736 -0.226759 0
M  V30 7194 H 729.309 4.73065 -2.26517 0
M  V30 7195 H 730.783 5.47229 -0.724157 0
M  V30 7196 H 731.26 4.35694 0.553815 0
M  V30 7197 H 731.866 4.10834 -1.0998 0
M  V30 7198 N 730.181 0.707592 1.40822 0
M  V30 7199 C 731.592 0.317011 1.83989 0
M  V30 7200 C 731.943 -1.14697 1.59182 0
M  V30 7201 O 731.068 -1.8818 1.06852 0
M  V30 7202 C 731.663 0.568593 3.33995 0
M  V30 7203 C 730.222 0.231804 3.75686 0
M  V30 7204 C 729.369 0.844933 2.64114 0
M  V30 7205 H 732.32 0.907349 1.30203 0
M  V30 7206 H 732.341 -0.168798 3.80125 0
M  V30 7207 H 731.853 1.63417 3.52018 0
M  V30 7208 H 729.954 -0.82903 3.6326 0
M  V30 7209 H 730.067 0.695219 4.74029 0
M  V30 7210 H 728.431 0.273588 2.53226 0
M  V30 7211 H 729.214 1.91462 2.84951 0
M  V30 7212 N 731.66 -1.50943 0.453197 0
M  V30 7213 C 733.071 -1.86699 -0.00619892 0
M  V30 7214 C 733.422 -1.3693 -1.40515 0
M  V30 7215 O 732.547 -0.726715 -2.03833 0
M  V30 7216 C 733.142 -3.38795 -0.018025 0
M  V30 7217 C 731.701 -3.74028 -0.421885 0
M  V30 7218 C 730.848 -2.74752 0.375087 0
M  V30 7219 H 733.799 -1.43942 0.668317 0
M  V30 7220 H 733.82 -3.71468 -0.824125 0
M  V30 7221 H 733.332 -3.74988 1.00028 0
M  V30 7222 H 731.433 -3.43431 -1.44521 0
M  V30 7223 H 731.546 -4.78908 -0.135664 0
M  V30 7224 H 729.91 -2.5414 -0.168794 0
M  V30 7225 H 730.693 -3.13787 1.39256 0
M  V30 7226 N 733.138 -0.185124 -1.56509 0
M  V30 7227 C 734.386 0.455357 -1.96903 0
M  V30 7228 C 734.707 1.62839 -1.07277 0
M  V30 7229 O 733.977 1.95385 -0.141966 0
M  V30 7230 H 732.557 0.171218 -0.727113 0
M  V30 7231 H 735.219 -0.26953 -1.93027 0
M  V30 7232 H 734.315 0.80616 -3.01509 0
M  V30 7233 N 734.616 1.57351 0.0885366 0
M  V30 7234 C 735.579 2.01557 1.09121 0
M  V30 7235 C 736.579 0.910052 1.3257 0
M  V30 7236 O 737.769 1.17537 1.28572 0
M  V30 7237 C 734.901 2.38189 2.43883 0
M  V30 7238 H 736.094 2.91361 0.710562 0
M  V30 7239 H 733.647 1.52694 0.333779 0
M  V30 7240 H 734.382 1.5136 2.86811 0
M  V30 7241 H 734.167 3.18846 2.28209 0
M  V30 7242 H 735.657 2.73025 3.15986 0
M  V30 7243 N 736.094 -0.359525 1.53444 0
M  V30 7244 C 737.041 -1.44073 1.8031 0
M  V30 7245 C 738.011 -1.52946 0.647811 0
M  V30 7246 O 739.196 -1.68739 0.890614 0
M  V30 7247 C 736.336 -2.80941 2.00416 0
M  V30 7248 C 735.449 -2.80986 3.28132 0
M  V30 7249 C 734.584 -4.09468 3.38393 0
M  V30 7250 C 733.623 -4.03679 4.60119 0
M  V30 7251 N 732.76 -5.23821 4.675 0
M  V30 7252 H 737.6 -1.20464 2.72566 0
M  V30 7253 H 735.137 -0.583859 1.35017 0
M  V30 7254 H 737.095 -3.60459 2.1006 0
M  V30 7255 H 735.725 -3.02936 1.11489 0
M  V30 7256 H 734.777 -1.93666 3.27411 0
M  V30 7257 H 736.089 -2.72583 4.17732 0
M  V30 7258 H 735.243 -4.97404 3.47382 0
M  V30 7259 H 733.982 -4.20632 2.4682 0
M  V30 7260 H 732.987 -3.14129 4.51224 0
M  V30 7261 H 734.212 -3.94112 5.5304 0
M  V30 7262 H 732.158 -5.35559 3.7883 0
M  V30 7263 H 732.075 -5.17611 5.51013 0
M  V30 7264 H 733.343 -6.13572 4.8078 0
M  V30 7265 N 737.572 -1.44907 -0.619662 0
M  V30 7266 C 738.535 -1.52282 -1.71297 0
M  V30 7267 C 739.535 -0.40359 -1.55653 0
M  V30 7268 O 740.725 -0.666638 -1.6094 0
M  V30 7269 C 737.857 -1.40778 -3.10474 0
M  V30 7270 H 739.05 -2.49683 -1.66128 0
M  V30 7271 H 736.603 -1.32168 -0.834339 0
M  V30 7272 H 737.338 -0.445156 -3.2123 0
M  V30 7273 H 737.123 -2.21947 -3.23237 0
M  V30 7274 H 738.613 -1.48946 -3.90135 0
M  V30 7275 N 739.05 0.861098 -1.31996 0
M  V30 7276 C 740.275 1.65264 -1.2531 0
M  V30 7277 C 740.7 1.87265 0.177007 0
M  V30 7278 O 740.058 1.4208 1.12619 0
M  V30 7279 C 740.106 2.99284 -2.0115 0
M  V30 7280 O 739.21 3.89508 -1.3549 0
M  V30 7281 H 738.551 0.50409 -0.432192 0
M  V30 7282 H 741.081 1.07297 -1.74208 0
M  V30 7283 H 741.091 3.49154 -2.11081 0
M  V30 7284 H 739.766 2.82591 -3.05148 0
M  V30 7285 H 738.343 3.47966 -1.34066 0
M  V30 7286 N 740.528 1.15101 1.07655 0
M  V30 7287 C 741.476 0.840714 2.16875 0
M  V30 7288 C 742.47 -0.184594 1.68391 0
M  V30 7289 O 743.676 -0.0399315 1.79956 0
M  V30 7290 H 740.051 0.254192 0.707736 0
M  V30 7291 H 742.022 1.76959 2.40266 0
M  V30 7292 C 740.771 0.343018 3.46004 0
M  V30 7293 H 740.094 1.12335 3.83694 0
M  V30 7294 H 741.534 0.16453 4.23681 0
M  V30 7295 C 739.993 -0.934881 3.23669 0
M  V30 7296 O 740.523 -2.00706 3.47965 0
M  V30 7297 N 738.729 -0.873167 2.77172 0
M  V30 7298 H 738.276 -0.000479072 2.576 0
M  V30 7299 H 738.234 -1.72873 2.62607 0
M  V30 7300 N 742.006 -1.2595 0.947325 0
M  V30 7301 C 743.417 -1.75389 0.639963 0
M  V30 7302 C 743.768 -1.77081 -0.844788 0
M  V30 7303 O 742.893 -1.3869 -1.66114 0
M  V30 7304 C 743.488 -3.18506 1.15496 0
M  V30 7305 C 742.047 -3.65534 0.897894 0
M  V30 7306 C 741.194 -2.44818 1.30228 0
M  V30 7307 H 744.145 -1.1194 1.12495 0
M  V30 7308 H 744.166 -3.77045 0.511627 0
M  V30 7309 H 743.678 -3.17243 2.23559 0
M  V30 7310 H 741.779 -3.72221 -0.168096 0
M  V30 7311 H 741.892 -4.54039 1.52922 0
M  V30 7312 H 740.256 -2.44291 0.720678 0
M  V30 7313 H 741.039 -2.46251 2.39198 0
M  V30 7314 N 743.484 -0.715051 -1.40445 0
M  V30 7315 C 744.731 -0.254328 -2.00897 0
M  V30 7316 C 745.059 1.15228 -1.56693 0
M  V30 7317 O 744.314 1.7958 -0.777786 0
M  V30 7318 C 744.613 -0.281791 -3.56287 0
M  V30 7319 C 744.279 -1.63862 -4.20071 0
M  V30 7320 C 742.941 -2.01003 -4.37208 0
M  V30 7321 C 745.293 -2.53039 -4.55654 0
M  V30 7322 C 742.621 -3.26869 -4.8721 0
M  V30 7323 C 744.973 -3.78256 -5.07055 0
M  V30 7324 C 743.637 -4.15515 -5.22401 0
M  V30 7325 H 742.907 -0.0930652 -0.735133 0
M  V30 7326 H 745.554 -0.917977 -1.68064 0
M  V30 7327 H 743.859 0.465428 -3.89026 0
M  V30 7328 H 745.556 0.0925158 -4.00893 0
M  V30 7329 H 742.146 -1.33979 -4.07121 0
M  V30 7330 H 746.33 -2.2562 -4.42051 0
M  V30 7331 H 741.586 -3.55706 -4.97276 0
M  V30 7332 H 745.76 -4.47528 -5.33565 0
M  V30 7333 H 743.387 -5.13114 -5.60909 0
M  V30 7334 N 744.962 1.50701 -0.461195 0
M  V30 7335 C 745.892 2.31182 0.328184 0
M  V30 7336 C 746.873 1.37644 0.999408 0
M  V30 7337 O 748.058 1.66565 0.99848 0
M  V30 7338 C 745.188 3.17113 1.41621 0
M  V30 7339 C 744.142 4.19124 0.867148 0
M  V30 7340 C 743.468 4.93728 2.05272 0
M  V30 7341 C 744.768 5.22174 -0.114808 0
M  V30 7342 H 746.462 2.97423 -0.343501 0
M  V30 7343 H 744.008 1.43033 -0.166641 0
M  V30 7344 H 745.961 3.72208 1.97584 0
M  V30 7345 H 744.685 2.48739 2.11652 0
M  V30 7346 H 743.344 3.65116 0.329557 0
M  V30 7347 H 742.992 4.21835 2.73978 0
M  V30 7348 H 742.692 5.62724 1.69161 0
M  V30 7349 H 744.216 5.51654 2.61744 0
M  V30 7350 H 745.63 5.72198 0.355316 0
M  V30 7351 H 744.027 5.98833 -0.389689 0
M  V30 7352 H 745.097 4.7353 -1.04391 0
M  V30 7353 N 746.441 0.193421 1.56409 0
M  V30 7354 C 747.852 -0.319471 1.83946 0
M  V30 7355 C 748.203 -1.61505 1.11403 0
M  V30 7356 O 747.328 -2.13139 0.374289 0
M  V30 7357 C 747.923 -0.586411 3.33686 0
M  V30 7358 C 746.482 -1.04368 3.61641 0
M  V30 7359 C 745.629 -0.0913834 2.77149 0
M  V30 7360 H 748.58 0.417242 1.53117 0
M  V30 7361 H 748.601 -1.43591 3.52366 0
M  V30 7362 H 748.113 0.356701 3.86457 0
M  V30 7363 H 746.214 -2.00113 3.14302 0
M  V30 7364 H 746.327 -0.937549 4.69837 0
M  V30 7365 H 744.691 -0.592954 2.47702 0
M  V30 7366 H 745.474 0.846142 3.32709 0
M  V30 7367 N 747.919 -1.57396 -0.0801906 0
M  V30 7368 C 749.167 -1.86467 -0.779384 0
M  V30 7369 C 749.488 -0.784243 -1.78535 0
M  V30 7370 O 748.758 0.187986 -1.94996 0
M  V30 7371 H 747.338 -0.68806 -0.29083 0
M  V30 7372 H 750 -1.94813 -0.0582749 0
M  V30 7373 H 749.096 -2.83701 -1.30078 0
M  V30 7374 N 749.397 0.351382 -1.53633 0
M  V30 7375 C 750.645 1.09034 -1.70165 0
M  V30 7376 C 750.966 1.89413 -0.463422 0
M  V30 7377 O 750.236 1.888 0.522624 0
M  V30 7378 H 748.816 0.405522 -0.627344 0
M  V30 7379 H 751.478 0.394554 -1.90865 0
M  V30 7380 H 750.574 1.77215 -2.56907 0
M  V30 7381 N 750.875 1.45233 0.611969 0
M  V30 7382 C 752.123 1.48727 1.36838 0
M  V30 7383 C 752.444 0.128616 1.94575 0
M  V30 7384 O 751.714 -0.84149 1.76906 0
M  V30 7385 H 750.294 0.547695 0.507976 0
M  V30 7386 H 752.956 1.81156 0.718925 0
M  V30 7387 H 752.052 2.2236 2.19003 0
M  V30 7388 N 752.353 -0.854086 1.3245 0
M  V30 7389 C 753.764 -1.42427 1.20712 0
M  V30 7390 C 754.115 -1.95371 -0.18013 0
M  V30 7391 O 753.24 -1.87587 -1.07889 0
M  V30 7392 C 753.835 -2.58897 2.18536 0
M  V30 7393 C 752.394 -3.11913 2.10683 0
M  V30 7394 C 751.541 -1.84661 2.06871 0
M  V30 7395 H 754.492 -0.661192 1.4427 0
M  V30 7396 H 754.513 -3.36074 1.78422 0
M  V30 7397 H 754.025 -2.20333 3.19492 0
M  V30 7398 H 752.126 -3.55059 1.12977 0
M  V30 7399 H 752.239 -3.73119 3.00532 0
M  V30 7400 H 750.603 -2.04285 1.52118 0
M  V30 7401 H 751.386 -1.48314 3.09609 0
M  V30 7402 N 753.831 -1.1567 -1.07043 0
M  V30 7403 C 754.794 -0.858906 -2.12498 0
M  V30 7404 C 755.794 0.142735 -1.60165 0
M  V30 7405 O 756.984 -0.0872678 -1.73981 0
M  V30 7406 C 754.116 -0.283021 -3.39723 0
M  V30 7407 H 755.309 -1.79368 -2.40348 0
M  V30 7408 H 752.862 -0.964608 -1.22984 0
M  V30 7409 H 753.597 0.659796 -3.17517 0
M  V30 7410 H 753.382 -1.00467 -3.7901 0
M  V30 7411 H 754.872 -0.0923543 -4.17498 0
M  V30 7412 N 755.309 1.25446 -0.953992 0
M  V30 7413 C 756.537 1.97215 -0.625595 0
M  V30 7414 C 756.952 1.70911 0.802168 0
M  V30 7415 O 756.309 0.984782 1.5365 0
M  V30 7416 C 756.36 3.50777 -0.873943 0
M  V30 7417 O 756.081 3.76173 -2.24556 0
M  V30 7418 C 757.582 4.39776 -0.557845 0
M  V30 7419 H 754.802 0.628652 -0.2346 0
M  V30 7420 H 757.346 1.59632 -1.27819 0
M  V30 7421 H 755.501 3.86474 -0.267765 0
M  V30 7422 H 755.915 4.70636 -2.31522 0
M  V30 7423 H 757.389 5.46431 -0.782157 0
M  V30 7424 H 757.866 4.36257 0.507573 0
M  V30 7425 H 758.472 4.09644 -1.14332 0
M  V30 7426 N 756.787 0.722489 1.40064 0
M  V30 7427 C 758.035 0.264455 2.00362 0
M  V30 7428 C 758.356 -1.14847 1.57592 0
M  V30 7429 O 757.626 -1.77982 0.818477 0
M  V30 7430 H 756.206 0.0947846 0.740962 0
M  V30 7431 H 758.868 0.929659 1.71299 0
M  V30 7432 H 757.964 0.302977 3.10626 0
M  V30 7433 N 758.265 -1.50454 0.469181 0
M  V30 7434 C 759.676 -1.86695 0.0136034 0
M  V30 7435 C 760.027 -1.38413 -1.39055 0
M  V30 7436 O 759.152 -0.748294 -2.03051 0
M  V30 7437 C 759.747 -3.38795 0.0179098 0
M  V30 7438 C 758.306 -3.74455 -0.382191 0
M  V30 7439 C 757.453 -2.74338 0.404207 0
M  V30 7440 H 760.404 -1.43225 0.683547 0
M  V30 7441 H 760.425 -3.72321 -0.78468 0
M  V30 7442 H 759.937 -3.73906 1.04 0
M  V30 7443 H 758.038 -3.44944 -1.4087 0
M  V30 7444 H 758.151 -4.79025 -0.084862 0
M  V30 7445 H 756.515 -2.54305 -0.141829 0
M  V30 7446 H 757.298 -3.12293 1.42577 0
M  V30 7447 N 759.743 -0.201713 -1.56304 0
M  V30 7448 C 760.968 0.443815 -2.02596 0
M  V30 7449 C 761.393 1.53945 -1.08086 0
M  V30 7450 O 760.751 1.81182 -0.0655056 0
M  V30 7451 C 760.799 0.971066 -3.47279 0
M  V30 7452 O 759.903 2.0836 -3.55893 0
M  V30 7453 H 759.244 0.10294 -0.655972 0
M  V30 7454 H 761.774 -0.314533 -2.02168 0
M  V30 7455 H 761.784 1.28598 -3.87204 0
M  V30 7456 H 760.459 0.169048 -4.15556 0
M  V30 7457 H 759.036 1.77683 -3.27846 0
M  V30 7458 N 761.222 1.57436 0.0718424 0
M  V30 7459 C 762.468 1.87525 0.772149 0
M  V30 7460 C 762.801 0.79399 1.77227 0
M  V30 7461 O 762.076 -0.195733 1.93513 0
M  V30 7462 C 762.359 3.28272 1.48018 0
M  V30 7463 C 762.212 4.47052 0.49647 0
M  V30 7464 C 763.531 3.67256 2.42509 0
M  V30 7465 H 760.65 0.682049 0.279245 0
M  V30 7466 H 763.292 1.89967 0.03534 0
M  V30 7467 H 761.442 3.26321 2.10824 0
M  V30 7468 H 763.114 4.61127 -0.126375 0
M  V30 7469 H 761.357 4.33392 -0.188205 0
M  V30 7470 H 762.028 5.42315 1.02949 0
M  V30 7471 H 764.504 3.70301 1.89781 0
M  V30 7472 H 763.38 4.66626 2.89053 0
M  V30 7473 H 763.641 2.97186 3.27312 0
M  V30 7474 N 762.7 -0.34323 1.53817 0
M  V30 7475 C 763.928 -1.10348 1.75017 0
M  V30 7476 C 764.343 -1.82345 0.489475 0
M  V30 7477 O 763.7 -1.74362 -0.538886 0
M  V30 7478 C 763.751 -2.11672 2.93048 0
M  V30 7479 O 763.472 -1.42603 4.14241 0
M  V30 7480 C 764.973 -3.0007 3.26301 0
M  V30 7481 H 762.193 -0.329056 0.584776 0
M  V30 7482 H 764.737 -0.395339 2.00642 0
M  V30 7483 H 762.892 -2.78051 2.69753 0
M  V30 7484 H 763.306 -2.10294 4.80496 0
M  V30 7485 H 764.78 -3.67101 4.12239 0
M  V30 7486 H 765.257 -3.66105 2.42618 0
M  V30 7487 H 765.863 -2.3928 3.51604 0
M  V30 7488 N 764.178 -1.45556 -0.604258 0
M  V30 7489 C 765.126 -1.5482 -1.7359 0
M  V30 7490 C 766.12 -0.417966 -1.64163 0
M  V30 7491 O 767.326 -0.594007 -1.69916 0
M  V30 7492 H 763.701 -0.486352 -0.573556 0
M  V30 7493 H 765.672 -2.5001 -1.62903 0
M  V30 7494 C 764.421 -1.53521 -3.11972 0
M  V30 7495 H 763.744 -2.39818 -3.19886 0
M  V30 7496 H 765.184 -1.64061 -3.90973 0
M  V30 7497 C 763.643 -0.260191 -3.35894 0
M  V30 7498 O 764.173 0.658582 -3.96265 0
M  V30 7499 N 762.379 -0.154839 -2.90187 0
M  V30 7500 H 761.926 -0.903378 -2.4124 0
M  V30 7501 H 761.884 0.697437 -3.06567 0
M  V30 7502 N 765.656 0.84705 -1.32902 0
M  V30 7503 C 767.067 1.41785 -1.21466 0
M  V30 7504 C 767.418 1.95464 0.169767 0
M  V30 7505 O 766.543 1.88157 1.06892 0
M  V30 7506 C 767.138 2.57734 -2.19906 0
M  V30 7507 C 765.697 3.10791 -2.12334 0
M  V30 7508 C 764.844 1.83562 -2.07847 0
M  V30 7509 H 767.795 0.653532 -1.44619 0
M  V30 7510 H 767.816 3.35123 -1.80202 0
M  V30 7511 H 767.328 2.18635 -3.20656 0
M  V30 7512 H 765.429 3.54455 -1.14858 0
M  V30 7513 H 765.542 3.71519 -3.02506 0
M  V30 7514 H 763.906 2.03475 -1.53199 0
M  V30 7515 H 764.689 1.4667 -3.10392 0
M  V30 7516 N 767.134 1.16236 1.06428 0
M  V30 7517 C 768.381 0.943034 1.79201 0
M  V30 7518 C 768.709 -0.529243 1.87161 0
M  V30 7519 O 767.964 -1.40874 1.35842 0
M  V30 7520 C 768.263 1.51396 3.2375 0
M  V30 7521 C 767.929 3.00833 3.35873 0
M  V30 7522 C 766.591 3.41626 3.38888 0
M  V30 7523 C 768.943 3.96825 3.37904 0
M  V30 7524 C 766.271 4.77033 3.4155 0
M  V30 7525 C 768.623 5.32116 3.42104 0
M  V30 7526 C 767.287 5.72392 3.43401 0
M  V30 7527 H 766.557 0.34508 0.655744 0
M  V30 7528 H 769.204 1.44929 1.25171 0
M  V30 7529 H 767.509 0.929114 3.80624 0
M  V30 7530 H 769.206 1.31996 3.78653 0
M  V30 7531 H 765.796 2.68306 3.3423 0
M  V30 7532 H 769.98 3.66376 3.34787 0
M  V30 7533 H 765.236 5.07569 3.40858 0
M  V30 7534 H 769.41 6.06286 3.42623 0
M  V30 7535 H 767.037 6.77296 3.45216 0
M  V30 7536 N 768.612 -1.24939 0.960631 0
M  V30 7537 C 769.544 -2.24879 0.442937 0
M  V30 7538 C 770.557 -1.56615 -0.444464 0
M  V30 7539 O 771.746 -1.76715 -0.251776 0
M  V30 7540 C 768.846 -3.36757 -0.380537 0
M  V30 7541 C 768.019 -4.34587 0.495283 0
M  V30 7542 C 767.078 -5.25502 -0.270995 0
M  V30 7543 O 766.104 -5.68227 0.332661 0
M  V30 7544 N 767.306 -5.59077 -1.56249 0
M  V30 7545 H 770.071 -2.69932 1.30218 0
M  V30 7546 H 767.632 -1.38907 0.83166 0
M  V30 7547 H 769.624 -3.94542 -0.90103 0
M  V30 7548 H 768.194 -2.91045 -1.14067 0
M  V30 7549 H 767.414 -3.75593 1.19682 0
M  V30 7550 H 768.702 -4.96925 1.09285 0
M  V30 7551 H 768.1 -5.2628 -2.07476 0
M  V30 7552 H 766.657 -6.19421 -2.02882 0
M  V30 7553 N 770.09 -0.729906 -1.39679 0
M  V30 7554 C 771.501 -0.346241 -1.83461 0
M  V30 7555 C 771.852 1.1215 -1.60987 0
M  V30 7556 O 770.977 1.86456 -1.09832 0
M  V30 7557 C 771.572 -0.621656 -3.33048 0
M  V30 7558 C 770.131 -0.291543 -3.75269 0
M  V30 7559 C 769.278 -0.886844 -2.62736 0
M  V30 7560 H 772.229 -0.927949 -1.28743 0
M  V30 7561 H 772.25 0.108301 -3.80346 0
M  V30 7562 H 771.762 -1.68996 -3.49373 0
M  V30 7563 H 769.863 0.771133 -3.64533 0
M  V30 7564 H 769.976 -0.770544 -4.72863 0
M  V30 7565 H 768.34 -0.313839 -2.52759 0
M  V30 7566 H 769.123 -1.95971 -2.81869 0
M  V30 7567 N 771.568 1.50203 -0.477153 0
M  V30 7568 C 772.531 2.27194 0.302599 0
M  V30 7569 C 773.531 1.32221 0.915112 0
M  V30 7570 O 774.721 1.55593 0.783348 0
M  V30 7571 C 771.853 3.0938 1.43167 0
M  V30 7572 H 773.046 2.97575 -0.372678 0
M  V30 7573 H 770.599 1.54578 -0.231392 0
M  V30 7574 H 771.334 2.43509 2.14182 0
M  V30 7575 H 771.119 3.79181 0.998197 0
M  V30 7576 H 772.609 3.67592 1.98157 0
M  V30 7577 N 773.046 0.209999 1.56195 0
M  V30 7578 C 774.457 -0.299943 1.84275 0
M  V30 7579 C 774.808 -1.60314 1.1311 0
M  V30 7580 O 773.933 -2.1273 0.396874 0
M  V30 7581 C 774.528 -0.550986 3.3429 0
M  V30 7582 C 773.087 -1.00526 3.62728 0
M  V30 7583 C 772.234 -0.0619828 2.77231 0
M  V30 7584 H 775.185 0.433458 1.52666 0
M  V30 7585 H 775.206 -1.39846 3.53869 0
M  V30 7586 H 774.718 0.397669 3.86057 0
M  V30 7587 H 772.819 -1.96768 3.16407 0
M  V30 7588 H 772.932 -0.887664 4.70805 0
M  V30 7589 H 771.296 -0.566648 2.48317 0
M  V30 7590 H 772.079 0.881383 3.31793 0
M  V30 7591 N 774.524 -1.57472 -0.0634922 0
M  V30 7592 C 775.935 -1.76303 -0.614337 0
M  V30 7593 C 776.286 -0.836578 -1.77471 0
M  V30 7594 O 775.411 -0.0227184 -2.16388 0
M  V30 7595 C 776.006 -3.19709 -1.12122 0
M  V30 7596 C 774.565 -3.39856 -1.61786 0
M  V30 7597 C 773.712 -2.71975 -0.540845 0
M  V30 7598 H 776.663 -1.57864 0.162702 0
M  V30 7599 H 776.684 -3.24326 -1.98979 0
M  V30 7600 H 776.196 -3.87114 -0.276472 0
M  V30 7601 H 774.297 -2.77578 -2.48558 0
M  V30 7602 H 774.41 -4.48338 -1.68908 0
M  V30 7603 H 772.774 -2.34763 -0.987854 0
M  V30 7604 H 773.557 -3.4204 0.293856 0
M  V30 7605 N 776.003 0.335068 -1.53997 0
M  V30 7606 C 776.966 1.39481 -1.81872 0
M  V30 7607 C 777.966 1.4524 -0.690078 0
M  V30 7608 O 779.156 1.45467 -0.958377 0
M  V30 7609 C 776.288 2.78329 -1.9684 0
M  V30 7610 H 777.481 1.16024 -2.76547 0
M  V30 7611 H 775.034 0.569926 -1.45539 0
M  V30 7612 H 775.769 3.07058 -1.04337 0
M  V30 7613 H 775.554 2.75544 -2.78958 0
M  V30 7614 H 777.044 3.55016 -2.19894 0
M  V30 7615 N 777.481 1.45874 0.596531 0
M  V30 7616 C 778.709 1.54013 1.38158 0
M  V30 7617 C 779.124 0.17648 1.87973 0
M  V30 7618 O 778.481 -0.823895 1.62844 0
M  V30 7619 C 778.532 2.53363 2.57855 0
M  V30 7620 O 778.253 3.8443 2.10108 0
M  V30 7621 C 779.754 2.71308 3.50581 0
M  V30 7622 H 776.974 0.521251 0.422538 0
M  V30 7623 H 779.518 1.9116 0.726493 0
M  V30 7624 H 777.673 2.19257 3.19382 0
M  V30 7625 H 778.087 4.38384 2.87958 0
M  V30 7626 H 779.561 3.44776 4.31084 0
M  V30 7627 H 780.038 1.77728 4.01633 0
M  V30 7628 H 780.644 3.06455 2.94899 0
M  V30 7629 N 778.959 -0.83999 1.33349 0
M  V30 7630 C 779.889 -1.965 1.26135 0
M  V30 7631 C 780.87 -1.69505 0.142152 0
M  V30 7632 O 782.055 -1.91346 0.331743 0
M  V30 7633 C 779.185 -3.32632 0.99866 0
M  V30 7634 C 778.139 -3.74021 2.08068 0
M  V30 7635 C 777.465 -5.07947 1.67014 0
M  V30 7636 C 778.765 -3.87925 3.49731 0
M  V30 7637 H 780.459 -2.02793 2.20262 0
M  V30 7638 H 778.005 -0.974297 1.06035 0
M  V30 7639 H 779.958 -4.10903 0.934696 0
M  V30 7640 H 778.682 -3.26593 0.0217759 0
M  V30 7641 H 777.341 -2.98012 2.13505 0
M  V30 7642 H 776.989 -4.98378 0.680316 0
M  V30 7643 H 776.689 -5.36611 2.39422 0
M  V30 7644 H 778.213 -5.88695 1.62082 0
M  V30 7645 H 779.627 -4.5651 3.46802 0
M  V30 7646 H 778.024 -4.28023 4.20614 0
M  V30 7647 H 779.094 -2.90407 3.88319 0
M  V30 7648 N 780.437 -1.16799 -1.0581 0
M  V30 7649 C 781.665 -0.97687 -1.82387 0
M  V30 7650 C 782.08 0.474917 -1.82729 0
M  V30 7651 O 781.437 1.3297 -1.25001 0
M  V30 7652 C 781.488 -1.50279 -3.28783 0
M  V30 7653 O 781.209 -2.89772 -3.28578 0
M  V30 7654 C 782.71 -1.35538 -4.22071 0
M  V30 7655 H 779.93 -0.345977 -0.574927 0
M  V30 7656 H 782.474 -1.54942 -1.33466 0
M  V30 7657 H 780.629 -0.972414 -3.74997 0
M  V30 7658 H 781.043 -3.13954 -4.20159 0
M  V30 7659 H 782.517 -1.7716 -5.22799 0
M  V30 7660 H 782.994 -0.301598 -4.38163 0
M  V30 7661 H 783.6 -1.87562 -3.81708 0
M  V30 7662 N 781.915 1.24427 -0.967243 0
M  V30 7663 C 782.845 2.2773 -0.515899 0
M  V30 7664 C 783.826 1.64197 0.444227 0
M  V30 7665 O 785.011 1.91193 0.340451 0
M  V30 7666 C 782.141 3.46751 0.195149 0
M  V30 7667 C 781.095 4.22548 -0.680953 0
M  V30 7668 C 780.421 5.34456 0.161561 0
M  V30 7669 C 781.721 4.83914 -1.96532 0
M  V30 7670 H 783.415 2.65735 -1.37933 0
M  V30 7671 H 780.961 1.27742 -0.664681 0
M  V30 7672 H 782.914 4.18153 0.522117 0
M  V30 7673 H 781.638 3.07771 1.09292 0
M  V30 7674 H 780.297 3.52946 -0.991186 0
M  V30 7675 H 779.945 4.91716 1.05947 0
M  V30 7676 H 779.645 5.86087 -0.421418 0
M  V30 7677 H 781.169 6.08685 0.483211 0
M  V30 7678 H 782.583 5.47392 -1.70396 0
M  V30 7679 H 780.98 5.45775 -2.49499 0
M  V30 7680 H 782.05 4.05393 -2.66053 0
M  V30 7681 N 783.393 0.737304 1.3929 0
M  V30 7682 C 784.341 0.0879867 2.32434 0
M  V30 7683 C 785.335 -0.723324 1.53181 0
M  V30 7684 O 786.541 -0.624251 1.68829 0
M  V30 7685 H 782.916 0.00965277 0.751938 0
M  V30 7686 H 784.887 0.889915 2.84821 0
M  V30 7687 C 783.636 -0.803384 3.38291 0
M  V30 7688 H 782.959 -0.18849 3.99355 0
M  V30 7689 H 784.399 -1.22528 4.0591 0
M  V30 7690 C 782.858 -1.93872 2.75527 0
M  V30 7691 O 783.388 -3.03154 2.63553 0
M  V30 7692 N 781.594 -1.72883 2.3358 0
M  V30 7693 H 781.141 -0.840005 2.43519 0
M  V30 7694 H 781.099 -2.49021 1.91927 0
M  V30 7695 N 784.871 -1.49948 0.485112 0
M  V30 7696 C 785.803 -2.26691 -0.338222 0
M  V30 7697 C 786.816 -1.32584 -0.944742 0
M  V30 7698 O 788.005 -1.57989 -0.830772 0
M  V30 7699 C 785.105 -3.04405 -1.48966 0
M  V30 7700 C 784.278 -4.25971 -0.993371 0
M  V30 7701 C 783.337 -4.85861 -2.02052 0
M  V30 7702 O 782.363 -5.46382 -1.59547 0
M  V30 7703 N 783.565 -4.74101 -3.34975 0
M  V30 7704 H 786.33 -2.97989 0.319748 0
M  V30 7705 H 783.891 -1.58772 0.316714 0
M  V30 7706 H 785.883 -3.41348 -2.17403 0
M  V30 7707 H 784.453 -2.35815 -2.05207 0
M  V30 7708 H 783.673 -3.93971 -0.134424 0
M  V30 7709 H 784.961 -5.0476 -0.639934 0
M  V30 7710 H 784.359 -4.26002 -3.72208 0
M  V30 7711 H 782.916 -5.15274 -3.9917 0
M  V30 7712 N 786.349 -0.21828 -1.56081 0
M  V30 7713 C 787.279 0.687922 -2.23136 0
M  V30 7714 C 788.26 1.20357 -1.202 0
M  V30 7715 O 789.445 1.24817 -1.48776 0
M  V30 7716 C 786.575 1.89762 -2.90874 0
M  V30 7717 C 785.529 1.51595 -4.00254 0
M  V30 7718 C 784.855 2.80415 -4.55271 0
M  V30 7719 C 786.155 0.708404 -5.17474 0
M  V30 7720 H 787.849 0.128854 -2.99123 0
M  V30 7721 H 785.395 0.0605354 -1.43873 0
M  V30 7722 H 787.348 2.53699 -3.36474 0
M  V30 7723 H 786.072 2.4816 -2.1233 0
M  V30 7724 H 784.731 0.900058 -3.55379 0
M  V30 7725 H 784.379 3.36951 -3.73461 0
M  V30 7726 H 784.079 2.55613 -5.2909 0
M  V30 7727 H 785.603 3.453 -5.03587 0
M  V30 7728 H 787.017 1.2514 -5.59476 0
M  V30 7729 H 785.414 0.557593 -5.97504 0
M  V30 7730 H 786.484 -0.285679 -4.84058 0
M  V30 7731 N 787.827 1.57504 0.0551401 0
M  V30 7732 C 789.243 1.54236 0.410292 0
M  V30 7733 C 789.443 0.940839 1.78187 0
M  V30 7734 O 788.499 0.550541 2.46425 0
M  V30 7735 C 789.812 2.98816 0.336064 0
M  V30 7736 C 791.36 3.10236 0.415047 0
M  V30 7737 C 791.835 4.56499 0.37055 0
M  V30 7738 N 793.326 4.61199 0.43013 0
M  V30 7739 C 794.061 5.71873 0.418179 0
M  V30 7740 N 793.557 6.91864 0.360056 0
M  V30 7741 N 795.35 5.60165 0.465977 0
M  V30 7742 H 787.501 1.94965 -0.842759 0
M  V30 7743 H 789.764 0.893096 -0.317937 0
M  V30 7744 H 789.47 3.4645 -0.605429 0
M  V30 7745 H 789.344 3.59564 1.13988 0
M  V30 7746 H 791.731 2.62566 1.34697 0
M  V30 7747 H 791.812 2.52367 -0.417648 0
M  V30 7748 H 791.456 5.0483 -0.557592 0
M  V30 7749 H 791.386 5.12249 1.221 0
M  V30 7750 H 793.877 3.74857 0.478623 0
M  V30 7751 H 794.19 7.71983 0.35532 0
M  V30 7752 H 792.535 6.94233 0.326492 0
M  V30 7753 H 795.726 4.65322 0.509194 0
M  V30 7754 H 795.899 6.46413 0.453194 0
M  V30 7755 N 789.305 -0.326896 1.54172 0
M  V30 7756 C 790.235 -1.40741 1.86317 0
M  V30 7757 C 791.216 -1.54125 0.719684 0
M  V30 7758 O 792.401 -1.6806 0.973117 0
M  V30 7759 C 789.531 -2.77557 2.08757 0
M  V30 7760 C 788.485 -2.78965 3.24596 0
M  V30 7761 C 787.811 -4.18824 3.32401 0
M  V30 7762 C 789.111 -2.4301 4.62324 0
M  V30 7763 H 790.805 -1.14088 2.76811 0
M  V30 7764 H 788.351 -0.547389 1.3319 0
M  V30 7765 H 790.304 -3.53209 2.29829 0
M  V30 7766 H 789.028 -3.0568 1.15009 0
M  V30 7767 H 787.687 -2.05767 3.03406 0
M  V30 7768 H 787.335 -4.44083 2.36218 0
M  V30 7769 H 787.035 -4.20673 4.10253 0
M  V30 7770 H 788.559 -4.96294 3.55703 0
M  V30 7771 H 789.973 -3.08375 4.83299 0
M  V30 7772 H 788.37 -2.56116 5.42701 0
M  V30 7773 H 789.44 -1.38165 4.64799 0
M  V30 7774 N 790.784 -1.46188 -0.588786 0
M  V30 7775 C 792.009 -1.5498 -1.37826 0
M  V30 7776 C 792.434 -0.189498 -1.87143 0
M  V30 7777 O 791.792 0.829293 -1.61222 0
M  V30 7778 C 791.84 -2.55369 -2.54596 0
M  V30 7779 O 790.944 -2.08452 -3.55839 0
M  V30 7780 H 790.285 -0.521741 -0.41071 0
M  V30 7781 H 792.815 -1.91708 -0.714779 0
M  V30 7782 H 792.825 -2.74782 -3.01594 0
M  V30 7783 H 791.5 -3.54155 -2.18052 0
M  V30 7784 H 790.077 -1.98999 -3.15363 0
M  V30 7785 N 792.262 0.832906 -1.33792 0
M  V30 7786 C 793.673 1.40489 -1.22963 0
M  V30 7787 C 794.024 1.95633 0.149026 0
M  V30 7788 O 793.149 1.8928 1.04891 0
M  V30 7789 C 793.744 2.55387 -2.22627 0
M  V30 7790 C 792.303 3.08522 -2.15618 0
M  V30 7791 C 791.45 1.81347 -2.09782 0
M  V30 7792 H 794.401 0.638156 -1.45304 0
M  V30 7793 H 794.422 3.33193 -1.83746 0
M  V30 7794 H 793.934 2.15222 -3.22957 0
M  V30 7795 H 792.035 3.53217 -1.18611 0
M  V30 7796 H 792.148 3.6829 -3.0643 0
M  V30 7797 H 790.512 2.01839 -1.55349 0
M  V30 7798 H 791.295 1.43369 -3.1193 0
M  V30 7799 N 793.74 1.17359 1.05189 0
M  V30 7800 C 794.986 0.963413 1.78455 0
M  V30 7801 C 795.319 -0.506703 1.87473 0
M  V30 7802 O 794.594 -1.37611 1.37453 0
M  V30 7803 C 794.877 1.60519 3.22344 0
M  V30 7804 C 794.73 3.14741 3.21338 0
M  V30 7805 C 796.049 1.3091 4.20179 0
M  V30 7806 H 793.168 0.351412 0.647826 0
M  V30 7807 H 795.81 1.44858 1.22948 0
M  V30 7808 H 793.96 1.19265 3.69741 0
M  V30 7809 H 795.632 3.65053 2.82017 0
M  V30 7810 H 793.875 3.4749 2.59679 0
M  V30 7811 H 794.546 3.54775 4.22894 0
M  V30 7812 H 797.022 1.66635 3.81277 0
M  V30 7813 H 795.898 1.784 5.191 0
M  V30 7814 H 796.159 0.229908 4.41502 0
M  V30 7815 N 795.218 -1.23913 0.973828 0
M  V30 7816 C 796.629 -1.73992 0.677021 0
M  V30 7817 C 796.98 -1.78833 -0.807036 0
M  V30 7818 O 796.105 -1.42183 -1.63135 0
M  V30 7819 C 796.7 -3.15985 1.22226 0
M  V30 7820 C 795.259 -3.63547 0.975228 0
M  V30 7821 C 794.406 -2.42001 1.35392 0
M  V30 7822 H 797.357 -1.09529 1.14844 0
M  V30 7823 H 797.378 -3.75875 0.591489 0
M  V30 7824 H 796.89 -3.12429 2.30238 0
M  V30 7825 H 794.991 -3.72493 -0.0891047 0
M  V30 7826 H 795.104 -4.50693 1.62518 0
M  V30 7827 H 793.468 -2.42708 0.772334 0
M  V30 7828 H 794.251 -2.41122 2.44367 0
M  V30 7829 N 796.696 -0.74468 -1.38897 0
M  V30 7830 C 798.107 -0.36568 -1.83084 0
M  V30 7831 C 798.458 1.10436 -1.62168 0
M  V30 7832 O 797.583 1.85281 -1.11804 0
M  V30 7833 C 798.178 -0.656946 -3.3237 0
M  V30 7834 C 796.737 -0.331329 -3.74939 0
M  V30 7835 C 795.884 -0.914661 -2.61781 0
M  V30 7836 H 798.835 -0.941551 -1.27752 0
M  V30 7837 H 798.856 0.0679546 -3.80439 0
M  V30 7838 H 798.368 -1.72693 -3.47561 0
M  V30 7839 H 796.469 0.732426 -3.6533 0
M  V30 7840 H 796.582 -0.820655 -4.72019 0
M  V30 7841 H 794.946 -0.34063 -2.52412 0
M  V30 7842 H 795.729 -1.98949 -2.79775 0
M  V30 7843 N 798.174 1.49689 -0.493057 0
M  V30 7844 C 799.42 2.02727 0.0543518 0
M  V30 7845 C 799.753 1.37264 1.37376 0
M  V30 7846 O 799.028 0.505644 1.87812 0
M  V30 7847 C 799.311 3.59456 0.215226 0
M  V30 7848 C 799.164 4.35459 -1.12675 0
M  V30 7849 C 800.483 4.29511 0.959586 0
M  V30 7850 H 797.602 0.736773 0.0182786 0
M  V30 7851 H 800.244 1.78792 -0.642924 0
M  V30 7852 H 798.394 3.79981 0.809122 0
M  V30 7853 H 800.066 4.2645 -1.75891 0
M  V30 7854 H 798.309 3.9833 -1.71801 0
M  V30 7855 H 798.98 5.43454 -0.967578 0
M  V30 7856 H 801.456 4.13594 0.455977 0
M  V30 7857 H 800.332 5.38939 1.04098 0
M  V30 7858 H 800.593 3.94202 2.00144 0
M  V30 7859 N 799.652 0.226554 1.55963 0
M  V30 7860 C 801.063 -0.280381 1.84583 0
M  V30 7861 C 801.414 -1.59105 1.14804 0
M  V30 7862 O 800.539 -2.12297 0.419414 0
M  V30 7863 C 801.134 -0.515499 3.34855 0
M  V30 7864 C 799.693 -0.966733 3.63774 0
M  V30 7865 C 798.84 -0.0325753 2.77281 0
M  V30 7866 H 801.791 0.449626 1.52197 0
M  V30 7867 H 801.812 -1.36085 3.55332 0
M  V30 7868 H 801.324 0.438594 3.85614 0
M  V30 7869 H 799.425 -1.93401 3.18476 0
M  V30 7870 H 799.538 -0.837679 4.7172 0
M  V30 7871 H 797.902 -0.540279 2.48904 0
M  V30 7872 H 798.685 0.916524 3.30839 0
M  V30 7873 N 801.13 -1.57531 -0.0467866 0
M  V30 7874 C 802.378 -1.88078 -0.739656 0
M  V30 7875 C 802.699 -0.821936 -1.76831 0
M  V30 7876 O 801.969 0.146582 -1.95351 0
M  V30 7877 H 800.549 -0.694075 -0.276169 0
M  V30 7878 H 803.211 -1.94893 -0.0169391 0
M  V30 7879 H 802.307 -2.86396 -1.24031 0
M  V30 7880 N 802.608 0.318715 -1.54344 0
M  V30 7881 C 803.571 1.37545 -1.83342 0
M  V30 7882 C 804.571 1.445 -0.705444 0
M  V30 7883 O 805.761 1.44443 -0.973752 0
M  V30 7884 C 802.893 2.76225 -1.99781 0
M  V30 7885 H 804.086 1.13084 -2.77762 0
M  V30 7886 H 801.639 0.554457 -1.46135 0
M  V30 7887 H 802.374 3.05934 -1.07588 0
M  V30 7888 H 802.159 2.7257 -2.81865 0
M  V30 7889 H 803.649 3.52664 -2.23647 0
M  V30 7890 N 804.086 1.46499 0.581025 0
M  V30 7891 C 805.497 1.4604 1.16315 0
M  V30 7892 C 805.848 0.202154 1.95156 0
M  V30 7893 O 804.973 -0.694638 2.04948 0
M  V30 7894 C 805.568 2.64593 2.11604 0
M  V30 7895 C 804.127 2.6717 2.65136 0
M  V30 7896 C 803.274 2.38753 1.4104 0
M  V30 7897 H 806.225 1.54354 0.368871 0
M  V30 7898 H 806.246 2.40207 2.95095 0
M  V30 7899 H 805.758 3.56154 1.54194 0
M  V30 7900 H 803.859 1.79685 3.26411 0
M  V30 7901 H 803.972 3.67182 3.07757 0
M  V30 7902 H 802.336 1.88845 1.70908 0
M  V30 7903 H 803.119 3.32493 0.854588 0
M  V30 7904 N 805.565 -0.825799 1.34232 0
M  V30 7905 C 806.976 -1.39835 1.23706 0
M  V30 7906 C 807.327 -1.95709 -0.138649 0
M  V30 7907 O 806.452 -1.89833 -1.03886 0
M  V30 7908 C 807.047 -2.54203 2.23978 0
M  V30 7909 C 805.606 -3.07374 2.17251 0
M  V30 7910 C 804.753 -1.80232 2.10741 0
M  V30 7911 H 807.704 -0.630442 1.4564 0
M  V30 7912 H 807.725 -3.32214 1.8551 0
M  V30 7913 H 807.237 -2.13506 3.24094 0
M  V30 7914 H 805.338 -3.52583 1.20483 0
M  V30 7915 H 805.451 -3.6666 3.08379 0
M  V30 7916 H 803.815 -2.01012 1.56417 0
M  V30 7917 H 804.598 -1.41713 3.12686 0
M  V30 7918 N 807.043 -1.17915 -1.04565 0
M  V30 7919 C 808.271 -0.99616 -1.8134 0
M  V30 7920 C 808.686 0.455509 -1.83223 0
M  V30 7921 O 808.043 1.31636 -1.26405 0
M  V30 7922 C 808.094 -1.53758 -3.27171 0
M  V30 7923 O 807.815 -2.93241 -3.25486 0
M  V30 7924 C 809.316 -1.40007 -4.2061 0
M  V30 7925 H 806.536 -0.352055 -0.571225 0
M  V30 7926 H 809.08 -1.56349 -1.31815 0
M  V30 7927 H 807.235 -1.01213 -3.73945 0
M  V30 7928 H 807.649 -3.18392 -4.16805 0
M  V30 7929 H 809.123 -1.82695 -5.2089 0
M  V30 7930 H 809.6 -0.348054 -4.37819 0
M  V30 7931 H 810.206 -1.916 -3.79697 0
M  V30 7932 N 808.521 1.23394 -0.980386 0
M  V30 7933 C 809.751 1.9556 -0.666319 0
M  V30 7934 C 810.159 1.72786 0.770815 0
M  V30 7935 O 809.502 1.0162 1.53033 0
M  V30 7936 C 809.564 3.48643 -0.876825 0
M  V30 7937 C 809.228 3.95135 -2.29602 0
M  V30 7938 C 810.225 4.03806 -3.2747 0
M  V30 7939 C 807.91 4.28122 -2.62711 0
M  V30 7940 C 809.904 4.44818 -4.56526 0
M  V30 7941 C 807.591 4.68814 -3.9199 0
M  V30 7942 C 808.589 4.77129 -4.88709 0
M  V30 7943 O 808.277 5.16908 -6.15679 0
M  V30 7944 H 808.009 0.629422 -0.246585 0
M  V30 7945 H 810.563 1.57839 -1.31438 0
M  V30 7946 H 808.793 3.86319 -0.171587 0
M  V30 7947 H 810.482 4.0202 -0.55992 0
M  V30 7948 H 811.248 3.78526 -3.03222 0
M  V30 7949 H 807.127 4.20861 -1.8814 0
M  V30 7950 H 810.671 4.51223 -5.32018 0
M  V30 7951 H 806.568 4.93545 -4.16033 0
M  V30 7952 H 807.336 5.3502 -6.19432 0
M  V30 7953 N 809.999 0.752036 1.385 0
M  V30 7954 C 811.248 0.304294 1.99391 0
M  V30 7955 C 811.561 -1.11982 1.60373 0
M  V30 7956 O 812.767 -1.66795 2.14223 0
M  V30 7957 C 811.223 0.493101 3.56506 0
M  V30 7958 C 810.831 1.9262 4.04477 0
M  V30 7959 C 812.575 0.107994 4.24363 0
M  V30 7960 C 810.482 2.06365 5.54227 0
M  V30 7961 H 809.412 0.110024 0.745929 0
M  V30 7962 H 812.063 0.928355 1.58284 0
M  V30 7963 H 810.445 -0.20012 3.95494 0
M  V30 7964 H 811.619 2.65276 3.76783 0
M  V30 7965 H 809.934 2.26608 3.49339 0
M  V30 7966 H 812.531 0.189474 5.34364 0
M  V30 7967 H 812.874 -0.939165 4.05568 0
M  V30 7968 H 813.407 0.753011 3.90608 0
M  V30 7969 H 810.146 3.0933 5.77923 0
M  V30 7970 H 809.666 1.38167 5.83669 0
M  V30 7971 H 811.345 1.85286 6.19902 0
M  V30 7972 N 811.477 -1.49425 0.500989 0
M  V30 7973 C 812.702 -2.07356 -0.0425154 0
M  V30 7974 C 813.127 -1.35887 -1.30063 0
M  V30 7975 O 812.485 -0.41561 -1.76472 0
M  V30 7976 C 812.533 -3.59518 -0.279188 0
M  V30 7977 O 811.637 -3.89542 -1.3539 0
M  V30 7978 H 810.978 -0.663482 0.0262207 0
M  V30 7979 H 813.508 -1.92231 0.700607 0
M  V30 7980 H 813.518 -4.04791 -0.5107 0
M  V30 7981 H 812.193 -4.10946 0.640009 0
M  V30 7982 H 810.77 -3.56079 -1.10734 0
M  V30 7983 N 812.955 -0.234822 -1.55841 0
M  V30 7984 C 814.366 0.270588 -1.84729 0
M  V30 7985 C 814.717 1.58494 -1.15646 0
M  V30 7986 O 813.842 2.12071 -0.430667 0
M  V30 7987 C 814.437 0.497733 -3.35124 0
M  V30 7988 C 812.996 0.947428 -3.64281 0
M  V30 7989 C 812.143 0.01787 -2.77294 0
M  V30 7990 H 815.094 -0.457691 -1.51957 0
M  V30 7991 H 815.115 1.34199 -3.56049 0
M  V30 7992 H 814.627 -0.459037 -3.85376 0
M  V30 7993 H 812.728 1.91709 -3.19497 0
M  V30 7994 H 812.841 0.812651 -4.72158 0
M  V30 7995 H 811.205 0.527071 -2.49187 0
M  V30 7996 H 811.988 -0.934056 -3.30349 0
M  V30 7997 N 814.433 1.57553 0.0384317 0
M  V30 7998 C 815.363 2.0898 1.04161 0
M  V30 7999 C 816.344 0.99029 1.38301 0
M  V30 8000 O 817.529 1.26499 1.47349 0
M  V30 8001 C 814.659 2.56145 2.34536 0
M  V30 8002 C 813.613 3.70275 2.14663 0
M  V30 8003 C 812.939 4.03612 3.50715 0
M  V30 8004 C 814.239 4.99067 1.54045 0
M  V30 8005 H 815.933 2.93046 0.613548 0
M  V30 8006 H 813.479 1.40973 0.293684 0
M  V30 8007 H 815.432 2.90741 3.05037 0
M  V30 8008 H 814.156 1.6915 2.79385 0
M  V30 8009 H 812.815 3.36013 1.46597 0
M  V30 8010 H 812.463 3.13698 3.93195 0
M  V30 8011 H 812.163 4.80482 3.38247 0
M  V30 8012 H 813.687 4.40735 4.22593 0
M  V30 8013 H 815.101 5.3168 2.14451 0
M  V30 8014 H 813.498 5.80484 1.52178 0
M  V30 8015 H 814.568 4.8226 0.505259 0
M  V30 8016 N 815.911 -0.310526 1.54511 0
M  V30 8017 C 817.159 -1.04484 1.72996 0
M  V30 8018 C 817.48 -1.88118 0.513479 0
M  V30 8019 O 816.75 -1.90119 -0.472384 0
M  V30 8020 H 815.33 -0.388747 0.637875 0
M  V30 8021 H 817.992 -0.343811 1.91844 0
M  V30 8022 H 817.088 -1.70341 2.61515 0
M  V30 8023 N 817.389 -1.46805 -0.573248 0
M  V30 8024 C 818.637 -1.52302 -1.32847 0
M  V30 8025 C 818.958 -0.180159 -1.94166 0
M  V30 8026 O 818.228 0.794291 -1.79075 0
M  V30 8027 H 816.808 -0.56097 -0.493276 0
M  V30 8028 H 819.47 -1.82998 -0.670642 0
M  V30 8029 H 818.566 -2.28089 -2.13031 0
M  V30 8030 N 818.867 0.818669 -1.34668 0
M  V30 8031 C 820.115 1.57201 -1.27013 0
M  V30 8032 C 820.436 1.94354 0.158599 0
M  V30 8033 O 819.706 1.62626 1.09223 0
M  V30 8034 H 818.286 0.582919 -0.467135 0
M  V30 8035 H 820.948 0.977234 -1.6863 0
M  V30 8036 H 820.044 2.49291 -1.87778 0
M  V30 8037 N 820.346 1.18468 1.03938 0
M  V30 8038 C 821.757 0.984808 1.58614 0
M  V30 8039 C 822.108 -0.465165 1.90606 0
M  V30 8040 O 821.233 -1.34274 1.69704 0
M  V30 8041 C 821.828 1.78135 2.8819 0
M  V30 8042 C 820.387 1.62579 3.39478 0
M  V30 8043 C 819.534 1.77501 2.13046 0
M  V30 8044 H 822.485 1.32993 0.865944 0
M  V30 8045 H 822.506 1.27119 3.58638 0
M  V30 8046 H 822.018 2.83661 2.64874 0
M  V30 8047 H 820.119 0.59595 3.67803 0
M  V30 8048 H 820.232 2.42463 4.13217 0
M  V30 8049 H 818.596 1.2046 2.24414 0
M  V30 8050 H 819.379 2.84464 1.92185 0
M  V30 8051 N 821.824 -1.22873 0.986916 0
M  V30 8052 C 823.072 -1.91084 0.658121 0
M  V30 8053 C 823.393 -1.77304 -0.811675 0
M  V30 8054 O 822.663 -1.15649 -1.58121 0
M  V30 8055 H 821.243 -0.707251 0.240427 0
M  V30 8056 H 823.905 -1.49357 1.25213 0
M  V30 8057 H 823.001 -2.98373 0.915428 0
M  V30 8058 N 823.302 -0.75937 -1.38099 0
M  V30 8059 C 824.232 -0.151077 -2.33011 0
M  V30 8060 C 825.213 0.697099 -1.5516 0
M  V30 8061 O 826.398 0.637101 -1.83452 0
M  V30 8062 C 823.528 0.738423 -3.39359 0
M  V30 8063 C 822.482 -0.0074741 -4.27999 0
M  V30 8064 C 821.808 1.00066 -5.25253 0
M  V30 8065 C 823.108 -1.17926 -5.08813 0
M  V30 8066 H 824.802 -0.943933 -2.84131 0
M  V30 8067 H 822.348 -0.455362 -1.36611 0
M  V30 8068 H 824.301 1.17369 -4.04725 0
M  V30 8069 H 823.025 1.56366 -2.86735 0
M  V30 8070 H 821.684 -0.423379 -3.64147 0
M  V30 8071 H 821.332 1.82012 -4.68914 0
M  V30 8072 H 821.032 0.506199 -5.85416 0
M  V30 8073 H 822.556 1.43512 -5.93495 0
M  V30 8074 H 823.97 -0.821262 -5.67387 0
M  V30 8075 H 822.367 -1.60497 -5.78239 0
M  V30 8076 H 823.437 -1.98938 -4.42212 0
M  V30 8077 N 824.78 1.49157 -0.508906 0
M  V30 8078 C 826.191 1.86593 -0.0630975 0
M  V30 8079 C 826.542 1.42051 1.35337 0
M  V30 8080 O 825.667 0.801866 2.00995 0
M  V30 8081 C 826.262 3.38629 -0.107729 0
M  V30 8082 C 824.821 3.75336 0.282776 0
M  V30 8083 C 823.968 2.7317 -0.4768 0
M  V30 8084 H 826.919 1.41362 -0.72128 0
M  V30 8085 H 826.94 3.74271 0.685689 0
M  V30 8086 H 826.452 3.71017 -1.13876 0
M  V30 8087 H 824.553 3.48558 1.31675 0
M  V30 8088 H 824.666 4.79081 -0.0421728 0
M  V30 8089 H 823.03 2.54591 0.0743552 0
M  V30 8090 H 823.813 3.08403 -1.50807 0
M  V30 8091 N 826.258 0.243083 1.55714 0
M  V30 8092 C 827.669 -0.260788 1.8487 0
M  V30 8093 C 828.02 -1.57879 1.16485 0
M  V30 8094 O 827.145 -2.1184 0.441908 0
M  V30 8095 C 827.74 -0.479954 3.35383 0
M  V30 8096 C 826.299 -0.928096 3.64778 0
M  V30 8097 C 825.446 -0.00316416 2.773 0
M  V30 8098 H 828.397 0.465743 1.51712 0
M  V30 8099 H 828.418 -1.32308 3.56756 0
M  V30 8100 H 827.93 0.479468 3.85127 0
M  V30 8101 H 826.031 -1.90012 3.20509 0
M  V30 8102 H 826.144 -0.7876 4.72582 0
M  V30 8103 H 824.508 -0.513849 2.49463 0
M  V30 8104 H 825.291 0.951562 3.29849 0
M  V30 8105 N 827.736 -1.57571 -0.0300757 0
M  V30 8106 C 828.669 -2.01874 -1.06406 0
M  V30 8107 C 829.647 -0.902901 -1.35227 0
M  V30 8108 O 830.831 -1.16865 -1.47901 0
M  V30 8109 C 827.958 -2.39093 -2.39901 0
M  V30 8110 C 827.004 -3.61108 -2.26943 0
M  V30 8111 S 827.837 -5.10287 -1.62382 0
M  V30 8112 C 828.993 -5.50747 -2.97369 0
M  V30 8113 H 829.226 -2.89261 -0.686703 0
M  V30 8114 H 826.759 -1.52523 -0.240017 0
M  V30 8115 H 828.717 -2.61207 -3.16672 0
M  V30 8116 H 827.378 -1.52159 -2.74784 0
M  V30 8117 H 826.571 -3.84803 -3.25489 0
M  V30 8118 H 826.173 -3.3884 -1.58314 0
M  V30 8119 H 828.465 -5.51369 -3.93698 0
M  V30 8120 H 829.408 -6.51071 -2.78409 0
M  V30 8121 H 829.816 -4.7825 -2.99895 0
M  V30 8122 N 829.214 0.302327 -1.54673 0
M  V30 8123 C 830.147 1.39738 -1.80412 0
M  V30 8124 C 831.125 1.48813 -0.655241 0
M  V30 8125 O 832.309 1.65895 -0.89505 0
M  V30 8126 C 829.436 2.7766 -1.93966 0
M  V30 8127 C 828.482 2.86014 -3.16383 0
M  V30 8128 S 829.315 2.48246 -4.74483 0
M  V30 8129 C 830.471 3.88198 -4.90971 0
M  V30 8130 H 830.704 1.17696 -2.73011 0
M  V30 8131 H 828.237 0.500364 -1.46068 0
M  V30 8132 H 830.195 3.571 -2.0246 0
M  V30 8133 H 828.856 2.96971 -1.02307 0
M  V30 8134 H 828.049 3.87174 -3.22664 0
M  V30 8135 H 827.651 2.14568 -3.06328 0
M  V30 8136 H 829.943 4.83181 -4.74913 0
M  V30 8137 H 830.886 3.86887 -5.93063 0
M  V30 8138 H 831.294 3.78139 -4.19131 0
M  V30 8139 N 830.692 1.47107 0.565454 0
M  V30 8140 C 832.103 1.47266 1.1476 0
M  V30 8141 C 832.454 0.222841 1.9493 0
M  V30 8142 O 831.579 -0.672862 2.05673 0
M  V30 8143 C 832.174 2.66822 2.08785 0
M  V30 8144 C 830.733 2.69967 2.62288 0
M  V30 8145 C 829.88 2.40236 1.38499 0
M  V30 8146 H 832.831 1.54736 0.352479 0
M  V30 8147 H 832.852 2.43323 2.92531 0
M  V30 8148 H 832.364 3.5777 1.50408 0
M  V30 8149 H 830.465 1.83137 3.24487 0
M  V30 8150 H 830.578 3.70426 3.03845 0
M  V30 8151 H 828.942 1.90648 1.68895 0
M  V30 8152 H 829.725 3.33381 0.819274 0
M  V30 8153 N 832.17 -0.811516 1.35101 0
M  V30 8154 C 833.581 -1.38515 1.25182 0
M  V30 8155 C 833.932 -1.95846 -0.117883 0
M  V30 8156 O 833.057 -1.90925 -1.01866 0
M  V30 8157 C 833.652 -2.51813 2.26662 0
M  V30 8158 C 832.211 -3.05052 2.20499 0
M  V30 8159 C 831.358 -1.77987 2.12641 0
M  V30 8160 H 834.309 -0.614959 1.46301 0
M  V30 8161 H 834.33 -3.30228 1.89023 0
M  V30 8162 H 833.842 -2.10057 3.2634 0
M  V30 8163 H 831.943 -3.51285 1.24215 0
M  V30 8164 H 832.056 -3.63368 3.1225 0
M  V30 8165 H 830.42 -1.99342 1.5854 0
M  V30 8166 H 831.203 -1.38389 3.14171 0
M  V30 8167 N 833.648 -1.19017 -1.03309 0
M  V30 8168 C 834.896 -0.988258 -1.76289 0
M  V30 8169 C 835.217 0.482557 -1.88935 0
M  V30 8170 O 834.487 1.34969 -1.41987 0
M  V30 8171 H 833.067 -0.36267 -0.653054 0
M  V30 8172 H 835.729 -1.49836 -1.2464 0
M  V30 8173 H 834.825 -1.43273 -2.77271 0
M  V30 8174 N 835.127 1.22348 -0.993418 0
M  V30 8175 C 836.538 1.72893 -0.704616 0
M  V30 8176 C 836.889 1.80095 0.778483 0
M  V30 8177 O 836.014 1.4476 1.60853 0
M  V30 8178 C 836.609 3.14 -1.27237 0
M  V30 8179 C 835.168 3.61949 -1.03294 0
M  V30 8180 C 834.315 2.39816 -1.39225 0
M  V30 8181 H 837.266 1.07688 -1.16572 0
M  V30 8182 H 837.287 3.74886 -0.651212 0
M  V30 8183 H 836.799 3.08727 -2.3518 0
M  V30 8184 H 834.9 3.72588 0.0298329 0
M  V30 8185 H 835.013 4.48051 -1.69668 0
M  V30 8186 H 833.377 2.41448 -0.810849 0
M  V30 8187 H 834.16 2.37203 -2.48172 0
M  V30 8188 N 836.605 0.766683 1.37694 0
M  V30 8189 C 838.016 0.394761 1.82479 0
M  V30 8190 C 838.367 -1.07842 1.63904 0
M  V30 8191 O 837.492 -1.83479 1.14737 0
M  V30 8192 C 838.087 0.70974 3.31283 0
M  V30 8193 C 836.646 0.390936 3.74364 0
M  V30 8194 C 835.793 0.956192 2.60293 0
M  V30 8195 H 838.744 0.961756 1.26238 0
M  V30 8196 H 838.765 -0.00742144 3.80499 0
M  V30 8197 H 838.277 1.782 3.4477 0
M  V30 8198 H 836.378 -0.674213 3.66449 0
M  V30 8199 H 836.491 0.895645 4.70654 0
M  V30 8200 H 834.855 0.380744 2.51838 0
M  V30 8201 H 835.638 2.03375 2.76575 0
M  V30 8202 N 838.083 -1.48885 0.516809 0
M  V30 8203 C 839.046 -2.27916 -0.242256 0
M  V30 8204 C 840.046 -1.34601 -0.879735 0
M  V30 8205 O 841.236 -1.57616 -0.74182 0
M  V30 8206 C 838.368 -3.13067 -1.34914 0
M  V30 8207 H 839.561 -2.96483 0.451444 0
M  V30 8208 H 837.114 -1.5391 0.272294 0
M  V30 8209 H 837.849 -2.49102 -2.07651 0
M  V30 8210 H 837.634 -3.81695 -0.897313 0
M  V30 8211 H 839.124 -3.72716 -1.88341 0
M  V30 8212 N 839.561 -0.251338 -1.55583 0
M  V30 8213 C 840.972 0.25098 -1.85005 0
M  V30 8214 C 841.323 1.57259 -1.17321 0
M  V30 8215 O 840.448 2.11603 -0.453136 0
M  V30 8216 C 841.043 0.462161 -3.35633 0
M  V30 8217 C 839.602 0.908737 -3.65266 0
M  V30 8218 C 838.749 -0.0115418 -2.77298 0
M  V30 8219 H 841.7 -0.473782 -1.51463 0
M  V30 8220 H 841.721 1.30415 -3.57452 0
M  V30 8221 H 841.233 -0.499886 -3.84867 0
M  V30 8222 H 839.334 1.8831 -3.21512 0
M  V30 8223 H 839.447 0.762526 -4.72993 0
M  V30 8224 H 837.811 0.500612 -2.49732 0
M  V30 8225 H 838.594 -0.969042 -3.29339 0
M  V30 8226 N 841.039 1.57585 0.0217189 0
M  V30 8227 C 841.987 2.08134 1.03842 0
M  V30 8228 C 842.981 0.996662 1.36978 0
M  V30 8229 O 844.187 1.18149 1.35797 0
M  V30 8230 H 840.562 0.664298 0.352438 0
M  V30 8231 H 842.533 2.92583 0.58634 0
M  V30 8232 C 841.282 2.58218 2.32849 0
M  V30 8233 H 840.605 3.41302 2.08214 0
M  V30 8234 H 842.045 2.97289 3.02316 0
M  V30 8235 C 840.504 1.48664 3.02325 0
M  V30 8236 O 841.034 0.857075 3.9245 0
M  V30 8237 N 839.24 1.21938 2.63779 0
M  V30 8238 H 838.787 1.73319 1.90574 0
M  V30 8239 H 838.745 0.488523 3.10581 0
M  V30 8240 N 842.517 -0.29412 1.54831 0
M  V30 8241 C 843.745 -1.04724 1.78439 0
M  V30 8242 C 844.16 -1.80695 0.547239 0
M  V30 8243 O 843.517 -1.75989 -0.483141 0
M  V30 8244 C 843.568 -2.02242 2.99634 0
M  V30 8245 O 843.289 -1.29352 4.18568 0
M  V30 8246 C 844.79 -2.89537 3.35683 0
M  V30 8247 H 842.01 -0.310285 0.594949 0
M  V30 8248 H 844.554 -0.331306 2.01798 0
M  V30 8249 H 842.709 -2.69328 2.78462 0
M  V30 8250 H 843.123 -1.94901 4.86943 0
M  V30 8251 H 844.597 -3.538 4.23709 0
M  V30 8252 H 845.074 -3.58201 2.54143 0
M  V30 8253 H 845.68 -2.27973 3.59038 0
M  V30 8254 N 843.995 -1.47404 -0.557645 0
M  V30 8255 C 844.943 -1.60265 -1.68576 0
M  V30 8256 C 845.937 -0.469982 -1.6275 0
M  V30 8257 O 847.143 -0.647764 -1.67941 0
M  V30 8258 H 843.518 -0.504353 -0.557792 0
M  V30 8259 H 845.489 -2.55066 -1.54867 0
M  V30 8260 C 844.238 -1.63369 -3.0693 0
M  V30 8261 H 843.561 -2.49874 -3.12095 0
M  V30 8262 H 845.001 -1.76417 -3.85556 0
M  V30 8263 C 843.46 -0.366921 -3.34896 0
M  V30 8264 O 843.99 0.53218 -3.98159 0
M  V30 8265 N 842.196 -0.247082 -2.89548 0
M  V30 8266 H 841.743 -0.979669 -2.38244 0
M  V30 8267 H 841.701 0.599552 -3.0863 0
M  V30 8268 N 845.473 0.80434 -1.35529 0
M  V30 8269 C 846.884 1.37849 -1.25915 0
M  V30 8270 C 847.235 1.95905 0.107495 0
M  V30 8271 O 846.36 1.91462 1.00852 0
M  V30 8272 C 846.955 2.50608 -2.27994 0
M  V30 8273 C 845.514 3.03879 -2.22114 0
M  V30 8274 C 844.661 1.76856 -2.13582 0
M  V30 8275 H 847.612 0.607192 -1.46625 0
M  V30 8276 H 847.633 3.29221 -1.90772 0
M  V30 8277 H 847.145 2.08323 -3.27449 0
M  V30 8278 H 845.246 3.50622 -1.26077 0
M  V30 8279 H 845.359 3.61707 -3.14173 0
M  V30 8280 H 843.723 1.98498 -1.59595 0
M  V30 8281 H 844.506 1.36721 -3.14901 0
M  V30 8282 N 846.951 1.19563 1.02676 0
M  V30 8283 C 848.198 0.999568 1.7611 0
M  V30 8284 C 848.526 -0.469432 1.8875 0
M  V30 8285 O 847.781 -1.36481 1.40255 0
M  V30 8286 C 848.08 1.61619 3.18769 0
M  V30 8287 C 847.746 3.11366 3.26132 0
M  V30 8288 C 846.408 3.52234 3.27848 0
M  V30 8289 C 848.76 4.07374 3.25109 0
M  V30 8290 C 846.088 4.87658 3.26201 0
M  V30 8291 C 848.44 5.42731 3.25002 0
M  V30 8292 C 847.104 5.83027 3.25017 0
M  V30 8293 H 846.374 0.365768 0.644434 0
M  V30 8294 H 849.021 1.48838 1.20497 0
M  V30 8295 H 847.326 1.04974 3.77476 0
M  V30 8296 H 849.023 1.43975 3.74262 0
M  V30 8297 H 845.613 2.78804 3.25525 0
M  V30 8298 H 849.797 3.76842 3.22961 0
M  V30 8299 H 845.053 5.18156 3.24537 0
M  V30 8300 H 849.227 6.16879 3.23161 0
M  V30 8301 H 846.854 6.87936 3.23494 0
M  V30 8302 N 848.429 -1.21819 0.999893 0
M  V30 8303 C 849.359 -2.26282 0.576096 0
M  V30 8304 C 850.34 -1.65317 -0.400537 0
M  V30 8305 O 851.525 -1.92028 -0.28964 0
M  V30 8306 C 848.655 -3.47147 -0.103145 0
M  V30 8307 C 847.609 -4.20594 0.792745 0
M  V30 8308 C 846.935 -5.34696 -0.0198026 0
M  V30 8309 C 848.235 -4.78533 2.09293 0
M  V30 8310 H 849.929 -2.61984 1.4493 0
M  V30 8311 H 847.475 -1.25935 0.698316 0
M  V30 8312 H 849.428 -4.1939 -0.411068 0
M  V30 8313 H 848.152 -3.1056 -1.01094 0
M  V30 8314 H 846.811 -3.50194 1.08442 0
M  V30 8315 H 846.459 -4.94352 -0.928729 0
M  V30 8316 H 846.159 -5.84764 0.576661 0
M  V30 8317 H 847.683 -6.09752 -0.321659 0
M  V30 8318 H 849.097 -5.42682 1.8485 0
M  V30 8319 H 847.494 -5.38968 2.63881 0
M  V30 8320 H 848.564 -3.98197 2.76708 0
M  V30 8321 N 849.908 -0.773975 -1.37286 0
M  V30 8322 C 850.838 -0.175782 -2.32837 0
M  V30 8323 C 851.819 0.680603 -1.5589 0
M  V30 8324 O 853.004 0.617607 -1.84117 0
M  V30 8325 C 850.134 0.702388 -3.40123 0
M  V30 8326 C 849.088 -0.0528687 -4.27967 0
M  V30 8327 C 848.414 0.944891 -5.26285 0
M  V30 8328 C 849.714 -1.23316 -5.07534 0
M  V30 8329 H 851.408 -0.974016 -2.83114 0
M  V30 8330 H 848.954 -0.469826 -1.3612 0
M  V30 8331 H 850.907 1.13069 -4.05947 0
M  V30 8332 H 849.631 1.53316 -2.88378 0
M  V30 8333 H 848.29 -0.461978 -3.63678 0
M  V30 8334 H 847.938 1.77028 -4.70819 0
M  V30 8335 H 847.638 0.444079 -5.8592 0
M  V30 8336 H 849.162 1.37209 -5.94984 0
M  V30 8337 H 850.576 -0.881395 -5.66484 0
M  V30 8338 H 848.973 -1.66621 -5.76504 0
M  V30 8339 H 850.043 -2.03617 -4.40077 0
M  V30 8340 O 851.425 1.47123 -0.666118 0
M  V30 8341 H 852.116 1.9271 -0.195592 0
M  V30 END ATOM
M  V30 BEGIN BOND
M  V30 END BOND
M  V30 END CTAB
M  END
$$$$
