drugbank_target|P05162 Galectin-2 (DB02379)
 OpenBabel12092120293D

  0  0  0     0  0            999 V3000
M  V30 BEGIN CTAB
M  V30 COUNTS 2026 2048 0 0 0
M  V30 BEGIN ATOM
M  V30 1 H -0.908 1.98254 -0.117106 0
M  V30 2 N 0 1.576 0 0
M  V30 3 C 0.933 2.03868 1.02534 0
M  V30 4 C 1.911 0.928543 1.3348 0
M  V30 5 O 3.095 1.19667 1.45644 0
M  V30 6 C 0.222 2.43627 2.35294 0
M  V30 7 C -0.732 3.65373 2.2001 0
M  V30 8 S 0.101 5.13292 1.52614 0
M  V30 9 C 1.257 5.56322 2.86805 0
M  V30 10 H 1.49 2.90518 0.631377 0
M  V30 11 H -0.977 1.52953 0.210867 0
M  V30 12 H 0.981 2.67203 3.11629 0
M  V30 13 H -0.358 1.57376 2.7183 0
M  V30 14 H -1.165 3.90944 3.18086 0
M  V30 15 H -1.563 3.418 1.51819 0
M  V30 16 H 0.729 5.58782 3.83104 0
M  V30 17 H 1.672 6.56266 2.65933 0
M  V30 18 H 2.08 4.83886 2.90714 0
M  V30 19 N 1.4781 -0.272755 1.55222 0
M  V30 20 C 2.7061 -1.02255 1.79865 0
M  V30 21 C 3.1211 -1.79924 0.572088 0
M  V30 22 O 2.4781 -1.76638 -0.458842 0
M  V30 23 C 2.5291 -1.98094 3.02392 0
M  V30 24 O 2.2501 -1.23572 4.20311 0
M  V30 25 C 3.7511 -2.84884 3.39641 0
M  V30 26 H 0.9711 -0.302057 0.599168 0
M  V30 27 H 3.5151 -0.303465 2.02236 0
M  V30 28 H 1.6701 -2.65465 2.82147 0
M  V30 29 H 2.0841 -1.88172 4.89583 0
M  V30 30 H 3.5581 -3.47927 4.28545 0
M  V30 31 H 4.0351 -3.54665 2.59055 0
M  V30 32 H 4.6411 -2.23003 3.62146 0
M  V30 33 N 2.9562 -1.48159 -0.537278 0
M  V30 34 C 4.2042 -1.55497 -1.29094 0
M  V30 35 C 4.5252 -0.227454 -1.93669 0
M  V30 36 O 3.7952 0.750386 -1.80959 0
M  V30 37 H 2.3752 -0.572832 -0.47945 0
M  V30 38 H 5.0372 -1.84579 -0.625818 0
M  V30 39 H 4.1332 -2.33216 -2.07405 0
M  V30 40 N 4.4343 0.785586 -1.36625 0
M  V30 41 C 5.3443 1.92964 -1.33425 0
M  V30 42 C 6.3603 1.72394 -0.235851 0
M  V30 43 O 7.5363 1.95866 -0.468878 0
M  V30 44 C 4.6013 3.27884 -1.12662 0
M  V30 45 C 3.6623 3.61204 -2.32013 0
M  V30 46 C 2.8953 4.89687 -2.12231 0
M  V30 47 O 3.1183 5.59704 -1.09945 0
M  V30 48 O 2.0523 5.21752 -3.00098 0
M  V30 49 H 5.8783 1.98613 -2.29753 0
M  V30 50 H 3.4633 0.926384 -1.17211 0
M  V30 51 H 5.3453 4.08614 -1.03016 0
M  V30 52 H 4.0203 3.23118 -0.193991 0
M  V30 53 H 2.9273 2.80765 -2.47228 0
M  V30 54 H 4.2603 3.70698 -3.23796 0
M  V30 55 N 5.9124 1.20967 1.01018 0
M  V30 56 C 6.8424 0.988272 2.11555 0
M  V30 57 C 7.8234 -0.0849778 1.69888 0
M  V30 58 O 9.0084 0.0738202 1.9406 0
M  V30 59 C 6.1384 0.546528 3.42973 0
M  V30 60 C 5.0924 1.56375 3.9841 0
M  V30 61 C 4.4184 0.97842 5.25672 0
M  V30 62 C 5.7184 2.94922 4.31066 0
M  V30 63 H 7.4124 1.91276 2.30334 0
M  V30 64 H 4.9584 0.921073 1.1069 0
M  V30 65 H 6.9114 0.378839 4.19694 0
M  V30 66 H 5.6354 -0.413598 3.23971 0
M  V30 67 H 4.2944 1.71891 3.23804 0
M  V30 68 H 3.9424 0.0101688 5.02999 0
M  V30 69 H 3.6424 1.65784 5.63728 0
M  V30 70 H 5.1664 0.821939 6.05043 0
M  V30 71 H 6.5804 2.8288 4.9865 0
M  V30 72 H 4.9774 3.5983 4.80253 0
M  V30 73 H 6.0474 3.4616 3.39561 0
M  V30 74 N 7.3905 -1.2043 1.01659 0
M  V30 75 C 8.3005 -2.2689 0.596484 0
M  V30 76 C 9.3165 -1.70107 -0.36599 0
M  V30 77 O 10.4925 -2.00117 -0.226942 0
M  V30 78 C 7.5575 -3.4665 -0.0586659 0
M  V30 79 C 6.6185 -4.18662 0.949751 0
M  V30 80 C 5.8515 -5.32705 0.32577 0
M  V30 81 O 6.0745 -5.63656 -0.874509 0
M  V30 82 O 5.0085 -5.92803 1.04249 0
M  V30 83 H 8.8345 -2.65041 1.4828 0
M  V30 84 H 6.4195 -1.27048 0.786082 0
M  V30 85 H 8.3015 -4.19256 -0.424564 0
M  V30 86 H 6.9765 -3.10375 -0.91918 0
M  V30 87 H 5.8835 -3.48229 1.36702 0
M  V30 88 H 7.2165 -4.58878 1.78023 0
M  V30 89 N 8.8686 -0.792821 -1.36206 0
M  V30 90 C 10.1146 -0.36733 -1.99446 0
M  V30 91 C 10.4476 1.05917 -1.62774 0
M  V30 92 O 9.7226 1.7324 -0.88421 0
M  V30 93 C 10.0056 -0.535044 -3.56103 0
M  V30 94 C 9.8586 -2.00548 -4.02617 0
M  V30 95 C 11.1776 0.0478191 -4.40074 0
M  V30 96 H 8.2966 -0.134941 -0.724541 0
M  V30 97 H 10.9386 -0.999794 -1.61568 0
M  V30 98 H 9.0886 0.00336329 -3.885 0
M  V30 99 H 10.7606 -2.60521 -3.80692 0
M  V30 100 H 9.0036 -2.50686 -3.54032 0
M  V30 101 H 9.6746 -2.07377 -5.11565 0
M  V30 102 H 12.1506 -0.411822 -4.14057 0
M  V30 103 H 11.0266 -0.0995336 -5.4881 0
M  V30 104 H 11.2876 1.14025 -4.27142 0
M  V30 105 N 10.3467 1.47872 -0.545128 0
M  V30 106 C 11.2937 2.29849 0.2093 0
M  V30 107 C 12.2637 1.38313 0.919707 0
M  V30 108 O 13.4487 1.67277 0.917772 0
M  V30 109 C 10.5887 3.22019 1.24088 0
M  V30 110 C 9.7017 4.2864 0.537778 0
M  V30 111 C 8.8367 5.07973 1.5536 0
M  V30 112 C 7.8757 6.06381 0.8348 0
M  V30 113 N 7.0127 6.78717 1.79688 0
M  V30 114 H 11.8527 2.93845 -0.49591 0
M  V30 115 H 9.3897 1.44848 -0.256389 0
M  V30 116 H 11.3477 3.73868 1.85144 0
M  V30 117 H 9.9777 2.59914 1.91428 0
M  V30 118 H 9.0297 3.7994 -0.187046 0
M  V30 119 H 10.3417 4.98793 -0.0258907 0
M  V30 120 H 9.4957 5.63912 2.23803 0
M  V30 121 H 8.2347 4.37693 2.15118 0
M  V30 122 H 7.2397 5.49631 0.136388 0
M  V30 123 H 8.4647 6.78665 0.24313 0
M  V30 124 H 6.4107 6.11177 2.38326 0
M  V30 125 H 6.3277 7.44998 1.28505 0
M  V30 126 H 7.5957 7.39237 2.47282 0
M  V30 127 N 11.8248 0.280983 1.55075 0
M  V30 128 C 12.7728 -0.619864 2.24188 0
M  V30 129 C 13.7668 -1.15315 1.24092 0
M  V30 130 O 14.9728 -1.1061 1.42005 0
M  V30 131 H 11.3478 -0.218459 0.719569 0
M  V30 132 H 13.3188 -0.0141831 2.98397 0
M  V30 133 C 12.0678 -1.7899 2.98091 0
M  V30 134 H 11.3908 -1.38874 3.74905 0
M  V30 135 H 12.8308 -2.39672 3.49762 0
M  V30 136 C 11.2898 -2.68192 2.03899 0
M  V30 137 O 11.8198 -3.6872 1.594 0
M  V30 138 N 10.0258 -2.35488 1.70275 0
M  V30 139 H 9.5728 -1.53787 2.06658 0
M  V30 140 H 9.5308 -2.95442 1.07524 0
M  V30 141 N 13.3029 -1.57598 0.00835791 0
M  V30 142 C 14.2359 -2.04409 -1.01451 0
M  V30 143 C 15.2139 -0.935609 -1.32985 0
M  V30 144 O 16.3979 -1.20437 -1.45007 0
M  V30 145 C 13.5249 -2.44872 -2.33999 0
M  V30 146 C 12.5709 -3.66535 -2.18069 0
M  V30 147 S 13.4039 -5.14095 -1.4989 0
M  V30 148 C 14.5599 -5.57835 -2.8385 0
M  V30 149 H 14.7929 -2.90849 -0.615961 0
M  V30 150 H 12.3259 -1.53063 -0.202752 0
M  V30 151 H 14.2839 -2.68852 -3.10208 0
M  V30 152 H 12.9449 -1.58815 -2.70992 0
M  V30 153 H 12.1379 -3.92626 -3.16008 0
M  V30 154 H 11.7399 -3.426 -1.50004 0
M  V30 155 H 14.0319 -5.60806 -3.80136 0
M  V30 156 H 14.9749 -6.57667 -2.62449 0
M  V30 157 H 15.3829 -4.85421 -2.88144 0
M  V30 158 N 14.781 0.264519 -1.55364 0
M  V30 159 C 16.058 1.01677 -1.67096 0
M  V30 160 C 16.438 2.03996 -0.543015 0
M  V30 161 O 15.786 2.23907 0.45585 0
M  V30 162 C 15.996 1.66596 -3.0667 0
M  V30 163 C 17.344 2.17442 -3.64697 0
M  V30 164 O 18.368 1.76568 -3.09358 0
M  V30 165 O 17.227 2.92439 -4.61673 0
M  V30 166 H 14.321 0.472161 -0.678965 0
M  V30 167 H 16.867 0.259703 -1.67701 0
M  V30 168 H 15.639 0.924962 -3.80211 0
M  V30 169 H 15.262 2.48968 -3.10001 0
M  V30 170 N 16.2591 1.48442 0.529413 0
M  V30 171 C 17.1921 1.57577 1.65059 0
M  V30 172 C 18.1701 0.426198 1.56915 0
M  V30 173 O 19.3541 0.637877 1.77379 0
M  V30 174 C 16.4811 1.5043 3.03461 0
M  V30 175 C 15.5271 2.70235 3.29962 0
M  V30 176 S 16.3601 4.32198 3.16172 0
M  V30 177 C 17.5161 4.2765 4.57019 0
M  V30 178 H 17.7491 2.52427 1.5706 0
M  V30 179 H 15.2821 1.36982 0.712417 0
M  V30 180 H 17.2401 1.46992 3.8328 0
M  V30 181 H 15.9011 0.569167 3.089 0
M  V30 182 H 15.0941 2.61374 4.30929 0
M  V30 183 H 14.6961 2.70938 2.57815 0
M  V30 184 H 16.9881 3.97618 5.48549 0
M  V30 185 H 17.9311 5.28797 4.70934 0
M  V30 186 H 18.3391 3.5811 4.36368 0
M  V30 187 N 17.7372 -0.778329 1.37039 0
M  V30 188 C 18.6842 -1.89139 1.32269 0
M  V30 189 C 19.6542 -1.65017 0.189387 0
M  V30 190 O 20.8392 -1.87024 0.377693 0
M  V30 191 C 17.9792 -3.26112 1.12894 0
M  V30 192 C 17.0922 -3.62233 2.35396 0
M  V30 193 C 16.2272 -4.8838 2.08946 0
M  V30 194 C 15.2662 -5.17212 3.2735 0
M  V30 195 N 14.4032 -6.34546 3.00492 0
M  V30 196 H 19.2432 -1.92552 2.27437 0
M  V30 197 H 16.7802 -0.941473 1.13025 0
M  V30 198 H 18.7382 -4.05116 0.996835 0
M  V30 199 H 17.3682 -3.22091 0.213758 0
M  V30 200 H 16.4202 -2.78265 2.5937 0
M  V30 201 H 17.7322 -3.79481 3.23721 0
M  V30 202 H 16.8862 -5.75274 1.92729 0
M  V30 203 H 15.6252 -4.73222 1.17949 0
M  V30 204 H 14.6302 -4.28796 3.44113 0
M  V30 205 H 15.8552 -5.34283 4.19188 0
M  V30 206 H 13.8012 -6.20759 2.12118 0
M  V30 207 H 13.7182 -6.52179 3.82358 0
M  V30 208 H 14.9862 -7.24394 2.87879 0
M  V30 209 N 19.2153 -1.21501 -1.00376 0
M  V30 210 C 20.6263 -1.03146 -1.55621 0
M  V30 211 C 20.9773 0.408375 -1.91903 0
M  V30 212 O 20.1023 1.29177 -1.73616 0
M  V30 213 C 20.6973 -1.86612 -2.82775 0
M  V30 214 C 19.2563 -1.72586 -3.34501 0
M  V30 215 C 18.4033 -1.83747 -2.07683 0
M  V30 216 H 21.3543 -1.35505 -0.826081 0
M  V30 217 H 21.3753 -1.3771 -3.54706 0
M  V30 218 H 20.8873 -2.91399 -2.56336 0
M  V30 219 H 18.9883 -0.704877 -3.65872 0
M  V30 220 H 19.1013 -2.54623 -4.05837 0
M  V30 221 H 17.4653 -1.27069 -2.20739 0
M  V30 222 H 18.2483 -2.90044 -1.83655 0
M  V30 223 N 20.6934 1.19889 -1.02296 0
M  V30 224 C 21.9414 1.89046 -0.714558 0
M  V30 225 C 22.2624 1.79636 0.758681 0
M  V30 226 O 21.5324 1.20292 1.54618 0
M  V30 227 H 20.1124 0.699802 -0.261317 0
M  V30 228 H 22.7744 1.45574 -1.29592 0
M  V30 229 H 21.8704 2.95524 -1.0036 0
M  V30 230 N 22.1715 0.800033 1.35784 0
M  V30 231 C 23.3965 0.388511 2.03729 0
M  V30 232 C 23.8215 -0.990481 1.5991 0
M  V30 233 O 23.1795 -1.64013 0.772612 0
M  V30 234 C 23.2275 0.4726 3.5749 0
M  V30 235 O 22.3315 -0.51646 4.09153 0
M  V30 236 H 21.6725 0.163271 0.643614 0
M  V30 237 H 24.2025 1.0841 1.73518 0
M  V30 238 H 24.2125 0.34003 4.06581 0
M  V30 239 H 22.8875 1.47848 3.88734 0
M  V30 240 H 21.4645 -0.344673 3.71304 0
M  V30 241 N 23.6496 -1.47581 0.552962 0
M  V30 242 C 24.8776 -2.06875 0.0320556 0
M  V30 243 C 25.2926 -1.40625 -1.25976 0
M  V30 244 O 24.6496 -0.501349 -1.75479 0
M  V30 245 C 24.7006 -3.61092 -0.17167 0
M  V30 246 O 24.4216 -4.24858 1.06899 0
M  V30 247 C 25.9226 -4.37242 -0.730344 0
M  V30 248 H 23.1426 -0.669561 0.043915 0
M  V30 249 H 25.6866 -1.89646 0.765163 0
M  V30 250 H 23.8416 -3.7785 -0.854894 0
M  V30 251 H 24.2556 -5.17334 0.864059 0
M  V30 252 H 25.7296 -5.45842 -0.822203 0
M  V30 253 H 26.2066 -4.03235 -1.74064 0
M  V30 254 H 26.8126 -4.25219 -0.0829543 0
M  V30 255 N 25.1277 -0.289203 -1.54924 0
M  V30 256 C 26.0577 0.58549 -2.2604 0
M  V30 257 C 27.0387 1.14753 -1.25562 0
M  V30 258 O 28.2237 1.17906 -1.54311 0
M  V30 259 C 25.3537 1.76305 -2.99222 0
M  V30 260 C 24.3077 1.33191 -4.06748 0
M  V30 261 C 23.6337 2.5937 -4.6758 0
M  V30 262 C 24.9337 0.471775 -5.20165 0
M  V30 263 H 26.6277 -0.00763532 -2.99399 0
M  V30 264 H 24.1737 -0.00511229 -1.43999 0
M  V30 265 H 26.1267 2.38097 -3.47689 0
M  V30 266 H 24.8507 2.38223 -2.23422 0
M  V30 267 H 23.5097 0.737121 -3.59113 0
M  V30 268 H 23.1577 3.19576 -3.88433 0
M  V30 269 H 22.8577 2.31228 -5.40192 0
M  V30 270 H 24.3817 3.21985 -5.18804 0
M  V30 271 H 25.7957 0.995056 -5.64599 0
M  V30 272 H 24.1927 0.284639 -5.99425 0
M  V30 273 H 25.2627 -0.506041 -4.82252 0
M  V30 274 N 26.6058 1.57591 -0.0167156 0
M  V30 275 C 27.5528 2.09462 0.969251 0
M  V30 276 C 28.5228 0.99381 1.33089 0
M  V30 277 O 29.7078 1.26726 1.42636 0
M  V30 278 C 26.8478 2.61622 2.25051 0
M  V30 279 C 25.9608 3.85666 1.94642 0
M  V30 280 C 25.0958 4.26266 3.16972 0
M  V30 281 C 24.1348 5.43101 2.82326 0
M  V30 282 N 23.2718 5.78915 3.97243 0
M  V30 283 H 28.1118 2.93428 0.519997 0
M  V30 284 H 25.6488 1.45044 0.245087 0
M  V30 285 H 27.6068 2.89949 2.99976 0
M  V30 286 H 26.2368 1.80505 2.67615 0
M  V30 287 H 25.2888 3.64145 1.10013 0
M  V30 288 H 26.6008 4.70678 1.65117 0
M  V30 289 H 25.7548 4.55963 4.00228 0
M  V30 290 H 24.4938 3.39996 3.49648 0
M  V30 291 H 23.4988 5.1311 1.97479 0
M  V30 292 H 24.7238 6.3106 2.50879 0
M  V30 293 H 22.6698 4.95602 4.29785 0
M  V30 294 H 22.5868 6.58539 3.71299 0
M  V30 295 H 23.8548 6.13212 4.81239 0
M  V30 296 N 28.0839 -0.256276 1.55502 0
M  V30 297 C 29.3329 -0.983486 1.76098 0
M  V30 298 C 29.6459 -1.86837 0.578896 0
M  V30 299 O 30.8519 -2.63163 0.667648 0
M  V30 300 C 29.3079 -1.79868 3.1173 0
M  V30 301 C 28.9159 -0.961648 4.37557 0
M  V30 302 C 30.6599 -2.51919 3.41668 0
M  V30 303 C 28.5669 -1.77219 5.64223 0
M  V30 304 H 27.4969 -0.370936 0.656447 0
M  V30 305 H 30.1479 -0.238492 1.81944 0
M  V30 306 H 28.5299 -2.58527 2.99966 0
M  V30 307 H 29.7039 -0.218048 4.60284 0
M  V30 308 H 28.0189 -0.354913 4.14885 0
M  V30 309 H 30.6159 -3.12998 4.33516 0
M  V30 310 H 30.9589 -3.23059 2.62562 0
M  V30 311 H 31.4919 -1.80278 3.54605 0
M  V30 312 H 28.2309 -1.10471 6.46124 0
M  V30 313 H 27.7509 -2.49132 5.45613 0
M  V30 314 H 29.4299 -2.34169 6.03137 0
M  V30 315 N 29.562 -1.4872 -0.521534 0
M  V30 316 C 30.79 -1.60843 -1.30142 0
M  V30 317 C 31.205 -0.271897 -1.86832 0
M  V30 318 O 30.562 0.739969 -1.66825 0
M  V30 319 C 30.613 -2.66155 -2.4463 0
M  V30 320 O 30.334 -3.94623 -1.90275 0
M  V30 321 C 31.835 -2.88795 -3.36322 0
M  V30 322 H 29.055 -0.542075 -0.395468 0
M  V30 323 H 31.599 -1.94609 -0.628285 0
M  V30 324 H 29.754 -2.35224 -3.07812 0
M  V30 325 H 30.168 -4.52468 -2.65279 0
M  V30 326 H 31.642 -3.66264 -4.12983 0
M  V30 327 H 32.119 -1.97934 -3.9207 0
M  V30 328 H 32.725 -3.21063 -2.78924 0
M  V30 329 N 31.0401 0.771051 -1.3745 0
M  V30 330 C 32.2881 1.52661 -1.32435 0
M  V30 331 C 32.6091 1.9479 0.0905024 0
M  V30 332 O 31.8791 1.66348 1.03466 0
M  V30 333 H 30.4591 0.566218 -0.487244 0
M  V30 334 H 33.1211 0.917636 -1.71946 0
M  V30 335 H 32.2171 2.42568 -1.96385 0
M  V30 336 N 32.5182 1.22032 0.997298 0
M  V30 337 C 33.7432 1.06921 1.77715 0
M  V30 338 C 34.1682 -0.376226 1.84299 0
M  V30 339 O 33.5262 -1.27165 1.29223 0
M  V30 340 C 33.5742 1.67996 3.19076 0
M  V30 341 O 32.6782 0.930653 4.01762 0
M  V30 342 H 32.0192 0.375814 0.547412 0
M  V30 343 H 34.5492 1.61737 1.25309 0
M  V30 344 H 34.5592 1.72538 3.69723 0
M  V30 345 H 33.2342 2.73182 3.13599 0
M  V30 346 H 31.8112 0.960917 3.60307 0
M  V30 347 N 33.9963 -1.19345 1.0293 0
M  V30 348 C 35.2453 -1.88363 0.721256 0
M  V30 349 C 35.5583 -1.80514 -0.753254 0
M  V30 350 O 36.7643 -2.44788 -1.17436 0
M  V30 351 C 35.2203 -3.37872 1.23978 0
M  V30 352 C 34.8283 -3.54278 2.74211 0
M  V30 353 C 36.5723 -4.12365 1.00775 0
M  V30 354 C 34.4793 -4.97682 3.19479 0
M  V30 355 H 33.4093 -0.705484 0.266098 0
M  V30 356 H 36.0603 -1.34928 1.24365 0
M  V30 357 H 34.4423 -3.90707 0.6453 0
M  V30 358 H 35.6163 -3.11769 3.39318 0
M  V30 359 H 33.9313 -2.93174 2.95699 0
M  V30 360 H 36.5283 -5.18119 1.32123 0
M  V30 361 H 36.8713 -4.16263 -0.0554308 0
M  V30 362 H 37.4043 -3.65668 1.56625 0
M  V30 363 H 34.1433 -4.98945 4.25128 0
M  V30 364 H 33.6633 -5.4095 2.591 0
M  V30 365 H 35.3423 -5.66337 3.12845 0
M  V30 366 N 35.4744 -0.807222 -1.35358 0
M  V30 367 C 36.4374 -0.223665 -2.28106 0
M  V30 368 C 37.4374 0.589354 -1.4961 0
M  V30 369 O 38.6274 0.407745 -1.69361 0
M  V30 370 C 35.7594 0.688149 -3.33882 0
M  V30 371 H 36.9524 -1.04169 -2.81227 0
M  V30 372 H 34.5054 -0.577921 -1.45223 0
M  V30 373 H 35.2404 1.52984 -2.85948 0
M  V30 374 H 35.0254 0.10687 -3.91954 0
M  V30 375 H 36.5154 1.09075 -4.03104 0
M  V30 376 N 36.9525 1.47285 -0.560781 0
M  V30 377 C 38.2295 1.9558 0.0277798 0
M  V30 378 C 38.6095 1.5034 1.48192 0
M  V30 379 O 37.9575 0.743882 2.16052 0
M  V30 380 C 38.1675 3.48789 -0.121418 0
M  V30 381 C 39.5155 4.24594 0.0220912 0
M  V30 382 O 40.5395 3.56166 -0.0491439 0
M  V30 383 O 39.3985 5.46217 0.175958 0
M  V30 384 H 36.4925 0.824663 0.0621342 0
M  V30 385 H 39.0385 1.5767 -0.627556 0
M  V30 386 H 37.8105 3.74533 -1.13316 0
M  V30 387 H 37.4335 3.93473 0.571366 0
M  V30 388 N 38.4306 0.297415 1.54768 0
M  V30 389 C 39.6786 -0.312295 1.99673 0
M  V30 390 C 39.9996 -1.54686 1.18732 0
M  V30 391 O 39.2696 -1.93854 0.282382 0
M  V30 392 H 37.8496 -0.118381 0.73756 0
M  V30 393 H 40.5116 0.407915 1.90583 0
M  V30 394 H 39.6076 -0.586813 3.06534 0
M  V30 395 N 39.9087 -1.5758 0.0250728 0
M  V30 396 C 41.1367 -1.9593 -0.664747 0
M  V30 397 C 41.5517 -0.901352 -1.65895 0
M  V30 398 O 40.9087 0.117255 -1.82123 0
M  V30 399 C 40.9597 -3.34342 -1.37468 0
M  V30 400 O 40.6807 -4.36079 -0.420324 0
M  V30 401 C 42.1817 -3.873 -2.1567 0
M  V30 402 H 39.4017 -0.645405 -0.183557 0
M  V30 403 H 41.9457 -2.04329 0.0836372 0
M  V30 404 H 40.1007 -3.27175 -2.0745 0
M  V30 405 H 40.5147 -5.16297 -0.923991 0
M  V30 406 H 41.9887 -4.86504 -2.60803 0
M  V30 407 H 42.4657 -3.21331 -2.99405 0
M  V30 408 H 43.0717 -3.97723 -1.50654 0
M  V30 409 N 41.3868 0.248026 -1.55636 0
M  V30 410 C 42.6638 0.998988 -1.68165 0
M  V30 411 C 43.0438 2.03409 -0.564621 0
M  V30 412 O 42.3918 2.24378 0.432076 0
M  V30 413 C 42.6018 1.63334 -3.0842 0
M  V30 414 C 43.9498 2.13562 -3.66983 0
M  V30 415 O 44.9738 1.73277 -3.11213 0
M  V30 416 O 43.8328 2.87526 -4.64749 0
M  V30 417 H 40.9268 0.464933 -0.683935 0
M  V30 418 H 43.4728 0.241902 -1.67967 0
M  V30 419 H 42.2448 0.884583 -3.8117 0
M  V30 420 H 41.8678 2.45666 -3.12624 0
M  V30 421 N 42.8649 1.48995 0.513639 0
M  V30 422 C 44.1129 1.57531 1.26604 0
M  V30 423 C 44.4339 0.258236 1.93283 0
M  V30 424 O 43.7039 -0.721502 1.8213 0
M  V30 425 H 42.2839 0.580387 0.470276 0
M  V30 426 H 44.9459 1.85552 0.596373 0
M  V30 427 H 44.0419 2.36486 2.03669 0
M  V30 428 N 44.343 -0.763751 1.37857 0
M  V30 429 C 45.59 -1.52257 1.33506 0
M  V30 430 C 45.918 -1.94343 -0.078022 0
M  V30 431 O 45.173 -1.64958 -1.05297 0
M  V30 432 C 45.472 -2.79499 2.22745 0
M  V30 433 C 45.138 -2.56426 3.70886 0
M  V30 434 C 43.8 -2.49842 4.11257 0
M  V30 435 C 46.152 -2.36008 4.64704 0
M  V30 436 C 43.48 -2.20841 5.43549 0
M  V30 437 C 45.832 -2.0853 5.97242 0
M  V30 438 C 44.496 -2.00396 6.36709 0
M  V30 439 H 43.766 -0.557149 0.488534 0
M  V30 440 H 46.413 -0.879073 1.70131 0
M  V30 441 H 44.718 -3.48447 1.79142 0
M  V30 442 H 46.415 -3.37413 2.16688 0
M  V30 443 H 43.005 -2.62416 3.38874 0
M  V30 444 H 47.189 -2.40079 4.34368 0
M  V30 445 H 42.445 -2.13045 5.73081 0
M  V30 446 H 46.619 -1.91732 6.69486 0
M  V30 447 H 44.246 -1.77688 7.39142 0
M  V30 448 N 45.8211 -1.22559 -0.990812 0
M  V30 449 C 47.0671 -1.05297 -1.73322 0
M  V30 450 C 47.4001 0.410655 -1.89808 0
M  V30 451 O 46.6751 1.30439 -1.44277 0
M  V30 452 C 46.9581 -1.76713 -3.13759 0
M  V30 453 C 46.8111 -3.30684 -3.04907 0
M  V30 454 C 48.1301 -1.52121 -4.12974 0
M  V30 455 H 45.2491 -0.38392 -0.629106 0
M  V30 456 H 47.8911 -1.50926 -1.15418 0
M  V30 457 H 46.0411 -1.37924 -3.63193 0
M  V30 458 H 47.7131 -3.7893 -2.63077 0
M  V30 459 H 45.9561 -3.60253 -2.41661 0
M  V30 460 H 46.6271 -3.75833 -4.04294 0
M  V30 461 H 49.1031 -1.85819 -3.72304 0
M  V30 462 H 47.9791 -2.04582 -5.0935 0
M  V30 463 H 48.2401 -0.454257 -4.3976 0
M  V30 464 N 47.2992 1.18797 -1.03562 0
M  V30 465 C 48.5482 1.87978 -0.731235 0
M  V30 466 C 48.8612 1.80911 0.743671 0
M  V30 467 O 50.0672 2.45407 1.16137 0
M  V30 468 C 48.5232 3.3721 -1.25768 0
M  V30 469 C 48.1312 3.52818 -2.76085 0
M  V30 470 C 49.8752 4.11825 -1.0296 0
M  V30 471 C 47.7822 4.9598 -3.22114 0
M  V30 472 H 46.7122 0.704063 -0.269835 0
M  V30 473 H 49.3632 1.34266 -1.25079 0
M  V30 474 H 47.7452 3.90359 -0.666011 0
M  V30 475 H 48.9192 3.09965 -3.40966 0
M  V30 476 H 47.2342 2.91602 -2.97249 0
M  V30 477 H 49.8312 5.17411 -1.34869 0
M  V30 478 H 50.1742 4.16287 0.0333546 0
M  V30 479 H 50.7072 3.64833 -1.58562 0
M  V30 480 H 47.4462 4.96684 -4.27768 0
M  V30 481 H 46.9662 5.39569 -2.61965 0
M  V30 482 H 48.6452 5.6467 -3.15844 0
M  V30 483 N 48.7773 0.814389 1.34928 0
M  V30 484 C 49.7253 0.218424 2.31572 0
M  V30 485 C 50.7193 -0.636128 1.57002 0
M  V30 486 O 51.9253 -0.52842 1.72069 0
M  V30 487 H 48.3003 0.0518799 0.750208 0
M  V30 488 H 50.2713 1.04852 2.79372 0
M  V30 489 C 49.0203 -0.61207 3.4227 0
M  V30 490 H 48.3433 0.0361578 3.99784 0
M  V30 491 H 49.7833 -0.995317 4.12152 0
M  V30 492 C 48.2423 -1.78087 2.85984 0
M  V30 493 O 48.7723 -2.8787 2.80168 0
M  V30 494 N 46.9783 -1.59488 2.42924 0
M  V30 495 H 46.5253 -0.701874 2.47854 0
M  V30 496 H 46.4833 -2.37846 2.05613 0
M  V30 497 N 50.2554 -1.46986 0.568584 0
M  V30 498 C 51.1854 -2.32946 -0.160753 0
M  V30 499 C 52.1664 -1.44487 -0.897631 0
M  V30 500 O 53.3514 -1.73327 -0.875867 0
M  V30 501 C 50.4814 -3.26494 -1.18403 0
M  V30 502 C 49.4354 -4.24282 -0.562895 0
M  V30 503 C 48.7614 -5.07236 -1.69163 0
M  V30 504 C 50.0614 -5.19989 0.490761 0
M  V30 505 H 51.7554 -2.94175 0.556916 0
M  V30 506 H 49.3014 -1.4146 0.26927 0
M  V30 507 H 51.2544 -3.85477 -1.70251 0
M  V30 508 H 49.9784 -2.63343 -1.93179 0
M  V30 509 H 48.6374 -3.66541 -0.0656164 0
M  V30 510 H 48.2854 -4.4048 -2.42871 0
M  V30 511 H 47.9854 -5.7345 -1.28174 0
M  V30 512 H 49.5094 -5.6908 -2.21314 0
M  V30 513 H 50.9234 -5.73271 0.0579047 0
M  V30 514 H 49.3204 -5.94469 0.820165 0
M  V30 515 H 50.3904 -4.64777 1.3824 0
M  V30 516 N 51.7335 -0.305618 -1.54608 0
M  V30 517 C 52.9815 0.301701 -1.99835 0
M  V30 518 C 53.3025 1.54054 -1.19551 0
M  V30 519 O 52.5725 1.93702 -0.292658 0
M  V30 520 H 51.1525 0.114468 -0.738178 0
M  V30 521 H 53.8145 -0.418016 -1.90364 0
M  V30 522 H 52.9105 0.570548 -3.06841 0
M  V30 523 N 53.2116 1.57565 -0.0334293 0
M  V30 524 C 54.1436 2.0739 0.975811 0
M  V30 525 C 55.1566 0.998166 1.2861 0
M  V30 526 O 56.3456 1.27426 1.25 0
M  V30 527 C 53.4456 2.4871 2.30209 0
M  V30 528 C 52.6186 3.79413 2.17634 0
M  V30 529 C 51.6776 4.07237 3.33233 0
M  V30 530 O 50.7036 4.77425 3.09927 0
M  V30 531 N 51.9056 3.5775 4.5716 0
M  V30 532 H 54.6706 2.94598 0.55066 0
M  V30 533 H 52.2316 1.61173 0.15323 0
M  V30 534 H 54.2236 2.64413 3.06378 0
M  V30 535 H 52.7936 1.66845 2.64351 0
M  V30 536 H 52.0136 3.73465 1.26165 0
M  V30 537 H 53.3016 4.65038 2.0644 0
M  V30 538 H 52.6996 3.00976 4.78989 0
M  V30 539 H 51.2566 3.78724 5.30482 0
M  V30 540 N 54.6897 -0.239769 1.55765 0
M  V30 541 C 55.9377 -0.964892 1.77579 0
M  V30 542 C 56.2587 -1.85582 0.598699 0
M  V30 543 O 55.5287 -1.92075 -0.385226 0
M  V30 544 H 54.1087 -0.359265 0.654933 0
M  V30 545 H 56.7707 -0.256001 1.93211 0
M  V30 546 H 55.8667 -1.58243 2.69009 0
M  V30 547 N 56.1678 -1.49265 -0.50573 0
M  V30 548 C 57.3958 -1.62215 -1.28429 0
M  V30 549 C 57.8108 -0.291697 -1.86533 0
M  V30 550 O 57.1678 0.722233 -1.67601 0
M  V30 551 C 57.2188 -2.68735 -2.41793 0
M  V30 552 O 56.9398 -3.96619 -1.86078 0
M  V30 553 C 58.4408 -2.92346 -3.3324 0
M  V30 554 H 55.6608 -0.546239 -0.389697 0
M  V30 555 H 58.2048 -1.95265 -0.607609 0
M  V30 556 H 56.3598 -2.38476 -3.053 0
M  V30 557 H 56.7738 -4.55256 -2.60465 0
M  V30 558 H 58.2478 -3.70623 -4.09075 0
M  V30 559 H 58.7248 -2.02081 -3.89948 0
M  V30 560 H 59.3308 -3.24003 -2.75503 0
M  V30 561 N 57.6459 0.756429 -1.3826 0
M  V30 562 C 58.9229 1.50584 -1.24835 0
M  V30 563 C 59.3029 2.10556 0.151485 0
M  V30 564 O 58.6509 1.96825 1.1607 0
M  V30 565 C 58.8609 2.57448 -2.3563 0
M  V30 566 C 60.2089 3.24429 -2.73917 0
M  V30 567 O 61.2329 2.67751 -2.34921 0
M  V30 568 O 60.0919 4.26937 -3.41156 0
M  V30 569 H 57.1859 0.667664 -0.48801 0
M  V30 570 H 59.7319 0.792083 -1.5008 0
M  V30 571 H 58.5039 2.11362 -3.29305 0
M  V30 572 H 58.1269 3.36408 -2.11933 0
M  V30 573 N 59.124 1.23083 0.984299 0
M  V30 574 C 60.071 1.00854 2.07598 0
M  V30 575 C 61.041 -0.0726709 1.65941 0
M  V30 576 O 62.226 0.0786535 1.90638 0
M  V30 577 C 59.366 0.601645 3.39815 0
M  V30 578 C 58.479 1.75456 3.94765 0
M  V30 579 C 57.614 1.29482 5.15177 0
M  V30 580 C 56.653 2.41873 5.62284 0
M  V30 581 N 55.79 1.96885 6.73929 0
M  V30 582 H 60.63 1.943 2.25946 0
M  V30 583 H 58.167 0.968001 1.10762 0
M  V30 584 H 60.125 0.346854 4.15756 0
M  V30 585 H 58.755 -0.295803 3.21442 0
M  V30 586 H 57.807 2.12346 3.15616 0
M  V30 587 H 59.119 2.59965 4.25699 0
M  V30 588 H 58.273 0.997923 5.98437 0
M  V30 589 H 57.012 0.420046 4.85888 0
M  V30 590 H 56.017 2.72342 4.77608 0
M  V30 591 H 57.242 3.29881 5.93595 0
M  V30 592 H 55.188 1.11782 6.46406 0
M  V30 593 H 55.105 2.74956 7.04227 0
M  V30 594 H 56.373 1.70289 7.60672 0
M  V30 595 N 60.6021 -1.18246 1.0419 0
M  V30 596 C 61.5321 -2.24127 0.654914 0
M  V30 597 C 62.5131 -1.66617 -0.342451 0
M  V30 598 O 63.6981 -1.92924 -0.222277 0
M  V30 599 C 60.8281 -3.47295 0.0183757 0
M  V30 600 C 59.7821 -4.17563 0.939414 0
M  V30 601 C 59.1081 -5.34438 0.167286 0
M  V30 602 C 60.4081 -4.70917 2.25908 0
M  V30 603 H 62.1021 -2.56753 1.54007 0
M  V30 604 H 59.6481 -1.23414 0.74195 0
M  V30 605 H 61.6011 -4.20572 -0.264082 0
M  V30 606 H 60.3251 -3.13907 -0.901664 0
M  V30 607 H 58.9841 -3.46186 1.20628 0
M  V30 608 H 58.6321 -4.97298 -0.7552 0
M  V30 609 H 58.3321 -5.82388 0.780901 0
M  V30 610 H 59.8561 -6.10504 -0.108125 0
M  V30 611 H 61.2701 -5.35882 2.03724 0
M  V30 612 H 59.6671 -5.29406 2.82577 0
M  V30 613 H 60.7371 -3.88272 2.9047 0
M  V30 614 N 62.0802 -0.821533 -1.34494 0
M  V30 615 C 63.0282 -0.230702 -2.31453 0
M  V30 616 C 64.0222 0.627793 -1.57338 0
M  V30 617 O 65.2282 0.519288 -1.72347 0
M  V30 618 H 61.6032 -0.0558577 -0.749923 0
M  V30 619 H 63.5742 -1.06332 -2.78812 0
M  V30 620 C 62.3232 0.59391 -3.4259 0
M  V30 621 H 61.6462 -0.0573588 -3.99759 0
M  V30 622 H 63.0862 0.973446 -4.12674 0
M  V30 623 C 61.5452 1.76568 -2.86924 0
M  V30 624 O 62.0752 2.8638 -2.81691 0
M  V30 625 N 60.2812 1.58198 -2.43766 0
M  V30 626 H 59.8282 0.68872 -2.48222 0
M  V30 627 H 59.7862 2.36752 -2.06871 0
M  V30 628 N 63.5583 1.46682 -0.576371 0
M  V30 629 C 64.4883 2.33028 0.148397 0
M  V30 630 C 65.4693 1.44961 0.889956 0
M  V30 631 O 66.6543 1.73789 0.866662 0
M  V30 632 C 63.7843 3.27117 1.1667 0
M  V30 633 C 62.7383 4.24575 0.540386 0
M  V30 634 C 62.0643 5.08126 1.6647 0
M  V30 635 C 63.3643 5.19722 -0.518331 0
M  V30 636 H 65.0583 2.93875 -0.572509 0
M  V30 637 H 62.6043 1.41315 -0.276768 0
M  V30 638 H 64.5573 3.86374 1.68204 0
M  V30 639 H 63.2813 2.64364 1.9178 0
M  V30 640 H 61.9403 3.66571 0.0461769 0
M  V30 641 H 61.5883 4.41762 2.40531 0
M  V30 642 H 61.2883 5.74122 1.25131 0
M  V30 643 H 62.8123 5.70246 2.18293 0
M  V30 644 H 64.2263 5.73232 -0.0883058 0
M  V30 645 H 62.6233 5.94026 -0.851679 0
M  V30 646 H 63.6933 4.64037 -1.40703 0
M  V30 647 N 65.0364 0.313813 1.54444 0
M  V30 648 C 65.9864 -0.571898 2.20711 0
M  V30 649 C 66.9704 -1.08913 1.18435 0
M  V30 650 O 68.1624 -1.02777 1.44104 0
M  V30 651 C 65.2914 -1.7371 2.96108 0
M  V30 652 C 64.3774 -1.23522 4.05713 0
M  V30 653 N 64.7684 -0.452288 5.03774 0
M  V30 654 C 63.0664 -1.51482 4.19487 0
M  V30 655 C 63.7674 -0.183438 5.81411 0
M  V30 656 N 62.7434 -0.766845 5.38164 0
M  V30 657 H 66.5454 0.0336802 2.93881 0
M  V30 658 H 64.0594 0.119192 1.61962 0
M  V30 659 H 66.0564 -2.38329 3.4206 0
M  V30 660 H 64.7164 -2.34625 2.24458 0
M  V30 661 H 65.7274 -0.0960131 5.17811 0
M  V30 662 H 62.4044 -2.13053 3.59047 0
M  V30 663 H 63.7944 0.446216 6.70417 0
M  V30 664 N 66.5145 -1.57545 0.0417849 0
M  V30 665 C 67.7615 -1.92317 -0.634082 0
M  V30 666 C 68.0895 -0.919334 -1.71402 0
M  V30 667 O 67.3445 0.0698253 -1.95575 0
M  V30 668 C 67.6435 -3.33794 -1.27735 0
M  V30 669 C 67.3095 -4.49716 -0.326543 0
M  V30 670 C 65.9715 -4.81156 -0.0648814 0
M  V30 671 C 68.3235 -5.20182 0.325623 0
M  V30 672 C 65.6515 -5.80414 0.856539 0
M  V30 673 C 68.0035 -6.20424 1.23518 0
M  V30 674 C 66.6675 -6.50298 1.5056 0
M  V30 675 H 65.9375 -0.703736 -0.232027 0
M  V30 676 H 68.5845 -1.91205 0.106259 0
M  V30 677 H 66.8895 -3.31228 -2.09274 0
M  V30 678 H 68.5865 -3.57975 -1.80707 0
M  V30 679 H 65.1765 -4.25176 -0.540665 0
M  V30 680 H 69.3605 -4.96112 0.136546 0
M  V30 681 H 64.6165 -6.019 1.07363 0
M  V30 682 H 68.7905 -6.74141 1.74664 0
M  V30 683 H 66.4175 -7.27025 2.22123 0
M  V30 684 N 67.9926 0.231505 -1.5589 0
M  V30 685 C 68.9406 1.30649 -1.92441 0
M  V30 686 C 69.9346 1.49037 -0.805254 0
M  V30 687 O 71.1406 1.50329 -0.990007 0
M  V30 688 H 67.5156 0.437812 -0.611412 0
M  V30 689 H 69.4866 0.970973 -2.82161 0
M  V30 690 C 68.2356 2.65179 -2.24889 0
M  V30 691 H 67.5586 2.51835 -3.10514 0
M  V30 692 H 68.9986 3.39234 -2.54355 0
M  V30 693 C 67.4576 3.19439 -1.07054 0
M  V30 694 O 67.9876 4.00371 -0.326499 0
M  V30 695 N 66.1936 2.77675 -0.85703 0
M  V30 696 H 65.7406 2.11969 -1.46379 0
M  V30 697 H 65.6986 3.14321 -0.0703223 0
M  V30 698 N 69.4707 1.49531 0.497807 0
M  V30 699 C 70.8817 1.52344 1.07927 0
M  V30 700 C 71.2327 0.311469 1.93712 0
M  V30 701 O 70.3577 -0.578405 2.08527 0
M  V30 702 C 70.9527 2.76062 1.96405 0
M  V30 703 C 69.5117 2.81643 2.49709 0
M  V30 704 C 68.6587 2.46299 1.27404 0
M  V30 705 H 71.6097 1.56182 0.281576 0
M  V30 706 H 71.6307 2.56405 2.81135 0
M  V30 707 H 71.1427 3.64254 1.33943 0
M  V30 708 H 69.2437 1.97739 3.15801 0
M  V30 709 H 69.3567 3.83891 2.86643 0
M  V30 710 H 67.7207 1.98148 1.60029 0
M  V30 711 H 68.5037 3.36769 0.66645 0
M  V30 712 N 70.9488 -0.749086 1.3866 0
M  V30 713 C 72.3648 -1.05276 1.19955 0
M  V30 714 C 72.5648 -2.01435 0.05134 0
M  V30 715 O 71.6208 -2.45232 -0.60147 0
M  V30 716 C 72.9338 -1.62853 2.52783 0
M  V30 717 C 74.4818 -1.75002 2.59506 0
M  V30 718 C 74.9568 -2.35991 3.92521 0
M  V30 719 N 76.4478 -2.43416 3.94085 0
M  V30 720 C 77.1828 -2.91511 4.9377 0
M  V30 721 N 76.6788 -3.39608 6.03853 0
M  V30 722 N 78.4718 -2.90592 4.81157 0
M  V30 723 H 70.6228 -0.111066 2.12109 0
M  V30 724 H 72.8858 -0.111901 0.941373 0
M  V30 725 H 72.5918 -0.99664 3.37283 0
M  V30 726 H 72.4658 -2.61854 2.715 0
M  V30 727 H 74.8528 -2.37317 1.75398 0
M  V30 728 H 74.9338 -0.74693 2.44652 0
M  V30 729 H 74.5778 -1.74308 4.77053 0
M  V30 730 H 74.5078 -3.3695 4.04688 0
M  V30 731 H 76.9988 -2.09405 3.14576 0
M  V30 732 H 77.3118 -3.74775 6.75843 0
M  V30 733 H 75.6568 -3.37653 6.07466 0
M  V30 734 H 78.8478 -2.52332 3.94267 0
M  V30 735 H 79.0208 -3.27762 5.58996 0
M  V30 736 N 72.4269 -1.23603 -0.977757 0
M  V30 737 C 73.6739 -1.06971 -1.71941 0
M  V30 738 C 74.0019 0.393009 -1.90488 0
M  V30 739 O 73.2569 1.30719 -1.4564 0
M  V30 740 C 73.5559 -1.7433 -3.11999 0
M  V30 741 C 73.2219 -3.24252 -3.13323 0
M  V30 742 C 71.8839 -3.65156 -3.13392 0
M  V30 743 C 74.2359 -4.20141 -3.08433 0
M  V30 744 C 71.5639 -5.00403 -3.0629 0
M  V30 745 C 73.9159 -5.55384 -3.02873 0
M  V30 746 C 72.5799 -5.95647 -3.01265 0
M  V30 747 H 71.8499 -0.391433 -0.629175 0
M  V30 748 H 74.4969 -1.53572 -1.14403 0
M  V30 749 H 72.8019 -1.20096 -3.7294 0
M  V30 750 H 74.4989 -1.58936 -3.68158 0
M  V30 751 H 71.0889 -2.91692 -3.14029 0
M  V30 752 H 75.2729 -3.89547 -3.07517 0
M  V30 753 H 70.5289 -5.3081 -3.03399 0
M  V30 754 H 74.7029 -6.29398 -2.98046 0
M  V30 755 H 72.3299 -7.0041 -2.95516 0
M  V30 756 N 73.905 1.17692 -1.04816 0
M  V30 757 C 75.13 1.92327 -0.776207 0
M  V30 758 C 75.555 1.76082 0.661581 0
M  V30 759 O 74.913 1.076 1.45917 0
M  V30 760 C 74.961 3.41539 -1.15687 0
M  V30 761 O 74.065 4.11402 -0.286775 0
M  V30 762 H 73.406 0.599735 -0.284981 0
M  V30 763 H 75.936 1.49201 -1.4 0
M  V30 764 H 75.946 3.92269 -1.12202 0
M  V30 765 H 74.621 3.52684 -2.20425 0
M  V30 766 H 73.198 3.70939 -0.381903 0
M  V30 767 N 75.3831 0.828654 1.34056 0
M  V30 768 C 76.2931 0.256725 2.33191 0
M  V30 769 C 77.3091 -0.611898 1.62886 0
M  V30 770 O 78.4851 -0.51844 1.94613 0
M  V30 771 C 75.5501 -0.567238 3.42028 0
M  V30 772 C 74.6111 0.324458 4.28072 0
M  V30 773 C 73.8441 -0.460274 5.31712 0
M  V30 774 O 74.0671 -1.693 5.44696 0
M  V30 775 O 73.0011 0.160391 6.01686 0
M  V30 776 H 76.8271 1.07739 2.83947 0
M  V30 777 H 74.4121 0.59093 1.37217 0
M  V30 778 H 76.2941 -1.03582 4.08471 0
M  V30 779 H 74.9691 -1.36513 2.93506 0
M  V30 780 H 73.8761 0.840659 3.64532 0
M  V30 781 H 75.2091 1.08685 4.8005 0
M  V30 782 N 76.8612 -1.46375 0.584142 0
M  V30 783 C 78.0862 -2.07268 0.0740405 0
M  V30 784 C 78.5112 -1.42979 -1.22223 0
M  V30 785 O 77.8692 -0.514092 -1.73859 0
M  V30 786 C 77.9172 -3.60518 -0.0767769 0
M  V30 787 O 77.0212 -3.96533 -1.13292 0
M  V30 788 H 76.3622 -0.660961 0.0634524 0
M  V30 789 H 78.8922 -1.87991 0.807492 0
M  V30 790 H 78.9022 -4.07021 -0.282489 0
M  V30 791 H 77.5772 -4.06702 0.86986 0
M  V30 792 H 76.1542 -3.61738 -0.905553 0
M  V30 793 N 78.3393 -0.321999 -1.54275 0
M  V30 794 C 79.5673 0.283052 -2.04955 0
M  V30 795 C 79.9823 1.45904 -1.19823 0
M  V30 796 O 79.3393 1.81063 -0.228545 0
M  V30 797 C 79.3903 0.719028 -3.54277 0
M  V30 798 O 79.1113 -0.410175 -4.36176 0
M  V30 799 C 80.6123 1.38705 -4.21041 0
M  V30 800 H 77.8323 0.0584616 -0.668448 0
M  V30 801 H 80.3763 -0.467734 -1.99079 0
M  V30 802 H 78.5313 1.41979 -3.60445 0
M  V30 803 H 78.9453 -0.0669416 -5.24457 0
M  V30 804 H 80.4193 1.64306 -5.2698 0
M  V30 805 H 80.8963 2.33385 -3.72059 0
M  V30 806 H 81.5023 0.728906 -4.19007 0
M  V30 807 N 79.8174 1.5752 -0.0501392 0
M  V30 808 C 81.0664 1.91827 0.623328 0
M  V30 809 C 81.3794 0.930222 1.72065 0
M  V30 810 O 82.5854 1.1653 2.4522 0
M  V30 811 C 81.0414 3.40692 1.16003 0
M  V30 812 C 80.6494 4.479 0.0948811 0
M  V30 813 C 82.3934 3.84034 1.80881 0
M  V30 814 C 80.3004 5.87879 0.644411 0
M  V30 815 H 79.2304 0.715918 0.236596 0
M  V30 816 H 81.8814 1.83115 -0.118861 0
M  V30 817 H 80.2634 3.44405 1.9545 0
M  V30 818 H 81.4374 4.55775 -0.678675 0
M  V30 819 H 79.7524 4.13892 -0.45637 0
M  V30 820 H 82.3494 4.85984 2.22988 0
M  V30 821 H 82.6924 3.20225 2.6601 0
M  V30 822 H 83.2254 3.82833 1.0809 0
M  V30 823 H 79.9644 6.55282 -0.169229 0
M  V30 824 H 79.4844 5.83567 1.38598 0
M  V30 825 H 81.1634 6.37098 1.12763 0
M  V30 826 N 81.2955 -0.223234 1.56011 0
M  V30 827 C 82.5415 -0.949279 1.79211 0
M  V30 828 C 82.8745 -1.84054 0.619494 0
M  V30 829 O 82.1495 -1.90726 -0.381317 0
M  V30 830 C 82.4325 -1.78965 3.12479 0
M  V30 831 C 82.2855 -0.924997 4.40186 0
M  V30 832 C 83.6045 -2.76774 3.42175 0
M  V30 833 H 80.7235 -0.343676 0.651963 0
M  V30 834 H 83.3655 -0.218253 1.88742 0
M  V30 835 H 81.5155 -2.41291 3.04485 0
M  V30 836 H 83.1875 -0.318615 4.60198 0
M  V30 837 H 81.4305 -0.230344 4.33188 0
M  V30 838 H 82.1015 -1.54735 5.29869 0
M  V30 839 H 84.5775 -2.24584 3.50287 0
M  V30 840 H 83.4535 -3.32678 4.36597 0
M  V30 841 H 83.7145 -3.54429 2.64258 0
M  V30 842 N 82.7736 -1.49793 -0.48987 0
M  V30 843 C 84.0136 -1.61466 -1.25332 0
M  V30 844 C 84.3776 -0.299688 -1.89647 0
M  V30 845 O 85.5786 -0.291687 -2.67213 0
M  V30 846 C 83.8496 -2.74944 -2.28343 0
M  V30 847 S 85.4086 -3.06637 -3.13878 0
M  V30 848 H 82.2266 -0.569411 -0.425784 0
M  V30 849 H 84.8286 -1.875 -0.553541 0
M  V30 850 H 83.5326 -3.68994 -1.79643 0
M  V30 851 H 83.0636 -2.50938 -3.02975 0
M  V30 852 H 85.0786 -2.49015 -4.29192 0
M  V30 853 N 84.2517 0.741722 -1.39055 0
M  V30 854 C 85.1997 1.87702 -1.3737 0
M  V30 855 C 86.1937 1.67427 -0.257812 0
M  V30 856 O 87.3997 1.7485 -0.427489 0
M  V30 857 H 83.7747 0.617757 -0.428812 0
M  V30 858 H 85.7457 1.86239 -2.33147 0
M  V30 859 C 84.4947 3.25315 -1.22741 0
M  V30 860 H 83.8177 3.41509 -2.07873 0
M  V30 861 H 85.2577 4.04964 -1.25618 0
M  V30 862 C 83.7167 3.36838 0.0647316 0
M  V30 863 O 84.2467 3.88073 1.03741 0
M  V30 864 N 82.4527 2.90329 0.125544 0
M  V30 865 H 81.9997 2.48823 -0.666682 0
M  V30 866 H 81.9577 2.98418 0.989639 0
M  V30 867 N 85.7298 1.2412 0.971189 0
M  V30 868 C 86.9548 1.10667 1.75407 0
M  V30 869 C 87.3798 -0.337048 1.85056 0
M  V30 870 O 86.7378 -1.24396 1.31892 0
M  V30 871 C 86.7858 1.74726 3.15441 0
M  V30 872 O 85.8898 1.01566 3.99697 0
M  V30 873 H 85.2308 0.387341 0.539317 0
M  V30 874 H 87.7608 1.64358 1.2185 0
M  V30 875 H 87.7708 1.80341 3.6598 0
M  V30 876 H 86.4458 2.79773 3.07734 0
M  V30 877 H 85.0228 1.03713 3.58187 0
M  V30 878 N 87.2079 -1.17134 1.05439 0
M  V30 879 C 88.1379 -2.2342 0.678649 0
M  V30 880 C 89.1189 -1.66971 -0.32476 0
M  V30 881 O 90.3039 -1.93149 -0.201802 0
M  V30 882 C 87.4339 -3.47256 0.0552099 0
M  V30 883 C 86.3879 -4.16543 0.98365 0
M  V30 884 C 85.7139 -5.34231 0.223961 0
M  V30 885 C 87.0139 -4.68495 2.3089 0
M  V30 886 H 88.7079 -2.55105 1.56722 0
M  V30 887 H 86.2539 -1.2262 0.754998 0
M  V30 888 H 88.2069 -4.20828 -0.21946 0
M  V30 889 H 86.9309 -3.14846 -0.868319 0
M  V30 890 H 85.5899 -3.44887 1.24293 0
M  V30 891 H 85.2379 -4.98071 -0.702412 0
M  V30 892 H 84.9379 -5.81527 0.842627 0
M  V30 893 H 86.4619 -6.10585 -0.0433671 0
M  V30 894 H 87.8759 -5.33691 2.09396 0
M  V30 895 H 86.2729 -5.26379 2.88176 0
M  V30 896 H 87.3429 -3.85169 2.94572 0
M  V30 897 N 88.686 -0.835752 -1.33615 0
M  V30 898 C 89.963 -0.352017 -1.92406 0
M  V30 899 C 90.343 1.16225 -1.76224 0
M  V30 900 O 89.691 1.97526 -1.14873 0
M  V30 901 C 89.901 -0.795485 -3.39813 0
M  V30 902 C 91.249 -0.801703 -4.16963 0
M  V30 903 O 92.273 -0.738889 -3.48452 0
M  V30 904 O 91.132 -0.886607 -5.3926 0
M  V30 905 H 88.226 -0.0989641 -0.821057 0
M  V30 906 H 90.772 -0.921397 -1.42507 0
M  V30 907 H 89.544 -1.83795 -3.45449 0
M  V30 908 H 89.167 -0.202505 -3.97084 0
M  V30 909 N 90.1641 1.46063 -0.591896 0
M  V30 910 C 91.4121 2.01938 -0.0808391 0
M  V30 911 C 91.7331 1.46475 1.28725 0
M  V30 912 O 91.0031 0.652944 1.84698 0
M  V30 913 H 89.5831 0.746516 -0.0268938 0
M  V30 914 H 92.2451 1.79055 -0.769752 0
M  V30 915 H 91.3411 3.12094 -0.0187578 0
M  V30 916 N 91.6422 0.330177 1.54103 0
M  V30 917 C 92.8672 -0.274893 2.0557 0
M  V30 918 C 93.2922 -1.44487 1.20437 0
M  V30 919 O 92.6502 -1.80021 0.214991 0
M  V30 920 C 92.6982 -0.68079 3.54115 0
M  V30 921 O 91.8022 -1.7824 3.71893 0
M  V30 922 H 91.1432 -0.0483849 0.662235 0
M  V30 923 H 93.6732 0.480508 1.98878 0
M  V30 924 H 93.6832 -0.961635 3.96505 0
M  V30 925 H 92.3582 0.174903 4.15532 0
M  V30 926 H 90.9352 -1.49985 3.41407 0
M  V30 927 N 93.1203 -1.57491 0.0584922 0
M  V30 928 C 94.0683 -2.13148 -0.931168 0
M  V30 929 C 95.0623 -1.06507 -1.31729 0
M  V30 930 O 96.2683 -1.24906 -1.29609 0
M  V30 931 H 92.6433 -0.68137 -0.31818 0
M  V30 932 H 94.6143 -2.95187 -0.436707 0
M  V30 933 C 93.3633 -2.69732 -2.19408 0
M  V30 934 H 92.6863 -3.51454 -1.90578 0
M  V30 935 H 94.1263 -3.12287 -2.86798 0
M  V30 936 C 92.5853 -1.63855 -2.94369 0
M  V30 937 O 93.1153 -1.05565 -3.87581 0
M  V30 938 N 91.3213 -1.35202 -2.57233 0
M  V30 939 H 90.8683 -1.82791 -1.81508 0
M  V30 940 H 90.8263 -0.645922 -3.07693 0
M  V30 941 N 94.5984 0.214957 -1.56127 0
M  V30 942 C 95.8444 0.935325 -1.80619 0
M  V30 943 C 96.1994 1.81706 -0.632507 0
M  V30 944 O 95.4924 1.87931 0.373182 0
M  V30 945 C 95.6864 1.80314 -3.0858 0
M  V30 946 C 95.5154 1.00691 -4.38282 0
M  V30 947 C 94.2854 0.699211 -5.00439 0
M  V30 948 C 96.4834 0.369057 -5.12974 0
M  V30 949 N 94.4654 -0.117734 -6.13787 0
M  V30 950 C 95.8364 -0.310981 -6.1922 0
M  V30 951 C 97.8914 0.282759 -4.97096 0
M  V30 952 C 96.5944 -1.06907 -7.11311 0
M  V30 953 C 98.6204 -0.461881 -5.89594 0
M  V30 954 C 97.9824 -1.13044 -6.9527 0
M  V30 955 H 94.0814 0.322307 -0.71249 0
M  V30 956 H 96.6654 0.205649 -1.93611 0
M  V30 957 H 94.8364 2.50458 -2.96859 0
M  V30 958 H 96.5684 2.46148 -3.21237 0
M  V30 959 H 93.3234 1.01884 -4.62511 0
M  V30 960 H 93.7474 -0.515235 -6.75037 0
M  V30 961 H 98.3894 0.785292 -4.15443 0
M  V30 962 H 96.1074 -1.5831 -7.92442 0
M  V30 963 H 99.6934 -0.529746 -5.79383 0
M  V30 964 H 98.5734 -1.69742 -7.65609 0
M  V30 965 N 96.0765 1.50051 0.48192 0
M  V30 966 C 97.3245 1.60181 1.23234 0
M  V30 967 C 97.6455 0.299176 1.92691 0
M  V30 968 O 96.9155 -0.682708 1.83619 0
M  V30 969 H 95.4955 0.590232 0.457859 0
M  V30 970 H 98.1575 1.86775 0.556881 0
M  V30 971 H 97.2535 2.40753 1.98607 0
M  V30 972 N 97.5546 -0.734337 1.39446 0
M  V30 973 C 98.4866 -1.85861 1.34121 0
M  V30 974 C 99.4996 -1.60871 0.249864 0
M  V30 975 O 100.689 -1.71093 0.508865 0
M  V30 976 C 97.7886 -3.21899 1.05991 0
M  V30 977 C 96.9616 -3.74239 2.26415 0
M  V30 978 C 96.0206 -4.88841 1.94733 0
M  V30 979 O 95.0466 -5.02468 2.67422 0
M  V30 980 N 96.2486 -5.73261 0.913884 0
M  V30 981 H 99.0136 -1.90934 2.31007 0
M  V30 982 H 96.5746 -0.915102 1.33557 0
M  V30 983 H 98.5666 -3.96136 0.828147 0
M  V30 984 H 97.1366 -3.12091 0.178361 0
M  V30 985 H 96.3566 -2.91347 2.65539 0
M  V30 986 H 97.6446 -4.05942 3.06738 0
M  V30 987 H 97.0426 -5.64842 0.311476 0
M  V30 988 H 95.5996 -6.47563 0.742015 0
M  V30 989 N 99.0327 -1.24633 -0.964593 0
M  V30 990 C 99.9427 -1.05859 -2.09359 0
M  V30 991 C 100.959 0.00148855 -1.74 0
M  V30 992 O 102.135 -0.197346 -2.00431 0
M  V30 993 C 99.1997 -0.668879 -3.40187 0
M  V30 994 C 98.2607 -1.80578 -3.89474 0
M  V30 995 C 97.4937 -1.43457 -5.14058 0
M  V30 996 O 97.7167 -0.325775 -5.69469 0
M  V30 997 O 96.6507 -2.2613 -5.57807 0
M  V30 998 H 100.477 -2.00516 -2.28094 0
M  V30 999 H 98.0617 -1.03481 -1.0776 0
M  V30 1000 H 99.9437 -0.463211 -4.18846 0
M  V30 1001 H 98.6187 0.248536 -3.22744 0
M  V30 1002 H 97.5257 -2.06623 -3.11862 0
M  V30 1003 H 98.8587 -2.70208 -4.11398 0
M  V30 1004 N 100.511 1.16574 -1.06058 0
M  V30 1005 C 101.443 2.2045 -0.627239 0
M  V30 1006 C 102.456 1.59752 0.313534 0
M  V30 1007 O 103.645 1.78192 0.104896 0
M  V30 1008 C 100.745 3.3875 0.100974 0
M  V30 1009 C 99.9178 4.29008 -0.852687 0
M  V30 1010 C 98.9768 5.25944 -0.164152 0
M  V30 1011 O 98.0028 5.63535 -0.801047 0
M  V30 1012 N 99.2048 5.70075 1.09518 0
M  V30 1013 H 101.97 2.58249 -1.52077 0
M  V30 1014 H 99.5308 1.3156 -0.943594 0
M  V30 1015 H 101.523 4.00638 0.57194 0
M  V30 1016 H 100.093 2.99476 0.89628 0
M  V30 1017 H 99.3128 3.64419 -1.50308 0
M  V30 1018 H 100.601 4.86195 -1.49972 0
M  V30 1019 H 99.9988 5.41624 1.6328 0
M  V30 1020 H 98.5558 6.34067 1.51006 0
M  V30 1021 N 101.989 0.842826 1.3317 0
M  V30 1022 C 103.405 0.531128 1.50503 0
M  V30 1023 C 103.605 -0.940734 1.78192 0
M  V30 1024 O 102.661 -1.72436 1.84451 0
M  V30 1025 C 103.974 1.40789 2.65705 0
M  V30 1026 C 105.522 1.40708 2.79589 0
M  V30 1027 C 105.997 2.26878 3.97857 0
M  V30 1028 N 107.488 2.24609 4.05099 0
M  V30 1029 C 108.223 2.88019 4.95815 0
M  V30 1030 N 107.719 3.60496 5.9162 0
M  V30 1031 N 109.512 2.77469 4.88843 0
M  V30 1032 H 101.663 1.79557 1.1346 0
M  V30 1033 H 103.926 0.766267 0.558156 0
M  V30 1034 H 103.632 2.454 2.51936 0
M  V30 1035 H 103.506 1.08677 3.61205 0
M  V30 1036 H 105.893 0.368668 2.92788 0
M  V30 1037 H 105.974 1.76829 1.84838 0
M  V30 1038 H 105.618 3.3078 3.85418 0
M  V30 1039 H 105.548 1.88096 4.91861 0
M  V30 1040 H 108.039 1.71906 3.36536 0
M  V30 1041 H 108.352 4.06076 6.57512 0
M  V30 1042 H 106.697 3.64604 5.91683 0
M  V30 1043 H 109.888 2.20406 4.12963 0
M  V30 1044 H 110.061 3.2717 5.59342 0
M  V30 1045 N 103.467 -1.45747 0.599634 0
M  V30 1046 C 104.377 -2.34262 -0.125888 0
M  V30 1047 C 105.393 -1.50768 -0.868625 0
M  V30 1048 O 106.569 -1.83592 -0.828003 0
M  V30 1049 C 103.634 -3.28252 -1.11587 0
M  V30 1050 C 102.695 -4.27651 -0.375956 0
M  V30 1051 C 101.928 -5.1715 -1.31877 0
M  V30 1052 O 102.151 -5.09916 -2.55621 0
M  V30 1053 O 101.085 -5.96286 -0.820157 0
M  V30 1054 H 104.911 -2.97688 0.601315 0
M  V30 1055 H 102.496 -1.44999 0.359934 0
M  V30 1056 H 104.378 -3.86191 -1.68626 0
M  V30 1057 H 103.053 -2.67401 -1.82424 0
M  V30 1058 H 101.96 -3.7335 0.236698 0
M  V30 1059 H 103.293 -4.91334 0.29177 0
M  V30 1060 N 104.945 -0.338344 -1.53925 0
M  V30 1061 C 106.222 0.314774 -1.93051 0
M  V30 1062 C 106.602 1.68669 -1.26941 0
M  V30 1063 O 105.95 2.24636 -0.418445 0
M  V30 1064 C 106.16 0.392249 -3.46789 0
M  V30 1065 C 107.508 0.645554 -4.19664 0
M  V30 1066 O 108.532 0.474575 -3.53024 0
M  V30 1067 O 107.391 0.976408 -5.37707 0
M  V30 1068 H 104.485 0.182598 -0.80659 0
M  V30 1069 H 107.031 -0.389141 -1.65178 0
M  V30 1070 H 105.803 -0.570702 -3.87116 0
M  V30 1071 H 105.426 1.14316 -3.80812 0
M  V30 1072 N 106.423 1.57458 -0.0668435 0
M  V30 1073 C 107.373 2.0896 0.912119 0
M  V30 1074 C 108.357 0.998186 1.26195 0
M  V30 1075 O 109.549 1.26133 1.24175 0
M  V30 1076 C 106.678 2.6508 2.18145 0
M  V30 1077 C 105.764 3.81218 1.85832 0
M  V30 1078 N 106.155 4.90378 1.23948 0
M  V30 1079 C 104.453 3.9042 2.15612 0
M  V30 1080 C 105.154 5.71279 1.09616 0
M  V30 1081 N 104.13 5.19389 1.60423 0
M  V30 1082 H 107.932 2.90749 0.42924 0
M  V30 1083 H 105.446 1.6182 0.137184 0
M  V30 1084 H 107.443 3.0029 2.89192 0
M  V30 1085 H 106.103 1.84736 2.67025 0
M  V30 1086 H 107.114 5.09847 0.909731 0
M  V30 1087 H 103.791 3.21043 2.66903 0
M  V30 1088 H 105.181 6.69085 0.614425 0
M  V30 1089 N 107.901 -0.206675 1.56239 0
M  V30 1090 C 108.831 -1.25909 1.96645 0
M  V30 1091 C 109.812 -1.48097 0.836734 0
M  V30 1092 O 110.997 -1.6003 1.10019 0
M  V30 1093 C 108.127 -2.6058 2.29599 0
M  V30 1094 C 107.081 -2.53024 3.452 0
M  V30 1095 C 106.407 -3.91861 3.63798 0
M  V30 1096 C 107.707 -2.06524 4.79734 0
M  V30 1097 H 109.401 -0.923369 2.84806 0
M  V30 1098 H 106.947 -0.442735 1.37025 0
M  V30 1099 H 108.9 -3.34375 2.56459 0
M  V30 1100 H 107.624 -2.95869 1.38307 0
M  V30 1101 H 106.283 -1.81684 3.18412 0
M  V30 1102 H 105.931 -4.24483 2.69857 0
M  V30 1103 H 105.631 -3.87683 4.4156 0
M  V30 1104 H 107.155 -4.67296 3.93022 0
M  V30 1105 H 108.569 -2.70072 5.05702 0
M  V30 1106 H 106.966 -2.13374 5.60885 0
M  V30 1107 H 108.036 -1.01802 4.74093 0
M  V30 1108 N 109.379 -1.50304 -0.473955 0
M  V30 1109 C 110.619 -1.62786 -1.23612 0
M  V30 1110 C 110.983 -0.319786 -1.89318 0
M  V30 1111 O 112.184 -0.320012 -2.66888 0
M  V30 1112 C 110.455 -2.77351 -2.25414 0
M  V30 1113 S 112.014 -3.09948 -3.10608 0
M  V30 1114 H 108.832 -0.573895 -0.419721 0
M  V30 1115 H 111.434 -1.88076 -0.533623 0
M  V30 1116 H 110.138 -3.70879 -1.75719 0
M  V30 1117 H 109.669 -2.54137 -3.00296 0
M  V30 1118 H 111.684 -2.53553 -4.26527 0
M  V30 1119 N 110.857 0.726932 -1.39834 0
M  V30 1120 C 112.104 1.48664 -1.37496 0
M  V30 1121 C 112.432 1.94482 0.0264678 0
M  V30 1122 O 111.687 1.67692 1.00886 0
M  V30 1123 C 111.986 2.73495 -2.30077 0
M  V30 1124 C 111.652 2.46502 -3.77555 0
M  V30 1125 C 110.314 2.3885 -4.17737 0
M  V30 1126 C 112.666 2.23604 -4.70798 0
M  V30 1127 C 109.994 2.06352 -5.49214 0
M  V30 1128 C 112.346 1.92622 -6.02561 0
M  V30 1129 C 111.01 1.83444 -6.41798 0
M  V30 1130 H 110.28 0.544001 -0.503135 0
M  V30 1131 H 112.927 0.833657 -1.72402 0
M  V30 1132 H 111.232 3.43575 -1.88317 0
M  V30 1133 H 112.929 3.31549 -2.25558 0
M  V30 1134 H 109.519 2.5334 -3.45712 0
M  V30 1135 H 113.703 2.28479 -4.40581 0
M  V30 1136 H 108.959 1.97776 -5.78528 0
M  V30 1137 H 113.133 1.73914 -6.74334 0
M  V30 1138 H 110.76 1.58029 -7.43593 0
M  V30 1139 N 112.336 1.25143 0.95797 0
M  V30 1140 C 113.561 1.12521 1.74223 0
M  V30 1141 C 113.986 -0.317402 1.85403 0
M  V30 1142 O 113.344 -1.2299 1.33204 0
M  V30 1143 C 113.392 1.78062 3.1357 0
M  V30 1144 O 112.496 1.058 3.98598 0
M  V30 1145 H 111.837 0.39304 0.535178 0
M  V30 1146 H 114.367 1.65641 1.201 0
M  V30 1147 H 114.377 1.84213 3.64046 0
M  V30 1148 H 113.052 2.83021 3.04749 0
M  V30 1149 H 111.629 1.07506 3.57067 0
M  V30 1150 N 113.814 -1.1601 1.06675 0
M  V30 1151 C 115.225 -1.68235 0.809565 0
M  V30 1152 C 115.576 -1.8454 -0.666303 0
M  V30 1153 O 114.701 -1.54374 -1.5165 0
M  V30 1154 C 115.296 -3.05585 1.46299 0
M  V30 1155 C 113.855 -3.54915 1.25349 0
M  V30 1156 C 113.002 -2.30804 1.53703 0
M  V30 1157 H 115.953 -1.00318 1.22971 0
M  V30 1158 H 115.974 -3.70174 0.880431 0
M  V30 1159 H 115.486 -2.93686 2.53713 0
M  V30 1160 H 113.587 -3.72067 0.199261 0
M  V30 1161 H 113.7 -4.36774 1.9689 0
M  V30 1162 H 112.064 -2.36007 0.957739 0
M  V30 1163 H 112.847 -2.21499 2.62284 0
M  V30 1164 N 115.292 -0.849877 -1.32721 0
M  V30 1165 C 116.54 -0.450032 -1.97026 0
M  V30 1166 C 116.861 0.996604 -1.67609 0
M  V30 1167 O 116.131 1.6958 -0.980786 0
M  V30 1168 H 114.711 -0.163426 -0.728904 0
M  V30 1169 H 117.373 -1.08526 -1.6189 0
M  V30 1170 H 116.469 -0.591146 -3.0645 0
M  V30 1171 N 116.77 1.45427 -0.607355 0
M  V30 1172 C 117.995 2.07124 -0.107006 0
M  V30 1173 C 118.42 1.44906 1.19933 0
M  V30 1174 O 117.778 0.541687 1.73019 0
M  V30 1175 C 117.826 3.60595 0.0194119 0
M  V30 1176 O 116.93 3.98285 1.0697 0
M  V30 1177 H 116.271 0.659868 -0.0739597 0
M  V30 1178 H 118.801 1.86683 -0.837297 0
M  V30 1179 H 118.811 4.07419 0.2177 0
M  V30 1180 H 117.486 4.05266 -0.934453 0
M  V30 1181 H 116.063 3.63133 0.847889 0
M  V30 1182 N 118.248 0.346503 1.53744 0
M  V30 1183 C 119.158 -0.517293 2.28826 0
M  V30 1184 C 120.174 -1.10935 1.3405 0
M  V30 1185 O 121.35 -1.1244 1.6709 0
M  V30 1186 C 118.415 -1.65098 3.04866 0
M  V30 1187 C 117.476 -1.0884 4.15274 0
M  V30 1188 C 116.709 -2.16806 4.87679 0
M  V30 1189 O 116.932 -3.3758 4.59778 0
M  V30 1190 O 115.866 -1.80934 5.74061 0
M  V30 1191 H 119.692 0.0931396 3.03557 0
M  V30 1192 H 117.277 0.111458 1.48984 0
M  V30 1193 H 119.159 -2.31053 3.5241 0
M  V30 1194 H 117.834 -2.24717 2.32989 0
M  V30 1195 H 116.741 -0.3933 3.72027 0
M  V30 1196 H 118.074 -0.537036 4.89261 0
M  V30 1197 N 119.726 -1.57421 0.075193 0
M  V30 1198 C 120.972 -1.93905 -0.594025 0
M  V30 1199 C 121.305 -0.955701 -1.69056 0
M  V30 1200 O 120.58 0.0145373 -1.94495 0
M  V30 1201 C 120.863 -3.40638 -1.1678 0
M  V30 1202 C 120.716 -4.49733 -0.0776792 0
M  V30 1203 C 122.035 -3.88259 -2.07228 0
M  V30 1204 H 119.154 -0.705105 -0.214466 0
M  V30 1205 H 121.796 -1.8947 0.141854 0
M  V30 1206 H 119.946 -3.44549 -1.79494 0
M  V30 1207 H 121.618 -4.57942 0.555573 0
M  V30 1208 H 119.861 -4.29751 0.591286 0
M  V30 1209 H 120.532 -5.49549 -0.519603 0
M  V30 1210 H 123.008 -3.86376 -1.54445 0
M  V30 1211 H 121.884 -4.91533 -2.44308 0
M  V30 1212 H 122.145 -3.26396 -2.98191 0
M  V30 1213 N 121.204 0.198386 -1.56346 0
M  V30 1214 C 122.151 1.24589 -1.94284 0
M  V30 1215 C 123.121 1.454 -0.802997 0
M  V30 1216 O 124.306 1.58588 -1.06087 0
M  V30 1217 C 121.446 2.58631 -2.28482 0
M  V30 1218 C 120.559 2.45426 -3.55514 0
M  V30 1219 C 119.694 3.7215 -3.79049 0
M  V30 1220 C 118.733 3.53763 -4.99518 0
M  V30 1221 N 117.87 4.72491 -5.19323 0
M  V30 1222 H 122.71 0.915356 -2.83593 0
M  V30 1223 H 120.247 0.440629 -1.40346 0
M  V30 1224 H 122.205 3.3672 -2.46324 0
M  V30 1225 H 120.835 2.89734 -1.42317 0
M  V30 1226 H 119.887 1.58652 -3.45737 0
M  V30 1227 H 121.199 2.27772 -4.43758 0
M  V30 1228 H 120.353 4.58679 -3.97113 0
M  V30 1229 H 119.092 3.92754 -2.89129 0
M  V30 1230 H 118.097 2.65619 -4.8138 0
M  V30 1231 H 119.322 3.34607 -5.90944 0
M  V30 1232 H 117.268 4.93365 -4.3235 0
M  V30 1233 H 117.185 4.5765 -6.01741 0
M  V30 1234 H 118.453 5.6038 -5.41843 0
M  V30 1235 N 122.682 1.50554 0.465978 0
M  V30 1236 C 123.929 1.61798 1.21768 0
M  V30 1237 C 124.257 0.320696 1.91838 0
M  V30 1238 O 123.512 -0.693724 1.82992 0
M  V30 1239 C 123.811 2.75152 2.28093 0
M  V30 1240 C 123.477 4.15454 1.75239 0
M  V30 1241 C 122.139 4.53628 1.60546 0
M  V30 1242 C 124.491 5.03121 1.36083 0
M  V30 1243 C 121.819 5.77204 1.05128 0
M  V30 1244 C 124.171 6.27249 0.821056 0
M  V30 1245 C 122.835 6.64221 0.660795 0
M  V30 1246 H 122.105 0.592063 0.445582 0
M  V30 1247 H 124.752 1.84503 0.512927 0
M  V30 1248 H 123.057 2.46556 3.04496 0
M  V30 1249 H 124.754 2.81055 2.86023 0
M  V30 1250 H 121.344 3.85341 1.87644 0
M  V30 1251 H 125.528 4.74257 1.46267 0
M  V30 1252 H 120.784 6.0452 0.91462 0
M  V30 1253 H 124.958 6.94537 0.509018 0
M  V30 1254 H 122.585 7.59854 0.229226 0
M  V30 1255 N 124.16 -0.719506 1.40217 0
M  V30 1256 C 125.388 -1.50864 1.41589 0
M  V30 1257 C 125.803 -1.88794 0.0145275 0
M  V30 1258 O 125.16 -1.55174 -0.960594 0
M  V30 1259 C 125.211 -2.78646 2.30302 0
M  V30 1260 O 124.932 -2.42321 3.64983 0
M  V30 1261 C 126.433 -3.72569 2.40224 0
M  V30 1262 H 123.653 -0.465709 0.48307 0
M  V30 1263 H 126.197 -0.88785 1.84221 0
M  V30 1264 H 124.352 -3.37019 1.91042 0
M  V30 1265 H 124.766 -3.24514 4.12057 0
M  V30 1266 H 126.24 -4.5908 3.06512 0
M  V30 1267 H 126.717 -4.15403 1.42608 0
M  V30 1268 H 127.323 -3.20109 2.80019 0
M  V30 1269 N 125.638 -1.25649 -0.95132 0
M  V30 1270 C 126.884 -1.10757 -1.69884 0
M  V30 1271 C 127.217 0.350061 -1.91019 0
M  V30 1272 O 126.492 1.25783 -1.48354 0
M  V30 1273 C 126.775 -1.86606 -3.07978 0
M  V30 1274 C 126.628 -3.40217 -2.94232 0
M  V30 1275 C 127.947 -1.65182 -4.07925 0
M  V30 1276 H 125.066 -0.40374 -0.616574 0
M  V30 1277 H 127.708 -1.54521 -1.10558 0
M  V30 1278 H 125.858 -1.49409 -3.58621 0
M  V30 1279 H 127.53 -3.87108 -2.50889 0
M  V30 1280 H 125.773 -3.67759 -2.30078 0
M  V30 1281 H 126.444 -3.88505 -3.92133 0
M  V30 1282 H 128.92 -1.9757 -3.66204 0
M  V30 1283 H 127.796 -2.20683 -5.02583 0
M  V30 1284 H 128.057 -0.593933 -4.38092 0
M  V30 1285 N 127.117 1.15442 -1.07289 0
M  V30 1286 C 128.345 1.90096 -0.81676 0
M  V30 1287 C 128.76 1.7798 0.629966 0
M  V30 1288 O 128.117 1.1313 1.43206 0
M  V30 1289 C 128.168 3.40466 -1.21512 0
M  V30 1290 O 127.889 3.52232 -2.60508 0
M  V30 1291 C 129.39 4.32145 -0.988198 0
M  V30 1292 H 126.61 0.602495 -0.295366 0
M  V30 1293 H 129.154 1.4627 -1.42918 0
M  V30 1294 H 127.309 3.81958 -0.647039 0
M  V30 1295 H 127.723 4.45549 -2.76742 0
M  V30 1296 H 129.197 5.36072 -1.31645 0
M  V30 1297 H 129.674 4.39135 0.0755063 0
M  V30 1298 H 130.28 3.96395 -1.54115 0
M  V30 1299 N 128.595 0.856903 1.32268 0
M  V30 1300 C 129.842 0.461386 1.97174 0
M  V30 1301 C 130.17 -0.983491 1.67803 0
M  V30 1302 O 129.425 -1.70541 0.959903 0
M  V30 1303 C 129.724 0.649919 3.51441 0
M  V30 1304 C 129.39 2.0656 4.00804 0
M  V30 1305 C 128.052 2.45279 4.13995 0
M  V30 1306 C 130.404 2.98947 4.26943 0
M  V30 1307 C 127.732 3.75653 4.50668 0
M  V30 1308 C 130.084 4.28822 4.65075 0
M  V30 1309 C 128.748 4.67472 4.76472 0
M  V30 1310 H 128.018 0.168833 0.72151 0
M  V30 1311 H 130.665 1.08739 1.57633 0
M  V30 1312 H 128.97 -0.0593018 3.91755 0
M  V30 1313 H 130.667 0.32391 3.9969 0
M  V30 1314 H 127.257 1.75495 3.91024 0
M  V30 1315 H 131.441 2.70265 4.16258 0
M  V30 1316 H 126.697 4.05379 4.57688 0
M  V30 1317 H 130.871 5.0047 4.84255 0
M  V30 1318 H 128.498 5.68539 5.04646 0
M  V30 1319 N 130.073 -1.45103 0.615059 0
M  V30 1320 C 130.983 -2.34382 -0.101034 0
M  V30 1321 C 131.999 -1.51681 -0.852585 0
M  V30 1322 O 133.175 -1.8446 -0.808484 0
M  V30 1323 C 130.24 -3.29417 -1.08099 0
M  V30 1324 C 129.301 -4.28025 -0.330577 0
M  V30 1325 C 128.534 -5.1852 -1.26385 0
M  V30 1326 O 128.757 -5.12598 -2.50198 0
M  V30 1327 O 127.691 -5.97122 -0.756866 0
M  V30 1328 H 131.517 -2.97033 0.632855 0
M  V30 1329 H 129.102 -1.4461 0.375293 0
M  V30 1330 H 130.984 -3.87958 -1.6452 0
M  V30 1331 H 129.659 -2.69321 -1.79577 0
M  V30 1332 H 128.566 -3.73078 0.276283 0
M  V30 1333 H 129.899 -4.90997 0.343866 0
M  V30 1334 N 131.551 -0.354651 -1.53558 0
M  V30 1335 C 132.776 0.242153 -2.05981 0
M  V30 1336 C 133.201 1.42553 -1.2272 0
M  V30 1337 O 132.559 1.79656 -0.243604 0
M  V30 1338 C 132.607 0.624367 -3.55154 0
M  V30 1339 O 131.711 1.72301 -3.74681 0
M  V30 1340 H 131.052 0.0378432 -0.662921 0
M  V30 1341 H 133.582 -0.512087 -1.98088 0
M  V30 1342 H 133.592 0.898433 -3.97985 0
M  V30 1343 H 132.267 -0.240989 -4.15201 0
M  V30 1344 H 130.844 1.44535 -3.4375 0
M  V30 1345 N 133.029 1.57378 -0.0835403 0
M  V30 1346 C 134.306 1.85363 0.624507 0
M  V30 1347 C 134.686 0.978239 1.87066 0
M  V30 1348 O 134.034 0.0475908 2.2845 0
M  V30 1349 C 134.244 3.35795 0.950947 0
M  V30 1350 C 135.592 4.03581 1.31939 0
M  V30 1351 O 136.616 3.40609 1.04232 0
M  V30 1352 O 135.475 5.14672 1.83779 0
M  V30 1353 H 132.569 0.766162 0.311329 0
M  V30 1354 H 135.115 1.69307 -0.115362 0
M  V30 1355 H 133.887 3.91244 0.0663899 0
M  V30 1356 H 133.51 3.57154 1.74719 0
M  V30 1357 N 134.507 -0.190092 1.56449 0
M  V30 1358 C 135.454 -1.23557 1.94942 0
M  V30 1359 C 136.424 -1.44972 0.810696 0
M  V30 1360 O 137.609 -1.58023 1.06927 0
M  V30 1361 C 134.749 -2.57416 2.2985 0
M  V30 1362 C 133.862 -2.43537 3.5681 0
M  V30 1363 C 132.997 -3.70134 3.81017 0
M  V30 1364 C 132.036 -3.51109 5.01387 0
M  V30 1365 N 131.173 -4.6973 5.21822 0
M  V30 1366 H 136.013 -0.900304 2.84075 0
M  V30 1367 H 133.55 -0.43318 1.40577 0
M  V30 1368 H 135.508 -3.35409 2.48106 0
M  V30 1369 H 134.138 -2.88975 1.43852 0
M  V30 1370 H 133.19 -1.56816 3.46573 0
M  V30 1371 H 134.502 -2.25415 4.4496 0
M  V30 1372 H 133.656 -4.56566 3.9954 0
M  V30 1373 H 132.395 -3.91215 2.91207 0
M  V30 1374 H 131.4 -2.63063 4.82782 0
M  V30 1375 H 132.625 -3.31468 5.9271 0
M  V30 1376 H 130.571 -4.91065 4.34961 0
M  V30 1377 H 130.488 -4.54452 6.0416 0
M  V30 1378 H 131.756 -5.57499 5.44808 0
M  V30 1379 N 135.985 -1.50799 -0.457987 0
M  V30 1380 C 137.232 -1.62442 -1.20908 0
M  V30 1381 C 137.56 -0.330865 -1.91665 0
M  V30 1382 O 136.815 0.68401 -1.83357 0
M  V30 1383 C 137.114 -2.76358 -2.2663 0
M  V30 1384 C 136.78 -4.16378 -1.73033 0
M  V30 1385 C 135.442 -4.54473 -1.58138 0
M  V30 1386 C 137.794 -5.03836 -1.33413 0
M  V30 1387 C 135.122 -5.77754 -1.02065 0
M  V30 1388 C 137.474 -6.27676 -0.78778 0
M  V30 1389 C 136.138 -6.64562 -0.625561 0
M  V30 1390 H 135.408 -0.594417 -0.442435 0
M  V30 1391 H 138.055 -1.84772 -0.503136 0
M  V30 1392 H 136.36 -2.48167 -3.03184 0
M  V30 1393 H 138.057 -2.82568 -2.84528 0
M  V30 1394 H 134.647 -3.86331 -1.85598 0
M  V30 1395 H 138.831 -4.75026 -1.4375 0
M  V30 1396 H 134.087 -6.04997 -0.882547 0
M  V30 1397 H 138.261 -6.94797 -0.472177 0
M  V30 1398 H 135.888 -7.59965 -0.188926 0
M  V30 1399 N 137.463 0.71206 -1.40597 0
M  V30 1400 C 138.41 1.82613 -1.41142 0
M  V30 1401 C 139.38 1.63925 -0.267903 0
M  V30 1402 O 140.565 1.85009 -0.466495 0
M  V30 1403 C 137.705 3.20354 -1.28324 0
M  V30 1404 C 136.818 3.50589 -2.52411 0
M  V30 1405 C 135.953 4.77855 -2.32009 0
M  V30 1406 C 134.992 5.01005 -3.51654 0
M  V30 1407 N 134.129 6.19487 -3.30425 0
M  V30 1408 H 138.969 1.81482 -2.36365 0
M  V30 1409 H 136.506 0.886475 -1.17388 0
M  V30 1410 H 138.464 3.99899 -1.18899 0
M  V30 1411 H 137.094 3.20705 -0.367189 0
M  V30 1412 H 136.146 2.65573 -2.72351 0
M  V30 1413 H 137.458 3.63604 -3.41458 0
M  V30 1414 H 136.612 5.65424 -2.19956 0
M  V30 1415 H 135.351 4.67056 -1.40392 0
M  V30 1416 H 134.356 4.1189 -3.64179 0
M  V30 1417 H 135.581 5.13674 -4.44202 0
M  V30 1418 H 133.527 6.09932 -2.41494 0
M  V30 1419 H 133.444 6.33194 -4.13039 0
M  V30 1420 H 134.712 7.09834 -3.22113 0
M  V30 1421 N 138.941 1.26152 0.944643 0
M  V30 1422 C 140.187 1.11657 1.69294 0
M  V30 1423 C 140.52 -0.339926 1.91202 0
M  V30 1424 O 139.795 -1.24994 1.49019 0
M  V30 1425 C 140.078 1.88236 3.06984 0
M  V30 1426 C 139.931 3.41772 2.92424 0
M  V30 1427 C 141.25 1.67343 4.07043 0
M  V30 1428 H 138.369 0.407004 0.614424 0
M  V30 1429 H 141.011 1.55106 1.09737 0
M  V30 1430 H 139.161 1.51308 3.57824 0
M  V30 1431 H 140.833 3.88433 2.48832 0
M  V30 1432 H 139.076 3.68974 2.28124 0
M  V30 1433 H 139.747 3.90579 3.90067 0
M  V30 1434 H 142.223 1.99509 3.65151 0
M  V30 1435 H 141.099 2.23346 5.01406 0
M  V30 1436 H 141.36 0.617158 4.37771 0
M  V30 1437 N 140.419 -1.14872 1.07899 0
M  V30 1438 C 141.366 -2.19791 0.704319 0
M  V30 1439 C 142.336 -1.63238 -0.306987 0
M  V30 1440 O 143.521 -1.8983 -0.192171 0
M  V30 1441 C 140.661 -3.44911 0.114244 0
M  V30 1442 C 139.774 -4.15637 1.1777 0
M  V30 1443 C 138.909 -5.28324 0.552037 0
M  V30 1444 C 137.948 -5.90875 1.59789 0
M  V30 1445 N 137.085 -6.95022 0.994404 0
M  V30 1446 H 141.925 -2.5119 1.60336 0
M  V30 1447 H 139.462 -1.23356 0.801352 0
M  V30 1448 H 141.42 -4.16477 -0.245544 0
M  V30 1449 H 140.05 -3.14011 -0.74813 0
M  V30 1450 H 139.102 -3.42512 1.65499 0
M  V30 1451 H 140.414 -4.5823 1.97046 0
M  V30 1452 H 139.568 -6.06538 0.1402 0
M  V30 1453 H 138.307 -4.86939 -0.272431 0
M  V30 1454 H 137.312 -5.11369 2.01945 0
M  V30 1455 H 138.537 -6.34337 2.42474 0
M  V30 1456 H 136.483 -6.55722 0.190939 0
M  V30 1457 H 136.4 -7.36073 1.72432 0
M  V30 1458 H 137.668 -7.77123 0.608253 0
M  V30 1459 N 141.898 -0.863906 -1.31812 0
M  V30 1460 C 142.828 -0.330843 -2.31144 0
M  V30 1461 C 143.809 0.575005 -1.60087 0
M  V30 1462 O 144.994 0.493304 -1.8783 0
M  V30 1463 C 142.124 0.47374 -3.44054 0
M  V30 1464 C 141.078 -0.338481 -4.26659 0
M  V30 1465 C 140.404 0.591412 -5.31419 0
M  V30 1466 C 141.704 -1.56926 -4.98168 0
M  V30 1467 H 143.398 -1.16086 -2.75979 0
M  V30 1468 H 140.944 -0.559657 -1.32679 0
M  V30 1469 H 142.897 0.857143 -4.12591 0
M  V30 1470 H 141.621 1.33721 -2.9797 0
M  V30 1471 H 140.28 -0.703754 -3.59782 0
M  V30 1472 H 139.928 1.45199 -4.81587 0
M  V30 1473 H 139.628 0.0519022 -5.87577 0
M  V30 1474 H 141.152 0.97179 -6.02817 0
M  V30 1475 H 142.566 -1.25764 -5.59336 0
M  V30 1476 H 140.963 -2.04739 -5.64094 0
M  V30 1477 H 142.033 -2.32544 -4.25501 0
M  V30 1478 N 143.376 1.44774 -0.622745 0
M  V30 1479 C 144.787 1.85546 -0.207226 0
M  V30 1480 C 145.138 1.52093 1.23944 0
M  V30 1481 O 144.263 0.95492 1.94191 0
M  V30 1482 C 144.858 3.36781 -0.369313 0
M  V30 1483 C 143.417 3.76399 -0.00836847 0
M  V30 1484 C 142.564 2.68664 -0.686651 0
M  V30 1485 H 145.515 1.3536 -0.828454 0
M  V30 1486 H 145.536 3.78453 0.394162 0
M  V30 1487 H 145.048 3.61098 -1.42231 0
M  V30 1488 H 143.149 3.57698 1.04322 0
M  V30 1489 H 143.262 4.7732 -0.412584 0
M  V30 1490 H 141.626 2.54404 -0.122777 0
M  V30 1491 H 142.409 2.95815 -1.74208 0
M  V30 1492 N 144.854 0.36279 1.53368 0
M  V30 1493 C 146.131 -0.284021 1.93527 0
M  V30 1494 C 146.511 -1.66628 1.29608 0
M  V30 1495 O 145.859 -2.23942 0.45413 0
M  V30 1496 C 146.069 -0.337028 3.47369 0
M  V30 1497 C 147.417 -0.578708 4.20638 0
M  V30 1498 O 148.441 -0.418352 3.53735 0
M  V30 1499 O 147.3 -0.89074 5.39192 0
M  V30 1500 H 144.394 -0.169743 0.809393 0
M  V30 1501 H 146.94 0.41537 1.64538 0
M  V30 1502 H 145.712 0.632217 3.86159 0
M  V30 1503 H 145.335 -1.08243 3.82582 0
M  V30 1504 N 146.332 -1.57332 0.0918853 0
M  V30 1505 C 147.58 -1.93853 -0.571446 0
M  V30 1506 C 147.901 -0.974212 -1.6892 0
M  V30 1507 O 147.171 -0.0257254 -1.95883 0
M  V30 1508 H 145.751 -0.715666 -0.214082 0
M  V30 1509 H 148.413 -1.94287 0.154464 0
M  V30 1510 H 147.509 -2.96191 -0.983729 0
M  V30 1511 N 147.81 0.181792 -1.56548 0
M  V30 1512 C 148.76 1.22961 -1.92002 0
M  V30 1513 C 149.744 1.40331 -0.787146 0
M  V30 1514 O 150.936 1.42478 -1.05019 0
M  V30 1515 C 148.065 2.57144 -2.27446 0
M  V30 1516 C 147.151 2.43512 -3.47222 0
M  V30 1517 N 147.542 1.99577 -4.64761 0
M  V30 1518 C 145.84 2.74368 -3.51622 0
M  V30 1519 C 146.541 1.98156 -5.46909 0
M  V30 1520 N 145.517 2.40164 -4.8767 0
M  V30 1521 H 149.319 0.881462 -2.8037 0
M  V30 1522 H 146.833 0.390141 -1.57644 0
M  V30 1523 H 148.83 3.32847 -2.51035 0
M  V30 1524 H 147.49 2.92771 -1.40411 0
M  V30 1525 H 148.501 1.70078 -4.89177 0
M  V30 1526 H 145.178 3.14102 -2.75038 0
M  V30 1527 H 146.568 1.65975 -6.51077 0
M  V30 1528 N 149.288 1.51039 0.449983 0
M  V30 1529 C 150.198 1.74261 1.57067 0
M  V30 1530 C 151.214 0.626363 1.62335 0
M  V30 1531 O 152.39 0.907162 1.79812 0
M  V30 1532 C 149.455 1.85114 2.93144 0
M  V30 1533 C 148.516 3.0893 2.98095 0
M  V30 1534 C 147.749 3.19256 4.27681 0
M  V30 1535 O 147.972 2.35835 5.19363 0
M  V30 1536 O 146.906 4.12144 4.38658 0
M  V30 1537 H 150.732 2.69303 1.40391 0
M  V30 1538 H 148.317 1.35389 0.631688 0
M  V30 1539 H 150.199 1.94311 3.73926 0
M  V30 1540 H 148.874 0.932588 3.09975 0
M  V30 1541 H 147.781 3.0522 2.16314 0
M  V30 1542 H 149.114 4.00433 2.86206 0
M  V30 1543 N 150.766 -0.704594 1.40972 0
M  V30 1544 C 151.696 -1.83124 1.44872 0
M  V30 1545 C 152.677 -1.67281 0.30838 0
M  V30 1546 O 153.862 -1.87149 0.518556 0
M  V30 1547 C 150.992 -3.21181 1.32136 0
M  V30 1548 C 149.946 -3.51714 2.43888 0
M  V30 1549 C 149.272 -4.89032 2.16222 0
M  V30 1550 C 150.572 -3.516 3.86232 0
M  V30 1551 H 152.266 -1.80117 2.39161 0
M  V30 1552 H 149.812 -0.865145 1.15114 0
M  V30 1553 H 151.765 -3.99702 1.33479 0
M  V30 1554 H 150.489 -3.24791 0.343279 0
M  V30 1555 H 149.148 -2.75539 2.41813 0
M  V30 1556 H 148.796 -4.89256 1.16778 0
M  V30 1557 H 148.496 -5.10426 2.911 0
M  V30 1558 H 150.02 -5.69873 2.19265 0
M  V30 1559 H 151.434 -4.2014 3.9007 0
M  V30 1560 H 149.831 -3.84523 4.60719 0
M  V30 1561 H 150.901 -2.50757 4.15029 0
M  V30 1562 N 152.244 -1.26651 -0.937939 0
M  V30 1563 C 153.472 -1.15173 -1.7188 0
M  V30 1564 C 153.887 0.292668 -1.86518 0
M  V30 1565 O 153.244 1.20014 -1.37488 0
M  V30 1566 C 153.295 -1.81925 -3.12387 0
M  V30 1567 O 153.016 -3.2072 -2.98446 0
M  V30 1568 C 154.517 -1.76442 -4.06673 0
M  V30 1569 H 151.737 -0.400911 -0.538063 0
M  V30 1570 H 154.281 -1.67332 -1.1756 0
M  V30 1571 H 152.436 -1.33696 -3.63599 0
M  V30 1572 H 152.85 -3.53802 -3.872 0
M  V30 1573 H 154.324 -2.27781 -5.02812 0
M  V30 1574 H 154.801 -0.731608 -4.33064 0
M  V30 1575 H 155.407 -2.24238 -3.61382 0
M  V30 1576 N 153.722 1.14298 -1.08507 0
M  V30 1577 C 154.969 1.85359 -0.815373 0
M  V30 1578 C 155.297 1.83001 0.658865 0
M  V30 1579 O 154.552 1.25655 1.50031 0
M  V30 1580 C 154.851 3.33547 -1.28379 0
M  V30 1581 C 154.517 3.56093 -2.76602 0
M  V30 1582 C 153.179 3.61955 -3.17084 0
M  V30 1583 C 155.531 3.64834 -3.72217 0
M  V30 1584 C 152.859 3.74082 -4.51973 0
M  V30 1585 C 155.211 3.78487 -5.06883 0
M  V30 1586 C 153.875 3.82598 -5.46969 0
M  V30 1587 H 153.145 0.678276 -0.298366 0
M  V30 1588 H 155.792 1.35002 -1.35819 0
M  V30 1589 H 154.097 3.86191 -0.660593 0
M  V30 1590 H 155.794 3.86959 -1.05186 0
M  V30 1591 H 152.384 3.52179 -2.4427 0
M  V30 1592 H 156.568 3.59595 -3.42061 0
M  V30 1593 H 151.824 3.75527 -4.82483 0
M  V30 1594 H 155.998 3.84193 -5.80834 0
M  V30 1595 H 153.625 3.91747 -6.51489 0
M  V30 1596 N 155.201 0.870884 1.31352 0
M  V30 1597 C 156.612 0.534714 1.78879 0
M  V30 1598 C 156.963 -0.948423 1.71754 0
M  V30 1599 O 156.088 -1.74055 1.28584 0
M  V30 1600 C 156.683 0.963839 3.24801 0
M  V30 1601 C 155.242 0.679311 3.70219 0
M  V30 1602 C 154.389 1.15465 2.52117 0
M  V30 1603 H 157.34 1.05651 1.18421 0
M  V30 1604 H 157.361 0.286892 3.79417 0
M  V30 1605 H 156.873 2.04332 3.29955 0
M  V30 1606 H 154.974 -0.388769 3.70566 0
M  V30 1607 H 155.087 1.25698 4.62317 0
M  V30 1608 H 153.451 0.574383 2.48139 0
M  V30 1609 H 154.234 2.24157 2.60016 0
M  V30 1610 N 156.679 -1.44442 0.630414 0
M  V30 1611 C 157.627 -2.32437 -0.0871428 0
M  V30 1612 C 158.621 -1.47304 -0.836525 0
M  V30 1613 O 159.827 -1.63653 -0.749506 0
M  V30 1614 H 156.202 -0.750533 -0.0469495 0
M  V30 1615 H 158.173 -2.90709 0.673096 0
M  V30 1616 C 156.922 -3.31288 -1.05563 0
M  V30 1617 H 156.245 -3.96805 -0.488426 0
M  V30 1618 H 157.685 -3.9554 -1.52721 0
M  V30 1619 C 156.144 -2.6016 -2.14052 0
M  V30 1620 O 156.674 -2.39997 -3.22124 0
M  V30 1621 N 154.88 -2.19911 -1.89967 0
M  V30 1622 H 154.427 -2.36509 -1.02085 0
M  V30 1623 H 154.385 -1.72646 -2.62756 0
M  V30 1624 N 158.157 -0.370918 -1.53173 0
M  V30 1625 C 159.573 -0.0200818 -1.59587 0
M  V30 1626 C 159.773 1.46279 -1.38581 0
M  V30 1627 O 158.829 2.22506 -1.19363 0
M  V30 1628 C 160.142 -0.4808 -2.96831 0
M  V30 1629 C 161.69 -0.435477 -3.09956 0
M  V30 1630 C 162.165 -0.872092 -4.4962 0
M  V30 1631 N 163.656 -0.827364 -4.55751 0
M  V30 1632 C 164.391 -1.13683 -5.62018 0
M  V30 1633 N 163.887 -1.51584 -6.76014 0
M  V30 1634 N 165.68 -1.05927 -5.52029 0
M  V30 1635 H 157.831 -1.33652 -1.65079 0
M  V30 1636 H 160.094 -0.546634 -0.774529 0
M  V30 1637 H 159.8 -1.51577 -3.1736 0
M  V30 1638 H 159.674 0.129796 -3.76977 0
M  V30 1639 H 162.061 0.590371 -2.89134 0
M  V30 1640 H 162.142 -1.08164 -2.31806 0
M  V30 1641 H 161.786 -1.89608 -4.71181 0
M  V30 1642 H 161.716 -0.203127 -5.26208 0
M  V30 1643 H 164.207 -0.548216 -3.73902 0
M  V30 1644 H 164.52 -1.73609 -7.53047 0
M  V30 1645 H 162.865 -1.55454 -6.77391 0
M  V30 1646 H 166.056 -0.762321 -4.61851 0
M  V30 1647 H 166.229 -1.30378 -6.34749 0
M  V30 1648 N 159.635 1.57281 -0.100228 0
M  V30 1649 C 160.565 2.17328 0.853857 0
M  V30 1650 C 161.546 1.10804 1.2906 0
M  V30 1651 O 162.731 1.38963 1.35657 0
M  V30 1652 C 159.861 2.75772 2.11109 0
M  V30 1653 C 158.815 3.87713 1.81279 0
M  V30 1654 C 158.141 4.32882 3.13874 0
M  V30 1655 C 159.441 5.10677 1.09574 0
M  V30 1656 H 161.135 2.97305 0.353545 0
M  V30 1657 H 158.681 1.43009 0.168612 0
M  V30 1658 H 160.634 3.16433 2.78296 0
M  V30 1659 H 159.358 1.93057 2.63432 0
M  V30 1660 H 158.017 3.476 1.16489 0
M  V30 1661 H 157.665 3.47051 3.64095 0
M  V30 1662 H 157.365 5.08358 2.94696 0
M  V30 1663 H 158.889 4.7618 3.82211 0
M  V30 1664 H 160.303 5.48474 1.66879 0
M  V30 1665 H 158.7 5.91615 1.00557 0
M  V30 1666 H 159.77 4.84835 0.0793299 0
M  V30 1667 N 161.113 -0.173488 1.56642 0
M  V30 1668 C 162.361 -0.888706 1.81512 0
M  V30 1669 C 162.682 -1.82875 0.676872 0
M  V30 1670 O 161.952 -1.93536 -0.303414 0
M  V30 1671 H 160.532 -0.331164 0.669582 0
M  V30 1672 H 163.194 -0.173823 1.94123 0
M  V30 1673 H 162.29 -1.46691 2.75478 0
M  V30 1674 N 162.591 -1.51276 -0.441967 0
M  V30 1675 C 163.541 -1.6864 -1.53442 0
M  V30 1676 C 164.525 -0.540444 -1.51552 0
M  V30 1677 O 165.717 -0.796157 -1.58083 0
M  V30 1678 C 162.846 -1.8106 -2.91672 0
M  V30 1679 C 161.932 -3.01424 -2.98336 0
M  V30 1680 N 162.323 -4.2467 -2.74752 0
M  V30 1681 C 160.621 -3.00584 -3.29493 0
M  V30 1682 C 161.322 -5.05891 -2.87139 0
M  V30 1683 N 160.298 -4.40442 -3.18609 0
M  V30 1684 H 164.1 -2.61598 -1.33954 0
M  V30 1685 H 161.614 -1.4886 -0.6492 0
M  V30 1686 H 163.611 -1.91609 -3.70259 0
M  V30 1687 H 162.271 -0.892795 -3.12185 0
M  V30 1688 H 163.282 -4.53691 -2.49769 0
M  V30 1689 H 159.959 -2.18417 -3.55809 0
M  V30 1690 H 161.349 -6.13983 -2.72899 0
M  V30 1691 N 164.069 0.697108 -1.41344 0
M  V30 1692 C 165.294 1.49096 -1.44171 0
M  V30 1693 C 165.719 1.88038 -0.0481568 0
M  V30 1694 O 165.077 1.54525 0.948243 0
M  V30 1695 C 165.125 2.73088 -2.3549 0
M  V30 1696 O 164.229 3.70514 -1.81088 0
M  V30 1697 H 163.57 0.448801 -0.489361 0
M  V30 1698 H 166.1 0.856992 -1.85787 0
M  V30 1699 H 166.11 3.21413 -2.51312 0
M  V30 1700 H 164.785 2.44081 -3.36745 0
M  V30 1701 H 163.362 3.29441 -1.74708 0
M  V30 1702 N 165.547 1.27147 0.931209 0
M  V30 1703 C 166.497 1.06227 2.01742 0
M  V30 1704 C 167.481 -0.00859065 1.60898 0
M  V30 1705 O 168.673 0.209537 1.75755 0
M  V30 1706 C 165.802 0.707787 3.35924 0
M  V30 1707 C 164.888 1.81661 3.83223 0
M  V30 1708 N 165.279 3.05564 4.03069 0
M  V30 1709 C 163.577 1.70249 4.12227 0
M  V30 1710 C 164.278 3.77697 4.42403 0
M  V30 1711 N 163.254 3.0544 4.49675 0
M  V30 1712 H 167.056 2.00261 2.15111 0
M  V30 1713 H 164.57 1.1781 1.11779 0
M  V30 1714 H 166.567 0.539043 4.134 0
M  V30 1715 H 165.227 -0.224964 3.2392 0
M  V30 1716 H 166.238 3.41363 3.89476 0
M  V30 1717 H 162.915 0.840329 4.08956 0
M  V30 1718 H 164.305 4.84168 4.65866 0
M  V30 1719 N 167.025 -1.13721 1.09112 0
M  V30 1720 C 167.955 -2.21148 0.749385 0
M  V30 1721 C 168.936 -1.6792 -0.271475 0
M  V30 1722 O 170.121 -1.93693 -0.140251 0
M  V30 1723 C 167.251 -3.46905 0.165659 0
M  V30 1724 C 166.205 -4.13203 1.11567 0
M  V30 1725 C 165.531 -5.33248 0.393809 0
M  V30 1726 C 166.831 -4.60912 2.45678 0
M  V30 1727 H 168.525 -2.4999 1.64758 0
M  V30 1728 H 166.071 -1.20156 0.793626 0
M  V30 1729 H 168.024 -4.21313 -0.085466 0
M  V30 1730 H 166.748 -3.17449 -0.767714 0
M  V30 1731 H 165.407 -3.40758 1.35202 0
M  V30 1732 H 165.055 -5.00054 -0.543599 0
M  V30 1733 H 164.755 -5.78552 1.02721 0
M  V30 1734 H 166.279 -6.10413 0.150908 0
M  V30 1735 H 167.693 -5.26759 2.26269 0
M  V30 1736 H 166.09 -5.16944 3.04776 0
M  V30 1737 H 167.16 -3.75603 3.06677 0
M  V30 1738 N 168.503 -0.877838 -1.30888 0
M  V30 1739 C 169.728 -0.506629 -2.01117 0
M  V30 1740 C 170.153 0.895564 -1.65412 0
M  V30 1741 O 169.511 1.5923 -0.866922 0
M  V30 1742 C 169.559 -0.680223 -3.54126 0
M  V30 1743 O 168.663 0.277033 -4.11468 0
M  V30 1744 H 168.004 -0.200518 -0.633 0
M  V30 1745 H 170.534 -1.18342 -1.66902 0
M  V30 1746 H 170.544 -0.5765 -4.03907 0
M  V30 1747 H 169.219 -1.70261 -3.79452 0
M  V30 1748 H 167.796 0.127606 -3.72682 0
M  V30 1749 N 169.982 1.44106 -0.638065 0
M  V30 1750 C 171.212 2.06037 -0.152394 0
M  V30 1751 C 171.62 1.47808 1.18108 0
M  V30 1752 O 170.963 0.598092 1.73691 0
M  V30 1753 C 171.025 3.59488 0.0293714 0
M  V30 1754 C 170.689 4.4022 -1.22702 0
M  V30 1755 C 171.686 4.73256 -2.15232 0
M  V30 1756 C 169.371 4.8048 -1.46437 0
M  V30 1757 C 171.365 5.45444 -3.29802 0
M  V30 1758 C 169.052 5.52417 -2.61303 0
M  V30 1759 C 170.05 5.84819 -3.52811 0
M  V30 1760 O 169.738 6.55289 -4.65673 0
M  V30 1761 H 169.47 0.671233 -0.0801401 0
M  V30 1762 H 172.024 1.85851 -0.874563 0
M  V30 1763 H 170.254 3.78191 0.806758 0
M  V30 1764 H 171.943 4.03164 0.470475 0
M  V30 1765 H 172.709 4.42684 -1.98131 0
M  V30 1766 H 168.588 4.54676 -0.760977 0
M  V30 1767 H 172.132 5.70653 -4.01249 0
M  V30 1768 H 168.029 5.82404 -2.78344 0
M  V30 1769 H 168.797 6.73762 -4.64744 0
M  V30 1770 N 171.46 0.379036 1.52974 0
M  V30 1771 C 172.39 -0.452706 2.29069 0
M  V30 1772 C 173.371 -1.07237 1.32039 0
M  V30 1773 O 174.556 -1.08708 1.60923 0
M  V30 1774 C 171.686 -1.5856 3.08992 0
M  V30 1775 C 170.64 -1.0925 4.13822 0
M  V30 1776 C 169.966 -2.31668 4.81907 0
M  V30 1777 C 171.266 -0.167702 5.22031 0
M  V30 1778 H 172.96 0.182181 2.98845 0
M  V30 1779 H 170.506 0.0890592 1.43724 0
M  V30 1780 H 172.459 -2.1742 3.6098 0
M  V30 1781 H 171.183 -2.24792 2.36931 0
M  V30 1782 H 169.842 -0.526494 3.628 0
M  V30 1783 H 169.49 -2.96386 4.06404 0
M  V30 1784 H 169.19 -1.9934 5.52754 0
M  V30 1785 H 170.714 -2.91189 5.36695 0
M  V30 1786 H 172.128 -0.664186 5.6944 0
M  V30 1787 H 170.525 0.0653265 6.00064 0
M  V30 1788 H 171.595 0.786347 4.78482 0
M  V30 1789 N 172.938 -1.57226 0.108567 0
M  V30 1790 C 174.163 -1.99604 -0.563303 0
M  V30 1791 C 174.588 -0.987563 -1.6009 0
M  V30 1792 O 173.946 0.0421687 -1.81251 0
M  V30 1793 C 173.994 -3.40902 -1.17552 0
M  V30 1794 O 173.098 -3.42896 -2.2912 0
M  V30 1795 H 172.439 -0.648704 -0.1417 0
M  V30 1796 H 174.969 -2.03679 0.193961 0
M  V30 1797 H 174.979 -3.78886 -1.51357 0
M  V30 1798 H 173.654 -4.1382 -0.415445 0
M  V30 1799 H 172.231 -3.1672 -1.96832 0
M  V30 1800 N 174.416 0.165178 -1.56732 0
M  V30 1801 C 175.662 0.882112 -1.82611 0
M  V30 1802 C 175.995 1.81628 -0.687378 0
M  V30 1803 O 175.27 1.92009 0.310267 0
M  V30 1804 C 175.553 1.67245 -3.18906 0
M  V30 1805 C 175.406 0.760987 -4.43316 0
M  V30 1806 C 176.725 2.63884 -3.52212 0
M  V30 1807 H 173.844 0.319242 -0.664269 0
M  V30 1808 H 176.486 0.148052 -1.89422 0
M  V30 1809 H 174.636 2.29824 -3.1323 0
M  V30 1810 H 176.308 0.147596 -4.61064 0
M  V30 1811 H 174.551 0.0694102 -4.33744 0
M  V30 1812 H 175.222 1.34962 -5.35247 0
M  V30 1813 H 177.698 2.11429 -3.58381 0
M  V30 1814 H 176.574 3.16245 -4.48643 0
M  V30 1815 H 176.835 3.44377 -2.77231 0
M  V30 1816 N 175.894 1.51508 0.433938 0
M  V30 1817 C 177.31 1.39759 0.770682 0
M  V30 1818 C 177.51 0.482594 1.95636 0
M  V30 1819 O 176.566 -0.0609691 2.52426 0
M  V30 1820 C 177.879 2.81851 1.04787 0
M  V30 1821 C 179.427 2.91025 1.1521 0
M  V30 1822 C 179.902 4.34032 1.46219 0
M  V30 1823 N 181.393 4.37154 1.53136 0
M  V30 1824 C 182.128 5.4484 1.78709 0
M  V30 1825 N 181.624 6.62682 2.02051 0
M  V30 1826 N 183.417 5.32324 1.80519 0
M  V30 1827 H 175.568 2.09548 -0.346892 0
M  V30 1828 H 177.831 0.943446 -0.0928074 0
M  V30 1829 H 177.537 3.50815 0.249304 0
M  V30 1830 H 177.411 3.21386 1.97461 0
M  V30 1831 H 179.798 2.22257 1.94128 0
M  V30 1832 H 179.879 2.54983 0.204281 0
M  V30 1833 H 179.523 5.03351 0.678274 0
M  V30 1834 H 179.453 4.6759 2.42212 0
M  V30 1835 H 181.944 3.52197 1.36987 0
M  V30 1836 H 182.257 7.40543 2.20943 0
M  V30 1837 H 180.602 6.65791 1.99366 0
M  V30 1838 H 183.793 4.39246 1.61805 0
M  V30 1839 H 183.966 6.16328 2.00111 0
M  V30 1840 N 177.372 -0.689602 1.41712 0
M  V30 1841 C 178.62 -1.4468 1.4111 0
M  V30 1842 C 178.941 -1.94986 0.0232196 0
M  V30 1843 O 178.211 -1.72097 -0.935913 0
M  V30 1844 H 176.791 -0.536847 0.519427 0
M  V30 1845 H 179.453 -0.815825 1.77004 0
M  V30 1846 H 178.549 -2.30706 2.10193 0
M  V30 1847 N 178.85 -1.27639 -0.924453 0
M  V30 1848 C 180.098 -1.13941 -1.66918 0
M  V30 1849 C 180.419 0.314589 -1.92446 0
M  V30 1850 O 179.689 1.21964 -1.53303 0
M  V30 1851 H 178.269 -0.418678 -0.618642 0
M  V30 1852 H 180.931 -1.60213 -1.10985 0
M  V30 1853 H 180.027 -1.67094 -2.63602 0
M  V30 1854 N 180.328 1.1314 -1.09713 0
M  V30 1855 C 181.575 1.84484 -0.834987 0
M  V30 1856 C 181.903 1.83689 0.639418 0
M  V30 1857 O 181.158 1.2724 1.4869 0
M  V30 1858 C 181.457 3.32167 -1.3191 0
M  V30 1859 C 181.123 3.53139 -2.80363 0
M  V30 1860 C 179.785 3.58571 -3.20905 0
M  V30 1861 C 182.137 3.60866 -3.76065 0
M  V30 1862 C 179.465 3.69267 -4.55916 0
M  V30 1863 C 181.817 3.73089 -5.10869 0
M  V30 1864 C 180.481 3.76775 -5.50996 0
M  V30 1865 H 179.751 0.675073 -0.305544 0
M  V30 1866 H 182.398 1.33554 -1.37243 0
M  V30 1867 H 180.703 3.85469 -0.701517 0
M  V30 1868 H 182.4 3.85821 -1.09284 0
M  V30 1869 H 178.99 3.49569 -2.47991 0
M  V30 1870 H 183.174 3.55946 -3.45855 0
M  V30 1871 H 178.43 3.70388 -4.86438 0
M  V30 1872 H 182.604 3.78011 -5.84877 0
M  V30 1873 H 180.231 3.84815 -6.55608 0
M  V30 1874 N 181.806 0.884767 1.30421 0
M  V30 1875 C 182.754 0.340869 2.30089 0
M  V30 1876 C 183.748 -0.55201 1.60154 0
M  V30 1877 O 184.954 -0.436467 1.74628 0
M  V30 1878 H 181.329 0.0915739 0.746404 0
M  V30 1879 H 183.3 1.19513 2.73421 0
M  V30 1880 C 182.049 -0.429779 3.45034 0
M  V30 1881 H 181.372 0.248024 3.9903 0
M  V30 1882 H 182.812 -0.775445 4.16849 0
M  V30 1883 C 181.271 -1.62677 2.95022 0
M  V30 1884 O 181.801 -2.72614 2.95033 0
M  V30 1885 N 180.007 -1.46387 2.51036 0
M  V30 1886 H 179.554 -0.569506 2.51226 0
M  V30 1887 H 179.512 -2.26612 2.17932 0
M  V30 1888 N 183.284 -1.43765 0.645699 0
M  V30 1889 C 184.217 -2.2798 -0.100072 0
M  V30 1890 C 185.195 -1.39391 -0.837194 0
M  V30 1891 O 186.379 -1.68833 -0.838306 0
M  V30 1892 C 183.506 -3.18643 -1.14823 0
M  V30 1893 C 182.552 -4.2344 -0.510009 0
M  V30 1894 S 183.385 -5.30761 0.710824 0
M  V30 1895 C 184.541 -6.24992 -0.33699 0
M  V30 1896 H 184.774 -2.90884 0.614322 0
M  V30 1897 H 182.307 -1.48166 0.434304 0
M  V30 1898 H 184.265 -3.71424 -1.74799 0
M  V30 1899 H 182.926 -2.54932 -1.8349 0
M  V30 1900 H 182.119 -4.86948 -1.29991 0
M  V30 1901 H 181.721 -3.73997 0.0154577 0
M  V30 1902 H 184.013 -6.66691 -1.20537 0
M  V30 1903 H 184.956 -7.07612 0.262879 0
M  V30 1904 H 185.364 -5.60517 -0.669425 0
M  V30 1905 N 184.763 -0.387143 -1.52771 0
M  V30 1906 C 185.988 0.198407 -2.06449 0
M  V30 1907 C 186.413 1.39918 -1.25716 0
M  V30 1908 O 185.771 1.79099 -0.281657 0
M  V30 1909 C 185.819 0.548893 -3.56398 0
M  V30 1910 O 184.923 1.64315 -3.78252 0
M  V30 1911 H 184.264 0.0237731 -0.663574 0
M  V30 1912 H 186.794 -0.553989 -1.96957 0
M  V30 1913 H 186.804 0.813812 -3.99801 0
M  V30 1914 H 185.479 -0.329005 -4.14597 0
M  V30 1915 H 184.056 1.37211 -3.46738 0
M  V30 1916 N 186.241 1.57166 -0.116904 0
M  V30 1917 C 187.466 1.999 0.55271 0
M  V30 1918 C 187.891 0.996039 1.59564 0
M  V30 1919 O 187.249 -0.032556 1.81271 0
M  V30 1920 C 187.297 3.4152 1.15742 0
M  V30 1921 O 186.401 3.44106 2.27299 0
M  V30 1922 H 185.742 0.649447 0.138258 0
M  V30 1923 H 188.272 2.03573 -0.204759 0
M  V30 1924 H 188.282 3.79684 1.49346 0
M  V30 1925 H 186.957 4.14034 0.393493 0
M  V30 1926 H 185.534 3.17759 1.9515 0
M  V30 1927 N 187.719 -0.156864 1.56817 0
M  V30 1928 C 188.966 -0.871125 1.82805 0
M  V30 1929 C 189.294 -1.81611 0.696262 0
M  V30 1930 O 188.549 -1.93141 -0.315459 0
M  V30 1931 C 188.848 -1.68737 3.1506 0
M  V30 1932 C 188.514 -0.890045 4.42028 0
M  V30 1933 C 187.176 -0.670042 4.76512 0
M  V30 1934 C 189.528 -0.331769 5.20143 0
M  V30 1935 C 186.856 0.119104 5.86579 0
M  V30 1936 C 189.208 0.444365 6.31037 0
M  V30 1937 C 187.872 0.675035 6.64078 0
M  V30 1938 H 187.142 -0.318767 0.668931 0
M  V30 1939 H 189.789 -0.135274 1.91022 0
M  V30 1940 H 188.094 -2.49304 3.0225 0
M  V30 1941 H 189.791 -2.24331 3.3238 0
M  V30 1942 H 186.381 -1.07157 4.14988 0
M  V30 1943 H 190.565 -0.489043 4.93885 0
M  V30 1944 H 185.821 0.307417 6.10627 0
M  V30 1945 H 189.995 0.884139 6.90765 0
M  V30 1946 H 187.622 1.28839 7.49203 0
M  V30 1947 N 189.197 -1.51736 -0.425897 0
M  V30 1948 C 190.144 -1.73875 -1.51776 0
M  V30 1949 C 191.114 -0.580702 -1.55618 0
M  V30 1950 O 192.299 -0.81641 -1.72451 0
M  V30 1951 C 189.439 -1.88012 -2.89388 0
M  V30 1952 C 188.552 -3.15606 -2.94986 0
M  V30 1953 C 187.687 -3.20271 -4.23793 0
M  V30 1954 C 186.726 -4.42134 -4.23302 0
M  V30 1955 N 185.863 -4.44284 -5.43651 0
M  V30 1956 H 190.703 -2.67071 -1.32201 0
M  V30 1957 H 188.24 -1.32351 -0.642008 0
M  V30 1958 H 190.198 -1.9419 -3.69251 0
M  V30 1959 H 188.828 -0.98213 -3.07496 0
M  V30 1960 H 187.88 -3.18681 -2.07717 0
M  V30 1961 H 189.192 -4.05486 -2.90486 0
M  V30 1962 H 188.346 -3.25428 -5.12036 0
M  V30 1963 H 187.085 -2.28299 -4.30965 0
M  V30 1964 H 186.09 -4.3714 -3.3345 0
M  V30 1965 H 187.315 -5.35382 -4.17783 0
M  V30 1966 H 185.261 -3.55188 -5.51523 0
M  V30 1967 H 185.178 -5.27988 -5.41078 0
M  V30 1968 H 186.446 -4.53649 -6.33895 0
M  V30 1969 N 190.675 0.682077 -1.42076 0
M  V30 1970 C 191.605 1.80796 -1.47767 0
M  V30 1971 C 192.586 1.6677 -0.334954 0
M  V30 1972 O 193.771 1.863 -0.548264 0
M  V30 1973 C 190.901 3.19038 -1.37229 0
M  V30 1974 C 189.855 3.47789 -2.49453 0
M  V30 1975 C 189.181 4.8553 -2.23975 0
M  V30 1976 C 190.481 3.45411 -3.91776 0
M  V30 1977 H 192.175 1.7629 -2.41997 0
M  V30 1978 H 189.721 0.846721 -1.16476 0
M  V30 1979 H 191.674 3.97528 -1.39821 0
M  V30 1980 H 190.398 3.24204 -0.394907 0
M  V30 1981 H 189.057 2.71657 -2.46166 0
M  V30 1982 H 188.705 4.87337 -1.24547 0
M  V30 1983 H 188.405 5.0573 -2.99184 0
M  V30 1984 H 189.929 5.66312 -2.28304 0
M  V30 1985 H 191.343 4.13882 -3.96705 0
M  V30 1986 H 189.74 3.77145 -4.66778 0
M  V30 1987 H 190.81 2.44122 -4.18966 0
M  V30 1988 N 192.153 1.28127 0.917671 0
M  V30 1989 C 193.1 1.11717 2.0196 0
M  V30 1990 C 194.07 0.0153929 1.66093 0
M  V30 1991 O 195.255 0.179596 1.89953 0
M  V30 1992 C 192.395 0.780927 3.36148 0
M  V30 1993 C 191.508 1.96135 3.84909 0
M  V30 1994 C 190.643 1.56609 5.0759 0
M  V30 1995 C 189.682 2.71339 5.48673 0
M  V30 1996 N 188.819 2.32332 6.62545 0
M  V30 1997 H 193.659 2.06003 2.15329 0
M  V30 1998 H 191.196 1.02535 1.05475 0
M  V30 1999 H 193.154 0.56675 4.13333 0
M  V30 2000 H 191.784 -0.124998 3.22558 0
M  V30 2001 H 190.836 2.28777 3.03916 0
M  V30 2002 H 192.148 2.82165 4.1132 0
M  V30 2003 H 191.302 1.31374 5.92305 0
M  V30 2004 H 190.041 0.677014 4.82978 0
M  V30 2005 H 189.046 2.97276 4.62501 0
M  V30 2006 H 190.271 3.60882 5.75274 0
M  V30 2007 H 188.217 1.45889 6.39572 0
M  V30 2008 H 188.134 3.11899 6.88662 0
M  V30 2009 H 189.402 2.10371 7.50576 0
M  V30 2010 N 193.631 -1.12557 1.10312 0
M  V30 2011 C 194.541 -2.21841 0.763142 0
M  V30 2012 C 195.557 -1.72354 -0.238801 0
M  V30 2013 O 196.733 -2.01249 -0.0778746 0
M  V30 2014 C 193.798 -3.46131 0.198632 0
M  V30 2015 C 192.859 -4.10464 1.25769 0
M  V30 2016 C 192.092 -5.28821 0.72002 0
M  V30 2017 O 192.315 -5.6859 -0.453993 0
M  V30 2018 O 191.249 -5.83437 1.47935 0
M  V30 2019 H 195.075 -2.53312 1.67532 0
M  V30 2020 H 192.66 -1.20867 0.878157 0
M  V30 2021 H 194.542 -4.2125 -0.112401 0
M  V30 2022 H 193.217 -3.16338 -0.686419 0
M  V30 2023 H 192.124 -3.3713 1.62156 0
M  V30 2024 H 193.457 -4.44408 2.11571 0
M  V30 2025 O 195.148 -1.02442 -1.24852 0
M  V30 2026 H 195.839 -0.688008 -1.81069 0
M  V30 END ATOM
M  V30 BEGIN BOND
M  V30 END BOND
M  V30 END CTAB
M  END
$$$$
