drugbank_target|P51617 Interleukin-1 receptor-associated kinase 1 (DB12010)
 OpenBabel12092121163D

  0  0  0     0  0            999 V3000
M  V30 BEGIN CTAB
M  V30 COUNTS 10684 10835 0 0 0
M  V30 BEGIN ATOM
M  V30 1 H -0.908 1.98254 -0.117106 0
M  V30 2 N 0 1.576 0 0
M  V30 3 C 0.933 2.03868 1.02534 0
M  V30 4 C 1.911 0.928543 1.3348 0
M  V30 5 O 3.095 1.19667 1.45644 0
M  V30 6 C 0.222 2.43627 2.35294 0
M  V30 7 C -0.732 3.65373 2.2001 0
M  V30 8 S 0.101 5.13292 1.52614 0
M  V30 9 C 1.257 5.56322 2.86805 0
M  V30 10 H 1.49 2.90518 0.631377 0
M  V30 11 H -0.977 1.52953 0.210867 0
M  V30 12 H 0.981 2.67203 3.11629 0
M  V30 13 H -0.358 1.57376 2.7183 0
M  V30 14 H -1.165 3.90944 3.18086 0
M  V30 15 H -1.563 3.418 1.51819 0
M  V30 16 H 0.729 5.58782 3.83104 0
M  V30 17 H 1.672 6.56266 2.65933 0
M  V30 18 H 2.08 4.83886 2.90714 0
M  V30 19 N 1.4781 -0.272755 1.55222 0
M  V30 20 C 2.4411 -1.32041 1.87344 0
M  V30 21 C 3.4411 -1.42342 0.74803 0
M  V30 22 O 4.6311 -1.41488 1.0162 0
M  V30 23 C 1.7631 -2.70173 2.07893 0
M  V30 24 H 2.9561 -1.04789 2.80997 0
M  V30 25 H 0.5091 -0.51083 1.47717 0
M  V30 26 H 1.2441 -3.02605 1.16622 0
M  V30 27 H 1.0291 -2.64082 2.89833 0
M  V30 28 H 2.5191 -3.45869 2.34017 0
M  V30 29 N 2.9562 -1.48159 -0.537278 0
M  V30 30 C 4.2042 -1.55497 -1.29094 0
M  V30 31 C 4.5252 -0.227454 -1.93669 0
M  V30 32 O 3.7952 0.750386 -1.80959 0
M  V30 33 H 2.3752 -0.572832 -0.47945 0
M  V30 34 H 5.0372 -1.84579 -0.625818 0
M  V30 35 H 4.1332 -2.33216 -2.07405 0
M  V30 36 N 4.4343 0.785586 -1.36625 0
M  V30 37 C 5.6823 1.54057 -1.30808 0
M  V30 38 C 6.0033 1.94683 0.111157 0
M  V30 39 O 5.2733 1.65241 1.05224 0
M  V30 40 H 3.8533 0.571354 -0.481211 0
M  V30 41 H 6.5153 0.935821 -1.70963 0
M  V30 42 H 5.6113 2.44637 -1.93801 0
M  V30 43 N 5.9124 1.20967 1.01018 0
M  V30 44 C 7.3234 1.02319 1.56165 0
M  V30 45 C 7.6744 -0.418546 1.91684 0
M  V30 46 O 6.7994 -1.30096 1.72928 0
M  V30 47 C 7.3944 1.85109 2.8376 0
M  V30 48 C 5.9534 1.70809 3.35412 0
M  V30 49 C 5.1004 1.82643 2.08655 0
M  V30 50 H 8.0514 1.35065 0.833255 0
M  V30 51 H 8.0724 1.35827 3.55431 0
M  V30 52 H 7.5844 2.90035 2.57878 0
M  V30 53 H 5.6854 0.685464 3.66241 0
M  V30 54 H 5.7984 2.52467 4.07182 0
M  V30 55 H 4.1624 1.25896 2.21409 0
M  V30 56 H 4.9454 2.89066 1.85191 0
M  V30 57 N 7.3905 -1.2043 1.01659 0
M  V30 58 C 8.6385 -1.89423 0.704522 0
M  V30 59 C 8.9595 -1.79231 -0.768197 0
M  V30 60 O 8.2295 -1.1947 -1.55254 0
M  V30 61 H 6.8095 -0.701178 0.257602 0
M  V30 62 H 9.4715 -1.4626 1.28818 0
M  V30 63 H 8.5675 -2.96052 0.987916 0
M  V30 64 N 8.8686 -0.792821 -1.36206 0
M  V30 65 C 10.2796 -0.429513 -1.81692 0
M  V30 66 C 10.6306 1.04695 -1.65932 0
M  V30 67 O 9.7556 1.81256 -1.18218 0
M  V30 68 C 10.3506 -0.772831 -3.29868 0
M  V30 69 C 8.9096 -0.462307 -3.7355 0
M  V30 70 C 8.0566 -1.00569 -2.5842 0
M  V30 71 H 11.0076 -0.985672 -1.24379 0
M  V30 72 H 11.0286 -0.0651928 -3.80444 0
M  V30 73 H 10.5406 -1.84747 -3.41307 0
M  V30 74 H 8.6416 0.604158 -3.67669 0
M  V30 75 H 8.7546 -0.985299 -4.68859 0
M  V30 76 H 7.1186 -0.428734 -2.51066 0
M  V30 77 H 7.9016 -2.08616 -2.72643 0
M  V30 78 N 10.3467 1.47872 -0.545128 0
M  V30 79 C 11.5947 2.02093 -0.016553 0
M  V30 80 C 11.9157 1.42305 1.3332 0
M  V30 81 O 11.1857 0.593853 1.86682 0
M  V30 82 H 9.7657 0.746993 -0.00313038 0
M  V30 83 H 12.4277 1.81414 -0.712397 0
M  V30 84 H 11.5237 3.11996 0.0805422 0
M  V30 85 N 11.8248 0.280983 1.55075 0
M  V30 86 C 12.7348 -0.61388 2.26426 0
M  V30 87 C 13.7508 -1.16521 1.29224 0
M  V30 88 O 14.9268 -1.19426 1.62171 0
M  V30 89 C 11.9918 -1.7788 2.9759 0
M  V30 90 C 11.0528 -1.26355 4.10284 0
M  V30 91 C 10.2858 -2.37295 4.78045 0
M  V30 92 O 10.5088 -3.56777 4.45047 0
M  V30 93 O 9.4428 -2.05119 5.65871 0
M  V30 94 H 13.2688 -0.0356932 3.03679 0
M  V30 95 H 10.8538 0.0481686 1.49322 0
M  V30 96 H 12.7358 -2.45791 3.42293 0
M  V30 97 H 11.4108 -2.34397 2.23249 0
M  V30 98 H 10.3178 -0.550735 3.70024 0
M  V30 99 H 11.6508 -0.744065 4.86543 0
M  V30 100 N 13.3029 -1.57598 0.00835791 0
M  V30 101 C 14.7139 -1.7892 -0.53333 0
M  V30 102 C 15.0649 -0.916609 -1.73473 0
M  V30 103 O 14.1899 -0.121336 -2.1606 0
M  V30 104 C 14.7849 -3.24488 -0.974313 0
M  V30 105 C 13.3439 -3.46878 -1.46125 0
M  V30 106 C 12.4909 -2.74157 -0.416302 0
M  V30 107 H 15.4419 -1.56958 0.234495 0
M  V30 108 H 15.4629 -3.3306 -1.83988 0
M  V30 109 H 14.9749 -3.87972 -0.099718 0
M  V30 110 H 13.0759 -2.8862 -2.35646 0
M  V30 111 H 13.1889 -4.55572 -1.48295 0
M  V30 112 H 11.5529 -2.39022 -0.87981 0
M  V30 113 H 12.3359 -3.40345 0.44947 0
M  V30 114 N 14.781 0.264519 -1.55364 0
M  V30 115 C 15.744 1.31046 -1.88042 0
M  V30 116 C 16.744 1.41943 -0.755569 0
M  V30 117 O 17.934 1.40947 -1.02369 0
M  V30 118 C 15.066 2.69067 -2.09323 0
M  V30 119 H 16.259 1.03297 -2.81549 0
M  V30 120 H 13.812 0.502989 -1.47986 0
M  V30 121 H 14.547 3.01982 -1.18226 0
M  V30 122 H 14.332 2.62542 -2.91229 0
M  V30 123 H 15.822 3.44623 -2.35848 0
M  V30 124 N 16.2591 1.48442 0.529413 0
M  V30 125 C 17.2221 1.62524 1.61612 0
M  V30 126 C 18.2221 0.498509 1.52877 0
M  V30 127 O 19.4121 0.76431 1.56537 0
M  V30 128 C 16.5441 1.59597 3.01233 0
M  V30 129 H 17.7371 2.59423 1.50465 0
M  V30 130 H 15.2901 1.37047 0.751514 0
M  V30 131 H 16.0251 0.641781 3.17886 0
M  V30 132 H 15.8101 2.41397 3.08982 0
M  V30 133 H 17.3001 1.72646 3.80241 0
M  V30 134 N 17.7372 -0.778329 1.37039 0
M  V30 135 C 19.1482 -1.35421 1.28523 0
M  V30 136 C 19.4992 -1.96075 -0.0700901 0
M  V30 137 O 18.6242 -1.93352 -0.971801 0
M  V30 138 C 19.2192 -2.46211 2.32735 0
M  V30 139 C 17.7782 -2.99585 2.27873 0
M  V30 140 C 16.9252 -1.72748 2.16918 0
M  V30 141 H 19.8762 -0.5791 1.47757 0
M  V30 142 H 19.8972 -3.2552 1.9702 0
M  V30 143 H 19.4092 -2.02036 3.31365 0
M  V30 144 H 17.5102 -3.48152 1.32745 0
M  V30 145 H 17.6232 -3.55646 3.21018 0
M  V30 146 H 15.9872 -1.95416 1.63354 0
M  V30 147 H 16.7702 -1.30686 3.17452 0
M  V30 148 N 19.2153 -1.21501 -1.00376 0
M  V30 149 C 20.4633 -1.03095 -1.73827 0
M  V30 150 C 20.7843 0.436341 -1.90055 0
M  V30 151 O 20.0543 1.31466 -1.45236 0
M  V30 152 H 18.6343 -0.378487 -0.644016 0
M  V30 153 H 21.2963 -1.52831 -1.20949 0
M  V30 154 H 20.3923 -1.49991 -2.73695 0
M  V30 155 N 20.6934 1.19889 -1.02296 0
M  V30 156 C 21.6564 2.21116 -0.603351 0
M  V30 157 C 22.6564 1.5738 0.329884 0
M  V30 158 O 23.8464 1.73802 0.117702 0
M  V30 159 C 20.9784 3.40696 0.117992 0
M  V30 160 H 22.1714 2.59754 -1.49893 0
M  V30 161 H 19.7244 1.33463 -0.813468 0
M  V30 162 H 20.4594 3.07569 1.0282 0
M  V30 163 H 20.2444 3.88188 -0.552511 0
M  V30 164 H 21.7344 4.15692 0.398696 0
M  V30 165 N 22.1715 0.800033 1.35784 0
M  V30 166 C 23.1035 0.163596 2.28615 0
M  V30 167 C 24.1165 -0.633317 1.49976 0
M  V30 168 O 25.3055 -0.466754 1.72289 0
M  V30 169 C 22.4055 -0.790958 3.29541 0
M  V30 170 C 21.5785 -0.0418255 4.3738 0
M  V30 171 C 20.6375 -0.91389 5.18203 0
M  V30 172 O 19.6635 -0.367234 5.68014 0
M  V30 173 N 20.8655 -2.23682 5.35674 0
M  V30 174 H 23.6305 0.96105 2.83873 0
M  V30 175 H 21.1915 0.654894 1.48063 0
M  V30 176 H 23.1835 -1.37844 3.80501 0
M  V30 177 H 21.7535 -1.48925 2.74846 0
M  V30 178 H 20.9735 0.726813 3.87442 0
M  V30 179 H 22.2615 0.474719 5.06581 0
M  V30 180 H 21.6595 -2.70497 4.96838 0
M  V30 181 H 20.2165 -2.77369 5.89839 0
M  V30 182 N 23.6496 -1.47581 0.552962 0
M  V30 183 C 24.5996 -2.26961 -0.217423 0
M  V30 184 C 25.5836 -1.34099 -0.889168 0
M  V30 185 O 26.7756 -1.58483 -0.788176 0
M  V30 186 C 23.9046 -3.19756 -1.24944 0
M  V30 187 C 22.9906 -4.20097 -0.581327 0
M  V30 188 N 23.3816 -5.04614 0.346171 0
M  V30 189 C 21.6796 -4.38099 -0.835767 0
M  V30 190 C 22.3806 -5.77052 0.733854 0
M  V30 191 N 21.3566 -5.43526 0.0896567 0
M  V30 192 H 25.1586 -2.89688 0.495761 0
M  V30 193 H 22.6726 -1.58068 0.372597 0
M  V30 194 H 24.6696 -3.75305 -1.81527 0
M  V30 195 H 23.3296 -2.58585 -1.96376 0
M  V30 196 H 24.3406 -5.12869 0.720098 0
M  V30 197 H 21.0176 -3.88102 -1.53892 0
M  V30 198 H 22.4076 -6.5504 1.49574 0
M  V30 199 N 25.1277 -0.289203 -1.54924 0
M  V30 200 C 26.3747 0.323519 -1.99899 0
M  V30 201 C 26.7027 1.54797 -1.17762 0
M  V30 202 O 25.9577 1.94237 -0.238835 0
M  V30 203 C 26.2567 0.736119 -3.49737 0
M  V30 204 C 25.9227 -0.385276 -4.49251 0
M  V30 205 C 24.5847 -0.693156 -4.76181 0
M  V30 206 C 26.9367 -1.14021 -5.08575 0
M  V30 207 C 24.2647 -1.7593 -5.59701 0
M  V30 208 C 26.6167 -2.19619 -5.93254 0
M  V30 209 C 25.2807 -2.51026 -6.185 0
M  V30 210 H 24.5507 0.118384 -0.731482 0
M  V30 211 H 27.1977 -0.405847 -1.8715 0
M  V30 212 H 25.5027 1.54539 -3.60035 0
M  V30 213 H 27.1997 1.22118 -3.81953 0
M  V30 214 H 23.7897 -0.135202 -4.28387 0
M  V30 215 H 27.9737 -0.915611 -4.87781 0
M  V30 216 H 23.2297 -2.0075 -5.77503 0
M  V30 217 H 27.4037 -2.78581 -6.38252 0
M  V30 218 H 25.0307 -3.33772 -6.83008 0
M  V30 219 N 26.6058 1.57591 -0.0167156 0
M  V30 220 C 27.5358 2.12496 0.967858 0
M  V30 221 C 28.5168 1.03807 1.34752 0
M  V30 222 O 29.7018 1.31577 1.42833 0
M  V30 223 C 26.8318 2.64194 2.25431 0
M  V30 224 C 25.7858 3.77559 2.01576 0
M  V30 225 C 25.1118 4.15636 3.36379 0
M  V30 226 C 26.4118 5.04151 1.36489 0
M  V30 227 H 28.1058 2.95013 0.510643 0
M  V30 228 H 25.6518 1.41915 0.244181 0
M  V30 229 H 27.6048 3.01236 2.94678 0
M  V30 230 H 26.3288 1.78821 2.73296 0
M  V30 231 H 24.9878 3.40937 1.34751 0
M  V30 232 H 24.6358 3.27263 3.81979 0
M  V30 233 H 24.3358 4.92022 3.21229 0
M  V30 234 H 25.8598 4.5525 4.06915 0
M  V30 235 H 27.2738 5.38857 1.95718 0
M  V30 236 H 25.6708 5.85453 1.31776 0
M  V30 237 H 26.7408 4.83733 0.336219 0
M  V30 238 N 28.0839 -0.256276 1.55502 0
M  V30 239 C 29.3139 -1.00196 1.80677 0
M  V30 240 C 29.7219 -1.79805 0.588797 0
M  V30 241 O 29.0649 -1.78055 -0.451883 0
M  V30 242 C 29.1269 -1.99515 2.99055 0
M  V30 243 C 28.7909 -1.38688 4.35448 0
M  V30 244 C 29.7879 -0.794079 5.138 0
M  V30 245 C 27.4729 -1.40906 4.82132 0
M  V30 246 C 29.4669 -0.231562 6.36979 0
M  V30 247 C 27.1539 -0.842684 6.05262 0
M  V30 248 C 28.1519 -0.254953 6.82524 0
M  V30 249 O 27.8399 0.3027 8.0333 0
M  V30 250 H 27.5719 -0.300919 0.60533 0
M  V30 251 H 30.1259 -0.287307 2.03381 0
M  V30 252 H 28.3559 -2.74785 2.72084 0
M  V30 253 H 30.0449 -2.60349 3.11405 0
M  V30 254 H 30.8109 -0.769519 4.78856 0
M  V30 255 H 26.6899 -1.85591 4.21992 0
M  V30 256 H 30.2339 0.227816 6.97228 0
M  V30 257 H 26.1309 -0.86454 6.39684 0
M  V30 258 H 26.8989 0.193662 8.18271 0
M  V30 259 N 29.562 -1.4872 -0.521534 0
M  V30 260 C 30.472 -1.66569 -1.65203 0
M  V30 261 C 31.488 -0.548197 -1.65139 0
M  V30 262 O 32.664 -0.820339 -1.83936 0
M  V30 263 C 29.729 -1.70917 -3.01642 0
M  V30 264 C 28.79 -2.94356 -3.12495 0
M  V30 265 C 28.023 -2.98487 -4.42426 0
M  V30 266 O 28.246 -2.10786 -5.30024 0
M  V30 267 O 27.18 -3.90746 -4.57822 0
M  V30 268 H 31.006 -2.62298 -1.5308 0
M  V30 269 H 28.591 -1.3222 -0.695565 0
M  V30 270 H 30.473 -1.7625 -3.82771 0
M  V30 271 H 29.148 -0.783633 -3.14071 0
M  V30 272 H 28.055 -2.94552 -2.3063 0
M  V30 273 H 29.388 -3.86322 -3.04986 0
M  V30 274 N 31.0401 0.771051 -1.3745 0
M  V30 275 C 32.2861 1.5319 -1.32894 0
M  V30 276 C 32.6191 1.94008 0.0862511 0
M  V30 277 O 31.8941 1.64124 1.04373 0
M  V30 278 C 32.1771 2.79648 -2.26868 0
M  V30 279 C 32.0301 2.45079 -3.77169 0
M  V30 280 C 33.3491 3.81583 -2.19277 0
M  V30 281 H 30.4681 0.555744 -0.484064 0
M  V30 282 H 33.1101 0.884492 -1.68157 0
M  V30 283 H 31.2601 3.34891 -1.96926 0
M  V30 284 H 32.9321 1.95745 -4.1771 0
M  V30 285 H 31.1751 1.77767 -3.95704 0
M  V30 286 H 31.8461 3.35478 -4.38359 0
M  V30 287 H 34.3221 3.35835 -2.45671 0
M  V30 288 H 33.1981 4.67787 -2.87171 0
M  V30 289 H 33.4591 4.25897 -1.18592 0
M  V30 290 N 32.5182 1.22032 0.997298 0
M  V30 291 C 33.9292 1.0397 1.55071 0
M  V30 292 C 34.2802 -0.398192 1.92117 0
M  V30 293 O 33.4052 -1.28254 1.74298 0
M  V30 294 C 34.0002 1.88109 2.81781 0
M  V30 295 C 32.5592 1.74357 3.33581 0
M  V30 296 C 31.7062 1.84846 2.06706 0
M  V30 297 H 34.6572 1.35941 0.818883 0
M  V30 298 H 34.6782 1.39589 3.53971 0
M  V30 299 H 34.1902 2.92754 2.54787 0
M  V30 300 H 32.2912 0.72427 3.65493 0
M  V30 301 H 32.4042 2.56772 4.04481 0
M  V30 302 H 30.7682 1.28238 2.20062 0
M  V30 303 H 31.5512 2.91014 1.82114 0
M  V30 304 N 33.9963 -1.19345 1.0293 0
M  V30 305 C 35.4073 -1.70725 0.755633 0
M  V30 306 C 35.7583 -1.82326 -0.724676 0
M  V30 307 O 34.8833 -1.49471 -1.56484 0
M  V30 308 C 35.4783 -3.10084 1.36503 0
M  V30 309 C 34.0373 -3.58723 1.13994 0
M  V30 310 C 33.1843 -2.35577 1.46283 0
M  V30 311 H 36.1353 -1.0418 1.19718 0
M  V30 312 H 36.1563 -3.72787 0.762217 0
M  V30 313 H 35.6683 -3.01609 2.44241 0
M  V30 314 H 33.7693 -3.72512 0.0807901 0
M  V30 315 H 33.8823 -4.42816 1.82894 0
M  V30 316 H 32.2463 -2.38935 0.88217 0
M  V30 317 H 33.0293 -2.29731 2.55105 0
M  V30 318 N 35.4744 -0.807222 -1.35358 0
M  V30 319 C 36.7204 -0.397594 -1.99476 0
M  V30 320 C 37.0754 1.02405 -1.62883 0
M  V30 321 O 36.3684 1.70077 -0.882282 0
M  V30 322 C 36.5624 -0.519036 -3.53611 0
M  V30 323 C 36.3914 -1.95094 -4.05177 0
M  V30 324 C 35.1614 -2.57945 -4.34503 0
M  V30 325 C 37.3594 -2.91558 -4.23673 0
M  V30 326 N 35.3414 -3.92539 -4.72003 0
M  V30 327 C 36.7124 -4.11024 -4.64176 0
M  V30 328 C 38.7674 -2.88381 -4.05883 0
M  V30 329 C 37.4704 -5.27745 -4.88751 0
M  V30 330 C 39.4964 -4.04306 -4.31614 0
M  V30 331 C 38.8584 -5.22519 -4.72391 0
M  V30 332 H 34.9574 -0.193274 -0.75774 0
M  V30 333 H 37.5414 -1.0486 -1.6405 0
M  V30 334 H 35.7124 0.101979 -3.88266 0
M  V30 335 H 37.4444 -0.0839321 -4.04613 0
M  V30 336 H 34.1994 -2.09295 -4.24844 0
M  V30 337 H 34.6234 -4.61836 -4.95011 0
M  V30 338 H 39.2654 -1.98137 -3.73499 0
M  V30 339 H 36.9834 -6.1856 -5.20008 0
M  V30 340 H 40.5694 -4.03229 -4.19402 0
M  V30 341 H 39.4494 -6.1073 -4.91913 0
M  V30 342 N 36.9525 1.47285 -0.560781 0
M  V30 343 C 38.1985 2.02764 -0.0381184 0
M  V30 344 C 38.5315 1.43384 1.30976 0
M  V30 345 O 37.8065 0.590733 1.85312 0
M  V30 346 C 38.0895 3.60064 0.0511427 0
M  V30 347 C 37.9425 4.2987 -1.32408 0
M  V30 348 C 39.2615 4.33439 0.762795 0
M  V30 349 H 36.3805 0.736841 -0.0153264 0
M  V30 350 H 39.0225 1.75675 -0.723759 0
M  V30 351 H 37.1725 3.83274 0.635065 0
M  V30 352 H 38.8445 4.17989 -1.95148 0
M  V30 353 H 37.0875 3.90085 -1.8978 0
M  V30 354 H 37.7585 5.38478 -1.21431 0
M  V30 355 H 40.2345 4.15243 0.266965 0
M  V30 356 H 39.1105 5.43124 0.794221 0
M  V30 357 H 39.3715 4.02915 1.81966 0
M  V30 358 N 38.4306 0.297415 1.54768 0
M  V30 359 C 39.3636 -0.622188 2.19554 0
M  V30 360 C 40.3416 -1.13558 1.16376 0
M  V30 361 O 41.5256 -1.20444 1.45002 0
M  V30 362 C 38.6526 -1.8509 2.83653 0
M  V30 363 C 37.6986 -1.47106 4.00328 0
M  V30 364 S 38.5316 -0.53006 5.3287 0
M  V30 365 C 39.6876 -1.76665 6.0045 0
M  V30 366 H 39.9206 -0.0717806 2.97213 0
M  V30 367 H 37.4536 0.0815678 1.54184 0
M  V30 368 H 39.4116 -2.55605 3.21211 0
M  V30 369 H 38.0726 -2.37247 2.05846 0
M  V30 370 H 37.2656 -2.38594 4.43947 0
M  V30 371 H 36.8676 -0.845885 3.64309 0
M  V30 372 H 39.1596 -2.7077 6.21039 0
M  V30 373 H 40.1026 -1.37308 6.9466 0
M  V30 374 H 40.5106 -1.94174 5.30054 0
M  V30 375 N 39.9087 -1.5758 0.0250728 0
M  V30 376 C 41.1487 -1.93497 -0.65865 0
M  V30 377 C 41.5127 -0.901409 -1.69525 0
M  V30 378 O 42.7137 -1.14664 -2.43116 0
M  V30 379 C 40.9847 -3.34352 -1.26267 0
M  V30 380 S 42.5437 -3.92191 -1.96803 0
M  V30 381 H 39.3617 -0.67709 -0.216958 0
M  V30 382 H 41.9637 -1.95303 0.0877692 0
M  V30 383 H 40.6677 -4.07395 -0.495741 0
M  V30 384 H 40.1987 -3.3598 -2.04648 0
M  V30 385 H 42.2137 -3.75298 -3.24601 0
M  V30 386 N 41.3868 0.248026 -1.55636 0
M  V30 387 C 42.8028 0.596483 -1.48035 0
M  V30 388 C 43.0028 1.88386 -0.715039 0
M  V30 389 O 42.0588 2.51319 -0.243944 0
M  V30 390 C 43.3718 0.700258 -2.92433 0
M  V30 391 C 44.9198 0.792659 -3.02797 0
M  V30 392 C 45.3948 0.928005 -4.485 0
M  V30 393 N 46.8858 0.992903 -4.52433 0
M  V30 394 C 47.6208 1.11687 -5.62418 0
M  V30 395 N 47.1168 1.20645 -6.82214 0
M  V30 396 N 48.9098 1.14994 -5.50212 0
M  V30 397 H 41.0608 -0.597109 -2.03834 0
M  V30 398 H 43.3238 -0.205925 -0.925364 0
M  V30 399 H 43.0298 -0.175658 -3.51261 0
M  V30 400 H 42.9038 1.57255 -3.42857 0
M  V30 401 H 45.2908 1.65903 -2.4405 0
M  V30 402 H 45.3718 -0.104762 -2.55585 0
M  V30 403 H 45.0158 0.0661971 -5.07857 0
M  V30 404 H 44.9458 1.84045 -4.93391 0
M  V30 405 H 47.4368 0.935064 -3.66149 0
M  V30 406 H 47.7498 1.30008 -7.61786 0
M  V30 407 H 46.0948 1.17605 -6.84977 0
M  V30 408 H 49.2858 1.07643 -4.55555 0
M  V30 409 H 49.4588 1.24311 -6.35965 0
M  V30 410 N 42.8649 1.48995 0.513639 0
M  V30 411 C 44.1119 1.57843 1.26854 0
M  V30 412 C 44.4399 0.259501 1.92761 0
M  V30 413 O 43.6949 -0.75159 1.80692 0
M  V30 414 C 43.9939 2.67756 2.36731 0
M  V30 415 C 43.6599 4.09669 1.88368 0
M  V30 416 C 42.3219 4.48291 1.74896 0
M  V30 417 C 44.6739 4.98537 1.52021 0
M  V30 418 C 42.0019 5.73568 1.23438 0
M  V30 419 C 44.3539 6.24319 1.0202 0
M  V30 420 C 43.0179 6.61783 0.871778 0
M  V30 421 H 42.2879 0.577587 0.464192 0
M  V30 422 H 44.9349 1.82778 0.571366 0
M  V30 423 H 43.2399 2.36743 3.12185 0
M  V30 424 H 44.9369 2.71813 2.9482 0
M  V30 425 H 41.5269 3.79176 1.99808 0
M  V30 426 H 45.7109 4.69363 1.61281 0
M  V30 427 H 40.9669 6.01304 1.10648 0
M  V30 428 H 45.1409 6.92566 0.729722 0
M  V30 429 H 42.7679 7.5874 0.470852 0
M  V30 430 N 44.343 -0.763751 1.37857 0
M  V30 431 C 45.573 -1.55067 1.3652 0
M  V30 432 C 45.981 -1.89135 -0.0494227 0
M  V30 433 O 45.324 -1.52529 -1.02375 0
M  V30 434 C 45.386 -2.8838 2.14656 0
M  V30 435 C 45.05 -2.76905 3.63555 0
M  V30 436 C 46.047 -2.4739 4.57268 0
M  V30 437 C 43.732 -2.94676 4.06781 0
M  V30 438 C 45.726 -2.35786 5.92186 0
M  V30 439 C 43.413 -2.82692 5.41782 0
M  V30 440 C 44.411 -2.53289 6.34298 0
M  V30 441 O 44.099 -2.41345 7.66817 0
M  V30 442 H 43.831 -0.486776 0.469069 0
M  V30 443 H 46.385 -0.953812 1.81911 0
M  V30 444 H 44.615 -3.50217 1.63967 0
M  V30 445 H 46.304 -3.49828 2.05852 0
M  V30 446 H 47.07 -2.33339 4.2518 0
M  V30 447 H 42.949 -3.16563 3.35126 0
M  V30 448 H 46.493 -2.12757 6.64365 0
M  V30 449 H 42.39 -2.96314 5.7347 0
M  V30 450 H 43.158 -2.56634 7.77226 0
M  V30 451 N 45.8211 -1.22559 -0.990812 0
M  V30 452 C 46.7681 -0.997519 -2.0813 0
M  V30 453 C 47.7381 0.0814702 -1.659 0
M  V30 454 O 48.9231 -0.0685424 -1.90677 0
M  V30 455 C 46.0631 -0.583615 -3.40129 0
M  V30 456 C 45.1761 -1.7336 -3.9569 0
M  V30 457 C 44.3111 -1.26748 -5.15857 0
M  V30 458 C 43.3501 -2.38888 -5.63559 0
M  V30 459 N 42.4871 -1.93308 -6.74964 0
M  V30 460 H 47.3271 -1.93099 -2.26973 0
M  V30 461 H 44.8641 -0.962114 -1.11273 0
M  V30 462 H 46.8221 -0.324801 -4.15934 0
M  V30 463 H 45.4521 0.312845 -3.2128 0
M  V30 464 H 44.5041 -2.10669 -3.16738 0
M  V30 465 H 45.8161 -2.57704 -4.27071 0
M  V30 466 H 44.9701 -0.966173 -5.98957 0
M  V30 467 H 43.7091 -0.394272 -4.86104 0
M  V30 468 H 42.7141 -2.69805 -4.79046 0
M  V30 469 H 43.9391 -3.26728 -5.95336 0
M  V30 470 H 41.8851 -1.08352 -6.4699 0
M  V30 471 H 41.8021 -2.71217 -7.05675 0
M  V30 472 H 43.0701 -1.66252 -7.61564 0
M  V30 473 N 47.2992 1.18797 -1.03562 0
M  V30 474 C 48.5452 1.8893 -0.737113 0
M  V30 475 C 48.8782 1.79837 0.732956 0
M  V30 476 O 48.1532 1.19525 1.5344 0
M  V30 477 C 48.4362 3.39607 -1.19745 0
M  V30 478 C 48.2892 3.57537 -2.72924 0
M  V30 479 C 49.6082 4.33069 -0.783526 0
M  V30 480 H 46.7272 0.686057 -0.269249 0
M  V30 481 H 49.3692 1.39797 -1.28673 0
M  V30 482 H 47.5192 3.81583 -0.729855 0
M  V30 483 H 49.1912 3.24688 -3.27682 0
M  V30 484 H 47.4342 3.00363 -3.12993 0
M  V30 485 H 48.1052 4.63238 -3.00191 0
M  V30 486 H 50.5812 3.98846 -1.18581 0
M  V30 487 H 49.4572 5.3707 -1.13343 0
M  V30 488 H 49.7182 4.40986 0.313681 0
M  V30 489 N 48.7773 0.814389 1.34928 0
M  V30 490 C 49.7103 0.175641 2.27523 0
M  V30 491 C 50.6883 -0.662953 1.48471 0
M  V30 492 O 51.8723 -0.628545 1.77712 0
M  V30 493 C 48.9993 -0.755516 3.30166 0
M  V30 494 C 48.0453 0.00445305 4.265 0
M  V30 495 S 48.8783 1.34582 5.18313 0
M  V30 496 C 50.0343 0.419315 6.24494 0
M  V30 497 H 50.2673 0.960691 2.8135 0
M  V30 498 H 47.8003 0.609846 1.41846 0
M  V30 499 H 49.7583 -1.28723 3.89796 0
M  V30 500 H 48.4193 -1.51402 2.75202 0
M  V30 501 H 47.6123 -0.703077 4.99072 0
M  V30 502 H 47.2143 0.466447 3.7108 0
M  V30 503 H 49.5063 -0.392432 6.76362 0
M  V30 504 H 50.4493 1.11446 6.99275 0
M  V30 505 H 50.8573 0.0115389 5.64499 0
M  V30 506 N 50.2554 -1.46986 0.568584 0
M  V30 507 C 51.5324 -1.95592 -0.0174074 0
M  V30 508 C 51.9124 -1.51124 -1.47393 0
M  V30 509 O 51.2604 -0.755329 -2.15655 0
M  V30 510 C 51.4704 -3.48719 0.139913 0
M  V30 511 C 52.8184 -4.246 0.000426376 0
M  V30 512 O 53.8424 -3.56135 0.0680316 0
M  V30 513 O 52.7014 -5.46302 -0.146988 0
M  V30 514 H 49.7954 -0.82498 -0.0577599 0
M  V30 515 H 52.3414 -1.57335 0.635909 0
M  V30 516 H 51.1134 -3.73927 1.15301 0
M  V30 517 H 50.7364 -3.93771 -0.550491 0
M  V30 518 N 51.7335 -0.305618 -1.54608 0
M  V30 519 C 52.6965 0.555591 -2.22364 0
M  V30 520 C 53.6965 1.05768 -1.21119 0
M  V30 521 O 54.8865 0.952972 -1.45822 0
M  V30 522 C 52.0185 1.76974 -2.91364 0
M  V30 523 H 53.2115 -0.0364572 -2.99878 0
M  V30 524 H 50.7645 -0.0565007 -1.56198 0
M  V30 525 H 51.4995 2.40151 -2.17941 0
M  V30 526 H 51.2845 1.41732 -3.65588 0
M  V30 527 H 52.7745 2.38148 -3.43038 0
M  V30 528 N 53.2116 1.57565 -0.0334293 0
M  V30 529 C 54.1416 2.13511 0.945265 0
M  V30 530 C 55.1226 1.05231 1.33643 0
M  V30 531 O 56.3076 1.33084 1.41429 0
M  V30 532 C 53.4376 2.6657 2.22616 0
M  V30 533 C 52.3916 3.79676 1.97561 0
M  V30 534 C 51.7176 4.1918 3.31952 0
M  V30 535 C 53.0176 5.0557 1.31135 0
M  V30 536 H 54.7116 2.95538 0.479325 0
M  V30 537 H 52.2576 1.42166 0.229115 0
M  V30 538 H 54.2106 3.04344 2.91466 0
M  V30 539 H 52.9346 1.8171 2.71384 0
M  V30 540 H 51.5936 3.42347 1.31127 0
M  V30 541 H 51.2416 3.31296 3.78487 0
M  V30 542 H 50.9416 4.95402 3.15992 0
M  V30 543 H 52.4656 4.59541 4.02063 0
M  V30 544 H 53.8796 5.40903 1.89992 0
M  V30 545 H 52.2766 5.86818 1.25559 0
M  V30 546 H 53.3466 4.84062 0.284894 0
M  V30 547 N 54.6897 -0.239769 1.55765 0
M  V30 548 C 55.5997 -1.31831 1.94056 0
M  V30 549 C 56.6157 -1.52275 0.841925 0
M  V30 550 O 57.7917 -1.65759 1.14394 0
M  V30 551 C 54.8567 -2.65156 2.23368 0
M  V30 552 C 53.9177 -2.53173 3.46701 0
M  V30 553 C 53.1507 -3.8014 3.74606 0
M  V30 554 O 53.3737 -4.82343 3.04469 0
M  V30 555 O 52.3077 -3.78344 4.68123 0
M  V30 556 H 56.1337 -1.02347 2.85935 0
M  V30 557 H 53.7187 -0.441123 1.42739 0
M  V30 558 H 55.6007 -3.43929 2.43497 0
M  V30 559 H 54.2757 -2.94358 1.34666 0
M  V30 560 H 53.1827 -1.72662 3.31871 0
M  V30 561 H 54.5157 -2.28915 4.35728 0
M  V30 562 N 56.1678 -1.49265 -0.50573 0
M  V30 563 C 57.5788 -1.51769 -1.08734 0
M  V30 564 C 57.9298 -0.301192 -1.93874 0
M  V30 565 O 57.0548 0.589456 -2.08217 0
M  V30 566 C 57.6498 -2.75017 -1.97867 0
M  V30 567 C 56.2088 -2.80314 -2.51199 0
M  V30 568 C 55.3558 -2.4562 -1.28709 0
M  V30 569 H 58.3068 -1.56031 -0.289855 0
M  V30 570 H 58.3278 -2.5491 -2.82491 0
M  V30 571 H 57.8398 -3.63539 -1.35873 0
M  V30 572 H 55.9408 -1.96061 -3.16845 0
M  V30 573 H 56.0538 -3.82366 -2.88675 0
M  V30 574 H 54.4178 -1.97297 -1.61078 0
M  V30 575 H 55.2008 -3.36411 -0.6843 0
M  V30 576 N 57.6459 0.756429 -1.3826 0
M  V30 577 C 58.6089 1.85176 -1.35065 0
M  V30 578 C 59.6089 1.58818 -0.251703 0
M  V30 579 O 60.7989 1.66615 -0.508433 0
M  V30 580 C 57.9309 3.22596 -1.10201 0
M  V30 581 H 59.1239 1.89417 -2.3251 0
M  V30 582 H 56.6769 0.95783 -1.23512 0
M  V30 583 H 57.4119 3.24025 -0.133504 0
M  V30 584 H 57.1969 3.43122 -1.89762 0
M  V30 585 H 58.6869 4.02673 -1.10654 0
M  V30 586 N 59.124 1.23083 0.984299 0
M  V30 587 C 60.401 0.9689 1.69917 0
M  V30 588 C 60.781 -0.513604 2.04757 0
M  V30 589 O 60.129 -1.48383 1.73767 0
M  V30 590 C 60.339 1.87518 2.94343 0
M  V30 591 C 61.687 2.13636 3.6694 0
M  V30 592 O 62.711 1.85036 3.04368 0
M  V30 593 O 61.57 2.62119 4.79537 0
M  V30 594 H 58.664 0.365095 0.742048 0
M  V30 595 H 61.21 1.34107 1.03987 0
M  V30 596 H 59.982 2.87756 2.65164 0
M  V30 597 H 59.605 1.50514 3.6801 0
M  V30 598 N 60.6021 -1.18246 1.0419 0
M  V30 599 C 61.8481 -1.88793 0.75689 0
M  V30 600 C 62.2031 -1.78909 -0.707767 0
M  V30 601 O 61.4961 -1.1794 -1.50999 0
M  V30 602 C 61.6901 -3.38082 1.15911 0
M  V30 603 C 61.5191 -3.62496 2.66133 0
M  V30 604 C 60.2891 -3.7979 3.33298 0
M  V30 605 C 62.4871 -3.62976 3.64353 0
M  V30 606 N 60.4691 -3.91955 4.72487 0
M  V30 607 C 61.8401 -3.80869 4.89222 0
M  V30 608 C 63.8951 -3.46071 3.57965 0
M  V30 609 C 62.5981 -3.83608 6.08471 0
M  V30 610 C 64.6241 -3.50093 4.76643 0
M  V30 611 C 63.9861 -3.68484 6.00332 0
M  V30 612 H 60.0851 -0.709406 0.32904 0
M  V30 613 H 62.6691 -1.42022 1.33183 0
M  V30 614 H 60.8401 -3.83544 0.612238 0
M  V30 615 H 62.5721 -3.96202 0.824989 0
M  V30 616 H 59.3271 -3.79224 2.83701 0
M  V30 617 H 59.7511 -4.01857 5.44831 0
M  V30 618 H 64.3931 -3.30797 2.63311 0
M  V30 619 H 62.1111 -3.97669 7.0348 0
M  V30 620 H 65.6971 -3.38285 4.73344 0
M  V30 621 H 64.5771 -3.71488 6.90627 0
M  V30 622 N 62.0802 -0.821533 -1.34494 0
M  V30 623 C 63.3202 -0.414785 -2.00147 0
M  V30 624 C 63.6842 1.00299 -1.6372 0
M  V30 625 O 64.8852 1.51255 -2.22206 0
M  V30 626 C 63.1562 -0.609403 -3.52166 0
M  V30 627 S 64.7152 -0.295297 -4.37805 0
M  V30 628 H 61.5332 -0.15679 -0.693497 0
M  V30 629 H 64.1352 -1.06705 -1.63812 0
M  V30 630 H 62.8392 -1.64096 -3.76166 0
M  V30 631 H 62.3702 0.0576414 -3.93358 0
M  V30 632 H 64.3852 0.891531 -4.88125 0
M  V30 633 N 63.5583 1.46682 -0.576371 0
M  V30 634 C 64.4903 2.28341 0.198231 0
M  V30 635 C 65.5033 1.38141 0.861453 0
M  V30 636 O 66.6923 1.62797 0.732082 0
M  V30 637 C 63.7923 3.12986 1.29972 0
M  V30 638 C 62.9653 4.31271 0.729639 0
M  V30 639 C 62.0243 4.97363 1.71803 0
M  V30 640 O 61.0503 5.55156 1.25658 0
M  V30 641 N 62.2523 4.93796 3.05198 0
M  V30 642 H 65.0173 2.9546 -0.502324 0
M  V30 643 H 62.5783 1.56525 -0.413715 0
M  V30 644 H 64.5703 3.54066 1.96008 0
M  V30 645 H 63.1403 2.47984 1.90323 0
M  V30 646 H 62.3603 3.94052 -0.108012 0
M  V30 647 H 63.6483 5.07739 0.328438 0
M  V30 648 H 63.0463 4.48077 3.45317 0
M  V30 649 H 61.6033 5.38837 3.6674 0
M  V30 650 N 65.0364 0.313813 1.54444 0
M  V30 651 C 66.2834 -0.291675 2.00388 0
M  V30 652 C 66.6114 -1.52904 1.2021 0
M  V30 653 O 65.8664 -1.93833 0.269707 0
M  V30 654 C 66.1654 -0.680386 3.50864 0
M  V30 655 C 65.8314 0.456699 4.48581 0
M  V30 656 C 64.4934 0.768824 4.75018 0
M  V30 657 C 66.8454 1.22098 5.06697 0
M  V30 658 C 64.1734 1.84812 5.56831 0
M  V30 659 C 66.5254 2.29029 5.89685 0
M  V30 660 C 65.1894 2.60834 6.14428 0
M  V30 661 H 64.4594 -0.106732 0.733273 0
M  V30 662 H 67.1064 0.43557 1.86481 0
M  V30 663 H 65.4114 -1.48791 3.62448 0
M  V30 664 H 67.1084 -1.16026 3.83847 0
M  V30 665 H 63.6984 0.203337 4.28117 0
M  V30 666 H 67.8824 0.993096 4.86263 0
M  V30 667 H 63.1384 2.09912 5.74236 0
M  V30 668 H 67.3124 2.887 6.33739 0
M  V30 669 H 64.9394 3.44596 6.77612 0
M  V30 670 N 66.5145 -1.57545 0.0417849 0
M  V30 671 C 67.4775 -2.09885 -0.92093 0
M  V30 672 C 68.4775 -1.01648 -1.24596 0
M  V30 673 O 69.6675 -1.27759 -1.1842 0
M  V30 674 C 66.7995 -2.57527 -2.23367 0
M  V30 675 H 67.9925 -2.96236 -0.467382 0
M  V30 676 H 65.5455 -1.5493 -0.206467 0
M  V30 677 H 66.2805 -1.74542 -2.73323 0
M  V30 678 H 66.0655 -3.36613 -2.01083 0
M  V30 679 H 67.5555 -2.98201 -2.92346 0
M  V30 680 N 67.9926 0.231505 -1.5589 0
M  V30 681 C 68.9556 1.27028 -1.90779 0
M  V30 682 C 69.9556 1.40308 -0.785507 0
M  V30 683 O 71.1456 1.38744 -1.05336 0
M  V30 684 C 68.2776 2.64566 -2.14983 0
M  V30 685 H 69.4706 0.973017 -2.83677 0
M  V30 686 H 67.0236 0.471486 -1.49019 0
M  V30 687 H 67.7586 2.99406 -1.24604 0
M  V30 688 H 67.5436 2.56305 -2.96732 0
M  V30 689 H 69.0336 3.39543 -2.43105 0
M  V30 690 N 69.4707 1.49531 0.497807 0
M  V30 691 C 70.4007 1.6935 1.60757 0
M  V30 692 C 71.3817 0.542218 1.61227 0
M  V30 693 O 72.5667 0.778417 1.77917 0
M  V30 694 C 69.6967 1.76298 2.99226 0
M  V30 695 C 68.6507 2.91248 3.13622 0
M  V30 696 C 67.9767 2.83312 4.53474 0
M  V30 697 C 69.2767 4.3214 2.93346 0
M  V30 698 H 70.9707 2.62263 1.44425 0
M  V30 699 H 68.5167 1.26208 0.693367 0
M  V30 700 H 70.4697 1.88749 3.76765 0
M  V30 701 H 69.1937 0.799871 3.16654 0
M  V30 702 H 67.8527 2.78404 2.38509 0
M  V30 703 H 67.5007 1.84902 4.67782 0
M  V30 704 H 67.2007 3.60465 4.64046 0
M  V30 705 H 68.7247 2.97775 5.33069 0
M  V30 706 H 70.1387 4.45649 3.60652 0
M  V30 707 H 68.5357 5.1054 3.15387 0
M  V30 708 H 69.6057 4.46363 1.89441 0
M  V30 709 N 70.9488 -0.749086 1.3866 0
M  V30 710 C 72.1978 -1.50371 1.3443 0
M  V30 711 C 72.5108 -1.95503 -0.0616397 0
M  V30 712 O 73.7168 -2.70554 -0.226489 0
M  V30 713 C 72.1728 -2.71644 2.36088 0
M  V30 714 C 71.7808 -2.3352 3.82325 0
M  V30 715 C 73.5248 -3.49518 2.40909 0
M  V30 716 C 71.4318 -3.51431 4.75658 0
M  V30 717 H 70.3618 -0.564628 0.499712 0
M  V30 718 H 73.0128 -0.818449 1.64237 0
M  V30 719 H 71.3948 -3.42175 1.9933 0
M  V30 720 H 72.5688 -1.70627 4.28046 0
M  V30 721 H 70.8838 -1.6877 3.80665 0
M  V30 722 H 73.4808 -4.37197 3.07836 0
M  V30 723 H 73.8238 -3.90992 1.42937 0
M  V30 724 H 74.3568 -2.86005 2.76489 0
M  V30 725 H 71.0958 -3.15019 5.74842 0
M  V30 726 H 70.6158 -4.13352 4.34627 0
M  V30 727 H 72.2948 -4.17953 4.93887 0
M  V30 728 N 72.4269 -1.23603 -0.977757 0
M  V30 729 C 73.6729 -1.07129 -1.72195 0
M  V30 730 C 74.0059 0.390501 -1.90233 0
M  V30 731 O 73.2809 1.28902 -1.45653 0
M  V30 732 C 73.5639 -1.80031 -3.11867 0
M  V30 733 C 73.4169 -3.33899 -3.01383 0
M  V30 734 C 74.7359 -1.56492 -4.11337 0
M  V30 735 H 71.8549 -0.390571 -0.624999 0
M  V30 736 H 74.4969 -1.52142 -1.13811 0
M  V30 737 H 72.6469 -1.41768 -3.6171 0
M  V30 738 H 74.3189 -3.81699 -2.59043 0
M  V30 739 H 72.5619 -3.62796 -2.37827 0
M  V30 740 H 73.2329 -3.801 -4.00285 0
M  V30 741 H 75.7089 -1.89757 -3.70313 0
M  V30 742 H 74.5849 -2.09973 -5.07151 0
M  V30 743 H 74.8459 -0.500874 -4.39254 0
M  V30 744 N 73.905 1.17692 -1.04816 0
M  V30 745 C 75.321 1.39863 -0.768794 0
M  V30 746 C 75.521 1.91118 0.638451 0
M  V30 747 O 74.577 2.10036 1.40146 0
M  V30 748 C 75.89 2.39274 -1.82122 0
M  V30 749 C 77.438 2.52987 -1.843 0
M  V30 750 C 77.913 3.55669 -2.88555 0
M  V30 751 N 79.404 3.63183 -2.87493 0
M  V30 752 C 80.139 4.42381 -3.64811 0
M  V30 753 N 79.635 5.25125 -4.51903 0
M  V30 754 N 81.428 4.37217 -3.53267 0
M  V30 755 H 73.579 0.82752 -1.95617 0
M  V30 756 H 75.842 0.426123 -0.846831 0
M  V30 757 H 75.548 2.08678 -2.83102 0
M  V30 758 H 75.422 3.38725 -1.65967 0
M  V30 759 H 77.809 2.82896 -0.839869 0
M  V30 760 H 77.89 1.53623 -2.04532 0
M  V30 761 H 77.534 3.26499 -3.89051 0
M  V30 762 H 77.464 4.54728 -2.65575 0
M  V30 763 H 79.955 3.04103 -2.24343 0
M  V30 764 H 80.268 5.82728 -5.07591 0
M  V30 765 H 78.613 5.24519 -4.55966 0
M  V30 766 H 81.804 3.71626 -2.84625 0
M  V30 767 H 81.977 4.98696 -4.13771 0
M  V30 768 N 75.3831 0.828654 1.34056 0
M  V30 769 C 76.6601 0.341809 1.9259 0
M  V30 770 C 77.0401 -1.17158 1.75605 0
M  V30 771 O 76.3881 -1.98132 1.13824 0
M  V30 772 C 76.5981 0.777453 3.4023 0
M  V30 773 C 77.9461 0.779579 4.17382 0
M  V30 774 O 78.9701 0.7204 3.48839 0
M  V30 775 O 77.8291 0.857996 5.39723 0
M  V30 776 H 74.9231 0.0946085 0.821571 0
M  V30 777 H 77.4691 0.913827 1.42994 0
M  V30 778 H 76.2411 1.8196 3.46419 0
M  V30 779 H 75.8641 0.181444 3.97186 0
M  V30 780 N 76.8612 -1.46375 0.584142 0
M  V30 781 C 77.7932 -2.28443 -0.186119 0
M  V30 782 C 78.8062 -1.38596 -0.854115 0
M  V30 783 O 79.9952 -1.63183 -0.723438 0
M  V30 784 C 77.0952 -3.13671 -1.28311 0
M  V30 785 C 76.2682 -4.31652 -0.706758 0
M  V30 786 C 75.3272 -4.98267 -1.69163 0
M  V30 787 O 74.3532 -5.55815 -1.22712 0
M  V30 788 N 75.5552 -4.95408 -3.02575 0
M  V30 789 H 78.3202 -2.9519 0.517986 0
M  V30 790 H 75.8812 -1.56303 0.42201 0
M  V30 791 H 77.8732 -3.55101 -1.94128 0
M  V30 792 H 76.4432 -2.48989 -1.89005 0
M  V30 793 H 75.6632 -3.93989 0.128908 0
M  V30 794 H 76.9512 -5.07906 -0.301506 0
M  V30 795 H 76.3492 -4.49902 -3.42936 0
M  V30 796 H 74.9062 -5.40774 -3.63877 0
M  V30 797 N 78.3393 -0.321999 -1.54275 0
M  V30 798 C 79.5673 0.283052 -2.04955 0
M  V30 799 C 79.9823 1.45904 -1.19823 0
M  V30 800 O 79.3393 1.81063 -0.228545 0
M  V30 801 C 79.3903 0.719028 -3.54277 0
M  V30 802 O 79.1113 -0.410175 -4.36176 0
M  V30 803 C 80.6123 1.38705 -4.21041 0
M  V30 804 H 77.8323 0.0584616 -0.668448 0
M  V30 805 H 80.3763 -0.467734 -1.99079 0
M  V30 806 H 78.5313 1.41979 -3.60445 0
M  V30 807 H 78.9453 -0.0669416 -5.24457 0
M  V30 808 H 80.4193 1.64306 -5.2698 0
M  V30 809 H 80.8963 2.33385 -3.72059 0
M  V30 810 H 81.5023 0.728906 -4.19007 0
M  V30 811 N 79.8174 1.5752 -0.0501392 0
M  V30 812 C 80.7274 2.14952 0.939827 0
M  V30 813 C 81.7434 1.10706 1.34239 0
M  V30 814 O 82.9194 1.42869 1.41952 0
M  V30 815 C 79.9844 2.68232 2.19665 0
M  V30 816 C 79.0454 3.87272 1.85253 0
M  V30 817 C 78.2784 4.38002 3.04943 0
M  V30 818 O 78.5014 3.87811 4.18281 0
M  V30 819 O 77.4354 5.29602 2.86017 0
M  V30 820 H 81.2614 2.9986 0.481392 0
M  V30 821 H 78.8464 1.4841 0.171699 0
M  V30 822 H 80.7284 3.02475 2.93406 0
M  V30 823 H 79.4034 1.86395 2.64648 0
M  V30 824 H 78.3104 3.5792 1.0883 0
M  V30 825 H 79.6434 4.70336 1.4507 0
M  V30 826 N 81.2955 -0.223234 1.56011 0
M  V30 827 C 82.2255 -1.27988 1.95298 0
M  V30 828 C 83.2065 -1.48976 0.820979 0
M  V30 829 O 84.3915 -1.61188 1.08315 0
M  V30 830 C 81.5215 -2.63 2.26822 0
M  V30 831 C 80.4755 -2.56671 3.42497 0
M  V30 832 C 79.8015 -3.95697 3.59622 0
M  V30 833 C 81.1015 -2.11601 4.77517 0
M  V30 834 H 82.7955 -0.953525 2.8381 0
M  V30 835 H 80.3415 -0.457244 1.36548 0
M  V30 836 H 82.2945 -3.37077 2.52898 0
M  V30 837 H 81.0185 -2.9732 1.35161 0
M  V30 838 H 79.6775 -1.85051 3.16467 0
M  V30 839 H 79.3255 -4.27322 2.6534 0
M  V30 840 H 79.0255 -3.92345 4.37424 0
M  V30 841 H 80.5495 -4.71438 3.88044 0
M  V30 842 H 81.9635 -2.7542 5.02809 0
M  V30 843 H 80.3605 -2.19311 5.5859 0
M  V30 844 H 81.4305 -1.06824 4.72987 0
M  V30 845 N 82.7736 -1.49793 -0.48987 0
M  V30 846 C 84.1896 -1.36803 -0.822022 0
M  V30 847 C 84.3896 -0.409652 -1.97292 0
M  V30 848 O 83.4456 0.154614 -2.52026 0
M  V30 849 C 84.7586 -2.77768 -1.15175 0
M  V30 850 C 86.3066 -2.86549 -1.25931 0
M  V30 851 C 86.7816 -4.28306 -1.62228 0
M  V30 852 N 88.2726 -4.31169 -1.69256 0
M  V30 853 C 89.0076 -5.37832 -1.98807 0
M  V30 854 N 88.5036 -6.54726 -2.26507 0
M  V30 855 N 90.2966 -5.25258 -2.00152 0
M  V30 856 H 82.4476 -2.10691 0.268881 0
M  V30 857 H 84.7106 -0.946241 0.057728 0
M  V30 858 H 84.4166 -3.49648 -0.379335 0
M  V30 859 H 84.2906 -3.13836 -2.09253 0
M  V30 860 H 86.6776 -2.14899 -2.02243 0
M  V30 861 H 86.7586 -2.54049 -0.298776 0
M  V30 862 H 86.4026 -5.00486 -0.864622 0
M  V30 863 H 86.3326 -4.58279 -2.594 0
M  V30 864 H 88.8236 -3.4687 -1.49965 0
M  V30 865 H 89.1366 -7.31833 -2.48276 0
M  V30 866 H 87.4816 -6.57933 -2.23939 0
M  V30 867 H 90.6726 -4.32938 -1.77996 0
M  V30 868 H 90.8456 -6.08476 -2.22848 0
M  V30 869 N 84.2517 0.741722 -1.39055 0
M  V30 870 C 85.1817 1.869 -1.39966 0
M  V30 871 C 86.1627 1.6804 -0.26392 0
M  V30 872 O 87.3477 1.88458 -0.468755 0
M  V30 873 C 84.4777 3.24572 -1.23574 0
M  V30 874 C 83.4317 3.58056 -2.34477 0
M  V30 875 C 82.7577 4.94593 -2.0318 0
M  V30 876 C 84.0577 3.61716 -3.76774 0
M  V30 877 H 85.7517 1.86395 -2.34302 0
M  V30 878 H 83.2977 0.895361 -1.1278 0
M  V30 879 H 85.2507 4.031 -1.22834 0
M  V30 880 H 83.9747 3.25587 -0.257045 0
M  V30 881 H 82.6337 2.81854 -2.34423 0
M  V30 882 H 82.2817 4.92181 -1.03765 0
M  V30 883 H 81.9817 5.17964 -2.77465 0
M  V30 884 H 83.5057 5.75486 -2.04079 0
M  V30 885 H 84.9197 4.30335 -3.78794 0
M  V30 886 H 83.3167 3.96603 -4.50362 0
M  V30 887 H 84.3867 2.61672 -4.08235 0
M  V30 888 N 85.7298 1.2412 0.971189 0
M  V30 889 C 86.9698 1.09066 1.7287 0
M  V30 890 C 87.3338 -0.364794 1.88503 0
M  V30 891 O 88.5348 -0.636748 2.61149 0
M  V30 892 C 86.8058 1.80629 3.08396 0
M  V30 893 S 88.3648 1.81263 3.99611 0
M  V30 894 H 85.1828 0.390145 0.594397 0
M  V30 895 H 87.7848 1.57397 1.15959 0
M  V30 896 H 86.4888 2.85647 2.94676 0
M  V30 897 H 86.0198 1.32617 3.70373 0
M  V30 898 H 88.0348 0.877804 4.88374 0
M  V30 899 N 87.2079 -1.17134 1.05439 0
M  V30 900 C 88.1179 -2.24878 0.668365 0
M  V30 901 C 89.1339 -1.71186 -0.311687 0
M  V30 902 O 90.3099 -2.00738 -0.163161 0
M  V30 903 C 87.3749 -3.46662 0.051648 0
M  V30 904 C 86.4359 -4.15429 1.08246 0
M  V30 905 C 85.6689 -5.31399 0.495082 0
M  V30 906 O 85.8919 -5.66153 -0.694743 0
M  V30 907 O 84.8259 -5.89187 1.23056 0
M  V30 908 H 88.6519 -2.60189 1.56637 0
M  V30 909 H 86.2369 -1.24482 0.826104 0
M  V30 910 H 88.1189 -4.20394 -0.290966 0
M  V30 911 H 86.7939 -3.13142 -0.819971 0
M  V30 912 H 85.7009 -3.43704 1.47711 0
M  V30 913 H 87.0339 -4.52982 1.92532 0
M  V30 914 N 88.686 -0.835752 -1.33615 0
M  V30 915 C 90.102 -0.523139 -1.50783 0
M  V30 916 C 90.302 0.950171 -1.77691 0
M  V30 917 O 89.358 1.73411 -1.83534 0
M  V30 918 C 90.671 -1.39378 -2.66448 0
M  V30 919 C 92.219 -1.39223 -2.80332 0
M  V30 920 C 92.694 -2.24765 -3.99055 0
M  V30 921 N 94.185 -2.22458 -4.06284 0
M  V30 922 C 94.92 -2.85386 -4.97336 0
M  V30 923 N 94.416 -3.57354 -5.93523 0
M  V30 924 N 96.209 -2.74872 -4.90308 0
M  V30 925 H 88.36 -1.78952 -1.14411 0
M  V30 926 H 90.623 -0.763297 -0.562212 0
M  V30 927 H 90.329 -2.44061 -2.53234 0
M  V30 928 H 90.203 -1.0676 -3.61776 0
M  V30 929 H 92.59 -0.353136 -2.92979 0
M  V30 930 H 92.671 -1.75846 -1.85773 0
M  V30 931 H 92.315 -3.28732 -3.87167 0
M  V30 932 H 92.245 -1.85485 -4.92852 0
M  V30 933 H 94.736 -1.70119 -3.37443 0
M  V30 934 H 95.049 -4.02584 -6.59656 0
M  V30 935 H 93.394 -3.61461 -5.93608 0
M  V30 936 H 96.585 -2.18213 -4.14126 0
M  V30 937 H 96.758 -3.24199 -5.61069 0
M  V30 938 N 90.1641 1.46063 -0.591896 0
M  V30 939 C 91.3891 2.07226 -0.0850314 0
M  V30 940 C 91.8141 1.43625 1.21463 0
M  V30 941 O 91.1721 0.523305 1.73583 0
M  V30 942 C 91.2201 3.60554 0.0576567 0
M  V30 943 O 90.3241 3.97128 1.11188 0
M  V30 944 H 89.6651 0.660615 -0.0669568 0
M  V30 945 H 92.1951 1.8756 -0.81745 0
M  V30 946 H 92.2051 4.07165 0.2609 0
M  V30 947 H 90.8801 4.06235 -0.891416 0
M  V30 948 H 89.4571 3.62213 0.886356 0
M  V30 949 N 91.6422 0.330177 1.54103 0
M  V30 950 C 92.8902 -0.269871 2.0029 0
M  V30 951 C 93.2112 -1.52133 1.21986 0
M  V30 952 O 92.4812 -1.93212 0.323438 0
M  V30 953 H 91.0612 -0.10271 0.739905 0
M  V30 954 H 93.7232 0.448249 1.89675 0
M  V30 955 H 92.8192 -0.52166 3.07709 0
M  V30 956 N 93.1203 -1.57491 0.0584922 0
M  V30 957 C 94.0523 -2.08916 -0.942694 0
M  V30 958 C 95.0653 -1.0185 -1.27006 0
M  V30 959 O 96.2543 -1.29398 -1.22957 0
M  V30 960 C 93.3543 -2.52341 -2.26224 0
M  V30 961 C 92.5273 -3.82827 -2.1157 0
M  V30 962 C 91.5863 -4.12487 -3.26712 0
M  V30 963 O 90.6123 -4.82295 -3.02292 0
M  V30 964 N 91.8143 -3.64978 -4.5141 0
M  V30 965 H 94.5793 -2.95437 -0.503722 0
M  V30 966 H 92.1403 -1.61397 -0.12757 0
M  V30 967 H 94.1323 -2.69254 -3.02133 0
M  V30 968 H 92.7023 -1.7103 -2.61663 0
M  V30 969 H 91.9223 -3.75425 -1.20208 0
M  V30 970 H 93.2103 -4.68263 -1.99015 0
M  V30 971 H 92.6083 -3.08558 -4.7414 0
M  V30 972 H 91.1653 -3.87115 -5.2439 0
M  V30 973 N 94.5984 0.214957 -1.56127 0
M  V30 974 C 96.0144 0.564948 -1.49267 0
M  V30 975 C 96.2144 1.86827 -0.754838 0
M  V30 976 O 95.2704 2.50745 -0.297198 0
M  V30 977 C 96.5834 0.638071 -2.93852 0
M  V30 978 C 98.1314 0.728253 -3.0441 0
M  V30 979 C 98.6064 0.832663 -4.50367 0
M  V30 980 N 100.097 0.896712 -4.54437 0
M  V30 981 C 100.832 0.997324 -5.6466 0
M  V30 982 N 100.328 1.06147 -6.8462 0
M  V30 983 N 102.121 1.03297 -5.52527 0
M  V30 984 H 94.2724 -0.640211 -2.02522 0
M  V30 985 H 96.5354 -0.225507 -0.920788 0
M  V30 986 H 96.2414 -0.250126 -3.50809 0
M  V30 987 H 96.1154 1.49947 -3.46115 0
M  V30 988 H 98.5024 1.60689 -2.47514 0
M  V30 989 H 98.5834 -0.158952 -2.55306 0
M  V30 990 H 98.2274 -0.0415417 -5.07883 0
M  V30 991 H 98.1574 1.73538 -4.97184 0
M  V30 992 H 100.648 0.857188 -3.6805 0
M  V30 993 H 100.961 1.1382 -7.64372 0
M  V30 994 H 99.3064 1.03049 -6.87318 0
M  V30 995 H 102.497 0.979558 -4.57736 0
M  V30 996 H 102.67 1.10793 -6.38458 0
M  V30 997 N 96.0765 1.50051 0.48192 0
M  V30 998 C 97.3045 1.64237 1.25832 0
M  V30 999 C 97.7195 0.321336 1.86045 0
M  V30 1000 O 97.0765 -0.695478 1.68729 0
M  V30 1001 C 97.1275 2.72548 2.37487 0
M  V30 1002 O 96.8485 3.99529 1.79745 0
M  V30 1003 C 98.3495 2.9761 3.28547 0
M  V30 1004 H 95.5695 0.55237 0.380957 0
M  V30 1005 H 98.1135 1.96207 0.576467 0
M  V30 1006 H 96.2685 2.43303 3.01467 0
M  V30 1007 H 96.6825 4.59342 2.5319 0
M  V30 1008 H 98.1565 3.77084 4.03127 0
M  V30 1009 H 98.6335 2.0826 3.86684 0
M  V30 1010 H 99.2395 3.28345 2.70314 0
M  V30 1011 N 97.5546 -0.734337 1.39446 0
M  V30 1012 C 98.5176 -1.83004 1.37994 0
M  V30 1013 C 99.5176 -1.58397 0.276938 0
M  V30 1014 O 100.708 -1.65785 0.534875 0
M  V30 1015 C 97.8396 -3.20802 1.1532 0
M  V30 1016 H 99.0326 -1.85694 2.35494 0
M  V30 1017 H 96.5856 -0.938059 1.25021 0
M  V30 1018 H 97.3206 -3.23772 0.185036 0
M  V30 1019 H 97.1056 -3.4006 1.95197 0
M  V30 1020 H 98.5956 -4.00862 1.17046 0
M  V30 1021 N 99.0327 -1.24633 -0.964593 0
M  V30 1022 C 100.258 -1.11596 -1.74818 0
M  V30 1023 C 100.683 0.32723 -1.85232 0
M  V30 1024 O 100.041 1.23695 -1.32549 0
M  V30 1025 C 100.089 -1.76397 -3.1451 0
M  V30 1026 O 99.1927 -1.03685 -3.99153 0
M  V30 1027 H 98.5337 -0.390196 -0.537255 0
M  V30 1028 H 101.064 -1.65002 -1.20977 0
M  V30 1029 H 101.074 -1.8228 -3.65018 0
M  V30 1030 H 99.7487 -2.81401 -3.06246 0
M  V30 1031 H 98.3257 -1.05611 -3.57632 0
M  V30 1032 N 100.511 1.16574 -1.06058 0
M  V30 1033 C 101.757 1.87324 -0.777022 0
M  V30 1034 C 102.09 1.81351 0.694645 0
M  V30 1035 O 101.365 1.22753 1.50871 0
M  V30 1036 C 101.648 3.36991 -1.26922 0
M  V30 1037 C 101.501 3.51667 -2.80447 0
M  V30 1038 C 102.82 4.3131 -0.87521 0
M  V30 1039 H 99.9388 0.680191 -0.28374 0
M  V30 1040 H 102.581 1.37036 -1.3161 0
M  V30 1041 H 100.731 3.79949 -0.81063 0
M  V30 1042 H 102.403 3.17664 -3.34495 0
M  V30 1043 H 100.646 2.93656 -3.19294 0
M  V30 1044 H 101.317 4.56766 -3.0995 0
M  V30 1045 H 103.793 3.9624 -1.27014 0
M  V30 1046 H 102.669 5.34545 -1.2471 0
M  V30 1047 H 102.93 4.41552 0.220071 0
M  V30 1048 N 101.989 0.842826 1.3317 0
M  V30 1049 C 102.919 0.294028 2.31641 0
M  V30 1050 C 103.9 -0.600401 1.59151 0
M  V30 1051 O 105.085 -0.523124 1.87022 0
M  V30 1052 C 102.215 -0.528416 3.43257 0
M  V30 1053 C 101.169 0.27056 4.27144 0
M  V30 1054 C 100.495 -0.675881 5.30411 0
M  V30 1055 C 101.795 1.48981 5.00602 0
M  V30 1056 H 103.489 1.11681 2.77791 0
M  V30 1057 H 101.035 0.538478 1.33553 0
M  V30 1058 H 102.988 -0.922674 4.11175 0
M  V30 1059 H 101.712 -1.38445 2.95805 0
M  V30 1060 H 100.371 0.646427 3.60856 0
M  V30 1061 H 100.019 -1.52842 4.79216 0
M  V30 1062 H 99.7189 -0.145374 5.8742 0
M  V30 1063 H 101.243 -1.06757 6.01195 0
M  V30 1064 H 102.657 1.16849 5.61266 0
M  V30 1065 H 101.054 1.95739 5.6728 0
M  V30 1066 H 102.124 2.25746 4.29147 0
M  V30 1067 N 103.467 -1.45747 0.599634 0
M  V30 1068 C 104.713 -2.03153 0.100263 0
M  V30 1069 C 105.068 -1.46073 -1.25221 0
M  V30 1070 O 104.361 -0.622878 -1.81193 0
M  V30 1071 C 104.555 -3.57399 -0.00602758 0
M  V30 1072 C 104.384 -4.2944 1.3346 0
M  V30 1073 C 103.154 -4.6768 1.91321 0
M  V30 1074 C 105.352 -4.61905 2.2616 0
M  V30 1075 N 103.334 -5.24544 3.18946 0
M  V30 1076 C 104.705 -5.19518 3.3838 0
M  V30 1077 C 106.76 -4.43841 2.25631 0
M  V30 1078 C 105.463 -5.60972 4.50226 0
M  V30 1079 C 107.489 -4.86322 3.36518 0
M  V30 1080 C 106.851 -5.44021 4.4746 0
M  V30 1081 H 102.95 -0.777911 0.0798696 0
M  V30 1082 H 105.534 -1.77674 0.796244 0
M  V30 1083 H 103.705 -3.82556 -0.671212 0
M  V30 1084 H 105.437 -4.01457 -0.51133 0
M  V30 1085 H 102.192 -4.5098 1.44617 0
M  V30 1086 H 102.616 -5.57483 3.84112 0
M  V30 1087 H 107.258 -3.98552 1.41123 0
M  V30 1088 H 104.976 -6.0523 5.35464 0
M  V30 1089 H 108.562 -4.74084 3.37247 0
M  V30 1090 H 107.442 -5.76289 5.31846 0
M  V30 1091 N 104.945 -0.338344 -1.53925 0
M  V30 1092 C 106.356 0.146651 -1.86123 0
M  V30 1093 C 106.707 1.5042 -1.2597 0
M  V30 1094 O 105.832 2.08723 -0.571294 0
M  V30 1095 C 106.427 0.272879 -3.37699 0
M  V30 1096 C 104.986 0.702103 -3.69794 0
M  V30 1097 C 104.133 -0.167304 -2.76795 0
M  V30 1098 H 107.084 -0.558123 -1.48562 0
M  V30 1099 H 107.105 1.10128 -3.64214 0
M  V30 1100 H 106.617 -0.715307 -3.81451 0
M  V30 1101 H 104.718 1.6995 -3.31584 0
M  V30 1102 H 104.831 0.495604 -4.7653 0
M  V30 1103 H 103.195 0.359527 -2.5215 0
M  V30 1104 H 103.978 -1.15253 -3.23375 0
M  V30 1105 N 106.423 1.57458 -0.0668435 0
M  V30 1106 C 107.669 1.94401 0.598316 0
M  V30 1107 C 108.024 0.946335 1.67518 0
M  V30 1108 O 107.317 -0.0321442 1.91573 0
M  V30 1109 C 107.511 3.35784 1.22409 0
M  V30 1110 C 107.34 4.49212 0.209367 0
M  V30 1111 C 106.11 5.04887 -0.204218 0
M  V30 1112 C 108.308 5.11335 -0.551431 0
M  V30 1113 N 106.29 6.01854 -1.21016 0
M  V30 1114 C 107.661 6.03754 -1.41 0
M  V30 1115 C 109.716 4.94173 -0.608038 0
M  V30 1116 C 108.419 6.80854 -2.32013 0
M  V30 1117 C 110.445 5.71912 -1.50566 0
M  V30 1118 C 109.807 6.63976 -2.35191 0
M  V30 1119 H 105.906 0.758538 0.190114 0
M  V30 1120 H 108.49 1.94175 -0.142832 0
M  V30 1121 H 106.661 3.36757 1.93518 0
M  V30 1122 H 108.393 3.59976 1.84931 0
M  V30 1123 H 105.148 4.73266 0.177908 0
M  V30 1124 H 105.572 6.55035 -1.71049 0
M  V30 1125 H 110.214 4.22788 0.032022 0
M  V30 1126 H 107.932 7.5152 -2.97057 0
M  V30 1127 H 111.518 5.60656 -1.55423 0
M  V30 1128 H 110.398 7.2308 -3.03522 0
M  V30 1129 N 107.901 -0.206675 1.56239 0
M  V30 1130 C 109.15 -0.926964 1.79138 0
M  V30 1131 C 109.463 -1.84901 0.638043 0
M  V30 1132 O 110.669 -2.60906 0.751033 0
M  V30 1133 C 109.125 -1.6986 3.17294 0
M  V30 1134 C 108.733 -0.821956 4.40395 0
M  V30 1135 C 110.477 -2.40922 3.4951 0
M  V30 1136 C 108.384 -1.59179 5.69575 0
M  V30 1137 H 107.314 -0.349864 0.667915 0
M  V30 1138 H 109.965 -0.180487 1.8261 0
M  V30 1139 H 108.347 -2.48853 3.08039 0
M  V30 1140 H 109.521 -0.0715019 4.60745 0
M  V30 1141 H 107.836 -0.222741 4.15804 0
M  V30 1142 H 110.433 -2.99047 4.43255 0
M  V30 1143 H 110.776 -3.14542 2.72707 0
M  V30 1144 H 111.309 -1.68905 3.60161 0
M  V30 1145 H 108.048 -0.898589 6.49312 0
M  V30 1146 H 107.568 -2.31648 5.53262 0
M  V30 1147 H 109.247 -2.14862 6.10281 0
M  V30 1148 N 109.379 -1.50304 -0.473955 0
M  V30 1149 C 110.327 -1.69482 -1.59307 0
M  V30 1150 C 111.321 -0.560669 -1.59853 0
M  V30 1151 O 112.527 -0.741087 -1.64036 0
M  V30 1152 H 108.902 -0.534892 -0.528578 0
M  V30 1153 H 110.873 -2.63364 -1.40293 0
M  V30 1154 C 109.622 -1.80354 -2.97267 0
M  V30 1155 H 108.945 -2.67012 -2.97564 0
M  V30 1156 H 110.385 -1.97798 -3.75036 0
M  V30 1157 C 108.844 -0.55448 -3.32306 0
M  V30 1158 O 109.374 0.307661 -4.0052 0
M  V30 1159 N 107.58 -0.409354 -2.87702 0
M  V30 1160 H 107.127 -1.11196 -2.32364 0
M  V30 1161 H 107.085 0.425223 -3.11511 0
M  V30 1162 N 110.857 0.726932 -1.39834 0
M  V30 1163 C 112.273 1.03354 -1.21615 0
M  V30 1164 C 112.473 2.01327 -0.08338 0
M  V30 1165 O 111.529 2.46158 0.56238 0
M  V30 1166 C 112.842 1.58811 -2.55342 0
M  V30 1167 C 114.39 1.70851 -2.62257 0
M  V30 1168 C 114.865 2.29716 -3.96225 0
M  V30 1169 N 116.356 2.37116 -3.97907 0
M  V30 1170 C 117.091 2.83619 -4.98345 0
M  V30 1171 N 116.587 3.29958 -6.09179 0
M  V30 1172 N 118.38 2.82901 -4.8572 0
M  V30 1173 H 110.531 0.0773069 -2.12259 0
M  V30 1174 H 112.794 0.0969102 -0.943034 0
M  V30 1175 H 112.5 0.942855 -3.38826 0
M  V30 1176 H 112.374 2.57502 -2.75632 0
M  V30 1177 H 114.761 2.34497 -1.79152 0
M  V30 1178 H 114.842 0.707913 -2.45809 0
M  V30 1179 H 114.486 1.66696 -4.79765 0
M  V30 1180 H 114.416 3.30469 -4.09997 0
M  V30 1181 H 116.907 2.04374 -3.17868 0
M  V30 1182 H 117.22 3.63976 -6.8172 0
M  V30 1183 H 115.565 3.27946 -6.12761 0
M  V30 1184 H 118.756 2.46027 -3.98231 0
M  V30 1185 H 118.929 3.18827 -5.6414 0
M  V30 1186 N 112.336 1.25143 0.95797 0
M  V30 1187 C 113.284 1.05019 2.07542 0
M  V30 1188 C 114.278 -0.0178751 1.69391 0
M  V30 1189 O 115.484 0.137472 1.79474 0
M  V30 1190 H 111.859 0.32265 0.679265 0
M  V30 1191 H 113.83 1.99759 2.21673 0
M  V30 1192 C 112.579 0.682074 3.40944 0
M  V30 1193 H 111.902 1.49573 3.70767 0
M  V30 1194 H 113.342 0.580945 4.20001 0
M  V30 1195 C 111.801 -0.611608 3.31302 0
M  V30 1196 O 112.331 -1.65465 3.66038 0
M  V30 1197 N 110.537 -0.595982 2.84423 0
M  V30 1198 H 110.084 0.253192 2.56353 0
M  V30 1199 H 110.042 -1.46173 2.78354 0
M  V30 1200 N 113.814 -1.1601 1.06675 0
M  V30 1201 C 114.777 -2.18724 0.685001 0
M  V30 1202 C 115.777 -1.58496 -0.271246 0
M  V30 1203 O 116.967 -1.74119 -0.0531156 0
M  V30 1204 C 114.099 -3.40899 0.00853648 0
M  V30 1205 H 115.292 -2.54011 1.59431 0
M  V30 1206 H 112.845 -1.30352 0.862441 0
M  V30 1207 H 113.58 -3.11173 -0.913337 0
M  V30 1208 H 113.365 -3.8587 0.696204 0
M  V30 1209 H 114.855 -4.16886 -0.24414 0
M  V30 1210 N 115.292 -0.849877 -1.32721 0
M  V30 1211 C 116.708 -0.539102 -1.50219 0
M  V30 1212 C 116.908 0.931271 -1.78689 0
M  V30 1213 O 115.964 1.71455 -1.85363 0
M  V30 1214 C 117.277 -1.42196 -2.64954 0
M  V30 1215 C 118.825 -1.42189 -2.78839 0
M  V30 1216 C 119.3 -2.28985 -3.96648 0
M  V30 1217 N 120.791 -2.26754 -4.03902 0
M  V30 1218 C 121.526 -2.90644 -4.94281 0
M  V30 1219 N 121.022 -3.63629 -5.897 0
M  V30 1220 N 122.815 -2.80057 -4.87365 0
M  V30 1221 H 114.966 -1.80156 -1.12506 0
M  V30 1222 H 117.229 -0.769217 -0.554085 0
M  V30 1223 H 116.935 -2.46733 -2.50631 0
M  V30 1224 H 116.809 -1.10591 -3.60624 0
M  V30 1225 H 119.196 -0.38419 -2.92588 0
M  V30 1226 H 119.277 -1.77807 -1.83898 0
M  V30 1227 H 118.921 -3.32819 -3.83658 0
M  V30 1228 H 118.851 -1.90702 -4.90857 0
M  V30 1229 H 121.342 -1.73688 -3.3562 0
M  V30 1230 H 121.655 -4.09558 -6.55349 0
M  V30 1231 H 120 -3.67737 -5.89741 0
M  V30 1232 H 123.191 -2.22593 -4.11789 0
M  V30 1233 H 123.364 -3.30132 -5.57599 0
M  V30 1234 N 116.77 1.45427 -0.607355 0
M  V30 1235 C 118.016 2.0254 -0.102607 0
M  V30 1236 C 118.349 1.47478 1.26348 0
M  V30 1237 O 117.624 0.64939 1.83339 0
M  V30 1238 C 117.907 3.60044 -0.0634347 0
M  V30 1239 C 117.76 4.2544 -1.46017 0
M  V30 1240 C 119.079 4.35646 0.624514 0
M  V30 1241 H 116.198 0.73598 -0.0387607 0
M  V30 1242 H 118.84 1.73284 -0.779282 0
M  V30 1243 H 116.99 3.85101 0.512808 0
M  V30 1244 H 118.662 4.11569 -2.08347 0
M  V30 1245 H 116.905 3.83849 -2.02094 0
M  V30 1246 H 117.576 5.34342 -1.385 0
M  V30 1247 H 120.052 4.15882 0.134723 0
M  V30 1248 H 118.928 5.45376 0.621028 0
M  V30 1249 H 119.189 4.08501 1.69055 0
M  V30 1250 N 118.248 0.346503 1.53744 0
M  V30 1251 C 119.211 -0.496439 2.23759 0
M  V30 1252 C 120.211 -1.0252 1.2388 0
M  V30 1253 O 121.401 -0.913974 1.48297 0
M  V30 1254 C 118.533 -1.69187 2.95954 0
M  V30 1255 H 119.726 0.115952 2.99676 0
M  V30 1256 H 117.279 0.0978939 1.55993 0
M  V30 1257 H 118.014 -2.34288 2.24231 0
M  V30 1258 H 117.799 -1.31989 3.69217 0
M  V30 1259 H 119.289 -2.28969 3.49232 0
M  V30 1260 N 119.726 -1.57421 0.075193 0
M  V30 1261 C 121.003 -1.85029 -0.634329 0
M  V30 1262 C 121.383 -0.968305 -1.87582 0
M  V30 1263 O 120.731 -0.0354749 -2.28472 0
M  V30 1264 C 120.941 -3.35286 -0.968742 0
M  V30 1265 C 122.289 -4.02875 -1.34077 0
M  V30 1266 O 123.313 -3.40051 -1.06037 0
M  V30 1267 O 122.172 -5.13691 -1.86506 0
M  V30 1268 H 119.266 -0.7645 -0.315387 0
M  V30 1269 H 121.812 -1.69366 0.106382 0
M  V30 1270 H 120.584 -3.91203 -0.0871376 0
M  V30 1271 H 120.207 -3.56223 -1.7661 0
M  V30 1272 N 121.204 0.198386 -1.56346 0
M  V30 1273 C 122.134 1.24865 -1.9731 0
M  V30 1274 C 123.115 1.47651 -0.844576 0
M  V30 1275 O 124.3 1.59444 -1.10866 0
M  V30 1276 C 121.43 2.59358 -2.30977 0
M  V30 1277 C 120.384 2.5119 -3.46537 0
M  V30 1278 C 119.71 3.89926 -3.65871 0
M  V30 1279 C 121.01 2.03977 -4.80823 0
M  V30 1280 H 122.704 0.908252 -2.85291 0
M  V30 1281 H 120.25 0.435462 -1.37258 0
M  V30 1282 H 122.203 3.33011 -2.58228 0
M  V30 1283 H 120.927 2.95132 -1.39874 0
M  V30 1284 H 119.586 1.79993 -3.19371 0
M  V30 1285 H 119.234 4.23046 -2.72105 0
M  V30 1286 H 118.934 3.85336 -4.4361 0
M  V30 1287 H 120.458 4.65205 -3.95495 0
M  V30 1288 H 121.872 2.67386 -5.07127 0
M  V30 1289 H 120.269 2.10397 -5.62008 0
M  V30 1290 H 121.339 0.992861 -4.74626 0
M  V30 1291 N 122.682 1.50554 0.465978 0
M  V30 1292 C 123.928 1.62038 1.21949 0
M  V30 1293 C 124.261 0.322116 1.9151 0
M  V30 1294 O 123.536 -0.676723 1.82348 0
M  V30 1295 C 123.819 2.80421 2.25912 0
M  V30 1296 C 123.672 4.20144 1.60622 0
M  V30 1297 C 124.991 2.94354 3.27176 0
M  V30 1298 H 122.11 0.589752 0.441998 0
M  V30 1299 H 124.752 1.82956 0.51257 0
M  V30 1300 H 122.902 2.62717 2.86203 0
M  V30 1301 H 124.574 4.49449 1.03889 0
M  V30 1302 H 122.817 4.24165 0.909211 0
M  V30 1303 H 123.488 4.98914 2.36196 0
M  V30 1304 H 125.964 3.10578 2.76913 0
M  V30 1305 H 124.84 3.788 3.97242 0
M  V30 1306 H 125.101 2.05186 3.916 0
M  V30 1307 N 124.16 -0.719506 1.40217 0
M  V30 1308 C 125.11 -1.8251 1.36653 0
M  V30 1309 C 126.094 -1.59028 0.244732 0
M  V30 1310 O 127.286 -1.70268 0.483524 0
M  V30 1311 C 124.415 -3.20599 1.22763 0
M  V30 1312 C 123.501 -3.49858 2.39708 0
M  V30 1313 N 123.892 -3.49957 3.6519 0
M  V30 1314 C 122.19 -3.80297 2.33002 0
M  V30 1315 C 122.891 -3.77449 4.42614 0
M  V30 1316 N 121.867 -3.96002 3.72402 0
M  V30 1317 H 125.669 -1.80914 2.31619 0
M  V30 1318 H 123.183 -0.918455 1.33933 0
M  V30 1319 H 125.18 -3.99766 1.18292 0
M  V30 1320 H 123.84 -3.23424 0.287614 0
M  V30 1321 H 124.851 -3.309 3.98404 0
M  V30 1322 H 121.528 -3.90635 1.47346 0
M  V30 1323 H 122.918 -3.83863 5.51451 0
M  V30 1324 N 125.638 -1.25649 -0.95132 0
M  V30 1325 C 126.887 -1.09988 -1.69073 0
M  V30 1326 C 127.2 0.358355 -1.92289 0
M  V30 1327 O 128.406 0.635466 -2.63958 0
M  V30 1328 C 126.862 -1.92012 -3.044 0
M  V30 1329 C 126.47 -3.42347 -2.88968 0
M  V30 1330 C 128.214 -1.8493 -3.82101 0
M  V30 1331 C 126.121 -4.16655 -4.19705 0
M  V30 1332 H 125.051 -0.407993 -0.63408 0
M  V30 1333 H 127.702 -1.49873 -1.05879 0
M  V30 1334 H 126.084 -1.44952 -3.68517 0
M  V30 1335 H 127.258 -3.97104 -2.33762 0
M  V30 1336 H 125.573 -3.50557 -2.24719 0
M  V30 1337 H 128.17 -2.37739 -4.78941 0
M  V30 1338 H 128.513 -0.817883 -4.08187 0
M  V30 1339 H 129.046 -2.29758 -3.2474 0
M  V30 1340 H 125.785 -5.20224 -3.98807 0
M  V30 1341 H 125.305 -3.66681 -4.74663 0
M  V30 1342 H 126.984 -4.24551 -4.88227 0
M  V30 1343 N 127.117 1.15442 -1.07289 0
M  V30 1344 C 128.047 2.22312 -0.714107 0
M  V30 1345 C 129.028 1.67467 0.298155 0
M  V30 1346 O 130.213 1.93445 0.171048 0
M  V30 1347 C 127.343 3.47124 -0.110448 0
M  V30 1348 C 126.297 4.14926 -1.04979 0
M  V30 1349 C 125.623 5.33807 -0.308924 0
M  V30 1350 C 126.923 4.64762 -2.38314 0
M  V30 1351 H 128.617 2.5258 -1.6076 0
M  V30 1352 H 126.163 1.21404 -0.77441 0
M  V30 1353 H 128.116 4.21124 0.152482 0
M  V30 1354 H 126.84 3.16187 0.81812 0
M  V30 1355 H 125.499 3.42866 -1.29764 0
M  V30 1356 H 125.147 4.99126 0.623084 0
M  V30 1357 H 124.847 5.80113 -0.935036 0
M  V30 1358 H 126.371 6.10576 -0.0537771 0
M  V30 1359 H 127.785 5.30292 -2.1786 0
M  V30 1360 H 126.182 5.21728 -2.96514 0
M  V30 1361 H 127.252 3.80434 -3.00663 0
M  V30 1362 N 128.595 0.856903 1.32268 0
M  V30 1363 C 129.823 0.475439 2.01363 0
M  V30 1364 C 130.238 -0.928486 1.64392 0
M  V30 1365 O 129.595 -1.60624 0.866387 0
M  V30 1366 C 129.646 0.607545 3.56358 0
M  V30 1367 O 129.367 1.95617 3.92002 0
M  V30 1368 C 130.868 0.225382 4.42727 0
M  V30 1369 H 128.088 0.186636 0.644521 0
M  V30 1370 H 130.632 1.15446 1.68797 0
M  V30 1371 H 128.787 -0.0237719 3.87393 0
M  V30 1372 H 129.201 1.95455 4.86721 0
M  V30 1373 H 130.675 0.368813 5.50767 0
M  V30 1374 H 131.152 -0.834369 4.31202 0
M  V30 1375 H 131.758 0.831864 4.17085 0
M  V30 1376 N 130.073 -1.45103 0.615059 0
M  V30 1377 C 131.023 -2.27679 -0.120966 0
M  V30 1378 C 132.007 -1.3775 -0.831491 0
M  V30 1379 O 133.199 -1.61683 -0.720249 0
M  V30 1380 C 130.328 -3.24767 -1.1127 0
M  V30 1381 C 129.414 -4.22184 -0.402627 0
M  V30 1382 N 129.805 -5.02692 0.559884 0
M  V30 1383 C 128.103 -4.4125 -0.649202 0
M  V30 1384 C 128.804 -5.73421 0.977942 0
M  V30 1385 N 127.78 -5.42657 0.320104 0
M  V30 1386 H 131.582 -2.87325 0.618181 0
M  V30 1387 H 129.096 -1.56345 0.439304 0
M  V30 1388 H 131.093 -3.82666 -1.65446 0
M  V30 1389 H 129.753 -2.66682 -1.85232 0
M  V30 1390 H 130.764 -5.09354 0.936976 0
M  V30 1391 H 127.441 -3.9428 -1.37293 0
M  V30 1392 H 128.831 -6.48107 1.77222 0
M  V30 1393 N 131.551 -0.354651 -1.53558 0
M  V30 1394 C 132.481 0.489091 -2.2832 0
M  V30 1395 C 133.462 1.09324 -1.30316 0
M  V30 1396 O 134.647 1.11255 -1.59173 0
M  V30 1397 C 131.777 1.63456 -3.0643 0
M  V30 1398 C 130.731 1.1582 -4.12031 0
M  V30 1399 C 130.057 2.39305 -4.7816 0
M  V30 1400 C 131.357 0.250731 -5.21698 0
M  V30 1401 H 133.051 -0.134614 -2.99097 0
M  V30 1402 H 130.597 -0.0661826 -1.43848 0
M  V30 1403 H 132.55 2.23136 -3.57475 0
M  V30 1404 H 131.274 2.28533 -2.33325 0
M  V30 1405 H 129.933 0.584146 -3.61916 0
M  V30 1406 H 129.581 3.02814 -4.01637 0
M  V30 1407 H 129.281 2.08109 -5.49513 0
M  V30 1408 H 130.805 2.99691 -5.31994 0
M  V30 1409 H 132.219 0.754695 -5.68311 0
M  V30 1410 H 130.616 0.0301468 -6.00092 0
M  V30 1411 H 131.686 -0.710125 -4.79672 0
M  V30 1412 N 133.029 1.57378 -0.0835403 0
M  V30 1413 C 133.961 2.10389 0.909338 0
M  V30 1414 C 134.974 1.03858 1.25369 0
M  V30 1415 O 136.163 1.31338 1.20882 0
M  V30 1416 C 133.263 2.55908 2.2218 0
M  V30 1417 C 132.436 3.86145 2.05453 0
M  V30 1418 C 131.495 4.17633 3.20108 0
M  V30 1419 O 130.521 4.87043 2.94581 0
M  V30 1420 N 131.723 3.72113 4.45547 0
M  V30 1421 H 134.488 2.962 0.456657 0
M  V30 1422 H 132.049 1.61579 0.101877 0
M  V30 1423 H 134.041 2.74027 2.97811 0
M  V30 1424 H 132.611 1.75171 2.58909 0
M  V30 1425 H 131.831 3.7729 1.1422 0
M  V30 1426 H 133.119 4.7137 1.91541 0
M  V30 1427 H 132.517 3.16062 4.69171 0
M  V30 1428 H 131.074 3.95409 5.18165 0
M  V30 1429 N 134.507 -0.190092 1.56449 0
M  V30 1430 C 135.437 -1.23816 1.97969 0
M  V30 1431 C 136.418 -1.47201 0.852395 0
M  V30 1432 O 137.603 -1.58854 1.1171 0
M  V30 1433 C 134.733 -2.5813 2.3235 0
M  V30 1434 C 133.687 -2.49348 3.47864 0
M  V30 1435 C 133.013 -3.8798 3.67934 0
M  V30 1436 C 134.313 -2.01424 4.81898 0
M  V30 1437 H 136.007 -0.89311 2.85769 0
M  V30 1438 H 133.553 -0.428177 1.37487 0
M  V30 1439 H 135.506 -3.31637 2.59991 0
M  V30 1440 H 134.23 -2.94386 1.41438 0
M  V30 1441 H 132.889 -1.78297 3.20321 0
M  V30 1442 H 132.537 -4.21597 2.74344 0
M  V30 1443 H 132.237 -3.82978 4.45648 0
M  V30 1444 H 133.761 -4.63101 3.97957 0
M  V30 1445 H 135.175 -2.64693 5.08538 0
M  V30 1446 H 133.572 -2.07413 5.63116 0
M  V30 1447 H 134.642 -0.967677 4.75146 0
M  V30 1448 N 135.985 -1.50799 -0.457987 0
M  V30 1449 C 136.915 -1.73553 -1.5621 0
M  V30 1450 C 137.896 -0.584774 -1.59732 0
M  V30 1451 O 139.081 -0.825314 -1.7579 0
M  V30 1452 C 136.211 -1.84169 -2.94447 0
M  V30 1453 C 135.165 -2.99461 -3.0579 0
M  V30 1454 C 134.491 -2.95235 -4.45803 0
M  V30 1455 C 135.791 -4.39766 -2.81786 0
M  V30 1456 H 137.485 -2.66 -1.37421 0
M  V30 1457 H 135.031 -1.28002 -0.659662 0
M  V30 1458 H 136.984 -1.98672 -3.71628 0
M  V30 1459 H 135.708 -0.883545 -3.14422 0
M  V30 1460 H 134.367 -2.8463 -2.31044 0
M  V30 1461 H 134.015 -1.97239 -4.62715 0
M  V30 1462 H 133.715 -3.72642 -4.54326 0
M  V30 1463 H 135.239 -3.11803 -5.24987 0
M  V30 1464 H 136.653 -4.55054 -3.4871 0
M  V30 1465 H 135.05 -5.18722 -3.0174 0
M  V30 1466 H 136.12 -4.51229 -1.7754 0
M  V30 1467 N 137.463 0.71206 -1.40597 0
M  V30 1468 C 138.879 1.02058 -1.22704 0
M  V30 1469 C 139.079 2.01228 -0.104729 0
M  V30 1470 O 138.135 2.4674 0.53624 0
M  V30 1471 C 139.448 1.56094 -2.57012 0
M  V30 1472 C 140.996 1.6806 -2.64054 0
M  V30 1473 C 141.471 2.25501 -3.9864 0
M  V30 1474 N 142.962 2.32882 -4.004 0
M  V30 1475 C 143.697 2.78317 -5.01325 0
M  V30 1476 N 143.193 3.23478 -6.12645 0
M  V30 1477 N 144.986 2.77733 -4.88693 0
M  V30 1478 H 137.137 0.0547896 -2.12329 0
M  V30 1479 H 139.4 0.0869027 -0.944008 0
M  V30 1480 H 139.106 0.906865 -3.39807 0
M  V30 1481 H 138.98 2.54564 -2.78347 0
M  V30 1482 H 141.367 2.32583 -1.81629 0
M  V30 1483 H 141.448 0.681802 -2.46546 0
M  V30 1484 H 141.092 1.61598 -4.81506 0
M  V30 1485 H 141.022 3.26102 -4.13479 0
M  V30 1486 H 143.513 2.00991 -3.20017 0
M  V30 1487 H 143.826 3.56725 -6.85542 0
M  V30 1488 H 142.171 3.21429 -6.16205 0
M  V30 1489 H 145.362 2.4179 -4.00818 0
M  V30 1490 H 145.535 3.12826 -5.67489 0
M  V30 1491 N 138.941 1.26152 0.944643 0
M  V30 1492 C 139.904 1.07474 2.0244 0
M  V30 1493 C 140.904 0.0242064 1.60782 0
M  V30 1494 O 142.094 0.267302 1.72137 0
M  V30 1495 C 139.226 0.633956 3.34953 0
M  V30 1496 H 140.419 2.03336 2.20442 0
M  V30 1497 H 137.972 1.087 1.12312 0
M  V30 1498 H 138.707 -0.326811 3.22649 0
M  V30 1499 H 138.492 1.39247 3.66542 0
M  V30 1500 H 139.982 0.52501 4.14287 0
M  V30 1501 N 140.419 -1.14872 1.07899 0
M  V30 1502 C 141.835 -1.37776 0.805606 0
M  V30 1503 C 142.035 -1.92743 -0.587555 0
M  V30 1504 O 141.091 -2.13678 -1.34528 0
M  V30 1505 C 142.404 -2.34361 1.88402 0
M  V30 1506 C 143.952 -2.48012 1.90942 0
M  V30 1507 C 144.427 -3.47893 2.97883 0
M  V30 1508 N 145.918 -3.55433 2.97021 0
M  V30 1509 C 146.653 -4.32553 3.76412 0
M  V30 1510 N 146.149 -5.12959 4.65666 0
M  V30 1511 N 147.942 -4.27697 3.64735 0
M  V30 1512 H 140.093 -0.775365 1.97742 0
M  V30 1513 H 142.356 -0.403521 0.857831 0
M  V30 1514 H 142.062 -2.01098 2.88535 0
M  V30 1515 H 141.936 -3.34206 1.74889 0
M  V30 1516 H 144.323 -2.8057 0.914579 0
M  V30 1517 H 144.404 -1.48147 2.08534 0
M  V30 1518 H 144.048 -3.16069 3.97571 0
M  V30 1519 H 143.978 -4.47527 2.77538 0
M  V30 1520 H 146.469 -2.98048 2.32326 0
M  V30 1521 H 146.782 -5.69065 5.22862 0
M  V30 1522 H 145.127 -5.12245 4.69712 0
M  V30 1523 H 148.318 -3.63949 2.94378 0
M  V30 1524 H 148.491 -4.8755 4.26848 0
M  V30 1525 N 141.898 -0.863906 -1.31812 0
M  V30 1526 C 143.175 -0.39275 -1.91616 0
M  V30 1527 C 143.555 1.12461 -1.7865 0
M  V30 1528 O 142.903 1.95045 -1.19037 0
M  V30 1529 C 143.113 -0.867385 -3.38049 0
M  V30 1530 C 144.461 -0.889966 -4.15168 0
M  V30 1531 O 145.485 -0.812635 -3.46806 0
M  V30 1532 O 144.344 -1.00079 -5.37258 0
M  V30 1533 H 141.438 -0.116358 -0.818773 0
M  V30 1534 H 143.984 -0.951418 -1.40521 0
M  V30 1535 H 142.756 -1.91081 -3.41473 0
M  V30 1536 H 142.379 -0.286687 -3.96565 0
M  V30 1537 N 143.376 1.44774 -0.622745 0
M  V30 1538 C 144.625 2.01334 -0.121397 0
M  V30 1539 C 144.938 1.49505 1.26125 0
M  V30 1540 O 146.144 1.98139 1.85616 0
M  V30 1541 C 144.6 3.59516 -0.166298 0
M  V30 1542 C 144.208 4.20342 -1.54974 0
M  V30 1543 C 145.952 4.23582 0.279021 0
M  V30 1544 C 143.859 5.70721 -1.55021 0
M  V30 1545 H 142.789 0.752851 -0.0416172 0
M  V30 1546 H 145.44 1.66083 -0.780309 0
M  V30 1547 H 143.822 3.92027 0.559557 0
M  V30 1548 H 144.996 3.99381 -2.29851 0
M  V30 1549 H 143.311 3.68529 -1.93843 0
M  V30 1550 H 145.908 5.33868 0.298083 0
M  V30 1551 H 146.251 3.95327 1.30471 0
M  V30 1552 H 146.784 3.95843 -0.394063 0
M  V30 1553 H 143.523 6.03698 -2.55399 0
M  V30 1554 H 143.043 5.93829 -0.844245 0
M  V30 1555 H 144.722 6.34203 -1.28047 0
M  V30 1556 N 144.854 0.36279 1.53368 0
M  V30 1557 C 146.103 -0.22888 2.00397 0
M  V30 1558 C 146.416 -1.50096 1.25421 0
M  V30 1559 O 147.622 -2.17106 1.63025 0
M  V30 1560 C 146.078 -0.458417 3.56969 0
M  V30 1561 C 145.686 0.798877 4.4082 0
M  V30 1562 C 147.43 -1.00789 4.12361 0
M  V30 1563 C 145.337 0.539078 5.88938 0
M  V30 1564 H 144.267 -0.089305 0.748693 0
M  V30 1565 H 146.918 0.481099 1.77081 0
M  V30 1566 H 145.3 -1.22959 3.76427 0
M  V30 1567 H 146.474 1.57262 4.33134 0
M  V30 1568 H 144.789 1.27137 3.96516 0
M  V30 1569 H 147.386 -1.21754 5.20653 0
M  V30 1570 H 147.729 -1.9692 3.66781 0
M  V30 1571 H 148.262 -0.296961 3.9669 0
M  V30 1572 H 145.001 1.47064 6.3879 0
M  V30 1573 H 144.521 -0.196222 5.99479 0
M  V30 1574 H 146.2 0.163542 6.46793 0
M  V30 1575 N 146.332 -1.57332 0.0918853 0
M  V30 1576 C 147.56 -1.98574 -0.581048 0
M  V30 1577 C 147.975 -0.970903 -1.61923 0
M  V30 1578 O 147.332 0.0399054 -1.82456 0
M  V30 1579 C 147.383 -3.39872 -1.23164 0
M  V30 1580 O 147.104 -4.37469 -0.234989 0
M  V30 1581 C 148.605 -3.96099 -1.99049 0
M  V30 1582 H 145.825 -0.65261 -0.156018 0
M  V30 1583 H 148.369 -2.0379 0.170225 0
M  V30 1584 H 146.524 -3.35679 -1.93386 0
M  V30 1585 H 146.938 -5.19751 -0.70418 0
M  V30 1586 H 148.412 -4.97127 -2.39934 0
M  V30 1587 H 148.889 -3.3374 -2.85507 0
M  V30 1588 H 149.495 -4.03755 -1.3365 0
M  V30 1589 N 147.81 0.181792 -1.56548 0
M  V30 1590 C 148.773 1.20894 -1.94724 0
M  V30 1591 C 149.773 1.37738 -0.829747 0
M  V30 1592 O 150.963 1.35323 -1.09697 0
M  V30 1593 C 148.095 2.57593 -2.23291 0
M  V30 1594 H 149.288 0.882275 -2.86629 0
M  V30 1595 H 146.841 0.423838 -1.50444 0
M  V30 1596 H 147.576 2.95291 -1.34067 0
M  V30 1597 H 147.361 2.46735 -3.04736 0
M  V30 1598 H 148.851 3.31637 -2.53785 0
M  V30 1599 N 149.288 1.51039 0.449983 0
M  V30 1600 C 150.534 1.64287 1.19923 0
M  V30 1601 C 150.889 0.348701 1.89214 0
M  V30 1602 O 150.182 -0.654751 1.80065 0
M  V30 1603 C 150.376 2.77556 2.25161 0
M  V30 1604 C 150.205 4.17862 1.66198 0
M  V30 1605 C 148.975 4.83976 1.45243 0
M  V30 1606 C 151.173 5.01388 1.14519 0
M  V30 1607 N 149.155 6.08433 0.817437 0
M  V30 1608 C 150.526 6.16743 0.634705 0
M  V30 1609 C 152.581 4.87008 1.03574 0
M  V30 1610 C 151.284 7.19295 0.0255452 0
M  V30 1611 C 153.31 5.89757 0.440489 0
M  V30 1612 C 152.672 7.04375 -0.0595112 0
M  V30 1613 H 148.771 0.655161 0.426952 0
M  V30 1614 H 151.355 1.88228 0.49781 0
M  V30 1615 H 149.526 2.553 2.92706 0
M  V30 1616 H 151.258 2.80049 2.92155 0
M  V30 1617 H 148.013 4.41627 1.71063 0
M  V30 1618 H 148.437 6.75017 0.517747 0
M  V30 1619 H 153.079 3.9866 1.4082 0
M  V30 1620 H 150.797 8.07302 -0.359071 0
M  V30 1621 H 154.383 5.80698 0.35788 0
M  V30 1622 H 153.263 7.82521 -0.512882 0
M  V30 1623 N 150.766 -0.704594 1.40972 0
M  V30 1624 C 151.716 -1.81051 1.38581 0
M  V30 1625 C 152.7 -1.58759 0.261585 0
M  V30 1626 O 153.892 -1.69745 0.501556 0
M  V30 1627 C 151.021 -3.19279 1.26157 0
M  V30 1628 C 150.107 -3.47296 2.43405 0
M  V30 1629 N 150.498 -3.46064 3.68881 0
M  V30 1630 C 148.796 -3.77804 2.37023 0
M  V30 1631 C 149.497 -3.72733 4.46592 0
M  V30 1632 N 148.473 -3.9203 3.76581 0
M  V30 1633 H 152.275 -1.78448 2.33525 0
M  V30 1634 H 149.789 -0.904198 1.349 0
M  V30 1635 H 151.786 -3.98488 1.22526 0
M  V30 1636 H 150.446 -3.231 0.321902 0
M  V30 1637 H 151.457 -3.26656 4.01891 0
M  V30 1638 H 148.134 -3.8905 1.51481 0
M  V30 1639 H 149.524 -3.77993 5.55492 0
M  V30 1640 N 152.244 -1.26651 -0.937939 0
M  V30 1641 C 153.655 -1.1125 -1.49934 0
M  V30 1642 C 154.006 0.306077 -1.93798 0
M  V30 1643 O 153.131 1.19792 -1.80219 0
M  V30 1644 C 153.726 -2.01339 -2.72485 0
M  V30 1645 C 152.285 -1.90074 -3.24883 0
M  V30 1646 C 151.432 -1.94498 -1.97651 0
M  V30 1647 H 154.383 -1.39693 -0.753091 0
M  V30 1648 H 154.404 -1.56319 -3.46907 0
M  V30 1649 H 153.916 -3.04577 -2.40529 0
M  V30 1650 H 152.017 -0.897827 -3.61621 0
M  V30 1651 H 152.13 -2.75778 -3.9177 0
M  V30 1652 H 150.494 -1.38591 -2.13693 0
M  V30 1653 H 151.277 -2.99372 -1.68022 0
M  V30 1654 N 153.722 1.14298 -1.08507 0
M  V30 1655 C 155.133 1.66926 -0.836227 0
M  V30 1656 C 155.484 1.85576 0.63686 0
M  V30 1657 O 154.609 1.56767 1.49175 0
M  V30 1658 C 155.204 3.03219 -1.51142 0
M  V30 1659 C 153.763 3.52876 -1.30979 0
M  V30 1660 C 152.91 2.2833 -1.57356 0
M  V30 1661 H 155.861 0.983491 -1.24552 0
M  V30 1662 H 155.882 3.68726 -0.939211 0
M  V30 1663 H 155.394 2.89612 -2.58353 0
M  V30 1664 H 153.495 3.71703 -0.258429 0
M  V30 1665 H 153.608 4.33586 -2.03814 0
M  V30 1666 H 151.972 2.34454 -0.995164 0
M  V30 1667 H 152.755 2.17298 -2.65775 0
M  V30 1668 N 155.201 0.870884 1.31352 0
M  V30 1669 C 156.164 0.332243 2.26779 0
M  V30 1670 C 157.164 -0.517302 1.52252 0
M  V30 1671 O 158.354 -0.326477 1.71113 0
M  V30 1672 C 155.486 -0.528066 3.36785 0
M  V30 1673 H 156.679 1.17469 2.75937 0
M  V30 1674 H 154.232 0.64655 1.423 0
M  V30 1675 H 154.967 -1.39167 2.92922 0
M  V30 1676 H 154.752 0.0802582 3.92018 0
M  V30 1677 H 156.242 -0.897179 4.07849 0
M  V30 1678 N 156.679 -1.44442 0.630414 0
M  V30 1679 C 158.09 -1.85434 0.217063 0
M  V30 1680 C 158.441 -1.52748 -1.23136 0
M  V30 1681 O 157.566 -0.965205 -1.93682 0
M  V30 1682 C 158.161 -3.36581 0.387168 0
M  V30 1683 C 156.72 -3.76389 0.0283297 0
M  V30 1684 C 155.867 -2.68296 0.700889 0
M  V30 1685 H 158.818 -1.34919 0.83562 0
M  V30 1686 H 158.839 -3.78657 -0.374086 0
M  V30 1687 H 158.351 -3.60339 1.44144 0
M  V30 1688 H 156.452 -3.58246 -1.02423 0
M  V30 1689 H 156.565 -4.77095 0.437892 0
M  V30 1690 H 154.929 -2.54335 0.136267 0
M  V30 1691 H 155.712 -2.94887 1.75774 0
M  V30 1692 N 158.157 -0.370918 -1.53173 0
M  V30 1693 C 159.087 0.464847 -2.28826 0
M  V30 1694 C 160.068 1.07936 -1.31468 0
M  V30 1695 O 161.253 1.0956 -1.60344 0
M  V30 1696 C 158.383 1.60196 -3.08147 0
M  V30 1697 C 157.337 1.11443 -4.13237 0
M  V30 1698 C 156.663 2.3422 -4.80672 0
M  V30 1699 C 157.963 0.195384 -5.21934 0
M  V30 1700 H 159.657 -0.166329 -2.98938 0
M  V30 1701 H 157.203 -0.0814359 -1.4377 0
M  V30 1702 H 159.156 2.19332 -3.59822 0
M  V30 1703 H 157.88 2.26045 -2.35735 0
M  V30 1704 H 156.539 0.545727 -3.62515 0
M  V30 1705 H 156.187 2.98537 -4.04827 0
M  V30 1706 H 155.887 2.02269 -5.51689 0
M  V30 1707 H 157.411 2.94032 -5.35143 0
M  V30 1708 H 158.825 0.694375 -5.69079 0
M  V30 1709 H 157.222 -0.0335027 -6.00091 0
M  V30 1710 H 158.292 -0.760961 -4.78892 0
M  V30 1711 N 159.635 1.57281 -0.100228 0
M  V30 1712 C 161.046 1.81725 0.428107 0
M  V30 1713 C 161.397 1.01619 1.67833 0
M  V30 1714 O 160.522 0.247098 2.14985 0
M  V30 1715 C 161.117 3.29617 0.78347 0
M  V30 1716 C 159.676 3.54808 1.25653 0
M  V30 1717 C 158.823 2.76118 0.255752 0
M  V30 1718 H 161.774 1.55324 -0.325608 0
M  V30 1719 H 161.795 3.4322 1.64256 0
M  V30 1720 H 161.307 3.87893 -0.12665 0
M  V30 1721 H 159.408 3.01868 2.18418 0
M  V30 1722 H 159.521 4.63443 1.21482 0
M  V30 1723 H 157.885 2.43745 0.738956 0
M  V30 1724 H 158.668 3.37145 -0.647136 0
M  V30 1725 N 161.113 -0.173488 1.56642 0
M  V30 1726 C 162.338 -0.910149 1.86363 0
M  V30 1727 C 162.763 -1.75132 0.686318 0
M  V30 1728 O 162.121 -1.77595 -0.364643 0
M  V30 1729 C 162.169 -1.76447 3.14482 0
M  V30 1730 O 161.273 -2.86584 2.96553 0
M  V30 1731 H 160.614 -0.255086 0.613047 0
M  V30 1732 H 163.144 -0.172283 2.03873 0
M  V30 1733 H 163.154 -2.16483 3.45831 0
M  V30 1734 H 161.829 -1.14658 3.99783 0
M  V30 1735 H 160.406 -2.50146 2.76553 0
M  V30 1736 N 162.591 -1.51276 -0.441967 0
M  V30 1737 C 164.002 -1.56244 -1.02199 0
M  V30 1738 C 164.353 -0.383149 -1.92422 0
M  V30 1739 O 163.478 0.500613 -2.1053 0
M  V30 1740 C 164.073 -2.83162 -1.86024 0
M  V30 1741 C 162.632 -2.90716 -2.39084 0
M  V30 1742 C 161.779 -2.50858 -1.18175 0
M  V30 1743 H 164.73 -1.5712 -0.223416 0
M  V30 1744 H 164.751 -2.66663 -2.71425 0
M  V30 1745 H 164.263 -3.68974 -1.20331 0
M  V30 1746 H 162.364 -2.09323 -3.08244 0
M  V30 1747 H 162.477 -3.94266 -2.72198 0
M  V30 1748 H 160.841 -2.03951 -1.52565 0
M  V30 1749 H 161.624 -3.3901 -0.541001 0
M  V30 1750 N 164.069 0.697108 -1.41344 0
M  V30 1751 C 165.317 1.45426 -1.40341 0
M  V30 1752 C 165.638 1.94996 -0.0128787 0
M  V30 1753 O 164.908 1.71599 0.945027 0
M  V30 1754 H 163.488 0.539594 -0.516573 0
M  V30 1755 H 166.15 0.825201 -1.76569 0
M  V30 1756 H 165.246 2.31817 -2.08967 0
M  V30 1757 N 165.547 1.27147 0.931209 0
M  V30 1758 C 166.775 1.16082 1.71267 0
M  V30 1759 C 167.19 -0.282772 1.8667 0
M  V30 1760 O 166.547 -1.19283 1.38122 0
M  V30 1761 C 166.598 1.8358 3.11417 0
M  V30 1762 O 166.319 3.22299 2.96741 0
M  V30 1763 C 167.82 1.78597 4.05732 0
M  V30 1764 H 165.04 0.403758 0.535929 0
M  V30 1765 H 167.584 1.67953 1.16671 0
M  V30 1766 H 165.739 1.35623 3.62885 0
M  V30 1767 H 166.153 3.55851 3.85319 0
M  V30 1768 H 167.627 2.30444 5.01597 0
M  V30 1769 H 168.104 0.754564 4.3267 0
M  V30 1770 H 168.71 2.26152 3.60188 0
M  V30 1771 N 167.025 -1.13721 1.09112 0
M  V30 1772 C 168.253 -1.88773 0.846899 0
M  V30 1773 C 168.668 -1.7896 -0.601572 0
M  V30 1774 O 168.025 -1.15394 -1.41388 0
M  V30 1775 C 168.076 -3.3849 1.26913 0
M  V30 1776 O 167.797 -3.48043 2.66079 0
M  V30 1777 C 169.298 -4.30518 1.05682 0
M  V30 1778 H 166.518 -0.59772 0.304914 0
M  V30 1779 H 169.062 -1.43977 1.45227 0
M  V30 1780 H 167.217 -3.80881 0.707723 0
M  V30 1781 H 167.631 -4.4109 2.83795 0
M  V30 1782 H 169.105 -5.3391 1.40156 0
M  V30 1783 H 169.582 -4.392 -0.00563416 0
M  V30 1784 H 170.188 -3.93893 1.60402 0
M  V30 1785 N 168.503 -0.877838 -1.30888 0
M  V30 1786 C 169.466 -0.344265 -2.266 0
M  V30 1787 C 170.466 0.50922 -1.52524 0
M  V30 1788 O 171.656 0.317398 -1.71284 0
M  V30 1789 C 168.788 0.510198 -3.37061 0
M  V30 1790 H 169.981 -1.1893 -2.7531 0
M  V30 1791 H 167.534 -0.654088 -1.41956 0
M  V30 1792 H 168.269 1.37612 -2.93655 0
M  V30 1793 H 168.054 -0.101047 -3.9197 0
M  V30 1794 H 169.544 0.875537 -4.08319 0
M  V30 1795 N 169.982 1.44106 -0.638065 0
M  V30 1796 C 171.393 1.85316 -0.226894 0
M  V30 1797 C 171.744 1.53399 1.22324 0
M  V30 1798 O 170.869 0.975463 1.93167 0
M  V30 1799 C 171.464 3.3637 -0.405013 0
M  V30 1800 C 170.023 3.76369 -0.0482902 0
M  V30 1801 C 169.17 2.67921 -0.715108 0
M  V30 1802 H 172.121 1.34474 -0.842764 0
M  V30 1803 H 172.142 3.7885 0.354 0
M  V30 1804 H 171.654 3.59569 -1.46053 0
M  V30 1805 H 169.755 3.58784 1.00522 0
M  V30 1806 H 169.868 4.76856 -0.463187 0
M  V30 1807 H 168.232 2.54259 -0.149753 0
M  V30 1808 H 169.015 2.93951 -1.77335 0
M  V30 1809 N 171.46 0.379036 1.52974 0
M  V30 1810 C 172.876 0.0285448 1.59574 0
M  V30 1811 C 173.076 -1.45542 1.39355 0
M  V30 1812 O 172.132 -2.2187 1.20541 0
M  V30 1813 C 173.445 0.496535 2.96572 0
M  V30 1814 C 174.993 0.451909 3.0972 0
M  V30 1815 C 175.468 0.895924 4.49152 0
M  V30 1816 N 176.959 0.851522 4.55306 0
M  V30 1817 C 177.694 1.16661 5.61407 0
M  V30 1818 N 177.19 1.55166 6.752 0
M  V30 1819 N 178.983 1.08853 5.51459 0
M  V30 1820 H 171.134 1.34525 1.64367 0
M  V30 1821 H 173.397 0.550733 0.771619 0
M  V30 1822 H 173.103 1.53258 3.16552 0
M  V30 1823 H 172.977 -0.109802 3.7704 0
M  V30 1824 H 175.364 -0.575029 2.89443 0
M  V30 1825 H 175.445 1.09392 2.3123 0
M  V30 1826 H 175.089 1.92104 4.70168 0
M  V30 1827 H 175.019 0.23103 5.26093 0
M  V30 1828 H 177.51 0.568038 3.73606 0
M  V30 1829 H 177.823 1.776 7.52116 0
M  V30 1830 H 176.168 1.59044 6.76557 0
M  V30 1831 H 179.359 0.786803 4.6144 0
M  V30 1832 H 179.532 1.33742 6.34048 0
M  V30 1833 N 172.938 -1.57226 0.108567 0
M  V30 1834 C 174.349 -1.8195 -0.418464 0
M  V30 1835 C 174.7 -1.02508 -1.67292 0
M  V30 1836 O 173.825 -0.258496 -2.14851 0
M  V30 1837 C 174.42 -3.30028 -0.765979 0
M  V30 1838 C 172.979 -3.55469 -1.23769 0
M  V30 1839 C 172.126 -2.7625 -0.241106 0
M  V30 1840 H 175.077 -1.55149 0.33384 0
M  V30 1841 H 175.098 -3.44086 -1.62434 0
M  V30 1842 H 174.61 -3.87821 0.147219 0
M  V30 1843 H 172.711 -3.03022 -2.16814 0
M  V30 1844 H 172.824 -4.6408 -1.19022 0
M  V30 1845 H 171.188 -2.44133 -0.72602 0
M  V30 1846 H 171.971 -3.36797 0.665007 0
M  V30 1847 N 174.416 0.165178 -1.56732 0
M  V30 1848 C 175.641 0.900253 -1.86843 0
M  V30 1849 C 176.066 1.74766 -0.695596 0
M  V30 1850 O 175.424 1.77786 0.35522 0
M  V30 1851 C 175.472 1.74777 -3.15413 0
M  V30 1852 O 174.576 2.85007 -2.98068 0
M  V30 1853 H 173.917 0.251832 -0.614391 0
M  V30 1854 H 176.447 0.161468 -2.03962 0
M  V30 1855 H 176.457 2.14646 -3.46974 0
M  V30 1856 H 175.132 1.12537 -4.00385 0
M  V30 1857 H 173.709 2.48676 -2.77875 0
M  V30 1858 N 175.894 1.51508 0.433938 0
M  V30 1859 C 177.119 1.68443 1.21003 0
M  V30 1860 C 177.544 0.382636 1.84167 0
M  V30 1861 O 176.902 -0.65755 1.68956 0
M  V30 1862 C 176.95 2.80405 2.26727 0
M  V30 1863 O 176.054 2.44245 3.32292 0
M  V30 1864 H 175.395 0.561536 0.354363 0
M  V30 1865 H 177.925 1.9809 0.512024 0
M  V30 1866 H 177.935 3.0459 2.71457 0
M  V30 1867 H 176.61 3.74867 1.80132 0
M  V30 1868 H 175.187 2.30644 2.93015 0
M  V30 1869 N 177.372 -0.689602 1.41712 0
M  V30 1870 C 178.621 -1.44534 1.40686 0
M  V30 1871 C 178.934 -1.95588 0.0213352 0
M  V30 1872 O 180.14 -2.71271 -0.111534 0
M  V30 1873 C 178.596 -2.61387 2.47396 0
M  V30 1874 C 178.204 -2.17094 3.91885 0
M  V30 1875 C 179.948 -3.38986 2.55517 0
M  V30 1876 C 177.855 -3.3094 4.90135 0
M  V30 1877 H 176.785 -0.542925 0.52321 0
M  V30 1878 H 179.436 -0.748054 1.6756 0
M  V30 1879 H 177.818 -3.33412 2.13664 0
M  V30 1880 H 178.992 -1.52318 4.34897 0
M  V30 1881 H 177.307 -1.52473 3.8748 0
M  V30 1882 H 179.904 -4.23747 3.26102 0
M  V30 1883 H 180.247 -3.84578 1.59391 0
M  V30 1884 H 180.78 -2.74021 2.8837 0
M  V30 1885 H 177.519 -2.90355 5.87685 0
M  V30 1886 H 177.039 -3.94546 4.51767 0
M  V30 1887 H 178.718 -3.9663 5.11169 0
M  V30 1888 N 178.85 -1.27639 -0.924453 0
M  V30 1889 C 180.261 -1.12834 -1.48746 0
M  V30 1890 C 180.612 0.285505 -1.94112 0
M  V30 1891 O 179.737 1.17874 -1.81479 0
M  V30 1892 C 180.332 -2.04217 -2.70334 0
M  V30 1893 C 178.891 -1.93509 -3.22848 0
M  V30 1894 C 178.038 -1.96583 -1.95577 0
M  V30 1895 H 180.989 -1.40484 -0.738233 0
M  V30 1896 H 181.01 -1.59989 -3.4523 0
M  V30 1897 H 180.522 -3.07111 -2.37285 0
M  V30 1898 H 178.623 -0.936131 -3.60649 0
M  V30 1899 H 178.736 -2.79917 -3.88823 0
M  V30 1900 H 177.1 -1.4085 -2.12211 0
M  V30 1901 H 177.883 -3.01137 -1.64837 0
M  V30 1902 N 180.328 1.1314 -1.09713 0
M  V30 1903 C 181.291 2.16831 -0.742751 0
M  V30 1904 C 182.291 1.59159 0.229129 0
M  V30 1905 O 183.481 1.74199 0.00693237 0
M  V30 1906 C 180.613 3.40756 -0.0989168 0
M  V30 1907 H 181.806 2.49695 -1.66109 0
M  V30 1908 H 179.359 1.2802 -0.896699 0
M  V30 1909 H 180.094 3.13485 0.830514 0
M  V30 1910 H 179.879 3.83888 -0.798265 0
M  V30 1911 H 181.369 4.17386 0.133524 0
M  V30 1912 N 181.806 0.884767 1.30421 0
M  V30 1913 C 183.217 0.553656 1.78302 0
M  V30 1914 C 183.568 -0.930153 1.7275 0
M  V30 1915 O 182.693 -1.72681 1.30423 0
M  V30 1916 C 183.288 0.998234 3.2376 0
M  V30 1917 C 181.847 0.71854 3.69478 0
M  V30 1918 C 180.994 1.18132 2.50879 0
M  V30 1919 H 183.945 1.06901 1.17294 0
M  V30 1920 H 183.966 0.327118 3.79091 0
M  V30 1921 H 183.478 2.0782 3.27769 0
M  V30 1922 H 181.579 -0.349444 3.70958 0
M  V30 1923 H 181.692 1.30595 4.60958 0
M  V30 1924 H 180.056 0.600669 2.47516 0
M  V30 1925 H 180.839 2.26902 2.57624 0
M  V30 1926 N 183.284 -1.43765 0.645699 0
M  V30 1927 C 184.247 -2.29163 -0.0409488 0
M  V30 1928 C 185.247 -1.41813 -0.757996 0
M  V30 1929 O 186.437 -1.63527 -0.600382 0
M  V30 1930 C 183.569 -3.23716 -1.06869 0
M  V30 1931 H 184.762 -2.91366 0.710345 0
M  V30 1932 H 182.315 -1.5092 0.406547 0
M  V30 1933 H 183.05 -2.66393 -1.84947 0
M  V30 1934 H 182.835 -3.88105 -0.558277 0
M  V30 1935 H 184.325 -3.87831 -1.54845 0
M  V30 1936 N 184.763 -0.387143 -1.52771 0
M  V30 1937 C 185.673 0.456442 -2.30117 0
M  V30 1938 C 186.689 1.07342 -1.36944 0
M  V30 1939 O 187.865 1.07971 -1.70013 0
M  V30 1940 C 184.93 1.56957 -3.09136 0
M  V30 1941 C 183.991 0.977916 -4.18014 0
M  V30 1942 C 183.224 2.038 -4.93256 0
M  V30 1943 O 183.447 3.25271 -4.68567 0
M  V30 1944 O 182.381 1.6565 -5.78657 0
M  V30 1945 H 186.207 -0.17359 -3.03203 0
M  V30 1946 H 183.792 -0.150919 -1.48636 0
M  V30 1947 H 185.674 2.21628 -3.58412 0
M  V30 1948 H 184.349 2.18461 -2.38865 0
M  V30 1949 H 183.256 0.294525 -3.72939 0
M  V30 1950 H 184.589 0.407128 -4.90513 0
M  V30 1951 N 186.241 1.57166 -0.116904 0
M  V30 1952 C 187.204 2.14039 0.819742 0
M  V30 1953 C 188.204 1.07477 1.19605 0
M  V30 1954 O 189.394 1.33263 1.1219 0
M  V30 1955 C 186.526 2.67891 2.10826 0
M  V30 1956 H 187.719 2.98128 0.325511 0
M  V30 1957 H 185.272 1.55739 0.132312 0
M  V30 1958 H 186.007 1.87384 2.64685 0
M  V30 1959 H 185.792 3.45823 1.84793 0
M  V30 1960 H 187.282 3.11809 2.77785 0
M  V30 1961 N 187.719 -0.156864 1.56817 0
M  V30 1962 C 188.629 -1.2136 2.00771 0
M  V30 1963 C 189.645 -1.47598 0.921459 0
M  V30 1964 O 190.821 -1.59462 1.2302 0
M  V30 1965 C 187.886 -2.52943 2.37109 0
M  V30 1966 C 186.947 -2.34439 3.59634 0
M  V30 1967 C 186.18 -3.59748 3.94229 0
M  V30 1968 O 186.403 -4.65526 3.29609 0
M  V30 1969 O 185.337 -3.52998 4.8752 0
M  V30 1970 H 189.163 -0.870468 2.90958 0
M  V30 1971 H 186.748 -0.36484 1.44877 0
M  V30 1972 H 188.63 -3.30538 2.61386 0
M  V30 1973 H 187.305 -2.86806 1.5008 0
M  V30 1974 H 186.212 -1.54828 3.40557 0
M  V30 1975 H 187.545 -2.05496 4.4725 0
M  V30 1976 N 189.197 -1.51736 -0.425897 0
M  V30 1977 C 190.16 -1.73271 -1.50032 0
M  V30 1978 C 191.16 -0.602639 -1.4908 0
M  V30 1979 O 192.35 -0.87033 -1.509 0
M  V30 1980 C 189.482 -1.79969 -2.89523 0
M  V30 1981 H 190.675 -2.69172 -1.32237 0
M  V30 1982 H 188.228 -1.41899 -0.65532 0
M  V30 1983 H 188.963 -0.859241 -3.1271 0
M  V30 1984 H 188.748 -2.62109 -2.91619 0
M  V30 1985 H 190.238 -1.9843 -3.67444 0
M  V30 1986 N 190.675 0.682077 -1.42076 0
M  V30 1987 C 191.921 1.44283 -1.43366 0
M  V30 1988 C 192.276 1.92344 -0.0465775 0
M  V30 1989 O 191.569 1.67517 0.929973 0
M  V30 1990 C 191.763 2.66036 -2.38662 0
M  V30 1991 C 191.592 2.29889 -3.86499 0
M  V30 1992 C 190.362 2.19599 -4.55087 0
M  V30 1993 C 192.56 1.91999 -4.77117 0
M  V30 1994 N 190.542 1.76478 -5.87987 0
M  V30 1995 C 191.913 1.59741 -5.99068 0
M  V30 1996 C 193.968 1.78927 -4.64639 0
M  V30 1997 C 192.671 1.15723 -7.0993 0
M  V30 1998 C 194.697 1.36314 -5.75476 0
M  V30 1999 C 194.059 1.04975 -6.96534 0
M  V30 2000 H 190.158 0.524739 -0.579805 0
M  V30 2001 H 192.742 0.787834 -1.78048 0
M  V30 2002 H 190.913 3.29237 -2.06053 0
M  V30 2003 H 192.645 3.32588 -2.30581 0
M  V30 2004 H 189.4 2.38433 -4.09202 0
M  V30 2005 H 189.824 1.57362 -6.58458 0
M  V30 2006 H 194.466 2.01805 -3.7153 0
M  V30 2007 H 192.184 0.91591 -8.02893 0
M  V30 2008 H 195.77 1.26731 -5.6783 0
M  V30 2009 H 194.65 0.725017 -7.80841 0
M  V30 2010 N 192.153 1.28127 0.917671 0
M  V30 2011 C 193.378 1.18007 1.70555 0
M  V30 2012 C 193.803 -0.258257 1.86319 0
M  V30 2013 O 193.161 -1.1869 1.37049 0
M  V30 2014 C 193.209 1.87948 3.07746 0
M  V30 2015 O 192.313 1.18427 3.9503 0
M  V30 2016 H 191.654 0.409867 0.522403 0
M  V30 2017 H 194.184 1.69379 1.1477 0
M  V30 2018 H 194.194 1.95701 3.58001 0
M  V30 2019 H 192.869 2.92573 2.95591 0
M  V30 2020 H 191.446 1.18811 3.53466 0
M  V30 2021 N 193.631 -1.12557 1.10312 0
M  V30 2022 C 195.042 -1.65574 0.862678 0
M  V30 2023 C 195.393 -1.86566 -0.607256 0
M  V30 2024 O 194.518 -1.59121 -1.46662 0
M  V30 2025 C 195.113 -3.00776 1.55947 0
M  V30 2026 C 193.672 -3.50748 1.36576 0
M  V30 2027 C 192.819 -2.25797 1.60968 0
M  V30 2028 H 195.77 -0.963552 1.26101 0
M  V30 2029 H 195.791 -3.67185 0.997753 0
M  V30 2030 H 195.303 -2.85465 2.62928 0
M  V30 2031 H 193.404 -3.71245 0.317531 0
M  V30 2032 H 193.517 -4.30289 2.10686 0
M  V30 2033 H 191.881 -2.32841 1.03234 0
M  V30 2034 H 192.664 -2.13043 2.69198 0
M  V30 2035 N 195.109 -0.891671 -1.2995 0
M  V30 2036 C 196.525 -0.58662 -1.48428 0
M  V30 2037 C 196.725 0.873951 -1.81561 0
M  V30 2038 O 195.781 1.65471 -1.90724 0
M  V30 2039 C 197.094 -1.50553 -2.60296 0
M  V30 2040 C 198.642 -1.50988 -2.74175 0
M  V30 2041 C 199.117 -2.41488 -3.89163 0
M  V30 2042 N 200.608 -2.39489 -3.96483 0
M  V30 2043 C 201.343 -3.06223 -4.84784 0
M  V30 2044 N 200.839 -3.82206 -5.77833 0
M  V30 2045 N 202.632 -2.95421 -4.78208 0
M  V30 2046 H 194.783 -1.83644 -1.06718 0
M  V30 2047 H 197.046 -0.786455 -0.529332 0
M  V30 2048 H 196.752 -2.54581 -2.42654 0
M  V30 2049 H 196.626 -1.22008 -3.56923 0
M  V30 2050 H 199.013 -0.47708 -2.91218 0
M  V30 2051 H 199.094 -1.83567 -1.78148 0
M  V30 2052 H 198.738 -3.44857 -3.72876 0
M  V30 2053 H 198.668 -2.06222 -4.84541 0
M  V30 2054 H 201.159 -1.84278 -3.29924 0
M  V30 2055 H 201.472 -4.302 -6.41988 0
M  V30 2056 H 199.817 -3.86313 -5.77743 0
M  V30 2057 H 203.008 -2.35581 -4.04499 0
M  V30 2058 H 203.181 -3.47704 -5.46814 0
M  V30 2059 N 196.587 1.43421 -0.653314 0
M  V30 2060 C 197.534 2.30768 0.0382271 0
M  V30 2061 C 198.504 1.44755 0.814576 0
M  V30 2062 O 199.689 1.73624 0.791162 0
M  V30 2063 C 196.829 3.30336 0.998599 0
M  V30 2064 C 195.942 4.31448 0.218342 0
M  V30 2065 C 195.077 5.18098 1.17252 0
M  V30 2066 C 194.116 6.10902 0.382702 0
M  V30 2067 N 193.253 6.90176 1.28848 0
M  V30 2068 H 198.093 2.89357 -0.712511 0
M  V30 2069 H 195.63 1.42548 -0.363128 0
M  V30 2070 H 197.588 3.86572 1.56901 0
M  V30 2071 H 196.218 2.73397 1.71621 0
M  V30 2072 H 195.27 3.77506 -0.46836 0
M  V30 2073 H 196.582 4.97227 -0.395812 0
M  V30 2074 H 195.736 5.7896 1.81356 0
M  V30 2075 H 194.475 4.52444 1.82058 0
M  V30 2076 H 193.48 5.49128 -0.27169 0
M  V30 2077 H 194.705 6.78598 -0.260957 0
M  V30 2078 H 192.651 6.27171 1.92334 0
M  V30 2079 H 192.568 7.52478 0.728887 0
M  V30 2080 H 193.836 7.55543 1.91766 0
M  V30 2081 N 198.065 0.39524 1.52563 0
M  V30 2082 C 198.995 -0.428384 2.29537 0
M  V30 2083 C 199.976 -1.05831 1.33169 0
M  V30 2084 O 201.161 -1.06995 1.62067 0
M  V30 2085 C 198.291 -1.55274 3.10656 0
M  V30 2086 C 197.245 -1.04855 4.14957 0
M  V30 2087 C 196.571 -2.26543 4.84337 0
M  V30 2088 C 197.871 -0.112324 5.22179 0
M  V30 2089 H 199.565 0.213867 2.98635 0
M  V30 2090 H 197.111 0.104298 1.43622 0
M  V30 2091 H 199.064 -2.1358 3.63265 0
M  V30 2092 H 197.788 -2.22266 2.39302 0
M  V30 2093 H 196.447 -0.487985 3.63338 0
M  V30 2094 H 196.095 -2.92059 4.09525 0
M  V30 2095 H 195.795 -1.93466 5.54837 0
M  V30 2096 H 197.319 -2.85481 5.39753 0
M  V30 2097 H 198.733 -0.603752 5.70112 0
M  V30 2098 H 197.13 0.128968 5.99961 0
M  V30 2099 H 198.2 0.837052 4.77621 0
M  V30 2100 N 199.544 -1.57102 0.125237 0
M  V30 2101 C 200.955 -1.82384 -0.399142 0
M  V30 2102 C 201.306 -1.04276 -1.66195 0
M  V30 2103 O 200.431 -0.281269 -2.14564 0
M  V30 2104 C 201.026 -3.30821 -0.730932 0
M  V30 2105 C 199.585 -3.56762 -1.19992 0
M  V30 2106 C 198.732 -2.7649 -0.211792 0
M  V30 2107 H 201.683 -1.54786 0.350277 0
M  V30 2108 H 201.704 -3.4579 -1.58775 0
M  V30 2109 H 201.216 -3.87643 0.188345 0
M  V30 2110 H 199.317 -3.05305 -2.13588 0
M  V30 2111 H 199.43 -4.65317 -1.14093 0
M  V30 2112 H 197.794 -2.4489 -0.700085 0
M  V30 2113 H 198.577 -3.36073 0.700691 0
M  V30 2114 N 201.022 0.148545 -1.56898 0
M  V30 2115 C 202.247 0.880385 -1.87787 0
M  V30 2116 C 202.672 1.74018 -0.714093 0
M  V30 2117 O 202.03 1.78153 0.336343 0
M  V30 2118 C 202.078 1.71422 -3.17249 0
M  V30 2119 O 201.182 2.8183 -3.01074 0
M  V30 2120 H 200.523 0.245301 -0.617028 0
M  V30 2121 H 203.053 0.139826 -2.04122 0
M  V30 2122 H 203.063 2.10954 -3.49231 0
M  V30 2123 H 201.738 1.08284 -4.01556 0
M  V30 2124 H 200.315 2.45715 -2.80497 0
M  V30 2125 N 202.5 1.5196 0.417844 0
M  V30 2126 C 203.725 1.69717 1.1921 0
M  V30 2127 C 204.15 0.402148 1.83751 0
M  V30 2128 O 203.508 -0.639593 1.69643 0
M  V30 2129 C 203.556 2.82794 2.2374 0
M  V30 2130 O 202.66 2.47756 3.29683 0
M  V30 2131 H 202.001 0.565263 0.348387 0
M  V30 2132 H 204.531 1.98621 0.490985 0
M  V30 2133 H 204.541 3.07452 2.68212 0
M  V30 2134 H 203.216 3.76756 1.76146 0
M  V30 2135 H 201.793 2.33739 2.90552 0
M  V30 2136 N 203.978 -0.674533 1.42435 0
M  V30 2137 C 204.941 -1.76986 1.45632 0
M  V30 2138 C 205.941 -1.5708 0.343871 0
M  V30 2139 O 207.131 -1.63367 0.604709 0
M  V30 2140 C 204.263 -3.15623 1.28822 0
M  V30 2141 H 205.456 -1.75539 2.43158 0
M  V30 2142 H 203.009 -0.884189 1.28887 0
M  V30 2143 H 203.744 -3.22696 0.322193 0
M  V30 2144 H 203.529 -3.31475 2.09444 0
M  V30 2145 H 205.019 -3.95537 1.33942 0
M  V30 2146 N 205.456 -1.28612 -0.910864 0
M  V30 2147 C 206.681 -1.1891 -1.69927 0
M  V30 2148 C 207.106 0.248372 -1.86453 0
M  V30 2149 O 206.464 1.17961 -1.37676 0
M  V30 2150 C 206.512 -1.89578 -3.06745 0
M  V30 2151 O 205.616 -1.20521 -3.94396 0
M  V30 2152 H 204.957 -0.412632 -0.520222 0
M  V30 2153 H 207.487 -1.69985 -1.1387 0
M  V30 2154 H 207.497 -1.97597 -3.56958 0
M  V30 2155 H 206.172 -2.94136 -2.94035 0
M  V30 2156 H 204.749 -1.20684 -3.52831 0
M  V30 2157 N 206.934 1.1197 -1.10907 0
M  V30 2158 C 208.162 1.87402 -0.876824 0
M  V30 2159 C 208.577 1.79894 0.573025 0
M  V30 2160 O 207.934 1.17629 1.39534 0
M  V30 2161 C 207.985 3.36428 -1.32282 0
M  V30 2162 O 207.706 3.43765 -2.71582 0
M  V30 2163 C 209.207 4.28783 -1.12518 0
M  V30 2164 H 206.427 0.592793 -0.314384 0
M  V30 2165 H 208.971 1.41649 -1.47499 0
M  V30 2166 H 207.126 3.79706 -0.768229 0
M  V30 2167 H 207.54 4.3652 -2.90776 0
M  V30 2168 H 209.014 5.31613 -1.48633 0
M  V30 2169 H 209.491 4.39153 -0.0642394 0
M  V30 2170 H 210.097 3.91291 -1.66648 0
M  V30 2171 N 208.412 0.89855 1.29475 0
M  V30 2172 C 209.659 0.523882 1.95606 0
M  V30 2173 C 209.987 -0.929608 1.70847 0
M  V30 2174 O 209.242 -1.67401 1.01367 0
M  V30 2175 C 209.541 0.761398 3.49195 0
M  V30 2176 C 209.207 2.19207 3.94029 0
M  V30 2177 C 207.869 2.58326 4.05982 0
M  V30 2178 C 210.221 3.12379 4.17216 0
M  V30 2179 C 207.549 3.898 4.38489 0
M  V30 2180 C 209.901 4.43401 4.51197 0
M  V30 2181 C 208.565 4.82394 4.61359 0
M  V30 2182 H 207.835 0.191702 0.715773 0
M  V30 2183 H 210.482 1.13699 1.54094 0
M  V30 2184 H 208.787 0.0653622 3.91745 0
M  V30 2185 H 210.484 0.450904 3.98457 0
M  V30 2186 H 207.074 1.87846 3.85242 0
M  V30 2187 H 211.258 2.83371 4.07449 0
M  V30 2188 H 206.514 4.19734 4.44559 0
M  V30 2189 H 210.688 5.15623 4.68087 0
M  V30 2190 H 208.315 5.84306 4.86303 0
M  V30 2191 N 209.89 -1.43072 0.660911 0
M  V30 2192 C 210.82 -2.33497 -0.0122829 0
M  V30 2193 C 211.801 -1.49903 -0.803925 0
M  V30 2194 O 212.986 -1.78546 -0.763864 0
M  V30 2195 C 210.116 -3.33363 -0.973994 0
M  V30 2196 C 209.07 -4.27003 -0.291928 0
M  V30 2197 C 208.396 -5.16967 -1.36562 0
M  V30 2198 C 209.696 -5.15816 0.820462 0
M  V30 2199 H 211.39 -2.90038 0.742873 0
M  V30 2200 H 208.936 -1.39461 0.358688 0
M  V30 2201 H 210.889 -3.95524 -1.45392 0
M  V30 2202 H 209.613 -2.75095 -1.7604 0
M  V30 2203 H 208.272 -3.66217 0.167623 0
M  V30 2204 H 207.92 -4.55034 -2.14366 0
M  V30 2205 H 207.62 -5.80441 -0.914454 0
M  V30 2206 H 209.144 -5.82003 -1.84675 0
M  V30 2207 H 210.558 -5.71742 0.422366 0
M  V30 2208 H 208.955 -5.8805 1.19656 0
M  V30 2209 H 210.025 -4.55045 1.67518 0
M  V30 2210 N 211.368 -0.403325 -1.52352 0
M  V30 2211 C 212.593 0.176499 -2.06648 0
M  V30 2212 C 213.018 1.38577 -1.27193 0
M  V30 2213 O 212.376 1.7879 -0.300637 0
M  V30 2214 C 212.424 0.511061 -3.5696 0
M  V30 2215 O 211.528 1.60294 -3.79973 0
M  V30 2216 H 210.869 0.0167337 -0.663789 0
M  V30 2217 H 213.399 -0.574848 -1.96359 0
M  V30 2218 H 213.409 0.771362 -4.00642 0
M  V30 2219 H 212.084 -0.37296 -4.14224 0
M  V30 2220 H 210.661 1.33526 -3.48174 0
M  V30 2221 N 212.846 1.57033 -0.133567 0
M  V30 2222 C 214.257 1.82593 0.389464 0
M  V30 2223 C 214.608 1.05156 1.6564 0
M  V30 2224 O 213.733 0.292644 2.14412 0
M  V30 2225 C 214.328 3.31204 0.713377 0
M  V30 2226 C 212.887 3.57393 1.18098 0
M  V30 2227 C 212.034 2.76598 0.197126 0
M  V30 2228 H 214.985 1.54598 -0.358481 0
M  V30 2229 H 215.006 3.46627 1.56939 0
M  V30 2230 H 214.518 3.87537 -0.2089 0
M  V30 2231 H 212.619 3.06433 2.11966 0
M  V30 2232 H 212.732 4.65915 1.11624 0
M  V30 2233 H 211.096 2.45257 0.687088 0
M  V30 2234 H 211.879 3.35697 -0.718504 0
M  V30 2235 N 214.325 -0.140222 1.56975 0
M  V30 2236 C 215.288 -1.15689 1.97861 0
M  V30 2237 C 216.288 -1.3549 0.865974 0
M  V30 2238 O 217.478 -1.32367 1.13246 0
M  V30 2239 C 214.61 -2.51582 2.30042 0
M  V30 2240 H 215.803 -0.805971 2.88867 0
M  V30 2241 H 213.356 -0.383801 1.51515 0
M  V30 2242 H 214.091 -2.91632 1.41849 0
M  V30 2243 H 213.876 -2.38569 3.11171 0
M  V30 2244 H 215.366 -3.24792 2.62488 0
M  V30 2245 N 215.803 -1.52179 -0.40978 0
M  V30 2246 C 217.05 -1.66206 -1.15679 0
M  V30 2247 C 217.378 -0.391674 -1.90516 0
M  V30 2248 O 216.633 0.62533 -1.8544 0
M  V30 2249 C 216.932 -2.83428 -2.17723 0
M  V30 2250 C 216.598 -4.21672 -1.59699 0
M  V30 2251 C 215.26 -4.59274 -1.43599 0
M  V30 2252 C 217.612 -5.07825 -1.17317 0
M  V30 2253 C 214.94 -5.80709 -0.836328 0
M  V30 2254 C 217.292 -6.29864 -0.587691 0
M  V30 2255 C 215.956 -6.66216 -0.413818 0
M  V30 2256 H 215.226 -0.608192 -0.423301 0
M  V30 2257 H 217.873 -1.86279 -0.444097 0
M  V30 2258 H 216.178 -2.57687 -2.95135 0
M  V30 2259 H 217.875 -2.91477 -2.75394 0
M  V30 2260 H 214.465 -3.9204 -1.73213 0
M  V30 2261 H 218.649 -4.79359 -1.28565 0
M  V30 2262 H 213.905 -6.07498 -0.689626 0
M  V30 2263 H 218.079 -6.95948 -0.250894 0
M  V30 2264 H 215.706 -7.60182 0.0529471 0
M  V30 2265 N 217.281 0.66697 -1.42791 0
M  V30 2266 C 218.692 1.2478 -1.38877 0
M  V30 2267 C 219.043 1.96012 -0.0859426 0
M  V30 2268 O 218.168 2.00463 0.815081 0
M  V30 2269 C 218.763 2.26938 -2.51564 0
M  V30 2270 C 217.322 2.80529 -2.50959 0
M  V30 2271 C 216.469 1.54965 -2.29959 0
M  V30 2272 H 219.42 0.459853 -1.51892 0
M  V30 2273 H 219.441 3.08834 -2.22265 0
M  V30 2274 H 218.953 1.75065 -3.46372 0
M  V30 2275 H 217.054 3.36502 -1.59991 0
M  V30 2276 H 217.167 3.29012 -3.48265 0
M  V30 2277 H 215.531 1.81817 -1.78366 0
M  V30 2278 H 216.314 1.05047 -3.26833 0
M  V30 2279 N 218.759 1.29093 0.90403 0
M  V30 2280 C 220.007 1.16583 1.65085 0
M  V30 2281 C 220.328 -0.283933 1.92922 0
M  V30 2282 O 219.598 -1.19509 1.55224 0
M  V30 2283 H 218.178 0.428467 0.611903 0
M  V30 2284 H 220.84 1.61959 1.08422 0
M  V30 2285 H 219.936 1.71266 2.6091 0
M  V30 2286 N 220.237 -1.11381 1.11499 0
M  V30 2287 C 221.462 -1.87475 0.887019 0
M  V30 2288 C 221.887 -1.79639 -0.557796 0
M  V30 2289 O 221.245 -1.15924 -1.39396 0
M  V30 2290 C 221.293 -3.34213 1.35403 0
M  V30 2291 O 220.397 -4.0903 0.526146 0
M  V30 2292 H 219.738 -0.582099 0.319463 0
M  V30 2293 H 222.268 -1.40785 1.48461 0
M  V30 2294 H 222.278 -3.8506 1.34881 0
M  V30 2295 H 220.953 -3.39232 2.40612 0
M  V30 2296 H 219.53 -3.68082 0.597522 0
M  V30 2297 N 221.715 -0.905404 -1.28997 0
M  V30 2298 C 222.647 -0.344748 -2.26592 0
M  V30 2299 C 223.66 0.512135 -1.54535 0
M  V30 2300 O 224.849 0.328368 -1.75454 0
M  V30 2301 C 221.949 0.526587 -3.34784 0
M  V30 2302 C 221.122 -0.305871 -4.36329 0
M  V30 2303 C 220.181 0.499209 -5.23827 0
M  V30 2304 O 219.207 -0.0853004 -5.69136 0
M  V30 2305 N 220.409 1.80408 -5.51755 0
M  V30 2306 H 223.174 -1.18359 -2.75338 0
M  V30 2307 H 220.735 -0.770481 -1.42391 0
M  V30 2308 H 222.727 1.07171 -3.90252 0
M  V30 2309 H 221.297 1.26613 -2.85811 0
M  V30 2310 H 220.517 -1.0324 -3.80441 0
M  V30 2311 H 221.805 -0.875773 -5.01206 0
M  V30 2312 H 221.203 2.3016 -5.16762 0
M  V30 2313 H 219.76 2.29621 -6.10014 0
M  V30 2314 N 223.193 1.4272 -0.668489 0
M  V30 2315 C 224.421 2.05966 -0.196348 0
M  V30 2316 C 224.836 1.50191 1.14403 0
M  V30 2317 O 224.193 0.639208 1.7094 0
M  V30 2318 C 224.244 3.61314 -0.115815 0
M  V30 2319 O 223.965 4.1502 -1.40322 0
M  V30 2320 C 225.466 4.41663 0.380579 0
M  V30 2321 H 222.686 0.663954 -0.0969829 0
M  V30 2322 H 225.23 1.82966 -0.913446 0
M  V30 2323 H 223.385 3.83448 0.551931 0
M  V30 2324 H 223.799 5.08832 -1.27243 0
M  V30 2325 H 225.273 5.5065 0.385848 0
M  V30 2326 H 225.75 4.15792 1.41471 0
M  V30 2327 H 226.356 4.24534 -0.255209 0
M  V30 2328 N 224.671 0.411399 1.52136 0
M  V30 2329 C 225.621 -0.430376 2.23901 0
M  V30 2330 C 226.605 -1.0116 1.25121 0
M  V30 2331 O 227.797 -0.934044 1.50348 0
M  V30 2332 C 224.926 -1.54527 3.06556 0
M  V30 2333 C 224.012 -0.9747 4.12747 0
M  V30 2334 N 224.403 -0.130991 5.0563 0
M  V30 2335 C 222.701 -1.24497 4.28271 0
M  V30 2336 C 223.402 0.186689 5.814 0
M  V30 2337 N 222.378 -0.42304 5.41951 0
M  V30 2338 H 226.18 0.220509 2.93072 0
M  V30 2339 H 223.694 0.221952 1.60876 0
M  V30 2340 H 225.691 -2.16093 3.56524 0
M  V30 2341 H 224.351 -2.19875 2.38925 0
M  V30 2342 H 225.362 0.23349 5.17373 0
M  V30 2343 H 222.039 -1.89787 3.7187 0
M  V30 2344 H 223.429 0.871673 6.66222 0
M  V30 2345 N 226.149 -1.5696 0.141893 0
M  V30 2346 C 227.374 -2.00754 -0.520838 0
M  V30 2347 C 227.799 -1.0213 -1.57959 0
M  V30 2348 O 227.157 0.00371324 -1.813 0
M  V30 2349 C 227.205 -3.43318 -1.10294 0
M  V30 2350 O 226.309 -3.47679 -2.21795 0
M  V30 2351 H 225.65 -0.651564 -0.127908 0
M  V30 2352 H 228.18 -2.03221 0.23712 0
M  V30 2353 H 228.19 -3.82012 -1.43287 0
M  V30 2354 H 226.865 -4.14608 -0.327574 0
M  V30 2355 H 225.442 -3.20824 -1.9007 0
M  V30 2356 N 227.627 0.131896 -1.57047 0
M  V30 2357 C 228.875 0.840269 -1.83804 0
M  V30 2358 C 229.196 1.81017 -0.72512 0
M  V30 2359 O 228.466 1.94272 0.251995 0
M  V30 2360 H 227.046 0.313294 -0.678127 0
M  V30 2361 H 229.708 0.122294 -1.94516 0
M  V30 2362 H 228.804 1.39335 -2.79271 0
M  V30 2363 N 229.106 1.52395 0.401703 0
M  V30 2364 C 230.517 1.58899 0.980202 0
M  V30 2365 C 230.868 0.434032 1.91339 0
M  V30 2366 O 229.993 -0.444619 2.11783 0
M  V30 2367 C 230.588 2.87994 1.78451 0
M  V30 2368 C 229.147 2.96953 2.31292 0
M  V30 2369 C 228.294 2.53903 1.11483 0
M  V30 2370 H 231.245 1.57657 0.18168 0
M  V30 2371 H 231.266 2.73765 2.64259 0
M  V30 2372 H 230.778 3.72035 1.10506 0
M  V30 2373 H 228.879 2.17422 3.02586 0
M  V30 2374 H 228.992 4.01344 2.61649 0
M  V30 2375 H 227.356 2.07925 1.47104 0
M  V30 2376 H 228.139 3.40326 0.450928 0
M  V30 2377 N 230.584 -0.659388 1.43143 0
M  V30 2378 C 231.494 -1.80167 1.50256 0
M  V30 2379 C 232.51 -1.69571 0.390106 0
M  V30 2380 O 233.686 -1.90849 0.643319 0
M  V30 2381 C 230.751 -3.16409 1.41725 0
M  V30 2382 C 229.812 -3.38848 2.63591 0
M  V30 2383 C 229.045 -4.68591 2.55458 0
M  V30 2384 O 229.268 -5.47532 1.59891 0
M  V30 2385 O 228.202 -4.92614 3.45854 0
M  V30 2386 H 232.028 -1.77121 2.46702 0
M  V30 2387 H 229.613 -0.817092 1.25076 0
M  V30 2388 H 231.495 -3.9768 1.39387 0
M  V30 2389 H 230.17 -3.20059 0.484118 0
M  V30 2390 H 229.077 -2.57366 2.71502 0
M  V30 2391 H 230.41 -3.4004 3.55856 0
M  V30 2392 N 232.062 -1.29571 -0.897171 0
M  V30 2393 C 232.992 -1.17473 -2.01798 0
M  V30 2394 C 233.973 -0.068323 -1.69963 0
M  V30 2395 O 235.158 -0.248239 -1.92607 0
M  V30 2396 C 232.288 -0.853099 -3.36659 0
M  V30 2397 C 231.242 -1.9161 -3.82713 0
M  V30 2398 C 230.568 -1.44773 -5.14728 0
M  V30 2399 C 231.868 -3.32535 -4.02763 0
M  V30 2400 H 233.562 -2.11237 -2.12177 0
M  V30 2401 H 231.108 -1.01699 -1.01948 0
M  V30 2402 H 233.061 -0.755165 -4.14578 0
M  V30 2403 H 231.785 0.120236 -3.26379 0
M  V30 2404 H 230.444 -2.00346 -3.07013 0
M  V30 2405 H 230.092 -0.462995 -5.00865 0
M  V30 2406 H 229.792 -2.15865 -5.46513 0
M  V30 2407 H 231.316 -1.36334 -5.95185 0
M  V30 2408 H 232.73 -3.26626 -4.71156 0
M  V30 2409 H 231.127 -4.01607 -4.45905 0
M  V30 2410 H 232.197 -3.75326 -3.07016 0
M  V30 2411 N 233.54 1.10788 -1.12088 0
M  V30 2412 C 234.788 1.8231 -0.872205 0
M  V30 2413 C 235.109 1.85419 0.603709 0
M  V30 2414 O 234.379 1.32963 1.43867 0
M  V30 2415 H 232.959 0.675137 -0.319686 0
M  V30 2416 H 235.621 1.34068 -1.41463 0
M  V30 2417 H 234.717 2.85955 -1.25045 0
M  V30 2418 N 235.018 0.912232 1.28515 0
M  V30 2419 C 235.948 0.416403 2.29757 0
M  V30 2420 C 236.929 -0.515194 1.6211 0
M  V30 2421 O 238.114 -0.423253 1.89532 0
M  V30 2422 C 235.244 -0.34572 3.45575 0
M  V30 2423 C 234.198 0.496599 4.25109 0
M  V30 2424 C 233.524 -0.393771 5.33248 0
M  V30 2425 C 234.824 1.75307 4.92001 0
M  V30 2426 H 236.518 1.26249 2.7148 0
M  V30 2427 H 234.064 0.608515 1.30511 0
M  V30 2428 H 236.017 -0.703422 4.15488 0
M  V30 2429 H 234.741 -1.2257 3.02728 0
M  V30 2430 H 233.4 0.8368 3.56922 0
M  V30 2431 H 233.048 -1.27225 4.86644 0
M  V30 2432 H 232.748 0.166209 5.87365 0
M  V30 2433 H 234.272 -0.747389 6.06009 0
M  V30 2434 H 235.686 1.46437 5.54283 0
M  V30 2435 H 234.083 2.25534 5.56106 0
M  V30 2436 H 235.153 2.48176 4.16577 0
M  V30 2437 N 236.496 -1.42363 0.676048 0
M  V30 2438 C 237.742 -2.0182 0.199125 0
M  V30 2439 C 238.075 -1.53339 -1.19168 0
M  V30 2440 O 237.35 -0.736124 -1.80032 0
M  V30 2441 C 237.633 -3.59331 0.235144 0
M  V30 2442 C 237.486 -4.17989 1.66149 0
M  V30 2443 C 238.805 -4.3813 -0.41595 0
M  V30 2444 H 235.924 -0.733293 0.0738311 0
M  V30 2445 H 238.566 -1.69368 0.86107 0
M  V30 2446 H 236.716 -3.87109 -0.328487 0
M  V30 2447 H 238.388 -4.0116 2.27747 0
M  V30 2448 H 236.631 -3.7377 2.20178 0
M  V30 2449 H 237.302 -5.27126 1.63837 0
M  V30 2450 H 239.778 -4.16051 0.0638529 0
M  V30 2451 H 238.654 -5.47717 -0.360115 0
M  V30 2452 H 238.915 -4.16101 -1.49373 0
M  V30 2453 N 237.974 -0.419461 -1.51915 0
M  V30 2454 C 239.385 0.0477853 -1.86639 0
M  V30 2455 C 239.736 1.43531 -1.33766 0
M  V30 2456 O 238.861 2.05401 -0.68113 0
M  V30 2457 C 239.456 0.0934885 -3.38671 0
M  V30 2458 C 238.015 0.505097 -3.72996 0
M  V30 2459 C 237.162 -0.313792 -2.75519 0
M  V30 2460 H 240.113 -0.636088 -1.45395 0
M  V30 2461 H 240.134 0.906667 -3.6954 0
M  V30 2462 H 239.646 -0.916501 -3.77123 0
M  V30 2463 H 237.747 1.52135 -3.40126 0
M  V30 2464 H 237.86 0.242309 -4.78487 0
M  V30 2465 H 236.224 0.225363 -2.53701 0
M  V30 2466 H 237.007 -1.32232 -3.16812 0
M  V30 2467 N 239.452 1.56882 -0.150215 0
M  V30 2468 C 240.677 2.01027 0.510184 0
M  V30 2469 C 241.102 1.02966 1.57415 0
M  V30 2470 O 240.46 0.00590158 1.81299 0
M  V30 2471 C 240.508 3.43899 1.08472 0
M  V30 2472 O 239.612 3.4885 2.19948 0
M  V30 2473 H 238.953 0.652233 0.124451 0
M  V30 2474 H 241.483 2.03093 -0.247894 0
M  V30 2475 H 241.493 3.82766 1.41259 0
M  V30 2476 H 240.168 4.14776 0.305582 0
M  V30 2477 H 238.745 3.21827 1.88366 0
M  V30 2478 N 240.93 -0.123565 1.57115 0
M  V30 2479 C 242.341 -0.681198 1.73829 0
M  V30 2480 C 242.692 -1.80535 0.768214 0
M  V30 2481 O 241.817 -2.16317 -0.0599103 0
M  V30 2482 C 242.412 -1.24246 3.15196 0
M  V30 2483 C 240.971 -1.74643 3.33432 0
M  V30 2484 C 240.118 -0.644284 2.69711 0
M  V30 2485 H 243.069 0.102315 1.5837 0
M  V30 2486 H 243.09 -2.11216 3.16493 0
M  V30 2487 H 242.602 -0.424062 3.85776 0
M  V30 2488 H 240.703 -2.58974 2.67886 0
M  V30 2489 H 240.816 -1.85902 4.41562 0
M  V30 2490 H 239.18 -1.07676 2.3082 0
M  V30 2491 H 239.963 0.163058 3.42913 0
M  V30 2492 N 242.408 -1.52605 -0.393616 0
M  V30 2493 C 243.371 -1.76415 -1.46323 0
M  V30 2494 C 244.371 -0.634126 -1.47768 0
M  V30 2495 O 245.561 -0.902142 -1.4902 0
M  V30 2496 C 242.693 -1.8607 -2.85641 0
M  V30 2497 H 243.886 -2.71916 -1.26498 0
M  V30 2498 H 241.439 -1.43257 -0.625073 0
M  V30 2499 H 242.174 -0.925378 -3.10817 0
M  V30 2500 H 241.959 -2.68235 -2.85993 0
M  V30 2501 H 243.449 -2.06179 -3.63153 0
M  V30 2502 N 243.887 0.651787 -1.4349 0
M  V30 2503 C 245.112 1.44434 -1.48841 0
M  V30 2504 C 245.537 1.8779 -0.107955 0
M  V30 2505 O 244.895 1.57464 0.898602 0
M  V30 2506 C 244.943 2.65458 -2.44059 0
M  V30 2507 O 244.047 3.64566 -1.92784 0
M  V30 2508 H 243.388 0.433005 -0.503391 0
M  V30 2509 H 245.918 0.797451 -1.88419 0
M  V30 2510 H 245.928 3.13255 -2.6141 0
M  V30 2511 H 244.603 2.33244 -3.4434 0
M  V30 2512 H 243.18 3.23716 -1.851 0
M  V30 2513 N 245.365 1.30045 0.890287 0
M  V30 2514 C 246.295 1.18541 2.01172 0
M  V30 2515 C 247.276 0.0773356 1.69924 0
M  V30 2516 O 248.461 0.25845 1.92473 0
M  V30 2517 C 245.591 0.870941 3.36202 0
M  V30 2518 C 244.545 1.93637 3.81692 0
M  V30 2519 C 243.871 1.475 5.13953 0
M  V30 2520 C 245.171 3.34666 4.00994 0
M  V30 2521 H 246.865 2.12359 2.11054 0
M  V30 2522 H 244.411 1.02238 1.01407 0
M  V30 2523 H 246.364 0.777141 4.14172 0
M  V30 2524 H 245.088 -0.102926 3.26438 0
M  V30 2525 H 243.747 2.01972 3.05946 0
M  V30 2526 H 243.395 0.489551 5.00612 0
M  V30 2527 H 243.095 2.1876 5.4536 0
M  V30 2528 H 244.619 1.39489 5.94454 0
M  V30 2529 H 246.033 3.2912 4.69417 0
M  V30 2530 H 244.43 4.03966 4.43769 0
M  V30 2531 H 245.5 3.76949 3.05021 0
M  V30 2532 N 246.843 -1.10192 1.12674 0
M  V30 2533 C 248.089 -1.82658 0.894847 0
M  V30 2534 C 248.444 -1.83666 -0.573107 0
M  V30 2535 O 247.737 -1.28816 -1.41835 0
M  V30 2536 C 247.931 -3.28552 1.4067 0
M  V30 2537 C 247.76 -3.41756 2.92289 0
M  V30 2538 C 246.53 -3.54021 3.60551 0
M  V30 2539 C 248.728 -3.34949 3.90274 0
M  V30 2540 N 246.71 -3.55827 5.0026 0
M  V30 2541 C 248.081 -3.43531 5.16127 0
M  V30 2542 C 250.136 -3.18565 3.8265 0
M  V30 2543 C 248.839 -3.37416 6.3525 0
M  V30 2544 C 250.865 -3.13772 5.01299 0
M  V30 2545 C 250.227 -3.22938 6.26012 0
M  V30 2546 H 246.326 -0.683044 0.380756 0
M  V30 2547 H 248.91 -1.31752 1.43351 0
M  V30 2548 H 247.081 -3.77946 0.895055 0
M  V30 2549 H 248.813 -3.88991 1.11661 0
M  V30 2550 H 245.568 -3.57135 3.1105 0
M  V30 2551 H 245.992 -3.60335 5.73138 0
M  V30 2552 H 250.634 -3.10354 2.87124 0
M  V30 2553 H 248.352 -3.44391 7.3104 0
M  V30 2554 H 251.938 -3.02242 4.97133 0
M  V30 2555 H 250.818 -3.19235 7.16281 0
M  V30 2556 N 248.321 -0.919034 -1.28029 0
M  V30 2557 C 249.732 -0.600735 -1.76771 0
M  V30 2558 C 250.083 0.884024 -1.75156 0
M  V30 2559 O 249.208 1.69163 -1.34956 0
M  V30 2560 C 249.803 -1.08372 -3.21 0
M  V30 2561 C 248.362 -0.816248 -3.67443 0
M  V30 2562 C 247.509 -1.24742 -2.47658 0
M  V30 2563 H 250.46 -1.09974 -1.14418 0
M  V30 2564 H 250.481 -0.427512 -3.78091 0
M  V30 2565 H 249.993 -2.16437 -3.22144 0
M  V30 2566 H 248.094 0.250968 -3.71754 0
M  V30 2567 H 248.207 -1.4277 -4.57333 0
M  V30 2568 H 246.571 -0.666083 -2.45836 0
M  V30 2569 H 247.354 -2.33653 -2.51518 0
M  V30 2570 N 249.799 1.42003 -0.683588 0
M  V30 2571 C 251.21 1.84501 -0.285736 0
M  V30 2572 C 251.561 1.57213 1.17382 0
M  V30 2573 O 250.686 1.03642 1.89966 0
M  V30 2574 C 251.281 3.34912 -0.511821 0
M  V30 2575 C 249.84 3.76025 -0.168005 0
M  V30 2576 C 248.987 2.6551 -0.799983 0
M  V30 2577 H 251.938 1.31724 -0.885119 0
M  V30 2578 H 251.959 3.79784 0.233292 0
M  V30 2579 H 251.471 3.54741 -1.57418 0
M  V30 2580 H 249.572 3.61801 0.890567 0
M  V30 2581 H 249.685 4.75141 -0.614661 0
M  V30 2582 H 248.049 2.53654 -0.230568 0
M  V30 2583 H 248.832 2.8816 -1.86597 0
M  V30 2584 N 251.277 0.427512 1.51691 0
M  V30 2585 C 252.688 -0.0378867 1.86662 0
M  V30 2586 C 253.039 -1.42819 1.34525 0
M  V30 2587 O 252.164 -2.05037 0.692014 0
M  V30 2588 C 252.759 -0.0755266 3.38716 0
M  V30 2589 C 251.318 -0.485309 3.73258 0
M  V30 2590 C 250.465 0.328399 2.75349 0
M  V30 2591 H 253.416 0.64379 1.45055 0
M  V30 2592 H 253.437 -0.887056 3.70016 0
M  V30 2593 H 252.949 0.936487 3.76632 0
M  V30 2594 H 251.05 -1.50329 3.40928 0
M  V30 2595 H 251.163 -0.21693 4.78609 0
M  V30 2596 H 249.527 -0.211905 2.53817 0
M  V30 2597 H 250.31 1.3391 3.16106 0
M  V30 2598 N 252.755 -1.56801 0.158532 0
M  V30 2599 C 254.166 -1.83189 -0.360366 0
M  V30 2600 C 254.517 -1.07778 -1.63946 0
M  V30 2601 O 253.642 -0.326718 -2.13919 0
M  V30 2602 C 254.237 -3.32297 -0.660595 0
M  V30 2603 C 252.796 -3.59227 -1.12398 0
M  V30 2604 C 251.943 -2.76877 -0.153097 0
M  V30 2605 H 254.894 -1.54008 0.383031 0
M  V30 2606 H 254.915 -3.4908 -1.51405 0
M  V30 2607 H 254.427 -3.87156 0.270527 0
M  V30 2608 H 252.528 -3.09766 -2.07064 0
M  V30 2609 H 252.641 -4.67632 -1.04197 0
M  V30 2610 H 251.005 -2.46319 -0.647983 0
M  V30 2611 H 251.788 -3.34511 0.77182 0
M  V30 2612 N 254.233 0.115231 -1.57178 0
M  V30 2613 C 255.458 0.840354 -1.89612 0
M  V30 2614 C 255.883 1.72464 -0.750845 0
M  V30 2615 O 255.241 1.78826 0.298478 0
M  V30 2616 C 255.289 1.64654 -3.20814 0
M  V30 2617 O 254.393 2.7538 -3.06985 0
M  V30 2618 H 253.734 0.232158 -0.622092 0
M  V30 2619 H 256.264 0.0964977 -2.04372 0
M  V30 2620 H 256.274 2.03499 -3.53627 0
M  V30 2621 H 254.949 0.997416 -4.03763 0
M  V30 2622 H 253.526 2.3971 -2.85646 0
M  V30 2623 N 255.711 1.52812 0.385517 0
M  V30 2624 C 257.122 1.5993 0.963293 0
M  V30 2625 C 257.473 0.454302 1.90868 0
M  V30 2626 O 256.598 -0.422132 2.12243 0
M  V30 2627 C 257.193 2.89871 1.75387 0
M  V30 2628 C 255.752 2.99389 2.28129 0
M  V30 2629 C 254.899 2.55071 1.08783 0
M  V30 2630 H 257.85 1.5784 0.164948 0
M  V30 2631 H 257.871 2.76553 2.61341 0
M  V30 2632 H 257.383 3.73186 1.06554 0
M  V30 2633 H 255.484 2.20619 3.00263 0
M  V30 2634 H 255.597 4.04096 2.57377 0
M  V30 2635 H 253.961 2.09473 1.4489 0
M  V30 2636 H 254.744 3.40785 0.414807 0
M  V30 2637 N 257.189 -0.644168 1.43834 0
M  V30 2638 C 258.152 -1.73857 1.49353 0
M  V30 2639 C 259.152 -1.56315 0.377112 0
M  V30 2640 O 260.342 -1.62048 0.639226 0
M  V30 2641 C 257.474 -3.12819 1.35488 0
M  V30 2642 H 258.667 -1.70342 2.46827 0
M  V30 2643 H 256.22 -0.856652 1.30733 0
M  V30 2644 H 256.955 -3.2194 0.390569 0
M  V30 2645 H 256.74 -3.26958 2.16428 0
M  V30 2646 H 258.23 -3.92606 1.42302 0
M  V30 2647 N 258.668 -1.30515 -0.883378 0
M  V30 2648 C 260.079 -1.17509 -1.45081 0
M  V30 2649 C 260.43 0.223605 -1.94922 0
M  V30 2650 O 259.555 1.12041 -1.85137 0
M  V30 2651 C 260.15 -2.12715 -2.63701 0
M  V30 2652 C 258.709 -2.03682 -3.16529 0
M  V30 2653 C 257.856 -2.02706 -1.89224 0
M  V30 2654 H 260.807 -1.42762 -0.693165 0
M  V30 2655 H 260.828 -1.70891 -3.39965 0
M  V30 2656 H 260.34 -3.14505 -2.27395 0
M  V30 2657 H 258.441 -1.05039 -3.57488 0
M  V30 2658 H 258.554 -2.92146 -3.7972 0
M  V30 2659 H 256.918 -1.4753 -2.07622 0
M  V30 2660 H 257.701 -3.06229 -1.55174 0
M  V30 2661 N 260.146 1.09593 -1.13257 0
M  V30 2662 C 261.371 1.8604 -0.916732 0
M  V30 2663 C 261.796 1.80504 0.529146 0
M  V30 2664 O 261.154 1.18127 1.37534 0
M  V30 2665 C 261.202 3.32017 -1.40703 0
M  V30 2666 O 260.306 4.08141 -0.591153 0
M  V30 2667 H 259.647 0.576943 -0.328683 0
M  V30 2668 H 262.177 1.38405 -1.50682 0
M  V30 2669 H 262.187 3.82865 -1.4099 0
M  V30 2670 H 260.862 3.35361 -2.45979 0
M  V30 2671 H 259.439 3.67084 -0.656005 0
M  V30 2672 N 261.624 0.925811 1.2754 0
M  V30 2673 C 262.849 0.580924 1.99098 0
M  V30 2674 C 263.274 -0.833555 1.68622 0
M  V30 2675 O 262.632 -1.55903 0.925422 0
M  V30 2676 C 262.68 0.811186 3.51358 0
M  V30 2677 O 261.784 -0.124129 4.12213 0
M  V30 2678 H 261.125 0.223873 0.625122 0
M  V30 2679 H 263.655 1.24455 1.62395 0
M  V30 2680 H 263.665 0.72601 4.01489 0
M  V30 2681 H 262.34 1.84227 3.72872 0
M  V30 2682 H 260.917 0.0108006 3.72898 0
M  V30 2683 N 263.102 -1.41638 0.69111 0
M  V30 2684 C 264.33 -2.05628 0.22909 0
M  V30 2685 C 264.745 -1.51992 -1.11999 0
M  V30 2686 O 264.102 -0.666322 -1.69901 0
M  V30 2687 C 264.153 -3.61084 0.173283 0
M  V30 2688 O 263.874 -4.12735 1.46907 0
M  V30 2689 C 265.375 -4.42213 -0.310266 0
M  V30 2690 H 262.595 -0.662327 0.107534 0
M  V30 2691 H 265.139 -1.81489 0.942438 0
M  V30 2692 H 263.294 -3.84278 -0.490858 0
M  V30 2693 H 263.708 -5.06743 1.35322 0
M  V30 2694 H 265.182 -5.51194 -0.298196 0
M  V30 2695 H 265.659 -4.1799 -1.34838 0
M  V30 2696 H 266.265 -4.24074 0.322716 0
M  V30 2697 N 264.58 -0.43555 -1.51462 0
M  V30 2698 C 265.527 0.376797 -2.27703 0
M  V30 2699 C 266.497 1.01838 -1.31219 0
M  V30 2700 O 267.682 1.03762 -1.60119 0
M  V30 2701 C 264.822 1.47301 -3.12084 0
M  V30 2702 C 263.935 0.849744 -4.2356 0
M  V30 2703 C 263.07 1.92086 -4.95254 0
M  V30 2704 C 262.109 1.27593 -5.98654 0
M  V30 2705 N 261.246 2.28833 -6.63762 0
M  V30 2706 H 266.086 -0.279734 -2.96684 0
M  V30 2707 H 263.623 -0.149795 -1.46335 0
M  V30 2708 H 265.581 2.11984 -3.59331 0
M  V30 2709 H 264.211 2.0992 -2.45221 0
M  V30 2710 H 263.263 0.0912529 -3.80291 0
M  V30 2711 H 264.575 0.338878 -4.97648 0
M  V30 2712 H 263.729 2.64435 -5.46039 0
M  V30 2713 H 262.468 2.46545 -4.20793 0
M  V30 2714 H 261.473 0.537893 -5.47162 0
M  V30 2715 H 262.698 0.738693 -6.7507 0
M  V30 2716 H 260.644 2.82375 -5.92115 0
M  V30 2717 H 260.561 1.82632 -7.33608 0
M  V30 2718 H 261.829 3.00671 -7.19178 0
M  V30 2719 N 266.058 1.56714 -0.166846 0
M  V30 2720 C 267.469 1.83378 0.350646 0
M  V30 2721 C 267.82 1.08646 1.63372 0
M  V30 2722 O 266.945 0.338058 2.13743 0
M  V30 2723 C 267.54 3.32643 0.642963 0
M  V30 2724 C 266.099 3.59818 1.10491 0
M  V30 2725 C 265.246 2.76954 0.138411 0
M  V30 2726 H 268.197 1.53803 -0.391193 0
M  V30 2727 H 268.218 3.49878 1.49551 0
M  V30 2728 H 267.73 3.87007 -0.291055 0
M  V30 2729 H 265.831 3.1086 2.05418 0
M  V30 2730 H 265.944 4.68178 1.01716 0
M  V30 2731 H 264.308 2.4666 0.634911 0
M  V30 2732 H 265.091 3.34097 -0.789549 0
M  V30 2733 N 267.536 -0.106894 1.57237 0
M  V30 2734 C 268.784 -0.810921 1.85117 0
M  V30 2735 C 269.105 -1.7984 0.753827 0
M  V30 2736 O 268.375 -1.94649 -0.221056 0
M  V30 2737 H 266.955 -0.302466 0.683025 0
M  V30 2738 H 269.617 -0.0913324 1.94686 0
M  V30 2739 H 268.713 -1.34875 2.81452 0
M  V30 2740 N 269.014 -1.53014 -0.377408 0
M  V30 2741 C 270.425 -1.60438 -0.954798 0
M  V30 2742 C 270.776 -0.464418 -1.90624 0
M  V30 2743 O 269.901 0.41087 -2.12464 0
M  V30 2744 C 270.496 -2.90797 -1.73847 0
M  V30 2745 C 269.055 -3.00595 -2.26538 0
M  V30 2746 C 268.202 -2.55645 -1.07429 0
M  V30 2747 H 271.153 -1.57926 -0.156575 0
M  V30 2748 H 271.174 -2.77935 -2.5987 0
M  V30 2749 H 270.686 -3.73746 -1.04574 0
M  V30 2750 H 268.787 -2.22208 -2.99089 0
M  V30 2751 H 268.9 -4.05456 -2.5523 0
M  V30 2752 H 267.264 -2.10239 -1.43777 0
M  V30 2753 H 268.047 -3.41 -0.396728 0
M  V30 2754 N 270.492 0.636531 -1.44174 0
M  V30 2755 C 271.402 1.77754 -1.53103 0
M  V30 2756 C 272.418 1.68928 -0.417034 0
M  V30 2757 O 273.594 1.89801 -0.6736 0
M  V30 2758 C 270.659 3.14115 -1.46741 0
M  V30 2759 C 269.72 3.34612 -2.68948 0
M  V30 2760 C 268.953 4.64467 -2.6288 0
M  V30 2761 O 269.176 5.44919 -1.68581 0
M  V30 2762 O 268.11 4.87049 -3.53648 0
M  V30 2763 H 271.936 1.73174 -2.49489 0
M  V30 2764 H 269.521 0.79709 -1.2636 0
M  V30 2765 H 271.403 3.95412 -1.45696 0
M  V30 2766 H 270.078 3.19249 -0.534975 0
M  V30 2767 H 268.985 2.53014 -2.75562 0
M  V30 2768 H 270.318 3.34336 -3.61221 0
M  V30 2769 N 271.97 1.30982 0.876444 0
M  V30 2770 C 273.195 1.23373 1.66715 0
M  V30 2771 C 273.62 -0.19885 1.87046 0
M  V30 2772 O 272.978 -1.1427 1.40756 0
M  V30 2773 C 273.026 1.97644 3.01611 0
M  V30 2774 O 272.13 1.30935 3.91062 0
M  V30 2775 H 271.471 0.426279 0.509099 0
M  V30 2776 H 274.001 1.72944 1.09323 0
M  V30 2777 H 274.011 2.06992 3.51594 0
M  V30 2778 H 272.686 3.01829 2.86133 0
M  V30 2779 H 271.263 1.29996 3.49507 0
M  V30 2780 N 273.449 -1.08991 1.13837 0
M  V30 2781 C 274.674 -1.85551 0.926585 0
M  V30 2782 C 275.099 -1.80782 -0.519566 0
M  V30 2783 O 274.457 -1.18855 -1.36906 0
M  V30 2784 C 274.505 -3.31266 1.42462 0
M  V30 2785 O 273.609 -4.07822 0.612789 0
M  V30 2786 H 272.95 -0.575192 0.331738 0
M  V30 2787 H 275.48 -1.37604 1.51414 0
M  V30 2788 H 275.49 -3.82112 1.43019 0
M  V30 2789 H 274.165 -3.34052 2.47754 0
M  V30 2790 H 272.742 -3.66731 0.675463 0
M  V30 2791 N 274.927 -0.932562 -1.27047 0
M  V30 2792 C 276.173 -0.576412 -1.94436 0
M  V30 2793 C 276.506 0.880891 -1.73072 0
M  V30 2794 O 275.781 1.62905 -1.06264 0
M  V30 2795 C 276.064 -0.909031 -3.48437 0
M  V30 2796 C 275.917 -2.42044 -3.79123 0
M  V30 2797 C 277.236 -0.418341 -4.38107 0
M  V30 2798 H 274.355 -0.210888 -0.706184 0
M  V30 2799 H 276.997 -1.16522 -1.50075 0
M  V30 2800 H 275.147 -0.407947 -3.86352 0
M  V30 2801 H 276.819 -2.99359 -3.50973 0
M  V30 2802 H 275.062 -2.86758 -3.25503 0
M  V30 2803 H 275.733 -2.6037 -4.86736 0
M  V30 2804 H 278.209 -0.847856 -4.0737 0
M  V30 2805 H 277.085 -0.679981 -5.44672 0
M  V30 2806 H 277.346 0.681642 -4.36814 0
M  V30 2807 N 276.405 1.4127 -0.698611 0
M  V30 2808 C 277.63 2.06024 -0.238512 0
M  V30 2809 C 278.055 1.5224 1.10475 0
M  V30 2810 O 277.413 0.650623 1.69223 0
M  V30 2811 C 277.461 3.59988 -0.209952 0
M  V30 2812 O 276.565 4.04282 0.814235 0
M  V30 2813 H 275.906 0.653829 -0.115775 0
M  V30 2814 H 278.436 1.8098 -0.954326 0
M  V30 2815 H 278.446 4.07979 -0.0418436 0
M  V30 2816 H 277.121 3.98503 -1.1903 0
M  V30 2817 H 275.698 3.6779 0.615234 0
M  V30 2818 N 277.883 0.443576 1.51229 0
M  V30 2819 C 278.813 -0.355142 2.30783 0
M  V30 2820 C 279.794 -1.0154 1.36468 0
M  V30 2821 O 280.979 -1.01785 1.65389 0
M  V30 2822 C 278.109 -1.45312 3.15439 0
M  V30 2823 C 277.063 -0.916002 4.18083 0
M  V30 2824 C 276.389 -2.1102 4.91299 0
M  V30 2825 C 277.689 0.0538602 5.22272 0
M  V30 2826 H 279.383 0.308767 2.97804 0
M  V30 2827 H 276.929 0.149937 1.43217 0
M  V30 2828 H 278.882 -2.01914 3.69876 0
M  V30 2829 H 277.606 -2.14541 2.46252 0
M  V30 2830 H 276.265 -0.372145 3.64706 0
M  V30 2831 H 275.913 -2.78882 4.18609 0
M  V30 2832 H 275.613 -1.75717 5.60712 0
M  V30 2833 H 277.137 -2.68164 5.48562 0
M  V30 2834 H 278.551 -0.422069 5.71744 0
M  V30 2835 H 276.948 0.319776 5.99247 0
M  V30 2836 H 278.018 0.98858 4.74716 0
M  V30 2837 N 279.361 -1.56624 0.175154 0
M  V30 2838 C 280.291 -2.21155 -0.749195 0
M  V30 2839 C 281.272 -1.16836 -1.23626 0
M  V30 2840 O 282.457 -1.45277 -1.28873 0
M  V30 2841 C 279.587 -2.8553 -1.97711 0
M  V30 2842 C 278.541 -3.95921 -1.62575 0
M  V30 2843 C 277.867 -4.47365 -2.92864 0
M  V30 2844 C 279.167 -5.15323 -0.850838 0
M  V30 2845 H 280.861 -2.98653 -0.211295 0
M  V30 2846 H 278.407 -1.43651 -0.100188 0
M  V30 2847 H 280.36 -3.2935 -2.62881 0
M  V30 2848 H 279.084 -2.05406 -2.53921 0
M  V30 2849 H 277.743 -3.52762 -0.997719 0
M  V30 2850 H 277.391 -3.64027 -3.47122 0
M  V30 2851 H 277.091 -5.21839 -2.70106 0
M  V30 2852 H 278.615 -4.93873 -3.59056 0
M  V30 2853 H 280.029 -5.55812 -1.40521 0
M  V30 2854 H 278.426 -5.95739 -0.722154 0
M  V30 2855 H 279.496 -4.84661 0.152082 0
M  V30 2856 N 280.839 0.0985539 -1.57292 0
M  V30 2857 C 281.771 1.14595 -1.98496 0
M  V30 2858 C 282.784 1.36512 -0.887031 0
M  V30 2859 O 283.973 1.35225 -1.16518 0
M  V30 2860 C 281.073 2.50216 -2.28572 0
M  V30 2861 C 280.246 2.48624 -3.59868 0
M  V30 2862 C 279.305 3.66146 -3.7792 0
M  V30 2863 O 278.331 3.48795 -4.49812 0
M  V30 2864 N 279.533 4.85496 -3.18235 0
M  V30 2865 H 282.298 0.795277 -2.88956 0
M  V30 2866 H 279.859 0.287579 -1.59325 0
M  V30 2867 H 281.851 3.27432 -2.37845 0
M  V30 2868 H 280.421 2.77387 -1.44136 0
M  V30 2869 H 279.641 1.56978 -3.61596 0
M  V30 2870 H 280.929 2.44635 -4.46129 0
M  V30 2871 H 280.327 5.02497 -2.59833 0
M  V30 2872 H 278.884 5.60317 -3.32999 0
M  V30 2873 N 282.317 1.53212 0.369288 0
M  V30 2874 C 283.565 1.68881 1.11012 0
M  V30 2875 C 283.886 0.441285 1.89941 0
M  V30 2876 O 283.156 -0.544623 1.88177 0
M  V30 2877 H 281.736 0.622569 0.412816 0
M  V30 2878 H 284.398 1.90391 0.416802 0
M  V30 2879 H 283.494 2.54822 1.80201 0
M  V30 2880 N 283.795 -0.628877 1.44509 0
M  V30 2881 C 284.758 -1.72263 1.51188 0
M  V30 2882 C 285.758 -1.55907 0.39367 0
M  V30 2883 O 286.948 -1.61361 0.656377 0
M  V30 2884 C 284.08 -3.11365 1.38798 0
M  V30 2885 H 285.273 -1.67714 2.4862 0
M  V30 2886 H 282.826 -0.842737 1.31634 0
M  V30 2887 H 283.561 -3.21507 0.424693 0
M  V30 2888 H 283.346 -3.24644 2.19884 0
M  V30 2889 H 284.836 -3.91075 1.46458 0
M  V30 2890 N 285.273 -1.31445 -0.869486 0
M  V30 2891 C 286.689 -1.10113 -1.15531 0
M  V30 2892 C 286.889 0.128087 -2.01092 0
M  V30 2893 O 285.945 0.817276 -2.38908 0
M  V30 2894 C 287.258 -2.37291 -1.84698 0
M  V30 2895 C 288.806 -2.42906 -1.97397 0
M  V30 2896 C 289.281 -3.69967 -2.69979 0
M  V30 2897 N 290.772 -3.70864 -2.77514 0
M  V30 2898 C 291.507 -4.65875 -3.34287 0
M  V30 2899 N 291.003 -5.71242 -3.91988 0
M  V30 2900 N 292.796 -4.53394 -3.3225 0
M  V30 2901 H 284.947 -2.1028 -0.299347 0
M  V30 2902 H 287.21 -0.927683 -0.195214 0
M  V30 2903 H 286.916 -3.27078 -1.29278 0
M  V30 2904 H 286.79 -2.47125 -2.84972 0
M  V30 2905 H 289.177 -1.53588 -2.51982 0
M  V30 2906 H 289.258 -2.37036 -0.961643 0
M  V30 2907 H 288.902 -4.59652 -2.16062 0
M  V30 2908 H 288.832 -3.73103 -3.7162 0
M  V30 2909 H 291.323 -2.94697 -2.36563 0
M  V30 2910 H 291.636 -6.39817 -4.33421 0
M  V30 2911 H 289.981 -5.75015 -3.90362 0
M  V30 2912 H 293.172 -3.70252 -2.8641 0
M  V30 2913 H 293.345 -5.27617 -3.76197 0
M  V30 2914 N 286.751 1.08385 -1.14413 0
M  V30 2915 C 288.162 1.62258 -0.923535 0
M  V30 2916 C 288.513 1.88691 0.537595 0
M  V30 2917 O 287.638 1.64454 1.40655 0
M  V30 2918 C 288.233 2.94781 -1.67002 0
M  V30 2919 C 286.792 3.45437 -1.495 0
M  V30 2920 C 285.939 2.19668 -1.69238 0
M  V30 2921 H 288.89 0.916086 -1.2959 0
M  V30 2922 H 288.911 3.63229 -1.13334 0
M  V30 2923 H 288.423 2.7551 -2.73342 0
M  V30 2924 H 286.524 3.6981 -0.455097 0
M  V30 2925 H 286.637 4.22173 -2.2651 0
M  V30 2926 H 285.001 2.28849 -1.11804 0
M  V30 2927 H 285.784 2.02905 -2.7692 0
M  V30 2928 N 288.23 0.939286 1.26551 0
M  V30 2929 C 289.477 0.585847 1.9384 0
M  V30 2930 C 289.805 -0.874784 1.73718 0
M  V30 2931 O 289.06 -1.64092 1.06642 0
M  V30 2932 C 289.359 0.872106 3.46596 0
M  V30 2933 C 289.025 2.31632 3.86856 0
M  V30 2934 C 287.687 2.71111 3.97558 0
M  V30 2935 C 290.039 3.25494 4.07066 0
M  V30 2936 C 287.367 4.03553 4.25866 0
M  V30 2937 C 289.719 4.57531 4.36862 0
M  V30 2938 C 288.383 4.96828 4.45778 0
M  V30 2939 H 287.653 0.214377 0.709312 0
M  V30 2940 H 290.3 1.18544 1.50398 0
M  V30 2941 H 288.605 0.18996 3.91339 0
M  V30 2942 H 290.302 0.577442 3.96821 0
M  V30 2943 H 286.892 2.00008 3.79071 0
M  V30 2944 H 291.076 2.9619 3.98227 0
M  V30 2945 H 286.332 4.33665 4.30981 0
M  V30 2946 H 290.506 5.30254 4.51446 0
M  V30 2947 H 288.133 5.99482 4.67468 0
M  V30 2948 N 289.708 -1.40897 0.706093 0
M  V30 2949 C 291.119 -1.84023 0.315052 0
M  V30 2950 C 291.47 -1.5906 -1.14866 0
M  V30 2951 O 290.595 -1.06651 -1.88293 0
M  V30 2952 C 291.19 -3.34055 0.565038 0
M  V30 2953 C 289.749 -3.7571 0.227806 0
M  V30 2954 C 288.896 -2.64204 0.842122 0
M  V30 2955 H 291.847 -1.303 0.905963 0
M  V30 2956 H 291.868 -3.80107 -0.172843 0
M  V30 2957 H 291.38 -3.52192 1.63042 0
M  V30 2958 H 289.481 -3.63172 -0.832895 0
M  V30 2959 H 289.594 -4.74103 0.690174 0
M  V30 2960 H 287.958 -2.53255 0.270893 0
M  V30 2961 H 288.741 -2.85155 1.91158 0
M  V30 2962 N 291.186 -0.45159 -1.50991 0
M  V30 2963 C 292.433 0.110074 -2.02201 0
M  V30 2964 C 292.761 1.4146 -1.33489 0
M  V30 2965 O 292.016 1.90617 -0.443125 0
M  V30 2966 C 292.315 0.361728 -3.55565 0
M  V30 2967 C 291.981 -0.858717 -4.42648 0
M  V30 2968 C 290.643 -1.19338 -4.66167 0
M  V30 2969 C 292.995 -1.67221 -4.93646 0
M  V30 2970 C 290.323 -2.34195 -5.37931 0
M  V30 2971 C 292.675 -2.8119 -5.6667 0
M  V30 2972 C 291.339 -3.15094 -5.88449 0
M  V30 2973 H 290.609 0.040279 -0.739904 0
M  V30 2974 H 293.256 -0.601696 -1.81802 0
M  V30 2975 H 291.561 1.15554 -3.74372 0
M  V30 2976 H 293.258 0.80996 -3.92735 0
M  V30 2977 H 289.848 -0.58796 -4.24548 0
M  V30 2978 H 294.032 -1.42686 -4.75347 0
M  V30 2979 H 289.288 -2.6076 -5.53005 0
M  V30 2980 H 293.462 -3.44585 -6.05173 0
M  V30 2981 H 291.089 -4.04204 -6.43835 0
M  V30 2982 N 292.664 1.56529 -0.183458 0
M  V30 2983 C 293.904 1.99141 0.460667 0
M  V30 2984 C 294.268 1.06736 1.59597 0
M  V30 2985 O 295.469 1.38538 2.30349 0
M  V30 2986 C 293.74 3.45358 0.919939 0
M  V30 2987 S 295.299 4.09999 1.56354 0
M  V30 2988 H 292.117 0.695479 0.147748 0
M  V30 2989 H 294.719 1.93429 -0.283782 0
M  V30 2990 H 293.423 4.10315 0.0834208 0
M  V30 2991 H 292.954 3.54862 1.69814 0
M  V30 2992 H 294.969 4.06046 2.85203 0
M  V30 2993 N 294.142 -0.090211 1.57342 0
M  V30 2994 C 295.388 -0.788838 1.8748 0
M  V30 2995 C 295.743 -1.76105 0.7749 0
M  V30 2996 O 295.036 -1.90302 -0.222663 0
M  V30 2997 C 295.23 -1.55222 3.21933 0
M  V30 2998 C 295.059 -0.655441 4.44898 0
M  V30 2999 C 293.829 -0.299325 5.04413 0
M  V30 3000 C 296.027 0.0397458 5.14285 0
M  V30 3001 N 294.009 0.605108 6.10911 0
M  V30 3002 C 295.38 0.802061 6.1479 0
M  V30 3003 C 297.435 0.113154 4.97771 0
M  V30 3004 C 296.138 1.63093 7.00566 0
M  V30 3005 C 298.164 0.928942 5.84059 0
M  V30 3006 C 297.526 1.67936 6.84088 0
M  V30 3007 H 293.625 -0.26467 0.735849 0
M  V30 3008 H 296.209 -0.0511453 1.94633 0
M  V30 3009 H 294.38 -2.26076 3.15823 0
M  V30 3010 H 296.112 -2.19843 3.39781 0
M  V30 3011 H 292.867 -0.648079 4.69145 0
M  V30 3012 H 293.291 1.05002 6.68808 0
M  V30 3013 H 297.933 -0.452676 4.2037 0
M  V30 3014 H 295.651 2.20781 7.77355 0
M  V30 3015 H 299.237 0.988478 5.73341 0
M  V30 3016 H 298.117 2.30044 7.49699 0
M  V30 3017 N 295.62 -1.53406 -0.361157 0
M  V30 3018 C 297.031 -1.61442 -0.937728 0
M  V30 3019 C 297.382 -0.48461 -1.90121 0
M  V30 3020 O 296.507 0.388312 -2.12888 0
M  V30 3021 C 297.102 -2.92624 -1.70753 0
M  V30 3022 C 295.661 -3.02981 -2.23337 0
M  V30 3023 C 294.808 -2.5677 -1.04712 0
M  V30 3024 H 297.759 -1.58083 -0.139816 0
M  V30 3025 H 297.78 -2.80675 -2.56908 0
M  V30 3026 H 297.292 -3.74834 -1.00604 0
M  V30 3027 H 295.393 -2.25368 -2.96715 0
M  V30 3028 H 295.506 -4.0814 -2.50916 0
M  V30 3029 H 293.87 -2.11752 -1.41539 0
M  V30 3030 H 294.653 -3.41402 -0.360539 0
M  V30 3031 N 297.098 0.621204 -1.44841 0
M  V30 3032 C 298.028 1.74366 -1.55303 0
M  V30 3033 C 299.009 1.65199 -0.405385 0
M  V30 3034 O 300.194 1.83807 -0.626787 0
M  V30 3035 C 297.324 3.12931 -1.50637 0
M  V30 3036 C 296.278 3.36896 -2.63979 0
M  V30 3037 C 295.604 4.75594 -2.44366 0
M  V30 3038 C 296.904 3.28483 -4.06074 0
M  V30 3039 H 298.598 1.65867 -2.49256 0
M  V30 3040 H 296.144 0.796558 -1.19962 0
M  V30 3041 H 298.097 3.9124 -1.56555 0
M  V30 3042 H 296.821 3.22237 -0.532057 0
M  V30 3043 H 295.48 2.60972 -2.57467 0
M  V30 3044 H 295.128 4.81616 -1.45105 0
M  V30 3045 H 294.828 4.92586 -3.20364 0
M  V30 3046 H 296.352 5.5612 -2.52117 0
M  V30 3047 H 297.766 3.96684 -4.13902 0
M  V30 3048 H 296.163 3.57008 -4.82354 0
M  V30 3049 H 297.233 2.26133 -4.28943 0
M  V30 3050 N 298.576 1.31904 0.862503 0
M  V30 3051 C 299.816 1.23324 1.63004 0
M  V30 3052 C 300.18 -0.203724 1.90916 0
M  V30 3053 O 301.381 -0.413132 2.65606 0
M  V30 3054 C 299.652 2.06116 2.91978 0
M  V30 3055 S 301.211 2.14478 3.82812 0
M  V30 3056 H 298.029 0.439117 0.559193 0
M  V30 3057 H 300.631 1.66658 1.02202 0
M  V30 3058 H 299.335 3.09593 2.69407 0
M  V30 3059 H 298.866 1.6353 3.57801 0
M  V30 3060 H 300.881 1.28855 4.79177 0
M  V30 3061 N 300.054 -1.07777 1.14986 0
M  V30 3062 C 300.964 -2.18404 0.856546 0
M  V30 3063 C 301.98 -1.73211 -0.165485 0
M  V30 3064 O 303.156 -2.01399 0.00755219 0
M  V30 3065 C 300.221 -3.44977 0.34526 0
M  V30 3066 C 299.282 -4.0476 1.43065 0
M  V30 3067 C 298.515 -5.25291 0.943663 0
M  V30 3068 O 298.738 -5.70004 -0.212426 0
M  V30 3069 O 297.672 -5.76638 1.72547 0
M  V30 3070 H 301.498 -2.45978 1.78125 0
M  V30 3071 H 299.083 -1.17033 0.928631 0
M  V30 3072 H 300.965 -4.21348 0.0663671 0
M  V30 3073 H 299.64 -3.18965 -0.551631 0
M  V30 3074 H 298.547 -3.29949 1.76309 0
M  V30 3075 H 299.88 -4.35035 2.30229 0
M  V30 3076 N 301.532 -0.945985 -1.26051 0
M  V30 3077 C 302.781 -0.591836 -1.92822 0
M  V30 3078 C 303.094 0.873956 -1.7499 0
M  V30 3079 O 304.3 1.33769 -2.36259 0
M  V30 3080 C 302.756 -1.00776 -3.45503 0
M  V30 3081 C 302.364 -2.4955 -3.7206 0
M  V30 3082 C 304.108 -0.725735 -4.1825 0
M  V30 3083 C 302.015 -2.84988 -5.18205 0
M  V30 3084 H 300.945 -0.217635 -0.721908 0
M  V30 3085 H 303.596 -1.14927 -1.43052 0
M  V30 3086 H 301.978 -0.378812 -3.94184 0
M  V30 3087 H 303.152 -3.1739 -3.34066 0
M  V30 3088 H 301.467 -2.75133 -3.12555 0
M  V30 3089 H 304.064 -0.966771 -5.25887 0
M  V30 3090 H 304.407 0.337639 -4.14929 0
M  V30 3091 H 304.94 -1.31463 -3.7545 0
M  V30 3092 H 301.679 -3.90307 -5.26631 0
M  V30 3093 H 301.199 -2.21813 -5.57278 0
M  V30 3094 H 302.878 -2.73712 -5.86252 0
M  V30 3095 N 303.011 1.40521 -0.713556 0
M  V30 3096 C 304.236 2.05759 -0.26035 0
M  V30 3097 C 304.661 1.53403 1.08854 0
M  V30 3098 O 304.019 0.668535 1.68524 0
M  V30 3099 C 304.067 3.59745 -0.248122 0
M  V30 3100 O 303.171 4.05123 0.77131 0
M  V30 3101 H 302.512 0.652564 -0.122703 0
M  V30 3102 H 305.042 1.79958 -0.973467 0
M  V30 3103 H 305.052 4.07911 -0.0851129 0
M  V30 3104 H 303.727 3.97218 -1.2325 0
M  V30 3105 H 302.304 3.68422 0.57619 0
M  V30 3106 N 304.489 0.459591 1.5075 0
M  V30 3107 C 305.905 0.113092 1.59199 0
M  V30 3108 C 306.105 -1.37951 1.46874 0
M  V30 3109 O 305.161 -2.15168 1.32132 0
M  V30 3110 C 306.474 0.653043 2.93523 0
M  V30 3111 C 308.022 0.615449 3.0689 0
M  V30 3112 C 308.497 1.13275 4.43771 0
M  V30 3113 N 309.988 1.09167 4.50152 0
M  V30 3114 C 310.723 1.46256 5.54434 0
M  V30 3115 N 310.219 1.90739 6.66026 0
M  V30 3116 N 312.012 1.37932 5.44914 0
M  V30 3117 H 304.163 1.43049 1.57005 0
M  V30 3118 H 306.426 0.590861 0.741341 0
M  V30 3119 H 306.132 1.69822 3.07983 0
M  V30 3120 H 306.006 0.0902132 3.77092 0
M  V30 3121 H 308.393 -0.420793 2.92084 0
M  V30 3122 H 308.474 1.21495 2.25106 0
M  V30 3123 H 308.118 2.16757 4.59324 0
M  V30 3124 H 308.048 0.509576 5.24129 0
M  V30 3125 H 310.539 0.76528 3.7007 0
M  V30 3126 H 310.852 2.17218 7.41644 0
M  V30 3127 H 309.197 1.94683 6.67176 0
M  V30 3128 H 312.388 1.0303 4.56621 0
M  V30 3129 H 312.561 1.67164 6.26067 0
M  V30 3130 N 305.967 -1.56429 0.191757 0
M  V30 3131 C 307.215 -1.97095 -0.447006 0
M  V30 3132 C 307.536 -1.07967 -1.62383 0
M  V30 3133 O 306.806 -0.150248 -1.95323 0
M  V30 3134 H 305.386 -0.727832 -0.168135 0
M  V30 3135 H 308.048 -1.92911 0.27771 0
M  V30 3136 H 307.144 -3.01848 -0.793371 0
M  V30 3137 N 307.445 0.0818655 -1.57387 0
M  V30 3138 C 308.673 0.796108 -1.9097 0
M  V30 3139 C 309.088 1.71626 -0.786757 0
M  V30 3140 O 308.445 1.80908 0.240513 0
M  V30 3141 C 308.496 1.59829 -3.24248 0
M  V30 3142 O 308.217 0.715131 -4.32224 0
M  V30 3143 C 309.718 2.41442 -3.7178 0
M  V30 3144 H 306.938 0.22691 -0.631469 0
M  V30 3145 H 309.482 0.0551439 -2.04426 0
M  V30 3146 H 307.637 2.29163 -3.12351 0
M  V30 3147 H 308.051 1.27205 -5.08841 0
M  V30 3148 H 309.525 2.932 -4.67694 0
M  V30 3149 H 310.002 3.2051 -3.00283 0
M  V30 3150 H 310.608 1.77283 -3.86589 0
M  V30 3151 N 308.923 1.53595 0.353017 0
M  V30 3152 C 309.873 1.77299 1.43349 0
M  V30 3153 C 310.857 0.627884 1.48143 0
M  V30 3154 O 312.049 0.88697 1.53173 0
M  V30 3155 C 309.178 1.97757 2.80619 0
M  V30 3156 C 308.264 3.18305 2.80254 0
M  V30 3157 N 308.655 4.39967 2.49526 0
M  V30 3158 C 306.953 3.19283 3.11407 0
M  V30 3159 C 307.654 5.21772 2.57156 0
M  V30 3160 N 306.63 4.58269 2.92388 0
M  V30 3161 H 310.432 2.68963 1.18474 0
M  V30 3162 H 307.946 1.52391 0.561306 0
M  V30 3163 H 309.943 2.1287 3.58458 0
M  V30 3164 H 308.603 1.07329 3.06448 0
M  V30 3165 H 309.614 4.67482 2.22893 0
M  V30 3166 H 306.291 2.3879 3.4247 0
M  V30 3167 H 307.681 6.2885 2.36638 0
M  V30 3168 N 310.401 -0.613514 1.45168 0
M  V30 3169 C 311.349 -1.74572 1.53712 0
M  V30 3170 C 312.343 -1.64426 0.407505 0
M  V30 3171 O 313.549 -1.70291 0.583176 0
M  V30 3172 H 309.924 -0.576641 0.48269 0
M  V30 3173 H 311.895 -1.64492 2.48968 0
M  V30 3174 C 310.644 -3.12943 1.51532 0
M  V30 3175 H 309.967 -3.21407 2.37776 0
M  V30 3176 H 311.407 -3.9201 1.61569 0
M  V30 3177 C 309.866 -3.36053 0.238798 0
M  V30 3178 O 310.396 -3.95837 -0.6838 0
M  V30 3179 N 308.602 -2.9028 0.136359 0
M  V30 3180 H 308.149 -2.41811 0.887999 0
M  V30 3181 H 308.107 -3.06116 -0.716944 0
M  V30 3182 N 311.879 -1.3236 -0.855495 0
M  V30 3183 C 313.126 -1.22872 -1.60962 0
M  V30 3184 C 313.454 0.209658 -1.93367 0
M  V30 3185 O 312.709 1.16243 -1.57436 0
M  V30 3186 C 313.008 -2.03275 -2.93963 0
M  V30 3187 C 312.674 -3.5264 -2.80991 0
M  V30 3188 C 311.336 -3.93364 -2.7716 0
M  V30 3189 C 313.688 -4.47626 -2.66983 0
M  V30 3190 C 311.016 -5.27319 -2.572 0
M  V30 3191 C 313.368 -5.81723 -2.48558 0
M  V30 3192 C 312.032 -6.2165 -2.4312 0
M  V30 3193 H 311.302 -0.44962 -0.589001 0
M  V30 3194 H 313.949 -1.63777 -0.992442 0
M  V30 3195 H 312.254 -1.55095 -3.59795 0
M  V30 3196 H 313.951 -1.93303 -3.51333 0
M  V30 3197 H 310.541 -3.20295 -2.84797 0
M  V30 3198 H 314.725 -4.17084 -2.68988 0
M  V30 3199 H 309.981 -5.57311 -2.51424 0
M  V30 3200 H 314.155 -6.5494 -2.36699 0
M  V30 3201 H 311.782 -7.25388 -2.27412 0
M  V30 3202 N 313.357 1.07166 -1.15556 0
M  V30 3203 C 314.582 1.84053 -0.955988 0
M  V30 3204 C 315.007 1.81586 0.490739 0
M  V30 3205 O 314.365 1.21018 1.34997 0
M  V30 3206 C 314.413 3.28957 -1.47714 0
M  V30 3207 O 313.517 4.06795 -0.677593 0
M  V30 3208 H 312.858 0.569842 -0.340847 0
M  V30 3209 H 315.388 1.35178 -1.53584 0
M  V30 3210 H 315.398 3.79788 -1.4908 0
M  V30 3211 H 314.073 3.30068 -2.53037 0
M  V30 3212 H 312.65 3.6561 -0.733721 0
M  V30 3213 N 314.835 0.952656 1.25548 0
M  V30 3214 C 315.745 0.47782 2.29682 0
M  V30 3215 C 316.761 -0.453859 1.67977 0
M  V30 3216 O 317.937 -0.330587 1.98668 0
M  V30 3217 C 315.002 -0.238655 3.45878 0
M  V30 3218 C 314.063 0.730994 4.23031 0
M  V30 3219 C 313.296 0.0486165 5.33678 0
M  V30 3220 O 313.519 -1.16612 5.58353 0
M  V30 3221 O 312.453 0.733152 5.97418 0
M  V30 3222 H 316.279 1.34312 2.72386 0
M  V30 3223 H 313.864 0.719026 1.30959 0
M  V30 3224 H 315.746 -0.641774 4.16484 0
M  V30 3225 H 314.421 -1.07916 3.05181 0
M  V30 3226 H 313.328 1.18428 3.5486 0
M  V30 3227 H 314.661 1.53946 4.67506 0
M  V30 3228 N 316.313 -1.40141 0.720998 0
M  V30 3229 C 317.223 -2.34486 0.0731031 0
M  V30 3230 C 318.239 -1.57587 -0.737723 0
M  V30 3231 O 319.415 -1.89949 -0.669429 0
M  V30 3232 C 316.48 -3.36528 -0.833656 0
M  V30 3233 C 315.541 -4.29298 -0.0121673 0
M  V30 3234 C 314.774 -5.26466 -0.875742 0
M  V30 3235 O 314.997 -5.29745 -2.11485 0
M  V30 3236 O 313.931 -6.01092 -0.31185 0
M  V30 3237 H 317.757 -2.9152 0.851444 0
M  V30 3238 H 315.342 -1.41427 0.481527 0
M  V30 3239 H 317.224 -3.99093 -1.35289 0
M  V30 3240 H 315.899 -2.81899 -1.59105 0
M  V30 3241 H 314.806 -3.70001 0.552262 0
M  V30 3242 H 316.139 -4.87094 0.707129 0
M  V30 3243 N 317.792 -0.46758 -1.50504 0
M  V30 3244 C 318.722 0.318381 -2.31319 0
M  V30 3245 C 319.703 0.993564 -1.38066 0
M  V30 3246 O 320.888 0.991411 -1.66987 0
M  V30 3247 C 318.018 1.40275 -3.17711 0
M  V30 3248 C 316.972 0.849373 -4.19487 0
M  V30 3249 C 316.298 2.03177 -4.94594 0
M  V30 3250 C 317.598 -0.136942 -5.2212 0
M  V30 3251 H 319.292 -0.356106 -2.97275 0
M  V30 3252 H 316.838 -0.172703 -1.42961 0
M  V30 3253 H 318.791 1.96004 -3.73042 0
M  V30 3254 H 317.515 2.10596 -2.49634 0
M  V30 3255 H 316.174 0.314076 -3.65252 0
M  V30 3256 H 315.822 2.72187 -4.22993 0
M  V30 3257 H 315.522 1.66774 -5.63436 0
M  V30 3258 H 317.046 2.59403 -5.52759 0
M  V30 3259 H 318.46 0.331056 -5.72343 0
M  V30 3260 H 316.857 -0.41507 -5.98663 0
M  V30 3261 H 317.927 -1.06398 -4.73083 0
M  V30 3262 N 319.27 1.56325 -0.20005 0
M  V30 3263 C 320.217 2.1932 0.718833 0
M  V30 3264 C 321.187 1.14198 1.20615 0
M  V30 3265 O 322.372 1.42469 1.26914 0
M  V30 3266 C 319.512 2.86041 1.93066 0
M  V30 3267 C 318.625 4.05702 1.48425 0
M  V30 3268 C 317.76 4.60266 2.65196 0
M  V30 3269 C 316.799 5.72273 2.17185 0
M  V30 3270 N 315.936 6.21221 3.27152 0
M  V30 3271 H 320.776 2.97486 0.17489 0
M  V30 3272 H 318.313 1.46911 0.0745794 0
M  V30 3273 H 320.271 3.22897 2.64184 0
M  V30 3274 H 318.901 2.1043 2.44783 0
M  V30 3275 H 317.953 3.74475 0.668755 0
M  V30 3276 H 319.265 4.86699 1.09204 0
M  V30 3277 H 318.419 4.99453 3.4443 0
M  V30 3278 H 317.158 3.78386 3.07693 0
M  V30 3279 H 316.163 5.3261 1.36407 0
M  V30 3280 H 317.388 6.55974 1.75713 0
M  V30 3281 H 315.334 5.42263 3.69171 0
M  V30 3282 H 315.251 6.97284 2.92116 0
M  V30 3283 H 316.519 6.65063 4.06585 0
M  V30 3284 N 320.748 -0.0735177 1.57428 0
M  V30 3285 C 321.997 -0.771809 1.86349 0
M  V30 3286 C 322.31 -1.78828 0.792452 0
M  V30 3287 O 323.516 -2.53602 0.96945 0
M  V30 3288 C 321.972 -1.42358 3.30548 0
M  V30 3289 C 321.58 -0.445761 4.45777 0
M  V30 3290 C 323.324 -2.10434 3.6867 0
M  V30 3291 C 321.231 -1.10335 5.81016 0
M  V30 3292 H 320.161 -0.291999 0.695164 0
M  V30 3293 H 322.812 -0.0250749 1.83483 0
M  V30 3294 H 321.194 -2.21852 3.28021 0
M  V30 3295 H 322.368 0.319239 4.59693 0
M  V30 3296 H 320.683 0.130457 4.16196 0
M  V30 3297 H 323.28 -2.60405 4.67004 0
M  V30 3298 H 323.623 -2.90298 2.98383 0
M  V30 3299 H 324.156 -1.37773 3.7318 0
M  V30 3300 H 320.895 -0.345061 6.54591 0
M  V30 3301 H 320.415 -1.83925 5.70904 0
M  V30 3302 H 322.094 -1.62367 6.26295 0
M  V30 3303 N 322.226 -1.5378 -0.344866 0
M  V30 3304 C 323.474 -1.70625 -1.08311 0
M  V30 3305 C 323.795 -0.471447 -1.89215 0
M  V30 3306 O 323.065 0.514616 -1.8902 0
M  V30 3307 H 321.645 -0.629058 -0.402859 0
M  V30 3308 H 324.307 -1.9103 -0.386459 0
M  V30 3309 H 323.403 -2.57656 -1.76124 0
M  V30 3310 N 323.704 0.605807 -1.45491 0
M  V30 3311 C 324.614 1.74466 -1.56839 0
M  V30 3312 C 325.63 1.68006 -0.452772 0
M  V30 3313 O 326.806 1.8833 -0.713708 0
M  V30 3314 C 323.871 3.10931 -1.53371 0
M  V30 3315 C 322.932 3.28832 -2.75986 0
M  V30 3316 C 322.165 4.58787 -2.72673 0
M  V30 3317 O 322.388 5.4122 -1.80102 0
M  V30 3318 O 321.322 4.79438 -3.63899 0
M  V30 3319 H 325.148 1.67843 -2.53106 0
M  V30 3320 H 322.733 0.770108 -1.28022 0
M  V30 3321 H 324.615 3.92233 -1.54051 0
M  V30 3322 H 323.29 3.18042 -0.602572 0
M  V30 3323 H 322.197 2.47112 -2.80867 0
M  V30 3324 H 323.53 3.26599 -3.68231 0
M  V30 3325 N 325.182 1.32811 0.848464 0
M  V30 3326 C 326.43 1.23479 1.59991 0
M  V30 3327 C 326.751 -0.201853 1.93952 0
M  V30 3328 O 326.021 -1.12818 1.60153 0
M  V30 3329 H 324.601 0.454034 0.593179 0
M  V30 3330 H 327.263 1.66412 1.01455 0
M  V30 3331 H 326.359 1.82178 2.53412 0
M  V30 3332 N 326.66 -1.06551 1.16123 0
M  V30 3333 C 327.908 -1.78947 0.939267 0
M  V30 3334 C 328.229 -1.87532 -0.534476 0
M  V30 3335 O 327.499 -1.38211 -1.38833 0
M  V30 3336 H 326.079 -0.662807 0.344523 0
M  V30 3337 H 328.741 -1.28725 1.46342 0
M  V30 3338 H 327.837 -2.81117 1.35572 0
M  V30 3339 N 328.138 -0.959301 -1.25041 0
M  V30 3340 C 329.385 -0.616611 -1.92884 0
M  V30 3341 C 329.713 0.847036 -1.75087 0
M  V30 3342 O 328.968 1.62374 -1.09239 0
M  V30 3343 C 329.267 -0.927136 -3.45165 0
M  V30 3344 C 328.933 -2.37757 -3.83122 0
M  V30 3345 C 327.595 -2.77402 -3.93194 0
M  V30 3346 C 329.947 -3.31929 -4.01836 0
M  V30 3347 C 327.275 -4.10277 -4.19392 0
M  V30 3348 C 329.627 -4.64423 -4.29528 0
M  V30 3349 C 328.291 -5.03857 -4.37818 0
M  V30 3350 H 327.561 -0.225634 -0.705812 0
M  V30 3351 H 330.208 -1.20921 -1.48493 0
M  V30 3352 H 328.513 -0.252195 -3.90987 0
M  V30 3353 H 330.21 -0.6405 -3.95852 0
M  V30 3354 H 326.8 -2.06013 -3.75841 0
M  V30 3355 H 330.984 -3.02488 -3.93465 0
M  V30 3356 H 326.24 -4.40467 -4.24027 0
M  V30 3357 H 330.414 -5.37369 -4.42953 0
M  V30 3358 H 328.041 -6.06843 -4.57871 0
M  V30 3359 N 329.616 1.39756 -0.72842 0
M  V30 3360 C 330.864 2.00248 -0.272946 0
M  V30 3361 C 331.185 1.58077 1.14178 0
M  V30 3362 O 330.455 0.826014 1.77634 0
M  V30 3363 H 329.035 0.740554 -0.0979247 0
M  V30 3364 H 331.697 1.70903 -0.936912 0
M  V30 3365 H 330.793 3.10495 -0.316142 0
M  V30 3366 N 331.094 0.475555 1.50254 0
M  V30 3367 C 332.334 -0.0765802 2.04256 0
M  V30 3368 C 332.698 -1.36587 1.34937 0
M  V30 3369 O 333.899 -2.00066 1.79519 0
M  V30 3370 C 332.17 -0.251668 3.56513 0
M  V30 3371 S 333.729 -0.761716 4.32138 0
M  V30 3372 H 330.547 -0.0138456 0.710865 0
M  V30 3373 H 333.149 0.643714 1.84598 0
M  V30 3374 H 331.853 0.692404 4.04517 0
M  V30 3375 H 331.384 -0.997946 3.80532 0
M  V30 3376 H 333.399 -2.03451 4.52573 0
M  V30 3377 N 332.573 -1.56217 0.208337 0
M  V30 3378 C 333.819 -1.98242 -0.427552 0
M  V30 3379 C 334.152 -1.09554 -1.60348 0
M  V30 3380 O 333.427 -0.15035 -1.93918 0
M  V30 3381 C 333.71 -3.4931 -0.874907 0
M  V30 3382 C 333.563 -4.48773 0.303751 0
M  V30 3383 C 334.882 -4.04424 -1.73577 0
M  V30 3384 H 332.001 -0.720744 -0.153936 0
M  V30 3385 H 334.643 -1.87586 0.30192 0
M  V30 3386 H 332.793 -3.58522 -1.49648 0
M  V30 3387 H 334.465 -4.51586 0.941682 0
M  V30 3388 H 332.708 -4.23194 0.953375 0
M  V30 3389 H 333.379 -5.51976 -0.0519883 0
M  V30 3390 H 335.855 -3.98075 -1.21143 0
M  V30 3391 H 334.731 -5.1047 -2.01771 0
M  V30 3392 H 334.992 -3.50494 -2.69456 0
M  V30 3393 N 334.051 0.0651679 -1.57465 0
M  V30 3394 C 335.281 0.774683 -1.91526 0
M  V30 3395 C 335.689 1.71305 -0.803196 0
M  V30 3396 O 335.032 1.82231 0.231881 0
M  V30 3397 C 335.094 1.61645 -3.21109 0
M  V30 3398 C 334.758 0.846753 -4.49087 0
M  V30 3399 C 335.755 0.163024 -5.19644 0
M  V30 3400 C 333.44 0.811966 -4.95694 0
M  V30 3401 C 335.434 -0.54519 -6.35064 0
M  V30 3402 C 333.121 0.0999836 -6.11018 0
M  V30 3403 C 334.119 -0.577388 -6.80555 0
M  V30 3404 O 333.807 -1.27789 -7.93678 0
M  V30 3405 H 333.539 0.225031 -0.637446 0
M  V30 3406 H 336.093 0.0377134 -2.05365 0
M  V30 3407 H 334.323 2.39638 -3.03497 0
M  V30 3408 H 336.012 2.20525 -3.40769 0
M  V30 3409 H 336.778 0.181163 -4.84662 0
M  V30 3410 H 332.657 1.32867 -4.41438 0
M  V30 3411 H 336.201 -1.07446 -6.89276 0
M  V30 3412 H 332.098 0.0797945 -6.45451 0
M  V30 3413 H 332.866 -1.18784 -8.09835 0
M  V30 3414 N 335.529 1.53961 0.336706 0
M  V30 3415 C 336.945 1.44378 0.680241 0
M  V30 3416 C 337.145 0.606034 1.9217 0
M  V30 3417 O 336.201 0.099688 2.52303 0
M  V30 3418 C 337.514 2.87945 0.8665 0
M  V30 3419 C 339.062 2.97763 0.964682 0
M  V30 3420 C 339.537 4.42453 1.18321 0
M  V30 3421 N 341.028 4.46008 1.25025 0
M  V30 3422 C 341.763 5.55102 1.43697 0
M  V30 3423 N 341.259 6.7419 1.59498 0
M  V30 3424 N 343.052 5.42727 1.463 0
M  V30 3425 H 335.203 2.06918 -0.479455 0
M  V30 3426 H 337.466 0.935634 -0.152619 0
M  V30 3427 H 337.172 3.51691 0.0256937 0
M  V30 3428 H 337.046 3.33293 1.76623 0
M  V30 3429 H 339.433 2.34153 1.796 0
M  V30 3430 H 339.514 2.55766 0.041708 0
M  V30 3431 H 339.158 5.06645 0.356788 0
M  V30 3432 H 339.088 4.82048 2.11985 0
M  V30 3433 H 341.579 3.60196 1.14312 0
M  V30 3434 H 341.892 7.53095 1.734 0
M  V30 3435 H 340.237 6.77123 1.56621 0
M  V30 3436 H 343.428 4.48647 1.33543 0
M  V30 3437 H 343.601 6.27806 1.6051 0
M  V30 3438 N 337.007 -0.598083 1.45811 0
M  V30 3439 C 337.97 -1.69018 1.54808 0
M  V30 3440 C 338.97 -1.55037 0.426652 0
M  V30 3441 O 340.16 -1.59932 0.690456 0
M  V30 3442 C 337.292 -3.0835 1.45371 0
M  V30 3443 H 338.485 -1.62403 2.52121 0
M  V30 3444 H 336.038 -0.814626 1.33392 0
M  V30 3445 H 336.773 -3.20534 0.492793 0
M  V30 3446 H 336.558 -3.19907 2.26721 0
M  V30 3447 H 338.048 -3.8788 1.54721 0
M  V30 3448 N 338.485 -1.33259 -0.841409 0
M  V30 3449 C 339.731 -1.24757 -1.59886 0
M  V30 3450 C 340.064 0.186913 -1.93298 0
M  V30 3451 O 339.339 1.12757 -1.5848 0
M  V30 3452 C 339.622 -2.12036 -2.91055 0
M  V30 3453 C 339.475 -3.63929 -2.6434 0
M  V30 3454 C 340.794 -1.9916 -3.92458 0
M  V30 3455 H 337.913 -0.454542 -0.580138 0
M  V30 3456 H 340.555 -1.63335 -0.970647 0
M  V30 3457 H 338.705 -1.79265 -3.44669 0
M  V30 3458 H 340.377 -4.06978 -2.17178 0
M  V30 3459 H 338.62 -3.85935 -1.98082 0
M  V30 3460 H 339.291 -4.20341 -3.57796 0
M  V30 3461 H 341.767 -2.27895 -3.48143 0
M  V30 3462 H 340.643 -2.62484 -4.82072 0
M  V30 3463 H 340.904 -0.963082 -4.31482 0
M  V30 3464 N 339.963 1.05934 -1.16686 0
M  V30 3465 C 340.896 2.1295 -0.820225 0
M  V30 3466 C 341.874 1.61242 0.209722 0
M  V30 3467 O 343.058 1.88271 0.0929688 0
M  V30 3468 C 340.185 3.3797 -0.22223 0
M  V30 3469 C 339.231 4.08488 -1.22637 0
M  V30 3470 S 340.064 4.58015 -2.77457 0
M  V30 3471 C 341.22 5.86292 -2.19117 0
M  V30 3472 H 341.453 2.42025 -1.72659 0
M  V30 3473 H 338.986 1.18423 -0.990722 0
M  V30 3474 H 340.944 4.10335 0.116322 0
M  V30 3475 H 339.605 3.07045 0.66196 0
M  V30 3476 H 338.798 4.98291 -0.756455 0
M  V30 3477 H 338.4 3.42154 -1.51019 0
M  V30 3478 H 340.692 6.59246 -1.56209 0
M  V30 3479 H 341.635 6.38019 -3.07144 0
M  V30 3480 H 342.043 5.40497 -1.62858 0
M  V30 3481 N 341.441 0.965919 1.2453 0
M  V30 3482 C 342.857 0.67216 1.44756 0
M  V30 3483 C 343.057 -0.766609 1.86347 0
M  V30 3484 O 342.113 -1.5407 2.00047 0
M  V30 3485 C 343.426 1.65473 2.51076 0
M  V30 3486 C 344.974 1.66716 2.64905 0
M  V30 3487 C 345.449 2.63766 3.74421 0
M  V30 3488 N 346.94 2.62198 3.81846 0
M  V30 3489 C 347.675 3.33966 4.66106 0
M  V30 3490 N 347.171 4.15245 5.54566 0
M  V30 3491 N 348.964 3.22799 4.60171 0
M  V30 3492 H 341.115 1.89553 0.958293 0
M  V30 3493 H 343.378 0.815979 0.482579 0
M  V30 3494 H 343.084 2.68296 2.27399 0
M  V30 3495 H 342.958 1.4261 3.49202 0
M  V30 3496 H 345.345 0.646057 2.87941 0
M  V30 3497 H 345.426 1.93642 1.67142 0
M  V30 3498 H 345.07 3.6601 3.52135 0
M  V30 3499 H 345 2.34121 4.71694 0
M  V30 3500 H 347.491 2.032 3.18619 0
M  V30 3501 H 347.804 4.66898 6.15814 0
M  V30 3502 H 346.149 4.1934 5.54237 0
M  V30 3503 H 349.34 2.58764 3.90075 0
M  V30 3504 H 349.513 3.78994 5.25612 0
M  V30 3505 N 342.919 -1.39368 0.735821 0
M  V30 3506 C 343.867 -2.32443 0.0855131 0
M  V30 3507 C 344.861 -1.53104 -0.724954 0
M  V30 3508 O 346.067 -1.68762 -0.626047 0
M  V30 3509 H 342.442 -0.751948 0.00885257 0
M  V30 3510 H 344.413 -2.84916 0.886883 0
M  V30 3511 C 343.162 -3.38206 -0.806983 0
M  V30 3512 H 342.485 -3.99335 -0.19274 0
M  V30 3513 H 343.925 -4.05779 -1.2296 0
M  V30 3514 C 342.384 -2.75321 -1.94165 0
M  V30 3515 O 342.914 -2.63231 -3.03435 0
M  V30 3516 N 341.12 -2.33396 -1.73132 0
M  V30 3517 H 340.667 -2.4343 -0.842596 0
M  V30 3518 H 340.625 -1.91661 -2.49225 0
M  V30 3519 N 344.397 -0.483516 -1.5 0
M  V30 3520 C 345.625 0.0644831 -2.06799 0
M  V30 3521 C 346.04 1.32399 -1.34596 0
M  V30 3522 O 345.397 1.77626 -0.418946 0
M  V30 3523 C 345.448 0.339927 -3.59898 0
M  V30 3524 O 345.169 -0.869635 -4.29382 0
M  V30 3525 C 346.67 0.933515 -4.33359 0
M  V30 3526 H 343.89 -0.0126333 -0.670881 0
M  V30 3527 H 346.434 -0.675864 -1.93009 0
M  V30 3528 H 344.589 1.03022 -3.7345 0
M  V30 3529 H 345.003 -0.62179 -5.20801 0
M  V30 3530 H 346.477 1.07593 -5.41413 0
M  V30 3531 H 346.954 1.92685 -3.94676 0
M  V30 3532 H 347.56 0.281221 -4.24369 0
M  V30 3533 N 345.875 1.56104 -0.216619 0
M  V30 3534 C 347.121 1.98466 0.417033 0
M  V30 3535 C 347.454 1.10403 1.59765 0
M  V30 3536 O 346.729 0.160632 1.93836 0
M  V30 3537 C 347.012 3.49769 0.85637 0
M  V30 3538 C 346.865 4.48606 -0.327546 0
M  V30 3539 C 348.184 4.05339 1.7143 0
M  V30 3540 H 345.303 0.721551 0.150112 0
M  V30 3541 H 347.945 1.87423 -0.311864 0
M  V30 3542 H 346.095 3.5931 1.47745 0
M  V30 3543 H 347.767 4.5108 -0.965618 0
M  V30 3544 H 346.01 4.22682 -0.975805 0
M  V30 3545 H 346.681 5.51995 0.0227149 0
M  V30 3546 H 349.157 3.98712 1.19031 0
M  V30 3547 H 348.033 5.11533 1.99061 0
M  V30 3548 H 348.294 3.51918 2.67593 0
M  V30 3549 N 347.353 -0.0568162 1.57498 0
M  V30 3550 C 348.583 -0.764515 1.91934 0
M  V30 3551 C 348.991 -1.70877 0.81227 0
M  V30 3552 O 348.334 -1.82351 -0.222213 0
M  V30 3553 C 348.396 -1.5994 3.21962 0
M  V30 3554 C 348.06 -0.822925 4.4953 0
M  V30 3555 C 349.057 -0.135464 5.19723 0
M  V30 3556 C 346.742 -0.785666 4.96117 0
M  V30 3557 C 348.736 0.578861 6.34766 0
M  V30 3558 C 346.423 -0.0675784 6.11063 0
M  V30 3559 C 347.421 0.613471 6.80239 0
M  V30 3560 O 347.109 1.31996 7.92989 0
M  V30 3561 H 346.841 -0.221647 0.63863 0
M  V30 3562 H 349.395 -0.0268218 2.05382 0
M  V30 3563 H 347.625 -2.38026 3.04763 0
M  V30 3564 H 349.314 -2.18715 3.41934 0
M  V30 3565 H 350.08 -0.155458 4.84751 0
M  V30 3566 H 345.959 -1.30524 4.42136 0
M  V30 3567 H 349.503 1.111 6.88696 0
M  V30 3568 H 345.4 -0.0455636 6.45484 0
M  V30 3569 H 346.168 1.23077 8.09194 0
M  V30 3570 N 348.832 -1.54138 -0.328536 0
M  V30 3571 C 349.795 -1.82462 -1.38709 0
M  V30 3572 C 350.795 -0.696229 -1.44946 0
M  V30 3573 O 351.985 -0.964535 -1.4506 0
M  V30 3574 C 349.117 -1.98018 -2.77492 0
M  V30 3575 H 350.31 -2.77037 -1.14851 0
M  V30 3576 H 347.863 -1.45779 -0.563751 0
M  V30 3577 H 348.598 -1.05637 -3.06613 0
M  V30 3578 H 348.383 -2.80124 -2.74359 0
M  V30 3579 H 349.873 -2.21396 -3.54081 0
M  V30 3580 N 350.31 0.590341 -1.46126 0
M  V30 3581 C 351.556 1.35082 -1.51264 0
M  V30 3582 C 351.889 1.93534 -0.160711 0
M  V30 3583 O 351.164 1.76045 0.826956 0
M  V30 3584 C 351.447 2.48588 -2.6053 0
M  V30 3585 C 351.3 1.95221 -4.05227 0
M  V30 3586 C 352.619 3.50662 -2.6594 0
M  V30 3587 H 349.738 0.489803 -0.550692 0
M  V30 3588 H 352.38 0.663887 -1.78024 0
M  V30 3589 H 350.53 3.07186 -2.37843 0
M  V30 3590 H 352.202 1.41139 -4.39178 0
M  V30 3591 H 350.445 1.26101 -4.15068 0
M  V30 3592 H 351.116 2.77121 -4.77397 0
M  V30 3593 H 353.592 3.01934 -2.86313 0
M  V30 3594 H 352.468 4.27551 -3.44226 0
M  V30 3595 H 352.729 4.07399 -1.71694 0
M  V30 3596 N 351.788 1.33704 0.83433 0
M  V30 3597 C 352.735 1.24335 1.94447 0
M  V30 3598 C 353.705 0.120991 1.65659 0
M  V30 3599 O 354.89 0.300035 1.88426 0
M  V30 3600 C 352.03 0.993124 3.30501 0
M  V30 3601 C 351.143 2.20217 3.71657 0
M  V30 3602 C 350.278 1.88572 4.96602 0
M  V30 3603 C 349.317 3.05683 5.30306 0
M  V30 3604 N 348.454 2.73997 6.46429 0
M  V30 3605 H 353.294 2.1928 2.01792 0
M  V30 3606 H 350.831 1.09035 0.987404 0
M  V30 3607 H 352.789 0.828467 4.08892 0
M  V30 3608 H 351.419 0.0803902 3.227 0
M  V30 3609 H 350.471 2.47642 2.88752 0
M  V30 3610 H 351.783 3.07752 3.92543 0
M  V30 3611 H 350.937 1.68776 5.82752 0
M  V30 3612 H 349.676 0.982799 4.77695 0
M  V30 3613 H 348.681 3.26088 4.42659 0
M  V30 3614 H 349.906 3.96737 5.51159 0
M  V30 3615 H 347.852 1.86268 6.28999 0
M  V30 3616 H 347.769 3.55064 6.67432 0
M  V30 3617 H 349.037 2.57679 7.35678 0
M  V30 3618 N 353.266 -1.05314 1.17247 0
M  V30 3619 C 354.682 -1.30452 0.919473 0
M  V30 3620 C 354.882 -1.9703 -0.42209 0
M  V30 3621 O 353.938 -2.24311 -1.15935 0
M  V30 3622 C 355.251 -2.17551 2.07586 0
M  V30 3623 C 356.799 -2.30937 2.11275 0
M  V30 3624 C 357.274 -3.21396 3.26296 0
M  V30 3625 N 358.765 -3.28981 3.26076 0
M  V30 3626 C 359.5 -3.99095 4.11716 0
M  V30 3627 N 358.996 -4.71648 5.07465 0
M  V30 3628 N 360.789 -3.95247 3.9967 0
M  V30 3629 H 352.94 -0.604988 2.03602 0
M  V30 3630 H 355.203 -0.329368 0.888944 0
M  V30 3631 H 354.909 -1.75921 3.0454 0
M  V30 3632 H 354.783 -3.18182 2.02584 0
M  V30 3633 H 357.17 -2.71809 1.14907 0
M  V30 3634 H 357.251 -1.2994 2.20339 0
M  V30 3635 H 356.895 -2.81238 4.22927 0
M  V30 3636 H 356.825 -4.22395 3.14467 0
M  V30 3637 H 359.316 -2.77286 2.5675 0
M  V30 3638 H 359.629 -5.22705 5.6921 0
M  V30 3639 H 357.974 -4.70594 5.11435 0
M  V30 3640 H 361.165 -3.37691 3.24164 0
M  V30 3641 H 361.338 -4.4962 4.66632 0
M  V30 3642 N 354.744 -0.972509 -1.24016 0
M  V30 3643 C 355.674 -0.525548 -2.27509 0
M  V30 3644 C 356.655 0.437262 -1.64384 0
M  V30 3645 O 357.84 0.332343 -1.91335 0
M  V30 3646 C 354.97 0.180448 -3.46831 0
M  V30 3647 C 353.924 -0.698859 -4.22256 0
M  V30 3648 C 353.25 0.138903 -5.3452 0
M  V30 3649 C 354.55 -1.98582 -4.83076 0
M  V30 3650 H 356.244 -1.39058 -2.65148 0
M  V30 3651 H 353.79 -0.67009 -1.27459 0
M  V30 3652 H 355.743 0.504387 -4.18371 0
M  V30 3653 H 354.467 1.07987 -3.08231 0
M  V30 3654 H 353.126 -1.00614 -3.52523 0
M  V30 3655 H 352.774 1.03862 -4.9216 0
M  V30 3656 H 352.474 -0.446259 -5.85903 0
M  V30 3657 H 353.998 0.457404 -6.08884 0
M  V30 3658 H 355.412 -1.72715 -5.46665 0
M  V30 3659 H 353.809 -2.5181 -5.44713 0
M  V30 3660 H 354.879 -2.67769 -4.04262 0
M  V30 3661 N 356.222 1.38976 -0.743202 0
M  V30 3662 C 357.169 2.30544 -0.10861 0
M  V30 3663 C 358.139 1.49642 0.720869 0
M  V30 3664 O 359.324 1.78304 0.679142 0
M  V30 3665 C 356.464 3.36018 0.786496 0
M  V30 3666 C 355.577 4.31963 -0.0564849 0
M  V30 3667 C 354.712 5.24506 0.840657 0
M  V30 3668 C 353.751 6.121 -0.00658363 0
M  V30 3669 N 352.888 6.96973 0.846943 0
M  V30 3670 H 357.728 2.8424 -0.895088 0
M  V30 3671 H 355.265 1.3995 -0.453048 0
M  V30 3672 H 357.223 3.95768 1.31999 0
M  V30 3673 H 355.853 2.83758 1.53887 0
M  V30 3674 H 354.905 3.73763 -0.707492 0
M  V30 3675 H 356.217 4.93703 -0.711229 0
M  V30 3676 H 355.371 5.89322 1.4417 0
M  V30 3677 H 354.11 4.63107 1.52916 0
M  V30 3678 H 353.115 5.46289 -0.620366 0
M  V30 3679 H 354.34 6.75565 -0.691992 0
M  V30 3680 H 352.286 6.38133 1.52059 0
M  V30 3681 H 352.203 7.5559 0.248864 0
M  V30 3682 H 353.471 7.6621 1.43328 0
M  V30 3683 N 357.7 0.491464 1.49741 0
M  V30 3684 C 358.61 -0.296835 2.32715 0
M  V30 3685 C 359.626 -0.976536 1.44013 0
M  V30 3686 O 360.802 -0.960023 1.77047 0
M  V30 3687 C 357.867 -1.35288 3.19215 0
M  V30 3688 C 356.928 -0.687632 4.23757 0
M  V30 3689 C 356.161 -1.69336 5.06123 0
M  V30 3690 O 356.384 -2.92219 4.89861 0
M  V30 3691 O 355.318 -1.25394 5.88693 0
M  V30 3692 H 359.144 0.382048 3.01287 0
M  V30 3693 H 356.729 0.252953 1.47243 0
M  V30 3694 H 358.611 -1.96411 3.72828 0
M  V30 3695 H 357.286 -2.01487 2.53347 0
M  V30 3696 H 356.193 -0.0369159 3.74082 0
M  V30 3697 H 357.526 -0.0682566 4.92153 0
M  V30 3698 N 359.178 -1.55987 0.224894 0
M  V30 3699 C 360.126 -2.21808 -0.700283 0
M  V30 3700 C 361.12 -1.19854 -1.19714 0
M  V30 3701 O 362.326 -1.37925 -1.15658 0
M  V30 3702 H 358.701 -0.711226 -0.244258 0
M  V30 3703 H 360.672 -2.98152 -0.121749 0
M  V30 3704 C 359.421 -2.91444 -1.8962 0
M  V30 3705 H 358.744 -3.69655 -1.52299 0
M  V30 3706 H 360.184 -3.40894 -2.52125 0
M  V30 3707 C 358.643 -1.94098 -2.75368 0
M  V30 3708 O 359.173 -1.46004 -3.74227 0
M  V30 3709 N 357.379 -1.61675 -2.41474 0
M  V30 3710 H 356.926 -2.00979 -1.61137 0
M  V30 3711 H 356.884 -0.968036 -2.99126 0
M  V30 3712 N 360.656 0.0484629 -1.57525 0
M  V30 3713 C 361.619 1.03956 -2.04269 0
M  V30 3714 C 362.619 1.30211 -0.943496 0
M  V30 3715 O 363.809 1.25539 -1.20771 0
M  V30 3716 C 360.941 2.37742 -2.44319 0
M  V30 3717 H 362.134 0.636182 -2.93075 0
M  V30 3718 H 359.687 0.294811 -1.53494 0
M  V30 3719 H 360.422 2.82866 -1.5861 0
M  V30 3720 H 360.207 2.20021 -3.24551 0
M  V30 3721 H 361.697 3.08936 -2.80978 0
M  V30 3722 N 362.134 1.5431 0.320358 0
M  V30 3723 C 363.411 1.63322 1.07635 0
M  V30 3724 C 363.791 0.46912 2.05821 0
M  V30 3725 O 363.139 -0.536274 2.22118 0
M  V30 3726 C 363.349 3.00465 1.77544 0
M  V30 3727 C 364.697 3.56621 2.30449 0
M  V30 3728 O 365.721 3.02791 1.87606 0
M  V30 3729 O 364.58 4.5083 3.08892 0
M  V30 3730 H 361.674 0.661502 0.496331 0
M  V30 3731 H 364.22 1.66656 0.319992 0
M  V30 3732 H 362.992 3.76629 1.06143 0
M  V30 3733 H 362.615 3.00824 2.59982 0
M  V30 3734 N 363.613 -0.582584 1.46437 0
M  V30 3735 C 364.543 -1.70187 1.59871 0
M  V30 3736 C 365.524 -1.64066 0.449042 0
M  V30 3737 O 366.709 -1.82081 0.6753 0
M  V30 3738 C 363.839 -3.08827 1.58881 0
M  V30 3739 C 362.793 -3.29779 2.72819 0
M  V30 3740 C 362.119 -4.68947 2.5689 0
M  V30 3741 C 363.419 -3.17601 4.1464 0
M  V30 3742 H 365.113 -1.592 2.53566 0
M  V30 3743 H 362.659 -0.764472 1.22032 0
M  V30 3744 H 364.612 -3.86951 1.66873 0
M  V30 3745 H 363.336 -3.20713 0.617306 0
M  V30 3746 H 361.995 -2.54054 2.64296 0
M  V30 3747 H 361.643 -4.77599 1.57823 0
M  V30 3748 H 361.343 -4.83919 3.33312 0
M  V30 3749 H 362.867 -5.4924 2.66773 0
M  V30 3750 H 364.281 -3.8557 4.24274 0
M  V30 3751 H 362.678 -3.44094 4.9165 0
M  V30 3752 H 363.748 -2.14681 4.34788 0
M  V30 3753 N 365.091 -1.34144 -0.827227 0
M  V30 3754 C 366.001 -1.27428 -1.96975 0
M  V30 3755 C 367.017 -0.182728 -1.73038 0
M  V30 3756 O 368.193 -0.408426 -1.97215 0
M  V30 3757 C 365.258 -1.02526 -3.31194 0
M  V30 3758 C 364.319 -2.20796 -3.68168 0
M  V30 3759 C 363.552 -1.97073 -4.95982 0
M  V30 3760 O 363.775 -0.926822 -5.6282 0
M  V30 3761 O 362.709 -2.83912 -5.30733 0
M  V30 3762 H 366.535 -2.23537 -2.05584 0
M  V30 3763 H 364.12 -1.14307 -0.961989 0
M  V30 3764 H 366.002 -0.904026 -4.11589 0
M  V30 3765 H 364.677 -0.0945389 -3.23562 0
M  V30 3766 H 363.584 -2.38477 -2.88235 0
M  V30 3767 H 364.917 -3.12243 -3.8048 0
M  V30 3768 N 366.569 1.04691 -1.17803 0
M  V30 3769 C 367.815 1.78181 -0.980977 0
M  V30 3770 C 368.17 1.86191 0.484825 0
M  V30 3771 O 367.463 1.35436 1.35527 0
M  V30 3772 C 367.657 3.21467 -1.56186 0
M  V30 3773 C 367.486 3.27422 -3.08261 0
M  V30 3774 C 366.256 3.36415 -3.77032 0
M  V30 3775 C 368.454 3.15947 -4.0581 0
M  V30 3776 N 366.436 3.31554 -5.16667 0
M  V30 3777 C 367.807 3.18514 -5.31929 0
M  V30 3778 C 369.862 2.99945 -3.97413 0
M  V30 3779 C 368.565 3.06723 -6.50625 0
M  V30 3780 C 370.591 2.89497 -5.15699 0
M  V30 3781 C 369.953 2.92702 -6.40706 0
M  V30 3782 H 366.052 0.6641 -0.412911 0
M  V30 3783 H 368.636 1.24762 -1.49474 0
M  V30 3784 H 366.807 3.73245 -1.07436 0
M  V30 3785 H 368.539 3.8322 -1.30093 0
M  V30 3786 H 365.294 3.41887 -3.27735 0
M  V30 3787 H 365.718 3.3258 -5.89678 0
M  V30 3788 H 370.36 2.96302 -3.01604 0
M  V30 3789 H 368.078 3.0912 -7.46639 0
M  V30 3790 H 371.664 2.78179 -5.10987 0
M  V30 3791 H 370.544 2.84697 -7.30696 0
M  V30 3792 N 368.047 0.979072 1.23499 0
M  V30 3793 C 369.275 0.665202 1.95915 0
M  V30 3794 C 369.69 -0.767571 1.72493 0
M  V30 3795 O 369.047 -1.51635 1.01554 0
M  V30 3796 C 369.098 0.944438 3.48945 0
M  V30 3797 O 368.819 2.3209 3.71572 0
M  V30 3798 C 370.32 0.646336 4.38563 0
M  V30 3799 H 367.54 0.247218 0.623798 0
M  V30 3800 H 370.084 1.31009 1.57025 0
M  V30 3801 H 368.239 0.345575 3.85856 0
M  V30 3802 H 368.653 2.40957 4.65876 0
M  V30 3803 H 370.127 0.892091 5.44744 0
M  V30 3804 H 370.604 -0.419575 4.37191 0
M  V30 3805 H 371.21 1.22562 4.07258 0
M  V30 3806 N 369.525 -1.3858 0.750561 0
M  V30 3807 C 370.488 -2.28836 0.129152 0
M  V30 3808 C 371.488 -1.47045 -0.650714 0
M  V30 3809 O 372.678 -1.6753 -0.477428 0
M  V30 3810 C 369.81 -3.30751 -0.825622 0
M  V30 3811 H 371.003 -2.85294 0.924516 0
M  V30 3812 H 368.556 -1.47489 0.517376 0
M  V30 3813 H 369.291 -2.79378 -1.64677 0
M  V30 3814 H 369.076 -3.91177 -0.268852 0
M  V30 3815 H 370.566 -3.98249 -1.2565 0
M  V30 3816 N 371.003 -0.499398 -1.49478 0
M  V30 3817 C 372.249 0.0457576 -2.02748 0
M  V30 3818 C 372.582 1.36793 -1.37846 0
M  V30 3819 O 371.857 1.87596 -0.513601 0
M  V30 3820 C 372.14 0.199986 -3.59544 0
M  V30 3821 C 371.993 -1.1452 -4.34977 0
M  V30 3822 C 373.312 0.94137 -4.29914 0
M  V30 3823 H 370.431 0.0151552 -0.736844 0
M  V30 3824 H 373.073 -0.650498 -1.78518 0
M  V30 3825 H 371.223 0.793007 -3.8032 0
M  V30 3826 H 372.895 -1.77697 -4.25701 0
M  V30 3827 H 371.138 -1.73488 -3.97598 0
M  V30 3828 H 371.809 -0.990607 -5.43039 0
M  V30 3829 H 374.285 0.43844 -4.13784 0
M  V30 3830 H 373.161 1.01812 -5.39375 0
M  V30 3831 H 373.422 1.98471 -3.95046 0
M  V30 3832 N 372.481 1.55866 -0.233164 0
M  V30 3833 C 373.428 2.20796 0.67215 0
M  V30 3834 C 374.398 1.16731 1.18166 0
M  V30 3835 O 375.583 1.45129 1.23864 0
M  V30 3836 C 372.723 2.90072 1.86955 0
M  V30 3837 C 371.836 4.08759 1.39786 0
M  V30 3838 C 370.971 4.65787 2.55374 0
M  V30 3839 C 370.01 5.76752 2.04998 0
M  V30 3840 N 369.147 6.28021 3.13901 0
M  V30 3841 H 373.987 2.9779 0.111749 0
M  V30 3842 H 371.524 1.47036 0.0434007 0
M  V30 3843 H 373.482 3.28428 2.57276 0
M  V30 3844 H 372.112 2.15575 2.40265 0
M  V30 3845 H 371.164 3.7581 0.589173 0
M  V30 3846 H 372.476 4.88906 0.98856 0
M  V30 3847 H 371.63 5.06646 3.33758 0
M  V30 3848 H 370.369 3.84828 2.99598 0
M  V30 3849 H 369.374 5.35383 1.25079 0
M  V30 3850 H 370.599 6.59553 1.61759 0
M  V30 3851 H 368.545 5.49971 3.57586 0
M  V30 3852 H 368.462 7.03323 2.7726 0
M  V30 3853 H 369.73 6.73538 3.92386 0
M  V30 3854 N 373.959 -0.0401083 1.57549 0
M  V30 3855 C 374.891 -1.07149 2.02612 0
M  V30 3856 C 375.904 -1.33126 0.937085 0
M  V30 3857 O 377.093 -1.30808 1.21456 0
M  V30 3858 C 374.193 -2.41561 2.37701 0
M  V30 3859 C 373.366 -2.35096 3.68848 0
M  V30 3860 C 372.425 -3.51867 3.91249 0
M  V30 3861 O 371.451 -3.3186 4.62447 0
M  V30 3862 N 372.653 -4.73351 3.36035 0
M  V30 3863 H 375.418 -0.687485 2.91708 0
M  V30 3864 H 372.979 -0.228248 1.60283 0
M  V30 3865 H 374.971 -3.18379 2.49833 0
M  V30 3866 H 373.541 -2.71846 1.54332 0
M  V30 3867 H 372.761 -1.4345 3.67173 0
M  V30 3868 H 374.049 -2.27908 4.54901 0
M  V30 3869 H 373.447 -4.92507 2.78304 0
M  V30 3870 H 372.004 -5.47572 3.53565 0
M  V30 3871 N 375.437 -1.54477 -0.31217 0
M  V30 3872 C 376.662 -1.77526 -1.07235 0
M  V30 3873 C 377.087 -0.527775 -1.80544 0
M  V30 3874 O 376.445 0.52121 -1.73646 0
M  V30 3875 C 376.493 -2.97535 -2.03728 0
M  V30 3876 O 375.597 -2.69878 -3.11833 0
M  V30 3877 H 374.938 -0.58792 -0.30862 0
M  V30 3878 H 377.468 -2.01532 -0.352993 0
M  V30 3879 H 377.478 -3.25198 -2.46395 0
M  V30 3880 H 376.153 -3.87996 -1.49774 0
M  V30 3881 H 374.73 -2.53199 -2.7376 0
M  V30 3882 N 376.915 0.57481 -1.46744 0
M  V30 3883 C 378.162 1.33272 -1.52462 0
M  V30 3884 C 378.49 1.93669 -0.179572 0
M  V30 3885 O 377.745 1.7743 0.825664 0
M  V30 3886 C 378.044 2.476 -2.57738 0
M  V30 3887 C 377.71 2.05146 -4.01529 0
M  V30 3888 C 376.372 1.93284 -4.40676 0
M  V30 3889 C 378.724 1.72506 -4.91824 0
M  V30 3890 C 376.052 1.47049 -5.67973 0
M  V30 3891 C 378.404 1.27748 -6.19567 0
M  V30 3892 C 377.068 1.14468 -6.57612 0
M  V30 3893 H 376.338 0.487678 -0.557899 0
M  V30 3894 H 378.985 0.646456 -1.80259 0
M  V30 3895 H 377.29 3.21708 -2.23632 0
M  V30 3896 H 378.987 3.05807 -2.5939 0
M  V30 3897 H 375.577 2.15316 -3.7059 0
M  V30 3898 H 379.761 1.80552 -4.62293 0
M  V30 3899 H 375.017 1.35417 -5.96215 0
M  V30 3900 H 379.191 1.01547 -6.88957 0
M  V30 3901 H 376.818 0.78419 -7.56145 0
M  V30 3902 N 378.394 1.34581 0.820102 0
M  V30 3903 C 379.324 1.29038 1.94606 0
M  V30 3904 C 380.305 0.1673 1.69275 0
M  V30 3905 O 381.49 0.360112 1.90832 0
M  V30 3906 C 378.62 1.04793 3.31113 0
M  V30 3907 C 377.574 2.13597 3.70891 0
M  V30 3908 C 376.9 1.74537 5.05412 0
M  V30 3909 C 378.2 3.55451 3.8269 0
M  V30 3910 H 379.894 2.23248 1.99501 0
M  V30 3911 H 377.44 1.0747 0.958449 0
M  V30 3912 H 379.393 0.995592 4.0947 0
M  V30 3913 H 378.117 0.0702565 3.26524 0
M  V30 3914 H 376.776 2.17905 2.9481 0
M  V30 3915 H 376.424 0.754226 4.97313 0
M  V30 3916 H 376.124 2.47361 5.32997 0
M  V30 3917 H 377.648 1.70803 5.86224 0
M  V30 3918 H 379.062 3.5354 4.51312 0
M  V30 3919 H 377.459 4.26922 4.21732 0
M  V30 3920 H 378.529 3.92587 2.84611 0
M  V30 3921 N 379.872 -1.04064 1.18357 0
M  V30 3922 C 381.1 -1.80916 1.00384 0
M  V30 3923 C 381.515 -1.83414 -0.447738 0
M  V30 3924 O 380.872 -1.26962 -1.31099 0
M  V30 3925 C 380.923 -3.26516 1.55144 0
M  V30 3926 O 380.644 -3.2424 2.94618 0
M  V30 3927 C 382.145 -4.20013 1.41789 0
M  V30 3928 H 379.365 -0.569728 0.354474 0
M  V30 3929 H 381.909 -1.31151 1.56906 0
M  V30 3930 H 380.064 -3.73512 1.02798 0
M  V30 3931 H 380.478 -4.15452 3.20156 0
M  V30 3932 H 381.952 -5.20111 1.84901 0
M  V30 3933 H 382.429 -4.37667 0.36661 0
M  V30 3934 H 383.035 -3.78881 1.93207 0
M  V30 3935 N 381.35 -0.985608 -1.22978 0
M  V30 3936 C 382.26 -0.538548 -2.28335 0
M  V30 3937 C 383.276 0.409163 -1.69121 0
M  V30 3938 O 384.452 0.277797 -1.99475 0
M  V30 3939 C 381.517 0.146867 -3.46389 0
M  V30 3940 C 380.578 -0.842896 -4.20944 0
M  V30 3941 C 379.811 -0.190095 -5.33361 0
M  V30 3942 O 380.034 1.01767 -5.61248 0
M  V30 3943 O 378.968 -0.891289 -5.95264 0
M  V30 3944 H 382.794 -1.41487 -2.68729 0
M  V30 3945 H 380.379 -0.753495 -1.29007 0
M  V30 3946 H 382.261 0.531125 -4.1804 0
M  V30 3947 H 380.936 0.997871 -3.07935 0
M  V30 3948 H 379.843 -1.27795 -3.51595 0
M  V30 3949 H 381.176 -1.66287 -4.6326 0
M  V30 3950 N 382.828 1.3818 -0.7579 0
M  V30 3951 C 384.074 2.00316 -0.316453 0
M  V30 3952 C 384.407 1.60026 1.10025 0
M  V30 3953 O 383.682 0.839835 1.75434 0
M  V30 3954 C 383.965 3.57349 -0.444245 0
M  V30 3955 C 383.818 4.07591 -1.90236 0
M  V30 3956 C 385.137 4.3981 0.1598 0
M  V30 3957 H 382.256 0.727741 -0.116459 0
M  V30 3958 H 384.898 1.6406 -0.958352 0
M  V30 3959 H 383.048 3.88365 0.102233 0
M  V30 3960 H 384.72 3.87199 -2.50748 0
M  V30 3961 H 382.963 3.60297 -2.41595 0
M  V30 3962 H 383.634 5.16677 -1.94291 0
M  V30 3963 H 386.11 4.14971 -0.306314 0
M  V30 3964 H 384.986 5.48885 0.0401675 0
M  V30 3965 H 385.247 4.24102 1.24859 0
M  V30 3966 N 384.306 0.507319 1.49211 0
M  V30 3967 C 385.216 -0.272136 2.33016 0
M  V30 3968 C 386.232 -0.961206 1.45041 0
M  V30 3969 O 387.408 -0.941191 1.78055 0
M  V30 3970 C 384.473 -1.31895 3.20631 0
M  V30 3971 C 383.534 -0.642648 4.24463 0
M  V30 3972 C 382.767 -1.63959 5.07891 0
M  V30 3973 O 382.99 -2.87007 4.92933 0
M  V30 3974 O 381.924 -1.19143 5.8999 0
M  V30 3975 H 385.75 0.413982 3.00865 0
M  V30 3976 H 383.335 0.268556 1.46966 0
M  V30 3977 H 385.217 -1.92446 3.7489 0
M  V30 3978 H 383.892 -1.98788 2.5547 0
M  V30 3979 H 382.799 0.00276252 3.741 0
M  V30 3980 H 384.132 -0.0160534 4.92197 0
M  V30 3981 N 385.784 -1.5574 0.241426 0
M  V30 3982 C 386.716 -2.18469 -0.693091 0
M  V30 3983 C 387.729 -1.15942 -1.14286 0
M  V30 3984 O 388.918 -1.42832 -1.07058 0
M  V30 3985 C 386.018 -2.7696 -1.95311 0
M  V30 3986 C 385.191 -4.04853 -1.65568 0
M  V30 3987 C 384.25 -4.47715 -2.76474 0
M  V30 3988 O 383.276 -5.14205 -2.44094 0
M  V30 3989 N 384.478 -4.15044 -4.05855 0
M  V30 3990 H 387.243 -2.99292 -0.156388 0
M  V30 3991 H 384.804 -1.61784 0.0611752 0
M  V30 3992 H 386.796 -3.02594 -2.68736 0
M  V30 3993 H 385.366 -2.00326 -2.39975 0
M  V30 3994 H 384.586 -3.86865 -0.756886 0
M  V30 3995 H 385.874 -4.88246 -1.43153 0
M  V30 3996 H 385.272 -3.61654 -4.34998 0
M  V30 3997 H 383.829 -4.45526 -4.75762 0
M  V30 3998 N 387.262 0.0317525 -1.57568 0
M  V30 3999 C 388.192 1.03274 -2.0942 0
M  V30 4000 C 389.173 1.3788 -0.996143 0
M  V30 4001 O 390.358 1.46811 -1.27122 0
M  V30 4002 C 387.488 2.33448 -2.57137 0
M  V30 4003 C 386.442 2.13091 -3.71182 0
M  V30 4004 C 385.768 3.49001 -4.05095 0
M  V30 4005 C 387.068 1.51928 -4.99715 0
M  V30 4006 H 388.762 0.60112 -2.93303 0
M  V30 4007 H 386.308 0.287705 -1.41097 0
M  V30 4008 H 388.261 3.03802 -2.92032 0
M  V30 4009 H 386.985 2.78665 -1.70333 0
M  V30 4010 H 385.644 1.45171 -3.36632 0
M  V30 4011 H 385.292 3.91862 -3.15362 0
M  V30 4012 H 384.992 3.36207 -4.81911 0
M  V30 4013 H 386.516 4.20721 -4.42522 0
M  V30 4014 H 387.93 2.12196 -5.32584 0
M  V30 4015 H 386.327 1.49716 -5.81124 0
M  V30 4016 H 387.397 0.484811 -4.8247 0
M  V30 4017 N 388.74 1.54641 0.303973 0
M  V30 4018 C 389.965 1.78092 1.06292 0
M  V30 4019 C 390.39 0.537342 1.80262 0
M  V30 4020 O 389.748 -0.511993 1.7392 0
M  V30 4021 C 389.796 2.98612 2.02147 0
M  V30 4022 O 388.9 2.71528 3.10397 0
M  V30 4023 H 388.241 0.589548 0.305497 0
M  V30 4024 H 390.771 2.01716 0.3423 0
M  V30 4025 H 390.781 3.265 2.44667 0
M  V30 4026 H 389.456 3.88785 1.47714 0
M  V30 4027 H 388.033 2.54648 2.72413 0
M  V30 4028 N 390.218 -0.567019 1.47046 0
M  V30 4029 C 391.634 -0.891975 1.32348 0
M  V30 4030 C 391.834 -1.99154 0.306616 0
M  V30 4031 O 390.89 -2.50883 -0.28532 0
M  V30 4032 C 392.203 -1.29449 2.7141 0
M  V30 4033 C 393.751 -1.40646 2.79621 0
M  V30 4034 C 394.226 -1.84257 4.19301 0
M  V30 4035 N 395.717 -1.91424 4.21795 0
M  V30 4036 C 396.452 -2.26476 5.26779 0
M  V30 4037 N 395.948 -2.60211 6.42077 0
M  V30 4038 N 397.741 -2.27166 5.14152 0
M  V30 4039 H 389.892 0.159074 2.11803 0
M  V30 4040 H 392.155 0.00849752 0.947962 0
M  V30 4041 H 391.861 -0.560448 3.47206 0
M  V30 4042 H 391.735 -2.25273 3.02542 0
M  V30 4043 H 394.122 -2.13133 2.04104 0
M  V30 4044 H 394.203 -0.430339 2.52154 0
M  V30 4045 H 393.847 -1.12343 4.95319 0
M  V30 4046 H 393.777 -2.82855 4.44185 0
M  V30 4047 H 396.268 -1.6778 3.38612 0
M  V30 4048 H 396.581 -2.85956 7.17948 0
M  V30 4049 H 394.926 -2.57813 6.45413 0
M  V30 4050 H 398.117 -2.00244 4.23107 0
M  V30 4051 H 398.29 -2.54154 5.96079 0
M  V30 4052 N 391.696 -1.35014 -0.812953 0
M  V30 4053 C 392.943 -1.27931 -1.56971 0
M  V30 4054 C 393.271 0.148034 -1.93936 0
M  V30 4055 O 392.526 1.11175 -1.61054 0
M  V30 4056 C 392.825 -2.12524 -2.87347 0
M  V30 4057 C 392.491 -3.61401 -2.6963 0
M  V30 4058 C 391.153 -4.01983 -2.64506 0
M  V30 4059 C 393.505 -4.55894 -2.52607 0
M  V30 4060 C 390.833 -5.35235 -2.40293 0
M  V30 4061 C 393.185 -5.89336 -2.29925 0
M  V30 4062 C 391.849 -6.2907 -2.23219 0
M  V30 4063 H 391.119 -0.468131 -0.574399 0
M  V30 4064 H 393.766 -1.66851 -0.939836 0
M  V30 4065 H 392.071 -1.66463 -3.54679 0
M  V30 4066 H 393.768 -2.04383 -3.45005 0
M  V30 4067 H 390.358 -3.29193 -2.74463 0
M  V30 4068 H 394.542 -4.25431 -2.55583 0
M  V30 4069 H 389.798 -5.65028 -2.33566 0
M  V30 4070 H 393.972 -6.62139 -2.15743 0
M  V30 4071 H 391.599 -7.32256 -2.04219 0
M  V30 4072 N 393.175 1.03435 -1.18907 0
M  V30 4073 C 394.591 1.28973 -0.940111 0
M  V30 4074 C 394.791 1.97676 0.390691 0
M  V30 4075 O 393.847 2.26127 1.12352 0
M  V30 4076 C 395.16 2.14221 -2.11021 0
M  V30 4077 C 396.708 2.27547 -2.14922 0
M  V30 4078 C 397.183 3.16164 -3.31367 0
M  V30 4079 N 398.674 3.23752 -3.31269 0
M  V30 4080 C 399.409 3.92495 -4.18014 0
M  V30 4081 N 398.905 4.63515 -5.14904 0
M  V30 4082 N 400.698 3.88838 -4.05908 0
M  V30 4083 H 392.849 0.57252 -2.04538 0
M  V30 4084 H 395.112 0.315184 -0.894071 0
M  V30 4085 H 394.818 1.71054 -3.073 0
M  V30 4086 H 394.692 3.14919 -2.0762 0
M  V30 4087 H 397.079 2.69947 -1.19217 0
M  V30 4088 H 397.16 1.26418 -2.22378 0
M  V30 4089 H 396.804 2.74474 -4.27348 0
M  V30 4090 H 396.734 4.17339 -3.21148 0
M  V30 4091 H 399.225 2.73167 -2.61129 0
M  V30 4092 H 399.538 5.13583 -5.77453 0
M  V30 4093 H 397.883 4.62398 -5.18857 0
M  V30 4094 H 401.074 3.32491 -3.29495 0
M  V30 4095 H 401.247 4.4214 -4.73726 0
M  V30 4096 N 394.653 0.992116 1.22453 0
M  V30 4097 C 395.603 0.512969 2.22155 0
M  V30 4098 C 396.587 -0.418416 1.55364 0
M  V30 4099 O 397.779 -0.245363 1.75291 0
M  V30 4100 C 394.908 -0.171822 3.4287 0
M  V30 4101 C 393.994 0.779822 4.16869 0
M  V30 4102 N 394.385 1.92734 4.6764 0
M  V30 4103 C 392.683 0.59554 4.42006 0
M  V30 4104 C 393.384 2.52458 5.24061 0
M  V30 4105 N 392.36 1.80735 5.12675 0
M  V30 4106 H 396.162 1.38817 2.5905 0
M  V30 4107 H 393.676 0.854277 1.38115 0
M  V30 4108 H 395.673 -0.532469 4.13486 0
M  V30 4109 H 394.333 -1.04317 3.07487 0
M  V30 4110 H 395.344 2.30816 4.63621 0
M  V30 4111 H 392.021 -0.229805 4.16867 0
M  V30 4112 H 393.411 3.49433 5.73887 0
M  V30 4113 N 396.131 -1.37776 0.765217 0
M  V30 4114 C 397.542 -1.82521 0.392819 0
M  V30 4115 C 397.893 -1.63789 -1.08017 0
M  V30 4116 O 397.018 -1.14542 -1.83601 0
M  V30 4117 C 397.613 -3.31358 0.706214 0
M  V30 4118 C 396.172 -3.74406 0.386952 0
M  V30 4119 C 395.319 -2.60394 0.953422 0
M  V30 4120 H 398.27 -1.2634 0.960412 0
M  V30 4121 H 398.291 -3.80498 -0.0114706 0
M  V30 4122 H 397.803 -3.44959 1.77833 0
M  V30 4123 H 395.904 -3.66377 -0.678112 0
M  V30 4124 H 396.017 -4.70749 0.890636 0
M  V30 4125 H 394.381 -2.51878 0.378064 0
M  V30 4126 H 395.164 -2.76791 2.03081 0
M  V30 4127 N 397.609 -0.515225 -1.4894 0
M  V30 4128 C 398.557 0.269115 -2.31038 0
M  V30 4129 C 399.551 0.949443 -1.40292 0
M  V30 4130 O 400.757 0.87551 -1.57273 0
M  V30 4131 H 397.132 0.10565 -0.744542 0
M  V30 4132 H 399.103 -0.443096 -2.95092 0
M  V30 4133 C 397.852 1.31213 -3.21991 0
M  V30 4134 H 397.175 0.798034 -3.91754 0
M  V30 4135 H 398.615 1.83263 -3.82349 0
M  V30 4136 C 397.074 2.33791 -2.42576 0
M  V30 4137 O 397.604 3.3995 -2.14003 0
M  V30 4138 N 395.81 2.06625 -2.0434 0
M  V30 4139 H 395.357 1.20314 -2.27777 0
M  V30 4140 H 395.315 2.75483 -1.51514 0
M  V30 4141 N 399.087 1.5561 -0.249682 0
M  V30 4142 C 400.336 1.98187 0.37479 0
M  V30 4143 C 400.649 1.14111 1.58865 0
M  V30 4144 O 401.855 1.46714 2.28445 0
M  V30 4145 C 400.311 3.52661 0.718192 0
M  V30 4146 C 399.919 4.45481 -0.474428 0
M  V30 4147 C 401.663 4.03888 1.3067 0
M  V30 4148 C 399.57 5.91303 -0.107026 0
M  V30 4149 H 398.5 0.740159 0.143808 0
M  V30 4150 H 401.151 1.80125 -0.350336 0
M  V30 4151 H 399.533 3.66429 1.50152 0
M  V30 4152 H 400.707 4.43473 -1.25172 0
M  V30 4153 H 399.022 4.04751 -0.978052 0
M  V30 4154 H 401.619 5.10358 1.59496 0
M  V30 4155 H 401.962 3.51401 2.23211 0
M  V30 4156 H 402.495 3.93457 0.586211 0
M  V30 4157 H 399.234 6.47833 -0.999642 0
M  V30 4158 H 398.754 5.9644 0.634013 0
M  V30 4159 H 400.433 6.46258 0.309807 0
M  V30 4160 N 400.565 -0.0233959 1.57583 0
M  V30 4161 C 401.811 -0.714119 1.89811 0
M  V30 4162 C 402.144 -1.74702 0.848113 0
M  V30 4163 O 401.419 -1.94023 -0.136135 0
M  V30 4164 C 401.702 -1.37853 3.32669 0
M  V30 4165 C 401.555 -0.358764 4.48367 0
M  V30 4166 C 402.874 -2.31101 3.7454 0
M  V30 4167 H 399.993 -0.25814 0.690314 0
M  V30 4168 H 402.635 0.0230927 1.89986 0
M  V30 4169 H 400.785 -2.00689 3.3265 0
M  V30 4170 H 402.457 0.268115 4.6052 0
M  V30 4171 H 400.7 0.321387 4.32608 0
M  V30 4172 H 401.371 -0.862242 5.45224 0
M  V30 4173 H 403.847 -1.78304 3.75961 0
M  V30 4174 H 402.723 -2.74567 4.75294 0
M  V30 4175 H 402.984 -3.18018 3.0711 0
M  V30 4176 N 402.043 -1.548 -0.295768 0
M  V30 4177 C 403.32 -1.65014 -1.05023 0
M  V30 4178 C 403.7 -0.501805 -2.05049 0
M  V30 4179 O 403.048 0.500869 -2.22943 0
M  V30 4180 C 403.258 -3.03252 -1.72741 0
M  V30 4181 C 404.606 -3.60242 -2.24746 0
M  V30 4182 O 405.63 -3.05737 -1.82765 0
M  V30 4183 O 404.489 -4.55687 -3.01681 0
M  V30 4184 H 401.583 -0.669314 -0.485744 0
M  V30 4185 H 404.129 -1.67144 -0.293438 0
M  V30 4186 H 402.901 -3.7827 -1.00138 0
M  V30 4187 H 402.524 -3.04922 -2.55163 0
M  V30 4188 N 403.521 0.559213 -1.47345 0
M  V30 4189 C 404.768 1.31648 -1.53867 0
M  V30 4190 C 405.096 1.93468 -0.200104 0
M  V30 4191 O 404.351 1.78295 0.806799 0
M  V30 4192 C 404.65 2.44853 -2.6035 0
M  V30 4193 C 404.316 2.00876 -4.03683 0
M  V30 4194 C 402.978 1.88599 -4.42701 0
M  V30 4195 C 405.33 1.67279 -4.93626 0
M  V30 4196 C 402.658 1.41017 -5.69501 0
M  V30 4197 C 405.01 1.21169 -6.20887 0
M  V30 4198 C 403.674 1.07487 -6.58789 0
M  V30 4199 H 402.944 0.481734 -0.56304 0
M  V30 4200 H 405.591 0.627301 -1.80934 0
M  V30 4201 H 403.896 3.19318 -2.27032 0
M  V30 4202 H 405.593 3.03039 -2.62619 0
M  V30 4203 H 402.183 2.11374 -3.72853 0
M  V30 4204 H 406.367 1.75638 -4.64182 0
M  V30 4205 H 401.623 1.29086 -5.97618 0
M  V30 4206 H 405.797 0.942345 -6.89995 0
M  V30 4207 H 403.424 0.703946 -7.56934 0
M  V30 4208 N 404.999 1.35443 0.805782 0
M  V30 4209 C 405.962 1.28301 1.89925 0
M  V30 4210 C 406.962 0.194285 1.59622 0
M  V30 4211 O 408.152 0.448036 1.6834 0
M  V30 4212 C 405.284 0.984997 3.2636 0
M  V30 4213 H 406.477 2.2553 1.97677 0
M  V30 4214 H 404.03 1.19979 1.00173 0
M  V30 4215 H 404.765 0.016603 3.24296 0
M  V30 4216 H 404.55 1.77269 3.4974 0
M  V30 4217 H 406.04 0.960651 4.064 0
M  V30 4218 N 406.477 -1.02803 1.19454 0
M  V30 4219 C 407.725 -1.75869 0.995722 0
M  V30 4220 C 408.046 -1.89138 -0.474543 0
M  V30 4221 O 407.316 -1.42558 -1.34366 0
M  V30 4222 H 405.896 -0.651511 0.365435 0
M  V30 4223 H 408.558 -1.24004 1.50363 0
M  V30 4224 H 407.654 -2.76661 1.44447 0
M  V30 4225 N 407.956 -0.998596 -1.21925 0
M  V30 4226 C 409.186 -0.695276 -1.94549 0
M  V30 4227 C 409.594 0.745079 -1.73911 0
M  V30 4228 O 408.937 1.51507 -1.03881 0
M  V30 4229 C 408.999 -0.928485 -3.47303 0
M  V30 4230 C 408.663 -2.35443 -3.91683 0
M  V30 4231 C 409.66 -3.33428 -3.98901 0
M  V30 4232 C 407.345 -2.69038 -4.24174 0
M  V30 4233 C 409.339 -4.63079 -4.37992 0
M  V30 4234 C 407.026 -3.98906 -4.62944 0
M  V30 4235 C 408.024 -4.95738 -4.69822 0
M  V30 4236 O 407.712 -6.23285 -5.07711 0
M  V30 4237 H 407.444 -0.255902 -0.625692 0
M  V30 4238 H 409.998 -1.33767 -1.5587 0
M  V30 4239 H 408.228 -0.228917 -3.86022 0
M  V30 4240 H 409.917 -0.619539 -4.01144 0
M  V30 4241 H 410.683 -3.08807 -3.73983 0
M  V30 4242 H 406.562 -1.94367 -4.18022 0
M  V30 4243 H 410.106 -5.38658 -4.43275 0
M  V30 4244 H 406.003 -4.23314 -4.87314 0
M  V30 4245 H 406.771 -6.27306 -5.25766 0
M  V30 4246 N 409.434 1.37368 -0.772513 0
M  V30 4247 C 410.674 2.01512 -0.342361 0
M  V30 4248 C 411.038 1.59997 1.06136 0
M  V30 4249 O 412.239 2.16609 1.59167 0
M  V30 4250 C 410.51 3.54134 -0.482048 0
M  V30 4251 S 412.069 4.38585 -0.137272 0
M  V30 4252 H 408.887 0.698699 -0.131686 0
M  V30 4253 H 411.489 1.67552 -1.0073 0
M  V30 4254 H 410.193 3.81837 -1.50428 0
M  V30 4255 H 409.724 3.92894 0.199413 0
M  V30 4256 H 411.739 4.84594 1.06692 0
M  V30 4257 N 410.912 0.523116 1.48665 0
M  V30 4258 C 411.875 -0.232592 2.28017 0
M  V30 4259 C 412.875 -0.874021 1.34972 0
M  V30 4260 O 414.065 -0.735132 1.57929 0
M  V30 4261 C 411.197 -1.33586 3.13636 0
M  V30 4262 H 412.39 0.464008 2.96289 0
M  V30 4263 H 409.943 0.278816 1.53793 0
M  V30 4264 H 410.678 -2.06593 2.4998 0
M  V30 4265 H 410.463 -0.881125 3.82071 0
M  V30 4266 H 411.953 -1.86759 3.73511 0
M  V30 4267 N 412.39 -1.55475 0.257931 0
M  V30 4268 C 413.322 -2.19192 -0.669881 0
M  V30 4269 C 414.335 -1.17148 -1.1305 0
M  V30 4270 O 415.524 -1.43959 -1.05537 0
M  V30 4271 C 412.624 -2.79016 -1.92363 0
M  V30 4272 C 411.797 -4.06586 -1.61265 0
M  V30 4273 C 410.856 -4.50622 -2.7171 0
M  V30 4274 O 409.882 -5.16765 -2.38627 0
M  V30 4275 N 411.084 -4.19325 -4.01431 0
M  V30 4276 H 413.849 -2.99441 -0.124635 0
M  V30 4277 H 411.41 -1.6171 0.0783311 0
M  V30 4278 H 413.402 -3.05427 -2.65511 0
M  V30 4279 H 411.972 -2.0286 -2.37837 0
M  V30 4280 H 411.192 -3.87646 -0.715811 0
M  V30 4281 H 412.48 -4.89737 -1.37967 0
M  V30 4282 H 411.878 -3.66247 -4.31138 0
M  V30 4283 H 410.435 -4.50547 -4.7101 0
M  V30 4284 N 413.868 0.0150385 -1.57593 0
M  V30 4285 C 414.816 1.02958 -2.08572 0
M  V30 4286 C 415.81 1.36554 -1.00246 0
M  V30 4287 O 417.016 1.35295 -1.18724 0
M  V30 4288 H 413.391 0.349619 -0.665786 0
M  V30 4289 H 415.362 0.573932 -2.92829 0
M  V30 4290 C 414.111 2.31752 -2.59203 0
M  V30 4291 H 413.434 2.06765 -3.42182 0
M  V30 4292 H 414.874 3.01053 -2.98568 0
M  V30 4293 C 413.333 3.01692 -1.49945 0
M  V30 4294 O 413.863 3.92083 -0.873704 0
M  V30 4295 N 412.069 2.6326 -1.23056 0
M  V30 4296 H 411.616 1.89838 -1.74125 0
M  V30 4297 H 411.574 3.10372 -0.501685 0
M  V30 4298 N 415.346 1.54954 0.287554 0
M  V30 4299 C 416.594 1.74528 1.01904 0
M  V30 4300 C 416.915 0.541349 1.87335 0
M  V30 4301 O 416.185 -0.444108 1.908 0
M  V30 4302 H 414.765 0.643576 0.379235 0
M  V30 4303 H 417.427 1.92333 0.315294 0
M  V30 4304 H 416.523 2.64015 1.6644 0
M  V30 4305 N 416.824 -0.551391 1.4764 0
M  V30 4306 C 418.071 -1.3083 1.54563 0
M  V30 4307 C 418.399 -1.93359 0.210361 0
M  V30 4308 O 417.654 -1.78721 -0.797332 0
M  V30 4309 C 417.953 -2.43469 2.61644 0
M  V30 4310 C 417.619 -1.98732 4.04742 0
M  V30 4311 C 416.281 -1.86248 4.43695 0
M  V30 4312 C 418.633 -1.64659 4.94507 0
M  V30 4313 C 415.961 -1.37995 5.70241 0
M  V30 4314 C 418.313 -1.17875 6.21521 0
M  V30 4315 C 416.977 -1.03992 6.5935 0
M  V30 4316 H 416.247 -0.478741 0.565587 0
M  V30 4317 H 418.894 -0.617697 1.81264 0
M  V30 4318 H 417.199 -3.18109 2.28722 0
M  V30 4319 H 418.896 -3.01642 2.64222 0
M  V30 4320 H 415.486 -2.09393 3.73968 0
M  V30 4321 H 419.67 -1.73174 4.65107 0
M  V30 4322 H 414.926 -1.25915 5.98294 0
M  V30 4323 H 419.1 -0.905739 6.90485 0
M  V30 4324 H 416.727 -0.663794 7.57296 0
M  V30 4325 N 418.302 -1.35869 -0.798587 0
M  V30 4326 C 419.532 -1.32529 -1.58491 0
M  V30 4327 C 419.94 0.0975405 -1.88948 0
M  V30 4328 O 419.283 1.06224 -1.49874 0
M  V30 4329 C 419.345 -2.07247 -2.9375 0
M  V30 4330 C 419.009 -3.56391 -2.86068 0
M  V30 4331 C 420.006 -4.50824 -2.58947 0
M  V30 4332 C 417.691 -3.9915 -3.04933 0
M  V30 4333 C 419.685 -5.85993 -2.5078 0
M  V30 4334 C 417.372 -5.34413 -2.96389 0
M  V30 4335 C 418.37 -6.27646 -2.69349 0
M  V30 4336 O 418.058 -7.60426 -2.60782 0
M  V30 4337 H 417.79 -0.456529 -0.498556 0
M  V30 4338 H 420.344 -1.79425 -0.999799 0
M  V30 4339 H 418.574 -1.55001 -3.54276 0
M  V30 4340 H 420.263 -1.96883 -3.54954 0
M  V30 4341 H 421.029 -4.19104 -2.44084 0
M  V30 4342 H 416.908 -3.26961 -3.24989 0
M  V30 4343 H 420.452 -6.58735 -2.29595 0
M  V30 4344 H 416.349 -5.65743 -3.10813 0
M  V30 4345 H 417.117 -7.70444 -2.76331 0
M  V30 4346 N 419.78 1.02168 -1.19998 0
M  V30 4347 C 421.02 1.77232 -1.01825 0
M  V30 4348 C 421.384 1.86833 0.442428 0
M  V30 4349 O 422.585 2.58293 0.744189 0
M  V30 4350 C 420.856 3.15601 -1.67722 0
M  V30 4351 S 422.415 4.06765 -1.64584 0
M  V30 4352 H 419.233 0.610021 -0.365233 0
M  V30 4353 H 421.835 1.22368 -1.52467 0
M  V30 4354 H 420.539 3.06235 -2.73218 0
M  V30 4355 H 420.07 3.7554 -1.17189 0
M  V30 4356 H 422.085 4.91586 -0.67511 0
M  V30 4357 N 421.258 1.00505 1.21394 0
M  V30 4358 C 422.188 0.585684 2.26035 0
M  V30 4359 C 423.169 -0.393525 1.65485 0
M  V30 4360 O 424.354 -0.281497 1.92149 0
M  V30 4361 C 421.484 -0.0884283 3.47187 0
M  V30 4362 C 420.438 0.810567 4.20254 0
M  V30 4363 C 419.764 0.00286382 5.347 0
M  V30 4364 C 421.064 2.1132 4.77641 0
M  V30 4365 H 422.758 1.46039 2.61368 0
M  V30 4366 H 420.304 0.703648 1.25638 0
M  V30 4367 H 422.257 -0.393286 4.19561 0
M  V30 4368 H 420.981 -0.997766 3.10986 0
M  V30 4369 H 419.64 1.09925 3.49731 0
M  V30 4370 H 419.288 -0.907765 4.94741 0
M  V30 4371 H 418.988 0.601444 5.84514 0
M  V30 4372 H 420.512 -0.295808 6.09883 0
M  V30 4373 H 421.926 1.87148 5.41893 0
M  V30 4374 H 420.323 2.66164 5.37845 0
M  V30 4375 H 421.393 2.78393 3.9702 0
M  V30 4376 N 422.737 -1.36956 0.779787 0
M  V30 4377 C 423.983 -1.99787 0.348281 0
M  V30 4378 C 424.316 -1.61756 -1.07465 0
M  V30 4379 O 423.591 -0.867639 -1.74075 0
M  V30 4380 C 423.874 -3.56597 0.50104 0
M  V30 4381 C 423.727 -4.04513 1.96697 0
M  V30 4382 C 425.046 -4.40008 -0.0898097 0
M  V30 4383 H 422.165 -0.725796 0.128022 0
M  V30 4384 H 424.807 -1.62514 0.984331 0
M  V30 4385 H 422.957 -3.88479 -0.0404347 0
M  V30 4386 H 424.629 -3.83161 2.56876 0
M  V30 4387 H 422.872 -3.56408 2.47297 0
M  V30 4388 H 423.543 -5.1352 2.02486 0
M  V30 4389 H 426.019 -4.14431 0.372293 0
M  V30 4390 H 424.895 -5.4888 0.0471605 0
M  V30 4391 H 425.156 -4.26035 -1.18096 0
M  V30 4392 N 424.215 -0.530993 -1.48385 0
M  V30 4393 C 425.445 -0.00133928 -2.066 0
M  V30 4394 C 425.853 1.28599 -1.38777 0
M  V30 4395 O 425.196 1.77599 -0.469495 0
M  V30 4396 C 425.258 0.292137 -3.58311 0
M  V30 4397 C 424.922 -0.901864 -4.48013 0
M  V30 4398 C 425.919 -1.80053 -4.87726 0
M  V30 4399 C 423.604 -1.10915 -4.89901 0
M  V30 4400 C 425.598 -2.89038 -5.68098 0
M  V30 4401 C 423.285 -2.20213 -5.70043 0
M  V30 4402 C 424.283 -3.09107 -6.0905 0
M  V30 4403 O 423.971 -4.16514 -6.87583 0
M  V30 4404 H 423.703 -0.0308475 -0.675296 0
M  V30 4405 H 426.257 -0.736335 -1.91748 0
M  V30 4406 H 424.487 1.08112 -3.7128 0
M  V30 4407 H 426.176 0.763994 -3.98645 0
M  V30 4408 H 426.942 -1.65234 -4.55986 0
M  V30 4409 H 422.821 -0.426498 -4.59023 0
M  V30 4410 H 426.365 -3.58451 -5.98464 0
M  V30 4411 H 422.262 -2.35016 -6.01197 0
M  V30 4412 H 423.03 -4.14237 -7.05939 0
M  V30 4413 N 425.693 1.55336 -0.266172 0
M  V30 4414 C 426.941 1.99003 0.35246 0
M  V30 4415 C 427.262 1.15591 1.57047 0
M  V30 4416 O 426.532 0.243268 1.94384 0
M  V30 4417 H 425.112 0.735025 0.133217 0
M  V30 4418 H 427.774 1.91367 -0.369434 0
M  V30 4419 H 426.87 3.05289 0.648453 0
M  V30 4420 N 427.171 -0.0066808 1.57599 0
M  V30 4421 C 428.418 -0.69292 1.90276 0
M  V30 4422 C 428.746 -1.74148 0.866192 0
M  V30 4423 O 428.001 -1.95268 -0.129933 0
M  V30 4424 C 428.3 -1.37939 3.29708 0
M  V30 4425 C 427.966 -0.464679 4.48499 0
M  V30 4426 C 426.628 -0.212809 4.80729 0
M  V30 4427 C 428.98 0.16551 5.20937 0
M  V30 4428 C 426.308 0.677653 5.82773 0
M  V30 4429 C 428.66 1.04381 6.23929 0
M  V30 4430 C 427.324 1.30492 6.54621 0
M  V30 4431 H 426.594 -0.253558 0.696268 0
M  V30 4432 H 429.241 0.0474123 1.91441 0
M  V30 4433 H 427.546 -2.1936 3.24636 0
M  V30 4434 H 429.243 -1.9163 3.52249 0
M  V30 4435 H 425.833 -0.671153 4.23313 0
M  V30 4436 H 430.017 -0.0160756 4.96297 0
M  V30 4437 H 425.273 0.88803 6.04917 0
M  V30 4438 H 429.447 1.53851 6.79193 0
M  V30 4439 H 427.074 1.99662 7.33512 0
M  V30 4440 N 428.649 -1.55105 -0.279332 0
M  V30 4441 C 429.579 -1.90557 -1.34945 0
M  V30 4442 C 430.56 -0.766738 -1.51839 0
M  V30 4443 O 431.745 -1.02434 -1.64988 0
M  V30 4444 C 428.875 -2.17193 -2.71006 0
M  V30 4445 C 427.829 -3.33021 -2.68851 0
M  V30 4446 C 427.155 -3.45123 -4.08405 0
M  V30 4447 C 428.455 -4.69578 -2.28678 0
M  V30 4448 H 430.149 -2.80188 -1.05522 0
M  V30 4449 H 427.695 -1.34811 -0.506173 0
M  V30 4450 H 429.648 -2.40581 -3.45975 0
M  V30 4451 H 428.372 -1.24355 -3.01999 0
M  V30 4452 H 427.031 -3.0959 -1.9634 0
M  V30 4453 H 426.679 -2.49762 -4.3661 0
M  V30 4454 H 426.379 -4.22995 -4.07859 0
M  V30 4455 H 427.903 -3.70796 -4.85121 0
M  V30 4456 H 429.317 -4.92553 -2.93368 0
M  V30 4457 H 427.714 -5.5032 -2.39306 0
M  V30 4458 H 428.784 -4.68828 -1.23807 0
M  V30 4459 N 430.127 0.543554 -1.4793 0
M  V30 4460 C 431.538 1.12561 -1.48953 0
M  V30 4461 C 431.889 1.94578 -0.251754 0
M  V30 4462 O 431.014 2.0665 0.642255 0
M  V30 4463 C 431.609 2.04801 -2.69892 0
M  V30 4464 C 430.168 2.58251 -2.73831 0
M  V30 4465 C 429.315 1.34918 -2.42265 0
M  V30 4466 H 432.266 0.32947 -1.55242 0
M  V30 4467 H 432.287 2.88886 -2.47639 0
M  V30 4468 H 431.799 1.4508 -3.59963 0
M  V30 4469 H 429.9 3.21732 -1.87934 0
M  V30 4470 H 430.013 2.98312 -3.74895 0
M  V30 4471 H 428.377 1.66046 -1.93134 0
M  V30 4472 H 429.16 0.769693 -3.3456 0
M  V30 4473 N 431.605 1.3629 0.791371 0
M  V30 4474 C 432.553 1.30514 1.92533 0
M  V30 4475 C 433.547 0.197285 1.68247 0
M  V30 4476 O 434.753 0.364176 1.76278 0
M  V30 4477 H 431.128 0.406263 0.632815 0
M  V30 4478 H 433.099 2.26282 1.94523 0
M  V30 4479 C 431.848 1.10933 3.29529 0
M  V30 4480 H 431.171 1.95427 3.48781 0
M  V30 4481 H 432.611 1.10937 4.0923 0
M  V30 4482 C 431.07 -0.186123 3.36385 0
M  V30 4483 O 431.6 -1.17664 3.84081 0
M  V30 4484 N 429.806 -0.230128 2.89687 0
M  V30 4485 H 429.353 0.576545 2.51065 0
M  V30 4486 H 429.311 -1.09658 2.94657 0
M  V30 4487 N 433.083 -1.0153 1.20538 0
M  V30 4488 C 434.331 -1.74803 1.01432 0
M  V30 4489 C 434.652 -1.8963 -0.454456 0
M  V30 4490 O 433.922 -1.43975 -1.32846 0
M  V30 4491 H 432.502 -0.647598 0.372324 0
M  V30 4492 H 435.164 -1.22402 1.5167 0
M  V30 4493 H 434.26 -2.75114 1.47373 0
M  V30 4494 N 434.561 -1.01147 -1.20859 0
M  V30 4495 C 435.786 -0.716698 -1.94623 0
M  V30 4496 C 436.211 0.715415 -1.73964 0
M  V30 4497 O 435.569 1.49157 -1.03062 0
M  V30 4498 C 435.617 -1.0513 -3.44935 0
M  V30 4499 O 434.721 -0.160131 -4.12089 0
M  V30 4500 H 434.062 -0.266404 -0.608214 0
M  V30 4501 H 436.592 -1.35346 -1.53436 0
M  V30 4502 H 436.602 -1.00086 -3.95533 0
M  V30 4503 H 435.277 -2.09475 -3.59295 0
M  V30 4504 H 433.854 -0.267657 -3.71938 0
M  V30 4505 N 436.039 1.36541 -0.78704 0
M  V30 4506 C 436.969 2.32659 -0.197992 0
M  V30 4507 C 437.95 1.56533 0.665697 0
M  V30 4508 O 439.135 1.84698 0.60001 0
M  V30 4509 C 436.265 3.40778 0.669901 0
M  V30 4510 C 435.219 4.27897 -0.0937039 0
M  V30 4511 C 434.545 5.27163 0.894629 0
M  V30 4512 C 435.845 5.06334 -1.28154 0
M  V30 4513 H 437.539 2.82171 -1.00099 0
M  V30 4514 H 435.085 1.35665 -0.482793 0
M  V30 4515 H 437.038 4.07008 1.09191 0
M  V30 4516 H 435.762 2.89827 1.50558 0
M  V30 4517 H 434.421 3.6322 -0.49666 0
M  V30 4518 H 434.069 4.72486 1.72527 0
M  V30 4519 H 433.769 5.86317 0.388149 0
M  V30 4520 H 435.293 5.96266 1.31525 0
M  V30 4521 H 436.707 5.65617 -0.93541 0
M  V30 4522 H 435.104 5.74888 -1.72115 0
M  V30 4523 H 436.174 4.38114 -2.07807 0
M  V30 4524 N 437.518 0.538854 1.48102 0
M  V30 4525 C 438.428 -0.222648 2.33541 0
M  V30 4526 C 439.444 -0.930225 1.47047 0
M  V30 4527 O 440.62 -0.903211 1.80011 0
M  V30 4528 C 437.685 -1.25064 3.23357 0
M  V30 4529 C 436.746 -0.552469 4.2573 0
M  V30 4530 C 435.979 -1.53149 5.11254 0
M  V30 4531 O 436.202 -2.76487 4.9891 0
M  V30 4532 O 435.136 -1.06602 5.92385 0
M  V30 4533 H 438.962 0.477707 2.99919 0
M  V30 4534 H 436.547 0.299669 1.46364 0
M  V30 4535 H 438.429 -1.8445 3.78888 0
M  V30 4536 H 437.104 -1.93325 2.59629 0
M  V30 4537 H 436.011 0.082114 3.7401 0
M  V30 4538 H 437.344 0.0883526 4.92121 0
M  V30 4539 N 438.996 -1.55193 0.274407 0
M  V30 4540 C 440.273 -1.91584 -0.394331 0
M  V30 4541 C 440.653 -1.19858 -1.73774 0
M  V30 4542 O 440.001 -0.3252 -2.26174 0
M  V30 4543 C 440.211 -3.4487 -0.535311 0
M  V30 4544 C 441.559 -4.16636 -0.818534 0
M  V30 4545 O 442.583 -3.5076 -0.620146 0
M  V30 4546 O 441.442 -5.33209 -1.19792 0
M  V30 4547 H 438.536 -0.798349 -0.215794 0
M  V30 4548 H 441.082 -1.66646 0.320507 0
M  V30 4549 H 439.854 -3.89145 0.410141 0
M  V30 4550 H 439.477 -3.75759 -1.29964 0
M  V30 4551 N 440.474 -0.00167713 -1.576 0
M  V30 4552 C 441.89 0.354422 -1.55615 0
M  V30 4553 C 442.09 1.74679 -1.00447 0
M  V30 4554 O 441.146 2.4428 -0.639022 0
M  V30 4555 C 442.459 0.22812 -2.99833 0
M  V30 4556 C 444.007 0.302934 -3.11531 0
M  V30 4557 C 444.482 0.205737 -4.57538 0
M  V30 4558 N 445.973 0.263584 -4.62449 0
M  V30 4559 C 446.708 0.211742 -5.73009 0
M  V30 4560 N 446.204 0.110399 -6.92712 0
M  V30 4561 N 447.997 0.263729 -5.61481 0
M  V30 4562 H 440.148 -0.912498 -1.918 0
M  V30 4563 H 442.411 -0.349928 -0.881053 0
M  V30 4564 H 442.117 -0.729934 -3.44042 0
M  V30 4565 H 441.991 1.00951 -3.6344 0
M  V30 4566 H 444.378 1.25143 -2.67251 0
M  V30 4567 H 444.459 -0.508357 -2.50698 0
M  V30 4568 H 444.103 -0.739225 -5.02492 0
M  V30 4569 H 444.033 1.03554 -5.16318 0
M  V30 4570 H 446.524 0.343173 -3.76339 0
M  V30 4571 H 446.837 0.0767828 -7.72762 0
M  V30 4572 H 445.182 0.0760025 -6.94958 0
M  V30 4573 H 448.373 0.34111 -4.66855 0
M  V30 4574 H 448.546 0.219862 -6.47627 0
M  V30 4575 N 441.952 1.55251 0.271103 0
M  V30 4576 C 442.882 1.9127 1.33933 0
M  V30 4577 C 443.863 0.77478 1.5143 0
M  V30 4578 O 445.048 1.03307 1.64442 0
M  V30 4579 C 442.178 2.18627 2.69851 0
M  V30 4580 C 441.132 3.34442 2.67081 0
M  V30 4581 C 440.458 3.47284 4.06569 0
M  V30 4582 C 441.758 4.70784 2.26185 0
M  V30 4583 H 443.452 2.80744 1.04035 0
M  V30 4584 H 440.998 1.35077 0.499017 0
M  V30 4585 H 442.951 2.42413 3.44694 0
M  V30 4586 H 441.675 1.25955 3.01335 0
M  V30 4587 H 440.334 3.10627 1.94695 0
M  V30 4588 H 439.982 2.52074 4.35279 0
M  V30 4589 H 439.682 4.25152 4.0561 0
M  V30 4590 H 441.206 3.73363 4.83148 0
M  V30 4591 H 442.62 4.94102 2.90751 0
M  V30 4592 H 441.017 5.51582 2.36384 0
M  V30 4593 H 442.087 4.69478 1.21319 0
M  V30 4594 N 443.43 -0.535701 1.48216 0
M  V30 4595 C 444.38 -1.63688 1.58714 0
M  V30 4596 C 445.364 -1.54635 0.444615 0
M  V30 4597 O 446.556 -1.62753 0.695742 0
M  V30 4598 C 443.685 -3.02423 1.62466 0
M  V30 4599 C 442.771 -3.16601 2.82178 0
M  V30 4600 N 443.162 -3.00771 4.06658 0
M  V30 4601 C 441.46 -3.47645 2.79391 0
M  V30 4602 C 442.161 -3.18213 4.86945 0
M  V30 4603 N 441.137 -3.45528 4.19656 0
M  V30 4604 H 444.939 -1.5005 2.5271 0
M  V30 4605 H 442.453 -0.741018 1.44508 0
M  V30 4606 H 444.45 -3.81517 1.6808 0
M  V30 4607 H 443.11 -3.17157 0.695826 0
M  V30 4608 H 444.121 -2.77652 4.37184 0
M  V30 4609 H 440.798 -3.68771 1.95739 0
M  V30 4610 H 442.188 -3.1076 5.95716 0
M  V30 4611 N 444.908 -1.36708 -0.784132 0
M  V30 4612 C 446.148 -1.32618 -1.55537 0
M  V30 4613 C 446.512 0.0920681 -1.91779 0
M  V30 4614 O 447.713 0.257573 -2.67563 0
M  V30 4615 C 445.984 -2.22788 -2.79464 0
M  V30 4616 S 447.543 -2.36432 -3.69656 0
M  V30 4617 H 444.361 -0.470973 -0.53264 0
M  V30 4618 H 446.963 -1.72333 -0.92312 0
M  V30 4619 H 445.667 -3.24774 -2.50899 0
M  V30 4620 H 445.198 -1.84112 -3.47658 0
M  V30 4621 H 447.213 -1.56573 -4.7085 0
M  V30 4622 N 446.386 1.0089 -1.21074 0
M  V30 4623 C 447.318 2.09737 -0.924291 0
M  V30 4624 C 448.331 1.62546 0.0909809 0
M  V30 4625 O 449.52 1.77942 -0.141021 0
M  V30 4626 C 446.62 3.36922 -0.36559 0
M  V30 4627 C 445.793 4.13216 -1.43426 0
M  V30 4628 C 444.852 5.18696 -0.885496 0
M  V30 4629 O 443.878 5.47176 -1.56801 0
M  V30 4630 N 445.08 5.79718 0.301227 0
M  V30 4631 H 447.845 2.34895 -1.8613 0
M  V30 4632 H 445.406 1.17341 -1.11546 0
M  V30 4633 H 447.398 4.04697 0.0158407 0
M  V30 4634 H 445.968 3.08952 0.476149 0
M  V30 4635 H 445.188 3.40301 -1.9897 0
M  V30 4636 H 446.476 4.60967 -2.15376 0
M  V30 4637 H 445.874 5.58926 0.872849 0
M  V30 4638 H 444.431 6.48804 0.624211 0
M  V30 4639 N 447.864 1.01787 1.20321 0
M  V30 4640 C 449.092 0.727194 1.937 0
M  V30 4641 C 449.507 -0.712305 1.74848 0
M  V30 4642 O 448.864 -1.48327 1.06327 0
M  V30 4643 C 448.915 1.05497 3.45764 0
M  V30 4644 O 448.636 2.43794 3.64 0
M  V30 4645 C 450.137 0.785534 4.36285 0
M  V30 4646 H 447.357 0.266939 0.615617 0
M  V30 4647 H 449.901 1.35939 1.52777 0
M  V30 4648 H 448.056 0.468158 3.84561 0
M  V30 4649 H 448.47 2.55656 4.57974 0
M  V30 4650 H 449.944 1.06495 5.4163 0
M  V30 4651 H 450.421 -0.280273 4.38305 0
M  V30 4652 H 451.027 1.35456 4.03152 0
M  V30 4653 N 449.342 -1.36122 0.79427 0
M  V30 4654 C 450.274 -2.28683 0.153903 0
M  V30 4655 C 451.287 -1.49707 -0.639669 0
M  V30 4656 O 452.476 -1.7209 -0.474054 0
M  V30 4657 C 449.576 -3.29202 -0.804921 0
M  V30 4658 C 448.749 -4.37358 -0.060366 0
M  V30 4659 C 447.808 -5.17811 -0.935849 0
M  V30 4660 O 446.834 -5.67853 -0.391309 0
M  V30 4661 N 448.036 -5.34721 -2.25951 0
M  V30 4662 H 450.801 -2.84278 0.949008 0
M  V30 4663 H 448.362 -1.4834 0.648611 0
M  V30 4664 H 450.354 -3.79914 -1.39455 0
M  V30 4665 H 448.924 -2.74212 -1.50088 0
M  V30 4666 H 448.144 -3.87746 0.710382 0
M  V30 4667 H 449.432 -5.06777 0.45324 0
M  V30 4668 H 448.83 -4.95687 -2.72601 0
M  V30 4669 H 447.387 -5.88657 -2.79867 0
M  V30 4670 N 450.82 -0.546701 -1.47814 0
M  V30 4671 C 451.783 0.196287 -2.28358 0
M  V30 4672 C 452.783 0.852437 -1.36346 0
M  V30 4673 O 453.973 0.709913 -1.59078 0
M  V30 4674 C 451.105 1.28579 -3.15722 0
M  V30 4675 H 452.298 -0.511086 -2.95513 0
M  V30 4676 H 449.851 -0.303248 -1.5333 0
M  V30 4677 H 450.586 2.0259 -2.53235 0
M  V30 4678 H 450.371 0.820229 -3.83425 0
M  V30 4679 H 451.861 1.80793 -3.76435 0
M  V30 4680 N 452.299 1.55045 -0.282633 0
M  V30 4681 C 453.539 2.01668 0.333088 0
M  V30 4682 C 453.903 1.1667 1.52486 0
M  V30 4683 O 455.104 1.52907 2.21072 0
M  V30 4684 C 453.375 3.50509 0.698442 0
M  V30 4685 S 454.934 4.19112 1.29963 0
M  V30 4686 H 451.752 0.703468 0.103219 0
M  V30 4687 H 454.354 1.91233 -0.406222 0
M  V30 4688 H 453.058 4.10015 -0.177693 0
M  V30 4689 H 452.589 3.64943 1.46902 0
M  V30 4690 H 454.604 4.23362 2.58803 0
M  V30 4691 N 453.777 0.010035 1.57597 0
M  V30 4692 C 455.188 -0.531426 1.78977 0
M  V30 4693 C 455.539 -1.73375 0.918454 0
M  V30 4694 O 454.664 -2.16047 0.123635 0
M  V30 4695 C 455.259 -0.97086 3.24592 0
M  V30 4696 C 453.818 -1.45756 3.47033 0
M  V30 4697 C 452.965 -0.413384 2.74201 0
M  V30 4698 H 455.916 0.236166 1.56933 0
M  V30 4699 H 455.937 -1.83633 3.33255 0
M  V30 4700 H 455.449 -0.0955893 3.87982 0
M  V30 4701 H 453.55 -2.35339 2.88871 0
M  V30 4702 H 453.663 -1.4781 4.55729 0
M  V30 4703 H 452.027 -0.877266 2.39115 0
M  V30 4704 H 452.81 0.453092 3.40297 0
M  V30 4705 N 455.255 -1.55392 -0.262866 0
M  V30 4706 C 456.666 -1.67079 -0.833158 0
M  V30 4707 C 457.017 -0.604539 -1.86654 0
M  V30 4708 O 456.142 0.252138 -2.14926 0
M  V30 4709 C 456.737 -3.02891 -1.51797 0
M  V30 4710 C 455.296 -3.16571 -2.03617 0
M  V30 4711 C 454.443 -2.62909 -0.881701 0
M  V30 4712 H 457.394 -1.58652 -0.0389986 0
M  V30 4713 H 457.415 -2.96445 -2.38538 0
M  V30 4714 H 456.927 -3.80473 -0.765619 0
M  V30 4715 H 455.028 -2.43782 -2.81782 0
M  V30 4716 H 455.141 -4.23271 -2.24452 0
M  V30 4717 H 453.505 -2.20324 -1.27786 0
M  V30 4718 H 454.288 -3.43003 -0.14269 0
M  V30 4719 N 456.733 0.527833 -1.48498 0
M  V30 4720 C 457.663 1.64136 -1.66077 0
M  V30 4721 C 458.644 1.62286 -0.509625 0
M  V30 4722 O 459.829 1.79449 -0.742413 0
M  V30 4723 C 456.959 3.02717 -1.70234 0
M  V30 4724 C 455.913 3.19426 -2.8487 0
M  V30 4725 C 455.239 4.5909 -2.74118 0
M  V30 4726 C 456.539 3.01993 -4.26142 0
M  V30 4727 H 458.233 1.4968 -2.593 0
M  V30 4728 H 455.779 0.718654 -1.24785 0
M  V30 4729 H 457.732 3.80491 -1.8112 0
M  V30 4730 H 456.456 3.18201 -0.735911 0
M  V30 4731 H 455.115 2.4407 -2.73542 0
M  V30 4732 H 454.763 4.71413 -1.7544 0
M  V30 4733 H 454.463 4.71214 -3.51042 0
M  V30 4734 H 455.987 5.3896 -2.86974 0
M  V30 4735 H 457.401 3.69558 -4.38292 0
M  V30 4736 H 455.798 3.2561 -5.04082 0
M  V30 4737 H 456.868 1.98396 -4.42456 0
M  V30 4738 N 458.211 1.37122 0.776871 0
M  V30 4739 C 459.436 1.354 1.57104 0
M  V30 4740 C 459.861 -0.0595562 1.88006 0
M  V30 4741 O 459.219 -1.03514 1.48844 0
M  V30 4742 C 459.267 2.19472 2.8612 0
M  V30 4743 O 458.371 1.59582 3.80273 0
M  V30 4744 H 457.712 0.462869 0.476076 0
M  V30 4745 H 460.242 1.80577 0.961932 0
M  V30 4746 H 460.252 2.32502 3.35271 0
M  V30 4747 H 458.927 3.22222 2.62956 0
M  V30 4748 H 457.504 1.55564 3.38902 0
M  V30 4749 N 459.689 -1.00246 1.21608 0
M  V30 4750 C 460.935 -1.74417 1.04643 0
M  V30 4751 C 461.29 -1.87862 -0.415387 0
M  V30 4752 O 460.583 -1.40373 -1.30407 0
M  V30 4753 C 460.777 -3.15448 1.68009 0
M  V30 4754 C 460.606 -3.15755 3.20201 0
M  V30 4755 C 459.376 -3.2219 3.89258 0
M  V30 4756 C 461.574 -3.00668 4.17257 0
M  V30 4757 N 459.556 -3.1215 5.28617 0
M  V30 4758 C 460.927 -2.98553 5.43384 0
M  V30 4759 C 462.982 -2.84989 4.08272 0
M  V30 4760 C 461.685 -2.82364 6.61561 0
M  V30 4761 C 463.711 -2.70158 5.26088 0
M  V30 4762 C 463.073 -2.68721 6.51128 0
M  V30 4763 H 459.172 -0.648317 0.437274 0
M  V30 4764 H 461.756 -1.19129 1.54001 0
M  V30 4765 H 459.927 -3.69001 1.21215 0
M  V30 4766 H 461.659 -3.78128 1.44226 0
M  V30 4767 H 458.414 -3.29488 3.40198 0
M  V30 4768 H 458.838 -3.10465 6.01615 0
M  V30 4769 H 463.48 -2.84904 3.12393 0
M  V30 4770 H 461.198 -2.81196 7.57598 0
M  V30 4771 H 464.784 -2.59022 5.20959 0
M  V30 4772 H 463.664 -2.57382 7.40759 0
M  V30 4773 N 461.167 -1.02423 -1.1978 0
M  V30 4774 C 462.578 -0.748389 -1.71044 0
M  V30 4775 C 462.929 0.732398 -1.82017 0
M  V30 4776 O 462.054 1.57116 -1.48807 0
M  V30 4777 C 462.649 -1.35187 -3.1066 0
M  V30 4778 C 461.208 -1.12472 -3.59203 0
M  V30 4779 C 460.355 -1.45283 -2.36195 0
M  V30 4780 H 463.306 -1.19275 -1.04686 0
M  V30 4781 H 463.327 -0.746408 -3.73107 0
M  V30 4782 H 462.839 -2.4296 -3.02642 0
M  V30 4783 H 460.94 -0.0649983 -3.72543 0
M  V30 4784 H 461.053 -1.81016 -4.43588 0
M  V30 4785 H 459.417 -0.872034 -2.39307 0
M  V30 4786 H 460.2 -2.54129 -2.30811 0
M  V30 4787 N 462.645 1.35699 -0.801477 0
M  V30 4788 C 463.577 2.28598 -0.166028 0
M  V30 4789 C 464.59 1.50044 0.631721 0
M  V30 4790 O 465.779 1.72339 0.464921 0
M  V30 4791 C 462.879 3.29625 0.787451 0
M  V30 4792 C 462.052 4.37384 0.037171 0
M  V30 4793 C 461.111 5.183 0.908375 0
M  V30 4794 O 460.137 5.68053 0.361189 0
M  V30 4795 N 461.339 5.35912 2.23112 0
M  V30 4796 H 464.104 2.83771 -0.964071 0
M  V30 4797 H 461.665 1.47994 -0.656469 0
M  V30 4798 H 463.657 3.80648 1.37439 0
M  V30 4799 H 462.227 2.75004 1.48632 0
M  V30 4800 H 461.447 3.87364 -0.730935 0
M  V30 4801 H 462.735 5.0653 -0.480109 0
M  V30 4802 H 462.133 4.97125 2.69968 0
M  V30 4803 H 460.69 5.90133 2.76741 0
M  V30 4804 N 464.123 0.554532 1.47522 0
M  V30 4805 C 465.539 0.214107 1.58157 0
M  V30 4806 C 465.739 -1.28331 1.55349 0
M  V30 4807 O 464.795 -2.06329 1.45549 0
M  V30 4808 C 466.108 0.838391 2.88776 0
M  V30 4809 C 467.656 0.809374 3.02354 0
M  V30 4810 C 468.131 1.41268 4.35669 0
M  V30 4811 N 469.622 1.37574 4.42298 0
M  V30 4812 C 470.357 1.8122 5.4401 0
M  V30 4813 N 469.853 2.3271 6.52547 0
M  V30 4814 N 471.646 1.72307 5.35039 0
M  V30 4815 H 463.797 1.52744 1.4759 0
M  V30 4816 H 466.06 0.636812 0.702264 0
M  V30 4817 H 465.766 1.89065 2.96559 0
M  V30 4818 H 465.64 0.329847 3.75755 0
M  V30 4819 H 468.027 -0.234187 2.94169 0
M  V30 4820 H 468.108 1.35565 2.16924 0
M  V30 4821 H 467.752 2.45529 4.4461 0
M  V30 4822 H 467.682 0.841871 5.19827 0
M  V30 4823 H 470.173 0.999081 3.64454 0
M  V30 4824 H 470.486 2.63944 7.26329 0
M  V30 4825 H 468.831 2.36719 6.53444 0
M  V30 4826 H 472.022 1.3186 4.49144 0
M  V30 4827 H 472.195 2.06641 6.14169 0
M  V30 4828 N 465.601 -1.54893 0.290851 0
M  V30 4829 C 466.531 -2.26103 -0.583084 0
M  V30 4830 C 467.512 -1.25684 -1.14619 0
M  V30 4831 O 468.697 -1.54436 -1.17741 0
M  V30 4832 C 465.827 -2.99409 -1.75987 0
M  V30 4833 C 464.781 -4.0689 -1.32758 0
M  V30 4834 C 464.107 -4.67856 -2.58872 0
M  V30 4835 C 465.407 -5.20215 -0.46624 0
M  V30 4836 H 467.101 -2.99398 0.0108214 0
M  V30 4837 H 464.647 -1.43998 0.00664468 0
M  V30 4838 H 466.6 -3.47943 -2.37727 0
M  V30 4839 H 465.324 -2.23675 -2.37985 0
M  V30 4840 H 463.983 -3.59191 -0.733299 0
M  V30 4841 H 463.631 -3.88772 -3.19163 0
M  V30 4842 H 463.331 -5.40438 -2.30653 0
M  V30 4843 H 464.855 -5.19147 -3.21433 0
M  V30 4844 H 466.269 -5.64704 -0.989047 0
M  V30 4845 H 464.666 -5.99455 -0.27826 0
M  V30 4846 H 465.736 -4.82198 0.511173 0
M  V30 4847 N 467.08 -0.0183926 -1.57589 0
M  V30 4848 C 468.357 0.700621 -1.82622 0
M  V30 4849 C 468.737 1.90951 -0.90005 0
M  V30 4850 O 468.085 2.28452 0.0469145 0
M  V30 4851 C 468.295 1.08899 -3.31575 0
M  V30 4852 C 469.643 1.48514 -3.9778 0
M  V30 4853 O 470.667 1.18227 -3.36007 0
M  V30 4854 O 469.526 2.04903 -5.06633 0
M  V30 4855 H 466.62 0.342743 -0.752633 0
M  V30 4856 H 469.166 -0.0452548 -1.6964 0
M  V30 4857 H 467.938 0.228113 -3.90635 0
M  V30 4858 H 467.561 1.89338 -3.49624 0
M  V30 4859 N 468.558 1.5553 0.254621 0
M  V30 4860 C 469.807 1.76202 0.981612 0
M  V30 4861 C 470.12 0.580883 1.86776 0
M  V30 4862 O 471.326 0.670448 2.63092 0
M  V30 4863 C 469.782 3.11921 1.79537 0
M  V30 4864 C 469.39 4.37659 0.956991 0
M  V30 4865 C 471.134 3.41936 2.51555 0
M  V30 4866 C 469.041 5.64411 1.76619 0
M  V30 4867 H 467.971 0.656841 0.370237 0
M  V30 4868 H 470.622 1.81969 0.236556 0
M  V30 4869 H 469.004 3.00241 2.58208 0
M  V30 4870 H 470.178 4.60307 0.21315 0
M  V30 4871 H 468.493 4.14922 0.350497 0
M  V30 4872 H 471.09 4.33849 3.12536 0
M  V30 4873 H 471.433 2.62905 3.22779 0
M  V30 4874 H 471.966 3.54797 1.799 0
M  V30 4875 H 468.705 6.46241 1.09783 0
M  V30 4876 H 468.225 5.45877 2.48551 0
M  V30 4877 H 469.904 6.03386 2.33527 0
M  V30 4878 N 470.036 -0.519951 1.48776 0
M  V30 4879 C 470.966 -1.63253 1.66945 0
M  V30 4880 C 471.947 -1.62014 0.518224 0
M  V30 4881 O 473.132 -1.79053 0.751919 0
M  V30 4882 C 470.262 -3.0181 1.71836 0
M  V30 4883 C 469.216 -3.17911 2.8656 0
M  V30 4884 C 468.542 -4.5763 2.76548 0
M  V30 4885 C 469.842 -2.99729 4.27738 0
M  V30 4886 H 471.536 -1.48302 2.6009 0
M  V30 4887 H 469.082 -0.712026 1.25165 0
M  V30 4888 H 471.035 -3.79525 1.83135 0
M  V30 4889 H 469.759 -3.17806 0.752775 0
M  V30 4890 H 468.418 -2.42616 2.74833 0
M  V30 4891 H 468.066 -4.70476 1.77937 0
M  V30 4892 H 467.766 -4.69346 3.53536 0
M  V30 4893 H 469.29 -5.37431 2.89828 0
M  V30 4894 H 470.704 -3.67228 4.40246 0
M  V30 4895 H 469.101 -3.22932 5.05801 0
M  V30 4896 H 470.171 -1.96047 4.43502 0
M  V30 4897 N 471.514 -1.37532 -0.769588 0
M  V30 4898 C 472.444 -1.36172 -1.89682 0
M  V30 4899 C 473.425 -0.23001 -1.68538 0
M  V30 4900 O 474.61 -0.43069 -1.89364 0
M  V30 4901 C 471.74 -1.1701 -3.26995 0
M  V30 4902 C 470.694 -2.27216 -3.62708 0
M  V30 4903 C 470.02 -1.93174 -4.98586 0
M  V30 4904 C 471.32 -3.6941 -3.69234 0
M  V30 4905 H 473.014 -2.30499 -1.91078 0
M  V30 4906 H 470.56 -1.10953 -0.917902 0
M  V30 4907 H 472.513 -1.14688 -4.05493 0
M  V30 4908 H 471.237 -0.191395 -3.26039 0
M  V30 4909 H 469.896 -2.28697 -2.86519 0
M  V30 4910 H 469.544 -0.938281 -4.94171 0
M  V30 4911 H 469.244 -2.66973 -5.23449 0
M  V30 4912 H 470.768 -1.92443 -5.79481 0
M  V30 4913 H 472.182 -3.70047 -4.37879 0
M  V30 4914 H 470.579 -4.4228 -4.05597 0
M  V30 4915 H 471.649 -4.0288 -2.69844 0
M  V30 4916 N 472.992 0.995999 -1.22138 0
M  V30 4917 C 474.24 1.73167 -1.042 0
M  V30 4918 C 474.561 1.90329 0.42423 0
M  V30 4919 O 473.831 1.4607 1.30539 0
M  V30 4920 H 472.411 0.641593 -0.38258 0
M  V30 4921 H 475.073 1.19974 -1.53598 0
M  V30 4922 H 474.169 2.72734 -1.51731 0
M  V30 4923 N 474.47 1.03057 1.19235 0
M  V30 4924 C 475.698 0.747697 1.92917 0
M  V30 4925 C 476.113 -0.69372 1.75593 0
M  V30 4926 O 475.47 -1.47191 1.07894 0
M  V30 4927 C 475.521 1.09159 3.44625 0
M  V30 4928 O 475.242 2.47641 3.61394 0
M  V30 4929 C 476.743 0.831763 4.35427 0
M  V30 4930 H 473.963 0.273453 0.612751 0
M  V30 4931 H 476.507 1.37552 1.51327 0
M  V30 4932 H 474.662 0.508919 3.84043 0
M  V30 4933 H 475.076 2.60499 4.55237 0
M  V30 4934 H 476.55 1.12233 5.4047 0
M  V30 4935 H 477.027 -0.233769 4.38577 0
M  V30 4936 H 477.633 1.39725 4.01693 0
M  V30 4937 N 475.948 -1.35272 0.808662 0
M  V30 4938 C 476.911 -2.28082 0.226093 0
M  V30 4939 C 477.911 -1.49673 -0.587762 0
M  V30 4940 O 479.101 -1.69404 -0.405943 0
M  V30 4941 C 476.233 -3.33955 -0.684596 0
M  V30 4942 H 477.426 -2.81116 1.04469 0
M  V30 4943 H 474.979 -1.45162 0.579466 0
M  V30 4944 H 475.714 -2.86111 -1.5268 0
M  V30 4945 H 475.499 -3.91965 -0.102699 0
M  V30 4946 H 476.989 -4.03219 -1.08646 0
M  V30 4947 N 477.426 -0.562348 -1.47226 0
M  V30 4948 C 478.842 -0.222492 -1.58042 0
M  V30 4949 C 479.042 1.27505 -1.56028 0
M  V30 4950 O 478.098 2.05555 -1.46641 0
M  V30 4951 C 479.411 -0.853694 -2.88327 0
M  V30 4952 C 480.959 -0.825397 -3.01921 0
M  V30 4953 C 481.434 -1.43576 -4.34914 0
M  V30 4954 N 482.925 -1.39918 -4.41562 0
M  V30 4955 C 483.66 -1.84103 -5.43041 0
M  V30 4956 N 483.156 -2.36167 -6.51304 0
M  V30 4957 N 484.949 -1.75142 -5.34118 0
M  V30 4958 H 477.1 -1.53525 -1.46778 0
M  V30 4959 H 479.363 -0.640527 -0.698877 0
M  V30 4960 H 479.069 -1.90635 -2.95552 0
M  V30 4961 H 478.943 -0.34977 -3.75575 0
M  V30 4962 H 481.33 0.218583 -2.94289 0
M  V30 4963 H 481.411 -1.36713 -2.16202 0
M  V30 4964 H 481.055 -2.47884 -4.43301 0
M  V30 4965 H 480.985 -0.869427 -5.19373 0
M  V30 4966 H 483.476 -1.0184 -3.63919 0
M  V30 4967 H 483.789 -2.67793 -7.24919 0
M  V30 4968 H 482.134 -2.40181 -6.52179 0
M  V30 4969 H 485.325 -1.34241 -4.48439 0
M  V30 4970 H 485.498 -2.09895 -6.13065 0
M  V30 4971 N 478.904 1.54736 -0.299062 0
M  V30 4972 C 479.867 2.22127 0.565012 0
M  V30 4973 C 480.867 1.20669 1.06281 0
M  V30 4974 O 482.057 1.45417 0.959145 0
M  V30 4975 C 479.189 2.90611 1.78208 0
M  V30 4976 H 480.382 2.99891 -0.0237448 0
M  V30 4977 H 477.935 1.5622 -0.0498788 0
M  V30 4978 H 478.67 2.16921 2.41072 0
M  V30 4979 H 478.455 3.64984 1.43281 0
M  V30 4980 H 479.945 3.42026 2.396 0
M  V30 4981 N 480.382 0.0267497 1.57577 0
M  V30 4982 C 481.631 -0.651736 1.9088 0
M  V30 4983 C 481.944 -1.73427 0.904576 0
M  V30 4984 O 483.15 -2.46923 1.12877 0
M  V30 4985 C 481.606 -1.21048 3.38933 0
M  V30 4986 C 481.214 -0.161362 4.47709 0
M  V30 4987 C 482.958 -1.86562 3.81307 0
M  V30 4988 C 480.865 -0.731611 5.86857 0
M  V30 4989 H 479.795 -0.247198 0.712326 0
M  V30 4990 H 482.446 0.0916641 1.83271 0
M  V30 4991 H 480.828 -2.00542 3.41466 0
M  V30 4992 H 482.002 0.61094 4.56732 0
M  V30 4993 H 480.317 0.394877 4.14523 0
M  V30 4994 H 482.914 -2.30178 4.8262 0
M  V30 4995 H 483.257 -2.70735 3.16241 0
M  V30 4996 H 483.79 -1.13762 3.81186 0
M  V30 4997 H 480.529 0.0719329 6.55461 0
M  V30 4998 H 480.049 -1.47245 5.81445 0
M  V30 4999 H 481.728 -1.22208 6.35354 0
M  V30 5000 N 481.861 -1.55662 -0.24637 0
M  V30 5001 C 482.793 -1.86811 -1.32794 0
M  V30 5002 C 483.806 -0.754413 -1.44265 0
M  V30 5003 O 484.995 -1.03253 -1.45606 0
M  V30 5004 C 482.095 -2.0397 -2.70646 0
M  V30 5005 C 481.268 -3.34832 -2.81436 0
M  V30 5006 C 480.327 -3.41727 -4.00136 0
M  V30 5007 O 479.353 -4.14934 -3.89639 0
M  V30 5008 N 480.555 -2.71058 -5.1333 0
M  V30 5009 H 483.32 -2.80174 -1.06409 0
M  V30 5010 H 480.881 -1.55906 -0.43647 0
M  V30 5011 H 482.873 -2.05924 -3.48393 0
M  V30 5012 H 481.443 -1.1735 -2.89738 0
M  V30 5013 H 480.663 -3.4519 -1.90361 0
M  V30 5014 H 481.951 -4.21085 -2.85595 0
M  V30 5015 H 481.349 -2.11314 -5.2475 0
M  V30 5016 H 479.906 -2.78704 -5.89209 0
M  V30 5017 N 483.339 0.512053 -1.4905 0
M  V30 5018 C 484.586 1.26686 -1.57978 0
M  V30 5019 C 484.914 1.92733 -0.261553 0
M  V30 5020 O 484.169 1.80772 0.749667 0
M  V30 5021 C 484.468 2.36446 -2.68008 0
M  V30 5022 C 484.134 1.87932 -4.09869 0
M  V30 5023 C 482.796 1.74419 -4.48477 0
M  V30 5024 C 485.148 1.5149 -4.98698 0
M  V30 5025 C 482.476 1.22827 -5.73699 0
M  V30 5026 C 484.828 1.01355 -6.24428 0
M  V30 5027 C 483.492 0.864735 -6.61875 0
M  V30 5028 H 482.762 0.463577 -0.578081 0
M  V30 5029 H 485.409 0.569421 -1.82838 0
M  V30 5030 H 483.714 3.11933 -2.37076 0
M  V30 5031 H 485.411 2.9453 -2.72127 0
M  V30 5032 H 482.001 1.99405 -3.79389 0
M  V30 5033 H 486.185 1.60782 -4.69535 0
M  V30 5034 H 481.441 1.10008 -6.01422 0
M  V30 5035 H 485.615 0.722351 -6.92644 0
M  V30 5036 H 483.242 0.462777 -7.5879 0
M  V30 5037 N 484.817 1.37938 0.762283 0
M  V30 5038 C 485.747 1.37176 1.88958 0
M  V30 5039 C 486.728 0.238945 1.68413 0
M  V30 5040 O 487.913 0.440726 1.89133 0
M  V30 5041 C 485.043 1.18742 3.2637 0
M  V30 5042 C 483.997 2.29136 3.61498 0
M  V30 5043 C 483.323 1.95816 4.97554 0
M  V30 5044 C 484.623 3.71363 3.6727 0
M  V30 5045 H 486.317 2.31509 1.89853 0
M  V30 5046 H 483.863 1.11438 0.912005 0
M  V30 5047 H 485.816 1.16837 4.04879 0
M  V30 5048 H 484.54 0.208683 3.25933 0
M  V30 5049 H 483.199 2.30213 2.85303 0
M  V30 5050 H 482.847 0.964475 4.93667 0
M  V30 5051 H 482.547 2.69745 5.22026 0
M  V30 5052 H 484.071 1.95513 5.78452 0
M  V30 5053 H 485.485 3.72364 4.35911 0
M  V30 5054 H 483.882 4.44425 4.03245 0
M  V30 5055 H 484.952 4.04305 2.67704 0
M  V30 5056 N 486.295 -0.989507 1.22664 0
M  V30 5057 C 487.245 -2.06478 0.967005 0
M  V30 5058 C 488.229 -1.60682 -0.0836374 0
M  V30 5059 O 489.421 -1.76541 0.127322 0
M  V30 5060 C 486.55 -3.38861 0.550313 0
M  V30 5061 C 485.636 -3.9128 1.63587 0
M  V30 5062 N 486.027 -4.16884 2.86429 0
M  V30 5063 C 484.325 -4.1972 1.50834 0
M  V30 5064 C 485.026 -4.5954 3.56648 0
M  V30 5065 N 484.002 -4.63434 2.84131 0
M  V30 5066 H 487.804 -2.24219 1.90008 0
M  V30 5067 H 485.318 -1.17153 1.12467 0
M  V30 5068 H 487.315 -4.15465 0.345612 0
M  V30 5069 H 485.975 -3.22518 -0.375822 0
M  V30 5070 H 486.986 -4.04976 3.22823 0
M  V30 5071 H 483.663 -4.1243 0.648643 0
M  V30 5072 H 485.053 -4.87944 4.61909 0
M  V30 5073 N 487.773 -1.03688 -1.18687 0
M  V30 5074 C 488.705 -0.582696 -2.21669 0
M  V30 5075 C 489.718 0.345656 -1.59088 0
M  V30 5076 O 490.907 0.140776 -1.77944 0
M  V30 5077 C 488.007 0.169204 -3.38477 0
M  V30 5078 C 487.18 -0.766079 -4.30639 0
M  V30 5079 C 486.239 -0.0581541 -5.26168 0
M  V30 5080 O 485.265 -0.687346 -5.65035 0
M  V30 5081 N 486.467 1.20981 -5.67753 0
M  V30 5082 H 489.232 -1.46843 -2.61261 0
M  V30 5083 H 486.793 -0.916896 -1.33434 0
M  V30 5084 H 488.785 0.652543 -3.99405 0
M  V30 5085 H 487.355 0.956435 -2.97609 0
M  V30 5086 H 486.575 -1.42935 -3.67373 0
M  V30 5087 H 487.863 -1.40146 -4.89118 0
M  V30 5088 H 487.261 1.74159 -5.38224 0
M  V30 5089 H 485.818 1.6375 -6.30896 0
M  V30 5090 N 489.251 1.34841 -0.815825 0
M  V30 5091 C 490.528 1.92908 -0.323416 0
M  V30 5092 C 490.908 1.74479 1.18828 0
M  V30 5093 O 490.256 1.11928 1.99209 0
M  V30 5094 C 490.466 3.40957 -0.744952 0
M  V30 5095 C 491.814 4.18107 -0.739716 0
M  V30 5096 O 492.838 3.49511 -0.68708 0
M  V30 5097 O 491.697 5.40517 -0.806456 0
M  V30 5098 H 488.791 0.822436 -0.0867646 0
M  V30 5099 H 491.337 1.4386 -0.90014 0
M  V30 5100 H 490.109 3.4814 -1.78646 0
M  V30 5101 H 489.732 3.97341 -0.143535 0
M  V30 5102 N 490.729 0.570148 1.46925 0
M  V30 5103 C 491.954 0.0542592 2.07329 0
M  V30 5104 C 492.379 -1.23582 1.41806 0
M  V30 5105 O 491.737 -1.74341 0.497479 0
M  V30 5106 C 491.785 -0.111175 3.60429 0
M  V30 5107 O 490.889 -1.17071 3.95434 0
M  V30 5108 H 490.23 0.0571425 0.661537 0
M  V30 5109 H 492.76 0.789516 1.88753 0
M  V30 5110 H 492.77 -0.321315 4.06733 0
M  V30 5111 H 491.445 0.831012 4.07513 0
M  V30 5112 H 490.022 -0.940029 3.60857 0
M  V30 5113 N 492.207 -1.54576 0.307264 0
M  V30 5114 C 493.618 -1.8579 -0.184121 0
M  V30 5115 C 493.969 -1.22914 -1.52927 0
M  V30 5116 O 493.094 -0.529126 -2.09831 0
M  V30 5117 C 493.689 -3.37081 -0.340862 0
M  V30 5118 C 492.248 -3.68304 -0.776465 0
M  V30 5119 C 491.395 -2.77076 0.111503 0
M  V30 5120 H 494.346 -1.49656 0.528078 0
M  V30 5121 H 494.367 -3.61922 -1.17443 0
M  V30 5122 H 493.879 -3.82815 0.638309 0
M  V30 5123 H 491.98 -3.28092 -1.76596 0
M  V30 5124 H 492.093 -4.75434 -0.591512 0
M  V30 5125 H 490.457 -2.51374 -0.410256 0
M  V30 5126 H 491.24 -3.25632 1.08714 0
M  V30 5127 N 493.685 -0.035106 -1.57561 0
M  V30 5128 C 494.91 0.655802 -1.96759 0
M  V30 5129 C 495.335 1.64523 -0.911809 0
M  V30 5130 O 494.693 1.80857 0.126673 0
M  V30 5131 C 494.741 1.33326 -3.35047 0
M  V30 5132 O 493.845 2.44866 -3.31835 0
M  V30 5133 H 493.186 0.171807 -0.641388 0
M  V30 5134 H 495.716 -0.0987369 -2.04362 0
M  V30 5135 H 495.726 1.68867 -3.71413 0
M  V30 5136 H 494.401 0.608033 -4.11431 0
M  V30 5137 H 492.978 2.11392 -3.07193 0
M  V30 5138 N 495.163 1.55791 0.238111 0
M  V30 5139 C 496.093 1.94068 1.29846 0
M  V30 5140 C 497.074 0.806726 1.49753 0
M  V30 5141 O 498.259 1.06772 1.62214 0
M  V30 5142 C 495.389 2.24302 2.65153 0
M  V30 5143 C 494.343 3.40032 2.59927 0
M  V30 5144 C 493.669 3.55829 3.99111 0
M  V30 5145 C 494.969 4.75476 2.16148 0
M  V30 5146 H 496.663 2.82887 0.980563 0
M  V30 5147 H 494.209 1.36105 0.470253 0
M  V30 5148 H 496.162 2.4967 3.39475 0
M  V30 5149 H 494.886 1.32318 2.98596 0
M  V30 5150 H 493.545 3.14687 1.88063 0
M  V30 5151 H 493.193 2.6125 4.29834 0
M  V30 5152 H 492.893 4.3366 3.96501 0
M  V30 5153 H 494.417 3.83528 4.7512 0
M  V30 5154 H 495.831 5.00158 2.80205 0
M  V30 5155 H 494.228 5.56472 2.24631 0
M  V30 5156 H 495.298 4.71946 1.11333 0
M  V30 5157 N 496.642 -0.504142 1.49319 0
M  V30 5158 C 497.891 -1.25507 1.57895 0
M  V30 5159 C 498.204 -1.93735 0.269433 0
M  V30 5160 O 499.41 -2.70492 0.233706 0
M  V30 5161 C 497.866 -2.27869 2.78574 0
M  V30 5162 C 497.474 -1.65594 4.16272 0
M  V30 5163 C 499.218 -3.0381 2.96479 0
M  V30 5164 C 497.125 -2.66048 5.28178 0
M  V30 5165 H 496.055 -0.47212 0.587894 0
M  V30 5166 H 498.706 -0.52931 1.757 0
M  V30 5167 H 497.088 -3.03594 2.54257 0
M  V30 5168 H 498.262 -0.958826 4.50714 0
M  V30 5169 H 496.577 -1.02055 4.037 0
M  V30 5170 H 499.174 -3.78925 3.77253 0
M  V30 5171 H 499.517 -3.61235 2.06918 0
M  V30 5172 H 500.05 -2.352 3.20821 0
M  V30 5173 H 496.789 -2.13408 6.19788 0
M  V30 5174 H 496.309 -3.34009 4.98195 0
M  V30 5175 H 497.988 -3.28536 5.57381 0
M  V30 5176 N 498.12 -1.38341 -0.754957 0
M  V30 5177 C 499.07 -1.31964 -1.85929 0
M  V30 5178 C 500.054 -0.204181 -1.59599 0
M  V30 5179 O 501.246 -0.440036 -1.71443 0
M  V30 5180 C 498.375 -1.14565 -3.2362 0
M  V30 5181 C 497.461 -2.30727 -3.55846 0
M  V30 5182 N 497.852 -3.56165 -3.59138 0
M  V30 5183 C 496.15 -2.23249 -3.86104 0
M  V30 5184 C 496.851 -4.32865 -3.88591 0
M  V30 5185 N 495.827 -3.62203 -4.05351 0
M  V30 5186 H 499.629 -2.2694 -1.8675 0
M  V30 5187 H 497.143 -1.31553 -0.952243 0
M  V30 5188 H 499.14 -1.0808 -4.02647 0
M  V30 5189 H 497.8 -0.205212 -3.24051 0
M  V30 5190 H 498.811 -3.89854 -3.40932 0
M  V30 5191 H 495.488 -1.37357 -3.94258 0
M  V30 5192 H 496.878 -5.41504 -3.97773 0
M  V30 5193 N 499.598 0.982988 -1.23187 0
M  V30 5194 C 500.846 1.72052 -1.06031 0
M  V30 5195 C 501.167 1.90769 0.404019 0
M  V30 5196 O 500.437 1.47446 1.28982 0
M  V30 5197 H 499.017 0.637499 -0.389363 0
M  V30 5198 H 501.679 1.18338 -1.54862 0
M  V30 5199 H 500.775 2.7111 -1.54615 0
M  V30 5200 N 501.076 1.04316 1.18135 0
M  V30 5201 C 502.353 0.662166 1.84051 0
M  V30 5202 C 502.733 -0.858169 1.9287 0
M  V30 5203 O 502.081 -1.76062 1.45652 0
M  V30 5204 C 502.291 1.3409 3.22212 0
M  V30 5205 C 503.639 1.4733 3.9822 0
M  V30 5206 O 504.663 1.29921 3.31661 0
M  V30 5207 O 503.522 1.75722 5.17479 0
M  V30 5208 H 500.616 0.232005 0.79379 0
M  V30 5209 H 503.162 1.1422 1.25506 0
M  V30 5210 H 501.934 2.37853 3.10711 0
M  V30 5211 H 501.557 0.849649 3.88416 0
M  V30 5212 N 502.554 -1.34406 0.822964 0
M  V30 5213 C 503.803 -1.97542 0.407458 0
M  V30 5214 C 504.116 -1.65973 -1.035 0
M  V30 5215 O 505.322 -2.22598 -1.55442 0
M  V30 5216 C 503.778 -3.53463 0.677623 0
M  V30 5217 C 503.386 -3.93925 2.1337 0
M  V30 5218 C 505.13 -4.23229 0.328284 0
M  V30 5219 C 503.037 -5.42759 2.34876 0
M  V30 5220 H 501.967 -0.739207 0.148623 0
M  V30 5221 H 504.618 -1.53248 1.00932 0
M  V30 5222 H 503 -3.96 0.00558965 0
M  V30 5223 H 504.174 -3.62494 2.8449 0
M  V30 5224 H 502.489 -3.37097 2.44448 0
M  V30 5225 H 505.086 -5.32659 0.466794 0
M  V30 5226 H 505.429 -4.09899 -0.727224 0
M  V30 5227 H 505.962 -3.86169 0.954896 0
M  V30 5228 H 502.701 -5.61075 3.38932 0
M  V30 5229 H 502.221 -5.75704 1.68299 0
M  V30 5230 H 503.9 -6.0944 2.17236 0
M  V30 5231 N 504.032 -0.577932 -1.46621 0
M  V30 5232 C 504.979 0.158048 -2.30258 0
M  V30 5233 C 505.949 0.888669 -1.40328 0
M  V30 5234 O 507.134 0.880283 -1.6928 0
M  V30 5235 C 504.274 1.16884 -3.24703 0
M  V30 5236 C 503.387 0.442163 -4.29731 0
M  V30 5237 C 502.522 1.44007 -5.11308 0
M  V30 5238 C 501.561 0.69952 -6.0809 0
M  V30 5239 N 500.698 1.64525 -6.82551 0
M  V30 5240 H 505.538 -0.561242 -2.92667 0
M  V30 5241 H 503.075 -0.288591 -1.44241 0
M  V30 5242 H 505.033 1.7677 -3.779 0
M  V30 5243 H 503.663 1.85591 -2.64113 0
M  V30 5244 H 502.715 -0.271632 -3.79429 0
M  V30 5245 H 504.027 -0.136992 -4.98612 0
M  V30 5246 H 503.181 2.11186 -5.68758 0
M  V30 5247 H 501.92 2.05315 -4.42377 0
M  V30 5248 H 500.925 0.0139217 -5.49798 0
M  V30 5249 H 502.15 0.091894 -6.79038 0
M  V30 5250 H 500.096 2.24653 -6.16334 0
M  V30 5251 H 500.013 1.11878 -7.47676 0
M  V30 5252 H 501.281 2.30754 -7.44562 0
M  V30 5253 N 505.51 1.54411 -0.315457 0
M  V30 5254 C 506.735 2.05299 0.294496 0
M  V30 5255 C 507.16 1.19052 1.4563 0
M  V30 5256 O 506.518 0.197804 1.80218 0
M  V30 5257 C 506.566 3.5345 0.714549 0
M  V30 5258 O 505.67 3.70175 1.81781 0
M  V30 5259 H 505.011 0.661743 0.0547019 0
M  V30 5260 H 507.541 1.99327 -0.461508 0
M  V30 5261 H 507.551 3.9557 0.999426 0
M  V30 5262 H 506.226 4.1568 -0.135244 0
M  V30 5263 H 504.803 3.3996 1.53236 0
M  V30 5264 N 506.988 0.0434614 1.5754 0
M  V30 5265 C 508.213 -0.645358 1.97104 0
M  V30 5266 C 508.638 -1.64037 0.920521 0
M  V30 5267 O 507.996 -1.80922 -0.11708 0
M  V30 5268 C 508.044 -1.31547 3.35749 0
M  V30 5269 O 507.148 -2.43103 3.33129 0
M  V30 5270 H 506.489 -0.168403 0.64229 0
M  V30 5271 H 509.019 0.109573 2.04306 0
M  V30 5272 H 509.029 -1.66895 3.72304 0
M  V30 5273 H 507.704 -0.586205 4.11748 0
M  V30 5274 H 506.281 -2.0976 3.0831 0
M  V30 5275 N 508.466 -1.55915 -0.229846 0
M  V30 5276 C 509.414 -1.9258 -1.30444 0
M  V30 5277 C 510.408 -0.806839 -1.48951 0
M  V30 5278 O 511.614 -0.991606 -1.50224 0
M  V30 5279 H 507.989 -0.611878 -0.437161 0
M  V30 5280 H 509.96 -2.82264 -0.96797 0
M  V30 5281 C 508.709 -2.25171 -2.6494 0
M  V30 5282 H 508.032 -3.10782 -2.51504 0
M  V30 5283 H 509.472 -2.54716 -3.38963 0
M  V30 5284 C 507.931 -1.07394 -3.19324 0
M  V30 5285 O 508.461 -0.330759 -4.00336 0
M  V30 5286 N 506.667 -0.859984 -2.77584 0
M  V30 5287 H 506.214 -1.46605 -2.11813 0
M  V30 5288 H 506.172 -0.0736671 -3.14314 0
M  V30 5289 N 509.944 0.496216 -1.49584 0
M  V30 5290 C 511.19 1.25189 -1.59548 0
M  V30 5291 C 511.523 1.9212 -0.283466 0
M  V30 5292 O 510.798 1.80947 0.713324 0
M  V30 5293 C 511.081 2.31516 -2.75812 0
M  V30 5294 C 510.934 1.69054 -4.16822 0
M  V30 5295 C 512.253 3.3304 -2.87702 0
M  V30 5296 H 509.372 0.45379 -0.580727 0
M  V30 5297 H 512.014 0.549327 -1.81886 0
M  V30 5298 H 510.164 2.91438 -2.56897 0
M  V30 5299 H 511.836 1.12923 -4.47265 0
M  V30 5300 H 510.079 0.994485 -4.22247 0
M  V30 5301 H 510.75 2.462 -4.94054 0
M  V30 5302 H 513.226 2.83114 -3.04936 0
M  V30 5303 H 512.102 4.04794 -3.7072 0
M  V30 5304 H 512.363 3.95655 -1.97255 0
M  V30 5305 N 511.423 1.38739 0.74761 0
M  V30 5306 C 512.353 1.39173 1.87492 0
M  V30 5307 C 513.334 0.256794 1.6815 0
M  V30 5308 O 514.519 0.460762 1.88655 0
M  V30 5309 C 511.649 1.22197 3.25093 0
M  V30 5310 C 510.603 2.32957 3.59047 0
M  V30 5311 C 509.929 2.01082 4.95449 0
M  V30 5312 C 511.229 3.75237 3.6331 0
M  V30 5313 H 512.923 2.3351 1.87386 0
M  V30 5314 H 510.469 1.12399 0.900134 0
M  V30 5315 H 512.422 1.21124 4.03617 0
M  V30 5316 H 511.146 0.243241 3.25693 0
M  V30 5317 H 509.805 2.33226 2.82845 0
M  V30 5318 H 509.453 1.01678 4.92616 0
M  V30 5319 H 509.153 2.75267 5.19136 0
M  V30 5320 H 510.677 2.01638 5.76346 0
M  V30 5321 H 512.091 3.76966 4.31937 0
M  V30 5322 H 510.488 4.48677 3.98509 0
M  V30 5323 H 511.558 4.07122 2.634 0
M  V30 5324 N 512.901 -0.976442 1.23707 0
M  V30 5325 C 513.831 -2.08749 1.04624 0
M  V30 5326 C 514.812 -1.70057 -0.0380956 0
M  V30 5327 O 515.997 -1.93782 0.127308 0
M  V30 5328 C 513.127 -3.41335 0.640902 0
M  V30 5329 C 512.081 -3.93947 1.67302 0
M  V30 5330 C 511.407 -5.22774 1.12301 0
M  V30 5331 C 512.707 -4.22769 3.06697 0
M  V30 5332 H 514.401 -2.24972 1.97555 0
M  V30 5333 H 511.947 -1.08108 0.951247 0
M  V30 5334 H 513.9 -4.18489 0.494434 0
M  V30 5335 H 512.624 -3.24988 -0.324099 0
M  V30 5336 H 511.283 -3.18941 1.80755 0
M  V30 5337 H 510.931 -5.0278 0.148877 0
M  V30 5338 H 510.631 -5.58942 1.81267 0
M  V30 5339 H 512.155 -6.02546 0.988479 0
M  V30 5340 H 513.569 -4.90659 2.96524 0
M  V30 5341 H 511.966 -4.70147 3.72937 0
M  V30 5342 H 513.036 -3.29885 3.55392 0
M  V30 5343 N 514.379 -1.04941 -1.1758 0
M  V30 5344 C 515.656 -0.671918 -1.83697 0
M  V30 5345 C 516.036 0.847929 -1.93322 0
M  V30 5346 O 515.384 1.75287 -1.46583 0
M  V30 5347 C 515.594 -1.35797 -3.21497 0
M  V30 5348 C 516.942 -1.4944 -3.97433 0
M  V30 5349 O 517.966 -1.31678 -3.30967 0
M  V30 5350 O 516.825 -1.78463 -5.1654 0
M  V30 5351 H 513.919 -0.236212 -0.792548 0
M  V30 5352 H 516.465 -1.14884 -1.24899 0
M  V30 5353 H 515.237 -2.39498 -3.09446 0
M  V30 5354 H 514.86 -0.870236 -3.8796 0
M  V30 5355 N 515.857 1.33968 -0.830081 0
M  V30 5356 C 516.767 2.33164 -0.259207 0
M  V30 5357 C 517.783 1.62951 0.610164 0
M  V30 5358 O 518.959 1.94668 0.516369 0
M  V30 5359 C 516.024 3.42088 0.563598 0
M  V30 5360 C 515.085 4.28037 -0.329014 0
M  V30 5361 C 514.318 5.3176 0.454616 0
M  V30 5362 O 514.541 5.44876 1.6872 0
M  V30 5363 O 513.475 6.01669 -0.166794 0
M  V30 5364 H 517.301 2.83832 -1.08041 0
M  V30 5365 H 514.886 1.37154 -0.59239 0
M  V30 5366 H 516.768 4.08581 1.03147 0
M  V30 5367 H 515.443 2.93651 1.36201 0
M  V30 5368 H 514.35 3.64443 -0.844538 0
M  V30 5369 H 515.683 4.79934 -1.09196 0
M  V30 5370 N 517.335 0.585699 1.46312 0
M  V30 5371 C 518.751 0.247607 1.57668 0
M  V30 5372 C 518.951 -1.25007 1.58037 0
M  V30 5373 O 518.007 -2.03196 1.49893 0
M  V30 5374 C 519.32 0.899456 2.86933 0
M  V30 5375 C 520.868 0.873326 3.00569 0
M  V30 5376 C 521.343 1.50477 4.32574 0
M  V30 5377 N 522.834 1.46925 4.3928 0
M  V30 5378 C 523.569 1.92719 5.40044 0
M  V30 5379 N 523.065 2.46499 6.47464 0
M  V30 5380 N 524.858 1.83617 5.31264 0
M  V30 5381 H 517.009 1.55841 1.44317 0
M  V30 5382 H 519.272 0.651564 0.688599 0
M  V30 5383 H 518.978 1.95313 2.92482 0
M  V30 5384 H 518.852 0.409476 3.74971 0
M  V30 5385 H 521.239 -0.171736 2.946 0
M  V30 5386 H 521.32 1.40136 2.13999 0
M  V30 5387 H 520.964 2.54905 4.39302 0
M  V30 5388 H 520.894 0.951944 5.17924 0
M  V30 5389 H 523.385 1.07616 3.62253 0
M  V30 5390 H 523.698 2.79291 7.20567 0
M  V30 5391 H 522.043 2.50526 6.48276 0
M  V30 5392 H 525.234 1.41358 4.46246 0
M  V30 5393 H 525.407 2.19622 6.09648 0
M  V30 5394 N 518.813 -1.54241 0.323641 0
M  V30 5395 C 519.743 -2.27289 -0.534993 0
M  V30 5396 C 520.724 -1.28087 -1.11927 0
M  V30 5397 O 521.909 -1.56899 -1.14439 0
M  V30 5398 C 519.039 -3.03075 -1.69596 0
M  V30 5399 C 517.993 -4.09614 -1.24098 0
M  V30 5400 C 517.319 -4.73242 -2.4889 0
M  V30 5401 C 518.619 -5.21087 -0.355789 0
M  V30 5402 H 520.313 -2.99308 0.0743257 0
M  V30 5403 H 517.859 -1.43952 0.0371874 0
M  V30 5404 H 519.812 -3.52907 -2.30293 0
M  V30 5405 H 518.536 -2.28673 -2.33187 0
M  V30 5406 H 517.195 -3.60666 -0.656945 0
M  V30 5407 H 516.843 -3.95455 -3.10845 0
M  V30 5408 H 516.543 -5.45209 -2.19138 0
M  V30 5409 H 518.067 -5.25848 -3.10348 0
M  V30 5410 H 519.481 -5.66675 -0.869042 0
M  V30 5411 H 517.878 -5.9991 -0.151045 0
M  V30 5412 H 518.948 -4.81005 0.613339 0
M  V30 5413 N 520.291 -0.0518155 -1.57515 0
M  V30 5414 C 521.519 0.631395 -1.9703 0
M  V30 5415 C 521.934 1.64341 -0.92938 0
M  V30 5416 O 521.291 1.82296 0.0863266 0
M  V30 5417 C 521.342 1.31774 -3.36627 0
M  V30 5418 O 521.063 0.346247 -4.3673 0
M  V30 5419 C 522.564 2.09065 -3.90905 0
M  V30 5420 H 519.784 0.172576 -0.648428 0
M  V30 5421 H 522.328 -0.118306 -2.04158 0
M  V30 5422 H 520.483 2.01867 -3.30649 0
M  V30 5423 H 520.897 0.836226 -5.17791 0
M  V30 5424 H 522.371 2.52508 -4.9086 0
M  V30 5425 H 522.848 2.93908 -3.26366 0
M  V30 5426 H 523.454 1.43882 -4.00223 0
M  V30 5427 N 521.769 1.56035 0.221574 0
M  V30 5428 C 523.18 1.69229 0.788567 0
M  V30 5429 C 523.531 0.653814 1.84986 0
M  V30 5430 O 522.656 -0.195065 2.15519 0
M  V30 5431 C 523.251 3.06809 1.43713 0
M  V30 5432 C 521.81 3.21858 1.95152 0
M  V30 5433 C 520.957 2.65155 0.811685 0
M  V30 5434 H 523.908 1.587 -0.00307894 0
M  V30 5435 H 523.929 3.02666 2.30594 0
M  V30 5436 H 523.441 3.82369 0.664475 0
M  V30 5437 H 521.542 2.51167 2.7522 0
M  V30 5438 H 521.655 4.29073 2.1315 0
M  V30 5439 H 520.019 2.23635 1.21899 0
M  V30 5440 H 520.802 3.43261 0.0516987 0
M  V30 5441 N 523.247 -0.488276 1.49845 0
M  V30 5442 C 524.194 -1.58836 1.67451 0
M  V30 5443 C 525.164 -1.57886 0.515857 0
M  V30 5444 O 526.349 -1.75679 0.744403 0
M  V30 5445 C 523.489 -2.96915 1.75885 0
M  V30 5446 C 522.602 -3.07784 3.03138 0
M  V30 5447 C 521.737 -4.36673 3.02473 0
M  V30 5448 C 520.776 -4.41222 4.24252 0
M  V30 5449 N 519.913 -5.61557 4.21424 0
M  V30 5450 H 524.753 -1.43131 2.61376 0
M  V30 5451 H 522.29 -0.696186 1.29583 0
M  V30 5452 H 524.248 -3.76965 1.78755 0
M  V30 5453 H 522.878 -3.11295 0.85414 0
M  V30 5454 H 521.93 -2.20717 3.09819 0
M  V30 5455 H 523.242 -3.07005 3.93128 0
M  V30 5456 H 522.396 -5.25055 3.03977 0
M  V30 5457 H 521.135 -4.40037 2.10283 0
M  V30 5458 H 520.14 -3.5124 4.22978 0
M  V30 5459 H 521.365 -4.39564 5.17649 0
M  V30 5460 H 519.311 -5.65738 3.32078 0
M  V30 5461 H 519.228 -5.62447 5.05163 0
M  V30 5462 H 520.496 -6.52111 4.2705 0
M  V30 5463 N 524.725 -1.39134 -0.740242 0
M  V30 5464 C 525.655 -1.40165 -1.86751 0
M  V30 5465 C 526.636 -0.265708 -1.68012 0
M  V30 5466 O 527.821 -0.47076 -1.88408 0
M  V30 5467 C 524.951 -1.2392 -3.2444 0
M  V30 5468 C 523.905 -2.34858 -3.57807 0
M  V30 5469 C 523.231 -2.03707 -4.94376 0
M  V30 5470 C 524.531 -3.77159 -3.61315 0
M  V30 5471 H 526.225 -2.345 -1.86145 0
M  V30 5472 H 523.771 -1.12875 -0.89416 0
M  V30 5473 H 525.724 -1.23263 -4.02969 0
M  V30 5474 H 524.448 -0.26051 -3.25559 0
M  V30 5475 H 523.107 -2.34723 -2.81604 0
M  V30 5476 H 522.755 -1.04289 -4.9207 0
M  V30 5477 H 522.455 -2.78016 -5.17669 0
M  V30 5478 H 523.979 -2.04691 -5.75268 0
M  V30 5479 H 525.393 -3.79252 -4.29931 0
M  V30 5480 H 523.79 -4.50784 -3.96124 0
M  V30 5481 H 524.86 -4.08513 -2.61238 0
M  V30 5482 N 526.204 0.969867 -1.24223 0
M  V30 5483 C 527.452 1.70918 -1.0785 0
M  V30 5484 C 527.773 1.91186 0.383763 0
M  V30 5485 O 527.043 1.48806 1.27411 0
M  V30 5486 H 525.623 0.633334 -0.396103 0
M  V30 5487 H 528.285 1.16689 -1.56108 0
M  V30 5488 H 527.381 2.69455 -1.57482 0
M  V30 5489 N 527.682 1.05563 1.17022 0
M  V30 5490 C 528.959 0.68165 1.83338 0
M  V30 5491 C 529.339 -0.837665 1.93769 0
M  V30 5492 O 528.687 -1.74507 1.47511 0
M  V30 5493 C 528.897 1.375 3.20772 0
M  V30 5494 C 530.245 1.51545 3.96635 0
M  V30 5495 O 531.269 1.33431 3.30264 0
M  V30 5496 O 530.128 1.812 5.15586 0
M  V30 5497 H 527.222 0.240412 0.791285 0
M  V30 5498 H 529.768 1.15545 1.24288 0
M  V30 5499 H 528.54 2.41135 3.08171 0
M  V30 5500 H 528.163 0.890798 3.87493 0
M  V30 5501 N 529.16 -1.33526 0.837174 0
M  V30 5502 C 530.407 -1.97837 0.432064 0
M  V30 5503 C 530.735 -1.66324 -1.00829 0
M  V30 5504 O 529.99 -0.93448 -1.71948 0
M  V30 5505 C 530.289 -3.52367 0.597675 0
M  V30 5506 C 529.955 -4.03826 2.00587 0
M  V30 5507 C 528.617 -4.1759 2.39106 0
M  V30 5508 C 530.969 -4.31333 2.92576 0
M  V30 5509 C 528.297 -4.56195 3.68921 0
M  V30 5510 C 530.649 -4.7139 4.2187 0
M  V30 5511 C 529.313 -4.8336 4.60347 0
M  V30 5512 H 528.583 -0.723937 0.158104 0
M  V30 5513 H 531.23 -1.5923 1.06387 0
M  V30 5514 H 529.535 -3.91624 -0.117452 0
M  V30 5515 H 531.232 -4.00126 0.26454 0
M  V30 5516 H 527.822 -3.93586 1.69671 0
M  V30 5517 H 532.006 -4.20224 2.64056 0
M  V30 5518 H 527.262 -4.63655 3.9854 0
M  V30 5519 H 531.436 -4.91631 4.93226 0
M  V30 5520 H 529.063 -5.1303 5.60985 0
M  V30 5521 N 530.638 -0.59345 -1.46 0
M  V30 5522 C 531.886 -0.082988 -2.0193 0
M  V30 5523 C 532.207 1.28569 -1.46612 0
M  V30 5524 O 531.477 1.84629 -0.654909 0
M  V30 5525 H 530.057 -0.0276882 -0.746487 0
M  V30 5526 H 532.719 -0.771657 -1.78973 0
M  V30 5527 H 531.815 -0.022079 -3.12092 0
M  V30 5528 N 532.116 1.54067 -0.331816 0
M  V30 5529 C 533.046 2.27569 0.522932 0
M  V30 5530 C 534.027 1.28679 1.11247 0
M  V30 5531 O 535.212 1.57504 1.13605 0
M  V30 5532 C 532.342 3.0397 1.67987 0
M  V30 5533 C 531.296 4.10267 1.21924 0
M  V30 5534 C 530.622 4.74555 2.46377 0
M  V30 5535 C 531.922 5.21268 0.32815 0
M  V30 5536 H 533.616 2.99264 -0.0901977 0
M  V30 5537 H 531.162 1.4393 -0.044821 0
M  V30 5538 H 533.115 3.54123 2.28418 0
M  V30 5539 H 531.839 2.29906 2.31971 0
M  V30 5540 H 530.498 3.61009 0.637809 0
M  V30 5541 H 530.146 3.97098 3.08743 0
M  V30 5542 H 529.846 5.46363 2.16243 0
M  V30 5543 H 531.37 5.27487 3.07555 0
M  V30 5544 H 532.784 5.67128 0.838978 0
M  V30 5545 H 531.181 5.99982 0.119228 0
M  V30 5546 H 532.251 4.80673 -0.638839 0
M  V30 5547 N 533.594 0.0601682 1.57485 0
M  V30 5548 C 534.557 -0.896373 2.10945 0
M  V30 5549 C 535.557 -1.23402 1.03095 0
M  V30 5550 O 536.747 -1.16921 1.29132 0
M  V30 5551 C 533.879 -2.20346 2.60116 0
M  V30 5552 H 535.072 -0.432778 2.96761 0
M  V30 5553 H 532.625 -0.188372 1.55161 0
M  V30 5554 H 533.36 -2.71268 1.7772 0
M  V30 5555 H 533.145 -1.9714 3.38937 0
M  V30 5556 H 534.635 -2.88846 3.01592 0
M  V30 5557 N 535.072 -1.5615 -0.213296 0
M  V30 5558 C 536.488 -1.49327 -0.56336 0
M  V30 5559 C 536.688 -0.756826 -1.86747 0
M  V30 5560 O 535.744 -0.299866 -2.50713 0
M  V30 5561 C 537.057 -2.9392 -0.634944 0
M  V30 5562 C 538.605 -3.04487 -0.725013 0
M  V30 5563 C 539.08 -4.50456 -0.82787 0
M  V30 5564 N 540.571 -4.54533 -0.891876 0
M  V30 5565 C 541.306 -5.64766 -0.991315 0
M  V30 5566 N 540.802 -6.84733 -1.05419 0
M  V30 5567 N 542.595 -5.52637 -1.02709 0
M  V30 5568 H 534.746 -2.02453 0.642366 0
M  V30 5569 H 537.009 -0.920548 0.226487 0
M  V30 5570 H 536.715 -3.50783 0.253859 0
M  V30 5571 H 536.589 -3.46274 -1.49579 0
M  V30 5572 H 538.976 -2.47685 -1.60425 0
M  V30 5573 H 539.057 -2.55289 0.161669 0
M  V30 5574 H 538.701 -5.07878 0.0469464 0
M  V30 5575 H 538.631 -4.97369 -1.73009 0
M  V30 5576 H 541.122 -3.68141 -0.85327 0
M  V30 5577 H 541.435 -7.64493 -1.13007 0
M  V30 5578 H 539.78 -6.87427 -1.02318 0
M  V30 5579 H 542.971 -4.5784 -0.974687 0
M  V30 5580 H 543.144 -6.38576 -1.10113 0
M  V30 5581 N 536.55 0.480323 -1.50102 0
M  V30 5582 C 537.797 1.23307 -1.60629 0
M  V30 5583 C 538.125 1.92135 -0.302375 0
M  V30 5584 O 537.38 1.82321 0.711154 0
M  V30 5585 C 537.679 2.30708 -2.72963 0
M  V30 5586 C 537.345 1.79195 -4.13763 0
M  V30 5587 C 536.007 1.64867 -4.52076 0
M  V30 5588 C 538.359 1.40878 -5.018 0
M  V30 5589 C 535.687 1.10631 -5.76175 0
M  V30 5590 C 538.039 0.880872 -6.26437 0
M  V30 5591 C 536.703 0.724146 -6.6356 0
M  V30 5592 H 535.973 0.451211 -0.587784 0
M  V30 5593 H 538.62 0.53051 -1.84005 0
M  V30 5594 H 536.925 3.06834 -2.43639 0
M  V30 5595 H 538.622 2.88692 -2.78313 0
M  V30 5596 H 535.212 1.91313 -3.83533 0
M  V30 5597 H 539.396 1.50786 -4.7284 0
M  V30 5598 H 534.652 0.972263 -6.0362 0
M  V30 5599 H 538.826 0.575269 -6.9402 0
M  V30 5600 H 536.453 0.301722 -7.59601 0
M  V30 5601 N 538.028 1.39524 0.732853 0
M  V30 5602 C 539.253 1.40329 1.52717 0
M  V30 5603 C 539.678 0.000286574 1.881 0
M  V30 5604 O 539.036 -0.987262 1.52062 0
M  V30 5605 C 539.084 2.28464 2.78992 0
M  V30 5606 O 538.188 1.716 3.75003 0
M  V30 5607 H 537.529 0.47778 0.461109 0
M  V30 5608 H 540.059 1.83546 0.903996 0
M  V30 5609 H 540.069 2.43051 3.27705 0
M  V30 5610 H 538.744 3.30425 2.52572 0
M  V30 5611 H 537.321 1.66267 3.33781 0
M  V30 5612 N 539.506 -0.963266 1.24736 0
M  V30 5613 C 540.922 -1.23273 1.01371 0
M  V30 5614 C 541.122 -1.99618 -0.274776 0
M  V30 5615 O 540.178 -2.32293 -0.989769 0
M  V30 5616 C 541.491 -2.01554 2.23152 0
M  V30 5617 C 543.039 -2.14629 2.27823 0
M  V30 5618 C 543.514 -2.96307 3.49237 0
M  V30 5619 N 545.005 -3.03887 3.49581 0
M  V30 5620 C 545.74 -3.67456 4.40186 0
M  V30 5621 N 545.236 -4.32706 5.41052 0
M  V30 5622 N 547.029 -3.64511 4.27888 0
M  V30 5623 H 539.18 -0.452294 2.07528 0
M  V30 5624 H 541.443 -0.262521 0.910926 0
M  V30 5625 H 541.149 -1.52847 3.1675 0
M  V30 5626 H 541.023 -3.02278 2.25628 0
M  V30 5627 H 543.41 -2.62537 1.34753 0
M  V30 5628 H 543.491 -1.13238 2.2937 0
M  V30 5629 H 543.135 -2.49091 4.42624 0
M  V30 5630 H 543.065 -3.97905 3.44933 0
M  V30 5631 H 545.556 -2.57477 2.76611 0
M  V30 5632 H 545.869 -4.79042 6.06415 0
M  V30 5633 H 544.214 -4.31361 5.44934 0
M  V30 5634 H 547.405 -3.12715 3.4832 0
M  V30 5635 H 547.578 -4.13768 4.98698 0
M  V30 5636 N 540.985 -1.06182 -1.16461 0
M  V30 5637 C 542.232 -0.777863 -1.86964 0
M  V30 5638 C 542.56 0.695602 -1.81636 0
M  V30 5639 O 541.815 1.52532 -1.22607 0
M  V30 5640 C 542.114 -1.21633 -3.36066 0
M  V30 5641 C 541.78 -2.69371 -3.61594 0
M  V30 5642 C 540.442 -3.09727 -3.6827 0
M  V30 5643 C 542.794 -3.64791 -3.7226 0
M  V30 5644 C 540.122 -4.44345 -3.83112 0
M  V30 5645 C 542.474 -4.99155 -3.88623 0
M  V30 5646 C 541.138 -5.39149 -3.93541 0
M  V30 5647 H 540.408 -0.28464 -0.68415 0
M  V30 5648 H 543.055 -1.33071 -1.37711 0
M  V30 5649 H 541.36 -0.582651 -3.87443 0
M  V30 5650 H 543.057 -0.973682 -3.88999 0
M  V30 5651 H 539.647 -2.37124 -3.57029 0
M  V30 5652 H 543.831 -3.34746 -3.66413 0
M  V30 5653 H 539.087 -4.74819 -3.85172 0
M  V30 5654 H 543.261 -5.72976 -3.95817 0
M  V30 5655 H 540.888 -6.43464 -4.04794 0
M  V30 5656 N 542.463 1.3308 -0.844243 0
M  V30 5657 C 543.426 2.27403 -0.286485 0
M  V30 5658 C 544.426 1.51179 0.547872 0
M  V30 5659 O 545.616 1.70421 0.360886 0
M  V30 5660 C 542.748 3.35653 0.595813 0
M  V30 5661 H 543.941 2.78248 -1.11885 0
M  V30 5662 H 541.494 1.43574 -0.617749 0
M  V30 5663 H 542.229 2.90058 1.4504 0
M  V30 5664 H 542.014 3.921 -0.00125994 0
M  V30 5665 H 543.504 4.05958 0.979168 0
M  V30 5666 N 543.941 0.601185 1.45683 0
M  V30 5667 C 545.189 0.0936957 2.01883 0
M  V30 5668 C 545.51 -1.2779 1.47291 0
M  V30 5669 O 544.78 -1.84279 0.664691 0
M  V30 5670 H 543.36 0.0316466 0.746329 0
M  V30 5671 H 546.022 0.781137 1.78562 0
M  V30 5672 H 545.118 0.0386297 3.12076 0
M  V30 5673 N 545.419 -1.53889 0.339982 0
M  V30 5674 C 546.644 -2.05741 -0.261798 0
M  V30 5675 C 547.069 -1.21354 -1.43718 0
M  V30 5676 O 546.427 -0.22645 -1.7988 0
M  V30 5677 C 546.475 -3.54542 -0.658228 0
M  V30 5678 O 545.579 -3.7302 -1.75869 0
M  V30 5679 H 544.92 -0.662529 -0.0441672 0
M  V30 5680 H 547.45 -1.98568 0.493161 0
M  V30 5681 H 547.46 -3.9711 -0.936368 0
M  V30 5682 H 546.135 -4.15412 0.201358 0
M  V30 5683 H 544.712 -3.42355 -1.47809 0
M  V30 5684 N 546.897 -0.0685191 -1.57451 0
M  V30 5685 C 548.122 0.613919 -1.98106 0
M  V30 5686 C 548.547 1.62551 -0.946501 0
M  V30 5687 O 547.905 1.81085 0.0882824 0
M  V30 5688 C 547.953 1.26189 -3.378 0
M  V30 5689 O 547.057 2.37773 -3.36954 0
M  V30 5690 H 546.398 0.158163 -0.644888 0
M  V30 5691 H 548.928 -0.142063 -2.04106 0
M  V30 5692 H 548.938 1.60951 -3.74912 0
M  V30 5693 H 547.613 0.520625 -4.12629 0
M  V30 5694 H 546.19 2.04829 -3.11608 0
M  V30 5695 N 548.375 1.56261 0.205012 0
M  V30 5696 C 549.786 1.70056 0.770574 0
M  V30 5697 C 550.137 0.673398 1.84282 0
M  V30 5698 O 549.262 -0.172196 2.15714 0
M  V30 5699 C 549.857 3.08316 1.40451 0
M  V30 5700 C 548.416 3.2391 1.91727 0
M  V30 5701 C 547.563 2.66001 0.783516 0
M  V30 5702 H 550.514 1.58688 -0.019911 0
M  V30 5703 H 550.535 3.05094 2.27371 0
M  V30 5704 H 550.047 3.83053 0.623882 0
M  V30 5705 H 548.148 2.54072 2.7254 0
M  V30 5706 H 548.261 4.3131 2.08588 0
M  V30 5707 H 546.625 2.24915 1.19521 0
M  V30 5708 H 547.408 3.43297 0.0152883 0
M  V30 5709 N 549.853 -0.472356 1.50355 0
M  V30 5710 C 551.078 -1.25251 1.65309 0
M  V30 5711 C 551.503 -1.85081 0.335643 0
M  V30 5712 O 550.861 -1.67227 -0.700335 0
M  V30 5713 C 550.909 -2.3379 2.74544 0
M  V30 5714 O 550.013 -3.38401 2.35709 0
M  V30 5715 H 549.354 -0.368539 0.552336 0
M  V30 5716 H 551.884 -0.562271 1.96722 0
M  V30 5717 H 551.894 -2.79121 2.97583 0
M  V30 5718 H 550.569 -1.89614 3.70161 0
M  V30 5719 H 549.146 -2.9879 2.23112 0
M  V30 5720 N 551.331 -1.39911 -0.725443 0
M  V30 5721 C 552.263 -1.35301 -1.85003 0
M  V30 5722 C 553.276 -0.260102 -1.60709 0
M  V30 5723 O 554.465 -0.519749 -1.70766 0
M  V30 5724 C 551.565 -1.08039 -3.21218 0
M  V30 5725 C 550.738 -2.28793 -3.7279 0
M  V30 5726 C 549.797 -1.97841 -4.87591 0
M  V30 5727 O 548.823 -2.70616 -5.00755 0
M  V30 5728 N 550.025 -0.950367 -5.72668 0
M  V30 5729 H 552.79 -2.32218 -1.89459 0
M  V30 5730 H 550.351 -1.34137 -0.90658 0
M  V30 5731 H 552.343 -0.853354 -3.95601 0
M  V30 5732 H 550.913 -0.198229 -3.11971 0
M  V30 5733 H 550.133 -2.67388 -2.8965 0
M  V30 5734 H 551.421 -3.09317 -4.03981 0
M  V30 5735 H 550.819 -0.347436 -5.64632 0
M  V30 5736 H 549.376 -0.783232 -6.47077 0
M  V30 5737 N 552.809 0.956637 -1.25245 0
M  V30 5738 C 554.034 1.74104 -1.12706 0
M  V30 5739 C 554.459 1.85436 0.315429 0
M  V30 5740 O 553.817 1.33334 1.22848 0
M  V30 5741 C 553.865 3.1338 -1.78396 0
M  V30 5742 O 552.969 3.98485 -1.06224 0
M  V30 5743 H 552.31 0.53476 -0.393609 0
M  V30 5744 H 554.84 1.19924 -1.65769 0
M  V30 5745 H 554.85 3.6385 -1.846 0
M  V30 5746 H 553.525 3.04448 -2.83345 0
M  V30 5747 H 552.102 3.56952 -1.07886 0
M  V30 5748 N 554.287 1.06798 1.15896 0
M  V30 5749 C 555.512 0.808739 1.90982 0
M  V30 5750 C 555.937 -0.6316 1.77179 0
M  V30 5751 O 555.295 -1.4407 1.10061 0
M  V30 5752 C 555.343 1.21468 3.39526 0
M  V30 5753 O 554.447 0.356562 4.10856 0
M  V30 5754 H 553.788 0.29512 0.594811 0
M  V30 5755 H 556.318 1.42513 1.46804 0
M  V30 5756 H 556.328 1.18844 3.90308 0
M  V30 5757 H 555.003 2.26379 3.48891 0
M  V30 5758 H 553.58 0.444808 3.70238 0
M  V30 5759 N 555.766 -1.3263 0.851289 0
M  V30 5760 C 556.699 -2.26952 0.238318 0
M  V30 5761 C 557.677 -1.50243 -0.621757 0
M  V30 5762 O 558.861 -1.79378 -0.579298 0
M  V30 5763 C 555.988 -3.32124 -0.664178 0
M  V30 5764 C 555.034 -4.26325 0.122067 0
M  V30 5765 S 555.867 -5.14404 1.48824 0
M  V30 5766 C 557.023 -6.231 0.591372 0
M  V30 5767 H 557.256 -2.78594 1.03791 0
M  V30 5768 H 554.789 -1.4011 0.648731 0
M  V30 5769 H 556.747 -3.93197 -1.17924 0
M  V30 5770 H 555.408 -2.79273 -1.43755 0
M  V30 5771 H 554.601 -5.00821 -0.565181 0
M  V30 5772 H 554.203 -3.69652 0.568602 0
M  V30 5773 H 556.495 -6.77187 -0.205762 0
M  V30 5774 H 557.438 -6.95936 1.30687 0
M  V30 5775 H 557.846 -5.64252 0.167206 0
M  V30 5776 N 557.244 -0.608902 -1.45362 0
M  V30 5777 C 558.49 -0.104762 -2.02529 0
M  V30 5778 C 558.823 1.26191 -1.47613 0
M  V30 5779 O 558.098 1.8327 -0.65134 0
M  V30 5780 C 558.381 -0.0672661 -3.60037 0
M  V30 5781 C 558.234 -1.4647 -4.25284 0
M  V30 5782 C 559.553 0.619877 -4.35713 0
M  V30 5783 H 556.672 -0.0395438 -0.735938 0
M  V30 5784 H 559.314 -0.781126 -1.73201 0
M  V30 5785 H 557.464 0.50871 -3.85155 0
M  V30 5786 H 559.136 -2.08785 -4.11347 0
M  V30 5787 H 557.379 -2.02502 -3.83634 0
M  V30 5788 H 558.05 -1.39069 -5.34195 0
M  V30 5789 H 560.526 0.130297 -4.15896 0
M  V30 5790 H 559.402 0.615224 -5.45441 0
M  V30 5791 H 559.663 1.68621 -4.0868 0
M  V30 5792 N 558.722 1.53707 -0.348139 0
M  V30 5793 C 559.685 2.23812 0.494058 0
M  V30 5794 C 560.685 1.23989 1.02388 0
M  V30 5795 O 561.875 1.48395 0.912396 0
M  V30 5796 C 559.007 2.96133 1.68872 0
M  V30 5797 H 560.2 2.99663 -0.119141 0
M  V30 5798 H 557.753 1.55983 -0.0995539 0
M  V30 5799 H 558.488 2.24481 2.34049 0
M  V30 5800 H 558.273 3.69357 1.31596 0
M  V30 5801 H 559.763 3.49475 2.28597 0
M  V30 5802 N 560.2 0.0768682 1.57412 0
M  V30 5803 C 561.616 -0.279772 1.57129 0
M  V30 5804 C 561.816 -1.69688 1.08666 0
M  V30 5805 O 560.872 -2.40953 0.754843 0
M  V30 5806 C 562.185 -0.0848055 3.0058 0
M  V30 5807 C 563.733 -0.153954 3.12621 0
M  V30 5808 C 564.208 0.0127946 4.57998 0
M  V30 5809 N 565.699 -0.0426435 4.6318 0
M  V30 5810 C 566.434 0.0618892 5.73367 0
M  V30 5811 N 565.93 0.220229 6.9245 0
M  V30 5812 N 567.723 0.00446072 5.621 0
M  V30 5813 H 559.874 1.00297 1.87228 0
M  V30 5814 H 562.137 0.391565 0.863354 0
M  V30 5815 H 561.843 0.89325 3.40168 0
M  V30 5816 H 561.717 -0.834961 3.67843 0
M  V30 5817 H 564.104 -1.1225 2.72917 0
M  V30 5818 H 564.185 0.627389 2.47987 0
M  V30 5819 H 563.829 0.978128 4.98392 0
M  V30 5820 H 563.759 -0.788016 5.20671 0
M  V30 5821 H 566.25 -0.163226 3.77547 0
M  V30 5822 H 566.563 0.291999 7.72248 0
M  V30 5823 H 564.908 0.255658 6.9453 0
M  V30 5824 H 568.099 -0.117979 4.67951 0
M  V30 5825 H 568.272 0.0893796 6.47938 0
M  V30 5826 N 561.678 -1.56367 -0.196722 0
M  V30 5827 C 562.906 -1.84639 -0.933608 0
M  V30 5828 C 563.321 -0.659164 -1.76919 0
M  V30 5829 O 562.678 0.372142 -1.78665 0
M  V30 5830 C 562.729 -3.11694 -1.83109 0
M  V30 5831 O 562.45 -4.25838 -1.02924 0
M  V30 5832 C 563.951 -3.53132 -2.67979 0
M  V30 5833 H 561.171 -0.613188 -0.272473 0
M  V30 5834 H 563.715 -2.03475 -0.204465 0
M  V30 5835 H 561.87 -2.94759 -2.51387 0
M  V30 5836 H 562.284 -4.98178 -1.64069 0
M  V30 5837 H 563.758 -4.45005 -3.26611 0
M  V30 5838 H 564.235 -2.76045 -3.41608 0
M  V30 5839 H 564.841 -3.72592 -2.05074 0
M  V30 5840 N 563.156 0.464375 -1.50603 0
M  V30 5841 C 564.088 1.57916 -1.66118 0
M  V30 5842 C 565.101 1.53497 -0.54246 0
M  V30 5843 O 566.29 1.58763 -0.815877 0
M  V30 5844 C 563.39 2.96809 -1.63577 0
M  V30 5845 C 562.563 3.26026 -2.91592 0
M  V30 5846 C 561.622 4.44506 -2.81604 0
M  V30 5847 O 560.648 4.44484 -3.55559 0
M  V30 5848 N 561.85 5.46549 -1.95614 0
M  V30 5849 H 564.615 1.45022 -2.62276 0
M  V30 5850 H 562.176 0.652903 -1.48151 0
M  V30 5851 H 564.168 3.74048 -1.54499 0
M  V30 5852 H 562.738 3.03438 -0.751262 0
M  V30 5853 H 561.958 2.37337 -3.14746 0
M  V30 5854 H 563.246 3.42361 -3.76386 0
M  V30 5855 H 562.644 5.49391 -1.34854 0
M  V30 5856 H 561.201 6.22746 -1.92435 0
M  V30 5857 N 564.634 1.40294 0.718013 0
M  V30 5858 C 565.862 1.4175 1.50714 0
M  V30 5859 C 566.277 0.0165366 1.88793 0
M  V30 5860 O 565.634 -0.958942 1.55276 0
M  V30 5861 C 565.685 2.30598 2.784 0
M  V30 5862 O 565.406 3.6524 2.41932 0
M  V30 5863 C 566.907 2.4062 3.72313 0
M  V30 5864 H 564.127 0.483565 0.465194 0
M  V30 5865 H 566.671 1.84316 0.885889 0
M  V30 5866 H 564.826 1.91401 3.36815 0
M  V30 5867 H 565.24 4.12402 3.24076 0
M  V30 5868 H 566.714 3.07001 4.58753 0
M  V30 5869 H 567.191 1.4305 4.15251 0
M  V30 5870 H 567.797 2.80359 3.19811 0
M  V30 5871 N 566.112 -0.949982 1.2575 0
M  V30 5872 C 567.358 -1.69766 1.10938 0
M  V30 5873 C 567.691 -1.91056 -0.348028 0
M  V30 5874 O 566.966 -1.48488 -1.25625 0
M  V30 5875 C 567.249 -3.07779 1.86933 0
M  V30 5876 C 567.102 -2.9387 3.4053 0
M  V30 5877 C 568.421 -4.07749 1.65616 0
M  V30 5878 H 565.54 -0.616144 0.404396 0
M  V30 5879 H 568.182 -1.10394 1.54639 0
M  V30 5880 H 566.332 -3.58462 1.4979 0
M  V30 5881 H 568.004 -2.50476 3.87375 0
M  V30 5882 H 566.247 -2.29686 3.68004 0
M  V30 5883 H 566.918 -3.91719 3.88922 0
M  V30 5884 H 569.394 -3.65994 1.97959 0
M  V30 5885 H 568.27 -5.02348 2.21218 0
M  V30 5886 H 568.531 -4.38029 0.598595 0
M  V30 5887 N 567.59 -1.07411 -1.15328 0
M  V30 5888 C 569.006 -0.799759 -1.38116 0
M  V30 5889 C 569.206 0.59572 -1.92493 0
M  V30 5890 O 568.262 1.35433 -2.13106 0
M  V30 5891 C 569.575 -1.87407 -2.35158 0
M  V30 5892 C 571.123 -1.89889 -2.48819 0
M  V30 5893 C 571.598 -2.96406 -3.49153 0
M  V30 5894 N 573.089 -2.95512 -3.56689 0
M  V30 5895 C 573.824 -3.74575 -4.34144 0
M  V30 5896 N 573.32 -4.63488 -5.14928 0
M  V30 5897 N 575.113 -3.62919 -4.29239 0
M  V30 5898 H 567.264 -1.97411 -0.78374 0
M  V30 5899 H 569.527 -0.856113 -0.407154 0
M  V30 5900 H 569.233 -2.8768 -2.0232 0
M  V30 5901 H 569.107 -1.73471 -3.34944 0
M  V30 5902 H 571.494 -0.902677 -2.80955 0
M  V30 5903 H 571.575 -2.07904 -1.49029 0
M  V30 5904 H 571.219 -3.96227 -3.17752 0
M  V30 5905 H 571.149 -2.75638 -4.48699 0
M  V30 5906 H 573.64 -2.31061 -2.99031 0
M  V30 5907 H 573.953 -5.20445 -5.71276 0
M  V30 5908 H 572.298 -4.67537 -5.14232 0
M  V30 5909 H 575.489 -2.92833 -3.65194 0
M  V30 5910 H 575.662 -4.24777 -4.89355 0
M  V30 5911 N 569.068 1.32177 -0.85831 0
M  V30 5912 C 570.316 1.96735 -0.462568 0
M  V30 5913 C 570.637 1.6824 0.985911 0
M  V30 5914 O 569.907 0.991564 1.68952 0
M  V30 5915 H 568.487 0.727849 -0.168064 0
M  V30 5916 H 571.149 1.61195 -1.09554 0
M  V30 5917 H 570.245 3.06068 -0.610647 0
M  V30 5918 N 570.547 0.616602 1.45037 0
M  V30 5919 C 571.775 0.121968 2.0654 0
M  V30 5920 C 572.19 -1.19743 1.45969 0
M  V30 5921 O 571.547 -1.73133 0.577168 0
M  V30 5922 C 571.598 -0.0145171 3.61497 0
M  V30 5923 O 571.319 1.25269 4.19809 0
M  V30 5924 C 572.82 -0.539555 4.40004 0
M  V30 5925 H 570.04 0.0729837 0.667019 0
M  V30 5926 H 572.584 0.846891 1.8614 0
M  V30 5927 H 570.739 -0.689809 3.81209 0
M  V30 5928 H 571.153 1.08816 5.13088 0
M  V30 5929 H 572.627 -0.584112 5.48901 0
M  V30 5930 H 573.104 -1.56368 4.10421 0
M  V30 5931 H 573.71 0.101995 4.25178 0
M  V30 5932 N 572.025 -1.5352 0.356285 0
M  V30 5933 C 572.955 -2.28372 -0.486661 0
M  V30 5934 C 573.936 -1.30432 -1.09185 0
M  V30 5935 O 575.121 -1.59291 -1.11085 0
M  V30 5936 C 572.251 -3.06604 -1.63129 0
M  V30 5937 C 571.205 -4.12154 -1.15381 0
M  V30 5938 C 570.531 -4.78415 -2.38796 0
M  V30 5939 C 571.831 -5.21724 -0.245179 0
M  V30 5940 H 573.525 -2.99083 0.137797 0
M  V30 5941 H 571.071 -1.43841 0.0677134 0
M  V30 5942 H 573.024 -3.57712 -2.22755 0
M  V30 5943 H 571.748 -2.33568 -2.28284 0
M  V30 5944 H 570.407 -3.61978 -0.580294 0
M  V30 5945 H 570.055 -4.01959 -3.02387 0
M  V30 5946 H 569.755 -5.49734 -2.07524 0
M  V30 5947 H 571.279 -5.32313 -2.99125 0
M  V30 5948 H 572.693 -5.68391 -0.748646 0
M  V30 5949 H 571.09 -6.00095 -0.0237608 0
M  V30 5950 H 572.16 -4.79596 0.715229 0
M  V30 5951 N 573.503 -0.0852151 -1.57369 0
M  V30 5952 C 574.466 0.8627 -2.12344 0
M  V30 5953 C 575.466 1.21746 -1.05046 0
M  V30 5954 O 576.656 1.14852 -1.30976 0
M  V30 5955 C 573.788 2.1618 -2.63589 0
M  V30 5956 H 574.981 0.385511 -2.97412 0
M  V30 5957 H 572.534 0.163663 -1.55441 0
M  V30 5958 H 573.269 2.68406 -1.82013 0
M  V30 5959 H 573.054 1.91723 -3.4203 0
M  V30 5960 H 574.544 2.84011 -3.06149 0
M  V30 5961 N 574.981 1.5647 0.188427 0
M  V30 5962 C 576.211 1.84863 0.922463 0
M  V30 5963 C 576.619 0.666413 1.77075 0
M  V30 5964 O 575.962 -0.374044 1.79852 0
M  V30 5965 C 576.024 3.07447 1.86324 0
M  V30 5966 C 575.688 4.41066 1.19625 0
M  V30 5967 C 576.685 5.16767 0.569946 0
M  V30 5968 C 574.37 4.87802 1.19811 0
M  V30 5969 C 576.364 6.37384 -0.045594 0
M  V30 5970 C 574.051 6.08353 0.57874 0
M  V30 5971 C 575.049 6.82987 -0.0420259 0
M  V30 5972 O 574.737 8.01254 -0.651675 0
M  V30 5973 H 574.469 0.61784 0.274316 0
M  V30 5974 H 577.023 2.04437 0.198613 0
M  V30 5975 H 575.253 2.83774 2.62696 0
M  V30 5976 H 576.942 3.2243 2.46564 0
M  V30 5977 H 577.708 4.81749 0.560601 0
M  V30 5978 H 573.587 4.29662 1.67069 0
M  V30 5979 H 577.131 6.95578 -0.530731 0
M  V30 5980 H 573.028 6.42838 0.58561 0
M  V30 5981 H 573.796 8.16655 -0.549236 0
M  V30 5982 N 576.459 -0.456382 1.50847 0
M  V30 5983 C 577.389 -1.56025 1.73719 0
M  V30 5984 C 578.37 -1.5967 0.586473 0
M  V30 5985 O 579.555 -1.75702 0.827185 0
M  V30 5986 C 576.685 -2.94251 1.84483 0
M  V30 5987 C 575.639 -3.05471 2.99786 0
M  V30 5988 C 574.965 -4.45489 2.95709 0
M  V30 5989 C 576.265 -2.81318 4.40065 0
M  V30 5990 H 577.959 -1.37138 2.66146 0
M  V30 5991 H 575.505 -0.658299 1.28072 0
M  V30 5992 H 577.458 -3.71417 1.99067 0
M  V30 5993 H 576.182 -3.14328 0.886891 0
M  V30 5994 H 574.841 -2.30741 2.84876 0
M  V30 5995 H 574.489 -4.62505 1.97732 0
M  V30 5996 H 574.189 -4.53929 3.73125 0
M  V30 5997 H 575.713 -5.24655 3.12362 0
M  V30 5998 H 577.127 -3.48226 4.55425 0
M  V30 5999 H 575.524 -3.01188 5.19043 0
M  V30 6000 H 576.594 -1.7706 4.51418 0
M  V30 6001 N 577.937 -1.40673 -0.710563 0
M  V30 6002 C 579.348 -1.34975 -1.28991 0
M  V30 6003 C 579.699 -0.0256272 -1.96183 0
M  V30 6004 O 578.824 0.876339 -1.97862 0
M  V30 6005 C 579.419 -2.44467 -2.34567 0
M  V30 6006 C 577.978 -2.42213 -2.88114 0
M  V30 6007 C 577.125 -2.25085 -1.61963 0
M  V30 6008 H 580.076 -1.50406 -0.506343 0
M  V30 6009 H 580.097 -2.12663 -3.15523 0
M  V30 6010 H 579.609 -3.40825 -1.85634 0
M  V30 6011 H 577.71 -1.49568 -3.41263 0
M  V30 6012 H 577.823 -3.37983 -3.39565 0
M  V30 6013 H 576.187 -1.72691 -1.87216 0
M  V30 6014 H 576.97 -3.23449 -1.15047 0
M  V30 6015 N 579.415 0.9433 -1.26252 0
M  V30 6016 C 580.325 2.07532 -1.09397 0
M  V30 6017 C 581.341 1.73977 -0.0280449 0
M  V30 6018 O 582.517 2.00067 -0.231337 0
M  V30 6019 C 579.582 3.39002 -0.726523 0
M  V30 6020 C 578.643 3.86353 -1.87163 0
M  V30 6021 C 577.876 5.11549 -1.52162 0
M  V30 6022 O 578.099 5.68834 -0.422385 0
M  V30 6023 O 577.033 5.53889 -2.35565 0
M  V30 6024 H 580.859 2.24658 -2.04359 0
M  V30 6025 H 578.444 1.05988 -1.05295 0
M  V30 6026 H 580.326 4.18 -0.534236 0
M  V30 6027 H 579.001 3.2312 0.193721 0
M  V30 6028 H 577.908 3.0831 -2.11886 0
M  V30 6029 H 579.241 4.06752 -2.77152 0
M  V30 6030 N 580.893 1.08022 1.14757 0
M  V30 6031 C 581.803 0.718292 2.23333 0
M  V30 6032 C 582.819 -0.273477 1.71837 0
M  V30 6033 O 583.995 -0.118406 2.01052 0
M  V30 6034 C 581.06 0.128855 3.4646 0
M  V30 6035 C 580.121 1.17473 4.12915 0
M  V30 6036 C 579.354 0.61333 5.30164 0
M  V30 6037 O 579.577 -0.568458 5.6756 0
M  V30 6038 O 578.511 1.3615 5.86299 0
M  V30 6039 H 582.337 1.62394 2.56636 0
M  V30 6040 H 579.922 0.853628 1.22611 0
M  V30 6041 H 581.804 -0.197249 4.20938 0
M  V30 6042 H 580.479 -0.750014 3.14891 0
M  V30 6043 H 579.386 1.5533 3.40328 0
M  V30 6044 H 580.719 2.02574 4.48581 0
M  V30 6045 N 582.371 -1.3172 0.865308 0
M  V30 6046 C 583.601 -2.00765 0.487543 0
M  V30 6047 C 584.009 -1.65145 -0.92325 0
M  V30 6048 O 583.352 -0.874294 -1.61561 0
M  V30 6049 C 583.414 -3.55122 0.559369 0
M  V30 6050 C 583.078 -4.14202 1.93095 0
M  V30 6051 C 584.075 -4.3165 2.89784 0
M  V30 6052 C 581.76 -4.50036 2.23099 0
M  V30 6053 C 583.754 -4.84114 4.14623 0
M  V30 6054 C 581.441 -5.02203 3.48189 0
M  V30 6055 C 582.439 -5.19192 4.43767 0
M  V30 6056 O 582.127 -5.70241 5.6664 0
M  V30 6057 H 581.859 -0.649066 0.188915 0
M  V30 6058 H 584.413 -1.69032 1.16694 0
M  V30 6059 H 582.643 -3.86295 -0.176926 0
M  V30 6060 H 584.332 -4.05428 0.195694 0
M  V30 6061 H 585.098 -4.04288 2.6791 0
M  V30 6062 H 580.977 -4.36091 1.49485 0
M  V30 6063 H 584.521 -4.9729 4.89233 0
M  V30 6064 H 580.418 -5.28997 3.69908 0
M  V30 6065 H 581.186 -5.88617 5.68746 0
M  V30 6066 N 583.85 -0.624285 -1.44708 0
M  V30 6067 C 585.099 -0.123539 -2.01321 0
M  V30 6068 C 585.412 1.25966 -1.49639 0
M  V30 6069 O 586.618 1.85405 -1.98336 0
M  V30 6070 C 585.074 -0.170124 -3.59498 0
M  V30 6071 C 584.682 -1.55421 -4.20176 0
M  V30 6072 C 586.426 0.274513 -4.23611 0
M  V30 6073 C 584.332 -1.55628 -5.70556 0
M  V30 6074 H 583.263 -0.0424183 -0.752806 0
M  V30 6075 H 585.913 -0.782076 -1.65999 0
M  V30 6076 H 584.296 0.555385 -3.92086 0
M  V30 6077 H 585.47 -2.30276 -3.99136 0
M  V30 6078 H 583.784 -1.94235 -3.68323 0
M  V30 6079 H 586.382 0.292402 -5.339 0
M  V30 6080 H 586.725 1.3005 -3.95465 0
M  V30 6081 H 587.258 -0.398275 -3.95801 0
M  V30 6082 H 583.997 -2.56041 -6.03426 0
M  V30 6083 H 583.517 -0.850563 -5.93739 0
M  V30 6084 H 585.196 -1.28721 -6.34066 0
M  V30 6085 N 585.328 1.53329 -0.364422 0
M  V30 6086 C 586.275 2.25698 0.482607 0
M  V30 6087 C 587.245 1.26325 1.07848 0
M  V30 6088 O 588.43 1.55104 1.11119 0
M  V30 6089 C 585.57 3.04873 1.61699 0
M  V30 6090 C 584.683 4.19135 1.0464 0
M  V30 6091 C 583.818 4.85754 2.14979 0
M  V30 6092 C 582.857 5.9205 1.5538 0
M  V30 6093 N 581.994 6.52365 2.59547 0
M  V30 6094 H 586.834 2.97666 -0.141032 0
M  V30 6095 H 584.371 1.46875 -0.0813692 0
M  V30 6096 H 586.329 3.49051 2.28516 0
M  V30 6097 H 584.959 2.35162 2.2113 0
M  V30 6098 H 584.011 3.79451 0.268553 0
M  V30 6099 H 585.323 4.95525 0.570653 0
M  V30 6100 H 584.477 5.3311 2.89619 0
M  V30 6101 H 583.216 4.08834 2.65906 0
M  V30 6102 H 582.221 5.44058 0.792549 0
M  V30 6103 H 583.446 6.7089 1.0528 0
M  V30 6104 H 581.392 5.78298 3.09689 0
M  V30 6105 H 581.309 7.2429 2.16655 0
M  V30 6106 H 582.577 7.0437 3.33892 0
M  V30 6107 N 586.806 0.0935595 1.57322 0
M  V30 6108 C 588.034 -0.578934 1.98635 0
M  V30 6109 C 588.449 -1.61819 0.972626 0
M  V30 6110 O 587.806 -1.82461 -0.0379638 0
M  V30 6111 C 587.857 -1.22802 3.40003 0
M  V30 6112 O 587.578 -0.230334 4.37494 0
M  V30 6113 C 589.079 -1.98627 3.96311 0
M  V30 6114 H 586.299 -0.155324 0.652775 0
M  V30 6115 H 588.843 0.172393 2.03772 0
M  V30 6116 H 586.998 -1.93029 3.35885 0
M  V30 6117 H 587.412 -0.698649 5.19826 0
M  V30 6118 H 588.886 -2.39405 4.97382 0
M  V30 6119 H 589.363 -2.85151 3.34044 0
M  V30 6120 H 589.969 -1.3322 4.03897 0
M  V30 6121 N 588.284 -1.56567 -0.180126 0
M  V30 6122 C 589.532 -1.81133 -0.896392 0
M  V30 6123 C 589.853 -0.669114 -1.83161 0
M  V30 6124 O 589.123 0.311616 -1.93406 0
M  V30 6125 H 587.703 -0.668172 -0.333999 0
M  V30 6126 H 590.365 -1.94048 -0.182051 0
M  V30 6127 H 589.461 -2.74854 -1.47857 0
M  V30 6128 N 589.762 0.448376 -1.51087 0
M  V30 6129 C 591.178 0.783984 -1.39017 0
M  V30 6130 C 591.378 1.96087 -0.463904 0
M  V30 6131 O 590.434 2.52357 0.0850534 0
M  V30 6132 C 591.747 1.07471 -2.80839 0
M  V30 6133 C 593.295 1.17981 -2.89913 0
M  V30 6134 C 593.77 1.50354 -4.32617 0
M  V30 6135 N 595.261 1.57301 -4.35673 0
M  V30 6136 C 595.996 1.839 -5.4311 0
M  V30 6137 N 595.492 2.08365 -6.60724 0
M  V30 6138 N 597.285 1.8559 -5.30578 0
M  V30 6139 H 589.436 -0.326881 -2.0987 0
M  V30 6140 H 591.699 -0.0838006 -0.944289 0
M  V30 6141 H 591.405 0.282768 -3.50561 0
M  V30 6142 H 591.279 2.00519 -3.19487 0
M  V30 6143 H 593.666 1.9624 -2.20395 0
M  V30 6144 H 593.747 0.228603 -2.54776 0
M  V30 6145 H 593.391 0.726273 -5.0268 0
M  V30 6146 H 593.321 2.46663 -4.65258 0
M  V30 6147 H 595.812 1.40342 -3.50874 0
M  V30 6148 H 596.125 2.27999 -7.38401 0
M  V30 6149 H 594.47 2.0571 -6.63859 0
M  V30 6150 H 597.661 1.65989 -4.37682 0
M  V30 6151 H 597.834 2.05983 -6.1439 0
M  V30 6152 N 591.24 1.41047 0.703093 0
M  V30 6153 C 592.17 1.45067 1.82969 0
M  V30 6154 C 593.151 0.31016 1.67248 0
M  V30 6155 O 594.336 0.520548 1.87093 0
M  V30 6156 C 591.466 1.32478 3.2104 0
M  V30 6157 C 590.42 2.44262 3.51454 0
M  V30 6158 C 589.746 2.16742 4.88801 0
M  V30 6159 C 591.046 3.86606 3.51189 0
M  V30 6160 H 592.74 2.39353 1.79863 0
M  V30 6161 H 590.286 1.15206 0.863919 0
M  V30 6162 H 592.239 1.33904 3.99559 0
M  V30 6163 H 590.963 0.346735 3.24754 0
M  V30 6164 H 589.622 2.42107 2.75282 0
M  V30 6165 H 589.27 1.17299 4.89132 0
M  V30 6166 H 588.97 2.91643 5.10116 0
M  V30 6167 H 590.494 2.19872 5.69639 0
M  V30 6168 H 591.908 3.90517 4.19725 0
M  V30 6169 H 590.305 4.61128 3.84033 0
M  V30 6170 H 591.375 4.15296 2.50315 0
M  V30 6171 N 592.718 -0.936591 1.26751 0
M  V30 6172 C 593.681 -2.01752 1.08761 0
M  V30 6173 C 594.681 -1.60763 0.0344435 0
M  V30 6174 O 595.871 -1.71963 0.278258 0
M  V30 6175 C 593.003 -3.34543 0.655271 0
M  V30 6176 H 594.196 -2.19143 2.04735 0
M  V30 6177 H 591.749 -1.11618 1.09413 0
M  V30 6178 H 592.484 -3.22851 -0.30626 0
M  V30 6179 H 592.269 -3.65647 1.41578 0
M  V30 6180 H 593.759 -4.13944 0.551378 0
M  V30 6181 N 594.196 -1.08629 -1.14182 0
M  V30 6182 C 595.442 -0.818556 -1.85546 0
M  V30 6183 C 595.775 0.654076 -1.82854 0
M  V30 6184 O 595.05 1.48099 -1.26083 0
M  V30 6185 C 595.333 -1.34397 -3.3408 0
M  V30 6186 C 595.186 -2.8821 -3.45333 0
M  V30 6187 C 596.505 -0.971069 -4.29253 0
M  V30 6188 H 593.624 -0.298821 -0.673702 0
M  V30 6189 H 596.266 -1.34629 -1.34071 0
M  V30 6190 H 594.416 -0.895064 -3.78049 0
M  V30 6191 H 596.088 -3.41488 -3.10134 0
M  V30 6192 H 594.331 -3.25756 -2.86471 0
M  V30 6193 H 595.002 -3.20047 -4.49749 0
M  V30 6194 H 597.478 -1.35809 -3.93313 0
M  V30 6195 H 596.354 -1.36586 -5.31635 0
M  V30 6196 H 596.615 0.121659 -4.41933 0
M  V30 6197 N 595.674 1.31259 -0.872281 0
M  V30 6198 C 596.951 1.91362 -0.404943 0
M  V30 6199 C 597.331 1.79362 1.11321 0
M  V30 6200 O 596.679 1.20277 1.94283 0
M  V30 6201 C 596.889 3.3749 -0.888893 0
M  V30 6202 C 598.237 4.14593 -0.916384 0
M  V30 6203 O 599.261 3.46282 -0.834701 0
M  V30 6204 O 598.12 5.3661 -1.03498 0
M  V30 6205 H 595.214 0.818016 -0.121569 0
M  V30 6206 H 597.76 1.39912 -0.960346 0
M  V30 6207 H 596.532 3.40249 -1.93251 0
M  V30 6208 H 596.155 3.96375 -0.311932 0
M  V30 6209 N 597.152 0.631951 1.44375 0
M  V30 6210 C 598.38 0.143867 2.06399 0
M  V30 6211 C 598.795 -1.18188 1.47231 0
M  V30 6212 O 598.152 -1.72511 0.595498 0
M  V30 6213 C 598.203 0.0238253 3.61492 0
M  V30 6214 O 597.924 1.29715 4.18456 0
M  V30 6215 C 599.425 -0.492856 4.40552 0
M  V30 6216 H 596.645 0.0800542 0.666207 0
M  V30 6217 H 599.189 0.866586 1.85231 0
M  V30 6218 H 597.344 -0.649338 3.81919 0
M  V30 6219 H 597.758 1.14252 5.11905 0
M  V30 6220 H 599.232 -0.525861 5.49489 0
M  V30 6221 H 599.709 -1.52006 4.12057 0
M  V30 6222 H 600.315 0.147085 4.25046 0
M  V30 6223 N 598.631 -1.53133 0.372548 0
M  V30 6224 C 599.908 -1.93704 -0.271693 0
M  V30 6225 C 600.288 -1.30667 -1.65799 0
M  V30 6226 O 599.636 -0.46838 -2.23648 0
M  V30 6227 C 599.846 -3.47576 -0.314903 0
M  V30 6228 C 601.194 -4.20998 -0.551912 0
M  V30 6229 O 602.218 -3.53994 -0.39582 0
M  V30 6230 O 601.077 -5.39748 -0.85639 0
M  V30 6231 H 598.171 -0.810457 -0.164586 0
M  V30 6232 H 600.717 -1.6427 0.425838 0
M  V30 6233 H 599.489 -3.85749 0.656792 0
M  V30 6234 H 599.112 -3.83264 -1.05804 0
M  V30 6235 N 600.109 -0.101901 -1.5727 0
M  V30 6236 C 601.337 0.568392 -1.98939 0
M  V30 6237 C 601.752 1.61301 -0.981194 0
M  V30 6238 O 601.109 1.82478 0.0282869 0
M  V30 6239 C 601.16 1.20997 -3.40649 0
M  V30 6240 O 600.881 0.207129 -4.3761 0
M  V30 6241 C 602.382 1.96523 -3.97358 0
M  V30 6242 H 599.602 0.15186 -0.65359 0
M  V30 6243 H 602.146 -0.183198 -2.03678 0
M  V30 6244 H 600.301 1.91245 -3.36904 0
M  V30 6245 H 600.715 0.671071 -5.20189 0
M  V30 6246 H 602.189 2.36764 -4.98645 0
M  V30 6247 H 602.666 2.83376 -3.35552 0
M  V30 6248 H 603.272 1.31076 -4.04598 0
M  V30 6249 N 601.587 1.56661 0.17182 0
M  V30 6250 C 602.834 1.81965 0.888529 0
M  V30 6251 C 603.162 0.6789 1.82267 0
M  V30 6252 O 602.417 -0.333875 1.92831 0
M  V30 6253 C 602.716 3.13435 1.71736 0
M  V30 6254 C 602.382 4.41159 0.932184 0
M  V30 6255 C 601.044 4.75851 0.715481 0
M  V30 6256 C 603.396 5.19803 0.381387 0
M  V30 6257 C 600.724 5.86666 -0.063126 0
M  V30 6258 C 603.076 6.31433 -0.384129 0
M  V30 6259 C 601.74 6.64692 -0.611637 0
M  V30 6260 H 601.01 0.665859 0.325136 0
M  V30 6261 H 603.657 1.90884 0.153495 0
M  V30 6262 H 601.962 2.99857 2.52177 0
M  V30 6263 H 603.659 3.30224 2.27493 0
M  V30 6264 H 600.249 4.13947 1.11112 0
M  V30 6265 H 604.433 4.93396 0.536148 0
M  V30 6266 H 599.689 6.10892 -0.249136 0
M  V30 6267 H 603.863 6.91577 -0.818185 0
M  V30 6268 H 601.49 7.50398 -1.21684 0
M  V30 6269 N 603.065 -0.440357 1.51323 0
M  V30 6270 C 604.29 -1.21716 1.67928 0
M  V30 6271 C 604.715 -1.84328 0.374826 0
M  V30 6272 O 604.073 -1.68675 -0.664706 0
M  V30 6273 C 604.121 -2.27914 2.79442 0
M  V30 6274 O 603.225 -3.33325 2.42834 0
M  V30 6275 H 602.566 -0.35674 0.560029 0
M  V30 6276 H 605.096 -0.520417 1.97871 0
M  V30 6277 H 605.106 -2.72746 3.03436 0
M  V30 6278 H 603.781 -1.8172 3.741 0
M  V30 6279 H 602.358 -2.9399 2.294 0
M  V30 6280 N 604.543 -1.41418 -0.695603 0
M  V30 6281 C 605.79 -1.40774 -1.45564 0
M  V30 6282 C 606.118 -0.0168604 -1.94493 0
M  V30 6283 O 605.373 0.971259 -1.69897 0
M  V30 6284 C 605.672 -2.36112 -2.68302 0
M  V30 6285 C 605.338 -3.82952 -2.38031 0
M  V30 6286 C 604 -4.22954 -2.29486 0
M  V30 6287 C 606.352 -4.75662 -2.13061 0
M  V30 6288 C 603.68 -5.53674 -1.94067 0
M  V30 6289 C 606.032 -6.06702 -1.79151 0
M  V30 6290 C 604.696 -6.45725 -1.69102 0
M  V30 6291 H 603.966 -0.515128 -0.532658 0
M  V30 6292 H 606.613 -1.74216 -0.795047 0
M  V30 6293 H 604.918 -1.95924 -3.39295 0
M  V30 6294 H 606.615 -2.32887 -3.26442 0
M  V30 6295 H 603.205 -3.5127 -2.45576 0
M  V30 6296 H 607.389 -4.45561 -2.18608 0
M  V30 6297 H 602.645 -5.8279 -1.8484 0
M  V30 6298 H 606.819 -6.78041 -1.5885 0
M  V30 6299 H 604.446 -7.46929 -1.41426 0
M  V30 6300 N 606.021 0.929856 -1.27246 0
M  V30 6301 C 607.269 1.674 -1.13233 0
M  V30 6302 C 607.59 1.92311 0.322744 0
M  V30 6303 O 606.86 1.52784 1.22612 0
M  V30 6304 H 605.44 0.620411 -0.416052 0
M  V30 6305 H 608.102 1.11663 -1.59741 0
M  V30 6306 H 607.198 2.64308 -1.65975 0
M  V30 6307 N 607.499 1.09233 1.13605 0
M  V30 6308 C 608.745 0.828385 1.8511 0
M  V30 6309 C 609.078 -0.64437 1.83198 0
M  V30 6310 O 608.353 -1.47428 1.26867 0
M  V30 6311 C 608.636 1.36167 3.33363 0
M  V30 6312 C 608.489 2.90038 3.438 0
M  V30 6313 C 609.808 0.993819 4.28732 0
M  V30 6314 H 606.927 0.30239 0.672108 0
M  V30 6315 H 609.569 1.35339 1.33355 0
M  V30 6316 H 607.719 0.9151 3.77569 0
M  V30 6317 H 609.391 3.43128 3.08319 0
M  V30 6318 H 607.634 3.27271 2.84739 0
M  V30 6319 H 608.305 3.22428 4.48045 0
M  V30 6320 H 610.781 1.37893 3.92587 0
M  V30 6321 H 609.657 1.39403 5.30903 0
M  V30 6322 H 609.918 -0.0982206 4.41991 0
M  V30 6323 N 608.977 -1.30795 0.87923 0
M  V30 6324 C 610.223 -1.96653 0.495519 0
M  V30 6325 C 610.556 -1.69282 -0.951703 0
M  V30 6326 O 609.831 -0.994374 -1.6716 0
M  V30 6327 C 610.114 -3.51898 0.764174 0
M  V30 6328 C 609.967 -3.88808 2.2616 0
M  V30 6329 C 611.286 -4.39462 0.236825 0
M  V30 6330 H 608.405 -0.7143 0.181507 0
M  V30 6331 H 611.047 -1.54765 1.10217 0
M  V30 6332 H 609.197 -3.87709 0.247841 0
M  V30 6333 H 610.869 -3.63051 2.8459 0
M  V30 6334 H 609.112 -3.37082 2.73053 0
M  V30 6335 H 609.783 -4.97086 2.4002 0
M  V30 6336 H 612.259 -4.10528 0.678683 0
M  V30 6337 H 611.135 -5.47018 0.454176 0
M  V30 6338 H 611.396 -4.33621 -0.861683 0
M  V30 6339 N 610.455 -0.639598 -1.44038 0
M  V30 6340 C 611.701 -0.147698 -2.02261 0
M  V30 6341 C 612.034 1.23031 -1.50256 0
M  V30 6342 O 611.309 1.81847 -0.690068 0
M  V30 6343 C 611.592 -0.14362 -3.59813 0
M  V30 6344 C 611.445 -1.55458 -4.22082 0
M  V30 6345 C 612.764 0.527317 -4.36929 0
M  V30 6346 H 609.883 -0.0551453 -0.734934 0
M  V30 6347 H 612.525 -0.817688 -1.71505 0
M  V30 6348 H 610.675 0.426898 -3.86147 0
M  V30 6349 H 612.347 -2.17464 -4.06826 0
M  V30 6350 H 610.59 -2.10594 -3.79253 0
M  V30 6351 H 611.261 -1.50369 -5.31124 0
M  V30 6352 H 613.737 0.0420504 -4.16079 0
M  V30 6353 H 612.613 0.499389 -5.46624 0
M  V30 6354 H 612.874 1.59914 -4.12165 0
M  V30 6355 N 611.933 1.52934 -0.380664 0
M  V30 6356 C 612.863 2.29118 0.450268 0
M  V30 6357 C 613.844 1.32153 1.07096 0
M  V30 6358 O 615.029 1.61038 1.08537 0
M  V30 6359 C 612.159 3.09161 1.58231 0
M  V30 6360 C 611.113 4.13938 1.0881 0
M  V30 6361 C 610.439 4.82153 2.31155 0
M  V30 6362 C 611.739 5.22048 0.162146 0
M  V30 6363 H 613.433 2.98826 -0.185361 0
M  V30 6364 H 610.979 1.43715 -0.0905886 0
M  V30 6365 H 612.932 3.61211 2.17036 0
M  V30 6366 H 611.656 2.3717 2.2454 0
M  V30 6367 H 610.315 3.62855 0.522633 0
M  V30 6368 H 609.963 4.06719 2.95953 0
M  V30 6369 H 609.663 5.52966 1.98752 0
M  V30 6370 H 611.187 5.37004 2.90618 0
M  V30 6371 H 612.601 5.6951 0.658126 0
M  V30 6372 H 610.998 6.00057 -0.0717122 0
M  V30 6373 H 612.068 4.78398 -0.791438 0
M  V30 6374 N 613.412 0.11024 1.57214 0
M  V30 6375 C 614.322 -0.857077 2.18383 0
M  V30 6376 C 615.338 -1.29915 1.1575 0
M  V30 6377 O 616.514 -1.36394 1.48184 0
M  V30 6378 C 613.579 -2.09264 2.76423 0
M  V30 6379 C 612.64 -1.70333 3.94063 0
M  V30 6380 C 611.873 -2.87999 4.49324 0
M  V30 6381 O 612.096 -4.0317 4.03497 0
M  V30 6382 O 611.03 -2.6559 5.40135 0
M  V30 6383 H 614.856 -0.366561 3.0148 0
M  V30 6384 H 612.441 -0.114914 1.48957 0
M  V30 6385 H 614.323 -2.81644 3.13456 0
M  V30 6386 H 612.998 -2.57339 1.96363 0
M  V30 6387 H 611.905 -0.950864 3.61814 0
M  V30 6388 H 613.238 -1.27007 4.75531 0
M  V30 6389 N 614.89 -1.56749 -0.16351 0
M  V30 6390 C 616.118 -1.86577 -0.894233 0
M  V30 6391 C 616.533 -0.696543 -1.75481 0
M  V30 6392 O 615.89 0.334161 -1.79415 0
M  V30 6393 C 615.941 -3.15508 -1.76456 0
M  V30 6394 O 615.662 -4.27926 -0.938685 0
M  V30 6395 C 617.163 -3.58737 -2.60428 0
M  V30 6396 H 614.383 -0.618829 -0.259405 0
M  V30 6397 H 616.927 -2.03863 -0.161259 0
M  V30 6398 H 615.082 -3.00025 -2.45079 0
M  V30 6399 H 615.496 -5.01546 -1.53465 0
M  V30 6400 H 616.97 -4.51832 -3.17099 0
M  V30 6401 H 617.447 -2.83229 -3.35675 0
M  V30 6402 H 618.053 -3.76858 -1.97125 0
M  V30 6403 N 616.368 0.432326 -1.51554 0
M  V30 6404 C 617.298 1.53242 -1.76179 0
M  V30 6405 C 618.279 1.58717 -0.611801 0
M  V30 6406 O 619.464 1.74364 -0.855033 0
M  V30 6407 C 616.594 2.91278 -1.89141 0
M  V30 6408 C 615.548 3.00663 -3.04608 0
M  V30 6409 C 614.874 4.40728 -3.02759 0
M  V30 6410 C 616.174 2.74281 -4.44485 0
M  V30 6411 H 617.868 1.32886 -2.68294 0
M  V30 6412 H 615.414 0.637841 -1.29103 0
M  V30 6413 H 617.367 3.68203 -2.04951 0
M  V30 6414 H 616.091 3.12877 -0.936785 0
M  V30 6415 H 614.75 2.26179 -2.88511 0
M  V30 6416 H 614.398 4.59301 -2.05065 0
M  V30 6417 H 614.098 4.47936 -3.80299 0
M  V30 6418 H 615.622 5.19619 -3.20669 0
M  V30 6419 H 617.036 3.40936 -4.60907 0
M  V30 6420 H 615.433 2.92893 -5.23769 0
M  V30 6421 H 616.503 1.69856 -4.54177 0
M  V30 6422 N 617.846 1.41785 0.688094 0
M  V30 6423 C 618.809 1.43936 1.78368 0
M  V30 6424 C 619.809 0.328866 1.57401 0
M  V30 6425 O 620.999 0.589093 1.63937 0
M  V30 6426 C 618.131 1.25804 3.16838 0
M  V30 6427 H 619.324 2.41472 1.77852 0
M  V30 6428 H 616.877 1.28037 0.896448 0
M  V30 6429 H 617.612 0.291386 3.22988 0
M  V30 6430 H 617.397 2.06272 3.33458 0
M  V30 6431 H 618.887 1.30162 3.96797 0
M  V30 6432 N 619.324 -0.923095 1.27737 0
M  V30 6433 C 620.572 -1.66797 1.14119 0
M  V30 6434 C 620.893 -1.92479 -0.312541 0
M  V30 6435 O 620.163 -1.53432 -1.218 0
M  V30 6436 H 618.743 -0.618196 0.419336 0
M  V30 6437 H 621.405 -1.10815 1.60331 0
M  V30 6438 H 620.501 -2.63424 1.67374 0
M  V30 6439 N 620.802 -1.09834 -1.13024 0
M  V30 6440 C 621.734 -0.699379 -2.18269 0
M  V30 6441 C 622.747 0.260841 -1.60697 0
M  V30 6442 O 623.936 0.0462538 -1.7844 0
M  V30 6443 C 621.036 -0.0104537 -3.38898 0
M  V30 6444 C 620.209 -0.993275 -4.25973 0
M  V30 6445 C 619.268 -0.336982 -5.2512 0
M  V30 6446 O 618.294 -0.985892 -5.60597 0
M  V30 6447 N 619.496 0.90716 -5.73368 0
M  V30 6448 H 622.261 -1.60486 -2.5311 0
M  V30 6449 H 619.822 -0.986337 -1.28386 0
M  V30 6450 H 621.814 0.43991 -4.02302 0
M  V30 6451 H 620.384 0.797335 -3.0226 0
M  V30 6452 H 619.604 -1.62208 -3.5928 0
M  V30 6453 H 620.892 -1.65876 -4.81002 0
M  V30 6454 H 620.29 1.45384 -5.46699 0
M  V30 6455 H 618.847 1.30077 -6.38689 0
M  V30 6456 N 622.28 1.30327 -0.886154 0
M  V30 6457 C 623.696 1.48676 -0.580323 0
M  V30 6458 C 623.896 1.81189 0.881639 0
M  V30 6459 O 622.952 1.90021 1.66278 0
M  V30 6460 C 624.265 2.60932 -1.49449 0
M  V30 6461 C 625.813 2.74812 -1.49824 0
M  V30 6462 C 626.288 3.90183 -2.39836 0
M  V30 6463 N 627.779 3.97495 -2.37806 0
M  V30 6464 C 628.514 4.86078 -3.04165 0
M  V30 6465 N 628.01 5.79448 -3.79753 0
M  V30 6466 N 629.803 4.79456 -2.93391 0
M  V30 6467 H 621.954 1.07495 -1.8319 0
M  V30 6468 H 624.217 0.532661 -0.784204 0
M  V30 6469 H 623.923 2.43731 -2.5355 0
M  V30 6470 H 623.797 3.57437 -1.20494 0
M  V30 6471 H 626.184 2.91418 -0.464731 0
M  V30 6472 H 626.265 1.78924 -1.82811 0
M  V30 6473 H 625.909 3.74334 -3.43273 0
M  V30 6474 H 625.839 4.85411 -2.04166 0
M  V30 6475 H 628.33 3.30703 -1.82877 0
M  V30 6476 H 628.643 6.43805 -4.27475 0
M  V30 6477 H 626.988 5.79376 -3.8386 0
M  V30 6478 H 630.179 4.05494 -2.33864 0
M  V30 6479 H 630.352 5.48283 -3.45383 0
M  V30 6480 N 623.758 0.647228 1.43697 0
M  V30 6481 C 624.721 -0.0385101 2.29168 0
M  V30 6482 C 625.721 -0.756487 1.41894 0
M  V30 6483 O 626.911 -0.598641 1.63591 0
M  V30 6484 C 624.043 -1.06524 3.23829 0
M  V30 6485 H 625.236 0.713445 2.9129 0
M  V30 6486 H 622.789 0.408153 1.50877 0
M  V30 6487 H 623.524 -1.84664 2.66589 0
M  V30 6488 H 623.309 -0.554147 3.88164 0
M  V30 6489 H 624.799 -1.54432 3.87996 0
M  V30 6490 N 625.236 -1.5273 0.388769 0
M  V30 6491 C 626.482 -2.01871 -0.193877 0
M  V30 6492 C 626.815 -1.27475 -1.46505 0
M  V30 6493 O 626.09 -0.375063 -1.90849 0
M  V30 6494 C 626.373 -3.5712 -0.462336 0
M  V30 6495 C 626.226 -4.42186 0.824091 0
M  V30 6496 C 627.545 -4.21881 -1.25319 0
M  V30 6497 H 624.664 -0.733764 -0.0689899 0
M  V30 6498 H 627.306 -1.82796 0.518231 0
M  V30 6499 H 625.456 -3.73504 -1.06896 0
M  V30 6500 H 627.128 -4.37554 1.46096 0
M  V30 6501 H 625.371 -4.09219 1.43952 0
M  V30 6502 H 626.042 -5.48828 0.590905 0
M  V30 6503 H 628.518 -4.0947 -0.73981 0
M  V30 6504 H 627.394 -5.30487 -1.40977 0
M  V30 6505 H 627.655 -3.79478 -2.26824 0
M  V30 6506 N 626.714 -0.118576 -1.57153 0
M  V30 6507 C 627.661 0.831789 -2.1529 0
M  V30 6508 C 628.631 1.26385 -1.07778 0
M  V30 6509 O 629.816 1.34144 -1.35684 0
M  V30 6510 C 626.956 2.07664 -2.75626 0
M  V30 6511 C 626.069 1.69298 -3.97444 0
M  V30 6512 C 625.204 2.88747 -4.45868 0
M  V30 6513 C 624.243 2.46619 -5.60219 0
M  V30 6514 N 623.38 3.5898 -6.03389 0
M  V30 6515 H 628.22 0.329183 -2.96176 0
M  V30 6516 H 625.757 0.150792 -1.46325 0
M  V30 6517 H 627.715 2.80601 -3.08738 0
M  V30 6518 H 626.345 2.55384 -1.97431 0
M  V30 6519 H 625.397 0.862374 -3.70496 0
M  V30 6520 H 626.709 1.34338 -4.80369 0
M  V30 6521 H 625.863 3.69909 -4.80887 0
M  V30 6522 H 624.602 3.26933 -3.61892 0
M  V30 6523 H 623.607 1.63889 -5.24805 0
M  V30 6524 H 624.832 2.0955 -6.45961 0
M  V30 6525 H 622.778 3.9684 -5.22354 0
M  V30 6526 H 622.695 3.27942 -6.81168 0
M  V30 6527 H 623.963 4.40583 -6.43045 0
M  V30 6528 N 628.193 1.56834 0.155195 0
M  V30 6529 C 629.421 1.87049 0.884326 0
M  V30 6530 C 629.836 0.705839 1.7511 0
M  V30 6531 O 629.193 -0.324641 1.79589 0
M  V30 6532 C 629.244 3.1644 1.74781 0
M  V30 6533 O 628.965 4.28417 0.915978 0
M  V30 6534 C 630.466 3.60113 2.58522 0
M  V30 6535 H 627.686 0.620196 0.25612 0
M  V30 6536 H 630.23 2.03946 0.150445 0
M  V30 6537 H 628.385 3.01321 2.43484 0
M  V30 6538 H 628.799 5.02353 1.50803 0
M  V30 6539 H 630.273 4.53508 3.14698 0
M  V30 6540 H 630.75 2.85005 3.34169 0
M  V30 6541 H 631.356 3.77898 1.95124 0
M  V30 6542 N 629.671 -0.424282 1.51781 0
M  V30 6543 C 630.621 -1.51464 1.70419 0
M  V30 6544 C 631.605 -1.50911 0.558094 0
M  V30 6545 O 632.797 -1.57143 0.814552 0
M  V30 6546 C 629.926 -2.89539 1.84451 0
M  V30 6547 C 629.012 -2.94798 3.04886 0
M  V30 6548 N 629.403 -2.69778 4.27848 0
M  V30 6549 C 627.701 -3.25962 3.04408 0
M  V30 6550 C 628.402 -2.81216 5.09208 0
M  V30 6551 N 627.378 -3.13447 4.44131 0
M  V30 6552 H 631.18 -1.30892 2.63144 0
M  V30 6553 H 628.694 -0.631783 1.49607 0
M  V30 6554 H 630.691 -3.67998 1.95917 0
M  V30 6555 H 629.351 -3.11121 0.929168 0
M  V30 6556 H 630.362 -2.44458 4.56575 0
M  V30 6557 H 627.039 -3.53236 2.22555 0
M  V30 6558 H 628.429 -2.65715 6.17127 0
M  V30 6559 N 631.149 -1.42148 -0.680565 0
M  V30 6560 C 632.397 -1.42029 -1.43779 0
M  V30 6561 C 632.718 -0.0356347 -1.94967 0
M  V30 6562 O 631.988 0.924936 -1.7269 0
M  V30 6563 H 630.568 -0.522835 -0.533529 0
M  V30 6564 H 633.23 -1.7752 -0.804538 0
M  V30 6565 H 632.326 -2.11658 -2.29363 0
M  V30 6566 N 632.627 0.916307 -1.28225 0
M  V30 6567 C 633.59 1.99996 -1.11957 0
M  V30 6568 C 634.59 1.60688 -0.0600152 0
M  V30 6569 O 635.78 1.71499 -0.30558 0
M  V30 6570 C 632.912 3.33458 -0.708411 0
M  V30 6571 H 634.105 2.15858 -2.08196 0
M  V30 6572 H 631.658 1.09863 -1.11175 0
M  V30 6573 H 632.393 3.23297 0.254859 0
M  V30 6574 H 632.178 3.63349 -1.47377 0
M  V30 6575 H 633.668 4.13014 -0.617164 0
M  V30 6576 N 634.105 1.10431 1.1244 0
M  V30 6577 C 635.521 0.836096 1.35947 0
M  V30 6578 C 635.721 -0.544475 1.94004 0
M  V30 6579 O 634.777 -1.29735 2.16622 0
M  V30 6580 C 636.09 1.93575 2.30107 0
M  V30 6581 C 637.638 1.9642 2.43697 0
M  V30 6582 C 638.113 3.05559 3.41171 0
M  V30 6583 N 639.604 3.04865 3.48728 0
M  V30 6584 C 640.339 3.85954 4.24061 0
M  V30 6585 N 639.835 4.76977 5.02458 0
M  V30 6586 N 641.628 3.74172 4.19466 0
M  V30 6587 H 633.779 1.9942 0.731124 0
M  V30 6588 H 636.042 0.866607 0.384312 0
M  V30 6589 H 635.748 2.92943 1.94621 0
M  V30 6590 H 635.622 1.8229 3.30227 0
M  V30 6591 H 638.009 0.97685 2.78463 0
M  V30 6592 H 638.09 2.11782 1.43465 0
M  V30 6593 H 637.734 4.04513 3.07135 0
M  V30 6594 H 637.664 2.87438 4.41234 0
M  V30 6595 H 640.155 2.38908 2.92799 0
M  V30 6596 H 640.468 5.35409 5.57277 0
M  V30 6597 H 638.813 4.81006 5.01655 0
M  V30 6598 H 642.004 3.02412 3.57302 0
M  V30 6599 H 642.177 4.37602 4.77921 0
M  V30 6600 N 635.583 -1.29855 0.893053 0
M  V30 6601 C 636.811 -1.99976 0.530788 0
M  V30 6602 C 637.226 -1.66889 -0.882799 0
M  V30 6603 O 636.583 -0.910352 -1.58173 0
M  V30 6604 C 636.634 -3.54547 0.705587 0
M  V30 6605 O 636.355 -3.86458 2.06353 0
M  V30 6606 C 637.856 -4.41937 0.347387 0
M  V30 6607 H 635.076 -0.639129 0.204339 0
M  V30 6608 H 637.62 -1.65549 1.20057 0
M  V30 6609 H 635.775 -3.87311 0.0830685 0
M  V30 6610 H 636.189 -4.81146 2.08803 0
M  V30 6611 H 637.663 -5.4954 0.520557 0
M  V30 6612 H 638.14 -4.33339 -0.715139 0
M  V30 6613 H 638.746 -4.14633 0.946567 0
M  V30 6614 N 637.061 -0.65484 -1.43351 0
M  V30 6615 C 638.008 0.0357713 -2.30772 0
M  V30 6616 C 638.978 0.813035 -1.44841 0
M  V30 6617 O 640.163 0.789314 -1.73708 0
M  V30 6618 C 637.303 0.995084 -3.30442 0
M  V30 6619 C 636.416 0.21375 -4.31471 0
M  V30 6620 C 635.551 1.16701 -5.18222 0
M  V30 6621 C 634.59 0.376201 -6.10943 0
M  V30 6622 N 633.727 1.28113 -6.90313 0
M  V30 6623 H 638.567 -0.71559 -2.89281 0
M  V30 6624 H 636.104 -0.364645 -1.42509 0
M  V30 6625 H 638.062 1.5649 -3.86739 0
M  V30 6626 H 636.692 1.7133 -2.7358 0
M  V30 6627 H 635.744 -0.472377 -3.77456 0
M  V30 6628 H 637.056 -0.401103 -4.97185 0
M  V30 6629 H 636.21 1.8074 -5.79153 0
M  V30 6630 H 634.949 1.81577 -4.52638 0
M  V30 6631 H 633.954 -0.277534 -5.49099 0
M  V30 6632 H 635.179 -0.268178 -6.7857 0
M  V30 6633 H 633.125 1.91666 -6.27376 0
M  V30 6634 H 633.042 0.720879 -7.52555 0
M  V30 6635 H 634.31 1.90962 -7.55747 0
M  V30 6636 N 638.539 1.52521 -0.396863 0
M  V30 6637 C 639.769 2.05792 0.182485 0
M  V30 6638 C 640.177 1.26784 1.40436 0
M  V30 6639 O 639.52 0.309617 1.81072 0
M  V30 6640 C 639.582 3.54291 0.609781 0
M  V30 6641 C 639.246 4.5426 -0.499674 0
M  V30 6642 C 640.243 5.01812 -1.35944 0
M  V30 6643 C 637.928 4.97827 -0.668864 0
M  V30 6644 C 639.922 5.91562 -2.37346 0
M  V30 6645 C 637.609 5.87376 -1.68621 0
M  V30 6646 C 638.607 6.34137 -2.53692 0
M  V30 6647 O 638.295 7.21915 -3.53686 0
M  V30 6648 H 638.027 0.675362 0.0293583 0
M  V30 6649 H 640.581 1.97539 -0.56281 0
M  V30 6650 H 638.811 3.60188 1.40717 0
M  V30 6651 H 640.5 3.90267 1.11565 0
M  V30 6652 H 641.266 4.68879 -1.24008 0
M  V30 6653 H 637.145 4.60997 -0.0163971 0
M  V30 6654 H 640.689 6.27983 -3.03782 0
M  V30 6655 H 636.586 6.19723 -1.80593 0
M  V30 6656 H 637.354 7.39996 -3.49784 0
M  V30 6657 N 640.017 0.126909 1.57088 0
M  V30 6658 C 640.947 -0.816847 2.18746 0
M  V30 6659 C 641.928 -1.27161 1.12979 0
M  V30 6660 O 643.113 -1.33279 1.41246 0
M  V30 6661 C 640.243 -2.06398 2.79315 0
M  V30 6662 C 639.197 -1.74673 3.90735 0
M  V30 6663 C 638.523 -3.06482 4.38147 0
M  V30 6664 C 639.823 -1.0089 5.12463 0
M  V30 6665 H 641.517 -0.303032 2.97863 0
M  V30 6666 H 639.063 -0.144314 1.43275 0
M  V30 6667 H 641.016 -2.72885 3.2111 0
M  V30 6668 H 639.74 -2.60118 1.975 0
M  V30 6669 H 638.399 -1.10572 3.49527 0
M  V30 6670 H 638.047 -3.58152 3.5318 0
M  V30 6671 H 637.747 -2.86025 5.13287 0
M  V30 6672 H 639.271 -3.74073 4.82599 0
M  V30 6673 H 640.685 -1.57546 5.51228 0
M  V30 6674 H 639.082 -0.905006 5.93237 0
M  V30 6675 H 640.152 0.00297335 4.849 0
M  V30 6676 N 641.495 -1.56914 -0.146875 0
M  V30 6677 C 642.442 -1.98275 -1.18134 0
M  V30 6678 C 643.412 -0.850367 -1.42681 0
M  V30 6679 O 644.597 -1.11244 -1.55014 0
M  V30 6680 C 641.737 -2.36861 -2.5098 0
M  V30 6681 C 640.85 -3.63391 -2.33605 0
M  V30 6682 C 639.985 -3.91079 -3.59486 0
M  V30 6683 C 639.024 -5.10879 -3.37149 0
M  V30 6684 N 638.161 -5.34577 -4.55161 0
M  V30 6685 H 643.001 -2.8645 -0.821622 0
M  V30 6686 H 640.538 -1.41718 -0.394248 0
M  V30 6687 H 642.496 -2.57262 -3.28439 0
M  V30 6688 H 641.126 -1.51766 -2.84898 0
M  V30 6689 H 640.178 -3.50766 -1.47199 0
M  V30 6690 H 641.49 -4.51007 -2.13059 0
M  V30 6691 H 640.644 -4.11979 -4.45374 0
M  V30 6692 H 639.383 -3.01885 -3.83036 0
M  V30 6693 H 638.388 -4.89853 -2.49649 0
M  V30 6694 H 639.613 -6.01626 -3.14997 0
M  V30 6695 H 637.559 -4.48337 -4.78884 0
M  V30 6696 H 637.476 -6.16463 -4.37618 0
M  V30 6697 H 638.744 -5.59975 -5.42263 0
M  V30 6698 N 642.974 0.416227 -1.52004 0
M  V30 6699 C 644.251 1.17637 -1.56272 0
M  V30 6700 C 644.631 2.08352 -0.339493 0
M  V30 6701 O 643.979 2.1833 0.674124 0
M  V30 6702 C 644.189 1.95986 -2.88774 0
M  V30 6703 C 645.537 2.52299 -3.41512 0
M  V30 6704 O 646.561 2.06174 -2.90467 0
M  V30 6705 O 645.42 3.3648 -4.30631 0
M  V30 6706 H 642.514 0.536726 -0.629169 0
M  V30 6707 H 645.06 0.423583 -1.64329 0
M  V30 6708 H 643.832 1.29487 -3.69254 0
M  V30 6709 H 643.455 2.78285 -2.83978 0
M  V30 6710 N 644.452 1.42507 0.673017 0
M  V30 6711 C 645.382 1.48916 1.79851 0
M  V30 6712 C 646.363 0.345566 1.66553 0
M  V30 6713 O 647.548 0.560116 1.85947 0
M  V30 6714 C 644.678 1.39258 3.18158 0
M  V30 6715 C 643.632 2.51662 3.46194 0
M  V30 6716 C 642.958 2.27062 4.84094 0
M  V30 6717 C 644.258 3.93968 3.42909 0
M  V30 6718 H 645.952 2.43114 1.74745 0
M  V30 6719 H 643.498 1.17013 0.839288 0
M  V30 6720 H 645.451 1.42349 3.96629 0
M  V30 6721 H 644.175 0.415542 3.23946 0
M  V30 6722 H 642.834 2.47891 2.70084 0
M  V30 6723 H 642.482 1.27648 4.86534 0
M  V30 6724 H 642.182 3.02398 5.03815 0
M  V30 6725 H 643.706 2.31905 5.64847 0
M  V30 6726 H 645.12 3.99332 4.11347 0
M  V30 6727 H 643.517 4.6917 3.74165 0
M  V30 6728 H 644.587 4.20512 2.41449 0
M  V30 6729 N 645.93 -0.909495 1.28709 0
M  V30 6730 C 647.176 -1.66151 1.16283 0
M  V30 6731 C 647.509 -1.92067 -0.287069 0
M  V30 6732 O 646.784 -1.52409 -1.20837 0
M  V30 6733 C 647.067 -3.01676 1.9663 0
M  V30 6734 C 646.92 -2.82888 3.49707 0
M  V30 6735 C 648.239 -4.02274 1.78504 0
M  V30 6736 H 645.358 -0.602966 0.423793 0
M  V30 6737 H 648 -1.05418 1.58073 0
M  V30 6738 H 646.15 -3.53515 1.61119 0
M  V30 6739 H 647.822 -2.38026 3.95147 0
M  V30 6740 H 646.065 -2.17862 3.75125 0
M  V30 6741 H 646.736 -3.79147 4.01187 0
M  V30 6742 H 649.212 -3.59511 2.09503 0
M  V30 6743 H 648.088 -4.95056 2.37088 0
M  V30 6744 H 648.349 -4.35903 0.737647 0
M  V30 6745 N 647.408 -1.11026 -1.11852 0
M  V30 6746 C 648.318 -0.777252 -2.2135 0
M  V30 6747 C 649.334 0.227821 -1.72502 0
M  V30 6748 O 650.51 0.0650587 -2.01295 0
M  V30 6749 C 647.575 -0.220668 -3.45997 0
M  V30 6750 C 646.636 -1.2838 -4.09655 0
M  V30 6751 C 645.869 -0.753678 -5.28352 0
M  V30 6752 O 646.092 0.417779 -5.68868 0
M  V30 6753 O 645.026 -1.51647 -5.82483 0
M  V30 6754 H 648.852 -1.69141 -2.5224 0
M  V30 6755 H 646.437 -0.885836 -1.20305 0
M  V30 6756 H 648.319 0.0855756 -4.21313 0
M  V30 6757 H 646.994 0.666262 -3.16769 0
M  V30 6758 H 645.901 -1.64299 -3.3609 0
M  V30 6759 H 647.234 -2.14396 -4.43052 0
M  V30 6760 N 648.886 1.2938 -0.899927 0
M  V30 6761 C 649.796 2.31462 -0.382437 0
M  V30 6762 C 650.812 1.65956 0.522929 0
M  V30 6763 O 651.988 1.97131 0.412454 0
M  V30 6764 C 649.053 3.44595 0.381472 0
M  V30 6765 C 648.114 4.25692 -0.555444 0
M  V30 6766 C 647.347 5.33422 0.172102 0
M  V30 6767 O 647.57 5.53053 1.396 0
M  V30 6768 O 646.504 5.99939 -0.485491 0
M  V30 6769 H 650.33 2.77706 -1.22934 0
M  V30 6770 H 647.915 1.33821 -0.664259 0
M  V30 6771 H 649.797 4.13474 0.813442 0
M  V30 6772 H 648.472 3.00458 1.20443 0
M  V30 6773 H 647.379 3.59453 -1.03653 0
M  V30 6774 H 648.712 4.73471 -1.34483 0
M  V30 6775 N 650.364 0.662433 1.43002 0
M  V30 6776 C 651.274 -0.0239199 2.34588 0
M  V30 6777 C 652.29 -0.802255 1.54402 0
M  V30 6778 O 653.466 -0.747401 1.87018 0
M  V30 6779 C 650.531 -0.972098 3.32793 0
M  V30 6780 C 649.592 -0.189673 4.28881 0
M  V30 6781 C 648.825 -1.09269 5.22395 0
M  V30 6782 O 649.048 -2.33209 5.20547 0
M  V30 6783 O 647.982 -0.560136 5.99288 0
M  V30 6784 H 651.808 0.730171 2.94792 0
M  V30 6785 H 649.393 0.422635 1.43297 0
M  V30 6786 H 651.275 -1.51676 3.93157 0
M  V30 6787 H 649.95 -1.70626 2.75079 0
M  V30 6788 H 648.857 0.398794 3.71968 0
M  V30 6789 H 650.19 0.50511 4.89601 0
M  V30 6790 N 651.842 -1.52309 0.404946 0
M  V30 6791 C 652.805 -2.25491 -0.410651 0
M  V30 6792 C 653.805 -1.27704 -0.977154 0
M  V30 6793 O 654.995 -1.51679 -0.856691 0
M  V30 6794 C 652.127 -3.02197 -1.57765 0
M  V30 6795 H 653.32 -2.99015 0.230277 0
M  V30 6796 H 650.873 -1.55506 0.157377 0
M  V30 6797 H 651.608 -2.33013 -2.25556 0
M  V30 6798 H 651.393 -3.73987 -1.17797 0
M  V30 6799 H 652.883 -3.57719 -2.15469 0
M  V30 6800 N 653.32 -0.135238 -1.57019 0
M  V30 6801 C 654.23 0.822226 -2.19719 0
M  V30 6802 C 655.246 1.28057 -1.17802 0
M  V30 6803 O 656.422 1.3402 -1.50335 0
M  V30 6804 C 653.487 2.0484 -2.79717 0
M  V30 6805 C 652.548 1.64042 -3.96723 0
M  V30 6806 C 651.781 2.80814 -4.53849 0
M  V30 6807 O 652.004 3.967 -4.0986 0
M  V30 6808 O 650.938 2.56963 -5.44292 0
M  V30 6809 H 654.764 0.318552 -3.02025 0
M  V30 6810 H 652.349 0.0912021 -1.49121 0
M  V30 6811 H 654.231 2.76622 -3.17897 0
M  V30 6812 H 652.906 2.54182 -2.00432 0
M  V30 6813 H 651.813 0.893182 -3.63281 0
M  V30 6814 H 653.146 1.19426 -4.77492 0
M  V30 6815 N 654.798 1.5699 0.138552 0
M  V30 6816 C 655.708 2.02174 1.19008 0
M  V30 6817 C 656.724 0.938622 1.46512 0
M  V30 6818 O 657.9 1.24872 1.58016 0
M  V30 6819 C 654.965 2.40045 2.50159 0
M  V30 6820 C 654.026 3.62346 2.30226 0
M  V30 6821 C 653.259 3.98401 3.55123 0
M  V30 6822 O 653.482 3.35019 4.61647 0
M  V30 6823 O 652.416 4.91606 3.47285 0
M  V30 6824 H 656.242 2.91954 0.836452 0
M  V30 6825 H 653.827 1.45293 0.347907 0
M  V30 6826 H 655.709 2.65225 3.27465 0
M  V30 6827 H 654.384 1.53417 2.85035 0
M  V30 6828 H 653.291 3.42341 1.50843 0
M  V30 6829 H 654.624 4.49617 2.00262 0
M  V30 6830 N 656.276 -0.40816 1.52223 0
M  V30 6831 C 657.239 -1.48 1.7501 0
M  V30 6832 C 658.239 -1.48367 0.619996 0
M  V30 6833 O 659.429 -1.49874 0.887881 0
M  V30 6834 C 656.561 -2.87403 1.83336 0
M  V30 6835 H 657.754 -1.29086 2.70697 0
M  V30 6836 H 655.307 -0.638715 1.42654 0
M  V30 6837 H 656.042 -3.11686 0.895677 0
M  V30 6838 H 655.827 -2.8854 2.65494 0
M  V30 6839 H 657.317 -3.65103 2.02705 0
M  V30 6840 N 657.755 -1.42862 -0.66545 0
M  V30 6841 C 659.003 -1.43546 -1.42264 0
M  V30 6842 C 659.324 -0.0563116 -1.94919 0
M  V30 6843 O 658.594 0.906568 -1.73661 0
M  V30 6844 H 657.174 -0.528464 -0.527953 0
M  V30 6845 H 659.836 -1.78363 -0.785665 0
M  V30 6846 H 658.932 -2.14079 -2.27105 0
M  V30 6847 N 659.233 0.902656 -1.29189 0
M  V30 6848 C 660.479 1.65532 -1.17163 0
M  V30 6849 C 660.812 1.92216 0.276879 0
M  V30 6850 O 660.087 1.53048 1.20027 0
M  V30 6851 C 660.37 3.00629 -1.98228 0
M  V30 6852 C 660.223 2.81029 -3.51202 0
M  V30 6853 C 661.542 4.01321 -1.80635 0
M  V30 6854 H 658.661 0.60071 -0.426985 0
M  V30 6855 H 661.303 1.04578 -1.5863 0
M  V30 6856 H 659.453 3.52656 -1.62991 0
M  V30 6857 H 661.125 2.35927 -3.96404 0
M  V30 6858 H 659.368 2.1587 -3.76275 0
M  V30 6859 H 660.039 3.77014 -4.03192 0
M  V30 6860 H 662.515 3.58394 -2.11406 0
M  V30 6861 H 661.391 4.93792 -2.3971 0
M  V30 6862 H 661.652 4.35505 -0.760754 0
M  V30 6863 N 660.711 1.11618 1.11262 0
M  V30 6864 C 661.674 0.779447 2.15539 0
M  V30 6865 C 662.674 -0.202081 1.59525 0
M  V30 6866 O 663.864 0.0226356 1.74185 0
M  V30 6867 C 660.996 0.15674 3.40539 0
M  V30 6868 H 662.189 1.70324 2.4684 0
M  V30 6869 H 659.742 0.918298 1.26479 0
M  V30 6870 H 660.477 -0.777186 3.1485 0
M  V30 6871 H 660.262 0.863308 3.82478 0
M  V30 6872 H 661.752 -0.062661 4.17553 0
M  V30 6873 N 662.189 -1.289 0.906776 0
M  V30 6874 C 663.119 -2.29932 0.406659 0
M  V30 6875 C 664.1 -1.6189 -0.522061 0
M  V30 6876 O 665.285 -1.8935 -0.431283 0
M  V30 6877 C 662.415 -3.45425 -0.360366 0
M  V30 6878 C 661.369 -4.25316 0.478574 0
M  V30 6879 C 660.695 -5.33076 -0.416373 0
M  V30 6880 C 661.995 -4.92739 1.7322 0
M  V30 6881 H 663.689 -2.72013 1.25097 0
M  V30 6882 H 661.235 -1.30768 0.602977 0
M  V30 6883 H 663.188 -4.15186 -0.721029 0
M  V30 6884 H 661.912 -3.02206 -1.23852 0
M  V30 6885 H 660.571 -3.57273 0.821662 0
M  V30 6886 H 660.219 -4.86101 -1.29287 0
M  V30 6887 H 659.919 -5.8743 0.141309 0
M  V30 6888 H 661.443 -6.05686 -0.773072 0
M  V30 6889 H 662.857 -5.54898 1.44086 0
M  V30 6890 H 661.254 -5.57057 2.23175 0
M  V30 6891 H 662.324 -4.17625 2.46408 0
M  V30 6892 N 663.667 -0.670007 -1.42649 0
M  V30 6893 C 665.083 -0.33911 -1.55956 0
M  V30 6894 C 665.283 1.1558 -1.65056 0
M  V30 6895 O 664.339 1.94111 -1.61485 0
M  V30 6896 C 665.652 -1.06522 -2.812 0
M  V30 6897 C 667.2 -1.04708 -2.94966 0
M  V30 6898 C 667.675 -1.75442 -4.23065 0
M  V30 6899 N 669.166 -1.72286 -4.29967 0
M  V30 6900 C 669.901 -2.23877 -5.27889 0
M  V30 6901 N 669.397 -2.83829 -6.31991 0
M  V30 6902 N 671.19 -2.14279 -5.19654 0
M  V30 6903 H 663.341 -1.6399 -1.34986 0
M  V30 6904 H 665.604 -0.690603 -0.649439 0
M  V30 6905 H 665.31 -2.12033 -2.80597 0
M  V30 6906 H 665.184 -0.627398 -3.71946 0
M  V30 6907 H 667.571 -0.000315966 -2.951 0
M  V30 6908 H 667.652 -1.52374 -2.05465 0
M  V30 6909 H 667.296 -2.80084 -4.23693 0
M  V30 6910 H 667.226 -1.25229 -5.11493 0
M  V30 6911 H 669.717 -1.28554 -3.55362 0
M  V30 6912 H 670.03 -3.20827 -7.03057 0
M  V30 6913 H 668.375 -2.87896 -6.32567 0
M  V30 6914 H 671.566 -1.67135 -4.37245 0
M  V30 6915 H 671.739 -2.54792 -5.95806 0
M  V30 6916 N 665.145 1.52092 -0.413018 0
M  V30 6917 C 666.37 2.06756 0.163338 0
M  V30 6918 C 666.795 1.28073 1.37764 0
M  V30 6919 O 666.153 0.312015 1.78595 0
M  V30 6920 C 666.201 3.57278 0.488322 0
M  V30 6921 O 665.305 3.80986 1.57871 0
M  V30 6922 H 664.646 0.663882 0.0125068 0
M  V30 6923 H 667.176 1.95988 -0.587339 0
M  V30 6924 H 667.186 4.01125 0.745836 0
M  V30 6925 H 665.861 4.13978 -0.399327 0
M  V30 6926 H 664.438 3.49017 1.31306 0
M  V30 6927 N 666.623 0.143563 1.56945 0
M  V30 6928 C 667.851 -0.515447 2.00377 0
M  V30 6929 C 668.266 -1.58643 1.02361 0
M  V30 6930 O 667.623 -1.82489 0.0201039 0
M  V30 6931 C 667.674 -1.11923 3.43737 0
M  V30 6932 O 667.395 -0.0910318 4.38005 0
M  V30 6933 C 668.896 -1.85918 4.02429 0
M  V30 6934 H 666.116 -0.134478 0.657386 0
M  V30 6935 H 668.66 0.237135 2.0312 0
M  V30 6936 H 666.815 -1.82245 3.41856 0
M  V30 6937 H 667.229 -0.532916 5.21786 0
M  V30 6938 H 668.703 -2.2346 5.04747 0
M  V30 6939 H 669.18 -2.7438 3.42947 0
M  V30 6940 H 669.786 -1.20303 4.07931 0
M  V30 6941 N 668.101 -1.57061 -0.130224 0
M  V30 6942 C 669.033 -1.96147 -1.18571 0
M  V30 6943 C 670.046 -0.859347 -1.38272 0
M  V30 6944 O 671.235 -1.13769 -1.37545 0
M  V30 6945 C 668.335 -2.23484 -2.54771 0
M  V30 6946 C 667.508 -3.54786 -2.55824 0
M  V30 6947 C 666.567 -3.70467 -3.73686 0
M  V30 6948 O 665.593 -4.42693 -3.57787 0
M  V30 6949 N 666.795 -3.08389 -4.91809 0
M  V30 6950 H 669.56 -2.87295 -0.853333 0
M  V30 6951 H 667.121 -1.58714 -0.319621 0
M  V30 6952 H 669.113 -2.312 -3.32158 0
M  V30 6953 H 667.683 -1.38518 -2.80235 0
M  V30 6954 H 666.903 -3.5836 -1.64232 0
M  V30 6955 H 668.191 -4.4111 -2.53573 0
M  V30 6956 H 667.589 -2.49656 -5.0763 0
M  V30 6957 H 666.146 -3.21642 -5.66912 0
M  V30 6958 N 669.579 0.400081 -1.52437 0
M  V30 6959 C 670.804 1.17221 -1.71096 0
M  V30 6960 C 671.229 1.83269 -0.423565 0
M  V30 6961 O 670.587 1.70378 0.619751 0
M  V30 6962 C 670.635 2.20425 -2.85386 0
M  V30 6963 O 669.739 3.26769 -2.51586 0
M  V30 6964 H 669.08 0.341766 -0.569291 0
M  V30 6965 H 671.61 0.467772 -1.99181 0
M  V30 6966 H 671.62 2.64605 -3.10561 0
M  V30 6967 H 670.295 1.71737 -3.78786 0
M  V30 6968 H 668.872 2.87804 -2.37114 0
M  V30 6969 N 671.057 1.43213 0.657864 0
M  V30 6970 C 672.285 1.48015 1.44566 0
M  V30 6971 C 672.7 0.0965951 1.88553 0
M  V30 6972 O 672.057 -0.892221 1.59203 0
M  V30 6973 C 672.108 2.42199 2.68369 0
M  V30 6974 O 671.829 3.75173 2.26223 0
M  V30 6975 C 673.33 2.56195 3.61772 0
M  V30 6976 H 670.55 0.502861 0.444266 0
M  V30 6977 H 673.094 1.87907 0.806917 0
M  V30 6978 H 671.249 2.05514 3.28394 0
M  V30 6979 H 671.663 4.25776 3.06293 0
M  V30 6980 H 673.137 3.26182 4.4532 0
M  V30 6981 H 673.614 1.60534 4.0881 0
M  V30 6982 H 674.22 2.93671 3.07632 0
M  V30 6983 N 672.536 -0.895792 1.29666 0
M  V30 6984 C 673.466 -2.01673 1.17688 0
M  V30 6985 C 674.447 -1.69955 0.0701317 0
M  V30 6986 O 675.632 -1.9258 0.250289 0
M  V30 6987 C 672.762 -3.36568 0.856681 0
M  V30 6988 C 671.716 -3.82509 1.92017 0
M  V30 6989 C 671.042 -5.14574 1.4532 0
M  V30 6990 C 672.342 -4.02409 3.32963 0
M  V30 6991 H 674.036 -2.11953 2.11463 0
M  V30 6992 H 671.582 -1.01839 1.01807 0
M  V30 6993 H 673.535 -4.14498 0.759577 0
M  V30 6994 H 672.259 -3.26391 -0.116763 0
M  V30 6995 H 670.918 -3.068 2.00673 0
M  V30 6996 H 670.566 -5.00815 0.468325 0
M  V30 6997 H 670.266 -5.46283 2.16447 0
M  V30 6998 H 671.79 -5.9504 1.36968 0
M  V30 6999 H 673.204 -4.70808 3.27127 0
M  V30 7000 H 671.601 -4.45478 4.02082 0
M  V30 7001 H 672.671 -3.06616 3.75652 0
M  V30 7002 N 674.014 -1.12206 -1.10668 0
M  V30 7003 C 674.946 -0.74552 -2.16736 0
M  V30 7004 C 675.959 0.226696 -1.61214 0
M  V30 7005 O 677.148 0.0083936 -1.78498 0
M  V30 7006 C 674.248 -0.0823368 -3.388 0
M  V30 7007 C 673.421 -1.08341 -4.2377 0
M  V30 7008 C 672.48 -0.448292 -5.24287 0
M  V30 7009 O 671.506 -1.10458 -5.58379 0
M  V30 7010 N 672.708 0.785336 -5.75163 0
M  V30 7011 H 675.473 -1.65818 -2.49649 0
M  V30 7012 H 673.034 -1.01335 -1.26265 0
M  V30 7013 H 675.026 0.354476 -4.03145 0
M  V30 7014 H 673.596 0.733041 -3.03884 0
M  V30 7015 H 672.816 -1.69792 -3.55759 0
M  V30 7016 H 674.104 -1.76042 -4.77375 0
M  V30 7017 H 673.502 1.33755 -5.4966 0
M  V30 7018 H 672.059 1.16501 -6.41304 0
M  V30 7019 N 675.492 1.28418 -0.913599 0
M  V30 7020 C 676.455 2.25564 -0.406624 0
M  V30 7021 C 677.455 1.5387 0.466965 0
M  V30 7022 O 678.645 1.72094 0.270042 0
M  V30 7023 C 675.777 3.38339 0.417053 0
M  V30 7024 H 676.97 2.71926 -1.26477 0
M  V30 7025 H 674.523 1.40098 -0.692986 0
M  V30 7026 H 675.258 2.97339 1.29461 0
M  V30 7027 H 675.043 3.91542 -0.209102 0
M  V30 7028 H 676.533 4.10578 0.762602 0
M  V30 7029 N 676.97 0.677563 1.42291 0
M  V30 7030 C 678.218 0.200578 2.01102 0
M  V30 7031 C 678.539 -1.19803 1.53858 0
M  V30 7032 O 677.809 -1.80496 0.761439 0
M  V30 7033 H 676.389 0.0711634 0.743603 0
M  V30 7034 H 679.051 0.874691 1.7417 0
M  V30 7035 H 678.147 0.204 3.11433 0
M  V30 7036 N 678.448 -1.51871 0.421078 0
M  V30 7037 C 679.378 -2.30231 -0.389363 0
M  V30 7038 C 680.359 -1.34946 -1.03555 0
M  V30 7039 O 681.544 -1.63859 -1.04229 0
M  V30 7040 C 678.674 -3.13247 -1.49979 0
M  V30 7041 C 677.628 -4.16677 -0.977966 0
M  V30 7042 C 676.954 -4.88112 -2.1829 0
M  V30 7043 C 678.254 -5.22295 -0.0236775 0
M  V30 7044 H 679.948 -2.98229 0.264524 0
M  V30 7045 H 677.494 -1.43424 0.12866 0
M  V30 7046 H 679.447 -3.66838 -2.07383 0
M  V30 7047 H 678.171 -2.4304 -2.18173 0
M  V30 7048 H 676.83 -3.64114 -0.426245 0
M  V30 7049 H 676.478 -4.14423 -2.85066 0
M  V30 7050 H 676.178 -5.58041 -1.84021 0
M  V30 7051 H 677.702 -5.44521 -2.76278 0
M  V30 7052 H 679.116 -5.71055 -0.506899 0
M  V30 7053 H 677.513 -5.99656 0.230782 0
M  V30 7054 H 678.583 -4.76131 0.917999 0
M  V30 7055 N 679.926 -0.151884 -1.56866 0
M  V30 7056 C 680.889 0.771861 -2.15812 0
M  V30 7057 C 681.889 1.17181 -1.10115 0
M  V30 7058 O 683.079 1.09194 -1.35729 0
M  V30 7059 C 680.211 2.04806 -2.7252 0
M  V30 7060 H 681.404 0.259021 -2.98779 0
M  V30 7061 H 678.957 0.097588 -1.55995 0
M  V30 7062 H 679.692 2.60445 -1.93233 0
M  V30 7063 H 679.477 1.77044 -3.49854 0
M  V30 7064 H 680.967 2.70771 -3.1792 0
M  V30 7065 N 681.404 1.57128 0.121893 0
M  V30 7066 C 682.367 1.99197 1.13372 0
M  V30 7067 C 683.367 0.881728 1.3447 0
M  V30 7068 O 684.557 1.14783 1.31036 0
M  V30 7069 C 681.689 2.32963 2.4888 0
M  V30 7070 H 682.882 2.89788 0.772204 0
M  V30 7071 H 680.435 1.51952 0.366093 0
M  V30 7072 H 681.17 1.45243 2.89957 0
M  V30 7073 H 680.955 3.13934 2.34921 0
M  V30 7074 H 682.445 2.66261 3.21706 0
M  V30 7075 N 682.882 -0.391992 1.52647 0
M  V30 7076 C 684.159 -1.15136 1.58123 0
M  V30 7077 C 684.539 -2.07786 0.372597 0
M  V30 7078 O 683.887 -2.19374 -0.639304 0
M  V30 7079 C 684.097 -1.91367 2.91856 0
M  V30 7080 C 685.445 -2.46833 3.45483 0
M  V30 7081 O 686.469 -2.01527 2.9371 0
M  V30 7082 O 685.328 -3.29587 4.3593 0
M  V30 7083 H 682.422 -0.526649 0.637629 0
M  V30 7084 H 684.968 -0.397386 1.64982 0
M  V30 7085 H 683.74 -1.23597 3.71268 0
M  V30 7086 H 683.363 -2.73732 2.88369 0
M  V30 7087 N 684.36 -1.4356 -0.65026 0
M  V30 7088 C 685.323 -1.48615 -1.74489 0
M  V30 7089 C 686.323 -0.370483 -1.56474 0
M  V30 7090 O 687.513 -0.632351 -1.62317 0
M  V30 7091 C 684.645 -1.34161 -3.13391 0
M  V30 7092 H 685.838 -2.46103 -1.71387 0
M  V30 7093 H 683.391 -1.30369 -0.862186 0
M  V30 7094 H 684.126 -0.376918 -3.22102 0
M  V30 7095 H 683.911 -2.1504 -3.27872 0
M  V30 7096 H 685.401 -1.40637 -3.93206 0
M  V30 7097 N 685.838 0.888903 -1.30139 0
M  V30 7098 C 687.084 1.64288 -1.19922 0
M  V30 7099 C 687.439 1.90839 0.244561 0
M  V30 7100 O 686.732 1.51544 1.17239 0
M  V30 7101 C 686.926 2.99041 -1.95728 0
M  V30 7102 C 686.755 2.85644 -3.47329 0
M  V30 7103 C 685.525 2.85836 -4.16685 0
M  V30 7104 C 687.723 2.6188 -4.42632 0
M  V30 7105 N 685.705 2.63289 -5.54574 0
M  V30 7106 C 687.076 2.48418 -5.68057 0
M  V30 7107 C 689.131 2.47073 -4.32272 0
M  V30 7108 C 687.834 2.21655 -6.84296 0
M  V30 7109 C 689.86 2.21695 -5.48275 0
M  V30 7110 C 689.222 2.09007 -6.72678 0
M  V30 7111 H 685.321 0.606315 -0.493868 0
M  V30 7112 H 687.905 1.0478 -1.64102 0
M  V30 7113 H 686.076 3.56589 -1.53945 0
M  V30 7114 H 687.808 3.63607 -1.77685 0
M  V30 7115 H 684.563 2.97521 -3.68481 0
M  V30 7116 H 684.987 2.55039 -6.27124 0
M  V30 7117 H 689.629 2.55621 -3.36776 0
M  V30 7118 H 687.347 2.11845 -7.79838 0
M  V30 7119 H 690.933 2.11067 -5.42164 0
M  V30 7120 H 689.813 1.89643 -7.60924 0
M  V30 7121 N 687.317 1.12792 1.10072 0
M  V30 7122 C 688.28 0.802264 2.14701 0
M  V30 7123 C 689.28 -0.18515 1.59731 0
M  V30 7124 O 690.47 0.041109 1.74151 0
M  V30 7125 C 687.602 0.19285 3.40354 0
M  V30 7126 H 688.795 1.72932 2.45019 0
M  V30 7127 H 686.348 0.931662 1.25498 0
M  V30 7128 H 687.083 -0.743748 3.15656 0
M  V30 7129 H 686.868 0.903827 3.81541 0
M  V30 7130 H 688.358 -0.0183704 4.17596 0
M  V30 7131 N 688.795 -1.27931 0.920396 0
M  V30 7132 C 689.758 -2.25345 0.41858 0
M  V30 7133 C 690.758 -1.54116 -0.458798 0
M  V30 7134 O 691.948 -1.72235 -0.260912 0
M  V30 7135 C 689.08 -3.38556 -0.399104 0
M  V30 7136 H 690.273 -2.71251 1.27918 0
M  V30 7137 H 687.826 -1.39728 0.700406 0
M  V30 7138 H 688.561 -2.98021 -1.27882 0
M  V30 7139 H 688.346 -3.91426 0.229863 0
M  V30 7140 H 689.836 -4.10976 -0.740817 0
M  V30 7141 N 690.273 -0.685099 -1.4193 0
M  V30 7142 C 691.684 -0.287699 -1.8447 0
M  V30 7143 C 692.035 1.17215 -1.57338 0
M  V30 7144 O 691.16 1.89856 -1.03845 0
M  V30 7145 C 691.755 -0.515385 -3.34857 0
M  V30 7146 C 690.314 -0.172006 -3.76007 0
M  V30 7147 C 689.461 -0.802808 -2.65425 0
M  V30 7148 H 692.412 -0.88652 -1.3163 0
M  V30 7149 H 692.433 0.229251 -3.79809 0
M  V30 7150 H 691.945 -1.57796 -3.54573 0
M  V30 7151 H 690.046 0.886716 -3.61895 0
M  V30 7152 H 690.159 -0.619717 -4.75075 0
M  V30 7153 H 688.523 -0.233267 -2.5363 0
M  V30 7154 H 689.306 -1.86904 -2.87961 0
M  V30 7155 N 691.751 1.51645 -0.429126 0
M  V30 7156 C 693 2.01203 0.141538 0
M  V30 7157 C 693.313 1.31828 1.44502 0
M  V30 7158 O 694.519 1.7231 2.09813 0
M  V30 7159 C 692.975 3.58624 0.302786 0
M  V30 7160 C 692.583 4.3693 -0.989775 0
M  V30 7161 C 694.327 4.16353 0.827661 0
M  V30 7162 C 692.234 5.86037 -0.794619 0
M  V30 7163 H 691.164 0.751867 0.05667 0
M  V30 7164 H 693.815 1.74822 -0.557633 0
M  V30 7165 H 692.197 3.81417 1.06476 0
M  V30 7166 H 693.371 4.25887 -1.75945 0
M  V30 7167 H 691.686 3.90614 -1.44256 0
M  V30 7168 H 694.283 5.25455 0.990026 0
M  V30 7169 H 694.626 3.74995 1.80787 0
M  V30 7170 H 695.159 3.97606 0.124213 0
M  V30 7171 H 691.898 6.31792 -1.74697 0
M  V30 7172 H 691.418 5.99765 -0.0645968 0
M  V30 7173 H 693.097 6.45471 -0.444591 0
M  V30 7174 N 693.229 0.160201 1.56784 0
M  V30 7175 C 694.192 -0.760405 2.16219 0
M  V30 7176 C 695.192 -1.16595 1.10735 0
M  V30 7177 O 696.382 -1.08472 1.36306 0
M  V30 7178 C 693.514 -2.03358 2.73603 0
M  V30 7179 H 694.707 -0.243173 2.98912 0
M  V30 7180 H 692.26 -0.0893139 1.56045 0
M  V30 7181 H 692.995 -2.59416 1.94612 0
M  V30 7182 H 692.78 -1.75186 3.50788 0
M  V30 7183 H 694.27 -2.69081 3.19351 0
M  V30 7184 N 694.707 -1.5719 -0.113559 0
M  V30 7185 C 695.64 -1.9595 -1.16957 0
M  V30 7186 C 696.618 -0.829951 -1.39823 0
M  V30 7187 O 697.802 -1.08861 -1.53888 0
M  V30 7188 C 694.929 -2.2604 -2.52237 0
M  V30 7189 C 693.975 -3.48571 -2.45765 0
M  V30 7190 S 694.808 -5.00962 -1.89203 0
M  V30 7191 C 695.964 -5.3421 -3.26145 0
M  V30 7192 H 696.197 -2.85214 -0.839069 0
M  V30 7193 H 693.73 -1.51036 -0.320529 0
M  V30 7194 H 695.688 -2.44054 -3.30073 0
M  V30 7195 H 694.349 -1.3738 -2.82463 0
M  V30 7196 H 693.542 -3.67008 -3.45429 0
M  V30 7197 H 693.144 -3.29972 -1.76053 0
M  V30 7198 H 695.436 -5.29725 -4.22371 0
M  V30 7199 H 696.379 -6.35398 -3.12529 0
M  V30 7200 H 696.787 -4.61681 -3.24825 0
M  V30 7201 N 696.185 0.383891 -1.52853 0
M  V30 7202 C 697.117 1.48889 -1.74255 0
M  V30 7203 C 698.13 1.50405 -0.623063 0
M  V30 7204 O 699.319 1.54215 -0.898887 0
M  V30 7205 C 696.419 2.87721 -1.79081 0
M  V30 7206 C 695.592 3.10111 -3.08464 0
M  V30 7207 C 694.651 4.28954 -3.0477 0
M  V30 7208 O 693.677 4.25012 -3.78621 0
M  V30 7209 N 694.879 5.35411 -2.24311 0
M  V30 7210 H 697.644 1.30915 -2.69595 0
M  V30 7211 H 695.205 0.573454 -1.51404 0
M  V30 7212 H 697.197 3.65333 -1.7411 0
M  V30 7213 H 695.767 2.99029 -0.911052 0
M  V30 7214 H 694.987 2.20319 -3.26884 0
M  V30 7215 H 696.275 3.21928 -3.94005 0
M  V30 7216 H 695.673 5.41471 -1.63787 0
M  V30 7217 H 694.23 6.1167 -2.25175 0
M  V30 7218 N 697.663 1.43903 0.642637 0
M  V30 7219 C 698.912 1.45362 1.39831 0
M  V30 7220 C 699.225 0.0856289 1.95412 0
M  V30 7221 O 700.431 -0.0222856 2.71491 0
M  V30 7222 C 698.887 2.55857 2.53111 0
M  V30 7223 C 698.495 3.98811 2.04092 0
M  V30 7224 C 700.239 2.66524 3.30402 0
M  V30 7225 C 698.146 5.00751 3.14647 0
M  V30 7226 H 697.076 0.540777 0.52543 0
M  V30 7227 H 699.727 1.69929 0.692559 0
M  V30 7228 H 698.109 2.2451 3.26207 0
M  V30 7229 H 699.283 4.3967 1.37938 0
M  V30 7230 H 697.598 3.92284 1.39651 0
M  V30 7231 H 700.195 3.39858 4.12796 0
M  V30 7232 H 700.538 1.71949 3.79129 0
M  V30 7233 H 701.071 2.97224 2.64392 0
M  V30 7234 H 697.81 5.96914 2.70876 0
M  V30 7235 H 697.33 4.64495 3.79479 0
M  V30 7236 H 699.009 5.23933 3.79609 0
M  V30 7237 N 699.141 -0.881989 1.30609 0
M  V30 7238 C 700.371 -1.66469 1.22359 0
M  V30 7239 C 700.779 -1.87969 -0.215507 0
M  V30 7240 O 700.122 -1.42938 -1.15388 0
M  V30 7241 C 700.184 -3.06135 1.88472 0
M  V30 7242 C 699.848 -3.07795 3.37804 0
M  V30 7243 C 700.845 -2.86633 4.33749 0
M  V30 7244 C 698.53 -3.29297 3.793 0
M  V30 7245 C 700.524 -2.86934 5.69164 0
M  V30 7246 C 698.211 -3.29228 5.14832 0
M  V30 7247 C 699.209 -3.08071 6.09574 0
M  V30 7248 O 698.897 -3.07824 7.4263 0
M  V30 7249 H 698.629 -0.526129 0.424458 0
M  V30 7250 H 701.183 -1.11004 1.72821 0
M  V30 7251 H 699.413 -3.63276 1.32543 0
M  V30 7252 H 701.102 -3.66571 1.74301 0
M  V30 7253 H 701.868 -2.69814 4.0302 0
M  V30 7254 H 697.747 -3.44799 3.05998 0
M  V30 7255 H 701.291 -2.70339 6.43088 0
M  V30 7256 H 697.188 -3.45583 5.452 0
M  V30 7257 H 697.956 -3.2397 7.51656 0
M  V30 7258 N 700.619 -1.13374 -1.09472 0
M  V30 7259 C 701.566 -0.810682 -2.16094 0
M  V30 7260 C 702.536 0.227003 -1.64541 0
M  V30 7261 O 703.721 0.0993538 -1.90541 0
M  V30 7262 C 700.861 -0.282336 -3.43943 0
M  V30 7263 C 699.974 -1.37902 -4.09398 0
M  V30 7264 C 699.109 -0.809066 -5.25002 0
M  V30 7265 C 698.148 -1.88419 -5.82379 0
M  V30 7266 N 697.285 -1.33221 -6.89345 0
M  V30 7267 H 702.125 -1.72397 -2.43071 0
M  V30 7268 H 699.662 -0.860564 -1.19301 0
M  V30 7269 H 701.62 0.0421189 -4.17179 0
M  V30 7270 H 700.25 0.594083 -3.17286 0
M  V30 7271 H 699.302 -1.82008 -3.34032 0
M  V30 7272 H 700.614 -2.19161 -4.48074 0
M  V30 7273 H 699.768 -0.435867 -6.05132 0
M  V30 7274 H 698.507 0.0346058 -4.87688 0
M  V30 7275 H 697.512 -2.26646 -5.00911 0
M  V30 7276 H 698.737 -2.73125 -6.21755 0
M  V30 7277 H 696.683 -0.510535 -6.5401 0
M  V30 7278 H 696.6 -2.08129 -7.26786 0
M  V30 7279 H 697.868 -0.986565 -7.73232 0
M  V30 7280 N 702.098 1.27442 -0.927168 0
M  V30 7281 C 703.045 2.26863 -0.424459 0
M  V30 7282 C 704.015 1.5813 0.508346 0
M  V30 7283 O 705.2 1.85946 0.42762 0
M  V30 7284 C 702.34 3.43639 0.31718 0
M  V30 7285 C 701.453 4.27087 -0.649675 0
M  V30 7286 C 700.588 5.31082 0.111753 0
M  V30 7287 C 699.627 6.062 -0.847843 0
M  V30 7288 N 698.764 7.01999 -0.119074 0
M  V30 7289 H 703.604 2.69239 -1.27728 0
M  V30 7290 H 701.141 1.32394 -0.641106 0
M  V30 7291 H 703.099 4.10155 0.763486 0
M  V30 7292 H 701.729 3.02217 1.13424 0
M  V30 7293 H 700.781 3.60491 -1.21451 0
M  V30 7294 H 702.093 4.79242 -1.38307 0
M  V30 7295 H 701.247 6.03544 0.618 0
M  V30 7296 H 699.986 4.7973 0.878114 0
M  V30 7297 H 698.991 5.32577 -1.36534 0
M  V30 7298 H 700.216 6.59642 -1.61398 0
M  V30 7299 H 698.162 6.52977 0.629051 0
M  V30 7300 H 698.079 7.5184 -0.792046 0
M  V30 7301 H 699.347 7.78638 0.366537 0
M  V30 7302 N 703.576 0.692616 1.41565 0
M  V30 7303 C 704.526 0.00231847 2.28 0
M  V30 7304 C 705.51 -0.755793 1.42044 0
M  V30 7305 O 706.702 -0.631772 1.65341 0
M  V30 7306 C 703.831 -0.935468 3.30309 0
M  V30 7307 C 702.917 -0.173761 4.23744 0
M  V30 7308 N 703.308 0.830872 4.98929 0
M  V30 7309 C 701.606 -0.409666 4.44115 0
M  V30 7310 C 702.307 1.28656 5.67294 0
M  V30 7311 N 701.283 0.613053 5.40132 0
M  V30 7312 H 705.085 0.772635 2.83562 0
M  V30 7313 H 702.599 0.523198 1.53741 0
M  V30 7314 H 704.596 -1.44513 3.91052 0
M  V30 7315 H 703.256 -1.70542 2.76307 0
M  V30 7316 H 704.267 1.21101 5.03542 0
M  V30 7317 H 700.944 -1.15773 4.01127 0
M  V30 7318 H 702.334 2.12006 6.37576 0
M  V30 7319 N 705.054 -1.51416 0.437162 0
M  V30 7320 C 705.984 -2.30631 -0.364922 0
M  V30 7321 C 706.965 -1.36037 -1.02118 0
M  V30 7322 O 708.15 -1.64956 -1.02485 0
M  V30 7323 C 705.28 -3.1482 -1.46648 0
M  V30 7324 C 704.234 -4.17691 -0.933717 0
M  V30 7325 C 703.56 -4.904 -2.13101 0
M  V30 7326 C 704.86 -5.2229 0.0317201 0
M  V30 7327 H 706.554 -2.97932 0.29614 0
M  V30 7328 H 704.1 -1.4328 0.143865 0
M  V30 7329 H 706.053 -3.69017 -2.03481 0
M  V30 7330 H 704.777 -2.4534 -2.15583 0
M  V30 7331 H 703.436 -3.64545 -0.387602 0
M  V30 7332 H 703.084 -4.17423 -2.80654 0
M  V30 7333 H 702.784 -5.59962 -1.78092 0
M  V30 7334 H 704.308 -5.4742 -2.70487 0
M  V30 7335 H 705.722 -5.7156 -0.446302 0
M  V30 7336 H 704.119 -5.99378 0.29437 0
M  V30 7337 H 705.189 -4.75131 0.968447 0
M  V30 7338 N 706.532 -0.168513 -1.56696 0
M  V30 7339 C 707.809 0.523367 -1.88468 0
M  V30 7340 C 708.189 1.81503 -1.07796 0
M  V30 7341 O 707.537 2.27859 -0.171045 0
M  V30 7342 C 707.747 0.767991 -3.40445 0
M  V30 7343 C 709.095 1.09924 -4.10124 0
M  V30 7344 O 710.119 0.856625 -3.45746 0
M  V30 7345 O 708.978 1.55681 -5.23856 0
M  V30 7346 H 706.072 0.269447 -0.781874 0
M  V30 7347 H 708.618 -0.206739 -1.68436 0
M  V30 7348 H 707.39 -0.145254 -3.9103 0
M  V30 7349 H 707.013 1.55151 -3.66079 0
M  V30 7350 N 708.01 1.57248 0.105221 0
M  V30 7351 C 709.421 1.74612 0.660865 0
M  V30 7352 C 709.772 0.789231 1.79626 0
M  V30 7353 O 708.897 -0.0346611 2.16372 0
M  V30 7354 C 709.492 3.16624 1.20559 0
M  V30 7355 C 708.051 3.35447 1.7074 0
M  V30 7356 C 707.198 2.70445 0.612764 0
M  V30 7357 H 710.149 1.5824 -0.12079 0
M  V30 7358 H 710.17 3.18937 2.07508 0
M  V30 7359 H 709.682 3.86245 0.379012 0
M  V30 7360 H 707.783 2.7089 2.5583 0
M  V30 7361 H 707.896 4.43702 1.80736 0
M  V30 7362 H 706.26 2.32061 1.04975 0
M  V30 7363 H 707.043 3.42699 -0.203066 0
M  V30 7364 N 709.488 -0.375779 1.53054 0
M  V30 7365 C 710.904 -0.716764 1.426 0
M  V30 7366 C 711.104 -1.93651 0.556931 0
M  V30 7367 O 710.16 -2.52475 0.0354461 0
M  V30 7368 C 711.473 -0.939499 2.85646 0
M  V30 7369 C 713.021 -1.04015 2.95212 0
M  V30 7370 C 713.496 -1.29543 4.39298 0
M  V30 7371 N 714.987 -1.36335 4.42682 0
M  V30 7372 C 715.722 -1.57778 5.51266 0
M  V30 7373 N 715.218 -1.76604 6.69913 0
M  V30 7374 N 717.011 -1.60065 5.38828 0
M  V30 7375 H 709.162 0.42664 2.08071 0
M  V30 7376 H 711.425 0.128758 0.939215 0
M  V30 7377 H 711.131 -0.115189 3.51511 0
M  V30 7378 H 711.005 -1.85048 3.2869 0
M  V30 7379 H 713.392 -1.85501 2.29507 0
M  V30 7380 H 713.473 -0.106785 2.55577 0
M  V30 7381 H 713.117 -0.485611 5.05573 0
M  V30 7382 H 713.047 -2.24184 4.76497 0
M  V30 7383 H 715.538 -1.23441 3.5717 0
M  V30 7384 H 715.851 -1.9251 7.48438 0
M  V30 7385 H 714.196 -1.73802 6.72917 0
M  V30 7386 H 717.387 -1.44917 4.45103 0
M  V30 7387 H 717.56 -1.76435 6.23518 0
M  V30 7388 N 710.966 -1.44241 -0.634997 0
M  V30 7389 C 712.377 -1.41622 -1.21655 0
M  V30 7390 C 712.728 -0.129584 -1.95772 0
M  V30 7391 O 711.853 0.770225 -2.02229 0
M  V30 7392 C 712.448 -2.56557 -2.21278 0
M  V30 7393 C 711.007 -2.57145 -2.7487 0
M  V30 7394 C 710.154 -2.33354 -1.49804 0
M  V30 7395 H 713.105 -1.52878 -0.425905 0
M  V30 7396 H 713.126 -2.29089 -3.03807 0
M  V30 7397 H 712.638 -3.50186 -1.67306 0
M  V30 7398 H 710.739 -1.67447 -3.32855 0
M  V30 7399 H 710.852 -3.55507 -3.21172 0
M  V30 7400 H 709.216 -1.82372 -1.77799 0
M  V30 7401 H 709.999 -3.29092 -0.977402 0
M  V30 7402 N 712.444 0.87505 -1.31075 0
M  V30 7403 C 713.692 1.62447 -1.20231 0
M  V30 7404 C 714.013 1.93506 0.240888 0
M  V30 7405 O 713.283 1.57847 1.16022 0
M  V30 7406 H 711.863 0.602207 -0.441991 0
M  V30 7407 H 714.525 1.04788 -1.64334 0
M  V30 7408 H 713.621 2.57031 -1.77036 0
M  V30 7409 N 713.922 1.13953 1.08869 0
M  V30 7410 C 715.333 0.916649 1.62648 0
M  V30 7411 C 715.684 -0.545589 1.88462 0
M  V30 7412 O 714.809 -1.41351 1.63856 0
M  V30 7413 C 715.404 1.65751 2.95486 0
M  V30 7414 C 713.963 1.48034 3.46068 0
M  V30 7415 C 713.11 1.68305 2.20383 0
M  V30 7416 H 716.061 1.292 0.921572 0
M  V30 7417 H 716.082 1.11794 3.63707 0
M  V30 7418 H 715.594 2.72171 2.76667 0
M  V30 7419 H 713.695 0.439416 3.7 0
M  V30 7420 H 713.808 2.24719 4.23129 0
M  V30 7421 H 712.172 1.10833 2.29321 0
M  V30 7422 H 712.955 2.76057 2.04077 0
M  V30 7423 N 715.4 -1.26948 0.933913 0
M  V30 7424 C 716.64 -1.9585 0.585003 0
M  V30 7425 C 717.004 -1.71722 -0.858802 0
M  V30 7426 O 718.205 -2.34366 -1.31629 0
M  V30 7427 C 716.476 -3.45638 0.909352 0
M  V30 7428 S 718.035 -4.33656 0.669892 0
M  V30 7429 H 714.853 -0.677485 0.215721 0
M  V30 7430 H 717.455 -1.54051 1.20368 0
M  V30 7431 H 716.159 -3.60697 1.9577 0
M  V30 7432 H 715.69 -3.92401 0.280115 0
M  V30 7433 H 717.705 -4.93975 -0.469378 0
M  V30 7434 N 716.879 -0.700114 -1.41195 0
M  V30 7435 C 718.29 -0.307249 -1.84154 0
M  V30 7436 C 718.641 1.15539 -1.58572 0
M  V30 7437 O 717.766 1.88744 -1.05852 0
M  V30 7438 C 718.361 -0.550872 -3.34292 0
M  V30 7439 C 716.92 -0.211877 -3.75803 0
M  V30 7440 C 716.067 -0.830915 -2.64558 0
M  V30 7441 H 719.018 -0.900431 -1.30683 0
M  V30 7442 H 719.039 0.188954 -3.80031 0
M  V30 7443 H 718.551 -1.61548 -3.5288 0
M  V30 7444 H 716.652 0.848283 -3.62815 0
M  V30 7445 H 716.765 -0.67007 -4.74391 0
M  V30 7446 H 715.129 -0.260155 -2.53368 0
M  V30 7447 H 715.912 -1.89948 -2.85963 0
M  V30 7448 N 718.357 1.51182 -0.445186 0
M  V30 7449 C 719.768 1.86693 0.0160999 0
M  V30 7450 C 720.119 1.36183 1.4124 0
M  V30 7451 O 719.244 0.715895 2.04215 0
M  V30 7452 C 719.839 3.38781 0.0359918 0
M  V30 7453 C 718.398 3.73799 0.441715 0
M  V30 7454 C 717.545 2.74947 -0.360511 0
M  V30 7455 H 720.496 1.44294 -0.660674 0
M  V30 7456 H 720.517 3.71026 0.843813 0
M  V30 7457 H 720.029 3.75513 -0.980378 0
M  V30 7458 H 718.13 3.42659 1.4634 0
M  V30 7459 H 718.243 4.78829 0.16106 0
M  V30 7460 H 716.607 2.54047 0.182269 0
M  V30 7461 H 717.39 3.14521 -1.3759 0
M  V30 7462 N 719.835 0.176821 1.56605 0
M  V30 7463 C 720.745 -0.763682 2.21822 0
M  V30 7464 C 721.761 -1.24889 1.21156 0
M  V30 7465 O 722.937 -1.29987 1.53836 0
M  V30 7466 C 720.002 -1.97352 2.8505 0
M  V30 7467 C 719.063 -1.53466 4.00932 0
M  V30 7468 C 718.296 -2.68682 4.61135 0
M  V30 7469 O 718.519 -3.85694 4.20234 0
M  V30 7470 O 717.453 -2.42442 5.50913 0
M  V30 7471 H 721.279 -0.238363 3.02763 0
M  V30 7472 H 718.864 -0.0516331 1.49311 0
M  V30 7473 H 720.746 -2.68096 3.25119 0
M  V30 7474 H 719.421 -2.48779 2.07101 0
M  V30 7475 H 718.328 -0.796551 3.65521 0
M  V30 7476 H 719.661 -1.06724 4.8049 0
M  V30 7477 N 721.313 -1.57302 -0.09688 0
M  V30 7478 C 722.243 -2.0497 -1.11846 0
M  V30 7479 C 723.224 -0.938278 -1.41882 0
M  V30 7480 O 724.409 -1.20943 -1.51942 0
M  V30 7481 C 721.539 -2.47264 -2.43881 0
M  V30 7482 C 720.493 -3.62053 -2.28257 0
M  V30 7483 C 719.819 -3.90318 -3.65453 0
M  V30 7484 C 721.119 -4.93005 -1.72461 0
M  V30 7485 H 722.813 -2.90567 -0.721888 0
M  V30 7486 H 720.359 -1.39786 -0.345803 0
M  V30 7487 H 722.312 -2.7922 -3.15617 0
M  V30 7488 H 721.036 -1.58664 -2.8547 0
M  V30 7489 H 719.695 -3.30341 -1.58967 0
M  V30 7490 H 719.343 -2.98889 -4.04567 0
M  V30 7491 H 719.043 -4.67597 -3.55846 0
M  V30 7492 H 720.567 -4.24747 -4.3866 0
M  V30 7493 H 721.981 -5.23354 -2.34036 0
M  V30 7494 H 720.378 -5.74436 -1.73618 0
M  V30 7495 H 721.448 -4.80053 -0.683898 0
M  V30 7496 N 722.791 0.367657 -1.53252 0
M  V30 7497 C 724.039 1.10832 -1.68999 0
M  V30 7498 C 724.36 1.89894 -0.443306 0
M  V30 7499 O 723.63 1.88235 0.54262 0
M  V30 7500 H 722.21 0.412153 -0.623008 0
M  V30 7501 H 724.872 0.414775 -1.90435 0
M  V30 7502 H 723.968 1.7993 -2.55013 0
M  V30 7503 N 724.269 1.44576 0.627338 0
M  V30 7504 C 725.199 1.54562 1.75022 0
M  V30 7505 C 726.18 0.398378 1.65369 0
M  V30 7506 O 727.365 0.61899 1.84071 0
M  V30 7507 C 724.495 1.49309 3.13567 0
M  V30 7508 C 723.449 2.62549 3.38012 0
M  V30 7509 C 722.775 2.42348 4.76625 0
M  V30 7510 C 724.075 4.04678 3.30202 0
M  V30 7511 H 725.769 2.4855 1.66922 0
M  V30 7512 H 723.315 1.19624 0.801636 0
M  V30 7513 H 725.268 1.54895 3.919 0
M  V30 7514 H 723.992 0.518392 3.2246 0
M  V30 7515 H 722.651 2.56358 2.62061 0
M  V30 7516 H 722.299 1.43062 4.82226 0
M  V30 7517 H 721.999 3.18273 4.93939 0
M  V30 7518 H 723.523 2.49758 5.57183 0
M  V30 7519 H 724.937 4.12217 3.98435 0
M  V30 7520 H 723.334 4.80836 3.5905 0
M  V30 7521 H 724.404 4.2798 2.27949 0
M  V30 7522 N 725.747 -0.868086 1.31537 0
M  V30 7523 C 726.995 -1.61807 1.21091 0
M  V30 7524 C 727.316 -1.93631 -0.230623 0
M  V30 7525 O 726.586 -1.5846 -1.15183 0
M  V30 7526 H 725.166 -0.599854 0.445178 0
M  V30 7527 H 727.828 -1.03915 1.64887 0
M  V30 7528 H 726.924 -2.56088 1.78396 0
M  V30 7529 N 727.225 -1.14528 -1.08264 0
M  V30 7530 C 728.155 -0.856356 -2.1723 0
M  V30 7531 C 729.136 0.189251 -1.69044 0
M  V30 7532 O 730.321 0.0456119 -1.94146 0
M  V30 7533 C 727.451 -0.334662 -3.45684 0
M  V30 7534 C 726.405 -1.31588 -4.0727 0
M  V30 7535 C 725.731 -0.653428 -5.30692 0
M  V30 7536 C 727.031 -2.67866 -4.48381 0
M  V30 7537 H 728.725 -1.76755 -2.41657 0
M  V30 7538 H 726.271 -0.851287 -1.16143 0
M  V30 7539 H 728.224 -0.120128 -4.21229 0
M  V30 7540 H 726.948 0.611967 -3.20815 0
M  V30 7541 H 725.607 -1.51661 -3.33758 0
M  V30 7542 H 725.255 0.299054 -5.0211 0
M  V30 7543 H 724.955 -1.30817 -5.72853 0
M  V30 7544 H 726.479 -0.448453 -6.08951 0
M  V30 7545 H 727.893 -2.51692 -5.15096 0
M  V30 7546 H 726.29 -3.29627 -5.01464 0
M  V30 7547 H 727.36 -3.24632 -3.60198 0
M  V30 7548 N 728.703 1.26451 -0.940633 0
M  V30 7549 C 729.951 1.93395 -0.586748 0
M  V30 7550 C 730.272 1.7417 0.876921 0
M  V30 7551 O 729.542 1.097 1.62304 0
M  V30 7552 H 728.122 0.715687 -0.214012 0
M  V30 7553 H 730.784 1.53902 -1.19584 0
M  V30 7554 H 729.88 3.01565 -0.804059 0
M  V30 7555 N 730.181 0.707592 1.40822 0
M  V30 7556 C 731.113 0.0105968 2.29198 0
M  V30 7557 C 732.126 -0.732035 1.45414 0
M  V30 7558 O 733.315 -0.580741 1.68789 0
M  V30 7559 C 730.415 -1.00921 3.23525 0
M  V30 7560 C 729.588 -0.333747 4.36125 0
M  V30 7561 C 728.647 -1.25783 5.10945 0
M  V30 7562 O 727.673 -0.745646 5.64295 0
M  V30 7563 N 728.875 -2.58947 5.19545 0
M  V30 7564 H 731.64 0.76938 2.89656 0
M  V30 7565 H 729.201 0.554579 1.52105 0
M  V30 7566 H 731.193 -1.6294 3.70449 0
M  V30 7567 H 729.763 -1.66942 2.6429 0
M  V30 7568 H 728.983 0.466518 3.9143 0
M  V30 7569 H 730.271 0.135444 5.0862 0
M  V30 7570 H 729.669 -3.03065 4.7767 0
M  V30 7571 H 728.226 -3.16131 5.70004 0
M  V30 7572 N 731.66 -1.50943 0.453197 0
M  V30 7573 C 732.59 -2.31005 -0.34044 0
M  V30 7574 C 733.571 -1.37112 -1.00669 0
M  V30 7575 O 734.756 -1.66033 -1.0073 0
M  V30 7576 C 731.886 -3.16358 -1.433 0
M  V30 7577 C 730.84 -4.18658 -0.889363 0
M  V30 7578 C 730.166 -4.92633 -2.07887 0
M  V30 7579 C 731.466 -5.22227 0.0871142 0
M  V30 7580 H 733.16 -2.97601 0.327723 0
M  V30 7581 H 730.706 -1.43119 0.159054 0
M  V30 7582 H 732.659 -3.71155 -1.99555 0
M  V30 7583 H 731.383 -2.47613 -2.12968 0
M  V30 7584 H 730.042 -3.64936 -0.348915 0
M  V30 7585 H 729.69 -4.20376 -2.76211 0
M  V30 7586 H 729.39 -5.61819 -1.72143 0
M  V30 7587 H 730.914 -5.50258 -2.64666 0
M  V30 7588 H 732.328 -5.72001 -0.385656 0
M  V30 7589 H 730.725 -5.99032 0.357926 0
M  V30 7590 H 731.795 -4.74077 1.01879 0
M  V30 7591 N 733.138 -0.185124 -1.56509 0
M  V30 7592 C 734.101 0.72591 -2.17401 0
M  V30 7593 C 735.101 1.14819 -1.12575 0
M  V30 7594 O 736.291 1.0629 -1.38015 0
M  V30 7595 C 733.423 1.98979 -2.76803 0
M  V30 7596 H 734.616 0.195588 -2.99262 0
M  V30 7597 H 732.169 0.0644772 -1.56167 0
M  V30 7598 H 732.904 2.56287 -1.98714 0
M  V30 7599 H 732.689 1.69583 -3.53531 0
M  V30 7600 H 734.179 2.63966 -3.23592 0
M  V30 7601 N 734.616 1.57351 0.0885366 0
M  V30 7602 C 735.856 1.88248 0.796362 0
M  V30 7603 C 736.22 0.776915 1.75579 0
M  V30 7604 O 737.421 0.968485 2.50747 0
M  V30 7605 C 735.692 3.24385 1.50031 0
M  V30 7606 S 737.251 3.76991 2.24551 0
M  V30 7607 H 734.069 0.659697 0.265181 0
M  V30 7608 H 736.671 1.95428 0.0531843 0
M  V30 7609 H 735.375 4.02764 0.788 0
M  V30 7610 H 734.906 3.20361 2.28325 0
M  V30 7611 H 736.921 3.50933 3.508 0
M  V30 7612 N 736.094 -0.359525 1.53444 0
M  V30 7613 C 737.334 -1.11014 1.71625 0
M  V30 7614 C 737.698 -1.86376 0.46132 0
M  V30 7615 O 738.899 -2.63724 0.519908 0
M  V30 7616 C 737.17 -2.03907 2.93524 0
M  V30 7617 S 738.729 -2.86408 3.3244 0
M  V30 7618 H 735.547 -0.375352 0.603847 0
M  V30 7619 H 738.149 -0.390604 1.91558 0
M  V30 7620 H 736.853 -1.47316 3.83048 0
M  V30 7621 H 736.384 -2.80324 2.76011 0
M  V30 7622 H 738.399 -4.06241 2.84926 0
M  V30 7623 N 737.572 -1.44907 -0.619662 0
M  V30 7624 C 738.812 -1.49822 -1.39042 0
M  V30 7625 C 739.176 -0.131803 -1.91547 0
M  V30 7626 O 740.377 -0.0556413 -2.68742 0
M  V30 7627 C 738.648 -2.53805 -2.5163 0
M  V30 7628 S 740.207 -2.77855 -3.3962 0
M  V30 7629 H 737.025 -0.529774 -0.474195 0
M  V30 7630 H 739.627 -1.81907 -0.716236 0
M  V30 7631 H 738.331 -3.51772 -2.11387 0
M  V30 7632 H 737.862 -2.23331 -3.23863 0
M  V30 7633 H 739.877 -2.10319 -4.49422 0
M  V30 7634 N 739.05 0.861098 -1.31996 0
M  V30 7635 C 739.98 1.98482 -1.22993 0
M  V30 7636 C 740.961 1.6971 -0.115168 0
M  V30 7637 O 742.146 1.91849 -0.30126 0
M  V30 7638 C 739.276 3.34179 -0.945615 0
M  V30 7639 C 738.23 3.77284 -2.02091 0
M  V30 7640 C 737.556 5.1054 -1.58912 0
M  V30 7641 C 738.856 3.93439 -3.43515 0
M  V30 7642 H 740.55 2.06271 -2.17008 0
M  V30 7643 H 738.096 0.991043 -1.04472 0
M  V30 7644 H 740.049 4.12338 -0.869206 0
M  V30 7645 H 738.773 3.26586 0.0301849 0
M  V30 7646 H 737.432 3.01371 -2.08737 0
M  V30 7647 H 737.08 4.99397 -0.600942 0
M  V30 7648 H 736.78 5.40352 -2.30854 0
M  V30 7649 H 738.304 5.91199 -1.52696 0
M  V30 7650 H 739.718 4.6197 -3.39495 0
M  V30 7651 H 738.115 4.34661 -4.13751 0
M  V30 7652 H 739.185 2.96548 -3.8365 0
M  V30 7653 N 740.528 1.15101 1.07655 0
M  V30 7654 C 741.478 0.813448 2.12995 0
M  V30 7655 C 742.462 -0.200899 1.59641 0
M  V30 7656 O 743.654 -0.00209918 1.77 0
M  V30 7657 C 740.783 0.301078 3.41977 0
M  V30 7658 C 739.869 1.3454 4.02194 0
M  V30 7659 N 740.26 2.55181 4.36711 0
M  V30 7660 C 738.558 1.19742 4.29625 0
M  V30 7661 C 739.259 3.22094 4.84387 0
M  V30 7662 N 738.235 2.49486 4.82968 0
M  V30 7663 H 742.037 1.73105 2.37511 0
M  V30 7664 H 739.551 1.03601 1.25063 0
M  V30 7665 H 741.548 0.040914 4.1688 0
M  V30 7666 H 740.208 -0.610629 3.18907 0
M  V30 7667 H 741.219 2.92349 4.27496 0
M  V30 7668 H 737.896 0.345353 4.16069 0
M  V30 7669 H 739.286 4.24996 5.20411 0
M  V30 7670 N 742.006 -1.2595 0.947325 0
M  V30 7671 C 743.422 -1.45737 0.650597 0
M  V30 7672 C 743.622 -1.85189 -0.794188 0
M  V30 7673 O 742.678 -1.97738 -1.57022 0
M  V30 7674 C 743.991 -2.53505 1.61728 0
M  V30 7675 C 745.539 -2.67351 1.62765 0
M  V30 7676 C 746.014 -3.78296 2.58179 0
M  V30 7677 N 747.505 -3.85696 2.56501 0
M  V30 7678 C 748.24 -4.71012 3.2701 0
M  V30 7679 N 747.736 -5.60669 4.06966 0
M  V30 7680 N 749.529 -4.64912 3.15932 0
M  V30 7681 H 741.68 -0.986327 1.8811 0
M  V30 7682 H 743.943 -0.494639 0.808725 0
M  V30 7683 H 743.649 -2.31357 2.6489 0
M  V30 7684 H 743.523 -3.51281 1.3741 0
M  V30 7685 H 745.91 -2.88869 0.603241 0
M  V30 7686 H 745.991 -1.69998 1.91139 0
M  V30 7687 H 745.635 -3.5753 3.60742 0
M  V30 7688 H 745.565 -4.75117 2.27093 0
M  V30 7689 H 748.056 -3.21601 1.98447 0
M  V30 7690 H 748.369 -6.22677 4.57704 0
M  V30 7691 H 746.714 -5.60402 4.11066 0
M  V30 7692 H 749.905 -3.93874 2.52945 0
M  V30 7693 H 750.078 -5.3118 3.71149 0
M  V30 7694 N 743.484 -0.715051 -1.40445 0
M  V30 7695 C 744.9 -0.388555 -1.54798 0
M  V30 7696 C 745.1 1.10271 -1.68649 0
M  V30 7697 O 744.156 1.88875 -1.67578 0
M  V30 7698 C 745.469 -1.15414 -2.77669 0
M  V30 7699 C 747.017 -1.14039 -2.91486 0
M  V30 7700 C 747.492 -1.88812 -4.1727 0
M  V30 7701 N 748.983 -1.85878 -4.24268 0
M  V30 7702 C 749.718 -2.40558 -5.20499 0
M  V30 7703 N 749.214 -3.03791 -6.22642 0
M  V30 7704 N 751.007 -2.30703 -5.12574 0
M  V30 7705 H 743.158 -1.68201 -1.297 0
M  V30 7706 H 745.421 -0.710915 -0.627139 0
M  V30 7707 H 745.127 -2.20853 -2.7371 0
M  V30 7708 H 745.001 -0.745412 -3.69761 0
M  V30 7709 H 747.388 -0.0941996 -2.9495 0
M  V30 7710 H 747.469 -1.58834 -2.00513 0
M  V30 7711 H 747.113 -2.93422 -4.14568 0
M  V30 7712 H 747.043 -1.41438 -5.0725 0
M  V30 7713 H 749.534 -1.39794 -3.51093 0
M  V30 7714 H 749.847 -3.43032 -6.92495 0
M  V30 7715 H 748.192 -3.07875 -6.23087 0
M  V30 7716 H 751.383 -1.80961 -4.31707 0
M  V30 7717 H 751.556 -2.73618 -5.87398 0
M  V30 7718 N 744.962 1.50701 -0.461195 0
M  V30 7719 C 745.925 2.2686 0.326679 0
M  V30 7720 C 746.925 1.31243 0.929085 0
M  V30 7721 O 748.115 1.54754 0.799807 0
M  V30 7722 C 745.247 3.07844 1.46441 0
M  V30 7723 H 746.44 2.97954 -0.341095 0
M  V30 7724 H 743.993 1.54814 -0.214984 0
M  V30 7725 H 744.728 2.41223 2.16753 0
M  V30 7726 H 744.513 3.78101 1.03836 0
M  V30 7727 H 746.003 3.65469 2.02044 0
M  V30 7728 N 746.441 0.193421 1.56409 0
M  V30 7729 C 747.388 -0.728124 2.19014 0
M  V30 7730 C 748.358 -1.21098 1.13686 0
M  V30 7731 O 749.543 -1.27517 1.4193 0
M  V30 7732 C 746.683 -1.94277 2.8522 0
M  V30 7733 C 745.796 -1.50143 4.05069 0
M  V30 7734 C 744.931 -2.67145 4.59137 0
M  V30 7735 C 743.97 -2.19609 5.71348 0
M  V30 7736 N 743.107 -3.29782 6.19829 0
M  V30 7737 H 747.947 -0.187499 2.9741 0
M  V30 7738 H 745.484 -0.0808064 1.46878 0
M  V30 7739 H 747.442 -2.65551 3.21774 0
M  V30 7740 H 746.072 -2.45673 2.09391 0
M  V30 7741 H 745.124 -0.684624 3.74189 0
M  V30 7742 H 746.436 -1.11266 4.86232 0
M  V30 7743 H 745.59 -3.46544 4.97988 0
M  V30 7744 H 744.329 -3.09295 3.77078 0
M  V30 7745 H 743.334 -1.38664 5.32027 0
M  V30 7746 H 744.559 -1.78492 6.55223 0
M  V30 7747 H 742.505 -3.71466 5.40693 0
M  V30 7748 H 742.422 -2.95069 6.96039 0
M  V30 7749 H 743.69 -4.094 6.63334 0
M  V30 7750 N 747.919 -1.57396 -0.0801906 0
M  V30 7751 C 749.335 -1.53564 -0.434778 0
M  V30 7752 C 749.535 -0.912372 -1.79661 0
M  V30 7753 O 748.591 -0.511268 -2.4727 0
M  V30 7754 C 749.904 -2.98244 -0.383561 0
M  V30 7755 C 751.452 -3.09536 -0.46435 0
M  V30 7756 C 751.927 -4.55851 -0.443128 0
M  V30 7757 N 753.418 -4.60456 -0.503448 0
M  V30 7758 C 754.153 -5.71135 -0.509106 0
M  V30 7759 N 753.649 -6.91203 -0.47008 0
M  V30 7760 N 755.442 -5.59353 -0.555035 0
M  V30 7761 H 747.593 -1.96281 0.811635 0
M  V30 7762 H 749.856 -0.898041 0.303689 0
M  V30 7763 H 749.562 -3.47369 0.550236 0
M  V30 7764 H 749.436 -3.57705 -1.19694 0
M  V30 7765 H 751.823 -2.6039 -1.38857 0
M  V30 7766 H 751.904 -2.53 0.377445 0
M  V30 7767 H 751.548 -5.05653 0.477207 0
M  V30 7768 H 751.478 -5.10242 -1.30234 0
M  V30 7769 H 753.969 -3.74048 -0.538199 0
M  V30 7770 H 754.282 -7.7132 -0.478091 0
M  V30 7771 H 752.627 -6.93625 -0.436897 0
M  V30 7772 H 755.818 -4.64453 -0.583158 0
M  V30 7773 H 755.991 -6.4561 -0.555976 0
M  V30 7774 N 749.397 0.351382 -1.53633 0
M  V30 7775 C 750.813 0.693987 -1.43722 0
M  V30 7776 C 751.013 1.9274 -0.587669 0
M  V30 7777 O 750.069 2.52387 -0.0756082 0
M  V30 7778 C 751.382 0.893937 -2.87105 0
M  V30 7779 C 752.93 0.993051 -2.96829 0
M  V30 7780 C 753.405 1.22537 -4.41303 0
M  V30 7781 N 754.896 1.29275 -4.44795 0
M  V30 7782 C 755.631 1.48988 -5.53706 0
M  V30 7783 N 755.127 1.65924 -6.72637 0
M  V30 7784 N 756.92 1.51472 -5.41306 0
M  V30 7785 H 749.071 -0.459688 -2.07366 0
M  V30 7786 H 751.334 -0.143684 -0.937048 0
M  V30 7787 H 751.04 0.0592517 -3.5165 0
M  V30 7788 H 750.914 1.79795 -3.31592 0
M  V30 7789 H 753.301 1.81827 -2.32429 0
M  V30 7790 H 753.382 0.0661119 -2.55715 0
M  V30 7791 H 753.026 0.405117 -5.06282 0
M  V30 7792 H 752.956 2.16575 -4.80003 0
M  V30 7793 H 755.447 1.17743 -3.59089 0
M  V30 7794 H 755.76 1.80578 -7.51406 0
M  V30 7795 H 754.105 1.63075 -6.75597 0
M  V30 7796 H 757.296 1.37818 -4.47352 0
M  V30 7797 H 757.469 1.66493 -6.26246 0
M  V30 7798 N 750.875 1.45233 0.611969 0
M  V30 7799 C 752.286 1.4354 1.19387 0
M  V30 7800 C 752.637 0.160713 1.95541 0
M  V30 7801 O 751.762 -0.737954 2.03429 0
M  V30 7802 C 752.357 2.60045 2.17169 0
M  V30 7803 C 750.916 2.61486 2.70744 0
M  V30 7804 C 750.063 2.35708 1.46072 0
M  V30 7805 H 753.014 1.53536 0.401529 0
M  V30 7806 H 753.035 2.33893 3.00124 0
M  V30 7807 H 752.547 3.52803 1.61714 0
M  V30 7808 H 750.648 1.72721 3.30149 0
M  V30 7809 H 750.761 3.60572 3.15476 0
M  V30 7810 H 749.125 1.85178 1.74875 0
M  V30 7811 H 749.908 3.30606 0.924922 0
M  V30 7812 N 752.353 -0.854086 1.3245 0
M  V30 7813 C 753.764 -1.42427 1.20712 0
M  V30 7814 C 754.115 -1.95371 -0.18013 0
M  V30 7815 O 753.24 -1.87587 -1.07889 0
M  V30 7816 C 753.835 -2.58897 2.18536 0
M  V30 7817 C 752.394 -3.11913 2.10683 0
M  V30 7818 C 751.541 -1.84661 2.06871 0
M  V30 7819 H 754.492 -0.661192 1.4427 0
M  V30 7820 H 754.513 -3.36074 1.78422 0
M  V30 7821 H 754.025 -2.20333 3.19492 0
M  V30 7822 H 752.126 -3.55059 1.12977 0
M  V30 7823 H 752.239 -3.73119 3.00532 0
M  V30 7824 H 750.603 -2.04285 1.52118 0
M  V30 7825 H 751.386 -1.48314 3.09609 0
M  V30 7826 N 753.831 -1.1567 -1.07043 0
M  V30 7827 C 754.764 -0.799867 -2.13723 0
M  V30 7828 C 755.742 0.225098 -1.61034 0
M  V30 7829 O 756.926 0.11093 -1.88173 0
M  V30 7830 C 754.053 -0.18997 -3.38167 0
M  V30 7831 C 753.099 -1.18733 -4.0964 0
M  V30 7832 S 753.932 -2.73074 -4.60642 0
M  V30 7833 C 755.088 -2.13512 -5.88356 0
M  V30 7834 H 755.321 -1.70342 -2.43661 0
M  V30 7835 H 752.854 -0.979377 -1.19363 0
M  V30 7836 H 754.812 0.155471 -4.10205 0
M  V30 7837 H 753.473 0.691229 -3.064 0
M  V30 7838 H 752.666 -0.708873 -4.9899 0
M  V30 7839 H 752.268 -1.47747 -3.43579 0
M  V30 7840 H 754.56 -1.49911 -6.60706 0
M  V30 7841 H 755.503 -3.01042 -6.40921 0
M  V30 7842 H 755.911 -1.57693 -5.42027 0
M  V30 7843 N 755.309 1.25446 -0.953992 0
M  V30 7844 C 756.537 1.97215 -0.625595 0
M  V30 7845 C 756.952 1.70911 0.802168 0
M  V30 7846 O 756.309 0.984782 1.5365 0
M  V30 7847 C 756.36 3.50777 -0.873943 0
M  V30 7848 O 756.081 3.76173 -2.24556 0
M  V30 7849 C 757.582 4.39776 -0.557845 0
M  V30 7850 H 754.802 0.628652 -0.2346 0
M  V30 7851 H 757.346 1.59632 -1.27819 0
M  V30 7852 H 755.501 3.86474 -0.267765 0
M  V30 7853 H 755.915 4.70636 -2.31522 0
M  V30 7854 H 757.389 5.46431 -0.782157 0
M  V30 7855 H 757.866 4.36257 0.507573 0
M  V30 7856 H 758.472 4.09644 -1.14332 0
M  V30 7857 N 756.787 0.722489 1.40064 0
M  V30 7858 C 757.719 0.0349057 2.29173 0
M  V30 7859 C 758.732 -0.716571 1.46182 0
M  V30 7860 O 759.921 -0.562806 1.69395 0
M  V30 7861 C 757.021 -0.974839 3.24577 0
M  V30 7862 C 756.194 -0.287471 4.36454 0
M  V30 7863 C 755.253 -1.20356 5.12251 0
M  V30 7864 O 754.279 -0.685753 5.65054 0
M  V30 7865 N 755.481 -2.53422 5.22262 0
M  V30 7866 H 758.246 0.800058 2.88824 0
M  V30 7867 H 755.807 0.57068 1.51509 0
M  V30 7868 H 757.799 -1.59002 3.72157 0
M  V30 7869 H 756.369 -1.6413 2.66046 0
M  V30 7870 H 755.589 0.508008 3.90913 0
M  V30 7871 H 756.877 0.189382 5.08447 0
M  V30 7872 H 756.275 -2.97981 4.80857 0
M  V30 7873 H 754.832 -3.10067 5.73325 0
M  V30 7874 N 758.265 -1.50454 0.469181 0
M  V30 7875 C 759.511 -2.02615 -0.0865971 0
M  V30 7876 C 759.844 -1.35062 -1.39542 0
M  V30 7877 O 759.119 -0.475701 -1.88593 0
M  V30 7878 C 759.402 -3.59068 -0.272385 0
M  V30 7879 C 759.255 -4.37196 1.05733 0
M  V30 7880 C 760.574 -4.2793 -1.0278 0
M  V30 7881 H 757.693 -0.736389 -0.0299977 0
M  V30 7882 H 760.335 -1.79792 0.614399 0
M  V30 7883 H 758.485 -3.78646 -0.869471 0
M  V30 7884 H 760.157 -4.29195 1.69084 0
M  V30 7885 H 758.4 -4.01013 1.65442 0
M  V30 7886 H 759.071 -5.44924 0.880997 0
M  V30 7887 H 761.547 -4.12816 -0.521718 0
M  V30 7888 H 760.423 -5.37214 -1.12659 0
M  V30 7889 H 760.684 -3.90968 -2.0639 0
M  V30 7890 N 759.743 -0.201713 -1.56304 0
M  V30 7891 C 760.973 0.440084 -2.01858 0
M  V30 7892 C 761.381 1.55279 -1.08098 0
M  V30 7893 O 760.724 1.83529 -0.0792216 0
M  V30 7894 C 760.786 1.05091 -3.43797 0
M  V30 7895 C 760.45 0.0761208 -4.56937 0
M  V30 7896 C 761.447 -0.716951 -5.14933 0
M  V30 7897 C 759.132 -0.0368815 -5.02286 0
M  V30 7898 C 761.126 -1.60993 -6.16733 0
M  V30 7899 C 758.813 -0.933409 -6.03929 0
M  V30 7900 C 759.811 -1.71849 -6.61027 0
M  V30 7901 O 759.499 -2.59998 -7.60695 0
M  V30 7902 H 759.231 0.114139 -0.666294 0
M  V30 7903 H 761.785 -0.309672 -2.03052 0
M  V30 7904 H 760.015 1.84938 -3.3961 0
M  V30 7905 H 761.704 1.59804 -3.73118 0
M  V30 7906 H 762.47 -0.63999 -4.80759 0
M  V30 7907 H 758.349 0.564034 -4.57537 0
M  V30 7908 H 761.893 -2.22315 -6.61227 0
M  V30 7909 H 757.79 -1.01146 -6.37526 0
M  V30 7910 H 758.558 -2.53851 -7.7814 0
M  V30 7911 N 761.222 1.57436 0.0718424 0
M  V30 7912 C 762.132 2.07039 1.10326 0
M  V30 7913 C 763.148 0.999918 1.424 0
M  V30 7914 O 764.324 1.31462 1.52577 0
M  V30 7915 C 761.389 2.50439 2.39752 0
M  V30 7916 C 760.45 3.71784 2.14651 0
M  V30 7917 C 759.683 4.13104 3.37906 0
M  V30 7918 O 759.906 3.54298 4.47023 0
M  V30 7919 O 758.84 5.05894 3.26121 0
M  V30 7920 H 762.666 2.95239 0.711872 0
M  V30 7921 H 760.251 1.46638 0.28597 0
M  V30 7922 H 762.133 2.78876 3.15921 0
M  V30 7923 H 760.808 1.65368 2.78271 0
M  V30 7924 H 759.715 3.48431 1.36187 0
M  V30 7925 H 761.048 4.57707 1.81012 0
M  V30 7926 N 762.7 -0.34323 1.53817 0
M  V30 7927 C 764.116 -0.686355 1.44088 0
M  V30 7928 C 764.316 -1.92426 0.597882 0
M  V30 7929 O 763.372 -2.52343 0.0889918 0
M  V30 7930 C 764.685 -0.878698 2.87575 0
M  V30 7931 C 766.233 -0.977296 2.97352 0
M  V30 7932 C 766.708 -1.20195 4.41947 0
M  V30 7933 N 768.199 -1.26915 4.45474 0
M  V30 7934 C 768.934 -1.46049 5.54488 0
M  V30 7935 N 768.43 -1.62354 6.73508 0
M  V30 7936 N 770.223 -1.48599 5.42102 0
M  V30 7937 H 762.374 0.470679 2.07119 0
M  V30 7938 H 764.637 0.148652 0.936273 0
M  V30 7939 H 764.343 -0.040602 3.51677 0
M  V30 7940 H 764.217 -1.78034 3.32541 0
M  V30 7941 H 766.604 -1.80591 2.3339 0
M  V30 7942 H 766.685 -0.0525498 2.55746 0
M  V30 7943 H 766.329 -0.378262 5.06489 0
M  V30 7944 H 766.259 -2.14027 4.81145 0
M  V30 7945 H 768.75 -1.15837 3.59708 0
M  V30 7946 H 769.063 -1.76591 7.52353 0
M  V30 7947 H 767.408 -1.5949 6.76453 0
M  V30 7948 H 770.599 -1.35443 4.48077 0
M  V30 7949 H 770.772 -1.6317 6.2712 0
M  V30 7950 N 764.178 -1.45556 -0.604258 0
M  V30 7951 C 765.108 -1.57327 -1.72541 0
M  V30 7952 C 766.089 -0.424637 -1.64714 0
M  V30 7953 O 767.274 -0.648196 -1.83063 0
M  V30 7954 C 764.404 -1.54279 -3.11152 0
M  V30 7955 C 763.358 -2.67893 -3.33792 0
M  V30 7956 C 762.684 -2.499 -4.72709 0
M  V30 7957 C 763.984 -4.0988 -3.23722 0
M  V30 7958 H 765.678 -2.51175 -1.62947 0
M  V30 7959 H 763.224 -1.20884 -0.782504 0
M  V30 7960 H 765.177 -1.6111 -3.89386 0
M  V30 7961 H 763.901 -0.569627 -3.21594 0
M  V30 7962 H 762.56 -2.60495 -2.57949 0
M  V30 7963 H 762.208 -1.50715 -4.79889 0
M  V30 7964 H 761.908 -3.26091 -4.88813 0
M  V30 7965 H 763.432 -2.5859 -5.5314 0
M  V30 7966 H 764.846 -4.18503 -3.91826 0
M  V30 7967 H 763.243 -4.86487 -3.51355 0
M  V30 7968 H 764.313 -4.31553 -2.21111 0
M  V30 7969 N 765.656 0.84705 -1.32902 0
M  V30 7970 C 766.566 1.98845 -1.2449 0
M  V30 7971 C 767.582 1.7329 -0.15702 0
M  V30 7972 O 768.758 1.978 -0.379104 0
M  V30 7973 C 765.823 3.32679 -0.975985 0
M  V30 7974 C 764.884 3.71405 -2.15306 0
M  V30 7975 C 764.117 4.98853 -1.89688 0
M  V30 7976 O 764.34 5.64134 -0.843168 0
M  V30 7977 O 763.274 5.34889 -2.76002 0
M  V30 7978 H 767.1 2.0888 -2.2046 0
M  V30 7979 H 764.685 0.978852 -1.12867 0
M  V30 7980 H 766.567 4.12885 -0.842826 0
M  V30 7981 H 765.242 3.23667 -0.0464954 0
M  V30 7982 H 764.149 2.91743 -2.34172 0
M  V30 7983 H 765.482 3.85073 -3.06561 0
M  V30 7984 N 767.134 1.16236 1.06428 0
M  V30 7985 C 768.081 0.86769 2.13869 0
M  V30 7986 C 769.051 -0.183298 1.65086 0
M  V30 7987 O 770.236 -0.0488002 1.90738 0
M  V30 7988 C 767.376 0.373427 3.43074 0
M  V30 7989 C 766.489 1.48708 4.05598 0
M  V30 7990 C 765.624 0.947977 5.22673 0
M  V30 7991 C 764.663 2.03793 5.77178 0
M  V30 7992 N 763.8 1.51451 6.85571 0
M  V30 7993 H 768.64 1.78781 2.38414 0
M  V30 7994 H 766.177 0.891892 1.16977 0
M  V30 7995 H 768.135 0.0685035 4.17144 0
M  V30 7996 H 766.765 -0.509752 3.1875 0
M  V30 7997 H 765.817 1.908 3.29089 0
M  V30 7998 H 767.129 2.30964 4.42105 0
M  V30 7999 H 766.283 0.596154 6.03764 0
M  V30 8000 H 765.022 0.0947081 4.87608 0
M  V30 8001 H 764.027 2.39847 4.94726 0
M  V30 8002 H 765.252 2.89514 6.14295 0
M  V30 8003 H 763.198 0.683755 6.52427 0
M  V30 8004 H 763.115 2.27325 7.21013 0
M  V30 8005 H 764.383 1.19123 7.70344 0
M  V30 8006 N 768.612 -1.24939 0.960631 0
M  V30 8007 C 769.542 -2.28 0.503815 0
M  V30 8008 C 770.523 -1.63959 -0.452928 0
M  V30 8009 O 771.708 -1.91009 -0.350585 0
M  V30 8010 C 768.838 -3.46643 -0.213535 0
M  V30 8011 C 767.792 -4.22903 0.658535 0
M  V30 8012 C 767.118 -5.34363 -0.189902 0
M  V30 8013 C 768.418 -4.84949 1.93963 0
M  V30 8014 H 770.112 -2.66462 1.36521 0
M  V30 8015 H 767.658 -1.28093 0.657897 0
M  V30 8016 H 769.611 -4.1787 -0.544286 0
M  V30 8017 H 768.335 -3.07187 -1.10923 0
M  V30 8018 H 766.994 -3.53467 0.972455 0
M  V30 8019 H 766.642 -4.91147 -1.08553 0
M  V30 8020 H 766.342 -5.86302 0.390331 0
M  V30 8021 H 767.866 -6.0842 -0.515484 0
M  V30 8022 H 769.28 -5.48288 1.67491 0
M  V30 8023 H 767.677 -5.47091 2.46601 0
M  V30 8024 H 768.747 -4.06799 2.639 0
M  V30 8025 N 770.09 -0.729906 -1.39679 0
M  V30 8026 C 771.022 -0.0470588 -2.29152 0
M  V30 8027 C 772.035 0.708808 -1.4656 0
M  V30 8028 O 773.224 0.553815 -1.69691 0
M  V30 8029 C 770.324 0.957612 -3.25089 0
M  V30 8030 C 769.497 0.264321 -4.36601 0
M  V30 8031 C 768.556 1.17638 -5.12882 0
M  V30 8032 O 767.582 0.655777 -5.6541 0
M  V30 8033 N 768.784 2.50649 -5.23598 0
M  V30 8034 H 771.549 -0.815364 -2.88395 0
M  V30 8035 H 769.11 -0.578707 -1.51204 0
M  V30 8036 H 771.102 1.57026 -3.72995 0
M  V30 8037 H 769.672 1.62716 -2.66912 0
M  V30 8038 H 768.892 -0.528732 -3.90638 0
M  V30 8039 H 770.18 -0.216344 -5.0834 0
M  V30 8040 H 769.578 2.95427 -4.82431 0
M  V30 8041 H 768.135 3.07022 -5.74961 0
M  V30 8042 N 771.568 1.50203 -0.477153 0
M  V30 8043 C 772.531 2.27194 0.302599 0
M  V30 8044 C 773.531 1.32221 0.915112 0
M  V30 8045 O 774.721 1.55593 0.783348 0
M  V30 8046 C 771.853 3.0938 1.43167 0
M  V30 8047 H 773.046 2.97575 -0.372678 0
M  V30 8048 H 770.599 1.54578 -0.231392 0
M  V30 8049 H 771.334 2.43509 2.14182 0
M  V30 8050 H 771.119 3.79181 0.998197 0
M  V30 8051 H 772.609 3.67592 1.98157 0
M  V30 8052 N 773.046 0.209999 1.56195 0
M  V30 8053 C 774.292 -0.425442 1.98287 0
M  V30 8054 C 774.625 -1.60232 1.09724 0
M  V30 8055 O 773.9 -1.93902 0.152414 0
M  V30 8056 C 774.183 -0.871189 3.49403 0
M  V30 8057 C 774.036 0.308527 4.48741 0
M  V30 8058 C 775.355 -1.73146 4.04609 0
M  V30 8059 H 772.474 -0.153169 0.720908 0
M  V30 8060 H 775.116 0.303916 1.87554 0
M  V30 8061 H 773.266 -1.49266 3.58681 0
M  V30 8062 H 774.938 0.946487 4.51486 0
M  V30 8063 H 773.181 0.957878 4.23092 0
M  V30 8064 H 773.852 -0.0461143 5.51981 0
M  V30 8065 H 776.328 -1.2072 3.98203 0
M  V30 8066 H 775.204 -2.01228 5.10684 0
M  V30 8067 H 775.465 -2.69083 3.5078 0
M  V30 8068 N 774.524 -1.57472 -0.0634922 0
M  V30 8069 C 775.77 -1.87932 -0.762194 0
M  V30 8070 C 776.103 -0.803377 -1.76804 0
M  V30 8071 O 775.378 0.185468 -1.93614 0
M  V30 8072 C 775.661 -3.29053 -1.46275 0
M  V30 8073 C 775.514 -4.47309 -0.472755 0
M  V30 8074 C 776.833 -3.68537 -2.40558 0
M  V30 8075 H 773.952 -0.683521 -0.275624 0
M  V30 8076 H 776.594 -1.89983 -0.0252651 0
M  V30 8077 H 774.744 -3.27435 -2.0909 0
M  V30 8078 H 776.416 -4.61053 0.150828 0
M  V30 8079 H 774.659 -4.33286 0.211187 0
M  V30 8080 H 775.33 -5.42853 -1.00072 0
M  V30 8081 H 777.806 -3.71302 -1.87814 0
M  V30 8082 H 776.682 -4.68152 -2.86574 0
M  V30 8083 H 776.943 -2.98917 -3.25731 0
M  V30 8084 N 776.003 0.335068 -1.53997 0
M  V30 8085 C 776.966 1.39481 -1.81872 0
M  V30 8086 C 777.966 1.4524 -0.690078 0
M  V30 8087 O 779.156 1.45467 -0.958377 0
M  V30 8088 C 776.288 2.78329 -1.9684 0
M  V30 8089 H 777.481 1.16024 -2.76547 0
M  V30 8090 H 775.034 0.569926 -1.45539 0
M  V30 8091 H 775.769 3.07058 -1.04337 0
M  V30 8092 H 775.554 2.75544 -2.78958 0
M  V30 8093 H 777.044 3.55016 -2.19894 0
M  V30 8094 N 777.481 1.45874 0.596531 0
M  V30 8095 C 778.729 1.5017 1.35253 0
M  V30 8096 C 779.05 0.149246 1.94428 0
M  V30 8097 O 778.32 -0.82268 1.77789 0
M  V30 8098 H 776.9 0.553052 0.502138 0
M  V30 8099 H 779.562 1.81908 0.699671 0
M  V30 8100 H 778.658 2.24671 2.16632 0
M  V30 8101 N 778.959 -0.83999 1.33349 0
M  V30 8102 C 780.205 -1.59753 1.24927 0
M  V30 8103 C 780.538 -1.93318 -0.184855 0
M  V30 8104 O 779.813 -1.586 -1.12589 0
M  V30 8105 C 780.096 -2.90829 2.12345 0
M  V30 8106 C 779.949 -2.63953 3.6421 0
M  V30 8107 C 781.268 -3.92246 1.99577 0
M  V30 8108 H 778.387 -0.579654 0.45516 0
M  V30 8109 H 781.029 -0.968909 1.63439 0
M  V30 8110 H 779.179 -3.44478 1.79631 0
M  V30 8111 H 780.851 -2.16745 4.07209 0
M  V30 8112 H 779.094 -1.97671 3.86146 0
M  V30 8113 H 779.765 -3.57348 4.20721 0
M  V30 8114 H 782.241 -3.479 2.28265 0
M  V30 8115 H 781.117 -4.81793 2.62996 0
M  V30 8116 H 781.378 -4.3138 0.967673 0
M  V30 8117 N 780.437 -1.16799 -1.0581 0
M  V30 8118 C 781.848 -0.95945 -1.60161 0
M  V30 8119 C 782.199 0.49543 -1.89842 0
M  V30 8120 O 781.324 1.36957 -1.67546 0
M  V30 8121 C 781.919 -1.73527 -2.90987 0
M  V30 8122 C 780.478 -1.57158 -3.42021 0
M  V30 8123 C 779.625 -1.74089 -2.15843 0
M  V30 8124 H 782.576 -1.31598 -0.886992 0
M  V30 8125 H 782.597 -1.21397 -3.60615 0
M  V30 8126 H 782.109 -2.79411 -2.69353 0
M  V30 8127 H 780.21 -0.537361 -3.68705 0
M  V30 8128 H 780.323 -2.35858 -4.17022 0
M  V30 8129 H 778.687 -1.16874 -2.26302 0
M  V30 8130 H 779.47 -2.81371 -1.96686 0
M  V30 8131 N 781.915 1.24427 -0.967243 0
M  V30 8132 C 783.163 1.92107 -0.627638 0
M  V30 8133 C 783.484 1.75991 0.83978 0
M  V30 8134 O 782.754 1.13118 1.59941 0
M  V30 8135 H 781.334 0.710986 -0.229145 0
M  V30 8136 H 783.996 1.51331 -1.22821 0
M  V30 8137 H 783.092 2.99791 -0.867844 0
M  V30 8138 N 783.393 0.737304 1.3929 0
M  V30 8139 C 784.343 0.0748537 2.27877 0
M  V30 8140 C 785.327 -0.71022 1.44377 0
M  V30 8141 O 786.519 -0.578851 1.67267 0
M  V30 8142 C 783.648 -0.82991 3.33118 0
M  V30 8143 C 782.734 -0.0388619 4.24082 0
M  V30 8144 N 783.125 0.989182 4.96033 0
M  V30 8145 C 781.423 -0.268167 4.45193 0
M  V30 8146 C 782.124 1.46639 5.62914 0
M  V30 8147 N 781.1 0.784581 5.37908 0
M  V30 8148 H 784.902 0.862457 2.80961 0
M  V30 8149 H 782.416 0.571845 1.51999 0
M  V30 8150 H 784.413 -1.31999 3.95452 0
M  V30 8151 H 783.073 -1.61665 2.81593 0
M  V30 8152 H 784.084 1.3706 4.99435 0
M  V30 8153 H 780.761 -1.02953 4.04607 0
M  V30 8154 H 782.151 2.32182 6.30508 0
M  V30 8155 N 784.871 -1.49948 0.485112 0
M  V30 8156 C 786.096 -2.073 -0.0645059 0
M  V30 8157 C 786.521 -1.345 -1.31497 0
M  V30 8158 O 785.879 -0.39687 -1.76903 0
M  V30 8159 C 785.927 -3.59201 -0.317304 0
M  V30 8160 O 785.031 -3.88085 -1.39514 0
M  V30 8161 H 784.372 -0.663723 0.0191822 0
M  V30 8162 H 786.902 -1.92963 0.680179 0
M  V30 8163 H 786.912 -4.04227 -0.553604 0
M  V30 8164 H 785.587 -4.11602 0.596387 0
M  V30 8165 H 784.164 -3.54885 -1.14504 0
M  V30 8166 N 786.349 -0.21828 -1.56081 0
M  V30 8167 C 787.259 0.704602 -2.23769 0
M  V30 8168 C 788.275 1.21633 -1.24425 0
M  V30 8169 O 789.451 1.25862 -1.57228 0
M  V30 8170 C 786.516 1.89725 -2.90182 0
M  V30 8171 C 785.577 1.42782 -4.0486 0
M  V30 8172 C 784.81 2.56361 -4.68097 0
M  V30 8173 O 785.033 3.74417 -4.30312 0
M  V30 8174 O 783.967 2.2775 -5.57148 0
M  V30 8175 H 787.793 0.158007 -3.03289 0
M  V30 8176 H 785.378 0.0120279 -1.49395 0
M  V30 8177 H 787.26 2.59382 -3.32113 0
M  V30 8178 H 785.935 2.432 -2.13624 0
M  V30 8179 H 784.842 0.699359 -3.67505 0
M  V30 8180 H 786.175 0.939474 -4.83151 0
M  V30 8181 N 787.827 1.57504 0.0551401 0
M  V30 8182 C 788.79 2.03826 1.04821 0
M  V30 8183 C 789.79 0.937968 1.30609 0
M  V30 8184 O 790.98 1.20237 1.2605 0
M  V30 8185 C 788.112 2.43309 2.38775 0
M  V30 8186 H 789.305 2.92802 0.6486 0
M  V30 8187 H 786.858 1.53368 0.301315 0
M  V30 8188 H 787.593 1.5741 2.83536 0
M  V30 8189 H 787.378 3.23615 2.21395 0
M  V30 8190 H 788.868 2.79666 3.10124 0
M  V30 8191 N 789.305 -0.326896 1.54172 0
M  V30 8192 C 790.268 -1.38515 1.8261 0
M  V30 8193 C 791.268 -1.44872 0.697771 0
M  V30 8194 O 792.458 -1.44957 0.966078 0
M  V30 8195 C 789.59 -2.77281 1.98313 0
M  V30 8196 H 790.783 -1.14556 2.77159 0
M  V30 8197 H 788.336 -0.562199 1.45839 0
M  V30 8198 H 789.071 -3.065 1.05964 0
M  V30 8199 H 788.856 -2.74061 2.80416 0
M  V30 8200 H 790.346 -3.53845 2.21773 0
M  V30 8201 N 790.784 -1.46188 -0.588786 0
M  V30 8202 C 792.009 -1.5498 -1.37826 0
M  V30 8203 C 792.434 -0.189498 -1.87143 0
M  V30 8204 O 791.792 0.829293 -1.61222 0
M  V30 8205 C 791.84 -2.55369 -2.54596 0
M  V30 8206 O 790.944 -2.08452 -3.55839 0
M  V30 8207 H 790.285 -0.521741 -0.41071 0
M  V30 8208 H 792.815 -1.91708 -0.714779 0
M  V30 8209 H 792.825 -2.74782 -3.01594 0
M  V30 8210 H 791.5 -3.54155 -2.18052 0
M  V30 8211 H 790.077 -1.98999 -3.15363 0
M  V30 8212 N 792.262 0.832906 -1.33792 0
M  V30 8213 C 793.502 1.60217 -1.26925 0
M  V30 8214 C 793.866 1.91323 0.161146 0
M  V30 8215 O 795.067 2.66461 0.353864 0
M  V30 8216 C 793.338 2.87314 -2.12568 0
M  V30 8217 S 794.897 3.77939 -2.22952 0
M  V30 8218 H 791.715 0.549273 -0.451464 0
M  V30 8219 H 794.317 0.984648 -1.68893 0
M  V30 8220 H 793.021 2.62444 -3.15518 0
M  V30 8221 H 792.552 3.5407 -1.71459 0
M  V30 8222 H 794.567 4.76188 -1.39496 0
M  V30 8223 N 793.74 1.17359 1.05189 0
M  V30 8224 C 794.989 0.956412 1.77583 0
M  V30 8225 C 795.302 -0.516018 1.88671 0
M  V30 8226 O 796.508 -0.851401 2.57805 0
M  V30 8227 C 794.964 1.66203 3.19225 0
M  V30 8228 C 794.572 3.17299 3.16267 0
M  V30 8229 C 796.316 1.52725 3.96075 0
M  V30 8230 C 794.223 3.8055 4.52698 0
M  V30 8231 H 793.153 0.354204 0.665624 0
M  V30 8232 H 795.804 1.40612 1.17901 0
M  V30 8233 H 794.186 1.14006 3.79234 0
M  V30 8234 H 795.36 3.76431 2.65776 0
M  V30 8235 H 793.675 3.3079 2.52917 0
M  V30 8236 H 796.272 1.97351 4.96947 0
M  V30 8237 H 796.615 0.477803 4.13549 0
M  V30 8238 H 797.148 2.02139 3.42614 0
M  V30 8239 H 793.887 4.85492 4.4043 0
M  V30 8240 H 793.407 3.26206 5.03339 0
M  V30 8241 H 795.086 3.82757 5.21638 0
M  V30 8242 N 795.218 -1.23913 0.973828 0
M  V30 8243 C 796.629 -1.73992 0.677021 0
M  V30 8244 C 796.98 -1.78833 -0.807036 0
M  V30 8245 O 796.105 -1.42183 -1.63135 0
M  V30 8246 C 796.7 -3.15985 1.22226 0
M  V30 8247 C 795.259 -3.63547 0.975228 0
M  V30 8248 C 794.406 -2.42001 1.35392 0
M  V30 8249 H 797.357 -1.09529 1.14844 0
M  V30 8250 H 797.378 -3.75875 0.591489 0
M  V30 8251 H 796.89 -3.12429 2.30238 0
M  V30 8252 H 794.991 -3.72493 -0.0891047 0
M  V30 8253 H 795.104 -4.50693 1.62518 0
M  V30 8254 H 793.468 -2.42708 0.772334 0
M  V30 8255 H 794.251 -2.41122 2.44367 0
M  V30 8256 N 796.696 -0.74468 -1.38897 0
M  V30 8257 C 798.107 -0.36568 -1.83084 0
M  V30 8258 C 798.458 1.10436 -1.62168 0
M  V30 8259 O 797.583 1.85281 -1.11804 0
M  V30 8260 C 798.178 -0.656946 -3.3237 0
M  V30 8261 C 796.737 -0.331329 -3.74939 0
M  V30 8262 C 795.884 -0.914661 -2.61781 0
M  V30 8263 H 798.835 -0.941551 -1.27752 0
M  V30 8264 H 798.856 0.0679546 -3.80439 0
M  V30 8265 H 798.368 -1.72693 -3.47561 0
M  V30 8266 H 796.469 0.732426 -3.6533 0
M  V30 8267 H 796.582 -0.820655 -4.72019 0
M  V30 8268 H 794.946 -0.34063 -2.52412 0
M  V30 8269 H 795.729 -1.98949 -2.79775 0
M  V30 8270 N 798.174 1.49689 -0.493057 0
M  V30 8271 C 799.399 2.07331 0.0535114 0
M  V30 8272 C 799.824 1.35196 1.30781 0
M  V30 8273 O 799.182 0.406246 1.7669 0
M  V30 8274 C 799.23 3.59364 0.29825 0
M  V30 8275 O 798.334 3.88819 1.37454 0
M  V30 8276 H 797.675 0.663612 -0.0227018 0
M  V30 8277 H 800.205 1.926 -0.690402 0
M  V30 8278 H 800.215 4.04515 0.532159 0
M  V30 8279 H 798.89 4.1128 -0.618207 0
M  V30 8280 H 797.467 3.55487 1.12621 0
M  V30 8281 N 799.652 0.226554 1.55963 0
M  V30 8282 C 801.063 -0.280381 1.84583 0
M  V30 8283 C 801.414 -1.59105 1.14804 0
M  V30 8284 O 800.539 -2.12297 0.419414 0
M  V30 8285 C 801.134 -0.515499 3.34855 0
M  V30 8286 C 799.693 -0.966733 3.63774 0
M  V30 8287 C 798.84 -0.0325753 2.77281 0
M  V30 8288 H 801.791 0.449626 1.52197 0
M  V30 8289 H 801.812 -1.36085 3.55332 0
M  V30 8290 H 801.324 0.438594 3.85614 0
M  V30 8291 H 799.425 -1.93401 3.18476 0
M  V30 8292 H 799.538 -0.837679 4.7172 0
M  V30 8293 H 797.902 -0.540279 2.48904 0
M  V30 8294 H 798.685 0.916524 3.30839 0
M  V30 8295 N 801.13 -1.57531 -0.0467866 0
M  V30 8296 C 802.062 -2.02156 -1.08007 0
M  V30 8297 C 803.075 -0.931434 -1.33522 0
M  V30 8298 O 804.264 -1.209 -1.31321 0
M  V30 8299 C 801.364 -2.36675 -2.42566 0
M  V30 8300 C 800.537 -3.67848 -2.36658 0
M  V30 8301 C 799.596 -3.89754 -3.53523 0
M  V30 8302 O 798.622 -4.61036 -3.33818 0
M  V30 8303 N 799.824 -3.34025 -4.74771 0
M  V30 8304 H 802.589 -2.91414 -0.699845 0
M  V30 8305 H 800.15 -1.60185 -0.235041 0
M  V30 8306 H 802.142 -2.48482 -3.19435 0
M  V30 8307 H 800.712 -1.53178 -2.72498 0
M  V30 8308 H 799.932 -3.66561 -1.45005 0
M  V30 8309 H 801.22 -4.53931 -2.29835 0
M  V30 8310 H 800.618 -2.76214 -4.93683 0
M  V30 8311 H 799.175 -3.51241 -5.49066 0
M  V30 8312 N 802.608 0.318715 -1.54344 0
M  V30 8313 C 803.518 1.41535 -1.87097 0
M  V30 8314 C 804.534 1.56361 -0.763353 0
M  V30 8315 O 805.71 1.71365 -1.05811 0
M  V30 8316 C 802.775 2.76178 -2.09587 0
M  V30 8317 C 801.836 2.70486 -3.3337 0
M  V30 8318 C 801.069 3.98708 -3.54778 0
M  V30 8319 O 801.292 4.9721 -2.79532 0
M  V30 8320 O 800.226 4.01674 -4.48266 0
M  V30 8321 H 804.052 1.16764 -2.80357 0
M  V30 8322 H 801.637 0.51318 -1.4031 0
M  V30 8323 H 803.519 3.55873 -2.25682 0
M  V30 8324 H 802.194 3.00829 -1.19514 0
M  V30 8325 H 801.101 1.89325 -3.22656 0
M  V30 8326 H 802.434 2.50789 -4.23516 0
M  V30 8327 N 804.086 1.46499 0.581025 0
M  V30 8328 C 805.034 1.57562 1.71105 0
M  V30 8329 C 806.028 0.44403 1.63477 0
M  V30 8330 O 807.234 0.620964 1.6895 0
M  V30 8331 H 803.609 0.495415 0.565746 0
M  V30 8332 H 805.58 2.5257 1.58905 0
M  V30 8333 C 804.329 1.58465 3.0949 0
M  V30 8334 H 803.652 2.44877 3.16031 0
M  V30 8335 H 805.092 1.70261 3.88313 0
M  V30 8336 C 803.551 0.313596 3.35437 0
M  V30 8337 O 804.081 -0.595456 3.97262 0
M  V30 8338 N 802.287 0.200986 2.89904 0
M  V30 8339 H 801.834 0.941643 2.39773 0
M  V30 8340 H 801.792 -0.648577 3.07638 0
M  V30 8341 N 805.565 -0.825799 1.34232 0
M  V30 8342 C 806.79 -1.61883 1.29648 0
M  V30 8343 C 807.215 -1.87669 -0.127295 0
M  V30 8344 O 806.573 -1.45016 -1.08813 0
M  V30 8345 C 806.621 -2.93846 2.09014 0
M  V30 8346 O 805.725 -3.85778 1.4577 0
M  V30 8347 H 805.066 -0.492454 0.445405 0
M  V30 8348 H 807.596 -1.02641 1.76992 0
M  V30 8349 H 807.606 -3.43435 2.20264 0
M  V30 8350 H 806.281 -2.74401 3.12533 0
M  V30 8351 H 804.858 -3.4429 1.43245 0
M  V30 8352 N 807.043 -1.17915 -1.04565 0
M  V30 8353 C 808.273 -0.994716 -1.81077 0
M  V30 8354 C 808.681 0.460146 -1.83519 0
M  V30 8355 O 808.024 1.33136 -1.26572 0
M  V30 8356 C 808.086 -1.46698 -3.28207 0
M  V30 8357 C 807.75 -2.94523 -3.49436 0
M  V30 8358 C 808.747 -3.92414 -3.41038 0
M  V30 8359 C 806.432 -3.32841 -3.76194 0
M  V30 8360 C 808.426 -5.2662 -3.59096 0
M  V30 8361 C 806.113 -4.67212 -3.93899 0
M  V30 8362 C 807.111 -5.6391 -3.8535 0
M  V30 8363 O 806.799 -6.95849 -4.02554 0
M  V30 8364 H 806.531 -0.351797 -0.577248 0
M  V30 8365 H 809.085 -1.56772 -1.32709 0
M  V30 8366 H 807.315 -0.837592 -3.7752 0
M  V30 8367 H 809.004 -1.24724 -3.86263 0
M  V30 8368 H 809.77 -3.64157 -3.20336 0
M  V30 8369 H 805.649 -2.58139 -3.81949 0
M  V30 8370 H 809.193 -6.02082 -3.52339 0
M  V30 8371 H 805.09 -4.95172 -4.14095 0
M  V30 8372 H 805.858 -7.02679 -4.19743 0
M  V30 8373 N 808.521 1.23394 -0.980386 0
M  V30 8374 C 809.767 1.92094 -0.650223 0
M  V30 8375 C 810.1 1.76309 0.814173 0
M  V30 8376 O 809.375 1.12406 1.5873 0
M  V30 8377 C 809.658 3.44713 -1.04139 0
M  V30 8378 C 809.511 3.69606 -2.56342 0
M  V30 8379 C 810.83 4.36191 -0.585296 0
M  V30 8380 H 807.949 0.697618 -0.237695 0
M  V30 8381 H 810.591 1.45517 -1.22167 0
M  V30 8382 H 808.741 3.84513 -0.55515 0
M  V30 8383 H 810.413 3.39288 -3.1254 0
M  V30 8384 H 808.656 3.14318 -2.98976 0
M  V30 8385 H 809.327 4.76441 -2.78762 0
M  V30 8386 H 811.803 4.03836 -1.00276 0
M  V30 8387 H 810.679 5.41679 -0.887428 0
M  V30 8388 H 810.94 4.39097 0.51438 0
M  V30 8389 N 809.999 0.752036 1.385 0
M  V30 8390 C 811.224 0.316993 2.04963 0
M  V30 8391 C 811.649 -1.04582 1.56346 0
M  V30 8392 O 811.007 -1.66616 0.714755 0
M  V30 8393 C 811.055 0.347235 3.58924 0
M  V30 8394 O 810.159 -0.659296 4.07096 0
M  V30 8395 H 809.5 0.140652 0.648932 0
M  V30 8396 H 812.03 1.02272 1.77205 0
M  V30 8397 H 812.04 0.19757 4.07521 0
M  V30 8398 H 810.715 1.34157 3.93668 0
M  V30 8399 H 809.292 -0.474371 3.6987 0
M  V30 8400 N 811.477 -1.49425 0.500989 0
M  V30 8401 C 812.702 -2.07356 -0.0425154 0
M  V30 8402 C 813.127 -1.35887 -1.30063 0
M  V30 8403 O 812.485 -0.41561 -1.76472 0
M  V30 8404 C 812.533 -3.59518 -0.279188 0
M  V30 8405 O 811.637 -3.89542 -1.3539 0
M  V30 8406 H 810.978 -0.663482 0.0262207 0
M  V30 8407 H 813.508 -1.92231 0.700607 0
M  V30 8408 H 813.518 -4.04791 -0.5107 0
M  V30 8409 H 812.193 -4.10946 0.640009 0
M  V30 8410 H 810.77 -3.56079 -1.10734 0
M  V30 8411 N 812.955 -0.234822 -1.55841 0
M  V30 8412 C 814.183 0.397745 -2.03041 0
M  V30 8413 C 814.598 1.52405 -1.11437 0
M  V30 8414 O 813.955 1.82061 -0.126466 0
M  V30 8415 C 814.006 0.916919 -3.49678 0
M  V30 8416 O 813.727 -0.164493 -4.37791 0
M  V30 8417 C 815.228 1.62139 -4.12584 0
M  V30 8418 H 812.448 0.0959214 -0.664108 0
M  V30 8419 H 814.992 -0.355156 -2.01392 0
M  V30 8420 H 813.147 1.62004 -3.519 0
M  V30 8421 H 813.561 0.227794 -5.24005 0
M  V30 8422 H 815.035 1.93651 -5.16917 0
M  V30 8423 H 815.512 2.53918 -3.58361 0
M  V30 8424 H 816.118 0.963145 -4.14251 0
M  V30 8425 N 814.433 1.57553 0.0384317 0
M  V30 8426 C 815.681 1.88468 0.729672 0
M  V30 8427 C 816.002 0.831302 1.76393 0
M  V30 8428 O 815.272 -0.13622 1.95426 0
M  V30 8429 H 813.852 0.695529 0.272485 0
M  V30 8430 H 816.514 1.94899 0.0066032 0
M  V30 8431 H 815.61 2.8705 1.22511 0
M  V30 8432 N 815.911 -0.310526 1.54511 0
M  V30 8433 C 817.327 -0.655637 1.45511 0
M  V30 8434 C 817.527 -1.91114 0.638564 0
M  V30 8435 O 816.583 -2.52098 0.142497 0
M  V30 8436 C 817.896 -0.817501 2.89374 0
M  V30 8437 C 819.444 -0.914003 2.99358 0
M  V30 8438 C 819.919 -1.10794 4.44397 0
M  V30 8439 N 821.41 -1.17437 4.48066 0
M  V30 8440 C 822.145 -1.34255 5.57461 0
M  V30 8441 N 821.641 -1.48032 6.768 0
M  V30 8442 N 823.434 -1.37067 5.45132 0
M  V30 8443 H 815.585 0.514506 2.06074 0
M  V30 8444 H 817.848 0.168478 0.932909 0
M  V30 8445 H 817.554 0.034003 3.51684 0
M  V30 8446 H 817.428 -1.7094 3.36243 0
M  V30 8447 H 819.815 -1.756 2.37168 0
M  V30 8448 H 819.896 0.00170958 2.558 0
M  V30 8449 H 819.54 -0.270743 5.07178 0
M  V30 8450 H 819.47 -2.03773 4.85576 0
M  V30 8451 H 821.961 -1.08181 3.62084 0
M  V30 8452 H 822.274 -1.60593 7.5593 0
M  V30 8453 H 820.619 -1.45105 6.79683 0
M  V30 8454 H 823.81 -1.25909 4.50849 0
M  V30 8455 H 823.983 -1.49831 6.3044 0
M  V30 8456 N 817.389 -1.46805 -0.573248 0
M  V30 8457 C 818.352 -1.57655 -1.66366 0
M  V30 8458 C 819.352 -0.452905 -1.5429 0
M  V30 8459 O 820.542 -0.717502 -1.58737 0
M  V30 8460 C 817.674 -1.50584 -3.05839 0
M  V30 8461 H 818.867 -2.54842 -1.581 0
M  V30 8462 H 816.42 -1.34756 -0.791868 0
M  V30 8463 H 817.155 -0.547127 -3.19651 0
M  V30 8464 H 816.94 -2.32118 -3.16012 0
M  V30 8465 H 818.43 -1.61282 -3.85199 0
M  V30 8466 N 818.867 0.818669 -1.34668 0
M  V30 8467 C 819.817 1.91882 -1.23147 0
M  V30 8468 C 820.801 1.60378 -0.129509 0
M  V30 8469 O 821.993 1.73309 -0.359581 0
M  V30 8470 C 819.122 3.28612 -0.993436 0
M  V30 8471 C 818.208 3.66221 -2.13876 0
M  V30 8472 N 818.599 3.75361 -3.39024 0
M  V30 8473 C 816.897 3.96098 -2.04994 0
M  V30 8474 C 817.598 4.0836 -4.14266 0
M  V30 8475 N 816.574 4.21806 -3.429 0
M  V30 8476 H 820.376 1.97133 -2.17981 0
M  V30 8477 H 817.89 1.01257 -1.26967 0
M  V30 8478 H 819.887 4.0725 -0.891797 0
M  V30 8479 H 818.547 3.24655 -0.053824 0
M  V30 8480 H 819.558 3.58747 -3.73525 0
M  V30 8481 H 816.235 4.00236 -1.18816 0
M  V30 8482 H 817.625 4.226 -5.22359 0
M  V30 8483 N 820.346 1.18468 1.03938 0
M  V30 8484 C 821.571 1.00638 1.81347 0
M  V30 8485 C 821.996 -0.440477 1.8287 0
M  V30 8486 O 821.354 -1.31609 1.24695 0
M  V30 8487 C 821.402 1.5673 3.24759 0
M  V30 8488 O 820.506 0.789517 4.04772 0
M  V30 8489 H 819.847 0.356432 0.560225 0
M  V30 8490 H 822.377 1.57253 1.30891 0
M  V30 8491 H 822.387 1.59496 3.75533 0
M  V30 8492 H 821.062 2.62043 3.22965 0
M  V30 8493 H 819.639 0.834267 3.63448 0
M  V30 8494 N 821.824 -1.22873 0.986916 0
M  V30 8495 C 823.072 -1.91084 0.658121 0
M  V30 8496 C 823.393 -1.77304 -0.811675 0
M  V30 8497 O 822.663 -1.15649 -1.58121 0
M  V30 8498 H 821.243 -0.707251 0.240427 0
M  V30 8499 H 823.905 -1.49357 1.25213 0
M  V30 8500 H 823.001 -2.98373 0.915428 0
M  V30 8501 N 823.302 -0.75937 -1.38099 0
M  V30 8502 C 824.265 -0.14372 -2.28749 0
M  V30 8503 C 825.265 0.641338 -1.47457 0
M  V30 8504 O 826.455 0.466751 -1.67831 0
M  V30 8505 C 823.587 0.804545 -3.3127 0
M  V30 8506 H 824.78 -0.942663 -2.847 0
M  V30 8507 H 822.333 -0.526757 -1.47156 0
M  V30 8508 H 823.068 1.62895 -2.80421 0
M  V30 8509 H 822.853 0.243939 -3.9134 0
M  V30 8510 H 824.343 1.23111 -3.99041 0
M  V30 8511 N 824.78 1.49157 -0.508906 0
M  V30 8512 C 825.743 2.27784 0.25434 0
M  V30 8513 C 826.743 1.34132 0.88686 0
M  V30 8514 O 827.933 1.5722 0.750168 0
M  V30 8515 C 825.065 3.12347 1.36573 0
M  V30 8516 H 826.258 2.96718 -0.435714 0
M  V30 8517 H 823.811 1.54052 -0.264128 0
M  V30 8518 H 824.546 2.47997 2.08969 0
M  V30 8519 H 824.331 3.81213 0.917543 0
M  V30 8520 H 825.821 3.71712 1.90315 0
M  V30 8521 N 826.258 0.243083 1.55714 0
M  V30 8522 C 827.669 -0.260788 1.8487 0
M  V30 8523 C 828.02 -1.57879 1.16485 0
M  V30 8524 O 827.145 -2.1184 0.441908 0
M  V30 8525 C 827.74 -0.479954 3.35383 0
M  V30 8526 C 826.299 -0.928096 3.64778 0
M  V30 8527 C 825.446 -0.00316416 2.773 0
M  V30 8528 H 828.397 0.465743 1.51712 0
M  V30 8529 H 828.418 -1.32308 3.56756 0
M  V30 8530 H 827.93 0.479468 3.85127 0
M  V30 8531 H 826.031 -1.90012 3.20509 0
M  V30 8532 H 826.144 -0.7876 4.72582 0
M  V30 8533 H 824.508 -0.513849 2.49463 0
M  V30 8534 H 825.291 0.951562 3.29849 0
M  V30 8535 N 827.736 -1.57571 -0.0300757 0
M  V30 8536 C 828.982 -1.90355 -0.716687 0
M  V30 8537 C 829.337 -0.841568 -1.73018 0
M  V30 8538 O 828.63 0.149847 -1.91013 0
M  V30 8539 C 828.824 -3.27624 -1.42818 0
M  V30 8540 C 828.653 -4.47076 -0.485111 0
M  V30 8541 C 827.423 -5.05188 -0.106533 0
M  V30 8542 C 829.621 -5.13758 0.236059 0
M  V30 8543 N 827.603 -6.08155 0.837899 0
M  V30 8544 C 828.974 -6.1128 1.03619 0
M  V30 8545 C 831.029 -4.96977 0.30311 0
M  V30 8546 C 829.732 -6.93829 1.89721 0
M  V30 8547 C 831.758 -5.80086 1.15125 0
M  V30 8548 C 831.12 -6.77178 1.9393 0
M  V30 8549 H 827.219 -0.745417 -0.236384 0
M  V30 8550 H 829.803 -1.94686 0.0231985 0
M  V30 8551 H 827.974 -3.24224 -2.13854 0
M  V30 8552 H 829.706 -3.47927 -2.0671 0
M  V30 8553 H 826.461 -4.71277 -0.468498 0
M  V30 8554 H 826.885 -6.64311 1.30459 0
M  V30 8555 H 831.527 -4.21791 -0.291858 0
M  V30 8556 H 829.245 -7.6836 2.50298 0
M  V30 8557 H 832.831 -5.6915 1.20665 0
M  V30 8558 H 831.711 -7.4037 2.58499 0
M  V30 8559 N 829.214 0.302327 -1.54673 0
M  V30 8560 C 830.146 1.39443 -1.81902 0
M  V30 8561 C 831.159 1.46891 -0.701914 0
M  V30 8562 O 832.348 1.49233 -0.979369 0
M  V30 8563 C 829.448 2.77824 -1.9408 0
M  V30 8564 C 828.621 2.93324 -3.24468 0
M  V30 8565 C 827.68 4.12196 -3.27079 0
M  V30 8566 O 826.706 4.04344 -4.00617 0
M  V30 8567 N 827.908 5.22768 -2.52376 0
M  V30 8568 H 830.673 1.1644 -2.76155 0
M  V30 8569 H 828.234 0.492392 -1.54231 0
M  V30 8570 H 830.226 3.5559 -1.9323 0
M  V30 8571 H 828.796 2.9378 -1.06828 0
M  V30 8572 H 828.016 2.02682 -3.38103 0
M  V30 8573 H 829.304 3.0059 -4.10516 0
M  V30 8574 H 828.702 5.32027 -1.92259 0
M  V30 8575 H 827.259 5.98874 -2.57281 0
M  V30 8576 N 830.692 1.47107 0.565454 0
M  V30 8577 C 832.103 1.47266 1.1476 0
M  V30 8578 C 832.454 0.222841 1.9493 0
M  V30 8579 O 831.579 -0.672862 2.05673 0
M  V30 8580 C 832.174 2.66822 2.08785 0
M  V30 8581 C 830.733 2.69967 2.62288 0
M  V30 8582 C 829.88 2.40236 1.38499 0
M  V30 8583 H 832.831 1.54736 0.352479 0
M  V30 8584 H 832.852 2.43323 2.92531 0
M  V30 8585 H 832.364 3.5777 1.50408 0
M  V30 8586 H 830.465 1.83137 3.24487 0
M  V30 8587 H 830.578 3.70426 3.03845 0
M  V30 8588 H 828.942 1.90648 1.68895 0
M  V30 8589 H 829.725 3.33381 0.819274 0
M  V30 8590 N 832.17 -0.811516 1.35101 0
M  V30 8591 C 833.1 -1.9378 1.30275 0
M  V30 8592 C 834.081 -1.69165 0.178075 0
M  V30 8593 O 835.266 -1.90599 0.372256 0
M  V30 8594 C 832.396 -3.30439 1.06899 0
M  V30 8595 C 831.35 -3.69523 2.15955 0
M  V30 8596 C 830.676 -5.0429 1.77751 0
M  V30 8597 C 831.976 -3.80419 3.57881 0
M  V30 8598 H 833.67 -1.98075 2.24514 0
M  V30 8599 H 831.216 -0.951586 1.08078 0
M  V30 8600 H 833.169 -4.08828 1.02164 0
M  V30 8601 H 831.893 -3.26473 0.0910462 0
M  V30 8602 H 830.552 -2.93416 2.19778 0
M  V30 8603 H 830.2 -4.96823 0.785876 0
M  V30 8604 H 829.9 -5.31411 2.5075 0
M  V30 8605 H 831.424 -5.85125 1.74533 0
M  V30 8606 H 832.838 -4.49051 3.56407 0
M  V30 8607 H 831.235 -4.19005 4.29598 0
M  V30 8608 H 832.305 -2.82105 3.94391 0
M  V30 8609 N 833.648 -1.19017 -1.03309 0
M  V30 8610 C 834.611 -0.926076 -2.09658 0
M  V30 8611 C 835.611 0.0917077 -1.60538 0
M  V30 8612 O 836.801 -0.142574 -1.73616 0
M  V30 8613 C 833.933 -0.390958 -3.38651 0
M  V30 8614 H 835.126 -1.86923 -2.3452 0
M  V30 8615 H 832.679 -1.00325 -1.19853 0
M  V30 8616 H 833.414 0.558446 -3.19456 0
M  V30 8617 H 833.199 -1.12474 -3.75622 0
M  V30 8618 H 834.689 -0.225131 -4.16993 0
M  V30 8619 N 835.127 1.22348 -0.993418 0
M  V30 8620 C 836.09 2.22522 -0.549251 0
M  V30 8621 C 837.09 1.56529 0.368164 0
M  V30 8622 O 838.28 1.73463 0.16005 0
M  V30 8623 C 835.412 3.40307 0.201037 0
M  V30 8624 H 836.605 2.63332 -1.43515 0
M  V30 8625 H 834.158 1.35407 -0.78068 0
M  V30 8626 H 834.893 3.0497 1.10289 0
M  V30 8627 H 834.678 3.8942 -0.457685 0
M  V30 8628 H 836.168 4.14597 0.499946 0
M  V30 8629 N 836.605 0.766683 1.37694 0
M  V30 8630 C 838.016 0.394761 1.82479 0
M  V30 8631 C 838.367 -1.07842 1.63904 0
M  V30 8632 O 837.492 -1.83479 1.14737 0
M  V30 8633 C 838.087 0.70974 3.31283 0
M  V30 8634 C 836.646 0.390936 3.74364 0
M  V30 8635 C 835.793 0.956192 2.60293 0
M  V30 8636 H 838.744 0.961756 1.26238 0
M  V30 8637 H 838.765 -0.00742144 3.80499 0
M  V30 8638 H 838.277 1.782 3.4477 0
M  V30 8639 H 836.378 -0.674213 3.66449 0
M  V30 8640 H 836.491 0.895645 4.70654 0
M  V30 8641 H 834.855 0.380744 2.51838 0
M  V30 8642 H 835.638 2.03375 2.76575 0
M  V30 8643 N 838.083 -1.48885 0.516809 0
M  V30 8644 C 839.308 -2.0739 -0.0205201 0
M  V30 8645 C 839.733 -1.37259 -1.28614 0
M  V30 8646 O 839.091 -0.434304 -1.76021 0
M  V30 8647 C 839.139 -3.59793 -0.24104 0
M  V30 8648 O 838.243 -3.90957 -1.31251 0
M  V30 8649 H 837.584 -0.663167 0.0332564 0
M  V30 8650 H 840.114 -1.91477 0.720956 0
M  V30 8651 H 840.124 -4.0531 -0.467737 0
M  V30 8652 H 838.799 -4.10244 0.68356 0
M  V30 8653 H 837.376 -3.57234 -1.06951 0
M  V30 8654 N 839.561 -0.251338 -1.55583 0
M  V30 8655 C 840.809 0.371434 -1.98657 0
M  V30 8656 C 841.13 1.58143 -1.14087 0
M  V30 8657 O 840.4 1.94607 -0.224708 0
M  V30 8658 H 838.98 0.140225 -0.733721 0
M  V30 8659 H 841.642 -0.351157 -1.9171 0
M  V30 8660 H 840.738 0.677554 -3.04657 0
M  V30 8661 N 841.039 1.57585 0.0217189 0
M  V30 8662 C 842.002 2.06004 1.00474 0
M  V30 8663 C 843.002 0.965461 1.2859 0
M  V30 8664 O 844.192 1.22884 1.23471 0
M  V30 8665 C 841.324 2.48319 2.33561 0
M  V30 8666 H 842.517 2.94112 0.586346 0
M  V30 8667 H 840.07 1.53973 0.268716 0
M  V30 8668 H 840.805 1.63389 2.80133 0
M  V30 8669 H 840.59 3.28239 2.1448 0
M  V30 8670 H 842.08 2.86181 3.04122 0
M  V30 8671 N 842.517 -0.29412 1.54831 0
M  V30 8672 C 843.742 -1.05156 1.78765 0
M  V30 8673 C 844.167 -1.79916 0.548809 0
M  V30 8674 O 843.525 -1.74243 -0.500909 0
M  V30 8675 C 843.573 -2.00242 2.99893 0
M  V30 8676 O 842.677 -3.08662 2.73499 0
M  V30 8677 H 842.018 -0.301737 0.591482 0
M  V30 8678 H 844.548 -0.329449 2.0193 0
M  V30 8679 H 844.558 -2.42583 3.28051 0
M  V30 8680 H 843.233 -1.45235 3.89717 0
M  V30 8681 H 841.81 -2.70786 2.56377 0
M  V30 8682 N 843.995 -1.47404 -0.557645 0
M  V30 8683 C 844.958 -1.59411 -1.64684 0
M  V30 8684 C 845.958 -0.469244 -1.53801 0
M  V30 8685 O 847.148 -0.734298 -1.57967 0
M  V30 8686 C 844.28 -1.5382 -3.04224 0
M  V30 8687 H 845.473 -2.56504 -1.55389 0
M  V30 8688 H 843.026 -1.35588 -0.777531 0
M  V30 8689 H 843.761 -0.581 -3.19053 0
M  V30 8690 H 843.546 -2.35456 -3.13533 0
M  V30 8691 H 845.036 -1.65358 -3.83466 0
M  V30 8692 N 845.473 0.80434 -1.35529 0
M  V30 8693 C 846.405 1.92445 -1.2449 0
M  V30 8694 C 847.418 1.61934 -0.167685 0
M  V30 8695 O 848.607 1.73461 -0.42115 0
M  V30 8696 C 845.707 3.26875 -0.894751 0
M  V30 8697 C 844.88 3.85275 -2.07079 0
M  V30 8698 C 843.939 4.98116 -1.69607 0
M  V30 8699 O 842.965 5.15424 -2.41509 0
M  V30 8700 N 844.167 5.77169 -0.621012 0
M  V30 8701 H 846.932 2.02441 -2.20993 0
M  V30 8702 H 844.493 0.981874 -1.28728 0
M  V30 8703 H 846.485 3.99837 -0.625511 0
M  V30 8704 H 845.055 3.12594 -0.0193306 0
M  V30 8705 H 844.275 3.0448 -2.5037 0
M  V30 8706 H 845.563 4.21024 -2.85685 0
M  V30 8707 H 844.961 5.65695 -0.0236679 0
M  V30 8708 H 843.518 6.50499 -0.411558 0
M  V30 8709 N 846.951 1.19563 1.02676 0
M  V30 8710 C 847.914 0.937182 2.09164 0
M  V30 8711 C 848.914 -0.0831927 1.60585 0
M  V30 8712 O 850.104 0.15178 1.73538 0
M  V30 8713 C 847.236 0.408912 3.38439 0
M  V30 8714 H 848.429 1.88164 2.33526 0
M  V30 8715 H 845.982 1.00959 1.19319 0
M  V30 8716 H 846.717 -0.541497 3.19747 0
M  V30 8717 H 846.502 1.14464 3.7502 0
M  V30 8718 H 847.992 0.247242 4.16867 0
M  V30 8719 N 848.429 -1.21819 0.999893 0
M  V30 8720 C 849.392 -2.22227 0.561044 0
M  V30 8721 C 850.392 -1.56722 -0.359858 0
M  V30 8722 O 851.582 -1.73546 -0.150848 0
M  V30 8723 C 848.714 -3.40409 -0.182987 0
M  V30 8724 H 849.907 -2.62567 1.44909 0
M  V30 8725 H 847.46 -1.34991 0.78785 0
M  V30 8726 H 848.195 -3.05551 -1.08671 0
M  V30 8727 H 847.98 -3.89171 0.47833 0
M  V30 8728 H 849.47 -4.14856 -0.477952 0
M  V30 8729 N 849.908 -0.773975 -1.37286 0
M  V30 8730 C 850.818 -0.162571 -2.34036 0
M  V30 8731 C 851.834 0.677022 -1.60289 0
M  V30 8732 O 853.01 0.596423 -1.92366 0
M  V30 8733 C 850.075 0.70457 -3.39465 0
M  V30 8734 C 849.136 -0.151738 -4.29032 0
M  V30 8735 C 848.369 0.674111 -5.29426 0
M  V30 8736 O 848.592 1.91107 -5.37433 0
M  V30 8737 O 847.526 0.0821398 -6.01844 0
M  V30 8738 H 851.352 -0.962119 -2.88057 0
M  V30 8739 H 848.937 -0.53517 -1.39486 0
M  V30 8740 H 850.819 1.19954 -4.03967 0
M  V30 8741 H 849.494 1.48227 -2.87768 0
M  V30 8742 H 848.401 -0.693118 -3.67623 0
M  V30 8743 H 849.734 -0.892575 -4.84039 0
M  V30 8744 N 851.386 1.48609 -0.524698 0
M  V30 8745 C 852.318 2.27508 0.278 0
M  V30 8746 C 853.331 1.35042 0.909258 0
M  V30 8747 O 854.52 1.60136 0.788592 0
M  V30 8748 C 851.62 3.08247 1.40843 0
M  V30 8749 C 850.793 4.28455 0.880083 0
M  V30 8750 C 849.852 4.91048 1.891 0
M  V30 8751 O 848.878 5.5042 1.45005 0
M  V30 8752 N 850.08 4.82816 3.22288 0
M  V30 8753 H 852.845 2.97037 -0.398642 0
M  V30 8754 H 850.406 1.57876 -0.358698 0
M  V30 8755 H 852.398 3.46992 2.08276 0
M  V30 8756 H 850.968 2.41173 1.98883 0
M  V30 8757 H 850.188 3.94189 0.0299228 0
M  V30 8758 H 851.476 5.06279 0.505881 0
M  V30 8759 H 850.874 4.3572 3.60783 0
M  V30 8760 H 849.431 5.25676 3.85368 0
M  V30 8761 N 852.864 0.259585 1.55447 0
M  V30 8762 C 853.794 -0.62852 2.24882 0
M  V30 8763 C 854.775 -1.17128 1.23349 0
M  V30 8764 O 855.96 -1.20829 1.52033 0
M  V30 8765 C 853.09 -1.81983 2.95803 0
M  V30 8766 C 852.044 -1.40929 4.04132 0
M  V30 8767 C 851.37 -2.68246 4.62545 0
M  V30 8768 C 852.67 -0.570956 5.1917 0
M  V30 8769 H 854.364 -0.0495021 2.99359 0
M  V30 8770 H 851.91 -0.0223688 1.43983 0
M  V30 8771 H 853.863 -2.44689 3.43082 0
M  V30 8772 H 852.587 -2.42444 2.18835 0
M  V30 8773 H 851.246 -0.805519 3.57641 0
M  V30 8774 H 850.894 -3.26931 3.82263 0
M  V30 8775 H 850.594 -2.41495 5.35681 0
M  V30 8776 H 852.118 -3.31827 5.12565 0
M  V30 8777 H 853.532 -1.10262 5.62597 0
M  V30 8778 H 851.929 -0.398979 5.98772 0
M  V30 8779 H 852.999 0.413918 4.8313 0
M  V30 8780 N 854.342 -1.57594 -0.0133615 0
M  V30 8781 C 855.274 -2.04402 -1.03695 0
M  V30 8782 C 856.287 -0.959546 -1.31516 0
M  V30 8783 O 857.476 -1.23659 -1.28727 0
M  V30 8784 C 854.576 -2.41766 -2.37491 0
M  V30 8785 C 853.749 -3.72785 -2.28802 0
M  V30 8786 C 852.808 -3.97165 -3.45176 0
M  V30 8787 O 851.834 -4.68013 -3.23963 0
M  V30 8788 N 853.036 -3.44021 -4.67579 0
M  V30 8789 H 855.801 -2.92833 -0.637874 0
M  V30 8790 H 853.362 -1.60647 -0.20101 0
M  V30 8791 H 855.354 -2.55201 -3.14093 0
M  V30 8792 H 853.924 -1.58924 -2.69188 0
M  V30 8793 H 853.144 -3.69555 -1.37197 0
M  V30 8794 H 854.432 -4.58704 -2.20154 0
M  V30 8795 H 853.83 -2.86623 -4.87713 0
M  V30 8796 H 852.387 -3.62808 -5.41492 0
M  V30 8797 N 855.82 0.285905 -1.54985 0
M  V30 8798 C 857.236 0.632405 -1.46536 0
M  V30 8799 C 857.436 1.90074 -0.668888 0
M  V30 8800 O 856.492 2.51839 -0.182586 0
M  V30 8801 C 857.805 0.771361 -2.90638 0
M  V30 8802 C 859.353 0.866262 -3.00774 0
M  V30 8803 C 859.828 1.0371 -4.46103 0
M  V30 8804 N 861.319 1.10294 -4.49877 0
M  V30 8805 C 862.054 1.25369 -5.59527 0
M  V30 8806 N 861.55 1.37246 -6.7907 0
M  V30 8807 N 863.343 1.28377 -5.47244 0
M  V30 8808 H 855.494 -0.547226 -2.0523 0
M  V30 8809 H 857.757 -0.183298 -0.930111 0
M  V30 8810 H 857.463 -0.0899485 -3.51585 0
M  V30 8811 H 857.337 1.65569 -3.3892 0
M  V30 8812 H 859.724 1.71805 -2.39931 0
M  V30 8813 H 859.805 -0.0424049 -2.55765 0
M  V30 8814 H 859.449 0.190021 -5.07544 0
M  V30 8815 H 859.379 1.96022 -4.88757 0
M  V30 8816 H 861.87 1.02407 -3.6376 0
M  V30 8817 H 862.183 1.48546 -7.58389 0
M  V30 8818 H 860.528 1.34274 -6.81906 0
M  V30 8819 H 863.719 1.1872 -4.52795 0
M  V30 8820 H 863.892 1.39782 -6.32744 0
M  V30 8821 N 857.298 1.47698 0.54982 0
M  V30 8822 C 858.546 1.54397 1.30407 0
M  V30 8823 C 858.867 0.211026 1.93855 0
M  V30 8824 O 858.137 -0.765701 1.80316 0
M  V30 8825 H 856.717 0.568747 0.484289 0
M  V30 8826 H 859.379 1.84042 0.641444 0
M  V30 8827 H 858.475 2.31449 2.09375 0
M  V30 8828 N 858.776 -0.797141 1.35954 0
M  V30 8829 C 860.187 -1.37179 1.26644 0
M  V30 8830 C 860.538 -1.9596 -0.0971046 0
M  V30 8831 O 859.663 -1.91994 -0.998355 0
M  V30 8832 C 860.258 -2.49395 2.2932 0
M  V30 8833 C 858.817 -3.02697 2.23722 0
M  V30 8834 C 857.964 -1.75721 2.14517 0
M  V30 8835 H 860.915 -0.599407 1.46945 0
M  V30 8836 H 860.936 -3.28204 1.92515 0
M  V30 8837 H 860.448 -2.06584 3.2855 0
M  V30 8838 H 858.549 -3.49948 1.27934 0
M  V30 8839 H 858.662 -3.60036 3.16087 0
M  V30 8840 H 857.026 -1.97649 1.60646 0
M  V30 8841 H 857.809 -1.35049 3.15621 0
M  V30 8842 N 860.254 -1.20106 -1.0204 0
M  V30 8843 C 861.202 -0.943231 -2.12617 0
M  V30 8844 C 862.196 0.104042 -1.6908 0
M  V30 8845 O 863.402 -0.0459732 -1.79941 0
M  V30 8846 H 859.777 -0.28767 -0.694802 0
M  V30 8847 H 861.748 -1.88221 -2.3155 0
M  V30 8848 C 860.497 -0.50771 -3.43973 0
M  V30 8849 H 859.82 -1.30514 -3.77897 0
M  V30 8850 H 861.26 -0.366486 -4.22413 0
M  V30 8851 C 859.719 0.77939 -3.27761 0
M  V30 8852 O 860.249 1.83876 -3.57145 0
M  V30 8853 N 858.455 0.739931 -2.81022 0
M  V30 8854 H 858.002 -0.122426 -2.57309 0
M  V30 8855 H 857.96 1.60147 -2.70556 0
M  V30 8856 N 861.732 1.21287 -1.00634 0
M  V30 8857 C 862.664 2.2308 -0.526094 0
M  V30 8858 C 863.677 1.58157 0.386031 0
M  V30 8859 O 864.866 1.77528 0.186016 0
M  V30 8860 C 861.966 3.37937 0.255289 0
M  V30 8861 C 861.139 4.32449 -0.656236 0
M  V30 8862 C 860.198 5.26145 0.0757714 0
M  V30 8863 O 859.224 5.66601 -0.543325 0
M  V30 8864 N 860.426 5.6449 1.35391 0
M  V30 8865 H 863.191 2.64913 -1.40147 0
M  V30 8866 H 860.752 1.35724 -0.882641 0
M  V30 8867 H 862.744 3.97614 0.753977 0
M  V30 8868 H 861.314 2.95078 1.03187 0
M  V30 8869 H 860.534 3.70892 -1.3354 0
M  V30 8870 H 861.822 4.92526 -1.27653 0
M  V30 8871 H 861.22 5.33617 1.878 0
M  V30 8872 H 859.777 6.26524 1.79753 0
M  V30 8873 N 863.21 0.781244 1.36873 0
M  V30 8874 C 864.621 0.414093 1.8205 0
M  V30 8875 C 864.972 -1.06098 1.65039 0
M  V30 8876 O 864.097 -1.82251 1.16677 0
M  V30 8877 C 864.692 0.744837 3.30511 0
M  V30 8878 C 863.251 0.430621 3.73929 0
M  V30 8879 C 862.398 0.983746 2.59264 0
M  V30 8880 H 865.349 0.975091 1.2521 0
M  V30 8881 H 865.37 0.032936 3.80486 0
M  V30 8882 H 864.882 1.81847 3.42861 0
M  V30 8883 H 862.983 -0.635308 3.67144 0
M  V30 8884 H 863.096 0.945514 4.69677 0
M  V30 8885 H 861.46 0.407433 2.5142 0
M  V30 8886 H 862.243 2.06297 2.74402 0
M  V30 8887 N 864.689 -1.48329 0.532571 0
M  V30 8888 C 865.935 -2.028 -0.000583219 0
M  V30 8889 C 866.268 -1.40858 -1.33688 0
M  V30 8890 O 865.543 -0.555261 -1.86406 0
M  V30 8891 C 865.826 -3.59901 -0.119846 0
M  V30 8892 C 865.679 -4.32318 1.2418 0
M  V30 8893 C 866.998 -4.31904 -0.845372 0
M  V30 8894 H 864.117 -0.736999 0.00126205 0
M  V30 8895 H 866.759 -1.77024 0.690102 0
M  V30 8896 H 864.909 -3.81993 -0.708092 0
M  V30 8897 H 866.581 -4.21637 1.87136 0
M  V30 8898 H 864.824 -3.93635 1.82301 0
M  V30 8899 H 865.495 -5.40697 1.11132 0
M  V30 8900 H 867.971 -4.14658 -0.346159 0
M  V30 8901 H 866.847 -5.41509 -0.897723 0
M  V30 8902 H 867.108 -3.99369 -1.89622 0
M  V30 8903 N 866.167 -0.267825 -1.55308 0
M  V30 8904 C 867.077 0.633055 -2.25897 0
M  V30 8905 C 868.093 1.17613 -1.28231 0
M  V30 8906 O 869.269 1.20797 -1.61153 0
M  V30 8907 C 866.334 1.80397 -2.96071 0
M  V30 8908 C 865.395 1.29829 -4.09198 0
M  V30 8909 C 864.628 2.4134 -4.76016 0
M  V30 8910 O 864.851 3.60537 -4.42006 0
M  V30 8911 O 863.785 2.09909 -5.64111 0
M  V30 8912 H 867.611 0.0614381 -3.03638 0
M  V30 8913 H 865.196 -0.0355072 -1.49358 0
M  V30 8914 H 867.078 2.48685 -3.40197 0
M  V30 8915 H 865.753 2.36281 -2.21253 0
M  V30 8916 H 864.66 0.582086 -3.69544 0
M  V30 8917 H 865.993 0.785288 -4.85895 0
M  V30 8918 N 867.645 1.57599 0.00500368 0
M  V30 8919 C 868.87 1.95026 0.705663 0
M  V30 8920 C 869.295 0.869643 1.6679 0
M  V30 8921 O 868.653 -0.172659 1.80476 0
M  V30 8922 C 868.701 3.31545 1.4181 0
M  V30 8923 O 867.805 3.25495 2.53232 0
M  V30 8924 H 867.146 0.636808 0.188074 0
M  V30 8925 H 869.676 2.04547 -0.046696 0
M  V30 8926 H 869.686 3.66996 1.78265 0
M  V30 8927 H 868.361 4.09751 0.712543 0
M  V30 8928 H 866.938 3.01714 2.19142 0
M  V30 8929 N 869.123 -0.277682 1.55134 0
M  V30 8930 C 870.4 -1.0309 1.66228 0
M  V30 8931 C 870.78 -2.0445 0.525701 0
M  V30 8932 O 870.128 -2.23512 -0.474816 0
M  V30 8933 C 870.338 -1.6919 3.05247 0
M  V30 8934 C 871.686 -2.20526 3.62841 0
M  V30 8935 O 872.71 -1.79185 3.07849 0
M  V30 8936 O 871.569 -2.96342 4.59177 0
M  V30 8937 H 868.663 -0.4779 0.674937 0
M  V30 8938 H 871.209 -0.273912 1.67475 0
M  V30 8939 H 869.981 -0.957163 3.79413 0
M  V30 8940 H 869.604 -2.51587 3.07879 0
M  V30 8941 N 870.601 -1.47988 -0.541979 0
M  V30 8942 C 871.511 -1.64276 -1.67483 0
M  V30 8943 C 872.527 -0.525387 -1.65879 0
M  V30 8944 O 873.703 -0.794912 -1.85049 0
M  V30 8945 C 870.768 -1.66744 -3.03969 0
M  V30 8946 C 869.829 -2.90021 -3.16522 0
M  V30 8947 C 869.062 -2.92362 -4.46498 0
M  V30 8948 O 869.285 -2.03462 -5.32878 0
M  V30 8949 O 868.219 -3.84399 -4.63164 0
M  V30 8950 H 872.045 -2.60164 -1.5668 0
M  V30 8951 H 869.63 -1.31249 -0.71372 0
M  V30 8952 H 871.512 -1.70958 -3.85164 0
M  V30 8953 H 870.187 -0.740277 -3.15122 0
M  V30 8954 H 869.094 -2.91345 -2.34667 0
M  V30 8955 H 870.427 -3.82082 -3.10281 0
M  V30 8956 N 872.079 0.78992 -1.36375 0
M  V30 8957 C 873.304 1.58389 -1.33895 0
M  V30 8958 C 873.729 1.8794 0.0774934 0
M  V30 8959 O 873.087 1.4785 1.0493 0
M  V30 8960 C 873.135 2.88201 -2.16732 0
M  V30 8961 O 872.239 3.81778 -1.55946 0
M  V30 8962 H 871.58 0.480471 -0.458305 0
M  V30 8963 H 874.11 0.979119 -1.79651 0
M  V30 8964 H 874.12 3.37475 -2.29292 0
M  V30 8965 H 872.795 2.66019 -3.19698 0
M  V30 8966 H 871.372 3.40371 -1.52323 0
M  V30 8967 N 873.557 1.20646 1.01402 0
M  V30 8968 C 874.487 0.98155 2.11867 0
M  V30 8969 C 875.468 -0.0903712 1.6986 0
M  V30 8970 O 876.653 0.0676586 1.94082 0
M  V30 8971 C 873.783 0.535636 3.43145 0
M  V30 8972 C 872.737 1.55109 3.98905 0
M  V30 8973 C 872.063 0.961725 5.2598 0
M  V30 8974 C 873.363 2.93552 4.32001 0
M  V30 8975 H 875.057 1.90544 2.3094 0
M  V30 8976 H 872.603 0.917554 1.10982 0
M  V30 8977 H 874.556 0.365512 4.19812 0
M  V30 8978 H 873.28 -0.423882 3.23838 0
M  V30 8979 H 871.939 1.70862 3.24348 0
M  V30 8980 H 871.587 -0.00580108 5.03 0
M  V30 8981 H 871.287 1.63993 5.64252 0
M  V30 8982 H 872.811 0.802726 6.053 0
M  V30 8983 H 874.225 2.81295 4.99546 0
M  V30 8984 H 872.622 3.58303 4.81393 0
M  V30 8985 H 873.692 3.4508 3.40658 0
M  V30 8986 N 875.035 -1.20752 1.01276 0
M  V30 8987 C 876.283 -1.89645 0.698505 0
M  V30 8988 C 876.604 -1.78986 -0.773883 0
M  V30 8989 O 875.874 -1.18977 -1.55632 0
M  V30 8990 H 874.454 -0.701992 0.255375 0
M  V30 8991 H 877.116 -1.46668 1.28353 0
M  V30 8992 H 876.212 -2.96364 0.978512 0
M  V30 8993 N 876.513 -0.788492 -1.36457 0
M  V30 8994 C 877.761 -0.359749 -1.98872 0
M  V30 8995 C 878.082 1.07197 -1.62892 0
M  V30 8996 O 877.352 1.73875 -0.902463 0
M  V30 8997 H 875.932 -0.130029 -0.735596 0
M  V30 8998 H 878.594 -1.01033 -1.66668 0
M  V30 8999 H 877.69 -0.450835 -3.08827 0
M  V30 9000 N 877.991 1.48044 -0.54043 0
M  V30 9001 C 878.921 2.32597 0.205178 0
M  V30 9002 C 879.902 1.42748 0.925041 0
M  V30 9003 O 881.087 1.71624 0.908784 0
M  V30 9004 C 878.217 3.24175 1.24612 0
M  V30 9005 C 877.171 4.23131 0.64376 0
M  V30 9006 C 876.497 5.03915 1.78812 0
M  V30 9007 C 877.797 5.20831 -0.39144 0
M  V30 9008 H 879.491 2.95184 -0.500676 0
M  V30 9009 H 877.037 1.41948 -0.242225 0
M  V30 9010 H 878.99 3.82158 1.77576 0
M  V30 9011 H 877.714 2.59608 1.98169 0
M  V30 9012 H 876.373 3.66349 0.135554 0
M  V30 9013 H 876.021 4.35765 2.51232 0
M  V30 9014 H 875.721 5.709 1.39094 0
M  V30 9015 H 877.245 5.64753 2.32134 0
M  V30 9016 H 878.659 5.73277 0.0515064 0
M  V30 9017 H 877.056 5.95926 -0.706569 0
M  V30 9018 H 878.126 4.6733 -1.29345 0
M  V30 9019 N 879.47 0.276058 1.55163 0
M  V30 9020 C 880.695 -0.346648 2.04483 0
M  V30 9021 C 881.12 -1.48613 1.15308 0
M  V30 9022 O 880.478 -1.80663 0.151875 0
M  V30 9023 C 880.526 -0.804268 3.51517 0
M  V30 9024 O 879.63 -1.91143 3.65429 0
M  V30 9025 H 878.971 -0.0715251 0.660136 0
M  V30 9026 H 881.501 0.410631 2.00437 0
M  V30 9027 H 881.511 -1.09977 3.92898 0
M  V30 9028 H 880.186 0.0294123 4.1589 0
M  V30 9029 H 878.763 -1.61839 3.3595 0
M  V30 9030 N 880.948 -1.576 0.00335426 0
M  V30 9031 C 881.911 -2.07576 -0.971838 0
M  V30 9032 C 882.911 -0.985796 -1.27038 0
M  V30 9033 O 884.101 -1.24833 -1.21501 0
M  V30 9034 C 881.233 -2.52003 -2.29581 0
M  V30 9035 H 882.426 -2.95008 -0.539481 0
M  V30 9036 H 879.979 -1.54381 -0.244186 0
M  V30 9037 H 880.714 -1.67825 -2.77498 0
M  V30 9038 H 880.499 -3.31609 -2.09231 0
M  V30 9039 H 881.989 -2.90983 -2.99531 0
M  V30 9040 N 882.426 0.269451 -1.5528 0
M  V30 9041 C 883.389 1.31642 -1.87625 0
M  V30 9042 C 884.389 1.42182 -0.751058 0
M  V30 9043 O 885.579 1.41272 -1.01921 0
M  V30 9044 C 882.711 2.6973 -2.08467 0
M  V30 9045 H 883.904 1.0419 -2.81219 0
M  V30 9046 H 881.457 0.507685 -1.47825 0
M  V30 9047 H 882.192 3.02356 -1.17266 0
M  V30 9048 H 881.977 2.63465 -2.90394 0
M  V30 9049 H 883.467 3.4537 -2.34753 0
M  V30 9050 N 883.904 1.48273 0.534124 0
M  V30 9051 C 884.834 1.6538 1.64839 0
M  V30 9052 C 885.815 0.502741 1.62501 0
M  V30 9053 O 887 0.734799 1.79762 0
M  V30 9054 C 884.13 1.68949 3.03436 0
M  V30 9055 C 883.084 2.83513 3.20631 0
M  V30 9056 C 882.41 2.72169 4.60248 0
M  V30 9057 C 883.71 4.24858 3.03797 0
M  V30 9058 H 885.404 2.58663 1.50777 0
M  V30 9059 H 882.95 1.24479 0.723937 0
M  V30 9060 H 884.903 1.79505 3.81256 0
M  V30 9061 H 883.627 0.722415 3.1851 0
M  V30 9062 H 882.286 2.72505 2.45227 0
M  V30 9063 H 881.934 1.7344 4.72152 0
M  V30 9064 H 881.634 3.49042 4.72698 0
M  V30 9065 H 883.158 2.84687 5.40172 0
M  V30 9066 H 884.572 4.36721 3.71413 0
M  V30 9067 H 882.969 5.02697 3.27743 0
M  V30 9068 H 884.039 4.41611 2.0027 0
M  V30 9069 N 885.382 -0.782676 1.36792 0
M  V30 9070 C 886.798 -1.08169 1.17352 0
M  V30 9071 C 886.998 -2.015 0.0022037 0
M  V30 9072 O 886.054 -2.43692 -0.661093 0
M  V30 9073 C 887.367 -1.68969 2.48737 0
M  V30 9074 C 888.915 -1.81278 2.55161 0
M  V30 9075 C 889.39 -2.45492 3.86649 0
M  V30 9076 N 890.881 -2.52954 3.88032 0
M  V30 9077 C 891.616 -3.03465 4.86515 0
M  V30 9078 N 891.112 -3.54232 5.95392 0
M  V30 9079 N 892.905 -3.02239 4.73928 0
M  V30 9080 H 885.056 -0.162757 2.11775 0
M  V30 9081 H 887.319 -0.134823 0.938364 0
M  V30 9082 H 887.025 -1.07859 3.34753 0
M  V30 9083 H 886.899 -2.68397 2.65034 0
M  V30 9084 H 889.286 -2.41524 1.69559 0
M  V30 9085 H 889.367 -0.806367 2.42758 0
M  V30 9086 H 889.011 -1.85889 4.7266 0
M  V30 9087 H 888.941 -3.46718 3.96351 0
M  V30 9088 H 891.432 -2.17014 3.09376 0
M  V30 9089 H 891.745 -3.91145 6.66503 0
M  V30 9090 H 890.09 -3.52366 5.99052 0
M  V30 9091 H 893.281 -2.61871 3.87996 0
M  V30 9092 H 893.454 -3.41295 5.50837 0
M  V30 9093 N 886.86 -1.21182 -1.00761 0
M  V30 9094 C 888.085 -1.05411 -1.78615 0
M  V30 9095 C 888.51 0.391837 -1.83973 0
M  V30 9096 O 887.868 1.28256 -1.28141 0
M  V30 9097 C 887.916 -1.65285 -3.20489 0
M  V30 9098 O 887.02 -0.896558 -4.02536 0
M  V30 9099 H 886.361 -0.37116 -0.550578 0
M  V30 9100 H 888.891 -1.60669 -1.26676 0
M  V30 9101 H 888.901 -1.69397 -3.71172 0
M  V30 9102 H 887.576 -2.70514 -3.15904 0
M  V30 9103 H 886.153 -0.930335 -3.61108 0
M  V30 9104 N 888.338 1.20213 -1.01915 0
M  V30 9105 C 889.584 1.90203 -0.720724 0
M  V30 9106 C 889.939 1.77526 0.74178 0
M  V30 9107 O 889.232 1.15037 1.53222 0
M  V30 9108 C 889.426 3.40232 -1.09438 0
M  V30 9109 C 889.255 3.67509 -2.59167 0
M  V30 9110 C 888.025 3.86082 -3.25989 0
M  V30 9111 C 890.223 3.69863 -3.5736 0
M  V30 9112 N 888.205 4.009 -4.64922 0
M  V30 9113 C 889.576 3.90136 -4.81865 0
M  V30 9114 C 891.631 3.52839 -3.51296 0
M  V30 9115 C 890.334 3.9515 -6.0104 0
M  V30 9116 C 892.36 3.59125 -4.69875 0
M  V30 9117 C 891.722 3.79874 -5.93191 0
M  V30 9118 H 887.821 0.715556 -0.315442 0
M  V30 9119 H 890.405 1.44538 -1.30449 0
M  V30 9120 H 888.576 3.84643 -0.538933 0
M  V30 9121 H 890.308 3.97704 -0.74923 0
M  V30 9122 H 887.063 3.84569 -2.76413 0
M  V30 9123 H 887.487 4.12181 -5.37062 0
M  V30 9124 H 892.129 3.35762 -2.56951 0
M  V30 9125 H 889.847 4.11022 -6.95763 0
M  V30 9126 H 893.433 3.47257 -4.66802 0
M  V30 9127 H 892.313 3.846 -6.83412 0
M  V30 9128 N 889.816 0.795718 1.36037 0
M  V30 9129 C 890.766 0.171437 2.27355 0
M  V30 9130 C 891.75 -0.648346 1.47259 0
M  V30 9131 O 892.942 -0.507386 1.69572 0
M  V30 9132 C 890.071 -0.687876 3.36338 0
M  V30 9133 C 889.157 0.141041 4.23865 0
M  V30 9134 N 889.548 1.19868 4.91391 0
M  V30 9135 C 887.846 -0.0791045 4.4593 0
M  V30 9136 C 888.547 1.70382 5.56188 0
M  V30 9137 N 887.523 1.01202 5.34097 0
M  V30 9138 H 891.325 0.980846 2.7705 0
M  V30 9139 H 888.839 0.635798 1.49437 0
M  V30 9140 H 890.836 -1.15107 4.00694 0
M  V30 9141 H 889.496 -1.49576 2.88196 0
M  V30 9142 H 890.507 1.58119 4.93172 0
M  V30 9143 H 887.184 -0.856993 4.0861 0
M  V30 9144 H 888.574 2.58715 6.20093 0
M  V30 9145 N 891.294 -1.47756 0.548274 0
M  V30 9146 C 892.224 -2.32702 -0.19284 0
M  V30 9147 C 893.205 -1.43237 -0.917457 0
M  V30 9148 O 894.39 -1.72103 -0.89967 0
M  V30 9149 C 891.52 -3.24831 -1.22891 0
M  V30 9150 C 890.474 -4.23466 -0.621312 0
M  V30 9151 C 889.8 -5.04856 -1.76137 0
M  V30 9152 C 891.1 -5.20616 0.419055 0
M  V30 9153 H 892.794 -2.94914 0.516323 0
M  V30 9154 H 890.34 -1.41818 0.24975 0
M  V30 9155 H 892.293 -3.83094 -1.75547 0
M  V30 9156 H 891.017 -2.60656 -1.9679 0
M  V30 9157 H 889.676 -3.66416 -0.116123 0
M  V30 9158 H 889.324 -4.37091 -2.48918 0
M  V30 9159 H 889.024 -5.71629 -1.36065 0
M  V30 9160 H 890.548 -5.65976 -2.29136 0
M  V30 9161 H 891.962 -5.73296 -0.0211034 0
M  V30 9162 H 890.359 -5.95543 0.738163 0
M  V30 9163 H 891.429 -4.66638 1.31822 0
M  V30 9164 N 892.772 -0.284283 -1.55015 0
M  V30 9165 C 894 0.332948 -2.04203 0
M  V30 9166 C 894.415 1.48783 -1.16229 0
M  V30 9167 O 893.772 1.81567 -0.184323 0
M  V30 9168 C 893.823 0.805207 -3.52418 0
M  V30 9169 O 893.544 -0.303689 -4.37046 0
M  V30 9170 C 895.045 1.48931 -4.17534 0
M  V30 9171 H 892.265 0.0747447 -0.666824 0
M  V30 9172 H 894.809 -0.419048 -2.00161 0
M  V30 9173 H 892.964 1.50727 -3.56876 0
M  V30 9174 H 893.378 0.0609703 -5.24465 0
M  V30 9175 H 894.852 1.77108 -5.22816 0
M  V30 9176 H 895.329 2.42389 -3.66257 0
M  V30 9177 H 895.935 0.830867 -4.17105 0
M  V30 9178 N 894.251 1.57596 -0.0117121 0
M  V30 9179 C 895.662 1.79033 0.529521 0
M  V30 9180 C 896.013 0.920299 1.73277 0
M  V30 9181 O 895.138 0.125934 2.16033 0
M  V30 9182 C 895.733 3.24695 0.967405 0
M  V30 9183 C 894.292 3.47188 1.45387 0
M  V30 9184 C 893.439 2.74245 0.410466 0
M  V30 9185 H 896.39 1.56908 -0.237836 0
M  V30 9186 H 896.411 3.33451 1.83278 0
M  V30 9187 H 895.923 3.87992 0.0914605 0
M  V30 9188 H 894.024 2.89121 2.35032 0
M  V30 9189 H 894.137 4.55886 1.47325 0
M  V30 9190 H 892.501 2.39209 0.874721 0
M  V30 9191 H 893.284 3.40248 -0.456713 0
M  V30 9192 N 895.729 -0.261212 1.5542 0
M  V30 9193 C 896.954 -1.01341 1.80955 0
M  V30 9194 C 897.379 -1.78711 0.586849 0
M  V30 9195 O 896.737 -1.75266 -0.463837 0
M  V30 9196 C 896.785 -1.93835 3.04073 0
M  V30 9197 O 895.889 -3.02791 2.79985 0
M  V30 9198 H 895.23 -0.289123 0.597749 0
M  V30 9199 H 897.76 -0.286543 2.02584 0
M  V30 9200 H 897.77 -2.3557 3.33123 0
M  V30 9201 H 896.445 -1.36936 3.9271 0
M  V30 9202 H 895.022 -2.65287 2.62063 0
M  V30 9203 N 897.207 -1.48554 -0.526253 0
M  V30 9204 C 898.447 -1.58362 -1.29232 0
M  V30 9205 C 898.811 -0.253353 -1.90321 0
M  V30 9206 O 900.012 -0.226439 -2.67845 0
M  V30 9207 C 898.283 -2.69294 -2.3498 0
M  V30 9208 S 899.842 -2.98891 -3.21262 0
M  V30 9209 H 896.66 -0.558859 -0.439543 0
M  V30 9210 H 899.262 -1.86094 -0.599099 0
M  V30 9211 H 897.966 -3.64504 -1.88587 0
M  V30 9212 H 897.497 -2.43475 -3.09004 0
M  V30 9213 H 899.512 -2.38475 -4.35137 0
M  V30 9214 N 898.685 0.775411 -1.37205 0
M  V30 9215 C 900.096 1.35147 -1.28811 0
M  V30 9216 C 900.447 1.96089 0.0659168 0
M  V30 9217 O 899.572 1.93558 0.967684 0
M  V30 9218 C 900.167 2.45715 -2.33258 0
M  V30 9219 C 898.726 2.99099 -2.2851 0
M  V30 9220 C 897.873 1.72286 -2.17285 0
M  V30 9221 H 900.824 0.575954 -1.4788 0
M  V30 9222 H 900.845 3.251 -1.97712 0
M  V30 9223 H 900.357 2.01331 -3.31795 0
M  V30 9224 H 898.458 3.47868 -1.33485 0
M  V30 9225 H 898.571 3.54962 -3.21774 0
M  V30 9226 H 896.935 1.95068 -1.6377 0
M  V30 9227 H 897.718 1.3001 -3.1773 0
M  V30 9228 N 900.163 1.21714 1.00117 0
M  V30 9229 C 901.093 1.00397 2.10815 0
M  V30 9230 C 902.074 -0.0723502 1.69946 0
M  V30 9231 O 903.259 0.0882398 1.93999 0
M  V30 9232 C 900.389 0.572001 3.42557 0
M  V30 9233 C 899.343 1.59331 3.97237 0
M  V30 9234 C 898.669 1.01746 5.2493 0
M  V30 9235 C 899.969 2.98117 4.28863 0
M  V30 9236 H 901.663 1.92983 2.28906 0
M  V30 9237 H 899.209 0.929273 1.10002 0
M  V30 9238 H 901.162 0.410018 4.19401 0
M  V30 9239 H 899.886 -0.38951 3.24269 0
M  V30 9240 H 898.545 1.74293 3.22518 0
M  V30 9241 H 898.193 0.0475491 5.02978 0
M  V30 9242 H 897.893 1.69969 5.62481 0
M  V30 9243 H 899.417 0.866881 6.04415 0
M  V30 9244 H 900.831 2.86578 4.96534 0
M  V30 9245 H 899.228 3.63389 4.77565 0
M  V30 9246 H 900.298 3.48674 3.36979 0
M  V30 9247 N 901.641 -1.19671 1.02551 0
M  V30 9248 C 902.918 -1.85014 0.634771 0
M  V30 9249 C 903.298 -1.91574 -0.886706 0
M  V30 9250 O 902.646 -1.43022 -1.78205 0
M  V30 9251 C 902.856 -3.24167 1.29292 0
M  V30 9252 C 904.204 -4.00363 1.41402 0
M  V30 9253 O 905.228 -3.33553 1.24983 0
M  V30 9254 O 904.087 -5.2003 1.6802 0
M  V30 9255 H 901.181 -0.797147 0.220196 0
M  V30 9256 H 903.727 -1.27188 1.12345 0
M  V30 9257 H 902.499 -3.14208 2.33215 0
M  V30 9258 H 902.122 -3.89634 0.791895 0
M  V30 9259 N 903.119 -0.802921 -1.35613 0
M  V30 9260 C 904.53 -0.443004 -1.81368 0
M  V30 9261 C 904.881 1.03459 -1.66706 0
M  V30 9262 O 904.006 1.80372 -1.19561 0
M  V30 9263 C 904.601 -0.797324 -3.29284 0
M  V30 9264 C 903.16 -0.490055 -3.73196 0
M  V30 9265 C 902.307 -1.02487 -2.57666 0
M  V30 9266 H 905.258 -0.994888 -1.23643 0
M  V30 9267 H 905.279 -0.0934638 -3.80385 0
M  V30 9268 H 904.791 -1.87278 -3.39924 0
M  V30 9269 H 902.892 0.576818 -3.68108 0
M  V30 9270 H 903.005 -1.02012 -4.68114 0
M  V30 9271 H 901.369 -0.44738 -2.5074 0
M  V30 9272 H 902.152 -2.10636 -2.71085 0
M  V30 9273 N 904.597 1.47463 -0.556102 0
M  V30 9274 C 905.56 2.28478 0.181743 0
M  V30 9275 C 906.56 1.36886 0.843738 0
M  V30 9276 O 907.75 1.59527 0.69977 0
M  V30 9277 C 904.882 3.16534 1.26566 0
M  V30 9278 H 906.075 2.95182 -0.529892 0
M  V30 9279 H 903.628 1.53134 -0.313005 0
M  V30 9280 H 904.363 2.5452 2.00973 0
M  V30 9281 H 904.148 3.83939 0.795798 0
M  V30 9282 H 905.638 3.77579 1.78393 0
M  V30 9283 N 906.075 0.2925 1.54862 0
M  V30 9284 C 907.486 -0.201841 1.85606 0
M  V30 9285 C 907.837 -1.54093 1.21449 0
M  V30 9286 O 906.962 -2.10327 0.509079 0
M  V30 9287 C 907.557 -0.373011 3.3674 0
M  V30 9288 C 906.116 -0.811574 3.67547 0
M  V30 9289 C 905.263 0.0850583 2.7717 0
M  V30 9290 H 908.214 0.513774 1.50153 0
M  V30 9291 H 908.235 -1.20892 3.60785 0
M  V30 9292 H 907.747 0.601751 3.83407 0
M  V30 9293 H 905.848 -1.79719 3.26392 0
M  V30 9294 H 905.961 -0.636853 4.74848 0
M  V30 9295 H 904.325 -0.434224 2.50971 0
M  V30 9296 H 905.108 1.05602 3.26654 0
M  V30 9297 N 907.553 -1.57587 0.0200696 0
M  V30 9298 C 908.483 -2.12702 -0.963333 0
M  V30 9299 C 909.464 -1.04094 -1.34531 0
M  V30 9300 O 910.649 -1.31881 -1.42552 0
M  V30 9301 C 907.779 -2.64673 -2.24868 0
M  V30 9302 C 906.733 -3.77987 -2.00772 0
M  V30 9303 C 906.059 -4.16351 -3.35494 0
M  V30 9304 C 907.359 -5.0444 -1.35416 0
M  V30 9305 H 909.053 -2.95121 -0.504363 0
M  V30 9306 H 906.599 -1.41966 -0.24116 0
M  V30 9307 H 908.552 -3.01862 -2.94036 0
M  V30 9308 H 907.276 -1.79403 -2.72914 0
M  V30 9309 H 905.935 -3.41223 -1.34025 0
M  V30 9310 H 905.583 -3.28075 -3.81282 0
M  V30 9311 H 905.283 -4.92705 -3.20181 0
M  V30 9312 H 906.807 -4.56115 -4.05945 0
M  V30 9313 H 908.221 -5.39273 -1.94571 0
M  V30 9314 H 906.618 -5.85732 -1.30529 0
M  V30 9315 H 907.688 -4.83803 -0.325923 0
M  V30 9316 N 909.032 0.252966 -1.55557 0
M  V30 9317 C 910.448 0.60118 -1.47844 0
M  V30 9318 C 910.648 1.88612 -0.709055 0
M  V30 9319 O 909.704 2.51395 -0.235964 0
M  V30 9320 C 911.017 0.709539 -2.92209 0
M  V30 9321 C 912.565 0.802269 -3.02544 0
M  V30 9322 C 913.04 0.94224 -4.48203 0
M  V30 9323 N 914.531 1.00726 -4.52116 0
M  V30 9324 C 915.266 1.13472 -5.6206 0
M  V30 9325 N 914.762 1.22811 -6.81828 0
M  V30 9326 N 916.555 1.1674 -5.49844 0
M  V30 9327 H 908.706 -0.590635 -2.04023 0
M  V30 9328 H 910.969 -0.202986 -0.926013 0
M  V30 9329 H 910.675 -0.164505 -3.51315 0
M  V30 9330 H 910.549 1.58343 -3.42356 0
M  V30 9331 H 912.936 1.66677 -2.43522 0
M  V30 9332 H 913.017 -0.0966469 -2.55617 0
M  V30 9333 H 912.661 0.0823209 -5.07833 0
M  V30 9334 H 912.591 1.85611 -4.92805 0
M  V30 9335 H 915.082 0.946684 -3.6585 0
M  V30 9336 H 915.395 1.32426 -7.61369 0
M  V30 9337 H 913.74 1.19779 -6.84601 0
M  V30 9338 H 916.931 1.09089 -4.55211 0
M  V30 9339 H 917.104 1.26329 -6.35567 0
M  V30 9340 N 910.51 1.48831 0.518367 0
M  V30 9341 C 911.42 1.6692 1.64848 0
M  V30 9342 C 912.436 0.551711 1.65022 0
M  V30 9343 O 913.612 0.824251 1.83761 0
M  V30 9344 C 910.677 1.71559 3.01278 0
M  V30 9345 C 909.738 2.9502 3.11868 0
M  V30 9346 C 908.971 2.99428 4.4179 0
M  V30 9347 O 909.194 2.11914 5.29574 0
M  V30 9348 O 908.128 3.91719 4.5699 0
M  V30 9349 H 911.954 2.62623 1.52521 0
M  V30 9350 H 909.539 1.32368 0.692749 0
M  V30 9351 H 911.421 1.77064 3.82396 0
M  V30 9352 H 910.096 0.790316 3.13904 0
M  V30 9353 H 909.003 2.95042 2.30003 0
M  V30 9354 H 910.336 3.8697 3.04163 0
M  V30 9355 N 911.988 -0.768124 1.37614 0
M  V30 9356 C 912.951 -1.86314 1.3349 0
M  V30 9357 C 913.951 -1.59025 0.23823 0
M  V30 9358 O 915.141 -1.6704 0.494288 0
M  V30 9359 C 912.273 -3.23519 1.07462 0
M  V30 9360 H 913.466 -1.91382 2.30896 0
M  V30 9361 H 911.019 -0.968267 1.22696 0
M  V30 9362 H 911.754 -3.24127 0.106028 0
M  V30 9363 H 911.539 -3.44719 1.86846 0
M  V30 9364 H 913.029 -4.03597 1.07236 0
M  V30 9365 N 913.466 -1.22244 -0.994698 0
M  V30 9366 C 914.714 -1.04384 -1.73056 0
M  V30 9367 C 915.035 0.422204 -1.90374 0
M  V30 9368 O 914.305 1.30383 -1.46209 0
M  V30 9369 H 912.885 -0.383263 -0.641185 0
M  V30 9370 H 915.547 -1.53725 -1.1981 0
M  V30 9371 H 914.643 -1.52021 -2.72573 0
M  V30 9372 N 914.944 1.19125 -1.03184 0
M  V30 9373 C 916.184 1.90582 -0.738785 0
M  V30 9374 C 916.548 1.78004 0.719627 0
M  V30 9375 O 917.749 2.44084 1.12589 0
M  V30 9376 C 916.02 3.37319 -1.18114 0
M  V30 9377 S 917.579 4.26962 -1.01238 0
M  V30 9378 H 914.397 0.6582 -0.268875 0
M  V30 9379 H 916.999 1.43999 -1.32229 0
M  V30 9380 H 915.703 3.43999 -2.23814 0
M  V30 9381 H 915.234 3.88935 -0.591051 0
M  V30 9382 H 917.249 4.96143 0.0753558 0
M  V30 9383 N 916.422 0.810101 1.35185 0
M  V30 9384 C 917.833 0.452616 1.81131 0
M  V30 9385 C 918.184 -1.02573 1.67252 0
M  V30 9386 O 917.309 -1.79735 1.20516 0
M  V30 9387 C 917.904 0.814775 3.28857 0
M  V30 9388 C 916.463 0.509839 3.72931 0
M  V30 9389 C 915.61 1.03852 2.57119 0
M  V30 9390 H 918.561 1.00143 1.23114 0
M  V30 9391 H 918.582 0.113635 3.8033 0
M  V30 9392 H 918.094 1.89078 3.38926 0
M  V30 9393 H 916.195 -0.557289 3.68409 0
M  V30 9394 H 916.308 1.04493 4.67566 0
M  V30 9395 H 914.672 0.460671 2.50499 0
M  V30 9396 H 915.455 2.12071 2.69964 0
M  V30 9397 N 917.9 -1.47166 0.563914 0
M  V30 9398 C 918.832 -2.28165 -0.217583 0
M  V30 9399 C 919.845 -1.37405 -0.873134 0
M  V30 9400 O 921.034 -1.6217 -0.745857 0
M  V30 9401 C 918.134 -3.11873 -1.32621 0
M  V30 9402 C 917.307 -4.30637 -0.766177 0
M  V30 9403 C 916.366 -4.95889 -1.76014 0
M  V30 9404 O 915.392 -5.54071 -1.3036 0
M  V30 9405 N 916.594 -4.91191 -3.09373 0
M  V30 9406 H 919.359 -2.95876 0.477256 0
M  V30 9407 H 916.92 -1.5687 0.40043 0
M  V30 9408 H 918.912 -3.52392 -1.99003 0
M  V30 9409 H 917.482 -2.46361 -1.92419 0
M  V30 9410 H 916.702 -3.94129 0.0745998 0
M  V30 9411 H 917.99 -5.07442 -0.371472 0
M  V30 9412 H 917.388 -4.45133 -3.49104 0
M  V30 9413 H 915.945 -5.35708 -3.71295 0
M  V30 9414 N 919.378 -0.300708 -1.54705 0
M  V30 9415 C 920.626 0.308044 -1.99739 0
M  V30 9416 C 920.947 1.54433 -1.19061 0
M  V30 9417 O 920.217 1.93794 -0.286507 0
M  V30 9418 H 918.797 0.116811 -0.73781 0
M  V30 9419 H 921.459 -0.41197 -1.90496 0
M  V30 9420 H 920.555 0.580287 -3.06658 0
M  V30 9421 N 920.856 1.57574 -0.0284266 0
M  V30 9422 C 922.133 1.83064 0.688979 0
M  V30 9423 C 922.513 0.91219 1.90374 0
M  V30 9424 O 921.861 -0.0323672 2.28477 0
M  V30 9425 C 922.071 3.32262 1.06785 0
M  V30 9426 C 923.419 3.98717 1.45978 0
M  V30 9427 O 924.443 3.36753 1.16085 0
M  V30 9428 O 923.302 5.07927 2.01673 0
M  V30 9429 H 920.396 0.7548 0.337944 0
M  V30 9430 H 922.942 1.69607 -0.0560555 0
M  V30 9431 H 921.714 3.90772 0.203235 0
M  V30 9432 H 921.337 3.50823 1.87107 0
M  V30 9433 N 922.334 -0.244713 1.55689 0
M  V30 9434 C 923.562 -0.989944 1.8168 0
M  V30 9435 C 923.977 -1.78863 0.604449 0
M  V30 9436 O 923.334 -1.77437 -0.426907 0
M  V30 9437 C 923.385 -1.92607 3.05916 0
M  V30 9438 O 923.106 -1.1597 4.22472 0
M  V30 9439 C 924.607 -2.78711 3.44724 0
M  V30 9440 H 921.827 -0.2912 0.604519 0
M  V30 9441 H 924.371 -0.266938 2.0275 0
M  V30 9442 H 922.526 -2.60333 2.8689 0
M  V30 9443 H 922.94 -1.79311 4.92898 0
M  V30 9444 H 924.414 -3.40141 4.34751 0
M  V30 9445 H 924.891 -3.49935 2.6541 0
M  V30 9446 H 925.497 -2.16435 3.66109 0
M  V30 9447 N 923.813 -1.49104 -0.510467 0
M  V30 9448 C 924.776 -1.64569 -1.59529 0
M  V30 9449 C 925.776 -0.517937 -1.5223 0
M  V30 9450 O 926.966 -0.784183 -1.55551 0
M  V30 9451 C 924.098 -1.6342 -2.99177 0
M  V30 9452 H 925.291 -2.61318 -1.4715 0
M  V30 9453 H 922.844 -1.37993 -0.734001 0
M  V30 9454 H 923.579 -0.68221 -3.17043 0
M  V30 9455 H 923.364 -2.45312 -3.05883 0
M  V30 9456 H 924.854 -1.77474 -3.78011 0
M  V30 9457 N 925.291 0.760815 -1.38019 0
M  V30 9458 C 926.539 1.51673 -1.33566 0
M  V30 9459 C 926.86 1.94852 0.076024 0
M  V30 9460 O 926.13 1.67112 1.02227 0
M  V30 9461 H 924.71 0.562581 -0.491438 0
M  V30 9462 H 927.372 0.904832 -1.72623 0
M  V30 9463 H 926.468 2.41102 -1.98182 0
M  V30 9464 N 926.769 1.22769 0.988202 0
M  V30 9465 C 927.679 1.01844 2.11341 0
M  V30 9466 C 928.695 -0.0346937 1.73965 0
M  V30 9467 O 929.871 0.159061 2.00771 0
M  V30 9468 C 926.936 0.603837 3.41401 0
M  V30 9469 C 925.997 1.73113 3.92849 0
M  V30 9470 C 925.23 1.33621 5.16702 0
M  V30 9471 O 925.453 0.217041 5.69987 0
M  V30 9472 O 924.387 2.15444 5.62021 0
M  V30 9473 H 928.213 1.96127 2.31879 0
M  V30 9474 H 925.798 1.01405 1.09715 0
M  V30 9475 H 927.68 0.383196 4.19654 0
M  V30 9476 H 926.355 -0.310082 3.22211 0
M  V30 9477 H 925.262 2.00634 3.15748 0
M  V30 9478 H 926.595 2.62308 4.1648 0
M  V30 9479 N 928.247 -1.18576 1.03814 0
M  V30 9480 C 929.472 -1.92978 0.759873 0
M  V30 9481 C 929.897 -1.75514 -0.676486 0
M  V30 9482 O 929.255 -1.06359 -1.46824 0
M  V30 9483 C 929.303 -3.42507 1.12788 0
M  V30 9484 O 928.407 -4.1163 0.251886 0
M  V30 9485 H 927.748 -0.602129 0.279886 0
M  V30 9486 H 930.278 -1.50383 1.3873 0
M  V30 9487 H 930.288 -3.93206 1.08872 0
M  V30 9488 H 928.963 -3.5454 2.17427 0
M  V30 9489 H 927.54 -3.7125 0.350441 0
M  V30 9490 N 929.725 -0.817259 -1.34754 0
M  V30 9491 C 930.95 -0.414423 -2.03217 0
M  V30 9492 C 931.375 0.970037 -1.61158 0
M  V30 9493 O 930.733 1.63016 -0.793436 0
M  V30 9494 C 930.781 -0.518087 -3.56859 0
M  V30 9495 O 929.885 0.464314 -4.09778 0
M  V30 9496 H 929.226 -0.171454 -0.641482 0
M  V30 9497 H 931.756 -1.10611 -1.72123 0
M  V30 9498 H 931.766 -0.391779 -4.06115 0
M  V30 9499 H 930.441 -1.52786 -3.86819 0
M  V30 9500 H 929.018 0.297361 -3.71712 0
M  V30 9501 N 931.203 1.46865 -0.571711 0
M  V30 9502 C 932.449 2.03307 -0.0614759 0
M  V30 9503 C 932.804 1.43657 1.27986 0
M  V30 9504 O 932.097 0.588186 1.82348 0
M  V30 9505 C 932.291 3.57323 0.0742311 0
M  V30 9506 C 932.12 4.31909 -1.2524 0
M  V30 9507 C 930.89 4.71246 -1.82361 0
M  V30 9508 C 933.088 4.66137 -2.17304 0
M  V30 9509 N 931.07 5.30535 -3.08878 0
M  V30 9510 C 932.441 5.25881 -3.28404 0
M  V30 9511 C 934.496 4.48066 -2.1712 0
M  V30 9512 C 933.199 5.69461 -4.39439 0
M  V30 9513 C 935.225 4.92656 -3.27176 0
M  V30 9514 C 934.587 5.52461 -4.36997 0
M  V30 9515 H 930.686 0.779293 -0.0650098 0
M  V30 9516 H 933.27 1.79161 -0.762192 0
M  V30 9517 H 931.441 3.81206 0.744095 0
M  V30 9518 H 933.173 4.00408 0.587849 0
M  V30 9519 H 929.928 4.53658 -1.35985 0
M  V30 9520 H 930.352 5.64711 -3.73404 0
M  V30 9521 H 934.994 4.01173 -1.33492 0
M  V30 9522 H 932.712 6.15338 -5.23817 0
M  V30 9523 H 936.298 4.80433 -3.28139 0
M  V30 9524 H 935.178 5.86334 -5.20752 0
M  V30 9525 N 932.681 0.308908 1.54543 0
M  V30 9526 C 933.929 -0.297447 1.99899 0
M  V30 9527 C 934.25 -1.53799 1.19878 0
M  V30 9528 O 933.52 -1.93639 0.29678 0
M  V30 9529 H 932.1 -0.112897 0.738419 0
M  V30 9530 H 934.762 0.422067 1.90275 0
M  V30 9531 H 933.858 -0.564016 3.06961 0
M  V30 9532 N 934.159 -1.57557 0.0367827 0
M  V30 9533 C 935.384 -1.96828 -0.653707 0
M  V30 9534 C 935.809 -0.913559 -1.64425 0
M  V30 9535 O 935.167 0.124749 -1.8087 0
M  V30 9536 C 935.215 -3.35189 -1.32969 0
M  V30 9537 O 934.319 -3.32095 -2.44513 0
M  V30 9538 H 933.66 -0.64157 -0.171124 0
M  V30 9539 H 936.19 -2.04351 0.100912 0
M  V30 9540 H 936.2 -3.71593 -1.68472 0
M  V30 9541 H 934.875 -4.11496 -0.603654 0
M  V30 9542 H 933.452 -3.07418 -2.11065 0
M  V30 9543 N 935.637 0.236453 -1.55816 0
M  V30 9544 C 936.885 0.96111 -1.77784 0
M  V30 9545 C 937.206 1.85454 -0.602648 0
M  V30 9546 O 936.476 1.92157 0.381137 0
M  V30 9547 H 935.056 0.35787 -0.655697 0
M  V30 9548 H 937.718 0.251888 -1.93265 0
M  V30 9549 H 936.814 1.5767 -2.69345 0
M  V30 9550 N 937.115 1.49373 0.502552 0
M  V30 9551 C 938.526 1.52 1.0841 0
M  V30 9552 C 938.877 0.305317 1.9381 0
M  V30 9553 O 938.002 -0.585023 2.08342 0
M  V30 9554 C 938.597 2.75437 1.97281 0
M  V30 9555 C 937.156 2.80848 2.50602 0
M  V30 9556 C 936.303 2.45894 1.28186 0
M  V30 9557 H 939.254 1.56092 0.286533 0
M  V30 9558 H 939.275 2.55511 2.81947 0
M  V30 9559 H 938.787 3.63827 1.35098 0
M  V30 9560 H 936.888 1.96735 3.16427 0
M  V30 9561 H 937.001 3.82979 2.8786 0
M  V30 9562 H 935.365 1.97639 1.60657 0
M  V30 9563 H 936.148 3.36556 0.677139 0
M  V30 9564 N 938.594 -0.753485 1.38421 0
M  V30 9565 C 939.842 -1.50962 1.34368 0
M  V30 9566 C 940.163 -1.94889 -0.0656895 0
M  V30 9567 O 939.433 -1.67652 -1.01339 0
M  V30 9568 H 938.013 -0.559967 0.494415 0
M  V30 9569 H 940.675 -0.895665 1.73101 0
M  V30 9570 H 939.771 -2.40048 1.99458 0
M  V30 9571 N 940.072 -1.23292 -0.981677 0
M  V30 9572 C 941.297 -1.09176 -1.76339 0
M  V30 9573 C 941.722 0.352726 -1.84763 0
M  V30 9574 O 941.08 1.25509 -1.30832 0
M  V30 9575 C 941.128 -1.72046 -3.16911 0
M  V30 9576 O 940.232 -0.98174 -4.00544 0
M  V30 9577 H 939.573 -0.382755 -0.542581 0
M  V30 9578 H 942.103 -1.63319 -1.23239 0
M  V30 9579 H 942.113 -1.77232 -3.67495 0
M  V30 9580 H 940.788 -2.77154 -3.10095 0
M  V30 9581 H 939.365 -1.00672 -3.59054 0
M  V30 9582 N 941.55 1.18024 -1.04442 0
M  V30 9583 C 942.966 1.40107 -0.76435 0
M  V30 9584 C 943.166 1.90914 0.644516 0
M  V30 9585 O 942.222 2.0959 1.40813 0
M  V30 9586 C 943.535 2.39851 -1.81361 0
M  V30 9587 C 945.083 2.53571 -1.83496 0
M  V30 9588 C 945.558 3.56583 -2.87424 0
M  V30 9589 N 947.049 3.64094 -2.86339 0
M  V30 9590 C 947.784 4.43537 -3.63405 0
M  V30 9591 N 947.28 5.26557 -4.50233 0
M  V30 9592 N 949.073 4.38336 -3.51877 0
M  V30 9593 H 941.224 0.833726 -1.95353 0
M  V30 9594 H 943.487 0.42881 -0.845474 0
M  V30 9595 H 943.193 2.09576 -2.82438 0
M  V30 9596 H 943.067 3.39251 -1.6489 0
M  V30 9597 H 945.454 2.83161 -0.830883 0
M  V30 9598 H 945.535 1.54272 -2.04044 0
M  V30 9599 H 945.179 3.27733 -3.88012 0
M  V30 9600 H 945.109 4.55569 -2.6413 0
M  V30 9601 H 947.6 3.04814 -2.23376 0
M  V30 9602 H 947.913 5.84336 -5.05738 0
M  V30 9603 H 946.258 5.25964 -4.54298 0
M  V30 9604 H 949.449 3.72528 -2.83444 0
M  V30 9605 H 949.622 5.00007 -4.12186 0
M  V30 9606 N 943.028 0.824394 1.34319 0
M  V30 9607 C 944.439 0.471802 1.8064 0
M  V30 9608 C 944.79 -1.00793 1.6833 0
M  V30 9609 O 943.915 -1.78447 1.22416 0
M  V30 9610 C 944.51 0.849609 3.27974 0
M  V30 9611 C 943.069 0.549365 3.72369 0
M  V30 9612 C 942.216 1.06573 2.56003 0
M  V30 9613 H 945.167 1.01443 1.22045 0
M  V30 9614 H 945.188 0.153968 3.80188 0
M  V30 9615 H 944.7 1.92663 3.36902 0
M  V30 9616 H 942.801 -0.518182 3.68979 0
M  V30 9617 H 942.914 1.09446 4.66432 0
M  V30 9618 H 941.278 0.487214 2.49997 0
M  V30 9619 H 942.061 2.14923 2.677 0
M  V30 9620 N 944.506 -1.46559 0.579492 0
M  V30 9621 C 945.734 -2.06784 0.0693648 0
M  V30 9622 C 946.149 -1.42875 -1.23419 0
M  V30 9623 O 945.506 -0.532919 -1.74546 0
M  V30 9624 C 945.557 -3.61343 -0.106511 0
M  V30 9625 O 945.278 -4.22861 1.14545 0
M  V30 9626 C 946.779 -4.38489 -0.651359 0
M  V30 9627 H 943.999 -0.66866 0.0559848 0
M  V30 9628 H 946.543 -1.88235 0.799245 0
M  V30 9629 H 944.698 -3.7933 -0.786601 0
M  V30 9630 H 945.112 -5.15691 0.95723 0
M  V30 9631 H 946.586 -5.47237 -0.723615 0
M  V30 9632 H 947.063 -4.06309 -1.66763 0
M  V30 9633 H 947.669 -4.253 -0.0062433 0
M  V30 9634 N 945.984 -0.3171 -1.54377 0
M  V30 9635 C 946.947 0.53905 -2.22771 0
M  V30 9636 C 947.947 1.04865 -1.21901 0
M  V30 9637 O 949.137 0.942108 -1.46526 0
M  V30 9638 C 946.269 1.74804 -2.92671 0
M  V30 9639 H 947.462 -0.0587417 -2.99842 0
M  V30 9640 H 945.015 -0.068107 -1.56152 0
M  V30 9641 H 945.75 2.38524 -2.1972 0
M  V30 9642 H 945.535 1.39011 -3.66631 0
M  V30 9643 H 947.025 2.35592 -3.44799 0
M  V30 9644 N 947.462 1.57535 -0.0451378 0
M  V30 9645 C 948.708 1.92736 0.630921 0
M  V30 9646 C 949.041 0.923265 1.70849 0
M  V30 9647 O 948.316 -0.0516512 1.94431 0
M  V30 9648 C 948.599 3.38348 1.23259 0
M  V30 9649 C 948.452 4.49503 0.16349 0
M  V30 9650 C 949.771 3.84233 2.14599 0
M  V30 9651 H 946.89 0.700884 0.227883 0
M  V30 9652 H 949.532 1.89706 -0.10567 0
M  V30 9653 H 947.682 3.41061 1.86037 0
M  V30 9654 H 949.354 4.58919 -0.46808 0
M  V30 9655 H 947.597 4.30802 -0.509166 0
M  V30 9656 H 948.268 5.48457 0.624382 0
M  V30 9657 H 950.744 3.83358 1.6179 0
M  V30 9658 H 949.62 4.86781 2.53644 0
M  V30 9659 H 949.881 3.20646 3.04366 0
M  V30 9660 N 948.94 -0.228186 1.55939 0
M  V30 9661 C 949.85 -1.30386 1.9503 0
M  V30 9662 C 950.866 -1.51645 0.853218 0
M  V30 9663 O 952.042 -1.64904 1.15623 0
M  V30 9664 C 949.107 -2.63489 2.25332 0
M  V30 9665 C 948.168 -2.5059 3.48573 0
M  V30 9666 C 947.401 -3.77345 3.7742 0
M  V30 9667 O 947.624 -4.80067 3.08045 0
M  V30 9668 O 946.558 -3.74855 4.70922 0
M  V30 9669 H 950.384 -1.0022 2.86687 0
M  V30 9670 H 947.969 -0.430503 1.43063 0
M  V30 9671 H 949.851 -3.4211 2.46046 0
M  V30 9672 H 948.526 -2.93349 1.3685 0
M  V30 9673 H 947.433 -1.70191 3.33145 0
M  V30 9674 H 948.766 -2.2567 4.37417 0
M  V30 9675 N 950.418 -1.49637 -0.494624 0
M  V30 9676 C 951.666 -1.5913 -1.24587 0
M  V30 9677 C 951.987 -0.282828 -1.92938 0
M  V30 9678 O 951.257 0.69825 -1.83034 0
M  V30 9679 H 949.837 -0.586329 -0.462847 0
M  V30 9680 H 952.499 -1.86296 -0.572696 0
M  V30 9681 H 951.595 -2.3906 -2.00641 0
M  V30 9682 N 951.896 0.746133 -1.38819 0
M  V30 9683 C 952.826 1.87344 -1.39372 0
M  V30 9684 C 953.807 1.68123 -0.258583 0
M  V30 9685 O 954.992 1.88606 -0.462769 0
M  V30 9686 C 952.122 3.24962 -1.22543 0
M  V30 9687 C 951.076 3.58799 -2.33339 0
M  V30 9688 C 950.402 4.95235 -2.01609 0
M  V30 9689 C 951.702 3.62911 -3.75624 0
M  V30 9690 H 953.396 1.87138 -2.33709 0
M  V30 9691 H 950.942 0.898937 -1.12495 0
M  V30 9692 H 952.895 4.03488 -1.21554 0
M  V30 9693 H 951.619 3.25667 -0.246707 0
M  V30 9694 H 950.278 2.82596 -2.33527 0
M  V30 9695 H 949.926 4.92508 -1.02202 0
M  V30 9696 H 949.626 5.18843 -2.75819 0
M  V30 9697 H 951.15 5.76131 -2.02251 0
M  V30 9698 H 952.564 4.31535 -3.77426 0
M  V30 9699 H 950.961 3.98031 -4.491 0
M  V30 9700 H 952.031 2.62967 -4.07402 0
M  V30 9701 N 953.375 1.23811 0.975125 0
M  V30 9702 C 954.338 1.02505 2.05001 0
M  V30 9703 C 955.338 -0.0150084 1.60793 0
M  V30 9704 O 956.528 0.225246 1.72738 0
M  V30 9705 C 953.66 0.552087 3.364 0
M  V30 9706 H 954.853 1.979 2.25335 0
M  V30 9707 H 952.406 1.05929 1.1493 0
M  V30 9708 H 953.141 -0.405394 3.21756 0
M  V30 9709 H 952.926 1.30267 3.69828 0
M  V30 9710 H 954.416 0.423828 4.15444 0
M  V30 9711 N 954.853 -1.17469 1.05066 0
M  V30 9712 C 955.783 -2.23635 0.671552 0
M  V30 9713 C 956.764 -1.66867 -0.33006 0
M  V30 9714 O 957.949 -1.93084 -0.207933 0
M  V30 9715 C 955.079 -3.47272 0.0441845 0
M  V30 9716 C 954.033 -4.16854 0.97042 0
M  V30 9717 C 953.359 -5.34299 0.206998 0
M  V30 9718 C 954.659 -4.69225 2.29401 0
M  V30 9719 H 956.353 -2.55602 1.55911 0
M  V30 9720 H 953.899 -1.2286 0.751101 0
M  V30 9721 H 955.852 -4.20756 -0.23282 0
M  V30 9722 H 954.576 -3.14568 -0.878311 0
M  V30 9723 H 953.235 -3.4528 1.23197 0
M  V30 9724 H 952.883 -4.97846 -0.718222 0
M  V30 9725 H 952.583 -5.81792 0.82416 0
M  V30 9726 H 954.107 -6.10568 -0.0627525 0
M  V30 9727 H 955.521 -5.34353 2.077 0
M  V30 9728 H 953.918 -5.27291 2.86503 0
M  V30 9729 H 954.988 -3.86102 2.93348 0
M  V30 9730 N 956.331 -0.831506 -1.3388 0
M  V30 9731 C 957.579 -0.422837 -1.97627 0
M  V30 9732 C 957.9 1.01961 -1.6622 0
M  V30 9733 O 957.17 1.70916 -0.957323 0
M  V30 9734 H 955.75 -0.153365 -0.731087 0
M  V30 9735 H 958.412 -1.06284 -1.6337 0
M  V30 9736 H 957.508 -0.548858 -3.07236 0
M  V30 9737 N 957.809 1.4625 -0.587256 0
M  V30 9738 C 959.034 2.07252 -0.0784517 0
M  V30 9739 C 959.459 1.43239 1.21919 0
M  V30 9740 O 958.817 0.517791 1.73749 0
M  V30 9741 C 958.865 3.60534 0.0691037 0
M  V30 9742 O 957.969 3.96773 1.12448 0
M  V30 9743 H 957.31 0.660825 -0.064859 0
M  V30 9744 H 959.84 1.87819 -0.811491 0
M  V30 9745 H 959.85 4.0708 0.273826 0
M  V30 9746 H 958.525 4.06516 -0.878514 0
M  V30 9747 H 957.102 3.6193 0.897852 0
M  V30 9748 N 959.287 0.325282 1.54207 0
M  V30 9749 C 960.512 -0.281418 2.05482 0
M  V30 9750 C 960.937 -1.44869 1.19977 0
M  V30 9751 O 960.295 -1.80088 0.209275 0
M  V30 9752 C 960.343 -0.692029 3.53897 0
M  V30 9753 O 959.447 -1.7942 3.71325 0
M  V30 9754 H 958.788 -0.0504872 0.662078 0
M  V30 9755 H 961.318 0.474191 1.99029 0
M  V30 9756 H 961.328 -0.974219 3.96198 0
M  V30 9757 H 960.003 0.161709 4.15586 0
M  V30 9758 H 958.58 -1.51069 3.40929 0
M  V30 9759 N 960.765 -1.57509 0.0534917 0
M  V30 9760 C 961.728 -2.10563 -0.905307 0
M  V30 9761 C 962.728 -1.02571 -1.23838 0
M  V30 9762 O 963.918 -1.28635 -1.17468 0
M  V30 9763 C 961.05 -2.5918 -2.21447 0
M  V30 9764 H 962.243 -2.96575 -0.445354 0
M  V30 9765 H 959.796 -1.55079 -0.194947 0
M  V30 9766 H 960.531 -1.76568 -2.72019 0
M  V30 9767 H 960.316 -3.38098 -1.98575 0
M  V30 9768 H 961.806 -3.00365 -2.90122 0
M  V30 9769 N 962.243 0.219913 -1.56058 0
M  V30 9770 C 963.468 0.965073 -1.83579 0
M  V30 9771 C 963.893 1.77092 -0.634024 0
M  V30 9772 O 963.251 1.76434 0.417205 0
M  V30 9773 C 963.299 1.85705 -3.09105 0
M  V30 9774 O 962.403 2.95261 -2.87914 0
M  V30 9775 H 961.744 0.273173 -0.605204 0
M  V30 9776 H 964.274 0.23273 -2.03272 0
M  V30 9777 H 964.284 2.26655 -3.39252 0
M  V30 9778 H 962.959 1.26476 -3.96203 0
M  V30 9779 H 961.536 2.58246 -2.69005 0
M  V30 9780 N 963.721 1.49897 0.486681 0
M  V30 9781 C 964.946 1.64106 1.26823 0
M  V30 9782 C 965.371 0.317967 1.85393 0
M  V30 9783 O 964.729 -0.71626 1.66551 0
M  V30 9784 C 964.777 2.72301 2.36399 0
M  V30 9785 O 963.881 2.32469 3.40634 0
M  V30 9786 H 963.222 0.548794 0.373793 0
M  V30 9787 H 965.752 1.96177 0.581017 0
M  V30 9788 H 965.762 2.94906 2.81948 0
M  V30 9789 H 964.437 3.68335 1.93137 0
M  V30 9790 H 963.014 2.20251 3.00905 0
M  V30 9791 N 965.199 -0.738761 1.39212 0
M  V30 9792 C 966.424 -1.5331 1.39681 0
M  V30 9793 C 966.849 -1.88098 -0.00768715 0
M  V30 9794 O 966.207 -1.51642 -0.993699 0
M  V30 9795 C 966.255 -2.79958 2.27279 0
M  V30 9796 O 965.359 -3.75727 1.70008 0
M  V30 9797 H 964.7 -0.463131 0.475821 0
M  V30 9798 H 967.23 -0.911768 1.83161 0
M  V30 9799 H 967.24 -3.28732 2.41659 0
M  V30 9800 H 965.915 -2.5397 3.29351 0
M  V30 9801 H 964.492 -3.34483 1.64851 0
M  V30 9802 N 966.677 -1.24326 -0.968545 0
M  V30 9803 C 967.902 -1.1104 -1.75171 0
M  V30 9804 C 968.327 0.333109 -1.85127 0
M  V30 9805 O 967.685 1.24115 -1.32156 0
M  V30 9806 C 967.733 -1.75397 -3.15068 0
M  V30 9807 O 966.837 -1.02417 -3.9948 0
M  V30 9808 H 966.178 -0.388488 -0.538491 0
M  V30 9809 H 968.708 -1.64617 -1.215 0
M  V30 9810 H 968.718 -1.8112 -3.65595 0
M  V30 9811 H 967.393 -2.80427 -3.07138 0
M  V30 9812 H 965.97 -1.04475 -3.57966 0
M  V30 9813 N 968.156 1.1691 -1.05688 0
M  V30 9814 C 969.066 2.24735 -0.67315 0
M  V30 9815 C 970.082 1.71252 0.308043 0
M  V30 9816 O 971.258 2.00772 0.158889 0
M  V30 9817 C 968.323 3.4665 -0.059026 0
M  V30 9818 C 967.384 4.15198 -1.0913 0
M  V30 9819 C 966.617 5.31292 -0.50639 0
M  V30 9820 O 966.84 5.663 0.682692 0
M  V30 9821 O 965.774 5.88923 -1.2431 0
M  V30 9822 H 969.6 2.59855 -1.57191 0
M  V30 9823 H 967.185 1.24306 -0.828751 0
M  V30 9824 H 969.067 4.20455 0.282018 0
M  V30 9825 H 967.742 3.13316 0.813304 0
M  V30 9826 H 966.649 3.43389 -1.48442 0
M  V30 9827 H 967.982 4.52571 -1.93495 0
M  V30 9828 N 969.634 0.838594 1.33437 0
M  V30 9829 C 971.045 0.490934 1.8013 0
M  V30 9830 C 971.396 -0.990024 1.6939 0
M  V30 9831 O 970.521 -1.77139 1.24302 0
M  V30 9832 C 971.116 0.884347 3.27055 0
M  V30 9833 C 969.675 0.588829 3.71766 0
M  V30 9834 C 968.822 1.09282 2.54858 0
M  V30 9835 H 971.773 1.02732 1.20962 0
M  V30 9836 H 971.794 0.194283 3.80004 0
M  V30 9837 H 971.306 1.96225 3.34839 0
M  V30 9838 H 969.407 -0.479018 3.69508 0
M  V30 9839 H 969.52 1.14387 4.65245 0
M  V30 9840 H 967.884 0.513702 2.49466 0
M  V30 9841 H 968.667 2.1775 2.65405 0
M  V30 9842 N 971.112 -1.45937 0.595003 0
M  V30 9843 C 972.523 -1.85908 0.171779 0
M  V30 9844 C 972.874 -1.497 -1.26824 0
M  V30 9845 O 971.999 -0.917688 -1.95978 0
M  V30 9846 C 972.594 -3.37425 0.304976 0
M  V30 9847 C 971.153 -3.76346 -0.0634635 0
M  V30 9848 C 970.3 -2.69926 0.635255 0
M  V30 9849 H 973.251 -1.36916 0.802471 0
M  V30 9850 H 973.272 -3.77632 -0.466313 0
M  V30 9851 H 972.784 -3.63747 1.35314 0
M  V30 9852 H 970.885 -3.55642 -1.11129 0
M  V30 9853 H 970.998 -4.78021 0.321419 0
M  V30 9854 H 969.362 -2.54592 0.0742054 0
M  V30 9855 H 970.145 -2.99086 1.68531 0
M  V30 9856 N 972.59 -0.333456 -1.54032 0
M  V30 9857 C 973.522 0.562174 -2.22199 0
M  V30 9858 C 974.535 1.07202 -1.22522 0
M  V30 9859 O 975.724 0.983897 -1.48935 0
M  V30 9860 C 972.824 1.78525 -2.88066 0
M  V30 9861 C 971.997 1.41242 -4.13968 0
M  V30 9862 C 971.056 2.49408 -4.63338 0
M  V30 9863 O 970.082 2.13138 -5.27789 0
M  V30 9864 N 971.284 3.805 -4.38406 0
M  V30 9865 H 974.049 -0.0215629 -2.99692 0
M  V30 9866 H 971.61 -0.157111 -1.61136 0
M  V30 9867 H 973.602 2.50298 -3.18014 0
M  V30 9868 H 972.172 2.2766 -2.14219 0
M  V30 9869 H 971.392 0.525887 -3.90676 0
M  V30 9870 H 972.68 1.13916 -4.95884 0
M  V30 9871 H 972.078 4.12761 -3.86839 0
M  V30 9872 H 970.635 4.48474 -4.72984 0
M  V30 9873 N 974.068 1.57479 -0.061844 0
M  V30 9874 C 975.317 1.92285 0.609055 0
M  V30 9875 C 975.63 0.942983 1.71369 0
M  V30 9876 O 976.836 1.18349 2.44348 0
M  V30 9877 C 975.292 3.41545 1.13468 0
M  V30 9878 C 974.9 4.47958 0.0615926 0
M  V30 9879 C 976.644 3.85368 1.78022 0
M  V30 9880 C 974.551 5.88341 0.600705 0
M  V30 9881 H 973.481 0.717656 0.23127 0
M  V30 9882 H 976.132 1.83021 -0.132466 0
M  V30 9883 H 974.514 3.45848 1.92886 0
M  V30 9884 H 975.688 4.55258 -0.712527 0
M  V30 9885 H 974.003 4.13541 -0.487116 0
M  V30 9886 H 976.6 4.87627 2.19371 0
M  V30 9887 H 976.943 3.22193 2.63623 0
M  V30 9888 H 977.476 3.83626 1.05242 0
M  V30 9889 H 974.215 6.55138 -0.217922 0
M  V30 9890 H 973.735 5.84581 1.34257 0
M  V30 9891 H 975.414 6.37918 1.08025 0
M  V30 9892 N 975.546 -0.211634 1.56173 0
M  V30 9893 C 976.795 -0.932647 1.78842 0
M  V30 9894 C 977.108 -1.85103 0.63217 0
M  V30 9895 O 978.314 -2.61143 0.742746 0
M  V30 9896 C 976.77 -1.70866 3.16753 0
M  V30 9897 C 976.378 -0.835934 4.40132 0
M  V30 9898 C 978.122 -2.4203 3.48743 0
M  V30 9899 C 976.029 -1.60987 5.69067 0
M  V30 9900 H 974.959 -0.351983 0.666801 0
M  V30 9901 H 977.61 -0.186284 1.82552 0
M  V30 9902 H 975.992 -2.4983 3.07247 0
M  V30 9903 H 977.166 -0.0861298 4.60719 0
M  V30 9904 H 975.481 -0.235941 4.15731 0
M  V30 9905 H 978.078 -3.00453 4.42303 0
M  V30 9906 H 978.421 -3.15406 2.71707 0
M  V30 9907 H 978.954 -1.70048 3.59623 0
M  V30 9908 H 975.693 -0.9192 6.49023 0
M  V30 9909 H 975.213 -2.33403 5.52524 0
M  V30 9910 H 976.892 -2.16798 6.09596 0
M  V30 9911 N 977.024 -1.50153 -0.478725 0
M  V30 9912 C 978.273 -1.60002 -1.22809 0
M  V30 9913 C 978.586 -0.302277 -1.9325 0
M  V30 9914 O 979.792 -0.279583 -2.70057 0
M  V30 9915 C 978.248 -2.82402 -2.23108 0
M  V30 9916 C 977.856 -4.19023 -1.58505 0
M  V30 9917 C 979.6 -3.01593 -2.98734 0
M  V30 9918 C 977.507 -5.32618 -2.57045 0
M  V30 9919 H 976.437 -0.595822 -0.462073 0
M  V30 9920 H 979.088 -1.76573 -0.499412 0
M  V30 9921 H 977.47 -2.59373 -2.99235 0
M  V30 9922 H 978.644 -4.52277 -0.882187 0
M  V30 9923 H 976.959 -4.05374 -0.951877 0
M  V30 9924 H 979.556 -3.8363 -3.72468 0
M  V30 9925 H 979.899 -2.1302 -3.57671 0
M  V30 9926 H 980.432 -3.24766 -2.29721 0
M  V30 9927 H 977.171 -6.23321 -2.02858 0
M  V30 9928 H 976.691 -5.03792 -3.25505 0
M  V30 9929 H 978.37 -5.62877 -3.19028 0
M  V30 9930 N 978.502 0.731368 -1.39602 0
M  V30 9931 C 979.45 1.86676 -1.38761 0
M  V30 9932 C 980.444 1.6723 -0.270247 0
M  V30 9933 O 981.65 1.74528 -0.440471 0
M  V30 9934 H 978.025 0.614553 -0.433391 0
M  V30 9935 H 979.996 1.84501 -2.34525 0
M  V30 9936 C 978.745 3.24394 -1.25155 0
M  V30 9937 H 978.068 3.39955 -2.10406 0
M  V30 9938 H 979.508 4.04019 -1.28625 0
M  V30 9939 C 977.967 3.36877 0.0396976 0
M  V30 9940 O 978.497 3.88833 1.00854 0
M  V30 9941 N 976.703 2.90414 0.103965 0
M  V30 9942 H 976.25 2.48321 -0.685155 0
M  V30 9943 H 976.208 2.99146 0.967435 0
M  V30 9944 N 979.98 1.24838 0.961938 0
M  V30 9945 C 981.391 1.08369 1.5203 0
M  V30 9946 C 981.742 -0.343005 1.93178 0
M  V30 9947 O 980.867 -1.2321 1.779 0
M  V30 9948 C 981.462 1.96102 2.76278 0
M  V30 9949 C 980.021 1.8384 3.28451 0
M  V30 9950 C 979.168 1.9069 2.01327 0
M  V30 9951 H 982.119 1.38231 0.779613 0
M  V30 9952 H 982.14 1.4967 3.49827 0
M  V30 9953 H 981.652 2.99931 2.46298 0
M  V30 9954 H 979.753 0.828653 3.63269 0
M  V30 9955 H 979.866 2.68251 3.96961 0
M  V30 9956 H 978.23 1.34488 2.16299 0
M  V30 9957 H 979.013 2.96111 1.73705 0
M  V30 9958 N 981.458 -1.16348 1.06306 0
M  V30 9959 C 982.421 -2.18941 0.678053 0
M  V30 9960 C 983.421 -1.58409 -0.276277 0
M  V30 9961 O 984.611 -1.74101 -0.0586435 0
M  V30 9962 C 981.743 -3.409 -0.00228684 0
M  V30 9963 H 982.936 -2.54516 1.58624 0
M  V30 9964 H 980.489 -1.30625 0.858298 0
M  V30 9965 H 981.224 -3.10881 -0.923212 0
M  V30 9966 H 981.009 -3.86089 0.683949 0
M  V30 9967 H 982.499 -4.16806 -0.257374 0
M  V30 9968 N 982.937 -0.845659 -1.3299 0
M  V30 9969 C 984.353 -0.53433 -1.5039 0
M  V30 9970 C 984.553 0.936939 -1.78392 0
M  V30 9971 O 983.609 1.72043 -1.84818 0
M  V30 9972 C 984.922 -1.41354 -2.65404 0
M  V30 9973 C 986.47 -1.41303 -2.79289 0
M  V30 9974 C 986.945 -2.27724 -3.97373 0
M  V30 9975 N 988.436 -2.25471 -4.0462 0
M  V30 9976 C 989.171 -2.89074 -4.95201 0
M  V30 9977 N 988.667 -3.61755 -5.90851 0
M  V30 9978 N 990.46 -2.78508 -4.88251 0
M  V30 9979 H 982.611 -1.79798 -1.13078 0
M  V30 9980 H 984.874 -0.767454 -0.556524 0
M  V30 9981 H 984.58 -2.45936 -2.51413 0
M  V30 9982 H 984.454 -1.09445 -3.60973 0
M  V30 9983 H 986.841 -0.374899 -2.92709 0
M  V30 9984 H 986.922 -1.77222 -1.84461 0
M  V30 9985 H 986.566 -3.316 -3.84713 0
M  V30 9986 H 986.496 -1.89142 -4.9146 0
M  V30 9987 H 988.987 -1.72622 -3.3617 0
M  V30 9988 H 989.3 -4.07475 -6.56646 0
M  V30 9989 H 987.645 -3.65863 -5.90906 0
M  V30 9990 H 990.836 -2.21285 -4.12493 0
M  V30 9991 H 991.009 -3.2836 -5.58645 0
M  V30 9992 N 984.415 1.45619 -0.602734 0
M  V30 9993 C 985.347 2.28662 0.157012 0
M  V30 9994 C 986.36 1.39672 0.836396 0
M  V30 9995 O 987.549 1.64091 0.702599 0
M  V30 9996 C 984.649 3.1528 1.24306 0
M  V30 9997 C 983.822 4.32517 0.651731 0
M  V30 9998 C 982.881 5.00381 1.62804 0
M  V30 9999 O 981.907 5.57333 1.15624 0
M  V30 10000 N 983.109 4.99221 2.96241 0
M  V30 10001 H 985.874 2.94506 -0.555535 0
M  V30 10002 H 983.435 1.55753 -0.441881 0
M  V30 10003 H 985.427 3.57544 1.8959 0
M  V30 10004 H 983.997 2.51376 1.85819 0
M  V30 10005 H 983.217 3.93793 -0.17907 0
M  V30 10006 H 984.505 5.08249 0.236802 0
M  V30 10007 H 983.903 4.54232 3.37179 0
M  V30 10008 H 982.46 5.45364 3.56961 0
M  V30 10009 N 985.893 0.34162 1.53853 0
M  V30 10010 C 986.84 -0.516058 2.24957 0
M  V30 10011 C 987.81 -1.09711 1.2471 0
M  V30 10012 O 988.995 -1.13409 1.53438 0
M  V30 10013 C 986.135 -1.66207 3.02439 0
M  V30 10014 C 985.248 -1.10851 4.17536 0
M  V30 10015 C 984.383 -2.22167 4.82509 0
M  V30 10016 C 983.422 -1.64152 5.89678 0
M  V30 10017 N 982.559 -2.69203 6.4844 0
M  V30 10018 H 987.399 0.0968275 2.97843 0
M  V30 10019 H 984.936 0.0595565 1.46979 0
M  V30 10020 H 986.894 -2.33672 3.4562 0
M  V30 10021 H 985.524 -2.24597 2.31853 0
M  V30 10022 H 984.576 -0.324853 3.7901 0
M  V30 10023 H 985.888 -0.644151 4.94623 0
M  V30 10024 H 985.042 -2.97501 5.28751 0
M  V30 10025 H 983.781 -2.71946 4.04842 0
M  V30 10026 H 982.786 -0.873228 5.42821 0
M  V30 10027 H 984.011 -1.15228 6.69253 0
M  V30 10028 H 981.957 -3.1824 5.73637 0
M  V30 10029 H 981.874 -2.27383 7.20994 0
M  V30 10030 H 983.142 -3.44312 6.99335 0
M  V30 10031 N 987.371 -1.57444 0.0701946 0
M  V30 10032 C 988.304 -2.08232 -0.93352 0
M  V30 10033 C 989.282 -0.987073 -1.29212 0
M  V30 10034 O 990.466 -1.26035 -1.40169 0
M  V30 10035 C 987.593 -2.53866 -2.2421 0
M  V30 10036 C 986.639 -3.7481 -2.03518 0
M  V30 10037 S 987.472 -5.1958 -1.29601 0
M  V30 10038 C 988.628 -5.68544 -2.61742 0
M  V30 10039 H 988.861 -2.93042 -0.501354 0
M  V30 10040 H 986.394 -1.53741 -0.142533 0
M  V30 10041 H 988.352 -2.80818 -2.99419 0
M  V30 10042 H 987.013 -1.69327 -2.64551 0
M  V30 10043 H 986.206 -4.04724 -3.00358 0
M  V30 10044 H 985.808 -3.48222 -1.36445 0
M  V30 10045 H 988.1 -5.75291 -3.57836 0
M  V30 10046 H 989.043 -6.67459 -2.3644 0
M  V30 10047 H 989.451 -4.96354 -2.68873 0
M  V30 10048 N 988.849 0.203349 -1.56283 0
M  V30 10049 C 990.095 0.926381 -1.80405 0
M  V30 10050 C 990.428 1.8325 -0.642883 0
M  V30 10051 O 989.703 1.91196 0.356998 0
M  V30 10052 C 989.986 1.74972 -3.14733 0
M  V30 10053 C 989.839 0.868866 -4.41328 0
M  V30 10054 C 991.158 2.72394 -3.45672 0
M  V30 10055 H 988.277 0.335346 -0.656286 0
M  V30 10056 H 990.919 0.1942 -1.89005 0
M  V30 10057 H 989.069 2.37394 -3.07533 0
M  V30 10058 H 990.741 0.259986 -4.60567 0
M  V30 10059 H 988.984 0.175161 -4.33446 0
M  V30 10060 H 989.655 1.47975 -5.31796 0
M  V30 10061 H 992.131 2.20105 -3.53119 0
M  V30 10062 H 991.007 3.27091 -4.40798 0
M  V30 10063 H 991.268 3.51035 -2.6875 0
M  V30 10064 N 990.327 1.50405 0.470755 0
M  V30 10065 C 991.259 1.65447 1.58619 0
M  V30 10066 C 992.272 0.535949 1.53725 0
M  V30 10067 O 993.461 0.80914 1.59107 0
M  V30 10068 C 990.561 1.62318 2.975 0
M  V30 10069 C 989.734 2.90207 3.27259 0
M  V30 10070 C 988.793 2.79717 4.45696 0
M  V30 10071 O 987.819 3.53672 4.45987 0
M  V30 10072 N 989.021 1.93296 5.47373 0
M  V30 10073 H 991.786 2.61659 1.46132 0
M  V30 10074 H 989.347 1.47873 0.659178 0
M  V30 10075 H 991.339 1.52912 3.747 0
M  V30 10076 H 989.909 0.738392 3.03754 0
M  V30 10077 H 989.129 3.13737 2.38669 0
M  V30 10078 H 990.417 3.74931 3.43953 0
M  V30 10079 H 989.815 1.32524 5.49958 0
M  V30 10080 H 988.372 1.89793 6.23556 0
M  V30 10081 N 991.805 -0.723954 1.39988 0
M  V30 10082 C 992.752 -1.83803 1.39589 0
M  V30 10083 C 993.722 -1.64146 0.253996 0
M  V30 10084 O 994.907 -1.85398 0.450793 0
M  V30 10085 C 992.047 -3.21431 1.25604 0
M  V30 10086 C 991.16 -3.52717 2.49429 0
M  V30 10087 C 990.295 -4.79805 2.27949 0
M  V30 10088 C 989.334 -5.03968 3.47394 0
M  V30 10089 N 988.471 -6.22266 3.25161 0
M  V30 10090 H 993.311 -1.83479 2.34818 0
M  V30 10091 H 990.848 -0.896396 1.16633 0
M  V30 10092 H 992.806 -4.00892 1.15504 0
M  V30 10093 H 991.436 -3.21005 0.339986 0
M  V30 10094 H 990.488 -2.67872 2.7009 0
M  V30 10095 H 991.8 -3.66486 3.38363 0
M  V30 10096 H 990.954 -5.67268 2.15155 0
M  V30 10097 H 989.693 -4.68229 1.36428 0
M  V30 10098 H 988.698 -4.14963 3.60674 0
M  V30 10099 H 989.923 -5.17422 4.39831 0
M  V30 10100 H 987.869 -6.11957 2.36314 0
M  V30 10101 H 987.786 -6.36673 4.07656 0
M  V30 10102 H 989.054 -7.12539 3.16083 0
M  V30 10103 N 993.283 -1.25346 -0.955304 0
M  V30 10104 C 994.213 -1.08152 -2.06943 0
M  V30 10105 C 995.194 0.00922598 -1.70097 0
M  V30 10106 O 996.379 -0.160181 -1.93538 0
M  V30 10107 C 993.509 -0.698745 -3.40198 0
M  V30 10108 C 992.463 -1.73965 -3.9105 0
M  V30 10109 C 991.789 -1.21158 -5.20792 0
M  V30 10110 C 993.089 -3.13829 -4.17503 0
M  V30 10111 H 994.783 -2.01345 -2.21586 0
M  V30 10112 H 992.329 -0.969459 -1.06478 0
M  V30 10113 H 994.282 -0.565394 -4.1759 0
M  V30 10114 H 993.006 0.268892 -3.25491 0
M  V30 10115 H 991.665 -1.86143 -3.15827 0
M  V30 10116 H 991.313 -0.234193 -5.02455 0
M  V30 10117 H 991.013 -1.90728 -5.55785 0
M  V30 10118 H 992.537 -1.09061 -6.00781 0
M  V30 10119 H 993.951 -3.04809 -4.85556 0
M  V30 10120 H 992.348 -3.80863 -4.63749 0
M  V30 10121 H 993.418 -3.6094 -3.23806 0
M  V30 10122 N 994.761 1.15782 -1.06922 0
M  V30 10123 C 995.724 2.18578 -0.689654 0
M  V30 10124 C 996.724 1.58553 0.267872 0
M  V30 10125 O 997.914 1.7413 0.0494097 0
M  V30 10126 C 995.046 3.40896 -0.0157919 0
M  V30 10127 H 996.239 2.53672 -1.59971 0
M  V30 10128 H 993.792 1.30168 -0.865214 0
M  V30 10129 H 994.527 3.11367 0.906712 0
M  V30 10130 H 994.312 3.85721 -0.704415 0
M  V30 10131 H 995.802 4.16937 0.235266 0
M  V30 10132 N 996.239 0.8527 1.3254 0
M  V30 10133 C 997.169 0.311234 2.31416 0
M  V30 10134 C 998.15 -0.588557 1.59593 0
M  V30 10135 O 999.335 -0.509211 1.87405 0
M  V30 10136 C 996.465 -0.502892 3.4364 0
M  V30 10137 C 995.419 0.302296 4.26931 0
M  V30 10138 C 994.745 -0.636445 5.30899 0
M  V30 10139 C 996.045 1.52697 4.99481 0
M  V30 10140 H 997.739 1.13742 2.76953 0
M  V30 10141 H 995.285 0.548389 1.33149 0
M  V30 10142 H 997.238 -0.892092 4.11849 0
M  V30 10143 H 995.962 -1.36242 2.96826 0
M  V30 10144 H 994.621 0.673226 3.60365 0
M  V30 10145 H 994.269 -1.49277 4.80339 0
M  V30 10146 H 993.969 -0.101716 5.87512 0
M  V30 10147 H 995.493 -1.02286 6.01972 0
M  V30 10148 H 996.907 1.21017 5.60382 0
M  V30 10149 H 995.304 1.9995 5.65809 0
M  V30 10150 H 996.374 2.28929 4.27457 0
M  V30 10151 N 997.718 -1.45297 0.610449 0
M  V30 10152 C 998.948 -2.0629 0.113047 0
M  V30 10153 C 999.356 -1.45527 -1.20907 0
M  V30 10154 O 998.699 -0.564837 -1.74801 0
M  V30 10155 C 998.761 -3.59366 -0.0979692 0
M  V30 10156 C 998.425 -4.42481 1.14279 0
M  V30 10157 C 999.422 -4.77277 2.06161 0
M  V30 10158 C 997.107 -4.83187 1.37241 0
M  V30 10159 C 999.101 -5.51639 3.19333 0
M  V30 10160 C 996.788 -5.57303 2.50713 0
M  V30 10161 C 997.786 -5.91445 3.41587 0
M  V30 10162 O 997.474 -6.64056 4.53083 0
M  V30 10163 H 997.206 -0.67264 0.0673159 0
M  V30 10164 H 999.76 -1.87486 0.838937 0
M  V30 10165 H 997.99 -3.76582 -0.878783 0
M  V30 10166 H 999.679 -4.02193 -0.547327 0
M  V30 10167 H 1000.44 -4.46384 1.89647 0
M  V30 10168 H 996.324 -4.56045 0.67407 0
M  V30 10169 H 999.868 -5.78207 3.90286 0
M  V30 10170 H 995.765 -5.8761 2.67179 0
M  V30 10171 H 996.533 -6.82509 4.51801 0
M  V30 10172 N 999.196 -0.349774 -1.5367 0
M  V30 10173 C 1000.11 0.512421 -2.28935 0
M  V30 10174 C 1001.12 1.1065 -1.34286 0
M  V30 10175 O 1002.3 1.12084 -1.67329 0
M  V30 10176 C 999.363 1.64449 -3.05217 0
M  V30 10177 C 998.424 1.07956 -4.15505 0
M  V30 10178 C 997.657 2.15768 -4.88139 0
M  V30 10179 O 997.88 3.366 -4.60496 0
M  V30 10180 O 996.814 1.79712 -5.74445 0
M  V30 10181 H 1000.64 -0.0996001 -3.03537 0
M  V30 10182 H 998.225 -0.114629 -1.4896 0
M  V30 10183 H 1000.11 2.30302 -3.52901 0
M  V30 10184 H 998.782 2.24221 -2.33467 0
M  V30 10185 H 997.689 0.385381 -3.7211 0
M  V30 10186 H 999.022 0.526621 -4.89375 0
M  V30 10187 N 1000.67 1.57404 -0.0785433 0
M  V30 10188 C 1001.95 1.85163 0.630389 0
M  V30 10189 C 1002.33 0.972295 1.87376 0
M  V30 10190 O 1001.68 0.0403375 2.28464 0
M  V30 10191 C 1001.89 3.35491 0.961604 0
M  V30 10192 C 1003.24 4.0316 1.33219 0
M  V30 10193 O 1004.26 3.40276 1.05313 0
M  V30 10194 O 1003.12 5.14086 1.85412 0
M  V30 10195 H 1000.21 0.765169 0.31376 0
M  V30 10196 H 1002.76 1.69343 -0.109986 0
M  V30 10197 H 1001.53 3.91221 0.0788113 0
M  V30 10198 H 1001.15 3.56598 1.75852 0
M  V30 10199 N 1002.15 -0.195058 1.56388 0
M  V30 10200 C 1003.4 -0.913636 1.8027 0
M  V30 10201 C 1003.72 -1.83791 0.651606 0
M  V30 10202 O 1002.99 -1.931 -0.330057 0
M  V30 10203 H 1001.57 -0.34036 0.664954 0
M  V30 10204 H 1004.23 -0.200559 1.93865 0
M  V30 10205 H 1003.33 -1.50473 2.7343 0
M  V30 10206 N 1003.63 -1.50653 -0.462772 0
M  V30 10207 C 1004.59 -1.69561 -1.54213 0
M  V30 10208 C 1005.59 -0.566106 -1.50505 0
M  V30 10209 O 1006.78 -0.833273 -1.52978 0
M  V30 10210 C 1003.91 -1.72856 -2.93826 0
M  V30 10211 H 1005.11 -2.65867 -1.38761 0
M  V30 10212 H 1002.66 -1.40259 -0.689728 0
M  V30 10213 H 1003.4 -0.78273 -3.14712 0
M  V30 10214 H 1003.18 -2.54919 -2.97924 0
M  V30 10215 H 1004.67 -1.89411 -3.72174 0
M  V30 10216 N 1005.11 0.71652 -1.4037 0
M  V30 10217 C 1006.04 1.84345 -1.43315 0
M  V30 10218 C 1007.02 1.67537 -0.294186 0
M  V30 10219 O 1008.2 1.87582 -0.502671 0
M  V30 10220 C 1005.33 3.2229 -1.29408 0
M  V30 10221 C 1004.29 3.53769 -2.40897 0
M  V30 10222 C 1003.61 4.90847 -2.12068 0
M  V30 10223 C 1004.91 3.54862 -3.83237 0
M  V30 10224 H 1006.61 1.82138 -2.37626 0
M  V30 10225 H 1004.15 0.874873 -1.14376 0
M  V30 10226 H 1006.11 4.00819 -1.30085 0
M  V30 10227 H 1004.83 3.2507 -0.31573 0
M  V30 10228 H 1003.49 2.77579 -2.39469 0
M  V30 10229 H 1003.14 4.90229 -1.12626 0
M  V30 10230 H 1002.84 5.12875 -2.86762 0
M  V30 10231 H 1004.36 5.71711 -2.14426 0
M  V30 10232 H 1005.78 4.23432 -3.86494 0
M  V30 10233 H 1004.17 3.88416 -4.57442 0
M  V30 10234 H 1005.24 2.54266 -4.12888 0
M  V30 10235 N 1006.59 1.25851 0.948643 0
M  V30 10236 C 1007.86 1.01717 1.67072 0
M  V30 10237 C 1008.24 -0.454749 2.06144 0
M  V30 10238 O 1007.59 -1.43345 1.77945 0
M  V30 10239 C 1007.8 1.95872 2.88852 0
M  V30 10240 C 1009.15 2.24057 3.60671 0
M  V30 10241 O 1010.17 1.93678 2.98944 0
M  V30 10242 O 1009.03 2.75745 4.71833 0
M  V30 10243 H 1006.13 0.386198 0.731287 0
M  V30 10244 H 1008.67 1.37031 1.00104 0
M  V30 10245 H 1007.44 2.95233 2.56814 0
M  V30 10246 H 1007.07 1.60992 3.63548 0
M  V30 10247 N 1008.06 -1.15214 1.07534 0
M  V30 10248 C 1009.29 -1.90463 0.820883 0
M  V30 10249 C 1009.71 -1.77578 -0.620305 0
M  V30 10250 O 1009.07 -1.10976 -1.43366 0
M  V30 10251 C 1009.12 -3.38746 1.23627 0
M  V30 10252 O 1008.22 -4.1062 0.382715 0
M  V30 10253 H 1007.57 -0.59292 0.298901 0
M  V30 10254 H 1010.1 -1.45893 1.43445 0
M  V30 10255 H 1010.11 -3.89543 1.21327 0
M  V30 10256 H 1008.78 -3.47443 2.28596 0
M  V30 10257 H 1007.36 -3.69947 0.468374 0
M  V30 10258 N 1009.54 -0.859717 -1.32086 0
M  V30 10259 C 1010.47 -0.323502 -2.31248 0
M  V30 10260 C 1011.45 0.580085 -1.59903 0
M  V30 10261 O 1012.64 0.499265 -1.87673 0
M  V30 10262 C 1009.77 0.484661 -3.43902 0
M  V30 10263 C 1008.72 -0.324933 -4.26765 0
M  V30 10264 C 1008.05 0.608281 -5.31229 0
M  V30 10265 C 1009.35 -1.55344 -4.98664 0
M  V30 10266 H 1011.04 -1.15209 -2.76346 0
M  V30 10267 H 1008.59 -0.555442 -1.32856 0
M  V30 10268 H 1010.54 0.870238 -4.12316 0
M  V30 10269 H 1009.27 1.34666 -2.97544 0
M  V30 10270 H 1007.92 -0.692328 -3.60003 0
M  V30 10271 H 1007.57 1.46727 -4.81124 0
M  V30 10272 H 1007.27 0.0705571 -5.87558 0
M  V30 10273 H 1008.8 0.990925 -6.02506 0
M  V30 10274 H 1010.21 -1.23987 -5.59732 0
M  V30 10275 H 1008.61 -2.02947 -5.64741 0
M  V30 10276 H 1009.68 -2.31192 -4.26237 0
M  V30 10277 N 1011.02 1.44971 -0.618145 0
M  V30 10278 C 1011.95 2.28815 0.132751 0
M  V30 10279 C 1012.97 1.40551 0.821535 0
M  V30 10280 O 1014.15 1.64827 0.685155 0
M  V30 10281 C 1011.25 3.1658 1.20955 0
M  V30 10282 C 1010.43 4.33184 0.605821 0
M  V30 10283 C 1009.49 5.0208 1.57488 0
M  V30 10284 O 1008.51 5.58528 1.09706 0
M  V30 10285 N 1009.71 5.02335 2.9093 0
M  V30 10286 H 1012.48 2.939 -0.58674 0
M  V30 10287 H 1010.04 1.55276 -0.458375 0
M  V30 10288 H 1012.03 3.59535 1.85787 0
M  V30 10289 H 1010.6 2.53333 1.83143 0
M  V30 10290 H 1009.82 3.93581 -0.220827 0
M  V30 10291 H 1011.11 5.08471 0.182883 0
M  V30 10292 H 1010.51 4.57783 3.32342 0
M  V30 10293 H 1009.07 5.49119 3.51157 0
M  V30 10294 N 1012.5 0.357919 1.53482 0
M  V30 10295 C 1013.43 -0.484231 2.28424 0
M  V30 10296 C 1014.41 -1.09046 1.30548 0
M  V30 10297 O 1015.59 -1.10916 1.59409 0
M  V30 10298 C 1012.72 -1.62803 3.06778 0
M  V30 10299 C 1011.68 -1.14943 4.12277 0
M  V30 10300 C 1011 -2.38287 4.78669 0
M  V30 10301 C 1012.3 -0.239627 5.2175 0
M  V30 10302 H 1014 0.140979 2.99068 0
M  V30 10303 H 1011.54 0.069244 1.43833 0
M  V30 10304 H 1013.5 -2.22374 3.57949 0
M  V30 10305 H 1012.22 -2.28036 2.3381 0
M  V30 10306 H 1010.88 -0.576442 3.6204 0
M  V30 10307 H 1010.53 -3.01959 4.02281 0
M  V30 10308 H 1010.23 -2.06939 5.49955 0
M  V30 10309 H 1011.75 -2.98558 5.32631 0
M  V30 10310 H 1013.17 -0.742597 5.6847 0
M  V30 10311 H 1011.56 -0.0173747 6.00097 0
M  V30 10312 H 1012.63 0.720333 4.7952 0
M  V30 10313 N 1013.98 -1.5736 0.0868897 0
M  V30 10314 C 1014.91 -2.16596 -0.872252 0
M  V30 10315 C 1015.89 -1.09706 -1.29995 0
M  V30 10316 O 1017.07 -1.37808 -1.36831 0
M  V30 10317 C 1014.2 -2.73972 -2.1344 0
M  V30 10318 C 1013.16 -3.86163 -1.8456 0
M  V30 10319 C 1012.48 -4.30206 -3.17533 0
M  V30 10320 C 1013.78 -5.0973 -1.13899 0
M  V30 10321 H 1015.48 -2.96995 -0.378738 0
M  V30 10322 H 1013.02 -1.42861 -0.18073 0
M  V30 10323 H 1014.98 -3.14062 -2.80968 0
M  V30 10324 H 1013.7 -1.90817 -2.6506 0
M  V30 10325 H 1012.36 -3.466 -1.19432 0
M  V30 10326 H 1012.01 -3.43951 -3.67024 0
M  V30 10327 H 1011.71 -5.05841 -2.98996 0
M  V30 10328 H 1013.23 -4.72922 -3.86234 0
M  V30 10329 H 1014.64 -5.4704 -1.71523 0
M  V30 10330 H 1013.04 -5.90741 -1.05569 0
M  V30 10331 H 1014.11 -4.8475 -0.120432 0
M  V30 10332 N 1015.45 0.186762 -1.56489 0
M  V30 10333 C 1016.68 0.925916 -1.85584 0
M  V30 10334 C 1017.1 1.75708 -0.671446 0
M  V30 10335 O 1016.46 1.7728 0.379687 0
M  V30 10336 C 1016.51 1.79107 -3.12975 0
M  V30 10337 O 1015.61 2.89088 -2.94112 0
M  V30 10338 H 1014.96 0.260275 -0.610863 0
M  V30 10339 H 1017.49 0.189561 -2.0372 0
M  V30 10340 H 1017.5 2.19408 -3.43983 0
M  V30 10341 H 1016.17 1.18044 -3.98796 0
M  V30 10342 H 1014.75 2.52482 -2.74422 0
M  V30 10343 N 1016.93 1.50896 0.454776 0
M  V30 10344 C 1018.16 1.66759 1.23313 0
M  V30 10345 C 1018.58 0.35722 1.84677 0
M  V30 10346 O 1017.94 -0.680771 1.68033 0
M  V30 10347 C 1017.99 2.77254 2.3057 0
M  V30 10348 O 1017.09 2.39642 3.35627 0
M  V30 10349 H 1016.43 0.556599 0.362068 0
M  V30 10350 H 1018.96 1.97365 0.539274 0
M  V30 10351 H 1018.97 3.0082 2.75629 0
M  V30 10352 H 1017.65 3.72349 1.85281 0
M  V30 10353 H 1016.23 2.26584 2.96165 0
M  V30 10354 N 1018.41 -0.709066 1.40748 0
M  V30 10355 C 1019.64 -1.50313 1.42901 0
M  V30 10356 C 1020.06 -1.88072 0.032213 0
M  V30 10357 O 1019.42 -1.53716 -0.96131 0
M  V30 10358 C 1019.47 -2.75074 2.33166 0
M  V30 10359 O 1018.57 -3.72036 1.7794 0
M  V30 10360 H 1017.91 -0.452934 0.485538 0
M  V30 10361 H 1020.44 -0.872712 1.85054 0
M  V30 10362 H 1020.45 -3.23532 2.48578 0
M  V30 10363 H 1019.13 -2.46927 3.34664 0
M  V30 10364 H 1017.7 -3.30911 1.71908 0
M  V30 10365 N 1019.89 -1.26353 -0.941956 0
M  V30 10366 C 1021.11 -1.14731 -1.72776 0
M  V30 10367 C 1021.54 0.293766 -1.85792 0
M  V30 10368 O 1020.9 1.21284 -1.34759 0
M  V30 10369 C 1020.95 -1.82041 -3.11277 0
M  V30 10370 O 1020.05 -1.10867 -3.97218 0
M  V30 10371 H 1019.39 -0.399823 -0.53013 0
M  V30 10372 H 1021.92 -1.67157 -1.17981 0
M  V30 10373 H 1021.93 -1.88834 -3.61671 0
M  V30 10374 H 1020.61 -2.86879 -3.0112 0
M  V30 10375 H 1019.18 -1.12044 -3.55669 0
M  V30 10376 N 1021.37 1.14642 -1.08144 0
M  V30 10377 C 1022.3 2.21775 -0.730609 0
M  V30 10378 C 1023.28 1.67683 0.285702 0
M  V30 10379 O 1024.46 1.93567 0.156667 0
M  V30 10380 C 1021.59 3.47033 -0.136242 0
M  V30 10381 C 1020.55 4.14134 -1.0806 0
M  V30 10382 C 1019.87 5.33563 -0.348585 0
M  V30 10383 C 1021.17 4.62978 -2.41761 0
M  V30 10384 H 1022.87 2.51378 -1.62633 0
M  V30 10385 H 1020.41 1.20825 -0.783411 0
M  V30 10386 H 1022.37 4.21226 0.121182 0
M  V30 10387 H 1021.09 3.16786 0.7946 0
M  V30 10388 H 1019.75 3.41892 -1.32308 0
M  V30 10389 H 1019.4 4.99575 0.585974 0
M  V30 10390 H 1019.1 5.79402 -0.978122 0
M  V30 10391 H 1020.62 6.10519 -0.0991508 0
M  V30 10392 H 1022.04 5.28659 -2.21795 0
M  V30 10393 H 1020.43 5.1951 -3.00383 0
M  V30 10394 H 1021.5 3.78189 -3.03482 0
M  V30 10395 N 1022.85 0.866709 1.31628 0
M  V30 10396 C 1024.26 0.529032 1.79048 0
M  V30 10397 C 1024.61 -0.953871 1.71452 0
M  V30 10398 O 1023.73 -1.74462 1.28031 0
M  V30 10399 C 1024.33 0.953522 3.25105 0
M  V30 10400 C 1022.89 0.667554 3.70433 0
M  V30 10401 C 1022.03 1.14664 2.52483 0
M  V30 10402 H 1024.98 1.05275 1.18756 0
M  V30 10403 H 1025.01 0.274844 3.79506 0
M  V30 10404 H 1024.52 2.03283 3.30602 0
M  V30 10405 H 1022.62 -0.400532 3.70441 0
M  V30 10406 H 1022.73 1.2423 4.62714 0
M  V30 10407 H 1021.1 0.566502 2.4832 0
M  V30 10408 H 1021.88 2.2333 2.60727 0
M  V30 10409 N 1024.32 -1.44642 0.625825 0
M  V30 10410 C 1025.57 -2.01695 0.127948 0
M  V30 10411 C 1025.89 -1.49439 -1.25271 0
M  V30 10412 O 1025.16 -0.695873 -1.83124 0
M  V30 10413 H 1023.74 -0.745685 0.0443096 0
M  V30 10414 H 1026.4 -1.7721 0.811332 0
M  V30 10415 H 1025.5 -3.11966 0.0915933 0
M  V30 10416 N 1025.8 -0.366053 -1.5329 0
M  V30 10417 C 1026.73 0.47211 -2.28677 0
M  V30 10418 C 1027.71 1.08353 -1.31125 0
M  V30 10419 O 1028.9 1.10069 -1.59995 0
M  V30 10420 C 1026.03 1.61174 -3.07637 0
M  V30 10421 C 1024.98 1.12755 -4.12881 0
M  V30 10422 C 1024.31 2.35745 -4.79925 0
M  V30 10423 C 1025.61 0.211954 -5.2187 0
M  V30 10424 H 1027.3 -0.156838 -2.98989 0
M  V30 10425 H 1024.85 -0.0768709 -1.43795 0
M  V30 10426 H 1026.8 2.20473 -3.59123 0
M  V30 10427 H 1025.52 2.26793 -2.35016 0
M  V30 10428 H 1024.18 0.557234 -3.6234 0
M  V30 10429 H 1023.83 2.99821 -4.03877 0
M  V30 10430 H 1023.53 2.04019 -5.51044 0
M  V30 10431 H 1025.06 2.95729 -5.34207 0
M  V30 10432 H 1026.47 0.71244 -5.68856 0
M  V30 10433 H 1024.87 -0.0144501 -6.00098 0
M  V30 10434 H 1025.94 -0.745753 -4.79131 0
M  V30 10435 N 1027.28 1.57312 -0.0952337 0
M  V30 10436 C 1028.53 1.93974 0.567319 0
M  V30 10437 C 1028.85 0.977805 1.68713 0
M  V30 10438 O 1028.12 0.0298944 1.95877 0
M  V30 10439 H 1026.7 0.71612 0.212558 0
M  V30 10440 H 1029.36 1.94254 -0.158598 0
M  V30 10441 H 1028.46 2.964 0.977423 0
M  V30 10442 N 1028.76 -0.17846 1.56586 0
M  V30 10443 C 1029.69 -1.22342 1.98884 0
M  V30 10444 C 1030.67 -1.46564 0.86331 0
M  V30 10445 O 1031.85 -1.58019 1.12887 0
M  V30 10446 C 1028.98 -2.56396 2.34261 0
M  V30 10447 C 1027.94 -2.46756 3.49708 0
M  V30 10448 C 1027.26 -3.85235 3.70807 0
M  V30 10449 C 1028.56 -1.97838 4.83381 0
M  V30 10450 H 1030.26 -0.871848 2.86425 0
M  V30 10451 H 1027.8 -0.417948 1.37801 0
M  V30 10452 H 1029.76 -3.29695 2.62448 0
M  V30 10453 H 1028.48 -2.93327 1.43621 0
M  V30 10454 H 1027.14 -1.75912 3.21637 0
M  V30 10455 H 1026.79 -4.19547 2.7747 0
M  V30 10456 H 1026.49 -3.79655 4.48481 0
M  V30 10457 H 1028.01 -4.60131 4.01387 0
M  V30 10458 H 1029.43 -2.60906 5.10491 0
M  V30 10459 H 1027.82 -2.03223 5.64642 0
M  V30 10460 H 1028.89 -0.932339 4.75852 0
M  V30 10461 N 1030.24 -1.51135 -0.446768 0
M  V30 10462 C 1031.15 -1.74595 -1.56696 0
M  V30 10463 C 1032.16 -0.629816 -1.62201 0
M  V30 10464 O 1033.34 -0.910987 -1.79619 0
M  V30 10465 C 1030.4 -1.85738 -2.9275 0
M  V30 10466 C 1029.46 -3.09564 -2.97437 0
M  V30 10467 C 1028.7 -3.20165 -4.27001 0
M  V30 10468 O 1028.92 -2.36939 -5.1886 0
M  V30 10469 O 1027.85 -4.13077 -4.3778 0
M  V30 10470 H 1031.68 -2.69601 -1.39817 0
M  V30 10471 H 1029.26 -1.35523 -0.628805 0
M  V30 10472 H 1031.15 -1.95107 -3.73512 0
M  V30 10473 H 1029.82 -0.939184 -3.09776 0
M  V30 10474 H 1028.73 -3.05679 -2.15664 0
M  V30 10475 H 1030.06 -4.01041 -2.85353 0
M  V30 10476 N 1031.71 0.701592 -1.41122 0
M  V30 10477 C 1032.65 1.8268 -1.38422 0
M  V30 10478 C 1033.66 1.60244 -0.287342 0
M  V30 10479 O 1034.85 1.69859 -0.548658 0
M  V30 10480 C 1031.95 3.19338 -1.13475 0
M  V30 10481 C 1031.12 3.68853 -2.35088 0
M  V30 10482 C 1030.18 4.84163 -2.06089 0
M  V30 10483 O 1029.21 4.9609 -2.79077 0
M  V30 10484 N 1030.41 5.70972 -1.04743 0
M  V30 10485 H 1033.17 1.8549 -2.35401 0
M  V30 10486 H 1030.73 0.883682 -1.35656 0
M  V30 10487 H 1032.73 3.94095 -0.920377 0
M  V30 10488 H 1031.3 3.11589 -0.251152 0
M  V30 10489 H 1030.52 2.8507 -2.72266 0
M  V30 10490 H 1031.8 3.98673 -3.16129 0
M  V30 10491 H 1031.2 5.63961 -0.443221 0
M  V30 10492 H 1029.76 6.45654 -0.892949 0
M  V30 10493 N 1033.19 1.2685 0.935242 0
M  V30 10494 C 1034.47 1.03483 1.65984 0
M  V30 10495 C 1034.85 -0.432859 2.06614 0
M  V30 10496 O 1034.2 -1.4145 1.79455 0
M  V30 10497 C 1034.41 1.98924 2.86758 0
M  V30 10498 C 1035.75 2.2787 3.58274 0
M  V30 10499 O 1036.78 1.96838 2.96873 0
M  V30 10500 O 1035.64 2.80734 4.68882 0
M  V30 10501 H 1032.73 0.393932 0.72715 0
M  V30 10502 H 1035.28 1.38085 0.986445 0
M  V30 10503 H 1034.05 2.9794 2.53668 0
M  V30 10504 H 1033.67 1.64839 3.6182 0
M  V30 10505 N 1034.67 -1.14067 1.0875 0
M  V30 10506 C 1036.09 -1.37173 0.815823 0
M  V30 10507 C 1036.29 -1.93175 -0.573215 0
M  V30 10508 O 1035.34 -2.14672 -1.32937 0
M  V30 10509 C 1036.66 -2.32955 1.90138 0
M  V30 10510 C 1038.2 -2.46586 1.9278 0
M  V30 10511 C 1038.68 -3.4567 3.0046 0
M  V30 10512 N 1040.17 -3.53216 2.99655 0
M  V30 10513 C 1040.9 -4.29743 3.79616 0
M  V30 10514 N 1040.4 -5.09484 4.69466 0
M  V30 10515 N 1042.19 -4.24975 3.67903 0
M  V30 10516 H 1034.34 -0.760648 1.98313 0
M  V30 10517 H 1036.61 -0.397135 0.860807 0
M  V30 10518 H 1036.31 -1.98949 2.90021 0
M  V30 10519 H 1036.19 -3.32897 1.77368 0
M  V30 10520 H 1038.57 -2.79882 0.935404 0
M  V30 10521 H 1038.66 -1.46593 2.09629 0
M  V30 10522 H 1038.3 -3.13106 3.99909 0
M  V30 10523 H 1038.23 -4.45452 2.80856 0
M  V30 10524 H 1040.72 -2.96314 2.34535 0
M  V30 10525 H 1041.03 -5.65163 5.27077 0
M  V30 10526 H 1039.38 -5.08741 4.73506 0
M  V30 10527 H 1042.57 -3.61751 2.97075 0
M  V30 10528 H 1042.74 -4.84364 4.30459 0
M  V30 10529 N 1036.15 -0.873678 -1.31166 0
M  V30 10530 C 1037.08 -0.289389 -2.27366 0
M  V30 10531 C 1038.09 0.549667 -1.5324 0
M  V30 10532 O 1039.28 0.371056 -1.74601 0
M  V30 10533 C 1036.38 0.60807 -3.334 0
M  V30 10534 C 1035.56 -0.199379 -4.36945 0
M  V30 10535 C 1034.61 0.626798 -5.22454 0
M  V30 10536 O 1033.64 0.0535121 -5.69175 0
M  V30 10537 N 1034.84 1.93809 -5.47191 0
M  V30 10538 H 1037.61 -1.1161 -2.78143 0
M  V30 10539 H 1035.17 -0.735529 -1.44228 0
M  V30 10540 H 1037.16 1.16656 -3.87522 0
M  V30 10541 H 1035.73 1.33545 -2.82638 0
M  V30 10542 H 1034.95 -0.939316 -3.82845 0
M  V30 10543 H 1036.24 -0.75329 -5.03193 0
M  V30 10544 H 1035.64 2.42693 -5.10995 0
M  V30 10545 H 1034.19 2.44428 -6.04234 0
M  V30 10546 N 1037.63 1.44308 -0.633487 0
M  V30 10547 C 1038.87 2.01624 -0.138643 0
M  V30 10548 C 1039.2 1.50101 1.24477 0
M  V30 10549 O 1038.47 0.705575 1.82752 0
M  V30 10550 H 1037.05 0.745439 -0.0482636 0
M  V30 10551 H 1039.71 1.76777 -0.820719 0
M  V30 10552 H 1038.8 3.11913 -0.108136 0
M  V30 10553 N 1039.1 0.374177 1.53094 0
M  V30 10554 C 1040.52 -0.103172 1.86415 0
M  V30 10555 C 1040.87 -1.47439 1.29446 0
M  V30 10556 O 1039.99 -2.07333 0.619853 0
M  V30 10557 C 1040.59 -0.193988 3.38244 0
M  V30 10558 C 1039.15 -0.615605 3.71332 0
M  V30 10559 C 1038.29 0.23186 2.76329 0
M  V30 10560 H 1041.24 0.592644 1.47219 0
M  V30 10561 H 1041.26 -1.01597 3.66686 0
M  V30 10562 H 1040.78 0.80414 3.79678 0
M  V30 10563 H 1038.88 -1.62165 3.3546 0
M  V30 10564 H 1038.99 -0.38425 4.77557 0
M  V30 10565 H 1037.35 -0.300579 2.5292 0
M  V30 10566 H 1038.14 1.22769 3.20597 0
M  V30 10567 N 1040.58 -1.57259 0.103575 0
M  V30 10568 C 1041.49 -2.18018 -0.866327 0
M  V30 10569 C 1042.51 -1.15198 -1.30404 0
M  V30 10570 O 1043.68 -1.47605 -1.37021 0
M  V30 10571 C 1040.75 -2.75533 -2.10434 0
M  V30 10572 C 1039.81 -3.93337 -1.72002 0
M  V30 10573 C 1039.04 -4.481 -2.89901 0
M  V30 10574 O 1039.27 -4.01784 -4.04877 0
M  V30 10575 O 1038.2 -5.39004 -2.67877 0
M  V30 10576 H 1042.03 -3.01322 -0.379338 0
M  V30 10577 H 1039.61 -1.48907 -0.121228 0
M  V30 10578 H 1041.49 -3.12259 -2.8297 0
M  V30 10579 H 1040.17 -1.9527 -2.58169 0
M  V30 10580 H 1039.08 -3.61408 -0.966193 0
M  V30 10581 H 1040.41 -4.74989 -1.29022 0
M  V30 10582 N 1042.06 0.170153 -1.56679 0
M  V30 10583 C 1042.97 1.23057 -1.99735 0
M  V30 10584 C 1043.99 1.48374 -0.908912 0
M  V30 10585 O 1045.16 1.60499 -1.21663 0
M  V30 10586 C 1042.23 2.54944 -2.34956 0
M  V30 10587 C 1041.29 2.3748 -3.57634 0
M  V30 10588 C 1040.52 3.63078 -3.91165 0
M  V30 10589 O 1040.74 4.68304 -3.2565 0
M  V30 10590 O 1039.68 3.57119 -4.8451 0
M  V30 10591 H 1043.5 0.895104 -2.9021 0
M  V30 10592 H 1041.09 0.377109 -1.44562 0
M  V30 10593 H 1042.97 3.32742 -2.58574 0
M  V30 10594 H 1041.65 2.88068 -1.47643 0
M  V30 10595 H 1040.55 1.57709 -3.39232 0
M  V30 10596 H 1041.89 2.0928 -4.45491 0
M  V30 10597 N 1043.54 1.5137 0.438746 0
M  V30 10598 C 1044.76 1.68058 1.21537 0
M  V30 10599 C 1045.19 0.376787 1.84288 0
M  V30 10600 O 1044.55 -0.662911 1.68746 0
M  V30 10601 C 1044.59 2.79684 2.27616 0
M  V30 10602 O 1043.7 2.43189 3.33066 0
M  V30 10603 H 1043.04 0.560408 0.356144 0
M  V30 10604 H 1045.57 1.97926 0.518311 0
M  V30 10605 H 1045.58 3.03726 2.72423 0
M  V30 10606 H 1044.25 3.74293 1.81321 0
M  V30 10607 H 1042.83 2.29713 2.93746 0
M  V30 10608 N 1045.02 -0.694098 1.41492 0
M  V30 10609 C 1046.29 -1.44875 1.31418 0
M  V30 10610 C 1046.67 -2.11022 -0.0575538 0
M  V30 10611 O 1046.02 -2.01799 -1.07188 0
M  V30 10612 C 1046.23 -2.46698 2.46863 0
M  V30 10613 C 1047.58 -3.11907 2.88095 0
M  V30 10614 O 1048.6 -2.57022 2.46613 0
M  V30 10615 O 1047.46 -4.11318 3.59833 0
M  V30 10616 H 1044.56 -0.645266 0.517263 0
M  V30 10617 H 1047.1 -0.724452 1.53459 0
M  V30 10618 H 1045.87 -1.96485 3.38392 0
M  V30 10619 H 1045.5 -3.26634 2.26706 0
M  V30 10620 N 1046.49 -1.27344 -0.928501 0
M  V30 10621 C 1047.4 -1.11812 -2.06241 0
M  V30 10622 C 1048.42 -0.048347 -1.73933 0
M  V30 10623 O 1049.6 -0.25467 -1.99783 0
M  V30 10624 C 1046.66 -0.766036 -3.38131 0
M  V30 10625 C 1045.72 -1.91659 -3.84142 0
M  V30 10626 C 1044.96 -1.58121 -5.09738 0
M  V30 10627 O 1045.18 -0.488742 -5.68302 0
M  V30 10628 O 1044.11 -2.42013 -5.51102 0
M  V30 10629 H 1047.94 -2.06967 -2.22258 0
M  V30 10630 H 1045.52 -1.06524 -1.04752 0
M  V30 10631 H 1047.41 -0.582982 -4.17348 0
M  V30 10632 H 1046.08 0.155998 -3.23324 0
M  V30 10633 H 1044.99 -2.1547 -3.05816 0
M  V30 10634 H 1046.32 -2.8188 -4.0349 0
M  V30 10635 N 1047.97 1.13488 -1.09353 0
M  V30 10636 C 1049.22 1.84748 -0.829126 0
M  V30 10637 C 1049.55 1.83485 0.645247 0
M  V30 10638 O 1048.8 1.26767 1.49093 0
M  V30 10639 C 1049.1 3.32584 -1.30854 0
M  V30 10640 C 1048.77 3.54028 -2.7924 0
M  V30 10641 C 1047.43 3.59588 -3.19765 0
M  V30 10642 C 1049.78 3.62058 -3.74918 0
M  V30 10643 C 1047.11 3.70712 -4.54741 0
M  V30 10644 C 1049.46 3.7471 -5.09682 0
M  V30 10645 C 1048.13 3.78523 -5.49797 0
M  V30 10646 H 1047.4 0.67604 -0.303399 0
M  V30 10647 H 1050.04 1.33989 -1.36818 0
M  V30 10648 H 1048.35 3.85689 -0.689275 0
M  V30 10649 H 1050.04 3.86166 -1.08059 0
M  V30 10650 H 1046.63 3.50354 -2.4688 0
M  V30 10651 H 1050.82 3.57043 -3.44723 0
M  V30 10652 H 1046.07 3.71931 -4.8526 0
M  V30 10653 H 1050.25 3.79866 -5.83674 0
M  V30 10654 H 1047.88 3.86895 -6.54382 0
M  V30 10655 N 1049.45 0.880621 1.30701 0
M  V30 10656 C 1050.38 0.301443 2.27209 0
M  V30 10657 C 1051.4 -0.541533 1.53529 0
M  V30 10658 O 1052.59 -0.361791 1.74795 0
M  V30 10659 C 1049.69 -0.59038 3.33718 0
M  V30 10660 C 1048.86 0.222549 4.36833 0
M  V30 10661 C 1047.92 -0.599083 5.22779 0
M  V30 10662 O 1046.94 -0.0233267 5.69195 0
M  V30 10663 N 1048.15 -1.90904 5.48211 0
M  V30 10664 H 1050.91 1.13083 2.77547 0
M  V30 10665 H 1048.47 0.743168 1.43835 0
M  V30 10666 H 1050.46 -1.14599 3.88135 0
M  V30 10667 H 1049.03 -1.32044 2.83343 0
M  V30 10668 H 1048.25 0.959606 3.82342 0
M  V30 10669 H 1049.54 0.779965 5.02786 0
M  V30 10670 H 1048.94 -2.3998 5.12275 0
M  V30 10671 H 1047.5 -2.4122 6.05521 0
M  V30 10672 N 1050.93 -1.4397 0.641131 0
M  V30 10673 C 1052.15 -2.06818 0.155318 0
M  V30 10674 C 1052.58 -1.47665 -1.16519 0
M  V30 10675 O 1051.94 -0.58192 -1.71707 0
M  V30 10676 C 1051.99 -3.60542 0.0647537 0
M  V30 10677 O 1051.09 -4.00674 -0.976447 0
M  V30 10678 H 1050.43 -0.657962 0.0893404 0
M  V30 10679 H 1052.96 -1.84678 0.88064 0
M  V30 10680 H 1052.97 -4.07816 -0.122552 0
M  V30 10681 H 1051.65 -4.02975 1.02878 0
M  V30 10682 H 1050.22 -3.65013 -0.762905 0
M  V30 10683 O 1052.45 -0.524482 -1.52746 0
M  V30 10684 H 1053.14 -0.0130834 -1.93696 0
M  V30 END ATOM
M  V30 BEGIN BOND
M  V30 END BOND
M  V30 END CTAB
M  END
$$$$
