drugbank_target|P0AEG6 Thiol:disulfide interchange protein DsbC (DB03814)
 OpenBabel12092120043D

  0  0  0     0  0            999 V3000
M  V30 BEGIN CTAB
M  V30 COUNTS 3602 3636 0 0 0
M  V30 BEGIN ATOM
M  V30 1 H -0.908 1.98254 -0.117106 0
M  V30 2 N 0 1.576 0 0
M  V30 3 C 0.933 2.03868 1.02534 0
M  V30 4 C 1.911 0.928543 1.3348 0
M  V30 5 O 3.095 1.19667 1.45644 0
M  V30 6 C 0.222 2.43627 2.35294 0
M  V30 7 C -0.732 3.65373 2.2001 0
M  V30 8 S 0.101 5.13292 1.52614 0
M  V30 9 C 1.257 5.56322 2.86805 0
M  V30 10 H 1.49 2.90518 0.631377 0
M  V30 11 H -0.977 1.52953 0.210867 0
M  V30 12 H 0.981 2.67203 3.11629 0
M  V30 13 H -0.358 1.57376 2.7183 0
M  V30 14 H -1.165 3.90944 3.18086 0
M  V30 15 H -1.563 3.418 1.51819 0
M  V30 16 H 0.729 5.58782 3.83104 0
M  V30 17 H 1.672 6.56266 2.65933 0
M  V30 18 H 2.08 4.83886 2.90714 0
M  V30 19 N 1.4781 -0.272755 1.55222 0
M  V30 20 C 2.4251 -1.33716 1.88119 0
M  V30 21 C 3.3951 -1.49066 0.73271 0
M  V30 22 O 4.5801 -1.63469 0.984002 0
M  V30 23 C 1.7201 -2.69238 2.15882 0
M  V30 24 C 0.8331 -2.62108 3.43399 0
M  V30 25 C -0.0319 -3.89811 3.60861 0
M  V30 26 C -0.9929 -3.77193 4.8207 0
M  V30 27 N -1.8559 -4.9673 4.96189 0
M  V30 28 H 2.9841 -1.04962 2.78903 0
M  V30 29 H 0.5211 -0.507088 1.38083 0
M  V30 30 H 2.4791 -3.48089 2.29978 0
M  V30 31 H 1.1091 -2.96194 1.28331 0
M  V30 32 H 0.1611 -1.74967 3.37773 0
M  V30 33 H 1.4731 -2.48685 4.32386 0
M  V30 34 H 0.6271 -4.77103 3.74777 0
M  V30 35 H -0.6339 -4.06102 2.7006 0
M  V30 36 H -1.6289 -2.88284 4.68159 0
M  V30 37 H -0.4039 -3.62421 5.74307 0
M  V30 38 H -2.4579 -5.13431 4.08319 0
M  V30 39 H -2.5409 -4.85839 5.79221 0
M  V30 40 H -1.2729 -5.85594 5.1449 0
M  V30 41 N 2.9562 -1.48159 -0.537278 0
M  V30 42 C 3.9032 -1.62138 -1.64256 0
M  V30 43 C 4.8732 -0.463668 -1.59497 0
M  V30 44 O 6.0582 -0.686241 -1.78032 0
M  V30 45 C 3.1982 -1.66028 -3.02537 0
M  V30 46 C 2.3112 -2.92855 -3.17585 0
M  V30 47 C 1.4462 -2.87952 -4.46382 0
M  V30 48 C 0.4852 -4.09516 -4.54932 0
M  V30 49 N -0.3778 -4.02733 -5.75109 0
M  V30 50 H 4.4622 -2.56529 -1.51647 0
M  V30 51 H 1.9992 -1.27224 -0.738414 0
M  V30 52 H 3.9572 -1.66265 -3.82638 0
M  V30 53 H 2.5872 -0.751331 -3.13934 0
M  V30 54 H 1.6392 -3.02395 -2.30784 0
M  V30 55 H 2.9512 -3.82822 -3.19764 0
M  V30 56 H 2.1052 -2.8655 -5.34765 0
M  V30 57 H 0.8442 -1.95702 -4.46712 0
M  V30 58 H -0.1508 -4.11201 -3.64957 0
M  V30 59 H 1.0742 -5.02917 -4.56346 0
M  V30 60 H -0.9798 -3.13299 -5.76351 0
M  V30 61 H -1.0628 -4.86397 -5.78752 0
M  V30 62 H 0.2052 -4.05379 -6.65799 0
M  V30 63 N 4.4343 0.785586 -1.36625 0
M  V30 64 C 5.6823 1.54057 -1.30808 0
M  V30 65 C 6.0033 1.94683 0.111157 0
M  V30 66 O 5.2733 1.65241 1.05224 0
M  V30 67 H 3.8533 0.571354 -0.481211 0
M  V30 68 H 6.5153 0.935821 -1.70963 0
M  V30 69 H 5.6113 2.44637 -1.93801 0
M  V30 70 N 5.9124 1.20967 1.01018 0
M  V30 71 C 7.1594 1.02374 1.74716 0
M  V30 72 C 7.4874 -0.443375 1.89379 0
M  V30 73 O 6.7424 -1.34535 1.42123 0
M  V30 74 C 7.0414 1.65997 3.16512 0
M  V30 75 C 6.7074 3.15831 3.2181 0
M  V30 76 C 5.3694 3.56719 3.22963 0
M  V30 77 C 7.7214 4.11816 3.19464 0
M  V30 78 C 5.0494 4.92107 3.19449 0
M  V30 79 C 7.4014 5.47158 3.17491 0
M  V30 80 C 6.0654 5.87451 3.16951 0
M  V30 81 H 5.3354 0.374614 0.639332 0
M  V30 82 H 7.9824 1.50485 1.18434 0
M  V30 83 H 6.2874 1.10166 3.75993 0
M  V30 84 H 7.9844 1.49119 3.72242 0
M  V30 85 H 4.5744 2.83263 3.21652 0
M  V30 86 H 8.7584 3.81257 3.17737 0
M  V30 87 H 4.0144 5.22579 3.17366 0
M  V30 88 H 8.1884 6.21274 3.14629 0
M  V30 89 H 5.8154 6.92329 3.13983 0
M  V30 90 N 7.3905 -1.2043 1.01659 0
M  V30 91 C 8.3235 -2.21924 0.531521 0
M  V30 92 C 9.3015 -1.57054 -0.421032 0
M  V30 93 O 10.4855 -1.85389 -0.341035 0
M  V30 94 C 7.6125 -3.37942 -0.226496 0
M  V30 95 C 6.6585 -4.21115 0.67561 0
M  V30 96 S 7.4915 -4.90674 2.14475 0
M  V30 97 C 8.6475 -6.10113 1.3969 0
M  V30 98 H 8.8805 -2.62725 1.3915 0
M  V30 99 H 6.4135 -1.30481 0.825479 0
M  V30 100 H 8.3715 -4.05196 -0.657738 0
M  V30 101 H 7.0325 -2.956 -1.06205 0
M  V30 102 H 6.2255 -5.03918 0.091108 0
M  V30 103 H 5.8275 -3.59115 1.04463 0
M  V30 104 H 8.1195 -6.7411 0.676897 0
M  V30 105 H 9.0625 -6.73022 2.20107 0
M  V30 106 H 9.4705 -5.57283 0.899786 0
M  V30 107 N 8.8686 -0.792821 -1.36206 0
M  V30 108 C 9.7986 -0.207853 -2.32573 0
M  V30 109 C 10.7796 0.659055 -1.56813 0
M  V30 110 O 11.9646 0.592176 -1.84951 0
M  V30 111 C 9.0946 0.655449 -3.41059 0
M  V30 112 C 8.0486 -0.111842 -4.27854 0
M  V30 113 C 7.3746 0.872274 -5.27537 0
M  V30 114 C 8.6746 -1.30299 -5.05786 0
M  V30 115 H 10.3686 -1.01294 -2.81744 0
M  V30 116 H 7.9146 -0.48854 -1.3546 0
M  V30 117 H 9.8676 1.07464 -4.07467 0
M  V30 118 H 8.5916 1.49328 -2.90463 0
M  V30 119 H 7.2506 -0.512053 -3.63006 0
M  V30 120 H 6.8986 1.70523 -4.73214 0
M  V30 121 H 6.5986 0.363291 -5.86476 0
M  V30 122 H 8.1226 1.28996 -5.96818 0
M  V30 123 H 9.5366 -0.959379 -5.65216 0
M  V30 124 H 7.9336 -1.7455 -5.74154 0
M  V30 125 H 9.0036 -2.09663 -4.37229 0
M  V30 126 N 10.3467 1.47872 -0.545128 0
M  V30 127 C 11.5937 2.02493 -0.0165858 0
M  V30 128 C 11.9217 1.42073 1.32836 0
M  V30 129 O 11.1767 0.561459 1.87473 0
M  V30 130 C 11.4757 3.57131 0.13867 0
M  V30 131 C 11.1417 4.36411 -1.13384 0
M  V30 132 C 9.8037 4.57792 -1.48256 0
M  V30 133 C 12.1557 4.82223 -1.97764 0
M  V30 134 C 9.4837 5.22233 -2.67376 0
M  V30 135 C 11.8357 5.47977 -3.16076 0
M  V30 136 C 10.4997 5.67593 -3.51275 0
M  V30 137 H 9.7697 0.740975 -0.00606918 0
M  V30 138 H 12.4167 1.77683 -0.714207 0
M  V30 139 H 10.7217 3.80865 0.919172 0
M  V30 140 H 12.4187 3.97031 0.562782 0
M  V30 141 H 9.0087 4.2004 -0.852297 0
M  V30 142 H 13.1927 4.65493 -1.72132 0
M  V30 143 H 8.4487 5.35616 -2.94831 0
M  V30 144 H 12.6227 5.8244 -3.81755 0
M  V30 145 H 10.2497 6.17298 -4.43675 0
M  V30 146 N 11.8248 0.280983 1.55075 0
M  V30 147 C 13.0528 -0.337293 2.04132 0
M  V30 148 C 13.4678 -1.4903 1.15912 0
M  V30 149 O 12.8248 -1.81606 0.180459 0
M  V30 150 C 12.8758 -0.812706 3.52246 0
M  V30 151 O 12.5968 0.294387 4.3711 0
M  V30 152 C 14.0978 -1.4982 4.17216 0
M  V30 153 H 11.3178 -0.0761638 0.666663 0
M  V30 154 H 13.8618 0.414787 2.00249 0
M  V30 155 H 12.0168 -1.51486 3.56554 0
M  V30 156 H 12.4308 -0.0721325 5.2445 0
M  V30 157 H 13.9048 -1.7822 5.22438 0
M  V30 158 H 14.3818 -2.43168 3.65741 0
M  V30 159 H 14.9878 -0.839742 4.16927 0
M  V30 160 N 13.3029 -1.57598 0.00835791 0
M  V30 161 C 14.2329 -2.1198 -0.979113 0
M  V30 162 C 15.2139 -1.03091 -1.35301 0
M  V30 163 O 16.3989 -1.30818 -1.43528 0
M  V30 164 C 13.5289 -2.62995 -2.26828 0
M  V30 165 C 12.4829 -3.76485 -2.03576 0
M  V30 166 C 11.8089 -4.13846 -3.38579 0
M  V30 167 C 13.1089 -5.0342 -1.39161 0
M  V30 168 H 14.8029 -2.94738 -0.526281 0
M  V30 169 H 12.3489 -1.41783 -0.251704 0
M  V30 170 H 14.3019 -2.99669 -2.96271 0
M  V30 171 H 13.0259 -1.7737 -2.7424 0
M  V30 172 H 11.6849 -3.40217 -1.36557 0
M  V30 173 H 11.3329 -3.25232 -3.83709 0
M  V30 174 H 11.0329 -4.90312 -3.23834 0
M  V30 175 H 12.5569 -4.53086 -4.09323 0
M  V30 176 H 13.9709 -5.37812 -1.98573 0
M  V30 177 H 12.3679 -5.84746 -1.34878 0
M  V30 178 H 13.4379 -4.83548 -0.361868 0
M  V30 179 N 14.781 0.264519 -1.55364 0
M  V30 180 C 15.711 1.33121 -1.91836 0
M  V30 181 C 16.692 1.51101 -0.781192 0
M  V30 182 O 17.877 1.64003 -1.04003 0
M  V30 183 C 15.007 2.68921 -2.19769 0
M  V30 184 C 13.961 2.65661 -3.35571 0
M  V30 185 C 13.287 4.05093 -3.49004 0
M  V30 186 C 14.587 2.24187 -4.71739 0
M  V30 187 H 16.281 1.02844 -2.81182 0
M  V30 188 H 13.827 0.493286 -1.35287 0
M  V30 189 H 15.78 3.43663 -2.43872 0
M  V30 190 H 14.504 3.00799 -1.27231 0
M  V30 191 H 13.163 1.93377 -3.1145 0
M  V30 192 H 12.811 4.34206 -2.53917 0
M  V30 193 H 12.511 4.03804 -4.26868 0
M  V30 194 H 14.035 4.81561 -3.75408 0
M  V30 195 H 15.449 2.88654 -4.9533 0
M  V30 196 H 13.846 2.34044 -5.52579 0
M  V30 197 H 14.916 1.19327 -4.69988 0
M  V30 198 N 16.2591 1.48442 0.529413 0
M  V30 199 C 17.2221 1.62524 1.61612 0
M  V30 200 C 18.2221 0.498509 1.52877 0
M  V30 201 O 19.4121 0.76431 1.56537 0
M  V30 202 C 16.5441 1.59597 3.01233 0
M  V30 203 H 17.7371 2.59423 1.50465 0
M  V30 204 H 15.2901 1.37047 0.751514 0
M  V30 205 H 16.0251 0.641781 3.17886 0
M  V30 206 H 15.8101 2.41397 3.08982 0
M  V30 207 H 17.3001 1.72646 3.80241 0
M  V30 208 N 17.7372 -0.778329 1.37039 0
M  V30 209 C 18.7002 -1.87301 1.32102 0
M  V30 210 C 19.7002 -1.59198 0.226405 0
M  V30 211 O 20.8902 -1.67403 0.481861 0
M  V30 212 C 18.0222 -3.24309 1.05055 0
M  V30 213 H 19.2152 -1.93093 2.29467 0
M  V30 214 H 16.7682 -0.977358 1.21973 0
M  V30 215 H 17.5032 -3.24196 0.0819373 0
M  V30 216 H 17.2882 -3.46098 1.84279 0
M  V30 217 H 18.7782 -4.04382 1.04234 0
M  V30 218 N 19.2153 -1.21501 -1.00376 0
M  V30 219 C 20.4623 -1.03299 -1.74171 0
M  V30 220 C 20.7903 0.433326 -1.89612 0
M  V30 221 O 20.0453 1.33779 -1.42834 0
M  V30 222 C 20.3443 -1.67673 -3.15627 0
M  V30 223 C 20.0103 -3.17533 -3.2013 0
M  V30 224 C 18.6723 -3.58427 -3.21067 0
M  V30 225 C 21.0243 -4.13504 -3.17275 0
M  V30 226 C 18.3523 -4.93794 -3.16835 0
M  V30 227 C 20.7043 -5.48834 -3.14585 0
M  V30 228 C 19.3683 -5.89123 -3.13831 0
M  V30 229 H 18.6383 -0.377999 -0.637336 0
M  V30 230 H 21.2853 -1.51111 -1.17634 0
M  V30 231 H 19.5903 -1.12158 -3.75404 0
M  V30 232 H 21.2873 -1.51091 -3.71446 0
M  V30 233 H 17.8773 -2.84965 -3.20145 0
M  V30 234 H 22.0613 -3.82936 -3.15711 0
M  V30 235 H 17.3173 -5.24255 -3.1459 0
M  V30 236 H 21.4913 -6.22934 -3.1133 0
M  V30 237 H 19.1183 -6.93984 -3.10307 0
M  V30 238 N 20.6934 1.19889 -1.02296 0
M  V30 239 C 21.9184 1.9393 -0.735237 0
M  V30 240 C 22.3434 1.74639 0.698782 0
M  V30 241 O 21.7014 1.04481 1.48167 0
M  V30 242 C 21.7494 3.43916 -1.08417 0
M  V30 243 O 20.8534 4.11917 -0.199446 0
M  V30 244 H 20.1944 0.605645 -0.272196 0
M  V30 245 H 22.7244 1.52137 -1.36804 0
M  V30 246 H 22.7344 3.9456 -1.03856 0
M  V30 247 H 21.4094 3.5728 -2.12894 0
M  V30 248 H 19.9864 3.71666 -0.303136 0
M  V30 249 N 22.1715 0.800033 1.35784 0
M  V30 250 C 23.4195 0.376597 1.9856 0
M  V30 251 C 23.7405 -1.05812 1.63795 0
M  V30 252 O 23.0105 -1.73103 0.917171 0
M  V30 253 H 21.5905 0.136261 0.734467 0
M  V30 254 H 24.2525 1.02442 1.65806 0
M  V30 255 H 23.3485 0.477002 3.08433 0
M  V30 256 N 23.6496 -1.47581 0.552962 0
M  V30 257 C 24.8966 -2.02482 0.0273243 0
M  V30 258 C 25.2246 -1.42776 -1.32081 0
M  V30 259 O 24.4796 -0.571393 -1.87173 0
M  V30 260 C 24.7786 -3.57199 -0.119728 0
M  V30 261 C 24.4446 -4.35804 1.15697 0
M  V30 262 C 23.1066 -4.57 1.50681 0
M  V30 263 C 25.4586 -4.81167 2.00319 0
M  V30 264 C 22.7866 -5.20807 2.70142 0
M  V30 265 C 25.1386 -5.46293 3.18978 0
M  V30 266 C 23.8026 -5.65722 3.54281 0
M  V30 267 H 23.0726 -0.740933 0.00999866 0
M  V30 268 H 25.7196 -1.77302 0.72362 0
M  V30 269 H 24.0246 -3.81348 -0.89896 0
M  V30 270 H 25.7216 -3.97324 -0.541718 0
M  V30 271 H 22.3116 -4.19582 0.874561 0
M  V30 272 H 26.4956 -4.64574 1.74599 0
M  V30 273 H 21.7516 -5.34045 2.97668 0
M  V30 274 H 25.9256 -5.80407 3.84838 0
M  V30 275 H 23.5526 -6.14936 4.46942 0
M  V30 276 N 25.1277 -0.289203 -1.54924 0
M  V30 277 C 26.0907 0.579144 -2.21762 0
M  V30 278 C 27.0907 1.07047 -1.1999 0
M  V30 279 O 28.2807 0.968384 -1.44803 0
M  V30 280 C 25.4127 1.80055 -2.8947 0
M  V30 281 H 26.6057 -0.00464908 -2.999 0
M  V30 282 H 24.1587 -0.0399306 -1.56249 0
M  V30 283 H 24.8937 2.42449 -2.15381 0
M  V30 284 H 24.6787 1.45602 -3.64064 0
M  V30 285 H 26.1687 2.41773 -3.40493 0
M  V30 286 N 26.6058 1.57591 -0.0167156 0
M  V30 287 C 27.5378 2.06343 0.997753 0
M  V30 288 C 28.5508 0.984469 1.29661 0
M  V30 289 O 29.7398 1.26093 1.26344 0
M  V30 290 C 26.8398 2.46255 2.32834 0
M  V30 291 C 26.0128 3.77083 2.21646 0
M  V30 292 C 25.0718 4.0368 3.37534 0
M  V30 293 O 24.0978 4.7411 3.14973 0
M  V30 294 N 25.2998 3.52881 4.60929 0
M  V30 295 H 28.0648 2.93997 0.581875 0
M  V30 296 H 25.6258 1.61002 0.170316 0
M  V30 297 H 27.6178 2.61149 3.09166 0
M  V30 298 H 26.1878 1.64032 2.66106 0
M  V30 299 H 25.4078 3.72106 1.30119 0
M  V30 300 H 26.6958 4.62822 2.11361 0
M  V30 301 H 26.0938 2.95878 4.82154 0
M  V30 302 H 24.6508 3.73076 5.34469 0
M  V30 303 N 28.0839 -0.256276 1.55502 0
M  V30 304 C 29.0469 -1.30047 1.88734 0
M  V30 305 C 30.0469 -1.4154 0.763086 0
M  V30 306 O 31.2369 -1.40403 1.03115 0
M  V30 307 C 28.3689 -2.67953 2.10747 0
M  V30 308 H 29.5619 -1.01802 2.82093 0
M  V30 309 H 27.1149 -0.495134 1.4825 0
M  V30 310 H 27.8499 -3.01351 1.19825 0
M  V30 311 H 27.6349 -2.60993 2.92617 0
M  V30 312 H 29.1249 -3.43368 2.37673 0
M  V30 313 N 29.562 -1.4872 -0.521534 0
M  V30 314 C 30.839 -1.4766 -1.2828 0
M  V30 315 C 31.219 -0.19292 -2.10217 0
M  V30 316 O 30.567 0.825193 -2.13079 0
M  V30 317 C 30.777 -2.74358 -2.15705 0
M  V30 318 C 32.125 -3.23028 -2.75569 0
M  V30 319 O 33.149 -2.75333 -2.25987 0
M  V30 320 O 32.008 -4.0604 -3.65778 0
M  V30 321 H 29.102 -0.590085 -0.579421 0
M  V30 322 H 31.648 -1.60963 -0.537492 0
M  V30 323 H 30.42 -3.59292 -1.54999 0
M  V30 324 H 30.043 -2.63816 -2.97467 0
M  V30 325 N 31.0401 0.771051 -1.3745 0
M  V30 326 C 32.3171 1.519 -1.23231 0
M  V30 327 C 32.6971 2.10383 0.173809 0
M  V30 328 O 32.0451 1.95583 1.18151 0
M  V30 329 C 32.2551 2.59933 -2.32886 0
M  V30 330 C 33.6031 3.27316 -2.70461 0
M  V30 331 O 34.6271 2.70228 -2.32068 0
M  V30 332 O 33.4861 4.30531 -3.36608 0
M  V30 333 H 30.5801 0.672803 -0.480901 0
M  V30 334 H 33.1261 0.807957 -1.49232 0
M  V30 335 H 31.8981 2.14842 -3.27045 0
M  V30 336 H 31.5211 3.38637 -2.08353 0
M  V30 337 N 32.5182 1.22032 0.997298 0
M  V30 338 C 33.4812 0.987909 2.06816 0
M  V30 339 C 34.4812 -0.0440084 1.6074 0
M  V30 340 O 35.6712 0.194053 1.73116 0
M  V30 341 C 32.8032 0.49132 3.37341 0
M  V30 342 H 33.9962 1.93803 2.28868 0
M  V30 343 H 31.5492 1.03838 1.16822 0
M  V30 344 H 32.2842 -0.463364 3.20973 0
M  V30 345 H 32.0692 1.23575 3.72118 0
M  V30 346 H 33.5592 0.348824 4.16141 0
M  V30 347 N 33.9963 -1.19345 1.0293 0
M  V30 348 C 34.9593 -2.20793 0.615069 0
M  V30 349 C 35.9593 -1.57553 -0.321533 0
M  V30 350 O 37.1493 -1.73862 -0.108483 0
M  V30 351 C 34.2813 -3.40754 -0.0999222 0
M  V30 352 H 35.4743 -2.58955 1.51269 0
M  V30 353 H 33.0273 -1.3303 0.820534 0
M  V30 354 H 33.7623 -3.0811 -1.01187 0
M  V30 355 H 33.5473 -3.87889 0.57309 0
M  V30 356 H 35.0373 -4.15898 -0.376645 0
M  V30 357 N 35.4744 -0.807222 -1.35358 0
M  V30 358 C 36.7234 -0.384376 -1.98004 0
M  V30 359 C 37.0364 1.0543 -1.64754 0
M  V30 360 O 38.2424 1.58029 -2.20769 0
M  V30 361 C 36.6984 -0.636326 -3.5423 0
M  V30 362 C 36.3064 -2.08759 -3.96388 0
M  V30 363 C 38.0504 -0.278869 -4.23583 0
M  V30 364 C 35.9574 -2.28525 -5.45463 0
M  V30 365 H 34.8874 -0.139986 -0.740891 0
M  V30 366 H 37.5384 -0.991369 -1.54415 0
M  V30 367 H 35.9204 0.0406256 -3.95979 0
M  V30 368 H 37.0944 -2.8024 -3.6579 0
M  V30 369 H 35.4094 -2.40497 -3.39926 0
M  V30 370 H 38.0064 -0.404599 -5.33167 0
M  V30 371 H 38.3494 0.775012 -4.09022 0
M  V30 372 H 38.8824 -0.909764 -3.87257 0
M  V30 373 H 35.6214 -3.32361 -5.64992 0
M  V30 374 H 35.1414 -1.61569 -5.77629 0
M  V30 375 H 36.8204 -2.10109 -6.11934 0
M  V30 376 N 36.9525 1.47285 -0.560781 0
M  V30 377 C 37.8845 2.28118 0.222438 0
M  V30 378 C 38.8975 1.37219 0.876056 0
M  V30 379 O 40.0865 1.62011 0.749307 0
M  V30 380 C 37.1865 3.1159 1.33285 0
M  V30 381 C 36.3595 4.30473 0.77534 0
M  V30 382 C 35.4185 4.95513 1.77069 0
M  V30 383 O 34.4445 5.53792 1.31539 0
M  V30 384 N 35.6465 4.90531 3.10418 0
M  V30 385 H 38.4115 2.95976 -0.470958 0
M  V30 386 H 35.9725 1.56955 -0.39709 0
M  V30 387 H 37.9645 3.51967 1.99752 0
M  V30 388 H 36.5345 2.45951 1.92943 0
M  V30 389 H 35.7545 3.94144 -0.0662113 0
M  V30 390 H 37.0425 5.07362 0.382272 0
M  V30 391 H 36.4405 4.44389 3.5005 0
M  V30 392 H 34.9975 5.34917 3.72434 0
M  V30 393 N 38.4306 0.297415 1.54768 0
M  V30 394 C 39.3626 -0.613881 2.20826 0
M  V30 395 C 40.3756 -1.10032 1.19987 0
M  V30 396 O 41.5646 -1.01839 1.46598 0
M  V30 397 C 38.6646 -1.852 2.83821 0
M  V30 398 C 37.8376 -1.50865 4.10559 0
M  V30 399 C 36.8966 -2.60154 4.57391 0
M  V30 400 O 35.9226 -2.25398 5.2267 0
M  V30 401 N 37.1246 -3.90629 4.29406 0
M  V30 402 H 39.8896 -0.048389 2.99661 0
M  V30 403 H 37.4506 0.11946 1.61459 0
M  V30 404 H 39.4426 -2.57652 3.12086 0
M  V30 405 H 38.0126 -2.32597 2.08847 0
M  V30 406 H 37.2326 -0.616925 3.89343 0
M  V30 407 H 38.5206 -1.25458 4.9309 0
M  V30 408 H 37.9186 -4.21677 3.77101 0
M  V30 409 H 36.4756 -4.59391 4.62388 0
M  V30 410 N 39.9087 -1.5758 0.0250728 0
M  V30 411 C 41.1367 -1.9593 -0.664747 0
M  V30 412 C 41.5517 -0.901352 -1.65895 0
M  V30 413 O 40.9087 0.117255 -1.82123 0
M  V30 414 C 40.9597 -3.34342 -1.37468 0
M  V30 415 O 40.6807 -4.36079 -0.420324 0
M  V30 416 C 42.1817 -3.873 -2.1567 0
M  V30 417 H 39.4017 -0.645405 -0.183557 0
M  V30 418 H 41.9457 -2.04329 0.0836372 0
M  V30 419 H 40.1007 -3.27175 -2.0745 0
M  V30 420 H 40.5147 -5.16297 -0.923991 0
M  V30 421 H 41.9887 -4.86504 -2.60803 0
M  V30 422 H 42.4657 -3.21331 -2.99405 0
M  V30 423 H 43.0717 -3.97723 -1.50654 0
M  V30 424 N 41.3868 0.248026 -1.55636 0
M  V30 425 C 42.3168 1.31079 -1.93237 0
M  V30 426 C 43.2978 1.50264 -0.797174 0
M  V30 427 O 44.4828 1.62891 -1.05737 0
M  V30 428 C 41.6128 2.66575 -2.22609 0
M  V30 429 C 40.5668 2.62087 -3.3837 0
M  V30 430 C 39.8928 4.01369 -3.53281 0
M  V30 431 C 41.1928 2.19171 -4.7409 0
M  V30 432 H 42.8868 0.998556 -2.82257 0
M  V30 433 H 40.4328 0.47891 -1.35803 0
M  V30 434 H 42.3858 3.41057 -2.47503 0
M  V30 435 H 41.1098 2.99432 -1.30414 0
M  V30 436 H 39.7688 1.90063 -3.13483 0
M  V30 437 H 39.4168 4.31489 -2.58508 0
M  V30 438 H 39.1168 3.99254 -4.31127 0
M  V30 439 H 40.6408 4.77552 -3.80495 0
M  V30 440 H 42.0548 2.83384 -4.98363 0
M  V30 441 H 40.4518 2.2817 -5.5503 0
M  V30 442 H 41.5218 1.14336 -4.71227 0
M  V30 443 N 42.8649 1.48995 0.513639 0
M  V30 444 C 43.8279 1.64229 1.59879 0
M  V30 445 C 44.8279 0.514696 1.5234 0
M  V30 446 O 46.0179 0.78087 1.55718 0
M  V30 447 C 43.1499 1.62783 2.99524 0
M  V30 448 H 44.3429 2.61004 1.47705 0
M  V30 449 H 41.8959 1.37837 0.736936 0
M  V30 450 H 42.6309 0.675461 3.17188 0
M  V30 451 H 42.4159 2.4466 3.06404 0
M  V30 452 H 43.9059 1.76669 3.78388 0
M  V30 453 N 44.343 -0.763751 1.37857 0
M  V30 454 C 45.29 -1.87726 1.34267 0
M  V30 455 C 46.26 -1.64807 0.206879 0
M  V30 456 O 47.445 -1.86613 0.397508 0
M  V30 457 C 44.585 -3.24896 1.16346 0
M  V30 458 C 43.698 -3.59716 2.39225 0
M  V30 459 C 42.833 -4.86137 2.14114 0
M  V30 460 C 41.872 -5.13711 3.32817 0
M  V30 461 N 41.009 -6.31323 3.07206 0
M  V30 462 H 45.849 -1.90129 2.29466 0
M  V30 463 H 43.386 -0.929433 1.14017 0
M  V30 464 H 45.344 -4.04036 1.03975 0
M  V30 465 H 43.974 -3.21847 0.247909 0
M  V30 466 H 43.026 -2.75498 2.62307 0
M  V30 467 H 44.338 -3.76027 3.27728 0
M  V30 468 H 43.492 -5.73198 1.9882 0
M  V30 469 H 42.231 -4.71945 1.22961 0
M  V30 470 H 41.236 -4.25123 3.48641 0
M  V30 471 H 42.461 -5.29807 4.24832 0
M  V30 472 H 40.407 -6.18474 2.1869 0
M  V30 473 H 40.324 -6.48087 3.89254 0
M  V30 474 H 41.592 -7.213 2.95546 0
M  V30 475 N 45.8211 -1.22559 -0.990812 0
M  V30 476 C 46.7541 -0.940773 -2.07905 0
M  V30 477 C 47.7321 0.117082 -1.62178 0
M  V30 478 O 48.9161 -0.0149506 -1.88494 0
M  V30 479 C 46.0431 -0.415321 -3.36144 0
M  V30 480 C 45.0891 -1.45818 -4.00799 0
M  V30 481 S 45.9221 -3.03219 -4.41382 0
M  V30 482 C 47.0781 -2.52317 -5.72789 0
M  V30 483 H 47.3111 -1.8623 -2.31745 0
M  V30 484 H 44.8441 -1.05688 -1.12558 0
M  V30 485 H 46.8021 -0.118747 -4.10328 0
M  V30 486 H 45.4631 0.485121 -3.10331 0
M  V30 487 H 44.6561 -1.04044 -4.93144 0
M  V30 488 H 44.2581 -1.70356 -3.32949 0
M  V30 489 H 46.5501 -1.93688 -6.49224 0
M  V30 490 H 47.4931 -3.43161 -6.19392 0
M  V30 491 H 47.9011 -1.93529 -5.30289 0
M  V30 492 N 47.2992 1.18797 -1.03562 0
M  V30 493 C 48.5472 1.88278 -0.734569 0
M  V30 494 C 48.8682 1.8043 0.739586 0
M  V30 495 O 48.1382 1.21925 1.53333 0
M  V30 496 H 46.7182 0.696991 -0.268725 0
M  V30 497 H 49.3802 1.44192 -1.31129 0
M  V30 498 H 48.4762 2.94443 -1.03489 0
M  V30 499 N 48.7773 0.814389 1.34928 0
M  V30 500 C 50.0263 0.394871 1.97797 0
M  V30 501 C 50.3393 -1.04555 1.65311 0
M  V30 502 O 51.5453 -1.56856 2.21604 0
M  V30 503 C 50.0013 0.655103 3.53888 0
M  V30 504 C 49.6093 2.10858 3.95276 0
M  V30 505 C 51.3533 0.301329 4.23429 0
M  V30 506 C 49.2603 2.31415 5.44244 0
M  V30 507 H 48.1903 0.143913 0.740139 0
M  V30 508 H 50.8413 0.999544 1.53888 0
M  V30 509 H 49.2233 -0.0196253 3.95995 0
M  V30 510 H 50.3973 2.82176 3.64298 0
M  V30 511 H 48.7123 2.42297 3.38646 0
M  V30 512 H 51.3093 0.432869 5.32945 0
M  V30 513 H 51.6523 -0.75331 4.09428 0
M  V30 514 H 52.1853 0.930288 3.86769 0
M  V30 515 H 48.9243 3.35353 5.63222 0
M  V30 516 H 48.4443 1.6463 5.76764 0
M  V30 517 H 50.1233 2.13352 6.10811 0
M  V30 518 N 50.2554 -1.46986 0.568584 0
M  V30 519 C 51.2024 -2.30153 -0.172707 0
M  V30 520 C 52.1724 -1.39759 -0.897586 0
M  V30 521 O 53.3574 -1.68716 -0.891044 0
M  V30 522 C 50.4974 -3.23952 -1.1895 0
M  V30 523 C 49.6104 -4.29441 -0.469517 0
M  V30 524 C 48.7454 -5.1038 -1.47259 0
M  V30 525 C 47.7844 -6.07632 -0.738225 0
M  V30 526 N 46.9214 -6.8149 -1.68868 0
M  V30 527 H 51.7614 -2.93019 0.542596 0
M  V30 528 H 49.2984 -1.44422 0.279401 0
M  V30 529 H 51.2564 -3.76767 -1.79173 0
M  V30 530 H 49.8864 -2.62926 -1.87269 0
M  V30 531 H 48.9384 -3.79594 0.247467 0
M  V30 532 H 50.2504 -4.98689 0.105241 0
M  V30 533 H 49.4044 -5.67402 -2.14803 0
M  V30 534 H 48.1434 -4.4106 -2.08128 0
M  V30 535 H 47.1484 -5.49778 -0.0489293 0
M  V30 536 H 48.3734 -6.78966 -0.135129 0
M  V30 537 H 46.3194 -6.14891 -2.28573 0
M  V30 538 H 46.2364 -7.46948 -1.16636 0
M  V30 539 H 47.5044 -7.43078 -2.3549 0
M  V30 540 N 51.7335 -0.305618 -1.54608 0
M  V30 541 C 52.9585 0.307562 -2.05107 0
M  V30 542 C 53.3835 1.46385 -1.18123 0
M  V30 543 O 52.7415 1.8034 -0.186324 0
M  V30 544 C 52.7895 0.73704 -3.52987 0
M  V30 545 O 51.8935 1.84134 -3.6901 0
M  V30 546 H 51.2345 0.0589143 -0.661381 0
M  V30 547 H 53.7645 -0.448807 -1.99617 0
M  V30 548 H 53.7745 1.02459 -3.94925 0
M  V30 549 H 52.4495 -0.108773 -4.15758 0
M  V30 550 H 51.0265 1.55398 -3.38978 0
M  V30 551 N 53.2116 1.57565 -0.0334293 0
M  V30 552 C 54.4366 1.96689 0.657895 0
M  V30 553 C 54.8616 0.910057 1.64619 0
M  V30 554 O 54.2196 -0.128598 1.80843 0
M  V30 555 C 54.2676 3.34905 1.33683 0
M  V30 556 O 53.3716 3.31574 2.45219 0
M  V30 557 H 52.7126 0.641205 0.172489 0
M  V30 558 H 55.2426 2.04372 -0.0965621 0
M  V30 559 H 55.2526 3.71234 1.69262 0
M  V30 560 H 53.9276 4.11366 0.612411 0
M  V30 561 H 52.5046 3.06968 2.11719 0
M  V30 562 N 54.6897 -0.239769 1.55765 0
M  V30 563 C 55.9667 -0.990056 1.68693 0
M  V30 564 C 56.3467 -2.03107 0.5754 0
M  V30 565 O 55.6947 -2.24604 -0.42017 0
M  V30 566 C 55.9047 -1.61696 3.09282 0
M  V30 567 C 57.2527 -2.11613 3.6811 0
M  V30 568 O 58.2767 -1.71624 3.12127 0
M  V30 569 O 57.1357 -2.85057 4.66267 0
M  V30 570 H 54.2297 -0.461299 0.686391 0
M  V30 571 H 56.7757 -0.232991 1.68093 0
M  V30 572 H 55.5477 -0.864357 3.81634 0
M  V30 573 H 55.1707 -2.44005 3.13923 0
M  V30 574 N 56.1678 -1.49265 -0.50573 0
M  V30 575 C 57.4168 -1.57761 -1.25675 0
M  V30 576 C 57.7298 -0.267371 -1.93764 0
M  V30 577 O 58.9358 -0.230827 -2.70517 0
M  V30 578 C 57.3918 -2.78332 -2.28165 0
M  V30 579 C 56.9998 -4.16096 -1.66037 0
M  V30 580 C 58.7438 -2.96155 -3.04125 0
M  V30 581 C 56.6508 -5.27895 -2.6661 0
M  V30 582 H 55.5808 -0.587391 -0.472745 0
M  V30 583 H 58.2318 -1.75644 -0.53118 0
M  V30 584 H 56.6138 -2.53934 -3.03865 0
M  V30 585 H 57.7878 -4.50612 -0.963622 0
M  V30 586 H 56.1028 -4.03591 -1.02484 0
M  V30 587 H 58.6998 -3.76849 -3.79327 0
M  V30 588 H 59.0428 -2.06534 -3.61455 0
M  V30 589 H 59.5758 -3.2057 -2.35541 0
M  V30 590 H 56.3148 -6.1956 -2.14068 0
M  V30 591 H 55.8348 -4.97839 -3.34539 0
M  V30 592 H 57.5138 -5.57031 -3.29129 0
M  V30 593 N 57.6459 0.756429 -1.3826 0
M  V30 594 C 58.5779 1.87971 -1.31147 0
M  V30 595 C 59.5909 1.61248 -0.224239 0
M  V30 596 O 60.7799 1.71881 -0.481581 0
M  V30 597 C 57.8799 3.23545 -1.00857 0
M  V30 598 C 57.0529 3.77794 -2.20432 0
M  V30 599 C 56.1119 4.91877 -1.86931 0
M  V30 600 O 55.1379 5.06659 -2.59395 0
M  V30 601 N 56.3399 5.74643 -0.822568 0
M  V30 602 H 59.1049 1.94585 -2.2794 0
M  V30 603 H 56.6659 0.936234 -1.32084 0
M  V30 604 H 58.6579 3.97403 -0.765021 0
M  V30 605 H 57.2279 3.12335 -0.128687 0
M  V30 606 H 56.4479 2.95534 -2.6087 0
M  V30 607 H 57.7359 4.10771 -3.00241 0
M  V30 608 H 57.1339 5.65266 -0.221575 0
M  V30 609 H 55.6909 6.48661 -0.638899 0
M  V30 610 N 59.124 1.23083 0.984299 0
M  V30 611 C 60.535 1.05609 1.5396 0
M  V30 612 C 60.886 -0.377793 1.92528 0
M  V30 613 O 60.011 -1.26398 1.75649 0
M  V30 614 C 60.606 1.91087 2.7977 0
M  V30 615 C 59.165 1.77885 3.31713 0
M  V30 616 C 58.312 1.87028 2.04733 0
M  V30 617 H 61.263 1.36802 0.804419 0
M  V30 618 H 61.284 1.43336 3.5247 0
M  V30 619 H 60.796 2.9544 2.51668 0
M  V30 620 H 58.897 0.762995 3.64704 0
M  V30 621 H 59.01 2.61047 4.01735 0
M  V30 622 H 57.374 1.30565 2.18689 0
M  V30 623 H 58.157 2.92929 1.79017 0
M  V30 624 N 60.6021 -1.18246 1.0419 0
M  V30 625 C 61.5651 -2.20128 0.638452 0
M  V30 626 C 62.5651 -1.57885 -0.304805 0
M  V30 627 O 63.7551 -1.73967 -0.0900369 0
M  V30 628 C 60.8871 -3.4084 -0.0637751 0
M  V30 629 H 62.0801 -2.57336 1.54007 0
M  V30 630 H 59.6331 -1.32152 0.834598 0
M  V30 631 H 60.3681 -3.09166 -0.979136 0
M  V30 632 H 60.1531 -3.8726 0.614198 0
M  V30 633 H 61.6431 -4.16274 -0.332512 0
M  V30 634 N 62.0802 -0.821533 -1.34494 0
M  V30 635 C 63.4912 -0.467956 -1.8074 0
M  V30 636 C 63.8422 1.01151 -1.68116 0
M  V30 637 O 62.9672 1.78707 -1.22036 0
M  V30 638 C 63.5622 -0.842627 -3.28154 0
M  V30 639 C 62.1212 -0.541439 -3.72485 0
M  V30 640 C 61.2682 -1.06028 -2.56229 0
M  V30 641 H 64.2192 -1.01183 -1.22261 0
M  V30 642 H 64.2402 -0.145876 -3.8022 0
M  V30 643 H 63.7522 -1.91945 -3.37311 0
M  V30 644 H 61.8532 0.526034 -3.68868 0
M  V30 645 H 61.9662 -1.08453 -4.66663 0
M  V30 646 H 60.3302 -0.481892 -2.501 0
M  V30 647 H 61.1132 -2.14352 -2.68157 0
M  V30 648 N 63.5583 1.46682 -0.576371 0
M  V30 649 C 64.8043 2.02712 -0.0596221 0
M  V30 650 C 65.1373 1.44765 1.29448 0
M  V30 651 O 64.4123 0.610355 1.84675 0
M  V30 652 C 64.6953 3.60098 0.0129503 0
M  V30 653 C 64.5483 4.28441 -1.3696 0
M  V30 654 C 65.8673 4.34224 0.71678 0
M  V30 655 H 62.9863 0.736637 -0.0231407 0
M  V30 656 H 65.6283 1.74898 -0.742351 0
M  V30 657 H 63.7783 3.83926 0.594378 0
M  V30 658 H 65.4503 4.15896 -1.9957 0
M  V30 659 H 63.6933 3.8805 -1.93907 0
M  V30 660 H 64.3643 5.3716 -1.27135 0
M  V30 661 H 66.8403 4.15503 0.222908 0
M  V30 662 H 65.7163 5.43936 0.73657 0
M  V30 663 H 65.9773 4.04823 1.77682 0
M  V30 664 N 65.0364 0.313813 1.54444 0
M  V30 665 C 65.9994 -0.54379 2.22656 0
M  V30 666 C 66.9994 -1.05124 1.21678 0
M  V30 667 O 68.1894 -0.945225 1.46325 0
M  V30 668 C 65.3214 -1.75427 2.92298 0
M  V30 669 H 66.5144 0.0523599 2.99854 0
M  V30 670 H 64.0674 0.0647834 1.56166 0
M  V30 671 H 64.8024 -2.38991 2.19211 0
M  V30 672 H 64.5874 -1.39791 3.66334 0
M  V30 673 H 66.0774 -2.36325 3.44297 0
M  V30 674 N 66.5145 -1.57545 0.0417849 0
M  V30 675 C 67.7625 -1.91937 -0.632829 0
M  V30 676 C 68.0835 -0.919978 -1.71934 0
M  V30 677 O 67.3535 0.0366064 -1.95866 0
M  V30 678 H 65.9335 -0.708493 -0.236742 0
M  V30 679 H 68.5955 -1.9468 0.0925745 0
M  V30 680 H 67.6915 -2.92912 -1.07746 0
M  V30 681 N 67.9926 0.231505 -1.5589 0
M  V30 682 C 68.9256 1.31369 -1.86595 0
M  V30 683 C 69.9036 1.45671 -0.722397 0
M  V30 684 O 71.0876 1.61642 -0.969743 0
M  V30 685 C 68.2146 2.68529 -2.06421 0
M  V30 686 C 67.2606 2.71295 -3.29092 0
M  V30 687 S 68.0936 2.26358 -4.85306 0
M  V30 688 C 69.2496 3.65414 -5.08157 0
M  V30 689 H 69.4826 1.05128 -2.78092 0
M  V30 690 H 67.0156 0.433259 -1.48197 0
M  V30 691 H 68.9736 3.47499 -2.18528 0
M  V30 692 H 67.6346 2.91999 -1.15738 0
M  V30 693 H 66.8276 3.72063 -3.39978 0
M  V30 694 H 66.4296 2.0038 -3.15791 0
M  V30 695 H 68.7216 4.6103 -4.96445 0
M  V30 696 H 69.6646 3.5945 -6.10083 0
M  V30 697 H 70.0726 3.5864 -4.35933 0
M  V30 698 N 69.4707 1.49531 0.497807 0
M  V30 699 C 70.4177 1.66436 1.59899 0
M  V30 700 C 71.3877 0.505793 1.58212 0
M  V30 701 O 72.5727 0.733202 1.7615 0
M  V30 702 C 69.7127 1.7399 2.98029 0
M  V30 703 C 68.8257 3.01172 3.09708 0
M  V30 704 C 67.9607 2.99686 4.38591 0
M  V30 705 C 66.9997 4.21434 4.43914 0
M  V30 706 N 66.1367 4.1784 5.64229 0
M  V30 707 H 70.9767 2.60459 1.44793 0
M  V30 708 H 68.5137 1.29137 0.704423 0
M  V30 709 H 70.4717 1.76352 3.78095 0
M  V30 710 H 69.1017 0.834301 3.11832 0
M  V30 711 H 68.1537 3.08408 2.22685 0
M  V30 712 H 69.4657 3.91165 3.09502 0
M  V30 713 H 68.6197 3.00628 5.2698 0
M  V30 714 H 67.3587 2.07477 4.41367 0
M  V30 715 H 66.3637 4.20733 3.53926 0
M  V30 716 H 67.5887 5.14839 4.42851 0
M  V30 717 H 65.5347 3.28469 5.67841 0
M  V30 718 H 65.4517 5.01571 5.65652 0
M  V30 719 H 66.7197 4.22889 6.54817 0
M  V30 720 N 70.9488 -0.749086 1.3866 0
M  V30 721 C 72.1768 -1.53834 1.38358 0
M  V30 722 C 72.5918 -1.88783 -0.0255219 0
M  V30 723 O 71.9488 -1.53101 -0.993292 0
M  V30 724 C 71.9998 -2.83468 2.2434 0
M  V30 725 O 71.7208 -2.50008 3.5976 0
M  V30 726 C 73.2218 -3.7758 2.32267 0
M  V30 727 H 70.4418 -0.47585 0.473083 0
M  V30 728 H 72.9858 -0.926726 1.82297 0
M  V30 729 H 71.1408 -3.40995 1.83851 0
M  V30 730 H 71.5548 -3.33182 4.05081 0
M  V30 731 H 73.0288 -4.65478 2.96706 0
M  V30 732 H 73.5058 -4.18334 1.33765 0
M  V30 733 H 74.1118 -3.25976 2.73166 0
M  V30 734 N 72.4269 -1.23603 -0.977757 0
M  V30 735 C 73.6729 -1.07129 -1.72195 0
M  V30 736 C 74.0059 0.390501 -1.90233 0
M  V30 737 O 73.2809 1.28902 -1.45653 0
M  V30 738 C 73.5639 -1.80031 -3.11867 0
M  V30 739 C 73.4169 -3.33899 -3.01383 0
M  V30 740 C 74.7359 -1.56492 -4.11337 0
M  V30 741 H 71.8549 -0.390571 -0.624999 0
M  V30 742 H 74.4969 -1.52142 -1.13811 0
M  V30 743 H 72.6469 -1.41768 -3.6171 0
M  V30 744 H 74.3189 -3.81699 -2.59043 0
M  V30 745 H 72.5619 -3.62796 -2.37827 0
M  V30 746 H 73.2329 -3.801 -4.00285 0
M  V30 747 H 75.7089 -1.89757 -3.70313 0
M  V30 748 H 74.5849 -2.09973 -5.07151 0
M  V30 749 H 74.8459 -0.500874 -4.39254 0
M  V30 750 N 73.905 1.17692 -1.04816 0
M  V30 751 C 74.835 2.23777 -0.666791 0
M  V30 752 C 75.816 1.66796 0.33361 0
M  V30 753 O 77.001 1.93039 0.212042 0
M  V30 754 C 74.131 3.47281 -0.0367933 0
M  V30 755 C 73.085 4.17059 -0.961546 0
M  V30 756 C 72.411 5.34342 -0.195626 0
M  V30 757 C 73.711 4.69713 -2.28402 0
M  V30 758 H 75.405 2.55933 -1.55367 0
M  V30 759 H 72.951 1.23019 -0.748484 0
M  V30 760 H 74.904 4.20706 0.241775 0
M  V30 761 H 73.628 3.14381 0.885004 0
M  V30 762 H 72.287 3.45541 -1.22462 0
M  V30 763 H 71.935 4.97692 0.728816 0
M  V30 764 H 71.635 5.81966 -0.811775 0
M  V30 765 H 73.159 6.10553 0.0757473 0
M  V30 766 H 74.573 5.34794 -2.06563 0
M  V30 767 H 72.97 5.279 -2.8538 0
M  V30 768 H 74.04 3.86726 -2.92525 0
M  V30 769 N 75.3831 0.828654 1.34056 0
M  V30 770 C 76.6111 0.43262 2.02326 0
M  V30 771 C 77.0261 -0.963147 1.62385 0
M  V30 772 O 76.3831 -1.62425 0.832121 0
M  V30 773 C 76.4341 0.53182 3.57567 0
M  V30 774 O 76.1551 1.87258 3.96063 0
M  V30 775 C 77.6561 0.131422 4.43105 0
M  V30 776 H 74.8761 0.172923 0.648335 0
M  V30 777 H 77.4201 1.1184 1.71208 0
M  V30 778 H 75.5751 -0.105938 3.87255 0
M  V30 779 H 75.9891 1.85087 4.90758 0
M  V30 780 H 77.4631 0.251904 5.51425 0
M  V30 781 H 77.9401 -0.925645 4.29335 0
M  V30 782 H 78.5461 0.743207 4.18756 0
M  V30 783 N 76.8612 -1.46375 0.584142 0
M  V30 784 C 77.8092 -2.32042 -0.161047 0
M  V30 785 C 78.8032 -1.44569 -0.882966 0
M  V30 786 O 80.0092 -1.61186 -0.801191 0
M  V30 787 H 76.3842 -0.748659 -0.0708033 0
M  V30 788 H 78.3552 -2.92704 0.580269 0
M  V30 789 C 77.1042 -3.27762 -1.1605 0
M  V30 790 H 76.4272 -3.95051 -0.614419 0
M  V30 791 H 77.8672 -3.90481 -1.65228 0
M  V30 792 C 76.3262 -2.53218 -2.22221 0
M  V30 793 O 76.8562 -2.29628 -3.29597 0
M  V30 794 N 75.0622 -2.13756 -1.96868 0
M  V30 795 H 74.6092 -2.33142 -1.09557 0
M  V30 796 H 74.5672 -1.642 -2.68115 0
M  V30 797 N 78.3393 -0.321999 -1.54275 0
M  V30 798 C 79.5643 0.285791 -2.05422 0
M  V30 799 C 79.9893 1.45124 -1.19669 0
M  V30 800 O 79.3473 1.80132 -0.205441 0
M  V30 801 C 79.3953 0.69956 -3.53749 0
M  V30 802 O 78.4993 1.8021 -3.70942 0
M  V30 803 H 77.8403 0.0518962 -0.661969 0
M  V30 804 H 80.3703 -0.469954 -1.9913 0
M  V30 805 H 80.3803 0.982649 -3.9599 0
M  V30 806 H 79.0553 -0.152864 -4.15619 0
M  V30 807 H 77.6323 1.51794 -3.40607 0
M  V30 808 N 79.8174 1.5752 -0.0501392 0
M  V30 809 C 81.0654 1.9227 0.622642 0
M  V30 810 C 81.3864 0.929083 1.71444 0
M  V30 811 O 80.6564 -0.0262186 1.95882 0
M  V30 812 H 79.2364 0.709739 0.232981 0
M  V30 813 H 81.8984 1.94628 -0.102898 0
M  V30 814 H 80.9944 2.93479 1.06191 0
M  V30 815 N 81.2955 -0.223234 1.56011 0
M  V30 816 C 82.5415 -0.949279 1.79211 0
M  V30 817 C 82.8745 -1.84054 0.619494 0
M  V30 818 O 82.1495 -1.90726 -0.381317 0
M  V30 819 C 82.4325 -1.78965 3.12479 0
M  V30 820 C 82.2855 -0.924997 4.40186 0
M  V30 821 C 83.6045 -2.76774 3.42175 0
M  V30 822 H 80.7235 -0.343676 0.651963 0
M  V30 823 H 83.3655 -0.218253 1.88742 0
M  V30 824 H 81.5155 -2.41291 3.04485 0
M  V30 825 H 83.1875 -0.318615 4.60198 0
M  V30 826 H 81.4305 -0.230344 4.33188 0
M  V30 827 H 82.1015 -1.54735 5.29869 0
M  V30 828 H 84.5775 -2.24584 3.50287 0
M  V30 829 H 83.4535 -3.32678 4.36597 0
M  V30 830 H 83.7145 -3.54429 2.64258 0
M  V30 831 N 82.7736 -1.49793 -0.48987 0
M  V30 832 C 83.7036 -1.70201 -1.59856 0
M  V30 833 C 84.6846 -0.55076 -1.60937 0
M  V30 834 O 85.8696 -0.787841 -1.77501 0
M  V30 835 C 82.9996 -1.77882 -2.98287 0
M  V30 836 C 81.9536 -2.92907 -3.12073 0
M  V30 837 C 81.2796 -2.85712 -4.51965 0
M  V30 838 C 82.5796 -4.3369 -2.91051 0
M  V30 839 H 84.2736 -2.63025 -1.43032 0
M  V30 840 H 81.8196 -1.26574 -0.686664 0
M  V30 841 H 83.7726 -1.90744 -3.75759 0
M  V30 842 H 82.4966 -0.816653 -3.16225 0
M  V30 843 H 81.1556 -2.79665 -2.37029 0
M  V30 844 H 80.8036 -1.8738 -4.66795 0
M  V30 845 H 80.5036 -3.62921 -4.62128 0
M  V30 846 H 82.0276 -3.00598 -5.31482 0
M  V30 847 H 83.4416 -4.47555 -3.58284 0
M  V30 848 H 81.8386 -5.12205 -3.12675 0
M  V30 849 H 82.9086 -4.47362 -1.87071 0
M  V30 850 N 84.2517 0.741722 -1.39055 0
M  V30 851 C 85.4817 1.52876 -1.3897 0
M  V30 852 C 85.8897 1.8919 0.0193266 0
M  V30 853 O 85.2327 1.54138 0.999356 0
M  V30 854 C 85.2947 2.84929 -2.19216 0
M  V30 855 C 84.9587 2.71086 -3.67915 0
M  V30 856 C 85.9557 2.40084 -4.61146 0
M  V30 857 C 83.6407 2.88168 -4.11418 0
M  V30 858 C 85.6347 2.26335 -5.95862 0
M  V30 859 C 83.3217 2.74037 -5.46211 0
M  V30 860 C 84.3197 2.43166 -6.38247 0
M  V30 861 O 84.0077 2.29115 -7.70559 0
M  V30 862 H 83.7397 0.479252 -0.476753 0
M  V30 863 H 86.2937 0.924751 -1.83405 0
M  V30 864 H 84.5237 3.47564 -1.69518 0
M  V30 865 H 86.2127 3.46509 -2.11392 0
M  V30 866 H 86.9787 2.26545 -4.28838 0
M  V30 867 H 82.8577 3.11191 -3.40119 0
M  V30 868 H 86.4017 2.0216 -6.67665 0
M  V30 869 H 82.2987 2.87153 -5.78112 0
M  V30 870 H 83.0667 2.44237 -7.81211 0
M  V30 871 N 85.7298 1.2412 0.971189 0
M  V30 872 C 86.9788 1.07284 1.70801 0
M  V30 873 C 87.2918 -0.388902 1.91695 0
M  V30 874 O 88.4978 -0.677379 2.62914 0
M  V30 875 C 86.9538 1.87145 3.07416 0
M  V30 876 C 86.5618 3.37707 2.94377 0
M  V30 877 C 88.3058 1.78828 3.84995 0
M  V30 878 C 86.2128 4.09925 4.26281 0
M  V30 879 H 85.1428 0.397854 0.64049 0
M  V30 880 H 87.7938 1.4817 1.0825 0
M  V30 881 H 86.1758 1.39071 3.70777 0
M  V30 882 H 87.3498 3.93335 2.4005 0
M  V30 883 H 85.6648 3.46938 2.30267 0
M  V30 884 H 88.2618 2.30089 4.82662 0
M  V30 885 H 88.6048 0.75284 4.09436 0
M  V30 886 H 89.1378 2.24563 3.28354 0
M  V30 887 H 85.8768 5.13813 4.07033 0
M  V30 888 H 85.3968 3.59083 4.80437 0
M  V30 889 H 87.0758 4.1673 4.94919 0
M  V30 890 N 87.2079 -1.17134 1.05439 0
M  V30 891 C 88.4359 -1.91372 0.786414 0
M  V30 892 C 88.8509 -1.76955 -0.658202 0
M  V30 893 O 88.2079 -1.10838 -1.44987 0
M  V30 894 C 88.2589 -3.42356 1.1608 0
M  V30 895 O 87.9799 -3.56332 2.54871 0
M  V30 896 C 89.4809 -4.33663 0.919322 0
M  V30 897 H 86.7009 -0.607118 0.285743 0
M  V30 898 H 89.2449 -1.48525 1.40572 0
M  V30 899 H 87.3999 -3.82939 0.586191 0
M  V30 900 H 87.8139 -4.49896 2.69618 0
M  V30 901 H 89.2879 -5.38099 1.231 0
M  V30 902 H 89.7649 -4.38959 -0.145359 0
M  V30 903 H 90.3709 -3.98796 1.47789 0
M  V30 904 N 88.686 -0.835752 -1.33615 0
M  V30 905 C 89.963 -0.352017 -1.92406 0
M  V30 906 C 90.343 1.16225 -1.76224 0
M  V30 907 O 89.691 1.97526 -1.14873 0
M  V30 908 C 89.901 -0.795485 -3.39813 0
M  V30 909 C 91.249 -0.801703 -4.16963 0
M  V30 910 O 92.273 -0.738889 -3.48452 0
M  V30 911 O 91.132 -0.886607 -5.3926 0
M  V30 912 H 88.226 -0.0989641 -0.821057 0
M  V30 913 H 90.772 -0.921397 -1.42507 0
M  V30 914 H 89.544 -1.83795 -3.45449 0
M  V30 915 H 89.167 -0.202505 -3.97084 0
M  V30 916 N 90.1641 1.46063 -0.591896 0
M  V30 917 C 91.4411 1.95595 -0.0137119 0
M  V30 918 C 91.8211 1.5345 1.4497 0
M  V30 919 O 91.1691 0.789543 2.14426 0
M  V30 920 C 91.3791 3.48453 -0.195373 0
M  V30 921 C 92.7271 4.24546 -0.0679765 0
M  V30 922 O 93.7511 3.55982 -0.124681 0
M  V30 923 O 92.6101 5.46467 0.0600579 0
M  V30 924 H 89.7041 0.825795 0.0446279 0
M  V30 925 H 92.2501 1.56303 -0.660859 0
M  V30 926 H 91.0221 3.72045 -1.21235 0
M  V30 927 H 90.6451 3.94597 0.487775 0
M  V30 928 N 91.6422 0.330177 1.54103 0
M  V30 929 C 92.8902 -0.269871 2.0029 0
M  V30 930 C 93.2112 -1.52133 1.21986 0
M  V30 931 O 92.4812 -1.93212 0.323438 0
M  V30 932 H 91.0612 -0.10271 0.739905 0
M  V30 933 H 93.7232 0.448249 1.89675 0
M  V30 934 H 92.8192 -0.52166 3.07709 0
M  V30 935 N 93.1203 -1.57491 0.0584922 0
M  V30 936 C 94.0673 -2.11958 -0.913376 0
M  V30 937 C 95.0373 -1.02875 -1.30407 0
M  V30 938 O 96.2223 -1.30464 -1.39226 0
M  V30 939 C 93.3623 -2.67497 -2.18035 0
M  V30 940 C 92.4753 -3.90691 -1.84349 0
M  V30 941 C 91.6103 -4.3452 -3.05559 0
M  V30 942 C 90.6493 -5.50395 -2.67827 0
M  V30 943 N 89.7863 -5.89244 -3.81754 0
M  V30 944 H 94.6263 -2.94704 -0.442017 0
M  V30 945 H 92.1633 -1.45643 -0.206545 0
M  V30 946 H 94.1213 -2.978 -2.92183 0
M  V30 947 H 92.7513 -1.87537 -2.62735 0
M  V30 948 H 91.8033 -3.66934 -1.00319 0
M  V30 949 H 93.1153 -4.7489 -1.5258 0
M  V30 950 H 92.2693 -4.66414 -3.87998 0
M  V30 951 H 91.0083 -3.49147 -3.40511 0
M  V30 952 H 90.0133 -5.18165 -1.83806 0
M  V30 953 H 91.2383 -6.3749 -2.34059 0
M  V30 954 H 89.1843 -5.06823 -4.16493 0
M  V30 955 H 89.1013 -6.68151 -3.53708 0
M  V30 956 H 90.3693 -6.25756 -4.64811 0
M  V30 957 N 94.5984 0.214957 -1.56127 0
M  V30 958 C 95.5484 1.27006 -1.8935 0
M  V30 959 C 96.5324 1.41969 -0.757202 0
M  V30 960 O 97.7244 1.44673 -1.01973 0
M  V30 961 C 94.8534 2.61911 -2.2194 0
M  V30 962 C 93.9394 2.50822 -3.41978 0
M  V30 963 N 94.3304 2.09391 -4.60423 0
M  V30 964 C 92.6284 2.81765 -3.45723 0
M  V30 965 C 93.3294 2.09712 -5.42582 0
M  V30 966 N 92.3054 2.50454 -4.82466 0
M  V30 967 H 96.1074 0.940734 -2.78437 0
M  V30 968 H 93.6214 0.423492 -1.56781 0
M  V30 969 H 95.6184 3.38096 -2.43919 0
M  V30 970 H 94.2784 2.95684 -1.34169 0
M  V30 971 H 95.2894 1.80416 -4.85459 0
M  V30 972 H 91.9664 3.19865 -2.68314 0
M  V30 973 H 93.3564 1.79748 -6.4741 0
M  V30 974 N 96.0765 1.50051 0.48192 0
M  V30 975 C 97.3255 1.59741 1.23149 0
M  V30 976 C 97.6385 0.298163 1.93314 0
M  V30 977 O 98.8445 0.273835 2.70116 0
M  V30 978 C 97.3005 2.81926 2.23708 0
M  V30 979 C 96.9085 4.18685 1.59396 0
M  V30 980 C 98.6525 3.00956 2.99375 0
M  V30 981 C 96.5595 5.3207 2.58178 0
M  V30 982 H 95.4895 0.594838 0.46334 0
M  V30 983 H 98.1405 1.76467 0.503169 0
M  V30 984 H 96.5225 2.58736 2.99786 0
M  V30 985 H 97.6965 4.52088 0.891811 0
M  V30 986 H 96.0115 4.05171 0.960503 0
M  V30 987 H 98.6085 3.82836 3.73283 0
M  V30 988 H 98.9515 2.12258 3.58123 0
M  V30 989 H 99.4845 3.24277 2.30411 0
M  V30 990 H 96.2235 6.22888 2.04184 0
M  V30 991 H 95.7435 5.03098 3.26577 0
M  V30 992 H 97.4225 5.62196 3.20225 0
M  V30 993 N 97.5546 -0.734337 1.39446 0
M  V30 994 C 98.8036 -1.48937 1.36017 0
M  V30 995 C 99.1166 -1.95557 -0.0409005 0
M  V30 996 O 100.323 -2.70779 -0.19778 0
M  V30 997 C 98.7786 -2.69125 2.38955 0
M  V30 998 C 98.3866 -2.29452 3.8478 0
M  V30 999 C 100.131 -3.46944 2.44603 0
M  V30 1000 C 98.0376 -3.46366 4.79358 0
M  V30 1001 H 96.9676 -0.559296 0.505672 0
M  V30 1002 H 99.6186 -0.800983 1.65095 0
M  V30 1003 H 98.0006 -3.40041 2.02948 0
M  V30 1004 H 99.1746 -1.66077 4.29831 0
M  V30 1005 H 97.4896 -1.64723 3.82433 0
M  V30 1006 H 100.087 -4.33907 3.12456 0
M  V30 1007 H 100.43 -3.89454 1.47076 0
M  V30 1008 H 100.963 -2.83056 2.79507 0
M  V30 1009 H 97.7016 -3.08905 5.78151 0
M  V30 1010 H 97.2216 -4.08719 4.38986 0
M  V30 1011 H 98.9006 -4.12691 4.98292 0
M  V30 1012 N 99.0327 -1.24633 -0.964593 0
M  V30 1013 C 99.9647 -0.999302 -2.06268 0
M  V30 1014 C 100.978 0.0323226 -1.62768 0
M  V30 1015 O 102.167 -0.205079 -1.77318 0
M  V30 1016 C 99.2667 -0.486816 -3.35385 0
M  V30 1017 C 98.4397 -1.5823 -4.07777 0
M  V30 1018 C 97.4987 -1.07191 -5.15166 0
M  V30 1019 O 96.5247 -1.76426 -5.41168 0
M  V30 1020 N 97.7267 0.0920373 -5.80427 0
M  V30 1021 H 100.492 -1.94477 -2.28033 0
M  V30 1022 H 98.0527 -1.15704 -1.13244 0
M  V30 1023 H 100.045 -0.130066 -4.04491 0
M  V30 1024 H 98.6147 0.364459 -3.10468 0
M  V30 1025 H 97.8347 -2.11109 -3.32906 0
M  V30 1026 H 99.1227 -2.31854 -4.52903 0
M  V30 1027 H 98.5207 0.670784 -5.61709 0
M  V30 1028 H 97.0777 0.389905 -6.50633 0
M  V30 1029 N 100.511 1.16574 -1.06058 0
M  V30 1030 C 101.759 1.86677 -0.77434 0
M  V30 1031 C 102.08 1.81959 0.701147 0
M  V30 1032 O 101.35 1.2515 1.50713 0
M  V30 1033 H 99.9298 0.691134 -0.283449 0
M  V30 1034 H 102.592 1.41378 -1.34158 0
M  V30 1035 H 101.688 2.92181 -1.09711 0
M  V30 1036 N 101.989 0.842826 1.3317 0
M  V30 1037 C 103.4 0.496651 1.79973 0
M  V30 1038 C 103.751 -0.984641 1.69703 0
M  V30 1039 O 102.876 -1.76743 1.24863 0
M  V30 1040 C 103.471 0.894727 3.26772 0
M  V30 1041 C 102.03 0.600629 3.71577 0
M  V30 1042 C 101.177 1.10091 2.5451 0
M  V30 1043 H 104.128 1.03116 1.20635 0
M  V30 1044 H 104.149 0.206347 3.7994 0
M  V30 1045 H 103.661 1.97287 3.34215 0
M  V30 1046 H 101.762 -0.467284 3.69658 0
M  V30 1047 H 101.875 1.15863 4.64879 0
M  V30 1048 H 100.239 0.52162 2.49301 0
M  V30 1049 H 101.022 2.18591 2.64713 0
M  V30 1050 N 103.467 -1.45747 0.599634 0
M  V30 1051 C 104.4 -2.27547 -0.172552 0
M  V30 1052 C 105.378 -1.36657 -0.881116 0
M  V30 1053 O 106.562 -1.66081 -0.891595 0
M  V30 1054 C 103.689 -3.14829 -1.24903 0
M  V30 1055 C 102.735 -4.21603 -0.644465 0
M  V30 1056 S 103.568 -5.32754 0.541606 0
M  V30 1057 C 104.724 -6.23604 -0.535656 0
M  V30 1058 H 104.957 -2.92691 0.521468 0
M  V30 1059 H 102.49 -1.49473 0.386947 0
M  V30 1060 H 104.448 -3.65675 -1.86527 0
M  V30 1061 H 103.109 -2.48965 -1.91508 0
M  V30 1062 H 102.302 -4.82566 -1.45417 0
M  V30 1063 H 101.904 -3.73857 -0.103534 0
M  V30 1064 H 104.196 -6.62519 -1.41686 0
M  V30 1065 H 105.139 -7.0809 0.0376246 0
M  V30 1066 H 105.547 -5.58103 -0.84741 0
M  V30 1067 N 104.945 -0.338344 -1.53925 0
M  V30 1068 C 106.175 0.260919 -2.04946 0
M  V30 1069 C 106.583 1.45174 -1.2133 0
M  V30 1070 O 105.926 1.82122 -0.240262 0
M  V30 1071 C 105.988 0.744596 -3.51704 0
M  V30 1072 C 105.652 -0.325883 -4.55837 0
M  V30 1073 C 106.649 -1.16687 -5.06636 0
M  V30 1074 C 104.334 -0.478317 -5.00017 0
M  V30 1075 C 106.328 -2.14588 -6.00192 0
M  V30 1076 C 104.015 -1.46073 -5.93385 0
M  V30 1077 C 105.013 -2.29297 -6.4336 0
M  V30 1078 O 104.701 -3.25867 -7.34892 0
M  V30 1079 H 104.433 0.0551207 -0.673749 0
M  V30 1080 H 106.987 -0.486984 -1.99544 0
M  V30 1081 H 105.217 1.54366 -3.54553 0
M  V30 1082 H 106.906 1.26383 -3.85723 0
M  V30 1083 H 107.672 -1.06016 -4.73271 0
M  V30 1084 H 103.551 0.159613 -4.60724 0
M  V30 1085 H 107.095 -2.79585 -6.39123 0
M  V30 1086 H 102.992 -1.56802 -6.26166 0
M  V30 1087 H 103.76 -3.21278 -7.5281 0
M  V30 1088 N 106.423 1.57458 -0.0668435 0
M  V30 1089 C 107.7 1.8469 0.644132 0
M  V30 1090 C 108.08 0.958343 1.88093 0
M  V30 1091 O 107.428 0.0233579 2.28488 0
M  V30 1092 C 107.638 3.34767 0.986509 0
M  V30 1093 C 108.986 4.02159 1.36212 0
M  V30 1094 O 110.01 3.39484 1.07839 0
M  V30 1095 O 108.869 5.12694 1.89227 0
M  V30 1096 H 105.963 0.762816 0.319437 0
M  V30 1097 H 108.509 1.6942 -0.0973986 0
M  V30 1098 H 107.281 3.91151 0.107883 0
M  V30 1099 H 106.904 3.55281 1.78497 0
M  V30 1100 N 107.901 -0.206675 1.56239 0
M  V30 1101 C 109.147 -0.930218 1.80208 0
M  V30 1102 C 109.48 -1.83387 0.638981 0
M  V30 1103 O 108.755 -1.91119 -0.361066 0
M  V30 1104 C 109.038 -1.75641 3.1436 0
M  V30 1105 C 108.891 -0.878257 4.41142 0
M  V30 1106 C 110.21 -2.73129 3.45092 0
M  V30 1107 H 107.329 -0.336742 0.655571 0
M  V30 1108 H 109.971 -0.198222 1.88963 0
M  V30 1109 H 108.121 -2.38048 3.07027 0
M  V30 1110 H 109.793 -0.269787 4.6051 0
M  V30 1111 H 108.036 -0.184385 4.33408 0
M  V30 1112 H 108.707 -1.49106 5.3148 0
M  V30 1113 H 111.183 -2.20856 3.52649 0
M  V30 1114 H 110.059 -3.28028 4.40101 0
M  V30 1115 H 110.32 -3.51606 2.68003 0
M  V30 1116 N 109.379 -1.50304 -0.473955 0
M  V30 1117 C 110.604 -1.65175 -1.25427 0
M  V30 1118 C 111.029 -0.333673 -1.85117 0
M  V30 1119 O 110.387 0.702114 -1.67153 0
M  V30 1120 C 110.435 -2.74295 -2.34082 0
M  V30 1121 O 109.539 -2.35349 -3.38651 0
M  V30 1122 H 108.88 -0.551944 -0.369126 0
M  V30 1123 H 111.41 -1.96662 -0.564364 0
M  V30 1124 H 111.42 -2.97285 -2.79438 0
M  V30 1125 H 110.095 -3.69959 -1.90008 0
M  V30 1126 H 108.672 -2.22794 -2.99027 0
M  V30 1127 N 110.857 0.726932 -1.39834 0
M  V30 1128 C 112.105 1.4837 -1.37225 0
M  V30 1129 C 112.426 1.94979 0.0284857 0
M  V30 1130 O 111.696 1.69555 0.981213 0
M  V30 1131 H 110.276 0.55043 -0.505011 0
M  V30 1132 H 112.938 0.862468 -1.74778 0
M  V30 1133 H 112.034 2.36198 -2.04003 0
M  V30 1134 N 112.336 1.25143 0.95797 0
M  V30 1135 C 113.564 1.12424 1.73691 0
M  V30 1136 C 113.979 -0.322304 1.86029 0
M  V30 1137 O 113.336 -1.22186 1.35561 0
M  V30 1138 C 113.387 1.76933 3.15241 0
M  V30 1139 O 113.108 3.15932 3.03511 0
M  V30 1140 C 114.609 1.6995 4.09429 0
M  V30 1141 H 111.829 0.3923 0.544373 0
M  V30 1142 H 114.373 1.6544 1.20207 0
M  V30 1143 H 112.528 1.27895 3.6568 0
M  V30 1144 H 112.942 3.47598 3.9278 0
M  V30 1145 H 114.416 2.19753 5.06372 0
M  V30 1146 H 114.893 0.662619 4.34173 0
M  V30 1147 H 115.499 2.18461 3.64904 0
M  V30 1148 N 113.814 -1.1601 1.06675 0
M  V30 1149 C 114.777 -2.18724 0.685001 0
M  V30 1150 C 115.777 -1.58496 -0.271246 0
M  V30 1151 O 116.967 -1.74119 -0.0531156 0
M  V30 1152 C 114.099 -3.40899 0.00853648 0
M  V30 1153 H 115.292 -2.54011 1.59431 0
M  V30 1154 H 112.845 -1.30352 0.862441 0
M  V30 1155 H 113.58 -3.11173 -0.913337 0
M  V30 1156 H 113.365 -3.8587 0.696204 0
M  V30 1157 H 114.855 -4.16886 -0.24414 0
M  V30 1158 N 115.292 -0.849877 -1.32721 0
M  V30 1159 C 116.703 -0.506188 -1.79707 0
M  V30 1160 C 117.054 0.975627 -1.70223 0
M  V30 1161 O 116.179 1.76078 -1.25799 0
M  V30 1162 C 116.774 -0.912044 -3.26293 0
M  V30 1163 C 115.333 -0.620326 -3.71253 0
M  V30 1164 C 114.48 -1.11439 -2.53922 0
M  V30 1165 H 117.431 -1.03754 -1.20087 0
M  V30 1166 H 117.452 -0.226493 -3.79825 0
M  V30 1167 H 116.964 -1.99057 -3.33164 0
M  V30 1168 H 115.065 0.447674 -3.69901 0
M  V30 1169 H 115.178 -1.18327 -4.64258 0
M  V30 1170 H 113.542 -0.534834 -2.49021 0
M  V30 1171 H 114.325 -2.19992 -2.6355 0
M  V30 1172 N 116.77 1.45427 -0.607355 0
M  V30 1173 C 118.016 2.0254 -0.102607 0
M  V30 1174 C 118.349 1.47478 1.26348 0
M  V30 1175 O 117.624 0.64939 1.83339 0
M  V30 1176 C 117.907 3.60044 -0.0634347 0
M  V30 1177 C 117.76 4.2544 -1.46017 0
M  V30 1178 C 119.079 4.35646 0.624514 0
M  V30 1179 H 116.198 0.73598 -0.0387607 0
M  V30 1180 H 118.84 1.73284 -0.779282 0
M  V30 1181 H 116.99 3.85101 0.512808 0
M  V30 1182 H 118.662 4.11569 -2.08347 0
M  V30 1183 H 116.905 3.83849 -2.02094 0
M  V30 1184 H 117.576 5.34342 -1.385 0
M  V30 1185 H 120.052 4.15882 0.134723 0
M  V30 1186 H 118.928 5.45376 0.621028 0
M  V30 1187 H 119.189 4.08501 1.69055 0
M  V30 1188 N 118.248 0.346503 1.53744 0
M  V30 1189 C 119.196 -0.52422 2.26616 0
M  V30 1190 C 120.19 -1.09948 1.28871 0
M  V30 1191 O 121.396 -1.04488 1.46568 0
M  V30 1192 H 117.771 -0.187743 0.728187 0
M  V30 1193 H 119.742 0.11239 2.98188 0
M  V30 1194 C 118.491 -1.66186 3.05414 0
M  V30 1195 H 117.814 -1.22848 3.80458 0
M  V30 1196 H 119.254 -2.24622 3.59612 0
M  V30 1197 C 117.713 -2.59302 2.1509 0
M  V30 1198 O 118.243 -3.61628 1.74895 0
M  V30 1199 N 116.449 -2.28055 1.8011 0
M  V30 1200 H 115.996 -1.44883 2.12994 0
M  V30 1201 H 115.954 -2.90615 1.19958 0
M  V30 1202 N 119.726 -1.57421 0.075193 0
M  V30 1203 C 120.972 -1.93905 -0.594025 0
M  V30 1204 C 121.305 -0.955701 -1.69056 0
M  V30 1205 O 120.58 0.0145373 -1.94495 0
M  V30 1206 C 120.863 -3.40638 -1.1678 0
M  V30 1207 C 120.716 -4.49733 -0.0776792 0
M  V30 1208 C 122.035 -3.88259 -2.07228 0
M  V30 1209 H 119.154 -0.705105 -0.214466 0
M  V30 1210 H 121.796 -1.8947 0.141854 0
M  V30 1211 H 119.946 -3.44549 -1.79494 0
M  V30 1212 H 121.618 -4.57942 0.555573 0
M  V30 1213 H 119.861 -4.29751 0.591286 0
M  V30 1214 H 120.532 -5.49549 -0.519603 0
M  V30 1215 H 123.008 -3.86376 -1.54445 0
M  V30 1216 H 121.884 -4.91533 -2.44308 0
M  V30 1217 H 122.145 -3.26396 -2.98191 0
M  V30 1218 N 121.204 0.198386 -1.56346 0
M  V30 1219 C 122.432 0.935572 -1.84539 0
M  V30 1220 C 122.847 1.76989 -0.657281 0
M  V30 1221 O 122.204 1.78626 0.374043 0
M  V30 1222 C 122.255 1.8344 -3.11499 0
M  V30 1223 O 121.976 1.03377 -4.25728 0
M  V30 1224 C 123.477 2.68355 -3.52846 0
M  V30 1225 H 120.697 0.273126 -0.612897 0
M  V30 1226 H 123.241 0.20663 -2.03453 0
M  V30 1227 H 121.396 2.51701 -2.94492 0
M  V30 1228 H 121.81 1.64599 -4.98003 0
M  V30 1229 H 123.284 3.27085 -4.44657 0
M  V30 1230 H 123.761 3.41901 -2.75681 0
M  V30 1231 H 124.367 2.05471 -3.72373 0
M  V30 1232 N 122.682 1.50554 0.465978 0
M  V30 1233 C 123.63 1.70324 1.58406 0
M  V30 1234 C 124.624 0.569139 1.59553 0
M  V30 1235 O 125.83 0.749776 1.63641 0
M  V30 1236 H 122.205 0.537688 0.525734 0
M  V30 1237 H 124.176 2.64104 1.38894 0
M  V30 1238 C 122.925 1.81928 2.96307 0
M  V30 1239 H 122.248 2.68586 2.96144 0
M  V30 1240 H 123.688 1.99784 3.73982 0
M  V30 1241 C 122.147 0.572095 3.32007 0
M  V30 1242 O 122.677 -0.286416 4.00678 0
M  V30 1243 N 120.883 0.424606 2.87481 0
M  V30 1244 H 120.43 1.12427 2.31771 0
M  V30 1245 H 120.388 -0.408697 3.11732 0
M  V30 1246 N 124.16 -0.719506 1.40217 0
M  V30 1247 C 125.107 -1.83359 1.40172 0
M  V30 1248 C 126.077 -1.64065 0.259206 0
M  V30 1249 O 127.262 -1.85254 0.456677 0
M  V30 1250 C 124.402 -3.2103 1.26624 0
M  V30 1251 C 123.515 -3.51923 2.50548 0
M  V30 1252 C 122.65 -4.79079 2.29471 0
M  V30 1253 C 121.689 -5.02863 3.48992 0
M  V30 1254 N 120.826 -6.2123 3.27135 0
M  V30 1255 H 125.666 -1.82733 2.35399 0
M  V30 1256 H 123.203 -0.892688 1.16917 0
M  V30 1257 H 125.161 -4.00524 1.16776 0
M  V30 1258 H 123.791 -3.20895 0.350176 0
M  V30 1259 H 122.843 -2.67014 2.70939 0
M  V30 1260 H 124.155 -3.6541 3.39525 0
M  V30 1261 H 123.309 -5.66582 2.16955 0
M  V30 1262 H 122.048 -4.67794 1.37913 0
M  V30 1263 H 121.053 -4.13816 3.6199 0
M  V30 1264 H 122.278 -5.16023 4.41472 0
M  V30 1265 H 120.224 -6.11204 2.38256 0
M  V30 1266 H 120.141 -6.35375 4.09675 0
M  V30 1267 H 121.409 -7.11532 3.18344 0
M  V30 1268 N 125.638 -1.25649 -0.95132 0
M  V30 1269 C 126.571 -1.00644 -2.04807 0
M  V30 1270 C 127.549 0.0654271 -1.62468 0
M  V30 1271 O 128.733 -0.074911 -1.88351 0
M  V30 1272 C 125.86 -0.522052 -3.34653 0
M  V30 1273 C 124.906 -1.58495 -3.95957 0
M  V30 1274 S 125.739 -3.17108 -4.31512 0
M  V30 1275 C 126.895 -2.70412 -5.64471 0
M  V30 1276 H 127.128 -1.93508 -2.25703 0
M  V30 1277 H 124.661 -1.09216 -1.09139 0
M  V30 1278 H 126.619 -0.24923 -4.09743 0
M  V30 1279 H 125.28 0.386146 -3.11717 0
M  V30 1280 H 124.473 -1.1968 -4.89584 0
M  V30 1281 H 124.075 -1.80862 -3.2736 0
M  V30 1282 H 126.367 -2.14245 -6.42733 0
M  V30 1283 H 127.31 -3.62693 -6.08161 0
M  V30 1284 H 127.718 -2.10302 -5.23864 0
M  V30 1285 N 127.117 1.15442 -1.07289 0
M  V30 1286 C 128.047 2.22312 -0.714107 0
M  V30 1287 C 129.028 1.67467 0.298155 0
M  V30 1288 O 130.213 1.93445 0.171048 0
M  V30 1289 C 127.343 3.47124 -0.110448 0
M  V30 1290 C 126.297 4.14926 -1.04979 0
M  V30 1291 C 125.623 5.33807 -0.308924 0
M  V30 1292 C 126.923 4.64762 -2.38314 0
M  V30 1293 H 128.617 2.5258 -1.6076 0
M  V30 1294 H 126.163 1.21404 -0.77441 0
M  V30 1295 H 128.116 4.21124 0.152482 0
M  V30 1296 H 126.84 3.16187 0.81812 0
M  V30 1297 H 125.499 3.42866 -1.29764 0
M  V30 1298 H 125.147 4.99126 0.623084 0
M  V30 1299 H 124.847 5.80113 -0.935036 0
M  V30 1300 H 126.371 6.10576 -0.0537771 0
M  V30 1301 H 127.785 5.30292 -2.1786 0
M  V30 1302 H 126.182 5.21728 -2.96514 0
M  V30 1303 H 127.252 3.80434 -3.00663 0
M  V30 1304 N 128.595 0.856903 1.32268 0
M  V30 1305 C 129.525 0.31858 2.31316 0
M  V30 1306 C 130.506 -0.583487 1.59779 0
M  V30 1307 O 131.691 -0.503259 1.87566 0
M  V30 1308 C 128.821 -0.491979 3.43798 0
M  V30 1309 C 127.775 0.315849 4.26833 0
M  V30 1310 C 127.101 -0.619586 5.31098 0
M  V30 1311 C 128.401 1.54282 4.98993 0
M  V30 1312 H 130.095 1.14621 2.76591 0
M  V30 1313 H 127.641 0.552613 1.32974 0
M  V30 1314 H 129.594 -0.879012 4.1213 0
M  V30 1315 H 128.318 -1.35299 2.97257 0
M  V30 1316 H 126.977 0.684664 3.6015 0
M  V30 1317 H 126.625 -1.47751 4.8081 0
M  V30 1318 H 126.325 -0.0830621 5.87541 0
M  V30 1319 H 127.849 -1.00375 6.02293 0
M  V30 1320 H 129.263 1.22796 5.59995 0
M  V30 1321 H 127.66 2.01745 5.65172 0
M  V30 1322 H 128.73 2.30285 4.26728 0
M  V30 1323 N 130.073 -1.45103 0.615059 0
M  V30 1324 C 131.02 -2.30586 -0.0993978 0
M  V30 1325 C 131.99 -1.42544 -0.852669 0
M  V30 1326 O 133.175 -1.71465 -0.836917 0
M  V30 1327 C 130.315 -3.27572 -1.08583 0
M  V30 1328 C 129.428 -4.30717 -0.332656 0
M  V30 1329 C 128.563 -5.14807 -1.30947 0
M  V30 1330 C 127.602 -6.09673 -0.544538 0
M  V30 1331 N 126.739 -6.86517 -1.47101 0
M  V30 1332 H 131.579 -2.91144 0.635542 0
M  V30 1333 H 129.116 -1.4346 0.325206 0
M  V30 1334 H 131.074 -3.82276 -1.67095 0
M  V30 1335 H 129.704 -2.68751 -1.78809 0
M  V30 1336 H 128.756 -3.78615 0.368107 0
M  V30 1337 H 130.068 -4.98102 0.263842 0
M  V30 1338 H 129.222 -5.73948 -1.96643 0
M  V30 1339 H 127.961 -4.47458 -1.9399 0
M  V30 1340 H 126.966 -5.49656 0.126003 0
M  V30 1341 H 128.191 -6.79052 0.080947 0
M  V30 1342 H 126.137 -6.21851 -2.08895 0
M  V30 1343 H 126.054 -7.50281 -0.928137 0
M  V30 1344 H 127.322 -7.50194 -2.11731 0
M  V30 1345 N 131.551 -0.354651 -1.53558 0
M  V30 1346 C 132.483 0.5315 -2.22952 0
M  V30 1347 C 133.496 1.05503 -1.23988 0
M  V30 1348 O 134.685 0.963279 -1.50277 0
M  V30 1349 C 131.785 1.74538 -2.90499 0
M  V30 1350 C 130.958 1.35524 -4.15875 0
M  V30 1351 C 130.017 2.42999 -4.66731 0
M  V30 1352 O 129.043 2.05844 -5.30676 0
M  V30 1353 N 130.245 3.74423 -4.43608 0
M  V30 1354 H 133.01 -0.0628615 -2.99634 0
M  V30 1355 H 130.571 -0.179302 -1.60904 0
M  V30 1356 H 132.563 2.45892 -3.21433 0
M  V30 1357 H 131.133 2.24686 -2.17336 0
M  V30 1358 H 130.353 0.471998 -3.91364 0
M  V30 1359 H 131.641 1.07071 -4.97406 0
M  V30 1360 H 131.039 4.07391 -3.92491 0
M  V30 1361 H 129.596 4.41913 -4.7912 0
M  V30 1362 N 133.029 1.57378 -0.0835403 0
M  V30 1363 C 133.959 2.1641 0.87686 0
M  V30 1364 C 134.94 1.09429 1.30228 0
M  V30 1365 O 136.125 1.37516 1.37124 0
M  V30 1366 C 133.255 2.73517 2.14022 0
M  V30 1367 C 132.209 3.85769 1.85381 0
M  V30 1368 C 131.535 4.29529 3.18448 0
M  V30 1369 C 132.835 5.09486 1.14984 0
M  V30 1370 H 134.529 2.96914 0.385059 0
M  V30 1371 H 132.075 1.42823 0.18377 0
M  V30 1372 H 134.028 3.13463 2.81636 0
M  V30 1373 H 132.752 1.90252 2.65465 0
M  V30 1374 H 131.411 3.46345 1.20169 0
M  V30 1375 H 131.059 3.43169 3.67755 0
M  V30 1376 H 130.759 5.05204 3.00071 0
M  V30 1377 H 132.283 4.72099 3.8724 0
M  V30 1378 H 133.697 5.46674 1.72687 0
M  V30 1379 H 132.094 5.90515 1.06826 0
M  V30 1380 H 133.164 4.84724 0.130749 0
M  V30 1381 N 134.507 -0.190092 1.56449 0
M  V30 1382 C 135.455 -1.25501 1.95837 0
M  V30 1383 C 136.449 -1.4685 0.844485 0
M  V30 1384 O 137.655 -1.47651 1.02952 0
M  V30 1385 H 134.03 -0.421447 0.622805 0
M  V30 1386 H 136.001 -0.895821 2.84636 0
M  V30 1387 C 134.75 -2.59124 2.31841 0
M  V30 1388 H 134.073 -2.43514 3.17082 0
M  V30 1389 H 135.513 -3.32371 2.6326 0
M  V30 1390 C 133.972 -3.16488 1.15486 0
M  V30 1391 O 134.502 -3.99365 0.432535 0
M  V30 1392 N 132.708 -2.75305 0.930349 0
M  V30 1393 H 132.255 -2.08013 1.51948 0
M  V30 1394 H 132.213 -3.14024 0.153634 0
M  V30 1395 N 135.985 -1.50799 -0.457987 0
M  V30 1396 C 136.948 -1.7005 -1.53674 0
M  V30 1397 C 137.948 -0.570881 -1.50325 0
M  V30 1398 O 139.138 -0.838126 -1.52712 0
M  V30 1399 C 136.27 -1.73788 -2.93276 0
M  V30 1400 H 137.463 -2.66306 -1.37917 0
M  V30 1401 H 135.016 -1.40477 -0.685271 0
M  V30 1402 H 135.751 -0.792717 -3.14462 0
M  V30 1403 H 135.536 -2.55864 -2.97113 0
M  V30 1404 H 137.026 -1.90591 -3.71571 0
M  V30 1405 N 137.463 0.71206 -1.40597 0
M  V30 1406 C 138.393 1.83889 -1.43899 0
M  V30 1407 C 139.374 1.67442 -0.299504 0
M  V30 1408 O 140.559 1.87421 -0.508624 0
M  V30 1409 C 137.689 3.21877 -1.30431 0
M  V30 1410 C 136.643 3.53002 -2.42019 0
M  V30 1411 C 135.969 4.90172 -2.13626 0
M  V30 1412 C 137.269 3.53643 -3.84362 0
M  V30 1413 H 138.963 1.81383 -2.38203 0
M  V30 1414 H 136.509 0.871237 -1.14654 0
M  V30 1415 H 138.462 4.00404 -1.31357 0
M  V30 1416 H 137.186 3.24968 -0.326049 0
M  V30 1417 H 135.845 2.76818 -2.40349 0
M  V30 1418 H 135.493 4.89869 -1.14182 0
M  V30 1419 H 135.193 5.11962 -2.88389 0
M  V30 1420 H 136.717 5.71028 -2.1624 0
M  V30 1421 H 138.131 4.22203 -3.87837 0
M  V30 1422 H 136.528 3.86961 -4.58673 0
M  V30 1423 H 137.598 2.52954 -4.13693 0
M  V30 1424 N 138.941 1.26152 0.944643 0
M  V30 1425 C 139.851 1.09176 2.07648 0
M  V30 1426 C 140.867 0.0261935 1.7398 0
M  V30 1427 O 142.043 0.229208 2.00091 0
M  V30 1428 C 139.108 0.722915 3.39079 0
M  V30 1429 C 138.169 1.86752 3.86552 0
M  V30 1430 C 137.402 1.51617 5.11711 0
M  V30 1431 O 137.625 0.416331 5.68879 0
M  V30 1432 O 136.559 2.34975 5.54139 0
M  V30 1433 H 140.385 2.0412 2.24875 0
M  V30 1434 H 137.97 1.05182 1.061 0
M  V30 1435 H 139.852 0.529787 4.18056 0
M  V30 1436 H 138.527 -0.197159 3.23099 0
M  V30 1437 H 137.434 2.11558 3.08535 0
M  V30 1438 H 138.767 2.76719 4.07047 0
M  V30 1439 N 140.419 -1.14872 1.07899 0
M  V30 1440 C 141.366 -2.19791 0.704319 0
M  V30 1441 C 142.336 -1.63238 -0.306987 0
M  V30 1442 O 143.521 -1.8983 -0.192171 0
M  V30 1443 C 140.661 -3.44911 0.114244 0
M  V30 1444 C 139.774 -4.15637 1.1777 0
M  V30 1445 C 138.909 -5.28324 0.552037 0
M  V30 1446 C 137.948 -5.90875 1.59789 0
M  V30 1447 N 137.085 -6.95022 0.994404 0
M  V30 1448 H 141.925 -2.5119 1.60336 0
M  V30 1449 H 139.462 -1.23356 0.801352 0
M  V30 1450 H 141.42 -4.16477 -0.245544 0
M  V30 1451 H 140.05 -3.14011 -0.74813 0
M  V30 1452 H 139.102 -3.42512 1.65499 0
M  V30 1453 H 140.414 -4.5823 1.97046 0
M  V30 1454 H 139.568 -6.06538 0.1402 0
M  V30 1455 H 138.307 -4.86939 -0.272431 0
M  V30 1456 H 137.312 -5.11369 2.01945 0
M  V30 1457 H 138.537 -6.34337 2.42474 0
M  V30 1458 H 136.483 -6.55722 0.190939 0
M  V30 1459 H 136.4 -7.36073 1.72432 0
M  V30 1460 H 137.668 -7.77123 0.608253 0
M  V30 1461 N 141.898 -0.863906 -1.31812 0
M  V30 1462 C 142.808 -0.318461 -2.32428 0
M  V30 1463 C 143.824 0.568496 -1.64451 0
M  V30 1464 O 145 0.46666 -1.95919 0
M  V30 1465 C 142.065 0.476355 -3.43412 0
M  V30 1466 C 141.126 -0.43784 -4.27061 0
M  V30 1467 C 140.359 0.319138 -5.32745 0
M  V30 1468 O 140.582 1.54799 -5.48993 0
M  V30 1469 O 139.516 -0.319861 -6.01049 0
M  V30 1470 H 143.342 -1.15229 -2.80991 0
M  V30 1471 H 140.927 -0.627103 -1.35602 0
M  V30 1472 H 142.809 0.927156 -4.11074 0
M  V30 1473 H 141.484 1.28683 -2.97022 0
M  V30 1474 H 140.391 -0.937013 -3.62175 0
M  V30 1475 H 141.724 -1.21375 -4.77 0
M  V30 1476 N 143.376 1.44774 -0.622745 0
M  V30 1477 C 144.309 2.27792 0.136329 0
M  V30 1478 C 145.287 1.38041 0.859264 0
M  V30 1479 O 146.471 1.67478 0.86506 0
M  V30 1480 C 143.598 3.16776 1.19878 0
M  V30 1481 C 142.644 4.22575 0.57731 0
M  V30 1482 S 143.477 5.31825 -0.626294 0
M  V30 1483 C 144.633 6.24377 0.436378 0
M  V30 1484 H 144.866 2.91824 -0.567967 0
M  V30 1485 H 142.399 1.48838 -0.410677 0
M  V30 1486 H 144.357 3.68596 1.80686 0
M  V30 1487 H 143.018 2.5198 1.87523 0
M  V30 1488 H 142.211 4.84818 1.37721 0
M  V30 1489 H 141.813 3.73974 0.0440439 0
M  V30 1490 H 144.105 6.64689 1.31128 0
M  V30 1491 H 145.048 7.07941 -0.150271 0
M  V30 1492 H 145.456 5.59381 0.758513 0
M  V30 1493 N 144.854 0.36279 1.53368 0
M  V30 1494 C 146.103 -0.22888 2.00397 0
M  V30 1495 C 146.416 -1.50096 1.25421 0
M  V30 1496 O 147.622 -2.17106 1.63025 0
M  V30 1497 C 146.078 -0.458417 3.56969 0
M  V30 1498 C 145.686 0.798877 4.4082 0
M  V30 1499 C 147.43 -1.00789 4.12361 0
M  V30 1500 C 145.337 0.539078 5.88938 0
M  V30 1501 H 144.267 -0.089305 0.748693 0
M  V30 1502 H 146.918 0.481099 1.77081 0
M  V30 1503 H 145.3 -1.22959 3.76427 0
M  V30 1504 H 146.474 1.57262 4.33134 0
M  V30 1505 H 144.789 1.27137 3.96516 0
M  V30 1506 H 147.386 -1.21754 5.20653 0
M  V30 1507 H 147.729 -1.9692 3.66781 0
M  V30 1508 H 148.262 -0.296961 3.9669 0
M  V30 1509 H 145.001 1.47064 6.3879 0
M  V30 1510 H 144.521 -0.196222 5.99479 0
M  V30 1511 H 146.2 0.163542 6.46793 0
M  V30 1512 N 146.332 -1.57332 0.0918853 0
M  V30 1513 C 147.578 -1.94524 -0.573425 0
M  V30 1514 C 147.911 -0.973578 -1.68033 0
M  V30 1515 O 147.186 -0.00609226 -1.94499 0
M  V30 1516 C 147.469 -3.41858 -1.13161 0
M  V30 1517 C 147.322 -4.4979 -0.0299747 0
M  V30 1518 C 148.641 -3.90435 -2.03098 0
M  V30 1519 H 145.76 -0.70734 -0.206975 0
M  V30 1520 H 148.402 -1.89309 0.161942 0
M  V30 1521 H 146.552 -3.46433 -1.7583 0
M  V30 1522 H 148.224 -4.57327 0.604112 0
M  V30 1523 H 146.467 -4.291 0.636833 0
M  V30 1524 H 147.138 -5.50069 -0.461287 0
M  V30 1525 H 149.614 -3.87992 -1.50338 0
M  V30 1526 H 148.49 -4.94097 -2.39081 0
M  V30 1527 H 148.751 -3.29541 -2.94712 0
M  V30 1528 N 147.81 0.181792 -1.56548 0
M  V30 1529 C 149.04 0.914618 -1.85252 0
M  V30 1530 C 149.448 1.76791 -0.673914 0
M  V30 1531 O 148.791 1.80009 0.366416 0
M  V30 1532 C 148.853 1.85019 -3.08234 0
M  V30 1533 C 148.517 1.17754 -4.41569 0
M  V30 1534 C 149.514 0.548035 -5.17003 0
M  V30 1535 C 147.199 1.17742 -4.88305 0
M  V30 1536 C 149.193 -0.0726128 -6.37359 0
M  V30 1537 C 146.88 0.552946 -6.08593 0
M  V30 1538 C 147.878 -0.070978 -6.82963 0
M  V30 1539 O 147.566 -0.685635 -8.00971 0
M  V30 1540 H 147.298 0.271695 -0.618998 0
M  V30 1541 H 149.852 0.189944 -2.0452 0
M  V30 1542 H 148.082 2.61491 -2.84885 0
M  V30 1543 H 149.771 2.45195 -3.23472 0
M  V30 1544 H 150.537 0.540174 -4.81982 0
M  V30 1545 H 146.416 1.65246 -4.30366 0
M  V30 1546 H 149.96 -0.560213 -6.95347 0
M  V30 1547 H 145.857 0.558354 -6.43081 0
M  V30 1548 H 146.625 -0.58385 -8.16415 0
M  V30 1549 N 149.288 1.51039 0.449983 0
M  V30 1550 C 150.235 1.71439 1.54523 0
M  V30 1551 C 151.205 0.555871 1.56522 0
M  V30 1552 O 152.39 0.788871 1.73728 0
M  V30 1553 C 149.53 1.83384 2.92343 0
M  V30 1554 C 148.643 3.10873 2.9997 0
M  V30 1555 C 147.778 3.13488 4.28834 0
M  V30 1556 C 146.817 4.35343 4.30282 0
M  V30 1557 N 145.954 4.35579 5.5065 0
M  V30 1558 H 150.794 2.64934 1.36433 0
M  V30 1559 H 148.331 1.31312 0.662982 0
M  V30 1560 H 150.289 1.88291 3.72293 0
M  V30 1561 H 148.919 0.933086 3.0902 0
M  V30 1562 H 147.971 3.15336 2.12761 0
M  V30 1563 H 149.283 4.00814 2.96901 0
M  V30 1564 H 148.437 3.17241 5.17149 0
M  V30 1565 H 147.176 2.21414 4.34543 0
M  V30 1566 H 146.181 4.3178 3.40362 0
M  V30 1567 H 147.406 5.28668 4.26248 0
M  V30 1568 H 145.352 3.46369 5.57104 0
M  V30 1569 H 145.269 5.19313 5.49409 0
M  V30 1570 H 146.537 4.43507 6.41032 0
M  V30 1571 N 150.766 -0.704594 1.40972 0
M  V30 1572 C 151.729 -1.80035 1.41845 0
M  V30 1573 C 152.729 -1.57774 0.310474 0
M  V30 1574 O 153.919 -1.64613 0.56992 0
M  V30 1575 C 151.051 -3.18284 1.22098 0
M  V30 1576 H 152.244 -1.80658 2.3938 0
M  V30 1577 H 149.797 -0.911329 1.26982 0
M  V30 1578 H 150.532 -3.23306 0.253672 0
M  V30 1579 H 150.317 -3.35843 2.02366 0
M  V30 1580 H 151.807 -3.98289 1.25522 0
M  V30 1581 N 152.244 -1.26651 -0.937939 0
M  V30 1582 C 153.655 -1.1125 -1.49934 0
M  V30 1583 C 154.006 0.306077 -1.93798 0
M  V30 1584 O 153.131 1.19792 -1.80219 0
M  V30 1585 C 153.726 -2.01339 -2.72485 0
M  V30 1586 C 152.285 -1.90074 -3.24883 0
M  V30 1587 C 151.432 -1.94498 -1.97651 0
M  V30 1588 H 154.383 -1.39693 -0.753091 0
M  V30 1589 H 154.404 -1.56319 -3.46907 0
M  V30 1590 H 153.916 -3.04577 -2.40529 0
M  V30 1591 H 152.017 -0.897827 -3.61621 0
M  V30 1592 H 152.13 -2.75778 -3.9177 0
M  V30 1593 H 150.494 -1.38591 -2.13693 0
M  V30 1594 H 151.277 -2.99372 -1.68022 0
M  V30 1595 N 153.722 1.14298 -1.08507 0
M  V30 1596 C 154.654 2.1907 -0.673859 0
M  V30 1597 C 155.667 1.60381 0.279577 0
M  V30 1598 O 156.856 1.78374 0.0670754 0
M  V30 1599 C 153.956 3.38888 0.0290979 0
M  V30 1600 C 153.129 4.27103 -0.943494 0
M  V30 1601 C 152.188 5.25477 -0.275676 0
M  V30 1602 O 151.214 5.61709 -0.920401 0
M  V30 1603 N 152.416 5.7227 0.974013 0
M  V30 1604 H 155.181 2.54965 -1.57521 0
M  V30 1605 H 152.742 1.29528 -0.971287 0
M  V30 1606 H 154.734 4.01761 0.48683 0
M  V30 1607 H 153.304 3.01309 0.832555 0
M  V30 1608 H 152.524 3.61149 -1.58004 0
M  V30 1609 H 153.812 4.82905 -1.60251 0
M  V30 1610 H 153.21 5.44965 1.51755 0
M  V30 1611 H 151.767 6.37127 1.37522 0
M  V30 1612 N 155.201 0.870884 1.31352 0
M  V30 1613 C 156.111 0.330783 2.32256 0
M  V30 1614 C 157.127 -0.559767 1.6475 0
M  V30 1615 O 158.303 -0.456263 1.96164 0
M  V30 1616 C 155.368 -0.458137 3.4366 0
M  V30 1617 C 154.429 0.460482 4.26823 0
M  V30 1618 C 153.662 -0.290881 5.32907 0
M  V30 1619 O 153.885 -1.51885 5.49806 0
M  V30 1620 O 152.819 0.351732 6.00871 0
M  V30 1621 H 156.645 1.16718 2.80376 0
M  V30 1622 H 154.23 0.634285 1.35267 0
M  V30 1623 H 156.112 -0.905343 4.1156 0
M  V30 1624 H 154.787 -1.27106 2.97701 0
M  V30 1625 H 153.694 0.956207 3.61673 0
M  V30 1626 H 155.027 1.23903 4.7635 0
M  V30 1627 N 156.679 -1.44442 0.630414 0
M  V30 1628 C 157.626 -2.30678 -0.0749355 0
M  V30 1629 C 158.596 -1.4344 -0.837502 0
M  V30 1630 O 159.781 -1.72343 -0.818684 0
M  V30 1631 C 156.921 -3.28706 -1.05103 0
M  V30 1632 C 156.034 -4.31046 -0.286954 0
M  V30 1633 C 155.169 -5.16167 -1.2548 0
M  V30 1634 C 154.208 -6.10216 -0.479843 0
M  V30 1635 N 153.345 -6.88039 -1.39811 0
M  V30 1636 H 158.185 -2.90454 0.666386 0
M  V30 1637 H 155.722 -1.43107 0.340404 0
M  V30 1638 H 157.68 -3.84027 -1.63031 0
M  V30 1639 H 156.31 -2.70632 -1.75949 0
M  V30 1640 H 155.362 -3.78203 0.408243 0
M  V30 1641 H 156.674 -4.97794 0.316657 0
M  V30 1642 H 155.828 -5.76002 -1.90544 0
M  V30 1643 H 154.567 -4.49491 -1.89233 0
M  V30 1644 H 153.572 -5.49491 0.184295 0
M  V30 1645 H 154.797 -6.78928 0.152965 0
M  V30 1646 H 152.743 -6.24032 -2.02287 0
M  V30 1647 H 152.66 -7.51223 -0.848508 0
M  V30 1648 H 153.928 -7.52397 -2.03762 0
M  V30 1649 N 158.157 -0.370918 -1.53173 0
M  V30 1650 C 159.107 0.489588 -2.22681 0
M  V30 1651 C 160.091 1.04442 -1.22395 0
M  V30 1652 O 161.283 0.973578 -1.47819 0
M  V30 1653 C 158.412 1.626 -3.02351 0
M  V30 1654 C 157.498 1.08379 -4.10018 0
M  V30 1655 N 157.889 0.265004 -5.05105 0
M  V30 1656 C 156.187 1.35809 -4.2482 0
M  V30 1657 C 156.888 -0.0324755 -5.81691 0
M  V30 1658 N 155.864 0.566581 -5.40639 0
M  V30 1659 H 159.666 -0.142729 -2.93553 0
M  V30 1660 H 157.18 -0.179221 -1.61408 0
M  V30 1661 H 159.177 2.2547 -3.50669 0
M  V30 1662 H 157.837 2.26132 -2.33011 0
M  V30 1663 H 158.848 -0.0962352 -5.17811 0
M  V30 1664 H 155.525 1.9958 -3.66707 0
M  V30 1665 H 156.915 -0.69473 -6.68299 0
M  V30 1666 N 159.635 1.57281 -0.100228 0
M  V30 1667 C 160.881 1.94826 0.563101 0
M  V30 1668 C 161.214 0.982475 1.67514 0
M  V30 1669 O 160.489 0.0164069 1.94493 0
M  V30 1670 C 160.772 3.42453 1.11346 0
M  V30 1671 C 160.625 4.498 0.00612081 0
M  V30 1672 C 161.944 3.91506 2.01024 0
M  V30 1673 H 159.063 0.708428 0.203221 0
M  V30 1674 H 161.705 1.8922 -0.171979 0
M  V30 1675 H 159.855 3.47361 1.7399 0
M  V30 1676 H 161.527 4.57 -0.628357 0
M  V30 1677 H 159.77 4.28756 -0.659581 0
M  V30 1678 H 160.441 5.50306 0.432109 0
M  V30 1679 H 162.917 3.88784 1.48278 0
M  V30 1680 H 161.793 4.95358 2.36457 0
M  V30 1681 H 162.054 3.31099 2.92961 0
M  V30 1682 N 161.113 -0.173488 1.56642 0
M  V30 1683 C 162.362 -0.888758 1.81063 0
M  V30 1684 C 162.675 -1.83506 0.67712 0
M  V30 1685 O 163.881 -2.59254 0.806206 0
M  V30 1686 C 162.337 -1.63091 3.20826 0
M  V30 1687 C 161.945 -0.728357 4.4204 0
M  V30 1688 C 163.689 -2.33454 3.54541 0
M  V30 1689 C 161.596 -1.47062 5.72823 0
M  V30 1690 H 160.526 -0.335618 0.675186 0
M  V30 1691 H 163.177 -0.141712 1.82952 0
M  V30 1692 H 161.559 -2.42263 3.13248 0
M  V30 1693 H 162.733 0.0262449 4.60793 0
M  V30 1694 H 161.048 -0.134492 4.16183 0
M  V30 1695 H 163.645 -2.89578 4.49498 0
M  V30 1696 H 163.988 -3.08687 2.79317 0
M  V30 1697 H 164.521 -1.61227 3.63663 0
M  V30 1698 H 161.26 -0.760658 6.51072 0
M  V30 1699 H 160.78 -2.1986 5.58052 0
M  V30 1700 H 162.459 -2.01868 6.14702 0
M  V30 1701 N 162.591 -1.51276 -0.441967 0
M  V30 1702 C 163.819 -1.67516 -1.21434 0
M  V30 1703 C 164.234 -0.37055 -1.85128 0
M  V30 1704 O 163.591 0.650498 -1.70513 0
M  V30 1705 C 163.642 -2.78748 -2.30177 0
M  V30 1706 O 163.363 -4.04154 -1.69089 0
M  V30 1707 C 164.864 -3.06217 -3.20541 0
M  V30 1708 H 162.084 -0.562276 -0.366178 0
M  V30 1709 H 164.628 -1.97666 -0.524244 0
M  V30 1710 H 162.783 -2.5121 -2.94911 0
M  V30 1711 H 163.197 -4.65894 -2.40922 0
M  V30 1712 H 164.671 -3.8764 -3.92987 0
M  V30 1713 H 165.148 -2.18439 -3.81026 0
M  V30 1714 H 165.754 -3.35397 -2.61513 0
M  V30 1715 N 164.069 0.697108 -1.41344 0
M  V30 1716 C 165.315 1.4593 -1.40827 0
M  V30 1717 C 165.648 1.94193 -0.0167098 0
M  V30 1718 O 164.923 1.69425 0.955263 0
M  V30 1719 C 165.206 2.67229 -2.41373 0
M  V30 1720 C 165.059 2.24741 -3.8963 0
M  V30 1721 C 166.378 3.69423 -2.39196 0
M  V30 1722 H 163.497 0.529303 -0.512842 0
M  V30 1723 H 166.139 0.794112 -1.72609 0
M  V30 1724 H 164.289 3.23982 -2.14401 0
M  V30 1725 H 165.961 1.73327 -4.27499 0
M  V30 1726 H 164.204 1.56542 -4.0457 0
M  V30 1727 H 164.875 3.1177 -4.55525 0
M  V30 1728 H 167.351 3.2234 -2.63128 0
M  V30 1729 H 166.227 4.51907 -3.11563 0
M  V30 1730 H 166.488 4.19012 -1.41001 0
M  V30 1731 N 165.547 1.27147 0.931209 0
M  V30 1732 C 166.794 1.13278 1.67852 0
M  V30 1733 C 167.122 -0.32204 1.91815 0
M  V30 1734 O 166.377 -1.25224 1.50391 0
M  V30 1735 C 166.676 1.8579 3.05314 0
M  V30 1736 C 166.342 3.35657 3.01073 0
M  V30 1737 C 165.004 3.76536 2.99623 0
M  V30 1738 C 167.356 4.31299 2.92627 0
M  V30 1739 C 164.684 5.11426 2.87506 0
M  V30 1740 C 167.036 5.66242 2.82051 0
M  V30 1741 C 165.7 6.06418 2.7895 0
M  V30 1742 H 164.97 0.414515 0.614214 0
M  V30 1743 H 167.617 1.57712 1.08624 0
M  V30 1744 H 165.922 1.33854 3.68226 0
M  V30 1745 H 167.619 1.72491 3.62005 0
M  V30 1746 H 164.209 3.03146 3.02986 0
M  V30 1747 H 168.393 4.00692 2.92848 0
M  V30 1748 H 163.649 5.41705 2.83489 0
M  V30 1749 H 167.823 6.40026 2.74481 0
M  V30 1750 H 165.45 7.10895 2.69318 0
M  V30 1751 N 167.025 -1.13721 1.09112 0
M  V30 1752 C 168.253 -1.88773 0.846899 0
M  V30 1753 C 168.668 -1.7896 -0.601572 0
M  V30 1754 O 168.025 -1.15394 -1.41388 0
M  V30 1755 C 168.076 -3.3849 1.26913 0
M  V30 1756 O 167.797 -3.48043 2.66079 0
M  V30 1757 C 169.298 -4.30518 1.05682 0
M  V30 1758 H 166.518 -0.59772 0.304914 0
M  V30 1759 H 169.062 -1.43977 1.45227 0
M  V30 1760 H 167.217 -3.80881 0.707723 0
M  V30 1761 H 167.631 -4.4109 2.83795 0
M  V30 1762 H 169.105 -5.3391 1.40156 0
M  V30 1763 H 169.582 -4.392 -0.00563416 0
M  V30 1764 H 170.188 -3.93893 1.60402 0
M  V30 1765 N 168.503 -0.877838 -1.30888 0
M  V30 1766 C 169.78 -0.413052 -1.91189 0
M  V30 1767 C 170.16 1.1056 -1.79832 0
M  V30 1768 O 169.508 1.93771 -1.21099 0
M  V30 1769 C 169.718 -0.903191 -3.3711 0
M  V30 1770 C 171.066 -0.93395 -4.14201 0
M  V30 1771 O 172.09 -0.849373 -3.45925 0
M  V30 1772 O 170.949 -1.05772 -5.36167 0
M  V30 1773 H 168.043 -0.125035 -0.817493 0
M  V30 1774 H 170.589 -0.966269 -1.39504 0
M  V30 1775 H 169.361 -1.94692 -3.39427 0
M  V30 1776 H 168.984 -0.328732 -3.96239 0
M  V30 1777 N 169.982 1.44106 -0.638065 0
M  V30 1778 C 171.231 2.01194 -0.142744 0
M  V30 1779 C 171.544 1.50835 1.24532 0
M  V30 1780 O 172.75 2.00096 1.83504 0
M  V30 1781 C 171.206 3.59319 -0.20442 0
M  V30 1782 C 170.814 4.18674 -1.59423 0
M  V30 1783 C 172.558 4.23854 0.234079 0
M  V30 1784 C 170.465 5.69045 -1.61065 0
M  V30 1785 H 169.395 0.752367 -0.0495998 0
M  V30 1786 H 172.046 1.65246 -0.797881 0
M  V30 1787 H 170.428 3.92598 0.517946 0
M  V30 1788 H 171.602 3.96921 -2.34074 0
M  V30 1789 H 169.917 3.66453 -1.97741 0
M  V30 1790 H 172.514 5.34155 0.241443 0
M  V30 1791 H 172.857 3.96688 1.2627 0
M  V30 1792 H 173.39 3.95403 -0.436025 0
M  V30 1793 H 170.129 6.00956 -2.61787 0
M  V30 1794 H 169.649 5.929 -0.90718 0
M  V30 1795 H 171.328 6.32809 -1.34766 0
M  V30 1796 N 171.46 0.379036 1.52974 0
M  V30 1797 C 172.688 -0.20679 2.05864 0
M  V30 1798 C 173.103 -1.41356 1.25155 0
M  V30 1799 O 172.46 -1.8009 0.295588 0
M  V30 1800 C 172.511 -0.587045 3.56702 0
M  V30 1801 O 172.232 0.571776 4.34353 0
M  V30 1802 C 173.733 -1.22983 4.25899 0
M  V30 1803 H 170.953 -0.0336123 0.670158 0
M  V30 1804 H 173.497 0.541298 1.97206 0
M  V30 1805 H 171.652 -1.28504 3.65466 0
M  V30 1806 H 172.066 0.261544 5.23847 0
M  V30 1807 H 173.54 -1.44635 5.32715 0
M  V30 1808 H 174.017 -2.19416 3.80465 0
M  V30 1809 H 174.623 -0.572892 4.21424 0
M  V30 1810 N 172.938 -1.57226 0.108567 0
M  V30 1811 C 174.178 -1.96717 -0.555155 0
M  V30 1812 C 174.542 -0.990003 -1.64508 0
M  V30 1813 O 175.743 -1.2739 -2.36696 0
M  V30 1814 C 174.014 -3.40575 -1.08367 0
M  V30 1815 S 175.573 -4.02072 -1.75737 0
M  V30 1816 H 172.391 -0.687638 -0.180762 0
M  V30 1817 H 174.993 -1.94563 0.191172 0
M  V30 1818 H 173.697 -4.0945 -0.279092 0
M  V30 1819 H 173.228 -3.46356 -1.86551 0
M  V30 1820 H 175.243 -3.91977 -3.04251 0
M  V30 1821 N 174.416 0.165178 -1.56732 0
M  V30 1822 C 175.664 0.879068 -1.8198 0
M  V30 1823 C 175.985 1.82514 -0.686561 0
M  V30 1824 O 175.255 1.93694 0.293146 0
M  V30 1825 H 173.835 0.327608 -0.671329 0
M  V30 1826 H 176.497 0.163526 -1.94213 0
M  V30 1827 H 175.593 1.45228 -2.76252 0
M  V30 1828 N 175.894 1.51508 0.433938 0
M  V30 1829 C 177.124 1.67914 1.20369 0
M  V30 1830 C 177.532 0.377461 1.85397 0
M  V30 1831 O 176.875 -0.654255 1.71654 0
M  V30 1832 C 176.937 2.74045 2.32679 0
M  V30 1833 C 176.601 4.16543 1.87991 0
M  V30 1834 C 177.598 5.01211 1.38145 0
M  V30 1835 C 175.283 4.6266 1.95579 0
M  V30 1836 C 177.277 6.30056 0.964774 0
M  V30 1837 C 174.964 5.91501 1.53523 0
M  V30 1838 C 175.962 6.75027 1.04055 0
M  V30 1839 O 175.65 8.01459 0.625964 0
M  V30 1840 H 175.382 0.566578 0.368735 0
M  V30 1841 H 177.936 1.98709 0.51999 0
M  V30 1842 H 176.166 2.38572 3.04336 0
M  V30 1843 H 177.855 2.79295 2.94532 0
M  V30 1844 H 178.621 4.66783 1.31675 0
M  V30 1845 H 174.5 3.97767 2.33029 0
M  V30 1846 H 178.044 6.95202 0.57796 0
M  V30 1847 H 173.941 6.25442 1.59665 0
M  V30 1848 H 174.709 8.15043 0.751509 0
M  V30 1849 N 177.372 -0.689602 1.41712 0
M  V30 1850 C 178.612 -1.46184 1.42862 0
M  V30 1851 C 178.976 -1.91962 0.0382204 0
M  V30 1852 O 180.177 -2.68694 -0.0755019 0
M  V30 1853 C 178.448 -2.6371 2.4123 0
M  V30 1854 S 180.007 -3.52768 2.6096 0
M  V30 1855 H 176.825 -0.49947 0.506015 0
M  V30 1856 H 179.427 -0.804107 1.78198 0
M  V30 1857 H 178.131 -2.28293 3.41044 0
M  V30 1858 H 177.662 -3.3437 2.07269 0
M  V30 1859 H 179.677 -4.59146 1.88148 0
M  V30 1860 N 178.85 -1.27639 -0.924453 0
M  V30 1861 C 179.8 -1.07295 -2.01176 0
M  V30 1862 C 180.784 5.77352e-05 -1.609 0
M  V30 1863 O 181.976 -0.218855 -1.75642 0
M  V30 1864 C 179.105 -0.725592 -3.35544 0
M  V30 1865 C 178.191 -1.83691 -3.82254 0
M  V30 1866 N 178.582 -3.07697 -4.01443 0
M  V30 1867 C 176.88 -1.72433 -4.11319 0
M  V30 1868 C 177.581 -3.80037 -4.40394 0
M  V30 1869 N 176.557 -3.0782 -4.48049 0
M  V30 1870 H 180.359 -2.01399 -2.14046 0
M  V30 1871 H 177.873 -1.18401 -1.11153 0
M  V30 1872 H 179.87 -0.560959 -4.13109 0
M  V30 1873 H 178.53 0.207782 -3.24034 0
M  V30 1874 H 179.541 -3.43424 -3.8766 0
M  V30 1875 H 176.218 -0.862005 -4.08504 0
M  V30 1876 H 177.608 -4.86632 -4.63291 0
M  V30 1877 N 180.328 1.1314 -1.09713 0
M  V30 1878 C 181.275 2.18642 -0.739196 0
M  V30 1879 C 182.245 1.63706 0.280978 0
M  V30 1880 O 183.43 1.90111 0.161946 0
M  V30 1881 C 180.57 3.44685 -0.169102 0
M  V30 1882 C 179.683 4.13711 -1.24367 0
M  V30 1883 C 178.818 5.27379 -0.636019 0
M  V30 1884 C 177.857 5.88259 -1.69169 0
M  V30 1885 N 176.994 6.93352 -1.10485 0
M  V30 1886 H 181.834 2.48607 -1.64312 0
M  V30 1887 H 179.371 1.22066 -0.820875 0
M  V30 1888 H 181.329 4.16815 0.179256 0
M  V30 1889 H 179.959 3.15161 0.698079 0
M  V30 1890 H 179.011 3.39835 -1.70927 0
M  V30 1891 H 180.323 4.55037 -2.04311 0
M  V30 1892 H 179.477 6.06238 -0.236677 0
M  V30 1893 H 178.216 4.8731 0.194928 0
M  V30 1894 H 177.221 5.08092 -2.10055 0
M  V30 1895 H 178.446 6.30399 -2.52536 0
M  V30 1896 H 176.392 6.55335 -0.295234 0
M  V30 1897 H 176.309 7.33236 -1.84121 0
M  V30 1898 H 177.577 7.76057 -0.73181 0
M  V30 1899 N 181.806 0.884767 1.30421 0
M  V30 1900 C 182.736 0.367574 2.30589 0
M  V30 1901 C 183.717 -0.549464 1.60981 0
M  V30 1902 O 184.902 -0.46336 1.88591 0
M  V30 1903 C 182.032 -0.418944 3.44764 0
M  V30 1904 C 180.986 0.406316 4.26067 0
M  V30 1905 C 180.312 -0.506793 5.32293 0
M  V30 1906 C 181.612 1.64832 4.95608 0
M  V30 1907 H 183.306 1.20462 2.74097 0
M  V30 1908 H 180.852 0.580695 1.31772 0
M  V30 1909 H 182.805 -0.791395 4.13902 0
M  V30 1910 H 181.529 -1.28964 3.0006 0
M  V30 1911 H 180.188 0.760903 3.58617 0
M  V30 1912 H 179.836 -1.37519 4.83836 0
M  V30 1913 H 179.536 0.0415828 5.87585 0
M  V30 1914 H 181.06 -0.875764 6.04287 0
M  V30 1915 H 182.474 1.34646 5.57264 0
M  V30 1916 H 180.871 2.13688 5.60765 0
M  V30 1917 H 181.941 2.39284 4.21748 0
M  V30 1918 N 183.284 -1.43765 0.645699 0
M  V30 1919 C 184.234 -2.27884 -0.0726442 0
M  V30 1920 C 185.218 -1.39483 -0.802086 0
M  V30 1921 O 186.41 -1.63174 -0.685791 0
M  V30 1922 C 183.539 -3.27055 -1.04356 0
M  V30 1923 C 182.625 -4.22944 -0.312985 0
M  V30 1924 N 183.016 -5.01391 0.666386 0
M  V30 1925 C 181.314 -4.42528 -0.55546 0
M  V30 1926 C 182.015 -5.71217 1.09935 0
M  V30 1927 N 180.991 -5.41856 0.435137 0
M  V30 1928 H 184.793 -2.85949 0.678988 0
M  V30 1929 H 182.307 -1.55378 0.472368 0
M  V30 1930 H 184.304 -3.86089 -1.57292 0
M  V30 1931 H 182.964 -2.70551 -1.79534 0
M  V30 1932 H 183.975 -5.07252 1.04481 0
M  V30 1933 H 180.652 -3.97104 -1.28899 0
M  V30 1934 H 182.042 -6.44202 1.90929 0
M  V30 1935 N 184.763 -0.387143 -1.52771 0
M  V30 1936 C 185.673 0.456442 -2.30117 0
M  V30 1937 C 186.689 1.07342 -1.36944 0
M  V30 1938 O 187.865 1.07971 -1.70013 0
M  V30 1939 C 184.93 1.56957 -3.09136 0
M  V30 1940 C 183.991 0.977916 -4.18014 0
M  V30 1941 C 183.224 2.038 -4.93256 0
M  V30 1942 O 183.447 3.25271 -4.68567 0
M  V30 1943 O 182.381 1.6565 -5.78657 0
M  V30 1944 H 186.207 -0.17359 -3.03203 0
M  V30 1945 H 183.792 -0.150919 -1.48636 0
M  V30 1946 H 185.674 2.21628 -3.58412 0
M  V30 1947 H 184.349 2.18461 -2.38865 0
M  V30 1948 H 183.256 0.294525 -3.72939 0
M  V30 1949 H 184.589 0.407128 -4.90513 0
M  V30 1950 N 186.241 1.57166 -0.116904 0
M  V30 1951 C 187.173 2.12271 0.864507 0
M  V30 1952 C 188.186 1.06494 1.23138 0
M  V30 1953 O 189.375 1.33873 1.18069 0
M  V30 1954 C 186.475 2.60564 2.16702 0
M  V30 1955 C 185.648 3.90416 1.97216 0
M  V30 1956 C 184.707 4.24329 3.11178 0
M  V30 1957 O 183.733 4.93182 2.84184 0
M  V30 1958 N 184.935 3.8148 4.37554 0
M  V30 1959 H 187.7 2.97102 0.393726 0
M  V30 1960 H 185.261 1.61759 0.0675805 0
M  V30 1961 H 187.253 2.80282 2.91932 0
M  V30 1962 H 185.823 1.80623 2.55135 0
M  V30 1963 H 185.043 3.79627 1.06192 0
M  V30 1964 H 186.331 4.75327 1.81499 0
M  V30 1965 H 185.729 3.25943 4.62361 0
M  V30 1966 H 184.286 4.06311 5.09661 0
M  V30 1967 N 187.719 -0.156864 1.56817 0
M  V30 1968 C 188.652 -1.22316 1.9265 0
M  V30 1969 C 189.63 -1.42059 0.791076 0
M  V30 1970 O 190.814 -1.56831 1.04576 0
M  V30 1971 C 187.941 -2.58375 2.18998 0
M  V30 1972 C 186.987 -2.55284 3.41661 0
M  V30 1973 S 187.82 -2.02946 4.95553 0
M  V30 1974 C 188.976 -3.40753 5.25013 0
M  V30 1975 H 189.209 -0.917403 2.82791 0
M  V30 1976 H 186.742 -0.362059 1.50095 0
M  V30 1977 H 188.7 -3.36677 2.34859 0
M  V30 1978 H 187.361 -2.86145 1.29538 0
M  V30 1979 H 186.554 -3.55418 3.57343 0
M  V30 1980 H 186.156 -1.85086 3.24991 0
M  V30 1981 H 188.448 -4.36819 5.17876 0
M  V30 1982 H 189.391 -3.29933 6.26538 0
M  V30 1983 H 189.799 -3.37433 4.52548 0
M  V30 1984 N 189.197 -1.51736 -0.425897 0
M  V30 1985 C 190.16 -1.73271 -1.50032 0
M  V30 1986 C 191.16 -0.602639 -1.4908 0
M  V30 1987 O 192.35 -0.87033 -1.509 0
M  V30 1988 C 189.482 -1.79969 -2.89523 0
M  V30 1989 H 190.675 -2.69172 -1.32237 0
M  V30 1990 H 188.228 -1.41899 -0.65532 0
M  V30 1991 H 188.963 -0.859241 -3.1271 0
M  V30 1992 H 188.748 -2.62109 -2.91619 0
M  V30 1993 H 190.238 -1.9843 -3.67444 0
M  V30 1994 N 190.675 0.682077 -1.42076 0
M  V30 1995 C 191.952 1.43755 -1.32642 0
M  V30 1996 C 192.332 2.11063 0.0396611 0
M  V30 1997 O 191.68 2.02701 1.05474 0
M  V30 1998 C 191.89 2.44596 -2.48946 0
M  V30 1999 C 193.238 3.09454 -2.9073 0
M  V30 2000 O 194.262 2.54922 -2.48783 0
M  V30 2001 O 193.121 4.08253 -3.63307 0
M  V30 2002 H 190.215 0.640857 -0.522715 0
M  V30 2003 H 192.761 0.711415 -1.54068 0
M  V30 2004 H 191.533 1.93609 -3.40046 0
M  V30 2005 H 191.156 3.24701 -2.29467 0
M  V30 2006 N 192.153 1.28127 0.917671 0
M  V30 2007 C 193.383 1.17722 1.6978 0
M  V30 2008 C 193.791 -0.267261 1.87303 0
M  V30 2009 O 193.134 -1.19286 1.39702 0
M  V30 2010 C 193.196 1.79958 3.11216 0
M  V30 2011 C 192.86 3.29187 3.16993 0
M  V30 2012 C 193.857 4.25679 2.98485 0
M  V30 2013 C 191.542 3.70075 3.39632 0
M  V30 2014 C 193.536 5.61035 3.02521 0
M  V30 2015 C 191.223 5.05557 3.433 0
M  V30 2016 C 192.221 6.00847 3.24764 0
M  V30 2017 O 191.909 7.33859 3.28187 0
M  V30 2018 H 191.641 0.409788 0.537634 0
M  V30 2019 H 194.195 1.69694 1.15728 0
M  V30 2020 H 192.425 1.22475 3.66793 0
M  V30 2021 H 194.114 1.64125 3.71238 0
M  V30 2022 H 194.88 3.95426 2.80826 0
M  V30 2023 H 190.759 2.96373 3.53106 0
M  V30 2024 H 194.303 6.35388 2.87971 0
M  V30 2025 H 190.2 5.35462 3.60486 0
M  V30 2026 H 190.968 7.42436 3.44575 0
M  V30 2027 N 193.631 -1.12557 1.10312 0
M  V30 2028 C 194.579 -2.20325 0.745629 0
M  V30 2029 C 195.573 -1.67429 -0.25763 0
M  V30 2030 O 196.779 -1.79612 -0.118132 0
M  V30 2031 H 193.154 -0.718118 0.223182 0
M  V30 2032 H 195.125 -2.47733 1.66346 0
M  V30 2033 C 193.874 -3.47168 0.192262 0
M  V30 2034 H 193.197 -3.88215 0.955475 0
M  V30 2035 H 194.637 -4.23995 -0.0198274 0
M  V30 2036 C 193.096 -3.19298 -1.07472 0
M  V30 2037 O 193.626 -3.3891 -2.15645 0
M  V30 2038 N 191.832 -2.73113 -0.992847 0
M  V30 2039 H 191.379 -2.57354 -0.112474 0
M  V30 2040 H 191.337 -2.54842 -1.84127 0
M  V30 2041 N 195.109 -0.891671 -1.2995 0
M  V30 2042 C 196.072 -0.36828 -2.26222 0
M  V30 2043 C 197.072 0.493014 -1.53056 0
M  V30 2044 O 198.262 0.299213 -1.71611 0
M  V30 2045 C 195.394 0.47442 -3.37583 0
M  V30 2046 H 196.587 -1.21844 -2.74033 0
M  V30 2047 H 194.14 -0.669107 -1.41254 0
M  V30 2048 H 194.875 1.34489 -2.95099 0
M  V30 2049 H 194.66 -0.142615 -3.91841 0
M  V30 2050 H 196.15 0.83218 -4.09224 0
M  V30 2051 N 196.587 1.43421 -0.653314 0
M  V30 2052 C 197.517 2.33487 0.0246656 0
M  V30 2053 C 198.498 1.49475 0.811863 0
M  V30 2054 O 199.683 1.78139 0.773322 0
M  V30 2055 C 196.813 3.32841 0.99166 0
M  V30 2056 C 195.767 4.26842 0.314568 0
M  V30 2057 C 195.093 5.16236 1.39302 0
M  V30 2058 C 196.393 5.16243 -0.793095 0
M  V30 2059 H 198.087 2.90427 -0.727481 0
M  V30 2060 H 195.633 1.39649 -0.351287 0
M  V30 2061 H 197.586 3.94747 1.47487 0
M  V30 2062 H 196.31 2.74158 1.77497 0
M  V30 2063 H 194.969 3.663 -0.148199 0
M  V30 2064 H 194.617 4.53891 2.16776 0
M  V30 2065 H 194.317 5.79948 0.945223 0
M  V30 2066 H 195.841 5.81015 1.87759 0
M  V30 2067 H 197.255 5.71958 -0.392039 0
M  V30 2068 H 195.652 5.88676 -1.16536 0
M  V30 2069 H 196.722 4.55927 -1.65103 0
M  V30 2070 N 198.065 0.39524 1.52563 0
M  V30 2071 C 199.313 -0.184678 2.01254 0
M  V30 2072 C 199.634 -1.46822 1.28329 0
M  V30 2073 O 198.904 -1.91666 0.405094 0
M  V30 2074 H 197.484 -0.0712355 0.743596 0
M  V30 2075 H 200.146 0.528293 1.87603 0
M  V30 2076 H 199.242 -0.390681 3.09645 0
M  V30 2077 N 199.544 -1.57102 0.125237 0
M  V30 2078 C 200.793 -1.94582 -0.531095 0
M  V30 2079 C 201.106 -1.01126 -1.6743 0
M  V30 2080 O 202.312 -1.28097 -2.39381 0
M  V30 2081 C 200.768 -3.45839 -0.996164 0
M  V30 2082 C 200.376 -4.47842 0.118926 0
M  V30 2083 C 202.12 -3.92227 -1.62352 0
M  V30 2084 C 200.027 -5.90284 -0.363192 0
M  V30 2085 H 198.957 -0.726391 -0.20217 0
M  V30 2086 H 201.608 -1.82339 0.206092 0
M  V30 2087 H 199.99 -3.53338 -1.78796 0
M  V30 2088 H 201.164 -4.52018 0.895358 0
M  V30 2089 H 199.479 -4.11243 0.653324 0
M  V30 2090 H 202.076 -4.96069 -1.99548 0
M  V30 2091 H 202.419 -3.32552 -2.50429 0
M  V30 2092 H 202.952 -3.87554 -0.897019 0
M  V30 2093 H 199.691 -6.53728 0.481679 0
M  V30 2094 H 199.211 -5.89515 -1.10597 0
M  V30 2095 H 200.89 -6.41752 -0.822377 0
M  V30 2096 N 201.022 0.148545 -1.56898 0
M  V30 2097 C 202.25 0.876389 -1.87422 0
M  V30 2098 C 202.665 1.74809 -0.713256 0
M  V30 2099 O 202.022 1.79725 0.317025 0
M  V30 2100 C 202.073 1.73438 -3.17178 0
M  V30 2101 O 201.794 0.897809 -4.28802 0
M  V30 2102 C 203.295 2.56993 -3.61205 0
M  V30 2103 H 200.515 0.253489 -0.621277 0
M  V30 2104 H 203.059 0.141798 -2.04008 0
M  V30 2105 H 201.214 2.42205 -3.0235 0
M  V30 2106 H 201.628 1.48672 -5.02988 0
M  V30 2107 H 203.102 3.12773 -4.54838 0
M  V30 2108 H 203.579 3.32958 -2.86419 0
M  V30 2109 H 204.185 1.9352 -3.78722 0
M  V30 2110 N 202.5 1.5196 0.417844 0
M  V30 2111 C 203.746 1.65836 1.16732 0
M  V30 2112 C 204.079 0.382881 1.90388 0
M  V30 2113 O 203.354 -0.618368 1.84408 0
M  V30 2114 C 203.637 2.87466 2.16876 0
M  V30 2115 C 203.49 4.25041 1.47174 0
M  V30 2116 C 204.809 3.04613 3.17646 0
M  V30 2117 H 201.928 0.603515 0.423011 0
M  V30 2118 H 204.57 1.84494 0.454105 0
M  V30 2119 H 202.72 2.71689 2.777 0
M  V30 2120 H 204.392 4.52527 0.895376 0
M  V30 2121 H 202.635 4.26843 0.773806 0
M  V30 2122 H 203.306 5.06176 2.20204 0
M  V30 2123 H 205.782 3.1923 2.66892 0
M  V30 2124 H 204.658 3.91247 3.8499 0
M  V30 2125 H 204.919 2.17541 3.84874 0
M  V30 2126 N 203.978 -0.674533 1.42435 0
M  V30 2127 C 205.394 -0.98769 1.25367 0
M  V30 2128 C 205.594 -2.00879 0.158044 0
M  V30 2129 O 204.65 -2.48075 -0.470633 0
M  V30 2130 C 205.963 -1.49224 2.6106 0
M  V30 2131 C 207.511 -1.61 2.68417 0
M  V30 2132 C 207.986 -2.14852 4.04478 0
M  V30 2133 N 209.477 -2.22185 4.06434 0
M  V30 2134 C 210.212 -2.64928 5.08528 0
M  V30 2135 N 209.708 -3.07121 6.21006 0
M  V30 2136 N 211.501 -2.64679 4.95885 0
M  V30 2137 H 203.652 0.00152503 2.124 0
M  V30 2138 H 205.915 -0.0618434 0.945981 0
M  V30 2139 H 205.621 -0.816453 3.42092 0
M  V30 2140 H 205.495 -2.47094 2.84999 0
M  V30 2141 H 207.882 -2.27686 1.87732 0
M  V30 2142 H 207.963 -0.616195 2.48267 0
M  V30 2143 H 207.607 -1.48775 4.85622 0
M  V30 2144 H 207.537 -3.15024 4.2198 0
M  V30 2145 H 210.028 -1.92435 3.25234 0
M  V30 2146 H 210.341 -3.38423 6.94759 0
M  V30 2147 H 208.686 -3.04978 6.24511 0
M  V30 2148 H 211.877 -2.31078 4.07088 0
M  V30 2149 H 212.05 -2.9767 5.75584 0
M  V30 2150 N 205.456 -1.28612 -0.910864 0
M  V30 2151 C 206.686 -1.1862 -1.69153 0
M  V30 2152 C 207.094 0.257324 -1.87442 0
M  V30 2153 O 206.437 1.18543 -1.40332 0
M  V30 2154 C 206.499 -1.81606 -3.10257 0
M  V30 2155 C 206.163 -3.30864 -3.15243 0
M  V30 2156 C 207.16 -4.27256 -2.96223 0
M  V30 2157 C 204.845 -3.71871 -3.37664 0
M  V30 2158 C 206.839 -5.62631 -2.99541 0
M  V30 2159 C 204.526 -5.07371 -3.40614 0
M  V30 2160 C 205.524 -6.02561 -3.21573 0
M  V30 2161 O 205.212 -7.35589 -3.2429 0
M  V30 2162 H 204.944 -0.412633 -0.535453 0
M  V30 2163 H 207.498 -1.70306 -1.14827 0
M  V30 2164 H 205.728 -1.24418 -3.66138 0
M  V30 2165 H 207.417 -1.66092 -3.70362 0
M  V30 2166 H 208.183 -3.9691 -2.78725 0
M  V30 2167 H 204.062 -2.98241 -3.5153 0
M  V30 2168 H 207.606 -6.36907 -2.84597 0
M  V30 2169 H 203.503 -5.37366 -3.57642 0
M  V30 2170 H 204.271 -7.44252 -3.40633 0
M  V30 2171 N 206.934 1.1197 -1.10907 0
M  V30 2172 C 207.864 2.19928 -0.784473 0
M  V30 2173 C 208.845 1.6833 0.244726 0
M  V30 2174 O 210.03 1.93892 0.109418 0
M  V30 2175 C 207.16 3.46597 -0.220827 0
M  V30 2176 C 206.114 4.11376 -1.18127 0
M  V30 2177 C 205.44 5.32554 -0.478594 0
M  V30 2178 C 206.74 4.56945 -2.52979 0
M  V30 2179 H 208.434 2.47337 -1.68715 0
M  V30 2180 H 205.98 1.18879 -0.812642 0
M  V30 2181 H 207.933 4.21396 0.0184278 0
M  V30 2182 H 206.657 3.1863 0.717113 0
M  V30 2183 H 205.316 3.38564 -1.40606 0
M  V30 2184 H 204.964 5.00856 0.463976 0
M  V30 2185 H 204.664 5.76844 -1.11912 0
M  V30 2186 H 206.188 6.10096 -0.248 0
M  V30 2187 H 207.602 5.23093 -2.3462 0
M  V30 2188 H 205.999 5.1203 -3.12962 0
M  V30 2189 H 207.069 3.70676 -3.12614 0
M  V30 2190 N 208.412 0.89855 1.29475 0
M  V30 2191 C 209.375 0.380272 2.26023 0
M  V30 2192 C 210.375 -0.484891 1.53315 0
M  V30 2193 O 211.565 -0.290108 1.71767 0
M  V30 2194 C 208.697 -0.45651 3.3783 0
M  V30 2195 H 209.89 1.23295 2.73383 0
M  V30 2196 H 207.443 0.676589 1.40897 0
M  V30 2197 H 208.178 -1.32922 2.95808 0
M  V30 2198 H 207.963 0.163393 3.91759 0
M  V30 2199 H 209.453 -0.810466 4.0966 0
M  V30 2200 N 209.89 -1.43072 0.660911 0
M  V30 2201 C 211.137 -2.01721 0.177445 0
M  V30 2202 C 211.465 -1.5218 -1.21126 0
M  V30 2203 O 210.72 -0.708659 -1.82419 0
M  V30 2204 C 211.019 -3.57103 0.145563 0
M  V30 2205 C 210.685 -4.26021 1.47705 0
M  V30 2206 C 209.347 -4.44563 1.84165 0
M  V30 2207 C 211.699 -4.64983 2.35458 0
M  V30 2208 C 209.027 -4.99334 3.0803 0
M  V30 2209 C 211.379 -5.21127 3.58622 0
M  V30 2210 C 210.043 -5.37884 3.95268 0
M  V30 2211 H 209.313 -0.73815 0.0649317 0
M  V30 2212 H 211.96 -1.71446 0.853144 0
M  V30 2213 H 210.265 -3.86965 -0.61361 0
M  V30 2214 H 211.962 -4.00248 -0.2455 0
M  V30 2215 H 208.552 -4.11939 1.18339 0
M  V30 2216 H 212.736 -4.50343 2.08579 0
M  V30 2217 H 207.992 -5.10493 3.36462 0
M  V30 2218 H 212.166 -5.50262 4.26831 0
M  V30 2219 H 209.793 -5.80089 4.91325 0
M  V30 2220 N 211.368 -0.403325 -1.52352 0
M  V30 2221 C 212.779 0.0675782 -1.86578 0
M  V30 2222 C 213.13 1.44941 -1.32236 0
M  V30 2223 O 212.255 2.06112 -0.659307 0
M  V30 2224 C 212.85 0.129404 -3.38553 0
M  V30 2225 C 211.409 0.544629 -3.72439 0
M  V30 2226 C 210.556 -0.284551 -2.75836 0
M  V30 2227 H 213.507 -0.620631 -1.46061 0
M  V30 2228 H 213.528 0.94581 -3.68558 0
M  V30 2229 H 213.04 -0.87645 -3.78074 0
M  V30 2230 H 211.141 1.55734 -3.38493 0
M  V30 2231 H 211.254 0.293046 -4.78203 0
M  V30 2232 H 209.618 0.252258 -2.53448 0
M  V30 2233 H 210.401 -1.28865 -3.18196 0
M  V30 2234 N 212.846 1.57033 -0.133567 0
M  V30 2235 C 214.262 1.58035 0.222944 0
M  V30 2236 C 214.462 1.14713 1.6566 0
M  V30 2237 O 213.518 0.841218 2.38075 0
M  V30 2238 C 214.831 3.00691 -0.0236116 0
M  V30 2239 C 216.379 3.12973 0.0411512 0
M  V30 2240 C 216.854 4.57654 -0.177899 0
M  V30 2241 N 218.345 4.63033 -0.124365 0
M  V30 2242 C 219.08 5.72771 -0.268553 0
M  V30 2243 N 218.576 6.91206 -0.46972 0
M  V30 2244 N 220.369 5.61718 -0.2071 0
M  V30 2245 H 212.52 1.8349 -1.06981 0
M  V30 2246 H 214.783 0.848677 -0.422436 0
M  V30 2247 H 214.489 3.36726 -1.0153 0
M  V30 2248 H 214.363 3.70614 0.701808 0
M  V30 2249 H 216.75 2.76787 1.02338 0
M  V30 2250 H 216.831 2.45564 -0.716383 0
M  V30 2251 H 216.475 4.94542 -1.15717 0
M  V30 2252 H 216.405 5.23173 0.599797 0
M  V30 2253 H 218.896 3.7789 0.027011 0
M  V30 2254 H 219.209 7.70693 -0.570212 0
M  V30 2255 H 217.554 6.93156 -0.505876 0
M  V30 2256 H 220.745 4.68072 -0.0507986 0
M  V30 2257 H 220.918 6.47195 -0.322909 0
M  V30 2258 N 214.325 -0.140222 1.56975 0
M  V30 2259 C 215.257 -1.19818 1.95388 0
M  V30 2260 C 216.27 -1.38816 0.850525 0
M  V30 2261 O 217.459 -1.38267 1.12891 0
M  V30 2262 C 214.559 -2.56189 2.21857 0
M  V30 2263 C 213.732 -2.58077 3.5315 0
M  V30 2264 C 212.791 -3.76037 3.6808 0
M  V30 2265 O 211.817 -3.60598 4.40406 0
M  V30 2266 N 213.019 -4.93763 3.05251 0
M  V30 2267 H 215.784 -0.871609 2.86746 0
M  V30 2268 H 213.345 -0.32972 1.58507 0
M  V30 2269 H 215.337 -3.33623 2.2908 0
M  V30 2270 H 213.907 -2.81111 1.36731 0
M  V30 2271 H 213.127 -1.6651 3.57307 0
M  V30 2272 H 214.415 -2.56377 4.39486 0
M  V30 2273 H 213.813 -5.09209 2.46419 0
M  V30 2274 H 212.37 -5.68949 3.18026 0
M  V30 2275 N 215.803 -1.52179 -0.40978 0
M  V30 2276 C 217.051 -1.65878 -1.15451 0
M  V30 2277 C 217.372 -0.390771 -1.91044 0
M  V30 2278 O 216.642 0.594323 -1.86667 0
M  V30 2279 H 215.222 -0.611405 -0.429177 0
M  V30 2280 H 217.884 -1.89219 -0.467134 0
M  V30 2281 H 216.98 -2.49954 -1.86894 0
M  V30 2282 N 217.281 0.66697 -1.42791 0
M  V30 2283 C 218.211 1.79218 -1.49677 0
M  V30 2284 C 219.192 1.66405 -0.352623 0
M  V30 2285 O 220.377 1.85708 -0.567993 0
M  V30 2286 C 217.507 3.17565 -1.40605 0
M  V30 2287 C 216.461 3.45124 -2.53127 0
M  V30 2288 C 215.787 4.83127 -2.29112 0
M  V30 2289 C 217.087 3.41236 -3.95418 0
M  V30 2290 H 218.781 1.73713 -2.43853 0
M  V30 2291 H 216.327 0.83432 -1.17367 0
M  V30 2292 H 218.28 3.96022 -1.44029 0
M  V30 2293 H 217.004 3.23767 -0.429271 0
M  V30 2294 H 215.663 2.69031 -2.49034 0
M  V30 2295 H 215.311 4.85988 -1.29709 0
M  V30 2296 H 215.011 5.02528 -3.04531 0
M  V30 2297 H 216.535 5.63859 -2.34297 0
M  V30 2298 H 217.949 4.09651 -4.01073 0
M  V30 2299 H 216.346 3.72173 -4.70752 0
M  V30 2300 H 217.416 2.39665 -4.21532 0
M  V30 2301 N 218.759 1.29093 0.90403 0
M  V30 2302 C 220.036 1.075 1.63411 0
M  V30 2303 C 220.416 -0.382346 2.07609 0
M  V30 2304 O 219.764 -1.37031 1.82851 0
M  V30 2305 C 219.974 2.05858 2.81822 0
M  V30 2306 C 221.322 2.36539 3.52611 0
M  V30 2307 O 222.346 2.04019 2.91984 0
M  V30 2308 O 221.205 2.92085 4.61897 0
M  V30 2309 H 218.299 0.411547 0.717327 0
M  V30 2310 H 220.845 1.40449 0.952479 0
M  V30 2311 H 219.617 3.04037 2.46327 0
M  V30 2312 H 219.24 1.73613 3.57693 0
M  V30 2313 N 220.237 -1.11381 1.11499 0
M  V30 2314 C 221.462 -1.87475 0.887019 0
M  V30 2315 C 221.887 -1.79639 -0.557796 0
M  V30 2316 O 221.245 -1.15924 -1.39396 0
M  V30 2317 C 221.293 -3.34213 1.35403 0
M  V30 2318 O 220.397 -4.0903 0.526146 0
M  V30 2319 H 219.738 -0.582099 0.319463 0
M  V30 2320 H 222.268 -1.40785 1.48461 0
M  V30 2321 H 222.278 -3.8506 1.34881 0
M  V30 2322 H 220.953 -3.39232 2.40612 0
M  V30 2323 H 219.53 -3.68082 0.597522 0
M  V30 2324 N 221.715 -0.905404 -1.28997 0
M  V30 2325 C 222.992 -0.453513 -1.9027 0
M  V30 2326 C 223.372 1.06721 -1.82137 0
M  V30 2327 O 222.72 1.91159 -1.25182 0
M  V30 2328 C 222.93 -0.974494 -3.35119 0
M  V30 2329 C 224.278 -1.0216 -4.12127 0
M  V30 2330 O 225.302 -0.922557 -3.44046 0
M  V30 2331 O 224.161 -1.17121 -5.33802 0
M  V30 2332 H 221.255 -0.142347 -0.814657 0
M  V30 2333 H 223.801 -0.995642 -1.37423 0
M  V30 2334 H 222.573 -2.01848 -3.35221 0
M  V30 2335 H 222.196 -0.412706 -3.95452 0
M  V30 2336 N 223.193 1.4272 -0.668489 0
M  V30 2337 C 224.156 2.292 0.00448567 0
M  V30 2338 C 225.156 1.43001 0.735339 0
M  V30 2339 O 226.346 1.64461 0.57429 0
M  V30 2340 C 223.478 3.25375 1.01705 0
M  V30 2341 H 224.671 2.90199 -0.756608 0
M  V30 2342 H 222.224 1.50254 -0.430506 0
M  V30 2343 H 222.959 2.69301 1.80686 0
M  V30 2344 H 222.744 3.88944 0.496463 0
M  V30 2345 H 224.234 3.90245 1.48655 0
M  V30 2346 N 224.671 0.411399 1.52136 0
M  V30 2347 C 225.581 -0.419774 2.30814 0
M  V30 2348 C 226.597 -1.0515 1.38634 0
M  V30 2349 O 227.773 -1.05252 1.71709 0
M  V30 2350 C 224.838 -1.52019 3.11594 0
M  V30 2351 C 223.899 -0.91129 4.19516 0
M  V30 2352 C 223.132 -1.95927 4.96436 0
M  V30 2353 O 223.355 -3.17775 4.73683 0
M  V30 2354 O 222.289 -1.56423 5.81219 0
M  V30 2355 H 226.115 0.221805 3.02889 0
M  V30 2356 H 223.7 0.174547 1.48377 0
M  V30 2357 H 225.582 -2.15898 3.61892 0
M  V30 2358 H 224.257 -2.14633 2.42311 0
M  V30 2359 H 223.164 -0.235157 3.7336 0
M  V30 2360 H 224.497 -0.32904 4.91099 0
M  V30 2361 N 226.149 -1.5696 0.141893 0
M  V30 2362 C 227.096 -2.16501 -0.799737 0
M  V30 2363 C 228.066 -1.09643 -1.24771 0
M  V30 2364 O 229.251 -1.3766 -1.32115 0
M  V30 2365 C 226.391 -2.78679 -2.03549 0
M  V30 2366 C 225.504 -3.99914 -1.6338 0
M  V30 2367 C 224.639 -4.50106 -2.82096 0
M  V30 2368 C 223.678 -5.63819 -2.38275 0
M  V30 2369 N 222.815 -6.08651 -3.49983 0
M  V30 2370 H 227.655 -2.96632 -0.285179 0
M  V30 2371 H 225.192 -1.46533 -0.129053 0
M  V30 2372 H 227.15 -3.1287 -2.75986 0
M  V30 2373 H 225.78 -2.012 -2.52425 0
M  V30 2374 H 224.832 -3.71735 -0.807279 0
M  V30 2375 H 226.144 -4.82311 -1.27192 0
M  V30 2376 H 225.298 -4.86325 -3.62729 0
M  V30 2377 H 224.037 -3.66706 -3.21525 0
M  V30 2378 H 223.042 -5.2718 -1.56081 0
M  V30 2379 H 224.267 -6.49 -1.99938 0
M  V30 2380 H 222.213 -5.28188 -3.89042 0
M  V30 2381 H 222.13 -6.85961 -3.17794 0
M  V30 2382 H 223.398 -6.49515 -4.30988 0
M  V30 2383 N 227.627 0.131896 -1.57047 0
M  V30 2384 C 228.537 1.1815 -2.02676 0
M  V30 2385 C 229.553 1.46113 -0.944824 0
M  V30 2386 O 230.729 1.57485 -1.25541 0
M  V30 2387 C 227.794 2.49139 -2.41103 0
M  V30 2388 C 226.855 2.28688 -3.63318 0
M  V30 2389 C 226.088 3.53431 -3.99903 0
M  V30 2390 O 226.311 4.60223 -3.36973 0
M  V30 2391 O 225.245 3.45198 -4.93074 0
M  V30 2392 H 229.071 0.824069 -2.92306 0
M  V30 2393 H 226.656 0.341745 -1.45439 0
M  V30 2394 H 228.538 3.26338 -2.66611 0
M  V30 2395 H 227.213 2.84382 -1.54624 0
M  V30 2396 H 226.12 1.4939 -3.42977 0
M  V30 2397 H 227.453 1.98355 -4.50462 0
M  V30 2398 N 229.106 1.52395 0.401703 0
M  V30 2399 C 230.039 1.70999 1.51111 0
M  V30 2400 C 231.017 0.55765 1.52738 0
M  V30 2401 O 232.201 0.785912 1.71335 0
M  V30 2402 C 229.328 1.75607 2.8962 0
M  V30 2403 C 228.374 2.97227 3.05873 0
M  V30 2404 S 229.207 4.57439 2.78405 0
M  V30 2405 C 230.363 4.64844 4.19131 0
M  V30 2406 H 230.596 2.6483 1.35102 0
M  V30 2407 H 228.129 1.42527 0.593762 0
M  V30 2408 H 230.087 1.78947 3.69443 0
M  V30 2409 H 228.748 0.828914 3.02965 0
M  V30 2410 H 227.941 2.96955 4.07227 0
M  V30 2411 H 227.543 2.91813 2.33925 0
M  V30 2412 H 229.835 4.42677 5.12877 0
M  V30 2413 H 230.778 5.66807 4.24424 0
M  V30 2414 H 231.186 3.93804 4.04448 0
M  V30 2415 N 230.584 -0.659388 1.43143 0
M  V30 2416 C 231.531 -1.77249 1.47822 0
M  V30 2417 C 232.501 -1.62818 0.328558 0
M  V30 2418 O 233.686 -1.83151 0.534838 0
M  V30 2419 C 230.826 -3.15371 1.40126 0
M  V30 2420 C 229.939 -3.4098 2.65249 0
M  V30 2421 C 229.074 -4.68915 2.49584 0
M  V30 2422 C 228.113 -4.87608 3.70006 0
M  V30 2423 N 227.25 -6.06796 3.53189 0
M  V30 2424 H 232.09 -1.72584 2.42938 0
M  V30 2425 H 229.627 -0.842297 1.20598 0
M  V30 2426 H 231.585 -3.9521 1.33659 0
M  V30 2427 H 230.215 -3.19121 0.485964 0
M  V30 2428 H 229.267 -2.55282 2.8202 0
M  V30 2429 H 230.579 -3.50681 3.54717 0
M  V30 2430 H 229.733 -5.56871 2.4079 0
M  V30 2431 H 228.472 -4.61524 1.5763 0
M  V30 2432 H 227.477 -3.9809 3.79215 0
M  V30 2433 H 228.702 -4.96834 4.62961 0
M  V30 2434 H 226.648 -6.00549 2.63965 0
M  V30 2435 H 226.565 -6.17428 4.36255 0
M  V30 2436 H 227.833 -6.9739 3.48236 0
M  V30 2437 N 232.062 -1.29571 -0.897171 0
M  V30 2438 C 233.025 -1.14913 -1.98312 0
M  V30 2439 C 234.025 -0.0838629 -1.60581 0
M  V30 2440 O 235.215 -0.331006 -1.71026 0
M  V30 2441 C 232.347 -0.757835 -3.3237 0
M  V30 2442 H 233.54 -2.11377 -2.12743 0
M  V30 2443 H 231.093 -1.12793 -1.08201 0
M  V30 2444 H 231.828 0.206837 -3.2364 0
M  V30 2445 H 231.613 -1.52755 -3.61121 0
M  V30 2446 H 233.103 -0.678408 -4.12053 0
M  V30 2447 N 233.54 1.10788 -1.12088 0
M  V30 2448 C 234.789 1.82036 -0.868659 0
M  V30 2449 C 235.102 1.85929 0.607426 0
M  V30 2450 O 236.308 2.53346 0.97613 0
M  V30 2451 C 234.764 3.26951 -1.50435 0
M  V30 2452 C 234.372 3.31367 -3.01496 0
M  V30 2453 C 236.116 4.03053 -1.33225 0
M  V30 2454 C 234.023 4.7072 -3.58017 0
M  V30 2455 H 232.953 0.682108 -0.321318 0
M  V30 2456 H 235.604 1.24618 -1.34694 0
M  V30 2457 H 233.986 3.84343 -0.953735 0
M  V30 2458 H 235.16 2.83819 -3.6302 0
M  V30 2459 H 233.475 2.6875 -3.18061 0
M  V30 2460 H 236.072 5.05981 -1.72878 0
M  V30 2461 H 236.415 4.15387 -0.275529 0
M  V30 2462 H 236.948 3.52066 -1.85188 0
M  V30 2463 H 233.687 4.63585 -4.63432 0
M  V30 2464 H 233.207 5.1865 -3.01268 0
M  V30 2465 H 234.886 5.39685 -3.56859 0
M  V30 2466 N 235.018 0.912232 1.28515 0
M  V30 2467 C 236.264 0.554851 1.95686 0
M  V30 2468 C 236.619 -0.89138 1.70506 0
M  V30 2469 O 235.912 -1.62529 1.01464 0
M  V30 2470 C 236.106 0.798392 3.48368 0
M  V30 2471 C 235.935 2.26674 3.88393 0
M  V30 2472 C 234.705 2.91657 4.12631 0
M  V30 2473 C 236.903 3.24303 3.99164 0
M  V30 2474 N 234.885 4.28805 4.39317 0
M  V30 2475 C 236.256 4.4661 4.30046 0
M  V30 2476 C 238.311 3.19723 3.81683 0
M  V30 2477 C 237.014 5.64915 4.45268 0
M  V30 2478 C 239.04 4.37325 3.98121 0
M  V30 2479 C 238.402 5.58406 4.29375 0
M  V30 2480 H 234.501 0.252876 0.739985 0
M  V30 2481 H 237.085 1.17565 1.55199 0
M  V30 2482 H 235.256 0.20688 3.87849 0
M  V30 2483 H 236.988 0.405193 4.02666 0
M  V30 2484 H 233.743 2.42393 4.06869 0
M  V30 2485 H 234.167 4.99712 4.56746 0
M  V30 2486 H 238.809 2.27191 3.56573 0
M  V30 2487 H 236.527 6.57927 4.6921 0
M  V30 2488 H 240.113 4.35282 3.86033 0
M  V30 2489 H 238.993 6.47889 4.41825 0
M  V30 2490 N 236.496 -1.42363 0.676048 0
M  V30 2491 C 237.736 -2.03392 0.20273 0
M  V30 2492 C 238.1 -1.52306 -1.16906 0
M  V30 2493 O 239.301 -2.05129 -1.73711 0
M  V30 2494 C 237.572 -3.56614 0.236947 0
M  V30 2495 S 239.131 -4.38489 -0.165186 0
M  V30 2496 H 235.949 -0.70611 0.0832418 0
M  V30 2497 H 238.551 -1.74093 0.88948 0
M  V30 2498 H 237.255 -3.91293 1.23767 0
M  V30 2499 H 236.786 -3.90587 -0.469596 0
M  V30 2500 H 238.801 -4.76093 -1.39822 0
M  V30 2501 N 237.974 -0.419461 -1.51915 0
M  V30 2502 C 238.937 0.389116 -2.25873 0
M  V30 2503 C 239.937 0.964924 -1.28631 0
M  V30 2504 O 241.127 0.842179 -1.52489 0
M  V30 2505 C 238.259 1.54874 -3.03689 0
M  V30 2506 H 239.452 -0.258799 -2.98781 0
M  V30 2507 H 237.005 -0.172209 -1.55348 0
M  V30 2508 H 237.74 2.23323 -2.35154 0
M  V30 2509 H 237.525 1.14223 -3.75094 0
M  V30 2510 H 239.015 2.12046 -3.59759 0
M  V30 2511 N 239.452 1.56882 -0.150215 0
M  V30 2512 C 240.399 2.16922 0.788244 0
M  V30 2513 C 241.369 1.10303 1.24187 0
M  V30 2514 O 242.554 1.38359 1.31383 0
M  V30 2515 C 239.694 2.79754 2.02068 0
M  V30 2516 C 238.807 4.00775 1.61257 0
M  V30 2517 C 237.942 4.51595 2.79705 0
M  V30 2518 C 236.981 5.65074 2.35282 0
M  V30 2519 N 236.118 6.10499 3.4675 0
M  V30 2520 H 240.958 2.96779 0.269444 0
M  V30 2521 H 238.495 1.46599 0.12128 0
M  V30 2522 H 240.453 3.14329 2.74323 0
M  V30 2523 H 239.083 2.02536 2.51354 0
M  V30 2524 H 238.135 3.72158 0.787553 0
M  V30 2525 H 239.447 4.82978 1.24633 0
M  V30 2526 H 238.601 4.88242 3.60145 0
M  V30 2527 H 237.34 3.68406 3.19576 0
M  V30 2528 H 236.345 5.28 1.53283 0
M  V30 2529 H 237.57 6.50052 1.96493 0
M  V30 2530 H 235.516 5.30243 3.86236 0
M  V30 2531 H 235.433 6.87637 3.14152 0
M  V30 2532 H 236.701 6.51791 4.27537 0
M  V30 2533 N 240.93 -0.123565 1.57115 0
M  V30 2534 C 242.207 -0.862196 1.75572 0
M  V30 2535 C 242.587 -1.98279 0.724475 0
M  V30 2536 O 241.935 -2.27102 -0.252407 0
M  V30 2537 C 242.145 -1.38309 3.20424 0
M  V30 2538 C 243.493 -1.83724 3.82793 0
M  V30 2539 O 244.517 -1.47999 3.23998 0
M  V30 2540 O 243.376 -2.49685 4.86127 0
M  V30 2541 H 240.47 -0.409113 0.718718 0
M  V30 2542 H 243.016 -0.107661 1.69358 0
M  V30 2543 H 241.788 -0.578889 3.86994 0
M  V30 2544 H 241.411 -2.20046 3.31158 0
M  V30 2545 N 242.408 -1.52605 -0.393616 0
M  V30 2546 C 243.355 -1.77055 -1.48054 0
M  V30 2547 C 244.325 -0.61358 -1.54352 0
M  V30 2548 O 245.51 -0.852806 -1.70681 0
M  V30 2549 C 242.65 -1.94108 -2.85335 0
M  V30 2550 C 241.763 -3.21792 -2.88226 0
M  V30 2551 C 240.898 -3.29188 -4.16904 0
M  V30 2552 C 239.937 -4.51013 -4.13828 0
M  V30 2553 N 239.074 -4.55716 -5.34105 0
M  V30 2554 H 243.914 -2.69815 -1.26506 0
M  V30 2555 H 241.451 -1.33683 -0.61379 0
M  V30 2556 H 243.409 -2.01979 -3.65049 0
M  V30 2557 H 242.039 -1.04713 -3.05344 0
M  V30 2558 H 241.091 -3.23015 -2.00911 0
M  V30 2559 H 242.403 -4.11557 -2.8182 0
M  V30 2560 H 241.557 -3.36216 -5.05018 0
M  V30 2561 H 240.296 -2.37389 -4.26026 0
M  V30 2562 H 239.301 -4.44115 -3.24102 0
M  V30 2563 H 240.526 -5.44123 -4.06333 0
M  V30 2564 H 238.472 -3.66807 -5.43865 0
M  V30 2565 H 238.389 -5.39346 -5.29756 0
M  V30 2566 H 239.657 -4.66993 -6.2413 0
M  V30 2567 N 243.887 0.651787 -1.4349 0
M  V30 2568 C 244.835 1.78586 -1.49029 0
M  V30 2569 C 245.829 1.65448 -0.363767 0
M  V30 2570 O 247.035 1.71777 -0.537821 0
M  V30 2571 H 243.41 0.589236 -0.467231 0
M  V30 2572 H 245.381 1.71035 -2.44519 0
M  V30 2573 C 244.13 3.16851 -1.43181 0
M  V30 2574 H 243.453 3.27598 -2.29171 0
M  V30 2575 H 244.893 3.96156 -1.51118 0
M  V30 2576 C 243.352 3.36568 -0.149616 0
M  V30 2577 O 243.882 3.93885 0.788509 0
M  V30 2578 N 242.088 2.90539 -0.0593484 0
M  V30 2579 H 241.635 2.4408 -0.823575 0
M  V30 2580 H 241.593 3.04108 0.797853 0
M  V30 2581 N 245.365 1.30045 0.890287 0
M  V30 2582 C 246.312 1.15976 1.99545 0
M  V30 2583 C 247.282 0.0506202 1.66023 0
M  V30 2584 O 248.467 0.219847 1.89529 0
M  V30 2585 C 245.607 0.852054 3.34416 0
M  V30 2586 C 244.72 2.04255 3.80662 0
M  V30 2587 C 243.855 1.6734 5.04154 0
M  V30 2588 C 242.894 2.82916 5.42794 0
M  V30 2589 N 242.031 2.46333 6.57468 0
M  V30 2590 H 246.871 2.10524 2.10911 0
M  V30 2591 H 244.408 1.04749 1.03276 0
M  V30 2592 H 246.366 0.654296 4.12037 0
M  V30 2593 H 244.996 -0.0565502 3.2275 0
M  V30 2594 H 244.048 2.35172 2.98995 0
M  V30 2595 H 245.36 2.90826 4.05242 0
M  V30 2596 H 244.514 1.43908 5.89386 0
M  V30 2597 H 243.253 0.779308 4.81433 0
M  V30 2598 H 242.258 3.0702 4.56091 0
M  V30 2599 H 243.483 3.73004 5.6749 0
M  V30 2600 H 241.429 1.59423 6.36334 0
M  V30 2601 H 241.346 3.26436 6.81891 0
M  V30 2602 H 242.614 2.26244 7.45945 0
M  V30 2603 N 246.843 -1.10192 1.12674 0
M  V30 2604 C 247.806 -2.14786 0.799979 0
M  V30 2605 C 248.806 -1.59711 -0.18685 0
M  V30 2606 O 249.996 -1.74156 0.0392558 0
M  V30 2607 C 247.128 -3.40374 0.189228 0
M  V30 2608 H 248.321 -2.45203 1.72671 0
M  V30 2609 H 245.874 -1.25597 0.930326 0
M  V30 2610 H 246.609 -3.15577 -0.747107 0
M  V30 2611 H 246.394 -3.81637 0.899766 0
M  V30 2612 H 247.884 -4.17594 -0.0228143 0
M  V30 2613 N 248.321 -0.919034 -1.28029 0
M  V30 2614 C 249.568 -0.554934 -1.94748 0
M  V30 2615 C 249.896 0.90231 -1.72304 0
M  V30 2616 O 249.151 1.65767 -1.04018 0
M  V30 2617 C 249.45 -0.816855 -3.4794 0
M  V30 2618 C 249.116 -2.25448 -3.90492 0
M  V30 2619 C 247.778 -2.64752 -4.01821 0
M  V30 2620 C 250.13 -3.18977 -4.12193 0
M  V30 2621 C 247.458 -3.96727 -4.32232 0
M  V30 2622 C 249.81 -4.50523 -4.44086 0
M  V30 2623 C 248.474 -4.89673 -4.53626 0
M  V30 2624 H 247.744 -0.203065 -0.712633 0
M  V30 2625 H 250.391 -1.16136 -1.52265 0
M  V30 2626 H 248.696 -0.127677 -3.91592 0
M  V30 2627 H 250.393 -0.514238 -3.97689 0
M  V30 2628 H 246.983 -1.93952 -3.82205 0
M  V30 2629 H 251.167 -2.89817 -4.02889 0
M  V30 2630 H 246.423 -4.26754 -4.37825 0
M  V30 2631 H 250.597 -5.23005 -4.59825 0
M  V30 2632 H 248.224 -5.91969 -4.76946 0
M  V30 2633 N 249.799 1.42003 -0.683588 0
M  V30 2634 C 251.076 1.95112 -0.138075 0
M  V30 2635 C 251.456 1.62359 1.34918 0
M  V30 2636 O 250.804 0.924311 2.08971 0
M  V30 2637 C 251.014 3.46505 -0.416581 0
M  V30 2638 C 252.362 4.23254 -0.337834 0
M  V30 2639 O 253.386 3.54468 -0.35082 0
M  V30 2640 O 252.245 5.45743 -0.287596 0
M  V30 2641 H 249.339 0.826961 -0.00797996 0
M  V30 2642 H 251.885 1.51784 -0.758924 0
M  V30 2643 H 250.657 3.63582 -1.4465 0
M  V30 2644 H 250.28 3.969 0.235839 0
M  V30 2645 N 251.277 0.427512 1.51691 0
M  V30 2646 C 252.554 -0.201684 1.94557 0
M  V30 2647 C 252.934 -1.60981 1.36559 0
M  V30 2648 O 252.282 -2.21814 0.548702 0
M  V30 2649 C 252.492 -0.189394 3.48486 0
M  V30 2650 C 253.84 -0.39978 4.22714 0
M  V30 2651 O 254.864 -0.267945 3.55191 0
M  V30 2652 O 253.723 -0.661249 5.42485 0
M  V30 2653 H 250.817 -0.135261 0.815864 0
M  V30 2654 H 253.363 0.484782 1.62628 0
M  V30 2655 H 252.135 0.795431 3.8313 0
M  V30 2656 H 251.758 -0.919187 3.86829 0
M  V30 2657 N 252.755 -1.56801 0.158532 0
M  V30 2658 C 254.001 -1.96781 -0.490405 0
M  V30 2659 C 254.334 -1.04397 -1.63753 0
M  V30 2660 O 253.609 -0.0885805 -1.94298 0
M  V30 2661 C 253.892 -3.4635 -0.985594 0
M  V30 2662 C 253.745 -4.49512 0.160824 0
M  V30 2663 C 255.064 -3.98697 -1.86355 0
M  V30 2664 H 252.183 -0.715482 -0.176788 0
M  V30 2665 H 254.825 -1.88451 0.242088 0
M  V30 2666 H 252.975 -3.53579 -1.60978 0
M  V30 2667 H 254.647 -4.54353 0.797537 0
M  V30 2668 H 252.89 -4.26013 0.818256 0
M  V30 2669 H 253.561 -5.51531 -0.227569 0
M  V30 2670 H 256.037 -3.94019 -1.33746 0
M  V30 2671 H 254.913 -5.03792 -2.17909 0
M  V30 2672 H 255.174 -3.41744 -2.8047 0
M  V30 2673 N 254.233 0.115231 -1.57178 0
M  V30 2674 C 255.166 1.17166 -1.95825 0
M  V30 2675 C 256.144 1.39912 -0.828463 0
M  V30 2676 O 257.328 1.54004 -1.08697 0
M  V30 2677 C 254.455 2.52478 -2.25771 0
M  V30 2678 C 253.501 2.46136 -3.48309 0
M  V30 2679 S 254.334 1.89736 -5.0076 0
M  V30 2680 C 255.49 3.26713 -5.33863 0
M  V30 2681 H 255.723 0.842103 -2.85124 0
M  V30 2682 H 253.256 0.322136 -1.51002 0
M  V30 2683 H 255.214 3.30332 -2.43702 0
M  V30 2684 H 253.875 2.82609 -1.37079 0
M  V30 2685 H 253.068 3.45819 -3.66641 0
M  V30 2686 H 252.67 1.76404 -3.29784 0
M  V30 2687 H 254.962 4.22935 -5.29275 0
M  V30 2688 H 255.905 3.13205 -6.35065 0
M  V30 2689 H 256.313 3.25316 -4.61335 0
M  V30 2690 N 255.711 1.52812 0.385517 0
M  V30 2691 C 256.674 1.77188 1.45386 0
M  V30 2692 C 257.674 0.641953 1.4743 0
M  V30 2693 O 258.864 0.910033 1.4854 0
M  V30 2694 C 255.996 1.87582 2.8465 0
M  V30 2695 H 257.189 2.72583 1.25054 0
M  V30 2696 H 254.742 1.43586 0.617467 0
M  V30 2697 H 255.477 0.941849 3.10322 0
M  V30 2698 H 255.262 2.69748 2.84567 0
M  V30 2699 H 256.752 2.08102 3.62054 0
M  V30 2700 N 257.189 -0.644168 1.43834 0
M  V30 2701 C 258.437 -1.40117 1.45642 0
M  V30 2702 C 258.758 -1.94814 0.0852413 0
M  V30 2703 O 258.028 -1.74988 -0.880688 0
M  V30 2704 H 256.608 -0.52005 0.536243 0
M  V30 2705 H 259.27 -0.7591 1.7951 0
M  V30 2706 H 258.366 -2.23902 2.17427 0
M  V30 2707 N 258.668 -1.30515 -0.883378 0
M  V30 2708 C 259.615 -1.17032 -1.98927 0
M  V30 2709 C 260.585 -0.0594241 -1.65994 0
M  V30 2710 O 261.77 -0.229895 -1.8941 0
M  V30 2711 C 258.91 -0.869777 -3.33959 0
M  V30 2712 C 258.023 -2.06271 -3.79574 0
M  V30 2713 C 257.158 -1.70011 -5.03259 0
M  V30 2714 C 256.197 -2.8579 -5.41286 0
M  V30 2715 N 255.334 -2.49816 -6.56153 0
M  V30 2716 H 260.174 -2.1164 -2.09792 0
M  V30 2717 H 257.711 -1.05296 -1.02719 0
M  V30 2718 H 259.669 -0.676138 -4.11685 0
M  V30 2719 H 258.299 0.0394332 -3.22776 0
M  V30 2720 H 257.351 -2.36755 -2.97744 0
M  V30 2721 H 258.663 -2.92971 -4.03694 0
M  V30 2722 H 257.817 -1.47032 -5.88614 0
M  V30 2723 H 256.556 -0.804829 -4.81013 0
M  V30 2724 H 255.561 -3.09434 -4.54456 0
M  V30 2725 H 256.786 -3.76008 -5.65504 0
M  V30 2726 H 254.732 -1.62795 -6.35479 0
M  V30 2727 H 254.649 -3.30048 -6.8015 0
M  V30 2728 H 255.917 -2.30197 -7.44735 0
M  V30 2729 N 260.146 1.09593 -1.13257 0
M  V30 2730 C 261.371 1.8604 -0.916732 0
M  V30 2731 C 261.796 1.80504 0.529146 0
M  V30 2732 O 261.154 1.18127 1.37534 0
M  V30 2733 C 261.202 3.32017 -1.40703 0
M  V30 2734 O 260.306 4.08141 -0.591153 0
M  V30 2735 H 259.647 0.576943 -0.328683 0
M  V30 2736 H 262.177 1.38405 -1.50682 0
M  V30 2737 H 262.187 3.82865 -1.4099 0
M  V30 2738 H 260.862 3.35361 -2.45979 0
M  V30 2739 H 259.439 3.67084 -0.656005 0
M  V30 2740 N 261.624 0.925811 1.2754 0
M  V30 2741 C 262.87 0.566092 1.94739 0
M  V30 2742 C 263.203 -0.890057 1.72603 0
M  V30 2743 O 262.478 -1.63467 1.05399 0
M  V30 2744 C 262.761 0.89054 3.48915 0
M  V30 2745 C 262.614 2.4003 3.80402 0
M  V30 2746 C 263.933 0.395101 4.38323 0
M  V30 2747 H 261.052 0.20714 0.707292 0
M  V30 2748 H 263.694 1.15725 1.50691 0
M  V30 2749 H 261.844 0.387452 3.86563 0
M  V30 2750 H 263.516 2.97494 3.52555 0
M  V30 2751 H 261.759 2.85028 3.2702 0
M  V30 2752 H 262.43 2.57785 4.8811 0
M  V30 2753 H 264.906 0.826241 4.07814 0
M  V30 2754 H 263.782 0.651086 5.45025 0
M  V30 2755 H 264.043 -0.704798 4.36446 0
M  V30 2756 N 263.102 -1.41638 0.69111 0
M  V30 2757 C 264.065 -2.29178 0.0319786 0
M  V30 2758 C 265.065 -1.44153 -0.712496 0
M  V30 2759 O 266.255 -1.65354 -0.548053 0
M  V30 2760 C 263.387 -3.26952 -0.965161 0
M  V30 2761 H 264.58 -2.88959 0.802681 0
M  V30 2762 H 262.133 -1.4955 0.454356 0
M  V30 2763 H 262.868 -2.72142 -1.76378 0
M  V30 2764 H 262.653 -3.89685 -0.434522 0
M  V30 2765 H 264.143 -3.92561 -1.42428 0
M  V30 2766 N 264.58 -0.43555 -1.51462 0
M  V30 2767 C 265.991 0.0279871 -1.86679 0
M  V30 2768 C 266.342 1.42104 -1.35281 0
M  V30 2769 O 265.467 2.04667 -0.702878 0
M  V30 2770 C 266.062 0.0575626 -3.38751 0
M  V30 2771 C 264.621 0.465507 -3.7351 0
M  V30 2772 C 263.768 -0.342996 -2.75171 0
M  V30 2773 H 266.719 -0.651473 -1.44712 0
M  V30 2774 H 266.74 0.867421 -3.70481 0
M  V30 2775 H 266.252 -0.956448 -3.7613 0
M  V30 2776 H 264.353 1.48519 -3.41721 0
M  V30 2777 H 264.466 0.191546 -4.78717 0
M  V30 2778 H 262.83 0.198442 -2.53926 0
M  V30 2779 H 263.613 -1.35585 -3.15391 0
M  V30 2780 N 266.058 1.56714 -0.166846 0
M  V30 2781 C 267.021 2.16539 0.751232 0
M  V30 2782 C 268.021 1.11228 1.16125 0
M  V30 2783 O 269.211 1.36765 1.07894 0
M  V30 2784 C 266.343 2.74462 2.02196 0
M  V30 2785 H 267.536 2.99013 0.230499 0
M  V30 2786 H 265.089 1.56081 0.0826982 0
M  V30 2787 H 265.824 1.95709 2.58589 0
M  V30 2788 H 265.609 3.51527 1.73698 0
M  V30 2789 H 267.099 3.20489 2.67725 0
M  V30 2790 N 267.536 -0.106894 1.57237 0
M  V30 2791 C 268.761 -0.830287 1.90055 0
M  V30 2792 C 269.186 -1.72064 0.75998 0
M  V30 2793 O 268.544 -1.78982 -0.288991 0
M  V30 2794 C 268.592 -1.6295 3.21683 0
M  V30 2795 O 267.696 -2.73748 3.08441 0
M  V30 2796 H 267.037 -0.228855 0.623315 0
M  V30 2797 H 269.567 -0.085658 2.04421 0
M  V30 2798 H 269.577 -2.01621 3.54701 0
M  V30 2799 H 268.252 -0.975989 4.04286 0
M  V30 2800 H 266.829 -2.38192 2.86913 0
M  V30 2801 N 269.014 -1.53014 -0.377408 0
M  V30 2802 C 270.254 -1.70318 -1.1301 0
M  V30 2803 C 270.618 -0.439538 -1.86901 0
M  V30 2804 O 271.819 -0.489095 -2.64313 0
M  V30 2805 C 270.09 -2.91125 -2.07319 0
M  V30 2806 S 271.649 -3.29075 -2.90268 0
M  V30 2807 H 268.467 -0.599426 -0.382374 0
M  V30 2808 H 271.069 -1.91089 -0.412933 0
M  V30 2809 H 269.773 -3.81303 -1.51777 0
M  V30 2810 H 269.304 -2.7272 -2.83526 0
M  V30 2811 H 271.319 -2.80165 -4.09539 0
M  V30 2812 N 270.492 0.636531 -1.44174 0
M  V30 2813 C 271.769 1.39463 -1.37148 0
M  V30 2814 C 272.149 2.11082 -0.027507 0
M  V30 2815 O 271.497 2.05954 0.989716 0
M  V30 2816 C 271.707 2.36552 -2.56601 0
M  V30 2817 C 273.055 3.00048 -3.00427 0
M  V30 2818 O 274.079 2.46878 -2.56767 0
M  V30 2819 O 272.938 3.96488 -3.76111 0
M  V30 2820 H 270.032 0.623903 -0.542839 0
M  V30 2821 H 272.578 0.662039 -1.56253 0
M  V30 2822 H 271.35 1.82692 -3.46034 0
M  V30 2823 H 270.973 3.17236 -2.39681 0
M  V30 2824 N 271.97 1.30982 0.876444 0
M  V30 2825 C 273.216 1.20474 1.63138 0
M  V30 2826 C 273.549 -0.238096 1.92735 0
M  V30 2827 O 272.824 -1.1692 1.55435 0
M  V30 2828 C 273.107 2.04244 2.96574 0
M  V30 2829 C 272.96 3.56793 2.73896 0
M  V30 2830 C 274.279 1.88684 3.97601 0
M  V30 2831 H 271.398 0.439001 0.591985 0
M  V30 2832 H 274.04 1.60704 1.01361 0
M  V30 2833 H 272.19 1.70063 3.493 0
M  V30 2834 H 273.862 4.01077 2.27892 0
M  V30 2835 H 272.105 3.80548 2.08245 0
M  V30 2836 H 272.776 4.10706 3.68815 0
M  V30 2837 H 275.252 2.18584 3.54062 0
M  V30 2838 H 274.128 2.4961 4.88862 0
M  V30 2839 H 274.389 0.848343 4.33884 0
M  V30 2840 N 273.449 -1.08991 1.13837 0
M  V30 2841 C 274.726 -1.77863 0.813876 0
M  V30 2842 C 275.106 -1.99375 -0.693746 0
M  V30 2843 O 274.454 -1.59875 -1.63255 0
M  V30 2844 C 274.664 -3.0986 1.60586 0
M  V30 2845 C 276.012 -3.84493 1.8014 0
M  V30 2846 O 277.036 -3.19624 1.57222 0
M  V30 2847 O 275.895 -5.00957 2.18413 0
M  V30 2848 H 272.989 -0.771589 0.297624 0
M  V30 2849 H 275.535 -1.15507 1.24323 0
M  V30 2850 H 274.307 -2.89715 2.63022 0
M  V30 2851 H 273.93 -3.79942 1.17173 0
M  V30 2852 N 274.927 -0.932562 -1.27047 0
M  V30 2853 C 276.176 -0.571351 -1.93439 0
M  V30 2854 C 276.489 0.892467 -1.74053 0
M  V30 2855 O 277.695 1.36267 -2.34826 0
M  V30 2856 C 276.151 -0.97106 -3.46552 0
M  V30 2857 C 275.759 -2.4559 -3.74686 0
M  V30 2858 C 277.503 -0.681333 -4.18997 0
M  V30 2859 C 275.41 -2.79475 -5.21198 0
M  V30 2860 H 274.34 -0.209966 -0.724176 0
M  V30 2861 H 276.991 -1.13403 -1.44263 0
M  V30 2862 H 275.373 -0.336983 -3.94564 0
M  V30 2863 H 276.547 -3.13829 -3.37414 0
M  V30 2864 H 274.862 -2.71802 -3.15456 0
M  V30 2865 H 277.459 -0.910939 -5.26883 0
M  V30 2866 H 277.802 0.381628 -4.14547 0
M  V30 2867 H 278.335 -1.27473 -3.76823 0
M  V30 2868 H 275.074 -3.847 -5.30741 0
M  V30 2869 H 274.594 -2.1589 -5.596 0
M  V30 2870 H 276.273 -2.67478 -5.89122 0
M  V30 2871 N 276.405 1.4127 -0.698611 0
M  V30 2872 C 277.368 2.29158 -0.044132 0
M  V30 2873 C 278.368 1.44529 0.704841 0
M  V30 2874 O 279.558 1.65643 0.539276 0
M  V30 2875 C 276.69 3.27459 0.947809 0
M  V30 2876 H 277.883 2.88529 -0.817994 0
M  V30 2877 H 275.436 1.49307 -0.46228 0
M  V30 2878 H 276.171 2.73073 1.74933 0
M  V30 2879 H 275.956 3.8991 0.41385 0
M  V30 2880 H 277.446 3.93311 1.40344 0
M  V30 2881 N 277.883 0.443576 1.51229 0
M  V30 2882 C 279.16 -0.181038 1.9476 0
M  V30 2883 C 279.54 -1.59523 1.38259 0
M  V30 2884 O 278.888 -2.2122 0.572198 0
M  V30 2885 C 279.098 -0.152422 3.48667 0
M  V30 2886 C 280.446 -0.354923 4.23114 0
M  V30 2887 O 281.47 -0.230257 3.55455 0
M  V30 2888 O 280.329 -0.603674 5.43156 0
M  V30 2889 H 277.423 -0.1266 0.817252 0
M  V30 2890 H 279.969 0.502004 1.62105 0
M  V30 2891 H 278.741 0.836022 3.82265 0
M  V30 2892 H 278.364 -0.878107 3.87782 0
M  V30 2893 N 279.361 -1.56624 0.175154 0
M  V30 2894 C 280.311 -2.14747 -0.766004 0
M  V30 2895 C 281.295 -1.08275 -1.19018 0
M  V30 2896 O 282.487 -1.34388 -1.15191 0
M  V30 2897 C 279.616 -2.79478 -1.99366 0
M  V30 2898 C 278.702 -3.93114 -1.5913 0
M  V30 2899 N 279.093 -4.97752 -0.89872 0
M  V30 2900 C 277.391 -4.04345 -1.88204 0
M  V30 2901 C 278.092 -5.77473 -0.700012 0
M  V30 2902 N 277.068 -5.29207 -1.24263 0
M  V30 2903 H 280.87 -2.93015 -0.22793 0
M  V30 2904 H 278.384 -1.6238 -0.0253843 0
M  V30 2905 H 280.381 -3.19498 -2.67818 0
M  V30 2906 H 279.041 -2.02692 -2.53665 0
M  V30 2907 H 280.052 -5.14903 -0.556347 0
M  V30 2908 H 276.729 -3.38667 -2.44153 0
M  V30 2909 H 278.119 -6.71728 -0.152047 0
M  V30 2910 N 280.839 0.0985539 -1.57292 0
M  V30 2911 C 282.069 0.815135 -1.8984 0
M  V30 2912 C 282.477 1.7297 -0.766679 0
M  V30 2913 O 281.82 1.81698 0.270483 0
M  V30 2914 C 281.882 1.6842 -3.17608 0
M  V30 2915 C 281.546 0.94182 -4.4719 0
M  V30 2916 C 282.543 0.273212 -5.19182 0
M  V30 2917 C 280.228 0.916927 -4.9386 0
M  V30 2918 C 282.222 -0.410361 -6.36078 0
M  V30 2919 C 279.909 0.229567 -6.10669 0
M  V30 2920 C 280.907 -0.432902 -6.81627 0
M  V30 2921 O 280.595 -1.10925 -7.9621 0
M  V30 2922 H 280.327 0.238501 -0.632529 0
M  V30 2923 H 282.881 0.0812659 -2.05239 0
M  V30 2924 H 281.111 2.46022 -2.98345 0
M  V30 2925 H 282.8 2.27704 -3.36015 0
M  V30 2926 H 283.566 0.283927 -4.84168 0
M  V30 2927 H 279.445 1.42201 -4.3852 0
M  V30 2928 H 282.989 -0.928013 -6.914 0
M  V30 2929 H 278.886 0.216686 -6.45136 0
M  V30 2930 H 279.654 -1.01579 -8.12172 0
M  V30 2931 N 282.317 1.53212 0.369288 0
M  V30 2932 C 283.28 1.7872 1.43498 0
M  V30 2933 C 284.28 0.657554 1.46741 0
M  V30 2934 O 285.47 0.925736 1.47566 0
M  V30 2935 C 282.602 1.90591 2.82645 0
M  V30 2936 H 283.795 2.73894 1.22156 0
M  V30 2937 H 281.348 1.44233 0.602203 0
M  V30 2938 H 282.083 0.974709 3.09306 0
M  V30 2939 H 281.868 2.72751 2.8169 0
M  V30 2940 H 283.358 2.11931 3.59826 0
M  V30 2941 N 283.795 -0.628877 1.44509 0
M  V30 2942 C 284.725 -1.75187 1.54376 0
M  V30 2943 C 285.706 -1.65411 0.396618 0
M  V30 2944 O 286.891 -1.84137 0.617031 0
M  V30 2945 C 284.021 -3.13725 1.48976 0
M  V30 2946 C 282.975 -3.38291 2.62189 0
M  V30 2947 C 282.301 -4.76883 2.41841 0
M  V30 2948 C 283.601 -3.30632 4.04326 0
M  V30 2949 H 285.295 -1.67187 2.48373 0
M  V30 2950 H 282.841 -0.802909 1.19538 0
M  V30 2951 H 284.794 -3.92064 1.54478 0
M  V30 2952 H 283.518 -3.22515 0.514961 0
M  V30 2953 H 282.177 -2.62334 2.56079 0
M  V30 2954 H 281.825 -4.82378 1.42548 0
M  V30 2955 H 281.525 -4.94278 3.17747 0
M  V30 2956 H 283.049 -5.57449 2.49165 0
M  V30 2957 H 284.463 -3.98873 4.11793 0
M  V30 2958 H 282.86 -3.59561 4.80454 0
M  V30 2959 H 283.93 -2.28404 4.27738 0
M  V30 2960 N 285.273 -1.31445 -0.869486 0
M  V30 2961 C 286.521 -1.20918 -1.61936 0
M  V30 2962 C 286.842 0.232683 -1.93607 0
M  V30 2963 O 286.112 1.15352 -1.58338 0
M  V30 2964 H 284.692 -0.44454 -0.600328 0
M  V30 2965 H 287.354 -1.64776 -1.0409 0
M  V30 2966 H 286.45 -1.78124 -2.56278 0
M  V30 2967 N 286.751 1.08385 -1.14413 0
M  V30 2968 C 287.997 1.81044 -0.913834 0
M  V30 2969 C 288.33 1.86004 0.558209 0
M  V30 2970 O 287.605 1.33606 1.4135 0
M  V30 2971 C 287.888 3.26648 -1.51569 0
M  V30 2972 C 287.741 3.29895 -3.0576 0
M  V30 2973 C 289.06 4.23629 -1.19273 0
M  V30 2974 H 286.179 0.65727 -0.333414 0
M  V30 2975 H 288.821 1.26896 -1.41412 0
M  V30 2976 H 286.971 3.72889 -1.09023 0
M  V30 2977 H 288.643 2.91977 -3.57137 0
M  V30 2978 H 286.886 2.69163 -3.40197 0
M  V30 2979 H 287.557 4.32516 -3.42977 0
M  V30 2980 H 290.033 3.85727 -1.56057 0
M  V30 2981 H 288.909 5.23822 -1.64017 0
M  V30 2982 H 289.17 4.41968 -0.108068 0
M  V30 2983 N 288.23 0.939286 1.26551 0
M  V30 2984 C 289.162 0.404704 2.25599 0
M  V30 2985 C 290.175 -0.470983 1.55838 0
M  V30 2986 O 291.364 -0.281734 1.76263 0
M  V30 2987 C 288.464 -0.43764 3.36062 0
M  V30 2988 C 287.637 0.421449 4.35365 0
M  V30 2989 C 286.696 -0.36015 5.24966 0
M  V30 2990 O 285.722 0.236167 5.6871 0
M  V30 2991 N 286.924 -1.65715 5.56344 0
M  V30 2992 H 289.689 1.25618 2.72103 0
M  V30 2993 H 287.25 0.807963 1.40298 0
M  V30 2994 H 289.242 -0.967866 3.92956 0
M  V30 2995 H 287.812 -1.18991 2.89067 0
M  V30 2996 H 287.032 1.1329 3.7757 0
M  V30 2997 H 288.32 1.00835 4.98708 0
M  V30 2998 H 287.718 -2.16378 5.22682 0
M  V30 2999 H 286.275 -2.13366 6.15888 0
M  V30 3000 N 289.708 -1.40897 0.706093 0
M  V30 3001 C 290.638 -2.33418 0.0620085 0
M  V30 3002 C 291.619 -1.52385 -0.755827 0
M  V30 3003 O 292.804 -1.80886 -0.706674 0
M  V30 3004 C 289.934 -3.36293 -0.867445 0
M  V30 3005 C 288.888 -4.27716 -0.155932 0
M  V30 3006 C 288.214 -5.2105 -1.20046 0
M  V30 3007 C 289.514 -5.12944 0.984149 0
M  V30 3008 H 291.208 -2.87527 0.83477 0
M  V30 3009 H 288.754 -1.38249 0.402875 0
M  V30 3010 H 290.707 -3.99949 -1.32735 0
M  V30 3011 H 289.431 -2.80556 -1.67199 0
M  V30 3012 H 288.09 -3.65498 0.284047 0
M  V30 3013 H 287.738 -4.61624 -1.99781 0
M  V30 3014 H 287.438 -5.83056 -0.729328 0
M  V30 3015 H 288.962 -5.87584 -1.66066 0
M  V30 3016 H 290.376 -5.70109 0.604048 0
M  V30 3017 H 288.773 -5.83945 1.38304 0
M  V30 3018 H 289.843 -4.49485 1.81911 0
M  V30 3019 N 291.186 -0.45159 -1.50991 0
M  V30 3020 C 292.434 0.109857 -2.01801 0
M  V30 3021 C 292.755 1.41958 -1.3369 0
M  V30 3022 O 292.025 1.9003 -0.475951 0
M  V30 3023 H 290.605 0.0435884 -0.745727 0
M  V30 3024 H 293.267 -0.597557 -1.85514 0
M  V30 3025 H 292.363 0.275489 -3.10882 0
M  V30 3026 N 292.664 1.56529 -0.183458 0
M  V30 3027 C 293.91 1.97537 0.459036 0
M  V30 3028 C 294.243 1.06989 1.62071 0
M  V30 3029 O 293.518 0.11948 1.94133 0
M  V30 3030 C 293.801 3.47874 0.930368 0
M  V30 3031 C 293.654 4.492 -0.232317 0
M  V30 3032 C 294.973 4.01612 1.79989 0
M  V30 3033 H 292.092 0.718204 0.165383 0
M  V30 3034 H 294.734 1.88042 -0.272038 0
M  V30 3035 H 292.884 3.56095 1.55333 0
M  V30 3036 H 294.556 4.53027 -0.86972 0
M  V30 3037 H 292.799 4.24657 -0.885928 0
M  V30 3038 H 293.47 5.51823 0.139796 0
M  V30 3039 H 295.946 3.96097 1.27461 0
M  V30 3040 H 294.822 5.07195 2.09867 0
M  V30 3041 H 295.083 3.46163 2.74998 0
M  V30 3042 N 294.142 -0.090211 1.57342 0
M  V30 3043 C 295.367 -0.810082 1.90925 0
M  V30 3044 C 295.792 -1.71248 0.778187 0
M  V30 3045 O 295.15 -1.79278 -0.269991 0
M  V30 3046 C 295.198 -1.59529 3.23393 0
M  V30 3047 O 294.302 -2.70461 3.11327 0
M  V30 3048 H 293.643 -0.222231 0.625707 0
M  V30 3049 H 296.173 -0.0639716 2.045 0
M  V30 3050 H 296.183 -1.97847 3.5682 0
M  V30 3051 H 294.858 -0.933055 4.05299 0
M  V30 3052 H 293.435 -2.35135 2.89423 0
M  V30 3053 N 295.62 -1.53406 -0.361157 0
M  V30 3054 C 296.868 -1.69467 -1.10115 0
M  V30 3055 C 297.189 -0.451352 -1.89705 0
M  V30 3056 O 296.459 0.534636 -1.88463 0
M  V30 3057 H 295.039 -0.624749 -0.409508 0
M  V30 3058 H 297.701 -1.90609 -0.406699 0
M  V30 3059 H 296.797 -2.55774 -1.78847 0
M  V30 3060 N 297.098 0.621204 -1.44841 0
M  V30 3061 C 298.326 1.40752 -1.51646 0
M  V30 3062 C 298.741 1.88246 -0.144549 0
M  V30 3063 O 298.098 1.61422 0.851416 0
M  V30 3064 C 298.149 2.62119 -2.4895 0
M  V30 3065 O 297.87 2.16602 -3.80808 0
M  V30 3066 C 299.371 3.55135 -2.65319 0
M  V30 3067 H 296.591 0.431325 -0.514004 0
M  V30 3068 H 299.135 0.758835 -1.899 0
M  V30 3069 H 297.29 3.23058 -2.13805 0
M  V30 3070 H 297.704 2.95358 -4.33433 0
M  V30 3071 H 299.178 4.36874 -3.37409 0
M  V30 3072 H 299.655 4.04592 -1.70886 0
M  V30 3073 H 300.261 3.00058 -3.01405 0
M  V30 3074 N 298.576 1.31904 0.862503 0
M  V30 3075 C 299.987 1.19803 1.43193 0
M  V30 3076 C 300.338 -0.192567 1.95253 0
M  V30 3077 O 299.463 -1.09081 1.86896 0
M  V30 3078 C 300.058 2.16883 2.60283 0
M  V30 3079 C 298.617 2.08692 3.13248 0
M  V30 3080 C 297.764 2.05691 1.85975 0
M  V30 3081 H 300.715 1.43846 0.670365 0
M  V30 3082 H 300.736 1.76278 3.37204 0
M  V30 3083 H 300.248 3.18083 2.22363 0
M  V30 3084 H 298.349 1.10713 3.55771 0
M  V30 3085 H 298.462 2.9815 3.75025 0
M  V30 3086 H 296.826 1.50814 2.05249 0
M  V30 3087 H 297.609 3.08659 1.50282 0
M  V30 3088 N 300.054 -1.07777 1.14986 0
M  V30 3089 C 301.017 -2.13041 0.845358 0
M  V30 3090 C 302.017 -1.60071 -0.152931 0
M  V30 3091 O 303.207 -1.74033 0.0761879 0
M  V30 3092 C 300.339 -3.39896 0.261383 0
M  V30 3093 H 301.532 -2.41485 1.77834 0
M  V30 3094 H 299.085 -1.23595 0.956757 0
M  V30 3095 H 299.82 -3.17091 -0.68 0
M  V30 3096 H 299.605 -3.79642 0.980514 0
M  V30 3097 H 301.095 -4.17548 0.0657687 0
M  V30 3098 N 301.532 -0.945985 -1.26051 0
M  V30 3099 C 302.778 -0.597002 -1.93814 0
M  V30 3100 C 303.111 0.862484 -1.73997 0
M  V30 3101 O 302.386 1.61769 -1.07986 0
M  V30 3102 C 302.669 -0.945937 -3.47454 0
M  V30 3103 C 302.522 -2.46052 -3.76535 0
M  V30 3104 C 303.841 -0.464785 -4.37639 0
M  V30 3105 H 300.96 -0.218366 -0.703907 0
M  V30 3106 H 303.602 -1.18107 -1.48831 0
M  V30 3107 H 301.752 -0.448902 -3.85898 0
M  V30 3108 H 303.424 -3.03065 -3.47778 0
M  V30 3109 H 301.667 -2.90194 -3.22444 0
M  V30 3110 H 302.338 -2.65517 -4.83947 0
M  V30 3111 H 304.814 -0.891016 -4.06448 0
M  V30 3112 H 303.69 -0.737712 -5.4392 0
M  V30 3113 H 303.951 0.635274 -4.37512 0
M  V30 3114 N 303.011 1.40521 -0.713556 0
M  V30 3115 C 304.257 2.01221 -0.252564 0
M  V30 3116 C 304.59 1.56444 1.1506 0
M  V30 3117 O 303.865 0.783597 1.78017 0
M  V30 3118 C 304.148 3.58582 -0.330332 0
M  V30 3119 C 304.001 4.13437 -1.77173 0
M  V30 3120 C 305.32 4.39079 0.299641 0
M  V30 3121 H 302.439 0.731077 -0.0932471 0
M  V30 3122 H 305.081 1.67026 -0.905673 0
M  V30 3123 H 303.231 3.87844 0.225737 0
M  V30 3124 H 304.903 3.9498 -2.38303 0
M  V30 3125 H 303.146 3.67801 -2.3001 0
M  V30 3126 H 303.817 5.22597 -1.77755 0
M  V30 3127 H 306.293 4.15735 -0.174139 0
M  V30 3128 H 305.169 5.4848 0.214771 0
M  V30 3129 H 305.43 4.19915 1.38288 0
M  V30 3130 N 304.489 0.459591 1.5075 0
M  V30 3131 C 305.419 -0.330644 2.31147 0
M  V30 3132 C 306.4 -1.00087 1.37538 0
M  V30 3133 O 307.585 -1.00025 1.66459 0
M  V30 3134 C 304.715 -1.41958 3.16962 0
M  V30 3135 C 303.669 -0.871608 4.19031 0
M  V30 3136 C 302.995 -2.05797 4.9351 0
M  V30 3137 C 304.295 0.109251 5.22186 0
M  V30 3138 H 305.989 0.340336 2.97459 0
M  V30 3139 H 303.535 0.165119 1.4305 0
M  V30 3140 H 305.488 -1.9798 3.71997 0
M  V30 3141 H 304.212 -2.11917 2.48513 0
M  V30 3142 H 302.871 -0.333442 3.6508 0
M  V30 3143 H 302.519 -2.74427 4.21544 0
M  V30 3144 H 302.219 -1.6976 5.62544 0
M  V30 3145 H 303.743 -2.62331 5.51375 0
M  V30 3146 H 305.157 -0.361405 5.7216 0
M  V30 3147 H 303.554 0.383316 5.98875 0
M  V30 3148 H 304.624 1.03887 4.73641 0
M  V30 3149 N 305.967 -1.56429 0.191757 0
M  V30 3150 C 307.192 -2.02309 -0.456706 0
M  V30 3151 C 307.617 -1.07103 -1.5463 0
M  V30 3152 O 306.975 -0.0539677 -1.8122 0
M  V30 3153 C 307.023 -3.46654 -0.993159 0
M  V30 3154 O 306.127 -3.54559 -2.10622 0
M  V30 3155 H 305.468 -0.655303 -0.107114 0
M  V30 3156 H 307.998 -2.02364 0.301653 0
M  V30 3157 H 308.008 -3.86377 -1.31061 0
M  V30 3158 H 306.683 -4.1544 -0.195504 0
M  V30 3159 H 305.26 -3.26708 -1.79767 0
M  V30 3160 N 307.445 0.0818655 -1.57387 0
M  V30 3161 C 308.393 1.11712 -2.04018 0
M  V30 3162 C 309.387 1.40683 -0.94364 0
M  V30 3163 O 310.593 1.40209 -1.12878 0
M  V30 3164 H 306.968 0.377542 -0.650358 0
M  V30 3165 H 308.939 0.697614 -2.90131 0
M  V30 3166 C 307.688 2.42537 -2.49141 0
M  V30 3167 H 307.011 2.21092 -3.33104 0
M  V30 3168 H 308.451 3.13446 -2.85531 0
M  V30 3169 C 306.91 3.0778 -1.37014 0
M  V30 3170 O 307.44 3.95436 -0.706621 0
M  V30 3171 N 305.646 2.68242 -1.11779 0
M  V30 3172 H 305.193 1.97052 -1.65917 0
M  V30 3173 H 305.151 3.1222 -0.369594 0
M  V30 3174 N 308.923 1.53595 0.353017 0
M  V30 3175 C 310.171 1.70049 1.09215 0
M  V30 3176 C 310.492 0.461406 1.89463 0
M  V30 3177 O 309.762 -0.524633 1.88744 0
M  V30 3178 H 308.342 0.626912 0.40619 0
M  V30 3179 H 311.004 1.90822 0.396585 0
M  V30 3180 H 310.1 2.56718 1.77488 0
M  V30 3181 N 310.401 -0.613514 1.45168 0
M  V30 3182 C 311.629 -1.39946 1.5239 0
M  V30 3183 C 312.044 -1.88167 0.154531 0
M  V30 3184 O 311.401 -1.61872 -0.842843 0
M  V30 3185 C 311.452 -2.60795 2.50337 0
M  V30 3186 O 311.173 -2.1458 3.81952 0
M  V30 3187 C 312.674 -3.53723 2.67198 0
M  V30 3188 H 309.894 -0.428593 0.516284 0
M  V30 3189 H 312.438 -0.748753 1.903 0
M  V30 3190 H 310.593 -3.21919 2.15515 0
M  V30 3191 H 311.007 -2.93055 4.34993 0
M  V30 3192 H 312.481 -4.35079 3.39721 0
M  V30 3193 H 312.958 -4.0368 1.73029 0
M  V30 3194 H 313.564 -2.98456 3.02992 0
M  V30 3195 N 311.879 -1.3236 -0.855495 0
M  V30 3196 C 312.809 -1.23833 -1.97958 0
M  V30 3197 C 313.79 -0.122361 -1.69659 0
M  V30 3198 O 314.975 -0.30939 -1.9172 0
M  V30 3199 C 312.105 -0.959772 -3.33775 0
M  V30 3200 C 311.059 -2.03689 -3.76424 0
M  V30 3201 C 310.385 -1.61075 -5.09862 0
M  V30 3202 C 311.685 -3.4518 -3.9198 0
M  V30 3203 H 313.379 -2.1788 -2.0535 0
M  V30 3204 H 310.925 -1.04891 -0.986605 0
M  V30 3205 H 312.878 -0.886678 -4.11966 0
M  V30 3206 H 311.602 0.0163404 -3.26596 0
M  V30 3207 H 310.261 -2.10012 -3.00484 0
M  V30 3208 H 309.909 -0.622107 -4.99138 0
M  V30 3209 H 309.609 -2.33143 -5.39368 0
M  V30 3210 H 311.133 -1.55201 -5.90546 0
M  V30 3211 H 312.547 -3.4145 -4.60526 0
M  V30 3212 H 310.944 -4.1559 -4.32903 0
M  V30 3213 H 312.014 -3.84903 -2.94919 0
M  V30 3214 N 313.357 1.07166 -1.15556 0
M  V30 3215 C 314.603 1.80065 -0.932984 0
M  V30 3216 C 314.936 1.86586 0.53845 0
M  V30 3217 O 314.211 1.35098 1.39924 0
M  V30 3218 C 314.494 3.25022 -1.55025 0
M  V30 3219 C 314.347 3.26634 -3.09242 0
M  V30 3220 C 315.666 4.22341 -1.2376 0
M  V30 3221 H 312.785 0.653697 -0.340366 0
M  V30 3222 H 315.427 1.25389 -1.4275 0
M  V30 3223 H 313.577 3.71712 -1.12972 0
M  V30 3224 H 315.249 2.88173 -3.60214 0
M  V30 3225 H 313.492 2.65539 -3.43033 0
M  V30 3226 H 314.163 4.28854 -3.47546 0
M  V30 3227 H 316.639 3.8405 -1.60139 0
M  V30 3228 H 315.515 5.22053 -1.69564 0
M  V30 3229 H 315.776 4.41828 -0.154938 0
M  V30 3230 N 314.835 0.952656 1.25548 0
M  V30 3231 C 316.246 0.647392 1.75116 0
M  V30 3232 C 316.597 -0.837274 1.77438 0
M  V30 3233 O 315.722 -1.65525 1.39393 0
M  V30 3234 C 316.317 1.16845 3.18014 0
M  V30 3235 C 314.876 0.913382 3.6515 0
M  V30 3236 C 314.023 1.31265 2.44264 0
M  V30 3237 H 316.974 1.12968 1.11462 0
M  V30 3238 H 316.995 0.527606 3.76824 0
M  V30 3239 H 316.507 2.24902 3.16292 0
M  V30 3240 H 314.608 -0.152316 3.72289 0
M  V30 3241 H 314.721 1.54845 4.53387 0
M  V30 3242 H 313.085 0.731028 2.43984 0
M  V30 3243 H 313.868 2.40239 2.45234 0
M  V30 3244 N 316.313 -1.40141 0.720998 0
M  V30 3245 C 317.561 -2.0039 0.262323 0
M  V30 3246 C 317.882 -1.57469 -1.15015 0
M  V30 3247 O 317.152 -0.816582 -1.78069 0
M  V30 3248 H 315.732 -0.741063 0.093996 0
M  V30 3249 H 318.394 -1.71398 0.927835 0
M  V30 3250 H 317.49 -3.10658 0.299671 0
M  V30 3251 N 317.792 -0.46758 -1.50504 0
M  V30 3252 C 319.022 0.086288 -2.0642 0
M  V30 3253 C 319.43 1.34369 -1.33197 0
M  V30 3254 O 318.773 1.79431 -0.393747 0
M  V30 3255 C 318.835 0.443846 -3.5675 0
M  V30 3256 C 318.499 -0.711035 -4.51435 0
M  V30 3257 C 319.496 -1.59205 -4.94924 0
M  V30 3258 C 317.181 -0.900363 -4.94165 0
M  V30 3259 C 319.175 -2.64683 -5.79846 0
M  V30 3260 C 316.862 -1.95837 -5.7887 0
M  V30 3261 C 317.86 -2.82997 -6.21612 0
M  V30 3262 O 317.548 -3.86977 -7.0463 0
M  V30 3263 H 317.28 -0.00217814 -0.675996 0
M  V30 3264 H 319.834 -0.654346 -1.94698 0
M  V30 3265 H 318.064 1.23762 -3.6636 0
M  V30 3266 H 319.753 0.932386 -3.95046 0
M  V30 3267 H 320.519 -1.45745 -4.62583 0
M  V30 3268 H 316.398 -0.231427 -4.60419 0
M  V30 3269 H 319.942 -3.32745 -6.13128 0
M  V30 3270 H 315.839 -2.09305 -6.10624 0
M  V30 3271 H 316.607 -3.83923 -7.22873 0
M  V30 3272 N 319.27 1.56325 -0.20005 0
M  V30 3273 C 320.202 2.16555 0.750771 0
M  V30 3274 C 321.215 1.12871 1.1732 0
M  V30 3275 O 322.404 1.39943 1.10807 0
M  V30 3276 C 319.504 2.71684 2.02586 0
M  V30 3277 C 318.677 4.00321 1.76244 0
M  V30 3278 C 317.736 4.40227 2.88248 0
M  V30 3279 O 316.762 5.07552 2.57642 0
M  V30 3280 N 317.964 4.04138 4.16717 0
M  V30 3281 H 320.729 2.98772 0.235685 0
M  V30 3282 H 318.29 1.6189 -0.0182594 0
M  V30 3283 H 320.282 2.95363 2.76664 0
M  V30 3284 H 318.852 1.93893 2.45202 0
M  V30 3285 H 318.072 3.84723 0.85919 0
M  V30 3286 H 319.36 4.84279 1.56048 0
M  V30 3287 H 318.758 3.49993 4.44434 0
M  V30 3288 H 317.315 4.32756 4.87407 0
M  V30 3289 N 320.748 -0.0735177 1.57428 0
M  V30 3290 C 322.159 -0.625551 1.75908 0
M  V30 3291 C 322.51 -1.78 0.825261 0
M  V30 3292 O 321.635 -2.16398 0.00893964 0
M  V30 3293 C 322.23 -1.14155 3.18989 0
M  V30 3294 C 320.789 -1.63946 3.38819 0
M  V30 3295 C 319.936 -0.558151 2.71625 0
M  V30 3296 H 322.887 0.152647 1.57964 0
M  V30 3297 H 322.908 -2.0104 3.23053 0
M  V30 3298 H 322.42 -0.301116 3.8693 0
M  V30 3299 H 320.521 -2.50321 2.7599 0
M  V30 3300 H 320.634 -1.71759 4.47253 0
M  V30 3301 H 318.998 -1.00278 2.34129 0
M  V30 3302 H 319.781 0.272071 3.4222 0
M  V30 3303 N 322.226 -1.5378 -0.344866 0
M  V30 3304 C 323.637 -1.62428 -0.920552 0
M  V30 3305 C 323.988 -0.504747 -1.89596 0
M  V30 3306 O 323.113 0.365711 -2.13287 0
M  V30 3307 C 323.708 -2.94419 -1.67639 0
M  V30 3308 C 322.267 -3.05333 -2.20111 0
M  V30 3309 C 321.414 -2.57866 -1.01982 0
M  V30 3310 H 324.365 -1.58222 -0.123042 0
M  V30 3311 H 324.386 -2.83384 -2.53917 0
M  V30 3312 H 323.898 -3.7588 -0.966224 0
M  V30 3313 H 321.999 -2.28502 -2.94308 0
M  V30 3314 H 322.112 -4.10778 -2.46573 0
M  V30 3315 H 320.476 -2.13241 -1.39285 0
M  V30 3316 H 321.259 -3.41765 -0.324308 0
M  V30 3317 N 323.704 0.605807 -1.45491 0
M  V30 3318 C 324.651 1.7164 -1.54299 0
M  V30 3319 C 325.621 1.61486 -0.388761 0
M  V30 3320 O 326.806 1.81039 -0.602445 0
M  V30 3321 C 323.946 3.09953 -1.51734 0
M  V30 3322 C 323.059 3.309 -2.77721 0
M  V30 3323 C 322.194 4.59329 -2.66816 0
M  V30 3324 C 321.233 4.7354 -3.87848 0
M  V30 3325 N 320.37 5.9327 -3.75467 0
M  V30 3326 H 325.21 1.63449 -2.49176 0
M  V30 3327 H 322.747 0.796957 -1.23641 0
M  V30 3328 H 324.705 3.89977 -1.48235 0
M  V30 3329 H 323.335 3.17098 -0.604068 0
M  V30 3330 H 322.387 2.44639 -2.913 0
M  V30 3331 H 323.699 3.37274 -3.67488 0
M  V30 3332 H 322.853 5.4755 -2.61292 0
M  V30 3333 H 321.592 4.55355 -1.74651 0
M  V30 3334 H 320.597 3.83741 -3.93729 0
M  V30 3335 H 321.822 4.79309 -4.81082 0
M  V30 3336 H 319.768 5.90338 -2.86072 0
M  V30 3337 H 319.685 6.00811 -4.5887 0
M  V30 3338 H 320.953 6.83984 -3.73879 0
M  V30 3339 N 325.182 1.32811 0.848464 0
M  V30 3340 C 326.092 1.24278 1.98978 0
M  V30 3341 C 327.108 0.155176 1.73307 0
M  V30 3342 O 328.284 0.376999 1.9784 0
M  V30 3343 C 325.349 0.972444 3.32783 0
M  V30 3344 C 324.41 2.14911 3.71634 0
M  V30 3345 C 323.643 1.89157 4.99054 0
M  V30 3346 O 323.866 0.837165 5.64223 0
M  V30 3347 O 322.8 2.75433 5.35183 0
M  V30 3348 H 326.626 2.20238 2.09115 0
M  V30 3349 H 324.211 1.12762 0.980052 0
M  V30 3350 H 326.093 0.838432 4.12975 0
M  V30 3351 H 324.768 0.043051 3.23671 0
M  V30 3352 H 323.675 2.33862 2.91992 0
M  V30 3353 H 325.008 3.06151 3.85399 0
M  V30 3354 N 326.66 -1.06551 1.16123 0
M  V30 3355 C 327.593 -2.13382 0.80892 0
M  V30 3356 C 328.571 -1.61128 -0.21827 0
M  V30 3357 O 329.755 -1.88219 -0.102952 0
M  V30 3358 C 326.882 -3.38083 0.204303 0
M  V30 3359 C 325.928 -4.09133 1.20469 0
M  V30 3360 S 326.761 -4.5948 2.75024 0
M  V30 3361 C 327.917 -5.87446 2.16005 0
M  V30 3362 H 328.15 -2.42937 1.71373 0
M  V30 3363 H 325.683 -1.18947 0.984428 0
M  V30 3364 H 327.641 -4.10268 -0.138081 0
M  V30 3365 H 326.302 -3.0669 -0.678234 0
M  V30 3366 H 325.495 -4.98685 0.730019 0
M  V30 3367 H 325.097 -3.4295 1.49202 0
M  V30 3368 H 327.389 -6.60065 1.5271 0
M  V30 3369 H 328.332 -6.39639 3.03756 0
M  V30 3370 H 328.74 -5.41354 1.59989 0
M  V30 3371 N 328.138 -0.959301 -1.25041 0
M  V30 3372 C 329.085 -0.482057 -2.2571 0
M  V30 3373 C 330.055 0.467939 -1.59372 0
M  V30 3374 O 331.24 0.380159 -1.86974 0
M  V30 3375 C 328.38 0.229623 -3.44335 0
M  V30 3376 C 327.493 -0.758156 -4.25295 0
M  V30 3377 C 326.628 -0.0234403 -5.31195 0
M  V30 3378 C 325.667 -1.00184 -6.03846 0
M  V30 3379 N 324.804 -0.29769 -7.01469 0
M  V30 3380 H 329.644 -1.34538 -2.65901 0
M  V30 3381 H 327.181 -0.674592 -1.3072 0
M  V30 3382 H 329.139 0.658856 -4.11965 0
M  V30 3383 H 327.769 1.05696 -3.05005 0
M  V30 3384 H 326.821 -1.30586 -3.57284 0
M  V30 3385 H 328.133 -1.50458 -4.75567 0
M  V30 3386 H 327.287 0.464201 -6.04922 0
M  V30 3387 H 326.026 0.755741 -4.81809 0
M  V30 3388 H 325.031 -1.50044 -5.2893 0
M  V30 3389 H 326.256 -1.78133 -6.55321 0
M  V30 3390 H 324.202 0.462668 -6.54366 0
M  V30 3391 H 324.119 -0.983128 -7.4958 0
M  V30 3392 H 325.387 0.16826 -7.79318 0
M  V30 3393 N 329.616 1.39756 -0.72842 0
M  V30 3394 C 330.526 2.34444 -0.0855374 0
M  V30 3395 C 331.542 1.57976 0.729356 0
M  V30 3396 O 332.718 1.90301 0.659346 0
M  V30 3397 C 329.783 3.36965 0.815798 0
M  V30 3398 C 328.844 4.29299 -0.0105996 0
M  V30 3399 C 328.077 5.26923 0.84781 0
M  V30 3400 O 328.3 5.30859 2.08673 0
M  V30 3401 O 327.234 6.01249 0.279969 0
M  V30 3402 H 331.06 2.91065 -0.866892 0
M  V30 3403 H 328.645 1.4117 -0.48902 0
M  V30 3404 H 330.527 3.99804 1.33171 0
M  V30 3405 H 329.202 2.82739 1.57608 0
M  V30 3406 H 328.109 3.69703 -0.571877 0
M  V30 3407 H 329.442 4.86712 -0.73295 0
M  V30 3408 N 331.094 0.475555 1.50254 0
M  V30 3409 C 332.341 -0.0778919 2.0235 0
M  V30 3410 C 332.669 -1.39319 1.35722 0
M  V30 3411 O 331.924 -1.89888 0.473395 0
M  V30 3412 C 332.223 -0.305114 3.56095 0
M  V30 3413 C 331.889 0.92903 4.41225 0
M  V30 3414 C 330.551 1.26739 4.6421 0
M  V30 3415 C 332.903 1.75054 4.90923 0
M  V30 3416 C 330.231 2.42724 5.34137 0
M  V30 3417 C 332.583 2.9017 5.62125 0
M  V30 3418 C 331.247 3.24416 5.83362 0
M  V30 3419 H 330.517 -0.0285027 0.740452 0
M  V30 3420 H 333.164 0.630543 1.80821 0
M  V30 3421 H 331.469 -1.09584 3.76163 0
M  V30 3422 H 333.166 -0.747377 3.93974 0
M  V30 3423 H 329.756 0.655428 4.23559 0
M  V30 3424 H 333.94 1.50231 4.73016 0
M  V30 3425 H 329.196 2.69525 5.48786 0
M  V30 3426 H 333.37 3.54169 5.99614 0
M  V30 3427 H 330.997 4.14396 6.37323 0
M  V30 3428 N 332.573 -1.56217 0.208337 0
M  V30 3429 C 333.503 -2.22694 -0.702116 0
M  V30 3430 C 334.484 -1.19432 -1.2112 0
M  V30 3431 O 335.669 -1.47978 -1.25762 0
M  V30 3432 C 332.799 -2.8966 -1.9161 0
M  V30 3433 C 331.753 -3.9928 -1.5414 0
M  V30 3434 C 331.079 -4.53476 -2.83308 0
M  V30 3435 C 332.379 -5.17012 -0.741339 0
M  V30 3436 H 334.073 -2.99034 -0.147898 0
M  V30 3437 H 331.619 -1.43831 -0.0696951 0
M  V30 3438 H 333.572 -3.34852 -2.55836 0
M  V30 3439 H 332.296 -2.10746 -2.49507 0
M  V30 3440 H 330.955 -3.54799 -0.922668 0
M  V30 3441 H 330.603 -3.71308 -3.39322 0
M  V30 3442 H 330.303 -5.27451 -2.58976 0
M  V30 3443 H 331.827 -5.01378 -3.485 0
M  V30 3444 H 333.241 -5.58667 -1.28699 0
M  V30 3445 H 331.638 -5.97137 -0.595627 0
M  V30 3446 H 332.708 -4.8423 0.254851 0
M  V30 3447 N 334.051 0.0651679 -1.57465 0
M  V30 3448 C 335.328 0.79644 -1.78651 0
M  V30 3449 C 335.708 1.95454 -0.797566 0
M  V30 3450 O 335.056 2.27882 0.167946 0
M  V30 3451 C 335.266 1.26322 -3.25337 0
M  V30 3452 C 336.614 1.6939 -3.89348 0
M  V30 3453 O 337.638 1.35872 -3.29268 0
M  V30 3454 O 336.497 2.31471 -4.95059 0
M  V30 3455 H 333.591 0.382157 -0.733407 0
M  V30 3456 H 336.137 0.0447311 -1.69641 0
M  V30 3457 H 334.909 0.434859 -3.88876 0
M  V30 3458 H 334.532 2.07604 -3.39096 0
M  V30 3459 N 335.529 1.53961 0.336706 0
M  V30 3460 C 336.439 1.85432 1.43708 0
M  V30 3461 C 337.455 0.745053 1.57242 0
M  V30 3462 O 338.631 1.03804 1.72588 0
M  V30 3463 C 335.696 2.06349 2.78605 0
M  V30 3464 C 334.757 3.30191 2.74358 0
M  V30 3465 C 333.99 3.50101 4.02822 0
M  V30 3466 O 334.213 2.7371 5.00439 0
M  V30 3467 O 333.147 4.43547 4.06878 0
M  V30 3468 H 336.973 2.78975 1.20028 0
M  V30 3469 H 334.558 1.39701 0.52952 0
M  V30 3470 H 336.44 2.21513 3.58483 0
M  V30 3471 H 335.115 1.15995 3.02203 0
M  V30 3472 H 334.022 3.20425 1.93078 0
M  V30 3473 H 335.355 4.2056 2.55715 0
M  V30 3474 N 337.007 -0.598083 1.45811 0
M  V30 3475 C 337.957 -1.70272 1.51629 0
M  V30 3476 C 338.941 -1.56382 0.378629 0
M  V30 3477 O 340.133 -1.65557 0.626087 0
M  V30 3478 C 337.262 -3.09042 1.49493 0
M  V30 3479 C 336.348 -3.28284 2.68496 0
M  V30 3480 N 336.739 -3.17748 3.93535 0
M  V30 3481 C 335.037 -3.59182 2.64394 0
M  V30 3482 C 335.738 -3.38579 4.7301 0
M  V30 3483 N 334.714 -3.63016 4.04624 0
M  V30 3484 H 338.516 -1.60634 2.46118 0
M  V30 3485 H 336.03 -0.801642 1.41235 0
M  V30 3486 H 338.027 -3.88302 1.51747 0
M  V30 3487 H 336.687 -3.19823 0.560683 0
M  V30 3488 H 337.698 -2.95944 4.25014 0
M  V30 3489 H 334.375 -3.76742 1.79922 0
M  V30 3490 H 335.765 -3.35747 5.82 0
M  V30 3491 N 338.485 -1.33259 -0.841409 0
M  V30 3492 C 339.417 -1.19136 -1.95804 0
M  V30 3493 C 340.43 -0.122965 -1.62335 0
M  V30 3494 O 341.619 -0.373154 -1.74556 0
M  V30 3495 C 338.719 -0.804268 -3.29218 0
M  V30 3496 C 337.892 -1.96376 -3.90839 0
M  V30 3497 C 336.951 -1.55806 -5.02604 0
M  V30 3498 O 335.977 -2.27203 -5.21888 0
M  V30 3499 N 337.179 -0.461609 -5.78662 0
M  V30 3500 H 339.944 -2.15326 -2.08458 0
M  V30 3501 H 337.505 -1.25971 -1.017 0
M  V30 3502 H 339.497 -0.51501 -4.0141 0
M  V30 3503 H 338.067 0.0668809 -3.12528 0
M  V30 3504 H 337.287 -2.41879 -3.11269 0
M  V30 3505 H 338.575 -2.73966 -4.28742 0
M  V30 3506 H 337.973 0.132343 -5.65545 0
M  V30 3507 H 336.53 -0.232013 -6.51387 0
M  V30 3508 N 339.963 1.05934 -1.16686 0
M  V30 3509 C 340.91 2.13499 -0.876748 0
M  V30 3510 C 341.88 1.65162 0.176299 0
M  V30 3511 O 343.065 1.90757 0.0407143 0
M  V30 3512 C 340.205 3.42912 -0.387967 0
M  V30 3513 C 339.318 4.04964 -1.50426 0
M  V30 3514 C 338.453 5.22266 -0.970125 0
M  V30 3515 C 337.492 5.76309 -2.06238 0
M  V30 3516 N 336.629 6.84922 -1.54356 0
M  V30 3517 H 341.469 2.37654 -1.7979 0
M  V30 3518 H 339.006 1.16598 -0.896843 0
M  V30 3519 H 340.964 4.17111 -0.086186 0
M  V30 3520 H 339.594 3.18963 0.496235 0
M  V30 3521 H 338.646 3.28277 -1.92193 0
M  V30 3522 H 339.958 4.41122 -2.32836 0
M  V30 3523 H 339.112 6.03506 -0.621743 0
M  V30 3524 H 337.851 4.87564 -0.115377 0
M  V30 3525 H 336.856 4.93704 -2.41942 0
M  V30 3526 H 338.081 6.13062 -2.92115 0
M  V30 3527 H 336.027 6.52131 -0.711406 0
M  V30 3528 H 335.944 7.20043 -2.30379 0
M  V30 3529 H 337.212 7.69832 -1.22387 0
M  V30 3530 N 341.441 0.965919 1.2453 0
M  V30 3531 C 342.374 0.4393 2.23932 0
M  V30 3532 C 343.352 -0.485615 1.55179 0
M  V30 3533 O 344.536 -0.417402 1.83821 0
M  V30 3534 C 341.663 -0.366042 3.36716 0
M  V30 3535 C 340.709 0.5009 4.23548 0
M  V30 3536 S 341.542 1.94002 4.99123 0
M  V30 3537 C 342.698 1.14342 6.15367 0
M  V30 3538 H 342.931 1.28167 2.68254 0
M  V30 3539 H 340.464 0.770819 1.33782 0
M  V30 3540 H 342.422 -0.824724 4.0213 0
M  V30 3541 H 341.083 -1.18337 2.90956 0
M  V30 3542 H 340.276 -0.117341 5.03863 0
M  V30 3543 H 339.878 0.89524 3.63127 0
M  V30 3544 H 342.17 0.397572 6.76332 0
M  V30 3545 H 343.113 1.92089 6.81548 0
M  V30 3546 H 343.521 0.668579 5.60527 0
M  V30 3547 N 342.919 -1.39368 0.735821 0
M  V30 3548 C 344.147 -2.04795 0.294393 0
M  V30 3549 C 344.562 -1.55478 -1.07107 0
M  V30 3550 O 343.919 -0.720038 -1.67695 0
M  V30 3551 C 343.97 -3.6035 0.288071 0
M  V30 3552 O 343.691 -4.07852 1.59963 0
M  V30 3553 C 345.192 -4.42976 -0.169422 0
M  V30 3554 H 342.412 -0.658571 0.128551 0
M  V30 3555 H 344.956 -1.78399 0.999701 0
M  V30 3556 H 343.111 -3.85645 -0.368355 0
M  V30 3557 H 343.525 -5.02181 1.51375 0
M  V30 3558 H 344.999 -5.51864 -0.122687 0
M  V30 3559 H 345.476 -4.22068 -1.21472 0
M  V30 3560 H 346.082 -4.22832 0.457469 0
M  V30 3561 N 344.397 -0.483516 -1.5 0
M  V30 3562 C 345.622 0.0667119 -2.07293 0
M  V30 3563 C 346.047 1.3164 -1.3436 0
M  V30 3564 O 345.405 1.76945 -0.394987 0
M  V30 3565 C 345.453 0.321126 -3.59167 0
M  V30 3566 O 344.557 1.39927 -3.87936 0
M  V30 3567 H 343.898 -0.0184758 -0.663743 0
M  V30 3568 H 346.428 -0.678125 -1.93035 0
M  V30 3569 H 346.438 0.557906 -4.04168 0
M  V30 3570 H 345.113 -0.592007 -4.11665 0
M  V30 3571 H 343.69 1.14882 -3.54763 0
M  V30 3572 N 345.875 1.56104 -0.216619 0
M  V30 3573 C 347.123 1.97781 0.415593 0
M  V30 3574 C 347.444 1.10536 1.60645 0
M  V30 3575 O 346.714 0.181303 1.95059 0
M  V30 3576 H 345.294 0.730415 0.156534 0
M  V30 3577 H 347.956 1.92445 -0.308366 0
M  V30 3578 H 347.052 3.03072 0.74525 0
M  V30 3579 N 347.353 -0.0568162 1.57498 0
M  V30 3580 C 348.3 -1.06591 2.04712 0
M  V30 3581 C 349.27 -1.3758 0.930644 0
M  V30 3582 O 350.455 -1.48392 1.19935 0
M  V30 3583 C 347.595 -2.3701 2.50839 0
M  V30 3584 C 346.708 -2.12421 3.76167 0
M  V30 3585 C 345.843 -3.36511 4.11015 0
M  V30 3586 C 344.882 -3.07353 5.2934 0
M  V30 3587 N 344.019 -4.23816 5.59754 0
M  V30 3588 H 348.859 -0.65631 2.90683 0
M  V30 3589 H 346.396 -0.312481 1.43743 0
M  V30 3590 H 348.354 -3.13175 2.7564 0
M  V30 3591 H 346.984 -2.75744 1.67825 0
M  V30 3592 H 346.036 -1.2688 3.58616 0
M  V30 3593 H 347.348 -1.86894 4.62463 0
M  V30 3594 H 346.502 -4.21062 4.36797 0
M  V30 3595 H 345.241 -3.65128 3.23315 0
M  V30 3596 H 344.246 -2.212 5.03339 0
M  V30 3597 H 345.471 -2.80043 6.1867 0
M  V30 3598 H 343.417 -4.52436 4.75014 0
M  V30 3599 H 343.334 -4.01614 6.40501 0
M  V30 3600 H 344.602 -5.0932 5.90096 0
M  V30 3601 O 348.87 -1.60255 -0.200168 0
M  V30 3602 H 349.561 -1.74563 -0.839496 0
M  V30 END ATOM
M  V30 BEGIN BOND
M  V30 END BOND
M  V30 END CTAB
M  END
$$$$
