drugbank_target|P60339 Elongation factor Tu-B (DB04124; DB04315)
 OpenBabel12092119593D

  0  0  0     0  0            999 V3000
M  V30 BEGIN CTAB
M  V30 COUNTS 6313 6374 0 0 0
M  V30 BEGIN ATOM
M  V30 1 H -0.908 1.98254 -0.117106 0
M  V30 2 N 0 1.576 0 0
M  V30 3 C 0.933 2.03868 1.02534 0
M  V30 4 C 1.911 0.928543 1.3348 0
M  V30 5 O 3.095 1.19667 1.45644 0
M  V30 6 C 0.222 2.43627 2.35294 0
M  V30 7 C -0.732 3.65373 2.2001 0
M  V30 8 S 0.101 5.13292 1.52614 0
M  V30 9 C 1.257 5.56322 2.86805 0
M  V30 10 H 1.49 2.90518 0.631377 0
M  V30 11 H -0.977 1.52953 0.210867 0
M  V30 12 H 0.981 2.67203 3.11629 0
M  V30 13 H -0.358 1.57376 2.7183 0
M  V30 14 H -1.165 3.90944 3.18086 0
M  V30 15 H -1.563 3.418 1.51819 0
M  V30 16 H 0.729 5.58782 3.83104 0
M  V30 17 H 1.672 6.56266 2.65933 0
M  V30 18 H 2.08 4.83886 2.90714 0
M  V30 19 N 1.4781 -0.272755 1.55222 0
M  V30 20 C 2.4411 -1.32041 1.87344 0
M  V30 21 C 3.4411 -1.42342 0.74803 0
M  V30 22 O 4.6311 -1.41488 1.0162 0
M  V30 23 C 1.7631 -2.70173 2.07893 0
M  V30 24 H 2.9561 -1.04789 2.80997 0
M  V30 25 H 0.5091 -0.51083 1.47717 0
M  V30 26 H 1.2441 -3.02605 1.16622 0
M  V30 27 H 1.0291 -2.64082 2.89833 0
M  V30 28 H 2.5191 -3.45869 2.34017 0
M  V30 29 N 2.9562 -1.48159 -0.537278 0
M  V30 30 C 3.9032 -1.62138 -1.64256 0
M  V30 31 C 4.8732 -0.463668 -1.59497 0
M  V30 32 O 6.0582 -0.686241 -1.78032 0
M  V30 33 C 3.1982 -1.66028 -3.02537 0
M  V30 34 C 2.3112 -2.92855 -3.17585 0
M  V30 35 C 1.4462 -2.87952 -4.46382 0
M  V30 36 C 0.4852 -4.09516 -4.54932 0
M  V30 37 N -0.3778 -4.02733 -5.75109 0
M  V30 38 H 4.4622 -2.56529 -1.51647 0
M  V30 39 H 1.9992 -1.27224 -0.738414 0
M  V30 40 H 3.9572 -1.66265 -3.82638 0
M  V30 41 H 2.5872 -0.751331 -3.13934 0
M  V30 42 H 1.6392 -3.02395 -2.30784 0
M  V30 43 H 2.9512 -3.82822 -3.19764 0
M  V30 44 H 2.1052 -2.8655 -5.34765 0
M  V30 45 H 0.8442 -1.95702 -4.46712 0
M  V30 46 H -0.1508 -4.11201 -3.64957 0
M  V30 47 H 1.0742 -5.02917 -4.56346 0
M  V30 48 H -0.9798 -3.13299 -5.76351 0
M  V30 49 H -1.0628 -4.86397 -5.78752 0
M  V30 50 H 0.2052 -4.05379 -6.65799 0
M  V30 51 N 4.4343 0.785586 -1.36625 0
M  V30 52 C 5.6823 1.54057 -1.30808 0
M  V30 53 C 6.0033 1.94683 0.111157 0
M  V30 54 O 5.2733 1.65241 1.05224 0
M  V30 55 H 3.8533 0.571354 -0.481211 0
M  V30 56 H 6.5153 0.935821 -1.70963 0
M  V30 57 H 5.6113 2.44637 -1.93801 0
M  V30 58 N 5.9124 1.20967 1.01018 0
M  V30 59 C 6.8224 0.980157 2.13143 0
M  V30 60 C 7.8384 -0.0660665 1.73875 0
M  V30 61 O 9.0144 0.122821 2.01025 0
M  V30 62 C 6.0794 0.54216 3.42435 0
M  V30 63 C 5.1404 1.65999 3.95908 0
M  V30 64 C 4.3734 1.2428 5.19028 0
M  V30 65 O 4.5964 0.114196 5.70286 0
M  V30 66 O 3.5304 2.05271 5.65816 0
M  V30 67 H 7.3564 1.91913 2.35379 0
M  V30 68 H 4.9414 0.994099 1.11526 0
M  V30 69 H 6.8234 0.30744 4.20277 0
M  V30 70 H 5.4984 -0.36815 3.216 0
M  V30 71 H 4.4054 1.94906 3.19316 0
M  V30 72 H 5.7384 2.54753 4.21143 0
M  V30 73 N 7.3905 -1.2043 1.01659 0
M  V30 74 C 8.6375 -1.89797 0.705917 0
M  V30 75 C 8.9655 -1.78848 -0.764439 0
M  V30 76 O 8.2205 -1.16694 -1.57102 0
M  V30 77 C 8.5195 -3.40464 1.08714 0
M  V30 78 C 8.1855 -3.71614 2.5537 0
M  V30 79 C 6.8475 -3.79826 2.95441 0
M  V30 80 C 9.1995 -3.85915 3.50313 0
M  V30 81 C 6.5275 -3.99797 4.29394 0
M  V30 82 C 8.8795 -4.07396 4.83954 0
M  V30 83 C 7.5435 -4.13837 5.23732 0
M  V30 84 H 6.8135 -0.694518 0.258313 0
M  V30 85 H 9.4605 -1.42691 1.27717 0
M  V30 86 H 7.7655 -3.89385 0.434309 0
M  V30 87 H 9.4625 -3.92433 0.824461 0
M  V30 88 H 6.0525 -3.65822 2.23321 0
M  V30 89 H 10.2365 -3.78926 3.20513 0
M  V30 90 H 5.4925 -4.03018 4.59768 0
M  V30 91 H 9.6665 -4.17404 5.57447 0
M  V30 92 H 7.2935 -4.29064 6.27541 0
M  V30 93 N 8.8686 -0.792821 -1.36206 0
M  V30 94 C 10.1176 -0.363353 -1.984 0
M  V30 95 C 10.4306 1.07172 -1.63626 0
M  V30 96 O 11.6366 1.60362 -2.19081 0
M  V30 97 C 10.0926 -0.59872 -3.54885 0
M  V30 98 C 9.7006 -2.04543 -3.9858 0
M  V30 99 C 11.4446 -0.233926 -4.23855 0
M  V30 100 C 9.3516 -2.22727 -5.47856 0
M  V30 101 H 8.2816 -0.13212 -0.742334 0
M  V30 102 H 10.9326 -0.974935 -1.55458 0
M  V30 103 H 9.3146 0.0826222 -3.95914 0
M  V30 104 H 10.4886 -2.76345 -3.68741 0
M  V30 105 H 8.8036 -2.36879 -3.42458 0
M  V30 106 H 11.4006 -0.348027 -5.33566 0
M  V30 107 H 11.7436 0.818351 -4.08177 0
M  V30 108 H 12.2766 -0.868639 -3.882 0
M  V30 109 H 9.0156 -3.2635 -5.68486 0
M  V30 110 H 8.5356 -1.55434 -5.7931 0
M  V30 111 H 10.2146 -2.03607 -6.14128 0
M  V30 112 N 10.3467 1.47872 -0.545128 0
M  V30 113 C 11.7627 1.5829 -0.204032 0
M  V30 114 C 11.9627 1.54529 1.29317 0
M  V30 115 O 11.0187 1.44232 2.07252 0
M  V30 116 C 12.3317 2.89304 -0.819987 0
M  V30 117 C 13.8797 3.02864 -0.790105 0
M  V30 118 C 14.3547 4.3656 -1.38491 0
M  V30 119 N 15.8457 4.43165 -1.34755 0
M  V30 120 C 16.5807 5.45153 -1.77753 0
M  V30 121 N 16.0767 6.54016 -2.2855 0
M  V30 122 N 17.8697 5.36125 -1.68897 0
M  V30 123 H 10.0207 1.4856 -1.51802 0
M  V30 124 H 12.2837 0.706305 -0.632327 0
M  V30 125 H 11.9897 2.97757 -1.87173 0
M  V30 126 H 11.8637 3.75957 -0.305915 0
M  V30 127 H 14.2507 2.94014 0.252913 0
M  V30 128 H 14.3317 2.17782 -1.34181 0
M  V30 129 H 13.9757 4.46164 -2.42693 0
M  V30 130 H 13.9057 5.20353 -0.808754 0
M  V30 131 H 16.3967 3.65083 -0.975855 0
M  V30 132 H 16.7097 7.27994 -2.59314 0
M  V30 133 H 15.0547 6.54938 -2.32553 0
M  V30 134 H 18.2457 4.49975 -1.28998 0
M  V30 135 H 18.4187 6.15472 -2.02726 0
M  V30 136 N 11.8248 0.280983 1.55075 0
M  V30 137 C 13.0528 -0.337293 2.04132 0
M  V30 138 C 13.4678 -1.4903 1.15912 0
M  V30 139 O 12.8248 -1.81606 0.180459 0
M  V30 140 C 12.8758 -0.812706 3.52246 0
M  V30 141 O 12.5968 0.294387 4.3711 0
M  V30 142 C 14.0978 -1.4982 4.17216 0
M  V30 143 H 11.3178 -0.0761638 0.666663 0
M  V30 144 H 13.8618 0.414787 2.00249 0
M  V30 145 H 12.0168 -1.51486 3.56554 0
M  V30 146 H 12.4308 -0.0721325 5.2445 0
M  V30 147 H 13.9048 -1.7822 5.22438 0
M  V30 148 H 14.3818 -2.43168 3.65741 0
M  V30 149 H 14.9878 -0.839742 4.16927 0
M  V30 150 N 13.3029 -1.57598 0.00835791 0
M  V30 151 C 14.2499 -2.08945 -0.980346 0
M  V30 152 C 15.2199 -0.986738 -1.33614 0
M  V30 153 O 16.4049 -1.25968 -1.43306 0
M  V30 154 C 13.5449 -2.60425 -2.26435 0
M  V30 155 C 12.6579 -3.84628 -1.96685 0
M  V30 156 C 11.7929 -4.24579 -3.19228 0
M  V30 157 C 10.8319 -5.41596 -2.85202 0
M  V30 158 N 9.9689 -5.768 -4.00307 0
M  V30 159 H 14.8089 -2.93148 -0.535551 0
M  V30 160 H 12.3459 -1.44912 -0.252776 0
M  V30 161 H 14.3039 -2.88354 -3.01509 0
M  V30 162 H 12.9339 -1.79083 -2.68568 0
M  V30 163 H 11.9859 -3.63556 -1.11942 0
M  V30 164 H 13.2979 -4.69796 -1.67611 0
M  V30 165 H 12.4519 -4.53834 -4.02641 0
M  V30 166 H 11.1909 -3.38137 -3.51447 0
M  V30 167 H 10.1959 -5.12056 -2.00198 0
M  V30 168 H 11.4209 -6.29721 -2.54222 0
M  V30 169 H 9.3669 -4.93316 -4.32407 0
M  V30 170 H 9.2839 -6.5656 -3.74786 0
M  V30 171 H 10.5519 -6.10652 -4.84484 0
M  V30 172 N 14.781 0.264519 -1.55364 0
M  V30 173 C 16.192 0.834936 -1.6699 0
M  V30 174 C 16.543 1.86718 -0.602552 0
M  V30 175 O 15.668 2.14899 0.254425 0
M  V30 176 C 16.263 1.5212 -3.02729 0
M  V30 177 C 14.822 2.03954 -3.16354 0
M  V30 178 C 13.969 0.884498 -2.62815 0
M  V30 179 H 16.92 0.0406869 -1.58648 0
M  V30 180 H 16.941 2.38853 -2.96191 0
M  V30 181 H 16.453 0.769668 -3.80392 0
M  V30 182 H 14.554 2.82041 -2.43482 0
M  V30 183 H 14.667 2.24902 -4.23032 0
M  V30 184 H 13.031 1.2802 -2.20188 0
M  V30 185 H 13.814 0.14634 -3.42988 0
M  V30 186 N 16.2591 1.48442 0.529413 0
M  V30 187 C 17.2091 1.59407 1.63014 0
M  V30 188 C 18.1931 0.451166 1.54445 0
M  V30 189 O 19.3851 0.702635 1.62456 0
M  V30 190 C 16.5141 1.63746 3.01732 0
M  V30 191 C 15.6001 2.83518 3.15402 0
M  V30 192 N 15.9911 4.07929 2.99045 0
M  V30 193 C 14.2891 2.80862 3.46457 0
M  V30 194 C 14.9901 4.8829 3.16146 0
M  V30 195 N 13.9661 4.21117 3.43746 0
M  V30 196 H 17.7681 2.53343 1.48978 0
M  V30 197 H 15.2821 1.44821 0.734885 0
M  V30 198 H 17.2791 1.69695 3.80801 0
M  V30 199 H 15.9391 0.709264 3.16859 0
M  V30 200 H 16.9501 4.38357 2.75796 0
M  V30 201 H 13.6271 1.97301 3.67938 0
M  V30 202 H 15.0171 5.97028 3.08232 0
M  V30 203 N 17.7372 -0.778329 1.37039 0
M  V30 204 C 18.9832 -1.53892 1.32079 0
M  V30 205 C 19.3162 -1.9396 -0.0965386 0
M  V30 206 O 18.5912 -1.63568 -1.05242 0
M  V30 207 C 18.8742 -2.80847 2.25382 0
M  V30 208 C 18.7272 -2.47076 3.75864 0
M  V30 209 C 20.0462 -3.82741 2.1725 0
M  V30 210 H 17.1652 -0.558303 0.48111 0
M  V30 211 H 19.8072 -0.893397 1.67685 0
M  V30 212 H 17.9572 -3.35931 1.95148 0
M  V30 213 H 19.6292 -1.97957 4.16666 0
M  V30 214 H 17.8722 -1.79863 3.94755 0
M  V30 215 H 18.5432 -3.37798 4.36574 0
M  V30 216 H 21.0192 -3.37133 2.43887 0
M  V30 217 H 19.8952 -4.69303 2.84686 0
M  V30 218 H 20.1562 -4.2652 1.16331 0
M  V30 219 N 19.2153 -1.21501 -1.00376 0
M  V30 220 C 20.1633 -0.972442 -2.11297 0
M  V30 221 C 21.1573 0.080731 -1.69208 0
M  V30 222 O 22.3633 -0.0707666 -1.79861 0
M  V30 223 H 18.7383 -0.297218 -0.690772 0
M  V30 224 H 20.7093 -1.91394 -2.28934 0
M  V30 225 C 19.4583 -0.555065 -3.43241 0
M  V30 226 H 18.7813 -1.35709 -3.76062 0
M  V30 227 H 20.2213 -0.424664 -4.21868 0
M  V30 228 C 18.6803 0.734147 -3.28804 0
M  V30 229 O 19.2103 1.78937 -3.59645 0
M  V30 230 N 17.4163 0.701133 -2.82015 0
M  V30 231 H 16.9633 -0.157874 -2.57116 0
M  V30 232 H 16.9213 1.56403 -2.72737 0
M  V30 233 N 20.6934 1.19889 -1.02296 0
M  V30 234 C 21.9394 1.89701 -0.717033 0
M  V30 235 C 22.2724 1.7905 0.751989 0
M  V30 236 O 21.5474 1.17891 1.547 0
M  V30 237 C 21.8304 3.40858 -1.16136 0
M  V30 238 C 21.6834 3.60411 -2.69117 0
M  V30 239 C 23.0024 4.33876 -0.737549 0
M  V30 240 H 20.1214 0.688874 -0.261957 0
M  V30 241 H 22.7634 1.41154 -1.27183 0
M  V30 242 H 20.9134 3.82335 -0.689342 0
M  V30 243 H 22.5854 3.28145 -3.2422 0
M  V30 244 H 20.8284 3.03665 -3.0979 0
M  V30 245 H 21.4994 4.66396 -2.95261 0
M  V30 246 H 23.9754 4.00081 -1.14344 0
M  V30 247 H 22.8514 5.38242 -1.0764 0
M  V30 248 H 23.1124 4.40628 0.360436 0
M  V30 249 N 22.1715 0.800033 1.35784 0
M  V30 250 C 23.4195 0.376597 1.9856 0
M  V30 251 C 23.7405 -1.05812 1.63795 0
M  V30 252 O 23.0105 -1.73103 0.917171 0
M  V30 253 H 21.5905 0.136261 0.734467 0
M  V30 254 H 24.2525 1.02442 1.65806 0
M  V30 255 H 23.3485 0.477002 3.08433 0
M  V30 256 N 23.6496 -1.47581 0.552962 0
M  V30 257 C 24.8776 -2.06875 0.0320556 0
M  V30 258 C 25.2926 -1.40625 -1.25976 0
M  V30 259 O 24.6496 -0.501349 -1.75479 0
M  V30 260 C 24.7006 -3.61092 -0.17167 0
M  V30 261 O 24.4216 -4.24858 1.06899 0
M  V30 262 C 25.9226 -4.37242 -0.730344 0
M  V30 263 H 23.1426 -0.669561 0.043915 0
M  V30 264 H 25.6866 -1.89646 0.765163 0
M  V30 265 H 23.8416 -3.7785 -0.854894 0
M  V30 266 H 24.2556 -5.17334 0.864059 0
M  V30 267 H 25.7296 -5.45842 -0.822203 0
M  V30 268 H 26.2066 -4.03235 -1.74064 0
M  V30 269 H 26.8126 -4.25219 -0.0829543 0
M  V30 270 N 25.1277 -0.289203 -1.54924 0
M  V30 271 C 26.3767 0.324231 -1.99077 0
M  V30 272 C 26.6897 1.5591 -1.18117 0
M  V30 273 O 27.8957 2.24637 -1.52481 0
M  V30 274 C 26.3517 0.628209 -3.54375 0
M  V30 275 C 25.9597 -0.587647 -4.44129 0
M  V30 276 C 27.7037 1.20349 -4.07083 0
M  V30 277 C 25.6107 -0.257475 -5.90839 0
M  V30 278 H 24.5407 0.124924 -0.743579 0
M  V30 279 H 27.1917 -0.396063 -1.79175 0
M  V30 280 H 25.5737 1.40778 -3.70132 0
M  V30 281 H 26.7477 -1.36418 -4.40144 0
M  V30 282 H 25.0627 -1.08074 -4.0213 0
M  V30 283 H 27.6597 1.46456 -5.14252 0
M  V30 284 H 28.0027 2.14195 -3.56968 0
M  V30 285 H 28.5357 0.485889 -3.94821 0
M  V30 286 H 25.2747 -1.16419 -6.45079 0
M  V30 287 H 24.7947 0.482018 -5.9786 0
M  V30 288 H 26.4737 0.145238 -6.46837 0
M  V30 289 N 26.6058 1.57591 -0.0167156 0
M  V30 290 C 27.8538 1.90906 0.663285 0
M  V30 291 C 28.1748 0.892509 1.73376 0
M  V30 292 O 27.4448 -0.0677623 1.95783 0
M  V30 293 H 26.0248 0.704637 0.247983 0
M  V30 294 H 28.6868 1.94803 -0.0615909 0
M  V30 295 H 27.7828 2.9116 1.12393 0
M  V30 296 N 28.0839 -0.256276 1.55502 0
M  V30 297 C 29.0339 -1.31981 1.85916 0
M  V30 298 C 30.0179 -1.43927 0.719296 0
M  V30 299 O 31.2099 -1.47326 0.981019 0
M  V30 300 C 28.3389 -2.67703 2.14918 0
M  V30 301 C 27.4249 -2.59801 3.35208 0
M  V30 302 N 27.8159 -2.21524 4.54709 0
M  V30 303 C 26.1139 -2.90832 3.38131 0
M  V30 304 C 26.8149 -2.24024 5.36832 0
M  V30 305 N 25.7909 -2.63158 4.75656 0
M  V30 306 H 29.5929 -1.01423 2.75845 0
M  V30 307 H 27.1069 -0.464911 1.55603 0
M  V30 308 H 29.1039 -3.44445 2.34869 0
M  V30 309 H 27.7639 -2.99137 1.26282 0
M  V30 310 H 28.7749 -1.93223 4.80505 0
M  V30 311 H 25.4519 -3.26867 2.59739 0
M  V30 312 H 26.8419 -1.9685 6.42417 0
M  V30 313 N 29.562 -1.4872 -0.521534 0
M  V30 314 C 30.808 -1.574 -1.27879 0
M  V30 315 C 31.141 -0.250817 -1.92573 0
M  V30 316 O 30.416 0.743934 -1.79711 0
M  V30 317 C 30.699 -2.71843 -2.36164 0
M  V30 318 C 30.552 -4.13893 -1.76105 0
M  V30 319 C 31.871 -2.82008 -3.37875 0
M  V30 320 H 28.99 -0.572941 -0.463581 0
M  V30 321 H 31.632 -1.80927 -0.580119 0
M  V30 322 H 29.782 -2.51914 -2.95756 0
M  V30 323 H 31.454 -4.45284 -1.20499 0
M  V30 324 H 29.697 -4.20498 -1.06601 0
M  V30 325 H 30.368 -4.89804 -2.5455 0
M  V30 326 H 32.844 -3.00086 -2.88249 0
M  V30 327 H 31.72 -3.63796 -4.11028 0
M  V30 328 H 31.981 -1.90511 -3.98946 0
M  V30 329 N 31.0401 0.771051 -1.3745 0
M  V30 330 C 32.3171 1.519 -1.23231 0
M  V30 331 C 32.6971 2.10383 0.173809 0
M  V30 332 O 32.0451 1.95583 1.18151 0
M  V30 333 C 32.2551 2.59933 -2.32886 0
M  V30 334 C 33.6031 3.27316 -2.70461 0
M  V30 335 O 34.6271 2.70228 -2.32068 0
M  V30 336 O 33.4861 4.30531 -3.36608 0
M  V30 337 H 30.5801 0.672803 -0.480901 0
M  V30 338 H 33.1261 0.807957 -1.49232 0
M  V30 339 H 31.8981 2.14842 -3.27045 0
M  V30 340 H 31.5211 3.38637 -2.08353 0
M  V30 341 N 32.5182 1.22032 0.997298 0
M  V30 342 C 33.4682 0.953838 2.07089 0
M  V30 343 C 34.4522 -0.0938669 1.60626 0
M  V30 344 O 35.6442 0.116078 1.76619 0
M  V30 345 C 32.7732 0.528726 3.39204 0
M  V30 346 C 31.8592 1.61092 3.92314 0
M  V30 347 N 32.2502 2.83768 4.18699 0
M  V30 348 C 30.5482 1.48158 4.20672 0
M  V30 349 C 31.2492 3.53715 4.61802 0
M  V30 350 N 30.2252 2.81174 4.65233 0
M  V30 351 H 34.0272 1.88577 2.25424 0
M  V30 352 H 31.5412 1.11719 1.17867 0
M  V30 353 H 33.5382 0.31915 4.15677 0
M  V30 354 H 32.1982 -0.39635 3.22272 0
M  V30 355 H 33.2092 3.20238 4.07023 0
M  V30 356 H 29.8862 0.622369 4.12835 0
M  V30 357 H 31.2762 4.58793 4.90875 0
M  V30 358 N 33.9963 -1.19345 1.0293 0
M  V30 359 C 35.2443 -1.88665 0.724574 0
M  V30 360 C 35.5653 -1.80036 -0.749144 0
M  V30 361 O 34.8353 -1.2111 -1.53978 0
M  V30 362 H 33.4153 -0.698406 0.265025 0
M  V30 363 H 36.0773 -1.44885 1.30362 0
M  V30 364 H 35.1733 -2.94987 1.01926 0
M  V30 365 N 35.4744 -0.807222 -1.35358 0
M  V30 366 C 36.4214 -0.216037 -2.29787 0
M  V30 367 C 37.3914 0.650278 -1.52842 0
M  V30 368 O 38.5764 0.595227 -1.81278 0
M  V30 369 C 35.7164 0.628893 -3.39321 0
M  V30 370 C 34.8294 -0.257927 -4.31229 0
M  V30 371 C 33.9644 0.595069 -5.27856 0
M  V30 372 C 33.0034 -0.292111 -6.11403 0
M  V30 373 N 32.1404 0.520895 -7.00165 0
M  V30 374 H 36.9804 -1.02671 -2.79755 0
M  V30 375 H 34.5174 -0.517839 -1.37684 0
M  V30 376 H 36.4754 1.13393 -4.01494 0
M  V30 377 H 35.1054 1.40482 -2.90628 0
M  V30 378 H 34.1574 -0.881076 -3.70056 0
M  V30 379 H 35.4694 -0.940759 -4.89848 0
M  V30 380 H 34.6234 1.16522 -5.95405 0
M  V30 381 H 33.3624 1.31146 -4.69736 0
M  V30 382 H 32.3674 -0.874525 -5.428 0
M  V30 383 H 33.5924 -1.00638 -6.71602 0
M  V30 384 H 31.5384 1.22125 -6.44532 0
M  V30 385 H 31.4554 -0.103877 -7.55929 0
M  V30 386 H 32.7234 1.0743 -7.72062 0
M  V30 387 N 36.9525 1.47285 -0.560781 0
M  V30 388 C 38.1805 2.06855 -0.0430262 0
M  V30 389 C 38.5955 1.41291 1.25229 0
M  V30 390 O 37.9525 0.510648 1.7521 0
M  V30 391 C 38.0035 3.61178 0.152518 0
M  V30 392 O 37.7245 4.24285 -1.0915 0
M  V30 393 C 39.2255 4.37624 0.707145 0
M  V30 394 H 36.4455 0.669319 -0.0474652 0
M  V30 395 H 38.9895 1.89237 -0.77521 0
M  V30 396 H 37.1445 3.78298 0.834843 0
M  V30 397 H 37.5585 5.16868 -0.891482 0
M  V30 398 H 39.0325 5.46271 0.793244 0
M  V30 399 H 39.5095 4.04152 1.71923 0
M  V30 400 H 40.1155 4.25257 0.0604027 0
M  V30 401 N 38.4306 0.297415 1.54768 0
M  V30 402 C 39.6586 -0.315623 2.04478 0
M  V30 403 C 40.0736 -1.47792 1.17486 0
M  V30 404 O 39.4306 -1.81404 0.19971 0
M  V30 405 C 39.4816 -0.7753 3.53088 0
M  V30 406 O 39.2026 0.340732 4.36773 0
M  V30 407 C 40.7036 -1.45386 4.18781 0
M  V30 408 H 37.9236 -0.0690887 0.667434 0
M  V30 409 H 40.4676 0.436003 1.99798 0
M  V30 410 H 38.6226 -1.47696 3.58141 0
M  V30 411 H 39.0366 -0.0165035 5.24497 0
M  V30 412 H 40.5106 -1.72669 5.24299 0
M  V30 413 H 40.9876 -2.39275 3.68299 0
M  V30 414 H 41.5936 -0.795475 4.17795 0
M  V30 415 N 39.9087 -1.5758 0.0250728 0
M  V30 416 C 40.8387 -2.13007 -0.956575 0
M  V30 417 C 41.8197 -1.0452 -1.342 0
M  V30 418 O 43.0047 -1.32332 -1.42133 0
M  V30 419 C 40.1347 -2.65386 -2.24026 0
M  V30 420 C 39.0887 -3.78623 -1.99571 0
M  V30 421 C 38.4147 -4.17414 -3.3417 0
M  V30 422 C 39.7147 -5.04867 -1.33814 0
M  V30 423 H 41.4087 -2.9528 -0.494991 0
M  V30 424 H 38.9547 -1.42042 -0.236651 0
M  V30 425 H 40.9077 -3.02794 -2.93076 0
M  V30 426 H 39.6317 -1.80268 -2.72343 0
M  V30 427 H 38.2907 -3.41646 -1.32941 0
M  V30 428 H 37.9387 -3.29284 -3.80238 0
M  V30 429 H 37.6387 -4.93719 -3.18615 0
M  V30 430 H 39.1627 -4.57402 -4.04495 0
M  V30 431 H 40.5767 -5.39888 -1.92857 0
M  V30 432 H 38.9737 -5.86144 -1.28669 0
M  V30 433 H 40.0437 -4.83904 -0.310561 0
M  V30 434 N 41.3868 0.248026 -1.55636 0
M  V30 435 C 42.6148 0.993808 -1.81469 0
M  V30 436 C 43.0298 1.78991 -0.60064 0
M  V30 437 O 42.3868 1.77345 0.430682 0
M  V30 438 C 42.4378 1.93258 -3.05506 0
M  V30 439 O 42.1588 1.16869 -4.22224 0
M  V30 440 C 43.6598 2.79444 -3.4413 0
M  V30 441 H 40.8798 0.292486 -0.603898 0
M  V30 442 H 43.4238 0.271253 -2.02693 0
M  V30 443 H 41.5788 2.60943 -2.86335 0
M  V30 444 H 41.9928 1.80359 -4.92515 0
M  V30 445 H 43.4668 3.41066 -4.34026 0
M  V30 446 H 43.9438 3.50499 -2.64665 0
M  V30 447 H 44.5498 2.17214 -3.65648 0
M  V30 448 N 42.8649 1.48995 0.513639 0
M  V30 449 C 43.8279 1.64229 1.59879 0
M  V30 450 C 44.8279 0.514696 1.5234 0
M  V30 451 O 46.0179 0.78087 1.55718 0
M  V30 452 C 43.1499 1.62783 2.99524 0
M  V30 453 H 44.3429 2.61004 1.47705 0
M  V30 454 H 41.8959 1.37837 0.736936 0
M  V30 455 H 42.6309 0.675461 3.17188 0
M  V30 456 H 42.4159 2.4466 3.06404 0
M  V30 457 H 43.9059 1.76669 3.78388 0
M  V30 458 N 44.343 -0.763751 1.37857 0
M  V30 459 C 45.306 -1.85889 1.34081 0
M  V30 460 C 46.306 -1.58949 0.243277 0
M  V30 461 O 47.496 -1.66882 0.499589 0
M  V30 462 C 44.628 -3.23176 1.08489 0
M  V30 463 H 45.821 -1.90648 2.31502 0
M  V30 464 H 43.374 -0.964367 1.23003 0
M  V30 465 H 44.109 -3.24091 0.116318 0
M  V30 466 H 43.894 -3.44124 1.8794 0
M  V30 467 H 45.384 -4.03254 1.08517 0
M  V30 468 N 45.8211 -1.22559 -0.990812 0
M  V30 469 C 46.7511 -1.0218 -2.09956 0
M  V30 470 C 47.7321 0.0579394 -1.70001 0
M  V30 471 O 48.9171 -0.104684 -1.93918 0
M  V30 472 C 46.0471 -0.601023 -3.4206 0
M  V30 473 C 45.0011 -1.62694 -3.95872 0
M  V30 474 C 44.3271 -1.06193 -5.24049 0
M  V30 475 C 45.6271 -3.01743 -4.2632 0
M  V30 476 H 47.3211 -1.94916 -2.27262 0
M  V30 477 H 44.8671 -0.938566 -1.09211 0
M  V30 478 H 46.8201 -0.445561 -4.19038 0
M  V30 479 H 45.5441 0.362005 -3.24588 0
M  V30 480 H 44.2031 -1.77021 -3.21028 0
M  V30 481 H 43.8511 -0.0901903 -5.02919 0
M  V30 482 H 43.5511 -1.74732 -5.61019 0
M  V30 483 H 45.0751 -0.918092 -6.03658 0
M  V30 484 H 46.4891 -2.90777 -4.94087 0
M  V30 485 H 44.8861 -3.67425 -4.74467 0
M  V30 486 H 45.9561 -3.51518 -3.34011 0
M  V30 487 N 47.2992 1.18797 -1.03562 0
M  V30 488 C 48.5272 1.92599 -0.755869 0
M  V30 489 C 48.9422 1.75886 0.686271 0
M  V30 490 O 48.2992 1.08517 1.46732 0
M  V30 491 C 48.3502 3.44159 -1.10619 0
M  V30 492 O 48.0712 3.60341 -2.4917 0
M  V30 493 C 49.5722 4.3507 -0.850214 0
M  V30 494 H 46.7922 0.611587 -0.276048 0
M  V30 495 H 49.3362 1.50742 -1.38192 0
M  V30 496 H 47.4912 3.83823 -0.525194 0
M  V30 497 H 47.9052 4.54128 -2.62427 0
M  V30 498 H 49.3792 5.39989 -1.14523 0
M  V30 499 H 49.8562 4.38673 0.215176 0
M  V30 500 H 50.4622 4.01097 -1.41426 0
M  V30 501 N 48.7773 0.814389 1.34928 0
M  V30 502 C 50.0243 0.398423 1.98542 0
M  V30 503 C 50.3523 -1.03638 1.64589 0
M  V30 504 O 49.6073 -1.73509 0.90516 0
M  V30 505 C 49.9063 0.537781 3.53331 0
M  V30 506 C 49.5723 1.93704 4.07172 0
M  V30 507 C 48.2343 2.31984 4.21589 0
M  V30 508 C 50.5863 2.85213 4.36237 0
M  V30 509 C 47.9143 3.61125 4.62391 0
M  V30 510 C 50.2663 4.13809 4.78482 0
M  V30 511 C 48.9303 4.52077 4.91104 0
M  V30 512 H 48.2003 0.145793 0.726516 0
M  V30 513 H 50.8473 1.03669 1.61012 0
M  V30 514 H 49.1523 -0.183906 3.91368 0
M  V30 515 H 50.8493 0.196588 4.00518 0
M  V30 516 H 47.4393 1.62966 3.96409 0
M  V30 517 H 51.6233 2.56885 4.24645 0
M  V30 518 H 46.8793 3.90612 4.70353 0
M  V30 519 H 51.0533 4.84811 4.99932 0
M  V30 520 H 48.6803 5.52196 5.22478 0
M  V30 521 N 50.2554 -1.46986 0.568584 0
M  V30 522 C 51.5014 -2.02741 0.0488709 0
M  V30 523 C 51.8344 -1.44077 -1.30214 0
M  V30 524 O 51.1094 -0.600552 -1.84996 0
M  V30 525 C 51.3924 -3.60086 -0.032047 0
M  V30 526 C 51.2454 -4.29162 1.34686 0
M  V30 527 C 52.5644 -4.33838 -0.739798 0
M  V30 528 H 49.6834 -0.736749 0.0192338 0
M  V30 529 H 52.3254 -1.75289 0.733065 0
M  V30 530 H 50.4754 -3.83606 -0.61473 0
M  V30 531 H 52.1474 -4.16948 1.97362 0
M  V30 532 H 50.3904 -3.89073 1.91846 0
M  V30 533 H 51.0614 -5.37826 1.24285 0
M  V30 534 H 53.5374 -4.15378 -0.244939 0
M  V30 535 H 52.4134 -5.43537 -0.765406 0
M  V30 536 H 52.6744 -4.03875 -1.79827 0
M  V30 537 N 51.7335 -0.305618 -1.54608 0
M  V30 538 C 52.9615 0.304775 -2.04643 0
M  V30 539 C 53.3765 1.47167 -1.18268 0
M  V30 540 O 52.7335 1.81296 -0.209328 0
M  V30 541 C 52.7845 0.756564 -3.53495 0
M  V30 542 O 52.5055 -0.36389 -4.36586 0
M  V30 543 C 54.0065 1.43163 -4.19546 0
M  V30 544 H 51.2265 0.0655481 -0.667791 0
M  V30 545 H 53.7705 -0.446592 -1.99564 0
M  V30 546 H 51.9255 1.45794 -3.58919 0
M  V30 547 H 52.3395 -0.0113121 -5.24499 0
M  V30 548 H 53.8135 1.69886 -5.25207 0
M  V30 549 H 54.2905 2.37318 -3.69563 0
M  V30 550 H 54.8965 0.773307 -4.18211 0
M  V30 551 N 53.2116 1.57565 -0.0334293 0
M  V30 552 C 54.1746 2.09393 0.932048 0
M  V30 553 C 55.1746 1.00986 1.25134 0
M  V30 554 O 56.3646 1.27129 1.19096 0
M  V30 555 C 53.4966 2.56338 2.2473 0
M  V30 556 H 54.6896 2.95984 0.483085 0
M  V30 557 H 52.2426 1.54819 0.21468 0
M  V30 558 H 52.9776 1.7309 2.74245 0
M  V30 559 H 52.7626 3.35542 2.02865 0
M  V30 560 H 54.2526 2.96646 2.93923 0
M  V30 561 N 54.6897 -0.239769 1.55765 0
M  V30 562 C 55.6527 -1.28038 1.90103 0
M  V30 563 C 56.6527 -1.40723 0.778055 0
M  V30 564 O 57.8427 -1.39301 1.04599 0
M  V30 565 C 54.9747 -2.65702 2.13577 0
M  V30 566 H 56.1677 -0.988048 2.83157 0
M  V30 567 H 53.7207 -0.479382 1.48767 0
M  V30 568 H 54.4557 -3.00063 1.23015 0
M  V30 569 H 54.2407 -2.57875 2.95369 0
M  V30 570 H 55.7307 -3.40828 2.41301 0
M  V30 571 N 56.1678 -1.49265 -0.50573 0
M  V30 572 C 57.0778 -1.68312 -1.63427 0
M  V30 573 C 58.0938 -0.565682 -1.64548 0
M  V30 574 O 59.2698 -0.839801 -1.83055 0
M  V30 575 C 56.3348 -1.74107 -2.99813 0
M  V30 576 C 55.3958 -2.97653 -3.09356 0
M  V30 577 C 54.6288 -3.03163 -4.39236 0
M  V30 578 O 54.8518 -2.16396 -5.27758 0
M  V30 579 O 53.7858 -3.9558 -4.53652 0
M  V30 580 H 57.6118 -2.63907 -1.50289 0
M  V30 581 H 55.1968 -1.32951 -0.681502 0
M  V30 582 H 57.0788 -1.803 -3.80881 0
M  V30 583 H 55.7538 -0.816901 -3.13223 0
M  V30 584 H 54.6608 -2.96981 -2.27493 0
M  V30 585 H 55.9938 -3.89535 -3.00871 0
M  V30 586 N 57.6459 0.756429 -1.3826 0
M  V30 587 C 58.5939 1.89149 -1.35372 0
M  V30 588 C 59.5879 1.67691 -0.24004 0
M  V30 589 O 60.7939 1.75294 -0.408919 0
M  V30 590 H 57.1689 0.622271 -0.422236 0
M  V30 591 H 59.1399 1.88701 -2.31159 0
M  V30 592 C 57.8889 3.26599 -1.19284 0
M  V30 593 H 57.2119 3.43695 -2.0424 0
M  V30 594 H 58.6519 4.06274 -1.21316 0
M  V30 595 C 57.1109 3.3675 0.100454 0
M  V30 596 O 57.6409 3.86951 1.07851 0
M  V30 597 N 55.8469 2.90179 0.15633 0
M  V30 598 H 55.3939 2.49517 -0.640253 0
M  V30 599 H 55.3519 2.97352 1.02123 0
M  V30 600 N 59.124 1.23083 0.984299 0
M  V30 601 C 60.535 1.05609 1.5396 0
M  V30 602 C 60.886 -0.377793 1.92528 0
M  V30 603 O 60.011 -1.26398 1.75649 0
M  V30 604 C 60.606 1.91087 2.7977 0
M  V30 605 C 59.165 1.77885 3.31713 0
M  V30 606 C 58.312 1.87028 2.04733 0
M  V30 607 H 61.263 1.36802 0.804419 0
M  V30 608 H 61.284 1.43336 3.5247 0
M  V30 609 H 60.796 2.9544 2.51668 0
M  V30 610 H 58.897 0.762995 3.64704 0
M  V30 611 H 59.01 2.61047 4.01735 0
M  V30 612 H 57.374 1.30565 2.18689 0
M  V30 613 H 58.157 2.92929 1.79017 0
M  V30 614 N 60.6021 -1.18246 1.0419 0
M  V30 615 C 61.5501 -2.23968 0.627792 0
M  V30 616 C 62.5441 -1.65828 -0.346019 0
M  V30 617 O 63.7501 -1.78733 -0.213175 0
M  V30 618 H 60.1251 -0.728939 0.184802 0
M  V30 619 H 62.0961 -2.56202 1.52981 0
M  V30 620 C 60.8451 -3.47699 0.00796591 0
M  V30 621 H 60.1681 -3.92734 0.748347 0
M  V30 622 H 61.6081 -4.23294 -0.24455 0
M  V30 623 C 60.0671 -3.13153 -1.24246 0
M  V30 624 O 60.5971 -3.27003 -2.33307 0
M  V30 625 N 58.8031 -2.67467 -1.13622 0
M  V30 626 H 58.3501 -2.56396 -0.248734 0
M  V30 627 H 58.3081 -2.44724 -1.97377 0
M  V30 628 N 62.0802 -0.821533 -1.34494 0
M  V30 629 C 63.3262 -0.409552 -1.98622 0
M  V30 630 C 63.6592 1.0244 -1.64984 0
M  V30 631 O 62.9342 1.71325 -0.920758 0
M  V30 632 C 63.2172 -0.610458 -3.54888 0
M  V30 633 C 63.0702 -2.09043 -3.98273 0
M  V30 634 C 64.3892 -0.0455379 -4.40076 0
M  V30 635 H 61.5082 -0.15028 -0.721516 0
M  V30 636 H 64.1502 -1.03384 -1.59411 0
M  V30 637 H 62.3002 -0.079044 -3.8842 0
M  V30 638 H 63.9722 -2.68537 -3.75081 0
M  V30 639 H 62.2152 -2.58139 -3.48635 0
M  V30 640 H 62.8862 -2.18182 -5.07051 0
M  V30 641 H 65.3622 -0.499557 -4.1309 0
M  V30 642 H 64.2382 -0.215922 -5.48475 0
M  V30 643 H 64.4992 1.04939 -4.29465 0
M  V30 644 N 63.5583 1.46682 -0.576371 0
M  V30 645 C 64.4683 2.34032 0.163141 0
M  V30 646 C 65.4843 1.49367 0.892501 0
M  V30 647 O 66.6603 1.82252 0.857106 0
M  V30 648 C 63.7253 3.26435 1.16795 0
M  V30 649 C 62.7863 4.26998 0.443944 0
M  V30 650 C 62.0193 5.14986 1.40088 0
M  V30 651 O 62.2423 5.05785 2.637 0
M  V30 652 O 61.1763 5.94906 0.914917 0
M  V30 653 H 65.0023 2.98607 -0.55388 0
M  V30 654 H 62.5873 1.45554 -0.336821 0
M  V30 655 H 64.4693 3.83459 1.74748 0
M  V30 656 H 63.1443 2.64465 1.86655 0
M  V30 657 H 62.0513 3.7368 -0.177271 0
M  V30 658 H 63.3843 4.91736 -0.213566 0
M  V30 659 N 65.0364 0.313813 1.54444 0
M  V30 660 C 66.2824 -0.292108 2.00685 0
M  V30 661 C 66.6154 -1.52548 1.20177 0
M  V30 662 O 65.8904 -1.92452 0.281531 0
M  V30 663 C 66.1734 -0.635968 3.5444 0
M  V30 664 C 66.0264 0.607437 4.4568 0
M  V30 665 C 67.3454 -1.45747 4.15266 0
M  V30 666 H 64.4644 -0.104697 0.729526 0
M  V30 667 H 67.1064 0.428457 1.85106 0
M  V30 668 H 65.2564 -1.24986 3.67846 0
M  V30 669 H 66.9284 1.24581 4.44159 0
M  V30 670 H 65.1714 1.23822 4.15753 0
M  V30 671 H 65.8424 0.322515 5.51057 0
M  V30 672 H 68.3184 -0.938645 4.05375 0
M  V30 673 H 67.1944 -1.66683 5.2298 0
M  V30 674 H 67.4554 -2.45063 3.67963 0
M  V30 675 N 66.5145 -1.57545 0.0417849 0
M  V30 676 C 67.4615 -2.10977 -0.935805 0
M  V30 677 C 68.4315 -1.01486 -1.31491 0
M  V30 678 O 69.6165 -1.2898 -1.40602 0
M  V30 679 C 66.7565 -2.65169 -2.2086 0
M  V30 680 C 65.8695 -3.88714 -1.88482 0
M  V30 681 C 65.0045 -4.31254 -3.1015 0
M  V30 682 C 64.0435 -5.47524 -2.7365 0
M  V30 683 N 63.1805 -5.85162 -3.87982 0
M  V30 684 H 68.0205 -2.94218 -0.473249 0
M  V30 685 H 65.5575 -1.45415 -0.221981 0
M  V30 686 H 67.5155 -2.94685 -2.95325 0
M  V30 687 H 66.1455 -1.8474 -2.64709 0
M  V30 688 H 65.1975 -3.65849 -1.04205 0
M  V30 689 H 66.5095 -4.73245 -1.57608 0
M  V30 690 H 65.6635 -4.62273 -3.92923 0
M  V30 691 H 64.4025 -3.45516 -3.44195 0
M  V30 692 H 63.4075 -5.16187 -1.89291 0
M  V30 693 H 64.6325 -6.34971 -2.40807 0
M  V30 694 H 62.5785 -5.02377 -4.21846 0
M  V30 695 H 62.4955 -6.64362 -3.60775 0
M  V30 696 H 63.7635 -6.20791 -4.71422 0
M  V30 697 N 67.9926 0.231505 -1.5589 0
M  V30 698 C 69.2696 0.981096 -1.69215 0
M  V30 699 C 69.6496 2.02799 -0.586164 0
M  V30 700 O 68.9976 2.24823 0.408253 0
M  V30 701 C 69.2076 1.60054 -3.10135 0
M  V30 702 C 70.5556 2.09658 -3.69227 0
M  V30 703 O 71.5796 1.69967 -3.13033 0
M  V30 704 O 70.4386 2.8258 -4.67772 0
M  V30 705 H 67.5326 0.457653 -0.688827 0
M  V30 706 H 70.0786 0.224073 -1.68214 0
M  V30 707 H 68.8506 0.844105 -3.82087 0
M  V30 708 H 68.4736 2.42336 -3.15212 0
M  V30 709 N 69.4707 1.49531 0.497807 0
M  V30 710 C 70.7007 1.62657 1.27382 0
M  V30 711 C 71.1087 0.298488 1.86831 0
M  V30 712 O 70.4517 -0.72647 1.68725 0
M  V30 713 C 70.5137 2.6393 2.44093 0
M  V30 714 C 70.1777 4.08195 2.05489 0
M  V30 715 C 71.1747 4.949 1.59279 0
M  V30 716 C 68.8597 4.53948 2.15026 0
M  V30 717 C 70.8537 6.25397 1.23113 0
M  V30 718 C 68.5407 5.84458 1.78473 0
M  V30 719 C 69.5387 6.70006 1.32591 0
M  V30 720 O 69.2267 7.98083 0.965327 0
M  V30 721 H 68.9587 0.550429 0.392434 0
M  V30 722 H 71.5127 1.96325 0.603801 0
M  V30 723 H 69.7427 2.25449 3.14181 0
M  V30 724 H 71.4317 2.66552 3.06113 0
M  V30 725 H 72.1977 4.60779 1.51354 0
M  V30 726 H 68.0767 3.87525 2.4969 0
M  V30 727 H 71.6207 6.92125 0.872299 0
M  V30 728 H 67.5177 6.18107 1.86048 0
M  V30 729 H 68.2857 8.11122 1.09652 0
M  V30 730 N 70.9488 -0.749086 1.3866 0
M  V30 731 C 72.1968 -1.50535 1.34847 0
M  V30 732 C 72.5178 -1.94909 -0.0595016 0
M  V30 733 O 71.7878 -1.67973 -1.00806 0
M  V30 734 H 70.3678 -0.558395 0.49619 0
M  V30 735 H 73.0298 -0.890165 1.73384 0
M  V30 736 H 72.1258 -2.39413 2.00219 0
M  V30 737 N 72.4269 -1.23603 -0.977757 0
M  V30 738 C 73.7039 -0.977897 -1.69401 0
M  V30 739 C 74.0839 0.502738 -2.05026 0
M  V30 740 O 73.4319 1.47459 -1.74551 0
M  V30 741 C 73.6419 -1.89077 -2.93345 0
M  V30 742 C 74.9899 -2.15579 -3.65802 0
M  V30 743 O 76.0139 -1.86648 -3.03383 0
M  V30 744 O 74.8729 -2.64658 -4.78141 0
M  V30 745 H 71.9669 -0.369025 -0.740101 0
M  V30 746 H 74.5129 -1.34657 -1.03274 0
M  V30 747 H 73.2849 -2.89158 -2.63634 0
M  V30 748 H 72.9079 -1.52463 -3.67207 0
M  V30 749 N 73.905 1.17692 -1.04816 0
M  V30 750 C 75.154 1.87192 -0.751132 0
M  V30 751 C 75.467 1.8169 0.724441 0
M  V30 752 O 76.673 2.46625 1.13527 0
M  V30 753 C 75.129 3.35857 -1.29338 0
M  V30 754 C 74.737 3.4987 -2.79812 0
M  V30 755 C 76.481 4.10709 -1.07322 0
M  V30 756 C 74.388 4.92536 -3.27356 0
M  V30 757 H 73.318 0.701162 -0.277288 0
M  V30 758 H 75.969 1.32932 -1.26496 0
M  V30 759 H 74.351 3.89631 -0.707376 0
M  V30 760 H 75.525 3.06332 -3.44235 0
M  V30 761 H 73.84 2.88433 -3.00325 0
M  V30 762 H 76.437 5.15952 -1.4035 0
M  V30 763 H 76.78 4.16299 -0.0108001 0
M  V30 764 H 77.313 3.6313 -1.62423 0
M  V30 765 H 74.052 4.92119 -4.33012 0
M  V30 766 H 73.572 5.3676 -2.67673 0
M  V30 767 H 75.251 5.61288 -3.21815 0
M  V30 768 N 75.3831 0.828654 1.34056 0
M  V30 769 C 76.6601 0.341809 1.9259 0
M  V30 770 C 77.0401 -1.17158 1.75605 0
M  V30 771 O 76.3881 -1.98132 1.13824 0
M  V30 772 C 76.5981 0.777453 3.4023 0
M  V30 773 C 77.9461 0.779579 4.17382 0
M  V30 774 O 78.9701 0.7204 3.48839 0
M  V30 775 O 77.8291 0.857996 5.39723 0
M  V30 776 H 74.9231 0.0946085 0.821571 0
M  V30 777 H 77.4691 0.913827 1.42994 0
M  V30 778 H 76.2411 1.8196 3.46419 0
M  V30 779 H 75.8641 0.181444 3.97186 0
M  V30 780 N 76.8612 -1.46375 0.584142 0
M  V30 781 C 77.8082 -2.30323 -0.148286 0
M  V30 782 C 78.7782 -1.40703 -0.882713 0
M  V30 783 O 79.9632 -1.69651 -0.873099 0
M  V30 784 C 77.1032 -3.25196 -1.15507 0
M  V30 785 C 76.2162 -4.29915 -0.423943 0
M  V30 786 C 75.3512 -5.11914 -1.41838 0
M  V30 787 C 74.3902 -6.08381 -0.673736 0
M  V30 788 N 73.5272 -6.83242 -1.6163 0
M  V30 789 H 78.3672 -2.92427 0.573644 0
M  V30 790 H 75.9042 -1.44118 0.294703 0
M  V30 791 H 77.8622 -3.78646 -1.75166 0
M  V30 792 H 76.4922 -2.64898 -1.8447 0
M  V30 793 H 75.5442 -3.7931 0.287714 0
M  V30 794 H 76.8562 -4.98549 0.158128 0
M  V30 795 H 76.0102 -5.69648 -2.08773 0
M  V30 796 H 74.7492 -4.43243 -2.03438 0
M  V30 797 H 73.7542 -5.49799 0.00938483 0
M  V30 798 H 74.9792 -6.79071 -0.0631082 0
M  V30 799 H 72.9252 -6.1728 -2.22038 0
M  V30 800 H 72.8422 -7.48144 -1.08707 0
M  V30 801 H 74.1102 -7.45534 -2.27596 0
M  V30 802 N 78.3393 -0.321999 -1.54275 0
M  V30 803 C 79.3023 0.531975 -2.22941 0
M  V30 804 C 80.3023 1.04478 -1.22234 0
M  V30 805 O 81.4923 0.937452 -1.46825 0
M  V30 806 C 78.6243 1.73874 -2.93224 0
M  V30 807 H 79.8173 -0.0682612 -2.99822 0
M  V30 808 H 77.3703 -0.0730644 -1.56129 0
M  V30 809 H 78.1053 2.37825 -2.20476 0
M  V30 810 H 77.8903 1.37847 -3.6707 0
M  V30 811 H 79.3803 2.34496 -3.45545 0
M  V30 812 N 79.8174 1.5752 -0.0501392 0
M  V30 813 C 81.2284 1.80271 0.485705 0
M  V30 814 C 81.5794 0.96228 1.70981 0
M  V30 815 O 80.7044 0.178578 2.15662 0
M  V30 816 C 81.2994 3.26957 0.887938 0
M  V30 817 C 79.8584 3.5063 1.36877 0
M  V30 818 C 79.0054 2.75165 0.343468 0
M  V30 819 H 81.9564 1.56281 -0.276028 0
M  V30 820 H 81.9774 3.37821 1.75093 0
M  V30 821 H 81.4894 3.881 -0.0031809 0
M  V30 822 H 79.5904 2.94766 2.27911 0
M  V30 823 H 79.7034 4.59343 1.36164 0
M  V30 824 H 78.0674 2.4127 0.816128 0
M  V30 825 H 78.8504 3.39034 -0.539548 0
M  V30 826 N 81.2955 -0.223234 1.56011 0
M  V30 827 C 82.2055 -1.29766 1.95443 0
M  V30 828 C 83.2215 -1.51373 0.858028 0
M  V30 829 O 84.3975 -1.64536 1.16146 0
M  V30 830 C 81.4625 -2.62772 2.26167 0
M  V30 831 C 80.5235 -2.49482 3.49367 0
M  V30 832 C 79.7565 -3.76145 3.78616 0
M  V30 833 O 79.9795 -4.79087 3.09568 0
M  V30 834 O 78.9135 -3.73358 4.72109 0
M  V30 835 H 82.7395 -0.99309 2.87004 0
M  V30 836 H 80.3245 -0.425958 1.43199 0
M  V30 837 H 82.2065 -3.41327 2.47131 0
M  V30 838 H 80.8815 -2.92913 1.37781 0
M  V30 839 H 79.7885 -1.69133 3.33684 0
M  V30 840 H 81.1215 -2.2428 4.38131 0
M  V30 841 N 82.7736 -1.49793 -0.48987 0
M  V30 842 C 83.6836 -1.70036 -1.61632 0
M  V30 843 C 84.6996 -0.583102 -1.63939 0
M  V30 844 O 85.8756 -0.859169 -1.82154 0
M  V30 845 C 82.9406 -1.77277 -2.97949 0
M  V30 846 C 82.0016 -3.00918 -3.06181 0
M  V30 847 C 81.2346 -3.07804 -4.35996 0
M  V30 848 O 81.4576 -2.21982 -5.25433 0
M  V30 849 O 80.3916 -4.00369 -4.49431 0
M  V30 850 H 84.2176 -2.65486 -1.47482 0
M  V30 851 H 81.8026 -1.33666 -0.667362 0
M  V30 852 H 83.6846 -1.84329 -3.78947 0
M  V30 853 H 82.3596 -0.850076 -3.12339 0
M  V30 854 H 81.2666 -2.99377 -2.2433 0
M  V30 855 H 82.5996 -3.92704 -2.96723 0
M  V30 856 N 84.2517 0.741722 -1.39055 0
M  V30 857 C 85.6677 1.04638 -1.20512 0
M  V30 858 C 85.8677 2.01405 -0.0620218 0
M  V30 859 O 84.9237 2.45547 0.588457 0
M  V30 860 C 86.2367 1.6151 -2.53643 0
M  V30 861 C 87.7847 1.73623 -2.6043 0
M  V30 862 C 88.2597 2.33906 -3.93767 0
M  V30 863 N 89.7507 2.41323 -3.9537 0
M  V30 864 C 90.4857 2.88888 -4.95309 0
M  V30 865 N 89.9817 3.36401 -6.05645 0
M  V30 866 N 91.7747 2.88037 -4.82692 0
M  V30 867 H 83.9257 0.0998155 -2.12165 0
M  V30 868 H 86.1887 0.106907 -0.941953 0
M  V30 869 H 85.8947 0.978739 -3.37807 0
M  V30 870 H 85.7687 2.60411 -2.72885 0
M  V30 871 H 88.1557 2.36384 -1.76655 0
M  V30 872 H 88.2367 0.733945 -2.45045 0
M  V30 873 H 87.8807 1.71776 -4.7797 0
M  V30 874 H 87.8107 3.34799 -4.06469 0
M  V30 875 H 90.3017 2.07734 -3.15682 0
M  V30 876 H 90.6147 3.71186 -6.77821 0
M  V30 877 H 88.9597 3.34427 -6.09248 0
M  V30 878 H 92.1507 2.50237 -3.95599 0
M  V30 879 H 92.3237 3.24792 -5.60726 0
M  V30 880 N 85.7298 1.2412 0.971189 0
M  V30 881 C 86.6928 1.03156 2.04674 0
M  V30 882 C 87.6928 -0.00990322 1.60797 0
M  V30 883 O 88.8828 0.230729 1.72665 0
M  V30 884 C 86.0148 0.562765 3.36223 0
M  V30 885 H 87.2078 1.98614 2.24705 0
M  V30 886 H 84.7608 1.06293 1.14593 0
M  V30 887 H 85.4958 -0.395176 3.21883 0
M  V30 888 H 85.2808 1.31441 3.69413 0
M  V30 889 H 86.7708 0.437015 4.15307 0
M  V30 890 N 87.2079 -1.17134 1.05439 0
M  V30 891 C 88.6239 -1.39454 0.776201 0
M  V30 892 C 88.8239 -1.91454 -0.628307 0
M  V30 893 O 87.8799 -2.10777 -1.39031 0
M  V30 894 C 89.1929 -2.38305 1.83388 0
M  V30 895 C 90.7409 -2.52006 1.85639 0
M  V30 896 C 91.2159 -3.54133 2.90437 0
M  V30 897 N 92.7069 -3.61653 2.89415 0
M  V30 898 C 93.4419 -4.4044 3.67152 0
M  V30 899 N 92.9379 -5.22721 4.54681 0
M  V30 900 N 94.7309 -4.35337 3.55581 0
M  V30 901 H 86.8819 -0.817134 1.96053 0
M  V30 902 H 89.1449 -0.421626 0.849079 0
M  V30 903 H 88.8509 -2.07173 2.84204 0
M  V30 904 H 88.7249 -3.37841 1.67761 0
M  V30 905 H 91.1119 -2.82447 0.85486 0
M  V30 906 H 91.1929 -1.52537 2.05344 0
M  V30 907 H 90.8369 -3.24431 3.90777 0
M  V30 908 H 90.7669 -4.53313 2.67983 0
M  V30 909 H 93.2579 -3.02909 2.25952 0
M  V30 910 H 93.5709 -5.80027 5.10674 0
M  V30 911 H 91.9159 -5.22093 4.58741 0
M  V30 912 H 95.1069 -3.70112 2.86592 0
M  V30 913 H 95.2799 -4.96494 4.1641 0
M  V30 914 N 88.686 -0.835752 -1.33615 0
M  V30 915 C 89.934 -0.429109 -1.97492 0
M  V30 916 C 90.255 1.01433 -1.66543 0
M  V30 917 O 89.525 1.70611 -0.962744 0
M  V30 918 H 88.105 -0.155686 -0.730596 0
M  V30 919 H 90.767 -1.06802 -1.63031 0
M  V30 920 H 89.863 -0.55861 -3.0706 0
M  V30 921 N 90.1641 1.46063 -0.591896 0
M  V30 922 C 91.4131 2.01547 -0.0786637 0
M  V30 923 C 91.7261 1.46796 1.29268 0
M  V30 924 O 92.9321 1.94157 1.89777 0
M  V30 925 C 91.3881 3.59787 -0.0900024 0
M  V30 926 C 90.9961 4.23534 -1.46023 0
M  V30 927 C 92.7401 4.22895 0.368806 0
M  V30 928 C 90.6471 5.73881 -1.4288 0
M  V30 929 H 89.5771 0.753564 -0.0256388 0
M  V30 930 H 92.2281 1.677 -0.744905 0
M  V30 931 H 90.6101 3.90752 0.642586 0
M  V30 932 H 91.7841 4.04167 -2.21328 0
M  V30 933 H 90.0991 3.72558 -1.85982 0
M  V30 934 H 92.6961 5.33116 0.411258 0
M  V30 935 H 93.0391 3.9247 1.38827 0
M  V30 936 H 93.5721 3.9659 -0.31001 0
M  V30 937 H 90.3111 6.0898 -2.42536 0
M  V30 938 H 89.8311 5.95486 -0.718095 0
M  V30 939 H 91.5101 6.36776 -1.14565 0
M  V30 940 N 91.6422 0.330177 1.54103 0
M  V30 941 C 92.8702 -0.272179 2.05102 0
M  V30 942 C 93.2852 -1.45267 1.20595 0
M  V30 943 O 92.6422 -1.8094 0.238144 0
M  V30 944 C 92.6932 -0.70023 3.54653 0
M  V30 945 O 92.4142 0.433301 4.35952 0
M  V30 946 C 93.9152 -1.3647 4.21771 0
M  V30 947 H 91.1352 -0.0549159 0.668749 0
M  V30 948 H 93.6792 0.478285 1.98828 0
M  V30 949 H 91.8342 -1.40066 3.61193 0
M  V30 950 H 92.2482 0.0947539 5.24414 0
M  V30 951 H 93.7222 -1.61509 5.27843 0
M  V30 952 H 94.1992 -2.31409 3.73292 0
M  V30 953 H 94.8052 -0.706675 4.19388 0
M  V30 954 N 93.1203 -1.57491 0.0584922 0
M  V30 955 C 94.3693 -1.92155 -0.613146 0
M  V30 956 C 94.6823 -0.939334 -1.71569 0
M  V30 957 O 95.8883 -1.17829 -2.44599 0
M  V30 958 C 94.3443 -3.41303 -1.14195 0
M  V30 959 C 93.9523 -4.47944 -0.0711265 0
M  V30 960 C 95.6963 -3.84988 -1.78841 0
M  V30 961 C 93.6033 -5.88212 -0.613225 0
M  V30 962 H 92.5333 -0.717162 -0.232796 0
M  V30 963 H 95.1843 -1.83049 0.12857 0
M  V30 964 H 93.5663 -3.45437 -1.93621 0
M  V30 965 H 94.7403 -4.55408 0.702836 0
M  V30 966 H 93.0553 -4.13644 0.478313 0
M  V30 967 H 95.6523 -4.87159 -2.20408 0
M  V30 968 H 95.9953 -3.21632 -2.64308 0
M  V30 969 H 96.5283 -3.83401 -1.06059 0
M  V30 970 H 93.2673 -6.55183 0.203978 0
M  V30 971 H 92.7873 -5.84294 -1.35501 0
M  V30 972 H 94.4663 -6.37687 -1.09383 0
M  V30 973 N 94.5984 0.214957 -1.56127 0
M  V30 974 C 95.5464 1.28601 -1.93816 0
M  V30 975 C 96.5404 1.48175 -0.821016 0
M  V30 976 O 97.7464 1.49271 -1.0059 0
M  V30 977 H 94.1214 0.431302 -0.616022 0
M  V30 978 H 96.0924 0.940991 -2.83175 0
M  V30 979 C 94.8414 2.62779 -2.27689 0
M  V30 980 H 94.1644 2.48527 -3.13168 0
M  V30 981 H 95.6044 3.36517 -2.57939 0
M  V30 982 C 94.0634 3.18285 -1.10436 0
M  V30 983 O 94.5934 4.00002 -0.368945 0
M  V30 984 N 92.7994 2.7675 -0.886433 0
M  V30 985 H 92.3464 2.10404 -1.48619 0
M  V30 986 H 92.3044 3.14229 -0.103656 0
M  V30 987 N 96.0765 1.50051 0.48192 0
M  V30 988 C 97.3045 1.64237 1.25832 0
M  V30 989 C 97.7195 0.321336 1.86045 0
M  V30 990 O 97.0765 -0.695478 1.68729 0
M  V30 991 C 97.1275 2.72548 2.37487 0
M  V30 992 O 96.8485 3.99529 1.79745 0
M  V30 993 C 98.3495 2.9761 3.28547 0
M  V30 994 H 95.5695 0.55237 0.380957 0
M  V30 995 H 98.1135 1.96207 0.576467 0
M  V30 996 H 96.2685 2.43303 3.01467 0
M  V30 997 H 96.6825 4.59342 2.5319 0
M  V30 998 H 98.1565 3.77084 4.03127 0
M  V30 999 H 98.6335 2.0826 3.86684 0
M  V30 1000 H 99.2395 3.28345 2.70314 0
M  V30 1001 N 97.5546 -0.734337 1.39446 0
M  V30 1002 C 98.5176 -1.83004 1.37994 0
M  V30 1003 C 99.5176 -1.58397 0.276938 0
M  V30 1004 O 100.708 -1.65785 0.534875 0
M  V30 1005 C 97.8396 -3.20802 1.1532 0
M  V30 1006 H 99.0326 -1.85694 2.35494 0
M  V30 1007 H 96.5856 -0.938059 1.25021 0
M  V30 1008 H 97.3206 -3.23772 0.185036 0
M  V30 1009 H 97.1056 -3.4006 1.95197 0
M  V30 1010 H 98.5956 -4.00862 1.17046 0
M  V30 1011 N 99.0327 -1.24633 -0.964593 0
M  V30 1012 C 99.9827 -1.00841 -2.04487 0
M  V30 1013 C 100.967 0.0512468 -1.60818 0
M  V30 1014 O 102.159 -0.162865 -1.76249 0
M  V30 1015 C 99.2877 -0.618474 -3.37683 0
M  V30 1016 C 98.3737 -1.71437 -3.87905 0
M  V30 1017 N 98.7647 -2.9477 -4.11029 0
M  V30 1018 C 97.0627 -1.5926 -4.16596 0
M  V30 1019 C 97.7637 -3.65834 -4.52261 0
M  V30 1020 N 96.7397 -2.9341 -4.57615 0
M  V30 1021 H 100.542 -1.94487 -2.20345 0
M  V30 1022 H 98.0557 -1.14805 -1.14863 0
M  V30 1023 H 100.053 -0.429247 -4.14684 0
M  V30 1024 H 98.7127 0.310766 -3.23209 0
M  V30 1025 H 99.7237 -3.30917 -3.9839 0
M  V30 1026 H 96.4007 -0.731606 -4.1104 0
M  V30 1027 H 97.7907 -4.71646 -4.78539 0
M  V30 1028 N 100.511 1.16574 -1.06058 0
M  V30 1029 C 101.757 1.87324 -0.777022 0
M  V30 1030 C 102.09 1.81351 0.694645 0
M  V30 1031 O 101.365 1.22753 1.50871 0
M  V30 1032 C 101.648 3.36991 -1.26922 0
M  V30 1033 C 101.501 3.51667 -2.80447 0
M  V30 1034 C 102.82 4.3131 -0.87521 0
M  V30 1035 H 99.9388 0.680191 -0.28374 0
M  V30 1036 H 102.581 1.37036 -1.3161 0
M  V30 1037 H 100.731 3.79949 -0.81063 0
M  V30 1038 H 102.403 3.17664 -3.34495 0
M  V30 1039 H 100.646 2.93656 -3.19294 0
M  V30 1040 H 101.317 4.56766 -3.0995 0
M  V30 1041 H 103.793 3.9624 -1.27014 0
M  V30 1042 H 102.669 5.34545 -1.2471 0
M  V30 1043 H 102.93 4.41552 0.220071 0
M  V30 1044 N 101.989 0.842826 1.3317 0
M  V30 1045 C 102.899 0.281444 2.32906 0
M  V30 1046 C 103.915 -0.594587 1.63526 0
M  V30 1047 O 105.091 -0.49777 1.95152 0
M  V30 1048 C 102.156 -0.530929 3.42611 0
M  V30 1049 C 101.217 0.369843 4.27704 0
M  V30 1050 C 100.45 -0.403853 5.3217 0
M  V30 1051 O 100.673 -1.63513 5.46461 0
M  V30 1052 O 99.6069 0.224199 6.01482 0
M  V30 1053 H 103.433 1.10744 2.82789 0
M  V30 1054 H 101.018 0.60545 1.36582 0
M  V30 1055 H 102.9 -0.992437 4.09547 0
M  V30 1056 H 101.575 -1.33392 2.94938 0
M  V30 1057 H 100.482 0.879275 3.6362 0
M  V30 1058 H 101.815 1.13771 4.78871 0
M  V30 1059 N 103.467 -1.45747 0.599634 0
M  V30 1060 C 104.697 -2.06369 0.0977132 0
M  V30 1061 C 105.105 -1.44624 -1.21985 0
M  V30 1062 O 104.448 -0.551831 -1.75216 0
M  V30 1063 C 104.51 -3.59284 -0.124673 0
M  V30 1064 C 104.174 -4.43318 1.10987 0
M  V30 1065 C 105.171 -4.78796 2.02609 0
M  V30 1066 C 102.856 -4.84194 1.33647 0
M  V30 1067 C 104.85 -5.53997 3.15224 0
M  V30 1068 C 102.537 -5.5915 2.46565 0
M  V30 1069 C 103.535 -5.93968 3.37182 0
M  V30 1070 O 103.223 -6.67405 4.48136 0
M  V30 1071 H 102.955 -0.673122 0.0623153 0
M  V30 1072 H 105.509 -1.88104 0.824981 0
M  V30 1073 H 103.739 -3.75919 -0.906745 0
M  V30 1074 H 105.428 -4.01775 -0.577201 0
M  V30 1075 H 106.194 -4.47781 1.86325 0
M  V30 1076 H 102.073 -4.56534 0.64016 0
M  V30 1077 H 105.617 -5.81091 3.85978 0
M  V30 1078 H 101.514 -5.89579 2.62805 0
M  V30 1079 H 102.282 -6.85847 4.46717 0
M  V30 1080 N 104.945 -0.338344 -1.53925 0
M  V30 1081 C 105.855 0.529421 -2.28548 0
M  V30 1082 C 106.871 1.11645 -1.3346 0
M  V30 1083 O 108.047 1.13325 -1.66492 0
M  V30 1084 C 105.112 1.66713 -3.03987 0
M  V30 1085 C 104.173 1.11041 -4.14691 0
M  V30 1086 C 103.406 2.19389 -4.86522 0
M  V30 1087 O 103.629 3.40013 -4.57982 0
M  V30 1088 O 102.563 1.83976 -5.73094 0
M  V30 1089 H 106.389 -0.0770399 -3.03602 0
M  V30 1090 H 103.974 -0.103555 -1.49041 0
M  V30 1091 H 105.856 2.32918 -3.5118 0
M  V30 1092 H 104.531 2.25949 -2.31794 0
M  V30 1093 H 103.438 0.413024 -3.71813 0
M  V30 1094 H 104.771 0.562975 -4.8897 0
M  V30 1095 N 106.423 1.57458 -0.0668435 0
M  V30 1096 C 107.651 1.97624 0.612565 0
M  V30 1097 C 108.066 0.94502 1.63447 0
M  V30 1098 O 107.423 -0.0689276 1.8237 0
M  V30 1099 C 107.474 3.37869 1.28555 0
M  V30 1100 O 107.195 4.3704 0.304557 0
M  V30 1101 C 108.696 3.92882 2.05325 0
M  V30 1102 H 105.916 0.650045 0.166381 0
M  V30 1103 H 108.46 2.04035 -0.137782 0
M  V30 1104 H 106.615 3.3256 1.98702 0
M  V30 1105 H 107.029 5.18565 0.786779 0
M  V30 1106 H 108.503 4.93247 2.47812 0
M  V30 1107 H 108.98 3.29156 2.9078 0
M  V30 1108 H 109.586 4.01577 1.40056 0
M  V30 1109 N 107.901 -0.206675 1.56239 0
M  V30 1110 C 108.864 -1.23976 1.92776 0
M  V30 1111 C 109.864 -1.39041 0.807729 0
M  V30 1112 O 111.054 -1.37051 1.0753 0
M  V30 1113 C 108.186 -2.61112 2.19165 0
M  V30 1114 H 109.379 -0.927764 2.85189 0
M  V30 1115 H 106.932 -0.447718 1.4975 0
M  V30 1116 H 107.667 -2.97386 1.29352 0
M  V30 1117 H 107.452 -2.51552 3.00772 0
M  V30 1118 H 108.942 -3.35633 2.48476 0
M  V30 1119 N 109.379 -1.50304 -0.473955 0
M  V30 1120 C 110.326 -1.68959 -1.57231 0
M  V30 1121 C 111.296 -0.530899 -1.57387 0
M  V30 1122 O 112.481 -0.761133 -1.74961 0
M  V30 1123 C 109.621 -1.7871 -2.95223 0
M  V30 1124 C 108.734 -3.06061 -3.04878 0
M  V30 1125 C 107.869 -3.06626 -4.33767 0
M  V30 1126 C 106.908 -4.28443 -4.37154 0
M  V30 1127 N 106.045 -4.26763 -5.5751 0
M  V30 1128 H 110.885 -2.6273 -1.40631 0
M  V30 1129 H 108.422 -1.30241 -0.683789 0
M  V30 1130 H 110.38 -1.82344 -3.75242 0
M  V30 1131 H 109.01 -0.883806 -3.10465 0
M  V30 1132 H 108.062 -3.11911 -2.17751 0
M  V30 1133 H 109.374 -3.96039 -3.0324 0
M  V30 1134 H 108.528 -3.08973 -5.22131 0
M  V30 1135 H 107.267 -2.14473 -4.3801 0
M  V30 1136 H 106.272 -4.2631 -3.47188 0
M  V30 1137 H 107.497 -5.2182 -4.34605 0
M  V30 1138 H 105.443 -3.37462 -5.62544 0
M  V30 1139 H 105.36 -5.10507 -5.57601 0
M  V30 1140 H 106.628 -4.33253 -6.48006 0
M  V30 1141 N 110.857 0.726932 -1.39834 0
M  V30 1142 C 112.273 1.03354 -1.21615 0
M  V30 1143 C 112.473 2.01327 -0.08338 0
M  V30 1144 O 111.529 2.46158 0.56238 0
M  V30 1145 C 112.842 1.58811 -2.55342 0
M  V30 1146 C 114.39 1.70851 -2.62257 0
M  V30 1147 C 114.865 2.29716 -3.96225 0
M  V30 1148 N 116.356 2.37116 -3.97907 0
M  V30 1149 C 117.091 2.83619 -4.98345 0
M  V30 1150 N 116.587 3.29958 -6.09179 0
M  V30 1151 N 118.38 2.82901 -4.8572 0
M  V30 1152 H 110.531 0.0773069 -2.12259 0
M  V30 1153 H 112.794 0.0969102 -0.943034 0
M  V30 1154 H 112.5 0.942855 -3.38826 0
M  V30 1155 H 112.374 2.57502 -2.75632 0
M  V30 1156 H 114.761 2.34497 -1.79152 0
M  V30 1157 H 114.842 0.707913 -2.45809 0
M  V30 1158 H 114.486 1.66696 -4.79765 0
M  V30 1159 H 114.416 3.30469 -4.09997 0
M  V30 1160 H 116.907 2.04374 -3.17868 0
M  V30 1161 H 117.22 3.63976 -6.8172 0
M  V30 1162 H 115.565 3.27946 -6.12761 0
M  V30 1163 H 118.756 2.46027 -3.98231 0
M  V30 1164 H 118.929 3.18827 -5.6414 0
M  V30 1165 N 112.336 1.25143 0.95797 0
M  V30 1166 C 113.286 1.01924 2.0395 0
M  V30 1167 C 114.27 -0.0427175 1.60843 0
M  V30 1168 O 115.462 0.17221 1.7616 0
M  V30 1169 C 112.591 0.636373 3.3735 0
M  V30 1170 C 111.677 1.73492 3.8699 0
M  V30 1171 N 112.068 2.96945 4.0946 0
M  V30 1172 C 110.366 1.61467 4.15746 0
M  V30 1173 C 111.067 3.68228 4.50315 0
M  V30 1174 N 110.043 2.95833 4.56053 0
M  V30 1175 H 113.845 1.95653 2.19311 0
M  V30 1176 H 111.359 1.15413 1.14253 0
M  V30 1177 H 113.356 0.451233 4.14451 0
M  V30 1178 H 112.016 -0.293621 3.2337 0
M  V30 1179 H 113.027 3.33025 3.96629 0
M  V30 1180 H 109.704 0.753394 4.10646 0
M  V30 1181 H 111.094 4.74178 4.76031 0
M  V30 1182 N 113.814 -1.1601 1.06675 0
M  V30 1183 C 115.044 -1.90251 0.805497 0
M  V30 1184 C 115.452 -1.77891 -0.64431 0
M  V30 1185 O 114.795 -1.12383 -1.45313 0
M  V30 1186 C 114.857 -3.41419 1.12576 0
M  V30 1187 C 114.521 -3.77564 2.57477 0
M  V30 1188 C 115.518 -3.79161 3.55715 0
M  V30 1189 C 113.203 -4.08079 2.92877 0
M  V30 1190 C 115.197 -4.10767 4.8739 0
M  V30 1191 C 112.884 -4.39351 4.24751 0
M  V30 1192 C 113.882 -4.40675 5.21818 0
M  V30 1193 O 113.57 -4.71202 6.51325 0
M  V30 1194 H 113.302 -0.610018 0.291297 0
M  V30 1195 H 115.856 -1.47958 1.4247 0
M  V30 1196 H 114.086 -3.84079 0.449503 0
M  V30 1197 H 115.775 -3.9694 0.84814 0
M  V30 1198 H 116.541 -3.55693 3.29708 0
M  V30 1199 H 112.42 -4.06211 2.17976 0
M  V30 1200 H 115.964 -4.11715 5.63148 0
M  V30 1201 H 111.861 -4.62285 4.50514 0
M  V30 1202 H 112.629 -4.88996 6.56373 0
M  V30 1203 N 115.292 -0.849877 -1.32721 0
M  V30 1204 C 116.517 -0.463856 -2.02146 0
M  V30 1205 C 116.942 0.930449 -1.63476 0
M  V30 1206 O 116.3 1.61033 -0.832952 0
M  V30 1207 C 116.348 -0.604955 -3.55489 0
M  V30 1208 O 115.452 0.36425 -4.10788 0
M  V30 1209 H 114.793 -0.187046 -0.637111 0
M  V30 1210 H 117.323 -1.14775 -1.69375 0
M  V30 1211 H 117.333 -0.490696 -4.05038 0
M  V30 1212 H 116.008 -1.62174 -3.82978 0
M  V30 1213 H 114.585 0.206628 -3.72327 0
M  V30 1214 N 116.77 1.45427 -0.607355 0
M  V30 1215 C 117.72 2.27612 0.133038 0
M  V30 1216 C 118.704 1.37307 0.838785 0
M  V30 1217 O 119.896 1.61299 0.728813 0
M  V30 1218 C 117.025 3.24173 1.12991 0
M  V30 1219 C 116.111 4.21965 0.425011 0
M  V30 1220 N 116.502 5.02982 -0.533217 0
M  V30 1221 C 114.8 4.40899 0.672593 0
M  V30 1222 C 115.501 5.73931 -0.947518 0
M  V30 1223 N 114.477 5.42819 -0.291321 0
M  V30 1224 H 118.279 2.87649 -0.602935 0
M  V30 1225 H 115.793 1.56576 -0.431006 0
M  V30 1226 H 117.79 3.81783 1.67473 0
M  V30 1227 H 116.45 2.65696 1.86644 0
M  V30 1228 H 117.461 5.09843 -0.90995 0
M  V30 1229 H 114.138 3.93547 1.39382 0
M  V30 1230 H 115.528 6.49037 -1.73782 0
M  V30 1231 N 118.248 0.346503 1.53744 0
M  V30 1232 C 119.494 -0.249473 2.0126 0
M  V30 1233 C 119.827 -1.49965 1.23386 0
M  V30 1234 O 119.102 -1.91811 0.32229 0
M  V30 1235 C 119.385 -0.560643 3.55709 0
M  V30 1236 C 119.238 0.701836 4.44291 0
M  V30 1237 C 120.557 -1.36905 4.18264 0
M  V30 1238 H 117.676 -0.0891987 0.731582 0
M  V30 1239 H 120.318 0.467624 1.84156 0
M  V30 1240 H 118.468 -1.17156 3.70414 0
M  V30 1241 H 120.14 1.33974 4.41417 0
M  V30 1242 H 118.383 1.32612 4.13033 0
M  V30 1243 H 119.054 0.43933 5.50249 0
M  V30 1244 H 121.53 -0.852448 4.07275 0
M  V30 1245 H 120.406 -1.55553 5.26398 0
M  V30 1246 H 120.667 -2.37203 3.73078 0
M  V30 1247 N 119.726 -1.57421 0.075193 0
M  V30 1248 C 121.003 -1.85029 -0.634329 0
M  V30 1249 C 121.383 -0.968305 -1.87582 0
M  V30 1250 O 120.731 -0.0354749 -2.28472 0
M  V30 1251 C 120.941 -3.35286 -0.968742 0
M  V30 1252 C 122.289 -4.02875 -1.34077 0
M  V30 1253 O 123.313 -3.40051 -1.06037 0
M  V30 1254 O 122.172 -5.13691 -1.86506 0
M  V30 1255 H 119.266 -0.7645 -0.315387 0
M  V30 1256 H 121.812 -1.69366 0.106382 0
M  V30 1257 H 120.584 -3.91203 -0.0871376 0
M  V30 1258 H 120.207 -3.56223 -1.7661 0
M  V30 1259 N 121.204 0.198386 -1.56346 0
M  V30 1260 C 122.444 0.92609 -1.82217 0
M  V30 1261 C 122.808 1.80584 -0.652195 0
M  V30 1262 O 124.009 2.56907 -0.790716 0
M  V30 1263 C 122.28 1.72354 -3.13096 0
M  V30 1264 S 123.839 2.50371 -3.6036 0
M  V30 1265 H 120.657 0.310677 -0.639532 0
M  V30 1266 H 123.259 0.189755 -1.94577 0
M  V30 1267 H 121.963 1.0678 -3.96265 0
M  V30 1268 H 121.494 2.50175 -3.03605 0
M  V30 1269 H 123.509 3.74488 -3.25535 0
M  V30 1270 N 122.682 1.50554 0.465978 0
M  V30 1271 C 124.093 1.54599 1.04671 0
M  V30 1272 C 124.444 0.352488 1.93008 0
M  V30 1273 O 123.569 -0.534044 2.09707 0
M  V30 1274 C 124.164 2.80166 1.90505 0
M  V30 1275 C 122.723 2.86876 2.43678 0
M  V30 1276 C 121.87 2.48947 1.22151 0
M  V30 1277 H 124.821 1.56744 0.248384 0
M  V30 1278 H 124.842 2.62311 2.75633 0
M  V30 1279 H 124.354 3.67013 1.26186 0
M  V30 1280 H 122.455 2.04393 3.11536 0
M  V30 1281 H 122.568 3.89885 2.78436 0
M  V30 1282 H 120.932 2.01498 1.5579 0
M  V30 1283 H 121.715 3.38107 0.594866 0
M  V30 1284 N 124.16 -0.719506 1.40217 0
M  V30 1285 C 125.408 -1.47641 1.3801 0
M  V30 1286 C 125.729 -1.94992 -0.018145 0
M  V30 1287 O 124.999 -1.70073 -0.972207 0
M  V30 1288 H 123.579 -0.547744 0.507923 0
M  V30 1289 H 126.241 -0.853187 1.75233 0
M  V30 1290 H 125.337 -2.35112 2.05253 0
M  V30 1291 N 125.638 -1.25649 -0.95132 0
M  V30 1292 C 126.588 -1.03004 -2.03406 0
M  V30 1293 C 127.572 0.034187 -1.60864 0
M  V30 1294 O 128.764 -0.181549 -1.76066 0
M  V30 1295 C 125.893 -0.654255 -3.37008 0
M  V30 1296 C 124.979 -1.75542 -3.86065 0
M  V30 1297 N 125.37 -2.99113 -4.07879 0
M  V30 1298 C 123.668 -1.63669 -4.14884 0
M  V30 1299 C 124.369 -3.70611 -4.48356 0
M  V30 1300 N 123.345 -2.98247 -4.54477 0
M  V30 1301 H 127.147 -1.96813 -2.1827 0
M  V30 1302 H 124.661 -1.16017 -1.13639 0
M  V30 1303 H 126.658 -0.473206 -4.14206 0
M  V30 1304 H 125.318 0.276468 -3.23521 0
M  V30 1305 H 126.329 -3.35124 -3.94857 0
M  V30 1306 H 123.006 -0.775161 -4.10241 0
M  V30 1307 H 124.396 -4.76695 -4.73509 0
M  V30 1308 N 127.117 1.15442 -1.07289 0
M  V30 1309 C 128.08 2.18358 -0.696591 0
M  V30 1310 C 129.08 1.58637 0.262837 0
M  V30 1311 O 130.27 1.74145 0.0438809 0
M  V30 1312 C 127.402 3.4089 -0.0266151 0
M  V30 1313 H 128.595 2.53162 -1.60776 0
M  V30 1314 H 126.148 1.29893 -0.869342 0
M  V30 1315 H 126.883 3.11653 0.896822 0
M  V30 1316 H 126.668 3.85495 -0.716657 0
M  V30 1317 H 128.158 4.17009 0.222028 0
M  V30 1318 N 128.595 0.856903 1.32268 0
M  V30 1319 C 129.872 0.382583 1.91822 0
M  V30 1320 C 130.252 -1.13407 1.78051 0
M  V30 1321 O 129.6 -1.95673 1.18001 0
M  V30 1322 C 129.81 0.849446 3.38505 0
M  V30 1323 C 131.158 0.867936 4.15634 0
M  V30 1324 O 132.182 0.794232 3.47232 0
M  V30 1325 O 131.041 0.972286 5.37781 0
M  V30 1326 H 128.135 0.112014 0.819379 0
M  V30 1327 H 130.681 0.943952 1.41024 0
M  V30 1328 H 129.453 1.89267 3.42482 0
M  V30 1329 H 129.076 0.265652 3.96712 0
M  V30 1330 N 130.073 -1.45103 0.615059 0
M  V30 1331 C 131.303 -2.06254 0.119596 0
M  V30 1332 C 131.711 -1.4591 -1.20445 0
M  V30 1333 O 131.054 -0.570384 -1.7462 0
M  V30 1334 C 131.116 -3.59396 -0.0865591 0
M  V30 1335 C 130.78 -4.42116 1.15683 0
M  V30 1336 C 131.777 -4.7662 2.07676 0
M  V30 1337 C 129.462 -4.82749 1.38775 0
M  V30 1338 C 131.456 -5.50622 3.21082 0
M  V30 1339 C 129.143 -5.56504 2.52481 0
M  V30 1340 C 130.141 -5.90358 3.43463 0
M  V30 1341 O 129.829 -6.62615 4.55189 0
M  V30 1342 H 129.561 -0.672423 0.0694512 0
M  V30 1343 H 132.115 -1.87219 0.844885 0
M  V30 1344 H 130.345 -3.76859 -0.866823 0
M  V30 1345 H 132.034 -4.02365 -0.534555 0
M  V30 1346 H 132.8 -4.4578 1.91063 0
M  V30 1347 H 128.679 -4.55829 0.688545 0
M  V30 1348 H 132.223 -5.76965 3.92119 0
M  V30 1349 H 128.12 -5.86759 2.69043 0
M  V30 1350 H 128.888 -6.81071 4.53966 0
M  V30 1351 N 131.551 -0.354651 -1.53558 0
M  V30 1352 C 132.8 0.239504 -2.00273 0
M  V30 1353 C 133.113 1.50759 -1.24623 0
M  V30 1354 O 134.319 2.17968 -1.61871 0
M  V30 1355 C 132.775 0.477341 -3.5672 0
M  V30 1356 C 132.383 -0.775488 -4.41237 0
M  V30 1357 C 134.127 1.02975 -4.11821 0
M  V30 1358 C 132.034 -0.507838 -5.89216 0
M  V30 1359 H 130.964 0.0932743 -0.748208 0
M  V30 1360 H 133.615 -0.471701 -1.77334 0
M  V30 1361 H 131.997 1.24953 -3.7577 0
M  V30 1362 H 133.171 -1.54963 -4.33962 0
M  V30 1363 H 131.486 -1.25033 -3.97185 0
M  V30 1364 H 134.083 1.24513 -5.2 0
M  V30 1365 H 134.426 1.98862 -3.65731 0
M  V30 1366 H 134.959 0.317994 -3.96527 0
M  V30 1367 H 131.698 -1.43674 -6.39561 0
M  V30 1368 H 131.218 0.228011 -5.99366 0
M  V30 1369 H 132.897 -0.129238 -6.46871 0
M  V30 1370 N 133.029 1.57378 -0.0835403 0
M  V30 1371 C 133.976 2.13384 0.879539 0
M  V30 1372 C 134.946 1.04936 1.28754 0
M  V30 1373 O 136.131 1.32662 1.37133 0
M  V30 1374 C 133.271 2.70932 2.13752 0
M  V30 1375 C 132.384 3.93575 1.7811 0
M  V30 1376 C 131.519 4.39326 2.98607 0
M  V30 1377 C 130.558 5.54587 2.59037 0
M  V30 1378 N 129.695 5.95243 3.72331 0
M  V30 1379 H 134.535 2.9537 0.395076 0
M  V30 1380 H 132.072 1.45953 0.183349 0
M  V30 1381 H 134.03 3.02411 2.87408 0
M  V30 1382 H 132.66 1.91693 2.59718 0
M  V30 1383 H 131.712 3.68483 0.94469 0
M  V30 1384 H 133.024 4.77258 1.45005 0
M  V30 1385 H 132.178 4.72528 3.80529 0
M  V30 1386 H 130.917 3.5452 3.34913 0
M  V30 1387 H 129.922 5.21024 1.75539 0
M  V30 1388 H 131.147 6.41133 2.23887 0
M  V30 1389 H 129.093 5.13385 4.08378 0
M  V30 1390 H 129.01 6.73694 3.43034 0
M  V30 1391 H 130.278 6.33072 4.54797 0
M  V30 1392 N 134.507 -0.190092 1.56449 0
M  V30 1393 C 135.455 -1.25501 1.95837 0
M  V30 1394 C 136.449 -1.4685 0.844485 0
M  V30 1395 O 137.655 -1.47651 1.02952 0
M  V30 1396 H 134.03 -0.421447 0.622805 0
M  V30 1397 H 136.001 -0.895821 2.84636 0
M  V30 1398 C 134.75 -2.59124 2.31841 0
M  V30 1399 H 134.073 -2.43514 3.17082 0
M  V30 1400 H 135.513 -3.32371 2.6326 0
M  V30 1401 C 133.972 -3.16488 1.15486 0
M  V30 1402 O 134.502 -3.99365 0.432535 0
M  V30 1403 N 132.708 -2.75305 0.930349 0
M  V30 1404 H 132.255 -2.08013 1.51948 0
M  V30 1405 H 132.213 -3.14024 0.153634 0
M  V30 1406 N 135.985 -1.50799 -0.457987 0
M  V30 1407 C 136.918 -1.65273 -1.57353 0
M  V30 1408 C 137.896 -0.500578 -1.54703 0
M  V30 1409 O 139.08 -0.721781 -1.74134 0
M  V30 1410 C 136.207 -1.64737 -2.95938 0
M  V30 1411 C 135.253 -2.8567 -3.16693 0
M  V30 1412 S 136.086 -4.46791 -2.95191 0
M  V30 1413 C 137.242 -4.48968 -4.36095 0
M  V30 1414 H 137.475 -2.59633 -1.44838 0
M  V30 1415 H 135.008 -1.40225 -0.64625 0
M  V30 1416 H 136.966 -1.65112 -3.7583 0
M  V30 1417 H 135.627 -0.715899 -3.05833 0
M  V30 1418 H 134.82 -2.81637 -4.17967 0
M  V30 1419 H 134.422 -2.8293 -2.44594 0
M  V30 1420 H 136.714 -4.23337 -5.28954 0
M  V30 1421 H 137.657 -5.50664 -4.45168 0
M  V30 1422 H 138.065 -3.78522 -4.18786 0
M  V30 1423 N 137.463 0.71206 -1.40597 0
M  V30 1424 C 138.712 1.46754 -1.38369 0
M  V30 1425 C 139.025 1.95598 0.0097839 0
M  V30 1426 O 140.231 2.71059 0.154677 0
M  V30 1427 C 138.687 2.65289 -2.43207 0
M  V30 1428 C 138.295 2.23301 -3.88382 0
M  V30 1429 C 140.039 3.43008 -2.50091 0
M  V30 1430 C 137.946 3.38696 -4.84808 0
M  V30 1431 H 136.876 0.55118 -0.514506 0
M  V30 1432 H 139.527 0.774616 -1.66349 0
M  V30 1433 H 137.909 3.36769 -2.08332 0
M  V30 1434 H 139.083 1.59218 -4.32419 0
M  V30 1435 H 137.398 1.58618 -3.85006 0
M  V30 1436 H 139.995 4.28881 -3.1932 0
M  V30 1437 H 140.338 3.87065 -1.53253 0
M  V30 1438 H 140.871 2.78574 -2.83974 0
M  V30 1439 H 137.61 2.99668 -5.82992 0
M  V30 1440 H 137.13 4.01683 -4.45433 0
M  V30 1441 H 138.809 4.04712 -5.04794 0
M  V30 1442 N 138.941 1.26152 0.944643 0
M  V30 1443 C 140.169 1.14259 1.72489 0
M  V30 1444 C 140.584 -0.302555 1.8636 0
M  V30 1445 O 139.941 -1.20741 1.36849 0
M  V30 1446 C 139.992 1.80266 3.13347 0
M  V30 1447 O 139.713 3.19133 3.00143 0
M  V30 1448 C 141.214 1.74283 4.07603 0
M  V30 1449 H 138.434 0.398051 0.540181 0
M  V30 1450 H 140.978 1.66706 1.18446 0
M  V30 1451 H 139.133 1.31766 3.64303 0
M  V30 1452 H 139.547 3.51744 3.89071 0
M  V30 1453 H 141.021 2.25111 5.04013 0
M  V30 1454 H 141.498 0.708631 4.33446 0
M  V30 1455 H 142.104 2.22319 3.62567 0
M  V30 1456 N 140.419 -1.14872 1.07899 0
M  V30 1457 C 141.667 -1.85422 0.803941 0
M  V30 1458 C 141.988 -1.83051 -0.67211 0
M  V30 1459 O 141.258 -1.27532 -1.48703 0
M  V30 1460 H 139.838 -0.686537 0.294408 0
M  V30 1461 H 142.5 -1.39226 1.3639 0
M  V30 1462 H 141.596 -2.90399 1.14346 0
M  V30 1463 N 141.898 -0.863906 -1.31812 0
M  V30 1464 C 142.861 -0.320212 -2.26952 0
M  V30 1465 C 143.861 0.525369 -1.51975 0
M  V30 1466 O 145.051 0.335547 -1.70938 0
M  V30 1467 C 142.183 0.545919 -3.365 0
M  V30 1468 H 143.376 -1.16004 -2.76556 0
M  V30 1469 H 140.929 -0.638995 -1.42641 0
M  V30 1470 H 141.664 1.40718 -2.92179 0
M  V30 1471 H 141.449 -0.0594674 -3.92055 0
M  V30 1472 H 142.939 0.918796 -4.07367 0
M  V30 1473 N 143.376 1.44774 -0.622745 0
M  V30 1474 C 144.339 2.29069 0.0774015 0
M  V30 1475 C 145.339 1.4059 0.780461 0
M  V30 1476 O 146.529 1.62551 0.626322 0
M  V30 1477 C 143.661 3.21974 1.12006 0
M  V30 1478 H 144.854 2.92459 -0.663901 0
M  V30 1479 H 142.407 1.51548 -0.382486 0
M  V30 1480 H 143.142 2.63417 1.89162 0
M  V30 1481 H 142.927 3.87168 0.619951 0
M  V30 1482 H 144.417 3.85318 1.60995 0
M  V30 1483 N 144.854 0.36279 1.53368 0
M  V30 1484 C 145.786 -0.519668 2.23231 0
M  V30 1485 C 146.799 -1.04844 1.24546 0
M  V30 1486 O 147.988 -0.955296 1.50786 0
M  V30 1487 C 145.088 -1.72995 2.9142 0
M  V30 1488 C 144.261 -1.33316 4.16588 0
M  V30 1489 C 143.32 -2.40521 4.68013 0
M  V30 1490 O 142.346 -2.03027 5.3176 0
M  V30 1491 N 143.548 -3.72065 4.45587 0
M  V30 1492 H 146.313 0.078751 2.99597 0
M  V30 1493 H 143.874 0.187833 1.60807 0
M  V30 1494 H 145.866 -2.44184 3.22733 0
M  V30 1495 H 144.436 -2.2353 2.18525 0
M  V30 1496 H 143.656 -0.451236 3.91609 0
M  V30 1497 H 144.944 -1.04432 4.97967 0
M  V30 1498 H 144.342 -4.05304 3.94646 0
M  V30 1499 H 142.899 -4.39366 4.81457 0
M  V30 1500 N 146.332 -1.57332 0.0918853 0
M  V30 1501 C 147.265 -2.09499 -0.904735 0
M  V30 1502 C 148.243 -1.00479 -1.27839 0
M  V30 1503 O 149.427 -1.27954 -1.38419 0
M  V30 1504 C 146.554 -2.56931 -2.2069 0
M  V30 1505 C 145.6 -3.77579 -1.98334 0
M  V30 1506 S 146.433 -5.21317 -1.22428 0
M  V30 1507 C 147.589 -5.72097 -2.53882 0
M  V30 1508 H 147.822 -2.93705 -0.460922 0
M  V30 1509 H 145.355 -1.53923 -0.121332 0
M  V30 1510 H 147.313 -2.84917 -2.95521 0
M  V30 1511 H 145.974 -1.72956 -2.62192 0
M  V30 1512 H 145.167 -4.08824 -2.94752 0
M  V30 1513 H 144.769 -3.5007 -1.31633 0
M  V30 1514 H 147.061 -5.80168 -3.49874 0
M  V30 1515 H 148.004 -6.70654 -2.27219 0
M  V30 1516 H 148.412 -5.00012 -2.62007 0
M  V30 1517 N 147.81 0.181792 -1.56548 0
M  V30 1518 C 149.087 0.926765 -1.72251 0
M  V30 1519 C 149.467 2.00831 -0.650386 0
M  V30 1520 O 148.815 2.26008 0.336521 0
M  V30 1521 C 149.025 1.50106 -3.1507 0
M  V30 1522 C 150.373 1.97805 -3.75711 0
M  V30 1523 O 151.397 1.59922 -3.18282 0
M  V30 1524 O 150.256 2.67555 -4.76525 0
M  V30 1525 H 147.35 0.435506 -0.703039 0
M  V30 1526 H 149.896 0.170443 -1.68842 0
M  V30 1527 H 148.668 0.72212 -3.84579 0
M  V30 1528 H 148.291 2.32186 -3.22763 0
M  V30 1529 N 149.288 1.51039 0.449983 0
M  V30 1530 C 150.536 1.62759 1.19808 0
M  V30 1531 C 150.857 0.339981 1.92013 0
M  V30 1532 O 150.127 -0.643606 1.85026 0
M  V30 1533 H 148.707 0.599811 0.445237 0
M  V30 1534 H 151.369 1.87914 0.517138 0
M  V30 1535 H 150.465 2.44911 1.93455 0
M  V30 1536 N 150.766 -0.704594 1.40972 0
M  V30 1537 C 151.729 -1.80035 1.41845 0
M  V30 1538 C 152.729 -1.57774 0.310474 0
M  V30 1539 O 153.919 -1.64613 0.56992 0
M  V30 1540 C 151.051 -3.18284 1.22098 0
M  V30 1541 H 152.244 -1.80658 2.3938 0
M  V30 1542 H 149.797 -0.911329 1.26982 0
M  V30 1543 H 150.532 -3.23306 0.253672 0
M  V30 1544 H 150.317 -3.35843 2.02366 0
M  V30 1545 H 151.807 -3.98289 1.25522 0
M  V30 1546 N 152.244 -1.26651 -0.937939 0
M  V30 1547 C 153.493 -1.11775 -1.67897 0
M  V30 1548 C 153.806 0.33794 -1.92659 0
M  V30 1549 O 155.012 0.607434 -2.64618 0
M  V30 1550 C 153.468 -1.9523 -3.02346 0
M  V30 1551 C 153.076 -3.45393 -2.8532 0
M  V30 1552 C 154.82 -1.88972 -3.80118 0
M  V30 1553 C 152.727 -4.21083 -4.15263 0
M  V30 1554 H 151.657 -0.414696 -0.629717 0
M  V30 1555 H 154.308 -1.50988 -1.04283 0
M  V30 1556 H 152.69 -1.48853 -3.66959 0
M  V30 1557 H 153.864 -3.99561 -2.29537 0
M  V30 1558 H 152.179 -3.52921 -2.20988 0
M  V30 1559 H 154.776 -2.42805 -4.76392 0
M  V30 1560 H 155.119 -0.86113 -4.07296 0
M  V30 1561 H 155.652 -2.33189 -3.22285 0
M  V30 1562 H 152.391 -5.24425 -3.93267 0
M  V30 1563 H 151.911 -3.71695 -4.70747 0
M  V30 1564 H 153.59 -4.29706 -4.83696 0
M  V30 1565 N 153.722 1.14298 -1.08507 0
M  V30 1566 C 154.652 2.21542 -0.737646 0
M  V30 1567 C 155.633 1.67773 0.280377 0
M  V30 1568 O 156.818 1.93616 0.150521 0
M  V30 1569 C 153.948 3.46988 -0.147259 0
M  V30 1570 C 152.902 4.13789 -1.09374 0
M  V30 1571 C 152.228 5.33449 -0.365524 0
M  V30 1572 C 153.528 4.62208 -2.4323 0
M  V30 1573 H 155.222 2.5086 -1.6343 0
M  V30 1574 H 152.768 1.20576 -0.787243 0
M  V30 1575 H 154.721 4.21262 0.107808 0
M  V30 1576 H 153.445 3.17037 0.784538 0
M  V30 1577 H 152.104 3.4147 -1.33393 0
M  V30 1578 H 151.752 4.99759 0.57011 0
M  V30 1579 H 151.452 5.79088 -0.996512 0
M  V30 1580 H 152.976 6.10485 -0.118534 0
M  V30 1581 H 154.39 5.27952 -2.23472 0
M  V30 1582 H 152.787 5.18553 -3.02031 0
M  V30 1583 H 153.857 3.77224 -3.04681 0
M  V30 1584 N 155.201 0.870884 1.31352 0
M  V30 1585 C 156.447 0.482987 1.96965 0
M  V30 1586 C 156.78 -0.962462 1.68672 0
M  V30 1587 O 156.055 -1.6779 0.98371 0
M  V30 1588 C 156.338 0.741752 3.52378 0
M  V30 1589 C 156.191 2.2368 3.9024 0
M  V30 1590 C 157.51 0.208838 4.39604 0
M  V30 1591 H 154.629 0.176955 0.715441 0
M  V30 1592 H 157.271 1.09229 1.55464 0
M  V30 1593 H 155.421 0.223149 3.87859 0
M  V30 1594 H 157.093 2.82273 3.64856 0
M  V30 1595 H 155.336 2.70901 3.38814 0
M  V30 1596 H 156.007 2.3685 4.98604 0
M  V30 1597 H 158.483 0.652529 4.10952 0
M  V30 1598 H 157.359 0.419336 5.47296 0
M  V30 1599 H 157.62 -0.889275 4.33064 0
M  V30 1600 N 156.679 -1.44442 0.630414 0
M  V30 1601 C 157.925 -2.02351 0.134816 0
M  V30 1602 C 158.258 -1.4947 -1.23986 0
M  V30 1603 O 157.533 -0.678475 -1.82283 0
M  V30 1604 C 157.816 -3.59898 0.120707 0
M  V30 1605 C 157.669 -4.23063 1.52767 0
M  V30 1606 C 158.988 -4.36585 -0.555127 0
M  V30 1607 H 156.107 -0.73527 0.0504646 0
M  V30 1608 H 158.749 -1.72022 0.806751 0
M  V30 1609 H 156.899 -3.85868 -0.451477 0
M  V30 1610 H 158.571 -4.08202 2.14869 0
M  V30 1611 H 156.814 -3.80586 2.08175 0
M  V30 1612 H 157.485 -5.32071 1.46984 0
M  V30 1613 H 159.961 -4.16044 -0.0685429 0
M  V30 1614 H 158.837 -5.46294 -0.534185 0
M  V30 1615 H 159.098 -4.11138 -1.62535 0
M  V30 1616 N 158.157 -0.370918 -1.53173 0
M  V30 1617 C 159.382 0.220293 -2.06227 0
M  V30 1618 C 159.807 1.41243 -1.24225 0
M  V30 1619 O 159.165 1.79387 -0.262645 0
M  V30 1620 C 159.213 0.586663 -3.55796 0
M  V30 1621 O 158.317 1.68317 -3.76488 0
M  V30 1622 H 157.658 0.0308099 -0.663285 0
M  V30 1623 H 160.188 -0.533068 -1.97534 0
M  V30 1624 H 160.198 0.85617 -3.98916 0
M  V30 1625 H 158.873 -0.285013 -4.14922 0
M  V30 1626 H 157.45 1.40881 -3.45264 0
M  V30 1627 N 159.635 1.57281 -0.100228 0
M  V30 1628 C 160.598 2.13158 0.842398 0
M  V30 1629 C 161.598 1.06202 1.20738 0
M  V30 1630 O 162.788 1.32066 1.13597 0
M  V30 1631 C 159.92 2.65639 2.13655 0
M  V30 1632 H 161.113 2.97766 0.357114 0
M  V30 1633 H 158.666 1.5559 0.148823 0
M  V30 1634 H 159.401 1.84566 2.66657 0
M  V30 1635 H 159.186 3.43844 1.88451 0
M  V30 1636 H 160.676 3.08846 2.81077 0
M  V30 1637 N 161.113 -0.173488 1.56642 0
M  V30 1638 C 162.076 -1.19859 1.95362 0
M  V30 1639 C 163.076 -1.37296 0.83704 0
M  V30 1640 O 164.266 -1.34739 1.10413 0
M  V30 1641 C 161.398 -2.56405 2.24654 0
M  V30 1642 H 162.591 -0.867062 2.87092 0
M  V30 1643 H 160.144 -0.415853 1.50666 0
M  V30 1644 H 160.879 -2.94576 1.35631 0
M  V30 1645 H 160.664 -2.45115 3.06041 0
M  V30 1646 H 162.154 -3.30287 2.5554 0
M  V30 1647 N 162.591 -1.51276 -0.441967 0
M  V30 1648 C 163.868 -1.54252 -1.20273 0
M  V30 1649 C 164.248 -0.30408 -2.08898 0
M  V30 1650 O 163.596 0.711084 -2.17154 0
M  V30 1651 C 163.806 -2.85406 -2.00859 0
M  V30 1652 C 165.154 -3.37181 -2.58059 0
M  V30 1653 O 166.178 -2.86925 -2.11074 0
M  V30 1654 O 165.037 -4.24858 -3.43741 0
M  V30 1655 H 162.131 -0.619969 -0.547328 0
M  V30 1656 H 164.677 -1.63586 -0.451413 0
M  V30 1657 H 163.449 -3.67003 -1.35736 0
M  V30 1658 H 163.072 -2.79213 -2.83065 0
M  V30 1659 N 164.069 0.697108 -1.41344 0
M  V30 1660 C 165.317 1.45426 -1.40341 0
M  V30 1661 C 165.638 1.94996 -0.0128787 0
M  V30 1662 O 164.908 1.71599 0.945027 0
M  V30 1663 H 163.488 0.539594 -0.516573 0
M  V30 1664 H 166.15 0.825201 -1.76569 0
M  V30 1665 H 165.246 2.31817 -2.08967 0
M  V30 1666 N 165.547 1.27147 0.931209 0
M  V30 1667 C 166.958 1.12044 1.49342 0
M  V30 1668 C 167.309 -0.295795 1.93957 0
M  V30 1669 O 166.434 -1.18835 1.80852 0
M  V30 1670 C 167.029 2.02781 2.71414 0
M  V30 1671 C 165.588 1.91794 3.2387 0
M  V30 1672 C 164.735 1.95543 1.96617 0
M  V30 1673 H 167.686 1.40091 0.745672 0
M  V30 1674 H 167.707 1.58156 3.46074 0
M  V30 1675 H 167.219 3.05848 2.38911 0
M  V30 1676 H 165.32 0.916992 3.6114 0
M  V30 1677 H 165.433 2.77852 3.90302 0
M  V30 1678 H 163.797 1.39722 2.12955 0
M  V30 1679 H 164.58 3.00259 1.66432 0
M  V30 1680 N 167.025 -1.13721 1.09112 0
M  V30 1681 C 167.958 -2.18094 0.67158 0
M  V30 1682 C 168.936 -1.59414 -0.320299 0
M  V30 1683 O 170.12 -1.87183 -0.222444 0
M  V30 1684 C 167.247 -3.38698 -0.0111189 0
M  V30 1685 C 166.293 -4.15966 0.942055 0
M  V30 1686 S 167.126 -4.7604 2.45246 0
M  V30 1687 C 168.282 -5.99994 1.78208 0
M  V30 1688 H 168.515 -2.53344 1.55577 0
M  V30 1689 H 166.048 -1.24967 0.906789 0
M  V30 1690 H 168.006 -4.08559 -0.398716 0
M  V30 1691 H 166.667 -3.01756 -0.871905 0
M  V30 1692 H 165.86 -5.02318 0.411396 0
M  V30 1693 H 165.462 -3.51745 1.2709 0
M  V30 1694 H 167.754 -6.68441 1.10424 0
M  V30 1695 H 168.697 -6.57662 2.62463 0
M  V30 1696 H 169.105 -5.50432 1.25238 0
M  V30 1697 N 168.503 -0.877838 -1.30888 0
M  V30 1698 C 169.914 -0.544193 -1.78593 0
M  V30 1699 C 170.265 0.939301 -1.72254 0
M  V30 1700 O 169.39 1.7337 -1.29505 0
M  V30 1701 C 169.985 -0.98105 -3.24285 0
M  V30 1702 C 168.544 -0.698935 -3.69854 0
M  V30 1703 C 167.691 -1.168 -2.51502 0
M  V30 1704 H 170.642 -1.06278 -1.17859 0
M  V30 1705 H 170.663 -0.307009 -3.79259 0
M  V30 1706 H 170.175 -2.06079 -3.28866 0
M  V30 1707 H 168.276 0.369112 -3.70767 0
M  V30 1708 H 168.389 -1.28148 -4.61644 0
M  V30 1709 H 166.753 -0.587535 -2.47831 0
M  V30 1710 H 167.536 -2.25533 -2.58824 0
M  V30 1711 N 169.982 1.44106 -0.638065 0
M  V30 1712 C 170.914 2.28976 0.101205 0
M  V30 1713 C 171.927 1.4167 0.802088 0
M  V30 1714 O 173.116 1.65755 0.662375 0
M  V30 1715 C 170.216 3.18217 1.16581 0
M  V30 1716 C 169.389 4.33978 0.546066 0
M  V30 1717 C 168.448 5.04202 1.50554 0
M  V30 1718 O 167.474 5.59986 1.01999 0
M  V30 1719 N 168.676 5.06296 2.8398 0
M  V30 1720 H 171.441 2.93064 -0.627186 0
M  V30 1721 H 169.002 1.54629 -0.479731 0
M  V30 1722 H 170.994 3.62061 1.80815 0
M  V30 1723 H 169.564 2.55833 1.79634 0
M  V30 1724 H 168.784 3.93239 -0.275046 0
M  V30 1725 H 170.072 5.08675 0.112793 0
M  V30 1726 H 169.47 4.62319 3.26002 0
M  V30 1727 H 168.027 5.53907 3.43556 0
M  V30 1728 N 171.46 0.379036 1.52974 0
M  V30 1729 C 172.688 -0.20679 2.05864 0
M  V30 1730 C 173.103 -1.41356 1.25155 0
M  V30 1731 O 172.46 -1.8009 0.295588 0
M  V30 1732 C 172.511 -0.587045 3.56702 0
M  V30 1733 O 172.232 0.571776 4.34353 0
M  V30 1734 C 173.733 -1.22983 4.25899 0
M  V30 1735 H 170.953 -0.0336123 0.670158 0
M  V30 1736 H 173.497 0.541298 1.97206 0
M  V30 1737 H 171.652 -1.28504 3.65466 0
M  V30 1738 H 172.066 0.261544 5.23847 0
M  V30 1739 H 173.54 -1.44635 5.32715 0
M  V30 1740 H 174.017 -2.19416 3.80465 0
M  V30 1741 H 174.623 -0.572892 4.21424 0
M  V30 1742 N 172.938 -1.57226 0.108567 0
M  V30 1743 C 174.354 -1.5766 -0.248058 0
M  V30 1744 C 174.554 -1.12063 -1.67464 0
M  V30 1745 O 173.61 -0.803236 -2.39383 0
M  V30 1746 C 174.923 -3.0069 -0.0242287 0
M  V30 1747 C 176.471 -3.12868 -0.0909372 0
M  V30 1748 C 176.946 -4.57879 0.105067 0
M  V30 1749 N 178.437 -4.63172 0.0506846 0
M  V30 1750 C 179.172 -5.73126 0.177396 0
M  V30 1751 N 178.668 -6.91866 0.359696 0
M  V30 1752 N 180.461 -5.61977 0.117709 0
M  V30 1753 H 172.612 -1.85169 1.04049 0
M  V30 1754 H 174.875 -0.85529 0.40888 0
M  V30 1755 H 174.581 -3.38299 0.961604 0
M  V30 1756 H 174.455 -3.6945 -0.76068 0
M  V30 1757 H 176.842 -2.75124 -1.06729 0
M  V30 1758 H 176.923 -2.46672 0.677225 0
M  V30 1759 H 176.567 -4.96321 1.07834 0
M  V30 1760 H 176.497 -5.22153 -0.682954 0
M  V30 1761 H 178.988 -3.778 -0.0871266 0
M  V30 1762 H 179.301 -7.71503 0.447529 0
M  V30 1763 H 177.646 -6.93874 0.395536 0
M  V30 1764 H 180.837 -4.68094 -0.0236741 0
M  V30 1765 H 181.01 -6.47627 0.219905 0
M  V30 1766 N 174.416 0.165178 -1.56732 0
M  V30 1767 C 175.326 1.22423 -2.00125 0
M  V30 1768 C 176.342 1.48084 -0.913619 0
M  V30 1769 O 177.518 1.60112 -1.22172 0
M  V30 1770 C 174.583 2.54197 -2.35764 0
M  V30 1771 C 173.644 2.36343 -3.58386 0
M  V30 1772 C 172.877 3.61834 -3.92316 0
M  V30 1773 O 173.1 4.67267 -3.27135 0
M  V30 1774 O 172.034 3.55579 -4.85641 0
M  V30 1775 H 175.86 0.885886 -2.90492 0
M  V30 1776 H 173.445 0.372518 -1.44681 0
M  V30 1777 H 175.327 3.3192 -2.59629 0
M  V30 1778 H 174.002 2.87598 -1.48557 0
M  V30 1779 H 172.909 1.56632 -3.39731 0
M  V30 1780 H 174.242 2.07865 -4.46154 0
M  V30 1781 N 175.894 1.51508 0.433938 0
M  V30 1782 C 176.844 1.69451 1.52546 0
M  V30 1783 C 177.828 0.548474 1.51263 0
M  V30 1784 O 179.02 0.804529 1.57659 0
M  V30 1785 C 176.149 1.82604 2.90707 0
M  V30 1786 C 175.235 3.03002 2.96733 0
M  V30 1787 N 175.626 4.26121 2.72496 0
M  V30 1788 C 173.924 3.02327 3.27894 0
M  V30 1789 C 174.625 5.07407 2.84452 0
M  V30 1790 N 173.601 4.42126 3.16269 0
M  V30 1791 H 177.403 2.62305 1.32564 0
M  V30 1792 H 174.917 1.49202 0.641297 0
M  V30 1793 H 176.914 1.93569 3.69238 0
M  V30 1794 H 175.574 0.909339 3.11707 0
M  V30 1795 H 176.585 4.55009 2.4736 0
M  V30 1796 H 173.262 2.20301 3.54646 0
M  V30 1797 H 174.652 6.15422 2.69639 0
M  V30 1798 N 177.372 -0.689602 1.41712 0
M  V30 1799 C 178.621 -1.44534 1.40686 0
M  V30 1800 C 178.934 -1.95588 0.0213352 0
M  V30 1801 O 180.14 -2.71271 -0.111534 0
M  V30 1802 C 178.596 -2.61387 2.47396 0
M  V30 1803 C 178.204 -2.17094 3.91885 0
M  V30 1804 C 179.948 -3.38986 2.55517 0
M  V30 1805 C 177.855 -3.3094 4.90135 0
M  V30 1806 H 176.785 -0.542925 0.52321 0
M  V30 1807 H 179.436 -0.748054 1.6756 0
M  V30 1808 H 177.818 -3.33412 2.13664 0
M  V30 1809 H 178.992 -1.52318 4.34897 0
M  V30 1810 H 177.307 -1.52473 3.8748 0
M  V30 1811 H 179.904 -4.23747 3.26102 0
M  V30 1812 H 180.247 -3.84578 1.59391 0
M  V30 1813 H 180.78 -2.74021 2.8837 0
M  V30 1814 H 177.519 -2.90355 5.87685 0
M  V30 1815 H 177.039 -3.94546 4.51767 0
M  V30 1816 H 178.718 -3.9663 5.11169 0
M  V30 1817 N 178.85 -1.27639 -0.924453 0
M  V30 1818 C 179.78 -1.13166 -2.04244 0
M  V30 1819 C 180.761 -0.032256 -1.70069 0
M  V30 1820 O 181.946 -0.207328 -1.9309 0
M  V30 1821 C 179.076 -0.781496 -3.38393 0
M  V30 1822 C 178.03 -1.83449 -3.86692 0
M  V30 1823 C 177.356 -1.33822 -5.17683 0
M  V30 1824 C 178.656 -3.23917 -4.09726 0
M  V30 1825 H 180.35 -2.06689 -2.1661 0
M  V30 1826 H 177.896 -0.995136 -1.04082 0
M  V30 1827 H 179.849 -0.667057 -4.16087 0
M  V30 1828 H 178.573 0.189439 -3.2605 0
M  V30 1829 H 177.232 -1.93789 -3.11193 0
M  V30 1830 H 176.88 -0.35665 -5.01734 0
M  V30 1831 H 176.58 -2.04224 -5.50968 0
M  V30 1832 H 178.104 -1.23679 -5.97943 0
M  V30 1833 H 179.518 -3.16559 -4.77978 0
M  V30 1834 H 177.915 -3.92059 -4.54324 0
M  V30 1835 H 178.985 -3.68729 -3.14908 0
M  V30 1836 N 180.328 1.1314 -1.09713 0
M  V30 1837 C 181.258 2.20748 -0.761102 0
M  V30 1838 C 182.239 1.68061 0.262566 0
M  V30 1839 O 183.424 1.93765 0.129977 0
M  V30 1840 C 180.554 3.46812 -0.184054 0
M  V30 1841 C 179.508 4.12606 -1.13757 0
M  V30 1842 C 178.834 5.33031 -0.422083 0
M  V30 1843 C 180.134 4.59603 -2.48118 0
M  V30 1844 H 181.828 2.49113 -1.66082 0
M  V30 1845 H 179.374 1.19734 -0.799987 0
M  V30 1846 H 181.327 4.21353 0.0631215 0
M  V30 1847 H 180.051 3.17851 0.750868 0
M  V30 1848 H 178.71 3.40036 -1.37007 0
M  V30 1849 H 178.358 5.00335 0.517072 0
M  V30 1850 H 178.058 5.77999 -1.05788 0
M  V30 1851 H 179.582 6.10325 -0.183277 0
M  V30 1852 H 180.996 5.25552 -2.29059 0
M  V30 1853 H 179.393 5.15321 -3.07514 0
M  V30 1854 H 180.463 3.73971 -3.08665 0
M  V30 1855 N 181.806 0.884767 1.30421 0
M  V30 1856 C 182.769 0.356277 2.26414 0
M  V30 1857 C 183.769 -0.501124 1.52792 0
M  V30 1858 O 184.959 -0.30831 1.7145 0
M  V30 1859 C 182.091 -0.492316 3.37326 0
M  V30 1860 H 183.284 1.20389 2.74675 0
M  V30 1861 H 180.837 0.661607 1.41607 0
M  V30 1862 H 181.572 -1.36052 2.94381 0
M  V30 1863 H 181.357 0.121832 3.91911 0
M  V30 1864 H 182.847 -0.853871 4.08777 0
M  V30 1865 N 183.284 -1.43765 0.645699 0
M  V30 1866 C 184.7 -1.56509 0.312591 0
M  V30 1867 C 184.9 -1.6307 -1.18365 0
M  V30 1868 O 183.956 -1.58167 -1.96824 0
M  V30 1869 C 185.269 -2.82968 1.01733 0
M  V30 1870 C 186.817 -2.96701 0.996865 0
M  V30 1871 C 187.292 -4.25982 1.68236 0
M  V30 1872 N 188.783 -4.32829 1.64964 0
M  V30 1873 C 189.518 -5.31613 2.14885 0
M  V30 1874 N 189.014 -6.36718 2.73061 0
M  V30 1875 N 190.807 -5.23217 2.05428 0
M  V30 1876 H 182.958 -1.3775 1.61675 0
M  V30 1877 H 185.221 -0.661067 0.679481 0
M  V30 1878 H 184.927 -2.84156 2.0724 0
M  V30 1879 H 184.801 -3.72957 0.564177 0
M  V30 1880 H 187.188 -2.95058 -0.0497719 0
M  V30 1881 H 187.269 -2.08022 1.48865 0
M  V30 1882 H 186.913 -4.28386 2.72852 0
M  V30 1883 H 186.843 -5.13545 1.16529 0
M  V30 1884 H 189.334 -3.57493 1.22503 0
M  V30 1885 H 189.647 -7.08401 3.08848 0
M  V30 1886 H 187.992 -6.37362 2.77118 0
M  V30 1887 H 191.183 -4.40019 1.59689 0
M  V30 1888 H 191.356 -6.00045 2.44643 0
M  V30 1889 N 184.763 -0.387143 -1.52771 0
M  V30 1890 C 185.695 0.484089 -2.2403 0
M  V30 1891 C 186.708 1.02849 -1.26198 0
M  V30 1892 O 187.897 0.931186 -1.52286 0
M  V30 1893 C 184.997 1.68337 -2.94136 0
M  V30 1894 C 184.17 1.26672 -4.18656 0
M  V30 1895 C 183.229 2.33045 -4.7178 0
M  V30 1896 O 182.255 1.94541 -5.34923 0
M  V30 1897 N 183.457 3.64929 -4.5145 0
M  V30 1898 H 186.222 -0.126404 -2.99433 0
M  V30 1899 H 183.783 -0.213392 -1.60488 0
M  V30 1900 H 185.775 2.39019 -3.26577 0
M  V30 1901 H 184.345 2.20025 -2.22053 0
M  V30 1902 H 183.565 0.388878 -3.92277 0
M  V30 1903 H 184.853 0.964964 -4.99566 0
M  V30 1904 H 184.251 3.98974 -4.01044 0
M  V30 1905 H 182.808 4.31651 -4.88386 0
M  V30 1906 N 186.241 1.57166 -0.116904 0
M  V30 1907 C 187.487 1.95412 0.542405 0
M  V30 1908 C 187.82 1.00019 1.66463 0
M  V30 1909 O 187.095 0.0370346 1.94465 0
M  V30 1910 C 187.378 3.43615 1.07708 0
M  V30 1911 C 187.231 4.49781 -0.0415868 0
M  V30 1912 C 188.55 3.93616 1.96861 0
M  V30 1913 H 185.669 0.710543 0.195696 0
M  V30 1914 H 188.311 1.89027 -0.192038 0
M  V30 1915 H 186.461 3.49187 1.70296 0
M  V30 1916 H 188.133 4.56308 -0.676793 0
M  V30 1917 H 186.376 4.28033 -0.705019 0
M  V30 1918 H 187.047 5.50733 0.373717 0
M  V30 1919 H 189.523 3.90335 1.44146 0
M  V30 1920 H 188.399 4.97838 2.3119 0
M  V30 1921 H 188.66 3.34188 2.89432 0
M  V30 1922 N 187.719 -0.156864 1.56817 0
M  V30 1923 C 188.967 -0.869404 1.82444 0
M  V30 1924 C 189.288 -1.82147 0.69623 0
M  V30 1925 O 188.558 -1.93847 -0.28287 0
M  V30 1926 H 187.138 -0.324043 0.673056 0
M  V30 1927 H 189.8 -0.153224 1.94297 0
M  V30 1928 H 188.896 -1.43761 2.77019 0
M  V30 1929 N 189.197 -1.51736 -0.425897 0
M  V30 1930 C 190.443 -1.65214 -1.1761 0
M  V30 1931 C 190.776 -0.372778 -1.90589 0
M  V30 1932 O 190.051 0.628139 -1.84078 0
M  V30 1933 C 190.334 -2.86312 -2.18398 0
M  V30 1934 C 190.187 -4.24254 -1.49426 0
M  V30 1935 C 191.506 -3.02925 -3.19256 0
M  V30 1936 H 188.625 -0.601263 -0.426206 0
M  V30 1937 H 191.267 -1.8425 -0.463882 0
M  V30 1938 H 189.417 -2.70213 -2.79137 0
M  V30 1939 H 191.089 -4.52046 -0.919362 0
M  V30 1940 H 189.332 -4.26426 -0.796432 0
M  V30 1941 H 190.003 -5.05001 -2.22885 0
M  V30 1942 H 192.479 -3.1781 -2.68581 0
M  V30 1943 H 191.355 -3.89199 -3.8706 0
M  V30 1944 H 191.616 -2.15497 -3.86023 0
M  V30 1945 N 190.675 0.682077 -1.42076 0
M  V30 1946 C 192.086 1.26246 -1.37546 0
M  V30 1947 C 192.437 1.96092 -0.0651481 0
M  V30 1948 O 191.562 1.99587 0.836297 0
M  V30 1949 C 192.157 2.29594 -2.49143 0
M  V30 1950 C 190.716 2.83175 -2.47969 0
M  V30 1951 C 189.863 1.57395 -2.28303 0
M  V30 1952 H 192.814 0.475937 -1.51395 0
M  V30 1953 H 192.835 3.11175 -2.18976 0
M  V30 1954 H 192.347 1.78729 -3.44496 0
M  V30 1955 H 190.448 3.3818 -1.56413 0
M  V30 1956 H 190.561 3.32687 -3.44755 0
M  V30 1957 H 188.925 1.83699 -1.76428 0
M  V30 1958 H 189.708 1.08507 -3.25701 0
M  V30 1959 N 192.153 1.28127 0.917671 0
M  V30 1960 C 193.383 1.17722 1.6978 0
M  V30 1961 C 193.791 -0.267261 1.87303 0
M  V30 1962 O 193.134 -1.19286 1.39702 0
M  V30 1963 C 193.196 1.79958 3.11216 0
M  V30 1964 C 192.86 3.29187 3.16993 0
M  V30 1965 C 193.857 4.25679 2.98485 0
M  V30 1966 C 191.542 3.70075 3.39632 0
M  V30 1967 C 193.536 5.61035 3.02521 0
M  V30 1968 C 191.223 5.05557 3.433 0
M  V30 1969 C 192.221 6.00847 3.24764 0
M  V30 1970 O 191.909 7.33859 3.28187 0
M  V30 1971 H 191.641 0.409788 0.537634 0
M  V30 1972 H 194.195 1.69694 1.15728 0
M  V30 1973 H 192.425 1.22475 3.66793 0
M  V30 1974 H 194.114 1.64125 3.71238 0
M  V30 1975 H 194.88 3.95426 2.80826 0
M  V30 1976 H 190.759 2.96373 3.53106 0
M  V30 1977 H 194.303 6.35388 2.87971 0
M  V30 1978 H 190.2 5.35462 3.60486 0
M  V30 1979 H 190.968 7.42436 3.44575 0
M  V30 1980 N 193.631 -1.12557 1.10312 0
M  V30 1981 C 194.88 -1.83395 0.839588 0
M  V30 1982 C 195.193 -1.84939 -0.636929 0
M  V30 1983 O 196.399 -2.51761 -1.01631 0
M  V30 1984 C 194.855 -3.29303 1.45215 0
M  V30 1985 C 194.463 -3.36122 2.96186 0
M  V30 1986 C 196.207 -4.05121 1.26796 0
M  V30 1987 C 194.114 -4.76357 3.50483 0
M  V30 1988 H 193.044 -0.687133 0.310425 0
M  V30 1989 H 195.695 -1.26746 1.32694 0
M  V30 1990 H 194.077 -3.85812 0.892469 0
M  V30 1991 H 195.251 -2.89559 3.58458 0
M  V30 1992 H 193.566 -2.73776 3.13745 0
M  V30 1993 H 196.163 -5.08668 1.64806 0
M  V30 1994 H 196.506 -4.15773 0.209409 0
M  V30 1995 H 197.039 -3.54967 1.79563 0
M  V30 1996 H 193.778 -4.70899 4.55998 0
M  V30 1997 H 193.298 -5.23377 2.92978 0
M  V30 1998 H 194.977 -5.45294 3.48228 0
M  V30 1999 N 195.109 -0.891671 -1.2995 0
M  V30 2000 C 196.355 -0.514261 -1.96171 0
M  V30 2001 C 196.688 0.935506 -1.70182 0
M  V30 2002 O 195.963 1.66204 -1.01028 0
M  V30 2003 C 196.246 -0.797719 -3.51153 0
M  V30 2004 C 196.099 -2.2986 -3.86632 0
M  V30 2005 C 197.418 -0.278749 -4.39216 0
M  V30 2006 H 194.537 -0.188314 -0.712535 0
M  V30 2007 H 197.179 -1.11689 -1.53706 0
M  V30 2008 H 195.329 -0.284826 -3.87455 0
M  V30 2009 H 197.001 -2.88042 -3.60319 0
M  V30 2010 H 195.244 -2.76257 -3.34462 0
M  V30 2011 H 195.915 -2.44753 -4.94773 0
M  V30 2012 H 198.391 -0.717825 -4.09862 0
M  V30 2013 H 197.267 -0.506353 -5.46559 0
M  V30 2014 H 197.528 0.820266 -4.34424 0
M  V30 2015 N 196.587 1.43421 -0.653314 0
M  V30 2016 C 197.833 2.02111 -0.166992 0
M  V30 2017 C 198.166 1.51423 1.21592 0
M  V30 2018 O 197.441 0.707389 1.8118 0
M  V30 2019 C 197.724 3.5966 -0.177948 0
M  V30 2020 C 197.577 4.20579 -1.59478 0
M  V30 2021 C 198.896 4.37413 0.4856 0
M  V30 2022 H 196.015 0.734374 -0.0621557 0
M  V30 2023 H 198.657 1.70717 -0.834016 0
M  V30 2024 H 196.807 3.86537 0.390032 0
M  V30 2025 H 198.479 4.04732 -2.21336 0
M  V30 2026 H 196.722 3.77226 -2.14204 0
M  V30 2027 H 197.393 5.29665 -1.5543 0
M  V30 2028 H 199.869 4.161 0.00234528 0
M  V30 2029 H 198.745 5.47075 0.447207 0
M  V30 2030 H 199.006 4.13672 1.55974 0
M  V30 2031 N 198.065 0.39524 1.52563 0
M  V30 2032 C 199.312 -0.185044 2.01653 0
M  V30 2033 C 199.64 -1.46317 1.28146 0
M  V30 2034 O 198.895 -1.9213 0.372074 0
M  V30 2035 C 199.194 -0.493444 3.53977 0
M  V30 2036 C 198.86 0.69384 4.4553 0
M  V30 2037 C 197.522 1.01954 4.70275 0
M  V30 2038 C 199.874 1.48785 4.99512 0
M  V30 2039 C 197.202 2.14069 5.46252 0
M  V30 2040 C 199.554 2.59965 5.76716 0
M  V30 2041 C 198.218 2.93037 5.99738 0
M  V30 2042 H 197.488 -0.0677123 0.7379 0
M  V30 2043 H 200.135 0.533807 1.8391 0
M  V30 2044 H 198.44 -1.29369 3.69825 0
M  V30 2045 H 200.137 -0.955163 3.89458 0
M  V30 2046 H 196.727 0.429987 4.26438 0
M  V30 2047 H 200.911 1.24946 4.80315 0
M  V30 2048 H 196.167 2.40056 5.62302 0
M  V30 2049 H 200.341 3.21887 6.17545 0
M  V30 2050 H 197.968 3.8003 6.58393 0
M  V30 2051 N 199.544 -1.57102 0.125237 0
M  V30 2052 C 200.477 -2.11371 -0.860094 0
M  V30 2053 C 201.455 -1.03168 -1.25679 0
M  V30 2054 O 202.639 -1.30862 -1.35674 0
M  V30 2055 C 199.766 -2.61555 -2.1519 0
M  V30 2056 C 198.812 -3.81701 -1.9028 0
M  V30 2057 S 199.645 -5.23797 -1.11343 0
M  V30 2058 C 200.801 -5.77353 -2.41689 0
M  V30 2059 H 201.034 -2.94617 -0.39852 0
M  V30 2060 H 198.567 -1.54145 -0.0886555 0
M  V30 2061 H 200.525 -2.91122 -2.89411 0
M  V30 2062 H 199.186 -1.78479 -2.58465 0
M  V30 2063 H 198.379 -4.14985 -2.86014 0
M  V30 2064 H 197.981 -3.52783 -1.24178 0
M  V30 2065 H 200.273 -5.87458 -3.37489 0
M  V30 2066 H 201.216 -6.75323 -2.12942 0
M  V30 2067 H 201.624 -5.05457 -2.51342 0
M  V30 2068 N 201.022 0.148545 -1.56898 0
M  V30 2069 C 201.97 1.20265 -1.99096 0
M  V30 2070 C 202.964 1.44559 -0.883123 0
M  V30 2071 O 204.17 1.4487 -1.0683 0
M  V30 2072 H 200.545 0.404786 -0.63376 0
M  V30 2073 H 202.516 0.82004 -2.86911 0
M  V30 2074 C 201.265 2.52886 -2.3863 0
M  V30 2075 H 200.588 2.35021 -3.23427 0
M  V30 2076 H 202.028 3.25274 -2.7198 0
M  V30 2077 C 200.487 3.13315 -1.23837 0
M  V30 2078 O 201.017 3.98077 -0.538268 0
M  V30 2079 N 199.223 2.72742 -1.00301 0
M  V30 2080 H 198.77 2.03912 -1.5741 0
M  V30 2081 H 198.728 3.13507 -0.236838 0
M  V30 2082 N 202.5 1.5196 0.417844 0
M  V30 2083 C 203.447 1.74678 1.50852 0
M  V30 2084 C 204.417 0.588947 1.55308 0
M  V30 2085 O 205.602 0.825544 1.72016 0
M  V30 2086 C 202.742 1.89544 2.88387 0
M  V30 2087 C 201.855 3.17166 2.93309 0
M  V30 2088 C 200.99 3.22513 4.22088 0
M  V30 2089 C 200.029 4.44372 4.20951 0
M  V30 2090 N 199.166 4.47161 5.41287 0
M  V30 2091 H 204.006 2.67768 1.30783 0
M  V30 2092 H 201.543 1.32689 0.63498 0
M  V30 2093 H 203.501 1.96146 3.68216 0
M  V30 2094 H 202.131 0.998424 3.06971 0
M  V30 2095 H 201.183 3.19778 2.06024 0
M  V30 2096 H 202.495 4.07021 2.88332 0
M  V30 2097 H 201.649 3.28139 5.10303 0
M  V30 2098 H 200.388 2.30581 4.29748 0
M  V30 2099 H 199.393 4.38902 3.31127 0
M  V30 2100 H 200.618 5.3759 4.14938 0
M  V30 2101 H 198.564 3.58108 5.49632 0
M  V30 2102 H 198.481 5.3085 5.3827 0
M  V30 2103 H 199.749 4.57005 6.3148 0
M  V30 2104 N 203.978 -0.674533 1.42435 0
M  V30 2105 C 205.224 -1.43671 1.43131 0
M  V30 2106 C 205.557 -1.94142 0.0476021 0
M  V30 2107 O 204.832 -1.70924 -0.928188 0
M  V30 2108 C 205.115 -2.63355 2.45594 0
M  V30 2109 C 204.968 -2.18514 3.93156 0
M  V30 2110 C 206.287 -3.65571 2.45043 0
M  V30 2111 H 203.406 -0.521077 0.521198 0
M  V30 2112 H 206.048 -0.766551 1.7385 0
M  V30 2113 H 204.198 -3.2053 2.19528 0
M  V30 2114 H 205.87 -1.66504 4.30202 0
M  V30 2115 H 204.113 -1.50086 4.07009 0
M  V30 2116 H 204.784 -3.04484 4.60428 0
M  V30 2117 H 207.26 -3.18113 2.68223 0
M  V30 2118 H 206.136 -4.46893 3.18713 0
M  V30 2119 H 206.397 -4.16716 1.47649 0
M  V30 2120 N 205.456 -1.28612 -0.910864 0
M  V30 2121 C 206.733 -1.06632 -1.63979 0
M  V30 2122 C 207.113 0.393351 -2.07403 0
M  V30 2123 O 206.461 1.37999 -1.82122 0
M  V30 2124 C 206.671 -2.0436 -2.8291 0
M  V30 2125 C 208.019 -2.34666 -3.5386 0
M  V30 2126 O 209.043 -2.02467 -2.93062 0
M  V30 2127 O 207.902 -2.89631 -4.63439 0
M  V30 2128 H 204.996 -0.407737 -0.7195 0
M  V30 2129 H 207.542 -1.39942 -0.959914 0
M  V30 2130 H 206.314 -3.02727 -2.47936 0
M  V30 2131 H 205.937 -1.71714 -3.58609 0
M  V30 2132 N 206.934 1.1197 -1.10907 0
M  V30 2133 C 207.867 2.16998 -0.706192 0
M  V30 2134 C 208.845 1.59903 0.294897 0
M  V30 2135 O 210.029 1.87513 0.192636 0
M  V30 2136 C 207.156 3.38673 -0.0427664 0
M  V30 2137 C 206.202 4.14414 -1.00811 0
M  V30 2138 S 207.035 4.72079 -2.52789 0
M  V30 2139 C 208.191 5.97083 -1.87731 0
M  V30 2140 H 208.424 2.50837 -1.59587 0
M  V30 2141 H 205.957 1.23508 -0.926555 0
M  V30 2142 H 207.915 4.09142 0.333668 0
M  V30 2143 H 206.576 3.03105 0.823788 0
M  V30 2144 H 205.769 5.016 -0.491259 0
M  V30 2145 H 205.371 3.49678 -1.3267 0
M  V30 2146 H 207.663 6.66599 -1.21044 0
M  V30 2147 H 208.606 6.53403 -2.72892 0
M  V30 2148 H 209.014 5.4837 -1.33979 0
M  V30 2149 N 208.412 0.89855 1.29475 0
M  V30 2150 C 209.658 0.524658 1.95896 0
M  V30 2151 C 209.991 -0.926468 1.70676 0
M  V30 2152 O 209.266 -1.65665 1.01908 0
M  V30 2153 C 209.549 0.81633 3.50725 0
M  V30 2154 C 209.402 2.31907 3.85408 0
M  V30 2155 C 210.721 0.302038 4.39062 0
M  V30 2156 H 207.84 0.19209 0.711527 0
M  V30 2157 H 210.482 1.12502 1.53112 0
M  V30 2158 H 208.632 0.305369 3.87298 0
M  V30 2159 H 210.304 2.89949 3.58786 0
M  V30 2160 H 208.547 2.78027 3.32992 0
M  V30 2161 H 209.218 2.47373 4.93468 0
M  V30 2162 H 211.694 0.739551 4.09475 0
M  V30 2163 H 210.57 0.535331 5.46283 0
M  V30 2164 H 210.831 -0.797216 4.34853 0
M  V30 2165 N 209.89 -1.43072 0.660911 0
M  V30 2166 C 211.167 -1.95307 0.107017 0
M  V30 2167 C 211.547 -1.60192 -1.37484 0
M  V30 2168 O 210.895 -0.890949 -2.10415 0
M  V30 2169 C 211.105 -3.47124 0.361402 0
M  V30 2170 C 212.453 -4.23738 0.270455 0
M  V30 2171 O 213.477 -3.54981 0.294382 0
M  V30 2172 O 212.336 -5.46131 0.200737 0
M  V30 2173 H 209.43 -0.826984 -0.00517729 0
M  V30 2174 H 211.976 -1.52972 0.734681 0
M  V30 2175 H 210.748 -3.65837 1.38848 0
M  V30 2176 H 210.371 -3.96475 -0.298953 0
M  V30 2177 N 211.368 -0.403325 -1.52352 0
M  V30 2178 C 212.645 0.232611 -1.94212 0
M  V30 2179 C 213.025 1.63133 -1.33981 0
M  V30 2180 O 212.373 2.22659 -0.513344 0
M  V30 2181 C 212.583 0.244811 -3.4814 0
M  V30 2182 C 213.931 0.46698 -4.22024 0
M  V30 2183 O 214.955 0.324419 -3.5472 0
M  V30 2184 O 213.814 0.74747 -5.41364 0
M  V30 2185 H 210.908 0.148223 -0.813609 0
M  V30 2186 H 213.454 -0.458848 -1.63379 0
M  V30 2187 H 212.226 -0.734378 -3.84347 0
M  V30 2188 H 211.849 0.980611 -3.85318 0
M  V30 2189 N 212.846 1.57033 -0.133567 0
M  V30 2190 C 214.257 1.82593 0.389464 0
M  V30 2191 C 214.608 1.05156 1.6564 0
M  V30 2192 O 213.733 0.292644 2.14412 0
M  V30 2193 C 214.328 3.31204 0.713377 0
M  V30 2194 C 212.887 3.57393 1.18098 0
M  V30 2195 C 212.034 2.76598 0.197126 0
M  V30 2196 H 214.985 1.54598 -0.358481 0
M  V30 2197 H 215.006 3.46627 1.56939 0
M  V30 2198 H 214.518 3.87537 -0.2089 0
M  V30 2199 H 212.619 3.06433 2.11966 0
M  V30 2200 H 212.732 4.65915 1.11624 0
M  V30 2201 H 211.096 2.45257 0.687088 0
M  V30 2202 H 211.879 3.35697 -0.718504 0
M  V30 2203 N 214.325 -0.140222 1.56975 0
M  V30 2204 C 215.235 -1.19223 2.02047 0
M  V30 2205 C 216.251 -1.46612 0.937062 0
M  V30 2206 O 217.427 -1.58148 1.24704 0
M  V30 2207 C 214.492 -2.50414 2.39778 0
M  V30 2208 C 213.553 -2.30612 3.621 0
M  V30 2209 C 212.786 -3.55547 3.98023 0
M  V30 2210 O 213.009 -4.62004 3.34528 0
M  V30 2211 O 211.943 -3.47808 4.91237 0
M  V30 2212 H 215.769 -0.839559 2.91865 0
M  V30 2213 H 213.354 -0.349453 1.45256 0
M  V30 2214 H 215.236 -3.27747 2.64877 0
M  V30 2215 H 213.911 -2.85198 1.53114 0
M  V30 2216 H 212.818 -1.51207 3.4218 0
M  V30 2217 H 214.151 -2.00741 4.49404 0
M  V30 2218 N 215.803 -1.52179 -0.40978 0
M  V30 2219 C 216.733 -1.78435 -1.5061 0
M  V30 2220 C 217.714 -0.635295 -1.57791 0
M  V30 2221 O 218.899 -0.880823 -1.73076 0
M  V30 2222 C 216.029 -1.93444 -2.88439 0
M  V30 2223 C 214.983 -3.09038 -2.96108 0
M  V30 2224 C 214.309 -3.09268 -4.36185 0
M  V30 2225 C 215.609 -4.48508 -2.67652 0
M  V30 2226 H 217.303 -2.70237 -1.28889 0
M  V30 2227 H 214.849 -1.30036 -0.618605 0
M  V30 2228 H 216.802 -2.10394 -3.65119 0
M  V30 2229 H 215.526 -0.983129 -3.11452 0
M  V30 2230 H 214.185 -2.91837 -2.21872 0
M  V30 2231 H 213.833 -2.11861 -4.56206 0
M  V30 2232 H 213.533 -3.86907 -4.42241 0
M  V30 2233 H 215.057 -3.28348 -5.14801 0
M  V30 2234 H 216.471 -4.65918 -3.34056 0
M  V30 2235 H 214.868 -5.28059 -2.85085 0
M  V30 2236 H 215.938 -4.56649 -1.63095 0
M  V30 2237 N 217.281 0.66697 -1.42791 0
M  V30 2238 C 218.211 1.79218 -1.49677 0
M  V30 2239 C 219.192 1.66405 -0.352623 0
M  V30 2240 O 220.377 1.85708 -0.567993 0
M  V30 2241 C 217.507 3.17565 -1.40605 0
M  V30 2242 C 216.461 3.45124 -2.53127 0
M  V30 2243 C 215.787 4.83127 -2.29112 0
M  V30 2244 C 217.087 3.41236 -3.95418 0
M  V30 2245 H 218.781 1.73713 -2.43853 0
M  V30 2246 H 216.327 0.83432 -1.17367 0
M  V30 2247 H 218.28 3.96022 -1.44029 0
M  V30 2248 H 217.004 3.23767 -0.429271 0
M  V30 2249 H 215.663 2.69031 -2.49034 0
M  V30 2250 H 215.311 4.85988 -1.29709 0
M  V30 2251 H 215.011 5.02528 -3.04531 0
M  V30 2252 H 216.535 5.63859 -2.34297 0
M  V30 2253 H 217.949 4.09651 -4.01073 0
M  V30 2254 H 216.346 3.72173 -4.70752 0
M  V30 2255 H 217.416 2.39665 -4.21532 0
M  V30 2256 N 218.759 1.29093 0.90403 0
M  V30 2257 C 220.036 1.075 1.63411 0
M  V30 2258 C 220.416 -0.382346 2.07609 0
M  V30 2259 O 219.764 -1.37031 1.82851 0
M  V30 2260 C 219.974 2.05858 2.81822 0
M  V30 2261 C 221.322 2.36539 3.52611 0
M  V30 2262 O 222.346 2.04019 2.91984 0
M  V30 2263 O 221.205 2.92085 4.61897 0
M  V30 2264 H 218.299 0.411547 0.717327 0
M  V30 2265 H 220.845 1.40449 0.952479 0
M  V30 2266 H 219.617 3.04037 2.46327 0
M  V30 2267 H 219.24 1.73613 3.57693 0
M  V30 2268 N 220.237 -1.11381 1.11499 0
M  V30 2269 C 221.167 -2.19509 0.796125 0
M  V30 2270 C 222.148 -1.68458 -0.235796 0
M  V30 2271 O 223.333 -1.93947 -0.0991344 0
M  V30 2272 C 220.463 -3.46475 0.239205 0
M  V30 2273 C 219.417 -4.10744 1.20307 0
M  V30 2274 C 218.743 -5.32293 0.50683 0
M  V30 2275 C 220.043 -4.55597 2.55399 0
M  V30 2276 H 221.737 -2.46439 1.70024 0
M  V30 2277 H 219.283 -1.18446 0.818935 0
M  V30 2278 H 221.236 -4.214 0.00392006 0
M  V30 2279 H 219.96 -3.19006 -0.700206 0
M  V30 2280 H 218.619 -3.37813 1.42399 0
M  V30 2281 H 218.267 -5.01095 -0.437408 0
M  V30 2282 H 217.967 -5.76243 1.1497 0
M  V30 2283 H 219.491 -6.09956 0.280351 0
M  V30 2284 H 220.905 -5.21841 2.37391 0
M  V30 2285 H 219.302 -5.10363 3.15673 0
M  V30 2286 H 220.372 -3.69013 3.14575 0
M  V30 2287 N 221.715 -0.905404 -1.28997 0
M  V30 2288 C 222.961 -0.535039 -1.95615 0
M  V30 2289 C 223.294 0.917404 -1.71165 0
M  V30 2290 O 222.569 1.65123 -1.02785 0
M  V30 2291 C 222.852 -0.834918 -3.50287 0
M  V30 2292 C 222.705 -2.33948 -3.84172 0
M  V30 2293 C 224.024 -0.325318 -4.38896 0
M  V30 2294 H 221.143 -0.195861 -0.710498 0
M  V30 2295 H 223.785 -1.13313 -1.52513 0
M  V30 2296 H 221.935 -0.325904 -3.87131 0
M  V30 2297 H 223.607 -2.91847 -3.57243 0
M  V30 2298 H 221.85 -2.79789 -3.31513 0
M  V30 2299 H 222.521 -2.49987 -4.92149 0
M  V30 2300 H 224.997 -0.761256 -4.09077 0
M  V30 2301 H 223.873 -0.564295 -5.45992 0
M  V30 2302 H 224.134 0.774144 -4.35269 0
M  V30 2303 N 223.193 1.4272 -0.668489 0
M  V30 2304 C 224.103 2.34596 0.0139753 0
M  V30 2305 C 225.119 1.5474 0.795703 0
M  V30 2306 O 226.295 1.87334 0.739466 0
M  V30 2307 C 223.36 3.33202 0.957982 0
M  V30 2308 C 222.421 4.28957 0.17149 0
M  V30 2309 C 221.654 5.22853 1.07053 0
M  V30 2310 O 221.877 5.21531 2.31001 0
M  V30 2311 O 220.811 5.9952 0.534727 0
M  V30 2312 H 224.637 2.9448 -0.742661 0
M  V30 2313 H 222.222 1.43117 -0.428705 0
M  V30 2314 H 224.104 3.93796 1.50008 0
M  V30 2315 H 222.779 2.758 1.69458 0
M  V30 2316 H 221.686 3.71796 -0.414558 0
M  V30 2317 H 223.019 4.89383 -0.52586 0
M  V30 2318 N 224.671 0.411399 1.52136 0
M  V30 2319 C 225.604 -0.457614 2.23565 0
M  V30 2320 C 226.582 -1.04613 1.24478 0
M  V30 2321 O 227.766 -1.09356 1.53536 0
M  V30 2322 C 224.893 -1.6354 2.96602 0
M  V30 2323 C 223.939 -1.17005 4.10137 0
M  V30 2324 S 224.772 -0.13333 5.35334 0
M  V30 2325 C 225.928 -1.31638 6.119 0
M  V30 2326 H 226.161 0.148883 2.96927 0
M  V30 2327 H 223.694 0.195713 1.53155 0
M  V30 2328 H 225.652 -2.31074 3.39286 0
M  V30 2329 H 224.313 -2.21324 2.22878 0
M  V30 2330 H 223.506 -2.05005 4.60422 0
M  V30 2331 H 223.108 -0.573319 3.6958 0
M  V30 2332 H 225.4 -2.23957 6.39413 0
M  V30 2333 H 226.343 -0.854014 7.02931 0
M  V30 2334 H 226.751 -1.54321 5.42997 0
M  V30 2335 N 226.149 -1.5696 0.141893 0
M  V30 2336 C 227.059 -2.20066 -0.812905 0
M  V30 2337 C 228.075 -1.18344 -1.27557 0
M  V30 2338 O 229.251 -1.50902 -1.33381 0
M  V30 2339 C 226.316 -2.80583 -2.03652 0
M  V30 2340 C 225.377 -3.97414 -1.62359 0
M  V30 2341 C 224.61 -4.55036 -2.78887 0
M  V30 2342 O 224.833 -4.11538 -3.94959 0
M  V30 2343 O 223.767 -5.45376 -2.54653 0
M  V30 2344 H 227.593 -3.02157 -0.305746 0
M  V30 2345 H 225.178 -1.49159 -0.0848799 0
M  V30 2346 H 227.06 -3.19067 -2.75272 0
M  V30 2347 H 225.735 -2.01508 -2.5333 0
M  V30 2348 H 224.642 -3.63656 -0.877775 0
M  V30 2349 H 225.975 -4.77994 -1.17401 0
M  V30 2350 N 227.627 0.131896 -1.57047 0
M  V30 2351 C 228.873 0.843179 -1.84441 0
M  V30 2352 C 229.206 1.80129 -0.725749 0
M  V30 2353 O 228.481 1.92624 0.269469 0
M  V30 2354 C 228.764 1.60442 -3.22382 0
M  V30 2355 C 228.617 0.666782 -4.4483 0
M  V30 2356 C 229.936 2.56354 -3.5773 0
M  V30 2357 H 227.055 0.305081 -0.670891 0
M  V30 2358 H 229.697 0.107839 -1.89694 0
M  V30 2359 H 227.847 2.23128 -3.18035 0
M  V30 2360 H 229.519 0.0497646 -4.61273 0
M  V30 2361 H 227.762 -0.022609 -4.33794 0
M  V30 2362 H 228.433 1.23579 -5.37989 0
M  V30 2363 H 230.909 2.0378 -3.62785 0
M  V30 2364 H 229.785 3.06657 -4.5525 0
M  V30 2365 H 230.046 3.38419 -2.84473 0
M  V30 2366 N 229.106 1.52395 0.401703 0
M  V30 2367 C 230.522 1.41363 0.740864 0
M  V30 2368 C 230.722 0.523982 1.94568 0
M  V30 2369 O 229.778 -0.00741204 2.52499 0
M  V30 2370 C 231.091 2.84011 0.987847 0
M  V30 2371 C 232.639 2.93404 1.09011 0
M  V30 2372 C 233.114 4.37036 1.3698 0
M  V30 2373 N 234.605 4.40304 1.43829 0
M  V30 2374 C 235.34 5.48508 1.67112 0
M  V30 2375 N 234.836 6.66819 1.87949 0
M  V30 2376 N 236.629 5.36034 1.69187 0
M  V30 2377 H 228.78 2.08765 -0.391262 0
M  V30 2378 H 231.043 0.941265 -0.112798 0
M  V30 2379 H 230.749 3.51265 0.174835 0
M  V30 2380 H 230.623 3.25502 1.906 0
M  V30 2381 H 233.01 2.26325 1.8937 0
M  V30 2382 H 233.091 2.55359 0.15015 0
M  V30 2383 H 232.735 5.04676 0.571353 0
M  V30 2384 H 232.665 4.72623 2.3224 0
M  V30 2385 H 235.156 3.55024 1.29486 0
M  V30 2386 H 235.469 7.45063 2.05185 0
M  V30 2387 H 233.814 6.6987 1.85199 0
M  V30 2388 H 237.005 4.42579 1.52451 0
M  V30 2389 H 237.178 6.20434 1.86993 0
M  V30 2390 N 230.584 -0.659388 1.43143 0
M  V30 2391 C 231.861 -1.41627 1.34912 0
M  V30 2392 C 232.241 -2.11099 -0.00607785 0
M  V30 2393 O 231.589 -2.04353 -1.02236 0
M  V30 2394 C 231.799 -2.40604 2.52805 0
M  V30 2395 C 233.147 -3.04789 2.95616 0
M  V30 2396 O 234.171 -2.50932 2.52807 0
M  V30 2397 O 233.03 -4.02421 3.69756 0
M  V30 2398 H 230.124 -0.63246 0.532844 0
M  V30 2399 H 232.67 -0.686814 1.5518 0
M  V30 2400 H 231.442 -1.88174 3.43083 0
M  V30 2401 H 231.065 -3.21009 2.34604 0
M  V30 2402 N 232.062 -1.29571 -0.897171 0
M  V30 2403 C 232.992 -1.17473 -2.01798 0
M  V30 2404 C 233.973 -0.068323 -1.69963 0
M  V30 2405 O 235.158 -0.248239 -1.92607 0
M  V30 2406 C 232.288 -0.853099 -3.36659 0
M  V30 2407 C 231.242 -1.9161 -3.82713 0
M  V30 2408 C 230.568 -1.44773 -5.14728 0
M  V30 2409 C 231.868 -3.32535 -4.02763 0
M  V30 2410 H 233.562 -2.11237 -2.12177 0
M  V30 2411 H 231.108 -1.01699 -1.01948 0
M  V30 2412 H 233.061 -0.755165 -4.14578 0
M  V30 2413 H 231.785 0.120236 -3.26379 0
M  V30 2414 H 230.444 -2.00346 -3.07013 0
M  V30 2415 H 230.092 -0.462995 -5.00865 0
M  V30 2416 H 229.792 -2.15865 -5.46513 0
M  V30 2417 H 231.316 -1.36334 -5.95185 0
M  V30 2418 H 232.73 -3.26626 -4.71156 0
M  V30 2419 H 231.127 -4.01607 -4.45905 0
M  V30 2420 H 232.197 -3.75326 -3.07016 0
M  V30 2421 N 233.54 1.10788 -1.12088 0
M  V30 2422 C 234.47 2.19083 -0.807755 0
M  V30 2423 C 235.451 1.6858 0.226859 0
M  V30 2424 O 236.636 1.93997 0.0888475 0
M  V30 2425 C 233.766 3.46344 -0.257576 0
M  V30 2426 C 232.72 4.101 -1.22483 0
M  V30 2427 C 232.046 5.32016 -0.535052 0
M  V30 2428 C 233.346 4.54236 -2.57811 0
M  V30 2429 H 235.04 2.45534 -1.71328 0
M  V30 2430 H 232.586 1.1801 -0.825205 0
M  V30 2431 H 234.539 4.21392 -0.0262679 0
M  V30 2432 H 233.263 3.19373 0.683278 0
M  V30 2433 H 231.922 3.37054 -1.44189 0
M  V30 2434 H 231.57 5.01319 0.410827 0
M  V30 2435 H 231.27 5.75625 -1.18024 0
M  V30 2436 H 232.794 6.09799 -0.312695 0
M  V30 2437 H 234.208 5.20575 -2.40155 0
M  V30 2438 H 232.605 5.08682 -3.18375 0
M  V30 2439 H 233.675 3.6734 -3.16528 0
M  V30 2440 N 235.018 0.912232 1.28515 0
M  V30 2441 C 235.966 0.389597 2.29314 0
M  V30 2442 C 236.96 -0.517915 1.61289 0
M  V30 2443 O 238.166 -0.399328 1.75515 0
M  V30 2444 H 234.541 0.107386 0.744293 0
M  V30 2445 H 236.512 1.25286 2.70825 0
M  V30 2446 C 235.261 -0.356496 3.45868 0
M  V30 2447 H 234.584 0.332608 3.98414 0
M  V30 2448 H 236.024 -0.686851 4.184 0
M  V30 2449 C 234.483 -1.56383 2.98406 0
M  V30 2450 O 235.013 -2.66294 3.00749 0
M  V30 2451 N 233.219 -1.41029 2.54085 0
M  V30 2452 H 232.766 -0.516089 2.52377 0
M  V30 2453 H 232.724 -2.21939 2.22689 0
M  V30 2454 N 236.496 -1.42363 0.676048 0
M  V30 2455 C 237.428 -2.29164 -0.0404605 0
M  V30 2456 C 238.441 -1.43747 -0.764245 0
M  V30 2457 O 239.63 -1.67453 -0.618195 0
M  V30 2458 C 236.73 -3.21196 -1.08103 0
M  V30 2459 C 235.903 -4.35273 -0.430812 0
M  V30 2460 C 234.962 -5.08017 -1.37133 0
M  V30 2461 O 233.988 -5.62494 -0.87116 0
M  V30 2462 N 235.19 -5.13647 -2.70456 0
M  V30 2463 H 237.955 -2.91298 0.704667 0
M  V30 2464 H 235.516 -1.53303 0.520559 0
M  V30 2465 H 237.508 -3.66728 -1.71152 0
M  V30 2466 H 236.078 -2.60505 -1.72788 0
M  V30 2467 H 235.298 -3.92372 0.379209 0
M  V30 2468 H 236.586 -5.08795 0.0221132 0
M  V30 2469 H 235.984 -4.708 -3.1363 0
M  V30 2470 H 234.541 -5.62821 -3.28749 0
M  V30 2471 N 237.974 -0.419461 -1.51915 0
M  V30 2472 C 239.204 0.151915 -2.06041 0
M  V30 2473 C 239.612 1.38539 -1.28855 0
M  V30 2474 O 238.955 1.80592 -0.336463 0
M  V30 2475 C 239.017 0.557119 -3.55157 0
M  V30 2476 C 238.681 -0.567054 -4.53468 0
M  V30 2477 C 239.678 -1.43379 -4.99738 0
M  V30 2478 C 237.363 -0.742693 -4.96779 0
M  V30 2479 C 239.357 -2.46102 -5.87973 0
M  V30 2480 C 237.044 -1.77322 -5.84808 0
M  V30 2481 C 238.042 -2.63078 -6.30301 0
M  V30 2482 O 237.73 -3.64364 -7.16585 0
M  V30 2483 H 237.462 0.0193293 -0.675724 0
M  V30 2484 H 240.016 -0.592073 -1.96682 0
M  V30 2485 H 238.246 1.35355 -3.62238 0
M  V30 2486 H 239.935 1.05759 -3.9188 0
M  V30 2487 H 240.701 -1.30954 -4.66986 0
M  V30 2488 H 236.58 -0.0848307 -4.60922 0
M  V30 2489 H 240.124 -3.13071 -6.23404 0
M  V30 2490 H 236.021 -1.89773 -6.16974 0
M  V30 2491 H 236.789 -3.60731 -7.34721 0
M  V30 2492 N 239.452 1.56882 -0.150215 0
M  V30 2493 C 240.362 2.20494 0.801222 0
M  V30 2494 C 241.378 1.19019 1.26927 0
M  V30 2495 O 242.554 1.51607 1.32579 0
M  V30 2496 C 239.619 2.81659 2.02161 0
M  V30 2497 C 238.68 3.9827 1.60249 0
M  V30 2498 C 237.913 4.56508 2.7647 0
M  V30 2499 O 238.136 4.13627 3.92771 0
M  V30 2500 O 237.07 5.46719 2.51757 0
M  V30 2501 H 240.896 3.02315 0.289717 0
M  V30 2502 H 238.481 1.49202 0.0769684 0
M  V30 2503 H 240.363 3.20522 2.73576 0
M  V30 2504 H 239.038 2.02849 2.52258 0
M  V30 2505 H 237.945 3.64117 0.858477 0
M  V30 2506 H 239.278 4.78609 1.14864 0
M  V30 2507 N 240.93 -0.123565 1.57115 0
M  V30 2508 C 242.177 -0.832153 1.84612 0
M  V30 2509 C 242.505 -1.80093 0.734627 0
M  V30 2510 O 241.76 -1.93766 -0.27442 0
M  V30 2511 C 242.059 -1.62016 3.18568 0
M  V30 2512 C 241.725 -0.796084 4.43817 0
M  V30 2513 C 240.387 -0.568816 4.77826 0
M  V30 2514 C 242.739 -0.221364 5.2073 0
M  V30 2515 C 240.067 0.243499 5.86194 0
M  V30 2516 C 242.419 0.578117 6.29953 0
M  V30 2517 C 241.083 0.815744 6.62497 0
M  V30 2518 H 240.353 -0.304507 0.675542 0
M  V30 2519 H 243 -0.0947248 1.91266 0
M  V30 2520 H 241.305 -2.42837 3.0747 0
M  V30 2521 H 243.002 -2.17231 3.37064 0
M  V30 2522 H 239.592 -0.983307 4.17168 0
M  V30 2523 H 243.776 -0.384173 4.94811 0
M  V30 2524 H 239.032 0.436871 6.09837 0
M  V30 2525 H 243.206 1.03046 6.88734 0
M  V30 2526 H 240.833 1.44701 7.46301 0
M  V30 2527 N 242.408 -1.52605 -0.393616 0
M  V30 2528 C 243.819 -1.59417 -0.971761 0
M  V30 2529 C 244.17 -0.444173 -1.91106 0
M  V30 2530 O 243.295 0.433382 -2.12016 0
M  V30 2531 C 243.89 -2.88936 -1.76921 0
M  V30 2532 C 242.449 -2.98175 -2.29714 0
M  V30 2533 C 241.596 -2.54491 -1.10135 0
M  V30 2534 H 244.547 -1.57751 -0.173317 0
M  V30 2535 H 244.568 -2.75163 -2.62804 0
M  V30 2536 H 244.08 -3.72616 -1.08532 0
M  V30 2537 H 242.181 -2.19024 -3.01429 0
M  V30 2538 H 242.294 -4.02726 -2.59517 0
M  V30 2539 H 240.658 -2.08702 -1.45999 0
M  V30 2540 H 241.441 -3.4056 -0.432874 0
M  V30 2541 N 243.887 0.651787 -1.4349 0
M  V30 2542 C 245.135 1.40888 -1.44897 0
M  V30 2543 C 245.456 1.94856 -0.0749086 0
M  V30 2544 O 244.726 1.74518 0.889956 0
M  V30 2545 H 243.306 0.522887 -0.533478 0
M  V30 2546 H 245.968 0.768609 -1.79104 0
M  V30 2547 H 245.064 2.25052 -2.16236 0
M  V30 2548 N 245.365 1.30045 0.890287 0
M  V30 2549 C 246.642 1.09227 1.62262 0
M  V30 2550 C 247.022 -0.360305 2.08002 0
M  V30 2551 O 246.37 -1.35084 1.84295 0
M  V30 2552 C 246.58 2.08835 2.79623 0
M  V30 2553 C 247.928 2.40266 3.50082 0
M  V30 2554 O 248.952 2.07104 2.89804 0
M  V30 2555 O 247.811 2.96967 4.58773 0
M  V30 2556 H 244.905 0.419132 0.712922 0
M  V30 2557 H 247.451 1.41451 0.937529 0
M  V30 2558 H 246.223 3.06633 2.43089 0
M  V30 2559 H 245.846 1.77397 3.55832 0
M  V30 2560 N 246.843 -1.10192 1.12674 0
M  V30 2561 C 247.753 -2.20172 0.810026 0
M  V30 2562 C 248.769 -1.72821 -0.202188 0
M  V30 2563 O 249.945 -2.01369 -0.0351691 0
M  V30 2564 C 247.01 -3.45631 0.272007 0
M  V30 2565 C 246.071 -4.07704 1.34447 0
M  V30 2566 C 245.304 -5.27175 0.832029 0
M  V30 2567 O 245.527 -5.69425 -0.333284 0
M  V30 2568 O 244.461 -5.80168 1.60277 0
M  V30 2569 H 248.287 -2.49701 1.72867 0
M  V30 2570 H 245.872 -1.18977 0.903597 0
M  V30 2571 H 247.754 -4.21394 -0.0230219 0
M  V30 2572 H 246.429 -3.17723 -0.619164 0
M  V30 2573 H 245.336 -3.33614 1.6927 0
M  V30 2574 H 246.669 -4.3982 2.2095 0
M  V30 2575 N 248.321 -0.919034 -1.28029 0
M  V30 2576 C 249.567 -0.555757 -1.95036 0
M  V30 2577 C 249.9 0.899198 -1.72128 0
M  V30 2578 O 249.175 1.64023 -1.04531 0
M  V30 2579 C 249.458 -0.872024 -3.49382 0
M  V30 2580 C 249.311 -2.3801 -3.81669 0
M  V30 2581 C 250.63 -0.37185 -4.38526 0
M  V30 2582 H 247.749 -0.203386 -0.708381 0
M  V30 2583 H 250.391 -1.14924 -1.51303 0
M  V30 2584 H 248.541 -0.366946 -3.86763 0
M  V30 2585 H 250.213 -2.9562 -3.54128 0
M  V30 2586 H 248.456 -2.83289 -3.28526 0
M  V30 2587 H 249.127 -2.55192 -4.8947 0
M  V30 2588 H 251.603 -0.804602 -4.08247 0
M  V30 2589 H 250.479 -0.622173 -5.45362 0
M  V30 2590 H 250.74 0.727934 -4.36066 0
M  V30 2591 N 249.799 1.42003 -0.683588 0
M  V30 2592 C 251.21 1.84501 -0.285736 0
M  V30 2593 C 251.561 1.57213 1.17382 0
M  V30 2594 O 250.686 1.03642 1.89966 0
M  V30 2595 C 251.281 3.34912 -0.511821 0
M  V30 2596 C 249.84 3.76025 -0.168005 0
M  V30 2597 C 248.987 2.6551 -0.799983 0
M  V30 2598 H 251.938 1.31724 -0.885119 0
M  V30 2599 H 251.959 3.79784 0.233292 0
M  V30 2600 H 251.471 3.54741 -1.57418 0
M  V30 2601 H 249.572 3.61801 0.890567 0
M  V30 2602 H 249.685 4.75141 -0.614661 0
M  V30 2603 H 248.049 2.53654 -0.230568 0
M  V30 2604 H 248.832 2.8816 -1.86597 0
M  V30 2605 N 251.277 0.427512 1.51691 0
M  V30 2606 C 252.523 -0.142439 2.02299 0
M  V30 2607 C 252.856 -1.43214 1.31162 0
M  V30 2608 O 252.131 -1.89833 0.423511 0
M  V30 2609 C 252.414 -0.371301 3.58181 0
M  V30 2610 C 252.267 0.936358 4.39946 0
M  V30 2611 C 253.586 -1.14542 4.24933 0
M  V30 2612 H 250.705 -0.0502937 0.735282 0
M  V30 2613 H 253.347 0.564584 1.81418 0
M  V30 2614 H 251.497 -0.973559 3.76104 0
M  V30 2615 H 253.169 1.57184 4.33694 0
M  V30 2616 H 251.412 1.5432 4.05423 0
M  V30 2617 H 252.083 0.730388 5.47147 0
M  V30 2618 H 254.559 -0.635362 4.11221 0
M  V30 2619 H 253.435 -1.27431 5.33903 0
M  V30 2620 H 253.696 -2.17093 3.85127 0
M  V30 2621 N 252.755 -1.56801 0.158532 0
M  V30 2622 C 254.004 -1.95665 -0.489702 0
M  V30 2623 C 254.317 -1.04654 -1.65248 0
M  V30 2624 O 255.523 -1.33146 -2.3661 0
M  V30 2625 C 253.979 -3.47874 -0.922582 0
M  V30 2626 C 253.587 -4.47489 0.213893 0
M  V30 2627 C 255.331 -3.95583 -1.53996 0
M  V30 2628 C 253.238 -5.90921 -0.237903 0
M  V30 2629 H 252.168 -0.730516 -0.186716 0
M  V30 2630 H 254.819 -1.81861 0.244722 0
M  V30 2631 H 253.201 -3.57051 -1.71261 0
M  V30 2632 H 254.375 -4.50017 0.991036 0
M  V30 2633 H 252.69 -4.09764 0.740407 0
M  V30 2634 H 255.287 -5.0019 -1.8898 0
M  V30 2635 H 255.63 -3.37789 -2.43319 0
M  V30 2636 H 256.163 -3.8937 -0.814611 0
M  V30 2637 H 252.902 -6.52559 0.620236 0
M  V30 2638 H 252.422 -5.91729 -0.980676 0
M  V30 2639 H 254.101 -6.43352 -0.686067 0
M  V30 2640 N 254.233 0.115231 -1.57178 0
M  V30 2641 C 255.649 0.468877 -1.52557 0
M  V30 2642 C 255.849 1.81649 -0.872125 0
M  V30 2643 O 254.905 2.48347 -0.45606 0
M  V30 2644 C 256.218 0.4499 -2.97315 0
M  V30 2645 C 257.766 0.533185 -3.08425 0
M  V30 2646 C 258.241 0.54456 -4.54751 0
M  V30 2647 N 259.732 0.605892 -4.5922 0
M  V30 2648 C 260.467 0.636203 -5.6986 0
M  V30 2649 N 259.963 0.623931 -6.89985 0
M  V30 2650 N 261.756 0.679496 -5.57978 0
M  V30 2651 H 253.907 -0.767712 -1.9804 0
M  V30 2652 H 256.17 -0.283609 -0.904583 0
M  V30 2653 H 255.876 -0.472721 -3.48509 0
M  V30 2654 H 255.75 1.27632 -3.5495 0
M  V30 2655 H 258.137 1.44623 -2.57232 0
M  V30 2656 H 258.218 -0.320995 -2.53778 0
M  V30 2657 H 257.862 -0.364452 -5.06591 0
M  V30 2658 H 257.792 1.41568 -5.07214 0
M  V30 2659 H 260.283 0.621386 -3.72756 0
M  V30 2660 H 260.596 0.649787 -7.70063 0
M  V30 2661 H 258.941 0.591296 -6.9248 0
M  V30 2662 H 262.132 0.686472 -4.63039 0
M  V30 2663 H 262.305 0.69965 -6.44212 0
M  V30 2664 N 255.711 1.52812 0.385517 0
M  V30 2665 C 256.959 1.67694 1.12797 0
M  V30 2666 C 257.28 0.421115 1.90399 0
M  V30 2667 O 256.55 -0.564551 1.87589 0
M  V30 2668 H 255.13 0.618155 0.419396 0
M  V30 2669 H 257.792 1.89938 0.436972 0
M  V30 2670 H 256.888 2.52896 1.82894 0
M  V30 2671 N 257.189 -0.644168 1.43834 0
M  V30 2672 C 258.414 -1.43642 1.49605 0
M  V30 2673 C 258.839 -1.8773 0.117913 0
M  V30 2674 O 258.197 -1.57938 -0.890239 0
M  V30 2675 C 258.245 -2.6416 2.45463 0
M  V30 2676 O 257.349 -3.63538 1.94714 0
M  V30 2677 H 256.69 -0.430329 0.50568 0
M  V30 2678 H 259.22 -0.787448 1.8884 0
M  V30 2679 H 259.23 -3.11864 2.63068 0
M  V30 2680 H 257.905 -2.31414 3.45572 0
M  V30 2681 H 256.482 -3.2273 1.86814 0
M  V30 2682 N 258.668 -1.30515 -0.883378 0
M  V30 2683 C 259.631 -1.1701 -1.97082 0
M  V30 2684 C 260.631 -0.10089 -1.60483 0
M  V30 2685 O 261.821 -0.349127 -1.70666 0
M  V30 2686 C 258.953 -0.793045 -3.31547 0
M  V30 2687 H 260.146 -2.13622 -2.10489 0
M  V30 2688 H 257.699 -1.13935 -1.06998 0
M  V30 2689 H 258.434 0.172499 -3.23841 0
M  V30 2690 H 258.219 -1.56576 -3.5948 0
M  V30 2691 H 259.709 -0.722073 -4.1131 0
M  V30 2692 N 260.146 1.09593 -1.13257 0
M  V30 2693 C 261.076 2.18214 -0.830946 0
M  V30 2694 C 262.057 1.68812 0.208966 0
M  V30 2695 O 263.242 1.9408 0.0682666 0
M  V30 2696 C 260.372 3.46051 -0.294296 0
M  V30 2697 C 259.326 4.08778 -1.26826 0
M  V30 2698 C 258.652 5.31419 -0.591449 0
M  V30 2699 C 259.952 4.51476 -2.62615 0
M  V30 2700 H 261.646 2.43703 -1.73923 0
M  V30 2701 H 259.192 1.17128 -0.837675 0
M  V30 2702 H 261.145 4.2134 -0.0709606 0
M  V30 2703 H 259.869 3.20079 0.649366 0
M  V30 2704 H 258.528 3.35505 -1.47756 0
M  V30 2705 H 258.176 5.01727 0.357633 0
M  V30 2706 H 257.876 5.74341 -1.24123 0
M  V30 2707 H 259.4 6.09433 -0.377355 0
M  V30 2708 H 260.814 5.17999 -2.45663 0
M  V30 2709 H 259.211 5.05277 -3.23752 0
M  V30 2710 H 260.281 3.63962 -3.20406 0
M  V30 2711 N 261.624 0.925811 1.2754 0
M  V30 2712 C 262.554 0.440748 2.29303 0
M  V30 2713 C 263.535 -0.497971 1.62648 0
M  V30 2714 O 264.72 -0.403126 1.8997 0
M  V30 2715 C 261.85 -0.309048 3.45922 0
M  V30 2716 C 260.804 0.54166 4.24559 0
M  V30 2717 C 260.13 -0.337191 5.33636 0
M  V30 2718 C 261.43 1.80516 4.90114 0
M  V30 2719 H 263.124 1.29121 2.70126 0
M  V30 2720 H 260.67 0.622323 1.29858 0
M  V30 2721 H 262.623 -0.659315 4.1621 0
M  V30 2722 H 261.347 -1.19352 3.04011 0
M  V30 2723 H 260.006 0.874609 3.56014 0
M  V30 2724 H 259.654 -1.22056 4.87966 0
M  V30 2725 H 259.354 0.228497 5.87156 0
M  V30 2726 H 260.878 -0.683072 6.06767 0
M  V30 2727 H 262.292 1.52307 5.52698 0
M  V30 2728 H 260.689 2.3142 5.53683 0
M  V30 2729 H 261.759 2.52581 4.13921 0
M  V30 2730 N 263.102 -1.41638 0.69111 0
M  V30 2731 C 264.065 -2.29178 0.0319786 0
M  V30 2732 C 265.065 -1.44153 -0.712496 0
M  V30 2733 O 266.255 -1.65354 -0.548053 0
M  V30 2734 C 263.387 -3.26952 -0.965161 0
M  V30 2735 H 264.58 -2.88959 0.802681 0
M  V30 2736 H 262.133 -1.4955 0.454356 0
M  V30 2737 H 262.868 -2.72142 -1.76378 0
M  V30 2738 H 262.653 -3.89685 -0.434522 0
M  V30 2739 H 264.143 -3.92561 -1.42428 0
M  V30 2740 N 264.58 -0.43555 -1.51462 0
M  V30 2741 C 265.51 0.367376 -2.30592 0
M  V30 2742 C 266.491 1.02263 -1.35928 0
M  V30 2743 O 267.676 1.02661 -1.64847 0
M  V30 2744 C 264.806 1.46983 -3.14664 0
M  V30 2745 C 263.76 0.938161 -4.17591 0
M  V30 2746 C 263.086 2.13622 -4.90173 0
M  V30 2747 C 264.386 -0.0261621 -5.22293 0
M  V30 2748 H 266.08 -0.292969 -2.97963 0
M  V30 2749 H 263.626 -0.14234 -1.43295 0
M  V30 2750 H 265.579 2.03873 -3.688 0
M  V30 2751 H 264.303 2.15843 -2.4511 0
M  V30 2752 H 262.962 0.391481 -3.64504 0
M  V30 2753 H 262.61 2.81098 -4.17124 0
M  V30 2754 H 262.31 1.78688 -5.59772 0
M  V30 2755 H 263.834 2.7107 -5.47132 0
M  V30 2756 H 265.248 0.452384 -5.71512 0
M  V30 2757 H 263.645 -0.287992 -5.99409 0
M  V30 2758 H 264.715 -0.963391 -4.75233 0
M  V30 2759 N 266.058 1.56714 -0.166846 0
M  V30 2760 C 266.968 2.21331 0.777791 0
M  V30 2761 C 267.984 1.20358 1.25658 0
M  V30 2762 O 269.16 1.53005 1.30964 0
M  V30 2763 C 266.225 2.83787 1.99163 0
M  V30 2764 C 265.286 3.99947 1.56016 0
M  V30 2765 C 264.519 4.59415 2.71613 0
M  V30 2766 O 264.742 4.17769 3.88362 0
M  V30 2767 O 263.676 5.49359 2.45945 0
M  V30 2768 H 267.502 3.02605 0.257636 0
M  V30 2769 H 265.087 1.49275 0.0611393 0
M  V30 2770 H 266.969 3.23405 2.70161 0
M  V30 2771 H 265.644 2.05513 2.50092 0
M  V30 2772 H 264.551 3.65007 0.819809 0
M  V30 2773 H 265.884 4.79801 1.09782 0
M  V30 2774 N 267.536 -0.106894 1.57237 0
M  V30 2775 C 268.468 -1.15646 1.97885 0
M  V30 2776 C 269.481 -1.36981 0.879779 0
M  V30 2777 O 270.67 -1.35841 1.15799 0
M  V30 2778 C 267.77 -2.51425 2.27241 0
M  V30 2779 C 266.943 -2.50529 3.58545 0
M  V30 2780 C 266.002 -3.68145 3.75973 0
M  V30 2781 O 265.028 -3.51176 4.47956 0
M  V30 2782 N 266.23 -4.87177 3.15656 0
M  V30 2783 H 268.995 -0.81059 2.8853 0
M  V30 2784 H 266.556 -0.296024 1.59171 0
M  V30 2785 H 268.548 -3.28689 2.36105 0
M  V30 2786 H 267.118 -2.78147 1.42663 0
M  V30 2787 H 266.338 -1.58894 3.60758 0
M  V30 2788 H 267.626 -2.46997 4.44826 0
M  V30 2789 H 267.024 -5.03868 2.57165 0
M  V30 2790 H 265.581 -5.62075 3.30023 0
M  V30 2791 N 269.014 -1.53014 -0.377408 0
M  V30 2792 C 269.947 -1.73382 -1.48371 0
M  V30 2793 C 270.925 -0.581879 -1.51832 0
M  V30 2794 O 272.109 -0.81307 -1.70063 0
M  V30 2795 C 269.236 -1.80192 -2.8679 0
M  V30 2796 C 268.282 -3.02056 -3.01105 0
M  V30 2797 S 269.115 -4.61811 -2.71093 0
M  V30 2798 C 270.271 -4.71453 -4.11683 0
M  V30 2799 H 270.504 -2.66946 -1.30872 0
M  V30 2800 H 268.037 -1.43453 -0.571012 0
M  V30 2801 H 269.995 -1.84802 -3.6655 0
M  V30 2802 H 268.656 -0.877008 -3.01608 0
M  V30 2803 H 267.849 -3.03396 -4.02451 0
M  V30 2804 H 267.451 -2.95498 -2.29253 0
M  V30 2805 H 269.743 -4.50781 -5.0577 0
M  V30 2806 H 270.686 -5.73487 -4.15353 0
M  V30 2807 H 271.094 -4.00189 -3.98132 0
M  V30 2808 N 270.492 0.636531 -1.44174 0
M  V30 2809 C 271.442 1.74233 -1.47061 0
M  V30 2810 C 272.426 1.57331 -0.337034 0
M  V30 2811 O 273.618 1.67159 -0.581973 0
M  V30 2812 C 270.747 3.12897 -1.41246 0
M  V30 2813 C 269.833 3.35288 -2.59698 0
M  V30 2814 N 270.224 3.2807 -3.84972 0
M  V30 2815 C 268.522 3.66065 -2.54778 0
M  V30 2816 C 269.223 3.51001 -4.63867 0
M  V30 2817 N 268.199 3.73616 -3.94857 0
M  V30 2818 H 272.001 1.67103 -2.41773 0
M  V30 2819 H 269.515 0.838806 -1.3906 0
M  V30 2820 H 271.512 3.92189 -1.41398 0
M  V30 2821 H 270.172 3.21197 -0.47569 0
M  V30 2822 H 271.183 3.07109 -4.17019 0
M  V30 2823 H 267.86 3.81379 -1.6987 0
M  V30 2824 H 269.25 3.51059 -5.72894 0
M  V30 2825 N 271.97 1.30982 0.876444 0
M  V30 2826 C 273.386 1.09498 1.16113 0
M  V30 2827 C 273.586 -0.13875 2.01022 0
M  V30 2828 O 272.642 -0.829935 2.38471 0
M  V30 2829 C 273.955 2.36308 1.85954 0
M  V30 2830 C 275.503 2.41856 1.98683 0
M  V30 2831 C 275.978 3.6853 2.71937 0
M  V30 2832 N 277.469 3.69387 2.79477 0
M  V30 2833 C 278.204 4.64096 3.36753 0
M  V30 2834 N 277.7 5.69155 3.95012 0
M  V30 2835 N 279.493 4.51626 3.3465 0
M  V30 2836 H 271.644 2.10118 0.310494 0
M  V30 2837 H 273.907 0.926634 0.200131 0
M  V30 2838 H 273.613 3.26388 1.31011 0
M  V30 2839 H 273.487 2.4561 2.86278 0
M  V30 2840 H 275.874 1.52249 2.52793 0
M  V30 2841 H 275.955 2.36523 0.9742 0
M  V30 2842 H 275.599 4.58499 2.18496 0
M  V30 2843 H 275.529 3.71127 3.73593 0
M  V30 2844 H 278.02 2.93438 2.38123 0
M  V30 2845 H 278.333 6.3751 4.36808 0
M  V30 2846 H 276.678 5.72937 3.93406 0
M  V30 2847 H 279.869 3.68728 2.8837 0
M  V30 2848 H 280.042 5.25614 3.7899 0
M  V30 2849 N 273.449 -1.08991 1.13837 0
M  V30 2850 C 274.397 -2.17841 0.815347 0
M  V30 2851 C 275.391 -1.68164 -0.204233 0
M  V30 2852 O 276.597 -1.79897 -0.0609304 0
M  V30 2853 H 272.972 -0.710654 0.245915 0
M  V30 2854 H 274.943 -2.42315 1.74143 0
M  V30 2855 C 273.692 -3.46381 0.302614 0
M  V30 2856 H 273.015 -3.84979 1.0785 0
M  V30 2857 H 274.455 -4.23844 0.115074 0
M  V30 2858 C 272.914 -3.22556 -0.972591 0
M  V30 2859 O 273.444 -3.45599 -2.04754 0
M  V30 2860 N 271.65 -2.76134 -0.905455 0
M  V30 2861 H 271.197 -2.57582 -0.0305421 0
M  V30 2862 H 271.155 -2.60571 -1.75926 0
M  V30 2863 N 274.927 -0.932562 -1.27047 0
M  V30 2864 C 276.338 -0.619451 -1.76124 0
M  V30 2865 C 276.689 0.865397 -1.76083 0
M  V30 2866 O 275.814 1.67722 -1.36742 0
M  V30 2867 C 276.409 -1.11771 -3.19832 0
M  V30 2868 C 274.968 -0.855174 -3.66557 0
M  V30 2869 C 274.115 -1.27362 -2.46321 0
M  V30 2870 H 277.066 -1.11181 -1.13245 0
M  V30 2871 H 277.087 -0.46759 -3.77616 0
M  V30 2872 H 276.599 -2.19842 -3.1983 0
M  V30 2873 H 274.7 0.211524 -3.71999 0
M  V30 2874 H 274.813 -1.47613 -4.55793 0
M  V30 2875 H 273.177 -0.692119 -2.45116 0
M  V30 2876 H 273.96 -2.36307 -2.49025 0
M  V30 2877 N 276.405 1.4127 -0.698611 0
M  V30 2878 C 277.352 2.30773 -0.0352094 0
M  V30 2879 C 278.322 1.47273 0.768111 0
M  V30 2880 O 279.507 1.76053 0.735524 0
M  V30 2881 C 276.647 3.33346 0.893 0
M  V30 2882 C 275.76 4.31924 0.0809695 0
M  V30 2883 C 274.895 5.21566 1.0071 0
M  V30 2884 C 273.934 6.11811 0.188155 0
M  V30 2885 N 273.071 6.93926 1.06825 0
M  V30 2886 H 277.911 2.86943 -0.804207 0
M  V30 2887 H 275.448 1.4132 -0.408294 0
M  V30 2888 H 277.406 3.91368 1.44523 0
M  V30 2889 H 276.036 2.78719 1.62836 0
M  V30 2890 H 275.088 3.75825 -0.588224 0
M  V30 2891 H 276.4 4.95716 -0.553801 0
M  V30 2892 H 275.554 5.84437 1.62845 0
M  V30 2893 H 274.293 4.58008 1.67572 0
M  V30 2894 H 273.298 5.47986 -0.446254 0
M  V30 2895 H 274.523 6.77425 -0.476716 0
M  V30 2896 H 272.469 6.32973 1.72283 0
M  V30 2897 H 272.386 7.54416 0.489123 0
M  V30 2898 H 273.654 7.61262 1.67632 0
M  V30 2899 N 277.883 0.443576 1.51229 0
M  V30 2900 C 279.111 -0.11929 2.06556 0
M  V30 2901 C 279.526 -1.35921 1.31038 0
M  V30 2902 O 278.883 -1.78675 0.371704 0
M  V30 2903 C 278.934 -0.435228 3.5887 0
M  V30 2904 O 278.655 0.755486 4.31537 0
M  V30 2905 C 280.156 -1.04808 4.30732 0
M  V30 2906 H 277.376 -0.0051584 0.67098 0
M  V30 2907 H 279.92 0.624453 1.94733 0
M  V30 2908 H 278.075 -1.12887 3.70588 0
M  V30 2909 H 278.489 0.483491 5.22267 0
M  V30 2910 H 279.963 -1.2191 5.3837 0
M  V30 2911 H 280.44 -2.03081 3.89429 0
M  V30 2912 H 281.046 -0.393637 4.23474 0
M  V30 2913 N 279.361 -1.56624 0.175154 0
M  V30 2914 C 280.777 -1.58571 -0.180966 0
M  V30 2915 C 280.977 -1.19065 -1.6256 0
M  V30 2916 O 280.033 -0.904044 -2.35761 0
M  V30 2917 C 281.346 -3.00522 0.103326 0
M  V30 2918 C 282.894 -3.12972 0.0418426 0
M  V30 2919 C 283.369 -4.57022 0.299175 0
M  V30 2920 N 284.86 -4.62541 0.247086 0
M  V30 2921 C 285.595 -5.71857 0.420318 0
M  V30 2922 N 285.091 -6.89717 0.652816 0
M  V30 2923 N 286.884 -5.60972 0.355957 0
M  V30 2924 H 279.035 -1.80589 1.11809 0
M  V30 2925 H 281.298 -0.837178 0.444788 0
M  V30 2926 H 281.004 -3.33916 1.10422 0
M  V30 2927 H 280.878 -3.72344 -0.603299 0
M  V30 2928 H 283.265 -2.79403 -0.949636 0
M  V30 2929 H 283.346 -2.43578 0.781238 0
M  V30 2930 H 282.99 -4.913 1.28788 0
M  V30 2931 H 282.92 -5.24579 -0.460876 0
M  V30 2932 H 285.411 -3.77829 0.0731895 0
M  V30 2933 H 285.724 -7.68911 0.774347 0
M  V30 2934 H 284.069 -6.91572 0.689476 0
M  V30 2935 H 287.26 -4.67773 0.174882 0
M  V30 2936 H 287.433 -6.46111 0.494388 0
M  V30 2937 N 280.839 0.0985539 -1.57292 0
M  V30 2938 C 282.255 0.45267 -1.53046 0
M  V30 2939 C 282.455 1.80713 -0.891342 0
M  V30 2940 O 281.511 2.4785 -0.482375 0
M  V30 2941 C 282.824 0.418341 -2.97776 0
M  V30 2942 C 284.372 0.500443 -3.08973 0
M  V30 2943 C 284.847 0.496297 -4.55303 0
M  V30 2944 N 286.338 0.557151 -4.59837 0
M  V30 2945 C 287.073 0.575726 -5.70502 0
M  V30 2946 N 286.569 0.550714 -6.90608 0
M  V30 2947 N 288.362 0.620277 -5.58667 0
M  V30 2948 H 280.513 -0.788673 -1.97215 0
M  V30 2949 H 282.776 -0.293188 -0.901524 0
M  V30 2950 H 282.482 -0.509659 -3.47988 0
M  V30 2951 H 282.356 1.2386 -3.56284 0
M  V30 2952 H 284.743 1.41886 -2.58751 0
M  V30 2953 H 284.824 -0.347894 -2.53423 0
M  V30 2954 H 284.468 -0.418162 -5.06176 0
M  V30 2955 H 284.398 1.3618 -5.08687 0
M  V30 2956 H 286.889 0.581816 -3.73394 0
M  V30 2957 H 287.202 0.568075 -7.70709 0
M  V30 2958 H 285.547 0.517816 -6.93068 0
M  V30 2959 H 288.738 0.637322 -4.63741 0
M  V30 2960 H 288.911 0.631283 -6.44918 0
M  V30 2961 N 282.317 1.53212 0.369288 0
M  V30 2962 C 283.565 1.68881 1.11012 0
M  V30 2963 C 283.886 0.441285 1.89941 0
M  V30 2964 O 283.156 -0.544623 1.88177 0
M  V30 2965 H 281.736 0.622569 0.412816 0
M  V30 2966 H 284.398 1.90391 0.416802 0
M  V30 2967 H 283.494 2.54822 1.80201 0
M  V30 2968 N 283.795 -0.628877 1.44509 0
M  V30 2969 C 284.705 -1.7694 1.54044 0
M  V30 2970 C 285.721 -1.68705 0.425987 0
M  V30 2971 O 286.897 -1.89442 0.683656 0
M  V30 2972 C 283.962 -3.13332 1.48405 0
M  V30 2973 C 283.023 -3.33181 2.70719 0
M  V30 2974 C 282.256 -4.63067 2.6534 0
M  V30 2975 O 282.479 -5.44017 1.71469 0
M  V30 2976 O 281.413 -4.85167 3.56226 0
M  V30 2977 H 285.239 -1.71848 2.50403 0
M  V30 2978 H 282.824 -0.790378 1.26781 0
M  V30 2979 H 284.706 -3.94634 1.47791 0
M  V30 2980 H 283.381 -3.1896 0.551898 0
M  V30 2981 H 282.288 -2.51549 2.769 0
M  V30 2982 H 283.621 -3.32416 3.62988 0
M  V30 2983 N 285.273 -1.31445 -0.869486 0
M  V30 2984 C 286.221 -1.19067 -1.99814 0
M  V30 2985 C 287.215 -0.0988569 -1.69111 0
M  V30 2986 O 288.421 -0.260781 -1.78101 0
M  V30 2987 H 284.796 -0.368677 -0.655425 0
M  V30 2988 H 286.767 -2.14555 -2.07385 0
M  V30 2989 C 285.516 -0.915323 -3.35436 0
M  V30 2990 H 284.839 -1.74759 -3.59582 0
M  V30 2991 H 286.279 -0.868895 -4.15001 0
M  V30 2992 C 284.738 0.381928 -3.34728 0
M  V30 2993 O 285.268 1.39857 -3.76567 0
M  V30 2994 N 283.474 0.398633 -2.87853 0
M  V30 2995 H 283.021 -0.429186 -2.54 0
M  V30 2996 H 282.979 1.26651 -2.87762 0
M  V30 2997 N 286.751 1.08385 -1.14413 0
M  V30 2998 C 287.661 2.18856 -0.844951 0
M  V30 2999 C 288.677 1.73121 0.174668 0
M  V30 3000 O 289.853 2.014 0.00312857 0
M  V30 3001 C 286.918 3.45155 -0.32696 0
M  V30 3002 C 285.979 4.05513 -1.40916 0
M  V30 3003 C 285.212 5.25784 -0.915793 0
M  V30 3004 O 285.435 5.69884 0.242651 0
M  V30 3005 O 284.369 5.77545 -1.69487 0
M  V30 3006 H 288.195 2.46919 -1.76818 0
M  V30 3007 H 285.78 1.17524 -0.922411 0
M  V30 3008 H 287.662 4.21377 -0.0440211 0
M  V30 3009 H 286.337 3.18668 0.568539 0
M  V30 3010 H 285.244 3.30879 -1.74556 0
M  V30 3011 H 286.577 4.3625 -2.27919 0
M  V30 3012 N 288.23 0.939286 1.26551 0
M  V30 3013 C 289.476 0.596234 1.94465 0
M  V30 3014 C 289.831 -0.855013 1.72358 0
M  V30 3015 O 289.124 -1.6034 1.04889 0
M  V30 3016 C 289.318 0.872106 3.46596 0
M  V30 3017 C 289.147 2.34862 3.83497 0
M  V30 3018 C 287.917 3.00344 4.06352 0
M  V30 3019 C 290.115 3.32697 3.92195 0
M  V30 3020 N 288.097 4.38027 4.30123 0
M  V30 3021 C 289.468 4.55631 4.20476 0
M  V30 3022 C 291.523 3.27747 3.74815 0
M  V30 3023 C 290.226 5.74233 4.33185 0
M  V30 3024 C 292.252 4.45672 3.88755 0
M  V30 3025 C 291.614 5.67388 4.17433 0
M  V30 3026 H 287.713 0.268515 0.734455 0
M  V30 3027 H 290.297 1.2083 1.5267 0
M  V30 3028 H 288.468 0.289102 3.87323 0
M  V30 3029 H 290.2 0.490513 4.01716 0
M  V30 3030 H 286.955 2.50969 4.01636 0
M  V30 3031 H 287.379 5.09288 4.46044 0
M  V30 3032 H 292.021 2.34703 3.51673 0
M  V30 3033 H 289.739 6.67731 4.55149 0
M  V30 3034 H 293.325 4.43372 3.76713 0
M  V30 3035 H 292.205 6.57115 4.27983 0
M  V30 3036 N 289.708 -1.40897 0.706093 0
M  V30 3037 C 290.954 -2.01352 0.241889 0
M  V30 3038 C 291.287 -1.55832 -1.15888 0
M  V30 3039 O 290.562 -0.774145 -1.7843 0
M  V30 3040 C 290.845 -3.58752 0.311311 0
M  V30 3041 C 290.698 -4.1437 1.74978 0
M  V30 3042 C 292.017 -4.38914 -0.322922 0
M  V30 3043 H 289.136 -0.731562 0.0893687 0
M  V30 3044 H 291.778 -1.67504 0.896802 0
M  V30 3045 H 289.928 -3.87718 -0.246302 0
M  V30 3046 H 291.6 -3.96239 2.36205 0
M  V30 3047 H 289.843 -3.69016 2.28057 0
M  V30 3048 H 290.514 -5.23532 1.74981 0
M  V30 3049 H 292.99 -4.15822 0.152089 0
M  V30 3050 H 291.866 -5.48358 -0.243855 0
M  V30 3051 H 292.127 -4.19176 -1.40513 0
M  V30 3052 N 291.186 -0.45159 -1.50991 0
M  V30 3053 C 292.463 0.170707 -1.94854 0
M  V30 3054 C 292.843 1.58788 -1.39103 0
M  V30 3055 O 292.191 2.20913 -0.583921 0
M  V30 3056 C 292.401 0.133929 -3.48743 0
M  V30 3057 C 293.749 0.33248 -4.23296 0
M  V30 3058 O 294.773 0.211403 -3.55572 0
M  V30 3059 O 293.632 0.57486 -5.43468 0
M  V30 3060 H 290.726 0.122264 -0.817912 0
M  V30 3061 H 293.272 -0.510594 -1.61836 0
M  V30 3062 H 292.044 -0.856283 -3.81816 0
M  V30 3063 H 291.667 0.857529 -3.88242 0
M  V30 3064 N 292.664 1.56529 -0.183458 0
M  V30 3065 C 293.611 2.18546 0.742055 0
M  V30 3066 C 294.581 1.12912 1.2182 0
M  V30 3067 O 295.766 1.41115 1.28418 0
M  V30 3068 C 292.906 2.83977 1.96089 0
M  V30 3069 C 292.019 4.04105 1.52719 0
M  V30 3070 C 291.154 4.57427 2.70063 0
M  V30 3071 C 290.193 5.69938 2.23243 0
M  V30 3072 N 289.33 6.17717 3.33722 0
M  V30 3073 H 294.17 2.97284 0.206432 0
M  V30 3074 H 291.707 1.46823 0.0901571 0
M  V30 3075 H 293.665 3.20077 2.67594 0
M  V30 3076 H 292.295 2.07822 2.47002 0
M  V30 3077 H 291.347 3.73745 0.708436 0
M  V30 3078 H 292.659 4.85513 1.1436 0
M  V30 3079 H 291.813 4.95772 3.49708 0
M  V30 3080 H 290.552 3.75101 3.11689 0
M  V30 3081 H 289.557 5.31133 1.42048 0
M  V30 3082 H 290.782 6.54073 1.82661 0
M  V30 3083 H 288.728 5.38317 3.74902 0
M  V30 3084 H 288.645 6.94146 2.99495 0
M  V30 3085 H 289.913 6.60713 4.13616 0
M  V30 3086 N 294.142 -0.090211 1.57342 0
M  V30 3087 C 295.391 -0.791531 1.8552 0
M  V30 3088 C 295.704 -1.79659 0.773441 0
M  V30 3089 O 296.91 -2.54616 0.942497 0
M  V30 3090 C 295.366 -1.45856 3.2902 0
M  V30 3091 C 294.974 -0.493017 4.45279 0
M  V30 3092 C 296.718 -2.14332 3.66418 0
M  V30 3093 C 294.625 -1.16491 5.79814 0
M  V30 3094 H 293.555 -0.299356 0.692027 0
M  V30 3095 H 296.206 -0.0445343 1.83446 0
M  V30 3096 H 294.588 -2.25318 3.2565 0
M  V30 3097 H 295.762 0.270464 4.60006 0
M  V30 3098 H 294.077 0.0863061 4.16311 0
M  V30 3099 H 296.674 -2.65344 4.64216 0
M  V30 3100 H 297.017 -2.93447 2.95287 0
M  V30 3101 H 297.55 -1.41724 3.71698 0
M  V30 3102 H 294.289 -0.41447 6.54188 0
M  V30 3103 H 293.809 -1.8997 5.68921 0
M  V30 3104 H 295.488 -1.69001 6.24538 0
M  V30 3105 N 295.62 -1.53406 -0.361157 0
M  V30 3106 C 296.866 -1.70999 -1.1014 0
M  V30 3107 C 297.221 -0.458425 -1.86859 0
M  V30 3108 O 296.514 0.548654 -1.83577 0
M  V30 3109 C 296.708 -2.90211 -2.08596 0
M  V30 3110 C 296.537 -4.26841 -1.41553 0
M  V30 3111 C 295.307 -4.91621 -1.16778 0
M  V30 3112 C 297.505 -5.07212 -0.850915 0
M  V30 3113 N 295.487 -6.12164 -0.461312 0
M  V30 3114 C 296.858 -6.19394 -0.274046 0
M  V30 3115 C 298.913 -4.92218 -0.750036 0
M  V30 3116 C 297.616 -7.18221 0.393868 0
M  V30 3117 C 299.642 -5.91322 -0.095894 0
M  V30 3118 C 299.004 -7.0283 0.470081 0
M  V30 3119 H 295.103 -0.678939 -0.388028 0
M  V30 3120 H 297.687 -1.90811 -0.38722 0
M  V30 3121 H 295.858 -2.71931 -2.77323 0
M  V30 3122 H 297.59 -2.96606 -2.7533 0
M  V30 3123 H 294.345 -4.50849 -1.45024 0
M  V30 3124 H 294.769 -6.76888 -0.123312 0
M  V30 3125 H 299.411 -4.06192 -1.17337 0
M  V30 3126 H 297.129 -8.03835 0.82914 0
M  V30 3127 H 300.715 -5.81797 -0.0187075 0
M  V30 3128 H 299.595 -7.782 0.968241 0
M  V30 3129 N 297.098 0.621204 -1.44841 0
M  V30 3130 C 298.008 1.7612 -1.5498 0
M  V30 3131 C 299.024 1.68477 -0.434927 0
M  V30 3132 O 300.2 1.89076 -0.693693 0
M  V30 3133 C 297.265 3.1254 -1.50065 0
M  V30 3134 C 296.326 3.31741 -2.72482 0
M  V30 3135 C 295.559 4.61653 -2.67792 0
M  V30 3136 O 295.782 5.431 -1.74352 0
M  V30 3137 O 294.716 4.83271 -3.58794 0
M  V30 3138 H 298.542 1.70518 -2.51311 0
M  V30 3139 H 296.127 0.783643 -1.27198 0
M  V30 3140 H 298.009 3.93844 -1.49882 0
M  V30 3141 H 296.684 3.18663 -0.568806 0
M  V30 3142 H 295.591 2.50077 -2.7823 0
M  V30 3143 H 296.924 3.30486 -3.64746 0
M  V30 3144 N 298.576 1.31904 0.862503 0
M  V30 3145 C 299.506 1.22782 1.98612 0
M  V30 3146 C 300.487 0.113362 1.69722 0
M  V30 3147 O 301.672 0.299218 1.91881 0
M  V30 3148 C 298.802 0.942058 3.34279 0
M  V30 3149 C 297.756 2.0169 3.77499 0
M  V30 3150 C 297.082 1.58369 5.10709 0
M  V30 3151 C 298.382 3.43096 3.93805 0
M  V30 3152 H 300.076 2.16788 2.06502 0
M  V30 3153 H 297.622 1.04366 0.992154 0
M  V30 3154 H 299.575 0.864818 4.1243 0
M  V30 3155 H 298.299 -0.0336603 3.26583 0
M  V30 3156 H 296.958 2.08416 3.01593 0
M  V30 3157 H 296.606 0.595628 4.99461 0
M  V30 3158 H 296.306 2.30279 5.40597 0
M  V30 3159 H 297.83 1.52067 5.91361 0
M  V30 3160 H 299.244 3.39003 4.62331 0
M  V30 3161 H 297.641 4.13288 4.35101 0
M  V30 3162 H 298.711 3.83334 2.96957 0
M  V30 3163 N 300.054 -1.07777 1.14986 0
M  V30 3164 C 300.984 -2.16865 0.865557 0
M  V30 3165 C 301.965 -1.69123 -0.182083 0
M  V30 3166 O 303.15 -1.94164 -0.0373815 0
M  V30 3167 C 300.28 -3.45539 0.349313 0
M  V30 3168 C 299.234 -4.06708 1.33313 0
M  V30 3169 C 298.56 -5.30411 0.675918 0
M  V30 3170 C 299.86 -4.47241 2.69764 0
M  V30 3171 H 301.554 -2.40905 1.77778 0
M  V30 3172 H 299.1 -1.15781 0.856203 0
M  V30 3173 H 301.053 -4.21174 0.137983 0
M  V30 3174 H 299.777 -3.21072 -0.598362 0
M  V30 3175 H 298.436 -3.33112 1.53075 0
M  V30 3176 H 298.084 -5.02232 -0.277767 0
M  V30 3177 H 297.784 -5.72293 1.33244 0
M  V30 3178 H 299.308 -6.08755 0.474262 0
M  V30 3179 H 300.722 -5.14025 2.53873 0
M  V30 3180 H 299.119 -5.00062 3.3175 0
M  V30 3181 H 300.189 -3.58818 3.26156 0
M  V30 3182 N 301.532 -0.945985 -1.26051 0
M  V30 3183 C 302.809 -0.513816 -1.88731 0
M  V30 3184 C 303.189 1.00872 -1.8544 0
M  V30 3185 O 302.537 1.8708 -1.312 0
M  V30 3186 C 302.747 -1.08062 -3.31849 0
M  V30 3187 C 304.095 -1.1522 -4.08668 0
M  V30 3188 O 305.119 -1.03155 -3.40936 0
M  V30 3189 O 303.978 -1.34044 -5.29806 0
M  V30 3190 H 301.072 -0.168193 -0.809716 0
M  V30 3191 H 303.618 -1.03886 -1.34186 0
M  V30 3192 H 302.39 -2.1241 -3.2863 0
M  V30 3193 H 302.013 -0.538307 -3.93939 0
M  V30 3194 N 303.011 1.40521 -0.713556 0
M  V30 3195 C 303.974 2.29098 -0.0684347 0
M  V30 3196 C 304.974 1.45268 0.689472 0
M  V30 3197 O 306.164 1.66205 0.521677 0
M  V30 3198 C 303.296 3.28446 0.913024 0
M  V30 3199 H 304.489 2.87645 -0.84855 0
M  V30 3200 H 302.042 1.48809 -0.47809 0
M  V30 3201 H 302.777 2.74913 1.72027 0
M  V30 3202 H 302.562 3.90327 0.372472 0
M  V30 3203 H 304.052 3.94777 1.36165 0
M  V30 3204 N 304.489 0.459591 1.5075 0
M  V30 3205 C 305.738 -0.100971 2.01447 0
M  V30 3206 C 306.051 -1.41816 1.34713 0
M  V30 3207 O 307.257 -2.06299 1.76502 0
M  V30 3208 C 305.713 -0.23047 3.59161 0
M  V30 3209 C 305.321 1.0776 4.34847 0
M  V30 3210 C 307.065 -0.743608 4.17936 0
M  V30 3211 C 304.972 0.91253 5.84317 0
M  V30 3212 H 303.902 -0.0415102 0.752856 0
M  V30 3213 H 306.553 0.592742 1.73663 0
M  V30 3214 H 304.935 -0.987703 3.83485 0
M  V30 3215 H 306.109 1.8449 4.22256 0
M  V30 3216 H 304.424 1.52097 3.87628 0
M  V30 3217 H 307.021 -0.883959 5.27343 0
M  V30 3218 H 307.364 -1.73196 3.78562 0
M  V30 3219 H 307.897 -0.04408 3.97776 0
M  V30 3220 H 304.636 1.87391 6.28144 0
M  V30 3221 H 304.156 0.185422 5.99513 0
M  V30 3222 H 305.835 0.574547 6.44444 0
M  V30 3223 N 305.967 -1.56429 0.191757 0
M  V30 3224 C 307.244 -1.89224 -0.495332 0
M  V30 3225 C 307.624 -1.10478 -1.79883 0
M  V30 3226 O 306.972 -0.204852 -2.2758 0
M  V30 3227 C 307.182 -3.41548 -0.717367 0
M  V30 3228 C 308.53 -4.11711 -1.03823 0
M  V30 3229 O 309.554 -3.4698 -0.805204 0
M  V30 3230 O 308.413 -5.2611 -1.47887 0
M  V30 3231 H 305.507 -0.785788 -0.25781 0
M  V30 3232 H 308.053 -1.68111 0.231721 0
M  V30 3233 H 306.825 -3.90772 0.203287 0
M  V30 3234 H 306.448 -3.68342 -1.497 0
M  V30 3235 N 307.445 0.0818655 -1.57387 0
M  V30 3236 C 308.355 1.11642 -2.06333 0
M  V30 3237 C 309.371 1.43033 -0.99083 0
M  V30 3238 O 310.547 1.53411 -1.30488 0
M  V30 3239 C 307.612 2.41342 -2.48907 0
M  V30 3240 C 306.673 2.17014 -3.7041 0
M  V30 3241 C 305.906 3.4053 -4.10944 0
M  V30 3242 O 306.129 4.4927 -3.51444 0
M  V30 3243 O 305.063 3.29336 -5.03807 0
M  V30 3244 H 308.889 0.730657 -2.9478 0
M  V30 3245 H 306.474 0.295301 -1.46452 0
M  V30 3246 H 308.356 3.17691 -2.76858 0
M  V30 3247 H 307.031 2.79319 -1.63593 0
M  V30 3248 H 305.938 1.38403 -3.47556 0
M  V30 3249 H 307.271 1.83923 -4.56545 0
M  V30 3250 N 308.923 1.53595 0.353017 0
M  V30 3251 C 310.153 1.74058 1.11299 0
M  V30 3252 C 310.561 0.475205 1.83135 0
M  V30 3253 O 309.904 -0.562344 1.74881 0
M  V30 3254 C 309.966 2.85994 2.17825 0
M  V30 3255 C 309.63 4.25923 1.65647 0
M  V30 3256 C 310.627 5.07829 1.11383 0
M  V30 3257 C 308.312 4.72377 1.7078 0
M  V30 3258 C 310.306 6.34285 0.629439 0
M  V30 3259 C 307.993 5.98808 1.21953 0
M  V30 3260 C 308.991 6.79594 0.681265 0
M  V30 3261 O 308.679 8.03651 0.200248 0
M  V30 3262 H 308.411 0.585327 0.338183 0
M  V30 3263 H 310.965 2.01186 0.413927 0
M  V30 3264 H 309.195 2.54368 2.91262 0
M  V30 3265 H 310.884 2.94515 2.79313 0
M  V30 3266 H 311.65 4.73107 1.06746 0
M  V30 3267 H 307.529 4.0956 2.11617 0
M  V30 3268 H 311.073 6.97288 0.208636 0
M  V30 3269 H 306.97 6.33026 1.26287 0
M  V30 3270 H 307.738 8.1788 0.318416 0
M  V30 3271 N 310.401 -0.613514 1.45168 0
M  V30 3272 C 311.65 -1.36874 1.4815 0
M  V30 3273 C 311.963 -1.952 0.124982 0
M  V30 3274 O 313.169 -2.71481 0.0324176 0
M  V30 3275 C 311.625 -2.47905 2.60904 0
M  V30 3276 C 311.233 -1.96016 4.02842 0
M  V30 3277 C 312.977 -3.24965 2.73126 0
M  V30 3278 C 310.884 -3.04494 5.06988 0
M  V30 3279 H 309.814 -0.514428 0.551253 0
M  V30 3280 H 312.465 -0.658182 1.7129 0
M  V30 3281 H 310.847 -3.21618 2.31037 0
M  V30 3282 H 312.021 -1.29051 4.4236 0
M  V30 3283 H 310.336 -1.31719 3.95018 0
M  V30 3284 H 312.933 -4.05865 3.48106 0
M  V30 3285 H 313.276 -3.75588 1.79553 0
M  V30 3286 H 313.809 -2.5835 3.0249 0
M  V30 3287 H 310.548 -2.58795 6.0225 0
M  V30 3288 H 310.068 -3.70044 4.72046 0
M  V30 3289 H 311.747 -3.68976 5.31475 0
M  V30 3290 N 311.879 -1.3236 -0.855495 0
M  V30 3291 C 313.29 -1.2056 -1.42556 0
M  V30 3292 C 313.641 0.182209 -1.95352 0
M  V30 3293 O 312.766 1.08088 -1.87472 0
M  V30 3294 C 313.361 -2.1826 -2.59129 0
M  V30 3295 C 311.92 -2.10351 -3.12137 0
M  V30 3296 C 311.067 -2.06674 -1.84882 0
M  V30 3297 H 314.018 -1.442 -0.662727 0
M  V30 3298 H 314.039 -1.78064 -3.36264 0
M  V30 3299 H 313.551 -3.19257 -2.20673 0
M  V30 3300 H 311.652 -1.12599 -3.55179 0
M  V30 3301 H 311.765 -3.00135 -3.73438 0
M  V30 3302 H 310.129 -1.51901 -2.04446 0
M  V30 3303 H 310.912 -3.09451 -1.48643 0
M  V30 3304 N 313.357 1.07166 -1.15556 0
M  V30 3305 C 314.585 1.83514 -0.955519 0
M  V30 3306 C 315 1.82163 0.49621 0
M  V30 3307 O 314.357 1.23441 1.34419 0
M  V30 3308 C 314.408 3.30515 -1.46432 0
M  V30 3309 O 314.129 3.31937 -2.85918 0
M  V30 3310 C 315.63 4.23625 -1.30603 0
M  V30 3311 H 312.85 0.578926 -0.339244 0
M  V30 3312 H 315.394 1.35265 -1.53374 0
M  V30 3313 H 313.549 3.76106 -0.928584 0
M  V30 3314 H 313.963 4.23794 -3.09029 0
M  V30 3315 H 315.437 5.24831 -1.71047 0
M  V30 3316 H 315.914 4.38485 -0.250441 0
M  V30 3317 H 316.52 3.83871 -1.83094 0
M  V30 3318 N 314.835 0.952656 1.25548 0
M  V30 3319 C 316.246 0.647392 1.75116 0
M  V30 3320 C 316.597 -0.837274 1.77438 0
M  V30 3321 O 315.722 -1.65525 1.39393 0
M  V30 3322 C 316.317 1.16845 3.18014 0
M  V30 3323 C 314.876 0.913382 3.6515 0
M  V30 3324 C 314.023 1.31265 2.44264 0
M  V30 3325 H 316.974 1.12968 1.11462 0
M  V30 3326 H 316.995 0.527606 3.76824 0
M  V30 3327 H 316.507 2.24902 3.16292 0
M  V30 3328 H 314.608 -0.152316 3.72289 0
M  V30 3329 H 314.721 1.54845 4.53387 0
M  V30 3330 H 313.085 0.731028 2.43984 0
M  V30 3331 H 313.868 2.40239 2.45234 0
M  V30 3332 N 316.313 -1.40141 0.720998 0
M  V30 3333 C 317.559 -2.01084 0.263231 0
M  V30 3334 C 317.892 -1.57052 -1.14229 0
M  V30 3335 O 317.167 -0.793027 -1.77599 0
M  V30 3336 C 317.45 -3.58401 0.349344 0
M  V30 3337 C 317.303 -4.12491 1.79363 0
M  V30 3338 C 318.622 -4.39231 -0.276351 0
M  V30 3339 H 315.741 -0.730572 0.0971228 0
M  V30 3340 H 318.383 -1.66543 0.914518 0
M  V30 3341 H 316.533 -3.87958 -0.205165 0
M  V30 3342 H 318.205 -3.93711 2.40394 0
M  V30 3343 H 316.448 -3.66576 2.31958 0
M  V30 3344 H 317.119 -5.21646 1.80524 0
M  V30 3345 H 319.595 -4.15637 0.196184 0
M  V30 3346 H 318.471 -5.48586 -0.185681 0
M  V30 3347 H 318.732 -4.20643 -1.36059 0
M  V30 3348 N 317.792 -0.46758 -1.50504 0
M  V30 3349 C 319.208 -0.121533 -1.59137 0
M  V30 3350 C 319.408 1.3717 -1.47603 0
M  V30 3351 O 318.464 2.14464 -1.33272 0
M  V30 3352 C 319.777 -0.6686 -2.93173 0
M  V30 3353 C 321.325 -0.631716 -3.06559 0
M  V30 3354 C 321.8 -1.15627 -4.43164 0
M  V30 3355 N 323.291 -1.11553 -4.49567 0
M  V30 3356 C 324.026 -1.49195 -5.5365 0
M  V30 3357 N 323.522 -1.94269 -6.65005 0
M  V30 3358 N 325.315 -1.4082 -5.44175 0
M  V30 3359 H 317.466 -1.4388 -1.56245 0
M  V30 3360 H 319.729 -0.594784 -0.738198 0
M  V30 3361 H 319.435 -1.71453 -3.07078 0
M  V30 3362 H 319.309 -0.11021 -3.77039 0
M  V30 3363 H 321.696 0.405297 -2.92304 0
M  V30 3364 H 321.777 -1.22687 -2.24458 0
M  V30 3365 H 321.421 -2.1919 -4.58168 0
M  V30 3366 H 321.351 -0.537365 -5.23851 0
M  V30 3367 H 323.842 -0.784895 -3.69659 0
M  V30 3368 H 324.155 -2.21148 -7.40482 0
M  V30 3369 H 322.5 -1.98219 -6.66134 0
M  V30 3370 H 325.691 -1.0545 -4.56068 0
M  V30 3371 H 325.864 -1.70481 -6.25172 0
M  V30 3372 N 319.27 1.56325 -0.20005 0
M  V30 3373 C 320.547 1.89484 0.48529 0
M  V30 3374 C 320.927 1.1143 1.79294 0
M  V30 3375 O 320.275 0.216919 2.27468 0
M  V30 3376 C 320.485 3.41923 0.699243 0
M  V30 3377 C 321.833 4.12256 1.01638 0
M  V30 3378 O 322.857 3.47402 0.786792 0
M  V30 3379 O 321.716 5.26887 1.45095 0
M  V30 3380 H 318.81 0.787144 0.253639 0
M  V30 3381 H 321.356 1.67985 -0.240633 0
M  V30 3382 H 320.128 3.90658 -0.224008 0
M  V30 3383 H 319.751 3.69131 1.47744 0
M  V30 3384 N 320.748 -0.0735177 1.57428 0
M  V30 3385 C 321.994 -0.774145 1.87443 0
M  V30 3386 C 322.327 -1.77311 0.792103 0
M  V30 3387 O 321.602 -1.93492 -0.197793 0
M  V30 3388 C 321.885 -1.48367 3.28115 0
M  V30 3389 C 321.738 -0.501227 4.46999 0
M  V30 3390 C 323.057 -2.429 3.66998 0
M  V30 3391 H 320.176 -0.279971 0.681752 0
M  V30 3392 H 322.818 -0.0373616 1.89963 0
M  V30 3393 H 320.968 -2.11171 3.26097 0
M  V30 3394 H 322.64 0.121468 4.6114 0
M  V30 3395 H 320.883 0.183593 4.33411 0
M  V30 3396 H 321.554 -1.03526 5.42205 0
M  V30 3397 H 324.03 -1.90175 3.70098 0
M  V30 3398 H 322.906 -2.89549 4.66318 0
M  V30 3399 H 323.167 -3.27628 2.96837 0
M  V30 3400 N 322.226 -1.5378 -0.344866 0
M  V30 3401 C 323.503 -1.61589 -1.10219 0
M  V30 3402 C 323.883 -0.436316 -2.06542 0
M  V30 3403 O 323.231 0.571543 -2.21237 0
M  V30 3404 C 323.441 -2.97602 -1.82301 0
M  V30 3405 C 324.789 -3.5291 -2.36093 0
M  V30 3406 O 325.813 -2.99768 -1.924 0
M  V30 3407 O 324.672 -4.45859 -3.16026 0
M  V30 3408 H 321.766 -0.653522 -0.506792 0
M  V30 3409 H 324.312 -1.66126 -0.346465 0
M  V30 3410 H 323.084 -3.74893 -1.12121 0
M  V30 3411 H 322.707 -2.9665 -2.64735 0
M  V30 3412 N 323.704 0.605807 -1.45491 0
M  V30 3413 C 324.651 1.7164 -1.54299 0
M  V30 3414 C 325.621 1.61486 -0.388761 0
M  V30 3415 O 326.806 1.81039 -0.602445 0
M  V30 3416 C 323.946 3.09953 -1.51734 0
M  V30 3417 C 323.059 3.309 -2.77721 0
M  V30 3418 C 322.194 4.59329 -2.66816 0
M  V30 3419 C 321.233 4.7354 -3.87848 0
M  V30 3420 N 320.37 5.9327 -3.75467 0
M  V30 3421 H 325.21 1.63449 -2.49176 0
M  V30 3422 H 322.747 0.796957 -1.23641 0
M  V30 3423 H 324.705 3.89977 -1.48235 0
M  V30 3424 H 323.335 3.17098 -0.604068 0
M  V30 3425 H 322.387 2.44639 -2.913 0
M  V30 3426 H 323.699 3.37274 -3.67488 0
M  V30 3427 H 322.853 5.4755 -2.61292 0
M  V30 3428 H 321.592 4.55355 -1.74651 0
M  V30 3429 H 320.597 3.83741 -3.93729 0
M  V30 3430 H 321.822 4.79309 -4.81082 0
M  V30 3431 H 319.768 5.90338 -2.86072 0
M  V30 3432 H 319.685 6.00811 -4.5887 0
M  V30 3433 H 320.953 6.83984 -3.73879 0
M  V30 3434 N 325.182 1.32811 0.848464 0
M  V30 3435 C 326.593 1.21315 1.41914 0
M  V30 3436 C 326.944 -0.171847 1.95446 0
M  V30 3437 O 326.069 -1.07093 1.88043 0
M  V30 3438 C 326.664 2.19631 2.57968 0
M  V30 3439 C 325.223 2.12003 3.11017 0
M  V30 3440 C 324.37 2.07651 1.83783 0
M  V30 3441 H 327.321 1.44549 0.655071 0
M  V30 3442 H 327.342 1.79845 3.35315 0
M  V30 3443 H 326.854 3.20423 2.18976 0
M  V30 3444 H 324.955 1.14481 3.54577 0
M  V30 3445 H 325.068 3.02111 3.71841 0
M  V30 3446 H 323.432 1.52983 2.03638 0
M  V30 3447 H 324.215 3.10235 1.47 0
M  V30 3448 N 326.66 -1.06551 1.16123 0
M  V30 3449 C 327.907 -1.79302 0.941126 0
M  V30 3450 C 328.235 -1.87105 -0.531235 0
M  V30 3451 O 327.49 -1.35692 -1.41018 0
M  V30 3452 C 327.789 -3.23911 1.51052 0
M  V30 3453 C 327.455 -3.36193 3.00475 0
M  V30 3454 C 326.117 -3.39252 3.41265 0
M  V30 3455 C 328.469 -3.38326 3.96465 0
M  V30 3456 C 325.797 -3.42057 4.76669 0
M  V30 3457 C 328.149 -3.4267 5.31752 0
M  V30 3458 C 326.813 -3.4401 5.72026 0
M  V30 3459 H 326.083 -0.656111 0.344382 0
M  V30 3460 H 328.73 -1.25325 1.44796 0
M  V30 3461 H 327.035 -3.80723 0.925063 0
M  V30 3462 H 328.732 -3.78793 1.31593 0
M  V30 3463 H 325.322 -3.34516 2.6795 0
M  V30 3464 H 329.506 -3.35176 3.6602 0
M  V30 3465 H 324.762 -3.41398 5.07206 0
M  V30 3466 H 328.936 -3.43268 6.05921 0
M  V30 3467 H 326.563 -3.45937 6.76928 0
M  V30 3468 N 328.138 -0.959301 -1.25041 0
M  V30 3469 C 329.068 -0.501388 -2.28053 0
M  V30 3470 C 330.049 0.454673 -1.63911 0
M  V30 3471 O 331.234 0.352618 -1.90972 0
M  V30 3472 C 328.364 0.217224 -3.4662 0
M  V30 3473 C 327.318 -0.654034 -4.22973 0
M  V30 3474 C 326.644 0.195589 -5.34342 0
M  V30 3475 C 327.944 -1.93447 -4.85155 0
M  V30 3476 H 329.638 -1.36238 -2.66608 0
M  V30 3477 H 327.184 -0.656534 -1.28163 0
M  V30 3478 H 329.137 0.548732 -4.17812 0
M  V30 3479 H 327.861 1.1125 -3.07068 0
M  V30 3480 H 326.52 -0.968693 -3.5357 0
M  V30 3481 H 326.168 1.09076 -4.91031 0
M  V30 3482 H 325.868 -0.384091 -5.86343 0
M  V30 3483 H 327.392 0.521958 -6.08365 0
M  V30 3484 H 328.806 -1.66908 -5.48466 0
M  V30 3485 H 327.203 -2.46018 -5.47353 0
M  V30 3486 H 328.273 -2.63466 -4.07079 0
M  V30 3487 N 329.616 1.39756 -0.72842 0
M  V30 3488 C 330.549 2.28176 -0.0330172 0
M  V30 3489 C 331.527 1.44035 0.754501 0
M  V30 3490 O 332.711 1.73434 0.738445 0
M  V30 3491 C 329.838 3.24795 0.960504 0
M  V30 3492 C 328.884 4.25693 0.262264 0
M  V30 3493 S 329.717 5.25714 -1.01906 0
M  V30 3494 C 330.873 6.25894 -0.0279717 0
M  V30 3495 H 331.106 2.86807 -0.78287 0
M  V30 3496 H 328.639 1.45382 -0.519951 0
M  V30 3497 H 330.597 3.80983 1.52846 0
M  V30 3498 H 329.258 2.65196 1.68315 0
M  V30 3499 H 328.451 4.93699 1.01379 0
M  V30 3500 H 328.053 3.7327 -0.233482 0
M  V30 3501 H 330.345 6.72585 0.814621 0
M  V30 3502 H 331.288 7.04876 -0.67499 0
M  V30 3503 H 331.696 5.63466 0.341489 0
M  V30 3504 N 331.094 0.475555 1.50254 0
M  V30 3505 C 332.505 0.0215174 1.86688 0
M  V30 3506 C 332.856 -1.38467 1.39001 0
M  V30 3507 O 331.981 -2.02732 0.756894 0
M  V30 3508 C 332.576 0.0322715 3.38785 0
M  V30 3509 C 331.135 -0.366314 3.74613 0
M  V30 3510 C 330.282 0.415832 2.74164 0
M  V30 3511 H 333.233 0.689612 1.42934 0
M  V30 3512 H 333.254 -0.76889 3.7265 0
M  V30 3513 H 332.766 1.05584 3.73462 0
M  V30 3514 H 330.867 -1.39406 3.45538 0
M  V30 3515 H 330.98 -0.064555 4.79057 0
M  V30 3516 H 329.344 -0.131048 2.54363 0
M  V30 3517 H 330.127 1.43899 3.11686 0
M  V30 3518 N 332.573 -1.56217 0.208337 0
M  V30 3519 C 333.819 -1.98242 -0.427552 0
M  V30 3520 C 334.152 -1.09554 -1.60348 0
M  V30 3521 O 333.427 -0.15035 -1.93918 0
M  V30 3522 C 333.71 -3.4931 -0.874907 0
M  V30 3523 C 333.563 -4.48773 0.303751 0
M  V30 3524 C 334.882 -4.04424 -1.73577 0
M  V30 3525 H 332.001 -0.720744 -0.153936 0
M  V30 3526 H 334.643 -1.87586 0.30192 0
M  V30 3527 H 332.793 -3.58522 -1.49648 0
M  V30 3528 H 334.465 -4.51586 0.941682 0
M  V30 3529 H 332.708 -4.23194 0.953375 0
M  V30 3530 H 333.379 -5.51976 -0.0519883 0
M  V30 3531 H 335.855 -3.98075 -1.21143 0
M  V30 3532 H 334.731 -5.1047 -2.01771 0
M  V30 3533 H 334.992 -3.50494 -2.69456 0
M  V30 3534 N 334.051 0.0651679 -1.57465 0
M  V30 3535 C 334.961 1.09448 -2.07505 0
M  V30 3536 C 335.977 1.41974 -1.00595 0
M  V30 3537 O 337.153 1.52018 -1.32107 0
M  V30 3538 C 334.218 2.38689 -2.51453 0
M  V30 3539 C 333.279 2.13073 -3.72691 0
M  V30 3540 C 332.512 3.36152 -4.14533 0
M  V30 3541 O 332.735 4.45517 -3.56189 0
M  V30 3542 O 331.669 3.23974 -5.07272 0
M  V30 3543 H 335.495 0.69935 -2.95538 0
M  V30 3544 H 333.08 0.279752 -1.46757 0
M  V30 3545 H 334.962 3.14736 -2.80212 0
M  V30 3546 H 333.637 2.77568 -1.66546 0
M  V30 3547 H 332.544 1.34709 -3.49005 0
M  V30 3548 H 333.877 1.79071 -4.5847 0
M  V30 3549 N 335.529 1.53961 0.336706 0
M  V30 3550 C 336.806 1.62171 1.09361 0
M  V30 3551 C 337.186 0.447263 2.06307 0
M  V30 3552 O 336.534 -0.559802 2.21537 0
M  V30 3553 C 336.744 2.98565 1.80721 0
M  V30 3554 C 338.092 3.54157 2.34218 0
M  V30 3555 O 339.116 3.00784 1.90807 0
M  V30 3556 O 337.975 4.47528 3.13657 0
M  V30 3557 H 335.069 0.6562 0.503319 0
M  V30 3558 H 337.615 1.66307 0.33765 0
M  V30 3559 H 336.387 3.75482 1.10132 0
M  V30 3560 H 336.01 2.9805 2.63158 0
M  V30 3561 N 337.007 -0.598083 1.45811 0
M  V30 3562 C 338.253 -1.35882 1.50545 0
M  V30 3563 C 338.586 -1.93616 0.150445 0
M  V30 3564 O 337.861 -1.75604 -0.83628 0
M  V30 3565 C 338.144 -2.49966 2.59208 0
M  V30 3566 C 337.997 -1.97367 4.04186 0
M  V30 3567 C 339.316 -3.52068 2.64076 0
M  V30 3568 H 336.435 -0.492717 0.548087 0
M  V30 3569 H 339.077 -0.673319 1.77669 0
M  V30 3570 H 337.227 -3.08443 2.3621 0
M  V30 3571 H 338.899 -1.43466 4.38423 0
M  V30 3572 H 337.142 -1.283 4.14393 0
M  V30 3573 H 337.813 -2.79649 4.75921 0
M  V30 3574 H 340.289 -3.03448 2.84708 0
M  V30 3575 H 339.165 -4.2937 3.41954 0
M  V30 3576 H 339.426 -4.08304 1.69531 0
M  V30 3577 N 338.485 -1.33259 -0.841409 0
M  V30 3578 C 339.732 -1.24572 -1.5965 0
M  V30 3579 C 340.06 0.189137 -1.93578 0
M  V30 3580 O 339.315 1.14566 -1.5866 0
M  V30 3581 C 339.614 -2.06381 -2.9179 0
M  V30 3582 C 339.28 -3.556 -2.77235 0
M  V30 3583 C 337.942 -3.96282 -2.72973 0
M  V30 3584 C 340.294 -4.50433 -2.62221 0
M  V30 3585 C 337.622 -5.30017 -2.51592 0
M  V30 3586 C 339.974 -5.84327 -2.42374 0
M  V30 3587 C 338.638 -6.24194 -2.36512 0
M  V30 3588 H 337.908 -0.455842 -0.5842 0
M  V30 3589 H 340.555 -1.6482 -0.975016 0
M  V30 3590 H 338.86 -1.58903 -3.5813 0
M  V30 3591 H 340.557 -1.97019 -3.49263 0
M  V30 3592 H 337.147 -3.23298 -2.81384 0
M  V30 3593 H 341.331 -4.19914 -2.64549 0
M  V30 3594 H 336.587 -5.59947 -2.45499 0
M  V30 3595 H 340.761 -6.57414 -2.29739 0
M  V30 3596 H 338.388 -7.27759 -2.19706 0
M  V30 3597 N 339.963 1.05934 -1.16686 0
M  V30 3598 C 341.191 1.8249 -0.974929 0
M  V30 3599 C 341.606 1.82679 0.476861 0
M  V30 3600 O 340.963 1.2486 1.33103 0
M  V30 3601 C 341.014 3.28943 -1.49929 0
M  V30 3602 O 340.735 3.28886 -2.89423 0
M  V30 3603 C 342.236 4.22215 -1.35089 0
M  V30 3604 H 339.456 0.575295 -0.345365 0
M  V30 3605 H 342 1.33631 -1.548 0
M  V30 3606 H 340.155 3.751 -0.968423 0
M  V30 3607 H 340.569 4.20493 -3.13506 0
M  V30 3608 H 342.043 5.22987 -1.76603 0
M  V30 3609 H 342.52 4.38195 -0.296935 0
M  V30 3610 H 343.126 3.81907 -1.87155 0
M  V30 3611 N 341.441 0.965919 1.2453 0
M  V30 3612 C 342.69 0.622437 1.91856 0
M  V30 3613 C 343.003 -0.846006 1.76358 0
M  V30 3614 O 344.209 -1.29993 2.38357 0
M  V30 3615 C 342.665 1.0626 3.43856 0
M  V30 3616 C 342.273 2.55437 3.68043 0
M  V30 3617 C 344.017 0.792183 4.17043 0
M  V30 3618 C 341.924 2.93196 5.13605 0
M  V30 3619 H 340.854 0.229092 0.718354 0
M  V30 3620 H 343.505 1.17189 1.41206 0
M  V30 3621 H 341.887 0.441476 3.93531 0
M  V30 3622 H 343.061 3.22665 3.28974 0
M  V30 3623 H 341.376 2.8007 3.08139 0
M  V30 3624 H 343.973 1.05031 5.24283 0
M  V30 3625 H 344.316 -0.271584 4.15413 0
M  V30 3626 H 344.849 1.37419 3.73311 0
M  V30 3627 H 341.588 3.98636 5.20355 0
M  V30 3628 H 341.108 2.30651 5.53679 0
M  V30 3629 H 342.787 2.83004 5.81823 0
M  V30 3630 N 342.919 -1.39368 0.735821 0
M  V30 3631 C 344.147 -2.04795 0.294393 0
M  V30 3632 C 344.562 -1.55478 -1.07107 0
M  V30 3633 O 343.919 -0.720038 -1.67695 0
M  V30 3634 C 343.97 -3.6035 0.288071 0
M  V30 3635 O 343.691 -4.07852 1.59963 0
M  V30 3636 C 345.192 -4.42976 -0.169422 0
M  V30 3637 H 342.412 -0.658571 0.128551 0
M  V30 3638 H 344.956 -1.78399 0.999701 0
M  V30 3639 H 343.111 -3.85645 -0.368355 0
M  V30 3640 H 343.525 -5.02181 1.51375 0
M  V30 3641 H 344.999 -5.51864 -0.122687 0
M  V30 3642 H 345.476 -4.22068 -1.21472 0
M  V30 3643 H 346.082 -4.22832 0.457469 0
M  V30 3644 N 344.397 -0.483516 -1.5 0
M  V30 3645 C 345.645 0.067027 -2.01989 0
M  V30 3646 C 345.966 1.3909 -1.36671 0
M  V30 3647 O 345.236 1.88978 -0.516152 0
M  V30 3648 H 343.816 0.0277606 -0.746484 0
M  V30 3649 H 346.478 -0.636773 -1.84204 0
M  V30 3650 H 345.574 0.209484 -3.11396 0
M  V30 3651 N 345.875 1.56104 -0.216619 0
M  V30 3652 C 347.291 1.58995 0.13886 0
M  V30 3653 C 347.491 1.23333 1.59346 0
M  V30 3654 O 346.547 0.966234 2.33281 0
M  V30 3655 C 347.86 3.00143 -0.182968 0
M  V30 3656 C 349.408 3.12751 -0.124807 0
M  V30 3657 C 349.883 4.56068 -0.420241 0
M  V30 3658 N 351.374 4.61723 -0.369634 0
M  V30 3659 C 352.109 5.70542 -0.571789 0
M  V30 3660 N 351.605 6.87744 -0.835453 0
M  V30 3661 N 353.398 5.59831 -0.504563 0
M  V30 3662 H 345.549 1.77562 -1.16557 0
M  V30 3663 H 347.812 0.825091 -0.466828 0
M  V30 3664 H 347.518 3.30871 -1.19237 0
M  V30 3665 H 347.392 3.73813 0.504367 0
M  V30 3666 H 349.779 2.81822 0.875223 0
M  V30 3667 H 349.86 2.41421 -0.845544 0
M  V30 3668 H 349.504 4.87713 -1.41769 0
M  V30 3669 H 349.434 5.25617 0.321631 0
M  V30 3670 H 351.925 3.77502 -0.173338 0
M  V30 3671 H 352.238 7.66587 -0.977938 0
M  V30 3672 H 350.583 6.895 -0.872592 0
M  V30 3673 H 353.774 4.67145 -0.298842 0
M  V30 3674 H 353.947 6.44573 -0.665519 0
M  V30 3675 N 347.353 -0.0568162 1.57498 0
M  V30 3676 C 348.601 -0.751617 1.87604 0
M  V30 3677 C 348.922 -1.77351 0.81066 0
M  V30 3678 O 348.192 -1.95254 -0.159018 0
M  V30 3679 H 346.772 -0.280583 0.692302 0
M  V30 3680 H 349.434 -0.0293483 1.94878 0
M  V30 3681 H 348.53 -1.25852 2.856 0
M  V30 3682 N 348.832 -1.54138 -0.328536 0
M  V30 3683 C 350.06 -1.76062 -1.08673 0
M  V30 3684 C 350.475 -0.506852 -1.81869 0
M  V30 3685 O 349.832 0.522223 -1.74869 0
M  V30 3686 C 349.883 -2.95054 -2.08866 0
M  V30 3687 O 349.604 -4.15583 -1.38644 0
M  V30 3688 C 351.105 -3.2915 -2.96943 0
M  V30 3689 H 348.325 -0.587889 -0.323461 0
M  V30 3690 H 350.869 -2.0101 -0.376175 0
M  V30 3691 H 349.024 -2.72394 -2.75464 0
M  V30 3692 H 349.438 -4.82481 -2.05699 0
M  V30 3693 H 350.912 -4.15723 -3.63151 0
M  V30 3694 H 351.389 -2.461 -3.63774 0
M  V30 3695 H 351.995 -3.53871 -2.35914 0
M  V30 3696 N 350.31 0.590341 -1.46126 0
M  V30 3697 C 351.556 1.35082 -1.51264 0
M  V30 3698 C 351.889 1.93534 -0.160711 0
M  V30 3699 O 351.164 1.76045 0.826956 0
M  V30 3700 C 351.447 2.48588 -2.6053 0
M  V30 3701 C 351.3 1.95221 -4.05227 0
M  V30 3702 C 352.619 3.50662 -2.6594 0
M  V30 3703 H 349.738 0.489803 -0.550692 0
M  V30 3704 H 352.38 0.663887 -1.78024 0
M  V30 3705 H 350.53 3.07186 -2.37843 0
M  V30 3706 H 352.202 1.41139 -4.39178 0
M  V30 3707 H 350.445 1.26101 -4.15068 0
M  V30 3708 H 351.116 2.77121 -4.77397 0
M  V30 3709 H 353.592 3.01934 -2.86313 0
M  V30 3710 H 352.468 4.27551 -3.44226 0
M  V30 3711 H 352.729 4.07399 -1.71694 0
M  V30 3712 N 351.788 1.33704 0.83433 0
M  V30 3713 C 352.751 1.24244 1.92603 0
M  V30 3714 C 353.751 0.160383 1.59998 0
M  V30 3715 O 354.941 0.412228 1.69252 0
M  V30 3716 C 352.073 0.91555 3.28376 0
M  V30 3717 H 353.266 2.21287 2.02416 0
M  V30 3718 H 350.819 1.17827 1.02696 0
M  V30 3719 H 351.554 -0.0521886 3.24258 0
M  V30 3720 H 351.339 1.69811 3.53422 0
M  V30 3721 H 352.829 0.874231 4.08347 0
M  V30 3722 N 353.266 -1.05314 1.17247 0
M  V30 3723 C 354.494 -1.81971 0.984593 0
M  V30 3724 C 354.909 -1.82929 -0.467166 0
M  V30 3725 O 354.266 -1.25564 -1.32438 0
M  V30 3726 C 354.317 -3.28143 1.51672 0
M  V30 3727 O 354.038 -3.27347 2.91163 0
M  V30 3728 C 355.539 -4.21493 1.37326 0
M  V30 3729 H 352.759 -0.573455 0.348411 0
M  V30 3730 H 355.303 -1.32808 1.55506 0
M  V30 3731 H 353.458 -3.74582 0.988302 0
M  V30 3732 H 353.872 -4.18824 3.15732 0
M  V30 3733 H 355.346 -5.22043 1.79375 0
M  V30 3734 H 355.823 -4.38031 0.320169 0
M  V30 3735 H 356.429 -3.80909 1.89178 0
M  V30 3736 N 354.744 -0.972509 -1.24016 0
M  V30 3737 C 355.992 -0.635776 -1.91839 0
M  V30 3738 C 356.313 0.832312 -1.76345 0
M  V30 3739 O 355.583 1.5946 -1.13795 0
M  V30 3740 H 354.163 -0.232157 -0.710009 0
M  V30 3741 H 356.825 -1.23462 -1.50809 0
M  V30 3742 H 355.921 -0.880545 -2.99421 0
M  V30 3743 N 356.222 1.38976 -0.743202 0
M  V30 3744 C 357.638 1.53984 -0.419664 0
M  V30 3745 C 357.838 1.70837 1.0685 0
M  V30 3746 O 356.894 1.7135 1.8546 0
M  V30 3747 C 358.207 2.75287 -1.20985 0
M  V30 3748 C 359.755 2.89129 -1.19889 0
M  V30 3749 C 360.23 4.13381 -1.97181 0
M  V30 3750 N 361.721 4.20437 -1.94389 0
M  V30 3751 C 362.456 5.15547 -2.50996 0
M  V30 3752 N 361.952 6.16395 -3.16274 0
M  V30 3753 N 363.745 5.07822 -2.40984 0
M  V30 3754 H 355.896 1.26285 -1.7078 0
M  V30 3755 H 358.159 0.612689 -0.723406 0
M  V30 3756 H 357.865 2.69204 -2.26323 0
M  V30 3757 H 357.739 3.68184 -0.819759 0
M  V30 3758 H 360.126 2.947 -0.153606 0
M  V30 3759 H 360.207 1.97272 -1.62841 0
M  V30 3760 H 359.851 4.08572 -3.01714 0
M  V30 3761 H 359.781 5.04298 -1.51629 0
M  V30 3762 H 362.272 3.48205 -1.46839 0
M  V30 3763 H 362.585 6.85443 -3.56915 0
M  V30 3764 H 360.93 6.16758 -3.20367 0
M  V30 3765 H 364.121 4.27973 -1.89622 0
M  V30 3766 H 364.294 5.81767 -2.85397 0
M  V30 3767 N 357.7 0.491464 1.49741 0
M  V30 3768 C 358.949 -0.0582189 2.01616 0
M  V30 3769 C 359.262 -1.38927 1.3769 0
M  V30 3770 O 360.468 -2.02509 1.80838 0
M  V30 3771 C 358.924 -0.154235 3.59569 0
M  V30 3772 C 358.532 1.1696 4.32463 0
M  V30 3773 C 360.276 -0.65479 4.1942 0
M  V30 3774 C 358.183 1.03627 5.8225 0
M  V30 3775 H 357.113 -0.0255317 0.753568 0
M  V30 3776 H 359.764 0.629445 1.72367 0
M  V30 3777 H 358.146 -0.906138 3.85493 0
M  V30 3778 H 359.32 1.93405 4.18248 0
M  V30 3779 H 357.635 1.60285 3.84315 0
M  V30 3780 H 360.232 -0.771903 5.29099 0
M  V30 3781 H 360.575 -1.65127 3.8215 0
M  V30 3782 H 361.108 0.040304 3.9778 0
M  V30 3783 H 357.847 2.00672 6.24028 0
M  V30 3784 H 357.367 0.312546 5.98985 0
M  V30 3785 H 359.046 0.711114 6.4308 0
M  V30 3786 N 359.178 -1.55987 0.224894 0
M  V30 3787 C 360.088 -2.24066 -0.69511 0
M  V30 3788 C 361.104 -1.24939 -1.21104 0
M  V30 3789 O 362.28 -1.5776 -1.25195 0
M  V30 3790 C 359.345 -2.90983 -1.88493 0
M  V30 3791 C 358.406 -4.05462 -1.41064 0
M  V30 3792 C 357.639 -4.69179 -2.54375 0
M  V30 3793 O 357.862 -4.31895 -3.72589 0
M  V30 3794 O 356.796 -5.58108 -2.25386 0
M  V30 3795 H 360.622 -3.03353 -0.145149 0
M  V30 3796 H 358.207 -1.49399 -0.00569476 0
M  V30 3797 H 360.089 -3.33209 -2.57972 0
M  V30 3798 H 358.764 -2.14653 -2.42293 0
M  V30 3799 H 357.671 -3.67798 -0.683774 0
M  V30 3800 H 359.004 -4.83545 -0.918985 0
M  V30 3801 N 360.656 0.0484629 -1.57525 0
M  V30 3802 C 362.072 0.40375 -1.54409 0
M  V30 3803 C 362.272 1.77786 -0.948384 0
M  V30 3804 O 361.328 2.46189 -0.560983 0
M  V30 3805 C 362.641 0.323394 -2.98956 0
M  V30 3806 C 364.189 0.401892 -3.10409 0
M  V30 3807 C 364.664 0.351195 -4.56652 0
M  V30 3808 N 366.155 0.410576 -4.61377 0
M  V30 3809 C 366.89 0.393933 -5.72045 0
M  V30 3810 N 366.386 0.330724 -6.9201 0
M  V30 3811 N 368.179 0.442227 -5.60358 0
M  V30 3812 H 360.33 -0.851016 -1.94606 0
M  V30 3813 H 362.593 -0.321721 -0.89174 0
M  V30 3814 H 362.299 -0.62011 -3.4619 0
M  V30 3815 H 362.173 1.12463 -3.60044 0
M  V30 3816 H 364.56 1.33582 -2.63134 0
M  V30 3817 H 364.641 -0.428342 -2.52188 0
M  V30 3818 H 364.285 -0.578987 -5.04589 0
M  V30 3819 H 364.215 1.19928 -5.12762 0
M  V30 3820 H 366.706 0.462729 -3.75056 0
M  V30 3821 H 367.019 0.322592 -7.72126 0
M  V30 3822 H 365.364 0.29706 -6.94365 0
M  V30 3823 H 368.555 0.489464 -4.65534 0
M  V30 3824 H 368.728 0.425788 -6.466 0
M  V30 3825 N 362.134 1.5431 0.320358 0
M  V30 3826 C 363.382 1.72327 1.05583 0
M  V30 3827 C 363.703 0.50149 1.88441 0
M  V30 3828 O 362.973 -0.48448 1.89815 0
M  V30 3829 H 361.553 0.635387 0.3928 0
M  V30 3830 H 364.215 1.91621 0.356019 0
M  V30 3831 H 363.311 2.60426 1.72003 0
M  V30 3832 N 363.613 -0.582584 1.46437 0
M  V30 3833 C 364.56 -1.69164 1.5701 0
M  V30 3834 C 365.53 -1.60847 0.414403 0
M  V30 3835 O 366.715 -1.80058 0.631171 0
M  V30 3836 C 363.855 -3.075 1.56646 0
M  V30 3837 C 362.968 -3.2644 2.82951 0
M  V30 3838 C 362.103 -4.55026 2.7409 0
M  V30 3839 C 361.142 -4.6731 3.95333 0
M  V30 3840 N 360.279 -5.87221 3.84858 0
M  V30 3841 H 365.119 -1.59464 2.51744 0
M  V30 3842 H 362.656 -0.777186 1.24893 0
M  V30 3843 H 364.614 -3.8757 1.5442 0
M  V30 3844 H 363.244 -3.16096 0.654439 0
M  V30 3845 H 362.296 -2.39974 2.95155 0
M  V30 3846 H 363.608 -3.31385 3.72808 0
M  V30 3847 H 362.762 -5.43324 2.6997 0
M  V30 3848 H 361.501 -4.52519 1.81873 0
M  V30 3849 H 360.506 -3.77429 3.99784 0
M  V30 3850 H 361.731 -4.71595 4.88646 0
M  V30 3851 H 359.677 -5.85712 2.95427 0
M  V30 3852 H 359.594 -5.93435 4.6837 0
M  V30 3853 H 360.862 -6.7795 3.84713 0
M  V30 3854 N 365.091 -1.34144 -0.827227 0
M  V30 3855 C 366.337 -1.26446 -1.58554 0
M  V30 3856 C 366.67 0.1664 -1.93486 0
M  V30 3857 O 365.945 1.1107 -1.59667 0
M  V30 3858 C 366.228 -2.15111 -2.8879 0
M  V30 3859 C 366.081 -3.66712 -2.60465 0
M  V30 3860 C 367.4 -2.03311 -3.90324 0
M  V30 3861 H 364.519 -0.46067 -0.575284 0
M  V30 3862 H 367.161 -1.64356 -0.953269 0
M  V30 3863 H 365.311 -1.8291 -3.42748 0
M  V30 3864 H 366.983 -4.09259 -2.1285 0
M  V30 3865 H 365.226 -3.88014 -1.93978 0
M  V30 3866 H 365.897 -4.24112 -3.53317 0
M  V30 3867 H 368.373 -2.31574 -3.45706 0
M  V30 3868 H 367.249 -2.67582 -4.79261 0
M  V30 3869 H 367.51 -1.00879 -4.30437 0
M  V30 3870 N 366.569 1.04691 -1.17803 0
M  V30 3871 C 367.516 2.12557 -0.899343 0
M  V30 3872 C 368.486 1.65339 0.158771 0
M  V30 3873 O 369.671 1.90789 0.0204797 0
M  V30 3874 C 366.811 3.42481 -0.424315 0
M  V30 3875 C 365.924 4.03346 -1.54713 0
M  V30 3876 C 365.059 5.21208 -1.02546 0
M  V30 3877 C 364.098 5.74089 -2.12339 0
M  V30 3878 N 363.235 6.83247 -1.61612 0
M  V30 3879 H 368.075 2.35734 -1.823 0
M  V30 3880 H 365.612 1.1564 -0.909159 0
M  V30 3881 H 367.57 4.16996 -0.130421 0
M  V30 3882 H 366.2 3.19471 0.462377 0
M  V30 3883 H 365.252 3.2622 -1.95664 0
M  V30 3884 H 366.564 4.38628 -2.37501 0
M  V30 3885 H 365.718 6.02812 -0.685718 0
M  V30 3886 H 364.457 4.87414 -0.167084 0
M  V30 3887 H 363.462 4.91111 -2.47165 0
M  V30 3888 H 364.687 6.0993 -2.98601 0
M  V30 3889 H 362.633 6.5134 -0.780533 0
M  V30 3890 H 362.55 7.17559 -2.38003 0
M  V30 3891 H 363.818 7.68491 -1.30545 0
M  V30 3892 N 368.047 0.979072 1.23499 0
M  V30 3893 C 369.293 0.648178 1.92163 0
M  V30 3894 C 369.626 -0.816049 1.76222 0
M  V30 3895 O 368.901 -1.58849 1.12237 0
M  V30 3896 C 369.184 1.03773 3.44824 0
M  V30 3897 C 369.037 2.55948 3.69879 0
M  V30 3898 C 370.356 0.580653 4.36253 0
M  V30 3899 H 367.475 0.236952 0.69787 0
M  V30 3900 H 370.117 1.22012 1.45647 0
M  V30 3901 H 368.267 0.551058 3.84572 0
M  V30 3902 H 369.939 3.12179 3.3962 0
M  V30 3903 H 368.182 2.98641 3.14636 0
M  V30 3904 H 368.853 2.78255 4.76737 0
M  V30 3905 H 371.329 0.998465 4.03943 0
M  V30 3906 H 370.205 0.881663 5.41773 0
M  V30 3907 H 370.466 -0.519052 4.39042 0
M  V30 3908 N 369.525 -1.3858 0.750561 0
M  V30 3909 C 370.773 -1.99789 0.30477 0
M  V30 3910 C 371.094 -1.59874 -1.11649 0
M  V30 3911 O 370.364 -0.85417 -1.76297 0
M  V30 3912 H 368.944 -0.738902 0.109694 0
M  V30 3913 H 371.606 -1.69391 0.963983 0
M  V30 3914 H 370.702 -3.09952 0.365499 0
M  V30 3915 N 371.003 -0.499398 -1.49478 0
M  V30 3916 C 372.28 0.108629 -1.95298 0
M  V30 3917 C 372.66 1.54282 -1.44084 0
M  V30 3918 O 372.008 2.18944 -0.653908 0
M  V30 3919 C 372.218 0.0229111 -3.48992 0
M  V30 3920 C 373.566 0.197643 -4.2414 0
M  V30 3921 O 374.59 0.0981735 -3.56065 0
M  V30 3922 O 373.449 0.401669 -5.45022 0
M  V30 3923 H 370.543 0.096181 -0.821388 0
M  V30 3924 H 373.089 -0.561822 -1.6013 0
M  V30 3925 H 371.861 -0.977321 -3.78899 0
M  V30 3926 H 371.484 0.733579 -3.90774 0
M  V30 3927 N 372.481 1.55866 -0.233164 0
M  V30 3928 C 373.391 2.24431 0.683217 0
M  V30 3929 C 374.407 1.2558 1.2044 0
M  V30 3930 O 375.583 1.58422 1.24356 0
M  V30 3931 C 372.648 2.91979 1.86947 0
M  V30 3932 C 371.709 4.06204 1.38912 0
M  V30 3933 C 370.942 4.70522 2.51883 0
M  V30 3934 O 371.165 4.33865 3.70293 0
M  V30 3935 O 370.099 5.59296 2.22423 0
M  V30 3936 H 373.925 3.03426 0.129059 0
M  V30 3937 H 371.51 1.494 -0.0022283 0
M  V30 3938 H 373.392 3.34573 2.56201 0
M  V30 3939 H 372.067 2.15935 2.41151 0
M  V30 3940 H 370.974 3.68155 0.664259 0
M  V30 3941 H 372.307 4.84025 0.893328 0
M  V30 3942 N 373.959 -0.0401083 1.57549 0
M  V30 3943 C 375.205 -0.734211 1.89043 0
M  V30 3944 C 375.538 -1.75591 0.829535 0
M  V30 3945 O 374.813 -1.93868 -0.156706 0
M  V30 3946 C 375.096 -1.41374 3.31188 0
M  V30 3947 C 374.949 -0.406299 4.47961 0
M  V30 3948 C 376.268 -2.35061 3.72068 0
M  V30 3949 H 373.387 -0.265447 0.687537 0
M  V30 3950 H 376.029 0.00294087 1.9 0
M  V30 3951 H 374.179 -2.04206 3.30503 0
M  V30 3952 H 375.851 0.219255 4.60779 0
M  V30 3953 H 374.094 0.275485 4.32924 0
M  V30 3954 H 374.765 -0.920022 5.44279 0
M  V30 3955 H 377.241 -1.82282 3.74049 0
M  V30 3956 H 376.117 -2.79593 4.72355 0
M  V30 3957 H 376.378 -3.21258 3.0372 0
M  V30 3958 N 375.437 -1.54477 -0.31217 0
M  V30 3959 C 376.347 -1.87695 -1.4074 0
M  V30 3960 C 377.363 -0.769975 -1.56036 0
M  V30 3961 O 378.539 -1.06537 -1.70915 0
M  V30 3962 C 375.604 -2.10755 -2.75287 0
M  V30 3963 C 374.665 -3.34514 -2.69071 0
M  V30 3964 C 373.898 -3.56465 -3.97201 0
M  V30 3965 O 374.121 -2.81637 -4.96021 0
M  V30 3966 O 373.055 -4.49964 -3.9977 0
M  V30 3967 H 376.881 -2.80849 -1.15574 0
M  V30 3968 H 374.466 -1.40526 -0.507228 0
M  V30 3969 H 376.348 -2.27188 -3.54913 0
M  V30 3970 H 375.023 -1.20788 -3.0032 0
M  V30 3971 H 373.93 -3.23456 -1.87955 0
M  V30 3972 H 375.263 -4.24575 -2.48992 0
M  V30 3973 N 376.915 0.57481 -1.46744 0
M  V30 3974 C 378.164 1.32898 -1.51727 0
M  V30 3975 C 378.477 1.948 -0.176692 0
M  V30 3976 O 379.683 2.71299 -0.104385 0
M  V30 3977 C 378.139 2.40901 -2.67385 0
M  V30 3978 C 377.747 1.85266 -4.07898 0
M  V30 3979 C 379.491 3.17609 -2.81646 0
M  V30 3980 C 377.398 2.90945 -5.14883 0
M  V30 3981 H 376.328 0.499631 -0.564699 0
M  V30 3982 H 378.979 0.612536 -1.72975 0
M  V30 3983 H 377.361 3.15379 -2.39483 0
M  V30 3984 H 378.535 1.17278 -4.45626 0
M  V30 3985 H 376.85 1.21199 -3.98371 0
M  V30 3986 H 379.447 3.96493 -3.58744 0
M  V30 3987 H 379.79 3.70696 -1.89448 0
M  V30 3988 H 380.323 2.50239 -3.09233 0
M  V30 3989 H 377.062 2.42736 -6.089 0
M  V30 3990 H 376.582 3.57398 -4.81691 0
M  V30 3991 H 378.261 3.54755 -5.41071 0
M  V30 3992 N 378.394 1.34581 0.820102 0
M  V30 3993 C 379.64 1.27285 1.57881 0
M  V30 3994 C 379.973 -0.156137 1.93571 0
M  V30 3995 O 379.248 -1.10222 1.60254 0
M  V30 3996 C 379.531 2.16639 2.87645 0
M  V30 3997 C 379.384 3.68088 2.58517 0
M  V30 3998 C 380.703 2.05378 3.8924 0
M  V30 3999 H 377.822 0.463714 0.572833 0
M  V30 4000 H 380.464 1.64859 0.944539 0
M  V30 4001 H 378.614 1.84725 3.41773 0
M  V30 4002 H 380.286 4.10382 2.10676 0
M  V30 4003 H 378.529 3.89038 1.91917 0
M  V30 4004 H 379.2 4.2598 3.51063 0
M  V30 4005 H 381.676 2.33404 3.44473 0
M  V30 4006 H 380.552 2.7012 4.77835 0
M  V30 4007 H 380.813 1.0316 4.29896 0
M  V30 4008 N 379.872 -1.04064 1.18357 0
M  V30 4009 C 381.12 -1.76915 0.977013 0
M  V30 4010 C 381.441 -1.88624 -0.494577 0
M  V30 4011 O 380.711 -1.41125 -1.3587 0
M  V30 4012 H 379.291 -0.65535 0.358504 0
M  V30 4013 H 381.953 -1.25592 1.49039 0
M  V30 4014 H 381.049 -2.78178 1.41504 0
M  V30 4015 N 381.35 -0.985608 -1.22978 0
M  V30 4016 C 382.28 -0.549649 -2.26939 0
M  V30 4017 C 383.261 0.419803 -1.64838 0
M  V30 4018 O 384.446 0.31203 -1.91677 0
M  V30 4019 C 381.576 0.143652 -3.47003 0
M  V30 4020 C 380.53 -0.743606 -4.21491 0
M  V30 4021 C 379.856 0.0822027 -5.34637 0
M  V30 4022 C 381.156 -2.03694 -4.80943 0
M  V30 4023 H 382.85 -1.41862 -2.63658 0
M  V30 4024 H 380.396 -0.683571 -1.26741 0
M  V30 4025 H 382.349 0.459985 -4.18882 0
M  V30 4026 H 381.073 1.04711 -3.09359 0
M  V30 4027 H 379.732 -1.04347 -3.51436 0
M  V30 4028 H 379.38 0.986359 -4.93234 0
M  V30 4029 H 379.08 -0.508377 -5.85397 0
M  V30 4030 H 380.604 0.392797 -6.09335 0
M  V30 4031 H 382.018 -1.78504 -5.44802 0
M  V30 4032 H 380.415 -2.57573 -5.42011 0
M  V30 4033 H 381.485 -2.72042 -4.01399 0
M  V30 4034 N 382.828 1.3818 -0.7579 0
M  V30 4035 C 383.791 2.28764 -0.141286 0
M  V30 4036 C 384.791 1.47388 0.642907 0
M  V30 4037 O 385.981 1.67781 0.468536 0
M  V30 4038 C 383.113 3.31184 0.808069 0
M  V30 4039 H 384.306 2.848 -0.939633 0
M  V30 4040 H 381.859 1.47212 -0.525191 0
M  V30 4041 H 382.594 2.80247 1.63193 0
M  V30 4042 H 382.379 3.91314 0.248104 0
M  V30 4043 H 383.869 3.98909 1.23536 0
M  V30 4044 N 384.306 0.507319 1.49211 0
M  V30 4045 C 385.717 0.0611118 1.866 0
M  V30 4046 C 386.068 -1.35488 1.41907 0
M  V30 4047 O 385.193 -2.0108 0.799726 0
M  V30 4048 C 385.788 0.104125 3.3864 0
M  V30 4049 C 384.347 -0.28677 3.75306 0
M  V30 4050 C 383.494 0.473893 2.73221 0
M  V30 4051 H 386.445 0.719775 1.41439 0
M  V30 4052 H 386.466 -0.689672 3.74198 0
M  V30 4053 H 385.978 1.13482 3.71138 0
M  V30 4054 H 384.079 -1.32046 3.48417 0
M  V30 4055 H 384.192 0.0370745 4.79086 0
M  V30 4056 H 382.556 -0.0770644 2.54583 0
M  V30 4057 H 383.339 1.50478 3.08563 0
M  V30 4058 N 385.784 -1.5574 0.241426 0
M  V30 4059 C 386.694 -2.2479 -0.671305 0
M  V30 4060 C 387.71 -1.26217 -1.19772 0
M  V30 4061 O 388.886 -1.59079 -1.23514 0
M  V30 4062 C 385.951 -2.92966 -1.85396 0
M  V30 4063 C 385.012 -4.06935 -1.36756 0
M  V30 4064 C 384.245 -4.71851 -2.49384 0
M  V30 4065 O 384.468 -4.35823 -3.67987 0
M  V30 4066 O 383.402 -5.60467 -2.19454 0
M  V30 4067 H 387.228 -3.0349 -0.112966 0
M  V30 4068 H 384.813 -1.49397 0.0101513 0
M  V30 4069 H 386.695 -3.35927 -2.54423 0
M  V30 4070 H 385.37 -2.17211 -2.40002 0
M  V30 4071 H 384.277 -3.68503 -0.644726 0
M  V30 4072 H 385.61 -4.84492 -0.867647 0
M  V30 4073 N 387.262 0.0317525 -1.57568 0
M  V30 4074 C 388.49 0.734949 -1.93407 0
M  V30 4075 C 388.905 1.69036 -0.84096 0
M  V30 4076 O 388.262 1.81582 0.182836 0
M  V30 4077 C 388.313 1.49432 -3.29169 0
M  V30 4078 O 388.034 0.577261 -4.3428 0
M  V30 4079 C 389.535 2.29492 -3.79273 0
M  V30 4080 H 386.755 0.206706 -0.638368 0
M  V30 4081 H 389.299 -0.00992046 -2.04498 0
M  V30 4082 H 387.454 2.1911 -3.19483 0
M  V30 4083 H 387.868 1.10952 -5.1263 0
M  V30 4084 H 389.342 2.78172 -4.76785 0
M  V30 4085 H 389.819 3.10794 -3.10328 0
M  V30 4086 H 390.425 1.64894 -3.92033 0
M  V30 4087 N 388.74 1.54641 0.303973 0
M  V30 4088 C 390.156 1.45788 0.649463 0
M  V30 4089 C 390.356 0.64666 1.90842 0
M  V30 4090 O 389.412 0.153183 2.52035 0
M  V30 4091 C 390.725 2.89718 0.805227 0
M  V30 4092 C 392.273 2.99742 0.901305 0
M  V30 4093 C 392.748 4.44863 1.08909 0
M  V30 4094 N 394.239 4.48559 1.15536 0
M  V30 4095 C 394.974 5.58026 1.3189 0
M  V30 4096 N 394.47 6.77422 1.45161 0
M  V30 4097 N 396.263 5.45708 1.34755 0
M  V30 4098 H 388.414 2.05854 -0.523237 0
M  V30 4099 H 390.677 0.932186 -0.172431 0
M  V30 4100 H 390.383 3.51666 -0.0489108 0
M  V30 4101 H 390.257 3.36964 1.69513 0
M  V30 4102 H 392.644 2.3791 1.74593 0
M  V30 4103 H 392.725 2.55797 -0.0125531 0
M  V30 4104 H 392.369 5.07288 0.249241 0
M  V30 4105 H 392.299 4.86436 2.01713 0
M  V30 4106 H 394.79 3.6254 1.06646 0
M  V30 4107 H 395.103 7.56604 1.57387 0
M  V30 4108 H 393.448 6.80292 1.42223 0
M  V30 4109 H 396.639 4.51378 1.23996 0
M  V30 4110 H 396.812 6.3107 1.47157 0
M  V30 4111 N 390.218 -0.567019 1.47046 0
M  V30 4112 C 391.165 -1.67489 1.58796 0
M  V30 4113 C 392.135 -1.60399 0.43144 0
M  V30 4114 O 393.32 -1.79378 0.650233 0
M  V30 4115 C 390.46 -3.05821 1.59899 0
M  V30 4116 C 389.573 -3.2342 2.86397 0
M  V30 4117 C 388.708 -4.52093 2.789 0
M  V30 4118 C 387.747 -4.6309 4.00267 0
M  V30 4119 N 386.884 -5.83106 3.91064 0
M  V30 4120 H 391.724 -1.56785 2.53422 0
M  V30 4121 H 389.261 -0.763896 1.2571 0
M  V30 4122 H 391.219 -3.8591 1.58522 0
M  V30 4123 H 389.849 -3.15384 0.687929 0
M  V30 4124 H 388.901 -2.3683 2.97684 0
M  V30 4125 H 390.213 -3.27412 3.76301 0
M  V30 4126 H 389.367 -5.4043 2.75718 0
M  V30 4127 H 388.106 -4.50565 1.86662 0
M  V30 4128 H 387.111 -3.73168 4.03765 0
M  V30 4129 H 388.336 -4.66386 4.93621 0
M  V30 4130 H 386.282 -5.82546 3.01623 0
M  V30 4131 H 386.199 -5.88434 4.74638 0
M  V30 4132 H 387.467 -6.73831 3.91882 0
M  V30 4133 N 391.696 -1.35014 -0.812953 0
M  V30 4134 C 392.924 -1.31031 -1.6012 0
M  V30 4135 C 393.339 0.113558 -1.88458 0
M  V30 4136 O 392.696 1.06363 -1.48301 0
M  V30 4137 C 392.747 -2.10872 -2.93624 0
M  V30 4138 O 392.468 -3.47706 -2.66518 0
M  V30 4139 C 393.969 -2.14401 -3.88004 0
M  V30 4140 H 391.189 -0.45037 -0.497401 0
M  V30 4141 H 393.733 -1.77775 -1.01076 0
M  V30 4142 H 391.888 -1.67744 -3.492 0
M  V30 4143 H 392.302 -3.89097 -3.51715 0
M  V30 4144 H 393.776 -2.74669 -4.78812 0
M  V30 4145 H 394.253 -1.14105 -4.24119 0
M  V30 4146 H 394.859 -2.57662 -3.38364 0
M  V30 4147 N 393.175 1.03435 -1.18907 0
M  V30 4148 C 394.421 1.77005 -0.989798 0
M  V30 4149 C 394.754 1.88205 0.478816 0
M  V30 4150 O 394.029 1.39481 1.35556 0
M  V30 4151 C 394.312 3.19925 -1.65287 0
M  V30 4152 C 394.165 3.1663 -3.19477 0
M  V30 4153 C 395.484 4.18189 -1.37134 0
M  V30 4154 H 392.603 0.642538 -0.360991 0
M  V30 4155 H 395.245 1.20784 -1.46667 0
M  V30 4156 H 393.395 3.67929 -1.24741 0
M  V30 4157 H 395.067 2.76567 -3.692 0
M  V30 4158 H 393.31 2.54491 -3.51307 0
M  V30 4159 H 393.981 4.1758 -3.61013 0
M  V30 4160 H 396.457 3.78761 -1.72276 0
M  V30 4161 H 395.333 5.16394 -1.86087 0
M  V30 4162 H 395.594 4.41112 -0.295424 0
M  V30 4163 N 394.653 0.992116 1.22453 0
M  V30 4164 C 395.899 0.668523 1.91464 0
M  V30 4165 C 396.232 -0.797313 1.77078 0
M  V30 4166 O 395.507 -1.5765 1.13916 0
M  V30 4167 C 395.79 1.07424 3.43703 0
M  V30 4168 C 395.643 2.59857 3.67143 0
M  V30 4169 C 396.962 0.626891 4.35612 0
M  V30 4170 H 394.081 0.244341 0.695318 0
M  V30 4171 H 396.723 1.2355 1.44345 0
M  V30 4172 H 394.873 0.591816 3.83966 0
M  V30 4173 H 396.545 3.15764 3.3629 0
M  V30 4174 H 394.788 3.01961 3.11451 0
M  V30 4175 H 395.459 2.83296 4.73759 0
M  V30 4176 H 397.935 1.04125 4.02861 0
M  V30 4177 H 396.811 0.939076 5.40807 0
M  V30 4178 H 397.072 -0.472457 4.39568 0
M  V30 4179 N 396.131 -1.37776 0.765217 0
M  V30 4180 C 397.359 -2.04124 0.337767 0
M  V30 4181 C 397.774 -1.57715 -1.03785 0
M  V30 4182 O 397.131 -0.755447 -1.6613 0
M  V30 4183 C 397.182 -3.59658 0.364442 0
M  V30 4184 O 396.903 -4.04367 1.68579 0
M  V30 4185 C 398.404 -4.43236 -0.0754221 0
M  V30 4186 H 395.624 -0.655696 0.142491 0
M  V30 4187 H 398.168 -1.76238 1.03732 0
M  V30 4188 H 396.323 -3.86339 -0.286471 0
M  V30 4189 H 396.737 -4.98857 1.61993 0
M  V30 4190 H 398.211 -5.52 -0.00560067 0
M  V30 4191 H 398.688 -4.2455 -1.12491 0
M  V30 4192 H 399.294 -4.21767 0.547055 0
M  V30 4193 N 397.609 -0.515225 -1.4894 0
M  V30 4194 C 398.857 0.0241671 -2.02086 0
M  V30 4195 C 399.178 1.3616 -1.3959 0
M  V30 4196 O 398.448 1.87841 -0.556121 0
M  V30 4197 H 397.028 0.0119203 -0.746905 0
M  V30 4198 H 399.69 -0.675702 -1.82812 0
M  V30 4199 H 398.786 0.143385 -3.1177 0
M  V30 4200 N 399.087 1.5561 -0.249682 0
M  V30 4201 C 400.333 1.99306 0.374841 0
M  V30 4202 C 400.666 1.13767 1.57387 0
M  V30 4203 O 399.941 0.201711 1.93451 0
M  V30 4204 C 400.224 3.51507 0.781986 0
M  V30 4205 C 400.077 4.4781 -0.422629 0
M  V30 4206 C 401.396 4.08884 1.62793 0
M  V30 4207 H 398.515 0.724572 0.134773 0
M  V30 4208 H 401.157 1.86719 -0.351549 0
M  V30 4209 H 399.307 3.62363 1.4009 0
M  V30 4210 H 400.979 4.48931 -1.06108 0
M  V30 4211 H 399.222 4.20518 -1.06524 0
M  V30 4212 H 399.893 5.51919 -0.0943766 0
M  V30 4213 H 402.369 4.01147 1.10547 0
M  V30 4214 H 401.245 5.1564 1.88166 0
M  V30 4215 H 401.506 3.57515 2.60068 0
M  V30 4216 N 400.565 -0.0233959 1.57583 0
M  V30 4217 C 401.475 -1.03907 2.10334 0
M  V30 4218 C 402.491 -1.39257 1.04323 0
M  V30 4219 O 403.667 -1.48462 1.36091 0
M  V30 4220 C 400.732 -2.31938 2.57693 0
M  V30 4221 C 399.793 -2.03117 3.78209 0
M  V30 4222 C 399.026 -3.25043 4.233 0
M  V30 4223 O 399.249 -4.35916 3.67876 0
M  V30 4224 O 398.183 -3.10411 5.15683 0
M  V30 4225 H 402.009 -0.620748 2.97288 0
M  V30 4226 H 399.594 -0.240743 1.47448 0
M  V30 4227 H 401.476 -3.07196 2.88458 0
M  V30 4228 H 400.151 -2.73055 1.73847 0
M  V30 4229 H 399.058 -1.25408 3.52454 0
M  V30 4230 H 400.391 -1.66852 4.63056 0
M  V30 4231 N 402.043 -1.548 -0.295768 0
M  V30 4232 C 402.976 -1.81003 -1.38972 0
M  V30 4233 C 403.954 -0.661544 -1.48534 0
M  V30 4234 O 405.138 -0.902074 -1.65514 0
M  V30 4235 C 402.265 -1.95141 -2.76835 0
M  V30 4236 C 401.311 -3.17592 -2.84671 0
M  V30 4237 S 402.144 -4.75531 -2.46232 0
M  V30 4238 C 403.3 -4.92613 -3.86114 0
M  V30 4239 H 403.533 -2.73507 -1.16537 0
M  V30 4240 H 401.066 -1.46278 -0.494168 0
M  V30 4241 H 403.024 -2.03972 -3.56238 0
M  V30 4242 H 401.685 -1.03565 -2.96535 0
M  V30 4243 H 400.878 -3.24303 -3.85803 0
M  V30 4244 H 400.48 -3.07235 -2.13267 0
M  V30 4245 H 402.772 -4.76957 -4.81164 0
M  V30 4246 H 403.715 -5.94698 -3.8437 0
M  V30 4247 H 404.123 -4.2073 -3.76359 0
M  V30 4248 N 403.521 0.559213 -1.47345 0
M  V30 4249 C 404.471 1.66192 -1.5609 0
M  V30 4250 C 405.455 1.55323 -0.419957 0
M  V30 4251 O 406.647 1.63839 -0.669762 0
M  V30 4252 C 403.776 3.0497 -1.57634 0
M  V30 4253 C 402.862 3.2105 -2.77106 0
M  V30 4254 N 403.253 3.07203 -4.01821 0
M  V30 4255 C 401.551 3.52046 -2.73825 0
M  V30 4256 C 402.252 3.25919 -4.81821 0
M  V30 4257 N 401.228 3.52161 -4.14106 0
M  V30 4258 H 405.03 1.54052 -2.5029 0
M  V30 4259 H 402.544 0.763914 -1.43311 0
M  V30 4260 H 404.541 3.84142 -1.61989 0
M  V30 4261 H 403.201 3.18224 -0.645281 0
M  V30 4262 H 404.212 2.84572 -4.32711 0
M  V30 4263 H 400.889 3.71839 -1.89848 0
M  V30 4264 H 402.279 3.20198 -5.90697 0
M  V30 4265 N 404.999 1.35443 0.805782 0
M  V30 4266 C 406.415 1.15499 1.10146 0
M  V30 4267 C 406.615 -0.0319975 2.01475 0
M  V30 4268 O 405.671 -0.70236 2.42535 0
M  V30 4269 C 406.984 2.45833 1.73166 0
M  V30 4270 C 408.532 2.52047 1.85583 0
M  V30 4271 C 409.007 3.82427 2.52019 0
M  V30 4272 N 410.498 3.83682 2.59504 0
M  V30 4273 C 411.233 4.81294 3.11679 0
M  V30 4274 N 410.729 5.89294 3.64287 0
M  V30 4275 N 412.522 4.6873 3.1024 0
M  V30 4276 H 404.673 2.11469 0.198678 0
M  V30 4277 H 406.936 0.93594 0.150731 0
M  V30 4278 H 406.642 3.32874 1.13526 0
M  V30 4279 H 406.516 2.6044 2.72857 0
M  V30 4280 H 408.903 1.65435 2.44367 0
M  V30 4281 H 408.984 2.41354 0.847455 0
M  V30 4282 H 408.628 4.69437 1.93885 0
M  V30 4283 H 408.558 3.90409 3.53395 0
M  V30 4284 H 411.049 3.05648 2.22234 0
M  V30 4285 H 411.362 6.59768 4.02401 0
M  V30 4286 H 409.707 5.92985 3.62483 0
M  V30 4287 H 412.898 3.83496 2.68419 0
M  V30 4288 H 413.071 5.44965 3.50596 0
M  V30 4289 N 406.477 -1.02803 1.19454 0
M  V30 4290 C 407.424 -2.11099 0.933046 0
M  V30 4291 C 408.394 -1.65571 -0.132447 0
M  V30 4292 O 409.579 -1.90797 0.00987576 0
M  V30 4293 C 406.719 -3.41763 0.478747 0
M  V30 4294 C 405.832 -4.00833 1.6111 0
M  V30 4295 C 404.967 -5.19511 1.10825 0
M  V30 4296 C 404.006 -5.70639 2.21445 0
M  V30 4297 N 403.143 -6.80589 1.72461 0
M  V30 4298 H 407.983 -2.32804 1.86028 0
M  V30 4299 H 405.52 -1.14179 0.927441 0
M  V30 4300 H 407.478 -4.16736 0.196745 0
M  V30 4301 H 406.108 -3.20166 -0.411493 0
M  V30 4302 H 405.16 -3.23066 2.00829 0
M  V30 4303 H 406.472 -4.34794 2.4445 0
M  V30 4304 H 405.626 -6.01645 0.781533 0
M  V30 4305 H 404.365 -4.87086 0.244606 0
M  V30 4306 H 403.37 -4.87116 2.54947 0
M  V30 4307 H 404.595 -6.05102 3.08267 0
M  V30 4308 H 402.541 -6.50016 0.884056 0
M  V30 4309 H 402.458 -7.13681 2.49389 0
M  V30 4310 H 403.726 -7.66317 1.42755 0
M  V30 4311 N 407.956 -0.998596 -1.21925 0
M  V30 4312 C 409.184 -0.696286 -1.94832 0
M  V30 4313 C 409.599 0.740032 -1.73692 0
M  V30 4314 O 408.956 1.5 -1.03953 0
M  V30 4315 C 409.007 -0.999833 -3.47398 0
M  V30 4316 O 408.728 -2.37972 -3.67833 0
M  V30 4317 C 410.229 -0.716025 -4.37479 0
M  V30 4318 H 407.449 -0.257111 -0.619786 0
M  V30 4319 H 409.993 -1.33491 -1.54921 0
M  V30 4320 H 408.148 -0.406918 -3.85257 0
M  V30 4321 H 408.562 -2.48338 -4.61983 0
M  V30 4322 H 410.036 -0.978642 -5.43256 0
M  V30 4323 H 410.513 0.349968 -4.37803 0
M  V30 4324 H 411.119 -1.29025 -4.05256 0
M  V30 4325 N 409.434 1.37368 -0.772513 0
M  V30 4326 C 410.364 2.32856 -0.173304 0
M  V30 4327 C 411.345 1.55818 0.682262 0
M  V30 4328 O 412.53 1.84052 0.619566 0
M  V30 4329 C 409.66 3.40048 0.706007 0
M  V30 4330 C 408.614 4.27973 -0.0483144 0
M  V30 4331 C 407.94 5.26184 0.950491 0
M  V30 4332 C 409.24 5.07665 -1.22776 0
M  V30 4333 H 410.934 2.83217 -0.971002 0
M  V30 4334 H 408.48 1.3617 -0.468377 0
M  V30 4335 H 410.433 4.05827 1.13501 0
M  V30 4336 H 409.157 2.88214 1.53623 0
M  V30 4337 H 407.816 3.63726 -0.458107 0
M  V30 4338 H 407.464 4.7063 1.77529 0
M  V30 4339 H 407.164 5.85872 0.450314 0
M  V30 4340 H 408.688 5.94838 1.37842 0
M  V30 4341 H 410.102 5.66578 -0.875366 0
M  V30 4342 H 408.499 5.76681 -1.66007 0
M  V30 4343 H 409.569 4.40294 -2.03149 0
M  V30 4344 N 410.912 0.523116 1.48665 0
M  V30 4345 C 411.844 -0.280421 2.27478 0
M  V30 4346 C 412.857 -0.910694 1.34945 0
M  V30 4347 O 414.046 -0.790295 1.60052 0
M  V30 4348 C 411.146 -1.41171 3.08097 0
M  V30 4349 C 410.319 -0.884642 4.28361 0
M  V30 4350 C 409.378 -1.89622 4.90846 0
M  V30 4351 O 408.404 -1.4559 5.50265 0
M  V30 4352 N 409.606 -3.22801 4.82472 0
M  V30 4353 H 412.371 0.395481 2.97079 0
M  V30 4354 H 409.932 0.357018 1.57915 0
M  V30 4355 H 411.924 -2.08645 3.4677 0
M  V30 4356 H 410.494 -1.99139 2.40961 0
M  V30 4357 H 409.714 -0.0341177 3.94185 0
M  V30 4358 H 411.002 -0.511268 5.06225 0
M  V30 4359 H 410.4 -3.61246 4.35336 0
M  V30 4360 H 408.957 -3.85927 5.25265 0
M  V30 4361 N 412.39 -1.55475 0.257931 0
M  V30 4362 C 413.3 -2.2549 -0.647425 0
M  V30 4363 C 414.316 -1.2748 -1.18427 0
M  V30 4364 O 415.492 -1.6038 -1.2182 0
M  V30 4365 C 412.557 -2.94916 -1.82278 0
M  V30 4366 C 411.618 -4.08363 -1.32432 0
M  V30 4367 C 410.851 -4.74469 -2.44366 0
M  V30 4368 O 411.074 -4.39701 -3.63344 0
M  V30 4369 O 410.008 -5.62763 -2.13497 0
M  V30 4370 H 413.834 -3.03593 -0.0807707 0
M  V30 4371 H 411.419 -1.49377 0.0259962 0
M  V30 4372 H 413.301 -3.38606 -2.50846 0
M  V30 4373 H 411.976 -2.19744 -2.37685 0
M  V30 4374 H 410.883 -3.69166 -0.605605 0
M  V30 4375 H 412.216 -4.85385 -0.816211 0
M  V30 4376 N 413.868 0.0150385 -1.57593 0
M  V30 4377 C 415.116 0.701613 -1.8953 0
M  V30 4378 C 415.437 1.75139 -0.857396 0
M  V30 4379 O 414.707 1.95607 0.107194 0
M  V30 4380 H 413.287 0.26213 -0.699498 0
M  V30 4381 H 415.949 -0.0223304 -1.94887 0
M  V30 4382 H 415.045 1.18236 -2.88837 0
M  V30 4383 N 415.346 1.54954 0.287554 0
M  V30 4384 C 416.595 1.74081 1.01877 0
M  V30 4385 C 416.908 0.541135 1.87966 0
M  V30 4386 O 418.114 0.614491 2.64455 0
M  V30 4387 C 416.57 3.08042 1.86113 0
M  V30 4388 C 416.178 4.35531 1.04961 0
M  V30 4389 C 417.922 3.36523 2.58752 0
M  V30 4390 C 415.829 5.60538 1.88551 0
M  V30 4391 H 414.759 0.64884 0.384087 0
M  V30 4392 H 417.41 1.81426 0.275101 0
M  V30 4393 H 415.792 2.94696 2.64519 0
M  V30 4394 H 416.966 4.59751 0.31074 0
M  V30 4395 H 415.281 4.14085 0.43843 0
M  V30 4396 H 417.878 4.27122 3.21668 0
M  V30 4397 H 418.221 2.56 3.28283 0
M  V30 4398 H 418.754 3.50901 1.87386 0
M  V30 4399 H 415.493 6.43767 1.23466 0
M  V30 4400 H 415.013 5.40483 2.60074 0
M  V30 4401 H 416.692 5.98297 2.46273 0
M  V30 4402 N 416.824 -0.551391 1.4764 0
M  V30 4403 C 417.787 -1.64007 1.60107 0
M  V30 4404 C 418.787 -1.53601 0.47576 0
M  V30 4405 O 419.977 -1.57655 0.740988 0
M  V30 4406 C 417.109 -3.03569 1.55108 0
M  V30 4407 H 418.302 -1.543 2.57161 0
M  V30 4408 H 415.855 -0.771776 1.35917 0
M  V30 4409 H 416.59 -3.18804 0.594519 0
M  V30 4410 H 416.375 -3.12532 2.36783 0
M  V30 4411 H 417.865 -3.82762 1.66982 0
M  V30 4412 N 418.302 -1.35869 -0.798587 0
M  V30 4413 C 419.55 -1.29332 -1.55298 0
M  V30 4414 C 419.871 0.129729 -1.94568 0
M  V30 4415 O 419.141 1.06796 -1.6423 0
M  V30 4416 H 417.721 -0.475737 -0.57592 0
M  V30 4417 H 420.383 -1.70062 -0.952093 0
M  V30 4418 H 419.479 -1.91458 -2.46476 0
M  V30 4419 N 419.78 1.02168 -1.19998 0
M  V30 4420 C 421.057 1.72816 -0.916191 0
M  V30 4421 C 421.437 2.03081 0.576325 0
M  V30 4422 O 420.785 1.69122 1.53656 0
M  V30 4423 C 420.995 2.9997 -1.78378 0
M  V30 4424 C 422.343 3.73336 -2.02251 0
M  V30 4425 O 423.367 3.09914 -1.75589 0
M  V30 4426 O 422.226 4.87371 -2.47249 0
M  V30 4427 H 419.32 0.752924 -0.342103 0
M  V30 4428 H 421.866 1.08062 -1.30846 0
M  V30 4429 H 420.638 2.73888 -2.79466 0
M  V30 4430 H 420.261 3.72464 -1.39126 0
M  V30 4431 N 421.258 1.00505 1.21394 0
M  V30 4432 C 422.206 0.558623 2.25792 0
M  V30 4433 C 423.2 -0.396848 1.64686 0
M  V30 4434 O 424.406 -0.268035 1.77993 0
M  V30 4435 H 420.781 0.1623 0.734277 0
M  V30 4436 H 422.752 1.4503 2.60785 0
M  V30 4437 C 421.501 -0.0989574 3.47559 0
M  V30 4438 H 420.824 0.627225 3.94849 0
M  V30 4439 H 422.264 -0.3746 4.22342 0
M  V30 4440 C 420.723 -1.33817 3.09184 0
M  V30 4441 O 421.253 -2.43252 3.19674 0
M  V30 4442 N 419.459 -1.21793 2.63846 0
M  V30 4443 H 419.006 -0.32746 2.5551 0
M  V30 4444 H 418.964 -2.04809 2.38539 0
M  V30 4445 N 422.737 -1.36956 0.779787 0
M  V30 4446 C 423.983 -1.99787 0.348281 0
M  V30 4447 C 424.316 -1.61756 -1.07465 0
M  V30 4448 O 423.591 -0.867639 -1.74075 0
M  V30 4449 C 423.874 -3.56597 0.50104 0
M  V30 4450 C 423.727 -4.04513 1.96697 0
M  V30 4451 C 425.046 -4.40008 -0.0898097 0
M  V30 4452 H 422.165 -0.725796 0.128022 0
M  V30 4453 H 424.807 -1.62514 0.984331 0
M  V30 4454 H 422.957 -3.88479 -0.0404347 0
M  V30 4455 H 424.629 -3.83161 2.56876 0
M  V30 4456 H 422.872 -3.56408 2.47297 0
M  V30 4457 H 423.543 -5.1352 2.02486 0
M  V30 4458 H 426.019 -4.14431 0.372293 0
M  V30 4459 H 424.895 -5.4888 0.0471605 0
M  V30 4460 H 425.156 -4.26035 -1.18096 0
M  V30 4461 N 424.215 -0.530993 -1.48385 0
M  V30 4462 C 425.463 0.00273189 -2.021 0
M  V30 4463 C 425.784 1.34672 -1.41027 0
M  V30 4464 O 425.054 1.8724 -0.576012 0
M  V30 4465 H 423.634 0.00399774 -0.746989 0
M  V30 4466 H 426.296 -0.695054 -1.82085 0
M  V30 4467 H 425.392 0.11031 -3.11905 0
M  V30 4468 N 425.693 1.55336 -0.266172 0
M  V30 4469 C 426.939 1.99692 0.353681 0
M  V30 4470 C 427.272 1.1543 1.56172 0
M  V30 4471 O 426.547 0.222218 1.93226 0
M  V30 4472 C 426.83 3.52316 0.74466 0
M  V30 4473 C 426.683 4.47337 -0.470101 0
M  V30 4474 C 428.002 4.10588 1.58447 0
M  V30 4475 H 425.121 0.725961 0.12708 0
M  V30 4476 H 427.763 1.86336 -0.371333 0
M  V30 4477 H 425.913 3.63829 1.36239 0
M  V30 4478 H 427.585 4.4778 -1.10864 0
M  V30 4479 H 425.828 4.19364 -1.10978 0
M  V30 4480 H 426.499 5.51788 -0.15291 0
M  V30 4481 H 428.975 4.02297 1.06286 0
M  V30 4482 H 427.851 5.17607 1.82686 0
M  V30 4483 H 428.112 3.60253 2.56262 0
M  V30 4484 N 427.171 -0.0066808 1.57599 0
M  V30 4485 C 428.101 -0.999296 2.11036 0
M  V30 4486 C 429.082 -1.36278 1.01795 0
M  V30 4487 O 430.267 -1.4477 1.29442 0
M  V30 4488 C 427.397 -2.29328 2.60818 0
M  V30 4489 C 426.351 -2.07159 3.74525 0
M  V30 4490 C 425.677 -3.42512 4.10596 0
M  V30 4491 C 426.977 -1.43959 5.02069 0
M  V30 4492 H 428.671 -0.554382 2.94223 0
M  V30 4493 H 426.217 -0.265221 1.41536 0
M  V30 4494 H 428.17 -2.99117 2.96828 0
M  V30 4495 H 426.894 -2.7592 1.74745 0
M  V30 4496 H 425.553 -1.39797 3.38899 0
M  V30 4497 H 425.201 -3.86795 3.21556 0
M  V30 4498 H 424.901 -3.28498 4.87199 0
M  V30 4499 H 426.425 -4.13628 4.4916 0
M  V30 4500 H 427.839 -2.03696 5.35893 0
M  V30 4501 H 426.236 -1.40452 5.83432 0
M  V30 4502 H 427.306 -0.407992 4.83181 0
M  V30 4503 N 428.649 -1.55105 -0.279332 0
M  V30 4504 C 429.579 -1.90557 -1.34945 0
M  V30 4505 C 430.56 -0.766738 -1.51839 0
M  V30 4506 O 431.745 -1.02434 -1.64988 0
M  V30 4507 C 428.875 -2.17193 -2.71006 0
M  V30 4508 C 427.829 -3.33021 -2.68851 0
M  V30 4509 C 427.155 -3.45123 -4.08405 0
M  V30 4510 C 428.455 -4.69578 -2.28678 0
M  V30 4511 H 430.149 -2.80188 -1.05522 0
M  V30 4512 H 427.695 -1.34811 -0.506173 0
M  V30 4513 H 429.648 -2.40581 -3.45975 0
M  V30 4514 H 428.372 -1.24355 -3.01999 0
M  V30 4515 H 427.031 -3.0959 -1.9634 0
M  V30 4516 H 426.679 -2.49762 -4.3661 0
M  V30 4517 H 426.379 -4.22995 -4.07859 0
M  V30 4518 H 427.903 -3.70796 -4.85121 0
M  V30 4519 H 429.317 -4.92553 -2.93368 0
M  V30 4520 H 427.714 -5.5032 -2.39306 0
M  V30 4521 H 428.784 -4.68828 -1.23807 0
M  V30 4522 N 430.127 0.543554 -1.4793 0
M  V30 4523 C 431.543 0.870806 -1.3375 0
M  V30 4524 C 431.743 1.9864 -0.338261 0
M  V30 4525 O 430.799 2.51305 0.245371 0
M  V30 4526 C 432.112 1.25114 -2.73435 0
M  V30 4527 C 433.66 1.3618 -2.81823 0
M  V30 4528 C 434.135 1.77563 -4.22179 0
M  V30 4529 N 435.626 1.8469 -4.24787 0
M  V30 4530 C 436.361 2.18067 -5.30315 0
M  V30 4531 N 435.857 2.49963 -6.46135 0
M  V30 4532 N 437.65 2.18958 -5.17701 0
M  V30 4533 H 429.801 -0.19275 -2.11524 0
M  V30 4534 H 432.064 -0.0235777 -0.947707 0
M  V30 4535 H 431.77 0.50514 -3.48053 0
M  V30 4536 H 431.644 2.20431 -3.06088 0
M  V30 4537 H 434.031 2.09859 -2.07468 0
M  V30 4538 H 434.112 0.390169 -2.52807 0
M  V30 4539 H 433.756 1.04449 -4.97044 0
M  V30 4540 H 433.686 2.75753 -4.48629 0
M  V30 4541 H 436.177 1.62372 -3.41239 0
M  V30 4542 H 436.49 2.74497 -7.22406 0
M  V30 4543 H 434.835 2.47513 -6.49432 0
M  V30 4544 H 438.026 1.93488 -4.2624 0
M  V30 4545 H 438.199 2.44639 -6.00047 0
M  V30 4546 N 431.605 1.3629 0.791371 0
M  V30 4547 C 432.853 1.30154 1.5461 0
M  V30 4548 C 433.174 -0.119409 1.94634 0
M  V30 4549 O 432.444 -1.05924 1.64794 0
M  V30 4550 H 431.024 0.478784 0.573389 0
M  V30 4551 H 433.686 1.70565 0.94306 0
M  V30 4552 H 432.782 1.92762 2.45457 0
M  V30 4553 N 433.083 -1.0153 1.20538 0
M  V30 4554 C 434.329 -1.75408 1.01783 0
M  V30 4555 C 434.662 -1.88943 -0.448814 0
M  V30 4556 O 433.937 -1.4162 -1.33319 0
M  V30 4557 C 434.22 -3.17255 1.70356 0
M  V30 4558 C 434.073 -3.11508 3.24473 0
M  V30 4559 C 435.392 -4.15955 1.43769 0
M  V30 4560 H 432.511 -0.636713 0.371167 0
M  V30 4561 H 435.153 -1.18436 1.4857 0
M  V30 4562 H 433.303 -3.65898 1.30578 0
M  V30 4563 H 434.975 -2.70658 3.73553 0
M  V30 4564 H 433.218 -2.4887 3.55311 0
M  V30 4565 H 433.889 -4.11784 3.67611 0
M  V30 4566 H 436.365 -3.75973 1.7828 0
M  V30 4567 H 435.241 -5.13368 1.94279 0
M  V30 4568 H 435.502 -4.40586 0.365564 0
M  V30 4569 N 434.561 -1.01147 -1.20859 0
M  V30 4570 C 435.786 -0.716698 -1.94623 0
M  V30 4571 C 436.211 0.715415 -1.73964 0
M  V30 4572 O 435.569 1.49157 -1.03062 0
M  V30 4573 C 435.617 -1.0513 -3.44935 0
M  V30 4574 O 434.721 -0.160131 -4.12089 0
M  V30 4575 H 434.062 -0.266404 -0.608214 0
M  V30 4576 H 436.592 -1.35346 -1.53436 0
M  V30 4577 H 436.602 -1.00086 -3.95533 0
M  V30 4578 H 435.277 -2.09475 -3.59295 0
M  V30 4579 H 433.854 -0.267657 -3.71938 0
M  V30 4580 N 436.039 1.36541 -0.78704 0
M  V30 4581 C 437.455 1.52571 -0.46844 0
M  V30 4582 C 437.655 1.7415 1.01361 0
M  V30 4583 O 436.711 1.77163 1.79915 0
M  V30 4584 C 438.024 2.71299 -1.29682 0
M  V30 4585 C 439.572 2.85169 -1.29027 0
M  V30 4586 C 440.047 4.06898 -2.10233 0
M  V30 4587 N 441.538 4.1404 -2.07666 0
M  V30 4588 C 442.273 5.07301 -2.67271 0
M  V30 4589 N 441.769 6.06021 -3.35724 0
M  V30 4590 N 443.562 4.99898 -2.57018 0
M  V30 4591 H 435.713 1.20788 -1.74711 0
M  V30 4592 H 437.976 0.589364 -0.742532 0
M  V30 4593 H 437.682 2.61868 -2.34773 0
M  V30 4594 H 437.556 3.6539 -0.936479 0
M  V30 4595 H 439.943 2.94062 -0.247284 0
M  V30 4596 H 440.024 1.91992 -1.69035 0
M  V30 4597 H 439.668 3.98766 -3.1456 0
M  V30 4598 H 439.598 4.99218 -1.67597 0
M  V30 4599 H 442.089 3.43357 -1.57843 0
M  V30 4600 H 442.402 6.73741 -3.78541 0
M  V30 4601 H 440.747 6.06253 -3.39826 0
M  V30 4602 H 443.938 4.21724 -2.03142 0
M  V30 4603 H 444.111 5.72392 -3.03761 0
M  V30 4604 N 437.518 0.538854 1.48102 0
M  V30 4605 C 438.428 -0.222648 2.33541 0
M  V30 4606 C 439.444 -0.930225 1.47047 0
M  V30 4607 O 440.62 -0.903211 1.80011 0
M  V30 4608 C 437.685 -1.25064 3.23357 0
M  V30 4609 C 436.746 -0.552469 4.2573 0
M  V30 4610 C 435.979 -1.53149 5.11254 0
M  V30 4611 O 436.202 -2.76487 4.9891 0
M  V30 4612 O 435.136 -1.06602 5.92385 0
M  V30 4613 H 438.962 0.477707 2.99919 0
M  V30 4614 H 436.547 0.299669 1.46364 0
M  V30 4615 H 438.429 -1.8445 3.78888 0
M  V30 4616 H 437.104 -1.93325 2.59629 0
M  V30 4617 H 436.011 0.082114 3.7401 0
M  V30 4618 H 437.344 0.0883526 4.92121 0
M  V30 4619 N 438.996 -1.55193 0.274407 0
M  V30 4620 C 439.906 -2.26164 -0.623473 0
M  V30 4621 C 440.922 -1.28729 -1.17068 0
M  V30 4622 O 442.098 -1.61663 -1.20112 0
M  V30 4623 C 439.163 -2.96833 -1.7914 0
M  V30 4624 C 438.224 -4.09745 -1.28093 0
M  V30 4625 C 437.457 -4.77034 -2.3932 0
M  V30 4626 O 437.68 -4.4353 -3.5866 0
M  V30 4627 O 436.614 -5.64996 -2.07516 0
M  V30 4628 H 440.44 -3.03661 -0.0485661 0
M  V30 4629 H 438.025 -1.49341 0.0418382 0
M  V30 4630 H 439.907 -3.41248 -2.4724 0
M  V30 4631 H 438.582 -2.22253 -2.35341 0
M  V30 4632 H 437.489 -3.69787 -0.566416 0
M  V30 4633 H 438.822 -4.86224 -0.764683 0
M  V30 4634 N 440.474 -0.00167713 -1.576 0
M  V30 4635 C 441.72 0.683832 -1.90923 0
M  V30 4636 C 442.053 1.7333 -0.875799 0
M  V30 4637 O 441.328 1.94215 0.10525 0
M  V30 4638 C 441.611 1.32543 -3.3482 0
M  V30 4639 C 441.464 0.287387 -4.48881 0
M  V30 4640 C 442.783 2.25114 -3.78169 0
M  V30 4641 H 439.902 0.247125 -0.694333 0
M  V30 4642 H 442.544 -0.0533149 -1.89925 0
M  V30 4643 H 440.694 1.95372 -3.35801 0
M  V30 4644 H 442.366 -0.341346 -4.60035 0
M  V30 4645 H 440.609 -0.39017 -4.32042 0
M  V30 4646 H 441.28 0.775393 -5.46527 0
M  V30 4647 H 443.756 1.723 -3.7875 0
M  V30 4648 H 442.632 2.66971 -4.79602 0
M  V30 4649 H 442.893 3.13092 -3.12131 0
M  V30 4650 N 441.952 1.55251 0.271103 0
M  V30 4651 C 442.862 1.9136 1.35714 0
M  V30 4652 C 443.878 0.811075 1.5394 0
M  V30 4653 O 445.054 1.11031 1.6803 0
M  V30 4654 C 442.119 2.1798 2.69603 0
M  V30 4655 C 441.18 3.4153 2.60107 0
M  V30 4656 C 440.413 3.66871 3.8761 0
M  V30 4657 O 440.636 2.94689 4.8838 0
M  V30 4658 O 439.57 4.60405 3.87699 0
M  V30 4659 H 443.396 2.83815 1.08088 0
M  V30 4660 H 440.981 1.41821 0.469792 0
M  V30 4661 H 442.863 2.36518 3.48765 0
M  V30 4662 H 441.538 1.28708 2.97012 0
M  V30 4663 H 440.445 3.28325 1.79314 0
M  V30 4664 H 441.778 4.31027 2.37647 0
M  V30 4665 N 443.43 -0.535701 1.48216 0
M  V30 4666 C 444.846 -0.863701 1.3421 0
M  V30 4667 C 445.046 -1.98458 0.34879 0
M  V30 4668 O 444.102 -2.51432 -0.23204 0
M  V30 4669 C 445.415 -1.23662 2.74095 0
M  V30 4670 C 446.963 -1.34683 2.82541 0
M  V30 4671 C 447.438 -1.75322 4.23115 0
M  V30 4672 N 448.929 -1.82434 4.2576 0
M  V30 4673 C 449.664 -2.15252 5.31464 0
M  V30 4674 N 449.16 -2.46533 6.47452 0
M  V30 4675 N 450.953 -2.16209 5.18855 0
M  V30 4676 H 443.104 0.203965 2.11418 0
M  V30 4677 H 445.367 0.0286033 0.947568 0
M  V30 4678 H 445.073 -0.486674 3.48316 0
M  V30 4679 H 444.947 -2.18805 3.07253 0
M  V30 4680 H 447.334 -2.08756 2.08579 0
M  V30 4681 H 447.415 -0.376756 2.5301 0
M  V30 4682 H 447.059 -1.01812 4.97591 0
M  V30 4683 H 446.989 -2.7337 4.50085 0
M  V30 4684 H 449.48 -1.6056 3.42095 0
M  V30 4685 H 449.793 -2.70662 7.23852 0
M  V30 4686 H 448.138 -2.44065 6.50736 0
M  V30 4687 H 451.329 -1.91224 4.2726 0
M  V30 4688 H 451.502 -2.41453 6.01335 0
M  V30 4689 N 444.908 -1.36708 -0.784132 0
M  V30 4690 C 446.156 -1.30972 -1.53918 0
M  V30 4691 C 446.477 0.109086 -1.94695 0
M  V30 4692 O 445.747 1.05048 -1.65353 0
M  V30 4693 H 444.327 -0.481819 -0.570841 0
M  V30 4694 H 446.989 -1.71063 -0.934002 0
M  V30 4695 H 446.085 -1.94061 -2.44431 0
M  V30 4696 N 446.386 1.0089 -1.21074 0
M  V30 4697 C 447.318 2.09737 -0.924291 0
M  V30 4698 C 448.331 1.62546 0.0909809 0
M  V30 4699 O 449.52 1.77942 -0.141021 0
M  V30 4700 C 446.62 3.36922 -0.36559 0
M  V30 4701 C 445.793 4.13216 -1.43426 0
M  V30 4702 C 444.852 5.18696 -0.885496 0
M  V30 4703 O 443.878 5.47176 -1.56801 0
M  V30 4704 N 445.08 5.79718 0.301227 0
M  V30 4705 H 447.845 2.34895 -1.8613 0
M  V30 4706 H 445.406 1.17341 -1.11546 0
M  V30 4707 H 447.398 4.04697 0.0158407 0
M  V30 4708 H 445.968 3.08952 0.476149 0
M  V30 4709 H 445.188 3.40301 -1.9897 0
M  V30 4710 H 446.476 4.60967 -2.15376 0
M  V30 4711 H 445.874 5.58926 0.872849 0
M  V30 4712 H 444.431 6.48804 0.624211 0
M  V30 4713 N 447.864 1.01787 1.20321 0
M  V30 4714 C 449.11 0.708985 1.90003 0
M  V30 4715 C 449.443 -0.759572 1.78729 0
M  V30 4716 O 448.718 -1.55198 1.17234 0
M  V30 4717 C 449.001 1.1469 3.41348 0
M  V30 4718 C 448.854 2.67586 3.61549 0
M  V30 4719 C 450.173 0.71915 4.34185 0
M  V30 4720 H 447.292 0.259034 0.689978 0
M  V30 4721 H 449.934 1.26584 1.41692 0
M  V30 4722 H 448.084 0.673128 3.82624 0
M  V30 4723 H 449.756 3.22826 3.29517 0
M  V30 4724 H 447.999 3.085 3.04976 0
M  V30 4725 H 448.67 2.93281 4.67643 0
M  V30 4726 H 451.146 1.12647 4.00562 0
M  V30 4727 H 450.022 1.05358 5.38694 0
M  V30 4728 H 450.283 -0.379111 4.40472 0
M  V30 4729 N 449.342 -1.36122 0.79427 0
M  V30 4730 C 450.272 -2.32551 0.210328 0
M  V30 4731 C 451.253 -1.56884 -0.657386 0
M  V30 4732 O 452.438 -1.85014 -0.590207 0
M  V30 4733 C 449.568 -3.41128 -0.651819 0
M  V30 4734 C 448.522 -4.27842 0.116395 0
M  V30 4735 C 447.848 -5.2763 -0.86666 0
M  V30 4736 C 449.148 -5.05647 1.30837 0
M  V30 4737 H 450.842 -2.81636 1.01594 0
M  V30 4738 H 448.388 -1.35407 0.489981 0
M  V30 4739 H 450.341 -4.07581 -1.07031 0
M  V30 4740 H 449.065 -2.90622 -1.49019 0
M  V30 4741 H 447.724 -3.62952 0.515915 0
M  V30 4742 H 447.372 -4.73395 -1.70019 0
M  V30 4743 H 447.072 -5.86514 -0.35705 0
M  V30 4744 H 448.596 -5.96955 -1.28361 0
M  V30 4745 H 450.01 -5.65113 0.965393 0
M  V30 4746 H 448.407 -5.73967 1.75161 0
M  V30 4747 H 449.477 -4.37006 2.10128 0
M  V30 4748 N 450.82 -0.546701 -1.47814 0
M  V30 4749 C 451.783 0.196287 -2.28358 0
M  V30 4750 C 452.783 0.852437 -1.36346 0
M  V30 4751 O 453.973 0.709913 -1.59078 0
M  V30 4752 C 451.105 1.28579 -3.15722 0
M  V30 4753 H 452.298 -0.511086 -2.95513 0
M  V30 4754 H 449.851 -0.303248 -1.5333 0
M  V30 4755 H 450.586 2.0259 -2.53235 0
M  V30 4756 H 450.371 0.820229 -3.83425 0
M  V30 4757 H 451.861 1.80793 -3.76435 0
M  V30 4758 N 452.299 1.55045 -0.282633 0
M  V30 4759 C 453.246 2.22822 0.601566 0
M  V30 4760 C 454.216 1.20431 1.14392 0
M  V30 4761 O 455.401 1.48996 1.19184 0
M  V30 4762 C 452.541 2.95873 1.77632 0
M  V30 4763 C 451.654 4.12999 1.26711 0
M  V30 4764 C 450.789 4.73676 2.40426 0
M  V30 4765 C 449.828 5.82981 1.86545 0
M  V30 4766 N 448.965 6.3769 2.93762 0
M  V30 4767 H 453.805 2.97995 0.0169528 0
M  V30 4768 H 451.342 1.471 -0.00339964 0
M  V30 4769 H 453.3 3.36447 2.46697 0
M  V30 4770 H 451.93 2.2311 2.33285 0
M  V30 4771 H 450.982 3.77494 0.469314 0
M  V30 4772 H 452.294 4.91803 0.832518 0
M  V30 4773 H 451.448 5.17008 3.17471 0
M  V30 4774 H 450.187 3.94164 2.87203 0
M  V30 4775 H 449.192 5.39092 1.07983 0
M  V30 4776 H 450.417 6.64366 1.40694 0
M  V30 4777 H 448.363 5.61069 3.39908 0
M  V30 4778 H 448.28 7.11788 2.54744 0
M  V30 4779 H 449.548 6.8568 3.7076 0
M  V30 4780 N 453.777 0.010035 1.57597 0
M  V30 4781 C 455.188 -0.531426 1.78977 0
M  V30 4782 C 455.539 -1.73375 0.918454 0
M  V30 4783 O 454.664 -2.16047 0.123635 0
M  V30 4784 C 455.259 -0.97086 3.24592 0
M  V30 4785 C 453.818 -1.45756 3.47033 0
M  V30 4786 C 452.965 -0.413384 2.74201 0
M  V30 4787 H 455.916 0.236166 1.56933 0
M  V30 4788 H 455.937 -1.83633 3.33255 0
M  V30 4789 H 455.449 -0.0955893 3.87982 0
M  V30 4790 H 453.55 -2.35339 2.88871 0
M  V30 4791 H 453.663 -1.4781 4.55729 0
M  V30 4792 H 452.027 -0.877266 2.39115 0
M  V30 4793 H 452.81 0.453092 3.40297 0
M  V30 4794 N 455.255 -1.55392 -0.262866 0
M  V30 4795 C 456.503 -1.76127 -0.991147 0
M  V30 4796 C 456.824 -0.571083 -1.8645 0
M  V30 4797 O 456.094 0.413698 -1.91482 0
M  V30 4798 H 454.674 -0.649528 -0.368948 0
M  V30 4799 H 457.336 -1.9281 -0.284655 0
M  V30 4800 H 456.432 -2.6663 -1.62219 0
M  V30 4801 N 456.733 0.527833 -1.48498 0
M  V30 4802 C 457.958 1.313 -1.60546 0
M  V30 4803 C 458.383 1.86199 -0.26672 0
M  V30 4804 O 457.741 1.64513 0.761918 0
M  V30 4805 C 457.789 2.43818 -2.65678 0
M  V30 4806 O 456.893 3.46916 -2.22987 0
M  V30 4807 H 456.234 0.388784 -0.538277 0
M  V30 4808 H 458.764 0.634896 -1.945 0
M  V30 4809 H 458.774 2.89973 -2.87018 0
M  V30 4810 H 457.449 2.03222 -3.62869 0
M  V30 4811 H 456.026 3.06864 -2.11869 0
M  V30 4812 N 458.211 1.37122 0.776871 0
M  V30 4813 C 459.46 1.31373 1.53049 0
M  V30 4814 C 459.773 -0.101016 1.95339 0
M  V30 4815 O 460.979 -0.280953 2.70042 0
M  V30 4816 C 459.435 2.30567 2.76346 0
M  V30 4817 C 459.043 3.77543 2.41175 0
M  V30 4818 C 460.787 2.33818 3.54301 0
M  V30 4819 C 458.694 4.68481 3.60943 0
M  V30 4820 H 457.624 0.488234 0.574581 0
M  V30 4821 H 460.275 1.62554 0.851372 0
M  V30 4822 H 458.657 1.92396 3.46121 0
M  V30 4823 H 459.831 4.24521 1.79216 0
M  V30 4824 H 458.146 3.77187 1.76405 0
M  V30 4825 H 460.743 2.98965 4.4331 0
M  V30 4826 H 461.086 1.3503 3.93793 0
M  V30 4827 H 461.619 2.7067 2.91518 0
M  V30 4828 H 458.358 5.68378 3.26537 0
M  V30 4829 H 457.878 4.2621 4.22025 0
M  V30 4830 H 459.557 4.85366 4.27819 0
M  V30 4831 N 459.689 -1.00246 1.21608 0
M  V30 4832 C 460.917 -1.77631 1.06089 0
M  V30 4833 C 461.332 -1.84746 -0.38916 0
M  V30 4834 O 460.689 -1.31068 -1.26994 0
M  V30 4835 C 460.74 -3.21415 1.65453 0
M  V30 4836 O 460.461 -3.14703 3.04785 0
M  V30 4837 C 461.962 -4.15289 1.55079 0
M  V30 4838 H 459.182 -0.558162 0.37242 0
M  V30 4839 H 461.726 -1.26093 1.60999 0
M  V30 4840 H 459.881 -3.70053 1.14629 0
M  V30 4841 H 460.295 -4.05056 3.33212 0
M  V30 4842 H 461.769 -5.13965 2.01355 0
M  V30 4843 H 462.246 -4.36279 0.505665 0
M  V30 4844 H 462.852 -3.72543 2.05163 0
M  V30 4845 N 461.167 -1.02423 -1.1978 0
M  V30 4846 C 462.578 -0.748389 -1.71044 0
M  V30 4847 C 462.929 0.732398 -1.82017 0
M  V30 4848 O 462.054 1.57116 -1.48807 0
M  V30 4849 C 462.649 -1.35187 -3.1066 0
M  V30 4850 C 461.208 -1.12472 -3.59203 0
M  V30 4851 C 460.355 -1.45283 -2.36195 0
M  V30 4852 H 463.306 -1.19275 -1.04686 0
M  V30 4853 H 463.327 -0.746408 -3.73107 0
M  V30 4854 H 462.839 -2.4296 -3.02642 0
M  V30 4855 H 460.94 -0.0649983 -3.72543 0
M  V30 4856 H 461.053 -1.81016 -4.43588 0
M  V30 4857 H 459.417 -0.872034 -2.39307 0
M  V30 4858 H 460.2 -2.54129 -2.30811 0
M  V30 4859 N 462.645 1.35699 -0.801477 0
M  V30 4860 C 463.595 2.2728 -0.181073 0
M  V30 4861 C 464.579 1.47533 0.642098 0
M  V30 4862 O 465.771 1.69785 0.500193 0
M  V30 4863 C 462.9 3.36626 0.673612 0
M  V30 4864 C 461.986 4.23802 -0.159008 0
M  V30 4865 N 462.377 4.90879 -1.2195 0
M  V30 4866 C 460.675 4.45959 0.0602005 0
M  V30 4867 C 461.376 5.5546 -1.72738 0
M  V30 4868 N 460.352 5.33663 -1.03465 0
M  V30 4869 H 464.154 2.76632 -0.992582 0
M  V30 4870 H 461.668 1.49166 -0.642127 0
M  V30 4871 H 463.665 4.01179 1.13408 0
M  V30 4872 H 462.325 2.88828 1.48353 0
M  V30 4873 H 463.336 4.92497 -1.60209 0
M  V30 4874 H 460.013 4.08969 0.839664 0
M  V30 4875 H 461.403 6.18991 -2.61342 0
M  V30 4876 N 464.123 0.554532 1.47522 0
M  V30 4877 C 465.351 0.034257 2.06872 0
M  V30 4878 C 465.766 -1.25826 1.40759 0
M  V30 4879 O 465.123 -1.75425 0.503217 0
M  V30 4880 C 465.174 -0.167827 3.6111 0
M  V30 4881 O 464.895 1.07351 4.24744 0
M  V30 4882 C 466.396 -0.72569 4.3732 0
M  V30 4883 H 463.616 0.0446275 0.669514 0
M  V30 4884 H 466.16 0.767181 1.89564 0
M  V30 4885 H 464.315 -0.850872 3.7794 0
M  V30 4886 H 464.729 0.869563 5.17242 0
M  V30 4887 H 466.203 -0.816394 5.45929 0
M  V30 4888 H 466.68 -1.73635 4.0342 0
M  V30 4889 H 467.286 -0.0784292 4.25228 0
M  V30 4890 N 465.601 -1.54893 0.290851 0
M  V30 4891 C 466.548 -2.23138 -0.58974 0
M  V30 4892 C 467.518 -1.21036 -1.13752 0
M  V30 4893 O 468.703 -1.49626 -1.18392 0
M  V30 4894 C 465.843 -2.96811 -1.76061 0
M  V30 4895 C 464.956 -4.13665 -1.24519 0
M  V30 4896 C 464.091 -4.74944 -2.3791 0
M  V30 4897 C 463.13 -5.83963 -1.83451 0
M  V30 4898 N 462.267 -6.39239 -2.90376 0
M  V30 4899 H 467.107 -2.98 -0.00114915 0
M  V30 4900 H 464.644 -1.47096 0.0112006 0
M  V30 4901 H 466.602 -3.37751 -2.44909 0
M  V30 4902 H 465.232 -2.24344 -2.32098 0
M  V30 4903 H 464.284 -3.77737 -0.449288 0
M  V30 4904 H 465.596 -4.92238 -0.806424 0
M  V30 4905 H 464.75 -5.18684 -3.14724 0
M  V30 4906 H 463.489 -3.95682 -2.85109 0
M  V30 4907 H 462.494 -5.39657 -1.05122 0
M  V30 4908 H 463.719 -6.65103 -1.37169 0
M  V30 4909 H 461.665 -5.62864 -3.36927 0
M  V30 4910 H 461.582 -7.13129 -2.50965 0
M  V30 4911 H 462.85 -6.87637 -3.67118 0
M  V30 4912 N 467.08 -0.0183926 -1.57589 0
M  V30 4913 C 468.327 0.662562 -1.91354 0
M  V30 4914 C 468.655 1.72747 -0.893788 0
M  V30 4915 O 467.91 1.9545 0.0988509 0
M  V30 4916 C 468.209 1.32676 -3.31861 0
M  V30 4917 C 467.875 0.393267 -4.49182 0
M  V30 4918 C 466.537 0.136302 -4.81007 0
M  V30 4919 C 468.889 -0.248366 -5.20608 0
M  V30 4920 C 466.217 -0.770282 -5.81621 0
M  V30 4921 C 468.569 -1.14294 -6.22189 0
M  V30 4922 C 467.233 -1.4089 -6.52462 0
M  V30 4923 H 466.503 0.242448 -0.700214 0
M  V30 4924 H 469.15 -0.0778629 -1.91342 0
M  V30 4925 H 467.455 2.14168 -3.28084 0
M  V30 4926 H 469.152 1.86001 -3.55253 0
M  V30 4927 H 465.742 0.603723 -4.24327 0
M  V30 4928 H 469.926 -0.062883 -4.9626 0
M  V30 4929 H 465.182 -0.984154 -6.03427 0
M  V30 4930 H 469.356 -1.64637 -6.76659 0
M  V30 4931 H 466.983 -2.11306 -7.30242 0
M  V30 4932 N 468.558 1.5553 0.254621 0
M  V30 4933 C 469.468 1.92789 1.33677 0
M  V30 4934 C 470.484 0.827356 1.53071 0
M  V30 4935 O 471.66 1.12807 1.66843 0
M  V30 4936 C 468.725 2.20827 2.67275 0
M  V30 4937 C 467.786 3.4427 2.5647 0
M  V30 4938 C 467.019 3.70961 3.83697 0
M  V30 4939 O 467.242 2.99852 4.85227 0
M  V30 4940 O 466.176 4.64491 3.82794 0
M  V30 4941 H 470.002 2.84945 1.05071 0
M  V30 4942 H 467.587 1.42312 0.454723 0
M  V30 4943 H 469.469 2.40204 3.46237 0
M  V30 4944 H 468.144 1.31851 2.9563 0
M  V30 4945 H 467.051 3.30209 1.75821 0
M  V30 4946 H 468.384 4.33524 2.33062 0
M  V30 4947 N 470.036 -0.519951 1.48776 0
M  V30 4948 C 470.999 -1.60574 1.6355 0
M  V30 4949 C 471.999 -1.52557 0.508234 0
M  V30 4950 O 473.189 -1.56047 0.774262 0
M  V30 4951 C 470.321 -3.00211 1.61512 0
M  V30 4952 H 471.514 -1.4881 2.60376 0
M  V30 4953 H 469.067 -0.742772 1.37523 0
M  V30 4954 H 469.802 -3.17471 0.662009 0
M  V30 4955 H 469.587 -3.07439 2.43359 0
M  V30 4956 H 471.077 -3.79134 1.75064 0
M  V30 4957 N 471.514 -1.37532 -0.769588 0
M  V30 4958 C 472.739 -1.36231 -1.56384 0
M  V30 4959 C 473.164 0.0495849 -1.88035 0
M  V30 4960 O 472.522 1.02723 -1.49391 0
M  V30 4961 C 472.57 -2.20986 -2.84952 0
M  V30 4962 O 471.674 -1.61597 -3.79421 0
M  V30 4963 H 471.015 -0.465387 -0.473615 0
M  V30 4964 H 473.545 -1.81085 -0.952342 0
M  V30 4965 H 473.555 -2.34277 -3.34034 0
M  V30 4966 H 472.23 -3.23612 -2.61243 0
M  V30 4967 H 470.807 -1.57359 -3.38072 0
M  V30 4968 N 472.992 0.995999 -1.22138 0
M  V30 4969 C 474.238 1.73767 -1.04561 0
M  V30 4970 C 474.571 1.89633 0.418698 0
M  V30 4971 O 473.846 1.43723 1.3105 0
M  V30 4972 C 474.129 3.14505 -1.75382 0
M  V30 4973 C 473.982 3.06306 -3.29388 0
M  V30 4974 C 475.301 4.13615 -1.50369 0
M  V30 4975 H 472.42 0.630728 -0.38125 0
M  V30 4976 H 475.062 1.16057 -1.50435 0
M  V30 4977 H 473.212 3.63775 -1.36383 0
M  V30 4978 H 474.884 2.64681 -3.77812 0
M  V30 4979 H 473.127 2.43186 -3.59226 0
M  V30 4980 H 473.798 4.05884 -3.74116 0
M  V30 4981 H 476.274 3.73089 -1.84239 0
M  V30 4982 H 475.15 5.10212 -2.02421 0
M  V30 4983 H 475.411 4.39949 -0.435611 0
M  V30 4984 N 474.47 1.03057 1.19235 0
M  V30 4985 C 475.7 0.746613 1.92638 0
M  V30 4986 C 476.108 -0.698708 1.75826 0
M  V30 4987 O 475.451 -1.487 1.07861 0
M  V30 4988 C 475.513 1.02024 3.44719 0
M  V30 4989 C 475.177 2.45745 3.85303 0
M  V30 4990 C 476.174 3.43887 3.8992 0
M  V30 4991 C 473.859 2.8019 4.16892 0
M  V30 4992 C 475.853 4.74529 4.2556 0
M  V30 4993 C 473.54 4.1104 4.52205 0
M  V30 4994 C 474.538 5.0802 4.56513 0
M  V30 4995 O 474.226 6.36527 4.91008 0
M  V30 4996 H 473.958 0.272401 0.618687 0
M  V30 4997 H 476.512 1.37853 1.52269 0
M  V30 4998 H 474.742 0.331184 3.85279 0
M  V30 4999 H 476.431 0.725677 3.9936 0
M  V30 5000 H 477.197 3.18614 3.65664 0
M  V30 5001 H 473.076 2.05382 4.12722 0
M  V30 5002 H 476.62 5.50222 4.28838 0
M  V30 5003 H 472.517 4.36086 4.7592 0
M  V30 5004 H 473.285 6.41025 5.08949 0
M  V30 5005 N 475.948 -1.35272 0.808662 0
M  V30 5006 C 477.194 -1.99003 0.390581 0
M  V30 5007 C 477.527 -1.63999 -1.0401 0
M  V30 5008 O 476.802 -0.904368 -1.72196 0
M  V30 5009 C 477.085 -3.55454 0.576566 0
M  V30 5010 C 476.938 -4.00249 2.05233 0
M  V30 5011 C 478.257 -4.401 0.00354277 0
M  V30 5012 H 475.376 -0.722917 0.143388 0
M  V30 5013 H 478.018 -1.6039 1.01858 0
M  V30 5014 H 476.168 -3.88477 0.0419766 0
M  V30 5015 H 477.84 -3.77626 2.64946 0
M  V30 5016 H 476.083 -3.51082 2.54801 0
M  V30 5017 H 476.754 -5.0911 2.13333 0
M  V30 5018 H 479.23 -4.13548 0.460117 0
M  V30 5019 H 478.106 -5.48656 0.163575 0
M  V30 5020 H 478.367 -4.28444 -1.09032 0
M  V30 5021 N 477.426 -0.562348 -1.47226 0
M  V30 5022 C 478.356 0.170627 -2.32876 0
M  V30 5023 C 479.337 0.903748 -1.44106 0
M  V30 5024 O 480.522 0.883206 -1.72954 0
M  V30 5025 C 477.652 1.19786 -3.25989 0
M  V30 5026 C 476.606 0.580875 -4.2404 0
M  V30 5027 C 475.932 1.71311 -5.06514 0
M  V30 5028 C 477.232 -0.468714 -5.20193 0
M  V30 5029 H 478.926 -0.544441 -2.94408 0
M  V30 5030 H 476.472 -0.263271 -1.41573 0
M  V30 5031 H 478.425 1.71884 -3.84752 0
M  V30 5032 H 477.149 1.94294 -2.62521 0
M  V30 5033 H 475.808 0.0811538 -3.6651 0
M  V30 5034 H 475.456 2.44736 -4.39447 0
M  V30 5035 H 475.156 1.30604 -5.72902 0
M  V30 5036 H 476.68 2.23725 -5.68137 0
M  V30 5037 H 478.094 -0.0336028 -5.7329 0
M  V30 5038 H 476.491 -0.794957 -5.94811 0
M  V30 5039 H 477.561 -1.36269 -4.65359 0
M  V30 5040 N 478.904 1.54736 -0.299062 0
M  V30 5041 C 479.851 2.23448 0.577899 0
M  V30 5042 C 480.821 1.21637 1.13109 0
M  V30 5043 O 482.006 1.50252 1.17597 0
M  V30 5044 C 479.146 2.9774 1.74484 0
M  V30 5045 C 478.259 4.1432 1.22323 0
M  V30 5046 C 477.394 4.76199 2.35388 0
M  V30 5047 C 476.433 5.84927 1.80351 0
M  V30 5048 N 475.57 6.4077 2.86982 0
M  V30 5049 H 480.41 2.97996 -0.0146545 0
M  V30 5050 H 477.947 1.47088 -0.0190013 0
M  V30 5051 H 479.905 3.39045 2.43114 0
M  V30 5052 H 478.535 2.25572 2.30905 0
M  V30 5053 H 477.587 3.7797 0.429249 0
M  V30 5054 H 478.899 4.92659 0.780309 0
M  V30 5055 H 478.053 5.20346 3.11969 0
M  V30 5056 H 476.792 3.97188 2.83006 0
M  V30 5057 H 475.797 5.40207 1.02259 0
M  V30 5058 H 477.022 6.65821 1.3364 0
M  V30 5059 H 474.968 5.64643 3.33938 0
M  V30 5060 H 474.885 7.1445 2.4718 0
M  V30 5061 H 476.153 6.89574 3.63466 0
M  V30 5062 N 480.382 0.0267497 1.57577 0
M  V30 5063 C 481.329 -0.955894 2.10075 0
M  V30 5064 C 482.299 -1.32453 1.00226 0
M  V30 5065 O 483.484 -1.41826 1.27632 0
M  V30 5066 C 480.624 -2.2338 2.6305 0
M  V30 5067 C 479.737 -1.92183 3.86898 0
M  V30 5068 C 478.872 -3.14251 4.28275 0
M  V30 5069 C 477.911 -2.78862 5.44888 0
M  V30 5070 N 477.048 -3.93548 5.81433 0
M  V30 5071 H 481.888 -0.501303 2.93753 0
M  V30 5072 H 479.425 -0.235847 1.45197 0
M  V30 5073 H 481.383 -2.98124 2.91853 0
M  V30 5074 H 480.013 -2.6646 1.82205 0
M  V30 5075 H 479.065 -1.07692 3.64838 0
M  V30 5076 H 480.377 -1.62117 4.7172 0
M  V30 5077 H 479.531 -3.97317 4.58502 0
M  V30 5078 H 478.27 -3.47476 3.42215 0
M  V30 5079 H 477.275 -1.94208 5.14357 0
M  V30 5080 H 478.5 -2.46855 6.32645 0
M  V30 5081 H 476.446 -4.2662 4.98328 0
M  V30 5082 H 476.363 -3.67098 6.6089 0
M  V30 5083 H 477.631 -4.77325 6.16264 0
M  V30 5084 N 481.861 -1.55662 -0.24637 0
M  V30 5085 C 482.771 -1.93495 -1.32653 0
M  V30 5086 C 483.787 -0.835462 -1.5263 0
M  V30 5087 O 484.963 -1.1369 -1.66242 0
M  V30 5088 C 482.028 -2.22242 -2.66101 0
M  V30 5089 C 481.089 -3.45625 -2.54641 0
M  V30 5090 C 480.322 -3.72991 -3.81724 0
M  V30 5091 O 480.545 -3.02421 -4.8363 0
M  V30 5092 O 479.479 -4.66515 -3.80325 0
M  V30 5093 H 483.305 -2.85498 -1.03559 0
M  V30 5094 H 480.89 -1.42551 -0.44717 0
M  V30 5095 H 482.772 -2.42037 -3.44958 0
M  V30 5096 H 481.447 -1.33417 -2.94926 0
M  V30 5097 H 480.354 -3.31136 -1.74067 0
M  V30 5098 H 481.687 -4.34754 -2.3076 0
M  V30 5099 N 483.339 0.512053 -1.4905 0
M  V30 5100 C 484.249 1.64139 -1.67617 0
M  V30 5101 C 485.265 1.64786 -0.558701 0
M  V30 5102 O 486.441 1.8341 -0.832034 0
M  V30 5103 C 483.506 3.00548 -1.72835 0
M  V30 5104 C 482.567 3.10615 -2.96339 0
M  V30 5105 C 481.8 4.40517 -3.01298 0
M  V30 5106 O 482.023 5.28671 -2.14157 0
M  V30 5107 O 480.957 4.55325 -3.93653 0
M  V30 5108 H 484.783 1.51407 -2.63267 0
M  V30 5109 H 482.368 0.687131 -1.32661 0
M  V30 5110 H 484.25 3.81641 -1.78683 0
M  V30 5111 H 482.925 3.13566 -0.803616 0
M  V30 5112 H 481.832 2.2875 -2.96014 0
M  V30 5113 H 483.165 3.0252 -3.88256 0
M  V30 5114 N 484.817 1.37938 0.762283 0
M  V30 5115 C 486.065 1.33404 1.51815 0
M  V30 5116 C 486.386 -0.0780975 1.94844 0
M  V30 5117 O 485.656 -1.02405 1.67003 0
M  V30 5118 H 484.236 0.490839 0.563104 0
M  V30 5119 H 486.898 1.72527 0.906669 0
M  V30 5120 H 485.994 1.97926 2.41313 0
M  V30 5121 N 486.295 -0.989507 1.22664 0
M  V30 5122 C 487.543 -1.72612 1.05117 0
M  V30 5123 C 487.864 -1.90552 -0.414131 0
M  V30 5124 O 487.134 -1.4676 -1.29762 0
M  V30 5125 H 485.714 -0.639555 0.385977 0
M  V30 5126 H 488.376 -1.19158 1.54232 0
M  V30 5127 H 487.472 -2.71926 1.53175 0
M  V30 5128 N 487.773 -1.03688 -1.18687 0
M  V30 5129 C 489.189 -0.755413 -1.4059 0
M  V30 5130 C 489.389 0.656659 -1.905 0
M  V30 5131 O 488.445 1.42144 -2.08689 0
M  V30 5132 C 489.758 -1.7983 -2.41001 0
M  V30 5133 C 491.306 -1.81877 -2.54735 0
M  V30 5134 C 491.781 -2.85148 -3.58406 0
M  V30 5135 N 493.272 -2.84015 -3.6591 0
M  V30 5136 C 494.007 -3.60573 -4.45841 0
M  V30 5137 N 493.503 -4.46871 -5.29413 0
M  V30 5138 N 495.296 -3.49079 -4.40568 0
M  V30 5139 H 487.447 -1.94818 -0.846148 0
M  V30 5140 H 489.71 -0.842727 -0.434184 0
M  V30 5141 H 489.416 -2.81097 -2.1137 0
M  V30 5142 H 489.29 -1.62727 -3.40294 0
M  V30 5143 H 491.677 -0.812836 -2.83685 0
M  V30 5144 H 491.758 -2.03057 -1.55568 0
M  V30 5145 H 491.402 -3.85918 -3.30197 0
M  V30 5146 H 491.332 -2.61224 -4.57241 0
M  V30 5147 H 493.823 -2.21431 -3.0623 0
M  V30 5148 H 494.136 -5.02007 -5.87545 0
M  V30 5149 H 492.481 -4.5094 -5.28846 0
M  V30 5150 H 495.672 -2.81066 -3.74325 0
M  V30 5151 H 495.845 -4.08994 -5.02621 0
M  V30 5152 N 489.251 1.34841 -0.815825 0
M  V30 5153 C 490.201 2.27075 -0.205169 0
M  V30 5154 C 491.185 1.48205 0.626414 0
M  V30 5155 O 492.377 1.70306 0.482157 0
M  V30 5156 C 489.506 3.37322 0.637871 0
M  V30 5157 C 488.592 4.23609 -0.203948 0
M  V30 5158 N 488.983 4.89558 -1.27149 0
M  V30 5159 C 487.281 4.45998 0.0128971 0
M  V30 5160 C 487.982 5.53597 -1.7862 0
M  V30 5161 N 486.958 5.32535 -1.0912 0
M  V30 5162 H 490.76 2.75563 -1.02187 0
M  V30 5163 H 488.274 1.48477 -0.657912 0
M  V30 5164 H 490.271 4.02359 1.09146 0
M  V30 5165 H 488.931 2.90385 1.45281 0
M  V30 5166 H 489.942 4.9077 -1.65423 0
M  V30 5167 H 486.619 4.09837 0.79624 0
M  V30 5168 H 488.009 6.16184 -2.67892 0
M  V30 5169 N 490.729 0.570148 1.46925 0
M  V30 5170 C 491.957 0.0561966 2.06824 0
M  V30 5171 C 492.372 -1.24326 1.42086 0
M  V30 5172 O 491.729 -1.74882 0.521794 0
M  V30 5173 C 491.78 -0.129517 3.61268 0
M  V30 5174 O 491.501 1.1185 4.23581 0
M  V30 5175 C 493.002 -0.679266 4.38065 0
M  V30 5176 H 490.222 0.0517261 0.669003 0
M  V30 5177 H 492.766 0.787243 1.8874 0
M  V30 5178 H 490.921 -0.810739 3.78822 0
M  V30 5179 H 491.335 0.924375 5.1629 0
M  V30 5180 H 492.809 -0.758445 5.46765 0
M  V30 5181 H 493.286 -1.69346 4.05239 0
M  V30 5182 H 493.892 -0.0333237 4.25287 0
M  V30 5183 N 492.207 -1.54576 0.307264 0
M  V30 5184 C 493.455 -1.99867 -0.299574 0
M  V30 5185 C 493.776 -1.19714 -1.53927 0
M  V30 5186 O 493.046 -0.29472 -1.9367 0
M  V30 5187 H 491.626 -0.738299 -0.113683 0
M  V30 5188 H 494.288 -1.9032 0.420042 0
M  V30 5189 H 493.384 -3.06901 -0.567283 0
M  V30 5190 N 493.685 -0.035106 -1.57561 0
M  V30 5191 C 494.932 0.642229 -1.92046 0
M  V30 5192 C 495.26 1.7179 -0.91206 0
M  V30 5193 O 494.515 1.95544 0.0781153 0
M  V30 5194 C 494.814 1.29149 -3.3325 0
M  V30 5195 C 494.48 0.345604 -4.49574 0
M  V30 5196 C 493.142 0.0852775 -4.81124 0
M  V30 5197 C 495.494 -0.303569 -5.20315 0
M  V30 5198 C 492.822 -0.831927 -5.80772 0
M  V30 5199 C 495.174 -1.20886 -6.20942 0
M  V30 5200 C 493.838 -1.47802 -6.50931 0
M  V30 5201 H 493.108 0.235008 -0.702746 0
M  V30 5202 H 495.755 -0.0981529 -1.91248 0
M  V30 5203 H 494.06 2.10676 -3.30337 0
M  V30 5204 H 495.757 1.82223 -3.57205 0
M  V30 5205 H 492.347 0.558683 -4.24943 0
M  V30 5206 H 496.531 -0.115515 -4.96166 0
M  V30 5207 H 491.787 -1.0481 -6.02349 0
M  V30 5208 H 495.961 -1.71804 -6.74875 0
M  V30 5209 H 493.588 -2.19039 -7.2796 0
M  V30 5210 N 495.163 1.55791 0.238111 0
M  V30 5211 C 496.41 1.78033 0.964907 0
M  V30 5212 C 496.738 0.600984 1.84982 0
M  V30 5213 O 495.993 -0.41536 1.91241 0
M  V30 5214 C 496.292 3.05869 1.84875 0
M  V30 5215 C 495.958 4.36808 1.11846 0
M  V30 5216 C 494.62 4.72388 0.916662 0
M  V30 5217 C 496.972 5.17717 0.60151 0
M  V30 5218 C 494.3 5.86406 0.185756 0
M  V30 5219 C 496.652 6.32494 -0.115972 0
M  V30 5220 C 495.316 6.66688 -0.329168 0
M  V30 5221 H 494.586 0.651469 0.353085 0
M  V30 5222 H 497.233 1.90061 0.234318 0
M  V30 5223 H 495.538 2.88891 2.64668 0
M  V30 5224 H 497.235 3.20278 2.41294 0
M  V30 5225 H 493.825 4.08862 1.28569 0
M  V30 5226 H 498.009 4.90678 0.744932 0
M  V30 5227 H 493.265 6.11399 0.0101886 0
M  V30 5228 H 497.439 6.94425 -0.524127 0
M  V30 5229 H 495.066 7.54884 -0.897474 0
M  V30 5230 N 496.642 -0.504142 1.49319 0
M  V30 5231 C 497.867 -1.28729 1.62615 0
M  V30 5232 C 498.292 -1.85752 0.296309 0
M  V30 5233 O 497.65 -1.65704 -0.735649 0
M  V30 5234 C 497.698 -2.39561 2.69524 0
M  V30 5235 O 496.802 -3.43324 2.28478 0
M  V30 5236 H 496.143 -0.380172 0.544395 0
M  V30 5237 H 498.673 -0.603872 1.95485 0
M  V30 5238 H 498.683 -2.8537 2.91595 0
M  V30 5239 H 497.358 -1.97423 3.66056 0
M  V30 5240 H 495.935 -3.03455 2.16725 0
M  V30 5241 N 498.12 -1.38341 -0.754957 0
M  V30 5242 C 499.368 -1.34208 -1.51105 0
M  V30 5243 C 499.689 0.0677634 -1.94882 0
M  V30 5244 O 498.959 1.01517 -1.67544 0
M  V30 5245 H 497.539 -0.493819 -0.560493 0
M  V30 5246 H 500.201 -1.73005 -0.897507 0
M  V30 5247 H 499.297 -1.99203 -2.4026 0
M  V30 5248 N 499.598 0.982988 -1.23187 0
M  V30 5249 C 500.828 1.75666 -1.08743 0
M  V30 5250 C 501.236 1.85662 0.364195 0
M  V30 5251 O 500.579 1.33317 1.26382 0
M  V30 5252 C 500.641 3.20144 -1.63549 0
M  V30 5253 C 500.305 3.33665 -3.12277 0
M  V30 5254 C 501.302 3.20194 -4.096 0
M  V30 5255 C 498.987 3.58397 -3.51933 0
M  V30 5256 C 500.981 3.31256 -5.44563 0
M  V30 5257 C 498.668 3.69098 -4.87042 0
M  V30 5258 C 499.666 3.55537 -5.83166 0
M  V30 5259 O 499.354 3.65864 -7.1582 0
M  V30 5260 H 499.086 0.558194 -0.381307 0
M  V30 5261 H 501.64 1.24387 -1.63454 0
M  V30 5262 H 499.87 3.72659 -1.03256 0
M  V30 5263 H 501.559 3.79262 -1.4462 0
M  V30 5264 H 502.325 3.00987 -3.80305 0
M  V30 5265 H 498.204 3.68025 -2.77631 0
M  V30 5266 H 501.748 3.20588 -6.19572 0
M  V30 5267 H 497.645 3.87814 -5.16014 0
M  V30 5268 H 498.413 3.82675 -7.23534 0
M  V30 5269 N 501.076 1.04316 1.18135 0
M  V30 5270 C 502.492 0.762858 1.40188 0
M  V30 5271 C 502.692 -0.646547 1.90846 0
M  V30 5272 O 501.748 -1.41036 2.0944 0
M  V30 5273 C 503.061 1.81106 2.40044 0
M  V30 5274 C 504.609 1.83226 2.53766 0
M  V30 5275 C 505.084 2.87044 3.56889 0
M  V30 5276 N 506.575 2.85951 3.64398 0
M  V30 5277 C 507.31 3.62932 4.43923 0
M  V30 5278 N 506.806 4.49672 5.27036 0
M  V30 5279 N 508.599 3.51411 4.38711 0
M  V30 5280 H 500.75 1.95264 0.835805 0
M  V30 5281 H 503.013 0.845017 0.429709 0
M  V30 5282 H 502.719 2.82214 2.09876 0
M  V30 5283 H 502.593 1.64529 3.39426 0
M  V30 5284 H 504.98 0.827869 2.8325 0
M  V30 5285 H 505.061 2.03879 1.54489 0
M  V30 5286 H 504.705 3.87663 3.28145 0
M  V30 5287 H 504.635 2.63645 4.5585 0
M  V30 5288 H 507.126 2.23051 3.05052 0
M  V30 5289 H 507.439 5.05116 5.84874 0
M  V30 5290 H 505.784 4.53738 5.26447 0
M  V30 5291 H 508.975 2.83047 3.72829 0
M  V30 5292 H 509.148 4.11654 5.00445 0
M  V30 5293 N 502.554 -1.34406 0.822964 0
M  V30 5294 C 503.965 -1.8069 0.469879 0
M  V30 5295 C 504.316 -1.68223 -1.00972 0
M  V30 5296 O 503.441 -1.22226 -1.78577 0
M  V30 5297 C 504.036 -3.28064 0.846118 0
M  V30 5298 C 502.595 -3.72428 0.545402 0
M  V30 5299 C 501.742 -2.56116 1.06301 0
M  V30 5300 H 504.693 -1.22153 1.01313 0
M  V30 5301 H 504.714 -3.80205 0.149922 0
M  V30 5302 H 504.226 -3.37107 1.92304 0
M  V30 5303 H 502.327 -3.68924 -0.522109 0
M  V30 5304 H 502.44 -4.66548 1.0895 0
M  V30 5305 H 500.804 -2.50048 0.484554 0
M  V30 5306 H 501.587 -2.67928 2.14638 0
M  V30 5307 N 504.032 -0.577932 -1.46621 0
M  V30 5308 C 504.964 0.195801 -2.28362 0
M  V30 5309 C 505.977 0.859983 -1.38232 0
M  V30 5310 O 507.166 0.730349 -1.62875 0
M  V30 5311 C 504.266 1.29639 -3.13124 0
M  V30 5312 C 503.439 0.725049 -4.31349 0
M  V30 5313 C 502.498 1.71274 -4.97546 0
M  V30 5314 O 501.524 1.25067 -5.5529 0
M  V30 5315 N 502.726 3.04672 -4.94121 0
M  V30 5316 H 505.491 -0.505468 -2.95407 0
M  V30 5317 H 503.052 -0.415381 -1.56481 0
M  V30 5318 H 505.044 1.95631 -3.54275 0
M  V30 5319 H 503.614 1.90059 -2.48186 0
M  V30 5320 H 502.834 -0.112205 -3.9404 0
M  V30 5321 H 504.122 0.323034 -5.07774 0
M  V30 5322 H 503.52 3.4484 -4.48444 0
M  V30 5323 H 502.077 3.66166 -5.39227 0
M  V30 5324 N 505.51 1.54411 -0.315457 0
M  V30 5325 C 506.757 2.00419 0.289543 0
M  V30 5326 C 507.085 1.20373 1.52776 0
M  V30 5327 O 506.34 0.271769 1.93804 0
M  V30 5328 C 506.639 3.50936 0.676652 0
M  V30 5329 C 506.305 4.48532 -0.461472 0
M  V30 5330 C 504.967 4.74936 -0.773879 0
M  V30 5331 C 507.319 5.06567 -1.22637 0
M  V30 5332 C 504.647 5.56634 -1.85405 0
M  V30 5333 C 506.999 5.89441 -2.29657 0
M  V30 5334 C 505.663 6.1415 -2.61488 0
M  V30 5335 H 504.933 0.733386 0.105951 0
M  V30 5336 H 507.58 1.86434 -0.437554 0
M  V30 5337 H 505.885 3.62606 1.48405 0
M  V30 5338 H 507.582 3.83971 1.15618 0
M  V30 5339 H 504.172 4.28096 -0.207893 0
M  V30 5340 H 508.356 4.86157 -0.998271 0
M  V30 5341 H 503.612 5.74012 -2.10523 0
M  V30 5342 H 507.786 6.33432 -2.89374 0
M  V30 5343 H 505.413 6.77245 -3.45317 0
M  V30 5344 N 506.988 0.0434614 1.5754 0
M  V30 5345 C 508.218 -0.640905 1.96408 0
M  V30 5346 C 508.626 -1.65365 0.919297 0
M  V30 5347 O 507.969 -1.83395 -0.105795 0
M  V30 5348 C 508.031 -1.39141 3.31482 0
M  V30 5349 C 507.695 -0.535375 4.53853 0
M  V30 5350 C 508.692 0.195335 5.19533 0
M  V30 5351 C 506.377 -0.468564 5.0011 0
M  V30 5352 C 508.371 0.981377 6.298 0
M  V30 5353 C 506.058 0.321171 6.10255 0
M  V30 5354 C 507.056 1.04484 6.74961 0
M  V30 5355 O 506.744 1.8216 7.8299 0
M  V30 5356 H 506.476 -0.180584 0.651433 0
M  V30 5357 H 509.03 0.103848 2.05137 0
M  V30 5358 H 507.26 -2.18162 3.19284 0
M  V30 5359 H 508.949 -1.96526 3.55151 0
M  V30 5360 H 509.715 0.15314 4.84758 0
M  V30 5361 H 505.594 -1.02142 4.49542 0
M  V30 5362 H 509.138 1.54674 6.80237 0
M  V30 5363 H 505.035 0.365032 6.44467 0
M  V30 5364 H 505.803 1.74289 7.99728 0
M  V30 5365 N 508.466 -1.55915 -0.229846 0
M  V30 5366 C 509.713 -1.78542 -0.955452 0
M  V30 5367 C 510.041 -0.610785 -1.84661 0
M  V30 5368 O 509.296 0.405213 -1.91459 0
M  V30 5369 C 509.595 -3.06845 -1.8325 0
M  V30 5370 C 509.261 -4.37395 -1.09528 0
M  V30 5371 C 507.923 -4.72868 -0.891598 0
M  V30 5372 C 510.275 -5.18029 -0.574046 0
M  V30 5373 C 507.603 -5.86496 -0.154655 0
M  V30 5374 C 509.955 -6.32423 0.149513 0
M  V30 5375 C 508.619 -6.66504 0.364519 0
M  V30 5376 H 507.889 -0.653333 -0.349625 0
M  V30 5377 H 510.536 -1.90183 -0.224235 0
M  V30 5378 H 508.841 -2.90291 -2.63132 0
M  V30 5379 H 510.538 -3.21553 -2.39592 0
M  V30 5380 H 507.128 -4.09538 -1.26399 0
M  V30 5381 H 511.312 -4.91066 -0.718899 0
M  V30 5382 H 506.568 -6.11396 0.0222356 0
M  V30 5383 H 510.742 -6.94137 0.560947 0
M  V30 5384 H 508.369 -7.54397 0.937495 0
M  V30 5385 N 509.944 0.496216 -1.49584 0
M  V30 5386 C 511.36 0.827814 -1.36453 0
M  V30 5387 C 511.56 1.97464 -0.401285 0
M  V30 5388 O 510.616 2.51958 0.165296 0
M  V30 5389 C 511.929 1.16352 -2.77277 0
M  V30 5390 C 513.477 1.27145 -2.86013 0
M  V30 5391 C 513.952 1.64042 -4.27615 0
M  V30 5392 N 515.443 1.71082 -4.30448 0
M  V30 5393 C 516.178 2.01085 -5.36984 0
M  V30 5394 N 515.674 2.2928 -6.5376 0
M  V30 5395 N 517.467 2.02376 -5.24405 0
M  V30 5396 H 509.618 -0.259947 -2.10803 0
M  V30 5397 H 511.881 -0.0537163 -0.946477 0
M  V30 5398 H 511.587 0.394153 -3.49484 0
M  V30 5399 H 511.461 2.10582 -3.12946 0
M  V30 5400 H 513.848 2.03152 -2.1404 0
M  V30 5401 H 513.929 0.309542 -2.5392 0
M  V30 5402 H 513.573 0.88583 -5.00115 0
M  V30 5403 H 513.503 2.6134 -4.57175 0
M  V30 5404 H 515.994 1.51434 -3.46232 0
M  V30 5405 H 516.307 2.51376 -7.30774 0
M  V30 5406 H 514.652 2.26726 -6.56978 0
M  V30 5407 H 517.843 1.79829 -4.32179 0
M  V30 5408 H 518.016 2.25425 -6.07526 0
M  V30 5409 N 511.423 1.38739 0.74761 0
M  V30 5410 C 512.651 1.38521 1.53686 0
M  V30 5411 C 513.066 -0.0235129 1.88785 0
M  V30 5412 O 512.423 -0.991662 1.53207 0
M  V30 5413 C 512.474 2.24641 2.83229 0
M  V30 5414 O 512.195 3.60026 2.49625 0
M  V30 5415 C 513.696 2.32669 3.77333 0
M  V30 5416 H 510.916 0.473589 0.475347 0
M  V30 5417 H 513.46 1.82395 0.924786 0
M  V30 5418 H 511.615 1.84213 3.40799 0
M  V30 5419 H 512.029 4.05435 3.3275 0
M  V30 5420 H 513.503 2.97201 4.65162 0
M  V30 5421 H 513.98 1.3421 4.18192 0
M  V30 5422 H 514.586 2.73512 3.25685 0
M  V30 5423 N 512.901 -0.976442 1.23707 0
M  V30 5424 C 514.129 -1.75341 1.09833 0
M  V30 5425 C 514.544 -1.8553 -0.349885 0
M  V30 5426 O 513.901 -1.33732 -1.24185 0
M  V30 5427 C 513.952 -3.17833 1.72233 0
M  V30 5428 O 513.673 -3.08167 3.11391 0
M  V30 5429 C 515.174 -4.11906 1.63853 0
M  V30 5430 H 512.394 -0.550137 0.384175 0
M  V30 5431 H 514.938 -1.2265 1.63638 0
M  V30 5432 H 513.093 -3.67538 1.22452 0
M  V30 5433 H 513.507 -3.97897 3.41729 0
M  V30 5434 H 514.981 -5.09579 2.12211 0
M  V30 5435 H 515.458 -4.35109 0.598092 0
M  V30 5436 H 516.064 -3.68107 2.13019 0
M  V30 5437 N 514.379 -1.04941 -1.1758 0
M  V30 5438 C 515.656 -0.671918 -1.83697 0
M  V30 5439 C 516.036 0.847929 -1.93322 0
M  V30 5440 O 515.384 1.75287 -1.46583 0
M  V30 5441 C 515.594 -1.35797 -3.21497 0
M  V30 5442 C 516.942 -1.4944 -3.97433 0
M  V30 5443 O 517.966 -1.31678 -3.30967 0
M  V30 5444 O 516.825 -1.78463 -5.1654 0
M  V30 5445 H 513.919 -0.236212 -0.792548 0
M  V30 5446 H 516.465 -1.14884 -1.24899 0
M  V30 5447 H 515.237 -2.39498 -3.09446 0
M  V30 5448 H 514.86 -0.870236 -3.8796 0
M  V30 5449 N 515.857 1.33968 -0.830081 0
M  V30 5450 C 517.103 1.98357 -0.422191 0
M  V30 5451 C 517.436 1.65633 1.01387 0
M  V30 5452 O 516.711 0.931648 1.70735 0
M  V30 5453 C 516.994 3.54492 -0.633043 0
M  V30 5454 C 516.847 3.96934 -2.11574 0
M  V30 5455 C 518.166 4.40039 -0.0735584 0
M  V30 5456 H 515.285 0.720544 -0.154871 0
M  V30 5457 H 517.927 1.58749 -1.04397 0
M  V30 5458 H 516.077 3.88361 -0.103775 0
M  V30 5459 H 517.749 3.73363 -2.7092 0
M  V30 5460 H 515.992 3.46984 -2.60354 0
M  V30 5461 H 516.663 5.05651 -2.21406 0
M  V30 5462 H 519.139 4.12764 -0.52585 0
M  V30 5463 H 518.015 5.48327 -0.250841 0
M  V30 5464 H 518.276 4.30124 1.02202 0
M  V30 5465 N 517.335 0.585699 1.46312 0
M  V30 5466 C 518.563 0.0781299 2.06752 0
M  V30 5467 C 518.978 -1.22812 1.43396 0
M  V30 5468 O 518.335 -1.74318 0.540314 0
M  V30 5469 C 518.386 -0.0911927 3.61385 0
M  V30 5470 O 518.107 1.16336 4.22371 0
M  V30 5471 C 519.608 -0.632765 4.38761 0
M  V30 5472 H 516.828 0.0588188 0.668417 0
M  V30 5473 H 519.372 0.807218 1.87894 0
M  V30 5474 H 517.527 -0.770514 3.7966 0
M  V30 5475 H 517.941 0.979082 5.15281 0
M  V30 5476 H 519.415 -0.70041 5.47538 0
M  V30 5477 H 519.892 -1.65039 4.07012 0
M  V30 5478 H 520.498 0.0117856 4.25298 0
M  V30 5479 N 518.813 -1.54241 0.323641 0
M  V30 5480 C 520.061 -2.00174 -0.278359 0
M  V30 5481 C 520.382 -1.2134 -1.52648 0
M  V30 5482 O 519.652 -0.315244 -1.93347 0
M  V30 5483 H 518.232 -0.739463 -0.105845 0
M  V30 5484 H 520.894 -1.89864 0.440204 0
M  V30 5485 H 519.99 -3.07486 -0.5347 0
M  V30 5486 N 520.291 -0.0518155 -1.57515 0
M  V30 5487 C 521.537 0.622745 -1.93002 0
M  V30 5488 C 521.87 1.70456 -0.930499 0
M  V30 5489 O 521.145 1.94452 0.0434086 0
M  V30 5490 C 521.428 1.21824 -3.38867 0
M  V30 5491 C 521.281 0.144434 -4.49568 0
M  V30 5492 C 522.6 2.12968 -3.8514 0
M  V30 5493 H 519.719 0.22491 -0.701844 0
M  V30 5494 H 522.361 -0.113711 -1.89659 0
M  V30 5495 H 520.511 1.8459 -3.41846 0
M  V30 5496 H 522.183 -0.48753 -4.58717 0
M  V30 5497 H 520.426 -0.527424 -4.30582 0
M  V30 5498 H 521.097 0.601127 -5.48717 0
M  V30 5499 H 523.573 1.60163 -3.8404 0
M  V30 5500 H 522.449 2.51578 -4.87852 0
M  V30 5501 H 522.71 3.03004 -3.21934 0
M  V30 5502 N 521.769 1.56035 0.221574 0
M  V30 5503 C 523.015 1.79312 0.947372 0
M  V30 5504 C 523.348 0.621453 1.83988 0
M  V30 5505 O 522.623 -0.379287 1.90766 0
M  V30 5506 C 522.906 3.1267 1.78633 0
M  V30 5507 C 522.759 4.40284 0.920312 0
M  V30 5508 C 524.078 3.4247 2.7641 0
M  V30 5509 H 521.197 0.652328 0.342982 0
M  V30 5510 H 523.839 1.88765 0.216244 0
M  V30 5511 H 521.989 3.04741 2.40967 0
M  V30 5512 H 523.661 4.60232 0.313718 0
M  V30 5513 H 521.904 4.33212 0.225734 0
M  V30 5514 H 522.575 5.30033 1.54171 0
M  V30 5515 H 525.051 3.50526 2.24211 0
M  V30 5516 H 523.927 4.3695 3.32213 0
M  V30 5517 H 524.188 2.64635 3.54148 0
M  V30 5518 N 523.247 -0.488276 1.49845 0
M  V30 5519 C 524.179 -1.60539 1.63584 0
M  V30 5520 C 525.192 -1.5434 0.517972 0
M  V30 5521 O 526.381 -1.60041 0.790516 0
M  V30 5522 C 523.481 -2.99374 1.58835 0
M  V30 5523 C 522.654 -3.30624 2.86368 0
M  V30 5524 C 521.713 -4.4893 2.74496 0
M  V30 5525 O 520.739 -4.50085 3.48443 0
M  V30 5526 N 521.941 -5.49591 1.86894 0
M  V30 5527 H 524.706 -1.49176 2.59936 0
M  V30 5528 H 522.267 -0.67639 1.47094 0
M  V30 5529 H 524.259 -3.76459 1.48529 0
M  V30 5530 H 522.829 -3.04595 0.702892 0
M  V30 5531 H 522.049 -2.42314 3.1093 0
M  V30 5532 H 523.337 -3.48305 3.70892 0
M  V30 5533 H 522.735 -5.51467 1.26097 0
M  V30 5534 H 521.292 -6.25728 1.82503 0
M  V30 5535 N 524.725 -1.39134 -0.740242 0
M  V30 5536 C 525.655 -1.40165 -1.86751 0
M  V30 5537 C 526.636 -0.265708 -1.68012 0
M  V30 5538 O 527.821 -0.47076 -1.88408 0
M  V30 5539 C 524.951 -1.2392 -3.2444 0
M  V30 5540 C 523.905 -2.34858 -3.57807 0
M  V30 5541 C 523.231 -2.03707 -4.94376 0
M  V30 5542 C 524.531 -3.77159 -3.61315 0
M  V30 5543 H 526.225 -2.345 -1.86145 0
M  V30 5544 H 523.771 -1.12875 -0.89416 0
M  V30 5545 H 525.724 -1.23263 -4.02969 0
M  V30 5546 H 524.448 -0.26051 -3.25559 0
M  V30 5547 H 523.107 -2.34723 -2.81604 0
M  V30 5548 H 522.755 -1.04289 -4.9207 0
M  V30 5549 H 522.455 -2.78016 -5.17669 0
M  V30 5550 H 523.979 -2.04691 -5.75268 0
M  V30 5551 H 525.393 -3.79252 -4.29931 0
M  V30 5552 H 523.79 -4.50784 -3.96124 0
M  V30 5553 H 524.86 -4.08513 -2.61238 0
M  V30 5554 N 526.204 0.969867 -1.24223 0
M  V30 5555 C 527.615 1.52717 -1.07399 0
M  V30 5556 C 527.966 1.92956 0.355298 0
M  V30 5557 O 527.091 1.77112 1.2434 0
M  V30 5558 C 527.686 2.77521 -1.94339 0
M  V30 5559 C 526.245 3.29615 -1.81744 0
M  V30 5560 C 525.392 2.02537 -1.89405 0
M  V30 5561 H 528.343 0.788399 -1.37732 0
M  V30 5562 H 528.364 3.50773 -1.47439 0
M  V30 5563 H 527.876 2.48203 -2.98357 0
M  V30 5564 H 525.977 3.63789 -0.805505 0
M  V30 5565 H 526.09 3.98661 -2.65718 0
M  V30 5566 H 524.454 2.17151 -1.33108 0
M  V30 5567 H 525.237 1.75587 -2.94999 0
M  V30 5568 N 527.682 1.05563 1.17022 0
M  V30 5569 C 529.093 0.793475 1.69 0
M  V30 5570 C 529.444 -0.683882 1.83895 0
M  V30 5571 O 528.569 -1.53116 1.5292 0
M  V30 5572 C 529.164 1.43376 3.06967 0
M  V30 5573 C 527.723 1.21956 3.56095 0
M  V30 5574 C 526.87 1.51494 2.3226 0
M  V30 5575 H 529.821 1.22008 1.01487 0
M  V30 5576 H 529.842 0.845068 3.70997 0
M  V30 5577 H 529.354 2.50899 2.96093 0
M  V30 5578 H 527.455 0.163749 3.7224 0
M  V30 5579 H 527.568 1.92713 4.38633 0
M  V30 5580 H 525.932 0.935175 2.3691 0
M  V30 5581 H 526.715 2.60159 2.23992 0
M  V30 5582 N 529.16 -1.33526 0.837174 0
M  V30 5583 C 530.408 -1.97446 0.431211 0
M  V30 5584 C 530.729 -1.6665 -1.01255 0
M  V30 5585 O 529.999 -0.964559 -1.70508 0
M  V30 5586 H 528.579 -0.73043 0.156463 0
M  V30 5587 H 531.241 -1.62918 1.06976 0
M  V30 5588 H 530.337 -3.07001 0.561877 0
M  V30 5589 N 530.638 -0.59345 -1.46 0
M  V30 5590 C 531.884 -0.0832754 -2.02629 0
M  V30 5591 C 532.217 1.27749 -1.46266 0
M  V30 5592 O 531.492 1.8395 -0.631866 0
M  V30 5593 C 531.775 -0.0290756 -3.60088 0
M  V30 5594 C 531.628 -1.41951 -4.26814 0
M  V30 5595 C 532.947 0.666055 -4.35031 0
M  V30 5596 H 530.066 -0.031736 -0.736316 0
M  V30 5597 H 532.708 -0.762711 -1.74019 0
M  V30 5598 H 530.858 0.549532 -3.84594 0
M  V30 5599 H 532.53 -2.04411 -4.13538 0
M  V30 5600 H 530.773 -1.98422 -3.8576 0
M  V30 5601 H 531.444 -1.33395 -5.3564 0
M  V30 5602 H 533.92 0.174401 -4.15734 0
M  V30 5603 H 532.796 0.673041 -5.44758 0
M  V30 5604 H 533.057 1.72946 -4.06869 0
M  V30 5605 N 532.116 1.54067 -0.331816 0
M  V30 5606 C 533.026 2.28322 0.539104 0
M  V30 5607 C 534.042 1.32985 1.1221 0
M  V30 5608 O 535.218 1.6601 1.1403 0
M  V30 5609 C 532.283 3.03277 1.68 0
M  V30 5610 C 531.344 4.14216 1.12798 0
M  V30 5611 C 530.577 4.85588 2.2145 0
M  V30 5612 O 530.8 4.56536 3.41952 0
M  V30 5613 O 529.734 5.72309 1.86404 0
M  V30 5614 H 533.56 3.03632 -0.0641692 0
M  V30 5615 H 531.145 1.49083 -0.0972365 0
M  V30 5616 H 533.027 3.50189 2.34405 0
M  V30 5617 H 531.702 2.30834 2.2693 0
M  V30 5618 H 530.609 3.71635 0.428782 0
M  V30 5619 H 531.942 4.88727 0.583698 0
M  V30 5620 N 533.594 0.0601682 1.57485 0
M  V30 5621 C 534.527 -0.94676 2.07634 0
M  V30 5622 C 535.505 -1.29837 0.978826 0
M  V30 5623 O 536.689 -1.40969 1.2514 0
M  V30 5624 C 533.816 -2.25822 2.52433 0
M  V30 5625 C 532.862 -2.05901 3.73507 0
M  V30 5626 S 533.695 -1.32907 5.18745 0
M  V30 5627 C 534.851 -2.65356 5.66866 0
M  V30 5628 H 535.084 -0.520003 2.92717 0
M  V30 5629 H 532.617 -0.152319 1.53647 0
M  V30 5630 H 534.575 -3.01201 2.78905 0
M  V30 5631 H 533.236 -2.65624 1.67639 0
M  V30 5632 H 532.429 -3.02929 4.02803 0
M  V30 5633 H 532.031 -1.38659 3.47347 0
M  V30 5634 H 534.323 -3.61492 5.73001 0
M  V30 5635 H 535.266 -2.40685 6.6594 0
M  V30 5636 H 535.674 -2.72028 4.94632 0
M  V30 5637 N 535.072 -1.5615 -0.213296 0
M  V30 5638 C 536.318 -1.79812 -0.937849 0
M  V30 5639 C 536.651 -0.631201 -1.83656 0
M  V30 5640 O 535.926 0.369165 -1.90964 0
M  V30 5641 C 536.209 -3.13613 -1.76972 0
M  V30 5642 C 536.062 -4.40766 -0.89695 0
M  V30 5643 C 537.381 -3.43931 -2.7459 0
M  V30 5644 H 534.5 -0.654138 -0.339518 0
M  V30 5645 H 537.142 -1.88877 -0.20623 0
M  V30 5646 H 535.292 -3.06015 -2.39347 0
M  V30 5647 H 536.964 -4.60392 -0.289306 0
M  V30 5648 H 535.207 -4.33326 -0.202756 0
M  V30 5649 H 535.878 -5.30843 -1.51358 0
M  V30 5650 H 538.354 -3.5171 -2.22349 0
M  V30 5651 H 537.23 -4.38706 -3.29891 0
M  V30 5652 H 537.491 -2.6651 -3.52739 0
M  V30 5653 N 536.55 0.480323 -1.50102 0
M  V30 5654 C 537.483 1.59789 -1.62919 0
M  V30 5655 C 538.461 1.55429 -0.477557 0
M  V30 5656 O 539.645 1.75186 -0.695851 0
M  V30 5657 C 536.772 2.98351 -1.60325 0
M  V30 5658 C 535.818 3.20899 -2.80938 0
M  V30 5659 S 536.651 3.01791 -4.4236 0
M  V30 5660 C 537.807 4.42712 -4.42444 0
M  V30 5661 H 538.04 1.48676 -2.57454 0
M  V30 5662 H 535.573 0.666996 -1.3925 0
M  V30 5663 H 537.531 3.7824 -1.59514 0
M  V30 5664 H 536.192 3.06862 -0.670419 0
M  V30 5665 H 535.385 4.22102 -2.75401 0
M  V30 5666 H 534.987 2.48768 -2.79268 0
M  V30 5667 H 537.279 5.3518 -4.15438 0
M  V30 5668 H 538.222 4.53294 -5.43995 0
M  V30 5669 H 538.63 4.24359 -3.72263 0
M  V30 5670 N 538.028 1.39524 0.732853 0
M  V30 5671 C 539.439 1.32905 1.31122 0
M  V30 5672 C 539.79 -0.00558708 1.96199 0
M  V30 5673 O 538.915 -0.907706 1.96443 0
M  V30 5674 C 539.51 2.40704 2.38426 0
M  V30 5675 C 538.069 2.37599 2.91931 0
M  V30 5676 C 537.216 2.2248 1.65523 0
M  V30 5677 H 540.167 1.49581 0.530207 0
M  V30 5678 H 540.188 2.07616 3.18867 0
M  V30 5679 H 539.7 3.37829 1.91033 0
M  V30 5680 H 537.801 1.44119 3.43599 0
M  V30 5681 H 537.914 3.32538 3.44899 0
M  V30 5682 H 536.278 1.69691 1.8994 0
M  V30 5683 H 537.061 3.21577 1.20178 0
M  V30 5684 N 539.506 -0.963266 1.24736 0
M  V30 5685 C 540.754 -1.70343 1.08755 0
M  V30 5686 C 541.075 -1.91387 -0.373619 0
M  V30 5687 O 540.345 -1.4948 -1.2662 0
M  V30 5688 H 538.925 -0.631224 0.399456 0
M  V30 5689 H 541.587 -1.15859 1.56725 0
M  V30 5690 H 540.683 -2.68616 1.58909 0
M  V30 5691 N 540.985 -1.06182 -1.16461 0
M  V30 5692 C 542.262 -0.691364 -1.82974 0
M  V30 5693 C 542.642 0.827377 -1.9421 0
M  V30 5694 O 541.99 1.73723 -1.48434 0
M  V30 5695 C 542.2 -1.39199 -3.20038 0
M  V30 5696 C 543.548 -1.53647 -3.95825 0
M  V30 5697 O 544.572 -1.35181 -3.29552 0
M  V30 5698 O 543.431 -1.83932 -5.14618 0
M  V30 5699 H 540.525 -0.244605 -0.789998 0
M  V30 5700 H 543.071 -1.16203 -1.23673 0
M  V30 5701 H 541.843 -2.42766 -3.06888 0
M  V30 5702 H 541.466 -0.911335 -3.87015 0
M  V30 5703 N 542.463 1.3308 -0.844243 0
M  V30 5704 C 543.411 2.31028 -0.269954 0
M  V30 5705 C 544.405 1.58381 0.600997 0
M  V30 5706 O 545.611 1.73203 0.48996 0
M  V30 5707 H 541.986 0.748866 -0.0685782 0
M  V30 5708 H 543.957 2.76967 -1.11049 0
M  V30 5709 C 542.706 3.43549 0.535676 0
M  V30 5710 H 542.029 3.99604 -0.125202 0
M  V30 5711 H 543.469 4.14267 0.903262 0
M  V30 5712 C 541.928 2.8988 1.71672 0
M  V30 5713 O 542.458 2.86511 2.81557 0
M  V30 5714 N 540.664 2.46416 1.54037 0
M  V30 5715 H 540.211 2.49356 0.64649 0
M  V30 5716 H 540.169 2.1086 2.33207 0
M  V30 5717 N 543.941 0.601185 1.45683 0
M  V30 5718 C 545.187 0.0940202 2.02582 0
M  V30 5719 C 545.52 -1.26972 1.46941 0
M  V30 5720 O 544.795 -1.83613 0.641612 0
M  V30 5721 C 545.078 0.0481715 3.60068 0
M  V30 5722 C 544.931 1.44212 4.26055 0
M  V30 5723 C 546.25 -0.642975 4.35378 0
M  V30 5724 H 543.369 0.0356404 0.736138 0
M  V30 5725 H 546.011 0.771929 1.73612 0
M  V30 5726 H 544.161 -0.529128 3.8488 0
M  V30 5727 H 545.833 2.06601 4.12449 0
M  V30 5728 H 544.076 2.00465 3.84703 0
M  V30 5729 H 544.747 1.36234 5.34925 0
M  V30 5730 H 547.223 -0.152351 4.15821 0
M  V30 5731 H 546.099 -0.644141 5.45107 0
M  V30 5732 H 546.36 -1.70785 4.0778 0
M  V30 5733 N 545.419 -1.53889 0.339982 0
M  V30 5734 C 546.647 -2.05271 -0.259114 0
M  V30 5735 C 547.062 -1.21517 -1.44496 0
M  V30 5736 O 546.419 -0.24966 -1.80784 0
M  V30 5737 C 546.47 -3.55092 -0.677634 0
M  V30 5738 O 546.191 -4.35667 0.461051 0
M  V30 5739 C 547.692 -4.22631 -1.33782 0
M  V30 5740 H 544.912 -0.669085 -0.0506566 0
M  V30 5741 H 547.456 -1.9852 0.490935 0
M  V30 5742 H 545.611 -3.62077 -1.37763 0
M  V30 5743 H 546.025 -5.24343 0.128144 0
M  V30 5744 H 547.499 -5.28861 -1.58145 0
M  V30 5745 H 547.976 -3.74758 -2.29027 0
M  V30 5746 H 548.582 -4.19829 -0.679957 0
M  V30 5747 N 546.897 -0.0685191 -1.57451 0
M  V30 5748 C 548.144 0.601348 -1.93365 0
M  V30 5749 C 548.472 1.69816 -0.948294 0
M  V30 5750 O 547.727 1.95666 0.0366199 0
M  V30 5751 C 548.026 1.22051 -3.35914 0
M  V30 5752 C 547.692 0.250165 -4.50205 0
M  V30 5753 C 546.354 -0.0167954 -4.81197 0
M  V30 5754 C 548.706 -0.413867 -5.19554 0
M  V30 5755 C 546.034 -0.95493 -5.78876 0
M  V30 5756 C 548.386 -1.3403 -6.18238 0
M  V30 5757 C 547.05 -1.61576 -6.47649 0
M  V30 5758 H 546.32 0.220049 -0.707573 0
M  V30 5759 H 548.967 -0.138697 -1.90997 0
M  V30 5760 H 547.272 2.03622 -3.34732 0
M  V30 5761 H 548.969 1.74605 -3.6099 0
M  V30 5762 H 545.559 0.468421 -4.26033 0
M  V30 5763 H 549.743 -0.220733 -4.95809 0
M  V30 5764 H 544.999 -1.17563 -5.99991 0
M  V30 5765 H 549.173 -1.86081 -6.71079 0
M  V30 5766 H 546.8 -2.34431 -7.2315 0
M  V30 5767 N 548.375 1.56261 0.205012 0
M  V30 5768 C 549.603 1.84141 0.943386 0
M  V30 5769 C 550.018 0.649772 1.77266 0
M  V30 5770 O 549.375 -0.381612 1.78466 0
M  V30 5771 C 549.426 3.10719 1.84759 0
M  V30 5772 O 549.147 4.25286 1.05181 0
M  V30 5773 C 550.648 3.51706 2.69848 0
M  V30 5774 H 547.868 0.611734 0.275721 0
M  V30 5775 H 550.412 2.03364 0.215253 0
M  V30 5776 H 548.567 2.93422 2.52947 0
M  V30 5777 H 548.981 4.97301 1.66709 0
M  V30 5778 H 550.455 4.43266 3.28967 0
M  V30 5779 H 550.932 2.7423 3.43067 0
M  V30 5780 H 551.538 3.71499 2.07047 0
M  V30 5781 N 549.853 -0.472356 1.50355 0
M  V30 5782 C 551.099 -1.22634 1.6152 0
M  V30 5783 C 551.432 -1.91645 0.313995 0
M  V30 5784 O 550.707 -1.82059 -0.684446 0
M  V30 5785 C 550.99 -2.27099 2.7946 0
M  V30 5786 C 550.843 -1.62402 4.19459 0
M  V30 5787 C 552.162 -3.28421 2.92964 0
M  V30 5788 H 549.281 -0.444494 0.587873 0
M  V30 5789 H 551.923 -0.520321 1.82737 0
M  V30 5790 H 550.073 -2.87314 2.61501 0
M  V30 5791 H 551.745 -1.05793 4.49005 0
M  V30 5792 H 549.988 -0.927184 4.23776 0
M  V30 5793 H 550.659 -2.38309 4.97909 0
M  V30 5794 H 553.135 -2.78227 3.09401 0
M  V30 5795 H 552.011 -3.98845 3.77113 0
M  V30 5796 H 552.272 -3.92467 2.03525 0
M  V30 5797 N 551.331 -1.39911 -0.725443 0
M  V30 5798 C 552.241 -1.41688 -1.8698 0
M  V30 5799 C 553.257 -0.310579 -1.71206 0
M  V30 5800 O 554.433 -0.55359 -1.93642 0
M  V30 5801 C 551.498 -1.26811 -3.22676 0
M  V30 5802 C 550.559 -2.47497 -3.50776 0
M  V30 5803 C 549.792 -2.3332 -4.79997 0
M  V30 5804 O 550.015 -1.34175 -5.54394 0
M  V30 5805 O 548.949 -3.22498 -5.08211 0
M  V30 5806 H 552.775 -2.38171 -1.88436 0
M  V30 5807 H 550.36 -1.21128 -0.874548 0
M  V30 5808 H 552.242 -1.20684 -4.03749 0
M  V30 5809 H 550.917 -0.334289 -3.21969 0
M  V30 5810 H 549.824 -2.59201 -2.69751 0
M  V30 5811 H 551.157 -3.39606 -3.5627 0
M  V30 5812 N 552.809 0.956637 -1.25245 0
M  V30 5813 C 553.739 2.07058 -1.07931 0
M  V30 5814 C 554.72 1.70096 0.0110361 0
M  V30 5815 O 555.905 1.93555 -0.158121 0
M  V30 5816 C 553.035 3.40272 -0.695124 0
M  V30 5817 C 551.989 3.91235 -1.73549 0
M  V30 5818 C 551.315 5.20921 -1.20604 0
M  V30 5819 C 552.615 4.17837 -3.13385 0
M  V30 5820 H 554.309 2.218 -2.01109 0
M  V30 5821 H 551.855 1.06581 -0.968326 0
M  V30 5822 H 553.808 4.1765 -0.560949 0
M  V30 5823 H 552.532 3.25462 0.272355 0
M  V30 5824 H 551.191 3.16025 -1.85807 0
M  V30 5825 H 550.839 5.02479 -0.228846 0
M  V30 5826 H 550.539 5.55987 -1.90136 0
M  V30 5827 H 552.063 6.00897 -1.08421 0
M  V30 5828 H 553.477 4.8588 -3.04292 0
M  V30 5829 H 551.874 4.64154 -3.80369 0
M  V30 5830 H 552.944 3.2419 -3.60595 0
M  V30 5831 N 554.287 1.06798 1.15896 0
M  V30 5832 C 555.536 0.782796 1.8589 0
M  V30 5833 C 555.849 -0.693498 1.82893 0
M  V30 5834 O 557.055 -1.09325 2.48516 0
M  V30 5835 C 555.511 1.3502 3.33613 0
M  V30 5836 C 555.119 2.8571 3.45071 0
M  V30 5837 C 556.863 1.14278 4.08829 0
M  V30 5838 C 554.77 3.35669 4.86909 0
M  V30 5839 H 553.7 0.289149 0.696354 0
M  V30 5840 H 556.351 1.28734 1.30766 0
M  V30 5841 H 554.733 0.773407 3.88374 0
M  V30 5842 H 555.907 3.49385 3.00445 0
M  V30 5843 H 554.222 3.05178 2.83294 0
M  V30 5844 H 556.819 1.49087 5.13495 0
M  V30 5845 H 557.162 0.0814575 4.1622 0
M  V30 5846 H 557.695 1.68563 3.60321 0
M  V30 5847 H 554.434 4.41302 4.84698 0
M  V30 5848 H 553.954 2.76745 5.32139 0
M  V30 5849 H 555.633 3.31296 5.55745 0
M  V30 5850 N 555.766 -1.3263 0.851289 0
M  V30 5851 C 556.713 -2.28952 0.291469 0
M  V30 5852 C 557.683 -1.54897 -0.599676 0
M  V30 5853 O 558.868 -1.83137 -0.535305 0
M  V30 5854 C 556.008 -3.41206 -0.516992 0
M  V30 5855 C 555.121 -4.30148 0.399566 0
M  V30 5856 C 554.256 -5.29527 -0.4212 0
M  V30 5857 C 553.295 -6.10112 0.492969 0
M  V30 5858 N 552.432 -7.01499 -0.290414 0
M  V30 5859 H 557.272 -2.76228 1.11813 0
M  V30 5860 H 554.809 -1.35907 0.562826 0
M  V30 5861 H 556.767 -4.05005 -1.00132 0
M  V30 5862 H 555.397 -2.9509 -1.30851 0
M  V30 5863 H 554.449 -3.66959 1.00227 0
M  V30 5864 H 555.761 -4.8649 1.1013 0
M  V30 5865 H 554.915 -5.98914 -0.968832 0
M  V30 5866 H 553.654 -4.73794 -1.15632 0
M  V30 5867 H 552.659 -5.39632 1.05251 0
M  V30 5868 H 553.884 -6.6793 1.22664 0
M  V30 5869 H 551.83 -6.48199 -1.00868 0
M  V30 5870 H 551.747 -7.55178 0.352354 0
M  V30 5871 H 553.015 -7.75176 -0.819882 0
M  V30 5872 N 557.244 -0.608902 -1.45362 0
M  V30 5873 C 558.655 -0.189511 -1.85736 0
M  V30 5874 C 559.006 1.2539 -1.50903 0
M  V30 5875 O 558.131 1.95094 -0.936347 0
M  V30 5876 C 558.726 -0.33716 -3.37118 0
M  V30 5877 C 557.285 0.0275487 -3.7639 0
M  V30 5878 C 556.432 -0.660983 -2.69307 0
M  V30 5879 H 559.383 -0.815499 -1.36144 0
M  V30 5880 H 559.404 0.430257 -3.7806 0
M  V30 5881 H 558.916 -1.38779 -3.62439 0
M  V30 5882 H 557.017 1.0773 -3.56686 0
M  V30 5883 H 557.13 -0.367018 -4.77692 0
M  V30 5884 H 555.494 -0.0984958 -2.54509 0
M  V30 5885 H 556.277 -1.71377 -2.97464 0
M  V30 5886 N 558.722 1.53707 -0.348139 0
M  V30 5887 C 559.968 2.01286 0.247332 0
M  V30 5888 C 560.301 1.23546 1.49834 0
M  V30 5889 O 559.576 0.324331 1.91777 0
M  V30 5890 C 559.859 3.55768 0.556858 0
M  V30 5891 C 559.712 4.44216 -0.706564 0
M  V30 5892 C 561.031 4.1841 1.3646 0
M  V30 5893 H 558.15 0.731677 0.0884201 0
M  V30 5894 H 560.792 1.84106 -0.469584 0
M  V30 5895 H 558.942 3.70539 1.16761 0
M  V30 5896 H 560.614 4.41274 -1.34444 0
M  V30 5897 H 558.857 4.12892 -1.33052 0
M  V30 5898 H 559.528 5.50202 -0.445186 0
M  V30 5899 H 562.004 4.07365 0.848113 0
M  V30 5900 H 560.88 5.26563 1.54992 0
M  V30 5901 H 561.141 3.7333 2.36805 0
M  V30 5902 N 560.2 0.0768682 1.57412 0
M  V30 5903 C 561.163 -0.873949 2.11884 0
M  V30 5904 C 562.163 -1.22301 1.04398 0
M  V30 5905 O 563.353 -1.15545 1.30365 0
M  V30 5906 C 560.485 -2.17575 2.62438 0
M  V30 5907 H 561.678 -0.401278 2.97203 0
M  V30 5908 H 559.231 -0.171904 1.55352 0
M  V30 5909 H 559.966 -2.69368 1.80587 0
M  V30 5910 H 559.751 -1.93534 3.41009 0
M  V30 5911 H 561.241 -2.85631 3.04639 0
M  V30 5912 N 561.678 -1.56367 -0.196722 0
M  V30 5913 C 562.608 -1.97442 -1.24655 0
M  V30 5914 C 563.589 -0.846147 -1.47561 0
M  V30 5915 O 564.774 -1.11035 -1.59326 0
M  V30 5916 C 561.904 -2.31253 -2.59112 0
M  V30 5917 C 560.858 -3.46804 -2.50821 0
M  V30 5918 C 560.184 -3.66286 -3.89536 0
M  V30 5919 C 561.484 -4.8104 -2.03465 0
M  V30 5920 H 563.178 -2.85388 -0.905216 0
M  V30 5921 H 560.724 -1.37304 -0.434002 0
M  V30 5922 H 562.677 -2.58583 -3.32736 0
M  V30 5923 H 561.401 -1.40188 -2.94983 0
M  V30 5924 H 560.06 -3.19563 -1.79653 0
M  V30 5925 H 559.708 -2.72555 -4.22756 0
M  V30 5926 H 559.408 -4.4402 -3.84864 0
M  V30 5927 H 560.932 -3.9599 -4.64784 0
M  V30 5928 H 562.346 -5.07411 -2.66846 0
M  V30 5929 H 560.743 -5.62232 -2.09798 0
M  V30 5930 H 561.813 -4.74732 -0.98781 0
M  V30 5931 N 563.156 0.464375 -1.50603 0
M  V30 5932 C 564.066 1.58723 -1.72754 0
M  V30 5933 C 565.082 1.62925 -0.610844 0
M  V30 5934 O 566.258 1.8067 -0.889963 0
M  V30 5935 C 563.323 2.94897 -1.82309 0
M  V30 5936 C 562.384 3.0103 -3.06071 0
M  V30 5937 C 561.617 4.30708 -3.1516 0
M  V30 5938 O 561.84 5.2159 -2.30868 0
M  V30 5939 O 560.774 4.42571 -4.0794 0
M  V30 5940 H 564.6 1.42954 -2.67951 0
M  V30 5941 H 562.185 0.644579 -1.3478 0
M  V30 5942 H 564.067 3.75764 -1.90735 0
M  V30 5943 H 562.742 3.10851 -0.902967 0
M  V30 5944 H 561.649 2.19217 -3.03142 0
M  V30 5945 H 562.982 2.90014 -3.97684 0
M  V30 5946 N 564.634 1.40294 0.718013 0
M  V30 5947 C 565.544 1.42678 1.86226 0
M  V30 5948 C 566.56 0.319655 1.71039 0
M  V30 5949 O 567.736 0.563852 1.93346 0
M  V30 5950 C 564.801 1.2852 3.21999 0
M  V30 5951 C 563.862 2.49354 3.49458 0
M  V30 5952 C 563.095 2.35863 4.78753 0
M  V30 5953 O 563.318 1.37114 5.53675 0
M  V30 5954 O 562.252 3.25189 5.06494 0
M  V30 5955 H 566.078 2.39167 1.87171 0
M  V30 5956 H 563.663 1.2159 0.868112 0
M  V30 5957 H 565.545 1.22824 4.03103 0
M  V30 5958 H 564.22 0.351359 3.21787 0
M  V30 5959 H 563.127 2.60628 2.68373 0
M  V30 5960 H 564.46 3.41491 3.54464 0
M  V30 5961 N 566.112 -0.949982 1.2575 0
M  V30 5962 C 567.36 -1.6918 1.10555 0
M  V30 5963 C 567.681 -1.91773 -0.353298 0
M  V30 5964 O 566.951 -1.50814 -1.25027 0
M  V30 5965 H 565.531 -0.626952 0.406129 0
M  V30 5966 H 568.193 -1.1419 1.57945 0
M  V30 5967 H 567.289 -2.66915 1.61749 0
M  V30 5968 N 567.59 -1.07411 -1.15328 0
M  V30 5969 C 568.52 -0.716472 -2.22236 0
M  V30 5970 C 569.501 0.296373 -1.67498 0
M  V30 5971 O 570.686 0.168989 -1.93463 0
M  V30 5972 C 567.816 -0.114142 -3.47112 0
M  V30 5973 C 566.77 -1.05421 -4.14814 0
M  V30 5974 C 566.096 -0.314604 -5.33774 0
M  V30 5975 C 567.396 -2.38808 -4.64508 0
M  V30 5976 H 569.09 -1.61029 -2.52408 0
M  V30 5977 H 566.636 -0.775702 -1.21321 0
M  V30 5978 H 568.589 0.148001 -4.2114 0
M  V30 5979 H 567.313 0.814755 -3.16274 0
M  V30 5980 H 565.972 -1.30128 -3.42728 0
M  V30 5981 H 565.62 0.617772 -4.99192 0
M  V30 5982 H 565.32 -0.941209 -5.80013 0
M  V30 5983 H 566.844 -0.0602747 -6.1057 0
M  V30 5984 H 568.258 -2.18424 -5.3006 0
M  V30 5985 H 566.655 -2.97069 -5.21412 0
M  V30 5986 H 567.725 -3.01067 -3.80114 0
M  V30 5987 N 569.068 1.32177 -0.85831 0
M  V30 5988 C 570.484 1.49873 -0.548656 0
M  V30 5989 C 570.684 1.79278 0.919874 0
M  V30 5990 O 569.74 1.86451 1.70271 0
M  V30 5991 C 571.053 2.64043 -1.4388 0
M  V30 5992 C 572.601 2.77928 -1.43961 0
M  V30 5993 C 573.076 3.95182 -2.31506 0
M  V30 5994 N 574.567 4.0245 -2.29321 0
M  V30 5995 C 575.302 4.9242 -2.93786 0
M  V30 5996 N 574.798 5.87373 -3.67376 0
M  V30 5997 N 576.591 4.85572 -2.83155 0
M  V30 5998 H 568.742 1.11357 -1.80868 0
M  V30 5999 H 571.005 0.549175 -0.772729 0
M  V30 6000 H 570.711 2.49055 -2.48324 0
M  V30 6001 H 570.585 3.59912 -1.12885 0
M  V30 6002 H 572.972 2.92338 -0.402813 0
M  V30 6003 H 573.053 1.82762 -1.78974 0
M  V30 6004 H 572.697 3.81531 -3.35256 0
M  V30 6005 H 572.627 4.89633 -1.93823 0
M  V30 6006 H 575.118 3.34507 -1.75822 0
M  V30 6007 H 575.431 6.52728 -4.13722 0
M  V30 6008 H 573.776 5.87388 -3.71484 0
M  V30 6009 H 576.967 4.10363 -2.25211 0
M  V30 6010 H 577.14 5.55486 -3.33676 0
M  V30 6011 N 570.547 0.616602 1.45037 0
M  V30 6012 C 571.794 0.115331 2.02171 0
M  V30 6013 C 572.122 -1.25748 1.48383 0
M  V30 6014 O 571.377 -1.84511 0.652229 0
M  V30 6015 C 571.676 0.0356829 3.57382 0
M  V30 6016 C 571.342 1.34535 4.30362 0
M  V30 6017 C 570.004 1.70408 4.50016 0
M  V30 6018 C 572.356 2.21049 4.72003 0
M  V30 6019 C 569.684 2.92529 5.0857 0
M  V30 6020 C 572.036 3.42427 5.31908 0
M  V30 6021 C 570.7 3.78541 5.49784 0
M  V30 6022 H 569.97 0.0422024 0.739797 0
M  V30 6023 H 572.617 0.80002 1.73988 0
M  V30 6024 H 570.922 -0.732314 3.84895 0
M  V30 6025 H 572.619 -0.368463 3.99304 0
M  V30 6026 H 569.209 1.05615 4.15383 0
M  V30 6027 H 573.393 1.94632 4.56544 0
M  V30 6028 H 568.649 3.20605 5.20598 0
M  V30 6029 H 572.823 4.09709 5.63127 0
M  V30 6030 H 570.45 4.73255 5.94923 0
M  V30 6031 N 572.025 -1.5352 0.356285 0
M  V30 6032 C 572.988 -2.24071 -0.482182 0
M  V30 6033 C 573.988 -1.24531 -1.01729 0
M  V30 6034 O 575.178 -1.48876 -0.904513 0
M  V30 6035 C 572.31 -2.97025 -1.67299 0
M  V30 6036 H 573.503 -2.99596 0.135031 0
M  V30 6037 H 571.056 -1.55928 0.107825 0
M  V30 6038 H 571.791 -2.25719 -2.32855 0
M  V30 6039 H 571.576 -3.7005 -1.29636 0
M  V30 6040 H 573.066 -3.50683 -2.26741 0
M  V30 6041 N 573.503 -0.0852151 -1.57369 0
M  V30 6042 C 574.752 0.580443 -1.93168 0
M  V30 6043 C 575.065 1.6995 -0.968319 0
M  V30 6044 O 576.271 2.42564 -1.21963 0
M  V30 6045 C 574.727 1.08386 -3.43192 0
M  V30 6046 C 574.335 -0.00491388 -4.48 0
M  V30 6047 C 576.079 1.72281 -3.87968 0
M  V30 6048 C 573.986 0.513299 -5.89168 0
M  V30 6049 H 572.916 0.22059 -0.72101 0
M  V30 6050 H 575.567 -0.159621 -1.82804 0
M  V30 6051 H 573.949 1.8773 -3.48674 0
M  V30 6052 H 575.123 -0.780032 -4.5415 0
M  V30 6053 H 573.438 -0.548453 -4.12772 0
M  V30 6054 H 576.035 2.12108 -4.9083 0
M  V30 6055 H 576.378 2.58811 -3.26071 0
M  V30 6056 H 576.911 0.995359 -3.85146 0
M  V30 6057 H 573.65 -0.315153 -6.54742 0
M  V30 6058 H 573.17 1.25564 -5.8651 0
M  V30 6059 H 574.849 0.985433 -6.39451 0
M  V30 6060 N 574.981 1.5647 0.188427 0
M  V30 6061 C 576.397 1.50204 0.539532 0
M  V30 6062 C 576.597 0.78644 1.85519 0
M  V30 6063 O 575.653 0.339714 2.50204 0
M  V30 6064 C 576.966 2.94893 0.588103 0
M  V30 6065 C 578.514 3.05602 0.67648 0
M  V30 6066 C 578.989 4.51716 0.756101 0
M  V30 6067 N 580.48 4.55894 0.819451 0
M  V30 6068 C 581.215 5.66272 0.90134 0
M  V30 6069 N 580.711 6.86323 0.945118 0
M  V30 6070 N 582.504 5.54201 0.939043 0
M  V30 6071 H 574.655 2.01406 -0.674493 0
M  V30 6072 H 576.918 0.916828 -0.241103 0
M  V30 6073 H 576.624 3.50334 -0.309633 0
M  V30 6074 H 576.498 3.4861 1.44051 0
M  V30 6075 H 578.885 2.50206 1.56465 0
M  V30 6076 H 578.966 2.54999 -0.202262 0
M  V30 6077 H 578.61 5.07739 -0.12774 0
M  V30 6078 H 578.54 5.00058 1.65074 0
M  V30 6079 H 581.031 3.69452 0.794594 0
M  V30 6080 H 581.344 7.66194 1.0083 0
M  V30 6081 H 579.689 6.88968 0.913683 0
M  V30 6082 H 582.88 4.59333 0.901725 0
M  V30 6083 H 583.053 6.40247 0.999402 0
M  V30 6084 N 576.459 -0.456382 1.50847 0
M  V30 6085 C 577.369 -1.57805 1.73594 0
M  V30 6086 C 578.385 -1.62599 0.619476 0
M  V30 6087 O 579.561 -1.80195 0.899532 0
M  V30 6088 C 576.626 -2.93926 1.8387 0
M  V30 6089 C 575.687 -2.99402 3.07663 0
M  V30 6090 C 574.92 -4.29031 3.1744 0
M  V30 6091 O 575.143 -5.20358 2.33631 0
M  V30 6092 O 574.077 -4.40401 4.10281 0
M  V30 6093 H 577.903 -1.41531 2.68705 0
M  V30 6094 H 575.488 -0.637422 1.3512 0
M  V30 6095 H 577.37 -3.74747 1.92725 0
M  V30 6096 H 576.045 -3.10368 0.91944 0
M  V30 6097 H 574.952 -2.17606 3.043 0
M  V30 6098 H 576.285 -2.87901 3.99216 0
M  V30 6099 N 577.937 -1.40673 -0.710563 0
M  V30 6100 C 579.185 -1.38947 -1.46759 0
M  V30 6101 C 579.506 0.00572879 -1.94999 0
M  V30 6102 O 578.776 0.961358 -1.70689 0
M  V30 6103 H 577.356 -0.5114 -0.544499 0
M  V30 6104 H 580.018 -1.75773 -0.842012 0
M  V30 6105 H 579.114 -2.06745 -2.33801 0
M  V30 6106 N 579.415 0.9433 -1.26252 0
M  V30 6107 C 580.663 1.68592 -1.11451 0
M  V30 6108 C 580.984 1.91957 0.343123 0
M  V30 6109 O 580.254 1.51475 1.24226 0
M  V30 6110 H 578.834 0.624789 -0.409448 0
M  V30 6111 H 581.496 1.13351 -1.58548 0
M  V30 6112 H 580.592 2.66054 -1.63162 0
M  V30 6113 N 580.893 1.08022 1.14757 0
M  V30 6114 C 582.309 0.807072 1.3769 0
M  V30 6115 C 582.509 -0.585504 1.92806 0
M  V30 6116 O 581.565 -1.34301 2.13821 0
M  V30 6117 C 582.878 1.88651 2.34161 0
M  V30 6118 C 584.426 1.91206 2.47809 0
M  V30 6119 C 584.901 2.98253 3.47576 0
M  V30 6120 N 586.392 2.974 3.55117 0
M  V30 6121 C 587.127 3.76872 4.32152 0
M  V30 6122 N 586.623 4.66212 5.12463 0
M  V30 6123 N 588.416 3.6519 4.27309 0
M  V30 6124 H 580.567 1.97824 0.77326 0
M  V30 6125 H 582.83 0.85826 0.402608 0
M  V30 6126 H 582.536 2.88749 2.00791 0
M  V30 6127 H 582.41 1.75244 3.3402 0
M  V30 6128 H 584.797 0.917564 2.80472 0
M  V30 6129 H 584.878 2.08691 1.47925 0
M  V30 6130 H 584.522 3.97907 3.15646 0
M  V30 6131 H 584.452 2.78014 4.47231 0
M  V30 6132 H 586.943 2.32643 2.97801 0
M  V30 6133 H 587.256 5.23468 5.68508 0
M  V30 6134 H 585.601 4.70257 5.11745 0
M  V30 6135 H 588.792 2.94765 3.63636 0
M  V30 6136 H 588.965 4.27366 4.87095 0
M  V30 6137 N 582.371 -1.3172 0.865308 0
M  V30 6138 C 583.599 -2.01057 0.488251 0
M  V30 6139 C 584.014 -1.64979 -0.918 0
M  V30 6140 O 583.371 -0.876597 -1.60069 0
M  V30 6141 C 583.422 -3.55964 0.630224 0
M  V30 6142 O 583.143 -3.90749 1.98109 0
M  V30 6143 C 584.644 -4.42574 0.253567 0
M  V30 6144 H 581.864 -0.64332 0.190736 0
M  V30 6145 H 584.408 -1.68058 1.16519 0
M  V30 6146 H 582.563 -3.874 0.000895422 0
M  V30 6147 H 582.977 -4.85467 1.9855 0
M  V30 6148 H 584.451 -5.50521 0.403875 0
M  V30 6149 H 584.928 -4.31724 -0.806895 0
M  V30 6150 H 585.534 -4.16547 0.858404 0
M  V30 6151 N 583.85 -0.624285 -1.44708 0
M  V30 6152 C 585.096 -0.126237 -2.02407 0
M  V30 6153 C 585.428 1.24618 -1.48943 0
M  V30 6154 O 584.704 1.82569 -0.670742 0
M  V30 6155 C 584.986 -0.105449 -3.59946 0
M  V30 6156 C 584.84 -1.50972 -4.23707 0
M  V30 6157 C 586.159 0.573629 -4.36346 0
M  V30 6158 H 583.278 -0.0473472 -0.735478 0
M  V30 6159 H 585.92 -0.799452 -1.72362 0
M  V30 6160 H 584.07 0.46783 -3.85673 0
M  V30 6161 H 585.742 -2.13136 -4.0911 0
M  V30 6162 H 583.985 -2.0656 -3.81465 0
M  V30 6163 H 584.656 -1.44727 -5.32689 0
M  V30 6164 H 587.132 0.0861787 -4.16011 0
M  V30 6165 H 586.008 0.557338 -5.46063 0
M  V30 6166 H 586.269 1.64276 -4.10446 0
M  V30 6167 N 585.328 1.53329 -0.364422 0
M  V30 6168 C 586.576 2.00842 0.225189 0
M  V30 6169 C 586.897 1.25345 1.49378 0
M  V30 6170 O 586.167 0.366396 1.92443 0
M  V30 6171 H 584.747 0.742009 0.0862027 0
M  V30 6172 H 587.409 1.8863 -0.490389 0
M  V30 6173 H 586.505 3.08795 0.452987 0
M  V30 6174 N 586.806 0.0935595 1.57322 0
M  V30 6175 C 587.769 -0.851426 2.12799 0
M  V30 6176 C 588.769 -1.21187 1.0569 0
M  V30 6177 O 589.959 -1.14156 1.31583 0
M  V30 6178 C 587.091 -2.14779 2.64731 0
M  V30 6179 H 588.284 -0.369733 2.97612 0
M  V30 6180 H 585.837 -0.155417 1.55525 0
M  V30 6181 H 586.572 -2.67437 1.83434 0
M  V30 6182 H 586.357 -1.89907 3.43042 0
M  V30 6183 H 587.847 -2.82383 3.07651 0
M  V30 6184 N 588.284 -1.56567 -0.180126 0
M  V30 6185 C 589.532 -1.81133 -0.896392 0
M  V30 6186 C 589.853 -0.669114 -1.83161 0
M  V30 6187 O 589.123 0.311616 -1.93406 0
M  V30 6188 H 587.703 -0.668172 -0.333999 0
M  V30 6189 H 590.365 -1.94048 -0.182051 0
M  V30 6190 H 589.461 -2.74854 -1.47857 0
M  V30 6191 N 589.762 0.448376 -1.51087 0
M  V30 6192 C 591.008 1.20049 -1.6345 0
M  V30 6193 C 591.341 1.91121 -0.344444 0
M  V30 6194 O 590.616 1.83125 0.655396 0
M  V30 6195 C 590.899 2.22624 -2.83038 0
M  V30 6196 C 590.752 1.55708 -4.21989 0
M  V30 6197 C 592.071 3.23718 -2.98152 0
M  V30 6198 H 589.19 0.435085 -0.59487 0
M  V30 6199 H 591.832 0.491183 -1.83541 0
M  V30 6200 H 589.982 2.83117 -2.66039 0
M  V30 6201 H 591.654 0.986367 -4.50631 0
M  V30 6202 H 589.897 0.859647 -4.25197 0
M  V30 6203 H 590.568 2.30357 -5.01637 0
M  V30 6204 H 593.044 2.73269 -3.13788 0
M  V30 6205 H 591.92 3.92795 -3.83411 0
M  V30 6206 H 592.181 3.89179 -2.09743 0
M  V30 6207 N 591.24 1.41047 0.703093 0
M  V30 6208 C 592.486 1.40207 1.46526 0
M  V30 6209 C 592.819 0.00847763 1.94198 0
M  V30 6210 O 592.094 -0.962437 1.69019 0
M  V30 6211 C 592.377 2.40238 2.6825 0
M  V30 6212 C 592.23 3.88674 2.26391 0
M  V30 6213 C 593.549 2.37627 3.70434 0
M  V30 6214 H 590.668 0.510594 0.531472 0
M  V30 6215 H 593.31 1.72271 0.801422 0
M  V30 6216 H 591.46 2.13026 3.24888 0
M  V30 6217 H 593.132 4.2676 1.75138 0
M  V30 6218 H 591.375 4.03903 1.58255 0
M  V30 6219 H 592.046 4.542 3.13698 0
M  V30 6220 H 594.522 2.61759 3.23452 0
M  V30 6221 H 593.398 3.09645 4.53223 0
M  V30 6222 H 593.659 1.39223 4.19606 0
M  V30 6223 N 592.718 -0.936591 1.26751 0
M  V30 6224 C 593.946 -1.71758 1.15355 0
M  V30 6225 C 594.361 -1.86549 -0.290683 0
M  V30 6226 O 593.718 -1.37616 -1.19868 0
M  V30 6227 C 593.769 -3.12193 1.82258 0
M  V30 6228 O 593.49 -2.98105 3.21038 0
M  V30 6229 C 594.991 -4.06485 1.76875 0
M  V30 6230 H 592.211 -0.537636 0.401483 0
M  V30 6231 H 594.755 -1.17382 1.67457 0
M  V30 6232 H 592.91 -3.63456 1.34083 0
M  V30 6233 H 593.324 -3.86824 3.54214 0
M  V30 6234 H 594.798 -5.02569 2.28316 0
M  V30 6235 H 595.275 -4.32986 0.736216 0
M  V30 6236 H 595.881 -3.61144 2.24623 0
M  V30 6237 N 594.196 -1.08629 -1.14182 0
M  V30 6238 C 595.143 -0.718299 -2.19338 0
M  V30 6239 C 596.113 0.296587 -1.63431 0
M  V30 6240 O 597.298 0.180079 -1.89948 0
M  V30 6241 C 594.438 -0.136203 -3.44831 0
M  V30 6242 C 593.551 -1.20414 -4.14879 0
M  V30 6243 C 592.686 -0.585666 -5.27962 0
M  V30 6244 C 591.725 -1.63548 -5.89846 0
M  V30 6245 N 590.862 -1.03864 -6.94375 0
M  V30 6246 H 595.702 -1.61932 -2.50164 0
M  V30 6247 H 593.239 -0.80919 -1.22844 0
M  V30 6248 H 595.197 0.219021 -4.16625 0
M  V30 6249 H 593.827 0.728121 -3.14481 0
M  V30 6250 H 592.879 -1.67676 -3.41451 0
M  V30 6251 H 594.191 -1.99959 -4.56966 0
M  V30 6252 H 593.345 -0.178818 -6.06436 0
M  V30 6253 H 592.084 0.24142 -4.87102 0
M  V30 6254 H 591.089 -2.05197 -5.10073 0
M  V30 6255 H 592.314 -2.46509 -6.3278 0
M  V30 6256 H 590.26 -0.232687 -6.55587 0
M  V30 6257 H 590.177 -1.77116 -7.3496 0
M  V30 6258 H 591.445 -0.657724 -7.7672 0
M  V30 6259 N 595.674 1.31259 -0.872281 0
M  V30 6260 C 596.923 1.95893 -0.480493 0
M  V30 6261 C 597.236 1.697 0.972688 0
M  V30 6262 O 598.442 2.28214 1.47073 0
M  V30 6263 C 596.898 3.50705 -0.808342 0
M  V30 6264 C 596.506 3.85735 -2.27844 0
M  V30 6265 C 598.25 4.21719 -0.485136 0
M  V30 6266 C 596.157 5.33668 -2.54858 0
M  V30 6267 H 595.087 0.733182 -0.175955 0
M  V30 6268 H 597.738 1.49396 -1.0655 0
M  V30 6269 H 596.12 3.95706 -0.152558 0
M  V30 6270 H 597.294 3.51686 -2.97748 0
M  V30 6271 H 595.609 3.27792 -2.56791 0
M  V30 6272 H 598.206 5.30559 -0.664166 0
M  V30 6273 H 598.549 4.12316 0.574592 0
M  V30 6274 H 599.082 3.82359 -1.09756 0
M  V30 6275 H 595.821 5.48109 -3.59523 0
M  V30 6276 H 595.341 5.69061 -1.8955 0
M  V30 6277 H 597.02 6.00958 -2.39706 0
M  V30 6278 N 597.152 0.631951 1.44375 0
M  V30 6279 C 598.082 -0.0593243 2.33425 0
M  V30 6280 C 599.063 -0.833964 1.48253 0
M  V30 6281 O 600.248 -0.799682 1.76971 0
M  V30 6282 C 597.378 -1.04096 3.31333 0
M  V30 6283 C 596.332 -0.377899 4.26328 0
M  V30 6284 C 595.658 -1.4695 5.14111 0
M  V30 6285 C 596.958 0.716371 5.17364 0
M  V30 6286 H 598.652 0.684287 2.91475 0
M  V30 6287 H 596.198 0.330518 1.40156 0
M  V30 6288 H 598.151 -1.53331 3.92514 0
M  V30 6289 H 596.875 -1.81547 2.71493 0
M  V30 6290 H 595.534 0.0938054 3.6648 0
M  V30 6291 H 595.182 -2.2349 4.50623 0
M  V30 6292 H 594.882 -1.03121 5.78481 0
M  V30 6293 H 596.406 -1.96363 5.78164 0
M  V30 6294 H 597.82 0.307089 5.72477 0
M  V30 6295 H 596.217 1.07784 5.90341 0
M  V30 6296 H 597.287 1.58316 4.58327 0
M  V30 6297 N 598.631 -1.53133 0.372548 0
M  V30 6298 C 599.541 -2.29671 -0.478379 0
M  V30 6299 C 600.557 -1.35913 -1.08644 0
M  V30 6300 O 601.733 -1.68975 -1.09588 0
M  V30 6301 C 598.798 -3.07625 -1.599 0
M  V30 6302 C 597.859 -4.17061 -1.01776 0
M  V30 6303 C 597.092 -4.91289 -2.08497 0
M  V30 6304 O 597.315 -4.65442 -3.29727 0
M  V30 6305 O 596.249 -5.7705 -1.71164 0
M  V30 6306 H 600.075 -3.03355 0.144649 0
M  V30 6307 H 597.66 -1.48773 0.136729 0
M  V30 6308 H 599.542 -3.56281 -2.25038 0
M  V30 6309 H 598.217 -2.3677 -2.2073 0
M  V30 6310 H 597.124 -3.72641 -0.330098 0
M  V30 6311 H 598.457 -4.90102 -0.453915 0
M  V30 6312 O 600.148 -0.242051 -1.59676 0
M  V30 6313 H 600.839 0.334494 -1.9079 0
M  V30 END ATOM
M  V30 BEGIN BOND
M  V30 END BOND
M  V30 END CTAB
M  END
$$$$
