drugbank_target|P9WI81 Serine/threonine-protein kinase PknB (DB02930; DB03909; DB12010)
 OpenBabel12092119563D

  0  0  0     0  0            999 V3000
M  V30 BEGIN CTAB
M  V30 COUNTS 9329 9419 0 0 0
M  V30 BEGIN ATOM
M  V30 1 H -0.908 1.98254 -0.117106 0
M  V30 2 N 0 1.576 0 0
M  V30 3 C 0.933 2.03868 1.02534 0
M  V30 4 C 1.911 0.928543 1.3348 0
M  V30 5 O 3.095 1.19667 1.45644 0
M  V30 6 C 0.222 2.43627 2.35294 0
M  V30 7 C -0.732 3.65373 2.2001 0
M  V30 8 S 0.101 5.13292 1.52614 0
M  V30 9 C 1.257 5.56322 2.86805 0
M  V30 10 H 1.49 2.90518 0.631377 0
M  V30 11 H -0.977 1.52953 0.210867 0
M  V30 12 H 0.981 2.67203 3.11629 0
M  V30 13 H -0.358 1.57376 2.7183 0
M  V30 14 H -1.165 3.90944 3.18086 0
M  V30 15 H -1.563 3.418 1.51819 0
M  V30 16 H 0.729 5.58782 3.83104 0
M  V30 17 H 1.672 6.56266 2.65933 0
M  V30 18 H 2.08 4.83886 2.90714 0
M  V30 19 N 1.4781 -0.272755 1.55222 0
M  V30 20 C 2.7061 -1.02255 1.79865 0
M  V30 21 C 3.1211 -1.79924 0.572088 0
M  V30 22 O 2.4781 -1.76638 -0.458842 0
M  V30 23 C 2.5291 -1.98094 3.02392 0
M  V30 24 O 2.2501 -1.23572 4.20311 0
M  V30 25 C 3.7511 -2.84884 3.39641 0
M  V30 26 H 0.9711 -0.302057 0.599168 0
M  V30 27 H 3.5151 -0.303465 2.02236 0
M  V30 28 H 1.6701 -2.65465 2.82147 0
M  V30 29 H 2.0841 -1.88172 4.89583 0
M  V30 30 H 3.5581 -3.47927 4.28545 0
M  V30 31 H 4.0351 -3.54665 2.59055 0
M  V30 32 H 4.6411 -2.23003 3.62146 0
M  V30 33 N 2.9562 -1.48159 -0.537278 0
M  V30 34 C 4.1842 -1.59454 -1.31841 0
M  V30 35 C 4.5992 -0.252065 -1.8711 0
M  V30 36 O 3.9562 0.757621 -1.66031 0
M  V30 37 C 4.0072 -2.63546 -2.47439 0
M  V30 38 O 3.7282 -3.92583 -1.94449 0
M  V30 39 C 5.2292 -2.85212 -3.39366 0
M  V30 40 H 2.4492 -0.53785 -0.401196 0
M  V30 41 H 4.9932 -1.93932 -0.648891 0
M  V30 42 H 3.1482 -2.31946 -3.1029 0
M  V30 43 H 3.5622 -4.49629 -2.70063 0
M  V30 44 H 5.0362 -3.61863 -4.16844 0
M  V30 45 H 5.5132 -1.93765 -3.94147 0
M  V30 46 H 6.1192 -3.18086 -2.82314 0
M  V30 47 N 4.4343 0.785586 -1.36625 0
M  V30 48 C 5.8453 1.36101 -1.27803 0
M  V30 49 C 6.1963 1.96035 0.0804875 0
M  V30 50 O 5.3213 1.92834 0.982042 0
M  V30 51 C 5.9163 2.47442 -2.31426 0
M  V30 52 C 4.4753 3.00789 -2.26281 0
M  V30 53 C 3.6223 1.73896 -2.15999 0
M  V30 54 H 6.5733 0.586928 -1.47448 0
M  V30 55 H 6.5943 3.2656 -1.95291 0
M  V30 56 H 6.1063 2.03791 -3.30289 0
M  V30 57 H 4.2073 3.48851 -1.30896 0
M  V30 58 H 4.3203 3.57343 -3.19128 0
M  V30 59 H 2.6843 1.9628 -1.62316 0
M  V30 60 H 3.4673 1.32368 -3.16755 0
M  V30 61 N 5.9124 1.20967 1.01018 0
M  V30 62 C 7.1374 1.0503 1.78839 0
M  V30 63 C 7.5624 -0.395752 1.8389 0
M  V30 64 O 6.9204 -1.28529 1.27867 0
M  V30 65 C 6.9684 1.64602 3.2084 0
M  V30 66 O 6.0724 0.887988 4.02726 0
M  V30 67 H 5.4134 0.369987 0.551367 0
M  V30 68 H 7.9434 1.60399 1.27018 0
M  V30 69 H 7.9534 1.68607 3.71532 0
M  V30 70 H 6.6284 2.69841 3.16479 0
M  V30 71 H 5.2054 0.922648 3.61305 0
M  V30 72 N 7.3905 -1.2043 1.01659 0
M  V30 73 C 8.3405 -2.21076 0.557623 0
M  V30 74 C 9.3245 -1.56176 -0.387029 0
M  V30 75 O 10.5165 -1.7575 -0.209996 0
M  V30 76 C 7.6455 -3.43146 -0.102707 0
M  V30 77 C 6.7315 -4.15213 0.863652 0
M  V30 78 N 7.1225 -4.63662 2.02117 0
M  V30 79 C 5.4205 -4.40716 0.684472 0
M  V30 80 C 6.1215 -5.18868 2.62966 0
M  V30 81 N 5.0975 -5.0893 1.91027 0
M  V30 82 H 8.8995 -2.56201 1.44008 0
M  V30 83 H 6.4135 -1.36366 0.881931 0
M  V30 84 H 8.4105 -4.14475 -0.449054 0
M  V30 85 H 7.0705 -3.09526 -0.981003 0
M  V30 86 H 8.0815 -4.58877 2.40109 0
M  V30 87 H 4.7585 -4.17245 -0.14577 0
M  V30 88 H 6.1485 -5.6673 3.60924 0
M  V30 89 N 8.8686 -0.792821 -1.36206 0
M  V30 90 C 9.7986 -0.207853 -2.32573 0
M  V30 91 C 10.7796 0.659055 -1.56813 0
M  V30 92 O 11.9646 0.592176 -1.84951 0
M  V30 93 C 9.0946 0.655449 -3.41059 0
M  V30 94 C 8.0486 -0.111842 -4.27854 0
M  V30 95 C 7.3746 0.872274 -5.27537 0
M  V30 96 C 8.6746 -1.30299 -5.05786 0
M  V30 97 H 10.3686 -1.01294 -2.81744 0
M  V30 98 H 7.9146 -0.48854 -1.3546 0
M  V30 99 H 9.8676 1.07464 -4.07467 0
M  V30 100 H 8.5916 1.49328 -2.90463 0
M  V30 101 H 7.2506 -0.512053 -3.63006 0
M  V30 102 H 6.8986 1.70523 -4.73214 0
M  V30 103 H 6.5986 0.363291 -5.86476 0
M  V30 104 H 8.1226 1.28996 -5.96818 0
M  V30 105 H 9.5366 -0.959379 -5.65216 0
M  V30 106 H 7.9336 -1.7455 -5.74154 0
M  V30 107 H 9.0036 -2.09663 -4.37229 0
M  V30 108 N 10.3467 1.47872 -0.545128 0
M  V30 109 C 11.5717 2.07391 -0.0190611 0
M  V30 110 C 11.9967 1.39688 1.25971 0
M  V30 111 O 11.3547 0.467816 1.7516 0
M  V30 112 C 11.4027 3.60188 0.172335 0
M  V30 113 O 10.5067 3.9339 1.23766 0
M  V30 114 H 9.8477 0.662411 -0.0459059 0
M  V30 115 H 12.3777 1.90066 -0.757365 0
M  V30 116 H 12.3877 4.06129 0.390305 0
M  V30 117 H 11.0627 4.08865 -0.761725 0
M  V30 118 H 9.6397 3.5921 1.00114 0
M  V30 119 N 11.8248 0.280983 1.55075 0
M  V30 120 C 13.1018 -0.386207 1.91749 0
M  V30 121 C 13.4818 -1.73264 1.20594 0
M  V30 122 O 12.8298 -2.26034 0.334784 0
M  V30 123 C 13.0398 -0.520687 3.45094 0
M  V30 124 C 14.3878 -0.800865 4.16979 0
M  V30 125 O 15.4118 -0.605271 3.5102 0
M  V30 126 O 14.2708 -1.1753 5.33712 0
M  V30 127 H 11.3648 -0.212408 0.799257 0
M  V30 128 H 13.9108 0.327568 1.66509 0
M  V30 129 H 12.6828 0.426633 3.88967 0
M  V30 130 H 12.3058 -1.2837 3.76307 0
M  V30 131 N 13.3029 -1.57598 0.00835791 0
M  V30 132 C 14.7189 -1.55764 -0.347822 0
M  V30 133 C 14.9189 -1.01186 -1.74252 0
M  V30 134 O 13.9749 -0.649371 -2.44007 0
M  V30 135 C 15.2879 -2.99927 -0.215407 0
M  V30 136 C 16.8359 -3.11656 -0.289725 0
M  V30 137 C 17.3109 -4.57621 -0.18634 0
M  V30 138 N 18.8019 -4.62557 -0.243978 0
M  V30 139 C 19.5369 -5.73094 -0.18745 0
M  V30 140 N 19.0329 -6.92753 -0.0810331 0
M  V30 141 N 20.8259 -5.61588 -0.239925 0
M  V30 142 H 12.9769 -1.91411 0.92062 0
M  V30 143 H 15.2399 -0.879562 0.353659 0
M  V30 144 H 14.9459 -3.43729 0.744512 0
M  V30 145 H 14.8199 -3.63865 -0.994097 0
M  V30 146 H 17.2069 -2.67779 -1.24009 0
M  V30 147 H 17.2879 -2.5048 0.51898 0
M  V30 148 H 16.9319 -5.02174 0.760519 0
M  V30 149 H 16.8619 -5.16752 -1.01364 0
M  V30 150 H 19.3529 -3.76481 -0.327217 0
M  V30 151 H 19.6659 -7.72787 -0.0440241 0
M  V30 152 H 18.0109 -6.94984 -0.0465419 0
M  V30 153 H 21.2019 -4.66996 -0.321317 0
M  V30 154 H 21.3749 -6.47714 -0.192407 0
M  V30 155 N 14.781 0.264519 -1.55364 0
M  V30 156 C 16.011 1.01153 -1.80143 0
M  V30 157 C 16.419 1.80115 -0.579253 0
M  V30 158 O 15.762 1.77813 0.46132 0
M  V30 159 C 15.824 2.01098 -2.97993 0
M  V30 160 C 15.488 1.40995 -4.34706 0
M  V30 161 C 16.485 0.821316 -5.13372 0
M  V30 162 C 14.17 1.43461 -4.81378 0
M  V30 163 C 16.164 0.265339 -6.36847 0
M  V30 164 C 13.851 0.874771 -6.04807 0
M  V30 165 C 14.849 0.291146 -6.82379 0
M  V30 166 O 14.537 -0.260093 -8.03479 0
M  V30 167 H 14.269 0.304125 -0.603725 0
M  V30 168 H 16.823 0.298089 -2.03225 0
M  V30 169 H 15.053 2.76224 -2.70623 0
M  V30 170 H 16.742 2.61997 -3.1002 0
M  V30 171 H 17.508 0.794903 -4.78442 0
M  V30 172 H 13.387 1.87826 -4.21002 0
M  V30 173 H 16.931 -0.190837 -6.97339 0
M  V30 174 H 12.828 0.898452 -6.39217 0
M  V30 175 H 13.596 -0.150265 -8.18362 0
M  V30 176 N 16.2591 1.48442 0.529413 0
M  V30 177 C 17.1691 1.6569 1.66084 0
M  V30 178 C 18.1851 0.539432 1.65427 0
M  V30 179 O 19.3611 0.810572 1.84368 0
M  V30 180 C 16.4261 1.69315 3.02545 0
M  V30 181 C 15.4871 2.92694 3.14052 0
M  V30 182 C 14.7201 2.96137 4.44003 0
M  V30 183 O 14.9431 2.07973 5.31134 0
M  V30 184 O 13.8771 3.88312 4.59888 0
M  V30 185 H 17.7031 2.61483 1.54469 0
M  V30 186 H 15.2881 1.3185 0.702567 0
M  V30 187 H 17.1701 1.74217 3.83701 0
M  V30 188 H 15.8451 0.766966 3.14483 0
M  V30 189 H 14.7521 2.93324 2.32189 0
M  V30 190 H 16.0851 3.84699 3.0703 0
M  V30 191 N 17.7372 -0.778329 1.37039 0
M  V30 192 C 18.6672 -1.90546 1.34962 0
M  V30 193 C 19.6482 -1.68681 0.219274 0
M  V30 194 O 20.8332 -1.89634 0.418624 0
M  V30 195 C 17.9632 -3.27734 1.14925 0
M  V30 196 C 16.9172 -3.64147 2.24902 0
M  V30 197 C 16.2432 -4.99806 1.89996 0
M  V30 198 C 17.5432 -3.71579 3.67051 0
M  V30 199 H 19.2372 -1.92541 2.29277 0
M  V30 200 H 16.7832 -0.924948 1.10366 0
M  V30 201 H 18.7362 -4.06215 1.12104 0
M  V30 202 H 17.4602 -3.26154 0.170631 0
M  V30 203 H 16.1192 -2.8797 2.26868 0
M  V30 204 H 15.7672 -4.94759 0.906796 0
M  V30 205 H 15.4672 -5.25139 2.63634 0
M  V30 206 H 16.9912 -5.80694 1.88749 0
M  V30 207 H 18.4052 -4.40227 3.67251 0
M  V30 208 H 16.8022 -4.08405 4.39688 0
M  V30 209 H 17.8722 -2.72404 4.01154 0
M  V30 210 N 19.2153 -1.21501 -1.00376 0
M  V30 211 C 20.4633 -1.03095 -1.73827 0
M  V30 212 C 20.7843 0.436341 -1.90055 0
M  V30 213 O 20.0543 1.31466 -1.45236 0
M  V30 214 H 18.6343 -0.378487 -0.644016 0
M  V30 215 H 21.2963 -1.52831 -1.20949 0
M  V30 216 H 20.3923 -1.49991 -2.73695 0
M  V30 217 N 20.6934 1.19889 -1.02296 0
M  V30 218 C 21.6034 2.26571 -0.608508 0
M  V30 219 C 22.6194 1.70299 0.356964 0
M  V30 220 O 23.7954 2.00235 0.216326 0
M  V30 221 C 20.8604 3.46677 0.0402814 0
M  V30 222 C 19.9214 4.18153 -0.97194 0
M  V30 223 C 19.1544 5.32525 -0.354016 0
M  V30 224 O 19.3774 5.64112 0.844604 0
M  V30 225 O 18.3114 5.92242 -1.07391 0
M  V30 226 H 22.1374 2.64251 -1.49684 0
M  V30 227 H 19.7224 1.26629 -0.792809 0
M  V30 228 H 21.6044 4.19475 0.402324 0
M  V30 229 H 20.2794 3.10858 0.902707 0
M  V30 230 H 19.1864 3.47499 -1.38546 0
M  V30 231 H 20.5194 4.57927 -1.80454 0
M  V30 232 N 22.1715 0.800033 1.35784 0
M  V30 233 C 23.4205 0.37387 1.98205 0
M  V30 234 C 23.7335 -1.06302 1.64193 0
M  V30 235 O 24.9395 -1.59198 2.19928 0
M  V30 236 C 23.3955 0.617532 3.54562 0
M  V30 237 C 23.0035 2.06654 3.9749 0
M  V30 238 C 24.7475 0.256401 4.23725 0
M  V30 239 C 22.6545 2.2563 5.46667 0
M  V30 240 H 21.5845 0.136055 0.741623 0
M  V30 241 H 24.2355 0.983166 1.54939 0
M  V30 242 H 22.6175 -0.0616248 3.95952 0
M  V30 243 H 23.7915 2.78296 3.67271 0
M  V30 244 H 22.1065 2.38691 3.41197 0
M  V30 245 H 24.7035 0.376318 5.33374 0
M  V30 246 H 25.0465 -0.796692 4.08606 0
M  V30 247 H 25.5795 0.889214 3.87734 0
M  V30 248 H 22.3185 3.2936 5.66747 0
M  V30 249 H 21.8385 1.58504 5.78478 0
M  V30 250 H 23.5175 2.06861 6.1304 0
M  V30 251 N 23.6496 -1.47581 0.552962 0
M  V30 252 C 24.5796 -2.32762 -0.185451 0
M  V30 253 C 25.5606 -1.43527 -0.912905 0
M  V30 254 O 26.7456 -1.72388 -0.894201 0
M  V30 255 C 23.8756 -3.25219 -1.21859 0
M  V30 256 C 22.8296 -4.23661 -0.607864 0
M  V30 257 C 22.1556 -5.05413 -1.74533 0
M  V30 258 C 23.4556 -5.20481 0.435582 0
M  V30 259 H 25.1496 -2.94749 0.525684 0
M  V30 260 H 22.6956 -1.41738 0.254251 0
M  V30 261 H 24.6486 -3.8365 -1.7433 0
M  V30 262 H 23.3726 -2.61279 -1.95961 0
M  V30 263 H 22.0316 -3.66451 -0.104489 0
M  V30 264 H 21.6796 -4.3788 -2.47529 0
M  V30 265 H 21.3796 -5.72059 -1.34249 0
M  V30 266 H 22.9036 -5.66701 -2.27338 0
M  V30 267 H 24.3176 -5.733 -0.00290157 0
M  V30 268 H 22.7146 -5.95305 0.757067 0
M  V30 269 H 23.7846 -4.66217 1.33303 0
M  V30 270 N 25.1277 -0.289203 -1.54924 0
M  V30 271 C 26.3757 0.322879 -1.99504 0
M  V30 272 C 26.6967 1.55313 -1.1791 0
M  V30 273 O 25.9667 1.94001 -0.272097 0
M  V30 274 H 24.5467 0.122291 -0.736922 0
M  V30 275 H 27.2087 -0.397802 -1.90797 0
M  V30 276 H 26.3047 0.603061 -3.06218 0
M  V30 277 N 26.6058 1.57591 -0.0167156 0
M  V30 278 C 27.8528 1.91283 0.664597 0
M  V30 279 C 28.1808 0.891949 1.72842 0
M  V30 280 O 27.4358 -0.100931 1.9544 0
M  V30 281 C 27.7348 3.3172 1.33029 0
M  V30 282 C 27.4008 4.4914 0.398047 0
M  V30 283 C 26.0628 4.80992 0.141421 0
M  V30 284 C 28.4148 5.20634 -0.242825 0
M  V30 285 C 25.7428 5.81703 -0.764092 0
M  V30 286 C 28.0948 6.22311 -1.13632 0
M  V30 287 C 26.7588 6.52611 -1.40196 0
M  V30 288 H 26.0288 0.699956 0.243193 0
M  V30 289 H 28.6758 1.9135 -0.0758267 0
M  V30 290 H 26.9808 3.27856 2.14517 0
M  V30 291 H 28.6778 3.55055 1.86379 0
M  V30 292 H 25.2678 4.24262 0.608238 0
M  V30 293 H 29.4518 4.96267 -0.0576019 0
M  V30 294 H 24.7078 6.03532 -0.977732 0
M  V30 295 H 28.8818 6.76834 -1.63917 0
M  V30 296 H 26.5088 7.30467 -2.10529 0
M  V30 297 N 28.0839 -0.256276 1.55502 0
M  V30 298 C 29.3319 -0.983672 1.76545 0
M  V30 299 C 29.6529 -1.86206 0.578982 0
M  V30 300 O 28.9229 -1.91656 -0.405577 0
M  V30 301 H 27.5029 -0.366191 0.651086 0
M  V30 302 H 30.1649 -0.276479 1.92929 0
M  V30 303 H 29.2609 -1.61087 2.67315 0
M  V30 304 N 29.562 -1.4872 -0.521534 0
M  V30 305 C 30.81 -1.56857 -1.27437 0
M  V30 306 C 31.131 -0.247982 -1.93417 0
M  V30 307 O 30.401 0.731151 -1.81744 0
M  V30 308 H 28.981 -0.577885 -0.473347 0
M  V30 309 H 31.643 -1.85233 -0.606205 0
M  V30 310 H 30.739 -2.35402 -2.0492 0
M  V30 311 N 31.0401 0.771051 -1.3745 0
M  V30 312 C 31.9731 1.89166 -1.27638 0
M  V30 313 C 32.9511 1.61842 -0.156782 0
M  V30 314 O 34.1351 1.85569 -0.331111 0
M  V30 315 C 31.2621 3.24405 -0.973621 0
M  V30 316 C 30.3081 3.70638 -2.1102 0
M  V30 317 S 31.1411 3.84228 -3.73 0
M  V30 318 C 32.2971 5.22313 -3.44876 0
M  V30 319 H 32.5301 1.972 -2.22485 0
M  V30 320 H 30.0631 0.932224 -1.23081 0
M  V30 321 H 32.0211 4.02514 -0.805766 0
M  V30 322 H 30.6821 3.14071 -0.0426279 0
M  V30 323 H 29.8751 4.68685 -1.85338 0
M  V30 324 H 29.4771 2.99632 -2.23822 0
M  V30 325 H 31.7691 6.07505 -2.99908 0
M  V30 326 H 32.7121 5.53008 -4.42253 0
M  V30 327 H 33.1201 4.90284 -2.79789 0
M  V30 328 N 32.5182 1.22032 0.997298 0
M  V30 329 C 33.7432 1.06921 1.77715 0
M  V30 330 C 34.1682 -0.376226 1.84299 0
M  V30 331 O 33.5262 -1.27165 1.29223 0
M  V30 332 C 33.5742 1.67996 3.19076 0
M  V30 333 O 32.6782 0.930653 4.01762 0
M  V30 334 H 32.0192 0.375814 0.547412 0
M  V30 335 H 34.5492 1.61737 1.25309 0
M  V30 336 H 34.5592 1.72538 3.69723 0
M  V30 337 H 33.2342 2.73182 3.13599 0
M  V30 338 H 31.8112 0.960917 3.60307 0
M  V30 339 N 33.9963 -1.19345 1.0293 0
M  V30 340 C 34.9063 -2.26245 0.620515 0
M  V30 341 C 35.9223 -1.70486 -0.347928 0
M  V30 342 O 37.0983 -2.00347 -0.205704 0
M  V30 343 C 34.1633 -3.46693 -0.0218957 0
M  V30 344 C 33.2243 -4.17632 0.994102 0
M  V30 345 C 32.4573 -5.32329 0.382253 0
M  V30 346 O 32.6803 -5.64552 -0.814676 0
M  V30 347 O 31.6143 -5.91664 1.10531 0
M  V30 348 H 35.4403 -2.63453 1.51083 0
M  V30 349 H 33.0253 -1.26207 0.799513 0
M  V30 350 H 34.9073 -4.19683 -0.380072 0
M  V30 351 H 33.5823 -3.11333 -0.886209 0
M  V30 352 H 32.4893 -3.4676 1.40387 0
M  V30 353 H 33.8223 -4.56964 1.8288 0
M  V30 354 N 35.4744 -0.807222 -1.35358 0
M  V30 355 C 36.7204 -0.388463 -1.99045 0
M  V30 356 C 37.0534 1.04184 -1.63888 0
M  V30 357 O 36.3284 1.72292 -0.902535 0
M  V30 358 C 36.6114 -0.572783 -3.55515 0
M  V30 359 C 36.4644 -2.04807 -4.00468 0
M  V30 360 C 37.7834 0.00114064 -4.401 0
M  V30 361 H 34.9024 -0.142619 -0.723069 0
M  V30 362 H 37.5444 -1.01687 -1.60498 0
M  V30 363 H 35.6944 -0.0378425 -3.88482 0
M  V30 364 H 37.3664 -2.64544 -3.77908 0
M  V30 365 H 35.6094 -2.54427 -3.51353 0
M  V30 366 H 36.2804 -2.12792 -5.09337 0
M  V30 367 H 38.7564 -0.455716 -4.13597 0
M  V30 368 H 37.6324 -0.157737 -5.48673 0
M  V30 369 H 37.8934 1.09488 -4.28328 0
M  V30 370 N 36.9525 1.47285 -0.560781 0
M  V30 371 C 37.9025 2.27073 0.205384 0
M  V30 372 C 38.8865 1.34569 0.882044 0
M  V30 373 O 40.0785 1.58899 0.77976 0
M  V30 374 C 37.2075 3.20414 1.23247 0
M  V30 375 C 36.2935 4.20399 0.559041 0
M  V30 376 N 36.6845 5.04423 -0.372927 0
M  V30 377 C 34.9825 4.38536 0.812522 0
M  V30 378 C 35.6835 5.76655 -0.764446 0
M  V30 379 N 34.6595 5.43471 -0.11848 0
M  V30 380 H 38.4615 2.89422 -0.511117 0
M  V30 381 H 35.9755 1.57868 -0.380975 0
M  V30 382 H 37.9725 3.76262 1.79534 0
M  V30 383 H 36.6325 2.59623 1.95002 0
M  V30 384 H 37.6435 5.1248 -0.747287 0
M  V30 385 H 34.3205 3.88913 1.51832 0
M  V30 386 H 35.7105 6.54238 -1.53045 0
M  V30 387 N 38.4306 0.297415 1.54768 0
M  V30 388 C 39.3606 -0.573494 2.26348 0
M  V30 389 C 40.3416 -1.14085 1.26169 0
M  V30 390 O 41.5266 -1.17086 1.54934 0
M  V30 391 C 38.6566 -1.74716 3.00153 0
M  V30 392 C 37.6106 -1.31032 4.07449 0
M  V30 393 C 36.9366 -2.56887 4.68949 0
M  V30 394 C 38.2366 -0.444183 5.20408 0
M  V30 395 H 39.9306 0.0235131 2.99391 0
M  V30 396 H 37.4766 0.0127488 1.43994 0
M  V30 397 H 39.4296 -2.3625 3.48947 0
M  V30 398 H 38.1536 -2.37035 2.24682 0
M  V30 399 H 36.8126 -0.718066 3.59499 0
M  V30 400 H 36.4606 -3.17512 3.90122 0
M  V30 401 H 36.1606 -2.2836 5.41411 0
M  V30 402 H 37.6846 -3.19229 5.20505 0
M  V30 403 H 39.0986 -0.9651 5.65118 0
M  V30 404 H 37.4956 -0.252846 5.99567 0
M  V30 405 H 38.5656 0.531609 4.81977 0
M  V30 406 N 39.9087 -1.5758 0.0250728 0
M  V30 407 C 40.8717 -2.08896 -0.943139 0
M  V30 408 C 41.8717 -1.00321 -1.25668 0
M  V30 409 O 43.0617 -1.26495 -1.19769 0
M  V30 410 C 40.1937 -2.55143 -2.26086 0
M  V30 411 H 41.3867 -2.95723 -0.498775 0
M  V30 412 H 38.9397 -1.54703 -0.222888 0
M  V30 413 H 39.6747 -1.71633 -2.75159 0
M  V30 414 H 39.4597 -3.34461 -2.04641 0
M  V30 415 H 40.9497 -2.95083 -2.95492 0
M  V30 416 N 41.3868 0.248026 -1.55636 0
M  V30 417 C 42.8028 0.596483 -1.48035 0
M  V30 418 C 43.0028 1.88386 -0.715039 0
M  V30 419 O 42.0588 2.51319 -0.243944 0
M  V30 420 C 43.3718 0.700258 -2.92433 0
M  V30 421 C 44.9198 0.792659 -3.02797 0
M  V30 422 C 45.3948 0.928005 -4.485 0
M  V30 423 N 46.8858 0.992903 -4.52433 0
M  V30 424 C 47.6208 1.11687 -5.62418 0
M  V30 425 N 47.1168 1.20645 -6.82214 0
M  V30 426 N 48.9098 1.14994 -5.50212 0
M  V30 427 H 41.0608 -0.597109 -2.03834 0
M  V30 428 H 43.3238 -0.205925 -0.925364 0
M  V30 429 H 43.0298 -0.175658 -3.51261 0
M  V30 430 H 42.9038 1.57255 -3.42857 0
M  V30 431 H 45.2908 1.65903 -2.4405 0
M  V30 432 H 45.3718 -0.104762 -2.55585 0
M  V30 433 H 45.0158 0.0661971 -5.07857 0
M  V30 434 H 44.9458 1.84045 -4.93391 0
M  V30 435 H 47.4368 0.935064 -3.66149 0
M  V30 436 H 47.7498 1.30008 -7.61786 0
M  V30 437 H 46.0948 1.17605 -6.84977 0
M  V30 438 H 49.2858 1.07643 -4.55555 0
M  V30 439 H 49.4588 1.24311 -6.35965 0
M  V30 440 N 42.8649 1.48995 0.513639 0
M  V30 441 C 44.1419 1.48338 1.27495 0
M  V30 442 C 44.5219 0.204065 2.10111 0
M  V30 443 O 43.8699 -0.813881 2.13514 0
M  V30 444 C 44.0799 2.75498 2.14247 0
M  V30 445 C 45.4279 3.24484 2.73852 0
M  V30 446 O 46.4519 2.76528 2.24523 0
M  V30 447 O 45.3109 4.07974 3.6362 0
M  V30 448 H 42.4049 0.593149 0.576284 0
M  V30 449 H 44.9509 1.61246 0.528948 0
M  V30 450 H 43.7229 3.60109 1.53092 0
M  V30 451 H 43.3459 2.6539 2.96064 0
M  V30 452 N 44.343 -0.763751 1.37857 0
M  V30 453 C 45.273 -1.89103 1.36975 0
M  V30 454 C 46.254 -1.68439 0.237152 0
M  V30 455 O 47.439 -1.8918 0.438713 0
M  V30 456 C 44.569 -3.26496 1.18395 0
M  V30 457 C 43.523 -3.61741 2.28751 0
M  V30 458 C 42.849 -4.97762 1.95286 0
M  V30 459 C 44.149 -3.67665 3.70972 0
M  V30 460 H 45.843 -1.90099 2.31307 0
M  V30 461 H 43.389 -0.91319 1.11341 0
M  V30 462 H 45.342 -4.05003 1.16406 0
M  V30 463 H 44.066 -3.25955 0.205215 0
M  V30 464 H 42.725 -2.85547 2.29909 0
M  V30 465 H 42.373 -4.93769 0.959221 0
M  V30 466 H 42.073 -5.22313 2.69189 0
M  V30 467 H 43.597 -5.7866 1.94898 0
M  V30 468 H 45.011 -4.36307 3.719 0
M  V30 469 H 43.408 -4.03718 4.43995 0
M  V30 470 H 44.478 -2.68134 4.0402 0
M  V30 471 N 45.8211 -1.22559 -0.990812 0
M  V30 472 C 47.2371 -0.985996 -1.255 0
M  V30 473 C 47.4371 0.319173 -1.98956 0
M  V30 474 O 46.4931 1.04127 -2.3003 0
M  V30 475 C 47.8061 -2.18607 -2.06474 0
M  V30 476 C 49.3541 -2.22985 -2.19651 0
M  V30 477 C 49.8291 -3.4255 -3.04012 0
M  V30 478 N 51.3201 -3.42725 -3.11599 0
M  V30 479 C 52.0551 -4.31892 -3.7717 0
M  V30 480 N 51.5511 -5.31279 -4.44651 0
M  V30 481 N 53.3441 -4.19662 -3.73952 0
M  V30 482 H 45.4951 -2.06469 -0.49841 0
M  V30 483 H 47.7581 -0.904853 -0.282747 0
M  V30 484 H 47.4641 -3.13267 -1.59865 0
M  V30 485 H 47.3381 -2.18838 -3.07229 0
M  V30 486 H 49.7251 -1.28871 -2.65474 0
M  V30 487 H 49.8061 -2.26791 -1.18319 0
M  V30 488 H 49.4501 -4.36965 -2.58889 0
M  V30 489 H 49.3801 -3.35984 -4.0549 0
M  V30 490 H 51.8711 -2.70807 -2.63575 0
M  V30 491 H 52.1841 -5.95593 -4.92431 0
M  V30 492 H 50.5291 -5.3519 -4.43392 0
M  V30 493 H 53.7201 -3.41268 -3.20396 0
M  V30 494 H 53.8931 -4.89358 -4.24774 0
M  V30 495 N 47.2992 1.18797 -1.03562 0
M  V30 496 C 48.2292 2.24472 -0.643019 0
M  V30 497 C 49.2102 1.66433 0.351283 0
M  V30 498 O 50.3952 1.92803 0.232505 0
M  V30 499 C 47.5252 3.473 4.24935e-05 0
M  V30 500 C 46.4792 4.18055 -0.917257 0
M  V30 501 C 45.8052 5.34519 -0.138941 0
M  V30 502 C 47.1052 4.72109 -2.23407 0
M  V30 503 H 48.7992 2.57566 -1.52643 0
M  V30 504 H 46.3452 1.23806 -0.735394 0
M  V30 505 H 48.2982 4.20426 0.286383 0
M  V30 506 H 47.0222 3.13424 0.918299 0
M  V30 507 H 45.6812 3.46821 -1.1879 0
M  V30 508 H 45.3292 4.96891 0.781562 0
M  V30 509 H 45.0292 5.82794 -0.750005 0
M  V30 510 H 46.5532 6.10438 0.1405 0
M  V30 511 H 47.9672 5.36955 -2.00879 0
M  V30 512 H 46.3642 5.30897 -2.79765 0
M  V30 513 H 47.4342 3.89807 -2.88407 0
M  V30 514 N 48.7773 0.814389 1.34928 0
M  V30 515 C 49.7273 0.202752 2.27097 0
M  V30 516 C 50.7113 -0.62799 1.48139 0
M  V30 517 O 51.9033 -0.483969 1.70255 0
M  V30 518 C 49.0323 -0.64146 3.37254 0
M  V30 519 C 48.1183 0.19944 4.23631 0
M  V30 520 N 48.5093 1.26628 4.89693 0
M  V30 521 C 46.8073 -0.0176433 4.45997 0
M  V30 522 C 47.5083 1.78031 5.53787 0
M  V30 523 N 46.4843 1.08553 5.32651 0
M  V30 524 H 50.2863 1.01893 2.75672 0
M  V30 525 H 47.8003 0.656332 1.48546 0
M  V30 526 H 49.7973 -1.09575 4.02243 0
M  V30 527 H 48.4573 -1.4559 2.9023 0
M  V30 528 H 49.4683 1.64901 4.90946 0
M  V30 529 H 46.1453 -0.800601 4.09752 0
M  V30 530 H 47.5353 2.67236 6.16469 0
M  V30 531 N 50.2554 -1.46986 0.568584 0
M  V30 532 C 51.6714 -1.57946 0.229189 0
M  V30 533 C 51.8714 -1.56567 -1.26843 0
M  V30 534 O 50.9274 -1.47511 -2.04931 0
M  V30 535 C 52.2404 -2.87963 0.865909 0
M  V30 536 C 53.7884 -3.01568 0.838188 0
M  V30 537 C 54.2634 -4.34301 1.45419 0
M  V30 538 N 55.7544 -4.40965 1.41788 0
M  V30 539 C 56.4894 -5.42256 1.86403 0
M  V30 540 N 55.9854 -6.50297 2.38926 0
M  V30 541 N 57.7784 -5.3337 1.77405 0
M  V30 542 H 49.9294 -1.46126 1.54146 0
M  V30 543 H 52.1924 -0.696156 0.643484 0
M  V30 544 H 51.8984 -2.94742 1.91886 0
M  V30 545 H 51.7724 -3.75423 0.365687 0
M  V30 546 H 54.1594 -2.94379 -0.206106 0
M  V30 547 H 54.2404 -2.1562 1.37629 0
M  V30 548 H 53.8844 -4.42247 2.49761 0
M  V30 549 H 53.8144 -5.19 0.891435 0
M  V30 550 H 56.3054 -3.63484 1.03381 0
M  V30 551 H 56.6184 -7.23777 2.70863 0
M  V30 552 H 54.9634 -6.51155 2.42944 0
M  V30 553 H 58.1544 -4.47865 1.3614 0
M  V30 554 H 58.3274 -6.12169 2.12492 0
M  V30 555 N 51.7335 -0.305618 -1.54608 0
M  V30 556 C 53.0105 0.355652 -1.92339 0
M  V30 557 C 53.3905 1.71324 -1.23335 0
M  V30 558 O 52.7385 2.25473 -0.370702 0
M  V30 559 C 52.9485 0.46572 -3.45879 0
M  V30 560 C 54.2965 0.734426 -4.182 0
M  V30 561 O 55.3205 0.54935 -3.51938 0
M  V30 562 O 54.1795 1.09024 -5.35515 0
M  V30 563 H 51.2735 0.199666 -0.802535 0
M  V30 564 H 53.8195 -0.354017 -1.65966 0
M  V30 565 H 52.5915 -0.488461 -3.88239 0
M  V30 566 H 52.2145 1.22367 -3.78301 0
M  V30 567 N 53.2116 1.57565 -0.0334293 0
M  V30 568 C 54.4576 1.92262 0.645226 0
M  V30 569 C 54.7906 0.910543 1.71531 0
M  V30 570 O 54.0656 -0.066099 1.94388 0
M  V30 571 C 54.3486 3.37422 1.2577 0
M  V30 572 C 54.2016 4.49369 0.196891 0
M  V30 573 C 55.5206 3.82628 2.17449 0
M  V30 574 H 52.6396 0.699171 0.233085 0
M  V30 575 H 55.2816 1.89779 -0.0915694 0
M  V30 576 H 53.4316 3.39669 1.88566 0
M  V30 577 H 55.1036 4.59254 -0.433962 0
M  V30 578 H 53.3466 4.31168 -0.477137 0
M  V30 579 H 54.0176 5.47978 0.665124 0
M  V30 580 H 56.4936 3.82145 1.64634 0
M  V30 581 H 55.3696 4.84883 2.57254 0
M  V30 582 H 55.6306 3.18376 3.0674 0
M  V30 583 N 54.6897 -0.239769 1.55765 0
M  V30 584 C 55.6527 -1.28038 1.90103 0
M  V30 585 C 56.6527 -1.40723 0.778055 0
M  V30 586 O 57.8427 -1.39301 1.04599 0
M  V30 587 C 54.9747 -2.65702 2.13577 0
M  V30 588 H 56.1677 -0.988048 2.83157 0
M  V30 589 H 53.7207 -0.479382 1.48767 0
M  V30 590 H 54.4557 -3.00063 1.23015 0
M  V30 591 H 54.2407 -2.57875 2.95369 0
M  V30 592 H 55.7307 -3.40828 2.41301 0
M  V30 593 N 56.1678 -1.49265 -0.50573 0
M  V30 594 C 57.4138 -1.58748 -1.26202 0
M  V30 595 C 57.7468 -0.271227 -1.92297 0
M  V30 596 O 57.0218 0.724831 -1.80489 0
M  V30 597 C 57.3048 -2.74332 -2.33268 0
M  V30 598 C 57.1578 -4.15737 -1.71705 0
M  V30 599 C 58.4768 -2.85576 -3.34865 0
M  V30 600 H 55.5958 -0.577826 -0.457478 0
M  V30 601 H 58.2378 -1.81532 -0.560897 0
M  V30 602 H 56.3878 -2.55036 -2.93068 0
M  V30 603 H 58.0598 -4.46537 -1.15769 0
M  V30 604 H 56.3028 -4.21605 -1.02135 0
M  V30 605 H 56.9738 -4.92477 -2.49341 0
M  V30 606 H 59.4498 -3.03127 -2.8505 0
M  V30 607 H 58.3258 -3.68135 -4.07146 0
M  V30 608 H 58.5868 -1.94732 -3.96903 0
M  V30 609 N 57.6459 0.756429 -1.3826 0
M  V30 610 C 58.5929 1.87011 -1.35261 0
M  V30 611 C 59.5629 1.64695 -0.215616 0
M  V30 612 O 60.7479 1.864 -0.407399 0
M  V30 613 C 57.8879 3.24275 -1.18068 0
M  V30 614 C 57.0009 3.58442 -2.41129 0
M  V30 615 C 56.1359 4.84994 -2.16689 0
M  V30 616 C 55.1749 5.11939 -3.35537 0
M  V30 617 N 54.3119 6.29685 -3.10549 0
M  V30 618 H 59.1519 1.8891 -2.30472 0
M  V30 619 H 56.6889 0.923373 -1.14509 0
M  V30 620 H 58.6469 4.03479 -1.06116 0
M  V30 621 H 57.2769 3.21711 -0.264973 0
M  V30 622 H 56.3289 2.74103 -2.63764 0
M  V30 623 H 57.6409 3.74283 -3.29717 0
M  V30 624 H 56.7949 5.72135 -2.01857 0
M  V30 625 H 55.5339 4.71286 -1.25462 0
M  V30 626 H 54.5389 4.23268 -3.50891 0
M  V30 627 H 55.7639 5.27546 -4.27635 0
M  V30 628 H 53.7099 6.17306 -2.21967 0
M  V30 629 H 53.6269 6.46014 -3.92686 0
M  V30 630 H 54.8949 7.19722 -2.99367 0
M  V30 631 N 59.124 1.23083 0.984299 0
M  V30 632 C 60.37 1.06214 1.72761 0
M  V30 633 C 60.703 -0.400584 1.90024 0
M  V30 634 O 59.978 -1.29672 1.44967 0
M  V30 635 C 60.261 1.78375 3.12817 0
M  V30 636 C 60.114 3.32296 3.03149 0
M  V30 637 C 61.433 1.54309 4.12161 0
M  V30 638 H 58.552 0.387251 0.627061 0
M  V30 639 H 61.194 1.51536 1.14616 0
M  V30 640 H 59.344 1.39848 3.62457 0
M  V30 641 H 61.016 3.8032 2.61064 0
M  V30 642 H 59.259 3.6153 2.39747 0
M  V30 643 H 59.93 3.77972 4.02295 0
M  V30 644 H 62.406 1.87791 3.71314 0
M  V30 645 H 61.282 2.07281 5.08258 0
M  V30 646 H 61.543 0.477572 4.39513 0
M  V30 647 N 60.6021 -1.18246 1.0419 0
M  V30 648 C 61.5321 -2.24127 0.654914 0
M  V30 649 C 62.5131 -1.66617 -0.342451 0
M  V30 650 O 63.6981 -1.92924 -0.222277 0
M  V30 651 C 60.8281 -3.47295 0.0183757 0
M  V30 652 C 59.7821 -4.17563 0.939414 0
M  V30 653 C 59.1081 -5.34438 0.167286 0
M  V30 654 C 60.4081 -4.70917 2.25908 0
M  V30 655 H 62.1021 -2.56753 1.54007 0
M  V30 656 H 59.6481 -1.23414 0.74195 0
M  V30 657 H 61.6011 -4.20572 -0.264082 0
M  V30 658 H 60.3251 -3.13907 -0.901664 0
M  V30 659 H 58.9841 -3.46186 1.20628 0
M  V30 660 H 58.6321 -4.97298 -0.7552 0
M  V30 661 H 58.3321 -5.82388 0.780901 0
M  V30 662 H 59.8561 -6.10504 -0.108125 0
M  V30 663 H 61.2701 -5.35882 2.03724 0
M  V30 664 H 59.6671 -5.29406 2.82577 0
M  V30 665 H 60.7371 -3.88272 2.9047 0
M  V30 666 N 62.0802 -0.821533 -1.34494 0
M  V30 667 C 63.4962 -0.507117 -1.51329 0
M  V30 668 C 63.6962 0.968964 -1.76673 0
M  V30 669 O 62.7522 1.75348 -1.81685 0
M  V30 670 C 64.0652 -1.36544 -2.67911 0
M  V30 671 C 65.6132 -1.36242 -2.81793 0
M  V30 672 C 66.0882 -2.2052 -4.01416 0
M  V30 673 N 67.5792 -2.18136 -4.08621 0
M  V30 674 C 68.3142 -2.80095 -5.00334 0
M  V30 675 N 67.8102 -3.51039 -5.9728 0
M  V30 676 N 69.6032 -2.69656 -4.93196 0
M  V30 677 H 61.7542 -1.77729 -1.16302 0
M  V30 678 H 64.0172 -0.757291 -0.570276 0
M  V30 679 H 63.7232 -2.41361 -2.55808 0
M  V30 680 H 63.5972 -1.02917 -3.62888 0
M  V30 681 H 65.9842 -0.322041 -2.93338 0
M  V30 682 H 66.0652 -1.73866 -1.87628 0
M  V30 683 H 65.7092 -3.24607 -3.90631 0
M  V30 684 H 65.6392 -1.80247 -4.94791 0
M  V30 685 H 68.1302 -1.6653 -3.39229 0
M  V30 686 H 68.4432 -3.95565 -6.63889 0
M  V30 687 H 66.7882 -3.55145 -5.97409 0
M  V30 688 H 69.9792 -2.13808 -4.16418 0
M  V30 689 H 70.1522 -3.1823 -5.64476 0
M  V30 690 N 63.5583 1.46682 -0.576371 0
M  V30 691 C 64.5213 2.28707 0.150239 0
M  V30 692 C 65.5213 1.38035 0.824794 0
M  V30 693 O 66.7113 1.60476 0.677719 0
M  V30 694 C 63.8433 3.18248 1.22192 0
M  V30 695 H 65.0363 2.94423 -0.570521 0
M  V30 696 H 62.5893 1.52688 -0.334078 0
M  V30 697 H 63.3243 2.57265 1.97447 0
M  V30 698 H 63.1093 3.85 0.742812 0
M  V30 699 H 64.5993 3.80001 1.73172 0
M  V30 700 N 65.0364 0.313813 1.54444 0
M  V30 701 C 66.3134 -0.345447 1.92525 0
M  V30 702 C 66.6934 -1.70667 1.24242 0
M  V30 703 O 66.0414 -2.25273 0.382654 0
M  V30 704 C 66.2514 -0.44737 3.46121 0
M  V30 705 C 67.5994 -0.712238 4.18584 0
M  V30 706 O 68.6234 -0.530678 3.52225 0
M  V30 707 O 67.4824 -1.06183 5.36085 0
M  V30 708 H 64.5764 -0.195407 0.803583 0
M  V30 709 H 67.1224 0.362813 1.65776 0
M  V30 710 H 65.8944 0.509043 3.87975 0
M  V30 711 H 65.5174 -1.20359 3.78945 0
M  V30 712 N 66.5145 -1.57545 0.0417849 0
M  V30 713 C 67.4445 -2.14009 -0.933929 0
M  V30 714 C 68.4255 -1.05938 -1.33083 0
M  V30 715 O 69.6105 -1.33833 -1.40721 0
M  V30 716 C 66.7405 -2.67747 -2.21199 0
M  V30 717 C 65.6945 -3.80718 -1.95544 0
M  V30 718 C 65.0205 -4.20935 -3.29724 0
M  V30 719 C 66.3205 -5.06258 -1.28452 0
M  V30 720 H 68.0145 -2.95788 -0.463645 0
M  V30 721 H 65.5605 -1.42285 -0.221573 0
M  V30 722 H 67.5135 -3.05886 -2.89848 0
M  V30 723 H 66.2375 -1.83147 -2.70416 0
M  V30 724 H 64.8965 -3.43037 -1.2931 0
M  V30 725 H 64.5445 -3.33298 -3.76724 0
M  V30 726 H 64.2445 -4.9707 -3.13361 0
M  V30 727 H 65.7685 -4.61666 -3.9962 0
M  V30 728 H 67.1825 -5.41903 -1.8712 0
M  V30 729 H 65.5795 -5.87475 -1.22445 0
M  V30 730 H 66.6495 -4.84207 -0.259219 0
M  V30 731 N 67.9926 0.231505 -1.5589 0
M  V30 732 C 68.9556 1.27028 -1.90779 0
M  V30 733 C 69.9556 1.40308 -0.785507 0
M  V30 734 O 71.1456 1.38744 -1.05336 0
M  V30 735 C 68.2776 2.64566 -2.14983 0
M  V30 736 H 69.4706 0.973017 -2.83677 0
M  V30 737 H 67.0236 0.471486 -1.49019 0
M  V30 738 H 67.7586 2.99406 -1.24604 0
M  V30 739 H 67.5436 2.56305 -2.96732 0
M  V30 740 H 69.0336 3.39543 -2.43105 0
M  V30 741 N 69.4707 1.49531 0.497807 0
M  V30 742 C 70.8867 1.36365 0.829266 0
M  V30 743 C 71.0867 0.399184 1.97506 0
M  V30 744 O 70.1427 -0.167977 2.51941 0
M  V30 745 C 71.4557 2.77153 1.16647 0
M  V30 746 C 73.0037 2.85877 1.27449 0
M  V30 747 C 73.4787 4.2744 1.64497 0
M  V30 748 N 74.9697 4.30265 1.7154 0
M  V30 749 C 75.7047 5.3677 2.01656 0
M  V30 750 N 75.2007 6.53516 2.29976 0
M  V30 751 N 76.9937 5.24189 2.02934 0
M  V30 752 H 69.1447 2.10831 -0.257703 0
M  V30 753 H 71.4077 0.946534 -0.0527091 0
M  V30 754 H 71.1137 3.49442 0.397872 0
M  V30 755 H 70.9877 3.12722 2.10915 0
M  V30 756 H 73.3747 2.13824 2.0338 0
M  V30 757 H 73.4557 2.53887 0.312244 0
M  V30 758 H 73.0997 5.00021 0.891151 0
M  V30 759 H 73.0297 4.56896 2.61827 0
M  V30 760 H 75.5207 3.4607 1.51802 0
M  V30 761 H 75.8337 7.30506 2.52153 0
M  V30 762 H 74.1787 6.56737 2.27425 0
M  V30 763 H 77.3697 4.31988 1.80289 0
M  V30 764 H 77.5427 6.07286 2.26071 0
M  V30 765 N 70.9488 -0.749086 1.3866 0
M  V30 766 C 72.2258 -1.4992 1.25632 0
M  V30 767 C 72.6058 -2.10633 -0.140317 0
M  V30 768 O 71.9538 -1.97437 -1.15025 0
M  V30 769 C 72.1638 -2.56195 2.36992 0
M  V30 770 C 73.5118 -3.22972 2.75634 0
M  V30 771 O 74.5358 -2.66502 2.36337 0
M  V30 772 O 73.3948 -4.25122 3.43415 0
M  V30 773 H 70.4888 -0.665067 0.491544 0
M  V30 774 H 73.0348 -0.784113 1.50498 0
M  V30 775 H 71.8068 -2.09612 3.30422 0
M  V30 776 H 71.4298 -3.35279 2.13714 0
M  V30 777 N 72.4269 -1.23603 -0.977757 0
M  V30 778 C 73.8379 -1.06424 -1.53398 0
M  V30 779 C 74.1889 0.367578 -1.92726 0
M  V30 780 O 73.3139 1.25465 -1.76316 0
M  V30 781 C 73.9089 -1.92568 -2.78753 0
M  V30 782 C 72.4679 -1.79642 -3.30765 0
M  V30 783 C 71.6149 -1.88111 -2.03739 0
M  V30 784 H 74.5659 -1.37227 -0.797152 0
M  V30 785 H 74.5869 -1.45203 -3.51705 0
M  V30 786 H 74.0989 -2.96771 -2.50098 0
M  V30 787 H 72.1999 -0.782325 -3.64294 0
M  V30 788 H 72.3129 -2.63174 -4.00345 0
M  V30 789 H 70.6769 -1.31723 -2.17994 0
M  V30 790 H 71.4599 -2.93875 -1.77461 0
M  V30 791 N 73.905 1.17692 -1.04816 0
M  V30 792 C 75.13 1.92327 -0.776207 0
M  V30 793 C 75.555 1.76082 0.661581 0
M  V30 794 O 74.913 1.076 1.45917 0
M  V30 795 C 74.961 3.41539 -1.15687 0
M  V30 796 O 74.065 4.11402 -0.286775 0
M  V30 797 H 73.406 0.599735 -0.284981 0
M  V30 798 H 75.936 1.49201 -1.4 0
M  V30 799 H 75.946 3.92269 -1.12202 0
M  V30 800 H 74.621 3.52684 -2.20425 0
M  V30 801 H 73.198 3.70939 -0.381903 0
M  V30 802 N 75.3831 0.828654 1.34056 0
M  V30 803 C 76.6301 0.419458 1.98108 0
M  V30 804 C 76.9581 -1.01886 1.65679 0
M  V30 805 O 76.2131 -1.72539 0.923512 0
M  V30 806 C 76.5121 0.575226 3.52741 0
M  V30 807 C 76.1781 1.98012 4.05095 0
M  V30 808 C 74.8401 2.36442 4.19104 0
M  V30 809 C 77.1921 2.89824 4.33188 0
M  V30 810 C 74.5201 3.66009 4.58535 0
M  V30 811 C 76.8721 4.1886 4.74066 0
M  V30 812 C 75.5361 4.5726 4.86281 0
M  V30 813 H 74.8061 0.153491 0.724929 0
M  V30 814 H 77.4531 1.05371 1.59904 0
M  V30 815 H 75.7581 -0.142385 3.91541 0
M  V30 816 H 77.4551 0.239057 4.00287 0
M  V30 817 H 74.0451 1.67162 3.94658 0
M  V30 818 H 78.2291 2.61375 4.21897 0
M  V30 819 H 73.4851 3.95579 4.66184 0
M  V30 820 H 77.6591 4.90086 4.94761 0
M  V30 821 H 75.2861 5.57707 5.16592 0
M  V30 822 N 76.8612 -1.46375 0.584142 0
M  V30 823 C 78.0912 -2.06461 0.0758195 0
M  V30 824 C 78.4992 -1.43322 -1.23512 0
M  V30 825 O 77.8422 -0.533216 -1.75791 0
M  V30 826 C 77.9042 -3.59131 -0.162773 0
M  V30 827 C 77.5682 -4.4447 1.06279 0
M  V30 828 C 78.5652 -4.80918 1.97519 0
M  V30 829 C 76.2502 -4.85584 1.28504 0
M  V30 830 C 78.2442 -5.57309 3.09331 0
M  V30 831 C 75.9312 -5.61734 2.4062 0
M  V30 832 C 76.9292 -5.9751 3.30863 0
M  V30 833 O 76.6172 -6.72121 4.41032 0
M  V30 834 H 76.3492 -0.673745 0.0551725 0
M  V30 835 H 78.9032 -1.88969 0.804984 0
M  V30 836 H 77.1332 -3.74936 -0.946565 0
M  V30 837 H 78.8222 -4.0114 -0.619782 0
M  V30 838 H 79.5882 -4.49732 1.81565 0
M  V30 839 H 75.4672 -4.57187 0.591702 0
M  V30 840 H 79.0112 -5.85152 3.79793 0
M  V30 841 H 74.9082 -5.92334 2.56537 0
M  V30 842 H 75.6762 -6.90547 4.39417 0
M  V30 843 N 78.3393 -0.321999 -1.54275 0
M  V30 844 C 79.2693 0.537411 -2.27231 0
M  V30 845 C 80.2503 1.12064 -1.27968 0
M  V30 846 O 81.4353 1.14606 -1.56777 0
M  V30 847 C 78.5653 1.69919 -3.02894 0
M  V30 848 C 77.5193 1.24534 -4.09482 0
M  V30 849 C 76.8453 2.49394 -4.72977 0
M  V30 850 C 78.1453 0.361335 -5.21049 0
M  V30 851 H 79.8393 -0.0711406 -2.99315 0
M  V30 852 H 77.3853 -0.0356555 -1.43956 0
M  V30 853 H 79.3383 2.30668 -3.52662 0
M  V30 854 H 78.0623 2.33431 -2.28424 0
M  V30 855 H 76.7213 0.660782 -3.60596 0
M  V30 856 H 76.3693 3.11265 -3.95124 0
M  V30 857 H 76.0693 2.19718 -5.44975 0
M  V30 858 H 77.5933 3.10908 -5.25517 0
M  V30 859 H 79.0073 0.875072 -5.66582 0
M  V30 860 H 77.4043 0.157428 -5.99893 0
M  V30 861 H 78.4743 -0.60822 -4.8107 0
M  V30 862 N 79.8174 1.5752 -0.0501392 0
M  V30 863 C 81.2334 1.56631 0.306402 0
M  V30 864 C 81.4334 1.0577 1.71508 0
M  V30 865 O 80.4894 0.713837 2.422 0
M  V30 866 C 81.8024 3.00393 0.135811 0
M  V30 867 C 83.3504 3.12315 0.206993 0
M  V30 868 C 83.8254 4.57954 0.064944 0
M  V30 869 N 85.3164 4.63041 0.121254 0
M  V30 870 C 86.0514 5.73389 0.0354381 0
M  V30 871 N 85.5474 6.92724 -0.102666 0
M  V30 872 N 87.3404 5.62026 0.090946 0
M  V30 873 H 79.4914 1.88903 -0.971046 0
M  V30 874 H 81.7544 0.869876 -0.376855 0
M  V30 875 H 81.4604 3.41635 -0.835384 0
M  V30 876 H 81.3344 3.66373 0.897275 0
M  V30 877 H 83.7214 2.70973 1.16866 0
M  V30 878 H 83.8024 2.49016 -0.585208 0
M  V30 879 H 83.4464 4.99981 -0.893394 0
M  V30 880 H 83.3764 5.19258 0.876277 0
M  V30 881 H 85.8674 3.77216 0.227284 0
M  V30 882 H 86.1804 7.72633 -0.160882 0
M  V30 883 H 84.5254 6.94864 -0.137737 0
M  V30 884 H 87.7164 4.67684 0.197388 0
M  V30 885 H 87.8894 6.47997 0.0206089 0
M  V30 886 N 81.2955 -0.223234 1.56011 0
M  V30 887 C 82.5425 -0.947875 1.78946 0
M  V30 888 C 82.8705 -1.844 0.618608 0
M  V30 889 O 82.1255 -1.91629 -0.397093 0
M  V30 890 C 82.4245 -1.81948 3.0762 0
M  V30 891 C 82.0905 -1.07672 4.37856 0
M  V30 892 C 80.7525 -0.871544 4.73242 0
M  V30 893 C 83.1045 -0.552081 5.18268 0
M  V30 894 C 80.4325 -0.129791 5.86556 0
M  V30 895 C 82.7845 0.17632 6.32354 0
M  V30 896 C 81.4485 0.39277 6.66343 0
M  V30 897 H 80.7185 -0.346852 0.654809 0
M  V30 898 H 83.3655 -0.216171 1.90276 0
M  V30 899 H 81.6705 -2.61899 2.91404 0
M  V30 900 H 83.3675 -2.38227 3.22566 0
M  V30 901 H 79.9575 -1.24662 4.1007 0
M  V30 902 H 84.1415 -0.698076 4.91366 0
M  V30 903 H 79.3975 0.048153 6.11381 0
M  V30 904 H 83.5715 0.590367 6.93893 0
M  V30 905 H 81.1985 0.969466 7.53993 0
M  V30 906 N 82.7736 -1.49793 -0.48987 0
M  V30 907 C 84.1896 -1.36803 -0.822022 0
M  V30 908 C 84.3896 -0.409652 -1.97292 0
M  V30 909 O 83.4456 0.154614 -2.52026 0
M  V30 910 C 84.7586 -2.77768 -1.15175 0
M  V30 911 C 86.3066 -2.86549 -1.25931 0
M  V30 912 C 86.7816 -4.28306 -1.62228 0
M  V30 913 N 88.2726 -4.31169 -1.69256 0
M  V30 914 C 89.0076 -5.37832 -1.98807 0
M  V30 915 N 88.5036 -6.54726 -2.26507 0
M  V30 916 N 90.2966 -5.25258 -2.00152 0
M  V30 917 H 82.4476 -2.10691 0.268881 0
M  V30 918 H 84.7106 -0.946241 0.057728 0
M  V30 919 H 84.4166 -3.49648 -0.379335 0
M  V30 920 H 84.2906 -3.13836 -2.09253 0
M  V30 921 H 86.6776 -2.14899 -2.02243 0
M  V30 922 H 86.7586 -2.54049 -0.298776 0
M  V30 923 H 86.4026 -5.00486 -0.864622 0
M  V30 924 H 86.3326 -4.58279 -2.594 0
M  V30 925 H 88.8236 -3.4687 -1.49965 0
M  V30 926 H 89.1366 -7.31833 -2.48276 0
M  V30 927 H 87.4816 -6.57933 -2.23939 0
M  V30 928 H 90.6726 -4.32938 -1.77996 0
M  V30 929 H 90.8456 -6.08476 -2.22848 0
M  V30 930 N 84.2517 0.741722 -1.39055 0
M  V30 931 C 85.6677 1.04638 -1.20512 0
M  V30 932 C 85.8677 2.01405 -0.0620218 0
M  V30 933 O 84.9237 2.45547 0.588457 0
M  V30 934 C 86.2367 1.6151 -2.53643 0
M  V30 935 C 87.7847 1.73623 -2.6043 0
M  V30 936 C 88.2597 2.33906 -3.93767 0
M  V30 937 N 89.7507 2.41323 -3.9537 0
M  V30 938 C 90.4857 2.88888 -4.95309 0
M  V30 939 N 89.9817 3.36401 -6.05645 0
M  V30 940 N 91.7747 2.88037 -4.82692 0
M  V30 941 H 83.9257 0.0998155 -2.12165 0
M  V30 942 H 86.1887 0.106907 -0.941953 0
M  V30 943 H 85.8947 0.978739 -3.37807 0
M  V30 944 H 85.7687 2.60411 -2.72885 0
M  V30 945 H 88.1557 2.36384 -1.76655 0
M  V30 946 H 88.2367 0.733945 -2.45045 0
M  V30 947 H 87.8807 1.71776 -4.7797 0
M  V30 948 H 87.8107 3.34799 -4.06469 0
M  V30 949 H 90.3017 2.07734 -3.15682 0
M  V30 950 H 90.6147 3.71186 -6.77821 0
M  V30 951 H 88.9597 3.34427 -6.09248 0
M  V30 952 H 92.1507 2.50237 -3.95599 0
M  V30 953 H 92.3237 3.24792 -5.60726 0
M  V30 954 N 85.7298 1.2412 0.971189 0
M  V30 955 C 86.6398 1.04747 2.09917 0
M  V30 956 C 87.6558 -0.0107162 1.73997 0
M  V30 957 O 88.8318 0.186714 2.00533 0
M  V30 958 C 85.8968 0.650828 3.40537 0
M  V30 959 C 84.9578 1.7851 3.90426 0
M  V30 960 C 84.1908 1.40729 5.14812 0
M  V30 961 O 84.4138 0.29557 5.69634 0
M  V30 962 O 83.3478 2.23168 5.58999 0
M  V30 963 H 87.1738 1.99304 2.29154 0
M  V30 964 H 84.7588 1.02908 1.08307 0
M  V30 965 H 86.6408 0.440992 4.19086 0
M  V30 966 H 85.3158 -0.265649 3.22608 0
M  V30 967 H 84.2228 2.04966 3.12953 0
M  V30 968 H 85.5558 2.68023 4.12825 0
M  V30 969 N 87.2079 -1.17134 1.05439 0
M  V30 970 C 88.1709 -2.19439 0.661764 0
M  V30 971 C 89.1709 -1.58199 -0.288042 0
M  V30 972 O 90.3609 -1.74053 -0.0715803 0
M  V30 973 C 87.4929 -3.40889 -0.0276209 0
M  V30 974 H 88.6859 -2.55688 1.56728 0
M  V30 975 H 86.2389 -1.31259 0.848567 0
M  V30 976 H 86.9739 -3.10187 -0.94629 0
M  V30 977 H 86.7589 -3.86586 0.655238 0
M  V30 978 H 88.2489 -4.16603 -0.288342 0
M  V30 979 N 88.686 -0.835752 -1.33615 0
M  V30 980 C 89.618 -0.224151 -2.28101 0
M  V30 981 C 90.631 0.593331 -1.51603 0
M  V30 982 O 91.82 0.420911 -1.73466 0
M  V30 983 C 88.92 0.703309 -3.31522 0
M  V30 984 C 88.093 -0.0741528 -4.37337 0
M  V30 985 C 87.152 0.776176 -5.20444 0
M  V30 986 O 86.178 0.216506 -5.68788 0
M  V30 987 N 87.38 2.09401 -5.41416 0
M  V30 988 H 90.145 -1.03598 -2.81225 0
M  V30 989 H 87.706 -0.69392 -1.46275 0
M  V30 990 H 89.698 1.27707 -3.84022 0
M  V30 991 H 88.268 1.41585 -2.78698 0
M  V30 992 H 87.488 -0.82928 -3.85378 0
M  V30 993 H 88.776 -0.608863 -5.05144 0
M  V30 994 H 88.174 2.57229 -5.03835 0
M  V30 995 H 86.731 2.61633 -5.96985 0
M  V30 996 N 90.1641 1.46063 -0.591896 0
M  V30 997 C 91.1121 2.32124 0.148739 0
M  V30 998 C 92.1061 1.45035 0.875286 0
M  V30 999 O 93.3121 1.61609 0.792632 0
M  V30 1000 H 89.6871 0.749024 0.066832 0
M  V30 1001 H 91.6581 2.92392 -0.595783 0
M  V30 1002 C 90.4071 3.28373 1.1431 0
M  V30 1003 H 89.7301 3.95371 0.59346 0
M  V30 1004 H 91.1701 3.91352 1.63155 0
M  V30 1005 C 89.6291 2.54393 2.20875 0
M  V30 1006 O 90.1591 2.31373 3.28374 0
M  V30 1007 N 88.3651 2.14797 1.95731 0
M  V30 1008 H 87.9121 2.33719 1.08319 0
M  V30 1009 H 87.8701 1.65619 2.67241 0
M  V30 1010 N 91.6422 0.330177 1.54103 0
M  V30 1011 C 92.6052 -0.520144 2.2322 0
M  V30 1012 C 93.6052 -1.03828 1.22786 0
M  V30 1013 O 94.7952 -0.929652 1.4732 0
M  V30 1014 C 91.9272 -1.72317 2.94142 0
M  V30 1015 H 93.1202 0.0841605 2.99782 0
M  V30 1016 H 90.6732 0.0813433 1.56088 0
M  V30 1017 H 91.4082 -2.36653 2.21734 0
M  V30 1018 H 91.1932 -1.35898 3.67796 0
M  V30 1019 H 92.6832 -2.3266 3.46784 0
M  V30 1020 N 93.1203 -1.57491 0.0584922 0
M  V30 1021 C 94.0833 -2.1085 -0.898617 0
M  V30 1022 C 95.0833 -1.02964 -1.23511 0
M  V30 1023 O 96.2733 -1.29007 -1.17059 0
M  V30 1024 C 93.4053 -2.59881 -2.20623 0
M  V30 1025 H 94.5983 -2.96715 -0.435936 0
M  V30 1026 H 92.1513 -1.55141 -0.190023 0
M  V30 1027 H 92.8863 -1.77431 -2.71457 0
M  V30 1028 H 92.6713 -3.38727 -1.97501 0
M  V30 1029 H 94.1613 -3.01285 -2.89166 0
M  V30 1030 N 94.5984 0.214957 -1.56127 0
M  V30 1031 C 95.5614 1.24997 -1.92116 0
M  V30 1032 C 96.5614 1.39467 -0.800344 0
M  V30 1033 O 97.7514 1.37619 -1.06802 0
M  V30 1034 C 94.8834 2.62271 -2.17777 0
M  V30 1035 H 96.0764 0.942875 -2.84693 0
M  V30 1036 H 93.6294 0.455654 -1.49511 0
M  V30 1037 H 94.3644 2.98068 -1.27773 0
M  V30 1038 H 94.1494 2.53143 -2.99434 0
M  V30 1039 H 95.6394 3.36946 -2.46693 0
M  V30 1040 N 96.0765 1.50051 0.48192 0
M  V30 1041 C 97.0065 1.71046 1.58951 0
M  V30 1042 C 97.9875 0.559288 1.60642 0
M  V30 1043 O 99.1725 0.797243 1.77081 0
M  V30 1044 C 96.3025 1.79462 2.97339 0
M  V30 1045 C 95.2565 2.94558 3.10515 0
M  V30 1046 C 94.5825 2.88105 4.50444 0
M  V30 1047 C 95.8825 4.35227 2.88747 0
M  V30 1048 H 97.5765 2.6378 1.41635 0
M  V30 1049 H 95.1225 1.26936 0.679942 0
M  V30 1050 H 97.0755 1.92734 3.74742 0
M  V30 1051 H 95.7995 0.833412 3.15788 0
M  V30 1052 H 94.4585 2.80918 2.35543 0
M  V30 1053 H 94.1065 1.89853 4.65795 0
M  V30 1054 H 93.8065 3.65366 4.60197 0
M  V30 1055 H 95.3305 3.03412 5.29881 0
M  V30 1056 H 96.7445 4.49449 3.55905 0
M  V30 1057 H 95.1415 5.13856 3.09955 0
M  V30 1058 H 96.2115 4.48347 1.84696 0
M  V30 1059 N 97.5546 -0.734337 1.39446 0
M  V30 1060 C 98.5026 -1.86971 1.38364 0
M  V30 1061 C 99.4966 -1.67288 0.266687 0
M  V30 1062 O 100.703 -1.74621 0.436755 0
M  V30 1063 H 97.0776 -0.615474 0.432082 0
M  V30 1064 H 99.0486 -1.85 2.34132 0
M  V30 1065 C 97.7976 -3.2466 1.24465 0
M  V30 1066 H 97.1206 -3.40402 2.09682 0
M  V30 1067 H 98.5606 -4.04292 1.27764 0
M  V30 1068 C 97.0196 -3.36867 -0.0468674 0
M  V30 1069 O 97.5496 -3.88618 -1.01681 0
M  V30 1070 N 95.7556 -2.90391 -0.110145 0
M  V30 1071 H 95.3026 -2.48466 0.679868 0
M  V30 1072 H 95.2606 -2.98939 -0.973799 0
M  V30 1073 N 99.0327 -1.24633 -0.964593 0
M  V30 1074 C 99.9827 -1.00841 -2.04487 0
M  V30 1075 C 100.967 0.0512468 -1.60818 0
M  V30 1076 O 102.159 -0.162865 -1.76249 0
M  V30 1077 C 99.2877 -0.618474 -3.37683 0
M  V30 1078 C 98.3737 -1.71437 -3.87905 0
M  V30 1079 N 98.7647 -2.9477 -4.11029 0
M  V30 1080 C 97.0627 -1.5926 -4.16596 0
M  V30 1081 C 97.7637 -3.65834 -4.52261 0
M  V30 1082 N 96.7397 -2.9341 -4.57615 0
M  V30 1083 H 100.542 -1.94487 -2.20345 0
M  V30 1084 H 98.0557 -1.14805 -1.14863 0
M  V30 1085 H 100.053 -0.429247 -4.14684 0
M  V30 1086 H 98.7127 0.310766 -3.23209 0
M  V30 1087 H 99.7237 -3.30917 -3.9839 0
M  V30 1088 H 96.4007 -0.731606 -4.1104 0
M  V30 1089 H 97.7907 -4.71646 -4.78539 0
M  V30 1090 N 100.511 1.16574 -1.06058 0
M  V30 1091 C 101.922 1.68662 -0.800632 0
M  V30 1092 C 102.273 1.84184 0.67608 0
M  V30 1093 O 101.398 1.53568 1.52466 0
M  V30 1094 C 101.993 3.06356 -1.44676 0
M  V30 1095 C 100.552 3.55575 -1.23465 0
M  V30 1096 C 99.6988 2.31616 -1.52477 0
M  V30 1097 H 102.65 1.00969 -1.22438 0
M  V30 1098 H 102.671 3.70636 -0.860788 0
M  V30 1099 H 102.183 2.95027 -2.52152 0
M  V30 1100 H 100.284 3.72167 -0.179527 0
M  V30 1101 H 100.397 4.37812 -1.94571 0
M  V30 1102 H 98.7608 2.36512 -0.945209 0
M  V30 1103 H 99.5438 2.22887 -2.61106 0
M  V30 1104 N 101.989 0.842826 1.3317 0
M  V30 1105 C 102.952 0.284065 2.27433 0
M  V30 1106 C 103.952 -0.54948 1.5112 0
M  V30 1107 O 105.142 -0.362699 1.70382 0
M  V30 1108 C 102.274 -0.599384 3.35589 0
M  V30 1109 H 103.467 1.11589 2.78366 0
M  V30 1110 H 101.02 0.616221 1.4364 0
M  V30 1111 H 101.755 -1.45349 2.89904 0
M  V30 1112 H 101.54 -0.00291266 3.921 0
M  V30 1113 H 103.03 -0.983488 4.05854 0
M  V30 1114 N 103.467 -1.45747 0.599634 0
M  V30 1115 C 104.716 -2.01502 0.0893511 0
M  V30 1116 C 105.029 -1.4748 -1.28488 0
M  V30 1117 O 106.235 -1.95161 -1.88745 0
M  V30 1118 C 104.691 -3.59735 0.109082 0
M  V30 1119 C 104.299 -4.22754 1.48267 0
M  V30 1120 C 106.043 -4.23085 -0.346374 0
M  V30 1121 C 103.95 -5.73115 1.45921 0
M  V30 1122 H 102.88 -0.753417 0.0296347 0
M  V30 1123 H 105.531 -1.67303 0.753788 0
M  V30 1124 H 103.913 -3.91087 -0.621854 0
M  V30 1125 H 105.087 -4.02987 2.23468 0
M  V30 1126 H 103.402 -3.71567 1.87955 0
M  V30 1127 H 105.999 -5.33327 -0.38298 0
M  V30 1128 H 106.342 -3.93201 -1.36743 0
M  V30 1129 H 106.875 -3.9642 0.331038 0
M  V30 1130 H 103.614 -6.07685 2.45762 0
M  V30 1131 H 103.134 -5.95097 0.749665 0
M  V30 1132 H 104.813 -6.3616 1.17941 0
M  V30 1133 N 104.945 -0.338344 -1.53925 0
M  V30 1134 C 106.191 0.260143 -2.01125 0
M  V30 1135 C 106.524 1.50617 -1.22589 0
M  V30 1136 O 105.799 1.91979 -0.312113 0
M  V30 1137 C 106.082 0.579499 -3.55407 0
M  V30 1138 C 105.935 -0.678264 -4.44657 0
M  V30 1139 C 107.254 1.39122 -4.17532 0
M  V30 1140 H 104.373 0.0930772 -0.731099 0
M  V30 1141 H 107.015 -0.457852 -1.84401 0
M  V30 1142 H 105.165 1.19118 -3.69788 0
M  V30 1143 H 106.837 -1.31631 -4.42121 0
M  V30 1144 H 105.08 -1.3042 -4.13731 0
M  V30 1145 H 105.751 -0.410143 -5.50474 0
M  V30 1146 H 108.227 0.874035 -4.06817 0
M  V30 1147 H 107.103 1.58342 -5.25565 0
M  V30 1148 H 107.364 2.39178 -3.71815 0
M  V30 1149 N 106.423 1.57458 -0.0668435 0
M  V30 1150 C 107.386 2.11323 0.887422 0
M  V30 1151 C 108.386 1.03618 1.22964 0
M  V30 1152 O 109.576 1.29626 1.16373 0
M  V30 1153 C 106.708 2.61048 2.19242 0
M  V30 1154 H 107.901 2.96942 0.420194 0
M  V30 1155 H 105.454 1.55239 0.181793 0
M  V30 1156 H 106.189 1.78868 2.70512 0
M  V30 1157 H 105.974 3.39769 1.95702 0
M  V30 1158 H 107.464 3.02814 2.87565 0
M  V30 1159 N 107.901 -0.206675 1.56239 0
M  V30 1160 C 109.147 -0.930218 1.80208 0
M  V30 1161 C 109.48 -1.83387 0.638981 0
M  V30 1162 O 108.755 -1.91119 -0.361066 0
M  V30 1163 C 109.038 -1.75641 3.1436 0
M  V30 1164 C 108.891 -0.878257 4.41142 0
M  V30 1165 C 110.21 -2.73129 3.45092 0
M  V30 1166 H 107.329 -0.336742 0.655571 0
M  V30 1167 H 109.971 -0.198222 1.88963 0
M  V30 1168 H 108.121 -2.38048 3.07027 0
M  V30 1169 H 109.793 -0.269787 4.6051 0
M  V30 1170 H 108.036 -0.184385 4.33408 0
M  V30 1171 H 108.707 -1.49106 5.3148 0
M  V30 1172 H 111.183 -2.20856 3.52649 0
M  V30 1173 H 110.059 -3.28028 4.40101 0
M  V30 1174 H 110.32 -3.51606 2.68003 0
M  V30 1175 N 109.379 -1.50304 -0.473955 0
M  V30 1176 C 110.609 -1.64663 -1.24778 0
M  V30 1177 C 111.017 -0.328174 -1.86332 0
M  V30 1178 O 110.36 0.699536 -1.69859 0
M  V30 1179 C 110.422 -2.6778 -2.39863 0
M  V30 1180 C 110.086 -4.11413 -1.98969 0
M  V30 1181 C 111.083 -4.97372 -1.51385 0
M  V30 1182 C 108.768 -4.57312 -2.07777 0
M  V30 1183 C 110.762 -6.27277 -1.13148 0
M  V30 1184 C 108.449 -5.87223 -1.69152 0
M  V30 1185 C 109.447 -6.72031 -1.21915 0
M  V30 1186 O 109.135 -7.99518 -0.838237 0
M  V30 1187 H 108.867 -0.556602 -0.383627 0
M  V30 1188 H 111.421 -1.9726 -0.572491 0
M  V30 1189 H 109.651 -2.30419 -3.10554 0
M  V30 1190 H 111.34 -2.71388 -3.01833 0
M  V30 1191 H 112.106 -4.63128 -1.44004 0
M  V30 1192 H 107.985 -3.91449 -2.43493 0
M  V30 1193 H 111.529 -6.93425 -0.762077 0
M  V30 1194 H 107.426 -6.20989 -1.76191 0
M  V30 1195 H 108.194 -8.12764 -0.967339 0
M  V30 1196 N 110.857 0.726932 -1.39834 0
M  V30 1197 C 112.134 1.47902 -1.28001 0
M  V30 1198 C 112.514 2.1083 0.106789 0
M  V30 1199 O 111.862 1.99242 1.11869 0
M  V30 1200 C 112.072 2.52392 -2.41038 0
M  V30 1201 C 113.42 3.18546 -2.80737 0
M  V30 1202 O 114.444 2.62708 -2.40547 0
M  V30 1203 O 113.303 4.19604 -3.50135 0
M  V30 1204 H 110.397 0.657163 -0.502062 0
M  V30 1205 H 112.943 0.760071 -1.51727 0
M  V30 1206 H 111.715 2.04329 -3.33715 0
M  V30 1207 H 111.338 3.31837 -2.19021 0
M  V30 1208 N 112.336 1.25143 0.95797 0
M  V30 1209 C 113.564 1.12424 1.73691 0
M  V30 1210 C 113.979 -0.322304 1.86029 0
M  V30 1211 O 113.336 -1.22186 1.35561 0
M  V30 1212 C 113.387 1.76933 3.15241 0
M  V30 1213 O 113.108 3.15932 3.03511 0
M  V30 1214 C 114.609 1.6995 4.09429 0
M  V30 1215 H 111.829 0.3923 0.544373 0
M  V30 1216 H 114.373 1.6544 1.20207 0
M  V30 1217 H 112.528 1.27895 3.6568 0
M  V30 1218 H 112.942 3.47598 3.9278 0
M  V30 1219 H 114.416 2.19753 5.06372 0
M  V30 1220 H 114.893 0.662619 4.34173 0
M  V30 1221 H 115.499 2.18461 3.64904 0
M  V30 1222 N 113.814 -1.1601 1.06675 0
M  V30 1223 C 115.062 -1.86264 0.784229 0
M  V30 1224 C 115.383 -1.82328 -0.691488 0
M  V30 1225 O 114.653 -1.25947 -1.50047 0
M  V30 1226 H 113.233 -0.689621 0.28711 0
M  V30 1227 H 115.895 -1.40664 1.34906 0
M  V30 1228 H 114.991 -2.91595 1.11259 0
M  V30 1229 N 115.292 -0.849877 -1.32721 0
M  V30 1230 C 116.202 -0.293791 -2.32753 0
M  V30 1231 C 117.218 0.585906 -1.63839 0
M  V30 1232 O 118.394 0.487413 -1.95413 0
M  V30 1233 C 115.459 0.512752 -3.42887 0
M  V30 1234 C 114.52 -0.39252 -4.27502 0
M  V30 1235 C 113.753 0.375625 -5.32377 0
M  V30 1236 O 113.976 1.60613 -5.4732 0
M  V30 1237 O 112.91 -0.256094 -6.01355 0
M  V30 1238 H 116.736 -1.12242 -2.82197 0
M  V30 1239 H 114.321 -0.612685 -1.36259 0
M  V30 1240 H 116.203 0.970704 -4.10067 0
M  V30 1241 H 114.878 1.31826 -2.95641 0
M  V30 1242 H 113.785 -0.898547 -3.63149 0
M  V30 1243 H 115.118 -1.16309 -4.7826 0
M  V30 1244 N 116.77 1.45427 -0.607355 0
M  V30 1245 C 117.733 2.28974 0.101693 0
M  V30 1246 C 118.733 1.39754 0.795329 0
M  V30 1247 O 119.923 1.61878 0.643527 0
M  V30 1248 C 117.055 3.20768 1.15414 0
M  V30 1249 H 118.248 2.93147 -0.632844 0
M  V30 1250 H 115.801 1.51945 -0.366391 0
M  V30 1251 H 116.536 2.61395 1.91945 0
M  V30 1252 H 116.321 3.86489 0.66098 0
M  V30 1253 H 117.811 3.83589 1.65073 0
M  V30 1254 N 118.248 0.346503 1.53744 0
M  V30 1255 C 119.158 -0.517293 2.28826 0
M  V30 1256 C 120.174 -1.10935 1.3405 0
M  V30 1257 O 121.35 -1.1244 1.6709 0
M  V30 1258 C 118.415 -1.65098 3.04866 0
M  V30 1259 C 117.476 -1.0884 4.15274 0
M  V30 1260 C 116.709 -2.16806 4.87679 0
M  V30 1261 O 116.932 -3.3758 4.59778 0
M  V30 1262 O 115.866 -1.80934 5.74061 0
M  V30 1263 H 119.692 0.0931396 3.03557 0
M  V30 1264 H 117.277 0.111458 1.48984 0
M  V30 1265 H 119.159 -2.31053 3.5241 0
M  V30 1266 H 117.834 -2.24717 2.32989 0
M  V30 1267 H 116.741 -0.3933 3.72027 0
M  V30 1268 H 118.074 -0.537036 4.89261 0
M  V30 1269 N 119.726 -1.57421 0.075193 0
M  V30 1270 C 120.954 -1.97946 -0.602076 0
M  V30 1271 C 121.369 -0.953674 -1.62943 0
M  V30 1272 O 120.726 0.0592551 -1.82404 0
M  V30 1273 C 120.777 -3.38546 -1.26762 0
M  V30 1274 O 120.498 -4.37195 -0.281376 0
M  V30 1275 C 121.999 -3.93966 -2.03239 0
M  V30 1276 H 119.219 -0.650918 -0.162931 0
M  V30 1277 H 121.763 -2.03959 0.148601 0
M  V30 1278 H 119.918 -3.33609 -1.96936 0
M  V30 1279 H 120.332 -5.18975 -0.759267 0
M  V30 1280 H 121.806 -4.94555 -2.45193 0
M  V30 1281 H 122.283 -3.30693 -2.8903 0
M  V30 1282 H 122.889 -4.02315 -1.37924 0
M  V30 1283 N 121.204 0.198386 -1.56346 0
M  V30 1284 C 122.615 0.763358 -1.70381 0
M  V30 1285 C 122.966 1.83995 -0.681203 0
M  V30 1286 O 122.091 2.15785 0.16305 0
M  V30 1287 C 122.686 1.39143 -3.08909 0
M  V30 1288 C 121.245 1.90352 -3.2472 0
M  V30 1289 C 120.392 0.772233 -2.6633 0
M  V30 1290 H 123.343 -0.0266377 -1.58678 0
M  V30 1291 H 123.364 2.26076 -3.06055 0
M  V30 1292 H 122.876 0.607638 -3.83314 0
M  V30 1293 H 120.977 2.71461 -2.55225 0
M  V30 1294 H 121.09 2.06757 -4.3219 0
M  V30 1295 H 119.454 1.18566 -2.2542 0
M  V30 1296 H 120.237 0.00073556 -3.433 0
M  V30 1297 N 122.682 1.50554 0.465978 0
M  V30 1298 C 123.645 1.69233 1.54574 0
M  V30 1299 C 124.645 0.562901 1.50626 0
M  V30 1300 O 125.835 0.830016 1.53155 0
M  V30 1301 C 122.967 1.7223 2.94193 0
M  V30 1302 H 124.16 2.65571 1.39327 0
M  V30 1303 H 121.713 1.40111 0.692711 0
M  V30 1304 H 122.448 0.77603 3.14878 0
M  V30 1305 H 122.233 2.54285 2.98466 0
M  V30 1306 H 123.723 1.88618 3.72576 0
M  V30 1307 N 124.16 -0.719506 1.40217 0
M  V30 1308 C 125.408 -1.47641 1.3801 0
M  V30 1309 C 125.729 -1.94992 -0.018145 0
M  V30 1310 O 124.999 -1.70073 -0.972207 0
M  V30 1311 H 123.579 -0.547744 0.507923 0
M  V30 1312 H 126.241 -0.853187 1.75233 0
M  V30 1313 H 125.337 -2.35112 2.05253 0
M  V30 1314 N 125.638 -1.25649 -0.95132 0
M  V30 1315 C 127.049 -1.09654 -1.51106 0
M  V30 1316 C 127.4 0.326615 -1.93462 0
M  V30 1317 O 126.525 1.21697 -1.78938 0
M  V30 1318 C 127.12 -1.98437 -2.74605 0
M  V30 1319 C 125.679 -1.86618 -3.2688 0
M  V30 1320 C 124.826 -1.9239 -1.99703 0
M  V30 1321 H 127.777 -1.38887 -0.767865 0
M  V30 1322 H 127.798 -1.5263 -3.48546 0
M  V30 1323 H 127.31 -3.02009 -2.43746 0
M  V30 1324 H 125.411 -0.859421 -3.62553 0
M  V30 1325 H 125.524 -2.71607 -3.94673 0
M  V30 1326 H 123.888 -1.36317 -2.15151 0
M  V30 1327 H 124.671 -2.97573 -1.71188 0
M  V30 1328 N 127.117 1.15442 -1.07289 0
M  V30 1329 C 128.047 2.22312 -0.714107 0
M  V30 1330 C 129.028 1.67467 0.298155 0
M  V30 1331 O 130.213 1.93445 0.171048 0
M  V30 1332 C 127.343 3.47124 -0.110448 0
M  V30 1333 C 126.297 4.14926 -1.04979 0
M  V30 1334 C 125.623 5.33807 -0.308924 0
M  V30 1335 C 126.923 4.64762 -2.38314 0
M  V30 1336 H 128.617 2.5258 -1.6076 0
M  V30 1337 H 126.163 1.21404 -0.77441 0
M  V30 1338 H 128.116 4.21124 0.152482 0
M  V30 1339 H 126.84 3.16187 0.81812 0
M  V30 1340 H 125.499 3.42866 -1.29764 0
M  V30 1341 H 125.147 4.99126 0.623084 0
M  V30 1342 H 124.847 5.80113 -0.935036 0
M  V30 1343 H 126.371 6.10576 -0.0537771 0
M  V30 1344 H 127.785 5.30292 -2.1786 0
M  V30 1345 H 126.182 5.21728 -2.96514 0
M  V30 1346 H 127.252 3.80434 -3.00663 0
M  V30 1347 N 128.595 0.856903 1.32268 0
M  V30 1348 C 130.006 0.515711 1.79436 0
M  V30 1349 C 130.357 -0.966586 1.70738 0
M  V30 1350 O 129.482 -1.75409 1.26731 0
M  V30 1351 C 130.077 0.929335 3.25805 0
M  V30 1352 C 128.636 0.640006 3.70919 0
M  V30 1353 C 127.783 1.12784 2.53328 0
M  V30 1354 H 130.734 1.04389 1.19535 0
M  V30 1355 H 130.755 0.246633 3.797 0
M  V30 1356 H 130.267 2.00821 3.32103 0
M  V30 1357 H 128.368 -0.428051 3.70133 0
M  V30 1358 H 128.481 1.20788 4.63624 0
M  V30 1359 H 126.845 0.548033 2.48734 0
M  V30 1360 H 127.628 2.21387 2.62379 0
M  V30 1361 N 130.073 -1.45103 0.615059 0
M  V30 1362 C 131.303 -2.06254 0.119596 0
M  V30 1363 C 131.711 -1.4591 -1.20445 0
M  V30 1364 O 131.054 -0.570384 -1.7462 0
M  V30 1365 C 131.116 -3.59396 -0.0865591 0
M  V30 1366 C 130.78 -4.42116 1.15683 0
M  V30 1367 C 131.777 -4.7662 2.07676 0
M  V30 1368 C 129.462 -4.82749 1.38775 0
M  V30 1369 C 131.456 -5.50622 3.21082 0
M  V30 1370 C 129.143 -5.56504 2.52481 0
M  V30 1371 C 130.141 -5.90358 3.43463 0
M  V30 1372 O 129.829 -6.62615 4.55189 0
M  V30 1373 H 129.561 -0.672423 0.0694512 0
M  V30 1374 H 132.115 -1.87219 0.844885 0
M  V30 1375 H 130.345 -3.76859 -0.866823 0
M  V30 1376 H 132.034 -4.02365 -0.534555 0
M  V30 1377 H 132.8 -4.4578 1.91063 0
M  V30 1378 H 128.679 -4.55829 0.688545 0
M  V30 1379 H 132.223 -5.76965 3.92119 0
M  V30 1380 H 128.12 -5.86759 2.69043 0
M  V30 1381 H 128.888 -6.81071 4.53966 0
M  V30 1382 N 131.551 -0.354651 -1.53558 0
M  V30 1383 C 132.8 0.239504 -2.00273 0
M  V30 1384 C 133.113 1.50759 -1.24623 0
M  V30 1385 O 134.319 2.17968 -1.61871 0
M  V30 1386 C 132.775 0.477341 -3.5672 0
M  V30 1387 C 132.383 -0.775488 -4.41237 0
M  V30 1388 C 134.127 1.02975 -4.11821 0
M  V30 1389 C 132.034 -0.507838 -5.89216 0
M  V30 1390 H 130.964 0.0932743 -0.748208 0
M  V30 1391 H 133.615 -0.471701 -1.77334 0
M  V30 1392 H 131.997 1.24953 -3.7577 0
M  V30 1393 H 133.171 -1.54963 -4.33962 0
M  V30 1394 H 131.486 -1.25033 -3.97185 0
M  V30 1395 H 134.083 1.24513 -5.2 0
M  V30 1396 H 134.426 1.98862 -3.65731 0
M  V30 1397 H 134.959 0.317994 -3.96527 0
M  V30 1398 H 131.698 -1.43674 -6.39561 0
M  V30 1399 H 131.218 0.228011 -5.99366 0
M  V30 1400 H 132.897 -0.129238 -6.46871 0
M  V30 1401 N 133.029 1.57378 -0.0835403 0
M  V30 1402 C 134.275 1.94217 0.583733 0
M  V30 1403 C 134.608 0.964653 1.68547 0
M  V30 1404 O 133.883 -0.00422258 1.945 0
M  V30 1405 C 134.166 3.41253 1.14972 0
M  V30 1406 C 134.019 4.49768 0.0538277 0
M  V30 1407 C 135.338 3.89352 2.05166 0
M  V30 1408 H 132.457 0.706233 0.210724 0
M  V30 1409 H 135.099 1.89392 -0.1519 0
M  V30 1410 H 133.249 3.45496 1.77665 0
M  V30 1411 H 134.921 4.57641 -0.579851 0
M  V30 1412 H 133.164 4.29432 -0.614068 0
M  V30 1413 H 133.835 5.49817 0.490452 0
M  V30 1414 H 136.311 3.87189 1.52393 0
M  V30 1415 H 135.187 4.92822 2.41698 0
M  V30 1416 H 135.448 3.27973 2.96456 0
M  V30 1417 N 134.507 -0.190092 1.56449 0
M  V30 1418 C 135.44 -1.26375 1.90012 0
M  V30 1419 C 136.418 -1.43705 0.760765 0
M  V30 1420 O 137.602 -1.59014 1.01226 0
M  V30 1421 C 134.729 -2.62962 2.13468 0
M  V30 1422 C 133.775 -2.62474 3.36169 0
M  V30 1423 S 134.608 -2.13412 4.91137 0
M  V30 1424 C 135.764 -3.51812 5.17667 0
M  V30 1425 H 135.997 -0.977181 2.80782 0
M  V30 1426 H 133.53 -0.393814 1.49293 0
M  V30 1427 H 135.488 -3.41583 2.27664 0
M  V30 1428 H 134.149 -2.88828 1.23439 0
M  V30 1429 H 133.342 -3.62918 3.49723 0
M  V30 1430 H 132.944 -1.91937 3.20992 0
M  V30 1431 H 135.236 -4.47706 5.08494 0
M  V30 1432 H 136.179 -3.43148 6.19399 0
M  V30 1433 H 136.587 -3.46956 4.45288 0
M  V30 1434 N 135.985 -1.50799 -0.457987 0
M  V30 1435 C 136.895 -1.73426 -1.57989 0
M  V30 1436 C 137.911 -0.617745 -1.62665 0
M  V30 1437 O 139.087 -0.897614 -1.80291 0
M  V30 1438 C 136.152 -1.83557 -2.94122 0
M  V30 1439 C 135.213 -3.07345 -2.99729 0
M  V30 1440 C 134.446 -3.16983 -4.29368 0
M  V30 1441 O 134.669 -2.33077 -5.20607 0
M  V30 1442 O 133.603 -4.09812 -4.40837 0
M  V30 1443 H 137.429 -2.68555 -1.41817 0
M  V30 1444 H 135.014 -1.35052 -0.638859 0
M  V30 1445 H 136.896 -1.92326 -3.74952 0
M  V30 1446 H 135.571 -0.916137 -3.10465 0
M  V30 1447 H 134.478 -3.04068 -2.1793 0
M  V30 1448 H 135.811 -3.9891 -2.88326 0
M  V30 1449 N 137.463 0.71206 -1.40597 0
M  V30 1450 C 138.693 1.49894 -1.42181 0
M  V30 1451 C 139.101 1.89189 -0.0208078 0
M  V30 1452 O 138.444 1.56223 0.966436 0
M  V30 1453 C 138.506 2.80215 -2.25211 0
M  V30 1454 C 138.17 2.63221 -3.73582 0
M  V30 1455 C 139.167 2.30249 -4.66135 0
M  V30 1456 C 136.852 2.79376 -4.17438 0
M  V30 1457 C 138.846 2.13645 -6.00529 0
M  V30 1458 C 136.533 2.6239 -5.51901 0
M  V30 1459 C 137.531 2.29573 -6.43262 0
M  V30 1460 O 137.219 2.12719 -7.75246 0
M  V30 1461 H 136.951 0.469031 -0.486812 0
M  V30 1462 H 139.505 0.88564 -1.85326 0
M  V30 1463 H 137.735 3.4389 -1.76852 0
M  V30 1464 H 139.424 3.41947 -2.18694 0
M  V30 1465 H 140.19 2.17398 -4.33547 0
M  V30 1466 H 136.069 3.03906 -3.46644 0
M  V30 1467 H 139.613 1.87953 -6.71803 0
M  V30 1468 H 135.51 2.74826 -5.84073 0
M  V30 1469 H 136.278 2.27611 -7.86216 0
M  V30 1470 N 138.941 1.26152 0.944643 0
M  V30 1471 C 140.187 1.11657 1.69294 0
M  V30 1472 C 140.52 -0.339926 1.91202 0
M  V30 1473 O 139.795 -1.24994 1.49019 0
M  V30 1474 C 140.078 1.88236 3.06984 0
M  V30 1475 C 139.931 3.41772 2.92424 0
M  V30 1476 C 141.25 1.67343 4.07043 0
M  V30 1477 H 138.369 0.407004 0.614424 0
M  V30 1478 H 141.011 1.55106 1.09737 0
M  V30 1479 H 139.161 1.51308 3.57824 0
M  V30 1480 H 140.833 3.88433 2.48832 0
M  V30 1481 H 139.076 3.68974 2.28124 0
M  V30 1482 H 139.747 3.90579 3.90067 0
M  V30 1483 H 142.223 1.99509 3.65151 0
M  V30 1484 H 141.099 2.23346 5.01406 0
M  V30 1485 H 141.36 0.617158 4.37771 0
M  V30 1486 N 140.419 -1.14872 1.07899 0
M  V30 1487 C 141.696 -1.81928 0.71845 0
M  V30 1488 C 142.076 -1.95417 -0.798455 0
M  V30 1489 O 141.424 -1.50997 -1.715 0
M  V30 1490 C 141.634 -3.17937 1.43935 0
M  V30 1491 C 142.982 -3.93501 1.59506 0
M  V30 1492 O 144.006 -3.27509 1.40058 0
M  V30 1493 O 142.865 -5.1183 1.91551 0
M  V30 1494 H 139.959 -0.78628 0.256305 0
M  V30 1495 H 142.505 -1.21934 1.18026 0
M  V30 1496 H 141.277 -3.0325 2.47295 0
M  V30 1497 H 140.9 -3.85619 0.968687 0
M  V30 1498 N 141.898 -0.863906 -1.31812 0
M  V30 1499 C 143.146 -0.470904 -1.96537 0
M  V30 1500 C 143.467 0.978771 -1.68657 0
M  V30 1501 O 142.737 1.6853 -0.998717 0
M  V30 1502 H 141.317 -0.171148 -0.72713 0
M  V30 1503 H 143.979 -1.10236 -1.60729 0
M  V30 1504 H 143.075 -0.623616 -3.05806 0
M  V30 1505 N 143.376 1.44774 -0.622745 0
M  V30 1506 C 144.622 2.0242 -0.124083 0
M  V30 1507 C 144.955 1.4881 1.24777 0
M  V30 1508 O 144.23 0.668799 1.8264 0
M  V30 1509 C 144.513 3.59957 -0.101619 0
M  V30 1510 C 144.366 4.23867 -1.50521 0
M  V30 1511 C 145.685 4.36284 0.578272 0
M  V30 1512 H 142.804 0.735528 -0.0465645 0
M  V30 1513 H 145.446 1.72447 -0.797617 0
M  V30 1514 H 143.596 3.85623 0.471934 0
M  V30 1515 H 145.268 4.09336 -2.12701 0
M  V30 1516 H 143.511 3.81684 -2.06154 0
M  V30 1517 H 144.182 5.32843 -1.4416 0
M  V30 1518 H 146.658 4.16001 0.0906057 0
M  V30 1519 H 145.534 5.46004 0.563149 0
M  V30 1520 H 145.795 4.10271 1.64713 0
M  V30 1521 N 144.854 0.36279 1.53368 0
M  V30 1522 C 146.082 -0.228613 2.05633 0
M  V30 1523 C 146.497 -1.42676 1.23649 0
M  V30 1524 O 145.854 -1.80394 0.27647 0
M  V30 1525 C 145.905 -0.624845 3.56059 0
M  V30 1526 O 145.626 0.525675 4.34935 0
M  V30 1527 C 147.127 -1.27493 4.24571 0
M  V30 1528 H 144.347 -0.0407183 0.669763 0
M  V30 1529 H 146.891 0.520352 1.97769 0
M  V30 1530 H 145.046 -1.32373 3.64083 0
M  V30 1531 H 145.46 0.205969 5.24095 0
M  V30 1532 H 146.934 -1.50277 5.31151 0
M  V30 1533 H 147.411 -2.23439 3.78116 0
M  V30 1534 H 148.017 -0.617558 4.20792 0
M  V30 1535 N 146.332 -1.57332 0.0918853 0
M  V30 1536 C 147.262 -2.16872 -0.865371 0
M  V30 1537 C 148.243 -1.10118 -1.29646 0
M  V30 1538 O 149.428 -1.38242 -1.36392 0
M  V30 1539 C 146.558 -2.74649 -2.12569 0
M  V30 1540 C 145.512 -3.86747 -1.83333 0
M  V30 1541 C 144.838 -4.31212 -3.16166 0
M  V30 1542 C 146.138 -5.10089 -1.1228 0
M  V30 1543 H 147.832 -2.97114 -0.369307 0
M  V30 1544 H 145.378 -1.42918 -0.176194 0
M  V30 1545 H 147.331 -3.14952 -2.7997 0
M  V30 1546 H 146.055 -1.91657 -2.64452 0
M  V30 1547 H 144.714 -3.46978 -1.18331 0
M  V30 1548 H 144.362 -3.45115 -3.6593 0
M  V30 1549 H 144.062 -5.06788 -2.97388 0
M  V30 1550 H 145.586 -4.74146 -3.84731 0
M  V30 1551 H 147 -5.47582 -1.69785 0
M  V30 1552 H 145.397 -5.91073 -1.03693 0
M  V30 1553 H 146.467 -4.84786 -0.105041 0
M  V30 1554 N 147.81 0.181792 -1.56548 0
M  V30 1555 C 149.226 0.53316 -1.50431 0
M  V30 1556 C 149.426 1.85184 -0.794297 0
M  V30 1557 O 148.482 2.50058 -0.350318 0
M  V30 1558 C 149.795 0.575597 -2.9514 0
M  V30 1559 C 151.343 0.663519 -3.05886 0
M  V30 1560 C 151.818 0.736946 -4.52032 0
M  V30 1561 N 153.309 0.800118 -4.56237 0
M  V30 1562 C 154.044 0.877327 -5.66649 0
M  V30 1563 N 153.54 0.916016 -6.86718 0
M  V30 1564 N 155.333 0.915542 -5.54594 0
M  V30 1565 H 147.484 -0.683025 -2.01118 0
M  V30 1566 H 149.747 -0.244988 -0.915797 0
M  V30 1567 H 149.453 -0.324482 -3.502 0
M  V30 1568 H 149.327 1.42572 -3.49218 0
M  V30 1569 H 151.714 1.55403 -2.50867 0
M  V30 1570 H 151.795 -0.21307 -2.54911 0
M  V30 1571 H 151.439 -0.149262 -5.07681 0
M  V30 1572 H 151.369 1.62953 -5.00753 0
M  V30 1573 H 153.86 0.778926 -3.69785 0
M  V30 1574 H 154.173 0.975813 -7.66614 0
M  V30 1575 H 152.518 0.884469 -6.89349 0
M  V30 1576 H 155.709 0.882245 -4.59711 0
M  V30 1577 H 155.882 0.972253 -6.40665 0
M  V30 1578 N 149.288 1.51039 0.449983 0
M  V30 1579 C 150.565 1.53612 1.21089 0
M  V30 1580 C 150.945 0.292997 2.09057 0
M  V30 1581 O 150.293 -0.72259 2.16774 0
M  V30 1582 C 150.503 2.84337 2.0237 0
M  V30 1583 C 151.851 3.35807 2.59843 0
M  V30 1584 O 152.875 2.85802 2.12593 0
M  V30 1585 O 151.734 4.23029 3.45989 0
M  V30 1586 H 148.828 0.617057 0.550608 0
M  V30 1587 H 151.374 1.63344 0.460082 0
M  V30 1588 H 150.146 3.66278 1.37681 0
M  V30 1589 H 149.769 2.77708 2.84542 0
M  V30 1590 N 150.766 -0.704594 1.40972 0
M  V30 1591 C 152.015 -1.46018 1.39146 0
M  V30 1592 C 152.328 -1.956 0.000589254 0
M  V30 1593 O 153.534 -2.71137 -0.1403 0
M  V30 1594 C 151.99 -2.63996 2.4461 0
M  V30 1595 C 151.598 -2.21238 3.89561 0
M  V30 1596 C 153.342 -3.41677 2.51907 0
M  V30 1597 C 151.249 -3.3612 4.86598 0
M  V30 1598 H 150.179 -0.548444 0.517422 0
M  V30 1599 H 152.83 -0.765784 1.66757 0
M  V30 1600 H 151.212 -3.3566 2.10115 0
M  V30 1601 H 152.386 -1.56923 4.33257 0
M  V30 1602 H 150.701 -1.56574 3.85841 0
M  V30 1603 H 153.298 -4.27182 3.2159 0
M  V30 1604 H 153.641 -3.86247 1.55303 0
M  V30 1605 H 154.174 -2.77064 2.85448 0
M  V30 1606 H 150.913 -2.96572 5.84573 0
M  V30 1607 H 150.433 -3.99315 4.47557 0
M  V30 1608 H 152.112 -4.02029 5.06934 0
M  V30 1609 N 152.244 -1.26651 -0.937939 0
M  V30 1610 C 153.49 -1.12553 -1.687 0
M  V30 1611 C 153.823 0.329782 -1.91379 0
M  V30 1612 O 153.098 1.24202 -1.4968 0
M  V30 1613 C 153.381 -1.89862 -3.05981 0
M  V30 1614 C 153.234 -3.43318 -2.90607 0
M  V30 1615 C 154.553 -1.69499 -4.0615 0
M  V30 1616 H 151.672 -0.410257 -0.612257 0
M  V30 1617 H 154.314 -1.55685 -1.08913 0
M  V30 1618 H 152.464 -1.53204 -3.57017 0
M  V30 1619 H 154.136 -3.89747 -2.46769 0
M  V30 1620 H 152.379 -3.70179 -2.26164 0
M  V30 1621 H 153.05 -3.92642 -3.8799 0
M  V30 1622 H 155.526 -2.01442 -3.64088 0
M  V30 1623 H 154.402 -2.26002 -5.00214 0
M  V30 1624 H 154.663 -0.640365 -4.37438 0
M  V30 1625 N 153.722 1.14298 -1.08507 0
M  V30 1626 C 154.672 2.17449 -0.685569 0
M  V30 1627 C 155.656 1.58167 0.295315 0
M  V30 1628 O 156.848 1.76675 0.107172 0
M  V30 1629 C 153.977 3.43161 -0.0975318 0
M  V30 1630 C 153.063 4.09471 -1.10426 0
M  V30 1631 N 153.454 4.51089 -2.28806 0
M  V30 1632 C 151.752 4.35976 -0.940258 0
M  V30 1633 C 152.453 5.02654 -2.9277 0
M  V30 1634 N 151.429 4.96927 -2.20374 0
M  V30 1635 H 155.231 2.47369 -1.587 0
M  V30 1636 H 152.745 1.30992 -0.959936 0
M  V30 1637 H 154.742 4.16388 0.20664 0
M  V30 1638 H 153.402 3.14719 0.798872 0
M  V30 1639 H 154.413 4.44097 -2.66455 0
M  V30 1640 H 151.09 4.17386 -0.0977441 0
M  V30 1641 H 152.48 5.44723 -3.93352 0
M  V30 1642 N 155.201 0.870884 1.31352 0
M  V30 1643 C 156.429 0.49677 2.00848 0
M  V30 1644 C 156.844 -0.910998 1.65367 0
M  V30 1645 O 156.201 -1.59696 0.883374 0
M  V30 1646 C 156.252 0.645308 3.55694 0
M  V30 1647 O 155.973 1.99764 3.89905 0
M  V30 1648 C 157.474 0.272326 4.42463 0
M  V30 1649 H 154.694 0.193462 0.642506 0
M  V30 1650 H 157.238 1.1723 1.67563 0
M  V30 1651 H 155.393 0.0173176 3.87396 0
M  V30 1652 H 155.807 2.00607 4.84621 0
M  V30 1653 H 157.281 0.427208 5.50344 0
M  V30 1654 H 157.758 -0.788587 4.32062 0
M  V30 1655 H 158.364 0.876054 4.1618 0
M  V30 1656 N 156.679 -1.44442 0.630414 0
M  V30 1657 C 157.589 -2.34476 -0.0761693 0
M  V30 1658 C 158.605 -1.52576 -0.836449 0
M  V30 1659 O 159.781 -1.85307 -0.788874 0
M  V30 1660 C 156.846 -3.30545 -1.04599 0
M  V30 1661 C 155.907 -4.28352 -0.28516 0
M  V30 1662 C 155.14 -5.19831 -1.20878 0
M  V30 1663 O 155.363 -5.15223 -2.44747 0
M  V30 1664 O 154.297 -5.97892 -0.693491 0
M  V30 1665 H 158.123 -2.96345 0.664324 0
M  V30 1666 H 155.708 -1.44203 0.39061 0
M  V30 1667 H 157.59 -3.89681 -1.60396 0
M  V30 1668 H 156.265 -2.7121 -1.76711 0
M  V30 1669 H 155.172 -3.72764 0.315837 0
M  V30 1670 H 156.505 -4.90605 0.395924 0
M  V30 1671 N 158.157 -0.370918 -1.53173 0
M  V30 1672 C 159.405 0.216673 -2.00935 0
M  V30 1673 C 159.726 1.48845 -1.25977 0
M  V30 1674 O 158.996 1.92286 -0.374551 0
M  V30 1675 H 157.576 0.0830565 -0.742368 0
M  V30 1676 H 160.238 -0.49838 -1.8842 0
M  V30 1677 H 159.334 0.439893 -3.08984 0
M  V30 1678 N 159.635 1.57281 -0.100228 0
M  V30 1679 C 161.046 1.81725 0.428107 0
M  V30 1680 C 161.397 1.01619 1.67833 0
M  V30 1681 O 160.522 0.247098 2.14985 0
M  V30 1682 C 161.117 3.29617 0.78347 0
M  V30 1683 C 159.676 3.54808 1.25653 0
M  V30 1684 C 158.823 2.76118 0.255752 0
M  V30 1685 H 161.774 1.55324 -0.325608 0
M  V30 1686 H 161.795 3.4322 1.64256 0
M  V30 1687 H 161.307 3.87893 -0.12665 0
M  V30 1688 H 159.408 3.01868 2.18418 0
M  V30 1689 H 159.521 4.63443 1.21482 0
M  V30 1690 H 157.885 2.43745 0.738956 0
M  V30 1691 H 158.668 3.37145 -0.647136 0
M  V30 1692 N 161.113 -0.173488 1.56642 0
M  V30 1693 C 162.046 -1.24353 1.91342 0
M  V30 1694 C 163.024 -1.4289 0.775965 0
M  V30 1695 O 164.208 -1.57932 1.02907 0
M  V30 1696 C 161.335 -2.60683 2.16245 0
M  V30 1697 C 160.381 -2.58894 3.38934 0
M  V30 1698 S 161.214 -2.0819 4.93373 0
M  V30 1699 C 162.37 -3.46302 5.21369 0
M  V30 1700 H 162.603 -0.947345 2.81803 0
M  V30 1701 H 160.136 -0.377958 1.49703 0
M  V30 1702 H 162.094 -3.39149 2.31275 0
M  V30 1703 H 160.755 -2.87502 1.26496 0
M  V30 1704 H 159.948 -3.59188 3.53553 0
M  V30 1705 H 159.55 -1.88522 3.2301 0
M  V30 1706 H 161.842 -4.42287 5.13214 0
M  V30 1707 H 162.785 -3.3656 6.23003 0
M  V30 1708 H 163.193 -3.42214 4.48943 0
M  V30 1709 N 162.591 -1.51276 -0.441967 0
M  V30 1710 C 163.819 -1.67516 -1.21434 0
M  V30 1711 C 164.234 -0.37055 -1.85128 0
M  V30 1712 O 163.591 0.650498 -1.70513 0
M  V30 1713 C 163.642 -2.78748 -2.30177 0
M  V30 1714 O 163.363 -4.04154 -1.69089 0
M  V30 1715 C 164.864 -3.06217 -3.20541 0
M  V30 1716 H 162.084 -0.562276 -0.366178 0
M  V30 1717 H 164.628 -1.97666 -0.524244 0
M  V30 1718 H 162.783 -2.5121 -2.94911 0
M  V30 1719 H 163.197 -4.65894 -2.40922 0
M  V30 1720 H 164.671 -3.8764 -3.92987 0
M  V30 1721 H 165.148 -2.18439 -3.81026 0
M  V30 1722 H 165.754 -3.35397 -2.61513 0
M  V30 1723 N 164.069 0.697108 -1.41344 0
M  V30 1724 C 165.48 1.27697 -1.36199 0
M  V30 1725 C 165.831 1.9615 -0.0443463 0
M  V30 1726 O 164.956 1.98689 0.857419 0
M  V30 1727 C 165.551 2.32223 -2.46694 0
M  V30 1728 C 164.11 2.8579 -2.44952 0
M  V30 1729 C 163.257 1.59807 -2.26621 0
M  V30 1730 H 166.208 0.491968 -1.50882 0
M  V30 1731 H 166.229 3.1348 -2.15664 0
M  V30 1732 H 165.741 1.82373 -3.42581 0
M  V30 1733 H 163.842 3.3982 -1.52817 0
M  V30 1734 H 163.955 3.36325 -3.41207 0
M  V30 1735 H 162.319 1.8556 -1.7447 0
M  V30 1736 H 163.102 1.11956 -3.24532 0
M  V30 1737 N 165.547 1.27147 0.931209 0
M  V30 1738 C 166.494 1.09568 2.03134 0
M  V30 1739 C 167.464 -0.00222433 1.661 0
M  V30 1740 O 168.649 0.159439 1.90133 0
M  V30 1741 C 165.789 0.745231 3.36957 0
M  V30 1742 C 164.902 1.92041 3.86968 0
M  V30 1743 C 164.037 1.51216 5.09222 0
M  V30 1744 C 163.076 2.65504 5.5152 0
M  V30 1745 N 162.213 2.25291 6.64972 0
M  V30 1746 H 167.053 2.03708 2.17502 0
M  V30 1747 H 164.59 1.01411 1.06556 0
M  V30 1748 H 166.548 0.522878 4.1391 0
M  V30 1749 H 165.178 -0.159202 3.22407 0
M  V30 1750 H 164.23 2.25541 3.06326 0
M  V30 1751 H 165.542 2.77787 4.1429 0
M  V30 1752 H 164.696 1.25084 5.93666 0
M  V30 1753 H 163.435 0.625749 4.83669 0
M  V30 1754 H 162.44 2.92354 4.65628 0
M  V30 1755 H 163.665 3.54761 5.7907 0
M  V30 1756 H 161.611 1.39098 6.41083 0
M  V30 1757 H 161.528 3.04577 6.91931 0
M  V30 1758 H 162.796 2.02398 7.52765 0
M  V30 1759 N 167.025 -1.13721 1.09112 0
M  V30 1760 C 168.441 -1.36914 0.820174 0
M  V30 1761 C 168.641 -1.93356 -0.567079 0
M  V30 1762 O 167.697 -2.15093 -1.32255 0
M  V30 1763 C 169.01 -2.3235 1.90877 0
M  V30 1764 C 170.558 -2.45973 1.93562 0
M  V30 1765 C 171.033 -3.44714 3.01556 0
M  V30 1766 N 172.524 -3.52263 3.00775 0
M  V30 1767 C 173.259 -4.28536 3.80978 0
M  V30 1768 N 172.755 -5.07991 4.71081 0
M  V30 1769 N 174.548 -4.23804 3.69251 0
M  V30 1770 H 166.699 -0.754348 1.98553 0
M  V30 1771 H 168.962 -0.3944 0.862063 0
M  V30 1772 H 168.668 -1.98027 2.90651 0
M  V30 1773 H 168.542 -3.32332 1.78424 0
M  V30 1774 H 170.929 -2.79584 0.944286 0
M  V30 1775 H 171.01 -1.45926 2.10093 0
M  V30 1776 H 170.654 -3.11835 4.00901 0
M  V30 1777 H 170.584 -4.44558 2.82269 0
M  V30 1778 H 173.075 -2.95567 2.35475 0
M  V30 1779 H 173.388 -5.63487 5.28869 0
M  V30 1780 H 171.733 -5.07235 4.75119 0
M  V30 1781 H 174.924 -3.60806 2.98222 0
M  V30 1782 H 175.097 -4.82995 4.31995 0
M  V30 1783 N 168.503 -0.877838 -1.30888 0
M  V30 1784 C 169.466 -0.344265 -2.266 0
M  V30 1785 C 170.466 0.50922 -1.52524 0
M  V30 1786 O 171.656 0.317398 -1.71284 0
M  V30 1787 C 168.788 0.510198 -3.37061 0
M  V30 1788 H 169.981 -1.1893 -2.7531 0
M  V30 1789 H 167.534 -0.654088 -1.41956 0
M  V30 1790 H 168.269 1.37612 -2.93655 0
M  V30 1791 H 168.054 -0.101047 -3.9197 0
M  V30 1792 H 169.544 0.875537 -4.08319 0
M  V30 1793 N 169.982 1.44106 -0.638065 0
M  V30 1794 C 171.231 2.01194 -0.142744 0
M  V30 1795 C 171.544 1.50835 1.24532 0
M  V30 1796 O 172.75 2.00096 1.83504 0
M  V30 1797 C 171.206 3.59319 -0.20442 0
M  V30 1798 C 170.814 4.18674 -1.59423 0
M  V30 1799 C 172.558 4.23854 0.234079 0
M  V30 1800 C 170.465 5.69045 -1.61065 0
M  V30 1801 H 169.395 0.752367 -0.0495998 0
M  V30 1802 H 172.046 1.65246 -0.797881 0
M  V30 1803 H 170.428 3.92598 0.517946 0
M  V30 1804 H 171.602 3.96921 -2.34074 0
M  V30 1805 H 169.917 3.66453 -1.97741 0
M  V30 1806 H 172.514 5.34155 0.241443 0
M  V30 1807 H 172.857 3.96688 1.2627 0
M  V30 1808 H 173.39 3.95403 -0.436025 0
M  V30 1809 H 170.129 6.00956 -2.61787 0
M  V30 1810 H 169.649 5.929 -0.90718 0
M  V30 1811 H 171.328 6.32809 -1.34766 0
M  V30 1812 N 171.46 0.379036 1.52974 0
M  V30 1813 C 172.37 -0.468639 2.29872 0
M  V30 1814 C 173.386 -1.08067 1.36373 0
M  V30 1815 O 174.562 -1.08871 1.69438 0
M  V30 1816 C 171.627 -1.58594 3.083 0
M  V30 1817 C 170.688 -1.00007 4.17489 0
M  V30 1818 C 169.921 -2.06413 4.92168 0
M  V30 1819 O 170.144 -3.27751 4.66835 0
M  V30 1820 O 169.078 -1.68717 5.7777 0
M  V30 1821 H 172.904 0.157508 3.03291 0
M  V30 1822 H 170.489 0.143035 1.48714 0
M  V30 1823 H 172.371 -2.23525 3.57232 0
M  V30 1824 H 171.046 -2.19724 2.37703 0
M  V30 1825 H 169.953 -0.314299 3.72777 0
M  V30 1826 H 171.286 -0.433135 4.90291 0
M  V30 1827 N 172.938 -1.57226 0.108567 0
M  V30 1828 C 174.184 -1.95121 -0.552761 0
M  V30 1829 C 174.517 -0.991345 -1.66991 0
M  V30 1830 O 173.792 -0.0267211 -1.94482 0
M  V30 1831 C 174.075 -3.43039 -1.09528 0
M  V30 1832 C 173.928 -4.49797 0.0177332 0
M  V30 1833 C 175.247 -3.92567 -1.98945 0
M  V30 1834 H 172.366 -0.709496 -0.199461 0
M  V30 1835 H 175.008 -1.89126 0.182011 0
M  V30 1836 H 173.158 -3.48279 -1.72146 0
M  V30 1837 H 174.83 -4.56661 0.652584 0
M  V30 1838 H 173.073 -4.284 0.682309 0
M  V30 1839 H 173.744 -5.50528 -0.402919 0
M  V30 1840 H 176.22 -3.89565 -1.46214 0
M  V30 1841 H 175.096 -4.96605 -2.33827 0
M  V30 1842 H 175.357 -3.32648 -2.91201 0
M  V30 1843 N 174.416 0.165178 -1.56732 0
M  V30 1844 C 175.665 0.879143 -1.81532 0
M  V30 1845 C 175.978 1.83144 -0.686842 0
M  V30 1846 O 177.184 2.58823 -0.819944 0
M  V30 1847 C 175.64 1.61388 -3.21686 0
M  V30 1848 C 175.248 0.704904 -4.4242 0
M  V30 1849 C 176.992 2.3157 -3.55774 0
M  V30 1850 C 174.899 1.44022 -5.73595 0
M  V30 1851 H 173.829 0.332033 -0.676957 0
M  V30 1852 H 176.48 0.132008 -1.83025 0
M  V30 1853 H 174.862 2.40599 -3.14529 0
M  V30 1854 H 176.036 -0.0506815 -4.60772 0
M  V30 1855 H 174.351 0.112419 -4.16248 0
M  V30 1856 H 176.948 2.8719 -4.51028 0
M  V30 1857 H 177.291 3.07201 -2.8095 0
M  V30 1858 H 177.824 1.59297 -3.64513 0
M  V30 1859 H 174.563 0.72612 -6.51466 0
M  V30 1860 H 174.083 2.16898 -5.5921 0
M  V30 1861 H 175.762 1.98606 -6.15764 0
M  V30 1862 N 175.894 1.51508 0.433938 0
M  V30 1863 C 176.857 1.72473 1.50949 0
M  V30 1864 C 177.857 0.594725 1.49398 0
M  V30 1865 O 179.047 0.862315 1.5136 0
M  V30 1866 C 176.179 1.78431 2.90474 0
M  V30 1867 H 177.372 2.68467 1.33662 0
M  V30 1868 H 174.925 1.41549 0.662836 0
M  V30 1869 H 175.66 0.842645 3.13161 0
M  V30 1870 H 175.445 2.60558 2.93005 0
M  V30 1871 H 176.935 1.96479 3.68491 0
M  V30 1872 N 177.372 -0.689602 1.41712 0
M  V30 1873 C 178.649 -1.44457 1.31877 0
M  V30 1874 C 179.029 -2.11039 -0.0508537 0
M  V30 1875 O 178.377 -2.02138 -1.06547 0
M  V30 1876 C 178.587 -2.45913 2.47645 0
M  V30 1877 C 179.935 -3.10991 2.89084 0
M  V30 1878 O 180.959 -2.56238 2.47428 0
M  V30 1879 O 179.818 -4.10174 3.61137 0
M  V30 1880 H 176.912 -0.64362 0.519309 0
M  V30 1881 H 179.458 -0.719576 1.53689 0
M  V30 1882 H 178.23 -1.95409 3.39015 0
M  V30 1883 H 177.853 -3.25913 2.27742 0
M  V30 1884 N 178.85 -1.27639 -0.924453 0
M  V30 1885 C 179.813 -1.10681 -2.00705 0
M  V30 1886 C 180.813 -0.0497823 -1.60723 0
M  V30 1887 O 182.003 -0.294654 -1.7169 0
M  V30 1888 C 179.135 -0.687164 -3.33902 0
M  V30 1889 H 180.328 -2.06817 -2.17179 0
M  V30 1890 H 177.881 -1.10473 -1.10569 0
M  V30 1891 H 178.616 0.275439 -3.23128 0
M  V30 1892 H 178.401 -1.45061 -3.6428 0
M  V30 1893 H 179.891 -0.590853 -4.13399 0
M  V30 1894 N 180.328 1.1314 -1.09713 0
M  V30 1895 C 181.568 1.8613 -0.844683 0
M  V30 1896 C 181.932 1.81765 0.618491 0
M  V30 1897 O 183.133 2.50024 0.98699 0
M  V30 1898 C 181.404 3.30151 -1.36877 0
M  V30 1899 S 182.963 4.206 -1.25064 0
M  V30 1900 H 179.781 0.642056 -0.305427 0
M  V30 1901 H 182.383 1.36343 -1.4011 0
M  V30 1902 H 181.087 3.30883 -2.42786 0
M  V30 1903 H 180.618 3.85 -0.808614 0
M  V30 1904 H 182.633 4.95783 -0.203486 0
M  V30 1905 N 181.806 0.884767 1.30421 0
M  V30 1906 C 182.738 0.308655 2.27112 0
M  V30 1907 C 183.751 -0.536655 1.53701 0
M  V30 1908 O 184.94 -0.35624 1.74909 0
M  V30 1909 C 182.04 -0.579782 3.33904 0
M  V30 1910 C 181.213 0.236417 4.36761 0
M  V30 1911 C 180.272 -0.582482 5.22966 0
M  V30 1912 O 179.298 -0.00525502 5.692 0
M  V30 1913 N 180.5 -1.89163 5.48815 0
M  V30 1914 H 183.265 1.13964 2.77186 0
M  V30 1915 H 180.826 0.747731 1.43599 0
M  V30 1916 H 182.818 -1.13366 3.88497 0
M  V30 1917 H 181.388 -1.31144 2.83761 0
M  V30 1918 H 180.608 0.97174 3.82035 0
M  V30 1919 H 181.896 0.795924 5.02536 0
M  V30 1920 H 181.294 -2.38352 5.13035 0
M  V30 1921 H 179.851 -2.39296 6.06284 0
M  V30 1922 N 183.284 -1.43765 0.645699 0
M  V30 1923 C 184.247 -2.29163 -0.0409488 0
M  V30 1924 C 185.247 -1.41813 -0.757996 0
M  V30 1925 O 186.437 -1.63527 -0.600382 0
M  V30 1926 C 183.569 -3.23716 -1.06869 0
M  V30 1927 H 184.762 -2.91366 0.710345 0
M  V30 1928 H 182.315 -1.5092 0.406547 0
M  V30 1929 H 183.05 -2.66393 -1.84947 0
M  V30 1930 H 182.835 -3.88105 -0.558277 0
M  V30 1931 H 184.325 -3.87831 -1.54845 0
M  V30 1932 N 184.763 -0.387143 -1.52771 0
M  V30 1933 C 185.693 0.440551 -2.29306 0
M  V30 1934 C 186.674 1.06535 -1.32606 0
M  V30 1935 O 187.859 1.07853 -1.61497 0
M  V30 1936 C 184.989 1.56919 -3.09829 0
M  V30 1937 C 183.943 1.07054 -4.14395 0
M  V30 1938 C 183.269 2.29109 -4.83129 0
M  V30 1939 C 184.569 0.140015 -5.22112 0
M  V30 1940 H 186.263 -0.198026 -2.98744 0
M  V30 1941 H 183.809 -0.09668 -1.43675 0
M  V30 1942 H 185.762 2.15503 -3.62128 0
M  V30 1943 H 184.486 2.23532 -2.3812 0
M  V30 1944 H 183.145 0.507247 -3.63074 0
M  V30 1945 H 182.793 2.94227 -4.0797 0
M  V30 1946 H 182.493 1.96406 -5.53804 0
M  V30 1947 H 184.017 2.88339 -5.38231 0
M  V30 1948 H 185.431 0.633978 -5.69784 0
M  V30 1949 H 183.828 -0.0971485 -6.00021 0
M  V30 1950 H 184.898 -0.811711 -4.78058 0
M  V30 1951 N 186.241 1.57166 -0.116904 0
M  V30 1952 C 187.189 2.16457 0.851418 0
M  V30 1953 C 188.183 1.11323 1.27686 0
M  V30 1954 O 189.389 1.2963 1.24884 0
M  V30 1955 H 185.764 0.69271 0.292672 0
M  V30 1956 H 187.735 2.96605 0.32685 0
M  V30 1957 C 186.484 2.77689 2.09246 0
M  V30 1958 H 185.807 3.58285 1.77402 0
M  V30 1959 H 187.247 3.22716 2.7501 0
M  V30 1960 C 185.706 1.74667 2.88085 0
M  V30 1961 O 186.236 1.19877 3.83396 0
M  V30 1962 N 184.442 1.44656 2.52038 0
M  V30 1963 H 183.989 1.89402 1.74599 0
M  V30 1964 H 183.947 0.759675 3.05084 0
M  V30 1965 N 187.719 -0.156864 1.56817 0
M  V30 1966 C 188.966 -0.871125 1.82805 0
M  V30 1967 C 189.294 -1.81611 0.696262 0
M  V30 1968 O 188.549 -1.93141 -0.315459 0
M  V30 1969 C 188.848 -1.68737 3.1506 0
M  V30 1970 C 188.514 -0.890045 4.42028 0
M  V30 1971 C 187.176 -0.670042 4.76512 0
M  V30 1972 C 189.528 -0.331769 5.20143 0
M  V30 1973 C 186.856 0.119104 5.86579 0
M  V30 1974 C 189.208 0.444365 6.31037 0
M  V30 1975 C 187.872 0.675035 6.64078 0
M  V30 1976 H 187.142 -0.318767 0.668931 0
M  V30 1977 H 189.789 -0.135274 1.91022 0
M  V30 1978 H 188.094 -2.49304 3.0225 0
M  V30 1979 H 189.791 -2.24331 3.3238 0
M  V30 1980 H 186.381 -1.07157 4.14988 0
M  V30 1981 H 190.565 -0.489043 4.93885 0
M  V30 1982 H 185.821 0.307417 6.10627 0
M  V30 1983 H 189.995 0.884139 6.90765 0
M  V30 1984 H 187.622 1.28839 7.49203 0
M  V30 1985 N 189.197 -1.51736 -0.425897 0
M  V30 1986 C 190.422 -1.69082 -1.20108 0
M  V30 1987 C 190.847 -0.392398 -1.83962 0
M  V30 1988 O 190.205 0.64858 -1.69302 0
M  V30 1989 C 190.253 -2.81604 -2.25237 0
M  V30 1990 O 189.357 -2.46004 -3.30992 0
M  V30 1991 H 188.698 -0.563408 -0.35138 0
M  V30 1992 H 191.228 -1.98358 -0.501512 0
M  V30 1993 H 191.238 -3.06025 -2.69838 0
M  V30 1994 H 189.913 -3.75817 -1.78142 0
M  V30 1995 H 188.49 -2.32195 -2.91787 0
M  V30 1996 N 190.675 0.682077 -1.42076 0
M  V30 1997 C 191.625 1.78823 -1.41444 0
M  V30 1998 C 192.609 1.58323 -0.28681 0
M  V30 1999 O 193.801 1.68926 -0.528498 0
M  V30 2000 C 190.93 3.17232 -1.3122 0
M  V30 2001 C 190.016 3.4338 -2.489 0
M  V30 2002 N 190.407 3.40152 -3.7434 0
M  V30 2003 C 188.705 3.73986 -2.43003 0
M  V30 2004 C 189.406 3.65581 -4.52466 0
M  V30 2005 N 188.382 3.85989 -3.8277 0
M  V30 2006 H 192.184 1.7471 -2.36334 0
M  V30 2007 H 189.698 0.882622 -1.36321 0
M  V30 2008 H 191.695 3.96489 -1.2885 0
M  V30 2009 H 190.355 3.22547 -0.373263 0
M  V30 2010 H 191.366 3.20221 -4.07037 0
M  V30 2011 H 188.043 3.86591 -1.57651 0
M  V30 2012 H 189.433 3.69108 -5.61435 0
M  V30 2013 N 192.153 1.28127 0.917671 0
M  V30 2014 C 193.085 1.07517 2.02417 0
M  V30 2015 C 194.098 0.0281099 1.62776 0
M  V30 2016 O 195.287 0.270748 1.76435 0
M  V30 2017 C 192.387 0.610957 3.33347 0
M  V30 2018 C 191.56 1.73255 4.01624 0
M  V30 2019 C 190.619 1.26238 5.10833 0
M  V30 2020 O 189.645 1.96389 5.34247 0
M  V30 2021 N 190.847 0.123448 5.80369 0
M  V30 2022 H 193.612 2.02806 2.20658 0
M  V30 2023 H 191.173 1.19827 1.08871 0
M  V30 2024 H 193.165 0.280101 4.0373 0
M  V30 2025 H 191.735 -0.24898 3.11607 0
M  V30 2026 H 190.955 2.23319 3.24842 0
M  V30 2027 H 192.243 2.48503 4.43986 0
M  V30 2028 H 191.641 -0.461847 5.63812 0
M  V30 2029 H 190.198 -0.148158 6.51632 0
M  V30 2030 N 193.631 -1.12557 1.10312 0
M  V30 2031 C 194.579 -2.20325 0.745629 0
M  V30 2032 C 195.573 -1.67429 -0.25763 0
M  V30 2033 O 196.779 -1.79612 -0.118132 0
M  V30 2034 H 193.154 -0.718118 0.223182 0
M  V30 2035 H 195.125 -2.47733 1.66346 0
M  V30 2036 C 193.874 -3.47168 0.192262 0
M  V30 2037 H 193.197 -3.88215 0.955475 0
M  V30 2038 H 194.637 -4.23995 -0.0198274 0
M  V30 2039 C 193.096 -3.19298 -1.07472 0
M  V30 2040 O 193.626 -3.3891 -2.15645 0
M  V30 2041 N 191.832 -2.73113 -0.992847 0
M  V30 2042 H 191.379 -2.57354 -0.112474 0
M  V30 2043 H 191.337 -2.54842 -1.84127 0
M  V30 2044 N 195.109 -0.891671 -1.2995 0
M  V30 2045 C 196.357 -0.512486 -1.95494 0
M  V30 2046 C 196.678 0.942776 -1.70695 0
M  V30 2047 O 195.948 1.66374 -1.03424 0
M  V30 2048 H 194.528 -0.186533 -0.723336 0
M  V30 2049 H 197.19 -1.13621 -1.58355 0
M  V30 2050 H 196.286 -0.688342 -3.04415 0
M  V30 2051 N 196.587 1.43421 -0.653314 0
M  V30 2052 C 197.836 2.01032 -0.164076 0
M  V30 2053 C 198.149 1.52147 1.22926 0
M  V30 2054 O 199.355 2.02031 1.81371 0
M  V30 2055 C 197.811 3.59082 -0.24252 0
M  V30 2056 C 197.419 4.1696 -1.63855 0
M  V30 2057 C 199.163 4.24079 0.18911 0
M  V30 2058 C 197.07 5.67304 -1.67092 0
M  V30 2059 H 196 0.751798 -0.0575769 0
M  V30 2060 H 198.651 1.6439 -0.815362 0
M  V30 2061 H 197.033 3.93125 0.476276 0
M  V30 2062 H 198.207 3.94416 -2.38271 0
M  V30 2063 H 196.522 3.64335 -2.01616 0
M  V30 2064 H 199.119 5.34381 0.184775 0
M  V30 2065 H 199.462 3.98005 1.22056 0
M  V30 2066 H 199.995 3.94918 -0.477938 0
M  V30 2067 H 196.734 5.98145 -2.68146 0
M  V30 2068 H 196.254 5.91904 -0.970014 0
M  V30 2069 H 197.933 6.31344 -1.4147 0
M  V30 2070 N 198.065 0.39524 1.52563 0
M  V30 2071 C 199.314 -0.186321 2.00838 0
M  V30 2072 C 199.627 -1.47402 1.28577 0
M  V30 2073 O 200.833 -2.13599 1.67593 0
M  V30 2074 C 199.289 -0.382595 3.57861 0
M  V30 2075 C 198.897 0.892202 4.39026 0
M  V30 2076 C 200.641 -0.9202 4.14406 0
M  V30 2077 C 198.548 0.66388 5.87662 0
M  V30 2078 H 197.478 -0.0734041 0.750418 0
M  V30 2079 H 200.129 0.518552 1.76021 0
M  V30 2080 H 198.511 -1.14946 3.7895 0
M  V30 2081 H 199.685 1.66414 4.29701 0
M  V30 2082 H 198 1.35519 3.9373 0
M  V30 2083 H 200.597 -1.10683 5.23119 0
M  V30 2084 H 200.94 -1.89096 3.70875 0
M  V30 2085 H 201.473 -0.212751 3.97231 0
M  V30 2086 H 198.212 1.6058 6.35527 0
M  V30 2087 H 197.732 -0.0690193 5.9976 0
M  V30 2088 H 199.411 0.300699 6.46301 0
M  V30 2089 N 199.544 -1.57102 0.125237 0
M  V30 2090 C 200.494 -2.12202 -0.833936 0
M  V30 2091 C 201.478 -1.04433 -1.22403 0
M  V30 2092 O 202.67 -1.30655 -1.19408 0
M  V30 2093 C 199.799 -2.72994 -2.08157 0
M  V30 2094 C 198.885 -3.87852 -1.71556 0
M  V30 2095 N 199.276 -4.9464 -1.05662 0
M  V30 2096 C 197.574 -3.98153 -2.00973 0
M  V30 2097 C 198.275 -5.74953 -0.883376 0
M  V30 2098 N 197.251 -5.24985 -1.41036 0
M  V30 2099 H 201.053 -2.92141 -0.321035 0
M  V30 2100 H 198.567 -1.62217 -0.0770315 0
M  V30 2101 H 200.564 -3.10816 -2.77847 0
M  V30 2102 H 199.224 -1.9452 -2.59985 0
M  V30 2103 H 200.235 -5.12872 -0.719878 0
M  V30 2104 H 196.912 -3.30728 -2.54804 0
M  V30 2105 H 198.302 -6.70904 -0.365675 0
M  V30 2106 N 201.022 0.148545 -1.56898 0
M  V30 2107 C 202.438 0.501131 -1.51528 0
M  V30 2108 C 202.638 1.83458 -0.833399 0
M  V30 2109 O 201.694 2.49259 -0.40328 0
M  V30 2110 C 203.007 0.512864 -2.96294 0
M  V30 2111 C 204.555 0.598487 -3.07225 0
M  V30 2112 C 205.03 0.640897 -4.53494 0
M  V30 2113 N 206.521 0.703163 -4.57832 0
M  V30 2114 C 207.256 0.756935 -5.68382 0
M  V30 2115 N 206.752 0.770147 -6.88506 0
M  V30 2116 N 208.545 0.797698 -5.56411 0
M  V30 2117 H 200.696 -0.725532 -1.99624 0
M  V30 2118 H 202.959 -0.264358 -0.910395 0
M  V30 2119 H 202.665 -0.398691 -3.49433 0
M  V30 2120 H 202.539 1.35133 -3.52163 0
M  V30 2121 H 204.926 1.50046 -2.54106 0
M  V30 2122 H 205.007 -0.267093 -2.54402 0
M  V30 2123 H 204.651 -0.256915 -5.0725 0
M  V30 2124 H 204.581 1.52295 -5.04097 0
M  V30 2125 H 207.072 0.700314 -3.71354 0
M  V30 2126 H 207.385 0.812983 -7.68512 0
M  V30 2127 H 205.73 0.738049 -6.9107 0
M  V30 2128 H 208.921 0.784535 -4.61479 0
M  V30 2129 H 209.094 0.83614 -6.42583 0
M  V30 2130 N 202.5 1.5196 0.417844 0
M  V30 2131 C 203.777 1.56146 1.17803 0
M  V30 2132 C 204.157 0.337275 2.08388 0
M  V30 2133 O 203.505 -0.676447 2.18258 0
M  V30 2134 C 203.715 2.88566 1.96293 0
M  V30 2135 C 205.063 3.41244 2.52662 0
M  V30 2136 O 206.087 2.90247 2.06483 0
M  V30 2137 O 204.946 4.30273 3.36938 0
M  V30 2138 H 202.04 0.628598 0.537395 0
M  V30 2139 H 204.586 1.64283 0.425331 0
M  V30 2140 H 203.358 3.69116 1.2988 0
M  V30 2141 H 202.981 2.83681 2.78587 0
M  V30 2142 N 203.978 -0.674533 1.42435 0
M  V30 2143 C 205.224 -1.43671 1.43131 0
M  V30 2144 C 205.557 -1.94142 0.0476021 0
M  V30 2145 O 204.832 -1.70924 -0.928188 0
M  V30 2146 C 205.115 -2.63355 2.45594 0
M  V30 2147 C 204.968 -2.18514 3.93156 0
M  V30 2148 C 206.287 -3.65571 2.45043 0
M  V30 2149 H 203.406 -0.521077 0.521198 0
M  V30 2150 H 206.048 -0.766551 1.7385 0
M  V30 2151 H 204.198 -3.2053 2.19528 0
M  V30 2152 H 205.87 -1.66504 4.30202 0
M  V30 2153 H 204.113 -1.50086 4.07009 0
M  V30 2154 H 204.784 -3.04484 4.60428 0
M  V30 2155 H 207.26 -3.18113 2.68223 0
M  V30 2156 H 206.136 -4.46893 3.18713 0
M  V30 2157 H 206.397 -4.16716 1.47649 0
M  V30 2158 N 205.456 -1.28612 -0.910864 0
M  V30 2159 C 206.403 -1.12786 -2.01365 0
M  V30 2160 C 207.373 -0.024201 -1.66082 0
M  V30 2161 O 208.558 -0.189667 -1.89855 0
M  V30 2162 C 205.698 -0.798743 -3.35729 0
M  V30 2163 C 204.811 -1.98173 -3.83864 0
M  V30 2164 C 203.946 -1.59298 -5.06752 0
M  V30 2165 C 202.985 -2.74245 -5.47226 0
M  V30 2166 N 202.122 -2.35842 -6.61304 0
M  V30 2167 H 206.962 -2.07142 -2.14234 0
M  V30 2168 H 204.499 -1.03093 -1.0493 0
M  V30 2169 H 206.457 -0.588662 -4.13026 0
M  V30 2170 H 205.087 0.10789 -3.2262 0
M  V30 2171 H 204.139 -2.30386 -3.02699 0
M  V30 2172 H 205.451 -2.84343 -4.09818 0
M  V30 2173 H 204.605 -1.34513 -5.916 0
M  V30 2174 H 203.344 -0.702618 -4.82612 0
M  V30 2175 H 202.349 -2.99725 -4.60918 0
M  V30 2176 H 203.574 -3.63928 -5.73353 0
M  V30 2177 H 201.52 -1.49279 -6.38789 0
M  V30 2178 H 201.437 -3.15546 -6.86998 0
M  V30 2179 H 202.705 -2.14348 -7.4945 0
M  V30 2180 N 206.934 1.1197 -1.10907 0
M  V30 2181 C 208.345 1.65114 -0.871446 0
M  V30 2182 C 208.696 1.86885 0.597353 0
M  V30 2183 O 207.821 1.59896 1.45816 0
M  V30 2184 C 208.416 2.99944 -1.5754 0
M  V30 2185 C 206.975 3.50018 -1.38435 0
M  V30 2186 C 206.122 2.24941 -1.62164 0
M  V30 2187 H 209.073 0.956851 -1.2661 0
M  V30 2188 H 209.094 3.66651 -1.01721 0
M  V30 2189 H 208.606 2.84067 -2.64438 0
M  V30 2190 H 206.707 3.71071 -0.337214 0
M  V30 2191 H 206.82 4.29165 -2.12965 0
M  V30 2192 H 205.184 2.3229 -1.04467 0
M  V30 2193 H 205.967 2.11612 -2.70324 0
M  V30 2194 N 208.412 0.89855 1.29475 0
M  V30 2195 C 209.375 0.380272 2.26023 0
M  V30 2196 C 210.375 -0.484891 1.53315 0
M  V30 2197 O 211.565 -0.290108 1.71767 0
M  V30 2198 C 208.697 -0.45651 3.3783 0
M  V30 2199 H 209.89 1.23295 2.73383 0
M  V30 2200 H 207.443 0.676589 1.40897 0
M  V30 2201 H 208.178 -1.32922 2.95808 0
M  V30 2202 H 207.963 0.163393 3.91759 0
M  V30 2203 H 209.453 -0.810466 4.0966 0
M  V30 2204 N 209.89 -1.43072 0.660911 0
M  V30 2205 C 210.838 -2.32569 -0.0378199 0
M  V30 2206 C 211.832 -1.49046 -0.805092 0
M  V30 2207 O 213.038 -1.65206 -0.714624 0
M  V30 2208 H 209.413 -0.75136 -0.031019 0
M  V30 2209 H 211.384 -2.89216 0.734609 0
M  V30 2210 C 210.133 -3.33453 -0.985124 0
M  V30 2211 H 209.456 -3.97752 -0.404147 0
M  V30 2212 H 210.896 -3.98691 -1.44297 0
M  V30 2213 C 209.355 -2.64642 -2.08486 0
M  V30 2214 O 209.885 -2.46776 -3.16961 0
M  V30 2215 N 208.091 -2.23891 -1.8526 0
M  V30 2216 H 207.638 -2.38621 -0.970449 0
M  V30 2217 H 207.596 -1.78181 -2.59034 0
M  V30 2218 N 211.368 -0.403325 -1.52352 0
M  V30 2219 C 212.617 0.175668 -2.00934 0
M  V30 2220 C 212.93 1.46718 -1.29356 0
M  V30 2221 O 214.136 2.12708 -1.68724 0
M  V30 2222 C 212.592 0.363612 -3.58058 0
M  V30 2223 C 212.2 -0.915472 -4.38547 0
M  V30 2224 C 213.944 0.89821 -4.14888 0
M  V30 2225 C 211.851 -0.695035 -5.87302 0
M  V30 2226 H 210.781 0.0694234 -0.750797 0
M  V30 2227 H 213.432 -0.527879 -1.75743 0
M  V30 2228 H 211.814 1.12935 -3.79555 0
M  V30 2229 H 212.988 -1.68691 -4.28812 0
M  V30 2230 H 211.303 -1.37606 -3.93006 0
M  V30 2231 H 213.9 1.07907 -5.23699 0
M  V30 2232 H 214.243 1.87126 -3.71873 0
M  V30 2233 H 214.776 0.191681 -3.97338 0
M  V30 2234 H 211.515 -1.63948 -6.34666 0
M  V30 2235 H 211.035 0.0372116 -5.99788 0
M  V30 2236 H 212.714 -0.33497 -6.46132 0
M  V30 2237 N 212.846 1.57033 -0.133567 0
M  V30 2238 C 213.779 2.11824 0.848872 0
M  V30 2239 C 214.757 1.03833 1.2513 0
M  V30 2240 O 215.941 1.31579 1.34978 0
M  V30 2241 C 213.068 2.62692 2.138 0
M  V30 2242 C 212.114 3.82705 1.88253 0
M  V30 2243 S 212.947 5.2438 1.08563 0
M  V30 2244 C 214.103 5.78627 2.38624 0
M  V30 2245 H 214.336 2.94824 0.38289 0
M  V30 2246 H 211.869 1.5419 0.0804796 0
M  V30 2247 H 213.827 2.92652 2.87863 0
M  V30 2248 H 212.488 1.79847 2.57515 0
M  V30 2249 H 211.681 4.16496 2.83809 0
M  V30 2250 H 211.283 3.53437 1.22305 0
M  V30 2251 H 213.575 5.8924 3.34369 0
M  V30 2252 H 214.518 6.76443 2.09358 0
M  V30 2253 H 214.926 5.06783 2.48658 0
M  V30 2254 N 214.325 -0.140222 1.56975 0
M  V30 2255 C 215.574 -0.850152 1.82908 0
M  V30 2256 C 215.887 -1.82028 0.715892 0
M  V30 2257 O 217.093 -2.57485 0.861016 0
M  V30 2258 C 215.549 -1.5625 3.24213 0
M  V30 2259 C 215.157 -0.63443 4.43485 0
M  V30 2260 C 216.901 -2.25881 3.59413 0
M  V30 2261 C 214.808 -1.34879 5.75814 0
M  V30 2262 H 213.738 -0.321221 0.682153 0
M  V30 2263 H 216.389 -0.102874 1.83211 0
M  V30 2264 H 214.771 -2.35565 3.18316 0
M  V30 2265 H 215.945 0.12398 4.60633 0
M  V30 2266 H 214.26 -0.0461836 4.16374 0
M  V30 2267 H 216.857 -2.79978 4.5554 0
M  V30 2268 H 217.2 -3.02693 2.85802 0
M  V30 2269 H 217.733 -1.53477 3.67001 0
M  V30 2270 H 214.472 -0.622385 6.52539 0
M  V30 2271 H 213.992 -2.07974 5.6259 0
M  V30 2272 H 215.671 -1.88784 6.18845 0
M  V30 2273 N 215.803 -1.52179 -0.40978 0
M  V30 2274 C 217.028 -1.70347 -1.18308 0
M  V30 2275 C 217.453 -0.411887 -1.83535 0
M  V30 2276 O 216.811 0.630587 -1.6998 0
M  V30 2277 C 216.859 -2.83977 -2.22238 0
M  V30 2278 O 215.963 -2.495 -3.28365 0
M  V30 2279 H 215.304 -0.567103 -0.345384 0
M  V30 2280 H 217.834 -1.98879 -0.480445 0
M  V30 2281 H 217.844 -3.0887 -2.66577 0
M  V30 2282 H 216.519 -3.77685 -1.74146 0
M  V30 2283 H 215.096 -2.35277 -2.89308 0
M  V30 2284 N 217.281 0.66697 -1.42791 0
M  V30 2285 C 218.244 1.76211 -1.46568 0
M  V30 2286 C 219.244 1.56896 -0.352196 0
M  V30 2287 O 220.434 1.63044 -0.613364 0
M  V30 2288 C 217.566 3.14935 -1.30494 0
M  V30 2289 H 218.759 1.74247 -2.44086 0
M  V30 2290 H 216.312 0.877342 -1.29354 0
M  V30 2291 H 217.047 3.2252 -0.339301 0
M  V30 2292 H 216.832 3.30359 -2.11199 0
M  V30 2293 H 218.322 3.94821 -1.36038 0
M  V30 2294 N 218.759 1.29093 0.90403 0
M  V30 2295 C 219.987 1.19689 1.68766 0
M  V30 2296 C 220.402 -0.243113 1.87228 0
M  V30 2297 O 219.759 -1.16326 1.40621 0
M  V30 2298 C 219.81 1.90144 3.07453 0
M  V30 2299 O 219.531 3.2852 2.89838 0
M  V30 2300 C 221.032 1.87162 4.01852 0
M  V30 2301 H 218.252 0.415035 0.527244 0
M  V30 2302 H 220.796 1.7039 1.13082 0
M  V30 2303 H 218.951 1.43289 3.59926 0
M  V30 2304 H 219.365 3.63944 3.77684 0
M  V30 2305 H 220.839 2.41032 4.96596 0
M  V30 2306 H 221.316 0.84617 4.30972 0
M  V30 2307 H 221.922 2.33741 3.5531 0
M  V30 2308 N 220.237 -1.11381 1.11499 0
M  V30 2309 C 221.185 -2.19522 0.768956 0
M  V30 2310 C 222.179 -1.67693 -0.239857 0
M  V30 2311 O 223.385 -1.79727 -0.0990755 0
M  V30 2312 H 219.76 -0.715711 0.230786 0
M  V30 2313 H 221.731 -2.45954 1.68964 0
M  V30 2314 C 220.48 -3.46945 0.229073 0
M  V30 2315 H 219.803 -3.8718 0.996596 0
M  V30 2316 H 221.243 -4.23993 0.0251441 0
M  V30 2317 C 219.702 -3.2042 -1.04079 0
M  V30 2318 O 220.232 -3.41178 -2.12038 0
M  V30 2319 N 218.438 -2.74151 -0.963823 0
M  V30 2320 H 217.985 -2.57459 -0.0851722 0
M  V30 2321 H 217.943 -2.56781 -1.81414 0
M  V30 2322 N 221.715 -0.905404 -1.28997 0
M  V30 2323 C 222.678 -0.392253 -2.25819 0
M  V30 2324 C 223.678 0.476753 -1.5357 0
M  V30 2325 O 224.868 0.280994 -1.71919 0
M  V30 2326 C 222 0.438588 -3.38067 0
M  V30 2327 H 223.193 -1.24743 -2.72725 0
M  V30 2328 H 220.746 -0.684051 -1.40536 0
M  V30 2329 H 221.481 1.31352 -2.96508 0
M  V30 2330 H 221.266 -0.184167 -3.91667 0
M  V30 2331 H 222.756 0.78873 -4.10084 0
M  V30 2332 N 223.193 1.4272 -0.668489 0
M  V30 2333 C 224.439 2.01923 -0.188419 0
M  V30 2334 C 224.772 1.52704 1.19979 0
M  V30 2335 O 224.047 0.726566 1.8042 0
M  V30 2336 C 224.33 3.59451 -0.216085 0
M  V30 2337 C 224.183 4.18864 -1.6393 0
M  V30 2338 C 225.502 4.37903 0.439179 0
M  V30 2339 H 222.621 0.733674 -0.0699412 0
M  V30 2340 H 225.263 1.69822 -0.852076 0
M  V30 2341 H 223.413 3.86929 0.349012 0
M  V30 2342 H 225.085 4.02362 -2.25616 0
M  V30 2343 H 223.328 3.74933 -2.18193 0
M  V30 2344 H 223.999 5.27987 -1.61039 0
M  V30 2345 H 226.475 4.16079 -0.0417878 0
M  V30 2346 H 225.351 5.47519 0.389157 0
M  V30 2347 H 225.612 4.15303 1.51577 0
M  V30 2348 N 224.671 0.411399 1.52136 0
M  V30 2349 C 225.618 -0.412975 2.27075 0
M  V30 2350 C 226.588 -1.03912 1.29582 0
M  V30 2351 O 227.773 -1.06296 1.58448 0
M  V30 2352 C 224.913 -1.52247 3.09701 0
M  V30 2353 C 224.026 -0.917021 4.22155 0
M  V30 2354 C 223.161 -1.9994 4.92135 0
M  V30 2355 C 222.2 -1.37101 5.96548 0
M  V30 2356 N 221.337 -2.39364 6.60038 0
M  V30 2357 H 226.177 0.232499 2.97092 0
M  V30 2358 H 223.714 0.126496 1.46555 0
M  V30 2359 H 225.672 -2.17674 3.55913 0
M  V30 2360 H 224.302 -2.13794 2.41851 0
M  V30 2361 H 223.354 -0.151742 3.80097 0
M  V30 2362 H 224.666 -0.418006 4.97045 0
M  V30 2363 H 223.82 -2.73088 5.41763 0
M  V30 2364 H 222.559 -2.53208 4.16818 0
M  V30 2365 H 221.564 -0.624873 5.46237 0
M  V30 2366 H 222.789 -0.845998 6.7381 0
M  V30 2367 H 220.735 -2.91759 5.87548 0
M  V30 2368 H 220.652 -1.9428 7.3061 0
M  V30 2369 H 221.92 -3.12074 7.14304 0
M  V30 2370 N 226.149 -1.5696 0.141893 0
M  V30 2371 C 227.395 -1.9625 -0.511248 0
M  V30 2372 C 227.728 -1.02654 -1.64851 0
M  V30 2373 O 227.003 -0.0679676 -1.94381 0
M  V30 2374 C 227.286 -3.45285 -1.02227 0
M  V30 2375 C 227.139 -4.49658 0.113138 0
M  V30 2376 C 228.458 -3.96698 -1.90574 0
M  V30 2377 H 225.577 -0.713567 -0.184367 0
M  V30 2378 H 228.219 -1.88698 0.222087 0
M  V30 2379 H 226.369 -3.51852 -1.64719 0
M  V30 2380 H 228.041 -4.55174 0.749302 0
M  V30 2381 H 226.284 -4.26857 0.773026 0
M  V30 2382 H 226.955 -5.51258 -0.286053 0
M  V30 2383 H 229.431 -3.92578 -1.37918 0
M  V30 2384 H 228.307 -5.01453 -2.2324 0
M  V30 2385 H 228.568 -3.3875 -2.84079 0
M  V30 2386 N 227.627 0.131896 -1.57047 0
M  V30 2387 C 228.56 1.19236 -1.94571 0
M  V30 2388 C 229.538 1.40782 -0.813576 0
M  V30 2389 O 230.722 1.55148 -1.07058 0
M  V30 2390 C 227.849 2.54858 -2.23081 0
M  V30 2391 C 226.895 2.49817 -3.45679 0
M  V30 2392 S 227.728 1.95036 -4.98719 0
M  V30 2393 C 228.884 3.32357 -5.30367 0
M  V30 2394 H 229.117 0.872297 -2.84215 0
M  V30 2395 H 226.65 0.338134 -1.50652 0
M  V30 2396 H 228.608 3.32898 -2.40185 0
M  V30 2397 H 227.269 2.84047 -1.34074 0
M  V30 2398 H 226.462 3.49688 -3.62952 0
M  V30 2399 H 226.064 1.79892 -3.27895 0
M  V30 2400 H 228.356 4.28525 -5.2476 0
M  V30 2401 H 229.299 3.19923 -6.31708 0
M  V30 2402 H 229.707 3.3019 -4.57859 0
M  V30 2403 N 229.106 1.52395 0.401703 0
M  V30 2404 C 230.383 1.57387 1.16141 0
M  V30 2405 C 230.763 0.359359 2.08019 0
M  V30 2406 O 230.111 -0.65326 2.18963 0
M  V30 2407 C 230.321 2.90631 1.93221 0
M  V30 2408 C 231.669 3.43904 2.49028 0
M  V30 2409 O 232.693 2.92421 2.03393 0
M  V30 2410 O 231.552 4.33823 3.32356 0
M  V30 2411 H 228.646 0.634262 0.530698 0
M  V30 2412 H 231.192 1.64725 0.407883 0
M  V30 2413 H 229.964 3.70473 1.25958 0
M  V30 2414 H 229.587 2.8662 2.75563 0
M  V30 2415 N 230.584 -0.659388 1.43143 0
M  V30 2416 C 231.831 -1.41935 1.44433 0
M  V30 2417 C 232.159 -1.94387 0.0663522 0
M  V30 2418 O 231.414 -1.72314 -0.927706 0
M  V30 2419 C 231.713 -2.62206 2.42864 0
M  V30 2420 C 231.379 -2.28208 3.88886 0
M  V30 2421 C 230.041 -2.18647 4.28657 0
M  V30 2422 C 232.393 -2.00887 4.8093 0
M  V30 2423 C 229.721 -1.79914 5.58433 0
M  V30 2424 C 232.073 -1.63653 6.11065 0
M  V30 2425 C 230.737 -1.52614 6.49819 0
M  V30 2426 H 230.007 -0.519376 0.528517 0
M  V30 2427 H 232.654 -0.750453 1.76183 0
M  V30 2428 H 230.959 -3.34199 2.04495 0
M  V30 2429 H 232.656 -3.2041 2.41119 0
M  V30 2430 H 229.246 -2.36557 3.57406 0
M  V30 2431 H 233.43 -2.07198 4.5098 0
M  V30 2432 H 228.686 -1.69948 5.87305 0
M  V30 2433 H 232.86 -1.41543 6.81864 0
M  V30 2434 H 230.487 -1.22371 7.50286 0
M  V30 2435 N 232.062 -1.29571 -0.897171 0
M  V30 2436 C 233.31 -1.17456 -1.64464 0
M  V30 2437 C 233.631 0.273698 -1.9307 0
M  V30 2438 O 232.901 1.18684 -1.55855 0
M  V30 2439 H 231.481 -0.431706 -0.609622 0
M  V30 2440 H 234.143 -1.62531 -1.07562 0
M  V30 2441 H 233.239 -1.72648 -2.59998 0
M  V30 2442 N 233.54 1.10788 -1.12088 0
M  V30 2443 C 234.789 1.82036 -0.868659 0
M  V30 2444 C 235.102 1.85929 0.607426 0
M  V30 2445 O 236.308 2.53346 0.97613 0
M  V30 2446 C 234.764 3.26951 -1.50435 0
M  V30 2447 C 234.372 3.31367 -3.01496 0
M  V30 2448 C 236.116 4.03053 -1.33225 0
M  V30 2449 C 234.023 4.7072 -3.58017 0
M  V30 2450 H 232.953 0.682108 -0.321318 0
M  V30 2451 H 235.604 1.24618 -1.34694 0
M  V30 2452 H 233.986 3.84343 -0.953735 0
M  V30 2453 H 235.16 2.83819 -3.6302 0
M  V30 2454 H 233.475 2.6875 -3.18061 0
M  V30 2455 H 236.072 5.05981 -1.72878 0
M  V30 2456 H 236.415 4.15387 -0.275529 0
M  V30 2457 H 236.948 3.52066 -1.85188 0
M  V30 2458 H 233.687 4.63585 -4.63432 0
M  V30 2459 H 233.207 5.1865 -3.01268 0
M  V30 2460 H 234.886 5.39685 -3.56859 0
M  V30 2461 N 235.018 0.912232 1.28515 0
M  V30 2462 C 235.981 0.404223 2.25607 0
M  V30 2463 C 236.981 -0.468602 1.53821 0
M  V30 2464 O 238.171 -0.271873 1.72065 0
M  V30 2465 C 235.303 -0.420653 3.38295 0
M  V30 2466 H 236.496 1.26188 2.7206 0
M  V30 2467 H 234.049 0.691495 1.40171 0
M  V30 2468 H 234.784 -1.29777 2.97201 0
M  V30 2469 H 234.569 0.204935 3.91564 0
M  V30 2470 H 236.059 -0.766971 4.10496 0
M  V30 2471 N 236.496 -1.42363 0.676048 0
M  V30 2472 C 237.912 -1.55811 0.345718 0
M  V30 2473 C 238.112 -1.65544 -1.14879 0
M  V30 2474 O 237.168 -1.62306 -1.93424 0
M  V30 2475 C 238.481 -2.80746 1.07713 0
M  V30 2476 C 240.029 -2.9452 1.05958 0
M  V30 2477 C 240.504 -4.22318 1.77233 0
M  V30 2478 N 241.995 -4.29233 1.74108 0
M  V30 2479 C 242.73 -5.26935 2.26113 0
M  V30 2480 N 242.226 -6.30783 2.86505 0
M  V30 2481 N 244.019 -5.18741 2.1648 0
M  V30 2482 H 236.17 -1.34289 1.6456 0
M  V30 2483 H 238.433 -0.646506 0.69335 0
M  V30 2484 H 238.139 -2.79696 2.13221 0
M  V30 2485 H 238.013 -3.71676 0.64316 0
M  V30 2486 H 240.4 -2.95097 0.0128255 0
M  V30 2487 H 240.481 -2.04817 1.53244 0
M  V30 2488 H 240.125 -4.22502 2.81877 0
M  V30 2489 H 240.055 -5.10958 1.27396 0
M  V30 2490 H 242.546 -3.54814 1.30059 0
M  V30 2491 H 242.859 -7.01691 3.23805 0
M  V30 2492 H 241.204 -6.31341 2.90575 0
M  V30 2493 H 244.395 -4.36533 1.68987 0
M  V30 2494 H 244.568 -5.94721 2.57316 0
M  V30 2495 N 237.974 -0.419461 -1.51915 0
M  V30 2496 C 238.937 0.389116 -2.25873 0
M  V30 2497 C 239.937 0.964924 -1.28631 0
M  V30 2498 O 241.127 0.842179 -1.52489 0
M  V30 2499 C 238.259 1.54874 -3.03689 0
M  V30 2500 H 239.452 -0.258799 -2.98781 0
M  V30 2501 H 237.005 -0.172209 -1.55348 0
M  V30 2502 H 237.74 2.23323 -2.35154 0
M  V30 2503 H 237.525 1.14223 -3.75094 0
M  V30 2504 H 239.015 2.12046 -3.59759 0
M  V30 2505 N 239.452 1.56882 -0.150215 0
M  V30 2506 C 240.701 1.95403 0.500071 0
M  V30 2507 C 241.014 1.03777 1.658 0
M  V30 2508 O 242.22 1.31889 2.37313 0
M  V30 2509 C 240.676 3.4738 0.941018 0
M  V30 2510 C 240.284 4.47596 -0.190158 0
M  V30 2511 C 242.028 3.9476 1.56091 0
M  V30 2512 C 239.935 5.90787 0.269237 0
M  V30 2513 H 238.865 0.729515 0.190588 0
M  V30 2514 H 241.516 1.81988 -0.235074 0
M  V30 2515 H 239.898 3.56138 1.73152 0
M  V30 2516 H 241.072 4.50536 -0.967157 0
M  V30 2517 H 239.387 4.10151 -0.718666 0
M  V30 2518 H 241.984 4.99181 1.9163 0
M  V30 2519 H 242.327 3.36494 2.45107 0
M  V30 2520 H 242.86 3.88932 0.835249 0
M  V30 2521 H 239.599 6.52879 -0.585621 0
M  V30 2522 H 239.119 5.912 1.01204 0
M  V30 2523 H 240.798 6.42979 0.720176 0
M  V30 2524 N 240.93 -0.123565 1.57115 0
M  V30 2525 C 241.893 -1.13583 1.99076 0
M  V30 2526 C 242.893 -1.34564 0.880296 0
M  V30 2527 O 244.083 -1.31158 1.14644 0
M  V30 2528 C 241.215 -2.49128 2.32698 0
M  V30 2529 H 242.408 -0.775287 2.89706 0
M  V30 2530 H 239.961 -0.36771 1.51913 0
M  V30 2531 H 240.696 -2.90111 1.44934 0
M  V30 2532 H 240.481 -2.35255 3.13684 0
M  V30 2533 H 241.971 -3.2199 2.65918 0
M  V30 2534 N 242.408 -1.52605 -0.393616 0
M  V30 2535 C 243.685 -1.58001 -1.15304 0
M  V30 2536 C 244.065 -0.370385 -2.07825 0
M  V30 2537 O 243.413 0.641638 -2.19306 0
M  V30 2538 C 243.623 -2.91652 -1.91677 0
M  V30 2539 C 244.971 -3.4522 -2.47201 0
M  V30 2540 O 245.995 -2.93495 -2.01839 0
M  V30 2541 O 244.854 -4.35579 -3.3005 0
M  V30 2542 H 241.948 -0.637068 -0.527327 0
M  V30 2543 H 244.494 -1.64939 -0.399141 0
M  V30 2544 H 243.266 -3.71136 -1.23992 0
M  V30 2545 H 242.889 -2.88077 -2.74039 0
M  V30 2546 N 243.887 0.651787 -1.4349 0
M  V30 2547 C 245.112 1.44434 -1.48841 0
M  V30 2548 C 245.537 1.8779 -0.107955 0
M  V30 2549 O 244.895 1.57464 0.898602 0
M  V30 2550 C 244.943 2.65458 -2.44059 0
M  V30 2551 O 244.047 3.64566 -1.92784 0
M  V30 2552 H 243.388 0.433005 -0.503391 0
M  V30 2553 H 245.918 0.797451 -1.88419 0
M  V30 2554 H 245.928 3.13255 -2.6141 0
M  V30 2555 H 244.603 2.33244 -3.4434 0
M  V30 2556 H 243.18 3.23716 -1.851 0
M  V30 2557 N 245.365 1.30045 0.890287 0
M  V30 2558 C 246.613 1.18327 1.63839 0
M  V30 2559 C 246.934 -0.263455 1.93212 0
M  V30 2560 O 246.204 -1.17856 1.56482 0
M  V30 2561 H 244.784 0.434933 0.607324 0
M  V30 2562 H 247.446 1.631 1.06698 0
M  V30 2563 H 246.542 1.74024 2.59079 0
M  V30 2564 N 246.843 -1.10192 1.12674 0
M  V30 2565 C 247.791 -2.18694 0.792196 0
M  V30 2566 C 248.785 -1.67938 -0.222058 0
M  V30 2567 O 249.991 -1.79822 -0.0800074 0
M  V30 2568 H 246.366 -0.713223 0.238364 0
M  V30 2569 H 248.337 -2.44149 1.71564 0
M  V30 2570 C 247.086 -3.46682 0.265859 0
M  V30 2571 H 246.409 -3.86101 1.03761 0
M  V30 2572 H 247.849 -4.23942 0.0701128 0
M  V30 2573 C 246.308 -3.21506 -1.00675 0
M  V30 2574 O 246.838 -3.43408 -2.08408 0
M  V30 2575 N 245.044 -2.75158 -0.934692 0
M  V30 2576 H 244.591 -2.57535 -0.0578604 0
M  V30 2577 H 244.549 -2.58691 -1.7868 0
M  V30 2578 N 248.321 -0.919034 -1.28029 0
M  V30 2579 C 249.546 -0.570357 -1.99403 0
M  V30 2580 C 249.971 0.842486 -1.68178 0
M  V30 2581 O 249.329 1.56391 -0.917141 0
M  V30 2582 C 249.377 -0.792541 -3.51783 0
M  V30 2583 O 248.481 0.145988 -4.12142 0
M  V30 2584 H 247.822 -0.220555 -0.6263 0
M  V30 2585 H 250.352 -1.23592 -1.63053 0
M  V30 2586 H 250.362 -0.704708 -4.01868 0
M  V30 2587 H 249.037 -1.82247 -3.73844 0
M  V30 2588 H 247.614 0.00897528 -3.72899 0
M  V30 2589 N 249.799 1.42003 -0.683588 0
M  V30 2590 C 251.045 2.01712 -0.209825 0
M  V30 2591 C 251.378 1.53968 1.18353 0
M  V30 2592 O 250.653 0.745661 1.79639 0
M  V30 2593 C 250.936 3.59202 -0.254197 0
M  V30 2594 C 250.789 4.17102 -1.68363 0
M  V30 2595 C 252.108 4.38344 0.392709 0
M  V30 2596 H 249.227 0.732891 -0.0777189 0
M  V30 2597 H 251.869 1.68909 -0.87004 0
M  V30 2598 H 250.019 3.87278 0.307954 0
M  V30 2599 H 251.691 3.99946 -2.29871 0
M  V30 2600 H 249.934 3.72597 -2.22157 0
M  V30 2601 H 250.605 5.26249 -1.6663 0
M  V30 2602 H 253.081 4.16011 -0.0859162 0
M  V30 2603 H 251.957 5.47901 0.331063 0
M  V30 2604 H 252.218 4.16887 1.47164 0
M  V30 2605 N 251.277 0.427512 1.51691 0
M  V30 2606 C 252.505 -0.141191 2.06418 0
M  V30 2607 C 252.92 -1.37303 1.29589 0
M  V30 2608 O 252.277 -1.79059 0.352732 0
M  V30 2609 C 252.328 -0.473266 3.58389 0
M  V30 2610 O 252.049 0.709673 4.32314 0
M  V30 2611 C 253.55 -1.09371 4.29596 0
M  V30 2612 H 250.77 -0.0122747 0.670888 0
M  V30 2613 H 253.314 0.603764 1.95384 0
M  V30 2614 H 251.469 -1.16812 3.69369 0
M  V30 2615 H 251.883 0.42807 5.2275 0
M  V30 2616 H 253.357 -1.27613 5.37046 0
M  V30 2617 H 253.834 -2.072 3.87253 0
M  V30 2618 H 254.44 -0.43853 4.23033 0
M  V30 2619 N 252.755 -1.56801 0.158532 0
M  V30 2620 C 253.687 -2.14488 -0.807923 0
M  V30 2621 C 254.7 -1.09721 -1.20271 0
M  V30 2622 O 255.889 -1.36956 -1.14478 0
M  V30 2623 C 252.989 -2.66217 -2.09718 0
M  V30 2624 C 252.162 -3.95507 -1.86796 0
M  V30 2625 C 251.221 -4.3243 -2.99818 0
M  V30 2626 O 250.247 -5.00543 -2.71008 0
M  V30 2627 N 251.449 -3.92947 -4.27285 0
M  V30 2628 H 254.214 -2.98042 -0.314816 0
M  V30 2629 H 251.775 -1.61881 -0.0246692 0
M  V30 2630 H 253.767 -2.87924 -2.84398 0
M  V30 2631 H 252.337 -1.87324 -2.50257 0
M  V30 2632 H 251.557 -3.82309 -0.96089 0
M  V30 2633 H 252.845 -4.79972 -1.68833 0
M  V30 2634 H 252.243 -3.38087 -4.53557 0
M  V30 2635 H 250.8 -4.19681 -4.9871 0
M  V30 2636 N 254.233 0.115231 -1.57178 0
M  V30 2637 C 255.461 0.836437 -1.89239 0
M  V30 2638 C 255.876 1.73256 -0.750175 0
M  V30 2639 O 255.233 1.80357 0.278832 0
M  V30 2640 C 255.284 1.66671 -3.20785 0
M  V30 2641 O 255.005 0.806652 -4.3061 0
M  V30 2642 C 256.506 2.49274 -3.66575 0
M  V30 2643 H 253.726 0.240253 -0.626514 0
M  V30 2644 H 256.27 0.0984932 -2.04263 0
M  V30 2645 H 254.425 2.35737 -3.0742 0
M  V30 2646 H 254.839 1.37969 -5.06028 0
M  V30 2647 H 256.313 3.03055 -4.6137 0
M  V30 2648 H 256.79 3.26807 -2.93417 0
M  V30 2649 H 257.396 1.85443 -3.82741 0
M  V30 2650 N 255.711 1.52812 0.385517 0
M  V30 2651 C 256.674 1.77188 1.45386 0
M  V30 2652 C 257.674 0.641953 1.4743 0
M  V30 2653 O 258.864 0.910033 1.4854 0
M  V30 2654 C 255.996 1.87582 2.8465 0
M  V30 2655 H 257.189 2.72583 1.25054 0
M  V30 2656 H 254.742 1.43586 0.617467 0
M  V30 2657 H 255.477 0.941849 3.10322 0
M  V30 2658 H 255.262 2.69748 2.84567 0
M  V30 2659 H 256.752 2.08102 3.62054 0
M  V30 2660 N 257.189 -0.644168 1.43834 0
M  V30 2661 C 258.152 -1.73857 1.49353 0
M  V30 2662 C 259.152 -1.56315 0.377112 0
M  V30 2663 O 260.342 -1.62048 0.639226 0
M  V30 2664 C 257.474 -3.12819 1.35488 0
M  V30 2665 H 258.667 -1.70342 2.46827 0
M  V30 2666 H 256.22 -0.856652 1.30733 0
M  V30 2667 H 256.955 -3.2194 0.390569 0
M  V30 2668 H 256.74 -3.26958 2.16428 0
M  V30 2669 H 258.23 -3.92606 1.42302 0
M  V30 2670 N 258.668 -1.30515 -0.883378 0
M  V30 2671 C 259.914 -1.19607 -1.63774 0
M  V30 2672 C 260.247 0.248314 -1.92606 0
M  V30 2673 O 259.522 1.17742 -1.54813 0
M  V30 2674 C 259.805 -2.02669 -2.97653 0
M  V30 2675 C 259.658 -3.55335 -2.75784 0
M  V30 2676 C 260.977 -1.86573 -3.98596 0
M  V30 2677 H 258.096 -0.435856 -0.594305 0
M  V30 2678 H 260.738 -1.60165 -1.02212 0
M  V30 2679 H 258.888 -1.68208 -3.50197 0
M  V30 2680 H 260.56 -3.99863 -2.30016 0
M  V30 2681 H 258.803 -3.79438 -2.1026 0
M  V30 2682 H 259.474 -4.08745 -3.70988 0
M  V30 2683 H 261.95 -2.16703 -3.55217 0
M  V30 2684 H 260.826 -2.47014 -4.90179 0
M  V30 2685 H 261.087 -0.825321 -4.34328 0
M  V30 2686 N 260.146 1.09593 -1.13257 0
M  V30 2687 C 261.395 1.81105 -0.887917 0
M  V30 2688 C 261.708 1.86563 0.587672 0
M  V30 2689 O 262.914 2.54367 0.949204 0
M  V30 2690 C 261.37 3.25338 -1.53895 0
M  V30 2691 C 260.978 3.28151 -3.04994 0
M  V30 2692 C 262.722 4.01617 -1.37492 0
M  V30 2693 C 260.629 4.66897 -3.6299 0
M  V30 2694 H 259.559 0.678661 -0.328534 0
M  V30 2695 H 262.21 1.23183 -1.36008 0
M  V30 2696 H 260.592 3.8331 -0.994446 0
M  V30 2697 H 261.766 2.79953 -3.66009 0
M  V30 2698 H 260.081 2.65361 -3.20893 0
M  V30 2699 H 262.678 5.04119 -1.78235 0
M  V30 2700 H 263.021 4.15072 -0.31957 0
M  V30 2701 H 263.554 3.50082 -1.88912 0
M  V30 2702 H 260.293 4.58643 -4.68323 0
M  V30 2703 H 259.813 5.15426 -3.06752 0
M  V30 2704 H 261.492 5.3587 -3.62563 0
M  V30 2705 N 261.624 0.925811 1.2754 0
M  V30 2706 C 262.872 0.564138 1.94067 0
M  V30 2707 C 263.193 -0.897188 1.73134 0
M  V30 2708 O 262.463 -1.63573 1.07799 0
M  V30 2709 H 261.043 0.205645 0.718136 0
M  V30 2710 H 263.705 1.1778 1.55287 0
M  V30 2711 H 262.801 0.76881 3.02483 0
M  V30 2712 N 263.102 -1.41638 0.69111 0
M  V30 2713 C 264.33 -2.05628 0.22909 0
M  V30 2714 C 264.745 -1.51992 -1.11999 0
M  V30 2715 O 264.102 -0.666322 -1.69901 0
M  V30 2716 C 264.153 -3.61084 0.173283 0
M  V30 2717 O 263.874 -4.12735 1.46907 0
M  V30 2718 C 265.375 -4.42213 -0.310266 0
M  V30 2719 H 262.595 -0.662327 0.107534 0
M  V30 2720 H 265.139 -1.81489 0.942438 0
M  V30 2721 H 263.294 -3.84278 -0.490858 0
M  V30 2722 H 263.708 -5.06743 1.35322 0
M  V30 2723 H 265.182 -5.51194 -0.298196 0
M  V30 2724 H 265.659 -4.1799 -1.34838 0
M  V30 2725 H 266.265 -4.24074 0.322716 0
M  V30 2726 N 264.58 -0.43555 -1.51462 0
M  V30 2727 C 265.543 0.365137 -2.26273 0
M  V30 2728 C 266.543 0.951227 -1.29647 0
M  V30 2729 O 267.733 0.825958 -1.53374 0
M  V30 2730 C 264.865 1.51645 -3.05314 0
M  V30 2731 H 266.058 -0.290474 -2.9849 0
M  V30 2732 H 263.611 -0.188676 -1.55157 0
M  V30 2733 H 264.346 2.20816 -2.3751 0
M  V30 2734 H 264.131 1.10238 -3.76284 0
M  V30 2735 H 265.621 2.08218 -3.61987 0
M  V30 2736 N 266.058 1.56714 -0.166846 0
M  V30 2737 C 266.99 2.14914 0.796537 0
M  V30 2738 C 268.003 1.10357 1.19688 0
M  V30 2739 O 269.192 1.37561 1.13751 0
M  V30 2740 C 266.292 2.67326 2.08303 0
M  V30 2741 C 265.465 3.96493 1.84696 0
M  V30 2742 C 264.524 4.34014 2.97521 0
M  V30 2743 O 263.55 5.01973 2.6835 0
M  V30 2744 N 264.752 3.95208 4.25196 0
M  V30 2745 H 267.517 2.98205 0.299006 0
M  V30 2746 H 265.078 1.61892 0.0160839 0
M  V30 2747 H 267.07 2.89428 2.82867 0
M  V30 2748 H 265.64 1.88649 2.4926 0
M  V30 2749 H 264.86 3.82814 0.940602 0
M  V30 2750 H 266.148 4.8086 1.66285 0
M  V30 2751 H 265.546 3.40487 4.51758 0
M  V30 2752 H 264.103 4.2232 4.96477 0
M  V30 2753 N 267.536 -0.106894 1.57237 0
M  V30 2754 C 268.766 -0.825191 1.89405 0
M  V30 2755 C 269.174 -1.73374 0.757496 0
M  V30 2756 O 268.517 -1.81552 -0.280115 0
M  V30 2757 C 268.579 -1.70102 3.1671 0
M  V30 2758 C 268.243 -0.965523 4.46684 0
M  V30 2759 C 269.24 -0.300741 5.19029 0
M  V30 2760 C 266.925 -0.943105 4.93367 0
M  V30 2761 C 268.919 0.376622 6.36286 0
M  V30 2762 C 266.606 -0.261949 6.10538 0
M  V30 2763 C 267.604 0.396748 6.81847 0
M  V30 2764 O 267.292 1.06701 7.96787 0
M  V30 2765 H 267.024 -0.241852 0.631255 0
M  V30 2766 H 269.578 -0.0921491 2.05193 0
M  V30 2767 H 267.808 -2.47601 2.97036 0
M  V30 2768 H 269.497 -2.29483 3.34802 0
M  V30 2769 H 270.263 -0.309599 4.84011 0
M  V30 2770 H 266.142 -1.44524 4.3776 0
M  V30 2771 H 269.686 0.891334 6.91882 0
M  V30 2772 H 265.583 -0.250896 6.45012 0
M  V30 2773 H 266.351 0.972707 8.127 0
M  V30 2774 N 269.014 -1.53014 -0.377408 0
M  V30 2775 C 269.944 -1.81589 -1.46791 0
M  V30 2776 C 270.925 -0.668622 -1.56408 0
M  V30 2777 O 272.11 -0.917337 -1.71168 0
M  V30 2778 C 269.24 -1.99519 -2.8427 0
M  V30 2779 C 268.194 -3.15249 -2.89486 0
M  V30 2780 C 267.52 -3.18451 -4.29527 0
M  V30 2781 C 268.82 -4.54084 -2.58079 0
M  V30 2782 H 270.514 -2.7291 -1.23127 0
M  V30 2783 H 268.06 -1.31319 -0.590883 0
M  V30 2784 H 270.013 -2.18092 -3.60575 0
M  V30 2785 H 268.737 -1.04897 -3.09296 0
M  V30 2786 H 267.396 -2.96477 -2.15631 0
M  V30 2787 H 267.044 -2.2149 -4.5161 0
M  V30 2788 H 266.744 -3.962 -4.33934 0
M  V30 2789 H 268.268 -3.39193 -5.07721 0
M  V30 2790 H 269.682 -4.72899 -3.24098 0
M  V30 2791 H 268.079 -5.33987 -2.7382 0
M  V30 2792 H 269.149 -4.60006 -1.53372 0
M  V30 2793 N 270.492 0.636531 -1.44174 0
M  V30 2794 C 271.717 1.42847 -1.50364 0
M  V30 2795 C 272.142 1.87665 -0.127867 0
M  V30 2796 O 271.5 1.58408 0.88185 0
M  V30 2797 C 271.548 2.62854 -2.4686 0
M  V30 2798 O 270.652 3.62501 -1.9664 0
M  V30 2799 H 269.993 0.427642 -0.507955 0
M  V30 2800 H 272.523 0.777422 -1.89255 0
M  V30 2801 H 272.533 3.10465 -2.64718 0
M  V30 2802 H 271.208 2.29578 -3.46795 0
M  V30 2803 H 269.785 3.21735 -1.88523 0
M  V30 2804 N 271.97 1.30982 0.876444 0
M  V30 2805 C 273.381 1.18277 1.44456 0
M  V30 2806 C 273.732 -0.213265 1.95037 0
M  V30 2807 O 272.857 -1.11057 1.85729 0
M  V30 2808 C 273.452 2.1411 2.62569 0
M  V30 2809 C 272.011 2.05358 3.15444 0
M  V30 2810 C 271.158 2.03706 1.88146 0
M  V30 2811 H 274.109 1.43127 0.685584 0
M  V30 2812 H 274.13 1.72692 3.39054 0
M  V30 2813 H 273.642 3.15706 2.25724 0
M  V30 2814 H 271.743 1.06934 3.56926 0
M  V30 2815 H 271.856 2.94156 3.78166 0
M  V30 2816 H 270.22 1.48629 2.06837 0
M  V30 2817 H 271.003 3.07047 1.53547 0
M  V30 2818 N 273.449 -1.08991 1.13837 0
M  V30 2819 C 274.359 -2.19301 0.833333 0
M  V30 2820 C 275.375 -1.73026 -0.183847 0
M  V30 2821 O 276.551 -2.01395 -0.0138092 0
M  V30 2822 C 273.616 -3.45323 0.308651 0
M  V30 2823 C 272.677 -4.06255 1.38764 0
M  V30 2824 C 271.91 -5.26262 0.887896 0
M  V30 2825 O 272.133 -5.69747 -0.27287 0
M  V30 2826 O 271.067 -5.78435 1.66421 0
M  V30 2827 H 274.893 -2.47854 1.75506 0
M  V30 2828 H 272.478 -1.18012 0.916166 0
M  V30 2829 H 274.36 -4.21394 0.0216739 0
M  V30 2830 H 273.035 -3.18362 -0.585431 0
M  V30 2831 H 271.942 -3.318 1.72799 0
M  V30 2832 H 273.275 -4.37452 2.25602 0
M  V30 2833 N 274.927 -0.932562 -1.27047 0
M  V30 2834 C 275.859 -0.392734 -2.2581 0
M  V30 2835 C 276.872 0.479241 -1.55586 0
M  V30 2836 O 278.061 0.291078 -1.76111 0
M  V30 2837 C 275.161 0.455456 -3.35826 0
M  V30 2838 C 274.334 -0.398355 -4.35582 0
M  V30 2839 C 273.393 0.387985 -5.24768 0
M  V30 2840 O 272.419 -0.206003 -5.68827 0
M  V30 2841 N 273.621 1.68664 -5.55457 0
M  V30 2842 H 276.386 -1.24173 -2.72766 0
M  V30 2843 H 273.947 -0.800511 -1.40725 0
M  V30 2844 H 275.939 0.988692 -3.92437 0
M  V30 2845 H 274.509 1.20522 -2.88432 0
M  V30 2846 H 273.729 -1.11286 -3.78165 0
M  V30 2847 H 275.017 -0.981889 -4.99236 0
M  V30 2848 H 274.415 2.19147 -5.21528 0
M  V30 2849 H 272.972 2.1663 -6.14748 0
M  V30 2850 N 276.405 1.4127 -0.698611 0
M  V30 2851 C 277.368 2.29158 -0.044132 0
M  V30 2852 C 278.368 1.44529 0.704841 0
M  V30 2853 O 279.558 1.65643 0.539276 0
M  V30 2854 C 276.69 3.27459 0.947809 0
M  V30 2855 H 277.883 2.88529 -0.817994 0
M  V30 2856 H 275.436 1.49307 -0.46228 0
M  V30 2857 H 276.171 2.73073 1.74933 0
M  V30 2858 H 275.956 3.8991 0.41385 0
M  V30 2859 H 277.446 3.93311 1.40344 0
M  V30 2860 N 277.883 0.443576 1.51229 0
M  V30 2861 C 279.299 0.0962001 1.5931 0
M  V30 2862 C 279.499 -1.39501 1.45402 0
M  V30 2863 O 278.555 -2.16557 1.29843 0
M  V30 2864 C 279.868 0.621875 2.94199 0
M  V30 2865 C 281.416 0.582865 3.07525 0
M  V30 2866 C 281.891 1.08562 4.44948 0
M  V30 2867 N 283.382 1.04387 4.51284 0
M  V30 2868 C 284.117 1.40368 5.55954 0
M  V30 2869 N 283.613 1.83664 6.68011 0
M  V30 2870 N 285.406 1.32145 5.46346 0
M  V30 2871 H 277.557 1.41376 1.58514 0
M  V30 2872 H 279.82 0.582965 0.747567 0
M  V30 2873 H 279.526 1.66546 3.09767 0
M  V30 2874 H 279.4 0.0502125 3.77167 0
M  V30 2875 H 281.787 -0.451749 2.91622 0
M  V30 2876 H 281.868 1.191 2.26382 0
M  V30 2877 H 281.512 2.11873 4.61598 0
M  V30 2878 H 281.442 0.453956 5.2464 0
M  V30 2879 H 283.933 0.725986 3.70861 0
M  V30 2880 H 284.246 2.0934 7.43906 0
M  V30 2881 H 282.591 1.87596 6.69203 0
M  V30 2882 H 285.782 0.981808 4.57688 0
M  V30 2883 H 285.955 1.60514 6.27805 0
M  V30 2884 N 279.361 -1.56624 0.175154 0
M  V30 2885 C 280.609 -1.96609 -0.467885 0
M  V30 2886 C 280.93 -1.06238 -1.63519 0
M  V30 2887 O 280.2 -0.129523 -1.95471 0
M  V30 2888 H 278.78 -0.726008 -0.175845 0
M  V30 2889 H 281.442 -1.93195 0.257234 0
M  V30 2890 H 280.538 -3.00989 -0.825342 0
M  V30 2891 N 280.839 0.0985539 -1.57292 0
M  V30 2892 C 282.116 0.834155 -1.76921 0
M  V30 2893 C 282.496 1.97101 -0.755928 0
M  V30 2894 O 281.844 2.27474 0.216245 0
M  V30 2895 C 282.054 1.33194 -3.22584 0
M  V30 2896 C 283.402 1.77611 -3.85668 0
M  V30 2897 O 284.426 1.42825 -3.26312 0
M  V30 2898 O 283.285 2.4192 -4.90038 0
M  V30 2899 H 280.379 0.397628 -0.725135 0
M  V30 2900 H 282.925 0.0807044 -1.69508 0
M  V30 2901 H 281.697 0.517248 -3.87866 0
M  V30 2902 H 281.32 2.1475 -3.34616 0
M  V30 2903 N 282.317 1.53212 0.369288 0
M  V30 2904 C 283.542 1.73423 1.1375 0
M  V30 2905 C 283.967 0.460404 1.82378 0
M  V30 2906 O 283.325 -0.585298 1.71592 0
M  V30 2907 C 283.373 2.89769 2.1463 0
M  V30 2908 O 282.477 2.58119 3.21634 0
M  V30 2909 H 281.818 0.576061 0.330227 0
M  V30 2910 H 284.348 2.00083 0.427547 0
M  V30 2911 H 284.358 3.15829 2.58294 0
M  V30 2912 H 283.033 3.8217 1.64071 0
M  V30 2913 H 281.61 2.42864 2.82969 0
M  V30 2914 N 283.795 -0.628877 1.44509 0
M  V30 2915 C 285.041 -1.39045 1.47629 0
M  V30 2916 C 285.374 -1.93892 0.109343 0
M  V30 2917 O 284.649 -1.7379 -0.87334 0
M  V30 2918 C 284.932 -2.55408 2.53848 0
M  V30 2919 C 284.785 -2.05896 3.99909 0
M  V30 2920 C 286.104 -3.5759 2.56549 0
M  V30 2921 H 283.223 -0.504232 0.537512 0
M  V30 2922 H 285.865 -0.710854 1.76201 0
M  V30 2923 H 284.015 -3.13384 2.29615 0
M  V30 2924 H 285.687 -1.52734 4.35282 0
M  V30 2925 H 283.93 -1.37061 4.11578 0
M  V30 2926 H 284.601 -2.89681 4.69882 0
M  V30 2927 H 287.077 -3.09419 2.78207 0
M  V30 2928 H 285.953 -4.36527 3.32769 0
M  V30 2929 H 286.214 -4.11808 1.60832 0
M  V30 2930 N 285.273 -1.31445 -0.869486 0
M  V30 2931 C 286.55 -1.11795 -1.60503 0
M  V30 2932 C 286.93 0.327168 -2.08549 0
M  V30 2933 O 286.278 1.32135 -1.8642 0
M  V30 2934 C 286.488 -2.13258 -2.76265 0
M  V30 2935 C 287.836 -2.45805 -3.46215 0
M  V30 2936 O 288.86 -2.11688 -2.86473 0
M  V30 2937 O 287.719 -3.04228 -4.5399 0
M  V30 2938 H 284.813 -0.430421 -0.706163 0
M  V30 2939 H 287.359 -1.42925 -0.914907 0
M  V30 2940 H 286.131 -3.10461 -2.3818 0
M  V30 2941 H 285.754 -1.83035 -3.52964 0
M  V30 2942 N 286.751 1.08385 -1.14413 0
M  V30 2943 C 287.714 2.13486 -0.834048 0
M  V30 2944 C 288.714 1.59988 0.161418 0
M  V30 2945 O 289.904 1.74071 -0.0669575 0
M  V30 2946 C 287.036 3.4003 -0.243354 0
M  V30 2947 H 288.229 2.42425 -1.7655 0
M  V30 2948 H 285.782 1.24101 -0.950189 0
M  V30 2949 H 286.517 3.16726 0.696807 0
M  V30 2950 H 286.302 3.80157 -0.960367 0
M  V30 2951 H 287.792 4.17577 -0.0436242 0
M  V30 2952 N 288.23 0.939286 1.26551 0
M  V30 2953 C 289.646 0.641304 1.46149 0
M  V30 2954 C 289.846 -0.805964 1.84679 0
M  V30 2955 O 288.902 -1.58278 1.96734 0
M  V30 2956 C 290.215 1.6011 2.54529 0
M  V30 2957 C 291.763 1.6106 2.68382 0
M  V30 2958 C 292.238 2.55765 3.79932 0
M  V30 2959 N 293.729 2.5404 3.87322 0
M  V30 2960 C 294.464 3.24004 4.73085 0
M  V30 2961 N 293.96 4.03388 5.63249 0
M  V30 2962 N 295.753 3.12965 4.66914 0
M  V30 2963 H 287.904 1.87478 0.998285 0
M  V30 2964 H 290.167 0.805559 0.499779 0
M  V30 2965 H 289.873 2.63412 2.33039 0
M  V30 2966 H 289.747 1.35171 3.52149 0
M  V30 2967 H 292.134 0.584835 2.89247 0
M  V30 2968 H 292.215 1.90053 1.71212 0
M  V30 2969 H 291.859 3.58458 3.5982 0
M  V30 2970 H 291.789 2.24063 4.76554 0
M  V30 2971 H 294.28 1.96396 3.22858 0
M  V30 2972 H 294.593 4.5373 6.25579 0
M  V30 2973 H 292.938 4.07489 5.63008 0
M  V30 2974 H 296.129 2.50432 3.95476 0
M  V30 2975 H 296.302 3.67759 5.33533 0
M  V30 2976 N 289.708 -1.40897 0.706093 0
M  V30 2977 C 290.933 -2.05895 0.249435 0
M  V30 2978 C 291.358 -1.52823 -1.09666 0
M  V30 2979 O 290.716 -0.659589 -1.68876 0
M  V30 2980 C 290.764 -3.59872 0.22904 0
M  V30 2981 O 289.868 -4.04708 -0.792784 0
M  V30 2982 H 289.209 -0.653206 0.119241 0
M  V30 2983 H 291.739 -1.80471 0.96391 0
M  V30 2984 H 291.749 -4.07951 0.0634791 0
M  V30 2985 H 290.424 -3.97866 1.21141 0
M  V30 2986 H 289.001 -3.68111 -0.59572 0
M  V30 2987 N 291.186 -0.45159 -1.50991 0
M  V30 2988 C 292.463 0.170707 -1.94854 0
M  V30 2989 C 292.843 1.58788 -1.39103 0
M  V30 2990 O 292.191 2.20913 -0.583921 0
M  V30 2991 C 292.401 0.133929 -3.48743 0
M  V30 2992 C 293.749 0.33248 -4.23296 0
M  V30 2993 O 294.773 0.211403 -3.55572 0
M  V30 2994 O 293.632 0.57486 -5.43468 0
M  V30 2995 H 290.726 0.122264 -0.817912 0
M  V30 2996 H 293.272 -0.510594 -1.61836 0
M  V30 2997 H 292.044 -0.856283 -3.81816 0
M  V30 2998 H 291.667 0.857529 -3.88242 0
M  V30 2999 N 292.664 1.56529 -0.183458 0
M  V30 3000 C 293.91 1.97537 0.459036 0
M  V30 3001 C 294.243 1.06989 1.62071 0
M  V30 3002 O 293.518 0.11948 1.94133 0
M  V30 3003 C 293.801 3.47874 0.930368 0
M  V30 3004 C 293.654 4.492 -0.232317 0
M  V30 3005 C 294.973 4.01612 1.79989 0
M  V30 3006 H 292.092 0.718204 0.165383 0
M  V30 3007 H 294.734 1.88042 -0.272038 0
M  V30 3008 H 292.884 3.56095 1.55333 0
M  V30 3009 H 294.556 4.53027 -0.86972 0
M  V30 3010 H 292.799 4.24657 -0.885928 0
M  V30 3011 H 293.47 5.51823 0.139796 0
M  V30 3012 H 295.946 3.96097 1.27461 0
M  V30 3013 H 294.822 5.07195 2.09867 0
M  V30 3014 H 295.083 3.46163 2.74998 0
M  V30 3015 N 294.142 -0.090211 1.57342 0
M  V30 3016 C 295.372 -0.805055 1.90269 0
M  V30 3017 C 295.78 -1.72561 0.775842 0
M  V30 3018 O 295.123 -1.81839 -0.260843 0
M  V30 3019 C 295.185 -1.66734 3.18497 0
M  V30 3020 C 294.849 -0.918092 4.47683 0
M  V30 3021 C 295.846 -0.245674 5.19319 0
M  V30 3022 C 293.531 -0.890724 4.94339 0
M  V30 3023 C 295.525 0.444088 6.35851 0
M  V30 3024 C 293.212 -0.197179 6.10782 0
M  V30 3025 C 294.21 0.469044 6.81388 0
M  V30 3026 O 293.898 1.15146 7.95611 0
M  V30 3027 H 293.63 -0.235143 0.633785 0
M  V30 3028 H 296.184 -0.0703805 2.05279 0
M  V30 3029 H 294.414 -2.44437 2.99646 0
M  V30 3030 H 296.103 -2.25919 3.37217 0
M  V30 3031 H 296.869 -0.258246 4.84312 0
M  V30 3032 H 292.748 -1.39873 4.39268 0
M  V30 3033 H 296.292 0.964667 6.90898 0
M  V30 3034 H 292.189 -0.18247 6.45242 0
M  V30 3035 H 292.957 1.05885 8.11622 0
M  V30 3036 N 295.62 -1.53406 -0.361157 0
M  V30 3037 C 296.845 -1.74024 -1.12829 0
M  V30 3038 C 297.27 -0.470069 -1.82132 0
M  V30 3039 O 296.628 0.57619 -1.719 0
M  V30 3040 C 296.676 -2.90903 -2.13091 0
M  V30 3041 O 295.78 -2.59821 -3.20261 0
M  V30 3042 H 295.121 -0.577804 -0.327168 0
M  V30 3043 H 297.651 -2.00307 -0.41693 0
M  V30 3044 H 297.661 -3.17194 -2.56616 0
M  V30 3045 H 296.336 -3.83034 -1.62042 0
M  V30 3046 H 294.913 -2.44362 -2.81677 0
M  V30 3047 N 297.098 0.621204 -1.44841 0
M  V30 3048 C 298.028 1.74366 -1.55303 0
M  V30 3049 C 299.009 1.65199 -0.405385 0
M  V30 3050 O 300.194 1.83807 -0.626787 0
M  V30 3051 C 297.324 3.12931 -1.50637 0
M  V30 3052 C 296.278 3.36896 -2.63979 0
M  V30 3053 C 295.604 4.75594 -2.44366 0
M  V30 3054 C 296.904 3.28483 -4.06074 0
M  V30 3055 H 298.598 1.65867 -2.49256 0
M  V30 3056 H 296.144 0.796558 -1.19962 0
M  V30 3057 H 298.097 3.9124 -1.56555 0
M  V30 3058 H 296.821 3.22237 -0.532057 0
M  V30 3059 H 295.48 2.60972 -2.57467 0
M  V30 3060 H 295.128 4.81616 -1.45105 0
M  V30 3061 H 294.828 4.92586 -3.20364 0
M  V30 3062 H 296.352 5.5612 -2.52117 0
M  V30 3063 H 297.766 3.96684 -4.13902 0
M  V30 3064 H 296.163 3.57008 -4.82354 0
M  V30 3065 H 297.233 2.26133 -4.28943 0
M  V30 3066 N 298.576 1.31904 0.862503 0
M  V30 3067 C 299.824 1.21776 1.61292 0
M  V30 3068 C 300.145 -0.222413 1.93727 0
M  V30 3069 O 299.415 -1.1451 1.58947 0
M  V30 3070 H 297.995 0.447717 0.597962 0
M  V30 3071 H 300.657 1.65326 1.03215 0
M  V30 3072 H 299.753 1.7948 2.5533 0
M  V30 3073 N 300.054 -1.07777 1.14986 0
M  V30 3074 C 301.294 -1.81888 0.932527 0
M  V30 3075 C 301.658 -1.84509 -0.531064 0
M  V30 3076 O 302.859 -2.54448 -0.866577 0
M  V30 3077 C 301.13 -3.23244 1.52473 0
M  V30 3078 S 302.689 -4.14154 1.44989 0
M  V30 3079 H 299.507 -0.626752 0.335712 0
M  V30 3080 H 302.109 -1.29503 1.46455 0
M  V30 3081 H 300.813 -3.18922 2.58296 0
M  V30 3082 H 300.344 -3.80704 0.991381 0
M  V30 3083 H 302.359 -4.94247 0.439799 0
M  V30 3084 N 301.532 -0.945985 -1.26051 0
M  V30 3085 C 302.778 -0.597002 -1.93814 0
M  V30 3086 C 303.111 0.862484 -1.73997 0
M  V30 3087 O 302.386 1.61769 -1.07986 0
M  V30 3088 C 302.669 -0.945937 -3.47454 0
M  V30 3089 C 302.522 -2.46052 -3.76535 0
M  V30 3090 C 303.841 -0.464785 -4.37639 0
M  V30 3091 H 300.96 -0.218366 -0.703907 0
M  V30 3092 H 303.602 -1.18107 -1.48831 0
M  V30 3093 H 301.752 -0.448902 -3.85898 0
M  V30 3094 H 303.424 -3.03065 -3.47778 0
M  V30 3095 H 301.667 -2.90194 -3.22444 0
M  V30 3096 H 302.338 -2.65517 -4.83947 0
M  V30 3097 H 304.814 -0.891016 -4.06448 0
M  V30 3098 H 303.69 -0.737712 -5.4392 0
M  V30 3099 H 303.951 0.635274 -4.37512 0
M  V30 3100 N 303.011 1.40521 -0.713556 0
M  V30 3101 C 303.941 2.33381 -0.0743864 0
M  V30 3102 C 304.922 1.52784 0.747735 0
M  V30 3103 O 306.107 1.81258 0.697071 0
M  V30 3104 C 303.237 3.36748 0.849598 0
M  V30 3105 C 302.191 4.27793 0.133247 0
M  V30 3106 C 301.517 5.21679 1.17281 0
M  V30 3107 C 302.817 5.12415 -1.01134 0
M  V30 3108 H 304.511 2.87081 -0.850007 0
M  V30 3109 H 302.057 1.38034 -0.410201 0
M  V30 3110 H 304.01 4.00648 1.30612 0
M  V30 3111 H 302.734 2.81439 1.65709 0
M  V30 3112 H 301.393 3.65342 -0.303426 0
M  V30 3113 H 301.041 4.62677 1.9733 0
M  V30 3114 H 300.741 5.83435 0.698397 0
M  V30 3115 H 302.265 5.88456 1.62947 0
M  V30 3116 H 303.679 5.69781 -0.634274 0
M  V30 3117 H 302.076 5.83203 -1.41399 0
M  V30 3118 H 303.146 4.48514 -1.84292 0
M  V30 3119 N 304.489 0.459591 1.5075 0
M  V30 3120 C 305.719 -0.0972338 2.06371 0
M  V30 3121 C 306.127 -1.35074 1.32483 0
M  V30 3122 O 305.47 -1.79637 0.384226 0
M  V30 3123 C 305.532 -0.462759 3.56509 0
M  V30 3124 C 305.196 0.687084 4.51805 0
M  V30 3125 C 306.193 1.56578 4.95761 0
M  V30 3126 C 303.878 0.874144 4.94635 0
M  V30 3127 C 305.872 2.61604 5.81242 0
M  V30 3128 C 303.559 1.92765 5.79901 0
M  V30 3129 C 304.557 2.79697 6.23104 0
M  V30 3130 O 304.245 3.83235 7.06673 0
M  V30 3131 H 303.977 -0.00140687 0.675999 0
M  V30 3132 H 306.531 0.644011 1.95043 0
M  V30 3133 H 304.761 -1.25703 3.65699 0
M  V30 3134 H 306.45 -0.953323 3.94546 0
M  V30 3135 H 307.216 1.4329 4.6335 0
M  V30 3136 H 303.095 0.207006 4.60535 0
M  V30 3137 H 306.639 3.29489 6.14884 0
M  V30 3138 H 302.536 2.06064 6.11725 0
M  V30 3139 H 303.304 3.80084 7.24899 0
M  V30 3140 N 305.967 -1.56429 0.191757 0
M  V30 3141 C 306.877 -2.22541 -0.742481 0
M  V30 3142 C 307.893 -1.22342 -1.23727 0
M  V30 3143 O 309.069 -1.55069 -1.28513 0
M  V30 3144 C 306.134 -2.8692 -1.94623 0
M  V30 3145 C 305.195 -4.02378 -1.49633 0
M  V30 3146 C 304.428 -4.63678 -2.6427 0
M  V30 3147 O 304.651 -4.23895 -3.81666 0
M  V30 3148 O 303.585 -5.53202 -2.37174 0
M  V30 3149 H 307.411 -3.02977 -0.209462 0
M  V30 3150 H 304.996 -1.49353 -0.0373832 0
M  V30 3151 H 306.878 -3.27663 -2.64982 0
M  V30 3152 H 305.553 -2.09466 -2.46791 0
M  V30 3153 H 304.46 -3.66265 -0.761636 0
M  V30 3154 H 305.793 -4.81487 -1.02134 0
M  V30 3155 N 307.445 0.0818655 -1.57387 0
M  V30 3156 C 308.691 0.784074 -1.8703 0
M  V30 3157 C 309.024 1.77729 -0.782689 0
M  V30 3158 O 308.299 1.93384 0.208051 0
M  V30 3159 C 308.582 1.50105 -3.27323 0
M  V30 3160 C 308.435 0.524925 -4.46727 0
M  V30 3161 C 309.754 2.44843 -3.65705 0
M  V30 3162 H 306.873 0.283582 -0.680257 0
M  V30 3163 H 309.515 0.0474352 -1.89941 0
M  V30 3164 H 307.665 2.12897 -3.24972 0
M  V30 3165 H 309.337 -0.0970111 -4.61198 0
M  V30 3166 H 307.58 -0.160606 -4.33503 0
M  V30 3167 H 308.251 1.064 -5.41648 0
M  V30 3168 H 310.727 1.92135 -3.69085 0
M  V30 3169 H 309.603 2.92018 -4.64776 0
M  V30 3170 H 309.864 3.29197 -2.95096 0
M  V30 3171 N 308.923 1.53595 0.353017 0
M  V30 3172 C 309.853 1.83902 1.43883 0
M  V30 3173 C 310.834 0.693421 1.55324 0
M  V30 3174 O 312.019 0.944452 1.69687 0
M  V30 3175 C 309.149 2.04016 2.8106 0
M  V30 3176 C 308.103 3.19814 2.84434 0
M  V30 3177 C 307.429 3.25244 4.24406 0
M  V30 3178 C 308.729 4.58133 2.50822 0
M  V30 3179 H 310.423 2.74835 1.1877 0
M  V30 3180 H 307.969 1.32242 0.569917 0
M  V30 3181 H 309.922 2.238 3.57059 0
M  V30 3182 H 308.646 1.09804 3.07588 0
M  V30 3183 H 307.305 2.9987 2.10887 0
M  V30 3184 H 306.953 2.28646 4.48029 0
M  V30 3185 H 306.653 4.03054 4.27576 0
M  V30 3186 H 308.177 3.47228 5.0226 0
M  V30 3187 H 309.591 4.77995 3.16534 0
M  V30 3188 H 307.988 5.38276 2.6529 0
M  V30 3189 H 309.058 4.62387 1.46034 0
M  V30 3190 N 310.401 -0.613514 1.45168 0
M  V30 3191 C 311.629 -1.39946 1.5239 0
M  V30 3192 C 312.044 -1.88167 0.154531 0
M  V30 3193 O 311.401 -1.61872 -0.842843 0
M  V30 3194 C 311.452 -2.60795 2.50337 0
M  V30 3195 O 311.173 -2.1458 3.81952 0
M  V30 3196 C 312.674 -3.53723 2.67198 0
M  V30 3197 H 309.894 -0.428593 0.516284 0
M  V30 3198 H 312.438 -0.748753 1.903 0
M  V30 3199 H 310.593 -3.21919 2.15515 0
M  V30 3200 H 311.007 -2.93055 4.34993 0
M  V30 3201 H 312.481 -4.35079 3.39721 0
M  V30 3202 H 312.958 -4.0368 1.73029 0
M  V30 3203 H 313.564 -2.98456 3.02992 0
M  V30 3204 N 311.879 -1.3236 -0.855495 0
M  V30 3205 C 313.127 -1.22629 -1.60644 0
M  V30 3206 C 313.448 0.212136 -1.93843 0
M  V30 3207 O 312.718 1.13666 -1.59552 0
M  V30 3208 H 311.298 -0.450882 -0.595579 0
M  V30 3209 H 313.96 -1.65871 -1.02337 0
M  V30 3210 H 313.056 -1.80832 -2.54374 0
M  V30 3211 N 313.357 1.07166 -1.15556 0
M  V30 3212 C 314.267 2.17947 -0.868116 0
M  V30 3213 C 315.283 1.73297 0.156297 0
M  V30 3214 O 316.459 2.01392 -0.0182327 0
M  V30 3215 C 313.524 3.44789 -0.36355 0
M  V30 3216 C 312.585 4.03996 -1.45209 0
M  V30 3217 C 311.818 5.24783 -0.971508 0
M  V30 3218 O 312.041 5.70109 0.182194 0
M  V30 3219 O 310.975 5.75715 -1.75603 0
M  V30 3220 H 314.801 2.4503 -1.79427 0
M  V30 3221 H 312.386 1.16539 -0.934824 0
M  V30 3222 H 314.268 4.21307 -0.0887113 0
M  V30 3223 H 312.943 3.19253 0.534708 0
M  V30 3224 H 311.85 3.29009 -1.78056 0
M  V30 3225 H 313.183 4.33808 -2.32533 0
M  V30 3226 N 314.835 0.952656 1.25548 0
M  V30 3227 C 316.246 0.647392 1.75116 0
M  V30 3228 C 316.597 -0.837274 1.77438 0
M  V30 3229 O 315.722 -1.65525 1.39393 0
M  V30 3230 C 316.317 1.16845 3.18014 0
M  V30 3231 C 314.876 0.913382 3.6515 0
M  V30 3232 C 314.023 1.31265 2.44264 0
M  V30 3233 H 316.974 1.12968 1.11462 0
M  V30 3234 H 316.995 0.527606 3.76824 0
M  V30 3235 H 316.507 2.24902 3.16292 0
M  V30 3236 H 314.608 -0.152316 3.72289 0
M  V30 3237 H 314.721 1.54845 4.53387 0
M  V30 3238 H 313.085 0.731028 2.43984 0
M  V30 3239 H 313.868 2.40239 2.45234 0
M  V30 3240 N 316.313 -1.40141 0.720998 0
M  V30 3241 C 317.724 -1.83678 0.334553 0
M  V30 3242 C 318.075 -1.6027 -1.13173 0
M  V30 3243 O 317.2 -1.08643 -1.87152 0
M  V30 3244 C 317.795 -3.33437 0.600437 0
M  V30 3245 C 316.354 -3.75447 0.267642 0
M  V30 3246 C 315.501 -2.63296 0.870097 0
M  V30 3247 H 318.452 -1.29331 0.919732 0
M  V30 3248 H 318.473 -3.80269 -0.132517 0
M  V30 3249 H 317.985 -3.50442 1.66768 0
M  V30 3250 H 316.086 -3.64035 -0.794329 0
M  V30 3251 H 316.199 -4.73344 0.74042 0
M  V30 3252 H 314.563 -2.52954 0.297739 0
M  V30 3253 H 315.346 -2.83112 1.94172 0
M  V30 3254 N 317.792 -0.46758 -1.50504 0
M  V30 3255 C 319.039 0.0886219 -2.02306 0
M  V30 3256 C 319.367 1.40037 -1.34981 0
M  V30 3257 O 318.622 1.90136 -0.463318 0
M  V30 3258 C 318.921 0.323995 -3.55928 0
M  V30 3259 C 318.587 -0.905618 -4.41712 0
M  V30 3260 C 317.249 -1.24275 -4.64875 0
M  V30 3261 C 319.601 -1.72448 -4.91845 0
M  V30 3262 C 316.929 -2.39888 -5.35417 0
M  V30 3263 C 319.281 -2.87185 -5.63656 0
M  V30 3264 C 317.945 -3.21317 -5.85074 0
M  V30 3265 H 317.215 0.0324291 -0.74029 0
M  V30 3266 H 319.862 -0.620945 -1.81153 0
M  V30 3267 H 318.167 1.11577 -3.75577 0
M  V30 3268 H 319.864 0.76826 -3.93572 0
M  V30 3269 H 316.454 -0.632956 -4.239 0
M  V30 3270 H 320.638 -1.4772 -4.73806 0
M  V30 3271 H 315.894 -2.66611 -5.50208 0
M  V30 3272 H 320.068 -3.50985 -6.01484 0
M  V30 3273 H 317.695 -4.1101 -6.39511 0
M  V30 3274 N 319.27 1.56325 -0.20005 0
M  V30 3275 C 320.498 2.02105 0.442874 0
M  V30 3276 C 320.913 1.08014 1.5485 0
M  V30 3277 O 320.27 0.0858797 1.82298 0
M  V30 3278 C 320.321 3.47549 0.994583 0
M  V30 3279 O 320.042 4.38049 -0.0669322 0
M  V30 3280 C 321.543 4.0887 1.7129 0
M  V30 3281 H 318.763 0.661807 0.110691 0
M  V30 3282 H 321.307 2.02134 -0.310207 0
M  V30 3283 H 319.462 3.48204 1.69803 0
M  V30 3284 H 319.876 5.23368 0.344462 0
M  V30 3285 H 321.35 5.12475 2.05118 0
M  V30 3286 H 321.827 3.52615 2.61838 0
M  V30 3287 H 322.433 4.12002 1.05518 0
M  V30 3288 N 320.748 -0.0735177 1.57428 0
M  V30 3289 C 321.996 -0.771472 1.86796 0
M  V30 3290 C 322.317 -1.78201 0.791804 0
M  V30 3291 O 321.587 -1.95074 -0.179718 0
M  V30 3292 H 320.167 -0.28791 0.689287 0
M  V30 3293 H 322.829 -0.0500161 1.94836 0
M  V30 3294 H 321.925 -1.28874 2.8425 0
M  V30 3295 N 322.226 -1.5378 -0.344866 0
M  V30 3296 C 323.503 -1.61589 -1.10219 0
M  V30 3297 C 323.883 -0.436316 -2.06542 0
M  V30 3298 O 323.231 0.571543 -2.21237 0
M  V30 3299 C 323.441 -2.97602 -1.82301 0
M  V30 3300 C 324.789 -3.5291 -2.36093 0
M  V30 3301 O 325.813 -2.99768 -1.924 0
M  V30 3302 O 324.672 -4.45859 -3.16026 0
M  V30 3303 H 321.766 -0.653522 -0.506792 0
M  V30 3304 H 324.312 -1.66126 -0.346465 0
M  V30 3305 H 323.084 -3.74893 -1.12121 0
M  V30 3306 H 322.707 -2.9665 -2.64735 0
M  V30 3307 N 323.704 0.605807 -1.45491 0
M  V30 3308 C 324.929 1.39625 -1.53361 0
M  V30 3309 C 325.354 1.87351 -0.167645 0
M  V30 3310 O 324.712 1.60243 0.848051 0
M  V30 3311 C 324.76 2.57559 -2.5238 0
M  V30 3312 O 323.864 3.58248 -2.04285 0
M  V30 3313 H 323.205 0.416771 -0.516912 0
M  V30 3314 H 325.735 0.737103 -1.90861 0
M  V30 3315 H 325.745 3.0478 -2.71244 0
M  V30 3316 H 324.42 2.22171 -3.51586 0
M  V30 3317 H 322.997 3.17664 -1.95305 0
M  V30 3318 N 325.182 1.32811 0.848464 0
M  V30 3319 C 326.593 1.21315 1.41914 0
M  V30 3320 C 326.944 -0.171847 1.95446 0
M  V30 3321 O 326.069 -1.07093 1.88043 0
M  V30 3322 C 326.664 2.19631 2.57968 0
M  V30 3323 C 325.223 2.12003 3.11017 0
M  V30 3324 C 324.37 2.07651 1.83783 0
M  V30 3325 H 327.321 1.44549 0.655071 0
M  V30 3326 H 327.342 1.79845 3.35315 0
M  V30 3327 H 326.854 3.20423 2.18976 0
M  V30 3328 H 324.955 1.14481 3.54577 0
M  V30 3329 H 325.068 3.02111 3.71841 0
M  V30 3330 H 323.432 1.52983 2.03638 0
M  V30 3331 H 324.215 3.10235 1.47 0
M  V30 3332 N 326.66 -1.06551 1.16123 0
M  V30 3333 C 327.906 -1.79567 0.94252 0
M  V30 3334 C 328.239 -1.86869 -0.528547 0
M  V30 3335 O 327.514 -1.35838 -1.39206 0
M  V30 3336 C 327.797 -3.24195 1.56747 0
M  V30 3337 C 327.65 -3.24989 3.10969 0
M  V30 3338 C 328.969 -4.21678 1.25998 0
M  V30 3339 H 326.088 -0.651883 0.343828 0
M  V30 3340 H 328.73 -1.2463 1.43413 0
M  V30 3341 H 326.88 -3.71107 1.14942 0
M  V30 3342 H 328.552 -2.86258 3.61737 0
M  V30 3343 H 326.795 -2.63716 3.44436 0
M  V30 3344 H 327.466 -4.27005 3.49815 0
M  V30 3345 H 329.942 -3.83196 1.62174 0
M  V30 3346 H 328.818 -5.21146 1.7233 0
M  V30 3347 H 329.079 -4.4174 0.178367 0
M  V30 3348 N 328.138 -0.959301 -1.25041 0
M  V30 3349 C 329.363 -0.633507 -1.97488 0
M  V30 3350 C 329.788 0.788555 -1.70773 0
M  V30 3351 O 329.146 1.53394 -0.966431 0
M  V30 3352 C 329.194 -0.904057 -3.49083 0
M  V30 3353 O 328.298 0.0147939 -4.12397 0
M  V30 3354 H 327.639 -0.240368 -0.618966 0
M  V30 3355 H 330.169 -1.28717 -1.59038 0
M  V30 3356 H 330.179 -0.832203 -3.99423 0
M  V30 3357 H 328.854 -1.94048 -3.67856 0
M  V30 3358 H 327.431 -0.109664 -3.72739 0
M  V30 3359 N 329.616 1.39756 -0.72842 0
M  V30 3360 C 330.862 2.00942 -0.273892 0
M  V30 3361 C 331.195 1.57656 1.13394 0
M  V30 3362 O 330.47 0.802434 1.77176 0
M  V30 3363 C 330.753 3.58211 -0.368346 0
M  V30 3364 C 330.606 4.11534 -1.81548 0
M  V30 3365 C 331.925 4.39372 0.253054 0
M  V30 3366 H 329.044 0.730047 -0.100996 0
M  V30 3367 H 331.686 1.66056 -0.923337 0
M  V30 3368 H 329.836 3.88061 0.184588 0
M  V30 3369 H 331.508 3.92431 -2.42478 0
M  V30 3370 H 329.751 3.65341 -2.33898 0
M  V30 3371 H 330.422 5.20682 -1.83288 0
M  V30 3372 H 332.898 4.15527 -0.218224 0
M  V30 3373 H 331.774 5.48677 0.156585 0
M  V30 3374 H 332.035 4.21358 1.33826 0
M  V30 3375 N 331.094 0.475555 1.50254 0
M  V30 3376 C 332.057 -0.305016 2.27161 0
M  V30 3377 C 333.057 -0.916519 1.32123 0
M  V30 3378 O 334.247 -0.785003 1.5551 0
M  V30 3379 C 331.379 -1.43496 3.09227 0
M  V30 3380 H 332.572 0.369511 2.97615 0
M  V30 3381 H 330.125 0.229747 1.54602 0
M  V30 3382 H 330.86 -2.14441 2.43281 0
M  V30 3383 H 330.645 -1.00223 3.79075 0
M  V30 3384 H 332.135 -1.98548 3.67381 0
M  V30 3385 N 332.573 -1.56217 0.208337 0
M  V30 3386 C 333.803 -2.02043 -0.431523 0
M  V30 3387 C 334.211 -1.08755 -1.54819 0
M  V30 3388 O 333.554 -0.0870009 -1.83494 0
M  V30 3389 C 333.616 -3.44239 -1.03633 0
M  V30 3390 C 333.28 -4.56965 -0.0567502 0
M  V30 3391 C 334.277 -5.14624 0.738773 0
M  V30 3392 C 331.962 -5.02266 0.0581736 0
M  V30 3393 C 333.956 -6.16045 1.63605 0
M  V30 3394 C 331.643 -6.03528 0.959001 0
M  V30 3395 C 332.641 -6.60293 1.7465 0
M  V30 3396 O 332.329 -7.59586 2.6322 0
M  V30 3397 H 332.061 -0.666772 -0.111313 0
M  V30 3398 H 334.615 -2.02919 0.318277 0
M  V30 3399 H 332.845 -3.40391 -1.83497 0
M  V30 3400 H 334.534 -3.73793 -1.58221 0
M  V30 3401 H 335.3 -4.80483 0.660364 0
M  V30 3402 H 331.179 -4.57771 -0.544633 0
M  V30 3403 H 334.723 -6.60279 2.25116 0
M  V30 3404 H 330.62 -6.37092 1.03848 0
M  V30 3405 H 331.388 -7.77057 2.57148 0
M  V30 3406 N 334.051 0.0651679 -1.57465 0
M  V30 3407 C 334.983 1.10359 -2.00882 0
M  V30 3408 C 335.996 1.346 -0.915788 0
M  V30 3409 O 337.185 1.32723 -1.1936 0
M  V30 3410 C 334.285 2.45312 -2.33828 0
M  V30 3411 C 333.458 2.40934 -3.65061 0
M  V30 3412 C 332.517 3.58047 -3.85602 0
M  V30 3413 O 331.543 3.39175 -4.57109 0
M  V30 3414 N 332.745 4.78637 -3.28462 0
M  V30 3415 H 335.51 0.733807 -2.90578 0
M  V30 3416 H 333.071 0.253719 -1.599 0
M  V30 3417 H 335.063 3.22314 -2.44737 0
M  V30 3418 H 333.633 2.74267 -1.49988 0
M  V30 3419 H 332.853 1.49273 -3.64844 0
M  V30 3420 H 334.141 2.35117 -4.51218 0
M  V30 3421 H 333.539 4.96872 -2.70433 0
M  V30 3422 H 332.096 5.53127 -3.44809 0
M  V30 3423 N 335.529 1.53961 0.336706 0
M  V30 3424 C 336.479 1.7881 1.41461 0
M  V30 3425 C 337.463 0.643561 1.47469 0
M  V30 3426 O 338.655 0.903166 1.52223 0
M  V30 3427 C 335.784 2.00722 2.78506 0
M  V30 3428 C 334.87 3.2126 2.76862 0
M  V30 3429 N 335.261 4.42588 2.44845 0
M  V30 3430 C 333.559 3.22568 3.08004 0
M  V30 3431 C 334.26 5.2447 2.51607 0
M  V30 3432 N 333.236 4.61344 2.87511 0
M  V30 3433 H 337.038 2.70205 1.15615 0
M  V30 3434 H 334.552 1.52978 0.545112 0
M  V30 3435 H 336.549 2.1666 3.5618 0
M  V30 3436 H 335.209 1.10573 3.05293 0
M  V30 3437 H 336.22 4.69819 2.17922 0
M  V30 3438 H 332.897 2.42409 3.39918 0
M  V30 3439 H 334.287 6.31324 2.29955 0
M  V30 3440 N 337.007 -0.598083 1.45811 0
M  V30 3441 C 338.253 -1.35882 1.50545 0
M  V30 3442 C 338.586 -1.93616 0.150445 0
M  V30 3443 O 337.861 -1.75604 -0.83628 0
M  V30 3444 C 338.144 -2.49966 2.59208 0
M  V30 3445 C 337.997 -1.97367 4.04186 0
M  V30 3446 C 339.316 -3.52068 2.64076 0
M  V30 3447 H 336.435 -0.492717 0.548087 0
M  V30 3448 H 339.077 -0.673319 1.77669 0
M  V30 3449 H 337.227 -3.08443 2.3621 0
M  V30 3450 H 338.899 -1.43466 4.38423 0
M  V30 3451 H 337.142 -1.283 4.14393 0
M  V30 3452 H 337.813 -2.79649 4.75921 0
M  V30 3453 H 340.289 -3.03448 2.84708 0
M  V30 3454 H 339.165 -4.2937 3.41954 0
M  V30 3455 H 339.426 -4.08304 1.69531 0
M  V30 3456 N 338.485 -1.33259 -0.841409 0
M  V30 3457 C 339.901 -1.12538 -1.13169 0
M  V30 3458 C 340.101 0.0854037 -2.01319 0
M  V30 3459 O 339.157 0.766417 -2.40587 0
M  V30 3460 C 340.47 -2.41156 -1.79623 0
M  V30 3461 C 342.018 -2.47038 -1.922 0
M  V30 3462 C 342.493 -3.7561 -2.6207 0
M  V30 3463 N 343.984 -3.76667 -2.69585 0
M  V30 3464 C 344.719 -4.72861 -3.2433 0
M  V30 3465 N 344.215 -5.79428 -3.79783 0
M  V30 3466 N 346.008 -4.6034 -3.22558 0
M  V30 3467 H 338.159 -2.10868 -0.254676 0
M  V30 3468 H 340.422 -0.931615 -0.175493 0
M  V30 3469 H 340.128 -3.29747 -1.22311 0
M  V30 3470 H 340.002 -2.53114 -2.79666 0
M  V30 3471 H 342.389 -1.58898 -2.48667 0
M  V30 3472 H 342.47 -2.39022 -0.911148 0
M  V30 3473 H 342.114 -4.64131 -2.06263 0
M  V30 3474 H 342.044 -3.80902 -3.63622 0
M  V30 3475 H 344.535 -2.99648 -2.30259 0
M  V30 3476 H 344.848 -6.48867 -4.19752 0
M  V30 3477 H 343.193 -5.83166 -3.78078 0
M  V30 3478 H 346.384 -3.76244 -2.78492 0
M  V30 3479 H 346.557 -5.35478 -3.64921 0
M  V30 3480 N 339.963 1.05934 -1.16686 0
M  V30 3481 C 340.873 2.17014 -0.891183 0
M  V30 3482 C 341.889 1.73453 0.137907 0
M  V30 3483 O 343.065 2.01361 -0.039592 0
M  V30 3484 C 340.13 3.44384 -0.400099 0
M  V30 3485 C 339.191 4.02433 -1.49486 0
M  V30 3486 C 338.424 5.23723 -1.02711 0
M  V30 3487 O 338.647 5.7027 0.121716 0
M  V30 3488 O 337.581 5.7382 -1.81699 0
M  V30 3489 H 341.407 2.43113 -1.82015 0
M  V30 3490 H 338.992 1.15541 -0.947132 0
M  V30 3491 H 340.874 4.21189 -0.133392 0
M  V30 3492 H 339.549 3.19802 0.500817 0
M  V30 3493 H 338.456 3.27102 -1.81535 0
M  V30 3494 H 339.789 4.31317 -2.37121 0
M  V30 3495 N 341.441 0.965919 1.2453 0
M  V30 3496 C 342.718 0.543777 1.87889 0
M  V30 3497 C 343.098 -0.97909 1.87021 0
M  V30 3498 O 342.446 -1.84969 1.3416 0
M  V30 3499 C 342.656 1.13327 3.30088 0
M  V30 3500 C 344.004 1.21707 4.06783 0
M  V30 3501 O 345.028 1.08566 3.39252 0
M  V30 3502 O 343.887 1.42456 5.27606 0
M  V30 3503 H 340.981 0.181054 0.806938 0
M  V30 3504 H 343.527 1.06007 1.32516 0
M  V30 3505 H 342.299 2.17612 3.25209 0
M  V30 3506 H 341.922 0.600911 3.93033 0
M  V30 3507 N 342.919 -1.39368 0.735821 0
M  V30 3508 C 344.33 -1.83313 0.354015 0
M  V30 3509 C 344.681 -1.61461 -1.11466 0
M  V30 3510 O 343.806 -1.10621 -1.85989 0
M  V30 3511 C 344.401 -3.32781 0.635769 0
M  V30 3512 C 342.96 -3.75142 0.307448 0
M  V30 3513 C 342.107 -2.62358 0.897974 0
M  V30 3514 H 345.058 -1.28349 0.933398 0
M  V30 3515 H 345.079 -3.80388 -0.0921773 0
M  V30 3516 H 344.591 -3.48654 1.70476 0
M  V30 3517 H 342.692 -3.64857 -0.755674 0
M  V30 3518 H 342.805 -4.72532 0.790583 0
M  V30 3519 H 341.169 -2.52624 0.324551 0
M  V30 3520 H 341.952 -2.81036 1.97164 0
M  V30 3521 N 344.397 -0.483516 -1.5 0
M  V30 3522 C 345.646 0.0689102 -2.01582 0
M  V30 3523 C 345.959 1.39655 -1.36952 0
M  V30 3524 O 347.165 2.03465 -1.79762 0
M  V30 3525 C 345.621 0.173302 -3.59483 0
M  V30 3526 C 345.229 -1.14665 -4.33077 0
M  V30 3527 C 346.973 0.677024 -4.19066 0
M  V30 3528 C 344.88 -1.00537 -5.82792 0
M  V30 3529 H 343.81 0.0295277 -0.753422 0
M  V30 3530 H 346.461 -0.620295 -1.72698 0
M  V30 3531 H 344.843 0.926569 -3.85007 0
M  V30 3532 H 346.017 -1.91184 -4.19268 0
M  V30 3533 H 344.332 -1.58244 -3.85159 0
M  V30 3534 H 346.929 0.799952 -5.28682 0
M  V30 3535 H 347.272 1.67151 -3.81269 0
M  V30 3536 H 347.805 -0.0192083 -3.97795 0
M  V30 3537 H 344.544 -1.9736 -6.25083 0
M  V30 3538 H 344.064 -0.280776 -5.99142 0
M  V30 3539 H 345.743 -0.677 -6.43448 0
M  V30 3540 N 345.875 1.56104 -0.216619 0
M  V30 3541 C 347.286 1.844 0.292128 0
M  V30 3542 C 347.637 1.13788 1.59833 0
M  V30 3543 O 346.762 0.405888 2.12559 0
M  V30 3544 C 347.357 3.3452 0.53681 0
M  V30 3545 C 345.916 3.63151 0.989876 0
M  V30 3546 C 345.063 2.77255 0.0502302 0
M  V30 3547 H 348.014 1.52481 -0.439926 0
M  V30 3548 H 348.035 3.54459 1.38345 0
M  V30 3549 H 347.547 3.85885 -0.414031 0
M  V30 3550 H 345.648 3.17238 1.95425 0
M  V30 3551 H 345.761 4.71177 0.867698 0
M  V30 3552 H 344.125 2.48555 0.556117 0
M  V30 3553 H 344.908 3.31416 -0.89544 0
M  V30 3554 N 347.353 -0.0568162 1.57498 0
M  V30 3555 C 348.764 -0.606858 1.76562 0
M  V30 3556 C 349.115 -1.77114 0.844094 0
M  V30 3557 O 348.24 -2.16376 0.0318911 0
M  V30 3558 C 348.835 -1.10766 3.20182 0
M  V30 3559 C 347.394 -1.60344 3.40539 0
M  V30 3560 C 346.541 -0.529311 2.72201 0
M  V30 3561 H 349.492 0.169393 1.57793 0
M  V30 3562 H 349.513 -1.97602 3.25167 0
M  V30 3563 H 349.025 -0.26006 3.87228 0
M  V30 3564 H 347.126 -2.47379 2.78629 0
M  V30 3565 H 347.239 -1.67006 4.4905 0
M  V30 3566 H 345.603 -0.977893 2.35179 0
M  V30 3567 H 346.386 0.308352 3.41912 0
M  V30 3568 N 348.832 -1.54138 -0.328536 0
M  V30 3569 C 350.057 -1.76378 -1.09112 0
M  V30 3570 C 350.482 -0.508596 -1.81094 0
M  V30 3571 O 349.84 0.539598 -1.73084 0
M  V30 3572 C 349.888 -2.95358 -2.06872 0
M  V30 3573 O 348.992 -2.66556 -3.14677 0
M  V30 3574 H 348.333 -0.584614 -0.314838 0
M  V30 3575 H 350.863 -2.01146 -0.374348 0
M  V30 3576 H 350.873 -3.22566 -2.4983 0
M  V30 3577 H 349.548 -3.86385 -1.5388 0
M  V30 3578 H 348.125 -2.50282 -2.7643 0
M  V30 3579 N 350.31 0.590341 -1.46126 0
M  V30 3580 C 351.273 1.68194 -1.55703 0
M  V30 3581 C 352.273 1.54808 -0.434868 0
M  V30 3582 O 353.463 1.59564 -0.698928 0
M  V30 3583 C 350.595 3.07575 -1.47005 0
M  V30 3584 H 351.788 1.61064 -2.52979 0
M  V30 3585 H 349.341 0.807541 -1.33823 0
M  V30 3586 H 350.076 3.20268 -0.509785 0
M  V30 3587 H 349.861 3.187 -2.28414 0
M  V30 3588 H 351.351 3.87055 -1.56776 0
M  V30 3589 N 351.788 1.33704 0.83433 0
M  V30 3590 C 353.204 1.13137 1.12571 0
M  V30 3591 C 353.404 -0.0747261 2.01361 0
M  V30 3592 O 352.46 -0.753647 2.4099 0
M  V30 3593 C 353.773 2.42105 1.78342 0
M  V30 3594 C 355.321 2.48054 1.90888 0
M  V30 3595 C 355.796 3.76995 2.60075 0
M  V30 3596 N 357.287 3.78092 2.67584 0
M  V30 3597 C 358.022 4.74574 3.21818 0
M  V30 3598 N 357.518 5.81434 3.76705 0
M  V30 3599 N 359.311 4.62044 3.20112 0
M  V30 3600 H 351.462 2.11 0.243489 0
M  V30 3601 H 353.725 0.932532 0.17055 0
M  V30 3602 H 353.431 3.30391 1.20561 0
M  V30 3603 H 353.305 2.54594 2.7832 0
M  V30 3604 H 355.692 1.60215 2.47821 0
M  V30 3605 H 355.773 2.39502 0.898459 0
M  V30 3606 H 355.417 4.65219 2.03799 0
M  V30 3607 H 355.347 3.82825 3.61597 0
M  V30 3608 H 357.838 3.00865 2.28667 0
M  V30 3609 H 358.151 6.51084 4.16305 0
M  V30 3610 H 356.496 5.85163 3.7498 0
M  V30 3611 H 359.687 3.77716 2.76493 0
M  V30 3612 H 359.86 5.37406 3.62076 0
M  V30 3613 N 353.266 -1.05314 1.17247 0
M  V30 3614 C 354.216 -2.11313 0.856196 0
M  V30 3615 C 355.2 -1.60013 -0.168694 0
M  V30 3616 O 356.392 -1.76968 0.0335624 0
M  V30 3617 C 353.521 -3.41301 0.369917 0
M  V30 3618 C 352.607 -3.99401 1.42616 0
M  V30 3619 N 352.998 -4.31481 2.63928 0
M  V30 3620 C 351.296 -4.27126 1.28373 0
M  V30 3621 C 351.997 -4.77799 3.31787 0
M  V30 3622 N 350.973 -4.77843 2.59166 0
M  V30 3623 H 354.775 -2.33976 1.77856 0
M  V30 3624 H 352.289 -1.2295 1.06099 0
M  V30 3625 H 354.286 -4.16713 0.124897 0
M  V30 3626 H 352.946 -3.20072 -0.546253 0
M  V30 3627 H 353.957 -4.21519 3.00902 0
M  V30 3628 H 350.634 -4.15289 0.429111 0
M  V30 3629 H 352.024 -5.11743 4.35395 0
M  V30 3630 N 354.744 -0.972509 -1.24016 0
M  V30 3631 C 355.654 -0.5143 -2.28893 0
M  V30 3632 C 356.67 0.427078 -1.68677 0
M  V30 3633 O 357.846 0.298939 -1.99169 0
M  V30 3634 C 354.911 0.183598 -3.46214 0
M  V30 3635 C 353.972 -0.798202 -4.21814 0
M  V30 3636 C 353.205 -0.133514 -5.33533 0
M  V30 3637 O 353.428 1.07714 -5.60137 0
M  V30 3638 O 352.362 -0.828103 -5.96176 0
M  V30 3639 H 356.188 -1.38629 -2.70214 0
M  V30 3640 H 353.773 -0.739769 -1.29799 0
M  V30 3641 H 355.655 0.575433 -4.17453 0
M  V30 3642 H 354.33 1.03048 -3.0686 0
M  V30 3643 H 353.237 -1.24059 -3.52931 0
M  V30 3644 H 354.57 -1.61364 -4.64997 0
M  V30 3645 N 356.222 1.38976 -0.743202 0
M  V30 3646 C 357.47 1.99948 -0.29417 0
M  V30 3647 C 357.791 1.59279 1.12495 0
M  V30 3648 O 357.061 0.844808 1.76748 0
M  V30 3649 H 355.641 0.739473 -0.105774 0
M  V30 3650 H 358.303 1.699 -0.954986 0
M  V30 3651 H 357.399 3.10142 -0.349056 0
M  V30 3652 N 357.7 0.491464 1.49741 0
M  V30 3653 C 358.63 -0.28154 2.31796 0
M  V30 3654 C 359.611 -0.971473 1.3963 0
M  V30 3655 O 360.796 -0.964719 1.68543 0
M  V30 3656 C 357.926 -1.35203 3.19902 0
M  V30 3657 C 356.88 -0.782529 4.20786 0
M  V30 3658 C 356.206 -1.95283 4.97764 0
M  V30 3659 C 357.506 0.21999 5.21837 0
M  V30 3660 H 359.2 0.403355 2.96671 0
M  V30 3661 H 356.746 0.195425 1.42668 0
M  V30 3662 H 358.699 -1.90045 3.76113 0
M  V30 3663 H 357.423 -2.06598 2.52953 0
M  V30 3664 H 356.082 -0.255928 3.65706 0
M  V30 3665 H 355.73 -2.65423 4.2727 0
M  V30 3666 H 355.43 -1.57789 5.66018 0
M  V30 3667 H 356.954 -2.50577 5.56816 0
M  V30 3668 H 358.368 -0.23996 5.72798 0
M  V30 3669 H 356.765 0.51026 5.97927 0
M  V30 3670 H 357.835 1.13911 4.7133 0
M  V30 3671 N 359.178 -1.55987 0.224894 0
M  V30 3672 C 360.403 -2.03232 -0.41369 0
M  V30 3673 C 360.828 -1.10359 -1.52323 0
M  V30 3674 O 360.186 -0.092395 -1.81064 0
M  V30 3675 C 360.234 -3.48682 -0.919405 0
M  V30 3676 O 359.338 -3.58947 -2.03054 0
M  V30 3677 H 358.679 -0.657428 -0.0931903 0
M  V30 3678 H 361.209 -2.01679 0.34451 0
M  V30 3679 H 361.219 -3.8907 -1.22835 0
M  V30 3680 H 359.894 -4.15761 -0.107339 0
M  V30 3681 H 358.471 -3.30448 -1.72796 0
M  V30 3682 N 360.656 0.0484629 -1.57525 0
M  V30 3683 C 361.619 1.03956 -2.04269 0
M  V30 3684 C 362.619 1.30211 -0.943496 0
M  V30 3685 O 363.809 1.25539 -1.20771 0
M  V30 3686 C 360.941 2.37742 -2.44319 0
M  V30 3687 H 362.134 0.636182 -2.93075 0
M  V30 3688 H 359.687 0.294811 -1.53494 0
M  V30 3689 H 360.422 2.82866 -1.5861 0
M  V30 3690 H 360.207 2.20021 -3.24551 0
M  V30 3691 H 361.697 3.08936 -2.80978 0
M  V30 3692 N 362.134 1.5431 0.320358 0
M  V30 3693 C 363.411 1.63322 1.07635 0
M  V30 3694 C 363.791 0.46912 2.05821 0
M  V30 3695 O 363.139 -0.536274 2.22118 0
M  V30 3696 C 363.349 3.00465 1.77544 0
M  V30 3697 C 364.697 3.56621 2.30449 0
M  V30 3698 O 365.721 3.02791 1.87606 0
M  V30 3699 O 364.58 4.5083 3.08892 0
M  V30 3700 H 361.674 0.661502 0.496331 0
M  V30 3701 H 364.22 1.66656 0.319992 0
M  V30 3702 H 362.992 3.76629 1.06143 0
M  V30 3703 H 362.615 3.00824 2.59982 0
M  V30 3704 N 363.613 -0.582584 1.46437 0
M  V30 3705 C 364.543 -1.70187 1.59871 0
M  V30 3706 C 365.524 -1.64066 0.449042 0
M  V30 3707 O 366.709 -1.82081 0.6753 0
M  V30 3708 C 363.839 -3.08827 1.58881 0
M  V30 3709 C 362.793 -3.29779 2.72819 0
M  V30 3710 C 362.119 -4.68947 2.5689 0
M  V30 3711 C 363.419 -3.17601 4.1464 0
M  V30 3712 H 365.113 -1.592 2.53566 0
M  V30 3713 H 362.659 -0.764472 1.22032 0
M  V30 3714 H 364.612 -3.86951 1.66873 0
M  V30 3715 H 363.336 -3.20713 0.617306 0
M  V30 3716 H 361.995 -2.54054 2.64296 0
M  V30 3717 H 361.643 -4.77599 1.57823 0
M  V30 3718 H 361.343 -4.83919 3.33312 0
M  V30 3719 H 362.867 -5.4924 2.66773 0
M  V30 3720 H 364.281 -3.8557 4.24274 0
M  V30 3721 H 362.678 -3.44094 4.9165 0
M  V30 3722 H 363.748 -2.14681 4.34788 0
M  V30 3723 N 365.091 -1.34144 -0.827227 0
M  V30 3724 C 366.368 -1.16844 -1.56865 0
M  V30 3725 C 366.748 0.260654 -2.09485 0
M  V30 3726 O 366.096 1.26138 -1.9053 0
M  V30 3727 C 366.306 -2.21939 -2.6934 0
M  V30 3728 C 367.654 -2.56695 -3.3822 0
M  V30 3729 O 368.678 -2.20695 -2.79593 0
M  V30 3730 O 367.537 -3.18518 -4.44082 0
M  V30 3731 H 364.631 -0.452669 -0.692112 0
M  V30 3732 H 367.177 -1.45763 -0.868973 0
M  V30 3733 H 365.949 -3.17882 -2.28182 0
M  V30 3734 H 365.572 -1.94172 -3.46962 0
M  V30 3735 N 366.569 1.04691 -1.17803 0
M  V30 3736 C 367.532 2.10724 -0.901545 0
M  V30 3737 C 368.532 1.6042 0.110437 0
M  V30 3738 O 369.722 1.7377 -0.122303 0
M  V30 3739 C 366.854 3.39084 -0.351409 0
M  V30 3740 H 368.047 2.36686 -1.84174 0
M  V30 3741 H 365.6 1.21015 -0.98919 0
M  V30 3742 H 366.335 3.18782 0.59569 0
M  V30 3743 H 366.12 3.76909 -1.08083 0
M  V30 3744 H 367.61 4.17227 -0.176451 0
M  V30 3745 N 368.047 0.979072 1.23499 0
M  V30 3746 C 369.293 0.648178 1.92163 0
M  V30 3747 C 369.626 -0.816049 1.76222 0
M  V30 3748 O 368.901 -1.58849 1.12237 0
M  V30 3749 C 369.184 1.03773 3.44824 0
M  V30 3750 C 369.037 2.55948 3.69879 0
M  V30 3751 C 370.356 0.580653 4.36253 0
M  V30 3752 H 367.475 0.236952 0.69787 0
M  V30 3753 H 370.117 1.22012 1.45647 0
M  V30 3754 H 368.267 0.551058 3.84572 0
M  V30 3755 H 369.939 3.12179 3.3962 0
M  V30 3756 H 368.182 2.98641 3.14636 0
M  V30 3757 H 368.853 2.78255 4.76737 0
M  V30 3758 H 371.329 0.998465 4.03943 0
M  V30 3759 H 370.205 0.881663 5.41773 0
M  V30 3760 H 370.466 -0.519052 4.39042 0
M  V30 3761 N 369.525 -1.3858 0.750561 0
M  V30 3762 C 370.771 -2.00481 0.305825 0
M  V30 3763 C 371.104 -1.5944 -1.10872 0
M  V30 3764 O 370.379 -0.83052 -1.75877 0
M  V30 3765 C 370.662 -3.5758 0.425287 0
M  V30 3766 C 370.515 -4.08594 1.88072 0
M  V30 3767 C 371.834 -4.39719 -0.183122 0
M  V30 3768 H 368.953 -0.728348 0.112598 0
M  V30 3769 H 371.595 -1.64566 0.949638 0
M  V30 3770 H 369.745 -3.88306 -0.122828 0
M  V30 3771 H 371.417 -3.88523 2.48691 0
M  V30 3772 H 369.66 -3.61574 2.39681 0
M  V30 3773 H 370.331 -5.177 1.91548 0
M  V30 3774 H 372.807 -4.15128 0.284303 0
M  V30 3775 H 371.683 -5.48856 -0.0692757 0
M  V30 3776 H 371.944 -4.23434 -1.27106 0
M  V30 3777 N 371.003 -0.499398 -1.49478 0
M  V30 3778 C 371.933 0.269244 -2.31943 0
M  V30 3779 C 372.914 0.964054 -1.40143 0
M  V30 3780 O 374.099 0.955767 -1.69052 0
M  V30 3781 C 371.229 1.33504 -3.20615 0
M  V30 3782 C 370.183 0.760202 -4.21195 0
M  V30 3783 C 369.509 1.9264 -4.98792 0
M  V30 3784 C 370.809 -0.247661 -5.21712 0
M  V30 3785 H 372.503 -0.419082 -2.96452 0
M  V30 3786 H 370.049 -0.202988 -1.42562 0
M  V30 3787 H 372.002 1.88048 -3.77115 0
M  V30 3788 H 370.726 2.05253 -2.54045 0
M  V30 3789 H 369.385 0.23653 -3.65836 0
M  V30 3790 H 369.033 2.63154 -4.28671 0
M  V30 3791 H 368.733 1.54785 -5.66847 0
M  V30 3792 H 370.257 2.4762 -5.58137 0
M  V30 3793 H 371.671 0.209579 -5.72917 0
M  V30 3794 H 370.068 -0.541962 -5.97648 0
M  V30 3795 H 371.138 -1.16409 -4.7072 0
M  V30 3796 N 372.481 1.55866 -0.233164 0
M  V30 3797 C 373.428 2.20796 0.67215 0
M  V30 3798 C 374.398 1.16731 1.18166 0
M  V30 3799 O 375.583 1.45129 1.23864 0
M  V30 3800 C 372.723 2.90072 1.86955 0
M  V30 3801 C 371.836 4.08759 1.39786 0
M  V30 3802 C 370.971 4.65787 2.55374 0
M  V30 3803 C 370.01 5.76752 2.04998 0
M  V30 3804 N 369.147 6.28021 3.13901 0
M  V30 3805 H 373.987 2.9779 0.111749 0
M  V30 3806 H 371.524 1.47036 0.0434007 0
M  V30 3807 H 373.482 3.28428 2.57276 0
M  V30 3808 H 372.112 2.15575 2.40265 0
M  V30 3809 H 371.164 3.7581 0.589173 0
M  V30 3810 H 372.476 4.88906 0.98856 0
M  V30 3811 H 371.63 5.06646 3.33758 0
M  V30 3812 H 370.369 3.84828 2.99598 0
M  V30 3813 H 369.374 5.35383 1.25079 0
M  V30 3814 H 370.599 6.59553 1.61759 0
M  V30 3815 H 368.545 5.49971 3.57586 0
M  V30 3816 H 368.462 7.03323 2.7726 0
M  V30 3817 H 369.73 6.73538 3.92386 0
M  V30 3818 N 373.959 -0.0401083 1.57549 0
M  V30 3819 C 374.922 -1.02871 2.04817 0
M  V30 3820 C 375.922 -1.29708 0.950388 0
M  V30 3821 O 377.112 -1.24897 1.21435 0
M  V30 3822 C 374.244 -2.36443 2.45576 0
M  V30 3823 H 375.437 -0.620631 2.93408 0
M  V30 3824 H 372.99 -0.286667 1.53649 0
M  V30 3825 H 373.725 -2.82021 1.60108 0
M  V30 3826 H 373.51 -2.18296 3.25713 0
M  V30 3827 H 375 -3.07441 2.82612 0
M  V30 3828 N 375.437 -1.54477 -0.31217 0
M  V30 3829 C 376.367 -1.87652 -1.38957 0
M  V30 3830 C 377.348 -0.734358 -1.53431 0
M  V30 3831 O 378.533 -0.98911 -1.67123 0
M  V30 3832 C 375.663 -2.11396 -2.75552 0
M  V30 3833 C 374.617 -3.27243 -2.75855 0
M  V30 3834 C 373.943 -3.36382 -4.15633 0
M  V30 3835 C 375.243 -4.64622 -2.38587 0
M  V30 3836 H 376.937 -2.77887 -1.11442 0
M  V30 3837 H 374.483 -1.33707 -0.534655 0
M  V30 3838 H 376.436 -2.33189 -3.51 0
M  V30 3839 H 375.16 -1.17921 -3.04569 0
M  V30 3840 H 373.819 -3.05356 -2.02863 0
M  V30 3841 H 373.467 -2.40445 -4.41809 0
M  V30 3842 H 373.167 -4.14249 -4.1674 0
M  V30 3843 H 374.691 -3.60422 -4.92877 0
M  V30 3844 H 376.105 -4.86219 -3.03749 0
M  V30 3845 H 374.502 -5.45121 -2.50925 0
M  V30 3846 H 375.572 -4.66097 -1.33723 0
M  V30 3847 N 376.915 0.57481 -1.46744 0
M  V30 3848 C 377.878 1.66533 -1.57478 0
M  V30 3849 C 378.878 1.54338 -0.451263 0
M  V30 3850 O 380.068 1.58814 -0.715813 0
M  V30 3851 C 377.2 3.05999 -1.50259 0
M  V30 3852 H 378.393 1.58372 -2.54673 0
M  V30 3853 H 375.946 0.793301 -1.34672 0
M  V30 3854 H 376.681 3.19709 -0.543725 0
M  V30 3855 H 376.466 3.16259 -2.31781 0
M  V30 3856 H 377.956 3.8537 -1.60872 0
M  V30 3857 N 378.394 1.34581 0.820102 0
M  V30 3858 C 379.341 1.2639 1.93117 0
M  V30 3859 C 380.311 0.138554 1.65521 0
M  V30 3860 O 381.496 0.320004 1.88097 0
M  V30 3861 C 378.636 1.02812 3.29429 0
M  V30 3862 C 377.749 2.24146 3.693 0
M  V30 3863 C 376.884 1.93829 4.94574 0
M  V30 3864 C 375.923 3.1129 5.27034 0
M  V30 3865 N 375.06 2.80838 6.43486 0
M  V30 3866 H 379.9 2.21408 1.99455 0
M  V30 3867 H 377.437 1.10077 0.975784 0
M  V30 3868 H 379.395 0.871788 4.0799 0
M  V30 3869 H 378.025 0.114612 3.22596 0
M  V30 3870 H 377.077 2.50691 2.86109 0
M  V30 3871 H 378.389 3.11899 3.89257 0
M  V30 3872 H 377.543 1.74948 5.80929 0
M  V30 3873 H 376.282 1.03341 4.76626 0
M  V30 3874 H 375.287 3.30764 4.39175 0
M  V30 3875 H 376.512 4.02561 5.4692 0
M  V30 3876 H 374.458 1.92929 6.26988 0
M  V30 3877 H 374.375 3.62123 6.63629 0
M  V30 3878 H 375.643 2.65467 7.32903 0
M  V30 3879 N 379.872 -1.04064 1.18357 0
M  V30 3880 C 380.82 -2.14187 0.907007 0
M  V30 3881 C 381.814 -1.68879 -0.132725 0
M  V30 3882 O 383.02 -1.79993 0.0154248 0
M  V30 3883 H 379.395 -0.699585 0.275835 0
M  V30 3884 H 381.366 -2.34711 1.84264 0
M  V30 3885 C 380.115 -3.44785 0.449254 0
M  V30 3886 H 379.438 -3.80058 1.24081 0
M  V30 3887 H 380.878 -4.22974 0.294737 0
M  V30 3888 C 379.337 -3.26391 -0.834909 0
M  V30 3889 O 379.867 -3.53973 -1.89911 0
M  V30 3890 N 378.073 -2.79726 -0.787523 0
M  V30 3891 H 377.62 -2.5748 0.0787347 0
M  V30 3892 H 377.578 -2.67798 -1.64716 0
M  V30 3893 N 381.35 -0.985608 -1.22978 0
M  V30 3894 C 382.761 -0.693593 -1.73338 0
M  V30 3895 C 383.112 0.789935 -1.79595 0
M  V30 3896 O 382.237 1.61771 -1.43733 0
M  V30 3897 C 382.832 -1.25235 -3.14804 0
M  V30 3898 C 381.391 -1.00987 -3.626 0
M  V30 3899 C 380.538 -1.37695 -2.40698 0
M  V30 3900 H 383.489 -1.15884 -1.08428 0
M  V30 3901 H 383.51 -0.627329 -3.75293 0
M  V30 3902 H 383.022 -2.33209 -3.10218 0
M  V30 3903 H 381.123 0.0535565 -3.72562 0
M  V30 3904 H 381.236 -1.66812 -4.49122 0
M  V30 3905 H 379.6 -0.795459 -2.4196 0
M  V30 3906 H 380.383 -2.46657 -2.38779 0
M  V30 3907 N 382.828 1.3818 -0.7579 0
M  V30 3908 C 383.738 2.3421 -0.135247 0
M  V30 3909 C 384.754 1.59487 0.695683 0
M  V30 3910 O 385.93 1.91657 0.618832 0
M  V30 3911 C 382.995 3.3862 0.744139 0
M  V30 3912 C 382.056 4.2918 -0.101658 0
M  V30 3913 C 381.289 5.28603 0.735851 0
M  V30 3914 O 381.512 5.35166 1.97366 0
M  V30 3915 O 380.446 6.01707 0.152372 0
M  V30 3916 H 384.272 2.8916 -0.928436 0
M  V30 3917 H 381.857 1.40101 -0.518855 0
M  V30 3918 H 383.739 4.02539 1.2466 0
M  V30 3919 H 382.414 2.86019 1.51575 0
M  V30 3920 H 381.321 3.68407 -0.650167 0
M  V30 3921 H 382.654 4.85048 -0.836024 0
M  V30 3922 N 384.306 0.507319 1.49211 0
M  V30 3923 C 385.254 -0.281364 2.30892 0
M  V30 3924 C 386.248 -0.95687 1.39787 0
M  V30 3925 O 387.454 -0.883838 1.56807 0
M  V30 3926 H 383.829 -0.109597 0.743971 0
M  V30 3927 H 385.8 0.42744 2.95323 0
M  V30 3928 C 384.549 -1.32918 3.21291 0
M  V30 3929 H 383.872 -0.818799 3.91326 0
M  V30 3930 H 385.312 -1.85288 3.81372 0
M  V30 3931 C 383.771 -2.35074 2.41333 0
M  V30 3932 O 384.301 -3.4108 2.12197 0
M  V30 3933 N 382.507 -2.07705 2.03241 0
M  V30 3934 H 382.054 -1.2152 2.27136 0
M  V30 3935 H 382.012 -2.76283 1.50051 0
M  V30 3936 N 385.784 -1.5574 0.241426 0
M  V30 3937 C 387.2 -1.59196 -0.113548 0
M  V30 3938 C 387.4 -1.25852 -1.57364 0
M  V30 3939 O 386.456 -1.00322 -2.31715 0
M  V30 3940 C 387.769 -2.99814 0.230695 0
M  V30 3941 C 389.317 -3.12513 0.174547 0
M  V30 3942 C 389.792 -4.55342 0.492744 0
M  V30 3943 N 391.283 -4.61076 0.443043 0
M  V30 3944 C 392.018 -5.6956 0.662484 0
M  V30 3945 N 391.514 -6.86328 0.944761 0
M  V30 3946 N 393.307 -5.58957 0.593564 0
M  V30 3947 H 385.458 -1.75685 1.19368 0
M  V30 3948 H 387.721 -0.81756 0.479896 0
M  V30 3949 H 387.427 -3.28932 1.24485 0
M  V30 3950 H 387.301 -3.74568 -0.444833 0
M  V30 3951 H 389.688 -2.83179 -0.830277 0
M  V30 3952 H 389.769 -2.40045 0.883845 0
M  V30 3953 H 389.413 -4.85396 1.4951 0
M  V30 3954 H 389.343 -5.26062 -0.23797 0
M  V30 3955 H 391.834 -3.77179 0.233374 0
M  V30 3956 H 392.147 -7.64935 1.09977 0
M  V30 3957 H 390.492 -6.88025 0.982175 0
M  V30 3958 H 393.683 -4.66611 0.373123 0
M  V30 3959 H 393.856 -6.43433 0.767981 0
M  V30 3960 N 387.262 0.0317525 -1.57568 0
M  V30 3961 C 388.492 0.733884 -1.93126 0
M  V30 3962 C 388.9 1.69563 -0.839352 0
M  V30 3963 O 388.243 1.82681 0.193175 0
M  V30 3964 C 388.305 1.54798 -3.24465 0
M  V30 3965 C 387.969 0.751304 -4.50782 0
M  V30 3966 C 388.966 0.0527632 -5.19873 0
M  V30 3967 C 386.651 0.706639 -4.97305 0
M  V30 3968 C 388.645 -0.679774 -6.33765 0
M  V30 3969 C 386.332 -0.0296449 -6.11093 0
M  V30 3970 C 387.33 -0.721614 -6.79177 0
M  V30 3971 O 387.018 -1.44595 -7.90789 0
M  V30 3972 H 386.75 0.211459 -0.642076 0
M  V30 3973 H 389.304 -0.00585615 -2.05399 0
M  V30 3974 H 387.534 2.33147 -3.08512 0
M  V30 3975 H 389.223 2.13247 -3.4537 0
M  V30 3976 H 389.989 0.0783188 -4.84937 0
M  V30 3977 H 385.868 1.23474 -4.44157 0
M  V30 3978 H 389.412 -1.22042 -6.86842 0
M  V30 3979 H 385.309 -0.0571331 -6.45475 0
M  V30 3980 H 386.077 -1.35935 -8.07133 0
M  V30 3981 N 388.74 1.54641 0.303973 0
M  V30 3982 C 389.672 1.81754 1.39636 0
M  V30 3983 C 390.685 0.70035 1.46966 0
M  V30 3984 O 391.874 0.97778 1.49338 0
M  V30 3985 C 388.974 1.93785 2.7803 0
M  V30 3986 C 388.147 3.24156 2.93669 0
M  V30 3987 C 387.206 3.26641 4.12544 0
M  V30 3988 O 386.232 4.00187 4.04771 0
M  V30 3989 N 387.434 2.5182 5.23036 0
M  V30 3990 H 390.199 2.76031 1.16734 0
M  V30 3991 H 387.76 1.54178 0.494033 0
M  V30 3992 H 389.752 1.92852 3.55795 0
M  V30 3993 H 388.322 1.06515 2.93893 0
M  V30 3994 H 387.542 3.37887 2.03042 0
M  V30 3995 H 388.83 4.10195 3.01027 0
M  V30 3996 H 388.228 1.91692 5.32232 0
M  V30 3997 H 386.785 2.56644 5.99147 0
M  V30 3998 N 390.218 -0.567019 1.47046 0
M  V30 3999 C 391.446 -1.35027 1.56765 0
M  V30 4000 C 391.861 -1.8758 0.214316 0
M  V30 4001 O 391.218 -1.64471 -0.790919 0
M  V30 4002 C 391.269 -2.52698 2.58507 0
M  V30 4003 O 390.99 -2.0232 3.88585 0
M  V30 4004 C 392.491 -3.45043 2.78316 0
M  V30 4005 H 389.711 -0.41195 0.529658 0
M  V30 4006 H 392.255 -0.687832 1.92585 0
M  V30 4007 H 390.41 -3.149 2.25648 0
M  V30 4008 H 390.824 -2.79068 4.44096 0
M  V30 4009 H 392.298 -4.2405 3.53391 0
M  V30 4010 H 392.775 -3.97971 1.85784 0
M  V30 4011 H 393.381 -2.88665 3.12334 0
M  V30 4012 N 391.696 -1.35014 -0.812953 0
M  V30 4013 C 392.659 -1.27292 -1.90602 0
M  V30 4014 C 393.659 -0.185817 -1.59723 0
M  V30 4015 O 394.849 -0.439102 -1.68575 0
M  V30 4016 C 391.981 -0.967676 -3.26877 0
M  V30 4017 H 393.174 -2.24479 -1.9887 0
M  V30 4018 H 390.727 -1.19446 -1.00808 0
M  V30 4019 H 391.462 0.0005954 -3.243 0
M  V30 4020 H 391.247 -1.75412 -3.50675 0
M  V30 4021 H 392.737 -0.939085 -4.06904 0
M  V30 4022 N 393.175 1.03435 -1.18907 0
M  V30 4023 C 394.138 2.09756 -0.923844 0
M  V30 4024 C 395.138 1.60528 0.093416 0
M  V30 4025 O 396.328 1.73631 -0.140727 0
M  V30 4026 C 393.46 3.38692 -0.387354 0
M  V30 4027 H 394.653 2.34719 -1.86674 0
M  V30 4028 H 392.206 1.19959 -1.00197 0
M  V30 4029 H 392.941 3.19396 0.561845 0
M  V30 4030 H 392.726 3.75742 -1.12074 0
M  V30 4031 H 394.216 4.17016 -0.220694 0
M  V30 4032 N 394.653 0.992116 1.22453 0
M  V30 4033 C 395.563 0.55065 2.28046 0
M  V30 4034 C 396.579 -0.400189 1.69335 0
M  V30 4035 O 397.755 -0.267215 1.99619 0
M  V30 4036 C 394.82 -0.128496 3.46462 0
M  V30 4037 C 393.881 0.865208 4.20491 0
M  V30 4038 C 393.114 0.218377 5.33253 0
M  V30 4039 O 393.337 -0.987894 5.6178 0
M  V30 4040 O 392.271 0.922845 5.94783 0
M  V30 4041 H 396.097 1.4291 2.67975 0
M  V30 4042 H 393.682 0.760326 1.28606 0
M  V30 4043 H 395.564 -0.508947 4.18315 0
M  V30 4044 H 394.239 -0.981526 3.0846 0
M  V30 4045 H 393.146 1.29658 3.50913 0
M  V30 4046 H 394.479 1.68741 4.62371 0
M  V30 4047 N 396.131 -1.37776 0.765217 0
M  V30 4048 C 397.064 -2.28008 0.0935025 0
M  V30 4049 C 398.042 -1.45985 -0.716047 0
M  V30 4050 O 399.226 -1.75331 -0.692203 0
M  V30 4051 C 396.353 -3.27228 -0.874052 0
M  V30 4052 C 395.399 -4.26239 -0.149307 0
M  V30 4053 S 396.232 -5.22827 1.15809 0
M  V30 4054 C 397.388 -6.256 0.193906 0
M  V30 4055 H 397.621 -2.84631 0.858637 0
M  V30 4056 H 395.154 -1.43952 0.558313 0
M  V30 4057 H 397.112 -3.84902 -1.42691 0
M  V30 4058 H 395.773 -2.69565 -1.61225 0
M  V30 4059 H 394.966 -4.96213 -0.88254 0
M  V30 4060 H 394.568 -3.7252 0.332366 0
M  V30 4061 H 396.86 -6.74508 -0.636011 0
M  V30 4062 H 397.803 -7.02838 0.861638 0
M  V30 4063 H 398.211 -5.64173 -0.191975 0
M  V30 4064 N 397.609 -0.515225 -1.4894 0
M  V30 4065 C 399.025 -0.172099 -1.58669 0
M  V30 4066 C 399.225 1.32405 -1.51892 0
M  V30 4067 O 398.281 2.10116 -1.40027 0
M  V30 4068 C 399.594 -0.761533 -2.90897 0
M  V30 4069 C 401.142 -0.728926 -3.04394 0
M  V30 4070 C 401.617 -1.29667 -4.39261 0
M  V30 4071 N 403.108 -1.25799 -4.4579 0
M  V30 4072 C 403.843 -1.66733 -5.48623 0
M  V30 4073 N 403.339 -2.15327 -6.58488 0
M  V30 4074 N 405.132 -1.58061 -5.39419 0
M  V30 4075 H 397.283 -1.48778 -1.51588 0
M  V30 4076 H 399.546 -0.617968 -0.718901 0
M  V30 4077 H 399.252 -1.81136 -3.01468 0
M  V30 4078 H 399.126 -0.230106 -3.76497 0
M  V30 4079 H 401.513 0.312098 -2.93445 0
M  V30 4080 H 401.594 -1.29766 -2.20442 0
M  V30 4081 H 401.238 -2.33655 -4.50963 0
M  V30 4082 H 401.168 -0.703752 -5.21876 0
M  V30 4083 H 403.659 -0.902102 -3.66975 0
M  V30 4084 H 403.972 -2.44594 -7.33071 0
M  V30 4085 H 402.317 -2.19311 -6.59491 0
M  V30 4086 H 405.508 -1.19906 -4.52482 0
M  V30 4087 H 405.681 -1.90284 -6.19432 0
M  V30 4088 N 399.087 1.5561 -0.249682 0
M  V30 4089 C 400.05 2.20217 0.635394 0
M  V30 4090 C 401.05 1.17227 1.10066 0
M  V30 4091 O 402.24 1.42292 1.00492 0
M  V30 4092 C 399.372 2.84794 1.87363 0
M  V30 4093 H 400.565 2.99814 0.0716752 0
M  V30 4094 H 398.118 1.563 -0.000153234 0
M  V30 4095 H 398.853 2.09142 2.47851 0
M  V30 4096 H 398.638 3.60241 1.5482 0
M  V30 4097 H 400.128 3.3423 2.5036 0
M  V30 4098 N 400.565 -0.0233959 1.57583 0
M  V30 4099 C 401.842 -0.748794 1.807 0
M  V30 4100 C 402.222 -1.9327 0.849106 0
M  V30 4101 O 401.57 -2.28247 -0.107468 0
M  V30 4102 C 401.78 -1.17651 3.28571 0
M  V30 4103 C 403.128 -1.59008 3.93702 0
M  V30 4104 O 404.152 -1.27094 3.32755 0
M  V30 4105 O 403.011 -2.18264 5.01022 0
M  V30 4106 H 400.105 -0.362578 0.743281 0
M  V30 4107 H 402.651 0.000261958 1.697 0
M  V30 4108 H 401.423 -0.331603 3.89892 0
M  V30 4109 H 401.046 -1.98541 3.44481 0
M  V30 4110 N 402.043 -1.548 -0.295768 0
M  V30 4111 C 402.973 -1.89115 -1.36959 0
M  V30 4112 C 403.954 -0.75059 -1.52644 0
M  V30 4113 O 405.139 -1.00678 -1.66065 0
M  V30 4114 C 402.269 -2.14307 -2.73295 0
M  V30 4115 C 401.223 -3.30151 -2.72368 0
M  V30 4116 C 400.549 -3.40772 -4.12042 0
M  V30 4117 C 401.849 -4.67126 -2.33646 0
M  V30 4118 H 403.543 -2.79053 -1.08488 0
M  V30 4119 H 401.089 -1.34266 -0.520443 0
M  V30 4120 H 403.042 -2.36898 -3.48507 0
M  V30 4121 H 401.766 -1.21145 -3.03301 0
M  V30 4122 H 400.425 -3.0749 -1.99613 0
M  V30 4123 H 400.073 -2.45117 -4.39234 0
M  V30 4124 H 399.773 -4.18645 -4.12322 0
M  V30 4125 H 401.297 -3.6563 -4.89027 0
M  V30 4126 H 402.711 -4.89414 -2.98575 0
M  V30 4127 H 401.108 -5.47751 -2.45129 0
M  V30 4128 H 402.178 -4.67489 -1.28772 0
M  V30 4129 N 403.521 0.559213 -1.47345 0
M  V30 4130 C 404.767 1.31843 -1.54095 0
M  V30 4131 C 405.1 1.93149 -0.201726 0
M  V30 4132 O 404.375 1.77759 0.789428 0
M  V30 4133 C 404.658 2.43006 -2.65744 0
M  V30 4134 C 404.511 1.86581 -4.09277 0
M  V30 4135 C 405.83 3.44943 -2.73318 0
M  V30 4136 H 402.949 0.478012 -0.560957 0
M  V30 4137 H 405.591 0.625977 -1.79392 0
M  V30 4138 H 403.741 3.02072 -2.44305 0
M  V30 4139 H 405.413 1.31792 -4.42073 0
M  V30 4140 H 403.656 1.17268 -4.17649 0
M  V30 4141 H 404.327 2.66933 -4.83168 0
M  V30 4142 H 406.803 2.95793 -2.92653 0
M  V30 4143 H 405.679 4.20153 -3.53218 0
M  V30 4144 H 405.94 4.03665 -1.80296 0
M  V30 4145 N 404.999 1.35443 0.805782 0
M  V30 4146 C 406.415 1.15499 1.10146 0
M  V30 4147 C 406.615 -0.0319975 2.01475 0
M  V30 4148 O 405.671 -0.70236 2.42535 0
M  V30 4149 C 406.984 2.45833 1.73166 0
M  V30 4150 C 408.532 2.52047 1.85583 0
M  V30 4151 C 409.007 3.82427 2.52019 0
M  V30 4152 N 410.498 3.83682 2.59504 0
M  V30 4153 C 411.233 4.81294 3.11679 0
M  V30 4154 N 410.729 5.89294 3.64287 0
M  V30 4155 N 412.522 4.6873 3.1024 0
M  V30 4156 H 404.673 2.11469 0.198678 0
M  V30 4157 H 406.936 0.93594 0.150731 0
M  V30 4158 H 406.642 3.32874 1.13526 0
M  V30 4159 H 406.516 2.6044 2.72857 0
M  V30 4160 H 408.903 1.65435 2.44367 0
M  V30 4161 H 408.984 2.41354 0.847455 0
M  V30 4162 H 408.628 4.69437 1.93885 0
M  V30 4163 H 408.558 3.90409 3.53395 0
M  V30 4164 H 411.049 3.05648 2.22234 0
M  V30 4165 H 411.362 6.59768 4.02401 0
M  V30 4166 H 409.707 5.92985 3.62483 0
M  V30 4167 H 412.898 3.83496 2.68419 0
M  V30 4168 H 413.071 5.44965 3.50596 0
M  V30 4169 N 406.477 -1.02803 1.19454 0
M  V30 4170 C 407.723 -1.76478 0.999171 0
M  V30 4171 C 408.056 -1.88456 -0.468828 0
M  V30 4172 O 407.331 -1.40198 -1.34814 0
M  V30 4173 C 407.614 -3.19044 1.66981 0
M  V30 4174 C 407.467 -3.14932 3.21151 0
M  V30 4175 C 408.786 -4.17456 1.39349 0
M  V30 4176 H 405.905 -0.640614 0.364393 0
M  V30 4177 H 408.547 -1.20005 1.47305 0
M  V30 4178 H 406.697 -3.67263 1.2669 0
M  V30 4179 H 408.369 -2.74605 3.70661 0
M  V30 4180 H 406.612 -2.52625 3.52652 0
M  V30 4181 H 407.283 -4.1566 3.63223 0
M  V30 4182 H 409.759 -3.77842 1.74283 0
M  V30 4183 H 408.635 -5.154 1.88823 0
M  V30 4184 H 408.896 -4.40949 0.318813 0
M  V30 4185 N 407.956 -0.998596 -1.21925 0
M  V30 4186 C 408.906 -0.524743 -2.21879 0
M  V30 4187 C 409.89 0.41017 -1.55584 0
M  V30 4188 O 411.082 0.236063 -1.75419 0
M  V30 4189 C 408.211 0.153636 -3.42956 0
M  V30 4190 C 407.297 -0.801918 -4.16449 0
M  V30 4191 N 407.688 -1.95211 -4.66611 0
M  V30 4192 C 405.986 -0.618972 -4.41684 0
M  V30 4193 C 406.687 -2.55234 -5.22715 0
M  V30 4194 N 405.663 -1.83451 -5.1171 0
M  V30 4195 H 409.465 -1.40189 -2.58311 0
M  V30 4196 H 406.979 -0.86159 -1.3766 0
M  V30 4197 H 408.976 0.510534 -4.13762 0
M  V30 4198 H 407.636 1.02684 -3.08036 0
M  V30 4199 H 408.647 -2.33271 -4.62391 0
M  V30 4200 H 405.324 0.207694 -4.16983 0
M  V30 4201 H 406.714 -3.52471 -5.72026 0
M  V30 4202 N 409.434 1.37368 -0.772513 0
M  V30 4203 C 410.382 2.32134 -0.147111 0
M  V30 4204 C 411.376 1.54972 0.684106 0
M  V30 4205 O 412.582 1.70363 0.581083 0
M  V30 4206 H 408.957 0.751449 -0.028786 0
M  V30 4207 H 410.928 2.82464 -0.962112 0
M  V30 4208 C 409.677 3.40226 0.71703 0
M  V30 4209 H 409 3.99706 0.0867951 0
M  V30 4210 H 410.44 4.08897 1.12159 0
M  V30 4211 C 408.899 2.80372 1.86797 0
M  V30 4212 O 409.429 2.71183 2.96349 0
M  V30 4213 N 407.635 2.37904 1.66883 0
M  V30 4214 H 407.182 2.45578 0.777759 0
M  V30 4215 H 407.14 1.98202 2.44056 0
M  V30 4216 N 410.912 0.523116 1.48665 0
M  V30 4217 C 412.16 -0.0134497 2.02096 0
M  V30 4218 C 412.481 -1.35418 1.40311 0
M  V30 4219 O 411.751 -1.87543 0.566074 0
M  V30 4220 H 410.331 -0.00795915 0.746958 0
M  V30 4221 H 412.993 0.685388 1.82451 0
M  V30 4222 H 412.089 -0.126849 3.11842 0
M  V30 4223 N 412.39 -1.55475 0.257931 0
M  V30 4224 C 413.3 -2.2549 -0.647425 0
M  V30 4225 C 414.316 -1.2748 -1.18427 0
M  V30 4226 O 415.492 -1.6038 -1.2182 0
M  V30 4227 C 412.557 -2.94916 -1.82278 0
M  V30 4228 C 411.618 -4.08363 -1.32432 0
M  V30 4229 C 410.851 -4.74469 -2.44366 0
M  V30 4230 O 411.074 -4.39701 -3.63344 0
M  V30 4231 O 410.008 -5.62763 -2.13497 0
M  V30 4232 H 413.834 -3.03593 -0.0807707 0
M  V30 4233 H 411.419 -1.49377 0.0259962 0
M  V30 4234 H 413.301 -3.38606 -2.50846 0
M  V30 4235 H 411.976 -2.19744 -2.37685 0
M  V30 4236 H 410.883 -3.69166 -0.605605 0
M  V30 4237 H 412.216 -4.85385 -0.816211 0
M  V30 4238 N 413.868 0.0150385 -1.57593 0
M  V30 4239 C 415.279 0.559832 -1.78109 0
M  V30 4240 C 415.63 1.74814 -0.890756 0
M  V30 4241 O 414.755 2.16216 -0.0892482 0
M  V30 4242 C 415.35 1.02238 -3.23006 0
M  V30 4243 C 413.909 1.51258 -3.44671 0
M  V30 4244 C 413.056 0.456955 -2.73509 0
M  V30 4245 H 416.007 -0.211169 -1.57289 0
M  V30 4246 H 416.028 1.88912 -3.30292 0
M  V30 4247 H 415.54 0.157302 -3.87781 0
M  V30 4248 H 413.641 2.39905 -2.8509 0
M  V30 4249 H 413.754 1.55042 -4.5332 0
M  V30 4250 H 412.118 0.915196 -2.37689 0
M  V30 4251 H 412.901 -0.398896 -3.40975 0
M  V30 4252 N 415.346 1.54954 0.287554 0
M  V30 4253 C 416.757 1.65732 0.859634 0
M  V30 4254 C 417.108 0.574767 1.87592 0
M  V30 4255 O 416.233 -0.286299 2.14498 0
M  V30 4256 C 416.828 3.00438 1.56597 0
M  V30 4257 C 415.387 3.13292 2.08627 0
M  V30 4258 C 414.534 2.61473 0.923416 0
M  V30 4259 H 417.485 1.5857 0.0642338 0
M  V30 4260 H 417.506 2.92613 2.43224 0
M  V30 4261 H 417.018 3.79207 0.826053 0
M  V30 4262 H 415.119 2.39268 2.85625 0
M  V30 4263 H 415.232 4.19647 2.31157 0
M  V30 4264 H 413.596 2.18264 1.31275 0
M  V30 4265 H 414.379 3.42733 0.197241 0
M  V30 4266 N 416.824 -0.551391 1.4764 0
M  V30 4267 C 417.734 -1.68525 1.63207 0
M  V30 4268 C 418.75 -1.6621 0.514815 0
M  V30 4269 O 419.926 -1.85551 0.783113 0
M  V30 4270 C 416.991 -3.05025 1.64805 0
M  V30 4271 C 416.052 -3.18362 2.88 0
M  V30 4272 C 415.285 -4.4835 2.89513 0
M  V30 4273 O 415.508 -5.34163 2.00065 0
M  V30 4274 O 414.442 -4.65602 3.81443 0
M  V30 4275 H 418.268 -1.58333 2.59161 0
M  V30 4276 H 415.853 -0.722063 1.30792 0
M  V30 4277 H 417.735 -3.86245 1.68502 0
M  V30 4278 H 416.41 -3.15587 0.720197 0
M  V30 4279 H 415.317 -2.36518 2.89845 0
M  V30 4280 H 416.65 -3.12707 3.80099 0
M  V30 4281 N 418.302 -1.35869 -0.798587 0
M  V30 4282 C 419.265 -1.29307 -1.89242 0
M  V30 4283 C 420.265 -0.202747 -1.59517 0
M  V30 4284 O 421.455 -0.456957 -1.681 0
M  V30 4285 C 418.587 -1.00229 -3.25833 0
M  V30 4286 H 419.78 -2.26576 -1.96478 0
M  V30 4287 H 417.333 -1.20509 -0.995358 0
M  V30 4288 H 418.068 -0.033801 -3.24282 0
M  V30 4289 H 417.853 -1.79121 -3.48795 0
M  V30 4290 H 419.343 -0.98219 -4.05885 0
M  V30 4291 N 419.78 1.02168 -1.19998 0
M  V30 4292 C 421.191 1.57135 -1.00825 0
M  V30 4293 C 421.542 1.91276 0.436818 0
M  V30 4294 O 420.667 1.71679 1.3174 0
M  V30 4295 C 421.262 2.85514 -1.82393 0
M  V30 4296 C 419.821 3.37027 -1.67601 0
M  V30 4297 C 418.968 2.10388 -1.80644 0
M  V30 4298 H 421.919 0.846106 -1.34264 0
M  V30 4299 H 421.94 3.56711 -1.32429 0
M  V30 4300 H 421.452 2.60634 -2.87561 0
M  V30 4301 H 419.553 3.66878 -0.650485 0
M  V30 4302 H 419.666 4.09572 -2.4857 0
M  V30 4303 H 418.03 2.22601 -1.23778 0
M  V30 4304 H 418.813 1.8794 -2.87286 0
M  V30 4305 N 421.258 1.00505 1.21394 0
M  V30 4306 C 422.205 0.565496 2.23765 0
M  V30 4307 C 423.175 -0.408466 1.60999 0
M  V30 4308 O 424.36 -0.310503 1.88257 0
M  V30 4309 C 421.5 -0.101667 3.4495 0
M  V30 4310 C 420.613 0.915479 4.22188 0
M  V30 4311 C 419.748 0.220574 5.30742 0
M  V30 4312 C 418.787 1.22527 5.99711 0
M  V30 4313 N 417.924 0.557831 6.9988 0
M  V30 4314 H 422.764 1.44314 2.60725 0
M  V30 4315 H 420.301 0.722643 1.28126 0
M  V30 4316 H 422.259 -0.505504 4.14126 0
M  V30 4317 H 420.889 -0.94303 3.08718 0
M  V30 4318 H 419.941 1.43756 3.52191 0
M  V30 4319 H 421.253 1.68005 4.69655 0
M  V30 4320 H 420.407 -0.239368 6.06228 0
M  V30 4321 H 419.146 -0.576401 4.84282 0
M  V30 4322 H 418.151 1.69571 5.22997 0
M  V30 4323 H 419.376 2.02332 6.48258 0
M  V30 4324 H 417.322 -0.219486 6.55633 0
M  V30 4325 H 417.239 1.26065 7.45415 0
M  V30 4326 H 418.507 0.121095 7.79406 0
M  V30 4327 N 422.737 -1.36956 0.779787 0
M  V30 4328 C 423.983 -1.99787 0.348281 0
M  V30 4329 C 424.316 -1.61756 -1.07465 0
M  V30 4330 O 423.591 -0.867639 -1.74075 0
M  V30 4331 C 423.874 -3.56597 0.50104 0
M  V30 4332 C 423.727 -4.04513 1.96697 0
M  V30 4333 C 425.046 -4.40008 -0.0898097 0
M  V30 4334 H 422.165 -0.725796 0.128022 0
M  V30 4335 H 424.807 -1.62514 0.984331 0
M  V30 4336 H 422.957 -3.88479 -0.0404347 0
M  V30 4337 H 424.629 -3.83161 2.56876 0
M  V30 4338 H 422.872 -3.56408 2.47297 0
M  V30 4339 H 423.543 -5.1352 2.02486 0
M  V30 4340 H 426.019 -4.14431 0.372293 0
M  V30 4341 H 424.895 -5.4888 0.0471605 0
M  V30 4342 H 425.156 -4.26035 -1.18096 0
M  V30 4343 N 424.215 -0.530993 -1.48385 0
M  V30 4344 C 425.145 0.219985 -2.32461 0
M  V30 4345 C 426.126 0.934111 -1.42156 0
M  V30 4346 O 427.311 0.919694 -1.71042 0
M  V30 4347 C 424.441 1.26674 -3.23375 0
M  V30 4348 C 423.395 0.67069 -4.22712 0
M  V30 4349 C 422.721 1.82017 -5.02766 0
M  V30 4350 C 424.021 -0.358268 -5.2107 0
M  V30 4351 H 425.715 -0.48187 -2.95497 0
M  V30 4352 H 423.261 -0.233182 -1.42099 0
M  V30 4353 H 425.214 1.80006 -3.81019 0
M  V30 4354 H 423.938 1.99818 -2.58341 0
M  V30 4355 H 422.597 0.158878 -3.66256 0
M  V30 4356 H 422.245 2.54002 -4.34157 0
M  V30 4357 H 421.945 1.42727 -5.70003 0
M  V30 4358 H 423.469 2.35725 -5.63264 0
M  V30 4359 H 424.883 0.0880081 -5.73232 0
M  V30 4360 H 423.28 -0.66861 -5.96364 0
M  V30 4361 H 424.35 -1.26367 -4.68145 0
M  V30 4362 N 425.693 1.55336 -0.266172 0
M  V30 4363 C 426.921 2.03801 0.356756 0
M  V30 4364 C 427.336 1.14485 1.50129 0
M  V30 4365 O 426.693 0.163121 1.8177 0
M  V30 4366 C 426.744 3.51455 0.846281 0
M  V30 4367 O 426.465 4.37371 -0.252663 0
M  V30 4368 C 427.966 4.15767 1.53794 0
M  V30 4369 H 425.186 0.665906 0.0825218 0
M  V30 4370 H 427.73 2.00636 -0.39566 0
M  V30 4371 H 425.885 3.55092 1.54881 0
M  V30 4372 H 426.299 5.24358 0.122173 0
M  V30 4373 H 427.773 5.20714 1.83198 0
M  V30 4374 H 428.25 3.63404 2.46646 0
M  V30 4375 H 428.856 4.16107 0.879488 0
M  V30 4376 N 427.171 -0.0066808 1.57599 0
M  V30 4377 C 428.448 -0.729586 1.81484 0
M  V30 4378 C 428.828 -1.92359 0.869558 0
M  V30 4379 O 428.176 -2.28348 -0.0832533 0
M  V30 4380 C 428.386 -1.1416 3.29801 0
M  V30 4381 C 429.734 -1.54823 3.95367 0
M  V30 4382 O 430.758 -1.23558 3.34084 0
M  V30 4383 O 429.617 -2.12937 5.03309 0
M  V30 4384 H 426.711 -0.354674 0.747085 0
M  V30 4385 H 429.257 0.0182609 1.6969 0
M  V30 4386 H 428.029 -0.290231 3.90222 0
M  V30 4387 H 427.652 -1.94876 3.46568 0
M  V30 4388 N 428.649 -1.55105 -0.279332 0
M  V30 4389 C 429.612 -1.86783 -1.32834 0
M  V30 4390 C 430.612 -0.74199 -1.42657 0
M  V30 4391 O 431.802 -1.0102 -1.41918 0
M  V30 4392 C 428.934 -2.06746 -2.71052 0
M  V30 4393 H 430.127 -2.8055 -1.05979 0
M  V30 4394 H 427.68 -1.47499 -0.517087 0
M  V30 4395 H 428.415 -1.15339 -3.03097 0
M  V30 4396 H 428.2 -2.88711 -2.65309 0
M  V30 4397 H 429.69 -2.32549 -3.46858 0
M  V30 4398 N 430.127 0.543554 -1.4793 0
M  V30 4399 C 431.037 1.67657 -1.64098 0
M  V30 4400 C 432.053 1.65934 -0.523622 0
M  V30 4401 O 433.229 1.85133 -0.792943 0
M  V30 4402 C 430.294 3.04146 -1.66421 0
M  V30 4403 C 429.355 3.16831 -2.89684 0
M  V30 4404 C 428.588 4.46809 -2.91886 0
M  V30 4405 O 428.811 5.33095 -2.02895 0
M  V30 4406 O 427.745 4.63573 -3.83906 0
M  V30 4407 H 431.571 1.56957 -2.59997 0
M  V30 4408 H 429.156 0.715116 -1.31173 0
M  V30 4409 H 431.038 3.85346 -1.70548 0
M  V30 4410 H 429.713 3.152 -0.736923 0
M  V30 4411 H 428.62 2.34977 -2.91095 0
M  V30 4412 H 429.953 3.10687 -3.81752 0
M  V30 4413 N 431.605 1.3629 0.791371 0
M  V30 4414 C 433.021 1.16661 1.08914 0
M  V30 4415 C 433.221 -0.0106266 2.01497 0
M  V30 4416 O 432.277 -0.676596 2.43266 0
M  V30 4417 C 433.59 2.47656 1.70549 0
M  V30 4418 C 435.138 2.54002 1.82899 0
M  V30 4419 C 435.613 3.85078 2.47949 0
M  V30 4420 N 437.104 3.86413 2.5542 0
M  V30 4421 C 437.839 4.84572 3.06557 0
M  V30 4422 N 437.335 5.93124 3.58016 0
M  V30 4423 N 439.128 4.71994 3.05251 0
M  V30 4424 H 431.279 2.11668 0.176238 0
M  V30 4425 H 433.542 0.937486 0.140796 0
M  V30 4426 H 433.248 3.34059 1.09989 0
M  V30 4427 H 433.122 2.63319 2.70079 0
M  V30 4428 H 435.509 1.68018 2.42598 0
M  V30 4429 H 435.59 2.42239 0.821808 0
M  V30 4430 H 435.234 4.71467 1.88895 0
M  V30 4431 H 435.164 3.94135 3.49235 0
M  V30 4432 H 437.655 3.07988 2.18979 0
M  V30 4433 H 437.968 6.63999 3.95381 0
M  V30 4434 H 436.313 5.96796 3.56173 0
M  V30 4435 H 439.504 3.86321 2.64336 0
M  V30 4436 H 439.677 5.48653 3.44796 0
M  V30 4437 N 433.083 -1.0153 1.20538 0
M  V30 4438 C 434.311 -1.78746 1.04199 0
M  V30 4439 C 434.726 -1.84323 -0.408733 0
M  V30 4440 O 434.083 -1.29714 -1.28377 0
M  V30 4441 C 434.134 -3.23152 1.62035 0
M  V30 4442 O 433.855 -3.17918 3.0143 0
M  V30 4443 C 435.356 -4.16911 1.50666 0
M  V30 4444 H 432.576 -0.56208 0.366479 0
M  V30 4445 H 435.12 -1.27794 1.59653 0
M  V30 4446 H 433.275 -3.71248 1.10697 0
M  V30 4447 H 433.689 -4.08567 3.28897 0
M  V30 4448 H 435.163 -5.16072 1.95892 0
M  V30 4449 H 435.64 -4.36791 0.459363 0
M  V30 4450 H 436.246 -3.74698 2.01201 0
M  V30 4451 N 434.561 -1.01147 -1.20859 0
M  V30 4452 C 435.786 -0.716698 -1.94623 0
M  V30 4453 C 436.211 0.715415 -1.73964 0
M  V30 4454 O 435.569 1.49157 -1.03062 0
M  V30 4455 C 435.617 -1.0513 -3.44935 0
M  V30 4456 O 434.721 -0.160131 -4.12089 0
M  V30 4457 H 434.062 -0.266404 -0.608214 0
M  V30 4458 H 436.592 -1.35346 -1.53436 0
M  V30 4459 H 436.602 -1.00086 -3.95533 0
M  V30 4460 H 435.277 -2.09475 -3.59295 0
M  V30 4461 H 433.854 -0.267657 -3.71938 0
M  V30 4462 N 436.039 1.36541 -0.78704 0
M  V30 4463 C 436.969 2.32659 -0.197992 0
M  V30 4464 C 437.95 1.56533 0.665697 0
M  V30 4465 O 439.135 1.84698 0.60001 0
M  V30 4466 C 436.265 3.40778 0.669901 0
M  V30 4467 C 435.219 4.27897 -0.0937039 0
M  V30 4468 C 434.545 5.27163 0.894629 0
M  V30 4469 C 435.845 5.06334 -1.28154 0
M  V30 4470 H 437.539 2.82171 -1.00099 0
M  V30 4471 H 435.085 1.35665 -0.482793 0
M  V30 4472 H 437.038 4.07008 1.09191 0
M  V30 4473 H 435.762 2.89827 1.50558 0
M  V30 4474 H 434.421 3.6322 -0.49666 0
M  V30 4475 H 434.069 4.72486 1.72527 0
M  V30 4476 H 433.769 5.86317 0.388149 0
M  V30 4477 H 435.293 5.96266 1.31525 0
M  V30 4478 H 436.707 5.65617 -0.93541 0
M  V30 4479 H 435.104 5.74888 -1.72115 0
M  V30 4480 H 436.174 4.38114 -2.07807 0
M  V30 4481 N 437.518 0.538854 1.48102 0
M  V30 4482 C 438.448 -0.207654 2.32575 0
M  V30 4483 C 439.429 -0.926559 1.4265 0
M  V30 4484 O 440.614 -0.91061 1.71527 0
M  V30 4485 C 437.744 -1.24957 3.24042 0
M  V30 4486 C 436.698 -0.648263 4.23062 0
M  V30 4487 C 436.024 -1.79348 5.03725 0
M  V30 4488 C 437.324 0.385897 5.20872 0
M  V30 4489 H 439.018 0.497534 2.95237 0
M  V30 4490 H 436.564 0.240715 1.41974 0
M  V30 4491 H 438.517 -1.77983 3.81969 0
M  V30 4492 H 437.241 -1.98446 2.59397 0
M  V30 4493 H 435.9 -0.139452 3.66335 0
M  V30 4494 H 435.548 -2.51696 4.35498 0
M  V30 4495 H 435.248 -1.39702 5.70751 0
M  V30 4496 H 436.772 -2.32735 5.64506 0
M  V30 4497 H 438.186 -0.057607 5.73271 0
M  V30 4498 H 436.583 0.700227 5.96001 0
M  V30 4499 H 437.653 1.28848 4.67468 0
M  V30 4500 N 438.996 -1.55193 0.274407 0
M  V30 4501 C 440.221 -2.04446 -0.348824 0
M  V30 4502 C 440.646 -1.15149 -1.48735 0
M  V30 4503 O 440.004 -0.149952 -1.80679 0
M  V30 4504 C 440.052 -3.51431 -0.808009 0
M  V30 4505 O 439.156 -3.65225 -1.91531 0
M  V30 4506 H 438.497 -0.66006 -0.0722276 0
M  V30 4507 H 441.027 -2.00481 0.408498 0
M  V30 4508 H 441.037 -3.92781 -1.10395 0
M  V30 4509 H 439.712 -4.15892 0.0249865 0
M  V30 4510 H 438.289 -3.35778 -1.62196 0
M  V30 4511 N 440.474 -0.00167713 -1.576 0
M  V30 4512 C 441.699 0.69739 -1.95323 0
M  V30 4513 C 442.124 1.6642 -0.876706 0
M  V30 4514 O 441.482 1.80548 0.165007 0
M  V30 4515 C 441.53 1.40403 -3.32144 0
M  V30 4516 O 440.634 2.5185 -3.26566 0
M  V30 4517 H 439.975 0.185373 -0.637599 0
M  V30 4518 H 442.505 -0.0553665 -2.04525 0
M  V30 4519 H 442.515 1.76707 -3.67748 0
M  V30 4520 H 441.19 0.695167 -4.10049 0
M  V30 4521 H 439.767 2.17861 -3.0264 0
M  V30 4522 N 441.952 1.55251 0.271103 0
M  V30 4523 C 442.915 1.87484 1.31842 0
M  V30 4524 C 443.915 0.749545 1.42262 0
M  V30 4525 O 445.105 1.01771 1.4138 0
M  V30 4526 C 442.237 2.0818 2.69951 0
M  V30 4527 H 443.43 2.81108 1.0449 0
M  V30 4528 H 440.983 1.47771 0.509258 0
M  V30 4529 H 441.718 1.16944 3.02481 0
M  V30 4530 H 441.503 2.90114 2.63774 0
M  V30 4531 H 442.993 2.34385 3.4562 0
M  V30 4532 N 443.43 -0.535701 1.48216 0
M  V30 4533 C 444.393 -1.623 1.61838 0
M  V30 4534 C 445.393 -1.53087 0.492024 0
M  V30 4535 O 446.583 -1.5686 0.757668 0
M  V30 4536 C 443.715 -3.01907 1.58319 0
M  V30 4537 H 444.908 -1.51564 2.58783 0
M  V30 4538 H 442.461 -0.757317 1.36727 0
M  V30 4539 H 443.196 -3.18155 0.628299 0
M  V30 4540 H 442.981 -3.10003 2.40085 0
M  V30 4541 H 444.471 -3.80969 1.71033 0
M  V30 4542 N 444.908 -1.36708 -0.784132 0
M  V30 4543 C 446.156 -1.30972 -1.53918 0
M  V30 4544 C 446.477 0.109086 -1.94695 0
M  V30 4545 O 445.747 1.05048 -1.65353 0
M  V30 4546 H 444.327 -0.481819 -0.570841 0
M  V30 4547 H 446.989 -1.71063 -0.934002 0
M  V30 4548 H 446.085 -1.94061 -2.44431 0
M  V30 4549 N 446.386 1.0089 -1.21074 0
M  V30 4550 C 447.334 2.11707 -0.963476 0
M  V30 4551 C 448.328 1.69172 0.0879032 0
M  V30 4552 O 449.534 1.79889 -0.0631415 0
M  V30 4553 H 445.909 0.692026 -0.294287 0
M  V30 4554 H 447.88 2.29743 -1.90422 0
M  V30 4555 C 446.629 3.43473 -0.540509 0
M  V30 4556 H 445.952 3.76634 -1.34114 0
M  V30 4557 H 447.392 4.22044 -0.406777 0
M  V30 4558 C 445.851 3.2849 0.748079 0
M  V30 4559 O 446.381 3.58883 1.8046 0
M  V30 4560 N 444.587 2.81715 0.713081 0
M  V30 4561 H 444.134 2.5718 -0.146973 0
M  V30 4562 H 444.092 2.72071 1.57558 0
M  V30 4563 N 447.864 1.01787 1.20321 0
M  V30 4564 C 448.794 0.609625 2.25401 0
M  V30 4565 C 449.775 -0.375951 1.65893 0
M  V30 4566 O 450.96 -0.261101 1.92437 0
M  V30 4567 C 448.09 -0.0515995 3.47262 0
M  V30 4568 C 447.044 0.855095 4.19371 0
M  V30 4569 C 446.37 0.0595757 5.34667 0
M  V30 4570 C 447.67 2.16374 4.75373 0
M  V30 4571 H 449.364 1.48803 2.59804 0
M  V30 4572 H 446.91 0.716934 1.24884 0
M  V30 4573 H 448.863 -0.348764 4.19954 0
M  V30 4574 H 447.587 -0.964726 3.12027 0
M  V30 4575 H 446.246 1.13628 3.48546 0
M  V30 4576 H 445.894 -0.85524 4.95676 0
M  V30 4577 H 445.594 0.663406 5.83843 0
M  V30 4578 H 447.118 -0.231105 6.10162 0
M  V30 4579 H 448.532 1.92885 5.39878 0
M  V30 4580 H 446.929 2.71853 5.34991 0
M  V30 4581 H 447.999 2.82589 3.94045 0
M  V30 4582 N 449.342 -1.36122 0.79427 0
M  V30 4583 C 450.567 -2.03891 0.379871 0
M  V30 4584 C 450.992 -1.59488 -0.997251 0
M  V30 4585 O 450.35 -0.765652 -1.64339 0
M  V30 4586 C 450.398 -3.57687 0.457442 0
M  V30 4587 O 449.502 -4.08931 -0.5338 0
M  V30 4588 H 448.843 -0.6443 0.160541 0
M  V30 4589 H 451.373 -1.73976 1.07673 0
M  V30 4590 H 451.383 -4.06721 0.322792 0
M  V30 4591 H 450.058 -3.89357 1.46199 0
M  V30 4592 H 448.635 -3.71154 -0.360409 0
M  V30 4593 N 450.82 -0.546701 -1.47814 0
M  V30 4594 C 452.068 -0.0187037 -2.02091 0
M  V30 4595 C 452.389 1.33168 -1.42447 0
M  V30 4596 O 451.659 1.86619 -0.595839 0
M  V30 4597 H 450.239 -0.00392531 -0.74699 0
M  V30 4598 H 452.901 -0.714327 -1.81338 0
M  V30 4599 H 451.997 0.0772219 -3.12004 0
M  V30 4600 N 452.299 1.55045 -0.282633 0
M  V30 4601 C 453.71 1.85473 0.213655 0
M  V30 4602 C 454.061 1.20465 1.54863 0
M  V30 4603 O 453.186 0.495676 2.10647 0
M  V30 4604 C 453.781 3.36496 0.394445 0
M  V30 4605 C 452.34 3.67022 0.834961 0
M  V30 4606 C 451.487 2.77218 -0.0674081 0
M  V30 4607 H 454.438 1.50478 -0.504202 0
M  V30 4608 H 454.459 3.60007 1.23186 0
M  V30 4609 H 453.971 3.83782 -0.577326 0
M  V30 4610 H 452.072 3.25241 1.81794 0
M  V30 4611 H 452.185 4.74433 0.667075 0
M  V30 4612 H 450.549 2.5069 0.450196 0
M  V30 4613 H 451.332 3.2732 -1.0352 0
M  V30 4614 N 453.777 0.010035 1.57597 0
M  V30 4615 C 455.193 -0.346164 1.55801 0
M  V30 4616 C 455.393 -1.74144 1.01371 0
M  V30 4617 O 454.449 -2.43938 0.651968 0
M  V30 4618 C 455.762 -0.212216 2.9995 0
M  V30 4619 C 457.31 -0.286409 3.11687 0
M  V30 4620 C 457.785 -0.18147 4.5764 0
M  V30 4621 N 459.276 -0.239056 4.62583 0
M  V30 4622 C 460.011 -0.181351 5.73113 0
M  V30 4623 N 459.507 -0.073661 6.92761 0
M  V30 4624 N 461.3 -0.233949 5.61613 0
M  V30 4625 H 453.451 0.922657 1.91313 0
M  V30 4626 H 455.714 0.354595 0.879185 0
M  V30 4627 H 455.42 0.748169 3.4365 0
M  V30 4628 H 455.294 -0.990224 3.6397 0
M  V30 4629 H 457.681 -1.23724 2.67911 0
M  V30 4630 H 457.762 0.521645 2.50425 0
M  V30 4631 H 457.406 0.765863 5.02093 0
M  V30 4632 H 457.336 -1.00814 5.1686 0
M  V30 4633 H 459.827 -0.32321 3.76515 0
M  V30 4634 H 460.14 -0.0358003 7.72792 0
M  V30 4635 H 458.485 -0.0391461 6.94989 0
M  V30 4636 H 461.676 -0.316347 4.6703 0
M  V30 4637 H 461.849 -0.185514 6.47734 0
M  V30 4638 N 455.255 -1.55392 -0.262866 0
M  V30 4639 C 456.483 -1.80513 -1.01108 0
M  V30 4640 C 456.898 -0.583533 -1.79556 0
M  V30 4641 O 456.255 0.447585 -1.76926 0
M  V30 4642 C 456.306 -3.03648 -1.96164 0
M  V30 4643 O 456.027 -4.2109 -1.20893 0
M  V30 4644 C 457.528 -3.41448 -2.82715 0
M  V30 4645 H 454.748 -0.601079 -0.298236 0
M  V30 4646 H 457.292 -2.02425 -0.290582 0
M  V30 4647 H 455.447 -2.83832 -2.63663 0
M  V30 4648 H 455.861 -4.90771 -1.85051 0
M  V30 4649 H 457.335 -4.30751 -3.45192 0
M  V30 4650 H 457.812 -2.61308 -3.53008 0
M  V30 4651 H 458.418 -3.63559 -2.20693 0
M  V30 4652 N 456.733 0.527833 -1.48498 0
M  V30 4653 C 458.01 1.28905 -1.47115 0
M  V30 4654 C 458.39 2.10297 -0.184007 0
M  V30 4655 O 457.738 2.12728 0.834218 0
M  V30 4656 C 457.948 2.16866 -2.73441 0
M  V30 4657 C 459.296 2.76936 -3.21857 0
M  V30 4658 O 460.32 2.27152 -2.74373 0
M  V30 4659 O 459.179 3.67496 -4.04486 0
M  V30 4660 H 456.273 0.581918 -0.587623 0
M  V30 4661 H 458.819 0.544311 -1.60734 0
M  V30 4662 H 457.591 1.56521 -3.58632 0
M  V30 4663 H 457.214 2.98583 -2.62553 0
M  V30 4664 N 458.211 1.37122 0.776871 0
M  V30 4665 C 459.622 1.28667 1.35284 0
M  V30 4666 C 459.973 -0.0680035 1.96082 0
M  V30 4667 O 459.098 -0.969743 1.93455 0
M  V30 4668 C 459.693 2.32997 2.45963 0
M  V30 4669 C 458.252 2.28191 2.99342 0
M  V30 4670 C 457.399 2.17101 1.72517 0
M  V30 4671 H 460.35 1.47819 0.577527 0
M  V30 4672 H 460.371 1.97366 3.2531 0
M  V30 4673 H 459.883 3.3158 2.01684 0
M  V30 4674 H 457.984 1.33115 3.4801 0
M  V30 4675 H 458.097 3.21397 3.55304 0
M  V30 4676 H 456.461 1.63562 1.95242 0
M  V30 4677 H 457.244 3.17591 1.30348 0
M  V30 4678 N 459.689 -1.00246 1.21608 0
M  V30 4679 C 460.619 -2.10921 1.00172 0
M  V30 4680 C 461.6 -1.69938 -0.0741587 0
M  V30 4681 O 462.785 -1.94009 0.0861753 0
M  V30 4682 C 459.915 -3.42618 0.568355 0
M  V30 4683 C 458.869 -3.97407 1.58909 0
M  V30 4684 C 458.195 -5.25038 1.01187 0
M  V30 4685 C 459.495 -4.2918 2.97661 0
M  V30 4686 H 461.189 -2.29112 1.92739 0
M  V30 4687 H 458.735 -1.10101 0.928102 0
M  V30 4688 H 460.688 -4.19444 0.405555 0
M  V30 4689 H 459.412 -3.24227 -0.392961 0
M  V30 4690 H 458.071 -3.22703 1.73949 0
M  V30 4691 H 457.719 -5.02982 0.0421965 0
M  V30 4692 H 457.419 -5.62661 1.6937 0
M  V30 4693 H 458.943 -6.04507 0.860448 0
M  V30 4694 H 460.357 -4.96839 2.86049 0
M  V30 4695 H 458.754 -4.77952 3.6288 0
M  V30 4696 H 459.824 -3.3735 3.48315 0
M  V30 4697 N 461.167 -1.02423 -1.1978 0
M  V30 4698 C 462.578 -0.748389 -1.71044 0
M  V30 4699 C 462.929 0.732398 -1.82017 0
M  V30 4700 O 462.054 1.57116 -1.48807 0
M  V30 4701 C 462.649 -1.35187 -3.1066 0
M  V30 4702 C 461.208 -1.12472 -3.59203 0
M  V30 4703 C 460.355 -1.45283 -2.36195 0
M  V30 4704 H 463.306 -1.19275 -1.04686 0
M  V30 4705 H 463.327 -0.746408 -3.73107 0
M  V30 4706 H 462.839 -2.4296 -3.02642 0
M  V30 4707 H 460.94 -0.0649983 -3.72543 0
M  V30 4708 H 461.053 -1.81016 -4.43588 0
M  V30 4709 H 459.417 -0.872034 -2.39307 0
M  V30 4710 H 460.2 -2.54129 -2.30811 0
M  V30 4711 N 462.645 1.35699 -0.801477 0
M  V30 4712 C 464.061 1.52065 -0.484596 0
M  V30 4713 C 464.261 1.75215 0.995084 0
M  V30 4714 O 463.317 1.79061 1.78026 0
M  V30 4715 C 464.63 2.69908 -1.32552 0
M  V30 4716 C 466.178 2.83784 -1.32044 0
M  V30 4717 C 466.653 4.04646 -2.14536 0
M  V30 4718 N 468.144 4.11814 -2.12046 0
M  V30 4719 C 468.879 5.04437 -2.72636 0
M  V30 4720 N 468.375 6.02426 -3.42133 0
M  V30 4721 N 470.168 4.97144 -2.62305 0
M  V30 4722 H 462.319 1.18928 -1.75983 0
M  V30 4723 H 464.582 0.581455 -0.748741 0
M  V30 4724 H 464.288 2.59363 -2.37537 0
M  V30 4725 H 464.162 3.64376 -0.975181 0
M  V30 4726 H 466.549 2.93783 -0.27846 0
M  V30 4727 H 466.63 1.90188 -1.71062 0
M  V30 4728 H 466.274 3.95407 -3.18772 0
M  V30 4729 H 466.204 4.97413 -1.72882 0
M  V30 4730 H 468.695 3.41664 -1.61476 0
M  V30 4731 H 469.008 6.69688 -3.85666 0
M  V30 4732 H 467.353 6.02615 -3.46237 0
M  V30 4733 H 470.544 4.19546 -2.07603 0
M  V30 4734 H 470.717 5.69138 -3.09815 0
M  V30 4735 N 464.123 0.554532 1.47522 0
M  V30 4736 C 465.055 -0.232106 2.28022 0
M  V30 4737 C 466.068 -0.881865 1.36847 0
M  V30 4738 O 467.257 -0.756168 1.61692 0
M  V30 4739 C 464.357 -1.34604 3.11022 0
M  V30 4740 C 463.53 -0.793582 4.30141 0
M  V30 4741 C 462.589 -1.79168 4.94758 0
M  V30 4742 O 461.615 -1.33886 5.5323 0
M  V30 4743 N 462.817 -3.12495 4.89211 0
M  V30 4744 H 465.582 0.458407 2.96173 0
M  V30 4745 H 463.143 0.390433 1.57122 0
M  V30 4746 H 465.135 -2.01243 3.51118 0
M  V30 4747 H 463.705 -1.93983 2.45131 0
M  V30 4748 H 462.925 0.0495025 3.94169 0
M  V30 4749 H 464.213 -0.403776 5.07195 0
M  V30 4750 H 463.611 -3.51931 4.42901 0
M  V30 4751 H 462.168 -3.74698 5.33333 0
M  V30 4752 N 465.601 -1.54893 0.290851 0
M  V30 4753 C 466.878 -1.91991 -0.373989 0
M  V30 4754 C 467.258 -1.21694 -1.72493 0
M  V30 4755 O 466.606 -0.34917 -2.25816 0
M  V30 4756 C 466.816 -3.45419 -0.498703 0
M  V30 4757 C 468.164 -4.1748 -0.774298 0
M  V30 4758 O 469.188 -3.51398 -0.582908 0
M  V30 4759 O 468.047 -5.3445 -1.14129 0
M  V30 4760 H 465.141 -0.800593 -0.207315 0
M  V30 4761 H 467.687 -1.66297 0.338164 0
M  V30 4762 H 466.459 -3.88688 0.451392 0
M  V30 4763 H 466.082 -3.77117 -1.25972 0
M  V30 4764 N 467.08 -0.0183926 -1.57589 0
M  V30 4765 C 468.01 0.965596 -2.12599 0
M  V30 4766 C 468.991 1.34641 -1.0395 0
M  V30 4767 O 470.176 1.42693 -1.31729 0
M  V30 4768 C 467.306 2.25149 -2.64434 0
M  V30 4769 C 466.26 2.01175 -3.77773 0
M  V30 4770 C 465.586 3.35937 -4.15994 0
M  V30 4771 C 466.886 1.35953 -5.04296 0
M  V30 4772 H 468.58 0.507504 -2.95067 0
M  V30 4773 H 466.126 0.242671 -1.41941 0
M  V30 4774 H 468.079 2.94357 -3.01549 0
M  V30 4775 H 466.803 2.73105 -1.79112 0
M  V30 4776 H 465.462 1.34388 -3.4108 0
M  V30 4777 H 465.11 3.81631 -3.27669 0
M  V30 4778 H 464.81 3.20705 -4.92364 0
M  V30 4779 H 466.334 4.0643 -4.55683 0
M  V30 4780 H 467.748 1.95144 -5.39065 0
M  V30 4781 H 466.145 1.31152 -5.85593 0
M  V30 4782 H 467.215 0.331071 -4.83768 0
M  V30 4783 N 468.558 1.5553 0.254621 0
M  V30 4784 C 469.835 1.6774 1.00611 0
M  V30 4785 C 470.215 0.555993 2.03647 0
M  V30 4786 O 469.563 -0.441583 2.24193 0
M  V30 4787 C 469.773 3.07725 1.6464 0
M  V30 4788 C 471.121 3.66074 2.15116 0
M  V30 4789 O 472.145 3.10476 1.74595 0
M  V30 4790 O 471.004 4.63526 2.89493 0
M  V30 4791 H 468.098 0.681958 0.467828 0
M  V30 4792 H 470.644 1.67863 0.24902 0
M  V30 4793 H 469.416 3.80792 0.900734 0
M  V30 4794 H 469.039 3.1158 2.46989 0
M  V30 4795 N 470.036 -0.519951 1.48776 0
M  V30 4796 C 471.313 -1.28123 1.47797 0
M  V30 4797 C 471.693 -2.10196 0.195157 0
M  V30 4798 O 471.041 -2.13167 -0.822925 0
M  V30 4799 C 471.251 -2.15413 2.74587 0
M  V30 4800 C 472.599 -2.75225 3.23321 0
M  V30 4801 O 473.623 -2.25694 2.75574 0
M  V30 4802 O 472.482 -3.65346 4.06429 0
M  V30 4803 H 469.576 -0.578793 0.590701 0
M  V30 4804 H 472.122 -0.535779 1.6102 0
M  V30 4805 H 470.894 -1.54617 3.59457 0
M  V30 4806 H 470.517 -2.97186 2.64132 0
M  V30 4807 N 471.514 -1.37532 -0.769588 0
M  V30 4808 C 472.742 -1.36059 -1.55871 0
M  V30 4809 C 473.157 0.053544 -1.88724 0
M  V30 4810 O 472.514 1.01591 -1.5161 0
M  V30 4811 C 472.565 -2.20107 -2.86767 0
M  V30 4812 O 472.286 -3.56009 -2.55321 0
M  V30 4813 C 473.787 -2.26636 -3.80987 0
M  V30 4814 H 471.007 -0.465967 -0.482821 0
M  V30 4815 H 473.551 -1.80901 -0.953686 0
M  V30 4816 H 471.706 -1.78768 -3.43687 0
M  V30 4817 H 472.12 -4.0009 -3.39158 0
M  V30 4818 H 473.594 -2.89763 -4.69831 0
M  V30 4819 H 474.071 -1.2754 -4.20274 0
M  V30 4820 H 474.677 -2.68296 -3.29996 0
M  V30 4821 N 472.992 0.995999 -1.22138 0
M  V30 4822 C 474.269 1.70834 -0.952642 0
M  V30 4823 C 474.649 2.04257 0.533119 0
M  V30 4824 O 473.997 1.72343 1.50034 0
M  V30 4825 C 474.207 2.96119 -1.84701 0
M  V30 4826 C 475.555 3.68962 -2.10124 0
M  V30 4827 O 476.579 3.0612 -1.82124 0
M  V30 4828 O 475.438 4.82017 -2.57531 0
M  V30 4829 H 472.532 0.745498 -0.357997 0
M  V30 4830 H 475.078 1.05262 -1.33109 0
M  V30 4831 H 473.85 2.67898 -2.85213 0
M  V30 4832 H 473.473 3.6943 -1.46995 0
M  V30 4833 N 474.47 1.03057 1.19235 0
M  V30 4834 C 475.886 0.747947 1.40989 0
M  V30 4835 C 476.086 -0.666752 1.90149 0
M  V30 4836 O 475.142 -1.43249 2.07933 0
M  V30 4837 C 476.455 1.7855 2.41951 0
M  V30 4838 C 478.003 1.80524 2.55695 0
M  V30 4839 C 478.478 2.83243 3.59913 0
M  V30 4840 N 479.969 2.8207 3.67411 0
M  V30 4841 C 480.704 3.58204 4.47747 0
M  V30 4842 N 480.2 4.44057 5.31775 0
M  V30 4843 N 481.993 3.46738 4.42413 0
M  V30 4844 H 474.144 1.94367 0.856468 0
M  V30 4845 H 476.407 0.840412 0.438647 0
M  V30 4846 H 476.113 2.79973 2.12857 0
M  V30 4847 H 475.987 1.6092 3.41152 0
M  V30 4848 H 478.374 0.79778 2.84112 0
M  V30 4849 H 478.455 2.02229 1.56643 0
M  V30 4850 H 478.099 3.84161 3.32239 0
M  V30 4851 H 478.029 2.58795 4.5862 0
M  V30 4852 H 480.52 2.19803 3.074 0
M  V30 4853 H 480.833 4.98884 5.90199 0
M  V30 4854 H 479.178 4.48129 5.3123 0
M  V30 4855 H 482.369 2.79077 3.75811 0
M  V30 4856 H 482.542 4.06322 5.04783 0
M  V30 4857 N 475.948 -1.35272 0.808662 0
M  V30 4858 C 477.225 -1.93077 0.313181 0
M  V30 4859 C 477.605 -1.73847 -1.19752 0
M  V30 4860 O 476.953 -1.1087 -1.998 0
M  V30 4861 C 477.163 -3.41347 0.726859 0
M  V30 4862 C 478.511 -4.18493 0.717532 0
M  V30 4863 O 479.535 -3.4987 0.668535 0
M  V30 4864 O 478.394 -5.40937 0.777779 0
M  V30 4865 H 475.488 -0.822885 0.0824018 0
M  V30 4866 H 478.034 -1.44335 0.892499 0
M  V30 4867 H 476.806 -3.49082 1.76797 0
M  V30 4868 H 476.429 -3.97411 0.122461 0
M  V30 4869 N 477.426 -0.562348 -1.47226 0
M  V30 4870 C 478.842 -0.222492 -1.58042 0
M  V30 4871 C 479.042 1.27505 -1.56028 0
M  V30 4872 O 478.098 2.05555 -1.46641 0
M  V30 4873 C 479.411 -0.853694 -2.88327 0
M  V30 4874 C 480.959 -0.825397 -3.01921 0
M  V30 4875 C 481.434 -1.43576 -4.34914 0
M  V30 4876 N 482.925 -1.39918 -4.41562 0
M  V30 4877 C 483.66 -1.84103 -5.43041 0
M  V30 4878 N 483.156 -2.36167 -6.51304 0
M  V30 4879 N 484.949 -1.75142 -5.34118 0
M  V30 4880 H 477.1 -1.53525 -1.46778 0
M  V30 4881 H 479.363 -0.640527 -0.698877 0
M  V30 4882 H 479.069 -1.90635 -2.95552 0
M  V30 4883 H 478.943 -0.34977 -3.75575 0
M  V30 4884 H 481.33 0.218583 -2.94289 0
M  V30 4885 H 481.411 -1.36713 -2.16202 0
M  V30 4886 H 481.055 -2.47884 -4.43301 0
M  V30 4887 H 480.985 -0.869427 -5.19373 0
M  V30 4888 H 483.476 -1.0184 -3.63919 0
M  V30 4889 H 483.789 -2.67793 -7.24919 0
M  V30 4890 H 482.134 -2.40181 -6.52179 0
M  V30 4891 H 485.325 -1.34241 -4.48439 0
M  V30 4892 H 485.498 -2.09895 -6.13065 0
M  V30 4893 N 478.904 1.54736 -0.299062 0
M  V30 4894 C 480.129 2.04975 0.316254 0
M  V30 4895 C 480.554 1.17501 1.46885 0
M  V30 4896 O 479.912 0.178678 1.80417 0
M  V30 4897 C 479.96 3.52672 0.751997 0
M  V30 4898 O 479.064 3.68226 1.85697 0
M  V30 4899 H 478.405 0.661126 0.0617175 0
M  V30 4900 H 480.935 1.99805 -0.440341 0
M  V30 4901 H 480.945 3.94488 1.04133 0
M  V30 4902 H 479.62 4.158 -0.0911482 0
M  V30 4903 H 478.197 3.38316 1.56834 0
M  V30 4904 N 480.382 0.0267497 1.57577 0
M  V30 4905 C 481.631 -0.651736 1.9088 0
M  V30 4906 C 481.944 -1.73427 0.904576 0
M  V30 4907 O 483.15 -2.46923 1.12877 0
M  V30 4908 C 481.606 -1.21048 3.38933 0
M  V30 4909 C 481.214 -0.161362 4.47709 0
M  V30 4910 C 482.958 -1.86562 3.81307 0
M  V30 4911 C 480.865 -0.731611 5.86857 0
M  V30 4912 H 479.795 -0.247198 0.712326 0
M  V30 4913 H 482.446 0.0916641 1.83271 0
M  V30 4914 H 480.828 -2.00542 3.41466 0
M  V30 4915 H 482.002 0.61094 4.56732 0
M  V30 4916 H 480.317 0.394877 4.14523 0
M  V30 4917 H 482.914 -2.30178 4.8262 0
M  V30 4918 H 483.257 -2.70735 3.16241 0
M  V30 4919 H 483.79 -1.13762 3.81186 0
M  V30 4920 H 480.529 0.0719329 6.55461 0
M  V30 4921 H 480.049 -1.47245 5.81445 0
M  V30 4922 H 481.728 -1.22208 6.35354 0
M  V30 4923 N 481.861 -1.55662 -0.24637 0
M  V30 4924 C 483.109 -1.77168 -0.972411 0
M  V30 4925 C 483.43 -0.590827 -1.85834 0
M  V30 4926 O 482.7 0.393365 -1.9191 0
M  V30 4927 H 481.28 -0.653405 -0.362038 0
M  V30 4928 H 483.942 -1.93101 -0.264189 0
M  V30 4929 H 483.038 -2.68335 -1.59382 0
M  V30 4930 N 483.339 0.512053 -1.4905 0
M  V30 4931 C 484.564 1.2959 -1.6193 0
M  V30 4932 C 484.989 1.85906 -0.286454 0
M  V30 4933 O 484.347 1.65312 0.744426 0
M  V30 4934 C 484.395 2.40987 -2.68249 0
M  V30 4935 O 483.499 3.44531 -2.26654 0
M  V30 4936 H 482.84 0.383053 -0.542371 0
M  V30 4937 H 485.37 0.614231 -1.95162 0
M  V30 4938 H 485.38 2.86913 -2.90078 0
M  V30 4939 H 484.055 1.99361 -3.65004 0
M  V30 4940 H 482.632 3.046 -2.15112 0
M  V30 4941 N 484.817 1.37938 0.762283 0
M  V30 4942 C 486.063 1.33866 1.52341 0
M  V30 4943 C 486.396 -0.0738961 1.94059 0
M  V30 4944 O 485.671 -1.03326 1.64785 0
M  V30 4945 C 485.954 2.28644 2.78197 0
M  V30 4946 C 485.807 3.78722 2.42672 0
M  V30 4947 C 487.126 2.21702 3.80179 0
M  V30 4948 H 484.245 0.487593 0.55265 0
M  V30 4949 H 486.887 1.68717 0.873767 0
M  V30 4950 H 485.037 1.99055 3.33631 0
M  V30 4951 H 486.709 4.18948 1.93081 0
M  V30 4952 H 484.952 3.96827 1.75244 0
M  V30 4953 H 485.623 4.40486 3.3268 0
M  V30 4954 H 488.099 2.47805 3.34263 0
M  V30 4955 H 486.975 2.90143 4.65949 0
M  V30 4956 H 487.236 1.21301 4.25133 0
M  V30 4957 N 486.295 -0.989507 1.22664 0
M  V30 4958 C 487.543 -1.72612 1.05117 0
M  V30 4959 C 487.864 -1.90552 -0.414131 0
M  V30 4960 O 487.134 -1.4676 -1.29762 0
M  V30 4961 H 485.714 -0.639555 0.385977 0
M  V30 4962 H 488.376 -1.19158 1.54232 0
M  V30 4963 H 487.472 -2.71926 1.53175 0
M  V30 4964 N 487.773 -1.03688 -1.18687 0
M  V30 4965 C 489.189 -0.755413 -1.4059 0
M  V30 4966 C 489.389 0.656659 -1.905 0
M  V30 4967 O 488.445 1.42144 -2.08689 0
M  V30 4968 C 489.758 -1.7983 -2.41001 0
M  V30 4969 C 491.306 -1.81877 -2.54735 0
M  V30 4970 C 491.781 -2.85148 -3.58406 0
M  V30 4971 N 493.272 -2.84015 -3.6591 0
M  V30 4972 C 494.007 -3.60573 -4.45841 0
M  V30 4973 N 493.503 -4.46871 -5.29413 0
M  V30 4974 N 495.296 -3.49079 -4.40568 0
M  V30 4975 H 487.447 -1.94818 -0.846148 0
M  V30 4976 H 489.71 -0.842727 -0.434184 0
M  V30 4977 H 489.416 -2.81097 -2.1137 0
M  V30 4978 H 489.29 -1.62727 -3.40294 0
M  V30 4979 H 491.677 -0.812836 -2.83685 0
M  V30 4980 H 491.758 -2.03057 -1.55568 0
M  V30 4981 H 491.402 -3.85918 -3.30197 0
M  V30 4982 H 491.332 -2.61224 -4.57241 0
M  V30 4983 H 493.823 -2.21431 -3.0623 0
M  V30 4984 H 494.136 -5.02007 -5.87545 0
M  V30 4985 H 492.481 -4.5094 -5.28846 0
M  V30 4986 H 495.672 -2.81066 -3.74325 0
M  V30 4987 H 495.845 -4.08994 -5.02621 0
M  V30 4988 N 489.251 1.34841 -0.815825 0
M  V30 4989 C 490.497 1.99219 -0.410288 0
M  V30 4990 C 490.852 1.63532 1.01366 0
M  V30 4991 O 490.145 0.893093 1.69512 0
M  V30 4992 C 490.339 3.53273 -0.541541 0
M  V30 4993 C 490.168 4.03927 -1.9767 0
M  V30 4994 C 488.938 4.32852 -2.60706 0
M  V30 4995 C 491.136 4.21808 -2.9425 0
M  V30 4996 N 489.118 4.69494 -3.95536 0
M  V30 4997 C 490.489 4.6155 -4.13971 0
M  V30 4998 C 492.544 4.04038 -2.9096 0
M  V30 4999 C 491.247 4.85381 -5.30847 0
M  V30 5000 C 493.273 4.29031 -4.07046 0
M  V30 5001 C 492.635 4.69054 -5.25517 0
M  V30 5002 H 488.734 0.756494 -0.198094 0
M  V30 5003 H 491.318 1.63379 -1.05902 0
M  V30 5004 H 489.489 3.88323 0.0772544 0
M  V30 5005 H 491.221 4.04551 -0.109694 0
M  V30 5006 H 487.976 4.23503 -2.11995 0
M  V30 5007 H 488.4 4.92061 -4.64979 0
M  V30 5008 H 493.042 3.7223 -2.00512 0
M  V30 5009 H 490.76 5.16059 -6.21859 0
M  V30 5010 H 494.346 4.16826 -4.05891 0
M  V30 5011 H 493.226 4.88014 -6.1385 0
M  V30 5012 N 490.729 0.570148 1.46925 0
M  V30 5013 C 491.975 0.0510284 2.02736 0
M  V30 5014 C 492.308 -1.3006 1.44215 0
M  V30 5015 O 491.583 -1.84932 0.602521 0
M  V30 5016 C 491.866 -0.028215 3.60089 0
M  V30 5017 C 491.719 1.35142 4.29018 0
M  V30 5018 C 493.038 -0.735181 4.33916 0
M  V30 5019 H 490.157 0.0200178 0.736728 0
M  V30 5020 H 492.799 0.73493 1.75211 0
M  V30 5021 H 490.949 -0.610648 3.83671 0
M  V30 5022 H 492.621 1.97806 4.16738 0
M  V30 5023 H 490.864 1.9226 3.88868 0
M  V30 5024 H 491.535 1.24857 5.37694 0
M  V30 5025 H 494.011 -0.240519 4.15404 0
M  V30 5026 H 492.887 -0.759622 5.43618 0
M  V30 5027 H 493.148 -1.79397 4.04066 0
M  V30 5028 N 492.207 -1.54576 0.307264 0
M  V30 5029 C 493.17 -2.22423 -0.553224 0
M  V30 5030 C 494.17 -1.21231 -1.05639 0
M  V30 5031 O 495.36 -1.45923 -0.951419 0
M  V30 5032 C 492.492 -2.91552 -1.76664 0
M  V30 5033 H 493.685 -2.99874 0.0396484 0
M  V30 5034 H 491.238 -1.56192 0.0581629 0
M  V30 5035 H 491.973 -2.18196 -2.39918 0
M  V30 5036 H 491.758 -3.65738 -1.41343 0
M  V30 5037 H 493.248 -3.43292 -2.37783 0
M  V30 5038 N 493.685 -0.035106 -1.57561 0
M  V30 5039 C 494.931 0.64318 -1.92331 0
M  V30 5040 C 495.264 1.71434 -0.912368 0
M  V30 5041 O 494.539 1.94395 0.0640303 0
M  V30 5042 C 494.822 1.25411 -3.37556 0
M  V30 5043 C 494.675 0.192109 -4.4939 0
M  V30 5044 C 495.994 2.17041 -3.82859 0
M  V30 5045 H 493.113 0.232341 -0.699419 0
M  V30 5046 H 495.755 -0.0935889 -1.89769 0
M  V30 5047 H 493.905 1.88205 -3.39869 0
M  V30 5048 H 495.577 -0.438849 -4.59208 0
M  V30 5049 H 493.82 -0.481725 -4.31117 0
M  V30 5050 H 494.491 0.659292 -5.48049 0
M  V30 5051 H 496.967 1.64228 -3.8232 0
M  V30 5052 H 495.843 2.56738 -4.85157 0
M  V30 5053 H 496.104 3.06401 -3.18702 0
M  V30 5054 N 495.163 1.55791 0.238111 0
M  V30 5055 C 496.409 1.78297 0.966337 0
M  V30 5056 C 496.742 0.601903 1.84637 0
M  V30 5057 O 496.017 -0.399499 1.90353 0
M  V30 5058 C 496.3 3.10758 1.81939 0
M  V30 5059 C 496.153 4.39283 0.966958 0
M  V30 5060 C 497.472 3.39519 2.80027 0
M  V30 5061 H 494.591 0.648654 0.349882 0
M  V30 5062 H 497.233 1.88525 0.236253 0
M  V30 5063 H 495.383 3.02168 2.44185 0
M  V30 5064 H 497.055 4.59873 0.362514 0
M  V30 5065 H 495.298 4.32948 0.271669 0
M  V30 5066 H 495.969 5.28368 1.59784 0
M  V30 5067 H 498.445 3.48128 2.27917 0
M  V30 5068 H 497.321 4.33402 3.36829 0
M  V30 5069 H 497.582 2.60864 3.56934 0
M  V30 5070 N 496.642 -0.504142 1.49319 0
M  V30 5071 C 497.605 -1.5883 1.65244 0
M  V30 5072 C 498.605 -1.52009 0.524386 0
M  V30 5073 O 499.795 -1.55218 0.79077 0
M  V30 5074 C 496.927 -2.98481 1.64687 0
M  V30 5075 H 498.12 -1.4604 2.61939 0
M  V30 5076 H 495.673 -0.728144 1.38303 0
M  V30 5077 H 496.408 -3.16751 0.695644 0
M  V30 5078 H 496.193 -3.0484 2.46607 0
M  V30 5079 H 497.683 -3.77256 1.79075 0
M  V30 5080 N 498.12 -1.38341 -0.754957 0
M  V30 5081 C 499.366 -1.34672 -1.51628 0
M  V30 5082 C 499.699 0.0636036 -1.94096 0
M  V30 5083 O 498.974 1.0245 -1.6533 0
M  V30 5084 C 499.257 -2.30116 -2.76981 0
M  V30 5085 C 499.11 -3.80003 -2.4066 0
M  V30 5086 C 500.429 -2.23715 -3.78998 0
M  V30 5087 H 497.548 -0.490517 -0.550056 0
M  V30 5088 H 500.19 -1.69178 -0.864807 0
M  V30 5089 H 498.34 -2.00821 -3.3257 0
M  V30 5090 H 500.012 -4.19966 -1.90856 0
M  V30 5091 H 498.255 -3.97751 -1.73137 0
M  V30 5092 H 498.926 -4.42244 -3.30339 0
M  V30 5093 H 501.402 -2.49574 -3.32945 0
M  V30 5094 H 500.278 -2.9261 -4.64403 0
M  V30 5095 H 500.539 -1.23554 -4.24484 0
M  V30 5096 N 499.598 0.982988 -1.23187 0
M  V30 5097 C 500.528 2.09301 -1.03515 0
M  V30 5098 C 501.509 1.70035 0.0471136 0
M  V30 5099 O 502.694 1.93847 -0.117029 0
M  V30 5100 C 499.824 3.4167 -0.622791 0
M  V30 5101 C 498.778 3.94828 -1.65211 0
M  V30 5102 C 498.104 5.23362 -1.09527 0
M  V30 5103 C 499.404 4.2439 -3.04451 0
M  V30 5104 H 501.098 2.26016 -1.96359 0
M  V30 5105 H 498.644 1.08611 -0.945501 0
M  V30 5106 H 500.597 4.18746 -0.472233 0
M  V30 5107 H 499.321 3.24811 0.341329 0
M  V30 5108 H 497.98 3.19895 -1.79061 0
M  V30 5109 H 497.628 5.02852 -0.122211 0
M  V30 5110 H 497.328 5.59895 -1.783 0
M  V30 5111 H 498.852 6.03062 -0.956511 0
M  V30 5112 H 500.266 4.92225 -2.93917 0
M  V30 5113 H 498.663 4.72118 -3.70438 0
M  V30 5114 H 499.733 3.31765 -3.53638 0
M  V30 5115 N 501.076 1.04316 1.18135 0
M  V30 5116 C 502.039 0.640794 2.2006 0
M  V30 5117 C 503.039 -0.303124 1.57917 0
M  V30 5118 O 504.229 -0.0881855 1.73977 0
M  V30 5119 C 501.361 -0.060148 3.40847 0
M  V30 5120 H 502.554 1.54281 2.57172 0
M  V30 5121 H 500.107 0.836004 1.32063 0
M  V30 5122 H 500.842 -0.975845 3.0927 0
M  V30 5123 H 500.627 0.618319 3.87194 0
M  V30 5124 H 502.117 -0.328082 4.16309 0
M  V30 5125 N 502.554 -1.34406 0.822964 0
M  V30 5126 C 503.8 -1.98578 0.411666 0
M  V30 5127 C 504.133 -1.65093 -1.02264 0
M  V30 5128 O 503.408 -0.92258 -1.71227 0
M  V30 5129 C 503.691 -3.54823 0.614235 0
M  V30 5130 C 503.544 -3.9805 2.09466 0
M  V30 5131 C 504.863 -4.40071 0.050221 0
M  V30 5132 H 501.982 -0.721355 0.151047 0
M  V30 5133 H 504.624 -1.59301 1.03554 0
M  V30 5134 H 502.774 -3.88411 0.0831774 0
M  V30 5135 H 504.446 -3.74795 2.68936 0
M  V30 5136 H 502.689 -3.4836 2.5851 0
M  V30 5137 H 503.36 -5.06819 2.18721 0
M  V30 5138 H 505.836 -4.13037 0.503953 0
M  V30 5139 H 504.712 -5.48452 0.221759 0
M  V30 5140 H 504.973 -4.29576 -1.04482 0
M  V30 5141 N 504.032 -0.577932 -1.46621 0
M  V30 5142 C 504.962 0.145917 -2.33044 0
M  V30 5143 C 505.943 0.888412 -1.45056 0
M  V30 5144 O 507.128 0.864812 -1.73881 0
M  V30 5145 C 504.258 1.16322 -3.27241 0
M  V30 5146 C 503.212 0.535868 -4.24632 0
M  V30 5147 C 502.538 1.65929 -5.08303 0
M  V30 5148 C 503.838 -0.523861 -5.19666 0
M  V30 5149 H 505.532 -0.575636 -2.93814 0
M  V30 5150 H 503.078 -0.278272 -1.41286 0
M  V30 5151 H 505.031 1.67793 -3.86553 0
M  V30 5152 H 503.755 1.91498 -2.64567 0
M  V30 5153 H 502.414 0.0422759 -3.66576 0
M  V30 5154 H 502.062 2.40061 -4.42018 0
M  V30 5155 H 501.762 1.2452 -5.74255 0
M  V30 5156 H 503.286 2.17686 -5.70478 0
M  V30 5157 H 504.7 -0.0944059 -5.73222 0
M  V30 5158 H 503.097 -0.858 -5.93935 0
M  V30 5159 H 504.167 -1.41197 -4.63887 0
M  V30 5160 N 505.51 1.54411 -0.315457 0
M  V30 5161 C 506.738 2.04833 0.291738 0
M  V30 5162 C 507.153 1.19203 1.46411 0
M  V30 5163 O 506.51 0.220867 1.81159 0
M  V30 5164 C 506.561 3.53969 0.73404 0
M  V30 5165 O 506.282 4.36346 -0.391682 0
M  V30 5166 C 507.783 4.2045 1.40489 0
M  V30 5167 H 505.003 0.668195 0.0612947 0
M  V30 5168 H 507.547 1.99276 -0.45929 0
M  V30 5169 H 505.702 3.5984 1.43506 0
M  V30 5170 H 506.116 5.24481 -0.0447088 0
M  V30 5171 H 507.59 5.26278 1.66539 0
M  V30 5172 H 508.067 3.71067 2.3496 0
M  V30 5173 H 508.673 4.18694 0.746662 0
M  V30 5174 N 506.988 0.0434614 1.5754 0
M  V30 5175 C 508.234 -0.632971 1.92669 0
M  V30 5176 C 508.567 -1.70947 0.921446 0
M  V30 5177 O 507.842 -1.94426 -0.0537202 0
M  V30 5178 C 508.125 -1.23619 3.38216 0
M  V30 5179 C 507.978 -0.168274 4.49485 0
M  V30 5180 C 509.297 -2.15008 3.84005 0
M  V30 5181 H 506.416 -0.228629 0.700641 0
M  V30 5182 H 509.058 0.103651 1.89717 0
M  V30 5183 H 507.208 -1.864 3.40863 0
M  V30 5184 H 508.88 0.463196 4.58969 0
M  V30 5185 H 507.123 0.504581 4.30855 0
M  V30 5186 H 507.794 -0.630218 5.48391 0
M  V30 5187 H 510.27 -1.62198 3.83185 0
M  V30 5188 H 509.146 -2.54161 4.86511 0
M  V30 5189 H 509.407 -3.04707 3.20322 0
M  V30 5190 N 508.466 -1.55915 -0.229846 0
M  V30 5191 C 509.712 -1.78807 -0.956868 0
M  V30 5192 C 510.045 -0.611687 -1.84315 0
M  V30 5193 O 509.32 0.389398 -1.90562 0
M  V30 5194 C 509.603 -3.11718 -1.80288 0
M  V30 5195 C 509.456 -4.3979 -0.943649 0
M  V30 5196 C 510.775 -3.40999 -2.78222 0
M  V30 5197 H 507.894 -0.6505 -0.346437 0
M  V30 5198 H 510.536 -1.88648 -0.226252 0
M  V30 5199 H 508.686 -3.03459 -2.42579 0
M  V30 5200 H 510.358 -4.60059 -0.338121 0
M  V30 5201 H 508.601 -4.33086 -0.248705 0
M  V30 5202 H 509.272 -5.29208 -1.5698 0
M  V30 5203 H 511.748 -3.49332 -2.26067 0
M  V30 5204 H 510.624 -4.35183 -3.34526 0
M  V30 5205 H 510.885 -2.62754 -3.55546 0
M  V30 5206 N 509.944 0.496216 -1.49584 0
M  V30 5207 C 511.19 1.25189 -1.59548 0
M  V30 5208 C 511.523 1.9212 -0.283466 0
M  V30 5209 O 510.798 1.80947 0.713324 0
M  V30 5210 C 511.081 2.31516 -2.75812 0
M  V30 5211 C 510.934 1.69054 -4.16822 0
M  V30 5212 C 512.253 3.3304 -2.87702 0
M  V30 5213 H 509.372 0.45379 -0.580727 0
M  V30 5214 H 512.014 0.549327 -1.81886 0
M  V30 5215 H 510.164 2.91438 -2.56897 0
M  V30 5216 H 511.836 1.12923 -4.47265 0
M  V30 5217 H 510.079 0.994485 -4.22247 0
M  V30 5218 H 510.75 2.462 -4.94054 0
M  V30 5219 H 513.226 2.83114 -3.04936 0
M  V30 5220 H 512.102 4.04794 -3.7072 0
M  V30 5221 H 512.363 3.95655 -1.97255 0
M  V30 5222 N 511.423 1.38739 0.74761 0
M  V30 5223 C 512.651 1.38521 1.53686 0
M  V30 5224 C 513.066 -0.0235129 1.88785 0
M  V30 5225 O 512.423 -0.991662 1.53207 0
M  V30 5226 C 512.474 2.24641 2.83229 0
M  V30 5227 O 512.195 3.60026 2.49625 0
M  V30 5228 C 513.696 2.32669 3.77333 0
M  V30 5229 H 510.916 0.473589 0.475347 0
M  V30 5230 H 513.46 1.82395 0.924786 0
M  V30 5231 H 511.615 1.84213 3.40799 0
M  V30 5232 H 512.029 4.05435 3.3275 0
M  V30 5233 H 513.503 2.97201 4.65162 0
M  V30 5234 H 513.98 1.3421 4.18192 0
M  V30 5235 H 514.586 2.73512 3.25685 0
M  V30 5236 N 512.901 -0.976442 1.23707 0
M  V30 5237 C 514.15 -1.71254 1.06559 0
M  V30 5238 C 514.463 -1.91528 -0.397024 0
M  V30 5239 O 515.669 -2.62625 -0.688518 0
M  V30 5240 C 514.125 -3.08207 1.8584 0
M  V30 5241 C 513.733 -2.95806 3.36456 0
M  V30 5242 C 515.477 -3.85749 1.77194 0
M  V30 5243 C 513.384 -4.28015 4.08114 0
M  V30 5244 H 512.314 -0.642171 0.395136 0
M  V30 5245 H 514.965 -1.08877 1.4771 0
M  V30 5246 H 513.347 -3.71363 1.37498 0
M  V30 5247 H 514.521 -2.41716 3.92314 0
M  V30 5248 H 512.836 -2.31736 3.45959 0
M  V30 5249 H 515.433 -4.83633 2.28041 0
M  V30 5250 H 515.776 -4.09752 0.735477 0
M  V30 5251 H 516.309 -3.29303 2.23169 0
M  V30 5252 H 513.048 -4.09208 5.12083 0
M  V30 5253 H 512.568 -4.81955 3.57043 0
M  V30 5254 H 514.247 -4.96681 4.14629 0
M  V30 5255 N 514.379 -1.04941 -1.1758 0
M  V30 5256 C 515.342 -0.652456 -2.19717 0
M  V30 5257 C 516.342 0.294745 -1.58076 0
M  V30 5258 O 517.532 0.0789579 -1.74021 0
M  V30 5259 C 514.664 0.0420712 -3.40874 0
M  V30 5260 H 515.857 -1.55642 -2.5635 0
M  V30 5261 H 513.41 -0.842995 -1.31618 0
M  V30 5262 H 514.145 0.95943 -3.09783 0
M  V30 5263 H 513.93 -0.638844 -3.86861 0
M  V30 5264 H 515.42 0.306 -4.16477 0
M  V30 5265 N 515.857 1.33968 -0.830081 0
M  V30 5266 C 517.106 1.97323 -0.417928 0
M  V30 5267 C 517.419 1.6652 1.02618 0
M  V30 5268 O 518.625 2.2342 1.54259 0
M  V30 5269 C 517.081 3.53099 -0.696359 0
M  V30 5270 C 516.689 3.92788 -2.15457 0
M  V30 5271 C 518.433 4.23049 -0.350724 0
M  V30 5272 C 516.34 5.41506 -2.37751 0
M  V30 5273 H 515.27 0.738409 -0.152541 0
M  V30 5274 H 517.921 1.52711 -1.01744 0
M  V30 5275 H 516.303 3.95991 -0.0265904 0
M  V30 5276 H 517.477 3.6098 -2.86408 0
M  V30 5277 H 515.792 3.35795 -2.46232 0
M  V30 5278 H 518.389 5.32403 -0.495036 0
M  V30 5279 H 518.732 4.10279 0.705476 0
M  V30 5280 H 519.265 3.85657 -0.975362 0
M  V30 5281 H 516.004 5.5927 -3.41903 0
M  V30 5282 H 515.524 5.74804 -1.7135 0
M  V30 5283 H 517.203 6.0828 -2.20465 0
M  V30 5284 N 517.335 0.585699 1.46312 0
M  V30 5285 C 518.283 -0.158577 2.32059 0
M  V30 5286 C 519.277 -0.881427 1.44662 0
M  V30 5287 O 520.483 -0.799476 1.61271 0
M  V30 5288 H 516.858 -0.0700066 0.748734 0
M  V30 5289 H 518.829 0.583383 2.92642 0
M  V30 5290 C 517.578 -1.15701 3.27885 0
M  V30 5291 H 516.901 -0.610215 3.95116 0
M  V30 5292 H 518.341 -1.64812 3.90657 0
M  V30 5293 C 516.8 -2.21951 2.53455 0
M  V30 5294 O 517.33 -3.29352 2.29978 0
M  V30 5295 N 515.536 -1.9664 2.13965 0
M  V30 5296 H 515.083 -1.09309 2.33258 0
M  V30 5297 H 515.041 -2.6794 1.64485 0
M  V30 5298 N 518.813 -1.54241 0.323641 0
M  V30 5299 C 520.041 -2.04985 -0.280871 0
M  V30 5300 C 520.456 -1.19978 -1.45777 0
M  V30 5301 O 519.813 -0.230471 -1.81039 0
M  V30 5302 C 519.864 -3.54353 -0.715258 0
M  V30 5303 O 519.585 -4.36132 0.414817 0
M  V30 5304 C 521.086 -4.21189 -1.38257 0
M  V30 5305 H 518.306 -0.66851 -0.0577502 0
M  V30 5306 H 520.85 -1.99029 0.469852 0
M  V30 5307 H 519.005 -3.60596 -1.41596 0
M  V30 5308 H 519.419 -5.2445 0.0725227 0
M  V30 5309 H 520.893 -5.27154 -1.63745 0
M  V30 5310 H 521.37 -3.72307 -2.32989 0
M  V30 5311 H 521.976 -4.19085 -0.724447 0
M  V30 5312 N 520.291 -0.0518155 -1.57515 0
M  V30 5313 C 521.538 0.621823 -1.92716 0
M  V30 5314 C 521.866 1.70813 -0.930229 0
M  V30 5315 O 521.121 1.95616 0.0573708 0
M  V30 5316 C 521.42 1.25607 -3.34601 0
M  V30 5317 C 521.086 0.297901 -4.49915 0
M  V30 5318 C 519.748 0.034243 -4.81188 0
M  V30 5319 C 522.1 -0.358738 -5.19964 0
M  V30 5320 C 519.428 -0.893479 -5.79857 0
M  V30 5321 C 521.78 -1.27466 -6.19625 0
M  V30 5322 C 520.444 -1.54698 -6.49326 0
M  V30 5323 H 519.714 0.227541 -0.705199 0
M  V30 5324 H 522.361 -0.118432 -1.91133 0
M  V30 5325 H 520.666 2.07161 -3.32553 0
M  V30 5326 H 522.363 1.78424 -3.59118 0
M  V30 5327 H 518.953 0.513581 -4.25512 0
M  V30 5328 H 523.137 -0.168133 -4.96015 0
M  V30 5329 H 518.393 -1.11193 -6.01204 0
M  V30 5330 H 522.567 -1.78953 -6.73015 0
M  V30 5331 H 520.194 -2.26748 -7.25596 0
M  V30 5332 N 521.769 1.56035 0.221574 0
M  V30 5333 C 523.017 1.78693 0.944102 0
M  V30 5334 C 523.338 0.620317 1.8487 0
M  V30 5335 O 522.608 -0.362784 1.92512 0
M  V30 5336 H 521.188 0.659082 0.351597 0
M  V30 5337 H 523.85 1.93497 0.233435 0
M  V30 5338 H 522.946 2.70837 1.55093 0
M  V30 5339 N 523.247 -0.488276 1.49845 0
M  V30 5340 C 524.495 -1.23911 1.59657 0
M  V30 5341 C 524.816 -1.92816 0.291005 0
M  V30 5342 O 524.086 -1.83328 -0.690485 0
M  V30 5343 H 522.666 -0.460357 0.588286 0
M  V30 5344 H 525.328 -0.564794 1.86537 0
M  V30 5345 H 524.424 -1.99625 2.39909 0
M  V30 5346 N 524.725 -1.39134 -0.740242 0
M  V30 5347 C 525.974 -1.35384 -1.49512 0
M  V30 5348 C 526.287 0.04919 -1.95538 0
M  V30 5349 O 527.493 0.209257 -2.70692 0
M  V30 5350 C 525.949 -2.37812 -2.70136 0
M  V30 5351 C 525.557 -3.83804 -2.31081 0
M  V30 5352 C 527.301 -2.4313 -3.47977 0
M  V30 5353 C 525.208 -4.77886 -3.48395 0
M  V30 5354 H 524.138 -0.503297 -0.561434 0
M  V30 5355 H 526.789 -1.64754 -0.807974 0
M  V30 5356 H 525.171 -2.01505 -3.40899 0
M  V30 5357 H 526.345 -4.29123 -1.67898 0
M  V30 5358 H 524.66 -3.81732 -1.66343 0
M  V30 5359 H 527.257 -3.10614 -4.35228 0
M  V30 5360 H 527.6 -1.45423 -3.90074 0
M  V30 5361 H 528.133 -2.78304 -2.84239 0
M  V30 5362 H 524.872 -5.76836 -3.11353 0
M  V30 5363 H 524.392 -4.3725 -4.10576 0
M  V30 5364 H 526.071 -4.96538 -4.148 0
M  V30 5365 N 526.204 0.969867 -1.24223 0
M  V30 5366 C 527.432 1.74756 -1.10761 0
M  V30 5367 C 527.847 1.85713 0.340041 0
M  V30 5368 O 527.204 1.34389 1.23474 0
M  V30 5369 C 527.255 3.16915 -1.73917 0
M  V30 5370 O 526.976 3.06511 -3.13021 0
M  V30 5371 C 528.477 4.11032 -1.66036 0
M  V30 5372 H 525.697 0.548092 -0.387087 0
M  V30 5373 H 528.241 1.2178 -1.64286 0
M  V30 5374 H 526.396 3.66884 -1.244 0
M  V30 5375 H 526.81 3.96079 -3.43834 0
M  V30 5376 H 528.284 5.08446 -2.14911 0
M  V30 5377 H 528.761 4.34785 -0.621159 0
M  V30 5378 H 529.367 3.66972 -2.14969 0
M  V30 5379 N 527.682 1.05563 1.17022 0
M  V30 5380 C 529.098 0.777684 1.39371 0
M  V30 5381 C 529.298 -0.626269 1.91521 0
M  V30 5382 O 528.354 -1.38806 2.10924 0
M  V30 5383 C 529.667 1.83642 2.3811 0
M  V30 5384 C 531.215 1.85907 2.51809 0
M  V30 5385 C 531.69 2.90813 3.53824 0
M  V30 5386 N 533.181 2.898 3.61345 0
M  V30 5387 C 533.916 3.6762 4.40049 0
M  V30 5388 N 533.412 4.55237 5.22237 0
M  V30 5389 N 535.205 3.56044 4.34959 0
M  V30 5390 H 527.356 1.9614 0.815047 0
M  V30 5391 H 529.619 0.849527 0.420722 0
M  V30 5392 H 529.325 2.84425 2.06871 0
M  V30 5393 H 529.199 1.6812 3.37662 0
M  V30 5394 H 531.586 0.857865 2.82356 0
M  V30 5395 H 531.667 2.05506 1.52318 0
M  V30 5396 H 531.311 3.91122 3.24015 0
M  V30 5397 H 531.241 2.68465 4.53028 0
M  V30 5398 H 533.732 2.26274 3.02669 0
M  V30 5399 H 534.045 5.11291 5.79484 0
M  V30 5400 H 532.39 4.59296 5.21605 0
M  V30 5401 H 535.581 2.86986 3.69806 0
M  V30 5402 H 535.754 4.16938 4.96051 0
M  V30 5403 N 529.16 -1.33526 0.837174 0
M  V30 5404 C 530.437 -1.92369 0.354065 0
M  V30 5405 C 530.817 -1.76348 -1.16038 0
M  V30 5406 O 530.165 -1.15083 -1.97403 0
M  V30 5407 C 530.375 -3.39728 0.799101 0
M  V30 5408 C 531.723 -4.16877 0.806139 0
M  V30 5409 O 532.747 -3.48373 0.742597 0
M  V30 5410 O 531.606 -5.39166 0.892345 0
M  V30 5411 H 528.7 -0.820952 0.0998378 0
M  V30 5412 H 531.246 -1.42409 0.922913 0
M  V30 5413 H 530.018 -3.45254 1.84162 0
M  V30 5414 H 529.641 -3.97062 0.206731 0
M  V30 5415 N 530.638 -0.59345 -1.46 0
M  V30 5416 C 531.884 -0.0832754 -2.02629 0
M  V30 5417 C 532.217 1.27749 -1.46266 0
M  V30 5418 O 531.492 1.8395 -0.631866 0
M  V30 5419 C 531.775 -0.0290756 -3.60088 0
M  V30 5420 C 531.628 -1.41951 -4.26814 0
M  V30 5421 C 532.947 0.666055 -4.35031 0
M  V30 5422 H 530.066 -0.031736 -0.736316 0
M  V30 5423 H 532.708 -0.762711 -1.74019 0
M  V30 5424 H 530.858 0.549532 -3.84594 0
M  V30 5425 H 532.53 -2.04411 -4.13538 0
M  V30 5426 H 530.773 -1.98422 -3.8576 0
M  V30 5427 H 531.444 -1.33395 -5.3564 0
M  V30 5428 H 533.92 0.174401 -4.15734 0
M  V30 5429 H 532.796 0.673041 -5.44758 0
M  V30 5430 H 533.057 1.72946 -4.06869 0
M  V30 5431 N 532.116 1.54067 -0.331816 0
M  V30 5432 C 533.048 2.22139 0.564538 0
M  V30 5433 C 534.061 1.22408 1.07332 0
M  V30 5434 O 535.25 1.4883 0.985481 0
M  V30 5435 C 532.35 2.87876 1.78831 0
M  V30 5436 C 531.523 4.13817 1.41682 0
M  V30 5437 C 530.582 4.63072 2.49901 0
M  V30 5438 O 529.608 5.27562 2.13699 0
M  V30 5439 N 530.81 4.38001 3.80967 0
M  V30 5440 H 533.575 2.99694 -0.0183736 0
M  V30 5441 H 531.136 1.61153 -0.155396 0
M  V30 5442 H 533.128 3.17747 2.50637 0
M  V30 5443 H 531.698 2.13977 2.27887 0
M  V30 5444 H 530.918 3.9062 0.530044 0
M  V30 5445 H 532.206 4.95762 1.14443 0
M  V30 5446 H 531.604 3.864 4.13173 0
M  V30 5447 H 530.161 4.72507 4.48977 0
M  V30 5448 N 533.594 0.0601682 1.57485 0
M  V30 5449 C 534.84 -0.612501 1.93329 0
M  V30 5450 C 535.173 -1.6996 0.939526 0
M  V30 5451 O 534.448 -1.94472 -0.0330957 0
M  V30 5452 C 534.731 -1.20025 3.39508 0
M  V30 5453 C 534.584 -0.12059 4.49638 0
M  V30 5454 C 535.903 -2.10923 3.86264 0
M  V30 5455 H 533.022 -0.221185 0.703027 0
M  V30 5456 H 535.664 0.123768 1.89596 0
M  V30 5457 H 533.814 -1.82774 3.42821 0
M  V30 5458 H 535.486 0.51185 4.58452 0
M  V30 5459 H 533.729 0.550251 4.30296 0
M  V30 5460 H 534.4 -0.572019 5.49028 0
M  V30 5461 H 536.876 -1.58124 3.84884 0
M  V30 5462 H 535.752 -2.48987 4.8918 0
M  V30 5463 H 536.013 -3.01292 3.23536 0
M  V30 5464 N 535.072 -1.5615 -0.213296 0
M  V30 5465 C 536.483 -1.69645 -0.779582 0
M  V30 5466 C 536.834 -0.663615 -1.84636 0
M  V30 5467 O 535.959 0.183633 -2.15619 0
M  V30 5468 C 536.554 -3.07567 -1.42084 0
M  V30 5469 C 535.113 -3.22889 -1.93442 0
M  V30 5470 C 534.26 -2.65581 -0.797612 0
M  V30 5471 H 537.211 -1.58696 0.0114951 0
M  V30 5472 H 537.232 -3.03884 -2.28986 0
M  V30 5473 H 536.744 -3.82716 -0.644187 0
M  V30 5474 H 534.845 -2.52623 -2.73884 0
M  V30 5475 H 534.958 -4.30197 -2.10872 0
M  V30 5476 H 533.322 -2.24278 -1.20712 0
M  V30 5477 H 534.105 -3.43284 -0.033494 0
M  V30 5478 N 536.55 0.480323 -1.50102 0
M  V30 5479 C 537.827 1.24159 -1.51142 0
M  V30 5480 C 538.207 2.09605 -0.250818 0
M  V30 5481 O 537.555 2.15274 0.766118 0
M  V30 5482 C 537.765 2.08057 -2.80202 0
M  V30 5483 C 539.113 2.66556 -3.30504 0
M  V30 5484 O 540.137 2.18308 -2.81461 0
M  V30 5485 O 538.996 3.54442 -4.15973 0
M  V30 5486 H 536.09 0.562928 -0.605839 0
M  V30 5487 H 538.636 0.492899 -1.62384 0
M  V30 5488 H 537.408 1.45032 -3.6343 0
M  V30 5489 H 537.031 2.90079 -2.71919 0
M  V30 5490 N 538.028 1.39524 0.732853 0
M  V30 5491 C 539.274 1.37068 1.49467 0
M  V30 5492 C 539.607 -0.0327166 1.94172 0
M  V30 5493 O 538.882 -0.998071 1.66939 0
M  V30 5494 C 539.165 2.34494 2.73285 0
M  V30 5495 C 539.018 3.83784 2.34585 0
M  V30 5496 C 540.337 2.29717 3.75391 0
M  V30 5497 H 537.456 0.499206 0.542183 0
M  V30 5498 H 540.098 1.70532 0.837783 0
M  V30 5499 H 538.248 2.06087 3.29333 0
M  V30 5500 H 539.92 4.22949 1.84151 0
M  V30 5501 H 538.163 4.00455 1.66787 0
M  V30 5502 H 538.834 4.47444 3.23262 0
M  V30 5503 H 541.31 2.54839 3.28932 0
M  V30 5504 H 540.186 2.99962 4.59689 0
M  V30 5505 H 540.447 1.30291 4.22465 0
M  V30 5506 N 539.506 -0.963266 1.24736 0
M  V30 5507 C 540.922 -1.23273 1.01371 0
M  V30 5508 C 541.122 -1.99618 -0.274776 0
M  V30 5509 O 540.178 -2.32293 -0.989769 0
M  V30 5510 C 541.491 -2.01554 2.23152 0
M  V30 5511 C 543.039 -2.14629 2.27823 0
M  V30 5512 C 543.514 -2.96307 3.49237 0
M  V30 5513 N 545.005 -3.03887 3.49581 0
M  V30 5514 C 545.74 -3.67456 4.40186 0
M  V30 5515 N 545.236 -4.32706 5.41052 0
M  V30 5516 N 547.029 -3.64511 4.27888 0
M  V30 5517 H 539.18 -0.452294 2.07528 0
M  V30 5518 H 541.443 -0.262521 0.910926 0
M  V30 5519 H 541.149 -1.52847 3.1675 0
M  V30 5520 H 541.023 -3.02278 2.25628 0
M  V30 5521 H 543.41 -2.62537 1.34753 0
M  V30 5522 H 543.491 -1.13238 2.2937 0
M  V30 5523 H 543.135 -2.49091 4.42624 0
M  V30 5524 H 543.065 -3.97905 3.44933 0
M  V30 5525 H 545.556 -2.57477 2.76611 0
M  V30 5526 H 545.869 -4.79042 6.06415 0
M  V30 5527 H 544.214 -4.31361 5.44934 0
M  V30 5528 H 547.405 -3.12715 3.4832 0
M  V30 5529 H 547.578 -4.13768 4.98698 0
M  V30 5530 N 540.985 -1.06182 -1.16461 0
M  V30 5531 C 542.233 -0.776326 -1.86595 0
M  V30 5532 C 542.554 0.69921 -1.82033 0
M  V30 5533 O 541.824 1.50579 -1.2531 0
M  V30 5534 H 540.404 -0.284184 -0.690832 0
M  V30 5535 H 543.066 -1.34308 -1.41235 0
M  V30 5536 H 542.162 -1.10022 -2.92064 0
M  V30 5537 N 542.463 1.3308 -0.844243 0
M  V30 5538 C 543.395 2.27954 -0.238671 0
M  V30 5539 C 544.408 1.51978 0.583665 0
M  V30 5540 O 545.597 1.73731 0.409857 0
M  V30 5541 C 542.697 3.31963 0.682185 0
M  V30 5542 C 541.87 4.37281 -0.101998 0
M  V30 5543 C 540.929 5.20928 0.743022 0
M  V30 5544 O 539.955 5.68914 0.180285 0
M  V30 5545 N 541.157 5.42738 2.0595 0
M  V30 5546 H 543.922 2.8056 -1.05386 0
M  V30 5547 H 541.483 1.4583 -0.70322 0
M  V30 5548 H 543.475 3.84828 1.25259 0
M  V30 5549 H 542.045 2.79594 1.39808 0
M  V30 5550 H 541.265 3.84843 -0.853802 0
M  V30 5551 H 542.553 5.04746 -0.641015 0
M  V30 5552 H 541.951 5.05463 2.54016 0
M  V30 5553 H 540.508 5.98639 2.57827 0
M  V30 5554 N 543.941 0.601185 1.45683 0
M  V30 5555 C 545.166 0.0982245 2.07167 0
M  V30 5556 C 545.591 -1.20546 1.44396 0
M  V30 5557 O 544.949 -1.73247 0.534347 0
M  V30 5558 C 544.997 -0.0346976 3.60583 0
M  V30 5559 O 544.101 -1.08657 3.97828 0
M  V30 5560 H 543.442 0.0711618 0.660176 0
M  V30 5561 H 545.972 0.829376 1.87036 0
M  V30 5562 H 545.982 -0.234969 4.07323 0
M  V30 5563 H 544.657 0.917265 4.05659 0
M  V30 5564 H 543.234 -0.863275 3.6277 0
M  V30 5565 N 545.419 -1.53889 0.339982 0
M  V30 5566 C 546.644 -2.05741 -0.261798 0
M  V30 5567 C 547.069 -1.21354 -1.43718 0
M  V30 5568 O 546.427 -0.22645 -1.7988 0
M  V30 5569 C 546.475 -3.54542 -0.658228 0
M  V30 5570 O 545.579 -3.7302 -1.75869 0
M  V30 5571 H 544.92 -0.662529 -0.0441672 0
M  V30 5572 H 547.45 -1.98568 0.493161 0
M  V30 5573 H 547.46 -3.9711 -0.936368 0
M  V30 5574 H 546.135 -4.15412 0.201358 0
M  V30 5575 H 544.712 -3.42355 -1.47809 0
M  V30 5576 N 546.897 -0.0685191 -1.57451 0
M  V30 5577 C 547.86 0.885173 -2.11417 0
M  V30 5578 C 548.86 1.22853 -1.03748 0
M  V30 5579 O 550.05 1.16235 -1.2975 0
M  V30 5580 C 547.182 2.18964 -2.61281 0
M  V30 5581 H 548.375 0.417034 -2.96986 0
M  V30 5582 H 545.928 0.18014 -1.55258 0
M  V30 5583 H 546.663 2.70321 -1.79156 0
M  V30 5584 H 546.448 1.9534 -3.39977 0
M  V30 5585 H 547.938 2.87242 -3.0312 0
M  V30 5586 N 548.375 1.56261 0.205012 0
M  V30 5587 C 549.652 1.70856 0.952233 0
M  V30 5588 C 550.032 0.620501 2.01775 0
M  V30 5589 O 549.38 -0.370035 2.25484 0
M  V30 5590 C 549.59 3.12807 1.54767 0
M  V30 5591 C 550.938 3.72733 2.0336 0
M  V30 5592 O 551.962 3.15873 1.64629 0
M  V30 5593 O 550.821 4.72501 2.746 0
M  V30 5594 H 547.915 0.696496 0.445895 0
M  V30 5595 H 550.461 1.6857 0.195489 0
M  V30 5596 H 549.233 3.83465 0.779132 0
M  V30 5597 H 548.856 3.1928 2.36951 0
M  V30 5598 N 549.853 -0.472356 1.50355 0
M  V30 5599 C 550.816 -1.5529 1.68576 0
M  V30 5600 C 551.816 -1.50863 0.556511 0
M  V30 5601 O 553.006 -1.53505 0.823516 0
M  V30 5602 C 550.138 -2.94921 1.70981 0
M  V30 5603 H 551.331 -1.40451 2.64978 0
M  V30 5604 H 548.884 -0.698645 1.39816 0
M  V30 5605 H 549.619 -3.15204 0.762675 0
M  V30 5606 H 549.404 -2.99541 2.53017 0
M  V30 5607 H 550.894 -3.73372 1.87037 0
M  V30 5608 N 551.331 -1.39911 -0.725443 0
M  V30 5609 C 552.58 -1.36963 -1.48068 0
M  V30 5610 C 552.893 0.0284478 -1.95579 0
M  V30 5611 O 554.099 0.180535 -2.70899 0
M  V30 5612 C 552.555 -2.40664 -2.67598 0
M  V30 5613 C 552.163 -3.86234 -2.26997 0
M  V30 5614 C 553.907 -2.46807 -3.45379 0
M  V30 5615 C 551.814 -4.81554 -3.43307 0
M  V30 5616 H 550.744 -0.509223 -0.556065 0
M  V30 5617 H 553.395 -1.65602 -0.790454 0
M  V30 5618 H 551.777 -2.05109 -3.38742 0
M  V30 5619 H 552.951 -4.3088 -1.63337 0
M  V30 5620 H 551.266 -3.83475 -1.62284 0
M  V30 5621 H 553.863 -3.15213 -4.31909 0
M  V30 5622 H 554.206 -1.49552 -3.8851 0
M  V30 5623 H 554.739 -2.81303 -2.81271 0
M  V30 5624 H 551.478 -5.80106 -3.05217 0
M  V30 5625 H 550.998 -4.4158 -4.05915 0
M  V30 5626 H 552.677 -5.0091 -4.0951 0
M  V30 5627 N 552.809 0.956637 -1.25245 0
M  V30 5628 C 553.772 2.03457 -1.05537 0
M  V30 5629 C 554.772 1.60798 -0.00886317 0
M  V30 5630 O 555.962 1.72384 -0.250865 0
M  V30 5631 C 553.094 3.35543 -0.601965 0
M  V30 5632 H 554.287 2.22372 -2.01223 0
M  V30 5633 H 551.84 1.13344 -1.07623 0
M  V30 5634 H 552.575 3.22323 0.357584 0
M  V30 5635 H 552.36 3.67854 -1.35743 0
M  V30 5636 H 553.85 4.14769 -0.485454 0
M  V30 5637 N 554.287 1.06798 1.15896 0
M  V30 5638 C 555.515 0.808694 1.90441 0
M  V30 5639 C 555.93 -0.637506 1.77711 0
M  V30 5640 O 555.287 -1.43684 1.12522 0
M  V30 5641 C 555.338 1.20068 3.40978 0
M  V30 5642 O 555.059 2.59013 3.53333 0
M  V30 5643 C 556.56 0.96987 4.3256 0
M  V30 5644 H 553.78 0.292809 0.603742 0
M  V30 5645 H 556.324 1.42296 1.46874 0
M  V30 5646 H 554.479 0.630842 3.82229 0
M  V30 5647 H 554.893 2.7485 4.46719 0
M  V30 5648 H 556.367 1.29371 5.36626 0
M  V30 5649 H 556.844 -0.0941209 4.39099 0
M  V30 5650 H 557.45 1.52433 3.97044 0
M  V30 5651 N 555.766 -1.3263 0.851289 0
M  V30 5652 C 556.696 -2.31449 0.308771 0
M  V30 5653 C 557.677 -1.59531 -0.590255 0
M  V30 5654 O 558.862 -1.87351 -0.511205 0
M  V30 5655 C 555.992 -3.43586 -0.506548 0
M  V30 5656 C 554.946 -4.26963 0.297753 0
M  V30 5657 C 554.272 -5.30831 -0.642094 0
M  V30 5658 C 555.572 -4.99643 1.52166 0
M  V30 5659 H 557.266 -2.77074 1.13447 0
M  V30 5660 H 554.812 -1.33207 0.546971 0
M  V30 5661 H 556.765 -4.11754 -0.896474 0
M  V30 5662 H 555.489 -2.96681 -1.36558 0
M  V30 5663 H 554.148 -3.60437 0.669391 0
M  V30 5664 H 553.796 -4.8018 -1.49788 0
M  V30 5665 H 553.496 -5.87501 -0.107968 0
M  V30 5666 H 555.02 -6.01862 -1.02927 0
M  V30 5667 H 556.434 -5.6051 1.20421 0
M  V30 5668 H 554.831 -5.66022 1.99347 0
M  V30 5669 H 555.901 -4.27701 2.28474 0
M  V30 5670 N 557.244 -0.608902 -1.45362 0
M  V30 5671 C 558.176 0.147318 -2.28726 0
M  V30 5672 C 559.189 0.830468 -1.40025 0
M  V30 5673 O 560.378 0.695636 -1.64387 0
M  V30 5674 C 557.478 1.22968 -3.15804 0
M  V30 5675 C 556.651 0.633391 -4.3279 0
M  V30 5676 C 555.71 1.60682 -5.01067 0
M  V30 5677 O 554.736 1.13261 -5.57818 0
M  V30 5678 N 555.938 2.94123 -5.00472 0
M  V30 5679 H 558.703 -0.568014 -2.94268 0
M  V30 5680 H 556.264 -0.448479 -1.55564 0
M  V30 5681 H 558.256 1.88072 -3.58345 0
M  V30 5682 H 556.826 1.84752 -2.52162 0
M  V30 5683 H 556.046 -0.195762 -3.93714 0
M  V30 5684 H 557.334 0.215255 -5.08344 0
M  V30 5685 H 556.732 3.3525 -4.55657 0
M  V30 5686 H 555.289 3.54646 -5.46872 0
M  V30 5687 N 558.722 1.53707 -0.348139 0
M  V30 5688 C 559.67 2.26671 0.521808 0
M  V30 5689 C 560.664 1.28988 1.09811 0
M  V30 5690 O 561.87 1.4668 1.04332 0
M  V30 5691 H 558.245 0.728387 0.186968 0
M  V30 5692 H 560.216 2.98176 -0.115563 0
M  V30 5693 C 558.965 3.05591 1.6586 0
M  V30 5694 H 558.288 3.80589 1.22443 0
M  V30 5695 H 559.728 3.59851 2.24239 0
M  V30 5696 C 558.187 2.15366 2.59073 0
M  V30 5697 O 558.717 1.7528 3.61441 0
M  V30 5698 N 556.923 1.80352 2.27863 0
M  V30 5699 H 556.47 2.13149 1.44656 0
M  V30 5700 H 556.428 1.20268 2.90488 0
M  V30 5701 N 560.2 0.0768682 1.57412 0
M  V30 5702 C 561.616 -0.279772 1.57129 0
M  V30 5703 C 561.816 -1.69688 1.08666 0
M  V30 5704 O 560.872 -2.40953 0.754843 0
M  V30 5705 C 562.185 -0.0848055 3.0058 0
M  V30 5706 C 563.733 -0.153954 3.12621 0
M  V30 5707 C 564.208 0.0127946 4.57998 0
M  V30 5708 N 565.699 -0.0426435 4.6318 0
M  V30 5709 C 566.434 0.0618892 5.73367 0
M  V30 5710 N 565.93 0.220229 6.9245 0
M  V30 5711 N 567.723 0.00446072 5.621 0
M  V30 5712 H 559.874 1.00297 1.87228 0
M  V30 5713 H 562.137 0.391565 0.863354 0
M  V30 5714 H 561.843 0.89325 3.40168 0
M  V30 5715 H 561.717 -0.834961 3.67843 0
M  V30 5716 H 564.104 -1.1225 2.72917 0
M  V30 5717 H 564.185 0.627389 2.47987 0
M  V30 5718 H 563.829 0.978128 4.98392 0
M  V30 5719 H 563.759 -0.788016 5.20671 0
M  V30 5720 H 566.25 -0.163226 3.77547 0
M  V30 5721 H 566.563 0.291999 7.72248 0
M  V30 5722 H 564.908 0.255658 6.9453 0
M  V30 5723 H 568.099 -0.117979 4.67951 0
M  V30 5724 H 568.272 0.0893796 6.47938 0
M  V30 5725 N 561.678 -1.56367 -0.196722 0
M  V30 5726 C 562.926 -1.80172 -0.915554 0
M  V30 5727 C 563.247 -0.649649 -1.8386 0
M  V30 5728 O 562.517 0.332111 -1.93064 0
M  V30 5729 H 561.097 -0.664592 -0.341067 0
M  V30 5730 H 563.759 -1.93844 -0.202622 0
M  V30 5731 H 562.855 -2.7327 -1.50764 0
M  V30 5732 N 563.156 0.464375 -1.50603 0
M  V30 5733 C 564.403 1.21596 -1.61928 0
M  V30 5734 C 564.731 1.91804 -0.322737 0
M  V30 5735 O 563.986 1.83065 0.691776 0
M  V30 5736 C 564.285 2.278 -2.75394 0
M  V30 5737 C 563.951 1.74797 -4.1564 0
M  V30 5738 C 562.613 1.60063 -4.53799 0
M  V30 5739 C 564.965 1.35548 -5.03266 0
M  V30 5740 C 562.293 1.04514 -5.77316 0
M  V30 5741 C 564.645 0.814381 -6.27336 0
M  V30 5742 C 563.309 0.653726 -6.64291 0
M  V30 5743 H 562.579 0.444951 -0.592536 0
M  V30 5744 H 565.226 0.510964 -1.84557 0
M  V30 5745 H 563.531 3.04233 -2.46879 0
M  V30 5746 H 565.228 2.85723 -2.81359 0
M  V30 5747 H 561.818 1.87234 -3.8554 0
M  V30 5748 H 566.002 1.45763 -4.74412 0
M  V30 5749 H 561.258 0.908186 -6.04617 0
M  V30 5750 H 565.432 0.501626 -6.94591 0
M  V30 5751 H 563.059 0.22114 -7.59878 0
M  V30 5752 N 564.634 1.40294 0.718013 0
M  V30 5753 C 565.581 1.40367 1.8321 0
M  V30 5754 C 566.551 0.260952 1.64037 0
M  V30 5755 O 567.736 0.458648 1.85205 0
M  V30 5756 C 564.876 1.26965 3.20895 0
M  V30 5757 C 563.989 2.50922 3.51656 0
M  V30 5758 C 563.124 2.29981 4.78834 0
M  V30 5759 C 562.163 3.49527 5.02491 0
M  V30 5760 N 561.3 3.27796 6.20882 0
M  V30 5761 H 566.14 2.35593 1.82482 0
M  V30 5762 H 563.677 1.17012 0.891444 0
M  V30 5763 H 565.635 1.17202 4.00399 0
M  V30 5764 H 564.265 0.353591 3.20858 0
M  V30 5765 H 563.317 2.71223 2.66725 0
M  V30 5766 H 564.629 3.39913 3.65048 0
M  V30 5767 H 563.783 2.17558 5.66351 0
M  V30 5768 H 562.522 1.38411 4.67647 0
M  V30 5769 H 561.527 3.6243 4.1343 0
M  V30 5770 H 562.752 4.42021 5.15553 0
M  V30 5771 H 560.698 2.38906 6.1095 0
M  V30 5772 H 560.615 4.10351 6.34939 0
M  V30 5773 H 561.883 3.19101 7.11193 0
M  V30 5774 N 566.112 -0.949982 1.2575 0
M  V30 5775 C 567.361 -1.68956 1.10168 0
M  V30 5776 C 567.674 -1.92327 -0.356309 0
M  V30 5777 O 568.88 -2.64026 -0.632657 0
M  V30 5778 C 567.336 -3.04196 1.92336 0
M  V30 5779 C 566.944 -2.88603 3.42655 0
M  V30 5780 C 568.688 -3.81904 1.85336 0
M  V30 5781 C 566.595 -4.19262 4.17101 0
M  V30 5782 H 565.525 -0.633645 0.408668 0
M  V30 5783 H 568.176 -1.05719 1.49986 0
M  V30 5784 H 566.558 -3.68363 1.45344 0
M  V30 5785 H 567.732 -2.3334 3.97353 0
M  V30 5786 H 566.047 -2.24345 3.50796 0
M  V30 5787 H 568.644 -4.78688 2.38248 0
M  V30 5788 H 568.987 -4.08099 0.822226 0
M  V30 5789 H 569.52 -3.24495 2.30104 0
M  V30 5790 H 566.259 -3.98254 5.20648 0
M  V30 5791 H 565.779 -4.74273 3.67186 0
M  V30 5792 H 567.458 -4.87775 4.25071 0
M  V30 5793 N 567.59 -1.07411 -1.15328 0
M  V30 5794 C 569.006 -0.799759 -1.38116 0
M  V30 5795 C 569.206 0.59572 -1.92493 0
M  V30 5796 O 568.262 1.35433 -2.13106 0
M  V30 5797 C 569.575 -1.87407 -2.35158 0
M  V30 5798 C 571.123 -1.89889 -2.48819 0
M  V30 5799 C 571.598 -2.96406 -3.49153 0
M  V30 5800 N 573.089 -2.95512 -3.56689 0
M  V30 5801 C 573.824 -3.74575 -4.34144 0
M  V30 5802 N 573.32 -4.63488 -5.14928 0
M  V30 5803 N 575.113 -3.62919 -4.29239 0
M  V30 5804 H 567.264 -1.97411 -0.78374 0
M  V30 5805 H 569.527 -0.856113 -0.407154 0
M  V30 5806 H 569.233 -2.8768 -2.0232 0
M  V30 5807 H 569.107 -1.73471 -3.34944 0
M  V30 5808 H 571.494 -0.902677 -2.80955 0
M  V30 5809 H 571.575 -2.07904 -1.49029 0
M  V30 5810 H 571.219 -3.96227 -3.17752 0
M  V30 5811 H 571.149 -2.75638 -4.48699 0
M  V30 5812 H 573.64 -2.31061 -2.99031 0
M  V30 5813 H 573.953 -5.20445 -5.71276 0
M  V30 5814 H 572.298 -4.67537 -5.14232 0
M  V30 5815 H 575.489 -2.92833 -3.65194 0
M  V30 5816 H 575.662 -4.24777 -4.89355 0
M  V30 5817 N 569.068 1.32177 -0.85831 0
M  V30 5818 C 570.296 2.01313 -0.477582 0
M  V30 5819 C 570.711 1.6449 0.926736 0
M  V30 5820 O 570.068 0.868096 1.60531 0
M  V30 5821 C 570.119 3.56293 -0.611337 0
M  V30 5822 O 569.84 3.91794 -1.96034 0
M  V30 5823 C 571.341 4.42702 -0.230093 0
M  V30 5824 H 568.561 0.644323 -0.187322 0
M  V30 5825 H 571.105 1.68674 -1.15626 0
M  V30 5826 H 569.26 3.87395 0.0196494 0
M  V30 5827 H 569.674 4.86513 -1.95973 0
M  V30 5828 H 571.148 5.50727 -0.374674 0
M  V30 5829 H 571.625 4.3129 0.829779 0
M  V30 5830 H 572.231 4.16997 -0.836302 0
M  V30 5831 N 570.547 0.616602 1.45037 0
M  V30 5832 C 571.477 -0.0840787 2.33349 0
M  V30 5833 C 572.458 -0.849641 1.4736 0
M  V30 5834 O 573.643 -0.818407 1.76113 0
M  V30 5835 C 570.773 -1.07604 3.3021 0
M  V30 5836 C 569.727 -0.423096 4.25904 0
M  V30 5837 C 569.053 -1.52394 5.12523 0
M  V30 5838 C 570.353 0.661457 5.18095 0
M  V30 5839 H 572.047 0.653333 2.92185 0
M  V30 5840 H 569.593 0.315634 1.40498 0
M  V30 5841 H 571.546 -1.57485 3.90866 0
M  V30 5842 H 570.27 -1.84416 2.69552 0
M  V30 5843 H 568.929 0.05493 3.66559 0
M  V30 5844 H 568.577 -2.28257 4.48227 0
M  V30 5845 H 568.277 -1.09251 5.77354 0
M  V30 5846 H 569.801 -2.02485 5.76049 0
M  V30 5847 H 571.215 0.246353 5.7277 0
M  V30 5848 H 569.612 1.01517 5.91451 0
M  V30 5849 H 570.682 1.53446 4.59981 0
M  V30 5850 N 572.025 -1.5352 0.356285 0
M  V30 5851 C 572.957 -2.23009 -0.529127 0
M  V30 5852 C 573.97 -1.241 -1.05371 0
M  V30 5853 O 575.159 -1.50379 -0.961679 0
M  V30 5854 C 572.259 -2.90685 -1.74229 0
M  V30 5855 C 571.432 -4.16019 -1.35081 0
M  V30 5856 C 570.491 -4.66989 -2.42502 0
M  V30 5857 O 569.517 -5.30895 -2.05279 0
M  V30 5858 N 570.719 -4.44006 -3.7395 0
M  V30 5859 H 573.484 -2.99627 0.0660501 0
M  V30 5860 H 571.045 -1.60885 0.181014 0
M  V30 5861 H 573.037 -3.21695 -2.4555 0
M  V30 5862 H 571.607 -2.17575 -2.24454 0
M  V30 5863 H 570.827 -3.91414 -0.467833 0
M  V30 5864 H 572.115 -4.9752 -1.06542 0
M  V30 5865 H 571.513 -3.92924 -4.06973 0
M  V30 5866 H 570.07 -4.7959 -4.41403 0
M  V30 5867 N 573.503 -0.0852151 -1.57369 0
M  V30 5868 C 574.45 0.877268 -2.13478 0
M  V30 5869 C 575.42 1.28642 -1.05073 0
M  V30 5870 O 576.605 1.36992 -1.32808 0
M  V30 5871 C 573.745 2.13464 -2.71159 0
M  V30 5872 C 572.858 1.77691 -3.93764 0
M  V30 5873 C 571.993 2.98139 -4.39643 0
M  V30 5874 C 571.032 2.58447 -5.54862 0
M  V30 5875 N 570.169 3.71698 -5.95639 0
M  V30 5876 H 575.009 0.391933 -2.95411 0
M  V30 5877 H 572.546 0.181796 -1.45972 0
M  V30 5878 H 574.504 2.87086 -3.02717 0
M  V30 5879 H 573.134 2.59514 -1.91969 0
M  V30 5880 H 572.186 0.940768 -3.68583 0
M  V30 5881 H 573.498 1.44497 -4.77412 0
M  V30 5882 H 572.652 3.80026 -4.72933 0
M  V30 5883 H 571.391 3.34536 -3.54876 0
M  V30 5884 H 570.396 1.74984 -5.21211 0
M  V30 5885 H 571.621 2.23205 -6.41371 0
M  V30 5886 H 569.567 4.07831 -5.13819 0
M  V30 5887 H 569.484 3.42317 -6.74059 0
M  V30 5888 H 570.752 4.54123 -6.33555 0
M  V30 5889 N 574.981 1.5647 0.188427 0
M  V30 5890 C 576.392 1.70864 0.752494 0
M  V30 5891 C 576.743 0.692905 1.83557 0
M  V30 5892 O 575.868 -0.149307 2.15884 0
M  V30 5893 C 576.463 3.09789 1.37173 0
M  V30 5894 C 575.022 3.25925 1.88281 0
M  V30 5895 C 574.169 2.66817 0.755259 0
M  V30 5896 H 577.12 1.58657 -0.0367408 0
M  V30 5897 H 577.141 3.07489 2.24122 0
M  V30 5898 H 576.653 3.83693 0.583219 0
M  V30 5899 H 574.754 2.56948 2.6983 0
M  V30 5900 H 574.867 4.33498 2.04001 0
M  V30 5901 H 573.231 2.2617 1.17128 0
M  V30 5902 H 574.014 3.43294 -0.0211237 0
M  V30 5903 N 576.459 -0.456382 1.50847 0
M  V30 5904 C 577.736 -1.21739 1.53098 0
M  V30 5905 C 578.116 -2.09179 0.284132 0
M  V30 5906 O 577.464 -2.16466 -0.731773 0
M  V30 5907 C 577.674 -2.03573 2.83477 0
M  V30 5908 C 579.022 -2.61264 3.34703 0
M  V30 5909 O 580.046 -2.13802 2.84898 0
M  V30 5910 O 578.905 -3.47779 4.21559 0
M  V30 5911 H 575.999 -0.553219 0.614718 0
M  V30 5912 H 578.545 -0.467003 1.63148 0
M  V30 5913 H 577.317 -1.39232 3.65691 0
M  V30 5914 H 576.94 -2.85716 2.76499 0
M  V30 5915 N 577.937 -1.40673 -0.710563 0
M  V30 5916 C 579.162 -1.42741 -1.50465 0
M  V30 5917 C 579.587 -0.0302116 -1.88076 0
M  V30 5918 O 578.945 0.962945 -1.53613 0
M  V30 5919 C 578.993 -2.32873 -2.75322 0
M  V30 5920 O 578.097 -1.77544 -3.72226 0
M  V30 5921 H 577.438 -0.485056 -0.45345 0
M  V30 5922 H 579.968 -1.84961 -0.874681 0
M  V30 5923 H 579.978 -2.48233 -3.23797 0
M  V30 5924 H 578.653 -3.34401 -2.47283 0
M  V30 5925 H 577.23 -1.71556 -3.31093 0
M  V30 5926 N 579.415 0.9433 -1.26252 0
M  V30 5927 C 580.643 1.72367 -1.14443 0
M  V30 5928 C 581.058 1.86392 0.300572 0
M  V30 5929 O 580.415 1.36978 1.20596 0
M  V30 5930 C 580.466 3.13155 -1.806 0
M  V30 5931 O 580.187 2.99803 -3.19452 0
M  V30 5932 C 581.688 4.07417 -1.74717 0
M  V30 5933 H 578.908 0.539758 -0.398626 0
M  V30 5934 H 581.452 1.18268 -1.66832 0
M  V30 5935 H 579.607 3.64162 -1.32154 0
M  V30 5936 H 580.021 3.88697 -3.52158 0
M  V30 5937 H 581.495 5.03773 -2.25647 0
M  V30 5938 H 581.972 4.3337 -0.713244 0
M  V30 5939 H 582.578 3.6233 -2.22704 0
M  V30 5940 N 580.893 1.08022 1.14757 0
M  V30 5941 C 582.142 0.802468 1.8505 0
M  V30 5942 C 582.455 -0.674061 1.83619 0
M  V30 5943 O 583.661 -1.06683 2.49662 0
M  V30 5944 C 582.117 1.38551 3.32162 0
M  V30 5945 C 581.725 2.89354 3.42021 0
M  V30 5946 C 583.469 1.18608 4.07594 0
M  V30 5947 C 581.376 3.40815 4.83321 0
M  V30 5948 H 580.306 0.296518 0.693248 0
M  V30 5949 H 582.957 1.30114 1.29393 0
M  V30 5950 H 581.339 0.814556 3.87532 0
M  V30 5951 H 582.513 3.52552 2.96722 0
M  V30 5952 H 580.828 3.08165 2.80041 0
M  V30 5953 H 583.425 1.54525 5.11885 0
M  V30 5954 H 583.768 0.125599 4.1611 0
M  V30 5955 H 584.301 1.72375 3.58513 0
M  V30 5956 H 581.04 4.46418 4.79991 0
M  V30 5957 H 580.56 2.82374 5.29174 0
M  V30 5958 H 582.239 3.37171 5.522 0
M  V30 5959 N 582.371 -1.3172 0.865308 0
M  V30 5960 C 583.782 -1.79104 0.527126 0
M  V30 5961 C 584.133 -1.7135 -0.955695 0
M  V30 5962 O 583.258 -1.27845 -1.74598 0
M  V30 5963 C 583.853 -3.25207 0.950061 0
M  V30 5964 C 582.412 -3.70504 0.663611 0
M  V30 5965 C 581.559 -2.52605 1.14395 0
M  V30 5966 H 584.51 -1.18868 1.05148 0
M  V30 5967 H 584.531 -3.79535 0.270805 0
M  V30 5968 H 584.043 -3.30818 2.02931 0
M  V30 5969 H 582.144 -3.70398 -0.404474 0
M  V30 5970 H 582.257 -4.62845 1.23737 0
M  V30 5971 H 580.621 -2.4838 0.563859 0
M  V30 5972 H 581.404 -2.60964 2.23053 0
M  V30 5973 N 583.85 -0.624285 -1.44708 0
M  V30 5974 C 585.26 -0.2092 -1.85524 0
M  V30 5975 C 585.611 1.23783 -1.52225 0
M  V30 5976 O 584.736 1.94089 -0.956986 0
M  V30 5977 C 585.332 -0.372897 -3.36742 0
M  V30 5978 C 583.891 -0.012374 -3.76398 0
M  V30 5979 C 583.038 -0.68951 -2.68591 0
M  V30 5980 H 585.989 -0.829894 -1.35272 0
M  V30 5981 H 586.01 0.390134 -3.78495 0
M  V30 5982 H 585.522 -1.42615 -3.60947 0
M  V30 5983 H 583.623 1.03941 -3.57809 0
M  V30 5984 H 583.736 -0.417663 -4.77276 0
M  V30 5985 H 582.1 -0.125484 -2.54391 0
M  V30 5986 H 582.883 -1.74522 -2.9563 0
M  V30 5987 N 585.328 1.53329 -0.364422 0
M  V30 5988 C 586.605 1.93557 0.281962 0
M  V30 5989 C 586.985 1.29786 1.6649 0
M  V30 5990 O 586.333 0.456512 2.23893 0
M  V30 5991 C 586.543 3.47405 0.333331 0
M  V30 5992 C 587.891 4.20699 0.574231 0
M  V30 5993 O 588.915 3.53779 0.414588 0
M  V30 5994 O 587.774 5.39287 0.885002 0
M  V30 5995 H 584.868 0.809573 0.168881 0
M  V30 5996 H 587.414 1.64494 -0.417121 0
M  V30 5997 H 586.186 3.86091 -0.636326 0
M  V30 5998 H 585.809 3.82697 1.07836 0
M  V30 5999 N 586.806 0.0935595 1.57322 0
M  V30 6000 C 587.756 -0.876521 2.10478 0
M  V30 6001 C 588.74 -1.24482 1.01946 0
M  V30 6002 O 589.932 -1.22016 1.28223 0
M  V30 6003 C 587.061 -2.13615 2.68745 0
M  V30 6004 C 586.147 -1.79335 3.84317 0
M  V30 6005 N 586.538 -1.15606 4.92411 0
M  V30 6006 C 584.836 -2.08954 3.94023 0
M  V30 6007 C 585.537 -0.999036 5.73057 0
M  V30 6008 N 584.513 -1.51585 5.22037 0
M  V30 6009 H 588.315 -0.379829 2.91435 0
M  V30 6010 H 585.829 -0.109699 1.62029 0
M  V30 6011 H 587.826 -2.84053 3.05155 0
M  V30 6012 H 586.486 -2.63851 1.89242 0
M  V30 6013 H 587.497 -0.823063 5.11318 0
M  V30 6014 H 584.174 -2.61416 3.25527 0
M  V30 6015 H 585.564 -0.500772 6.70031 0
M  V30 6016 N 588.284 -1.56567 -0.180126 0
M  V30 6017 C 589.53 -1.81761 -0.899497 0
M  V30 6018 C 589.863 -0.670015 -1.82276 0
M  V30 6019 O 589.138 0.328575 -1.91705 0
M  V30 6020 C 589.421 -3.17296 -1.7028 0
M  V30 6021 C 589.274 -4.4257 -0.803255 0
M  V30 6022 C 590.593 -3.49678 -2.67233 0
M  V30 6023 H 587.712 -0.661192 -0.325567 0
M  V30 6024 H 590.354 -1.89272 -0.16612 0
M  V30 6025 H 588.504 -3.11023 -2.32802 0
M  V30 6026 H 590.176 -4.60902 -0.191585 0
M  V30 6027 H 588.419 -4.33658 -0.110796 0
M  V30 6028 H 589.09 -5.33935 -1.40064 0
M  V30 6029 H 591.566 -3.56347 -2.14839 0
M  V30 6030 H 590.442 -4.45605 -3.20511 0
M  V30 6031 H 590.703 -2.73932 -3.47007 0
M  V30 6032 N 589.762 0.448376 -1.51087 0
M  V30 6033 C 591.011 1.19561 -1.62444 0
M  V30 6034 C 591.324 1.92602 -0.341151 0
M  V30 6035 O 592.53 2.69439 -0.333936 0
M  V30 6036 C 590.986 2.17373 -2.8684 0
M  V30 6037 C 590.594 1.5003 -4.22131 0
M  V30 6038 C 592.338 2.92597 -3.0755 0
M  V30 6039 C 590.245 2.46262 -5.37689 0
M  V30 6040 H 589.175 0.449975 -0.605011 0
M  V30 6041 H 591.826 0.463735 -1.77544 0
M  V30 6042 H 590.208 2.93948 -2.65349 0
M  V30 6043 H 591.382 0.790886 -4.53962 0
M  V30 6044 H 589.697 0.870011 -4.0721 0
M  V30 6045 H 592.294 3.64663 -3.91056 0
M  V30 6046 H 592.637 3.53306 -2.20183 0
M  V30 6047 H 593.17 2.23131 -3.29329 0
M  V30 6048 H 589.909 1.90258 -6.27281 0
M  V30 6049 H 589.429 3.15289 -5.10248 0
M  V30 6050 H 591.108 3.07623 -5.6919 0
M  V30 6051 N 591.24 1.41047 0.703093 0
M  V30 6052 C 592.488 1.39723 1.4602 0
M  V30 6053 C 592.809 0.00461257 1.94999 0
M  V30 6054 O 592.079 -0.952292 1.71196 0
M  V30 6055 H 590.659 0.514281 0.541779 0
M  V30 6056 H 593.321 1.76217 0.832678 0
M  V30 6057 H 592.417 2.07982 2.32701 0
M  V30 6058 N 592.718 -0.936591 1.26751 0
M  V30 6059 C 593.946 -1.71758 1.15355 0
M  V30 6060 C 594.361 -1.86549 -0.290683 0
M  V30 6061 O 593.718 -1.37616 -1.19868 0
M  V30 6062 C 593.769 -3.12193 1.82258 0
M  V30 6063 O 593.49 -2.98105 3.21038 0
M  V30 6064 C 594.991 -4.06485 1.76875 0
M  V30 6065 H 592.211 -0.537636 0.401483 0
M  V30 6066 H 594.755 -1.17382 1.67457 0
M  V30 6067 H 592.91 -3.63456 1.34083 0
M  V30 6068 H 593.324 -3.86824 3.54214 0
M  V30 6069 H 594.798 -5.02569 2.28316 0
M  V30 6070 H 595.275 -4.32986 0.736216 0
M  V30 6071 H 595.881 -3.61144 2.24623 0
M  V30 6072 N 594.196 -1.08629 -1.14182 0
M  V30 6073 C 595.473 -0.73002 -1.81466 0
M  V30 6074 C 595.853 0.785996 -1.95922 0
M  V30 6075 O 595.201 1.70535 -1.52086 0
M  V30 6076 C 595.411 -1.45957 -3.17014 0
M  V30 6077 C 596.759 -1.62008 -3.92477 0
M  V30 6078 O 597.783 -1.42141 -3.26611 0
M  V30 6079 O 596.642 -1.94806 -5.106 0
M  V30 6080 H 593.736 -0.261307 -0.784632 0
M  V30 6081 H 596.282 -1.188 -1.2118 0
M  V30 6082 H 595.054 -2.49221 -3.01669 0
M  V30 6083 H 594.677 -0.993222 -3.84995 0
M  V30 6084 N 595.674 1.31259 -0.872281 0
M  V30 6085 C 597.085 1.78822 -0.536617 0
M  V30 6086 C 597.436 1.71855 0.946594 0
M  V30 6087 O 596.561 1.28769 1.73918 0
M  V30 6088 C 597.156 3.24698 -0.967294 0
M  V30 6089 C 595.715 3.70147 -0.683251 0
M  V30 6090 C 594.862 2.51994 -1.15733 0
M  V30 6091 H 597.813 1.18308 -1.05777 0
M  V30 6092 H 597.834 3.79386 -0.290929 0
M  V30 6093 H 597.346 3.29737 -2.04683 0
M  V30 6094 H 595.447 3.70607 0.384825 0
M  V30 6095 H 595.56 4.62183 -1.2619 0
M  V30 6096 H 593.924 2.48078 -0.577024 0
M  V30 6097 H 594.707 2.59778 -2.24434 0
M  V30 6098 N 597.152 0.631951 1.44375 0
M  V30 6099 C 598.115 -0.0628142 2.29114 0
M  V30 6100 C 599.115 -0.771494 1.41084 0
M  V30 6101 O 600.305 -0.615959 1.62947 0
M  V30 6102 C 597.437 -1.09953 3.22681 0
M  V30 6103 H 598.63 0.682509 2.92031 0
M  V30 6104 H 596.183 0.392128 1.51301 0
M  V30 6105 H 596.918 -1.87481 2.64616 0
M  V30 6106 H 596.703 -0.595286 3.87555 0
M  V30 6107 H 598.193 -1.58538 3.86336 0
M  V30 6108 N 598.631 -1.53133 0.372548 0
M  V30 6109 C 599.594 -2.24569 -0.458389 0
M  V30 6110 C 600.594 -1.25603 -1.00402 0
M  V30 6111 O 601.784 -1.49827 -0.888672 0
M  V30 6112 C 598.916 -2.98783 -1.6414 0
M  V30 6113 H 600.109 -2.99436 0.166799 0
M  V30 6114 H 597.662 -1.55805 0.124357 0
M  V30 6115 H 598.397 -2.28176 -2.30448 0
M  V30 6116 H 598.182 -3.71404 -1.25704 0
M  V30 6117 H 599.672 -3.53068 -2.23008 0
M  V30 6118 N 600.109 -0.101901 -1.5727 0
M  V30 6119 C 601.057 0.872034 -2.15635 0
M  V30 6120 C 602.051 1.28742 -1.10099 0
M  V30 6121 O 603.257 1.26116 -1.28432 0
M  V30 6122 H 599.632 0.299269 -0.689886 0
M  V30 6123 H 601.603 0.355137 -2.96279 0
M  V30 6124 C 600.352 2.11886 -2.7568 0
M  V30 6125 H 599.675 1.80813 -3.56576 0
M  V30 6126 H 601.115 2.78077 -3.20077 0
M  V30 6127 C 599.574 2.89739 -1.7191 0
M  V30 6128 O 600.104 3.84522 -1.16213 0
M  V30 6129 N 598.31 2.53407 -1.42245 0
M  V30 6130 H 597.857 1.76398 -1.87727 0
M  V30 6131 H 597.815 3.05795 -0.730529 0
M  V30 6132 N 601.587 1.56661 0.17182 0
M  V30 6133 C 602.815 1.861 0.904115 0
M  V30 6134 C 603.23 0.687227 1.75848 0
M  V30 6135 O 602.587 -0.343671 1.79235 0
M  V30 6136 C 602.638 3.14568 1.78127 0
M  V30 6137 O 602.359 4.27422 0.961366 0
M  V30 6138 C 603.86 3.5735 2.62327 0
M  V30 6139 H 601.08 0.617445 0.262684 0
M  V30 6140 H 603.624 2.03775 0.172068 0
M  V30 6141 H 601.779 2.98721 2.46666 0
M  V30 6142 H 602.193 5.00725 1.56123 0
M  V30 6143 H 603.667 4.50144 3.1949 0
M  V30 6144 H 604.144 2.81445 3.37173 0
M  V30 6145 H 604.75 3.75807 1.99121 0
M  V30 6146 N 603.065 -0.440357 1.51323 0
M  V30 6147 C 604.29 -1.21716 1.67928 0
M  V30 6148 C 604.715 -1.84328 0.374826 0
M  V30 6149 O 604.073 -1.68675 -0.664706 0
M  V30 6150 C 604.121 -2.27914 2.79442 0
M  V30 6151 O 603.225 -3.33325 2.42834 0
M  V30 6152 H 602.566 -0.35674 0.560029 0
M  V30 6153 H 605.096 -0.520417 1.97871 0
M  V30 6154 H 605.106 -2.72746 3.03436 0
M  V30 6155 H 603.781 -1.8172 3.741 0
M  V30 6156 H 602.358 -2.9399 2.294 0
M  V30 6157 N 604.543 -1.41418 -0.695603 0
M  V30 6158 C 605.789 -1.40982 -1.4578 0
M  V30 6159 C 606.122 -0.0187763 -1.94191 0
M  V30 6160 O 605.397 0.95346 -1.69527 0
M  V30 6161 C 605.68 -2.41657 -2.66972 0
M  V30 6162 C 605.533 -3.89869 -2.24327 0
M  V30 6163 C 606.852 -2.39589 -3.69168 0
M  V30 6164 H 603.971 -0.513405 -0.528757 0
M  V30 6165 H 606.613 -1.72693 -0.792275 0
M  V30 6166 H 604.763 -2.14746 -3.23754 0
M  V30 6167 H 606.435 -4.27683 -1.72872 0
M  V30 6168 H 604.678 -4.04737 -1.56111 0
M  V30 6169 H 605.349 -4.55857 -3.11285 0
M  V30 6170 H 607.825 -2.63471 -3.2206 0
M  V30 6171 H 606.701 -3.12044 -4.51575 0
M  V30 6172 H 606.962 -1.41447 -4.18862 0
M  V30 6173 N 606.021 0.929856 -1.27246 0
M  V30 6174 C 607.246 1.71674 -1.16374 0
M  V30 6175 C 607.671 1.86064 0.276024 0
M  V30 6176 O 607.029 1.3591 1.19992 0
M  V30 6177 C 607.077 3.09526 -1.85003 0
M  V30 6178 O 606.181 3.96142 -1.14653 0
M  V30 6179 H 605.522 0.52629 -0.404863 0
M  V30 6180 H 608.052 1.16381 -1.68276 0
M  V30 6181 H 608.062 3.59852 -1.92276 0
M  V30 6182 H 606.737 2.98369 -2.89739 0
M  V30 6183 H 605.314 3.54584 -1.15433 0
M  V30 6184 N 607.499 1.09233 1.13605 0
M  V30 6185 C 608.462 0.733553 2.17144 0
M  V30 6186 C 609.462 -0.235873 1.59061 0
M  V30 6187 O 610.652 -0.0143167 1.74194 0
M  V30 6188 C 607.784 0.084471 3.40795 0
M  V30 6189 H 608.977 1.65049 2.50397 0
M  V30 6190 H 606.53 0.891264 1.28399 0
M  V30 6191 H 607.265 -0.843795 3.1313 0
M  V30 6192 H 607.05 0.781985 3.84223 0
M  V30 6193 H 608.54 -0.151216 4.17326 0
M  V30 6194 N 608.977 -1.30795 0.87923 0
M  V30 6195 C 610.225 -1.95974 0.493809 0
M  V30 6196 C 610.546 -1.69787 -0.959021 0
M  V30 6197 O 609.816 -1.01832 -1.67353 0
M  V30 6198 H 608.396 -0.725083 0.179622 0
M  V30 6199 H 611.058 -1.59432 1.12105 0
M  V30 6200 H 610.154 -3.05058 0.659263 0
M  V30 6201 N 610.455 -0.639598 -1.44038 0
M  V30 6202 C 611.732 -0.078012 -1.95444 0
M  V30 6203 C 612.112 1.39847 -1.58133 0
M  V30 6204 O 611.46 2.11714 -0.859614 0
M  V30 6205 C 611.67 -0.309832 -3.47622 0
M  V30 6206 C 613.018 -0.207521 -4.24093 0
M  V30 6207 O 614.042 -0.241653 -3.55379 0
M  V30 6208 O 612.901 -0.119641 -5.46369 0
M  V30 6209 H 609.995 0.0174534 -0.826816 0
M  V30 6210 H 612.541 -0.711891 -1.54046 0
M  V30 6211 H 611.313 -1.33401 -3.67858 0
M  V30 6212 H 610.936 0.357777 -3.95987 0
M  V30 6213 N 611.933 1.52934 -0.380664 0
M  V30 6214 C 612.843 2.29921 0.466192 0
M  V30 6215 C 613.859 1.36488 1.07922 0
M  V30 6216 O 615.035 1.69553 1.0869 0
M  V30 6217 C 612.1 3.08468 1.58266 0
M  V30 6218 C 611.161 4.17595 0.995627 0
M  V30 6219 C 610.394 4.92387 2.05889 0
M  V30 6220 O 610.617 4.67184 3.27254 0
M  V30 6221 O 609.551 5.77949 1.68102 0
M  V30 6222 H 613.377 3.03274 -0.160735 0
M  V30 6223 H 610.962 1.48698 -0.144617 0
M  V30 6224 H 612.844 3.57469 2.23145 0
M  V30 6225 H 611.519 2.37937 2.19471 0
M  V30 6226 H 610.426 3.72811 0.310332 0
M  V30 6227 H 611.759 4.90336 0.427918 0
M  V30 6228 N 613.412 0.11024 1.57214 0
M  V30 6229 C 614.661 -0.549638 1.94067 0
M  V30 6230 C 614.974 -1.68388 0.995234 0
M  V30 6231 O 616.18 -2.40593 1.25807 0
M  V30 6232 C 614.636 -1.02912 3.44873 0
M  V30 6233 C 614.244 0.0761861 4.47935 0
M  V30 6234 C 615.988 -1.66087 3.9066 0
M  V30 6235 C 613.895 -0.419502 5.8991 0
M  V30 6236 H 612.825 -0.209092 0.724428 0
M  V30 6237 H 615.476 0.188683 1.82527 0
M  V30 6238 H 613.858 -1.82159 3.51616 0
M  V30 6239 H 615.032 0.852185 4.52851 0
M  V30 6240 H 613.347 0.614052 4.11847 0
M  V30 6241 H 615.944 -2.04272 4.94143 0
M  V30 6242 H 616.287 -2.53591 3.30148 0
M  V30 6243 H 616.82 -0.933959 3.86681 0
M  V30 6244 H 613.559 0.419277 6.54158 0
M  V30 6245 H 613.079 -1.16217 5.88433 0
M  V30 6246 H 614.758 -0.883577 6.40938 0
M  V30 6247 N 614.89 -1.56749 -0.16351 0
M  V30 6248 C 616.118 -1.86577 -0.894233 0
M  V30 6249 C 616.533 -0.696543 -1.75481 0
M  V30 6250 O 615.89 0.334161 -1.79415 0
M  V30 6251 C 615.941 -3.15508 -1.76456 0
M  V30 6252 O 615.662 -4.27926 -0.938685 0
M  V30 6253 C 617.163 -3.58737 -2.60428 0
M  V30 6254 H 614.383 -0.618829 -0.259405 0
M  V30 6255 H 616.927 -2.03863 -0.161259 0
M  V30 6256 H 615.082 -3.00025 -2.45079 0
M  V30 6257 H 615.496 -5.01546 -1.53465 0
M  V30 6258 H 616.97 -4.51832 -3.17099 0
M  V30 6259 H 617.447 -2.83229 -3.35675 0
M  V30 6260 H 618.053 -3.76858 -1.97125 0
M  V30 6261 N 616.368 0.432326 -1.51554 0
M  V30 6262 C 617.614 1.18309 -1.64714 0
M  V30 6263 C 617.947 1.90745 -0.364696 0
M  V30 6264 O 617.222 1.8381 0.635936 0
M  V30 6265 C 617.505 2.1961 -2.85383 0
M  V30 6266 C 617.358 1.51223 -4.23617 0
M  V30 6267 C 618.677 3.20538 -3.01569 0
M  V30 6268 H 615.796 0.428751 -0.599451 0
M  V30 6269 H 618.438 0.471689 -1.84052 0
M  V30 6270 H 616.588 2.8028 -2.69027 0
M  V30 6271 H 618.26 0.938516 -4.51652 0
M  V30 6272 H 616.503 0.814501 -4.26085 0
M  V30 6273 H 617.174 2.25024 -5.04052 0
M  V30 6274 H 619.65 2.69926 -3.16669 0
M  V30 6275 H 618.526 3.88706 -3.87555 0
M  V30 6276 H 618.787 3.86933 -2.13859 0
M  V30 6277 N 617.846 1.41785 0.688094 0
M  V30 6278 C 618.794 1.44436 1.82321 0
M  V30 6279 C 619.788 0.321544 1.6632 0
M  V30 6280 O 620.994 0.493931 1.73091 0
M  V30 6281 H 617.369 0.452084 0.600936 0
M  V30 6282 H 619.34 2.40087 1.77202 0
M  V30 6283 C 618.089 1.35071 3.20392 0
M  V30 6284 H 617.412 2.2076 3.33324 0
M  V30 6285 H 618.852 1.40988 3.99873 0
M  V30 6286 C 617.311 0.0639127 3.36839 0
M  V30 6287 O 617.841 -0.888495 3.91751 0
M  V30 6288 N 616.047 -0.0146114 2.90596 0
M  V30 6289 H 615.594 0.761191 2.46097 0
M  V30 6290 H 615.552 -0.874988 3.01979 0
M  V30 6291 N 619.324 -0.923095 1.27737 0
M  V30 6292 C 620.57 -1.67375 1.14514 0
M  V30 6293 C 620.903 -1.91751 -0.307424 0
M  V30 6294 O 620.178 -1.51119 -1.22447 0
M  V30 6295 C 620.461 -3.03745 1.9342 0
M  V30 6296 C 620.314 -2.86581 3.46686 0
M  V30 6297 C 621.633 -4.04144 1.74228 0
M  V30 6298 H 618.752 -0.607427 0.417374 0
M  V30 6299 H 621.394 -1.07089 1.56946 0
M  V30 6300 H 619.544 -3.55204 1.5736 0
M  V30 6301 H 621.216 -2.42203 3.92601 0
M  V30 6302 H 619.459 -2.21829 3.72793 0
M  V30 6303 H 620.13 -3.83381 3.97143 0
M  V30 6304 H 622.606 -3.61712 2.05678 0
M  V30 6305 H 621.482 -4.97543 2.31824 0
M  V30 6306 H 621.743 -4.36661 0.691373 0
M  V30 6307 N 620.802 -1.09834 -1.13024 0
M  V30 6308 C 622.027 -0.85909 -1.88771 0
M  V30 6309 C 622.452 0.584402 -1.78791 0
M  V30 6310 O 621.81 1.41101 -1.13842 0
M  V30 6311 C 621.858 -1.30427 -3.36186 0
M  V30 6312 O 620.962 -0.465368 -4.09766 0
M  V30 6313 H 620.303 -0.310786 -0.586778 0
M  V30 6314 H 622.833 -1.46355 -1.42973 0
M  V30 6315 H 622.843 -1.2915 -3.8702 0
M  V30 6316 H 621.518 -2.3555 -3.42767 0
M  V30 6317 H 620.095 -0.542814 -3.68928 0
M  V30 6318 N 622.28 1.30327 -0.886154 0
M  V30 6319 C 623.508 2.00254 -0.520176 0
M  V30 6320 C 623.923 1.66419 0.891637 0
M  V30 6321 O 623.28 0.901951 1.58654 0
M  V30 6322 C 623.331 3.54916 -0.686775 0
M  V30 6323 O 623.052 3.87547 -2.04301 0
M  V30 6324 C 624.553 4.42115 -0.323945 0
M  V30 6325 H 621.773 0.640204 -0.200947 0
M  V30 6326 H 624.317 1.66183 -1.19178 0
M  V30 6327 H 622.472 3.8735 -0.0625273 0
M  V30 6328 H 622.886 4.82247 -2.06249 0
M  V30 6329 H 624.36 5.49808 -0.491407 0
M  V30 6330 H 624.837 4.32953 0.73811 0
M  V30 6331 H 625.443 4.15129 -0.924565 0
M  V30 6332 N 623.758 0.647228 1.43697 0
M  V30 6333 C 625.006 0.157876 2.01482 0
M  V30 6334 C 625.327 -1.23039 1.51282 0
M  V30 6335 O 624.597 -1.82071 0.722982 0
M  V30 6336 H 623.177 0.0553745 0.744945 0
M  V30 6337 H 625.839 0.83755 1.75986 0
M  V30 6338 H 624.935 0.137895 3.11795 0
M  V30 6339 N 625.236 -1.5273 0.388769 0
M  V30 6340 C 626.647 -1.86505 -0.0853788 0
M  V30 6341 C 626.998 -1.30847 -1.46197 0
M  V30 6342 O 626.123 -0.639609 -2.06732 0
M  V30 6343 C 626.718 -3.38414 -0.161703 0
M  V30 6344 C 625.277 -3.71902 -0.580144 0
M  V30 6345 C 624.424 -2.76095 0.258218 0
M  V30 6346 H 627.375 -1.46647 0.606665 0
M  V30 6347 H 627.396 -3.67638 -0.980936 0
M  V30 6348 H 626.908 -3.78893 0.840333 0
M  V30 6349 H 625.009 -3.36992 -1.58957 0
M  V30 6350 H 625.122 -4.77902 -0.338663 0
M  V30 6351 H 623.486 -2.53195 -0.276432 0
M  V30 6352 H 624.269 -3.19411 1.25822 0
M  V30 6353 N 626.714 -0.118576 -1.57153 0
M  V30 6354 C 627.624 0.845484 -2.18835 0
M  V30 6355 C 628.64 1.29299 -1.16438 0
M  V30 6356 O 629.816 1.35607 -1.48905 0
M  V30 6357 C 626.881 2.07795 -2.77529 0
M  V30 6358 C 625.942 1.6824 -3.9496 0
M  V30 6359 C 625.175 2.85612 -4.50845 0
M  V30 6360 O 625.398 4.01025 -4.05629 0
M  V30 6361 O 624.332 2.62721 -5.41536 0
M  V30 6362 H 628.158 0.350568 -3.0167 0
M  V30 6363 H 625.743 0.107013 -1.49016 0
M  V30 6364 H 627.625 2.79978 -3.14945 0
M  V30 6365 H 626.3 2.56294 -1.97725 0
M  V30 6366 H 625.207 0.931663 -3.62313 0
M  V30 6367 H 626.54 1.24484 -4.76198 0
M  V30 6368 N 628.193 1.56834 0.155195 0
M  V30 6369 C 629.125 1.94235 1.21677 0
M  V30 6370 C 630.138 0.83724 1.39621 0
M  V30 6371 O 631.327 1.11567 1.39338 0
M  V30 6372 C 628.427 2.19402 2.58294 0
M  V30 6373 C 627.6 3.50671 2.61436 0
M  V30 6374 C 626.659 3.64475 3.79532 0
M  V30 6375 O 625.685 4.36945 3.64784 0
M  V30 6376 N 626.887 3.00526 4.96653 0
M  V30 6377 H 629.652 2.85901 0.898932 0
M  V30 6378 H 627.213 1.58185 0.34483 0
M  V30 6379 H 629.205 2.25886 3.35794 0
M  V30 6380 H 627.775 1.34042 2.82403 0
M  V30 6381 H 626.995 3.55702 1.69912 0
M  V30 6382 H 628.283 4.3702 2.60559 0
M  V30 6383 H 627.681 2.41549 5.11538 0
M  V30 6384 H 626.238 3.12583 5.71958 0
M  V30 6385 N 629.671 -0.424282 1.51781 0
M  V30 6386 C 631.087 -0.761768 1.40247 0
M  V30 6387 C 631.287 -1.95324 0.495041 0
M  V30 6388 O 630.343 -2.5246 -0.0448949 0
M  V30 6389 C 631.656 -1.0299 2.82513 0
M  V30 6390 C 633.204 -1.13354 2.91753 0
M  V30 6391 C 633.679 -1.43453 4.34954 0
M  V30 6392 N 635.17 -1.5035 4.3812 0
M  V30 6393 C 635.905 -1.75236 5.45967 0
M  V30 6394 N 635.401 -1.97827 6.63955 0
M  V30 6395 N 637.194 -1.77126 5.33463 0
M  V30 6396 H 629.345 0.360228 2.09323 0
M  V30 6397 H 631.608 0.0988128 0.942836 0
M  V30 6398 H 631.314 -0.226961 3.50967 0
M  V30 6399 H 631.188 -1.95411 3.22637 0
M  V30 6400 H 633.575 -1.92709 2.23489 0
M  V30 6401 H 633.656 -0.188041 2.55108 0
M  V30 6402 H 633.3 -0.646209 5.03772 0
M  V30 6403 H 633.23 -2.3923 4.69123 0
M  V30 6404 H 635.721 -1.34742 3.53062 0
M  V30 6405 H 636.034 -2.16223 7.41935 0
M  V30 6406 H 634.379 -1.95123 6.67047 0
M  V30 6407 H 637.57 -1.59005 4.40267 0
M  V30 6408 H 637.743 -1.96182 6.17589 0
M  V30 6409 N 631.149 -1.42148 -0.680565 0
M  V30 6410 C 632.059 -1.47565 -1.82378 0
M  V30 6411 C 633.075 -0.36489 -1.70131 0
M  V30 6412 O 634.251 -0.614916 -1.91783 0
M  V30 6413 C 631.316 -1.37013 -3.18478 0
M  V30 6414 C 630.377 -2.58532 -3.42724 0
M  V30 6415 C 629.61 -2.48473 -4.72331 0
M  V30 6416 O 629.833 -1.51745 -5.49845 0
M  V30 6417 O 628.767 -3.38503 -4.97694 0
M  V30 6418 H 632.593 -2.44045 -1.80764 0
M  V30 6419 H 630.178 -1.23849 -0.835569 0
M  V30 6420 H 632.06 -1.33468 -3.99705 0
M  V30 6421 H 630.735 -0.436552 -3.20743 0
M  V30 6422 H 629.642 -2.67652 -2.61368 0
M  V30 6423 H 630.975 -3.50769 -3.45286 0
M  V30 6424 N 632.627 0.916307 -1.28225 0
M  V30 6425 C 633.876 1.65975 -1.14608 0
M  V30 6426 C 634.189 1.93204 0.305191 0
M  V30 6427 O 635.395 2.65611 0.562432 0
M  V30 6428 C 633.851 2.98989 -2.00333 0
M  V30 6429 C 633.459 2.79417 -3.50186 0
M  V30 6430 C 635.203 3.76856 -1.95397 0
M  V30 6431 C 633.11 4.08056 -4.28071 0
M  V30 6432 H 632.04 0.622587 -0.425324 0
M  V30 6433 H 634.691 1.01705 -1.52736 0
M  V30 6434 H 633.073 3.6438 -1.5506 0
M  V30 6435 H 634.247 2.22723 -4.034 0
M  V30 6436 H 632.562 2.14966 -3.56621 0
M  V30 6437 H 635.159 4.72203 -2.50856 0
M  V30 6438 H 635.502 4.05776 -0.930137 0
M  V30 6439 H 636.035 3.1828 -2.38626 0
M  V30 6440 H 632.774 3.8431 -5.31024 0
M  V30 6441 H 632.294 4.64371 -3.79631 0
M  V30 6442 H 633.973 4.76333 -4.37854 0
M  V30 6443 N 634.105 1.10431 1.1244 0
M  V30 6444 C 635.516 0.864439 1.65482 0
M  V30 6445 C 635.867 -0.60527 1.8663 0
M  V30 6446 O 634.992 -1.46492 1.59276 0
M  V30 6447 C 635.587 1.56267 3.0061 0
M  V30 6448 C 634.146 1.3695 3.50602 0
M  V30 6449 C 633.293 1.61209 2.25626 0
M  V30 6450 H 636.244 1.26203 0.962209 0
M  V30 6451 H 636.265 1.00166 3.67079 0
M  V30 6452 H 635.777 2.63231 2.85186 0
M  V30 6453 H 633.878 0.321481 3.71211 0
M  V30 6454 H 633.991 2.11143 4.30064 0
M  V30 6455 H 632.355 1.03482 2.32731 0
M  V30 6456 H 633.138 2.69425 2.12756 0
M  V30 6457 N 635.583 -1.29855 0.893053 0
M  V30 6458 C 636.86 -1.90694 0.435336 0
M  V30 6459 C 637.24 -1.8111 -1.08454 0
M  V30 6460 O 636.588 -1.23352 -1.92345 0
M  V30 6461 C 636.798 -3.36033 0.942472 0
M  V30 6462 C 638.146 -4.13083 0.982226 0
M  V30 6463 O 639.17 -3.4491 0.889686 0
M  V30 6464 O 638.029 -5.34896 1.12022 0
M  V30 6465 H 635.123 -0.815978 0.134567 0
M  V30 6466 H 637.669 -1.38367 0.982484 0
M  V30 6467 H 636.441 -3.37132 1.9864 0
M  V30 6468 H 636.064 -3.95828 0.374952 0
M  V30 6469 N 637.061 -0.65484 -1.43351 0
M  V30 6470 C 638.307 -0.169142 -2.02093 0
M  V30 6471 C 638.64 1.21431 -1.51553 0
M  V30 6472 O 637.915 1.81105 -0.709317 0
M  V30 6473 C 638.198 -0.181775 -3.59641 0
M  V30 6474 C 638.051 -1.59926 -4.20409 0
M  V30 6475 C 639.37 0.480945 -4.37464 0
M  V30 6476 H 636.489 -0.0629371 -0.734308 0
M  V30 6477 H 639.131 -0.835833 -1.70628 0
M  V30 6478 H 637.281 0.385918 -3.86578 0
M  V30 6479 H 638.953 -2.21766 -4.04497 0
M  V30 6480 H 637.196 -2.14605 -3.76998 0
M  V30 6481 H 637.867 -1.55994 -5.295 0
M  V30 6482 H 640.343 -0.00208273 -4.161 0
M  V30 6483 H 639.219 0.441384 -5.47122 0
M  V30 6484 H 639.48 1.55533 -4.13838 0
M  V30 6485 N 638.539 1.52521 -0.396863 0
M  V30 6486 C 639.764 2.06571 0.185258 0
M  V30 6487 C 640.189 1.26605 1.39115 0
M  V30 6488 O 639.547 0.293055 1.78916 0
M  V30 6489 C 639.595 3.5674 0.526189 0
M  V30 6490 O 638.699 3.7929 1.61903 0
M  V30 6491 H 638.04 0.663712 0.0195474 0
M  V30 6492 H 640.57 1.966 -0.566519 0
M  V30 6493 H 640.58 4.00311 0.788338 0
M  V30 6494 H 639.255 4.14379 -0.355397 0
M  V30 6495 H 637.832 3.47605 1.35 0
M  V30 6496 N 640.017 0.126909 1.57088 0
M  V30 6497 C 641.245 -0.53667 1.99819 0
M  V30 6498 C 641.66 -1.5972 1.00673 0
M  V30 6499 O 641.017 -1.825 0.000747365 0
M  V30 6500 C 641.068 -1.15563 3.42531 0
M  V30 6501 O 640.789 -0.137483 4.37884 0
M  V30 6502 C 642.29 -1.90176 4.00435 0
M  V30 6503 H 639.51 -0.141443 0.655923 0
M  V30 6504 H 642.054 0.215578 2.03361 0
M  V30 6505 H 640.209 -1.85861 3.39904 0
M  V30 6506 H 640.623 -0.588229 5.21191 0
M  V30 6507 H 642.097 -2.28801 5.02349 0
M  V30 6508 H 642.574 -2.78002 3.40017 0
M  V30 6509 H 643.18 -1.24623 4.06632 0
M  V30 6510 N 641.495 -1.56914 -0.146875 0
M  V30 6511 C 642.425 -2.01308 -1.1831 0
M  V30 6512 C 643.406 -0.892664 -1.44795 0
M  V30 6513 O 644.591 -1.16048 -1.55713 0
M  V30 6514 C 641.721 -2.3938 -2.51624 0
M  V30 6515 C 640.675 -3.54608 -2.3966 0
M  V30 6516 C 640.001 -3.78493 -3.77686 0
M  V30 6517 C 641.301 -4.87269 -1.88058 0
M  V30 6518 H 642.995 -2.88123 -0.813964 0
M  V30 6519 H 640.541 -1.38615 -0.3901 0
M  V30 6520 H 642.494 -2.69037 -3.24341 0
M  V30 6521 H 641.218 -1.49502 -2.90373 0
M  V30 6522 H 639.877 -3.25116 -1.69396 0
M  V30 6523 H 639.525 -2.85866 -4.13871 0
M  V30 6524 H 639.225 -4.56039 -3.70543 0
M  V30 6525 H 640.749 -4.10576 -4.51951 0
M  V30 6526 H 642.163 -5.15644 -2.50568 0
M  V30 6527 H 640.56 -5.68622 -1.91805 0
M  V30 6528 H 641.63 -4.77634 -0.836277 0
M  V30 6529 N 642.974 0.416227 -1.52004 0
M  V30 6530 C 644.202 1.18573 -1.69553 0
M  V30 6531 C 644.617 1.84472 -0.401919 0
M  V30 6532 O 643.974 1.71593 0.621463 0
M  V30 6533 C 644.025 2.25413 -2.82615 0
M  V30 6534 O 643.746 1.62205 -4.06966 0
M  V30 6535 C 645.247 3.15297 -3.11613 0
M  V30 6536 H 642.467 0.356582 -0.56841 0
M  V30 6537 H 645.011 0.490618 -1.98528 0
M  V30 6538 H 643.166 2.90604 -2.56179 0
M  V30 6539 H 643.58 2.3298 -4.69916 0
M  V30 6540 H 645.054 3.86351 -3.94255 0
M  V30 6541 H 645.531 3.77264 -2.24874 0
M  V30 6542 H 646.137 2.55783 -3.39787 0
M  V30 6543 N 644.452 1.42507 0.673017 0
M  V30 6544 C 645.682 1.46261 1.45916 0
M  V30 6545 C 646.09 0.0729724 1.89059 0
M  V30 6546 O 645.433 -0.922987 1.58829 0
M  V30 6547 C 645.495 2.32853 2.73898 0
M  V30 6548 C 645.159 3.80699 2.52819 0
M  V30 6549 C 646.156 4.72307 2.17306 0
M  V30 6550 C 643.841 4.24983 2.67758 0
M  V30 6551 C 645.835 6.06192 1.97003 0
M  V30 6552 C 643.522 5.58927 2.4707 0
M  V30 6553 C 644.52 6.49348 2.11746 0
M  V30 6554 O 644.208 7.80817 1.91259 0
M  V30 6555 H 643.94 0.499561 0.455428 0
M  V30 6556 H 646.494 1.87697 0.834196 0
M  V30 6557 H 644.724 1.86268 3.38882 0
M  V30 6558 H 646.413 2.28041 3.35786 0
M  V30 6559 H 647.179 4.39378 2.05359 0
M  V30 6560 H 643.058 3.54893 2.94231 0
M  V30 6561 H 646.602 6.76731 1.69355 0
M  V30 6562 H 642.499 5.91429 2.58615 0
M  V30 6563 H 643.267 7.92194 2.05843 0
M  V30 6564 N 645.93 -0.909495 1.28709 0
M  V30 6565 C 646.893 -1.99399 1.13016 0
M  V30 6566 C 647.893 -1.60654 0.068536 0
M  V30 6567 O 649.083 -1.71334 0.314671 0
M  V30 6568 C 646.215 -3.33078 0.726085 0
M  V30 6569 H 647.408 -2.14751 2.09338 0
M  V30 6570 H 644.961 -1.09272 1.11756 0
M  V30 6571 H 645.696 -3.23428 -0.23771 0
M  V30 6572 H 645.481 -3.62562 1.49302 0
M  V30 6573 H 646.971 -4.12681 0.639058 0
M  V30 6574 N 647.408 -1.11026 -1.11852 0
M  V30 6575 C 648.318 -0.777252 -2.2135 0
M  V30 6576 C 649.334 0.227821 -1.72502 0
M  V30 6577 O 650.51 0.0650587 -2.01295 0
M  V30 6578 C 647.575 -0.220668 -3.45997 0
M  V30 6579 C 646.636 -1.2838 -4.09655 0
M  V30 6580 C 645.869 -0.753678 -5.28352 0
M  V30 6581 O 646.092 0.417779 -5.68868 0
M  V30 6582 O 645.026 -1.51647 -5.82483 0
M  V30 6583 H 648.852 -1.69141 -2.5224 0
M  V30 6584 H 646.437 -0.885836 -1.20305 0
M  V30 6585 H 648.319 0.0855756 -4.21313 0
M  V30 6586 H 646.994 0.666262 -3.16769 0
M  V30 6587 H 645.901 -1.64299 -3.3609 0
M  V30 6588 H 647.234 -2.14396 -4.43052 0
M  V30 6589 N 648.886 1.2938 -0.899927 0
M  V30 6590 C 649.849 2.25983 -0.382677 0
M  V30 6591 C 650.849 1.53366 0.483259 0
M  V30 6592 O 652.039 1.71798 0.28828 0
M  V30 6593 C 649.171 3.37878 0.452915 0
M  V30 6594 H 650.364 2.73252 -1.23586 0
M  V30 6595 H 647.917 1.40825 -0.678088 0
M  V30 6596 H 648.652 2.95949 1.32608 0
M  V30 6597 H 648.437 3.91742 -0.167562 0
M  V30 6598 H 649.927 4.09746 0.806107 0
M  V30 6599 N 650.364 0.662433 1.43002 0
M  V30 6600 C 651.61 0.179857 2.02001 0
M  V30 6601 C 651.943 -1.20625 1.52195 0
M  V30 6602 O 651.218 -1.80726 0.718911 0
M  V30 6603 C 651.501 0.200845 3.59539 0
M  V30 6604 C 651.354 1.62153 4.19555 0
M  V30 6605 C 652.673 -0.457738 4.37713 0
M  V30 6606 H 649.792 0.0668305 0.733964 0
M  V30 6607 H 652.434 0.84487 1.70182 0
M  V30 6608 H 650.584 -0.365411 3.86778 0
M  V30 6609 H 652.256 2.23908 4.03315 0
M  V30 6610 H 650.499 2.16601 3.75854 0
M  V30 6611 H 651.17 1.58799 5.28665 0
M  V30 6612 H 653.646 0.0241495 4.16093 0
M  V30 6613 H 652.522 -0.412363 5.47349 0
M  V30 6614 H 652.783 -1.53336 4.14657 0
M  V30 6615 N 651.842 -1.52309 0.404946 0
M  V30 6616 C 652.789 -2.26898 -0.422597 0
M  V30 6617 C 653.759 -1.2914 -1.04461 0
M  V30 6618 O 654.944 -1.57996 -1.06967 0
M  V30 6619 C 652.084 -3.09053 -1.53559 0
M  V30 6620 C 651.197 -4.21762 -0.934908 0
M  V30 6621 C 650.332 -4.91283 -2.02025 0
M  V30 6622 C 649.371 -5.95962 -1.39628 0
M  V30 6623 N 648.508 -6.59017 -2.42159 0
M  V30 6624 H 653.348 -2.97188 0.219903 0
M  V30 6625 H 650.885 -1.46607 0.120282 0
M  V30 6626 H 652.843 -3.54987 -2.19181 0
M  V30 6627 H 651.473 -2.40942 -2.14818 0
M  V30 6628 H 650.525 -3.80029 -0.167854 0
M  V30 6629 H 651.837 -4.96864 -0.439073 0
M  V30 6630 H 650.991 -5.40601 -2.75383 0
M  V30 6631 H 649.73 -4.15741 -2.54973 0
M  V30 6632 H 648.735 -5.45968 -0.648023 0
M  V30 6633 H 649.96 -6.73445 -0.874553 0
M  V30 6634 H 647.906 -5.86306 -2.94247 0
M  V30 6635 H 647.823 -7.2978 -1.97376 0
M  V30 6636 H 649.091 -7.12974 -3.15099 0
M  V30 6637 N 653.32 -0.135238 -1.57019 0
M  V30 6638 C 654.267 0.808908 -2.1616 0
M  V30 6639 C 655.237 1.25234 -1.09113 0
M  V30 6640 O 656.422 1.32697 -1.37099 0
M  V30 6641 C 653.562 2.04729 -2.77813 0
M  V30 6642 C 652.675 1.65074 -3.99218 0
M  V30 6643 C 651.81 2.84002 -4.48906 0
M  V30 6644 C 650.849 2.40663 -5.62803 0
M  V30 6645 N 649.986 3.5256 -6.07162 0
M  V30 6646 H 654.826 0.297751 -2.96509 0
M  V30 6647 H 652.363 0.135264 -1.46477 0
M  V30 6648 H 654.321 2.7731 -3.11697 0
M  V30 6649 H 652.951 2.53275 -2.00128 0
M  V30 6650 H 652.003 0.823029 -3.7139 0
M  V30 6651 H 653.315 1.29236 -4.81767 0
M  V30 6652 H 652.469 3.64788 -4.84783 0
M  V30 6653 H 651.208 3.23076 -3.65339 0
M  V30 6654 H 650.213 1.58314 -5.26514 0
M  V30 6655 H 651.438 2.02687 -6.48147 0
M  V30 6656 H 649.384 3.91278 -5.26534 0
M  V30 6657 H 649.301 3.20699 -6.84608 0
M  V30 6658 H 650.569 4.33738 -6.47682 0
M  V30 6659 N 654.798 1.5699 0.138552 0
M  V30 6660 C 655.728 2.01933 1.17241 0
M  V30 6661 C 656.709 0.90033 1.44319 0
M  V30 6662 O 657.894 1.16872 1.55095 0
M  V30 6663 C 655.024 2.40711 2.50351 0
M  V30 6664 C 653.978 3.55874 2.37776 0
M  V30 6665 C 653.304 3.80491 3.75674 0
M  V30 6666 C 654.604 4.8826 1.85472 0
M  V30 6667 H 656.298 2.88551 0.798672 0
M  V30 6668 H 653.844 1.3882 0.382743 0
M  V30 6669 H 655.797 2.70754 3.22909 0
M  V30 6670 H 654.521 1.5104 2.89576 0
M  V30 6671 H 653.18 3.2601 1.67669 0
M  V30 6672 H 652.828 2.88057 4.12349 0
M  V30 6673 H 652.528 4.57998 3.68119 0
M  V30 6674 H 654.052 4.12967 4.49767 0
M  V30 6675 H 655.466 5.16965 2.4783 0
M  V30 6676 H 653.863 5.69631 1.88787 0
M  V30 6677 H 654.933 4.78071 0.810935 0
M  V30 6678 N 656.276 -0.40816 1.52223 0
M  V30 6679 C 657.504 -1.17672 1.70179 0
M  V30 6680 C 657.919 -1.84257 0.411696 0
M  V30 6681 O 657.276 -1.7192 -0.612354 0
M  V30 6682 C 657.327 -2.23911 2.83806 0
M  V30 6683 O 657.048 -1.60044 4.0782 0
M  V30 6684 C 658.549 -3.1364 3.13281 0
M  V30 6685 H 655.769 -0.353562 0.570293 0
M  V30 6686 H 658.313 -0.480083 1.98785 0
M  V30 6687 H 656.468 -2.89242 2.57717 0
M  V30 6688 H 656.882 -2.30484 4.71145 0
M  V30 6689 H 658.356 -3.84255 3.96298 0
M  V30 6690 H 658.833 -3.76066 2.26872 0
M  V30 6691 H 659.439 -2.53977 3.41139 0
M  V30 6692 N 657.755 -1.42862 -0.66545 0
M  V30 6693 C 658.718 -1.46756 -1.76055 0
M  V30 6694 C 659.718 -0.353866 -1.56858 0
M  V30 6695 O 660.908 -0.615099 -1.62979 0
M  V30 6696 C 658.04 -1.30829 -3.14796 0
M  V30 6697 H 659.233 -2.44271 -1.73987 0
M  V30 6698 H 656.786 -1.29447 -0.875965 0
M  V30 6699 H 657.521 -0.342733 -3.22484 0
M  V30 6700 H 657.306 -2.11551 -3.30134 0
M  V30 6701 H 658.796 -1.36458 -3.94676 0
M  V30 6702 N 659.233 0.902656 -1.29189 0
M  V30 6703 C 660.196 1.98797 -1.14071 0
M  V30 6704 C 661.196 1.60615 -0.0770549 0
M  V30 6705 O 662.386 1.71165 -0.323753 0
M  V30 6706 C 659.518 3.32688 -0.743739 0
M  V30 6707 H 660.711 2.13637 -2.10473 0
M  V30 6708 H 658.264 1.08678 -1.12334 0
M  V30 6709 H 658.999 3.23549 0.220554 0
M  V30 6710 H 658.784 3.61765 -1.51223 0
M  V30 6711 H 660.274 4.12337 -0.660935 0
M  V30 6712 N 660.711 1.11618 1.11262 0
M  V30 6713 C 661.959 0.864469 1.82678 0
M  V30 6714 C 662.28 -0.611564 1.85162 0
M  V30 6715 O 661.55 -1.44429 1.32352 0
M  V30 6716 H 660.13 0.316821 0.676486 0
M  V30 6717 H 662.792 1.40894 1.34666 0
M  V30 6718 H 661.888 1.23832 2.86482 0
M  V30 6719 N 662.189 -1.289 0.906776 0
M  V30 6720 C 663.436 -1.95269 0.536326 0
M  V30 6721 C 663.764 -1.71435 -0.918711 0
M  V30 6722 O 663.019 -1.02431 -1.66752 0
M  V30 6723 C 663.318 -3.48704 0.783617 0
M  V30 6724 C 662.984 -3.92626 2.21711 0
M  V30 6725 C 661.646 -4.04329 2.60906 0
M  V30 6726 C 663.998 -4.15218 3.15029 0
M  V30 6727 C 661.326 -4.35998 3.92584 0
M  V30 6728 C 663.678 -4.48365 4.46264 0
M  V30 6729 C 662.342 -4.58278 4.85322 0
M  V30 6730 H 661.612 -0.714538 0.196256 0
M  V30 6731 H 664.259 -1.53366 1.14678 0
M  V30 6732 H 662.564 -3.91696 0.0903048 0
M  V30 6733 H 664.261 -3.98162 0.476267 0
M  V30 6734 H 660.851 -3.84038 1.90296 0
M  V30 6735 H 665.035 -4.05636 2.8596 0
M  V30 6736 H 660.291 -4.41878 4.22557 0
M  V30 6737 H 664.465 -4.64795 5.18593 0
M  V30 6738 H 662.092 -4.82573 5.87391 0
M  V30 6739 N 663.667 -0.670007 -1.42649 0
M  V30 6740 C 664.915 -0.18991 -2.01206 0
M  V30 6741 C 665.236 1.20617 -1.53221 0
M  V30 6742 O 664.506 1.80898 -0.751856 0
M  V30 6743 H 663.086 -0.0672189 -0.743969 0
M  V30 6744 H 665.748 -0.865442 -1.74631 0
M  V30 6745 H 664.844 -0.187481 -3.11536 0
M  V30 6746 N 665.145 1.52092 -0.413018 0
M  V30 6747 C 666.561 1.59471 -0.0640836 0
M  V30 6748 C 666.761 1.42562 1.42402 0
M  V30 6749 O 665.817 1.25453 2.19129 0
M  V30 6750 C 667.13 2.95392 -0.562474 0
M  V30 6751 C 668.678 3.08637 -0.520788 0
M  V30 6752 C 669.153 4.47044 -0.995752 0
M  V30 6753 N 670.644 4.53296 -0.952732 0
M  V30 6754 C 671.379 5.58669 -1.29138 0
M  V30 6755 N 670.875 6.71576 -1.70168 0
M  V30 6756 N 672.668 5.48898 -1.2111 0
M  V30 6757 H 664.819 1.6133 -1.38153 0
M  V30 6758 H 667.082 0.75916 -0.567785 0
M  V30 6759 H 666.788 3.13059 -1.60271 0
M  V30 6760 H 666.662 3.77191 0.0257875 0
M  V30 6761 H 669.049 2.90652 0.510412 0
M  V30 6762 H 669.13 2.28735 -1.14515 0
M  V30 6763 H 668.774 4.65773 -2.0253 0
M  V30 6764 H 668.704 5.25448 -0.348162 0
M  V30 6765 H 671.195 3.72248 -0.651119 0
M  V30 6766 H 671.508 7.47973 -1.9431 0
M  V30 6767 H 669.853 6.72847 -1.74075 0
M  V30 6768 H 673.044 4.59573 -0.889396 0
M  V30 6769 H 673.217 6.30912 -1.47833 0
M  V30 6770 N 666.623 0.143563 1.56945 0
M  V30 6771 C 667.87 -0.508407 1.96014 0
M  V30 6772 C 668.198 -1.65099 1.02824 0
M  V30 6773 O 667.453 -1.95618 0.0567764 0
M  V30 6774 C 667.752 -1.05885 3.41355 0
M  V30 6775 C 667.418 -0.0350809 4.50886 0
M  V30 6776 C 666.08 0.246362 4.80569 0
M  V30 6777 C 668.432 0.661282 5.16988 0
M  V30 6778 C 665.76 1.23003 5.73661 0
M  V30 6779 C 668.112 1.63375 6.11139 0
M  V30 6780 C 666.776 1.92292 6.39203 0
M  V30 6781 H 666.046 -0.186039 0.717266 0
M  V30 6782 H 668.693 0.229667 1.90118 0
M  V30 6783 H 666.998 -1.87419 3.44066 0
M  V30 6784 H 668.695 -1.57183 3.6891 0
M  V30 6785 H 665.285 -0.264622 4.27782 0
M  V30 6786 H 669.469 0.457038 4.94191 0
M  V30 6787 H 664.725 1.46056 5.93698 0
M  V30 6788 H 668.899 2.17887 6.61436 0
M  V30 6789 H 666.526 2.68666 7.11142 0
M  V30 6790 N 668.101 -1.57061 -0.130224 0
M  V30 6791 C 669.048 -1.99517 -1.16024 0
M  V30 6792 C 670.018 -0.865452 -1.41771 0
M  V30 6793 O 671.203 -1.12882 -1.53826 0
M  V30 6794 C 668.343 -2.3951 -2.48453 0
M  V30 6795 C 667.456 -3.65848 -2.29737 0
M  V30 6796 C 666.591 -3.9487 -3.55318 0
M  V30 6797 C 665.63 -5.14426 -3.31711 0
M  V30 6798 N 664.767 -5.39375 -4.49466 0
M  V30 6799 H 669.607 -2.87305 -0.791194 0
M  V30 6800 H 667.144 -1.42129 -0.379195 0
M  V30 6801 H 669.102 -2.60731 -3.25692 0
M  V30 6802 H 667.732 -1.54779 -2.83272 0
M  V30 6803 H 666.784 -3.52307 -1.4347 0
M  V30 6804 H 668.096 -4.53241 -2.08263 0
M  V30 6805 H 667.25 -4.16679 -4.4098 0
M  V30 6806 H 665.989 -3.05931 -3.79813 0
M  V30 6807 H 664.994 -4.92473 -2.44439 0
M  V30 6808 H 666.219 -6.04933 -3.08598 0
M  V30 6809 H 664.165 -4.53391 -4.74102 0
M  V30 6810 H 664.082 -6.21069 -4.31055 0
M  V30 6811 H 665.35 -5.65694 -5.36293 0
M  V30 6812 N 669.579 0.400081 -1.52437 0
M  V30 6813 C 670.511 1.50729 -1.72666 0
M  V30 6814 C 671.524 1.51058 -0.607075 0
M  V30 6815 O 672.713 1.5516 -0.88248 0
M  V30 6816 C 669.813 2.89604 -1.76019 0
M  V30 6817 C 668.986 3.13365 -3.05157 0
M  V30 6818 C 668.045 4.32163 -3.00203 0
M  V30 6819 O 667.071 4.29004 -3.74092 0
M  V30 6820 N 668.273 5.3776 -2.18619 0
M  V30 6821 H 671.038 1.33767 -2.68191 0
M  V30 6822 H 668.599 0.58948 -1.50787 0
M  V30 6823 H 670.591 3.67159 -1.70225 0
M  V30 6824 H 669.161 2.99979 -0.879284 0
M  V30 6825 H 668.381 2.23774 -3.24529 0
M  V30 6826 H 669.669 3.26089 -3.90568 0
M  V30 6827 H 669.067 5.43177 -1.58035 0
M  V30 6828 H 667.624 6.14023 -2.18674 0
M  V30 6829 N 671.057 1.43213 0.657864 0
M  V30 6830 C 672.02 1.47687 1.75275 0
M  V30 6831 C 673.02 0.362179 1.56668 0
M  V30 6832 O 674.21 0.623734 1.62651 0
M  V30 6833 C 671.342 1.32497 3.14098 0
M  V30 6834 H 672.535 2.4519 1.7269 0
M  V30 6835 H 670.088 1.2991 0.869087 0
M  V30 6836 H 670.823 0.359831 3.22298 0
M  V30 6837 H 670.608 2.13299 3.29008 0
M  V30 6838 H 672.098 1.38549 3.93946 0
M  V30 6839 N 672.536 -0.895792 1.29666 0
M  V30 6840 C 673.484 -2.02173 1.15017 0
M  V30 6841 C 674.478 -1.69276 0.0647651 0
M  V30 6842 O 675.684 -1.7859 0.224846 0
M  V30 6843 H 672.059 -0.662719 0.355397 0
M  V30 6844 H 674.03 -2.11666 2.10334 0
M  V30 6845 C 672.779 -3.37212 0.847555 0
M  V30 6846 H 672.102 -3.6303 1.67479 0
M  V30 6847 H 673.542 -4.16668 0.785106 0
M  V30 6848 C 672.001 -3.33891 -0.44929 0
M  V30 6849 O 672.531 -3.73673 -1.47415 0
M  V30 6850 N 670.737 -2.86991 -0.456547 0
M  V30 6851 H 670.284 -2.54813 0.377925 0
M  V30 6852 H 670.242 -2.85152 -1.32423 0
M  V30 6853 N 674.014 -1.12206 -1.10668 0
M  V30 6854 C 675.239 -0.898938 -1.86906 0
M  V30 6855 C 675.664 0.546346 -1.79991 0
M  V30 6856 O 675.022 1.38655 -1.1681 0
M  V30 6857 C 675.07 -1.37529 -3.33344 0
M  V30 6858 O 674.174 -0.55218 -4.08687 0
M  V30 6859 H 673.515 -0.323163 -0.580053 0
M  V30 6860 H 676.045 -1.49355 -1.39837 0
M  V30 6861 H 676.055 -1.3733 -3.84193 0
M  V30 6862 H 674.73 -2.42767 -3.37693 0
M  V30 6863 H 673.307 -0.620947 -3.67694 0
M  V30 6864 N 675.492 1.28418 -0.913599 0
M  V30 6865 C 676.903 1.77024 -0.593237 0
M  V30 6866 C 677.254 1.74779 0.891441 0
M  V30 6867 O 676.379 1.34237 1.69733 0
M  V30 6868 C 676.974 3.21456 -1.07011 0
M  V30 6869 C 675.533 3.67786 -0.800664 0
M  V30 6870 C 674.68 2.48185 -1.23691 0
M  V30 6871 H 677.631 1.14883 -1.09487 0
M  V30 6872 H 677.652 3.78269 -0.411481 0
M  V30 6873 H 677.164 3.23058 -2.1507 0
M  V30 6874 H 675.265 3.71644 0.266725 0
M  V30 6875 H 675.378 4.57934 -1.4083 0
M  V30 6876 H 673.742 2.46116 -0.655655 0
M  V30 6877 H 674.525 2.52506 -2.32585 0
M  V30 6878 N 676.97 0.677563 1.42291 0
M  V30 6879 C 678.195 0.207901 2.06355 0
M  V30 6880 C 678.62 -1.12723 1.50583 0
M  V30 6881 O 677.978 -1.70171 0.62543 0
M  V30 6882 C 678.026 0.156489 3.6026 0
M  V30 6883 O 677.13 -0.874162 4.03029 0
M  V30 6884 H 676.471 0.106056 0.655475 0
M  V30 6885 H 679.001 0.927354 1.82377 0
M  V30 6886 H 679.011 -0.0187258 4.07996 0
M  V30 6887 H 677.686 1.13101 4.00226 0
M  V30 6888 H 676.263 -0.669764 3.66836 0
M  V30 6889 N 678.448 -1.51871 0.421078 0
M  V30 6890 C 679.676 -2.06356 -0.14994 0
M  V30 6891 C 680.091 -1.29006 -1.37851 0
M  V30 6892 O 679.448 -0.345139 -1.79207 0
M  V30 6893 C 679.499 -3.58185 -0.488454 0
M  V30 6894 O 679.22 -4.32611 0.691341 0
M  V30 6895 C 680.721 -4.29129 -1.11191 0
M  V30 6896 H 677.941 -0.67083 -0.0151186 0
M  V30 6897 H 680.485 -1.95638 0.595476 0
M  V30 6898 H 678.64 -3.68871 -1.18376 0
M  V30 6899 H 679.054 -5.22927 0.405906 0
M  V30 6900 H 680.528 -5.36501 -1.29889 0
M  V30 6901 H 681.005 -3.86371 -2.0884 0
M  V30 6902 H 681.611 -4.22843 -0.456458 0
M  V30 6903 N 679.926 -0.151884 -1.56866 0
M  V30 6904 C 681.337 0.368128 -1.83035 0
M  V30 6905 C 681.688 1.64402 -1.07082 0
M  V30 6906 O 680.813 2.14056 -0.317647 0
M  V30 6907 C 681.408 0.674676 -3.32014 0
M  V30 6908 C 679.967 1.13919 -3.58747 0
M  V30 6909 C 679.114 0.164833 -2.7681 0
M  V30 6910 H 682.065 -0.376499 -1.54169 0
M  V30 6911 H 682.086 1.52883 -3.48435 0
M  V30 6912 H 681.598 -0.254113 -3.87267 0
M  V30 6913 H 679.699 2.08375 -3.08886 0
M  V30 6914 H 679.812 1.06179 -4.67186 0
M  V30 6915 H 678.176 0.658419 -2.46043 0
M  V30 6916 H 678.959 -0.757633 -3.34836 0
M  V30 6917 N 681.404 1.57128 0.121893 0
M  V30 6918 C 682.314 2.03425 1.16857 0
M  V30 6919 C 683.33 0.954108 1.45509 0
M  V30 6920 O 684.506 1.26541 1.56682 0
M  V30 6921 C 681.571 2.42685 2.47599 0
M  V30 6922 C 680.632 3.64767 2.2637 0
M  V30 6923 C 679.865 4.02145 3.50878 0
M  V30 6924 O 680.088 3.39897 4.58068 0
M  V30 6925 O 679.022 4.95262 3.42051 0
M  V30 6926 H 682.848 2.92825 0.80544 0
M  V30 6927 H 680.433 1.45654 0.332477 0
M  V30 6928 H 682.315 2.68684 3.24634 0
M  V30 6929 H 680.99 1.56432 2.83392 0
M  V30 6930 H 679.897 3.43922 1.47203 0
M  V30 6931 H 681.23 4.51716 1.95482 0
M  V30 6932 N 682.882 -0.391992 1.52647 0
M  V30 6933 C 683.812 -1.48517 1.8018 0
M  V30 6934 C 684.793 -1.57039 0.653667 0
M  V30 6935 O 685.978 -1.72036 0.900962 0
M  V30 6936 C 683.108 -2.86161 1.96797 0
M  V30 6937 C 682.062 -2.92481 3.12472 0
M  V30 6938 C 681.388 -4.32546 3.14338 0
M  V30 6939 C 682.688 -2.624 4.51601 0
M  V30 6940 H 684.382 -1.25726 2.71723 0
M  V30 6941 H 681.928 -0.603387 1.30749 0
M  V30 6942 H 683.881 -3.62639 2.14641 0
M  V30 6943 H 682.605 -3.10283 1.01941 0
M  V30 6944 H 681.264 -2.18451 2.94406 0
M  V30 6945 H 680.912 -4.53703 2.1717 0
M  V30 6946 H 680.612 -4.37695 3.92042 0
M  V30 6947 H 682.136 -5.10934 3.34333 0
M  V30 6948 H 683.55 -3.28596 4.69785 0
M  V30 6949 H 681.947 -2.78903 5.3135 0
M  V30 6950 H 683.017 -1.57754 4.58521 0
M  V30 6951 N 684.36 -1.4356 -0.65026 0
M  V30 6952 C 685.606 -1.45549 -1.41221 0
M  V30 6953 C 685.939 -0.0805472 -1.94033 0
M  V30 6954 O 685.214 0.899043 -1.72475 0
M  V30 6955 C 685.497 -2.50028 -2.59148 0
M  V30 6956 C 685.35 -3.96808 -2.1181 0
M  V30 6957 C 686.669 -2.51212 -3.61359 0
M  V30 6958 H 683.788 -0.529967 -0.512156 0
M  V30 6959 H 686.43 -1.75127 -0.736933 0
M  V30 6960 H 684.58 -2.24937 -3.16758 0
M  V30 6961 H 686.252 -4.32966 -1.59178 0
M  V30 6962 H 684.495 -4.09498 -1.43156 0
M  V30 6963 H 685.166 -4.6553 -2.96625 0
M  V30 6964 H 687.642 -2.73583 -3.13515 0
M  V30 6965 H 686.518 -3.26252 -4.41419 0
M  V30 6966 H 686.779 -1.54701 -4.1415 0
M  V30 6967 N 685.838 0.888903 -1.30139 0
M  V30 6968 C 687.086 1.63713 -1.18501 0
M  V30 6969 C 687.407 1.9324 0.261399 0
M  V30 6970 O 686.677 1.56608 1.17689 0
M  V30 6971 H 685.257 0.606861 -0.435579 0
M  V30 6972 H 687.919 1.06525 -1.63213 0
M  V30 6973 H 687.015 2.58894 -1.743 0
M  V30 6974 N 687.317 1.12792 1.10072 0
M  V30 6975 C 688.264 0.79921 2.16521 0
M  V30 6976 C 689.234 -0.235726 1.64419 0
M  V30 6977 O 690.419 -0.109457 1.90486 0
M  V30 6978 C 687.559 0.264091 3.44088 0
M  V30 6979 C 686.672 1.35729 4.10124 0
M  V30 6980 C 685.807 0.781212 5.25424 0
M  V30 6981 C 684.846 1.85327 5.8337 0
M  V30 6982 N 683.983 1.29564 6.90042 0
M  V30 6983 H 688.823 1.71105 2.43981 0
M  V30 6984 H 686.36 0.854225 1.19756 0
M  V30 6985 H 688.318 -0.0642423 4.17151 0
M  V30 6986 H 686.948 -0.610901 3.16967 0
M  V30 6987 H 686 1.80234 3.34993 0
M  V30 6988 H 687.312 2.16782 4.4923 0
M  V30 6989 H 686.466 0.403769 6.05355 0
M  V30 6990 H 685.205 -0.0604686 4.87663 0
M  V30 6991 H 684.21 2.23986 5.02106 0
M  V30 6992 H 685.435 2.69824 6.23195 0
M  V30 6993 H 683.381 0.475844 6.54272 0
M  V30 6994 H 683.298 2.04271 7.2788 0
M  V30 6995 H 684.566 0.945545 7.73744 0
M  V30 6996 N 688.795 -1.27931 0.920396 0
M  V30 6997 C 690.041 -1.94977 0.557832 0
M  V30 6998 C 690.374 -1.72224 -0.897365 0
M  V30 6999 O 689.649 -1.04705 -1.63912 0
M  V30 7000 C 689.932 -3.49289 0.875741 0
M  V30 7001 C 689.785 -3.81416 2.38416 0
M  V30 7002 C 691.104 -4.38486 0.376517 0
M  V30 7003 H 688.223 -0.708164 0.20414 0
M  V30 7004 H 690.865 -1.5118 1.15085 0
M  V30 7005 H 689.015 -3.86724 0.371062 0
M  V30 7006 H 690.687 -3.53813 2.95997 0
M  V30 7007 H 688.93 -3.28225 2.83639 0
M  V30 7008 H 689.601 -4.89198 2.55713 0
M  V30 7009 H 692.077 -4.08161 0.808945 0
M  V30 7010 H 690.953 -5.45296 0.627976 0
M  V30 7011 H 691.214 -4.36143 -0.723293 0
M  V30 7012 N 690.273 -0.685099 -1.4193 0
M  V30 7013 C 691.522 -0.208816 -2.00616 0
M  V30 7014 C 691.835 1.19506 -1.54847 0
M  V30 7015 O 693.041 1.76826 -2.06021 0
M  V30 7016 C 691.497 -0.322446 -3.58453 0
M  V30 7017 C 691.105 -1.73102 -4.13206 0
M  V30 7018 C 692.849 0.0945979 -4.24395 0
M  V30 7019 C 690.756 -1.79687 -5.63442 0
M  V30 7020 H 689.686 -0.0743092 -0.750329 0
M  V30 7021 H 692.337 -0.851778 -1.62533 0
M  V30 7022 H 690.719 0.388588 -3.94089 0
M  V30 7023 H 691.893 -2.46997 -3.8901 0
M  V30 7024 H 690.208 -2.09682 -3.59753 0
M  V30 7025 H 692.805 0.0656937 -5.3466 0
M  V30 7026 H 693.148 1.1316 -4.00625 0
M  V30 7027 H 693.681 -0.56579 -3.93756 0
M  V30 7028 H 690.42 -2.81404 -5.92024 0
M  V30 7029 H 689.94 -1.10162 -5.89597 0
M  V30 7030 H 691.619 -1.55498 -6.28036 0
M  V30 7031 N 691.751 1.51645 -0.429126 0
M  V30 7032 C 692.999 2.01616 0.139802 0
M  V30 7033 C 693.32 1.31568 1.43927 0
M  V30 7034 O 692.59 0.447688 1.90716 0
M  V30 7035 H 691.17 0.744998 0.054654 0
M  V30 7036 H 693.832 1.8638 -0.569952 0
M  V30 7037 H 692.928 3.10439 0.321609 0
M  V30 7038 N 693.229 0.160201 1.56784 0
M  V30 7039 C 694.457 -0.494165 2.00912 0
M  V30 7040 C 694.872 -1.57548 1.04038 0
M  V30 7041 O 694.229 -1.82457 0.0394581 0
M  V30 7042 C 694.28 -1.08271 3.44905 0
M  V30 7043 O 694.001 -0.0445704 4.38077 0
M  V30 7044 C 695.502 -1.8164 4.04378 0
M  V30 7045 H 692.722 -0.127498 0.658776 0
M  V30 7046 H 695.266 0.258665 2.02858 0
M  V30 7047 H 693.421 -1.78609 3.4377 0
M  V30 7048 H 693.835 -0.477544 5.22322 0
M  V30 7049 H 695.309 -2.18094 5.07089 0
M  V30 7050 H 695.786 -2.70727 3.45838 0
M  V30 7051 H 696.392 -1.15969 4.09184 0
M  V30 7052 N 694.707 -1.5719 -0.113559 0
M  V30 7053 C 695.655 -2.01725 -1.158 0
M  V30 7054 C 696.649 -0.915105 -1.42556 0
M  V30 7055 O 697.855 -1.10031 -1.42454 0
M  V30 7056 H 694.23 -0.64262 -0.390569 0
M  V30 7057 H 696.201 -2.88666 -0.755926 0
M  V30 7058 C 694.95 -2.44203 -2.47507 0
M  V30 7059 H 694.273 -3.28582 -2.27758 0
M  V30 7060 H 695.713 -2.79158 -3.19135 0
M  V30 7061 C 694.172 -1.30785 -3.10478 0
M  V30 7062 O 694.702 -0.626807 -3.9678 0
M  V30 7063 N 692.908 -1.06352 -2.7044 0
M  V30 7064 H 692.455 -1.61913 -2.00355 0
M  V30 7065 H 692.413 -0.306614 -3.12901 0
M  V30 7066 N 696.185 0.383891 -1.52853 0
M  V30 7067 C 697.596 0.961591 -1.60032 0
M  V30 7068 C 697.947 1.90819 -0.456333 0
M  V30 7069 O 697.072 2.12288 0.419873 0
M  V30 7070 C 697.667 1.75078 -2.90057 0
M  V30 7071 C 696.226 2.2781 -2.99632 0
M  V30 7072 C 695.373 1.08512 -2.55187 0
M  V30 7073 H 698.324 0.163269 -1.57858 0
M  V30 7074 H 698.345 2.61046 -2.7683 0
M  V30 7075 H 697.857 1.06157 -3.73299 0
M  V30 7076 H 695.958 3.00028 -2.20939 0
M  V30 7077 H 696.071 2.56947 -4.0437 0
M  V30 7078 H 694.435 1.44667 -2.09627 0
M  V30 7079 H 695.218 0.41118 -3.40829 0
M  V30 7080 N 697.663 1.43903 0.642637 0
M  V30 7081 C 699.074 1.40975 1.22404 0
M  V30 7082 C 699.425 0.1192 1.95838 0
M  V30 7083 O 698.55 -0.780939 2.01818 0
M  V30 7084 C 699.145 2.5538 2.22636 0
M  V30 7085 C 697.704 2.55684 2.76229 0
M  V30 7086 C 696.851 2.32556 1.51039 0
M  V30 7087 H 699.802 1.5265 0.434006 0
M  V30 7088 H 699.823 2.27474 3.05017 0
M  V30 7089 H 699.335 3.49294 1.69161 0
M  V30 7090 H 697.436 1.65679 3.33738 0
M  V30 7091 H 697.549 3.53799 3.23053 0
M  V30 7092 H 695.913 1.81427 1.78764 0
M  V30 7093 H 696.696 3.28569 0.99484 0
M  V30 7094 N 699.141 -0.881989 1.30609 0
M  V30 7095 C 700.104 -1.96957 1.1722 0
M  V30 7096 C 701.104 -1.60472 0.102598 0
M  V30 7097 O 702.294 -1.70628 0.350943 0
M  V30 7098 C 699.426 -3.31463 0.796572 0
M  V30 7099 H 700.619 -2.10262 2.13846 0
M  V30 7100 H 698.172 -1.06877 1.14048 0
M  V30 7101 H 698.907 -3.23859 -0.169053 0
M  V30 7102 H 698.692 -3.59314 1.56959 0
M  V30 7103 H 700.182 -4.11233 0.72645 0
M  V30 7104 N 700.619 -1.13374 -1.09472 0
M  V30 7105 C 701.567 -0.806105 -2.18185 0
M  V30 7106 C 702.561 0.21136 -1.68076 0
M  V30 7107 O 703.767 0.0685558 -1.79869 0
M  V30 7108 H 700.142 -0.242901 -0.71169 0
M  V30 7109 H 702.113 -1.73115 -2.43051 0
M  V30 7110 C 700.862 -0.287928 -3.46506 0
M  V30 7111 H 700.185 -1.06217 -3.85432 0
M  V30 7112 H 701.625 -0.0971054 -4.23889 0
M  V30 7113 C 700.084 0.986256 -3.22141 0
M  V30 7114 O 700.614 2.06217 -3.44728 0
M  V30 7115 N 698.82 0.917153 -2.75747 0
M  V30 7116 H 698.367 0.0414609 -2.57567 0
M  V30 7117 H 698.325 1.77029 -2.59823 0
M  V30 7118 N 702.098 1.27442 -0.927168 0
M  V30 7119 C 703.03 2.25975 -0.383158 0
M  V30 7120 C 704.043 1.55382 0.485832 0
M  V30 7121 O 705.232 1.75986 0.298541 0
M  V30 7122 C 702.332 3.35629 0.469688 0
M  V30 7123 C 701.505 4.35747 -0.379886 0
M  V30 7124 C 700.564 5.24598 0.410227 0
M  V30 7125 O 699.59 5.68909 -0.181888 0
M  V30 7126 N 700.792 5.54737 1.71017 0
M  V30 7127 H 703.557 2.7329 -1.23015 0
M  V30 7128 H 701.118 1.41063 -0.794539 0
M  V30 7129 H 703.11 3.92015 1.00532 0
M  V30 7130 H 701.68 2.87919 1.21744 0
M  V30 7131 H 700.9 3.78634 -1.09682 0
M  V30 7132 H 702.188 4.99648 -0.960717 0
M  V30 7133 H 701.586 5.20594 2.21356 0
M  V30 7134 H 700.143 6.13824 2.19234 0
M  V30 7135 N 703.576 0.692616 1.41565 0
M  V30 7136 C 704.804 0.231279 2.05603 0
M  V30 7137 C 705.219 -1.11837 1.52111 0
M  V30 7138 O 704.576 -1.6983 0.66813 0
M  V30 7139 C 704.627 0.177125 3.61066 0
M  V30 7140 O 704.348 1.47346 4.12578 0
M  V30 7141 C 705.849 -0.30556 4.42246 0
M  V30 7142 H 703.069 0.108238 0.662213 0
M  V30 7143 H 705.613 0.944369 1.81389 0
M  V30 7144 H 703.768 -0.486769 3.8433 0
M  V30 7145 H 704.182 1.35861 5.06599 0
M  V30 7146 H 705.656 -0.29233 5.51225 0
M  V30 7147 H 706.133 -1.34393 4.18133 0
M  V30 7148 H 706.739 0.327229 4.24039 0
M  V30 7149 N 705.054 -1.51416 0.437162 0
M  V30 7150 C 706.279 -2.0699 -0.130424 0
M  V30 7151 C 706.704 -1.30249 -1.35709 0
M  V30 7152 O 706.062 -0.340388 -1.78076 0
M  V30 7153 C 706.11 -3.5801 -0.43142 0
M  V30 7154 O 705.214 -3.8345 -1.5179 0
M  V30 7155 H 704.555 -0.663997 -0.00194339 0
M  V30 7156 H 707.085 -1.95029 0.618445 0
M  V30 7157 H 707.095 -4.02261 -0.681926 0
M  V30 7158 H 705.77 -4.13291 0.465137 0
M  V30 7159 H 704.347 -3.51062 -1.25737 0
M  V30 7160 N 706.532 -0.168513 -1.56696 0
M  V30 7161 C 707.495 0.748928 -2.16619 0
M  V30 7162 C 708.495 1.16007 -1.11351 0
M  V30 7163 O 709.685 1.07748 -1.3688 0
M  V30 7164 C 706.817 2.01904 -2.74677 0
M  V30 7165 H 708.01 0.227317 -2.99037 0
M  V30 7166 H 705.563 0.0810372 -1.5609 0
M  V30 7167 H 706.298 2.58381 -1.95985 0
M  V30 7168 H 706.083 1.73323 -3.51712 0
M  V30 7169 H 707.573 2.67383 -3.20774 0
M  V30 7170 N 708.01 1.57248 0.105221 0
M  V30 7171 C 709.259 1.84756 0.809198 0
M  V30 7172 C 709.572 0.756262 1.80389 0
M  V30 7173 O 710.778 0.918158 2.55504 0
M  V30 7174 C 709.234 3.27613 1.48989 0
M  V30 7175 C 708.842 4.44788 0.535484 0
M  V30 7176 C 710.586 3.64356 2.17819 0
M  V30 7177 C 708.493 5.78676 1.22019 0
M  V30 7178 H 707.423 0.689139 0.305946 0
M  V30 7179 H 710.074 1.83395 0.0620371 0
M  V30 7180 H 708.456 3.23485 2.28415 0
M  V30 7181 H 709.63 4.60243 -0.226557 0
M  V30 7182 H 707.945 4.16374 -0.0465769 0
M  V30 7183 H 710.542 4.61663 2.69761 0
M  V30 7184 H 710.885 2.92474 2.96251 0
M  V30 7185 H 711.418 3.70328 1.45264 0
M  V30 7186 H 708.157 6.53763 0.476875 0
M  V30 7187 H 707.677 5.67083 1.9539 0
M  V30 7188 H 709.356 6.22897 1.74952 0
M  V30 7189 N 709.488 -0.375779 1.53054 0
M  V30 7190 C 710.716 -1.14036 1.72637 0
M  V30 7191 C 711.131 -1.83342 0.450687 0
M  V30 7192 O 710.488 -1.7318 -0.575749 0
M  V30 7193 C 710.539 -2.17841 2.88492 0
M  V30 7194 O 710.26 -1.51358 4.11123 0
M  V30 7195 C 711.761 -3.06924 3.19863 0
M  V30 7196 H 708.981 -0.341386 0.577665 0
M  V30 7197 H 711.525 -0.437809 1.99759 0
M  V30 7198 H 709.68 -2.8371 2.63794 0
M  V30 7199 H 710.094 -2.20439 4.75928 0
M  V30 7200 H 711.568 -3.75763 4.04359 0
M  V30 7201 H 712.045 -3.71169 2.34798 0
M  V30 7202 H 712.651 -2.46684 3.46449 0
M  V30 7203 N 710.966 -1.44241 -0.634997 0
M  V30 7204 C 711.914 -1.51103 -1.76835 0
M  V30 7205 C 712.908 -0.383051 -1.65012 0
M  V30 7206 O 714.114 -0.557832 -1.71138 0
M  V30 7207 H 710.489 -0.474076 -0.583743 0
M  V30 7208 H 712.46 -2.46499 -1.68169 0
M  V30 7209 C 711.209 -1.4687 -3.15158 0
M  V30 7210 H 710.532 -2.32979 -3.24901 0
M  V30 7211 H 711.972 -1.55731 -3.94365 0
M  V30 7212 C 710.431 -0.188884 -3.3637 0
M  V30 7213 O 710.961 0.742487 -3.94778 0
M  V30 7214 N 709.167 -0.0932516 -2.9045 0
M  V30 7215 H 708.714 -0.852004 -2.43102 0
M  V30 7216 H 708.672 0.762308 -3.05018 0
M  V30 7217 N 712.444 0.87505 -1.31075 0
M  V30 7218 C 713.69 1.63009 -1.20647 0
M  V30 7219 C 714.023 1.9276 0.236045 0
M  V30 7220 O 713.298 1.55559 1.16754 0
M  V30 7221 C 713.581 2.96357 -2.0456 0
M  V30 7222 C 713.434 2.73516 -3.57084 0
M  V30 7223 C 714.753 3.974 -1.89107 0
M  V30 7224 H 711.872 0.591518 -0.439631 0
M  V30 7225 H 714.514 1.0119 -1.60812 0
M  V30 7226 H 712.664 3.49119 -1.70435 0
M  V30 7227 H 714.336 2.27465 -4.01319 0
M  V30 7228 H 712.579 2.0784 -3.80769 0
M  V30 7229 H 713.25 3.68377 -4.11099 0
M  V30 7230 H 715.726 3.5383 -2.18961 0
M  V30 7231 H 714.602 4.88596 -2.5013 0
M  V30 7232 H 714.863 4.33794 -0.85296 0
M  V30 7233 N 713.922 1.13953 1.08869 0
M  V30 7234 C 715.168 0.906151 1.8143 0
M  V30 7235 C 715.501 -0.566089 1.85766 0
M  V30 7236 O 714.776 -1.41915 1.33006 0
M  V30 7237 C 715.059 1.50183 3.27287 0
M  V30 7238 C 714.912 3.04359 3.31189 0
M  V30 7239 C 716.231 1.17477 4.24131 0
M  V30 7240 H 713.35 0.330624 0.658678 0
M  V30 7241 H 715.992 1.40873 1.27495 0
M  V30 7242 H 714.142 1.07442 3.73348 0
M  V30 7243 H 715.814 3.55896 2.93488 0
M  V30 7244 H 714.057 3.39053 2.70602 0
M  V30 7245 H 714.728 3.41141 4.33966 0
M  V30 7246 H 717.204 1.5442 3.86385 0
M  V30 7247 H 716.08 1.61795 5.24513 0
M  V30 7248 H 716.341 0.0893312 4.4201 0
M  V30 7249 N 715.4 -1.26948 0.933913 0
M  V30 7250 C 716.649 -1.93378 0.573409 0
M  V30 7251 C 716.962 -1.74148 -0.890614 0
M  V30 7252 O 718.168 -2.34971 -1.36017 0
M  V30 7253 C 716.624 -3.46449 0.974747 0
M  V30 7254 C 716.232 -3.74425 2.45988 0
M  V30 7255 C 717.976 -4.18924 0.685791 0
M  V30 7256 C 715.883 -5.209 2.8003 0
M  V30 7257 H 714.813 -0.723952 0.210736 0
M  V30 7258 H 717.464 -1.44143 1.13557 0
M  V30 7259 H 715.846 -3.94528 0.341181 0
M  V30 7260 H 717.02 -3.37079 3.14188 0
M  V30 7261 H 715.335 -3.15167 2.72138 0
M  V30 7262 H 717.932 -5.26786 0.916546 0
M  V30 7263 H 718.275 -4.14587 -0.377217 0
M  V30 7264 H 718.808 -3.76687 1.27874 0
M  V30 7265 H 715.547 -5.30332 3.85264 0
M  V30 7266 H 715.067 -5.59369 2.16485 0
M  V30 7267 H 716.746 -5.88837 2.68105 0
M  V30 7268 N 716.879 -0.700114 -1.41195 0
M  V30 7269 C 718.128 -0.230082 -2.00383 0
M  V30 7270 C 718.441 1.17857 -1.56106 0
M  V30 7271 O 719.647 1.74631 -2.07885 0
M  V30 7272 C 718.103 -0.360447 -3.5809 0
M  V30 7273 C 717.711 -1.77475 -4.11347 0
M  V30 7274 C 719.455 0.0495799 -4.24471 0
M  V30 7275 C 717.362 -1.85653 -5.61504 0
M  V30 7276 H 716.292 -0.0822633 -0.749499 0
M  V30 7277 H 718.943 -0.868969 -1.6162 0
M  V30 7278 H 717.325 0.346768 -3.94479 0
M  V30 7279 H 718.499 -2.51109 -3.86369 0
M  V30 7280 H 716.814 -2.13486 -3.57509 0
M  V30 7281 H 719.411 0.00898219 -5.34699 0
M  V30 7282 H 719.754 1.08904 -4.01803 0
M  V30 7283 H 720.287 -0.607521 -3.93134 0
M  V30 7284 H 717.026 -2.87667 -5.89006 0
M  V30 7285 H 716.546 -1.1641 -5.88395 0
M  V30 7286 H 718.225 -1.62151 -6.26351 0
M  V30 7287 N 718.357 1.51182 -0.445186 0
M  V30 7288 C 719.606 2.01342 0.120189 0
M  V30 7289 C 719.919 1.33353 1.43095 0
M  V30 7290 O 721.125 1.74525 2.07974 0
M  V30 7291 C 719.581 3.58925 0.264732 0
M  V30 7292 C 719.189 4.35855 -1.03606 0
M  V30 7293 C 720.933 4.17208 0.783455 0
M  V30 7294 C 718.84 5.85162 -0.856731 0
M  V30 7295 H 717.77 0.752426 0.0486922 0
M  V30 7296 H 720.421 1.74221 -0.576143 0
M  V30 7297 H 718.803 3.82525 1.02425 0
M  V30 7298 H 719.977 4.23997 -1.80452 0
M  V30 7299 H 718.292 3.89062 -1.48391 0
M  V30 7300 H 720.889 5.26475 0.934239 0
M  V30 7301 H 721.232 3.76892 1.768 0
M  V30 7302 H 721.765 3.97715 0.0820346 0
M  V30 7303 H 718.504 6.29904 -1.81388 0
M  V30 7304 H 718.024 5.99663 -0.128206 0
M  V30 7305 H 719.703 6.44963 -0.513027 0
M  V30 7306 N 719.835 0.176821 1.56605 0
M  V30 7307 C 721.081 -0.467406 1.9734 0
M  V30 7308 C 721.414 -1.62523 1.06301 0
M  V30 7309 O 720.689 -1.94182 0.11125 0
M  V30 7310 C 720.972 -0.945106 3.47476 0
M  V30 7311 C 720.825 0.213273 4.49294 0
M  V30 7312 C 722.144 -1.8169 4.00845 0
M  V30 7313 H 719.263 -0.168426 0.717497 0
M  V30 7314 H 721.905 0.264065 1.88156 0
M  V30 7315 H 720.055 -1.56841 3.55434 0
M  V30 7316 H 721.727 0.850508 4.53392 0
M  V30 7317 H 719.97 0.867918 4.25029 0
M  V30 7318 H 720.641 -0.163187 5.51759 0
M  V30 7319 H 723.117 -1.29139 3.95553 0
M  V30 7320 H 721.993 -2.12015 5.06301 0
M  V30 7321 H 722.254 -2.76463 3.44994 0
M  V30 7322 N 721.313 -1.57302 -0.09688 0
M  V30 7323 C 722.561 -1.8563 -0.799117 0
M  V30 7324 C 722.882 -0.765263 -1.79356 0
M  V30 7325 O 722.152 0.208657 -1.94786 0
M  V30 7326 H 720.732 -0.684937 -0.298111 0
M  V30 7327 H 723.394 -1.9474 -0.0789341 0
M  V30 7328 H 722.49 -2.82305 -1.3308 0
M  V30 7329 N 722.791 0.367657 -1.53252 0
M  V30 7330 C 724.016 1.13566 -1.73544 0
M  V30 7331 C 724.441 1.82329 -0.462344 0
M  V30 7332 O 723.799 1.71655 0.583472 0
M  V30 7333 C 723.847 2.14322 -2.89997 0
M  V30 7334 O 722.951 3.21359 -2.58461 0
M  V30 7335 H 722.292 0.329614 -0.576412 0
M  V30 7336 H 724.822 0.425417 -2.00128 0
M  V30 7337 H 724.832 2.57958 -3.16104 0
M  V30 7338 H 723.507 1.63664 -3.82344 0
M  V30 7339 H 722.084 2.8271 -2.43165 0
M  V30 7340 N 724.269 1.44576 0.627338 0
M  V30 7341 C 725.517 1.47267 1.38408 0
M  V30 7342 C 725.838 0.107971 1.94701 0
M  V30 7343 O 725.108 -0.860206 1.76004 0
M  V30 7344 H 723.688 0.542276 0.513756 0
M  V30 7345 H 726.35 1.80383 0.738099 0
M  V30 7346 H 725.446 2.20025 2.21349 0
M  V30 7347 N 725.747 -0.868086 1.31537 0
M  V30 7348 C 727.158 -1.437 1.19195 0
M  V30 7349 C 727.509 -1.95169 -0.200842 0
M  V30 7350 O 726.634 -1.86432 -1.09872 0
M  V30 7351 C 727.229 -2.612 2.15778 0
M  V30 7352 C 725.788 -3.1413 2.07363 0
M  V30 7353 C 724.935 -1.86845 2.049 0
M  V30 7354 H 727.886 -0.676457 1.43561 0
M  V30 7355 H 727.907 -3.37948 1.74847 0
M  V30 7356 H 727.419 -2.23709 3.17137 0
M  V30 7357 H 725.52 -3.56238 1.09204 0
M  V30 7358 H 725.633 -3.76285 2.96557 0
M  V30 7359 H 723.997 -2.05886 1.49943 0
M  V30 7360 H 724.78 -1.51589 3.08019 0
M  V30 7361 N 727.225 -1.14528 -1.08264 0
M  V30 7362 C 728.188 -0.83632 -2.13397 0
M  V30 7363 C 729.188 0.159715 -1.60005 0
M  V30 7364 O 730.378 -0.0688098 -1.74064 0
M  V30 7365 C 727.51 -0.246973 -3.40004 0
M  V30 7366 H 728.703 -1.76808 -2.42237 0
M  V30 7367 H 726.256 -0.951509 -1.24 0
M  V30 7368 H 726.991 0.693436 -3.168 0
M  V30 7369 H 726.776 -0.964412 -3.80055 0
M  V30 7370 H 728.266 -0.0480679 -4.17572 0
M  V30 7371 N 728.703 1.26451 -0.940633 0
M  V30 7372 C 729.931 1.97868 -0.604642 0
M  V30 7373 C 730.346 1.70051 0.820251 0
M  V30 7374 O 729.703 0.96843 1.54686 0
M  V30 7375 C 729.754 3.51684 -0.836689 0
M  V30 7376 O 729.475 3.78533 -2.20554 0
M  V30 7377 C 730.976 4.40343 -0.511169 0
M  V30 7378 H 728.196 0.631105 -0.227919 0
M  V30 7379 H 730.74 1.60979 -1.26119 0
M  V30 7380 H 728.895 3.86736 -0.226759 0
M  V30 7381 H 729.309 4.73065 -2.26517 0
M  V30 7382 H 730.783 5.47229 -0.724157 0
M  V30 7383 H 731.26 4.35694 0.553815 0
M  V30 7384 H 731.866 4.10834 -1.0998 0
M  V30 7385 N 730.181 0.707592 1.40822 0
M  V30 7386 C 731.128 0.0499029 2.30746 0
M  V30 7387 C 732.098 -0.758718 1.47759 0
M  V30 7388 O 733.283 -0.724299 1.76518 0
M  V30 7389 C 730.423 -0.871756 3.33908 0
M  V30 7390 C 729.536 -0.0534655 4.31967 0
M  V30 7391 C 728.671 -0.973869 5.22197 0
M  V30 7392 C 727.71 -0.149194 6.11918 0
M  V30 7393 N 726.847 -1.02404 6.94592 0
M  V30 7394 H 731.687 0.822461 2.86426 0
M  V30 7395 H 729.224 0.417285 1.41057 0
M  V30 7396 H 731.182 -1.42028 3.9228 0
M  V30 7397 H 729.812 -1.61058 2.7975 0
M  V30 7398 H 728.864 0.612142 3.75442 0
M  V30 7399 H 730.176 0.585354 4.95353 0
M  V30 7400 H 729.33 -1.59121 5.85462 0
M  V30 7401 H 728.069 -1.64652 4.59065 0
M  V30 7402 H 727.074 0.481137 5.47691 0
M  V30 7403 H 728.299 0.519841 6.77107 0
M  V30 7404 H 726.245 -1.6825 6.34057 0
M  V30 7405 H 726.162 -0.441076 7.54712 0
M  V30 7406 H 727.43 -1.62782 7.62314 0
M  V30 7407 N 731.66 -1.50943 0.453197 0
M  V30 7408 C 732.937 -1.94872 -0.168633 0
M  V30 7409 C 733.317 -1.39272 -1.5864 0
M  V30 7410 O 732.665 -0.586272 -2.20851 0
M  V30 7411 C 732.875 -3.48757 -0.130217 0
M  V30 7412 C 734.223 -4.23331 -0.327975 0
M  V30 7413 O 735.247 -3.55594 -0.207619 0
M  V30 7414 O 734.106 -5.43529 -0.569077 0
M  V30 7415 H 731.2 -0.818042 -0.121394 0
M  V30 7416 H 733.746 -1.61782 0.512316 0
M  V30 7417 H 732.518 -3.81725 0.860346 0
M  V30 7418 H 732.141 -3.88333 -0.853397 0
M  V30 7419 N 733.138 -0.185124 -1.56509 0
M  V30 7420 C 734.387 0.456421 -1.96468 0
M  V30 7421 C 734.7 1.63448 -1.07444 0
M  V30 7422 O 735.906 2.34316 -1.37143 0
M  V30 7423 C 734.362 0.863404 -3.4939 0
M  V30 7424 C 733.97 -0.289815 -4.47062 0
M  V30 7425 C 735.714 1.47259 -3.98139 0
M  V30 7426 C 733.621 0.137571 -5.9124 0
M  V30 7427 H 732.551 0.17429 -0.733579 0
M  V30 7428 H 735.202 -0.275554 -1.81419 0
M  V30 7429 H 733.584 1.65176 -3.59907 0
M  V30 7430 H 734.758 -1.06728 -4.4827 0
M  V30 7431 H 733.073 -0.809851 -4.08449 0
M  V30 7432 H 735.67 1.80463 -5.03326 0
M  V30 7433 H 736.013 2.3755 -3.41871 0
M  V30 7434 H 736.546 0.748405 -3.90696 0
M  V30 7435 H 733.285 -0.730907 -6.51412 0
M  V30 7436 H 732.805 0.8801 -5.93308 0
M  V30 7437 H 734.484 0.576771 -6.44424 0
M  V30 7438 N 734.616 1.57351 0.0885366 0
M  V30 7439 C 736.027 1.75303 0.642308 0
M  V30 7440 C 736.378 0.808238 1.78779 0
M  V30 7441 O 735.503 -0.01171 2.16397 0
M  V30 7442 C 736.098 3.17885 1.17194 0
M  V30 7443 C 734.657 3.37239 1.67172 0
M  V30 7444 C 733.804 2.7108 0.584045 0
M  V30 7445 H 736.755 1.58103 -0.137567 0
M  V30 7446 H 736.776 3.2112 2.04114 0
M  V30 7447 H 736.288 3.86625 0.338024 0
M  V30 7448 H 734.389 2.73588 2.52943 0
M  V30 7449 H 734.502 4.45594 1.76019 0
M  V30 7450 H 732.866 2.33161 1.02508 0
M  V30 7451 H 733.649 3.42464 -0.239403 0
M  V30 7452 N 736.094 -0.359525 1.53444 0
M  V30 7453 C 737.371 -1.11756 1.6053 0
M  V30 7454 C 737.751 -2.06949 0.416587 0
M  V30 7455 O 737.099 -2.20681 -0.592628 0
M  V30 7456 C 737.309 -1.85133 2.95849 0
M  V30 7457 C 738.657 -2.3945 3.50641 0
M  V30 7458 O 739.681 -1.95251 2.97918 0
M  V30 7459 O 738.54 -3.20266 4.42823 0
M  V30 7460 H 735.634 -0.513005 0.648656 0
M  V30 7461 H 738.18 -0.362301 1.65787 0
M  V30 7462 H 736.952 -1.15694 3.73806 0
M  V30 7463 H 736.575 -2.67554 2.9411 0
M  V30 7464 N 737.572 -1.44907 -0.619662 0
M  V30 7465 C 738.818 -1.48512 -1.38102 0
M  V30 7466 C 739.151 -0.121686 -1.93818 0
M  V30 7467 O 738.426 0.862256 -1.74343 0
M  V30 7468 C 738.709 -2.55469 -2.53787 0
M  V30 7469 C 738.562 -4.01212 -2.03345 0
M  V30 7470 C 739.881 -2.58821 -3.55949 0
M  V30 7471 H 737 -0.540712 -0.500799 0
M  V30 7472 H 739.642 -1.7665 -0.69962 0
M  V30 7473 H 737.792 -2.31606 -3.11915 0
M  V30 7474 H 739.464 -4.36245 -1.49959 0
M  V30 7475 H 737.707 -4.12443 -1.34438 0
M  V30 7476 H 738.378 -4.71717 -2.86683 0
M  V30 7477 H 740.854 -2.80172 -3.07641 0
M  V30 7478 H 739.73 -3.35542 -4.34399 0
M  V30 7479 H 739.991 -1.63451 -4.10775 0
M  V30 7480 N 739.05 0.861098 -1.31996 0
M  V30 7481 C 740.013 1.95068 -1.20338 0
M  V30 7482 C 741.013 1.60289 -0.128114 0
M  V30 7483 O 742.203 1.70048 -0.378044 0
M  V30 7484 C 739.335 3.30153 -0.849205 0
M  V30 7485 H 740.528 2.06833 -2.17164 0
M  V30 7486 H 738.081 1.05049 -1.15734 0
M  V30 7487 H 738.816 3.24087 0.117508 0
M  V30 7488 H 738.601 3.56771 -1.62655 0
M  V30 7489 H 740.091 4.10025 -0.791782 0
M  V30 7490 N 740.528 1.15101 1.07655 0
M  V30 7491 C 741.776 0.922149 1.79836 0
M  V30 7492 C 742.097 -0.552346 1.87014 0
M  V30 7493 O 741.367 -1.40145 1.3688 0
M  V30 7494 H 739.947 0.338182 0.666064 0
M  V30 7495 H 742.609 1.45107 1.30115 0
M  V30 7496 H 741.705 1.32883 2.82398 0
M  V30 7497 N 742.006 -1.2595 0.947325 0
M  V30 7498 C 742.938 -2.25336 0.41906 0
M  V30 7499 C 743.951 -1.56135 -0.461051 0
M  V30 7500 O 745.14 -1.76438 -0.270505 0
M  V30 7501 C 742.24 -3.36334 -0.416233 0
M  V30 7502 C 741.413 -4.35088 0.449162 0
M  V30 7503 C 740.472 -5.25185 -0.326716 0
M  V30 7504 O 739.498 -5.68548 0.272374 0
M  V30 7505 N 740.7 -5.57388 -1.6217 0
M  V30 7506 H 743.465 -2.71298 1.27348 0
M  V30 7507 H 741.026 -1.39781 0.81688 0
M  V30 7508 H 743.018 -3.93564 -0.942826 0
M  V30 7509 H 741.588 -2.89819 -1.17148 0
M  V30 7510 H 740.808 -3.76841 1.15692 0
M  V30 7511 H 742.096 -4.98056 1.04008 0
M  V30 7512 H 741.494 -5.2405 -2.13046 0
M  V30 7513 H 740.051 -6.17234 -2.0944 0
M  V30 7514 N 743.484 -0.715051 -1.40445 0
M  V30 7515 C 744.712 -0.263959 -2.05209 0
M  V30 7516 C 745.127 1.09403 -1.53871 0
M  V30 7517 O 744.484 1.68746 -0.695064 0
M  V30 7518 C 744.535 -0.234545 -3.60738 0
M  V30 7519 O 744.256 -1.53891 -4.10182 0
M  V30 7520 C 745.757 0.235164 -4.42676 0
M  V30 7521 H 742.977 -0.11876 -0.660407 0
M  V30 7522 H 745.521 -0.973107 -1.79864 0
M  V30 7523 H 743.676 0.425563 -3.85055 0
M  V30 7524 H 744.09 -1.43903 -5.04373 0
M  V30 7525 H 745.564 0.204598 -5.51621 0
M  V30 7526 H 746.041 1.27724 -4.20218 0
M  V30 7527 H 746.647 -0.394649 -4.23465 0
M  V30 7528 N 744.962 1.50701 -0.461195 0
M  V30 7529 C 746.208 2.02566 0.0973411 0
M  V30 7530 C 746.541 1.3432 1.40257 0
M  V30 7531 O 745.816 0.465692 1.88843 0
M  V30 7532 C 746.099 3.58919 0.291423 0
M  V30 7533 C 745.952 4.37751 -1.03413 0
M  V30 7534 C 747.271 4.27379 1.05048 0
M  V30 7535 H 744.39 0.73622 0.0339026 0
M  V30 7536 H 747.032 1.80115 -0.604855 0
M  V30 7537 H 745.182 3.78179 0.889539 0
M  V30 7538 H 746.854 4.30085 -1.66806 0
M  V30 7539 H 745.097 4.01885 -1.63313 0
M  V30 7540 H 745.768 5.45384 -0.852085 0
M  V30 7541 H 748.244 4.12534 0.543603 0
M  V30 7542 H 747.12 5.36609 1.15506 0
M  V30 7543 H 747.381 3.89868 2.0846 0
M  V30 7544 N 746.441 0.193421 1.56409 0
M  V30 7545 C 747.718 -0.493318 1.89277 0
M  V30 7546 C 748.098 -1.79765 1.10669 0
M  V30 7547 O 747.446 -2.27558 0.207274 0
M  V30 7548 C 747.656 -0.713732 3.41624 0
M  V30 7549 C 749.004 -1.03385 4.11821 0
M  V30 7550 O 750.028 -0.801511 3.47065 0
M  V30 7551 O 748.887 -1.47327 5.26267 0
M  V30 7552 H 745.981 -0.256973 0.786062 0
M  V30 7553 H 748.527 0.23351 1.68086 0
M  V30 7554 H 747.299 0.207446 3.9075 0
M  V30 7555 H 746.922 -1.49308 3.68501 0
M  V30 7556 N 747.919 -1.57396 -0.0801906 0
M  V30 7557 C 749.165 -1.87113 -0.782083 0
M  V30 7558 C 749.498 -0.78458 -1.77646 0
M  V30 7559 O 748.773 0.205993 -1.93406 0
M  V30 7560 C 749.056 -3.27483 -1.49756 0
M  V30 7561 C 748.909 -4.46782 -0.520171 0
M  V30 7562 C 750.228 -3.65965 -2.44454 0
M  V30 7563 H 747.347 -0.680559 -0.282858 0
M  V30 7564 H 749.989 -1.89946 -0.0454139 0
M  V30 7565 H 748.139 -3.25199 -2.12551 0
M  V30 7566 H 749.811 -4.61187 0.101919 0
M  V30 7567 H 748.054 -4.33485 0.165219 0
M  V30 7568 H 748.725 -5.41761 -1.05824 0
M  V30 7569 H 751.201 -3.69289 -1.91742 0
M  V30 7570 H 750.077 -4.65086 -2.91524 0
M  V30 7571 H 750.338 -2.95446 -3.28883 0
M  V30 7572 N 749.397 0.351382 -1.53633 0
M  V30 7573 C 750.36 1.41403 -1.80383 0
M  V30 7574 C 751.36 1.45963 -0.674635 0
M  V30 7575 O 752.55 1.46476 -0.942895 0
M  V30 7576 C 749.682 2.80401 -1.93876 0
M  V30 7577 H 750.875 1.18951 -2.75301 0
M  V30 7578 H 748.428 0.58533 -1.44926 0
M  V30 7579 H 749.163 3.08147 -1.01074 0
M  V30 7580 H 748.948 2.78488 -2.7602 0
M  V30 7581 H 750.438 3.57329 -2.16116 0
M  V30 7582 N 750.875 1.45233 0.611969 0
M  V30 7583 C 751.807 1.49575 1.73666 0
M  V30 7584 C 752.82 0.386987 1.58134 0
M  V30 7585 O 754.009 0.653804 1.66095 0
M  V30 7586 C 751.109 1.33223 3.11617 0
M  V30 7587 C 750.282 2.57694 3.5343 0
M  V30 7588 C 749.341 2.35962 4.70328 0
M  V30 7589 O 748.367 3.09553 4.77667 0
M  V30 7590 N 749.569 1.40243 5.63305 0
M  V30 7591 H 752.334 2.46539 1.70407 0
M  V30 7592 H 749.895 1.40917 0.79712 0
M  V30 7593 H 751.887 1.16502 3.87569 0
M  V30 7594 H 750.457 0.44551 3.09409 0
M  V30 7595 H 749.677 2.8956 2.67486 0
M  V30 7596 H 750.965 3.40441 3.78124 0
M  V30 7597 H 750.363 0.795023 5.60086 0
M  V30 7598 H 748.92 1.29496 6.38807 0
M  V30 7599 N 752.353 -0.854086 1.3245 0
M  V30 7600 C 753.3 -1.96271 1.21434 0
M  V30 7601 C 754.27 -1.6582 0.0963851 0
M  V30 7602 O 755.455 -1.88851 0.27203 0
M  V30 7603 C 752.595 -3.31939 0.943952 0
M  V30 7604 C 751.708 -3.74885 2.14675 0
M  V30 7605 C 750.843 -4.99347 1.81179 0
M  V30 7606 C 749.882 -5.34785 2.97777 0
M  V30 7607 N 749.019 -6.50425 2.6437 0
M  V30 7608 H 753.859 -2.05025 2.16261 0
M  V30 7609 H 751.396 -1.00348 1.07558 0
M  V30 7610 H 753.354 -4.10076 0.767675 0
M  V30 7611 H 751.984 -3.22784 0.0324763 0
M  V30 7612 H 751.036 -2.92396 2.43328 0
M  V30 7613 H 752.348 -3.97068 3.01891 0
M  V30 7614 H 751.502 -5.85193 1.60107 0
M  V30 7615 H 750.241 -4.79101 0.911777 0
M  V30 7616 H 749.246 -4.47451 3.1948 0
M  V30 7617 H 750.471 -5.56988 3.88511 0
M  V30 7618 H 748.417 -6.31695 1.7691 0
M  V30 7619 H 748.334 -6.7263 3.45116 0
M  V30 7620 H 749.602 -7.39422 2.46729 0
M  V30 7621 N 753.831 -1.1567 -1.07043 0
M  V30 7622 C 754.779 -0.852204 -2.16426 0
M  V30 7623 C 755.773 0.175661 -1.68487 0
M  V30 7624 O 756.979 0.0303874 -1.79974 0
M  V30 7625 H 753.354 -0.257942 -0.706378 0
M  V30 7626 H 755.325 -1.78231 -2.39324 0
M  V30 7627 C 754.074 -0.361362 -3.45817 0
M  V30 7628 H 753.397 -1.14369 -3.83092 0
M  V30 7629 H 754.837 -0.186997 -4.23587 0
M  V30 7630 C 753.296 0.917703 -3.2416 0
M  V30 7631 O 753.826 1.98858 -3.49025 0
M  V30 7632 N 752.032 0.858456 -2.77631 0
M  V30 7633 H 751.579 -0.0131821 -2.57597 0
M  V30 7634 H 751.537 1.71478 -2.6352 0
M  V30 7635 N 755.309 1.25446 -0.953992 0
M  V30 7636 C 756.239 2.28264 -0.491717 0
M  V30 7637 C 757.22 1.63717 0.461617 0
M  V30 7638 O 758.405 1.90821 0.36071 0
M  V30 7639 C 755.535 3.46525 0.231915 0
M  V30 7640 C 754.489 4.23247 -0.636098 0
M  V30 7641 C 753.815 5.34254 0.218238 0
M  V30 7642 C 755.115 4.85971 -1.91389 0
M  V30 7643 H 756.809 2.67183 -1.35106 0
M  V30 7644 H 754.355 1.2844 -0.651095 0
M  V30 7645 H 756.308 4.17576 0.566439 0
M  V30 7646 H 755.032 3.06594 1.12551 0
M  V30 7647 H 753.691 3.53978 -0.953696 0
M  V30 7648 H 753.339 4.90564 1.11156 0
M  V30 7649 H 753.039 5.86501 -0.359232 0
M  V30 7650 H 754.563 6.08138 0.547743 0
M  V30 7651 H 755.977 5.49168 -1.64581 0
M  V30 7652 H 754.374 5.48391 -2.43696 0
M  V30 7653 H 755.444 4.08192 -2.61738 0
M  V30 7654 N 756.787 0.722489 1.40064 0
M  V30 7655 C 757.735 0.063329 2.32514 0
M  V30 7656 C 758.729 -0.73953 1.52405 0
M  V30 7657 O 759.935 -0.642122 1.68157 0
M  V30 7658 H 756.31 0.00167692 0.751998 0
M  V30 7659 H 758.281 0.859656 2.85749 0
M  V30 7660 C 757.03 -0.839219 3.3742 0
M  V30 7661 H 756.353 -0.230836 3.99133 0
M  V30 7662 H 757.793 -1.26827 4.04587 0
M  V30 7663 C 756.252 -1.96783 2.73456 0
M  V30 7664 O 756.782 -3.05933 2.60323 0
M  V30 7665 N 754.988 -1.75351 2.31734 0
M  V30 7666 H 754.535 -0.865787 2.42615 0
M  V30 7667 H 754.493 -2.51043 1.89275 0
M  V30 7668 N 758.265 -1.50454 0.469181 0
M  V30 7669 C 759.511 -2.02615 -0.0865971 0
M  V30 7670 C 759.844 -1.35062 -1.39542 0
M  V30 7671 O 759.119 -0.475701 -1.88593 0
M  V30 7672 C 759.402 -3.59068 -0.272385 0
M  V30 7673 C 759.255 -4.37196 1.05733 0
M  V30 7674 C 760.574 -4.2793 -1.0278 0
M  V30 7675 H 757.693 -0.736389 -0.0299977 0
M  V30 7676 H 760.335 -1.79792 0.614399 0
M  V30 7677 H 758.485 -3.78646 -0.869471 0
M  V30 7678 H 760.157 -4.29195 1.69084 0
M  V30 7679 H 758.4 -4.01013 1.65442 0
M  V30 7680 H 759.071 -5.44924 0.880997 0
M  V30 7681 H 761.547 -4.12816 -0.521718 0
M  V30 7682 H 760.423 -5.37214 -1.12659 0
M  V30 7683 H 760.684 -3.90968 -2.0639 0
M  V30 7684 N 759.743 -0.201713 -1.56304 0
M  V30 7685 C 760.973 0.440084 -2.01858 0
M  V30 7686 C 761.381 1.55279 -1.08098 0
M  V30 7687 O 760.724 1.83529 -0.0792216 0
M  V30 7688 C 760.786 1.05091 -3.43797 0
M  V30 7689 C 760.45 0.0761208 -4.56937 0
M  V30 7690 C 761.447 -0.716951 -5.14933 0
M  V30 7691 C 759.132 -0.0368815 -5.02286 0
M  V30 7692 C 761.126 -1.60993 -6.16733 0
M  V30 7693 C 758.813 -0.933409 -6.03929 0
M  V30 7694 C 759.811 -1.71849 -6.61027 0
M  V30 7695 O 759.499 -2.59998 -7.60695 0
M  V30 7696 H 759.231 0.114139 -0.666294 0
M  V30 7697 H 761.785 -0.309672 -2.03052 0
M  V30 7698 H 760.015 1.84938 -3.3961 0
M  V30 7699 H 761.704 1.59804 -3.73118 0
M  V30 7700 H 762.47 -0.63999 -4.80759 0
M  V30 7701 H 758.349 0.564034 -4.57537 0
M  V30 7702 H 761.893 -2.22315 -6.61227 0
M  V30 7703 H 757.79 -1.01146 -6.37526 0
M  V30 7704 H 758.558 -2.53851 -7.7814 0
M  V30 7705 N 761.222 1.57436 0.0718424 0
M  V30 7706 C 762.47 1.86878 0.769484 0
M  V30 7707 C 762.791 0.7937 1.78116 0
M  V30 7708 O 762.061 -0.177642 1.95093 0
M  V30 7709 H 760.641 0.689593 0.287177 0
M  V30 7710 H 763.303 1.94841 0.0479427 0
M  V30 7711 H 762.399 2.84387 1.28572 0
M  V30 7712 N 762.7 -0.34323 1.53817 0
M  V30 7713 C 763.947 -1.08344 1.71079 0
M  V30 7714 C 764.275 -1.88633 0.474133 0
M  V30 7715 O 763.53 -1.87984 -0.544116 0
M  V30 7716 C 763.829 -2.05195 2.92626 0
M  V30 7717 C 763.495 -1.41215 4.28216 0
M  V30 7718 C 762.157 -1.23495 4.65083 0
M  V30 7719 C 764.509 -0.951273 5.12445 0
M  V30 7720 C 761.837 -0.583065 5.83796 0
M  V30 7721 C 764.189 -0.313292 6.31824 0
M  V30 7722 C 762.853 -0.123779 6.67385 0
M  V30 7723 H 762.123 -0.396458 0.626021 0
M  V30 7724 H 764.77 -0.362689 1.88034 0
M  V30 7725 H 763.075 -2.83653 2.70275 0
M  V30 7726 H 764.772 -2.62462 3.03175 0
M  V30 7727 H 761.362 -1.56005 3.992 0
M  V30 7728 H 765.546 -1.07602 4.84495 0
M  V30 7729 H 760.802 -0.424854 6.09922 0
M  V30 7730 H 764.976 0.0519179 6.96381 0
M  V30 7731 H 762.603 0.383398 7.59233 0
M  V30 7732 N 764.178 -1.45556 -0.604258 0
M  V30 7733 C 765.406 -1.53278 -1.38973 0
M  V30 7734 C 765.821 -0.166509 -1.88064 0
M  V30 7735 O 765.178 0.832519 -1.62405 0
M  V30 7736 C 765.229 -2.51992 -2.59195 0
M  V30 7737 O 764.95 -3.8331 -2.12143 0
M  V30 7738 C 766.451 -2.69445 -3.52015 0
M  V30 7739 H 763.671 -0.519003 -0.425297 0
M  V30 7740 H 766.215 -1.90773 -0.736621 0
M  V30 7741 H 764.37 -2.17561 -3.2054 0
M  V30 7742 H 764.784 -4.3685 -2.90279 0
M  V30 7743 H 766.258 -3.42485 -4.32907 0
M  V30 7744 H 766.735 -1.75596 -4.0257 0
M  V30 7745 H 767.341 -3.04886 -2.9652 0
M  V30 7746 N 765.656 0.84705 -1.32902 0
M  V30 7747 C 766.603 1.95624 -1.22473 0
M  V30 7748 C 767.573 1.65767 -0.105178 0
M  V30 7749 O 768.758 1.88704 -0.282042 0
M  V30 7750 C 765.898 3.31434 -0.961542 0
M  V30 7751 C 765.011 3.73741 -2.1666 0
M  V30 7752 C 764.146 4.98379 -1.83825 0
M  V30 7753 C 763.185 5.33199 -3.00609 0
M  V30 7754 N 762.322 6.49014 -2.67816 0
M  V30 7755 H 767.162 2.03875 -2.17345 0
M  V30 7756 H 764.699 0.997764 -1.08088 0
M  V30 7757 H 766.657 4.09663 -0.789411 0
M  V30 7758 H 765.287 3.22762 -0.0495938 0
M  V30 7759 H 764.339 2.91102 -2.44875 0
M  V30 7760 H 765.651 3.95462 -3.03993 0
M  V30 7761 H 764.805 5.84336 -1.63208 0
M  V30 7762 H 763.544 4.78611 -0.937172 0
M  V30 7763 H 762.549 4.4575 -3.21849 0
M  V30 7764 H 763.774 5.5492 -3.9146 0
M  V30 7765 H 761.72 6.30748 -1.80258 0
M  V30 7766 H 761.637 6.7079 -3.48679 0
M  V30 7767 H 762.905 7.38103 -2.50647 0
M  V30 7768 N 767.134 1.16236 1.06428 0
M  V30 7769 C 768.381 0.943034 1.79201 0
M  V30 7770 C 768.709 -0.529243 1.87161 0
M  V30 7771 O 767.964 -1.40874 1.35842 0
M  V30 7772 C 768.263 1.51396 3.2375 0
M  V30 7773 C 767.929 3.00833 3.35873 0
M  V30 7774 C 766.591 3.41626 3.38888 0
M  V30 7775 C 768.943 3.96825 3.37904 0
M  V30 7776 C 766.271 4.77033 3.4155 0
M  V30 7777 C 768.623 5.32116 3.42104 0
M  V30 7778 C 767.287 5.72392 3.43401 0
M  V30 7779 H 766.557 0.34508 0.655744 0
M  V30 7780 H 769.204 1.44929 1.25171 0
M  V30 7781 H 767.509 0.929114 3.80624 0
M  V30 7782 H 769.206 1.31996 3.78653 0
M  V30 7783 H 765.796 2.68306 3.3423 0
M  V30 7784 H 769.98 3.66376 3.34787 0
M  V30 7785 H 765.236 5.07569 3.40858 0
M  V30 7786 H 769.41 6.06286 3.42623 0
M  V30 7787 H 767.037 6.77296 3.45216 0
M  V30 7788 N 768.612 -1.24939 0.960631 0
M  V30 7789 C 769.837 -1.9742 0.635608 0
M  V30 7790 C 770.262 -1.70857 -0.786737 0
M  V30 7791 O 769.62 -0.968063 -1.53291 0
M  V30 7792 C 769.668 -3.48987 0.907771 0
M  V30 7793 O 768.772 -4.12399 -0.0104053 0
M  V30 7794 H 768.113 -0.61871 0.241027 0
M  V30 7795 H 770.643 -1.58901 1.28886 0
M  V30 7796 H 770.653 -3.99334 0.836453 0
M  V30 7797 H 769.328 -3.6765 1.94439 0
M  V30 7798 H 767.905 -3.72727 0.113631 0
M  V30 7799 N 770.09 -0.729906 -1.39679 0
M  V30 7800 C 771.022 -0.0470588 -2.29152 0
M  V30 7801 C 772.035 0.708808 -1.4656 0
M  V30 7802 O 773.224 0.553815 -1.69691 0
M  V30 7803 C 770.324 0.957612 -3.25089 0
M  V30 7804 C 769.497 0.264321 -4.36601 0
M  V30 7805 C 768.556 1.17638 -5.12882 0
M  V30 7806 O 767.582 0.655777 -5.6541 0
M  V30 7807 N 768.784 2.50649 -5.23598 0
M  V30 7808 H 771.549 -0.815364 -2.88395 0
M  V30 7809 H 769.11 -0.578707 -1.51204 0
M  V30 7810 H 771.102 1.57026 -3.72995 0
M  V30 7811 H 769.672 1.62716 -2.66912 0
M  V30 7812 H 768.892 -0.528732 -3.90638 0
M  V30 7813 H 770.18 -0.216344 -5.0834 0
M  V30 7814 H 769.578 2.95427 -4.82431 0
M  V30 7815 H 768.135 3.07022 -5.74961 0
M  V30 7816 N 771.568 1.50203 -0.477153 0
M  V30 7817 C 772.531 2.27194 0.302599 0
M  V30 7818 C 773.531 1.32221 0.915112 0
M  V30 7819 O 774.721 1.55593 0.783348 0
M  V30 7820 C 771.853 3.0938 1.43167 0
M  V30 7821 H 773.046 2.97575 -0.372678 0
M  V30 7822 H 770.599 1.54578 -0.231392 0
M  V30 7823 H 771.334 2.43509 2.14182 0
M  V30 7824 H 771.119 3.79181 0.998197 0
M  V30 7825 H 772.609 3.67592 1.98157 0
M  V30 7826 N 773.046 0.209999 1.56195 0
M  V30 7827 C 774.271 -0.433064 2.02828 0
M  V30 7828 C 774.696 -1.5337 1.08901 0
M  V30 7829 O 774.054 -1.81144 0.0751132 0
M  V30 7830 C 774.102 -0.952635 3.47789 0
M  V30 7831 O 773.206 -2.0647 3.56993 0
M  V30 7832 H 772.547 -0.0994594 0.656509 0
M  V30 7833 H 775.077 0.32525 2.01998 0
M  V30 7834 H 775.087 -1.26542 3.8788 0
M  V30 7835 H 773.762 -0.147007 4.1564 0
M  V30 7836 H 772.339 -1.75942 3.28784 0
M  V30 7837 N 774.524 -1.57472 -0.0634922 0
M  V30 7838 C 775.77 -1.87932 -0.762194 0
M  V30 7839 C 776.103 -0.803377 -1.76804 0
M  V30 7840 O 775.378 0.185468 -1.93614 0
M  V30 7841 C 775.661 -3.29053 -1.46275 0
M  V30 7842 C 775.514 -4.47309 -0.472755 0
M  V30 7843 C 776.833 -3.68537 -2.40558 0
M  V30 7844 H 773.952 -0.683521 -0.275624 0
M  V30 7845 H 776.594 -1.89983 -0.0252651 0
M  V30 7846 H 774.744 -3.27435 -2.0909 0
M  V30 7847 H 776.416 -4.61053 0.150828 0
M  V30 7848 H 774.659 -4.33286 0.211187 0
M  V30 7849 H 775.33 -5.42853 -1.00072 0
M  V30 7850 H 777.806 -3.71302 -1.87814 0
M  V30 7851 H 776.682 -4.68152 -2.86574 0
M  V30 7852 H 776.943 -2.98917 -3.25731 0
M  V30 7853 N 776.003 0.335068 -1.53997 0
M  V30 7854 C 777.28 1.09188 -1.62288 0
M  V30 7855 C 777.66 2.0626 -0.449458 0
M  V30 7856 O 777.008 2.21596 0.557444 0
M  V30 7857 C 777.218 1.80403 -2.98757 0
M  V30 7858 C 778.566 2.33841 -3.54406 0
M  V30 7859 O 779.59 1.90487 -3.00987 0
M  V30 7860 O 778.449 3.1318 -4.47862 0
M  V30 7861 H 775.543 0.502621 -0.656736 0
M  V30 7862 H 778.089 0.33588 -1.66343 0
M  V30 7863 H 776.861 1.09732 -3.75599 0
M  V30 7864 H 776.484 2.62841 -2.9833 0
M  V30 7865 N 777.481 1.45874 0.596531 0
M  V30 7866 C 778.706 1.54247 1.38646 0
M  V30 7867 C 779.131 0.179571 1.87241 0
M  V30 7868 O 778.489 -0.837831 1.6078 0
M  V30 7869 C 778.537 2.54015 2.55946 0
M  V30 7870 O 777.641 2.06561 3.5694 0
M  V30 7871 H 776.982 0.519555 0.413471 0
M  V30 7872 H 779.512 1.91327 0.724936 0
M  V30 7873 H 779.522 2.73179 3.03047 0
M  V30 7874 H 778.197 3.52994 2.19928 0
M  V30 7875 H 776.774 1.97324 3.16414 0
M  V30 7876 N 778.959 -0.83999 1.33349 0
M  V30 7877 C 780.37 -1.41139 1.22216 0
M  V30 7878 C 780.721 -1.95551 -0.159398 0
M  V30 7879 O 779.846 -1.88721 -1.05893 0
M  V30 7880 C 780.441 -2.56564 2.21269 0
M  V30 7881 C 779 -3.09661 2.13979 0
M  V30 7882 C 778.147 -1.82457 2.08818 0
M  V30 7883 H 781.098 -0.645853 1.44964 0
M  V30 7884 H 781.119 -3.34163 1.81976 0
M  V30 7885 H 780.631 -2.16932 3.21811 0
M  V30 7886 H 778.732 -3.53841 1.16736 0
M  V30 7887 H 778.845 -3.6991 3.04472 0
M  V30 7888 H 777.209 -2.0266 1.54276 0
M  V30 7889 H 777.992 -1.45022 3.11165 0
M  V30 7890 N 780.437 -1.16799 -1.0581 0
M  V30 7891 C 781.853 -0.913935 -1.30841 0
M  V30 7892 C 782.053 0.430439 -1.96849 0
M  V30 7893 O 781.109 1.16885 -2.23817 0
M  V30 7894 C 782.422 -2.06662 -2.18429 0
M  V30 7895 C 783.97 -2.10294 -2.31831 0
M  V30 7896 C 784.445 -3.2493 -3.22776 0
M  V30 7897 N 785.936 -3.24678 -3.30361 0
M  V30 7898 C 786.671 -4.10021 -4.00837 0
M  V30 7899 N 786.167 -5.05461 -4.73795 0
M  V30 7900 N 787.96 -3.97991 -3.96937 0
M  V30 7901 H 780.111 -2.03343 -0.613613 0
M  V30 7902 H 782.374 -0.88754 -0.333133 0
M  V30 7903 H 782.08 -3.03791 -1.77211 0
M  V30 7904 H 781.954 -2.01233 -3.19038 0
M  V30 7905 H 784.341 -1.13754 -2.72294 0
M  V30 7906 H 784.422 -2.19786 -1.30873 0
M  V30 7907 H 784.066 -4.21731 -2.83028 0
M  V30 7908 H 783.996 -3.12674 -4.23725 0
M  V30 7909 H 786.487 -2.55573 -2.78372 0
M  V30 7910 H 786.8 -5.66989 -5.25113 0
M  V30 7911 H 785.145 -5.09436 -4.72758 0
M  V30 7912 H 788.336 -3.2273 -3.39062 0
M  V30 7913 H 788.509 -4.64722 -4.51594 0
M  V30 7914 N 781.915 1.24427 -0.967243 0
M  V30 7915 C 783.326 1.74349 -0.667785 0
M  V30 7916 C 783.677 1.78403 0.816509 0
M  V30 7917 O 782.802 1.41315 1.63887 0
M  V30 7918 C 783.397 3.16628 -1.20548 0
M  V30 7919 C 781.956 3.64059 -0.955934 0
M  V30 7920 C 781.103 2.42715 -1.34106 0
M  V30 7921 H 784.054 1.10136 -1.14262 0
M  V30 7922 H 784.075 3.76183 -0.571547 0
M  V30 7923 H 783.587 3.13646 -2.28578 0
M  V30 7924 H 781.688 3.72441 0.108858 0
M  V30 7925 H 781.801 4.51549 -1.60126 0
M  V30 7926 H 780.165 2.43114 -0.759452 0
M  V30 7927 H 780.948 2.42414 -2.43085 0
M  V30 7928 N 783.393 0.737304 1.3929 0
M  V30 7929 C 784.356 0.10731 2.28949 0
M  V30 7930 C 785.356 -0.664716 1.46418 0
M  V30 7931 O 786.546 -0.493392 1.67067 0
M  V30 7932 C 783.678 -0.857145 3.29948 0
M  V30 7933 H 784.871 0.89725 2.86163 0
M  V30 7934 H 782.424 0.503279 1.47976 0
M  V30 7935 H 783.159 -1.67336 2.77794 0
M  V30 7936 H 782.944 -0.306167 3.90903 0
M  V30 7937 H 784.434 -1.29444 3.97031 0
M  V30 7938 N 784.871 -1.49948 0.485112 0
M  V30 7939 C 786.119 -2.01996 -0.0648775 0
M  V30 7940 C 786.44 -1.36819 -1.38945 0
M  V30 7941 O 785.71 -0.518163 -1.88923 0
M  V30 7942 H 784.29 -0.746513 -0.0269662 0
M  V30 7943 H 786.952 -1.84136 0.638733 0
M  V30 7944 H 786.048 -3.11418 -0.20617 0
M  V30 7945 N 786.349 -0.21828 -1.56081 0
M  V30 7946 C 787.259 0.704602 -2.23769 0
M  V30 7947 C 788.275 1.21633 -1.24425 0
M  V30 7948 O 789.451 1.25862 -1.57228 0
M  V30 7949 C 786.516 1.89725 -2.90182 0
M  V30 7950 C 785.577 1.42782 -4.0486 0
M  V30 7951 C 784.81 2.56361 -4.68097 0
M  V30 7952 O 785.033 3.74417 -4.30312 0
M  V30 7953 O 783.967 2.2775 -5.57148 0
M  V30 7954 H 787.793 0.158007 -3.03289 0
M  V30 7955 H 785.378 0.0120279 -1.49395 0
M  V30 7956 H 787.26 2.59382 -3.32113 0
M  V30 7957 H 785.935 2.432 -2.13624 0
M  V30 7958 H 784.842 0.699359 -3.67505 0
M  V30 7959 H 786.175 0.939474 -4.83151 0
M  V30 7960 N 787.827 1.57504 0.0551401 0
M  V30 7961 C 789.073 1.88334 0.752216 0
M  V30 7962 C 789.406 0.812742 1.76375 0
M  V30 7963 O 788.681 -0.175198 1.93709 0
M  V30 7964 C 788.964 3.29824 1.44528 0
M  V30 7965 C 788.817 4.47553 0.449026 0
M  V30 7966 C 790.136 3.69808 2.38601 0
M  V30 7967 H 787.255 0.684973 0.271995 0
M  V30 7968 H 789.897 1.89994 0.0151895 0
M  V30 7969 H 788.047 3.28539 2.07351 0
M  V30 7970 H 789.719 4.60967 -0.175277 0
M  V30 7971 H 787.962 4.33168 -0.234162 0
M  V30 7972 H 788.633 5.43376 0.971917 0
M  V30 7973 H 791.109 3.72293 1.85842 0
M  V30 7974 H 789.985 4.69665 2.84088 0
M  V30 7975 H 790.246 3.00641 3.24141 0
M  V30 7976 N 789.305 -0.326896 1.54172 0
M  V30 7977 C 790.533 -1.08486 1.76177 0
M  V30 7978 C 790.948 -1.81815 0.508788 0
M  V30 7979 O 790.305 -1.74924 -0.520362 0
M  V30 7980 C 790.356 -2.08552 2.95276 0
M  V30 7981 O 790.077 -1.38202 4.15731 0
M  V30 7982 C 791.578 -2.96593 3.29466 0
M  V30 7983 H 788.798 -0.322835 0.588233 0
M  V30 7984 H 791.342 -0.374036 2.0105 0
M  V30 7985 H 789.497 -2.75174 2.72687 0
M  V30 7986 H 789.911 -2.05186 4.827 0
M  V30 7987 H 791.385 -3.62708 4.16109 0
M  V30 7988 H 791.862 -3.63511 2.46487 0
M  V30 7989 H 792.468 -2.35537 3.54122 0
M  V30 7990 N 790.784 -1.46188 -0.588786 0
M  V30 7991 C 792.032 -1.50885 -1.34455 0
M  V30 7992 C 792.353 -0.159555 -1.94346 0
M  V30 7993 O 791.623 0.813239 -1.78222 0
M  V30 7994 H 790.203 -0.555707 -0.499198 0
M  V30 7995 H 792.865 -1.82277 -0.690014 0
M  V30 7996 H 791.961 -2.25816 -2.15438 0
M  V30 7997 N 792.262 0.832906 -1.33792 0
M  V30 7998 C 793.49 1.62048 -1.28639 0
M  V30 7999 C 793.905 1.88269 0.141522 0
M  V30 8000 O 793.262 1.46706 1.08553 0
M  V30 8001 C 793.313 2.96722 -2.0649 0
M  V30 8002 O 793.034 2.7165 -3.43712 0
M  V30 8003 C 794.535 3.91144 -2.08617 0
M  V30 8004 H 791.755 0.504032 -0.442937 0
M  V30 8005 H 794.299 1.03704 -1.76255 0
M  V30 8006 H 792.454 3.51652 -1.62541 0
M  V30 8007 H 792.868 3.57453 -3.83833 0
M  V30 8008 H 794.342 4.82837 -2.67531 0
M  V30 8009 H 794.819 4.25766 -1.07796 0
M  V30 8010 H 795.425 3.42152 -2.52611 0
M  V30 8011 N 793.74 1.17359 1.05189 0
M  V30 8012 C 794.688 0.886527 2.15043 0
M  V30 8013 C 795.682 -0.148834 1.68745 0
M  V30 8014 O 796.888 -0.00175123 1.8 0
M  V30 8015 H 793.263 0.269147 0.702185 0
M  V30 8016 H 795.234 1.82016 2.36459 0
M  V30 8017 C 793.983 0.416333 3.45198 0
M  V30 8018 H 793.306 1.20449 3.81225 0
M  V30 8019 H 794.746 0.254362 4.23236 0
M  V30 8020 C 793.205 -0.866016 3.25579 0
M  V30 8021 O 793.735 -1.9328 3.52144 0
M  V30 8022 N 791.941 -0.814179 2.78961 0
M  V30 8023 H 791.488 0.0541618 2.57543 0
M  V30 8024 H 791.446 -1.67264 2.66214 0
M  V30 8025 N 795.218 -1.23913 0.973828 0
M  V30 8026 C 796.629 -1.73992 0.677021 0
M  V30 8027 C 796.98 -1.78833 -0.807036 0
M  V30 8028 O 796.105 -1.42183 -1.63135 0
M  V30 8029 C 796.7 -3.15985 1.22226 0
M  V30 8030 C 795.259 -3.63547 0.975228 0
M  V30 8031 C 794.406 -2.42001 1.35392 0
M  V30 8032 H 797.357 -1.09529 1.14844 0
M  V30 8033 H 797.378 -3.75875 0.591489 0
M  V30 8034 H 796.89 -3.12429 2.30238 0
M  V30 8035 H 794.991 -3.72493 -0.0891047 0
M  V30 8036 H 795.104 -4.50693 1.62518 0
M  V30 8037 H 793.468 -2.42708 0.772334 0
M  V30 8038 H 794.251 -2.41122 2.44367 0
M  V30 8039 N 796.696 -0.74468 -1.38897 0
M  V30 8040 C 798.107 -0.36568 -1.83084 0
M  V30 8041 C 798.458 1.10436 -1.62168 0
M  V30 8042 O 797.583 1.85281 -1.11804 0
M  V30 8043 C 798.178 -0.656946 -3.3237 0
M  V30 8044 C 796.737 -0.331329 -3.74939 0
M  V30 8045 C 795.884 -0.914661 -2.61781 0
M  V30 8046 H 798.835 -0.941551 -1.27752 0
M  V30 8047 H 798.856 0.0679546 -3.80439 0
M  V30 8048 H 798.368 -1.72693 -3.47561 0
M  V30 8049 H 796.469 0.732426 -3.6533 0
M  V30 8050 H 796.582 -0.820655 -4.72019 0
M  V30 8051 H 794.946 -0.34063 -2.52412 0
M  V30 8052 H 795.729 -1.98949 -2.79775 0
M  V30 8053 N 798.174 1.49689 -0.493057 0
M  V30 8054 C 799.137 2.27502 0.278485 0
M  V30 8055 C 800.137 1.33184 0.901037 0
M  V30 8056 O 801.327 1.56415 0.766801 0
M  V30 8057 C 798.459 3.10881 1.39878 0
M  V30 8058 H 799.652 2.97163 -0.404219 0
M  V30 8059 H 797.205 1.54324 -0.247774 0
M  V30 8060 H 797.94 2.45767 2.11587 0
M  V30 8061 H 797.725 3.80219 0.957924 0
M  V30 8062 H 799.215 3.69673 1.94247 0
M  V30 8063 N 799.652 0.226554 1.55963 0
M  V30 8064 C 800.9 -0.402991 1.98041 0
M  V30 8065 C 801.221 -1.59938 1.11557 0
M  V30 8066 O 800.491 -1.9494 0.193719 0
M  V30 8067 H 799.071 -0.15188 0.731397 0
M  V30 8068 H 801.733 0.320613 1.92245 0
M  V30 8069 H 800.829 -0.725937 3.0354 0
M  V30 8070 N 801.13 -1.57531 -0.0467866 0
M  V30 8071 C 802.358 -1.92696 -0.753371 0
M  V30 8072 C 802.773 -0.824792 -1.69831 0
M  V30 8073 O 802.13 0.200155 -1.81399 0
M  V30 8074 C 802.181 -3.27728 -1.52566 0
M  V30 8075 O 801.902 -4.3371 -0.618674 0
M  V30 8076 C 803.403 -3.77066 -2.33101 0
M  V30 8077 H 800.623 -0.636367 -0.212788 0
M  V30 8078 H 803.167 -2.04498 -0.00959361 0
M  V30 8079 H 801.322 -3.17378 -2.22148 0
M  V30 8080 H 801.736 -5.11548 -1.15839 0
M  V30 8081 H 803.21 -4.74109 -2.82709 0
M  V30 8082 H 803.687 -3.07348 -3.13741 0
M  V30 8083 H 804.293 -3.90442 -1.68628 0
M  V30 8084 N 802.608 0.318715 -1.54344 0
M  V30 8085 C 803.836 1.0755 -1.7675 0
M  V30 8086 C 804.251 1.81543 -0.518422 0
M  V30 8087 O 803.608 1.75198 0.511078 0
M  V30 8088 C 803.659 2.06983 -2.96378 0
M  V30 8089 O 803.38 1.35995 -4.16458 0
M  V30 8090 C 804.881 2.94841 -3.31034 0
M  V30 8091 H 802.101 0.319711 -0.589937 0
M  V30 8092 H 804.645 0.363369 -2.01246 0
M  V30 8093 H 802.8 2.73724 -2.74142 0
M  V30 8094 H 803.214 2.02623 -4.83781 0
M  V30 8095 H 804.688 3.60496 -4.18027 0
M  V30 8096 H 805.165 3.62199 -2.48412 0
M  V30 8097 H 805.771 2.33656 -3.55366 0
M  V30 8098 N 804.086 1.46499 0.581025 0
M  V30 8099 C 805.332 1.52121 1.34116 0
M  V30 8100 C 805.665 0.173031 1.93428 0
M  V30 8101 O 804.94 -0.815729 1.76568 0
M  V30 8102 C 805.223 2.62108 2.46924 0
M  V30 8103 C 805.076 4.06462 1.92636 0
M  V30 8104 C 806.395 2.68167 3.48962 0
M  V30 8105 H 803.514 0.5538 0.486287 0
M  V30 8106 H 806.156 1.78443 0.652538 0
M  V30 8107 H 804.306 2.39794 3.05665 0
M  V30 8108 H 805.978 4.40068 1.3834 0
M  V30 8109 H 804.221 4.15862 1.23455 0
M  V30 8110 H 804.892 4.79152 2.74076 0
M  V30 8111 H 807.368 2.8823 3.00104 0
M  V30 8112 H 806.244 3.46942 4.2535 0
M  V30 8113 H 806.505 1.74284 4.06297 0
M  V30 8114 N 805.565 -0.825799 1.34232 0
M  V30 8115 C 806.976 -1.39835 1.23706 0
M  V30 8116 C 807.327 -1.95709 -0.138649 0
M  V30 8117 O 806.452 -1.89833 -1.03886 0
M  V30 8118 C 807.047 -2.54203 2.23978 0
M  V30 8119 C 805.606 -3.07374 2.17251 0
M  V30 8120 C 804.753 -1.80232 2.10741 0
M  V30 8121 H 807.704 -0.630442 1.4564 0
M  V30 8122 H 807.725 -3.32214 1.8551 0
M  V30 8123 H 807.237 -2.13506 3.24094 0
M  V30 8124 H 805.338 -3.52583 1.20483 0
M  V30 8125 H 805.451 -3.6666 3.08379 0
M  V30 8126 H 803.815 -2.01012 1.56417 0
M  V30 8127 H 804.598 -1.41713 3.12686 0
M  V30 8128 N 807.043 -1.17915 -1.04565 0
M  V30 8129 C 808.289 -0.972863 -1.77942 0
M  V30 8130 C 808.622 0.496753 -1.87739 0
M  V30 8131 O 807.897 1.3688 -1.38181 0
M  V30 8132 C 808.18 -1.62227 -3.21488 0
M  V30 8133 C 808.033 -3.16441 -3.19664 0
M  V30 8134 C 809.352 -1.33137 -4.19479 0
M  V30 8135 H 806.471 -0.354843 -0.645953 0
M  V30 8136 H 809.113 -1.45508 -1.22178 0
M  V30 8137 H 807.263 -1.21224 -3.69103 0
M  V30 8138 H 808.935 -3.66544 -2.80077 0
M  V30 8139 H 807.178 -3.48863 -2.57832 0
M  V30 8140 H 807.849 -3.57012 -4.21006 0
M  V30 8141 H 810.325 -1.68654 -3.80388 0
M  V30 8142 H 809.201 -1.81151 -5.18146 0
M  V30 8143 H 809.462 -0.253319 -4.41374 0
M  V30 8144 N 808.521 1.23394 -0.980386 0
M  V30 8145 C 809.798 1.87242 -0.565667 0
M  V30 8146 C 810.178 1.88151 0.957197 0
M  V30 8147 O 809.526 1.36309 1.8339 0
M  V30 8148 C 809.736 3.28743 -1.17172 0
M  V30 8149 C 811.084 4.05335 -1.26446 0
M  V30 8150 O 812.108 3.37962 -1.12517 0
M  V30 8151 O 810.967 5.25908 -1.48604 0
M  V30 8152 H 808.061 0.80477 -0.190459 0
M  V30 8153 H 810.607 1.3127 -1.07547 0
M  V30 8154 H 809.379 3.22647 -2.21392 0
M  V30 8155 H 809.002 3.92305 -0.646739 0
M  V30 8156 N 809.999 0.752036 1.385 0
M  V30 8157 C 811.224 0.316993 2.04963 0
M  V30 8158 C 811.649 -1.04582 1.56346 0
M  V30 8159 O 811.007 -1.66616 0.714755 0
M  V30 8160 C 811.055 0.347235 3.58924 0
M  V30 8161 O 810.159 -0.659296 4.07096 0
M  V30 8162 H 809.5 0.140652 0.648932 0
M  V30 8163 H 812.03 1.02272 1.77205 0
M  V30 8164 H 812.04 0.19757 4.07521 0
M  V30 8165 H 810.715 1.34157 3.93668 0
M  V30 8166 H 809.292 -0.474371 3.6987 0
M  V30 8167 N 811.477 -1.49425 0.500989 0
M  V30 8168 C 812.723 -2.02753 -0.0436 0
M  V30 8169 C 813.056 -1.37991 -1.36646 0
M  V30 8170 O 812.331 -0.515597 -1.87542 0
M  V30 8171 C 812.614 -3.59565 -0.19616 0
M  V30 8172 C 812.467 -4.34855 1.14982 0
M  V30 8173 C 813.786 -4.30014 -0.936795 0
M  V30 8174 H 810.905 -0.73686 -0.0143711 0
M  V30 8175 H 813.547 -1.78448 0.652397 0
M  V30 8176 H 811.697 -3.80405 -0.788959 0
M  V30 8177 H 813.369 -4.25512 1.7815 0
M  V30 8178 H 811.612 -3.97414 1.73911 0
M  V30 8179 H 812.283 -5.42933 0.996385 0
M  V30 8180 H 814.759 -4.1383 -0.434036 0
M  V30 8181 H 813.635 -5.39483 -1.01238 0
M  V30 8182 H 813.896 -3.95257 -1.9805 0
M  V30 8183 N 812.955 -0.234822 -1.55841 0
M  V30 8184 C 814.204 0.393685 -1.97821 0
M  V30 8185 C 814.517 1.59947 -1.1259 0
M  V30 8186 O 815.723 2.29835 -1.44528 0
M  V30 8187 C 814.179 0.751811 -3.5196 0
M  V30 8188 C 813.787 -0.431898 -4.45913 0
M  V30 8189 C 815.531 1.34518 -4.02623 0
M  V30 8190 C 813.438 -0.0505976 -5.91378 0
M  V30 8191 H 812.368 0.150864 -0.738753 0
M  V30 8192 H 815.019 -0.333132 -1.80451 0
M  V30 8193 H 813.401 1.53642 -3.6498 0
M  V30 8194 H 814.575 -1.20935 -4.44647 0
M  V30 8195 H 812.89 -0.939385 -4.05666 0
M  V30 8196 H 815.487 1.64359 -5.08813 0
M  V30 8197 H 815.83 2.26554 -3.49255 0
M  V30 8198 H 816.363 0.623729 -3.9288 0
M  V30 8199 H 813.102 -0.937779 -6.48757 0
M  V30 8200 H 812.622 0.690898 -5.95808 0
M  V30 8201 H 814.301 0.37146 -6.45933 0
M  V30 8202 N 814.433 1.57553 0.0384317 0
M  V30 8203 C 815.343 2.09333 1.0591 0
M  V30 8204 C 816.359 1.0299 1.40247 0
M  V30 8205 O 817.535 1.34669 1.49754 0
M  V30 8206 C 814.6 2.55468 2.34386 0
M  V30 8207 C 813.661 3.76254 2.06716 0
M  V30 8208 C 812.894 4.20179 3.29067 0
M  V30 8209 O 813.117 3.637 4.39407 0
M  V30 8210 O 812.051 5.12697 3.15317 0
M  V30 8211 H 815.877 2.96683 0.649087 0
M  V30 8212 H 813.462 1.47211 0.254802 0
M  V30 8213 H 815.344 2.85514 3.09935 0
M  V30 8214 H 814.019 1.71234 2.74701 0
M  V30 8215 H 812.926 3.51241 1.28766 0
M  V30 8216 H 814.259 4.61443 1.71263 0
M  V30 8217 N 815.911 -0.310526 1.54511 0
M  V30 8218 C 816.841 -1.38757 1.878 0
M  V30 8219 C 817.822 -1.53353 0.735991 0
M  V30 8220 O 819.007 -1.67018 0.990887 0
M  V30 8221 C 816.137 -2.75327 2.11689 0
M  V30 8222 C 815.091 -2.75506 3.27537 0
M  V30 8223 C 814.417 -4.15275 3.36824 0
M  V30 8224 C 815.717 -2.38093 4.64875 0
M  V30 8225 H 817.411 -1.11146 2.78005 0
M  V30 8226 H 814.957 -0.533232 1.33763 0
M  V30 8227 H 816.91 -3.50752 2.33562 0
M  V30 8228 H 815.634 -3.04443 1.18245 0
M  V30 8229 H 814.293 -2.02538 3.05572 0
M  V30 8230 H 813.941 -4.41553 2.40915 0
M  V30 8231 H 813.641 -4.16299 4.14692 0
M  V30 8232 H 815.165 -4.92493 3.60947 0
M  V30 8233 H 816.579 -3.03232 4.86542 0
M  V30 8234 H 814.976 -2.50345 5.45387 0
M  V30 8235 H 816.046 -1.33227 4.66239 0
M  V30 8236 N 817.389 -1.46805 -0.573248 0
M  V30 8237 C 818.321 -1.54127 -1.6964 0
M  V30 8238 C 819.334 -0.428778 -1.57052 0
M  V30 8239 O 820.523 -0.697612 -1.64303 0
M  V30 8240 C 817.623 -1.41438 -3.07975 0
M  V30 8241 C 816.796 -2.66974 -3.46474 0
M  V30 8242 C 815.855 -2.48349 -4.63906 0
M  V30 8243 O 814.881 -3.22109 -4.69292 0
M  V30 8244 N 816.083 -1.55129 -5.59388 0
M  V30 8245 H 818.848 -2.50971 -1.6381 0
M  V30 8246 H 816.409 -1.42981 -0.759479 0
M  V30 8247 H 818.401 -1.26737 -3.84343 0
M  V30 8248 H 816.971 -0.527388 -3.08119 0
M  V30 8249 H 816.191 -2.9655 -2.59715 0
M  V30 8250 H 817.479 -3.50347 -3.68964 0
M  V30 8251 H 816.877 -0.94324 -5.57781 0
M  V30 8252 H 815.434 -1.46387 -6.35149 0
M  V30 8253 N 818.867 0.818669 -1.34668 0
M  V30 8254 C 820.113 1.57746 -1.27453 0
M  V30 8255 C 820.446 1.93588 0.154077 0
M  V30 8256 O 819.721 1.60371 1.10051 0
M  V30 8257 C 820.004 2.87414 -2.16945 0
M  V30 8258 C 819.857 2.58125 -3.68363 0
M  V30 8259 C 821.176 3.89021 -2.05792 0
M  V30 8260 H 818.295 0.572339 -0.464324 0
M  V30 8261 H 820.937 0.942784 -1.64959 0
M  V30 8262 H 819.087 3.41576 -1.85089 0
M  V30 8263 H 820.759 2.10239 -4.10606 0
M  V30 8264 H 819.002 1.91503 -3.89242 0
M  V30 8265 H 819.673 3.5061 -4.26353 0
M  V30 8266 H 822.149 3.44224 -2.33771 0
M  V30 8267 H 821.025 4.77548 -2.70628 0
M  V30 8268 H 821.286 4.29786 -1.03618 0
M  V30 8269 N 820.346 1.18468 1.03938 0
M  V30 8270 C 821.571 1.00638 1.81347 0
M  V30 8271 C 821.996 -0.440477 1.8287 0
M  V30 8272 O 821.354 -1.31609 1.24695 0
M  V30 8273 C 821.402 1.5673 3.24759 0
M  V30 8274 O 820.506 0.789517 4.04772 0
M  V30 8275 H 819.847 0.356432 0.560225 0
M  V30 8276 H 822.377 1.57253 1.30891 0
M  V30 8277 H 822.387 1.59496 3.75533 0
M  V30 8278 H 821.062 2.62043 3.22965 0
M  V30 8279 H 819.639 0.834267 3.63448 0
M  V30 8280 N 821.824 -1.22873 0.986916 0
M  V30 8281 C 822.771 -2.2458 0.532215 0
M  V30 8282 C 823.741 -1.60375 -0.432322 0
M  V30 8283 O 824.926 -1.87775 -0.338416 0
M  V30 8284 C 822.066 -3.44761 -0.152864 0
M  V30 8285 C 821.179 -4.23501 0.852704 0
M  V30 8286 C 820.314 -5.31011 0.14176 0
M  V30 8287 C 819.353 -6.01464 1.1361 0
M  V30 8288 N 818.49 -7.00631 0.453871 0
M  V30 8289 H 823.33 -2.62838 1.40428 0
M  V30 8290 H 820.867 -1.29185 0.703543 0
M  V30 8291 H 822.825 -4.1333 -0.566926 0
M  V30 8292 H 821.455 -3.07284 -0.988756 0
M  V30 8293 H 820.507 -3.54286 1.38512 0
M  V30 8294 H 821.819 -4.72097 1.61014 0
M  V30 8295 H 820.973 -6.05805 -0.329337 0
M  V30 8296 H 819.712 -4.83373 -0.648229 0
M  V30 8297 H 818.717 -5.25456 1.61789 0
M  V30 8298 H 819.942 -6.5119 1.92686 0
M  V30 8299 H 817.888 -6.55235 -0.316791 0
M  V30 8300 H 817.805 -7.47204 1.14986 0
M  V30 8301 H 819.073 -7.795 0.00537823 0
M  V30 8302 N 823.302 -0.75937 -1.38099 0
M  V30 8303 C 824.55 -0.317485 -1.99591 0
M  V30 8304 C 824.871 1.10628 -1.60581 0
M  V30 8305 O 824.141 1.7575 -0.865378 0
M  V30 8306 H 822.721 -0.114397 -0.738189 0
M  V30 8307 H 825.383 -0.974749 -1.68774 0
M  V30 8308 H 824.479 -0.385227 -3.09713 0
M  V30 8309 N 824.78 1.49157 -0.508906 0
M  V30 8310 C 825.728 2.30922 0.278906 0
M  V30 8311 C 826.722 1.39889 0.955382 0
M  V30 8312 O 827.928 1.56901 0.882169 0
M  V30 8313 H 824.303 0.744087 0.108805 0
M  V30 8314 H 826.274 2.95277 -0.430583 0
M  V30 8315 C 825.023 3.21432 1.32576 0
M  V30 8316 H 824.346 3.91413 0.814634 0
M  V30 8317 H 825.786 3.81568 1.84882 0
M  V30 8318 C 824.245 2.41583 2.34817 0
M  V30 8319 O 824.775 2.1256 3.40854 0
M  V30 8320 N 822.981 2.03462 2.07489 0
M  V30 8321 H 822.528 2.27265 1.21278 0
M  V30 8322 H 822.486 1.50345 2.76123 0
M  V30 8323 N 826.258 0.243083 1.55714 0
M  V30 8324 C 827.19 -0.690766 2.18543 0
M  V30 8325 C 828.203 -1.14163 1.16064 0
M  V30 8326 O 829.392 -1.06906 1.42946 0
M  V30 8327 C 826.492 -1.95016 2.77168 0
M  V30 8328 C 825.665 -1.65137 4.05029 0
M  V30 8329 C 824.724 -2.75998 4.48009 0
M  V30 8330 O 823.75 -2.43547 5.14464 0
M  V30 8331 N 824.952 -4.05414 4.15476 0
M  V30 8332 H 827.717 -0.153203 2.99308 0
M  V30 8333 H 825.278 0.0628968 1.61778 0
M  V30 8334 H 827.27 -2.68414 3.0288 0
M  V30 8335 H 825.84 -2.39762 2.00582 0
M  V30 8336 H 825.06 -0.752768 3.86946 0
M  V30 8337 H 826.348 -1.42633 4.88399 0
M  V30 8338 H 825.746 -4.34613 3.62116 0
M  V30 8339 H 824.303 -4.75288 4.46032 0
M  V30 8340 N 827.736 -1.57571 -0.0300757 0
M  V30 8341 C 828.983 -1.89226 -0.721091 0
M  V30 8342 C 829.311 -0.840244 -1.75414 0
M  V30 8343 O 828.566 0.158906 -1.95054 0
M  V30 8344 C 828.865 -3.27624 -1.42818 0
M  V30 8345 C 828.531 -4.4776 -0.531208 0
M  V30 8346 C 827.193 -4.8036 -0.28415 0
M  V30 8347 C 829.545 -5.21125 0.0881582 0
M  V30 8348 C 826.873 -5.83715 0.591065 0
M  V30 8349 C 829.225 -6.2541 0.95107 0
M  V30 8350 C 827.889 -6.56486 1.2076 0
M  V30 8351 H 827.159 -0.692428 -0.263866 0
M  V30 8352 H 829.806 -1.91491 0.0189874 0
M  V30 8353 H 828.111 -3.21343 -2.24155 0
M  V30 8354 H 829.808 -3.49365 -1.96838 0
M  V30 8355 H 826.398 -4.2227 -0.73392 0
M  V30 8356 H 830.582 -4.96219 -0.0897496 0
M  V30 8357 H 825.838 -6.06168 0.798132 0
M  V30 8358 H 830.012 -6.81402 1.43751 0
M  V30 8359 H 827.639 -7.36395 1.88751 0
M  V30 8360 N 829.214 0.302327 -1.54673 0
M  V30 8361 C 830.46 1.03924 -1.74149 0
M  V30 8362 C 830.793 1.86968 -0.525041 0
M  V30 8363 O 830.068 1.88538 0.477868 0
M  V30 8364 C 830.351 1.94633 -3.02969 0
M  V30 8365 C 830.204 1.14778 -4.34909 0
M  V30 8366 C 831.523 2.93826 -3.27649 0
M  V30 8367 H 828.642 0.376405 -0.633631 0
M  V30 8368 H 831.284 0.314007 -1.87387 0
M  V30 8369 H 829.434 2.56471 -2.91813 0
M  V30 8370 H 831.106 0.552363 -4.57981 0
M  V30 8371 H 829.349 0.450462 -4.31455 0
M  V30 8372 H 830.02 1.81495 -5.21309 0
M  V30 8373 H 832.496 2.42117 -3.38406 0
M  V30 8374 H 831.372 3.54462 -4.19104 0
M  V30 8375 H 831.633 3.67416 -2.45882 0
M  V30 8376 N 830.692 1.47107 0.565454 0
M  V30 8377 C 831.625 1.53505 1.68853 0
M  V30 8378 C 832.603 0.387806 1.57908 0
M  V30 8379 O 833.787 0.594433 1.78882 0
M  V30 8380 C 830.914 1.42985 3.07039 0
M  V30 8381 C 829.96 2.62109 3.36454 0
M  V30 8382 S 830.793 4.2436 3.26617 0
M  V30 8383 C 831.949 4.16378 4.67312 0
M  V30 8384 H 832.182 2.48522 1.63169 0
M  V30 8385 H 829.715 1.35204 0.745609 0
M  V30 8386 H 831.673 1.37602 3.8675 0
M  V30 8387 H 830.334 0.493671 3.10196 0
M  V30 8388 H 829.527 2.50788 4.37174 0
M  V30 8389 H 829.129 2.64571 2.64345 0
M  V30 8390 H 831.421 3.84123 5.58082 0
M  V30 8391 H 832.364 5.17156 4.83689 0
M  V30 8392 H 832.772 3.47363 4.44971 0
M  V30 8393 N 832.17 -0.811516 1.35101 0
M  V30 8394 C 833.581 -1.38515 1.25182 0
M  V30 8395 C 833.932 -1.95846 -0.117883 0
M  V30 8396 O 833.057 -1.90925 -1.01866 0
M  V30 8397 C 833.652 -2.51813 2.26662 0
M  V30 8398 C 832.211 -3.05052 2.20499 0
M  V30 8399 C 831.358 -1.77987 2.12641 0
M  V30 8400 H 834.309 -0.614959 1.46301 0
M  V30 8401 H 834.33 -3.30228 1.89023 0
M  V30 8402 H 833.842 -2.10057 3.2634 0
M  V30 8403 H 831.943 -3.51285 1.24215 0
M  V30 8404 H 832.056 -3.63368 3.1225 0
M  V30 8405 H 830.42 -1.99342 1.5854 0
M  V30 8406 H 831.203 -1.38389 3.14171 0
M  V30 8407 N 833.648 -1.19017 -1.03309 0
M  V30 8408 C 834.925 -0.899659 -1.73682 0
M  V30 8409 C 835.305 0.595677 -2.02521 0
M  V30 8410 O 834.653 1.55263 -1.67648 0
M  V30 8411 C 834.863 -1.75508 -3.01659 0
M  V30 8412 C 836.211 -1.98679 -3.75249 0
M  V30 8413 O 837.235 -1.72624 -3.11576 0
M  V30 8414 O 836.094 -2.42587 -4.89708 0
M  V30 8415 H 833.188 -0.334903 -0.756154 0
M  V30 8416 H 835.734 -1.29809 -1.09305 0
M  V30 8417 H 834.506 -2.7684 -2.76542 0
M  V30 8418 H 834.129 -1.35565 -3.73775 0
M  V30 8419 N 835.127 1.22348 -0.993418 0
M  V30 8420 C 836.057 2.26584 -0.564088 0
M  V30 8421 C 837.038 1.65102 0.409298 0
M  V30 8422 O 838.223 1.91872 0.299819 0
M  V30 8423 C 835.353 3.47087 0.121554 0
M  V30 8424 C 834.307 4.21009 -0.770429 0
M  V30 8425 C 833.633 5.34678 0.0481586 0
M  V30 8426 C 834.933 4.79636 -2.06752 0
M  V30 8427 H 836.627 2.62749 -1.43538 0
M  V30 8428 H 834.173 1.26303 -0.691628 0
M  V30 8429 H 836.126 4.19166 0.433303 0
M  V30 8430 H 834.85 3.1002 1.0274 0
M  V30 8431 H 833.509 3.50764 -1.06583 0
M  V30 8432 H 833.157 4.93852 0.954933 0
M  V30 8433 H 832.857 5.85061 -0.545641 0
M  V30 8434 H 834.381 6.09573 0.353991 0
M  V30 8435 H 835.795 5.43654 -1.81969 0
M  V30 8436 H 834.192 5.4036 -2.61019 0
M  V30 8437 H 835.262 3.99659 -2.74592 0
M  V30 8438 N 836.605 0.766683 1.37694 0
M  V30 8439 C 837.83 0.338715 2.04615 0
M  V30 8440 C 838.255 -1.02918 1.57447 0
M  V30 8441 O 837.613 -1.65849 0.732386 0
M  V30 8442 C 837.661 0.385284 3.58536 0
M  V30 8443 O 836.765 -0.616081 4.07772 0
M  V30 8444 H 836.106 0.147527 0.647404 0
M  V30 8445 H 838.636 1.04146 1.7611 0
M  V30 8446 H 838.646 0.240782 4.07289 0
M  V30 8447 H 837.321 1.38325 3.92223 0
M  V30 8448 H 835.898 -0.435115 3.70353 0
M  V30 8449 N 838.083 -1.48885 0.516809 0
M  V30 8450 C 839.331 -2.02088 -0.0220166 0
M  V30 8451 C 839.652 -1.39735 -1.36011 0
M  V30 8452 O 838.922 -0.558119 -1.87781 0
M  V30 8453 H 837.502 -0.746917 -0.0111255 0
M  V30 8454 H 840.164 -1.8274 0.677647 0
M  V30 8455 H 839.26 -3.11786 -0.140067 0
M  V30 8456 N 839.561 -0.251338 -1.55583 0
M  V30 8457 C 840.494 0.687092 -2.1761 0
M  V30 8458 C 841.472 1.16963 -1.12953 0
M  V30 8459 O 842.656 1.24696 -1.41362 0
M  V30 8460 C 839.783 1.93429 -2.78034 0
M  V30 8461 C 838.829 1.58925 -3.95784 0
M  V30 8462 S 839.662 0.688019 -5.31062 0
M  V30 8463 C 840.818 1.94413 -5.94941 0
M  V30 8464 H 841.051 0.159982 -2.96869 0
M  V30 8465 H 838.584 -0.0357593 -1.54359 0
M  V30 8466 H 840.542 2.65028 -3.13481 0
M  V30 8467 H 839.203 2.43253 -1.98713 0
M  V30 8468 H 838.396 2.51668 -4.36668 0
M  V30 8469 H 837.998 0.953664 -3.61637 0
M  V30 8470 H 840.29 2.89087 -6.12727 0
M  V30 8471 H 841.233 1.5787 -6.90277 0
M  V30 8472 H 841.641 2.09824 -5.24056 0
M  V30 8473 N 841.039 1.57585 0.0217189 0
M  V30 8474 C 842.286 1.89606 0.711045 0
M  V30 8475 C 842.614 0.849535 1.74966 0
M  V30 8476 O 841.869 -0.14856 1.95135 0
M  V30 8477 C 842.168 3.28377 1.41079 0
M  V30 8478 C 841.834 4.48035 0.507454 0
M  V30 8479 C 840.496 4.80504 0.258672 0
M  V30 8480 C 842.848 5.21071 -0.115793 0
M  V30 8481 C 840.176 5.83393 -0.622013 0
M  V30 8482 C 842.528 6.24897 -0.984224 0
M  V30 8483 C 841.192 6.55836 -1.2424 0
M  V30 8484 H 840.462 0.693817 0.26019 0
M  V30 8485 H 843.109 1.91478 -0.0291424 0
M  V30 8486 H 841.414 3.22528 2.22448 0
M  V30 8487 H 843.111 3.50404 1.94982 0
M  V30 8488 H 839.701 4.22653 0.711516 0
M  V30 8489 H 843.885 4.96259 0.0634327 0
M  V30 8490 H 839.141 6.05736 -0.830267 0
M  V30 8491 H 843.315 6.8063 -1.47363 0
M  V30 8492 H 840.942 7.35383 -1.92653 0
M  V30 8493 N 842.517 -0.29412 1.54831 0
M  V30 8494 C 843.763 -1.02602 1.75626 0
M  V30 8495 C 844.118 -1.84689 0.539232 0
M  V30 8496 O 843.411 -1.85788 -0.468322 0
M  V30 8497 C 843.605 -1.95782 2.99006 0
M  V30 8498 C 843.434 -1.22861 4.32591 0
M  V30 8499 C 842.204 -0.95294 4.96233 0
M  V30 8500 C 844.402 -0.629592 5.10432 0
M  V30 8501 N 842.384 -0.194728 6.13591 0
M  V30 8502 C 843.755 -0.00449586 6.2 0
M  V30 8503 C 845.81 -0.535327 4.95014 0
M  V30 8504 C 844.513 0.705754 7.15829 0
M  V30 8505 C 846.539 0.161284 5.9118 0
M  V30 8506 C 845.901 0.775203 7.00121 0
M  V30 8507 H 842 -0.358143 0.695167 0
M  V30 8508 H 844.584 -0.303896 1.92314 0
M  V30 8509 H 842.755 -2.65238 2.83731 0
M  V30 8510 H 844.487 -2.62175 3.08296 0
M  V30 8511 H 841.242 -1.25285 4.56728 0
M  V30 8512 H 841.666 0.171093 6.76784 0
M  V30 8513 H 846.308 -0.995662 4.10909 0
M  V30 8514 H 844.026 1.17784 7.9947 0
M  V30 8515 H 847.612 0.234256 5.81328 0
M  V30 8516 H 846.492 1.30566 7.73254 0
M  V30 8517 N 843.995 -1.47404 -0.557645 0
M  V30 8518 C 845.241 -1.54235 -1.31679 0
M  V30 8519 C 845.574 -0.203782 -1.93128 0
M  V30 8520 O 844.849 0.787536 -1.77843 0
M  V30 8521 C 845.132 -2.66003 -2.42723 0
M  V30 8522 C 844.985 -4.09475 -1.86145 0
M  V30 8523 C 846.304 -2.73685 -3.44652 0
M  V30 8524 H 843.423 -0.561466 -0.477415 0
M  V30 8525 H 846.065 -1.79459 -0.624067 0
M  V30 8526 H 844.215 -2.44627 -3.01811 0
M  V30 8527 H 845.887 -4.42213 -1.31321 0
M  V30 8528 H 844.13 -4.17774 -1.16823 0
M  V30 8529 H 844.801 -4.83451 -2.66418 0
M  V30 8530 H 847.277 -2.92968 -2.95481 0
M  V30 8531 H 846.153 -3.53665 -4.19777 0
M  V30 8532 H 846.414 -1.80726 -4.03473 0
M  V30 8533 N 845.473 0.80434 -1.35529 0
M  V30 8534 C 846.75 1.5486 -1.1949 0
M  V30 8535 C 847.13 2.09897 0.22506 0
M  V30 8536 O 846.478 1.92643 1.22886 0
M  V30 8537 C 846.688 2.65535 -2.26478 0
M  V30 8538 C 848.036 3.33814 -2.62399 0
M  V30 8539 O 849.06 2.75807 -2.25409 0
M  V30 8540 O 847.919 4.38612 -3.26009 0
M  V30 8541 H 845.013 0.68433 -0.464351 0
M  V30 8542 H 847.559 0.844107 -1.47217 0
M  V30 8543 H 846.331 2.22754 -3.21709 0
M  V30 8544 H 845.954 3.43617 -2.00033 0
M  V30 8545 N 846.951 1.19563 1.02676 0
M  V30 8546 C 847.914 0.937182 2.09164 0
M  V30 8547 C 848.914 -0.0831927 1.60585 0
M  V30 8548 O 850.104 0.15178 1.73538 0
M  V30 8549 C 847.236 0.408912 3.38439 0
M  V30 8550 H 848.429 1.88164 2.33526 0
M  V30 8551 H 845.982 1.00959 1.19319 0
M  V30 8552 H 846.717 -0.541497 3.19747 0
M  V30 8553 H 846.502 1.14464 3.7502 0
M  V30 8554 H 847.992 0.247242 4.16867 0
M  V30 8555 N 848.429 -1.21819 0.999893 0
M  V30 8556 C 849.339 -2.27691 0.565159 0
M  V30 8557 C 850.355 -1.69587 -0.389398 0
M  V30 8558 O 851.531 -1.99786 -0.254499 0
M  V30 8559 C 848.596 -3.46537 -0.106432 0
M  V30 8560 C 847.657 -4.19932 0.891964 0
M  V30 8561 C 846.89 -5.33103 0.252327 0
M  V30 8562 O 847.113 -5.62398 -0.952103 0
M  V30 8563 O 846.047 -5.94184 0.960698 0
M  V30 8564 H 849.873 -2.67059 1.44613 0
M  V30 8565 H 847.458 -1.28119 0.768499 0
M  V30 8566 H 849.34 -4.18631 -0.482301 0
M  V30 8567 H 848.015 -3.09079 -0.961865 0
M  V30 8568 H 846.922 -3.5008 1.3189 0
M  V30 8569 H 848.255 -4.61287 1.71682 0
M  V30 8570 N 849.908 -0.773975 -1.37286 0
M  V30 8571 C 851.319 -0.404433 -1.82267 0
M  V30 8572 C 851.67 1.06971 -1.64474 0
M  V30 8573 O 850.795 1.82867 -1.15708 0
M  V30 8574 C 851.39 -0.727298 -3.30902 0
M  V30 8575 C 849.949 -0.410784 -3.74152 0
M  V30 8576 C 849.096 -0.969983 -2.59782 0
M  V30 8577 H 852.047 -0.968437 -1.25726 0
M  V30 8578 H 852.068 -0.0127575 -3.80498 0
M  V30 8579 H 851.58 -1.80026 -3.4382 0
M  V30 8580 H 849.681 0.65477 -3.66802 0
M  V30 8581 H 849.794 -0.920592 -4.70172 0
M  V30 8582 H 848.158 -0.394094 -2.51633 0
M  V30 8583 H 848.941 -2.04839 -2.75492 0
M  V30 8584 N 851.386 1.48609 -0.524698 0
M  V30 8585 C 852.802 1.58557 -0.182199 0
M  V30 8586 C 853.002 1.52732 1.31435 0
M  V30 8587 O 852.058 1.41362 2.0922 0
M  V30 8588 C 853.371 2.90406 -0.78004 0
M  V30 8589 C 854.919 3.03924 -0.748293 0
M  V30 8590 C 855.394 4.38427 -1.32462 0
M  V30 8591 N 856.885 4.4498 -1.28635 0
M  V30 8592 C 857.62 5.47551 -1.70223 0
M  V30 8593 N 857.116 6.57103 -2.19515 0
M  V30 8594 N 858.909 5.38402 -1.61493 0
M  V30 8595 H 851.06 1.50638 -1.4974 0
M  V30 8596 H 853.323 0.714952 -0.622533 0
M  V30 8597 H 853.029 3.00308 -1.83052 0
M  V30 8598 H 852.903 3.76343 -0.254075 0
M  V30 8599 H 855.29 2.93638 0.293407 0
M  V30 8600 H 855.371 2.19611 -1.31167 0
M  V30 8601 H 855.015 4.49466 -2.36522 0
M  V30 8602 H 854.945 5.21418 -0.736967 0
M  V30 8603 H 857.436 3.66393 -0.92545 0
M  V30 8604 H 857.749 7.31499 -2.49257 0
M  V30 8605 H 856.094 6.58081 -2.23506 0
M  V30 8606 H 859.285 4.5171 -1.22785 0
M  V30 8607 H 859.458 6.18208 -1.94225 0
M  V30 8608 N 852.864 0.259585 1.55447 0
M  V30 8609 C 853.794 -0.62852 2.24882 0
M  V30 8610 C 854.775 -1.17128 1.23349 0
M  V30 8611 O 855.96 -1.20829 1.52033 0
M  V30 8612 C 853.09 -1.81983 2.95803 0
M  V30 8613 C 852.044 -1.40929 4.04132 0
M  V30 8614 C 851.37 -2.68246 4.62545 0
M  V30 8615 C 852.67 -0.570956 5.1917 0
M  V30 8616 H 854.364 -0.0495021 2.99359 0
M  V30 8617 H 851.91 -0.0223688 1.43983 0
M  V30 8618 H 853.863 -2.44689 3.43082 0
M  V30 8619 H 852.587 -2.42444 2.18835 0
M  V30 8620 H 851.246 -0.805519 3.57641 0
M  V30 8621 H 850.894 -3.26931 3.82263 0
M  V30 8622 H 850.594 -2.41495 5.35681 0
M  V30 8623 H 852.118 -3.31827 5.12565 0
M  V30 8624 H 853.532 -1.10262 5.62597 0
M  V30 8625 H 851.929 -0.398979 5.98772 0
M  V30 8626 H 852.999 0.413918 4.8313 0
M  V30 8627 N 854.342 -1.57594 -0.0133615 0
M  V30 8628 C 855.758 -1.5527 -0.369255 0
M  V30 8629 C 855.958 -0.987751 -1.7563 0
M  V30 8630 O 855.014 -0.615683 -2.44879 0
M  V30 8631 C 856.327 -2.99602 -0.25672 0
M  V30 8632 C 857.875 -3.11227 -0.332647 0
M  V30 8633 C 858.35 -4.57321 -0.249387 0
M  V30 8634 N 859.841 -4.62177 -0.3077 0
M  V30 8635 C 860.576 -5.72781 -0.26641 0
M  V30 8636 N 860.072 -6.92575 -0.176494 0
M  V30 8637 N 861.865 -5.61204 -0.317295 0
M  V30 8638 H 854.016 -1.92662 0.894154 0
M  V30 8639 H 856.279 -0.884352 0.341505 0
M  V30 8640 H 855.985 -3.44723 0.697072 0
M  V30 8641 H 855.859 -3.6246 -1.04415 0
M  V30 8642 H 858.246 -2.66045 -1.27688 0
M  V30 8643 H 858.327 -2.51171 0.484412 0
M  V30 8644 H 857.971 -5.03174 0.691242 0
M  V30 8645 H 857.901 -5.15306 -1.08476 0
M  V30 8646 H 860.392 -3.75994 -0.379069 0
M  V30 8647 H 860.705 -7.72653 -0.150518 0
M  V30 8648 H 859.05 -6.94854 -0.142314 0
M  V30 8649 H 862.241 -4.66509 -0.385643 0
M  V30 8650 H 862.414 -6.47388 -0.28165 0
M  V30 8651 N 855.82 0.285905 -1.54985 0
M  V30 8652 C 856.783 1.33625 -1.86218 0
M  V30 8653 C 857.783 1.42971 -0.735936 0
M  V30 8654 O 858.973 1.42345 -1.00417 0
M  V30 8655 C 856.105 2.71926 -2.05595 0
M  V30 8656 H 857.298 1.07167 -2.80099 0
M  V30 8657 H 854.851 0.523335 -1.47278 0
M  V30 8658 H 855.586 3.03583 -1.14053 0
M  V30 8659 H 855.371 2.6653 -2.87583 0
M  V30 8660 H 856.861 3.47841 -2.31077 0
M  V30 8661 N 857.298 1.47698 0.54982 0
M  V30 8662 C 858.228 1.63622 1.66583 0
M  V30 8663 C 859.209 0.485477 1.63025 0
M  V30 8664 O 860.394 0.715692 1.80531 0
M  V30 8665 C 857.524 1.65721 3.05211 0
M  V30 8666 C 856.478 2.80097 3.2362 0
M  V30 8667 C 855.804 2.67272 4.63109 0
M  V30 8668 C 857.104 4.21612 3.08286 0
M  V30 8669 H 858.798 2.57049 1.53512 0
M  V30 8670 H 856.344 1.23705 0.737099 0
M  V30 8671 H 858.297 1.75451 3.83138 0
M  V30 8672 H 857.021 0.688593 3.19258 0
M  V30 8673 H 855.68 2.69889 2.48104 0
M  V30 8674 H 855.328 1.68422 4.73965 0
M  V30 8675 H 855.028 3.44008 4.76374 0
M  V30 8676 H 856.552 2.78942 5.43161 0
M  V30 8677 H 857.966 4.32758 3.76024 0
M  V30 8678 H 856.363 4.99193 3.33057 0
M  V30 8679 H 857.433 4.39462 2.04942 0
M  V30 8680 N 858.776 -0.797141 1.35954 0
M  V30 8681 C 860.024 -1.55161 1.29497 0
M  V30 8682 C 860.345 -1.94582 -0.127659 0
M  V30 8683 O 859.615 -1.64343 -1.06622 0
M  V30 8684 H 858.195 -0.575413 0.47635 0
M  V30 8685 H 860.857 -0.950282 1.70164 0
M  V30 8686 H 859.953 -2.46272 1.9172 0
M  V30 8687 N 860.254 -1.20106 -1.0204 0
M  V30 8688 C 861.5 -1.02042 -1.75951 0
M  V30 8689 C 861.855 0.443229 -1.87225 0
M  V30 8690 O 861.148 1.32477 -1.38421 0
M  V30 8691 C 861.342 -1.63308 -3.17908 0
M  V30 8692 C 861.171 -3.15478 -3.20474 0
M  V30 8693 C 859.941 -3.84432 -3.27933 0
M  V30 8694 C 862.139 -4.12747 -3.06829 0
M  V30 8695 N 860.121 -5.23925 -3.19963 0
M  V30 8696 C 861.492 -5.38892 -3.06586 0
M  V30 8697 C 863.547 -4.03996 -2.91018 0
M  V30 8698 C 862.25 -6.57296 -2.92154 0
M  V30 8699 C 864.276 -5.22019 -2.77938 0
M  V30 8700 C 863.638 -6.47067 -2.78358 0
M  V30 8701 H 859.737 -0.427602 -0.654737 0
M  V30 8702 H 862.321 -1.52216 -1.21402 0
M  V30 8703 H 860.492 -1.15723 -3.7076 0
M  V30 8704 H 862.224 -1.38597 -3.80227 0
M  V30 8705 H 858.979 -3.35269 -3.34502 0
M  V30 8706 H 859.403 -5.9694 -3.19362 0
M  V30 8707 H 864.045 -3.0813 -2.8951 0
M  V30 8708 H 861.763 -7.5334 -2.92412 0
M  V30 8709 H 865.349 -5.17057 -2.66728 0
M  V30 8710 H 864.229 -7.36857 -2.6835 0
M  V30 8711 N 861.732 1.21287 -1.00634 0
M  V30 8712 C 862.96 1.94385 -0.708678 0
M  V30 8713 C 863.375 1.7416 0.728957 0
M  V30 8714 O 862.732 1.04906 1.49335 0
M  V30 8715 C 862.783 3.46755 -1.02193 0
M  V30 8716 O 862.504 3.6631 -2.40309 0
M  V30 8717 C 864.005 4.37014 -0.743867 0
M  V30 8718 H 861.225 0.618136 -0.261052 0
M  V30 8719 H 863.769 1.54067 -1.34475 0
M  V30 8720 H 861.924 3.8499 -0.431441 0
M  V30 8721 H 862.338 4.60393 -2.51274 0
M  V30 8722 H 863.812 5.42621 -1.01321 0
M  V30 8723 H 864.289 4.38017 0.322084 0
M  V30 8724 H 864.895 4.04426 -1.31603 0
M  V30 8725 N 863.21 0.781244 1.36873 0
M  V30 8726 C 864.458 0.349198 1.9906 0
M  V30 8727 C 864.779 -1.0806 1.62321 0
M  V30 8728 O 864.049 -1.74351 0.893229 0
M  V30 8729 H 862.629 0.126126 0.736275 0
M  V30 8730 H 865.291 1.00148 1.67202 0
M  V30 8731 H 864.387 0.434451 3.09061 0
M  V30 8732 N 864.689 -1.48329 0.532571 0
M  V30 8733 C 865.622 -2.26524 -0.2761 0
M  V30 8734 C 866.6 -1.32498 -0.942496 0
M  V30 8735 O 867.784 -1.61844 -0.966376 0
M  V30 8736 C 864.911 -3.08808 -1.39124 0
M  V30 8737 C 863.957 -4.18227 -0.835984 0
M  V30 8738 S 864.79 -5.34669 0.298186 0
M  V30 8739 C 865.946 -6.20514 -0.81937 0
M  V30 8740 H 866.179 -2.94764 0.387502 0
M  V30 8741 H 863.712 -1.51081 0.318407 0
M  V30 8742 H 865.67 -3.56792 -2.03002 0
M  V30 8743 H 864.331 -2.39976 -2.02658 0
M  V30 8744 H 863.524 -4.75435 -1.67264 0
M  V30 8745 H 863.126 -3.72996 -0.27385 0
M  V30 8746 H 865.418 -6.55371 -1.7174 0
M  V30 8747 H 866.361 -7.07525 -0.285199 0
M  V30 8748 H 866.769 -5.5366 -1.10094 0
M  V30 8749 N 866.167 -0.267825 -1.55308 0
M  V30 8750 C 867.097 0.616585 -2.25212 0
M  V30 8751 C 868.078 1.16472 -1.23969 0
M  V30 8752 O 869.263 1.20021 -1.52672 0
M  V30 8753 C 866.393 1.80412 -2.96764 0
M  V30 8754 C 865.347 1.38784 -4.04874 0
M  V30 8755 C 864.673 2.65789 -4.63961 0
M  V30 8756 C 865.973 0.543415 -5.19465 0
M  V30 8757 H 867.667 0.0336257 -2.99381 0
M  V30 8758 H 865.213 0.0147328 -1.43992 0
M  V30 8759 H 867.166 2.42866 -3.44375 0
M  V30 8760 H 865.89 2.4128 -2.20118 0
M  V30 8761 H 864.549 0.786541 -3.58063 0
M  V30 8762 H 864.197 3.24899 -3.83992 0
M  V30 8763 H 863.897 2.38651 -5.36954 0
M  V30 8764 H 865.421 3.29104 -5.14318 0
M  V30 8765 H 866.835 1.07277 -5.63174 0
M  V30 8766 H 865.232 0.367219 -5.98975 0
M  V30 8767 H 866.302 -0.439534 -4.82904 0
M  V30 8768 N 867.645 1.57599 0.00500368 0
M  V30 8769 C 868.922 1.81561 0.727654 0
M  V30 8770 C 869.302 0.871604 1.92266 0
M  V30 8771 O 868.65 -0.0808232 2.28357 0
M  V30 8772 C 868.86 3.29922 1.13809 0
M  V30 8773 C 870.208 3.95531 1.54403 0
M  V30 8774 O 871.232 3.34215 1.23202 0
M  V30 8775 O 870.091 5.03535 2.12402 0
M  V30 8776 H 867.185 0.747462 0.353878 0
M  V30 8777 H 869.731 1.69688 -0.0200667 0
M  V30 8778 H 868.503 3.90253 0.286078 0
M  V30 8779 H 868.126 3.46775 1.94507 0
M  V30 8780 N 869.123 -0.277682 1.55134 0
M  V30 8781 C 870.07 -1.34313 1.87693 0
M  V30 8782 C 871.04 -1.49298 0.727973 0
M  V30 8783 O 872.225 -1.6378 0.978807 0
M  V30 8784 C 869.365 -2.69922 2.15026 0
M  V30 8785 C 868.478 -2.63197 3.42565 0
M  V30 8786 C 867.613 -3.90955 3.59622 0
M  V30 8787 C 866.652 -3.78722 4.8087 0
M  V30 8788 N 865.789 -4.98303 4.94609 0
M  V30 8789 H 870.629 -1.05847 2.78569 0
M  V30 8790 H 868.166 -0.511469 1.37922 0
M  V30 8791 H 870.124 -3.48817 2.28872 0
M  V30 8792 H 868.754 -2.966 1.2739 0
M  V30 8793 H 867.806 -1.76038 3.37216 0
M  V30 8794 H 869.118 -2.50056 4.31594 0
M  V30 8795 H 868.272 -4.78291 3.7326 0
M  V30 8796 H 867.011 -4.06957 2.6877 0
M  V30 8797 H 866.016 -2.89769 4.67241 0
M  V30 8798 H 867.241 -3.64242 5.73153 0
M  V30 8799 H 865.187 -5.14725 4.06687 0
M  V30 8800 H 865.104 -4.87675 5.77676 0
M  V30 8801 H 866.372 -5.87225 5.12628 0
M  V30 8802 N 870.601 -1.47988 -0.541979 0
M  V30 8803 C 871.849 -1.55086 -1.29587 0
M  V30 8804 C 872.17 -0.221304 -1.9374 0
M  V30 8805 O 871.44 0.756128 -1.80719 0
M  V30 8806 H 870.02 -0.571307 -0.481266 0
M  V30 8807 H 872.682 -1.8438 -0.631675 0
M  V30 8808 H 871.778 -2.32556 -2.08144 0
M  V30 8809 N 872.079 0.78992 -1.36375 0
M  V30 8810 C 873.042 1.88414 -1.30509 0
M  V30 8811 C 874.042 1.59384 -0.2129 0
M  V30 8812 O 875.232 1.67805 -0.467651 0
M  V30 8813 C 872.364 3.25188 -1.02302 0
M  V30 8814 H 873.557 1.95031 -2.27822 0
M  V30 8815 H 871.11 0.987664 -1.2114 0
M  V30 8816 H 871.845 3.24254 -0.0544486 0
M  V30 8817 H 871.63 3.47647 -1.81338 0
M  V30 8818 H 873.12 4.05252 -1.00801 0
M  V30 8819 N 873.557 1.20646 1.01402 0
M  V30 8820 C 874.834 0.927176 1.72229 0
M  V30 8821 C 875.214 -0.563382 2.03443 0
M  V30 8822 O 874.562 -1.52576 1.70096 0
M  V30 8823 C 874.772 1.80285 2.98828 0
M  V30 8824 C 876.12 2.04624 3.72041 0
M  V30 8825 O 877.144 1.77559 3.0879 0
M  V30 8826 O 876.003 2.50347 4.85787 0
M  V30 8827 H 873.097 0.346891 0.75073 0
M  V30 8828 H 875.643 1.31532 1.07227 0
M  V30 8829 H 874.415 2.81204 2.72102 0
M  V30 8830 H 874.038 1.41495 3.71571 0
M  V30 8831 N 875.035 -1.20752 1.01276 0
M  V30 8832 C 876.281 -1.90302 0.700924 0
M  V30 8833 C 876.614 -1.78406 -0.767142 0
M  V30 8834 O 875.889 -1.16575 -1.55694 0
M  V30 8835 C 876.172 -3.41831 1.13242 0
M  V30 8836 C 876.025 -3.6268 2.66051 0
M  V30 8837 C 877.344 -4.34486 0.700738 0
M  V30 8838 H 874.463 -0.69107 0.256107 0
M  V30 8839 H 877.105 -1.42227 1.25982 0
M  V30 8840 H 875.255 -3.82906 0.656902 0
M  V30 8841 H 876.927 -3.30882 3.21426 0
M  V30 8842 H 875.17 -3.06281 3.07204 0
M  V30 8843 H 875.841 -4.68882 2.91296 0
M  V30 8844 H 878.317 -4.01036 1.10948 0
M  V30 8845 H 877.193 -5.39136 1.03073 0
M  V30 8846 H 877.454 -4.40307 -0.39778 0
M  V30 8847 N 876.513 -0.788492 -1.36457 0
M  V30 8848 C 877.79 -0.284484 -1.9352 0
M  V30 8849 C 878.17 1.2232 -1.7205 0
M  V30 8850 O 877.518 2.01424 -1.07892 0
M  V30 8851 C 877.728 -0.676106 -3.42388 0
M  V30 8852 C 879.076 -0.655327 -4.19512 0
M  V30 8853 O 880.1 -0.616523 -3.50824 0
M  V30 8854 O 878.959 -0.697391 -5.42032 0
M  V30 8855 H 876.053 -0.0701769 -0.824017 0
M  V30 8856 H 878.599 -0.870974 -1.45644 0
M  V30 8857 H 877.371 -1.71596 -3.51668 0
M  V30 8858 H 876.994 -0.0634517 -3.97549 0
M  V30 8859 N 877.991 1.48044 -0.54043 0
M  V30 8860 C 878.954 2.28273 0.205966 0
M  V30 8861 C 879.954 1.35983 0.858209 0
M  V30 8862 O 881.144 1.58776 0.716651 0
M  V30 8863 C 878.276 3.15174 1.29917 0
M  V30 8864 H 879.469 2.95727 -0.498555 0
M  V30 8865 H 877.022 1.53457 -0.296745 0
M  V30 8866 H 877.757 2.52374 2.03661 0
M  V30 8867 H 877.542 3.83074 0.836475 0
M  V30 8868 H 879.032 3.75666 1.82387 0
M  V30 8869 N 879.47 0.276058 1.55163 0
M  V30 8870 C 880.718 -0.339782 1.99223 0
M  V30 8871 C 881.039 -1.56307 1.16589 0
M  V30 8872 O 880.309 -1.94225 0.25564 0
M  V30 8873 H 878.889 -0.128534 0.735859 0
M  V30 8874 H 881.551 0.381612 1.91128 0
M  V30 8875 H 880.647 -0.629 3.05696 0
M  V30 8876 N 880.948 -1.576 0.00335426 0
M  V30 8877 C 882.196 -1.90336 -0.679446 0
M  V30 8878 C 882.517 -0.877777 -1.74127 0
M  V30 8879 O 881.787 0.0843585 -1.95718 0
M  V30 8880 H 880.367 -0.702509 -0.253948 0
M  V30 8881 H 883.029 -1.94848 0.0450731 0
M  V30 8882 H 882.125 -2.90197 -1.14857 0
M  V30 8883 N 882.426 0.269451 -1.5528 0
M  V30 8884 C 883.651 1.02299 -1.80415 0
M  V30 8885 C 884.076 1.7902 -0.577363 0
M  V30 8886 O 883.434 1.75018 0.473125 0
M  V30 8887 C 883.482 1.95445 -3.0304 0
M  V30 8888 O 882.586 3.04271 -2.78375 0
M  V30 8889 H 881.927 0.292289 -0.596207 0
M  V30 8890 H 884.457 0.297282 -2.02429 0
M  V30 8891 H 884.467 2.37333 -3.31869 0
M  V30 8892 H 883.142 1.39017 -3.91978 0
M  V30 8893 H 881.719 2.66673 -2.60653 0
M  V30 8894 N 883.904 1.48273 0.534124 0
M  V30 8895 C 884.836 1.5857 1.65494 0
M  V30 8896 C 885.849 0.470266 1.5586 0
M  V30 8897 O 887.038 0.740928 1.62396 0
M  V30 8898 C 884.138 1.49554 3.04117 0
M  V30 8899 C 883.311 2.76066 3.39273 0
M  V30 8900 C 882.37 2.60562 4.57159 0
M  V30 8901 O 881.396 3.34438 4.60587 0
M  V30 8902 N 882.598 1.69906 5.55079 0
M  V30 8903 H 885.363 2.55226 1.57099 0
M  V30 8904 H 882.924 1.44944 0.721303 0
M  V30 8905 H 884.916 1.36882 3.80848 0
M  V30 8906 H 883.486 0.608895 3.06613 0
M  V30 8907 H 882.706 3.03332 2.51761 0
M  V30 8908 H 883.994 3.60006 3.59546 0
M  V30 8909 H 883.392 1.09079 5.55084 0
M  V30 8910 H 881.949 1.63175 6.31044 0
M  V30 8911 N 885.382 -0.782676 1.36792 0
M  V30 8912 C 886.332 -1.8855 1.28191 0
M  V30 8913 C 887.316 -1.59978 0.171984 0
M  V30 8914 O 888.508 -1.72295 0.405405 0
M  V30 8915 C 885.637 -3.25862 1.08021 0
M  V30 8916 C 884.723 -3.60422 2.2351 0
M  V30 8917 N 885.114 -3.66241 3.48857 0
M  V30 8918 C 883.412 -3.90523 2.15424 0
M  V30 8919 C 884.113 -3.97233 4.24948 0
M  V30 8920 N 883.089 -4.12567 3.53963 0
M  V30 8921 H 886.891 -1.91285 2.23131 0
M  V30 8922 H 884.405 -0.978554 1.29607 0
M  V30 8923 H 886.402 -4.04742 0.999458 0
M  V30 8924 H 885.062 -3.24399 0.139882 0
M  V30 8925 H 886.073 -3.48717 3.82906 0
M  V30 8926 H 882.75 -3.96945 1.29386 0
M  V30 8927 H 884.14 -4.08602 5.33379 0
M  V30 8928 N 886.86 -1.21182 -1.00761 0
M  V30 8929 C 887.808 -0.965728 -2.11604 0
M  V30 8930 C 888.802 0.0861028 -1.69181 0
M  V30 8931 O 890.008 -0.0650558 -1.79882 0
M  V30 8932 H 886.383 -0.295023 -0.691712 0
M  V30 8933 H 888.354 -1.90667 -2.2954 0
M  V30 8934 C 887.103 -0.544164 -3.43415 0
M  V30 8935 H 886.426 -1.34515 -3.76491 0
M  V30 8936 H 887.866 -0.411268 -4.22001 0
M  V30 8937 C 886.325 0.744583 -3.28569 0
M  V30 8938 O 886.855 1.80078 -3.59075 0
M  V30 8939 N 885.061 0.710083 -2.81791 0
M  V30 8940 H 884.608 -0.14971 -2.57165 0
M  V30 8941 H 884.566 1.57268 -2.72239 0
M  V30 8942 N 888.338 1.20213 -1.01915 0
M  V30 8943 C 889.754 1.41696 -0.734459 0
M  V30 8944 C 889.954 1.89504 0.684867 0
M  V30 8945 O 889.01 2.06556 1.45227 0
M  V30 8946 C 890.323 2.43644 -1.76233 0
M  V30 8947 C 891.871 2.57406 -1.78076 0
M  V30 8948 C 892.346 3.626 -2.79796 0
M  V30 8949 N 893.837 3.70086 -2.78551 0
M  V30 8950 C 894.572 4.51145 -3.53915 0
M  V30 8951 N 894.068 5.35988 -4.38963 0
M  V30 8952 N 895.861 4.45702 -3.425 0
M  V30 8953 H 888.012 0.874976 -1.93541 0
M  V30 8954 H 890.275 0.446647 -0.836188 0
M  V30 8955 H 889.981 2.15519 -2.77929 0
M  V30 8956 H 889.855 3.42672 -1.57657 0
M  V30 8957 H 892.242 2.8486 -0.770634 0
M  V30 8958 H 892.323 1.58565 -2.00725 0
M  V30 8959 H 891.967 3.35889 -3.80973 0
M  V30 8960 H 891.897 4.61069 -2.54407 0
M  V30 8961 H 894.388 3.09484 -2.1686 0
M  V30 8962 H 894.701 5.94932 -4.9323 0
M  V30 8963 H 893.046 5.35482 -4.4304 0
M  V30 8964 H 896.237 3.78456 -2.75478 0
M  V30 8965 H 896.41 5.08637 -4.01487 0
M  V30 8966 N 889.816 0.795718 1.36037 0
M  V30 8967 C 891.062 0.371574 1.99367 0
M  V30 8968 C 891.395 -1.0557 1.62999 0
M  V30 8969 O 890.67 -1.73051 0.887895 0
M  V30 8970 C 890.953 0.542622 3.55988 0
M  V30 8971 C 890.806 2.01404 4.0219 0
M  V30 8972 C 892.125 -0.0384527 4.40083 0
M  V30 8973 H 889.244 0.136483 0.724252 0
M  V30 8974 H 891.886 1.00323 1.61355 0
M  V30 8975 H 890.036 0.0049053 3.885 0
M  V30 8976 H 891.708 2.6133 3.80137 0
M  V30 8977 H 889.951 2.51439 3.53498 0
M  V30 8978 H 890.622 2.08466 5.11122 0
M  V30 8979 H 893.098 0.420634 4.13968 0
M  V30 8980 H 891.974 0.111214 5.48787 0
M  V30 8981 H 892.235 -1.13116 4.27384 0
M  V30 8982 N 891.294 -1.47756 0.548274 0
M  V30 8983 C 892.54 -2.02789 0.0209265 0
M  V30 8984 C 892.873 -1.42268 -1.32187 0
M  V30 8985 O 892.148 -0.575001 -1.85806 0
M  V30 8986 C 892.431 -3.60007 -0.0816674 0
M  V30 8987 C 892.284 -4.30977 1.28759 0
M  V30 8988 C 893.603 -4.32777 -0.799515 0
M  V30 8989 H 890.722 -0.736944 0.00907884 0
M  V30 8990 H 893.364 -1.76282 0.708839 0
M  V30 8991 H 891.514 -3.82722 -0.667537 0
M  V30 8992 H 893.186 -4.19629 1.91597 0
M  V30 8993 H 891.429 -3.9168 1.86466 0
M  V30 8994 H 892.1 -5.39488 1.16861 0
M  V30 8995 H 894.576 -4.15001 -0.30216 0
M  V30 8996 H 893.452 -5.42431 -0.840239 0
M  V30 8997 H 893.713 -4.01358 -1.85375 0
M  V30 8998 N 892.772 -0.284283 -1.55015 0
M  V30 8999 C 894.002 0.332465 -2.03907 0
M  V30 9000 C 894.41 1.49331 -1.16177 0
M  V30 9001 O 893.753 1.82851 -0.176395 0
M  V30 9002 C 893.815 0.867193 -3.48884 0
M  V30 9003 C 893.479 -0.166198 -4.56698 0
M  V30 9004 C 894.476 -0.988898 -5.10408 0
M  V30 9005 C 892.161 -0.303081 -5.01385 0
M  V30 9006 C 894.155 -1.93458 -6.07333 0
M  V30 9007 C 891.842 -1.25223 -5.98133 0
M  V30 9008 C 892.84 -2.06647 -6.50988 0
M  V30 9009 O 892.528 -2.99955 -7.45843 0
M  V30 9010 H 892.26 0.0786597 -0.671408 0
M  V30 9011 H 894.814 -0.416871 -2.01125 0
M  V30 9012 H 893.044 1.66676 -3.48935 0
M  V30 9013 H 894.733 1.39802 -3.81065 0
M  V30 9014 H 895.499 -0.89393 -4.76691 0
M  V30 9015 H 891.378 0.320711 -4.59883 0
M  V30 9016 H 894.922 -2.57053 -6.48513 0
M  V30 9017 H 890.819 -1.34798 -6.31268 0
M  V30 9018 H 891.587 -2.94742 -7.6359 0
M  V30 9019 N 894.251 1.57596 -0.0117121 0
M  V30 9020 C 895.183 2.06025 1.0043 0
M  V30 9021 C 896.196 0.980348 1.29973 0
M  V30 9022 O 897.385 1.25691 1.26744 0
M  V30 9023 C 894.485 2.45514 2.33615 0
M  V30 9024 C 893.658 3.76378 2.22842 0
M  V30 9025 C 892.717 4.02606 3.38814 0
M  V30 9026 O 891.743 4.73108 3.16477 0
M  V30 9027 N 892.945 3.51416 4.62047 0
M  V30 9028 H 895.71 2.93811 0.591206 0
M  V30 9029 H 893.271 1.60947 0.175427 0
M  V30 9030 H 895.263 2.60166 3.09993 0
M  V30 9031 H 893.833 1.63186 2.66625 0
M  V30 9032 H 893.053 3.71691 1.313 0
M  V30 9033 H 894.341 4.62149 2.12829 0
M  V30 9034 H 893.739 2.94346 4.83091 0
M  V30 9035 H 892.296 3.71377 5.35651 0
M  V30 9036 N 895.729 -0.261212 1.5542 0
M  V30 9037 C 896.677 -1.34298 1.89913 0
M  V30 9038 C 897.671 -1.50547 0.776665 0
M  V30 9039 O 898.877 -1.52191 0.961139 0
M  V30 9040 H 895.252 -0.4494 0.602946 0
M  V30 9041 H 897.223 -1.02464 2.80256 0
M  V30 9042 C 895.972 -2.69423 2.19788 0
M  V30 9043 H 895.295 -2.57715 3.05652 0
M  V30 9044 H 896.735 -3.44026 2.47835 0
M  V30 9045 C 895.194 -3.21423 1.00939 0
M  V30 9046 O 895.724 -4.00921 0.250034 0
M  V30 9047 N 893.93 -2.7926 0.803883 0
M  V30 9048 H 893.477 -2.14724 1.42308 0
M  V30 9049 H 893.435 -3.14398 0.0103257 0
M  V30 9050 N 897.207 -1.48554 -0.526253 0
M  V30 9051 C 898.618 -1.50256 -1.10815 0
M  V30 9052 C 898.969 -0.274445 -1.94271 0
M  V30 9053 O 898.094 0.618094 -2.07385 0
M  V30 9054 C 898.689 -2.72264 -2.01638 0
M  V30 9055 C 897.248 -2.76826 -2.55038 0
M  V30 9056 C 896.395 -2.43823 -1.32081 0
M  V30 9057 H 899.346 -1.55616 -0.31133 0
M  V30 9058 H 899.367 -2.50993 -2.85977 0
M  V30 9059 H 898.879 -3.61632 -1.4087 0
M  V30 9060 H 896.98 -1.91676 -3.19517 0
M  V30 9061 H 897.093 -3.78351 -2.93917 0
M  V30 9062 H 895.457 -1.95058 -1.63781 0
M  V30 9063 H 896.24 -3.35436 -0.730596 0
M  V30 9064 N 898.685 0.775411 -1.37205 0
M  V30 9065 C 900.096 1.35147 -1.28811 0
M  V30 9066 C 900.447 1.96089 0.0659168 0
M  V30 9067 O 899.572 1.93558 0.967684 0
M  V30 9068 C 900.167 2.45715 -2.33258 0
M  V30 9069 C 898.726 2.99099 -2.2851 0
M  V30 9070 C 897.873 1.72286 -2.17285 0
M  V30 9071 H 900.824 0.575954 -1.4788 0
M  V30 9072 H 900.845 3.251 -1.97712 0
M  V30 9073 H 900.357 2.01331 -3.31795 0
M  V30 9074 H 898.458 3.47868 -1.33485 0
M  V30 9075 H 898.571 3.54962 -3.21774 0
M  V30 9076 H 896.935 1.95068 -1.6377 0
M  V30 9077 H 897.718 1.3001 -3.1773 0
M  V30 9078 N 900.163 1.21714 1.00117 0
M  V30 9079 C 901.126 0.981338 2.07129 0
M  V30 9080 C 902.126 -0.0491116 1.60725 0
M  V30 9081 O 903.316 0.188555 1.73177 0
M  V30 9082 C 900.448 0.480608 3.37495 0
M  V30 9083 H 901.641 1.93075 2.29482 0
M  V30 9084 H 899.194 1.03467 1.17151 0
M  V30 9085 H 899.929 -0.473552 3.20824 0
M  V30 9086 H 899.714 1.22393 3.72508 0
M  V30 9087 H 901.204 0.33561 4.16249 0
M  V30 9088 N 901.641 -1.19671 1.02551 0
M  V30 9089 C 902.889 -1.88894 0.71858 0
M  V30 9090 C 903.21 -1.79797 -0.754856 0
M  V30 9091 O 902.48 -1.20621 -1.54362 0
M  V30 9092 H 901.06 -0.699244 0.262806 0
M  V30 9093 H 903.722 -1.45298 1.29902 0
M  V30 9094 H 902.818 -2.95309 1.00989 0
M  V30 9095 N 903.119 -0.802921 -1.35613 0
M  V30 9096 C 904.347 -0.39393 -2.03115 0
M  V30 9097 C 904.762 0.993961 -1.60517 0
M  V30 9098 O 904.119 1.63984 -0.800973 0
M  V30 9099 C 904.17 -0.463486 -3.58516 0
M  V30 9100 O 903.891 -1.79666 -3.99565 0
M  V30 9101 C 905.392 -0.0468377 -4.43275 0
M  V30 9102 H 902.612 -0.160519 -0.651517 0
M  V30 9103 H 905.156 -1.08552 -1.73311 0
M  V30 9104 H 903.311 0.179821 -3.86982 0
M  V30 9105 H 903.725 -1.75688 -4.942 0
M  V30 9106 H 905.199 -0.146626 -5.51805 0
M  V30 9107 H 905.676 1.00741 -4.2749 0
M  V30 9108 H 906.282 -0.663158 -4.20098 0
M  V30 9109 N 904.597 1.47463 -0.556102 0
M  V30 9110 C 905.845 2.02075 -0.0315712 0
M  V30 9111 C 906.166 1.43292 1.32259 0
M  V30 9112 O 905.436 0.60771 1.86236 0
M  V30 9113 H 904.016 0.74695 -0.0086816 0
M  V30 9114 H 906.678 1.80879 -0.725859 0
M  V30 9115 H 905.774 3.12047 0.0573538 0
M  V30 9116 N 906.075 0.2925 1.54862 0
M  V30 9117 C 907.321 -0.319736 2.00264 0
M  V30 9118 C 907.654 -1.5419 1.18064 0
M  V30 9119 O 906.929 -1.92821 0.254983 0
M  V30 9120 C 907.212 -0.684753 3.5353 0
M  V30 9121 C 907.065 0.545961 4.46474 0
M  V30 9122 C 908.384 -1.51456 4.13218 0
M  V30 9123 H 905.503 -0.11474 0.728014 0
M  V30 9124 H 908.145 0.402907 1.85679 0
M  V30 9125 H 906.295 -1.30044 3.66089 0
M  V30 9126 H 907.967 1.18448 4.45834 0
M  V30 9127 H 906.21 1.1808 4.1742 0
M  V30 9128 H 906.881 0.246544 5.51449 0
M  V30 9129 H 909.357 -0.994421 4.04043 0
M  V30 9130 H 908.233 -1.73875 5.20633 0
M  V30 9131 H 908.494 -2.5011 3.64551 0
M  V30 9132 N 907.553 -1.57587 0.0200696 0
M  V30 9133 C 908.501 -2.10814 -0.982868 0
M  V30 9134 C 909.495 -1.03263 -1.34287 0
M  V30 9135 O 910.701 -1.21708 -1.32617 0
M  V30 9136 H 907.076 -0.673409 -0.334701 0
M  V30 9137 H 909.047 -2.94034 -0.50856 0
M  V30 9138 C 907.796 -2.64301 -2.25921 0
M  V30 9139 H 907.119 -3.46703 -1.99091 0
M  V30 9140 H 908.559 -3.052 -2.94328 0
M  V30 9141 C 907.018 -1.56628 -2.98277 0
M  V30 9142 O 907.548 -0.960825 -3.9004 0
M  V30 9143 N 905.754 -1.28889 -2.60453 0
M  V30 9144 H 905.301 -1.7831 -1.85912 0
M  V30 9145 H 905.259 -0.570697 -3.09177 0
M  V30 9146 N 909.032 0.252966 -1.55557 0
M  V30 9147 C 910.448 0.60118 -1.47844 0
M  V30 9148 C 910.648 1.88612 -0.709055 0
M  V30 9149 O 909.704 2.51395 -0.235964 0
M  V30 9150 C 911.017 0.709539 -2.92209 0
M  V30 9151 C 912.565 0.802269 -3.02544 0
M  V30 9152 C 913.04 0.94224 -4.48203 0
M  V30 9153 N 914.531 1.00726 -4.52116 0
M  V30 9154 C 915.266 1.13472 -5.6206 0
M  V30 9155 N 914.762 1.22811 -6.81828 0
M  V30 9156 N 916.555 1.1674 -5.49844 0
M  V30 9157 H 908.706 -0.590635 -2.04023 0
M  V30 9158 H 910.969 -0.202986 -0.926013 0
M  V30 9159 H 910.675 -0.164505 -3.51315 0
M  V30 9160 H 910.549 1.58343 -3.42356 0
M  V30 9161 H 912.936 1.66677 -2.43522 0
M  V30 9162 H 913.017 -0.0966469 -2.55617 0
M  V30 9163 H 912.661 0.0823209 -5.07833 0
M  V30 9164 H 912.591 1.85611 -4.92805 0
M  V30 9165 H 915.082 0.946684 -3.6585 0
M  V30 9166 H 915.395 1.32426 -7.61369 0
M  V30 9167 H 913.74 1.19779 -6.84601 0
M  V30 9168 H 916.931 1.09089 -4.55211 0
M  V30 9169 H 917.104 1.26329 -6.35567 0
M  V30 9170 N 910.51 1.48831 0.518367 0
M  V30 9171 C 911.787 1.47933 1.27966 0
M  V30 9172 C 912.167 0.197393 2.10175 0
M  V30 9173 O 911.515 -0.820656 2.13255 0
M  V30 9174 C 911.725 2.74816 2.15121 0
M  V30 9175 C 913.073 3.23613 2.74881 0
M  V30 9176 O 914.097 2.75814 2.254 0
M  V30 9177 O 912.956 4.06818 3.64913 0
M  V30 9178 H 910.05 0.591316 0.578164 0
M  V30 9179 H 912.596 1.61077 0.534065 0
M  V30 9180 H 911.368 3.59621 1.54234 0
M  V30 9181 H 910.991 2.64449 2.96905 0
M  V30 9182 N 911.988 -0.768124 1.37614 0
M  V30 9183 C 913.236 -1.52379 1.3276 0
M  V30 9184 C 913.557 -1.94809 -0.0863564 0
M  V30 9185 O 912.827 -1.66568 -1.03112 0
M  V30 9186 H 911.407 -0.565179 0.488448 0
M  V30 9187 H 914.069 -0.913974 1.72141 0
M  V30 9188 H 913.165 -2.4215 1.96901 0
M  V30 9189 N 913.466 -1.22244 -0.994698 0
M  V30 9190 C 914.715 -1.04005 -1.72817 0
M  V30 9191 C 915.028 0.425413 -1.90918 0
M  V30 9192 O 916.234 0.727429 -2.61574 0
M  V30 9193 C 914.69 -1.81244 -3.10932 0
M  V30 9194 C 914.298 -3.32028 -3.00768 0
M  V30 9195 C 916.042 -1.71448 -3.88337 0
M  V30 9196 C 913.949 -4.01716 -4.34026 0
M  V30 9197 H 912.879 -0.385559 -0.647966 0
M  V30 9198 H 915.53 -1.46077 -1.11058 0
M  V30 9199 H 913.912 -1.3197 -3.73363 0
M  V30 9200 H 915.086 -3.88682 -2.47513 0
M  V30 9201 H 913.401 -3.4248 -2.36846 0
M  V30 9202 H 915.998 -2.20836 -4.86965 0
M  V30 9203 H 916.341 -0.674568 -4.10798 0
M  V30 9204 H 916.874 -2.18256 -3.3258 0
M  V30 9205 H 913.613 -5.05952 -4.16765 0
M  V30 9206 H 913.133 -3.49849 -4.87202 0
M  V30 9207 H 914.812 -4.0721 -5.02782 0
M  V30 9208 N 914.944 1.19125 -1.03184 0
M  V30 9209 C 916.193 1.8821 -0.725264 0
M  V30 9210 C 916.506 1.80674 0.749411 0
M  V30 9211 O 917.712 2.45037 1.16915 0
M  V30 9212 C 916.168 3.37607 -1.24697 0
M  V30 9213 C 915.776 3.53693 -2.74964 0
M  V30 9214 C 917.52 4.12149 -1.01652 0
M  V30 9215 C 915.427 4.97001 -3.20538 0
M  V30 9216 H 914.357 0.704916 -0.267599 0
M  V30 9217 H 917.008 1.34663 -1.24652 0
M  V30 9218 H 915.39 3.90569 -0.653614 0
M  V30 9219 H 916.564 3.11046 -3.39981 0
M  V30 9220 H 914.879 2.92544 -2.96322 0
M  V30 9221 H 917.476 5.17837 -1.33226 0
M  V30 9222 H 917.819 4.16274 0.0465712 0
M  V30 9223 H 918.352 3.65334 -1.57403 0
M  V30 9224 H 915.091 4.9804 -4.26189 0
M  V30 9225 H 914.611 5.40398 -2.60251 0
M  V30 9226 H 916.29 5.65669 -3.14049 0
M  V30 9227 N 916.422 0.810101 1.35185 0
M  V30 9228 C 917.65 0.404696 2.02903 0
M  V30 9229 C 918.065 -0.985434 1.61042 0
M  V30 9230 O 917.422 -1.63557 0.809658 0
M  V30 9231 C 917.473 0.482493 3.58266 0
M  V30 9232 O 917.194 1.81782 3.98606 0
M  V30 9233 C 918.695 0.070345 4.43244 0
M  V30 9234 H 915.915 0.163972 0.650657 0
M  V30 9235 H 918.459 1.0947 1.72733 0
M  V30 9236 H 916.614 -0.159296 3.87072 0
M  V30 9237 H 917.028 1.78306 4.93262 0
M  V30 9238 H 918.502 0.175888 5.5172 0
M  V30 9239 H 918.979 -0.984724 4.28018 0
M  V30 9240 H 919.585 0.685427 4.1974 0
M  V30 9241 N 917.9 -1.47166 0.563914 0
M  V30 9242 C 918.83 -2.32894 -0.168148 0
M  V30 9243 C 919.811 -1.44202 -0.902214 0
M  V30 9244 O 920.996 -1.73048 -0.881365 0
M  V30 9245 C 918.126 -3.26116 -1.19439 0
M  V30 9246 C 917.08 -4.24101 -0.576363 0
M  V30 9247 C 916.406 -5.06696 -1.70772 0
M  V30 9248 C 917.706 -5.20142 0.47425 0
M  V30 9249 H 919.4 -2.9435 0.547573 0
M  V30 9250 H 916.946 -1.41545 0.264778 0
M  V30 9251 H 918.899 -3.84935 -1.71474 0
M  V30 9252 H 917.623 -2.62728 -1.94014 0
M  V30 9253 H 916.282 -3.66519 -0.0772534 0
M  V30 9254 H 915.93 -4.39707 -2.44268 0
M  V30 9255 H 915.63 -5.7304 -1.29994 0
M  V30 9256 H 917.154 -5.68375 -2.2312 0
M  V30 9257 H 918.568 -5.73286 0.0397035 0
M  V30 9258 H 916.965 -5.94726 0.801287 0
M  V30 9259 H 918.035 -4.65214 1.36764 0
M  V30 9260 N 919.378 -0.300708 -1.54705 0
M  V30 9261 C 920.794 0.0526874 -1.59513 0
M  V30 9262 C 920.994 1.52444 -1.31769 0
M  V30 9263 O 920.05 2.27716 -1.09096 0
M  V30 9264 C 921.363 -0.344989 -2.98714 0
M  V30 9265 C 922.911 -0.29373 -3.11619 0
M  V30 9266 C 923.386 -0.666225 -4.53129 0
M  V30 9267 N 924.877 -0.618749 -4.59049 0
M  V30 9268 C 925.612 -0.879447 -5.66616 0
M  V30 9269 N 925.108 -1.2061 -6.82221 0
M  V30 9270 N 926.901 -0.806528 -5.56284 0
M  V30 9271 H 919.052 -1.25988 -1.71 0
M  V30 9272 H 921.315 -0.510758 -0.798643 0
M  V30 9273 H 921.021 -1.36953 -3.2394 0
M  V30 9274 H 920.895 0.301507 -3.75993 0
M  V30 9275 H 923.282 0.72156 -2.86142 0
M  V30 9276 H 923.363 -0.974844 -2.36496 0
M  V30 9277 H 923.007 -1.67932 -4.79334 0
M  V30 9278 H 922.937 0.0369575 -5.26587 0
M  V30 9279 H 925.428 -0.377202 -3.76013 0
M  V30 9280 H 925.741 -1.391 -7.60178 0
M  V30 9281 H 924.086 -1.24413 -6.83774 0
M  V30 9282 H 927.277 -0.550993 -4.64846 0
M  V30 9283 H 927.45 -1.01307 -6.40032 0
M  V30 9284 N 920.856 1.57574 -0.0284266 0
M  V30 9285 C 922.103 1.91772 0.650364 0
M  V30 9286 C 922.431 0.904769 1.72175 0
M  V30 9287 O 921.686 -0.0864038 1.95509 0
M  V30 9288 C 921.985 3.32699 1.3056 0
M  V30 9289 C 921.651 4.49423 0.364658 0
M  V30 9290 C 920.313 4.81084 0.105672 0
M  V30 9291 C 922.665 5.20439 -0.28151 0
M  V30 9292 C 919.993 5.81119 -0.8073 0
M  V30 9293 C 922.345 6.21449 -1.18253 0
M  V30 9294 C 921.009 6.51551 -1.45042 0
M  V30 9295 H 920.279 0.701744 0.237985 0
M  V30 9296 H 922.926 1.91288 -0.0900448 0
M  V30 9297 H 921.231 3.29441 2.12075 0
M  V30 9298 H 922.928 3.5643 1.83736 0
M  V30 9299 H 919.518 4.24703 0.576692 0
M  V30 9300 H 923.702 4.9621 -0.0944806 0
M  V30 9301 H 918.958 6.02788 -1.02256 0
M  V30 9302 H 923.132 6.75597 -1.68942 0
M  V30 9303 H 920.759 7.28882 -2.15951 0
M  V30 9304 N 922.334 -0.244713 1.55689 0
M  V30 9305 C 923.582 -0.970525 1.77272 0
M  V30 9306 C 923.903 -1.85771 0.592804 0
M  V30 9307 O 923.173 -1.91952 -0.391323 0
M  V30 9308 H 921.753 -0.361342 0.653789 0
M  V30 9309 H 924.415 -0.262134 1.93129 0
M  V30 9310 H 923.511 -1.59096 2.68505 0
M  V30 9311 N 923.813 -1.49104 -0.510467 0
M  V30 9312 C 924.745 -1.61183 -1.6295 0
M  V30 9313 C 925.758 -0.495003 -1.55092 0
M  V30 9314 O 926.947 -0.766671 -1.61197 0
M  V30 9315 C 924.047 -1.54373 -3.01699 0
M  V30 9316 C 923.22 -2.81428 -3.34838 0
M  V30 9317 C 922.279 -2.67802 -4.52956 0
M  V30 9318 O 921.305 -3.41723 -4.55208 0
M  V30 9319 N 922.507 -1.78715 -5.52305 0
M  V30 9320 H 925.272 -2.57693 -1.53018 0
M  V30 9321 H 922.833 -1.46073 -0.698152 0
M  V30 9322 H 924.825 -1.42924 -3.78622 0
M  V30 9323 H 923.395 -0.657597 -3.05605 0
M  V30 9324 H 922.615 -3.07299 -2.46903 0
M  V30 9325 H 923.903 -3.6568 -3.53773 0
M  V30 9326 H 923.301 -1.17897 -5.53278 0
M  V30 9327 H 921.858 -1.73194 -6.28369 0
M  V30 9328 O 925.33 0.655661 -1.47592 0
M  V30 9329 H 926.021 1.30903 -1.42773 0
M  V30 END ATOM
M  V30 BEGIN BOND
M  V30 END BOND
M  V30 END CTAB
M  END
$$$$
