drugbank_drug|DB00025 DB00025 sequence
 OpenBabel12092119113D

  0  0  0     0  0            999 V3000
M  V30 BEGIN CTAB
M  V30 COUNTS 36957 37417 0 0 0
M  V30 BEGIN ATOM
M  V30 1 H -0.908 1.98254 -0.117106 0
M  V30 2 N 0 1.576 0 0
M  V30 3 C 0.963 2.07369 0.976253 0
M  V30 4 C 1.963 0.98309 1.27248 0
M  V30 5 O 3.153 1.24574 1.21766 0
M  V30 6 C 0.285 2.51514 2.30116 0
M  V30 7 H 1.478 2.94892 0.545759 0
M  V30 8 H -0.969 1.54328 0.247471 0
M  V30 9 H -0.234 1.67234 2.77855 0
M  V30 10 H -0.449 3.31163 2.09937 0
M  V30 11 H 1.041 2.90345 3.00149 0
M  V30 12 N 1.4781 -0.272755 1.55222 0
M  V30 13 C 2.7061 -1.02255 1.79865 0
M  V30 14 C 3.1211 -1.79924 0.572088 0
M  V30 15 O 2.4781 -1.76638 -0.458842 0
M  V30 16 C 2.5291 -1.98094 3.02392 0
M  V30 17 O 2.2501 -1.23572 4.20311 0
M  V30 18 C 3.7511 -2.84884 3.39641 0
M  V30 19 H 0.9711 -0.302057 0.599168 0
M  V30 20 H 3.5151 -0.303465 2.02236 0
M  V30 21 H 1.6701 -2.65465 2.82147 0
M  V30 22 H 2.0841 -1.88172 4.89583 0
M  V30 23 H 3.5581 -3.47927 4.28545 0
M  V30 24 H 4.0351 -3.54665 2.59055 0
M  V30 25 H 4.6411 -2.23003 3.62146 0
M  V30 26 N 2.9562 -1.48159 -0.537278 0
M  V30 27 C 4.3722 -1.34118 -0.865129 0
M  V30 28 C 4.5722 -0.346678 -1.98495 0
M  V30 29 O 3.6282 0.234715 -2.51407 0
M  V30 30 C 4.9412 -2.73963 -1.23954 0
M  V30 31 C 6.4892 -2.82397 -1.34984 0
M  V30 32 C 6.9642 -4.22928 -1.75772 0
M  V30 33 N 8.4552 -4.25566 -1.82887 0
M  V30 34 C 9.1902 -5.31235 -2.15817 0
M  V30 35 N 8.6862 -6.47189 -2.47222 0
M  V30 36 N 10.4792 -5.18624 -2.16761 0
M  V30 37 H 2.6302 -2.1144 0.201715 0
M  V30 38 H 4.8932 -0.947598 0.0275949 0
M  V30 39 H 4.5992 -3.48264 -0.490381 0
M  V30 40 H 4.4732 -3.0702 -2.19132 0
M  V30 41 H 6.8602 -2.08356 -2.08978 0
M  V30 42 H 6.9412 -2.5297 -0.379448 0
M  V30 43 H 6.5852 -4.97482 -1.02341 0
M  V30 44 H 6.5152 -4.49794 -2.73848 0
M  V30 45 H 9.0062 -3.41924 -1.60924 0
M  V30 46 H 9.3192 -7.23564 -2.71433 0
M  V30 47 H 7.6642 -6.50476 -2.44757 0
M  V30 48 H 10.8552 -4.27056 -1.91679 0
M  V30 49 H 11.0282 -6.01078 -2.42093 0
M  V30 50 N 4.4343 0.785586 -1.36625 0
M  V30 51 C 5.8503 1.08419 -1.17122 0
M  V30 52 C 6.0503 2.015 0.00208491 0
M  V30 53 O 5.1063 2.43551 0.666278 0
M  V30 54 C 6.4193 1.69498 -2.48377 0
M  V30 55 C 7.9673 1.81821 -2.54775 0
M  V30 56 C 8.4423 2.46315 -3.86126 0
M  V30 57 N 9.9333 2.53779 -3.87492 0
M  V30 58 C 10.6683 3.045 -4.85868 0
M  V30 59 N 10.1643 3.55499 -5.94637 0
M  V30 60 N 11.9573 3.03247 -4.73284 0
M  V30 61 H 4.1083 0.167264 -2.1174 0
M  V30 62 H 6.3713 0.13682 -0.938075 0
M  V30 63 H 6.0773 1.08571 -3.34522 0
M  V30 64 H 5.9513 2.6896 -2.64462 0
M  V30 65 H 8.3383 2.41884 -1.69045 0
M  V30 66 H 8.4193 0.811532 -2.42586 0
M  V30 67 H 8.0633 1.86895 -4.72263 0
M  V30 68 H 7.9933 3.47561 -3.95612 0
M  V30 69 H 10.4843 2.17672 -3.08913 0
M  V30 70 H 10.7973 3.92562 -6.65669 0
M  V30 71 H 9.1423 3.5364 -5.98301 0
M  V30 72 H 12.3333 2.62696 -3.87438 0
M  V30 73 H 12.5063 3.42467 -5.50109 0
M  V30 74 N 5.9124 1.20967 1.01018 0
M  V30 75 C 7.1424 1.04803 1.78044 0
M  V30 76 C 7.5504 -0.405462 1.84804 0
M  V30 77 O 6.8934 -1.2932 1.30468 0
M  V30 78 C 6.9554 1.56377 3.23707 0
M  V30 79 C 6.6194 3.04767 3.40538 0
M  V30 80 C 7.6164 4.02366 3.29239 0
M  V30 81 C 5.3014 3.43862 3.66147 0
M  V30 82 C 7.2954 5.37049 3.43304 0
M  V30 83 C 4.9824 4.78699 3.79855 0
M  V30 84 C 5.9804 5.75101 3.68439 0
M  V30 85 O 5.6684 7.07493 3.81719 0
M  V30 86 H 5.4004 0.368778 0.56655 0
M  V30 87 H 7.9544 1.60642 1.27997 0
M  V30 88 H 6.1844 0.949297 3.74867 0
M  V30 89 H 7.8734 1.36136 3.8239 0
M  V30 90 H 8.6394 3.73506 3.09384 0
M  V30 91 H 4.5184 2.69364 3.74118 0
M  V30 92 H 8.0624 6.12277 3.34309 0
M  V30 93 H 3.9594 5.07247 3.99213 0
M  V30 94 H 4.7274 7.1483 3.98697 0
M  V30 95 N 7.3905 -1.2043 1.01659 0
M  V30 96 C 8.6205 -1.93496 0.724081 0
M  V30 97 C 9.0285 -1.74998 -0.71918 0
M  V30 98 O 8.3715 -1.06118 -1.49949 0
M  V30 99 C 8.4335 -3.45886 0.97994 0
M  V30 100 C 8.0975 -3.88145 2.41232 0
M  V30 101 C 9.0945 -3.93907 3.39313 0
M  V30 102 C 6.7795 -4.20134 2.75305 0
M  V30 103 C 8.7735 -4.31069 4.6953 0
M  V30 104 C 6.4605 -4.56971 4.05735 0
M  V30 105 C 7.4585 -4.62411 5.02658 0
M  V30 106 O 7.1465 -4.98403 6.30754 0
M  V30 107 H 6.8785 -0.621824 0.265162 0
M  V30 108 H 9.4325 -1.53867 1.36066 0
M  V30 109 H 7.6625 -3.85639 0.286198 0
M  V30 110 H 9.3515 -4.0018 0.679021 0
M  V30 111 H 10.1175 -3.69357 3.14325 0
M  V30 112 H 5.9965 -4.1509 2.00551 0
M  V30 113 H 9.5405 -4.3523 5.45179 0
M  V30 114 H 5.4375 -4.80977 4.30502 0
M  V30 115 H 6.2055 -5.16395 6.35042 0
M  V30 116 N 8.8686 -0.792821 -1.36206 0
M  V30 117 C 9.7986 -0.207853 -2.32573 0
M  V30 118 C 10.7796 0.659055 -1.56813 0
M  V30 119 O 11.9646 0.592176 -1.84951 0
M  V30 120 C 9.0946 0.655449 -3.41059 0
M  V30 121 C 8.0486 -0.111842 -4.27854 0
M  V30 122 C 7.3746 0.872274 -5.27537 0
M  V30 123 C 8.6746 -1.30299 -5.05786 0
M  V30 124 H 10.3686 -1.01294 -2.81744 0
M  V30 125 H 7.9146 -0.48854 -1.3546 0
M  V30 126 H 9.8676 1.07464 -4.07467 0
M  V30 127 H 8.5916 1.49328 -2.90463 0
M  V30 128 H 7.2506 -0.512053 -3.63006 0
M  V30 129 H 6.8986 1.70523 -4.73214 0
M  V30 130 H 6.5986 0.363291 -5.86476 0
M  V30 131 H 8.1226 1.28996 -5.96818 0
M  V30 132 H 9.5366 -0.959379 -5.65216 0
M  V30 133 H 7.9336 -1.7455 -5.74154 0
M  V30 134 H 9.0036 -2.09663 -4.37229 0
M  V30 135 N 10.3467 1.47872 -0.545128 0
M  V30 136 C 11.5947 2.02093 -0.016553 0
M  V30 137 C 11.9157 1.42305 1.3332 0
M  V30 138 O 11.1857 0.593853 1.86682 0
M  V30 139 H 9.7657 0.746993 -0.00313038 0
M  V30 140 H 12.4277 1.81414 -0.712397 0
M  V30 141 H 11.5237 3.11996 0.0805422 0
M  V30 142 N 11.8248 0.280983 1.55075 0
M  V30 143 C 12.7878 -0.590896 2.21452 0
M  V30 144 C 13.7878 -1.07682 1.19421 0
M  V30 145 O 14.9778 -0.97605 1.44288 0
M  V30 146 C 12.1098 -1.81587 2.88511 0
M  V30 147 H 13.3028 -0.0112554 2.99898 0
M  V30 148 H 10.8558 0.0316438 1.56268 0
M  V30 149 H 11.5908 -2.43587 2.14093 0
M  V30 150 H 11.3758 -1.4753 3.63287 0
M  V30 151 H 12.8658 -2.43575 3.39206 0
M  V30 152 N 13.3029 -1.57598 0.00835791 0
M  V30 153 C 14.5489 -1.91211 -0.675732 0
M  V30 154 C 14.8819 -0.883139 -1.72958 0
M  V30 155 O 14.1569 0.097016 -1.94258 0
M  V30 156 C 14.4399 -3.35379 -1.31123 0
M  V30 157 C 14.2929 -4.48999 -0.268356 0
M  V30 158 C 15.6119 -3.7912 -2.23508 0
M  V30 159 H 12.7309 -0.695374 -0.244179 0
M  V30 160 H 15.3729 -1.89901 0.0613655 0
M  V30 161 H 13.5229 -3.36626 -1.93946 0
M  V30 162 H 15.1949 -4.59887 0.360844 0
M  V30 163 H 13.4379 -4.31873 0.408482 0
M  V30 164 H 14.1089 -5.46851 -0.752218 0
M  V30 165 H 16.5849 -3.79477 -1.70693 0
M  V30 166 H 15.4609 -4.80729 -2.64936 0
M  V30 167 H 15.7219 -3.13455 -3.11766 0
M  V30 168 N 14.781 0.264519 -1.55364 0
M  V30 169 C 15.691 1.34902 -1.91934 0
M  V30 170 C 16.707 1.53595 -0.817593 0
M  V30 171 O 17.883 1.67558 -1.11742 0
M  V30 172 C 14.948 2.68676 -2.19121 0
M  V30 173 C 14.009 2.58657 -3.4263 0
M  V30 174 C 13.242 3.86051 -3.68511 0
M  V30 175 O 13.465 4.87126 -2.96757 0
M  V30 176 O 12.399 3.85744 -4.62045 0
M  V30 177 H 16.225 1.06883 -2.8427 0
M  V30 178 H 13.81 0.463775 -1.42019 0
M  V30 179 H 15.692 3.47759 -2.37995 0
M  V30 180 H 14.367 2.96463 -1.29966 0
M  V30 181 H 13.274 1.7792 -3.29082 0
M  V30 182 H 14.607 2.35818 -4.32031 0
M  V30 183 N 16.2591 1.48442 0.529413 0
M  V30 184 C 17.1891 1.65902 1.64313 0
M  V30 185 C 18.1701 0.507897 1.6234 0
M  V30 186 O 19.3551 0.740503 1.79528 0
M  V30 187 C 16.4851 1.69911 3.02898 0
M  V30 188 C 15.4391 2.8453 3.19729 0
M  V30 189 C 14.7651 2.73629 4.59381 0
M  V30 190 C 16.0651 4.25821 3.02447 0
M  V30 191 H 17.7591 2.5914 1.49955 0
M  V30 192 H 15.3051 1.24709 0.719982 0
M  V30 193 H 17.2581 1.80715 3.80684 0
M  V30 194 H 15.9821 0.732524 3.18279 0
M  V30 195 H 14.6411 2.73283 2.44361 0
M  V30 196 H 14.2891 1.74938 4.71599 0
M  V30 197 H 13.9891 3.50541 4.71588 0
M  V30 198 H 15.5131 2.86401 5.39265 0
M  V30 199 H 16.9271 4.37898 3.70024 0
M  V30 200 H 15.3241 5.03735 3.26146 0
M  V30 201 H 16.3941 4.42244 1.98867 0
M  V30 202 N 17.7372 -0.778329 1.37039 0
M  V30 203 C 18.9622 -1.57248 1.35233 0
M  V30 204 C 19.3872 -1.87999 -0.0615568 0
M  V30 205 O 18.7452 -1.48734 -1.03672 0
M  V30 206 C 18.7932 -2.86353 2.19167 0
M  V30 207 O 17.8972 -3.80442 1.59178 0
M  V30 208 H 17.2382 -0.476569 0.462362 0
M  V30 209 H 19.7682 -0.963853 1.80474 0
M  V30 210 H 19.7782 -3.35519 2.32145 0
M  V30 211 H 18.4532 -2.63299 3.21942 0
M  V30 212 H 17.0302 -3.39067 1.55203 0
M  V30 213 N 19.2153 -1.21501 -1.00376 0
M  V30 214 C 20.4613 -1.04457 -1.74529 0
M  V30 215 C 20.8163 0.417386 -1.87818 0
M  V30 216 O 20.1093 1.30556 -1.40234 0
M  V30 217 C 20.3033 -1.67673 -3.15627 0
M  V30 218 C 20.1323 -3.19865 -3.16096 0
M  V30 219 C 18.9023 -3.88915 -3.22604 0
M  V30 220 C 21.1003 -4.16936 -3.01112 0
M  V30 221 N 19.0823 -5.28284 -3.12712 0
M  V30 222 C 20.4533 -5.43066 -2.99131 0
M  V30 223 C 22.5083 -4.07968 -2.85423 0
M  V30 224 C 21.2113 -6.6126 -2.83068 0
M  V30 225 C 23.2373 -5.258 -2.70718 0
M  V30 226 C 22.5993 -6.50842 -2.69414 0
M  V30 227 H 18.6983 -0.436584 -0.648782 0
M  V30 228 H 21.2823 -1.53875 -1.19293 0
M  V30 229 H 19.4533 -1.20822 -3.6913 0
M  V30 230 H 21.1853 -1.43824 -3.78281 0
M  V30 231 H 17.9403 -3.39847 -3.2985 0
M  V30 232 H 18.3643 -6.01284 -3.11105 0
M  V30 233 H 23.0063 -3.1209 -2.85236 0
M  V30 234 H 20.7243 -7.57298 -2.82002 0
M  V30 235 H 24.3103 -5.20683 -2.59577 0
M  V30 236 H 23.1903 -7.40485 -2.5817 0
M  V30 237 N 20.6934 1.19889 -1.02296 0
M  V30 238 C 21.9704 1.85148 -0.630832 0
M  V30 239 C 22.3504 1.91385 0.890782 0
M  V30 240 O 21.6984 1.42642 1.78509 0
M  V30 241 C 21.9084 3.24442 -1.28602 0
M  V30 242 C 23.2564 4.00663 -1.4055 0
M  V30 243 O 24.2804 3.33818 -1.24273 0
M  V30 244 O 23.1394 5.20387 -1.66913 0
M  V30 245 H 20.2334 0.797613 -0.218499 0
M  V30 246 H 22.7794 1.27427 -1.12074 0
M  V30 247 H 21.5514 3.14704 -2.32545 0
M  V30 248 H 21.1744 3.89802 -0.7836 0
M  V30 249 N 22.1715 0.800033 1.35784 0
M  V30 250 C 23.4015 0.389041 2.02904 0
M  V30 251 C 23.8095 -1.0027 1.60445 0
M  V30 252 O 23.1525 -1.65633 0.794453 0
M  V30 253 C 23.2145 0.385495 3.57427 0
M  V30 254 C 22.8785 1.72662 4.23127 0
M  V30 255 C 23.8755 2.68385 4.4527 0
M  V30 256 C 21.5605 2.00883 4.60381 0
M  V30 257 C 23.5545 3.90517 5.03761 0
M  V30 258 C 21.2415 3.2328 5.18588 0
M  V30 259 C 22.2395 4.17915 5.40218 0
M  V30 260 O 21.9275 5.38153 5.97199 0
M  V30 261 H 21.6595 0.157032 0.657508 0
M  V30 262 H 24.2135 1.08311 1.74522 0
M  V30 263 H 22.4435 -0.365128 3.84972 0
M  V30 264 H 24.1325 -0.00228296 4.059 0
M  V30 265 H 24.8985 2.47872 4.16874 0
M  V30 266 H 20.7775 1.28037 4.42863 0
M  V30 267 H 24.3215 4.64395 5.2056 0
M  V30 268 H 20.2185 3.43667 5.4641 0
M  V30 269 H 20.9865 5.3936 6.15656 0
M  V30 270 N 23.6496 -1.47581 0.552962 0
M  V30 271 C 24.5826 -2.26883 -0.244857 0
M  V30 272 C 25.5606 -1.33784 -0.924147 0
M  V30 273 O 26.7446 -1.6316 -0.943981 0
M  V30 274 C 23.8716 -3.10695 -1.34856 0
M  V30 275 C 22.9176 -4.19339 -0.778268 0
M  V30 276 S 23.7506 -5.34207 0.37184 0
M  V30 277 C 24.9066 -6.21584 -0.733779 0
M  V30 278 H 25.1396 -2.94202 0.428087 0
M  V30 279 H 22.6726 -1.50628 0.339197 0
M  V30 280 H 24.6306 -3.59555 -1.98066 0
M  V30 281 H 23.2916 -2.42746 -1.99332 0
M  V30 282 H 22.4846 -4.77695 -1.60696 0
M  V30 283 H 22.0866 -3.73338 -0.222422 0
M  V30 284 H 24.3786 -6.57676 -1.62692 0
M  V30 285 H 25.3216 -7.07851 -0.187668 0
M  V30 286 H 25.7296 -5.55125 -1.02454 0
M  V30 287 N 25.1277 -0.289203 -1.54924 0
M  V30 288 C 26.0597 0.625583 -2.20497 0
M  V30 289 C 27.0727 1.10667 -1.19402 0
M  V30 290 O 28.2617 1.02615 -1.46056 0
M  V30 291 C 25.3617 1.86702 -2.82835 0
M  V30 292 C 24.5347 1.5304 -4.09753 0
M  V30 293 C 23.5937 2.62576 -4.56005 0
M  V30 294 O 22.6197 2.28167 -5.21468 0
M  V30 295 N 23.8217 3.92901 -4.27328 0
M  V30 296 H 26.5867 0.0642801 -2.99631 0
M  V30 297 H 24.1477 -0.110896 -1.6152 0
M  V30 298 H 26.1397 2.59304 -3.10715 0
M  V30 299 H 24.7097 2.33702 -2.07611 0
M  V30 300 H 23.9297 0.637564 -3.8901 0
M  V30 301 H 25.2177 1.28072 -4.92418 0
M  V30 302 H 24.6157 4.23671 -3.74859 0
M  V30 303 H 23.1727 4.61837 -4.59946 0
M  V30 304 N 26.6058 1.57591 -0.0167156 0
M  V30 305 C 27.8308 1.9598 0.67872 0
M  V30 306 C 28.2558 0.892546 1.65575 0
M  V30 307 O 27.6138 -0.147772 1.80697 0
M  V30 308 C 27.6618 3.33468 1.37227 0
M  V30 309 O 26.7658 3.28954 2.48722 0
M  V30 310 H 26.1068 0.639339 0.17928 0
M  V30 311 H 28.6368 2.04463 -0.0748802 0
M  V30 312 H 28.6468 3.69417 1.7319 0
M  V30 313 H 27.3218 4.10694 0.656007 0
M  V30 314 H 25.8988 3.04705 2.14963 0
M  V30 315 N 28.0839 -0.256276 1.55502 0
M  V30 316 C 29.3609 -1.00789 1.67633 0
M  V30 317 C 29.7409 -2.03706 0.553826 0
M  V30 318 O 29.0889 -2.24145 -0.443969 0
M  V30 319 C 29.2989 -1.64968 3.07549 0
M  V30 320 C 30.6469 -2.15505 3.65845 0
M  V30 321 O 31.6709 -1.74925 3.1029 0
M  V30 322 O 30.5299 -2.89986 4.63217 0
M  V30 323 H 27.6239 -0.468553 0.681459 0
M  V30 324 H 30.1699 -0.250806 1.67836 0
M  V30 325 H 28.9419 -0.904785 3.80696 0
M  V30 326 H 28.5649 -2.47321 3.11317 0
M  V30 327 N 29.562 -1.4872 -0.521534 0
M  V30 328 C 30.492 -1.66771 -1.63431 0
M  V30 329 C 31.473 -0.516499 -1.62069 0
M  V30 330 O 32.658 -0.750013 -1.79132 0
M  V30 331 C 29.788 -1.71515 -3.01993 0
M  V30 332 C 28.742 -2.86222 -3.18216 0
M  V30 333 C 28.068 -2.76061 -4.57924 0
M  V30 334 C 29.368 -4.27419 -3.00184 0
M  V30 335 H 31.062 -2.59932 -1.48579 0
M  V30 336 H 28.608 -1.25089 -0.713358 0
M  V30 337 H 30.561 -1.82731 -3.7972 0
M  V30 338 H 29.285 -0.749393 -3.17886 0
M  V30 339 H 27.944 -2.74575 -2.42908 0
M  V30 340 H 27.592 -1.77437 -4.70665 0
M  V30 341 H 27.292 -3.53037 -4.69722 0
M  V30 342 H 28.816 -2.89256 -5.37739 0
M  V30 343 H 30.23 -4.39855 -3.67697 0
M  V30 344 H 28.627 -5.05458 -3.2347 0
M  V30 345 H 29.697 -4.43293 -1.96518 0
M  V30 346 N 31.0401 0.771051 -1.3745 0
M  V30 347 C 32.2881 1.52661 -1.32435 0
M  V30 348 C 32.6091 1.9479 0.0905024 0
M  V30 349 O 31.8791 1.66348 1.03466 0
M  V30 350 H 30.4591 0.566218 -0.487244 0
M  V30 351 H 33.1211 0.917636 -1.71946 0
M  V30 352 H 32.2171 2.42568 -1.96385 0
M  V30 353 N 32.5182 1.22032 0.997298 0
M  V30 354 C 33.4282 1.00271 2.12092 0
M  V30 355 C 34.4442 -0.047621 1.73935 0
M  V30 356 O 35.6202 0.144136 2.00884 0
M  V30 357 C 32.6852 0.578449 3.4184 0
M  V30 358 C 31.7462 1.70189 3.94125 0
M  V30 359 C 30.9792 1.29778 5.17681 0
M  V30 360 O 31.2022 0.174676 5.70132 0
M  V30 361 O 30.1362 2.11261 5.63607 0
M  V30 362 H 33.9622 1.94398 2.3333 0
M  V30 363 H 31.5472 1.00587 1.10465 0
M  V30 364 H 33.4292 0.351998 4.19927 0
M  V30 365 H 32.1042 -0.334019 3.21972 0
M  V30 366 H 31.0112 1.98282 3.1723 0
M  V30 367 H 32.3442 2.59206 4.18417 0
M  V30 368 N 33.9963 -1.19345 1.0293 0
M  V30 369 C 34.9263 -2.2481 0.631105 0
M  V30 370 C 35.9073 -1.66245 -0.360104 0
M  V30 371 O 37.0923 -1.92677 -0.242726 0
M  V30 372 C 34.2223 -3.47295 -0.0184607 0
M  V30 373 C 33.1763 -4.18536 0.895073 0
M  V30 374 C 32.5023 -5.34586 0.110592 0
M  V30 375 C 33.8023 -4.73287 2.209 0
M  V30 376 H 35.4963 -2.58372 1.51275 0
M  V30 377 H 33.0423 -1.24194 0.728818 0
M  V30 378 H 34.9953 -4.20268 -0.308675 0
M  V30 379 H 33.7193 -3.12933 -0.934907 0
M  V30 380 H 32.3783 -3.47446 1.16949 0
M  V30 381 H 32.0263 -4.96469 -0.807902 0
M  V30 382 H 31.7263 -5.83183 0.719087 0
M  V30 383 H 33.2503 -6.10355 -0.172871 0
M  V30 384 H 34.6643 -5.38013 1.98028 0
M  V30 385 H 33.0613 -5.32373 2.76946 0
M  V30 386 H 34.1313 -3.91331 2.86336 0
M  V30 387 N 35.4744 -0.807222 -1.35358 0
M  V30 388 C 36.8854 -0.44876 -1.81226 0
M  V30 389 C 37.2364 1.02929 -1.67033 0
M  V30 390 O 36.3614 1.79991 -1.20133 0
M  V30 391 C 36.9564 -0.807774 -3.2903 0
M  V30 392 C 35.5154 -0.501901 -3.73039 0
M  V30 393 C 34.6624 -1.03304 -2.57339 0
M  V30 394 H 37.6134 -0.998808 -1.23327 0
M  V30 395 H 37.6344 -0.10554 -3.80354 0
M  V30 396 H 37.1464 -1.88357 -3.39328 0
M  V30 397 H 35.2474 0.565128 -3.68289 0
M  V30 398 H 35.3604 -1.03497 -4.67787 0
M  V30 399 H 33.7244 -0.455339 -2.50597 0
M  V30 400 H 34.5074 -2.11496 -2.70415 0
M  V30 401 N 36.9525 1.47285 -0.560781 0
M  V30 402 C 38.1985 2.02764 -0.0381184 0
M  V30 403 C 38.5315 1.43384 1.30976 0
M  V30 404 O 37.8065 0.590733 1.85312 0
M  V30 405 C 38.0895 3.60064 0.0511427 0
M  V30 406 C 37.9425 4.2987 -1.32408 0
M  V30 407 C 39.2615 4.33439 0.762795 0
M  V30 408 H 36.3805 0.736841 -0.0153264 0
M  V30 409 H 39.0225 1.75675 -0.723759 0
M  V30 410 H 37.1725 3.83274 0.635065 0
M  V30 411 H 38.8445 4.17989 -1.95148 0
M  V30 412 H 37.0875 3.90085 -1.8978 0
M  V30 413 H 37.7585 5.38478 -1.21431 0
M  V30 414 H 40.2345 4.15243 0.266965 0
M  V30 415 H 39.1105 5.43124 0.794221 0
M  V30 416 H 39.3715 4.02915 1.81966 0
M  V30 417 N 38.4306 0.297415 1.54768 0
M  V30 418 C 39.7076 -0.365847 1.92148 0
M  V30 419 C 40.0876 -1.71975 1.22424 0
M  V30 420 O 39.4356 -2.25666 0.358739 0
M  V30 421 C 39.6456 -0.484056 3.45627 0
M  V30 422 C 40.9936 -0.756594 4.17805 0
M  V30 423 O 42.0176 -0.568007 3.51642 0
M  V30 424 O 40.8766 -1.11863 5.34929 0
M  V30 425 H 37.9706 -0.203919 0.801465 0
M  V30 426 H 40.5166 0.34521 1.66152 0
M  V30 427 H 39.2886 0.467865 3.88493 0
M  V30 428 H 38.9116 -1.24372 3.77647 0
M  V30 429 N 39.9087 -1.5758 0.0250728 0
M  V30 430 C 40.8717 -2.08896 -0.943139 0
M  V30 431 C 41.8717 -1.00321 -1.25668 0
M  V30 432 O 43.0617 -1.26495 -1.19769 0
M  V30 433 C 40.1937 -2.55143 -2.26086 0
M  V30 434 H 41.3867 -2.95723 -0.498775 0
M  V30 435 H 38.9397 -1.54703 -0.222888 0
M  V30 436 H 39.6747 -1.71633 -2.75159 0
M  V30 437 H 39.4597 -3.34461 -2.04641 0
M  V30 438 H 40.9497 -2.95083 -2.95492 0
M  V30 439 N 41.3868 0.248026 -1.55636 0
M  V30 440 C 42.8028 0.596483 -1.48035 0
M  V30 441 C 43.0028 1.88386 -0.715039 0
M  V30 442 O 42.0588 2.51319 -0.243944 0
M  V30 443 C 43.3718 0.700258 -2.92433 0
M  V30 444 C 44.9198 0.792659 -3.02797 0
M  V30 445 C 45.3948 0.928005 -4.485 0
M  V30 446 N 46.8858 0.992903 -4.52433 0
M  V30 447 C 47.6208 1.11687 -5.62418 0
M  V30 448 N 47.1168 1.20645 -6.82214 0
M  V30 449 N 48.9098 1.14994 -5.50212 0
M  V30 450 H 41.0608 -0.597109 -2.03834 0
M  V30 451 H 43.3238 -0.205925 -0.925364 0
M  V30 452 H 43.0298 -0.175658 -3.51261 0
M  V30 453 H 42.9038 1.57255 -3.42857 0
M  V30 454 H 45.2908 1.65903 -2.4405 0
M  V30 455 H 45.3718 -0.104762 -2.55585 0
M  V30 456 H 45.0158 0.0661971 -5.07857 0
M  V30 457 H 44.9458 1.84045 -4.93391 0
M  V30 458 H 47.4368 0.935064 -3.66149 0
M  V30 459 H 47.7498 1.30008 -7.61786 0
M  V30 460 H 46.0948 1.17605 -6.84977 0
M  V30 461 H 49.2858 1.07643 -4.55555 0
M  V30 462 H 49.4588 1.24311 -6.35965 0
M  V30 463 N 42.8649 1.48995 0.513639 0
M  V30 464 C 44.1119 1.57843 1.26854 0
M  V30 465 C 44.4399 0.259501 1.92761 0
M  V30 466 O 43.6949 -0.75159 1.80692 0
M  V30 467 C 43.9939 2.67756 2.36731 0
M  V30 468 C 43.6599 4.09669 1.88368 0
M  V30 469 C 42.3219 4.48291 1.74896 0
M  V30 470 C 44.6739 4.98537 1.52021 0
M  V30 471 C 42.0019 5.73568 1.23438 0
M  V30 472 C 44.3539 6.24319 1.0202 0
M  V30 473 C 43.0179 6.61783 0.871778 0
M  V30 474 H 42.2879 0.577587 0.464192 0
M  V30 475 H 44.9349 1.82778 0.571366 0
M  V30 476 H 43.2399 2.36743 3.12185 0
M  V30 477 H 44.9369 2.71813 2.9482 0
M  V30 478 H 41.5269 3.79176 1.99808 0
M  V30 479 H 45.7109 4.69363 1.61281 0
M  V30 480 H 40.9669 6.01304 1.10648 0
M  V30 481 H 45.1409 6.92566 0.729722 0
M  V30 482 H 42.7679 7.5874 0.470852 0
M  V30 483 N 44.343 -0.763751 1.37857 0
M  V30 484 C 45.754 -1.3405 1.29952 0
M  V30 485 C 46.105 -1.96138 -0.0492898 0
M  V30 486 O 45.23 -1.94372 -0.951239 0
M  V30 487 C 45.825 -2.43729 2.35333 0
M  V30 488 C 44.384 -2.97151 2.31037 0
M  V30 489 C 43.531 -1.70438 2.18738 0
M  V30 490 H 46.482 -0.563396 1.48363 0
M  V30 491 H 46.503 -3.23412 2.00462 0
M  V30 492 H 46.015 -1.9851 3.33489 0
M  V30 493 H 44.116 -3.46724 1.3643 0
M  V30 494 H 44.229 -3.52221 3.24772 0
M  V30 495 H 42.593 -1.93673 1.65418 0
M  V30 496 H 43.376 -1.27312 3.18821 0
M  V30 497 N 45.8211 -1.22559 -0.990812 0
M  V30 498 C 47.2321 -1.04791 -1.54518 0
M  V30 499 C 47.5831 0.387998 -1.92325 0
M  V30 500 O 46.7081 1.27328 -1.74976 0
M  V30 501 C 47.3031 -1.896 -2.80779 0
M  V30 502 C 45.8621 -1.76124 -3.32652 0
M  V30 503 C 45.0091 -1.8594 -2.05722 0
M  V30 504 H 47.9601 -1.36374 -0.811662 0
M  V30 505 H 47.9811 -1.41464 -3.53225 0
M  V30 506 H 47.4931 -2.94101 -2.53231 0
M  V30 507 H 45.5941 -0.743643 -3.65104 0
M  V30 508 H 45.7071 -2.58913 -4.03114 0
M  V30 509 H 44.0711 -1.29403 -2.19379 0
M  V30 510 H 44.8541 -2.91976 -1.80568 0
M  V30 511 N 47.2992 1.18797 -1.03562 0
M  V30 512 C 48.7152 1.40671 -0.753917 0
M  V30 513 C 48.9152 1.9043 0.658686 0
M  V30 514 O 47.9712 2.08538 1.42366 0
M  V30 515 C 49.2842 2.41192 -1.79574 0
M  V30 516 C 50.8322 2.54928 -1.81606 0
M  V30 517 C 51.3072 3.58709 -2.84766 0
M  V30 518 N 52.7982 3.66212 -2.83625 0
M  V30 519 C 53.5332 4.46225 -3.60098 0
M  V30 520 N 53.0292 5.29888 -4.46308 0
M  V30 521 N 54.8222 4.40939 -3.4861 0
M  V30 522 H 46.9732 0.848221 -1.94728 0
M  V30 523 H 49.2362 0.435081 -0.842264 0
M  V30 524 H 48.9422 2.11669 -2.80872 0
M  V30 525 H 48.8162 3.40467 -1.62365 0
M  V30 526 H 51.2032 2.83771 -0.809817 0
M  V30 527 H 51.2842 1.55784 -2.02891 0
M  V30 528 H 50.9282 3.30607 -3.85566 0
M  V30 529 H 50.8582 4.57519 -2.60737 0
M  V30 530 H 53.3492 3.06466 -2.21105 0
M  V30 531 H 53.6622 5.88078 -5.01382 0
M  V30 532 H 52.0072 5.29326 -4.50377 0
M  V30 533 H 55.1982 3.74624 -2.80668 0
M  V30 534 H 55.3712 5.03056 -4.08459 0
M  V30 535 N 48.7773 0.814389 1.34928 0
M  V30 536 C 50.0233 0.399013 1.98836 0
M  V30 537 C 50.3563 -1.03314 1.64438 0
M  V30 538 O 49.6313 -1.71811 0.911659 0
M  V30 539 C 49.9143 0.591629 3.55207 0
M  V30 540 C 49.7673 2.06928 3.99376 0
M  V30 541 C 51.0863 0.022199 4.40094 0
M  V30 542 H 48.2053 0.146451 0.722303 0
M  V30 543 H 50.8473 1.02537 1.59957 0
M  V30 544 H 48.9973 0.0584441 3.88456 0
M  V30 545 H 50.6693 2.66544 3.76499 0
M  V30 546 H 48.9123 2.56287 3.49999 0
M  V30 547 H 49.5833 2.1549 5.08201 0
M  V30 548 H 52.0593 0.477643 4.13349 0
M  V30 549 H 50.9353 0.186832 5.48582 0
M  V30 550 H 51.1963 -1.07215 4.28902 0
M  V30 551 N 50.2554 -1.46986 0.568584 0
M  V30 552 C 51.6664 -1.86188 0.138219 0
M  V30 553 C 52.0174 -1.47388 -1.29504 0
M  V30 554 O 51.1424 -0.88219 -1.97602 0
M  V30 555 C 51.7374 -3.3792 0.244065 0
M  V30 556 C 50.2964 -3.76171 -0.131335 0
M  V30 557 C 49.4434 -2.71027 0.586465 0
M  V30 558 H 52.3944 -1.38342 0.777645 0
M  V30 559 H 52.4154 -3.76729 -0.534351 0
M  V30 560 H 51.9274 -3.66128 1.28731 0
M  V30 561 H 50.0284 -3.5358 -1.17526 0
M  V30 562 H 50.1414 -4.78523 0.235146 0
M  V30 563 H 48.5054 -2.54684 0.0282722 0
M  V30 564 H 49.2884 -3.02077 1.63109 0
M  V30 565 N 51.7335 -0.305618 -1.54608 0
M  V30 566 C 52.6805 0.568421 -2.23691 0
M  V30 567 C 53.6505 1.12592 -1.22116 0
M  V30 568 O 54.8355 1.16959 -1.50749 0
M  V30 569 C 51.9755 1.7322 -2.98477 0
M  V30 570 C 51.0885 1.20566 -4.14835 0
M  V30 571 C 50.2235 2.33368 -4.77193 0
M  V30 572 C 49.2625 1.7787 -5.85686 0
M  V30 573 N 48.3995 2.84263 -6.4198 0
M  V30 574 H 53.2395 -0.0272867 -2.97988 0
M  V30 575 H 50.7765 -0.0252363 -1.47078 0
M  V30 576 H 52.7345 2.41675 -3.40072 0
M  V30 577 H 51.3645 2.29947 -2.26548 0
M  V30 578 H 50.4165 0.413223 -3.78149 0
M  V30 579 H 51.7285 0.759417 -4.92985 0
M  V30 580 H 50.8825 3.09761 -5.21664 0
M  V30 581 H 49.6215 2.8132 -3.98385 0
M  V30 582 H 48.6265 0.99968 -5.40635 0
M  V30 583 H 49.8515 1.30816 -6.66381 0
M  V30 584 H 47.7975 3.31541 -5.66053 0
M  V30 585 H 47.7145 2.44149 -7.15491 0
M  V30 586 H 48.9825 3.6054 -6.91109 0
M  V30 587 N 53.2116 1.57565 -0.0334293 0
M  V30 588 C 54.4366 1.96689 0.657895 0
M  V30 589 C 54.8616 0.910057 1.64619 0
M  V30 590 O 54.2196 -0.128598 1.80843 0
M  V30 591 C 54.2676 3.34905 1.33683 0
M  V30 592 O 53.3716 3.31574 2.45219 0
M  V30 593 H 52.7126 0.641205 0.172489 0
M  V30 594 H 55.2426 2.04372 -0.0965621 0
M  V30 595 H 55.2526 3.71234 1.69262 0
M  V30 596 H 53.9276 4.11366 0.612411 0
M  V30 597 H 52.5046 3.06968 2.11719 0
M  V30 598 N 54.6897 -0.239769 1.55765 0
M  V30 599 C 55.9367 -0.966801 1.7793 0
M  V30 600 C 56.2647 -1.85046 0.599015 0
M  V30 601 O 55.5197 -1.91197 -0.417395 0
M  V30 602 C 55.8187 -1.852 3.05672 0
M  V30 603 C 55.4847 -1.1231 4.36689 0
M  V30 604 C 54.1467 -0.921689 4.72291 0
M  V30 605 C 56.4987 -0.607019 5.17653 0
M  V30 606 C 53.8267 -0.191996 5.86386 0
M  V30 607 C 56.1787 0.109241 6.32506 0
M  V30 608 C 54.8427 0.322073 6.66723 0
M  V30 609 H 54.1127 -0.353778 0.651093 0
M  V30 610 H 56.7597 -0.23634 1.90036 0
M  V30 611 H 55.0647 -2.64975 2.8861 0
M  V30 612 H 56.7617 -2.41635 3.20021 0
M  V30 613 H 53.3517 -1.29004 4.08725 0
M  V30 614 H 57.5357 -0.750153 4.90598 0
M  V30 615 H 52.7917 -0.0166949 6.11398 0
M  V30 616 H 56.9657 0.516737 6.9448 0
M  V30 617 H 54.5927 0.88944 7.54979 0
M  V30 618 N 56.1678 -1.49265 -0.50573 0
M  V30 619 C 57.5788 -1.51769 -1.08734 0
M  V30 620 C 57.9298 -0.301192 -1.93874 0
M  V30 621 O 57.0548 0.589456 -2.08217 0
M  V30 622 C 57.6498 -2.75017 -1.97867 0
M  V30 623 C 56.2088 -2.80314 -2.51199 0
M  V30 624 C 55.3558 -2.4562 -1.28709 0
M  V30 625 H 58.3068 -1.56031 -0.289855 0
M  V30 626 H 58.3278 -2.5491 -2.82491 0
M  V30 627 H 57.8398 -3.63539 -1.35873 0
M  V30 628 H 55.9408 -1.96061 -3.16845 0
M  V30 629 H 56.0538 -3.82366 -2.88675 0
M  V30 630 H 54.4178 -1.97297 -1.61078 0
M  V30 631 H 55.2008 -3.36411 -0.6843 0
M  V30 632 N 57.6459 0.756429 -1.3826 0
M  V30 633 C 58.8929 1.51547 -1.34312 0
M  V30 634 C 59.2209 1.94382 0.0677144 0
M  V30 635 O 58.4759 1.65514 1.04421 0
M  V30 636 C 58.7749 2.78313 -2.24224 0
M  V30 637 C 58.4409 2.54455 -3.72241 0
M  V30 638 C 57.1029 2.47657 -4.12576 0
M  V30 639 C 59.4549 2.3354 -4.65949 0
M  V30 640 C 56.7829 2.17956 -5.44713 0
M  V30 641 C 59.1349 2.05359 -5.9834 0
M  V30 642 C 57.7989 1.97016 -6.37762 0
M  V30 643 H 57.0689 0.55455 -0.491482 0
M  V30 644 H 59.7159 0.870039 -1.70595 0
M  V30 645 H 58.0209 3.47492 -1.80987 0
M  V30 646 H 59.7179 3.36259 -2.18474 0
M  V30 647 H 56.3079 2.60616 -3.40261 0
M  V30 648 H 60.4919 2.37772 -4.35635 0
M  V30 649 H 55.7479 2.10003 -5.74203 0
M  V30 650 H 59.9219 1.88179 -6.70494 0
M  V30 651 H 57.5489 1.73766 -7.40074 0
M  V30 652 N 59.124 1.23083 0.984299 0
M  V30 653 C 60.072 1.00593 2.09723 0
M  V30 654 C 61.066 -0.0538014 1.69315 0
M  V30 655 O 62.272 0.0993719 1.79725 0
M  V30 656 H 58.647 0.30817 0.685956 0
M  V30 657 H 60.618 1.95012 2.2586 0
M  V30 658 C 59.367 0.609601 3.42314 0
M  V30 659 H 58.69 1.41675 3.73856 0
M  V30 660 H 60.13 0.491726 4.21139 0
M  V30 661 C 58.589 -0.681745 3.2993 0
M  V30 662 O 59.119 -1.73192 3.62446 0
M  V30 663 N 57.325 -0.656178 2.83095 0
M  V30 664 H 56.872 0.198759 2.56832 0
M  V30 665 H 56.83 -1.52044 2.75191 0
M  V30 666 N 60.6021 -1.18246 1.0419 0
M  V30 667 C 61.8301 -1.92195 0.766072 0
M  V30 668 C 62.2451 -1.76247 -0.676933 0
M  V30 669 O 61.6021 -1.09293 -1.46155 0
M  V30 670 C 61.6531 -3.43568 1.12442 0
M  V30 671 O 61.3741 -3.59015 2.51078 0
M  V30 672 C 62.8751 -4.34613 0.873275 0
M  V30 673 H 60.0951 -0.610114 0.279288 0
M  V30 674 H 62.6391 -1.50007 1.38989 0
M  V30 675 H 60.7941 -3.8354 0.545542 0
M  V30 676 H 61.2081 -4.5273 2.64831 0
M  V30 677 H 62.6821 -5.39374 1.17385 0
M  V30 678 H 63.1591 -4.38781 -0.191909 0
M  V30 679 H 63.7651 -4.00341 1.43551 0
M  V30 680 N 62.0802 -0.821533 -1.34494 0
M  V30 681 C 63.3052 -0.420873 -2.03085 0
M  V30 682 C 63.7302 0.964915 -1.61465 0
M  V30 683 O 63.0882 1.62763 -0.798607 0
M  V30 684 C 63.1362 -0.529414 -3.56693 0
M  V30 685 O 62.2402 0.451302 -4.09923 0
M  V30 686 H 61.5812 -0.173489 -0.640935 0
M  V30 687 H 64.1112 -1.11157 -1.71771 0
M  V30 688 H 64.1212 -0.404671 -4.05988 0
M  V30 689 H 62.7962 -1.54014 -3.86332 0
M  V30 690 H 61.3732 0.285558 -3.71805 0
M  V30 691 N 63.5583 1.46682 -0.576371 0
M  V30 692 C 64.8043 2.02712 -0.0596221 0
M  V30 693 C 65.1373 1.44765 1.29448 0
M  V30 694 O 64.4123 0.610355 1.84675 0
M  V30 695 C 64.6953 3.60098 0.0129503 0
M  V30 696 C 64.5483 4.28441 -1.3696 0
M  V30 697 C 65.8673 4.34224 0.71678 0
M  V30 698 H 62.9863 0.736637 -0.0231407 0
M  V30 699 H 65.6283 1.74898 -0.742351 0
M  V30 700 H 63.7783 3.83926 0.594378 0
M  V30 701 H 65.4503 4.15896 -1.9957 0
M  V30 702 H 63.6933 3.8805 -1.93907 0
M  V30 703 H 64.3643 5.3716 -1.27135 0
M  V30 704 H 66.8403 4.15503 0.222908 0
M  V30 705 H 65.7163 5.43936 0.73657 0
M  V30 706 H 65.9773 4.04823 1.77682 0
M  V30 707 N 65.0364 0.313813 1.54444 0
M  V30 708 C 66.2824 -0.292108 2.00685 0
M  V30 709 C 66.6154 -1.52548 1.20177 0
M  V30 710 O 65.8904 -1.92452 0.281531 0
M  V30 711 C 66.1734 -0.635968 3.5444 0
M  V30 712 C 66.0264 0.607437 4.4568 0
M  V30 713 C 67.3454 -1.45747 4.15266 0
M  V30 714 H 64.4644 -0.104697 0.729526 0
M  V30 715 H 67.1064 0.428457 1.85106 0
M  V30 716 H 65.2564 -1.24986 3.67846 0
M  V30 717 H 66.9284 1.24581 4.44159 0
M  V30 718 H 65.1714 1.23822 4.15753 0
M  V30 719 H 65.8424 0.322515 5.51057 0
M  V30 720 H 68.3184 -0.938645 4.05375 0
M  V30 721 H 67.1944 -1.66683 5.2298 0
M  V30 722 H 67.4554 -2.45063 3.67963 0
M  V30 723 N 66.5145 -1.57545 0.0417849 0
M  V30 724 C 67.7445 -1.96339 -0.642995 0
M  V30 725 C 68.1525 -0.917536 -1.65463 0
M  V30 726 O 67.4955 0.107747 -1.83384 0
M  V30 727 C 67.5575 -3.31333 -1.39494 0
M  V30 728 C 67.2215 -4.53796 -0.540204 0
M  V30 729 C 68.2185 -5.19553 0.189806 0
M  V30 730 C 65.9035 -5.0006 -0.473886 0
M  V30 731 C 67.8975 -6.29904 0.974674 0
M  V30 732 C 65.5845 -6.10289 0.314677 0
M  V30 733 C 66.5825 -6.75072 1.03765 0
M  V30 734 O 66.2705 -7.83183 1.81327 0
M  V30 735 H 66.0025 -0.651241 -0.181277 0
M  V30 736 H 68.5565 -2.05148 0.101665 0
M  V30 737 H 66.7865 -3.19052 -2.18502 0
M  V30 738 H 68.4755 -3.54942 -1.96904 0
M  V30 739 H 69.2415 -4.84774 0.147981 0
M  V30 740 H 65.1205 -4.49433 -1.0262 0
M  V30 741 H 68.6645 -6.80401 1.5395 0
M  V30 742 H 64.5615 -6.44506 0.358174 0
M  V30 743 H 65.3295 -7.99913 1.73438 0
M  V30 744 N 67.9926 0.231505 -1.5589 0
M  V30 745 C 68.9396 1.28682 -1.91598 0
M  V30 746 C 69.9096 1.47071 -0.771974 0
M  V30 747 O 71.0946 1.60802 -1.027 0
M  V30 748 C 68.2346 2.6342 -2.22944 0
M  V30 749 C 67.3476 2.52912 -3.50228 0
M  V30 750 C 66.4826 3.80106 -3.7107 0
M  V30 751 C 65.5216 3.64279 -4.91902 0
M  V30 752 N 64.6586 4.834 -5.09184 0
M  V30 753 H 69.4986 0.975305 -2.81588 0
M  V30 754 H 67.0356 0.470299 -1.39379 0
M  V30 755 H 68.9936 3.41869 -2.39126 0
M  V30 756 H 67.6236 2.92687 -1.36139 0
M  V30 757 H 66.6756 1.6595 -3.42294 0
M  V30 758 H 67.9876 2.37133 -4.38827 0
M  V30 759 H 67.1416 4.66999 -3.87295 0
M  V30 760 H 65.8806 3.98799 -2.80733 0
M  V30 761 H 64.8856 2.7577 -4.75637 0
M  V30 762 H 66.1106 3.47067 -5.83714 0
M  V30 763 H 64.0566 5.02425 -4.21788 0
M  V30 764 H 63.9736 4.70311 -5.91898 0
M  V30 765 H 65.2416 5.71747 -5.29835 0
M  V30 766 N 69.4707 1.49531 0.497807 0
M  V30 767 C 70.4177 1.66436 1.59899 0
M  V30 768 C 71.3877 0.505793 1.58212 0
M  V30 769 O 72.5727 0.733202 1.7615 0
M  V30 770 C 69.7127 1.7399 2.98029 0
M  V30 771 C 68.8257 3.01172 3.09708 0
M  V30 772 C 67.9607 2.99686 4.38591 0
M  V30 773 C 66.9997 4.21434 4.43914 0
M  V30 774 N 66.1367 4.1784 5.64229 0
M  V30 775 H 70.9767 2.60459 1.44793 0
M  V30 776 H 68.5137 1.29137 0.704423 0
M  V30 777 H 70.4717 1.76352 3.78095 0
M  V30 778 H 69.1017 0.834301 3.11832 0
M  V30 779 H 68.1537 3.08408 2.22685 0
M  V30 780 H 69.4657 3.91165 3.09502 0
M  V30 781 H 68.6197 3.00628 5.2698 0
M  V30 782 H 67.3587 2.07477 4.41367 0
M  V30 783 H 66.3637 4.20733 3.53926 0
M  V30 784 H 67.5887 5.14839 4.42851 0
M  V30 785 H 65.5347 3.28469 5.67841 0
M  V30 786 H 65.4517 5.01571 5.65652 0
M  V30 787 H 66.7197 4.22889 6.54817 0
M  V30 788 N 70.9488 -0.749086 1.3866 0
M  V30 789 C 72.1768 -1.53834 1.38358 0
M  V30 790 C 72.5918 -1.88783 -0.0255219 0
M  V30 791 O 71.9488 -1.53101 -0.993292 0
M  V30 792 C 71.9998 -2.83468 2.2434 0
M  V30 793 O 71.7208 -2.50008 3.5976 0
M  V30 794 C 73.2218 -3.7758 2.32267 0
M  V30 795 H 70.4418 -0.47585 0.473083 0
M  V30 796 H 72.9858 -0.926726 1.82297 0
M  V30 797 H 71.1408 -3.40995 1.83851 0
M  V30 798 H 71.5548 -3.33182 4.05081 0
M  V30 799 H 73.0288 -4.65478 2.96706 0
M  V30 800 H 73.5058 -4.18334 1.33765 0
M  V30 801 H 74.1118 -3.25976 2.73166 0
M  V30 802 N 72.4269 -1.23603 -0.977757 0
M  V30 803 C 73.3569 -1.04401 -2.0886 0
M  V30 804 C 74.3379 0.0399052 -1.70053 0
M  V30 805 O 75.5229 -0.125246 -1.93796 0
M  V30 806 C 72.6529 -0.637269 -3.41403 0
M  V30 807 C 71.6069 -1.66883 -3.94124 0
M  V30 808 C 70.9329 -1.11745 -5.22893 0
M  V30 809 C 72.2329 -3.06247 -4.23096 0
M  V30 810 H 73.9269 -1.97316 -2.25182 0
M  V30 811 H 71.4729 -0.950096 -1.08209 0
M  V30 812 H 73.4259 -0.48998 -4.18542 0
M  V30 813 H 72.1499 0.327557 -3.24953 0
M  V30 814 H 70.8089 -1.80416 -3.19133 0
M  V30 815 H 70.4569 -0.143527 -5.02795 0
M  V30 816 H 70.1569 -1.80672 -5.59134 0
M  V30 817 H 71.6809 -0.982067 -6.02651 0
M  V30 818 H 73.0949 -2.96001 -4.90975 0
M  V30 819 H 71.4919 -3.72436 -4.70544 0
M  V30 820 H 72.5619 -3.55041 -3.30263 0
M  V30 821 N 73.905 1.17692 -1.04816 0
M  V30 822 C 75.152 1.87859 -0.75599 0
M  V30 823 C 75.48 1.80812 0.716752 0
M  V30 824 O 74.735 1.20819 1.53952 0
M  V30 825 C 75.034 3.37462 -1.17703 0
M  V30 826 C 74.7 3.64713 -2.65133 0
M  V30 827 C 73.362 3.71859 -3.05408 0
M  V30 828 C 75.714 3.76492 -3.60421 0
M  V30 829 C 73.042 3.88271 -4.39843 0
M  V30 830 C 75.394 3.94421 -4.94585 0
M  V30 831 C 74.058 3.99806 -5.3452 0
M  V30 832 H 73.328 0.687425 -0.276636 0
M  V30 833 H 75.975 1.39255 -1.31455 0
M  V30 834 H 74.28 3.88097 -0.537395 0
M  V30 835 H 75.977 3.90109 -0.928218 0
M  V30 836 H 72.567 3.59772 -2.32942 0
M  V30 837 H 76.751 3.70295 -3.30447 0
M  V30 838 H 72.007 3.90687 -4.70291 0
M  V30 839 H 76.181 4.02477 -5.68318 0
M  V30 840 H 73.808 4.12276 -6.38696 0
M  V30 841 N 75.3831 0.828654 1.34056 0
M  V30 842 C 76.6291 0.42008 1.98402 0
M  V30 843 C 76.9621 -1.01564 1.65525 0
M  V30 844 O 76.2371 -1.70834 0.929831 0
M  V30 845 C 76.5201 0.62927 3.54559 0
M  V30 846 C 76.3731 2.11152 3.97159 0
M  V30 847 C 77.6921 0.0688756 4.40046 0
M  V30 848 H 74.8111 0.154104 0.720709 0
M  V30 849 H 77.4531 1.04228 1.5886 0
M  V30 850 H 75.6031 0.0996418 3.88372 0
M  V30 851 H 77.2751 2.70522 3.73651 0
M  V30 852 H 75.5181 2.59985 3.47261 0
M  V30 853 H 76.1891 2.20868 5.05887 0
M  V30 854 H 78.6651 0.521458 4.1282 0
M  V30 855 H 77.5411 0.245006 5.48353 0
M  V30 856 H 77.8021 -1.0266 4.30015 0
M  V30 857 N 76.8612 -1.46375 0.584142 0
M  V30 858 C 77.7712 -2.34115 -0.150728 0
M  V30 859 C 78.7872 -1.49838 -0.884567 0
M  V30 860 O 79.9632 -1.82704 -0.847429 0
M  V30 861 C 77.0282 -3.2705 -1.15062 0
M  V30 862 C 76.0892 -4.27228 -0.421293 0
M  V30 863 C 75.3222 -5.15722 -1.37355 0
M  V30 864 O 75.5452 -5.07176 -2.61014 0
M  V30 865 O 74.4792 -5.95383 -0.883355 0
M  V30 866 H 78.3052 -2.98309 0.569708 0
M  V30 867 H 75.8902 -1.45373 0.344535 0
M  V30 868 H 77.7722 -3.84381 -1.72712 0
M  V30 869 H 76.4472 -2.65451 -1.8525 0
M  V30 870 H 75.3542 -3.7358 0.197085 0
M  V30 871 H 76.6872 -4.91616 0.239641 0
M  V30 872 N 78.3393 -0.321999 -1.54275 0
M  V30 873 C 79.5863 0.281044 -2.0054 0
M  V30 874 C 79.9143 1.52265 -1.21019 0
M  V30 875 O 79.1693 1.93687 -0.279982 0
M  V30 876 C 79.4683 0.661769 -3.5122 0
M  V30 877 C 79.1343 -0.480482 -4.48333 0
M  V30 878 C 77.7963 -0.794005 -4.74604 0
M  V30 879 C 80.1483 -1.24783 -5.06042 0
M  V30 880 C 77.4763 -1.87763 -5.55844 0
M  V30 881 C 79.8283 -2.32153 -5.88462 0
M  V30 882 C 78.4923 -2.64089 -6.13036 0
M  V30 883 H 77.7623 0.102841 -0.733829 0
M  V30 884 H 80.4093 -0.445453 -1.86247 0
M  V30 885 H 78.7143 1.46867 -3.63232 0
M  V30 886 H 80.4113 1.13989 -3.84457 0
M  V30 887 H 77.0013 -0.226039 -4.28004 0
M  V30 888 H 81.1853 -1.01887 -4.85729 0
M  V30 889 H 76.4413 -2.12954 -5.73115 0
M  V30 890 H 80.6153 -2.92057 -6.32199 0
M  V30 891 H 78.2423 -3.48185 -6.75775 0
M  V30 892 N 79.8174 1.5752 -0.0501392 0
M  V30 893 C 81.0454 1.96963 0.633492 0
M  V30 894 C 81.4604 0.927631 1.6444 0
M  V30 895 O 80.8174 -0.0882665 1.82286 0
M  V30 896 C 80.8684 3.36487 1.32132 0
M  V30 897 O 80.5894 4.36693 0.350894 0
M  V30 898 C 82.0904 3.90682 2.09481 0
M  V30 899 H 79.3104 0.648244 0.173266 0
M  V30 900 H 81.8544 2.0417 -0.116134 0
M  V30 901 H 80.0094 3.30434 2.02218 0
M  V30 902 H 80.4234 5.17702 0.841735 0
M  V30 903 H 81.8974 4.90591 2.5303 0
M  V30 904 H 82.3744 3.26053 2.94255 0
M  V30 905 H 82.9804 4.00069 1.44307 0
M  V30 906 N 81.2955 -0.223234 1.56011 0
M  V30 907 C 82.5725 -0.972108 1.69733 0
M  V30 908 C 82.9525 -2.02485 0.59691 0
M  V30 909 O 82.3005 -2.25037 -0.396324 0
M  V30 910 C 82.5105 -1.58407 3.10979 0
M  V30 911 C 83.8585 -2.07696 3.70334 0
M  V30 912 O 84.8825 -1.68304 3.1393 0
M  V30 913 O 83.7415 -2.80096 4.69264 0
M  V30 914 H 80.8355 -0.453993 0.691245 0
M  V30 915 H 83.3815 -0.215149 1.68331 0
M  V30 916 H 82.1535 -0.823831 3.82529 0
M  V30 917 H 81.7765 -2.40661 3.16493 0
M  V30 918 N 82.7736 -1.49793 -0.48987 0
M  V30 919 C 83.7236 -1.63673 -1.5873 0
M  V30 920 C 84.7076 -0.491956 -1.53195 0
M  V30 921 O 85.8996 -0.745461 -1.60536 0
M  V30 922 C 83.0286 -1.71689 -2.97284 0
M  V30 923 C 82.1146 -2.91781 -3.07774 0
M  V30 924 N 82.5056 -4.15714 -2.88124 0
M  V30 925 C 80.8036 -2.89949 -3.38889 0
M  V30 926 C 81.5046 -4.965 -3.03088 0
M  V30 927 N 80.4806 -4.30083 -3.3246 0
M  V30 928 H 84.2826 -2.57204 -1.42208 0
M  V30 929 H 81.7966 -1.46719 -0.69623 0
M  V30 930 H 83.7936 -1.79732 -3.76168 0
M  V30 931 H 82.4536 -0.793024 -3.14867 0
M  V30 932 H 83.4646 -4.45515 -2.64077 0
M  V30 933 H 80.1416 -2.06987 -3.62578 0
M  V30 934 H 81.5316 -6.04991 -2.92294 0
M  V30 935 N 84.2517 0.741722 -1.39055 0
M  V30 936 C 85.1817 1.869 -1.39966 0
M  V30 937 C 86.1627 1.6804 -0.26392 0
M  V30 938 O 87.3477 1.88458 -0.468755 0
M  V30 939 C 84.4777 3.24572 -1.23574 0
M  V30 940 C 83.4317 3.58056 -2.34477 0
M  V30 941 C 82.7577 4.94593 -2.0318 0
M  V30 942 C 84.0577 3.61716 -3.76774 0
M  V30 943 H 85.7517 1.86395 -2.34302 0
M  V30 944 H 83.2977 0.895361 -1.1278 0
M  V30 945 H 85.2507 4.031 -1.22834 0
M  V30 946 H 83.9747 3.25587 -0.257045 0
M  V30 947 H 82.6337 2.81854 -2.34423 0
M  V30 948 H 82.2817 4.92181 -1.03765 0
M  V30 949 H 81.9817 5.17964 -2.77465 0
M  V30 950 H 83.5057 5.75486 -2.04079 0
M  V30 951 H 84.9197 4.30335 -3.78794 0
M  V30 952 H 83.3167 3.96603 -4.50362 0
M  V30 953 H 84.3867 2.61672 -4.08235 0
M  V30 954 N 85.7298 1.2412 0.971189 0
M  V30 955 C 86.9768 1.07881 1.71371 0
M  V30 956 C 87.3048 -0.382901 1.90694 0
M  V30 957 O 86.5598 -1.29945 1.46331 0
M  V30 958 C 86.8588 1.75983 3.11071 0
M  V30 959 C 86.5248 3.25909 3.11599 0
M  V30 960 C 85.1868 3.66813 3.11451 0
M  V30 961 C 87.5388 4.21771 3.062 0
M  V30 962 C 84.8668 5.02021 3.03631 0
M  V30 963 C 87.2188 5.56982 2.99923 0
M  V30 964 C 85.8828 5.97237 2.98102 0
M  V30 965 H 85.1528 0.394764 0.62709 0
M  V30 966 H 87.7998 1.54176 1.13587 0
M  V30 967 H 86.1048 1.22072 3.72298 0
M  V30 968 H 87.8018 1.60887 3.6731 0
M  V30 969 H 84.3918 2.93353 3.12477 0
M  V30 970 H 88.5758 3.91172 3.05447 0
M  V30 971 H 83.8318 5.32411 3.0058 0
M  V30 972 H 88.0058 6.30969 2.94704 0
M  V30 973 H 85.6328 7.01967 2.91798 0
M  V30 974 N 87.2079 -1.17134 1.05439 0
M  V30 975 C 88.1559 -2.23289 0.651511 0
M  V30 976 C 89.1499 -1.66186 -0.328411 0
M  V30 977 O 90.3559 -1.78949 -0.194206 0
M  V30 978 H 86.7309 -0.726938 0.192523 0
M  V30 979 H 88.7019 -2.54565 1.55689 0
M  V30 980 C 87.4509 -3.47671 0.0448436 0
M  V30 981 H 86.7739 -3.91918 0.78996 0
M  V30 982 H 88.2139 -4.2353 -0.19964 0
M  V30 983 C 86.6729 -3.14453 -1.20918 0
M  V30 984 O 87.2029 -3.29459 -2.29825 0
M  V30 985 N 85.4089 -2.68657 -1.10779 0
M  V30 986 H 84.9559 -2.56646 -0.221526 0
M  V30 987 H 84.9139 -2.46804 -1.9477 0
M  V30 988 N 88.686 -0.835752 -1.33615 0
M  V30 989 C 89.935 -0.426289 -1.97144 0
M  V30 990 C 90.248 1.01912 -1.66953 0
M  V30 991 O 91.454 1.53311 -2.24072 0
M  V30 992 C 89.91 -0.711321 -3.52801 0
M  V30 993 C 89.518 -2.1712 -3.91871 0
M  V30 994 C 91.262 -0.368654 -4.22896 0
M  V30 995 C 89.169 -2.40044 -5.40493 0
M  V30 996 H 88.099 -0.15567 -0.737755 0
M  V30 997 H 90.75 -1.0239 -1.52278 0
M  V30 998 H 89.132 -0.0433766 -3.95976 0
M  V30 999 H 90.306 -2.87936 -3.59763 0
M  V30 1000 H 88.621 -2.47654 -3.34749 0
M  V30 1001 H 91.218 -0.517601 -5.32189 0
M  V30 1002 H 91.561 0.688078 -4.10574 0
M  V30 1003 H 92.094 -0.991702 -3.8524 0
M  V30 1004 H 88.833 -3.44271 -5.57815 0
M  V30 1005 H 88.353 -1.73785 -5.74072 0
M  V30 1006 H 90.032 -2.23042 -6.0734 0
M  V30 1007 N 90.1641 1.46063 -0.591896 0
M  V30 1008 C 91.1271 2.28854 0.125973 0
M  V30 1009 C 92.1271 1.38903 0.810107 0
M  V30 1010 O 93.3171 1.61186 0.66066 0
M  V30 1011 C 90.4491 3.19526 1.1881 0
M  V30 1012 H 91.6421 2.93802 -0.601717 0
M  V30 1013 H 89.1951 1.52325 -0.350254 0
M  V30 1014 H 89.9301 2.59345 1.94707 0
M  V30 1015 H 89.7151 3.85766 0.701936 0
M  V30 1016 H 91.2051 3.81817 1.69132 0
M  V30 1017 N 91.6422 0.330177 1.54103 0
M  V30 1018 C 92.5892 -0.532762 2.24567 0
M  V30 1019 C 93.5592 -1.10635 1.23892 0
M  V30 1020 O 94.7442 -1.14546 1.5259 0
M  V30 1021 C 91.8842 -1.6845 3.01195 0
M  V30 1022 C 90.9972 -1.13951 4.167 0
M  V30 1023 C 90.1322 -2.25746 4.80845 0
M  V30 1024 C 89.1712 -1.6853 5.88442 0
M  V30 1025 N 88.3082 -2.74014 6.46421 0
M  V30 1026 H 93.1482 0.0746905 2.97906 0
M  V30 1027 H 90.6852 0.048632 1.4702 0
M  V30 1028 H 92.6432 -2.36234 3.43874 0
M  V30 1029 H 91.2732 -2.26314 2.30178 0
M  V30 1030 H 90.3252 -0.35301 3.78758 0
M  V30 1031 H 91.6372 -0.680892 4.94131 0
M  V30 1032 H 90.7912 -3.01422 5.26526 0
M  V30 1033 H 89.5302 -2.74947 4.0281 0
M  V30 1034 H 88.5352 -0.913543 5.42157 0
M  V30 1035 H 89.7602 -1.20198 6.68378 0
M  V30 1036 H 87.7062 -3.22494 5.71256 0
M  V30 1037 H 87.6232 -2.32735 7.19285 0
M  V30 1038 H 88.8912 -3.49499 6.96757 0
M  V30 1039 N 93.1203 -1.57491 0.0584922 0
M  V30 1040 C 94.5313 -1.80526 -0.476138 0
M  V30 1041 C 94.8823 -0.971334 -1.70469 0
M  V30 1042 O 94.0073 -0.190012 -2.15564 0
M  V30 1043 C 94.6023 -3.27424 -0.870587 0
M  V30 1044 C 93.1613 -3.51351 -1.35015 0
M  V30 1045 C 92.3083 -2.75343 -0.32887 0
M  V30 1046 H 95.2593 -1.56133 0.284312 0
M  V30 1047 H 95.2803 -3.38745 -1.73299 0
M  V30 1048 H 94.7923 -3.88093 0.0237627 0
M  V30 1049 H 92.8933 -2.95971 -2.26345 0
M  V30 1050 H 93.0063 -4.60059 -1.33726 0
M  V30 1051 H 91.3703 -2.417 -0.803321 0
M  V30 1052 H 92.1533 -3.38743 0.557521 0
M  V30 1053 N 94.5984 0.214957 -1.56127 0
M  V30 1054 C 96.0144 0.564948 -1.49267 0
M  V30 1055 C 96.2144 1.86827 -0.754838 0
M  V30 1056 O 95.2704 2.50745 -0.297198 0
M  V30 1057 C 96.5834 0.638071 -2.93852 0
M  V30 1058 C 98.1314 0.728253 -3.0441 0
M  V30 1059 C 98.6064 0.832663 -4.50367 0
M  V30 1060 N 100.097 0.896712 -4.54437 0
M  V30 1061 C 100.832 0.997324 -5.6466 0
M  V30 1062 N 100.328 1.06147 -6.8462 0
M  V30 1063 N 102.121 1.03297 -5.52527 0
M  V30 1064 H 94.2724 -0.640211 -2.02522 0
M  V30 1065 H 96.5354 -0.225507 -0.920788 0
M  V30 1066 H 96.2414 -0.250126 -3.50809 0
M  V30 1067 H 96.1154 1.49947 -3.46115 0
M  V30 1068 H 98.5024 1.60689 -2.47514 0
M  V30 1069 H 98.5834 -0.158952 -2.55306 0
M  V30 1070 H 98.2274 -0.0415417 -5.07883 0
M  V30 1071 H 98.1574 1.73538 -4.97184 0
M  V30 1072 H 100.648 0.857188 -3.6805 0
M  V30 1073 H 100.961 1.1382 -7.64372 0
M  V30 1074 H 99.3064 1.03049 -6.87318 0
M  V30 1075 H 102.497 0.979558 -4.57736 0
M  V30 1076 H 102.67 1.10793 -6.38458 0
M  V30 1077 N 96.0765 1.50051 0.48192 0
M  V30 1078 C 97.4875 1.5348 1.06305 0
M  V30 1079 C 97.8385 0.331997 1.93371 0
M  V30 1080 O 96.9635 -0.556256 2.09129 0
M  V30 1081 C 97.5585 2.7813 1.93466 0
M  V30 1082 C 96.1175 2.84275 2.46707 0
M  V30 1083 C 95.2645 2.47637 1.24785 0
M  V30 1084 H 98.2155 1.56472 0.264995 0
M  V30 1085 H 98.2365 2.59372 2.78399 0
M  V30 1086 H 97.7485 3.65654 1.30072 0
M  V30 1087 H 95.8495 2.01077 3.13686 0
M  V30 1088 H 95.9625 3.8691 2.82555 0
M  V30 1089 H 94.3265 1.99835 1.57918 0
M  V30 1090 H 95.1095 3.37457 0.630694 0
M  V30 1091 N 97.5546 -0.734337 1.39446 0
M  V30 1092 C 98.9656 -1.31264 1.32766 0
M  V30 1093 C 99.3166 -1.96198 -0.00767497 0
M  V30 1094 O 98.4416 -1.96346 -0.909796 0
M  V30 1095 C 99.0366 -2.38682 2.4045 0
M  V30 1096 C 97.5956 -2.92184 2.37288 0
M  V30 1097 C 96.7426 -1.6576 2.22304 0
M  V30 1098 H 99.6936 -0.531799 1.49525 0
M  V30 1099 H 99.7146 -3.19087 2.07276 0
M  V30 1100 H 99.2266 -1.91392 3.37625 0
M  V30 1101 H 97.3276 -3.43752 1.43754 0
M  V30 1102 H 97.4406 -3.45253 3.3217 0
M  V30 1103 H 95.8046 -1.9012 1.69489 0
M  V30 1104 H 96.5876 -1.20521 3.21449 0
M  V30 1105 N 99.0327 -1.24633 -0.964593 0
M  V30 1106 C 100.279 -1.09957 -1.71117 0
M  V30 1107 C 100.634 0.357422 -1.89051 0
M  V30 1108 O 99.9267 1.26029 -1.44317 0
M  V30 1109 C 100.121 -1.7763 -3.10133 0
M  V30 1110 C 99.9497 -3.29759 -3.05759 0
M  V30 1111 C 98.7197 -3.98981 -3.10068 0
M  V30 1112 C 100.918 -4.26305 -2.87695 0
M  V30 1113 N 98.8997 -5.37966 -2.95747 0
M  V30 1114 C 100.271 -5.52308 -2.81702 0
M  V30 1115 C 102.326 -4.16842 -2.72299 0
M  V30 1116 C 101.029 -6.69931 -2.61887 0
M  V30 1117 C 103.055 -5.34147 -2.53853 0
M  V30 1118 C 102.417 -6.59084 -2.48572 0
M  V30 1119 H 98.5157 -0.457003 -0.634564 0
M  V30 1120 H 101.1 -1.57592 -1.14337 0
M  V30 1121 H 99.2707 -1.32504 -3.65099 0
M  V30 1122 H 101.003 -1.55786 -3.73514 0
M  V30 1123 H 97.7577 -3.50169 -3.18871 0
M  V30 1124 H 98.1817 -6.10877 -2.91818 0
M  V30 1125 H 102.824 -3.21007 -2.75163 0
M  V30 1126 H 100.542 -7.65886 -2.57767 0
M  V30 1127 H 104.128 -5.28678 -2.4288 0
M  V30 1128 H 103.008 -7.48324 -2.34481 0
M  V30 1129 N 100.511 1.16574 -1.06058 0
M  V30 1130 C 101.444 2.19798 -0.61352 0
M  V30 1131 C 102.422 1.58509 0.362453 0
M  V30 1132 O 103.606 1.86527 0.271994 0
M  V30 1133 C 100.733 3.3855 0.100915 0
M  V30 1134 C 99.7788 4.18317 -0.831438 0
M  V30 1135 S 100.612 4.82375 -2.32539 0
M  V30 1136 C 101.768 6.04508 -1.62238 0
M  V30 1137 H 102.001 2.5738 -1.48805 0
M  V30 1138 H 99.5338 1.27327 -0.873338 0
M  V30 1139 H 101.492 4.07358 0.506898 0
M  V30 1140 H 100.153 2.99338 0.951604 0
M  V30 1141 H 99.3458 5.03232 -0.278071 0
M  V30 1142 H 98.9478 3.5499 -1.17719 0
M  V30 1143 H 101.24 6.71133 -0.926622 0
M  V30 1144 H 102.183 6.64389 -2.44934 0
M  V30 1145 H 102.591 5.53559 -1.106 0
M  V30 1146 N 101.989 0.842826 1.3317 0
M  V30 1147 C 103.237 0.439577 1.97262 0
M  V30 1148 C 103.558 -1.00548 1.67078 0
M  V30 1149 O 102.828 -1.70098 0.971779 0
M  V30 1150 H 101.408 0.159558 0.72976 0
M  V30 1151 H 104.07 1.07665 1.62463 0
M  V30 1152 H 103.166 0.574886 3.0676 0
M  V30 1153 N 103.467 -1.45747 0.599634 0
M  V30 1154 C 104.397 -2.33235 -0.111306 0
M  V30 1155 C 105.378 -1.46359 -0.866781 0
M  V30 1156 O 106.563 -1.75146 -0.838904 0
M  V30 1157 C 103.693 -3.28932 -1.11451 0
M  V30 1158 C 102.647 -4.25381 -0.472772 0
M  V30 1159 C 101.973 -5.1071 -1.58365 0
M  V30 1160 C 103.273 -5.18831 0.600948 0
M  V30 1161 H 104.967 -2.92927 0.61919 0
M  V30 1162 H 102.513 -1.40857 0.299215 0
M  V30 1163 H 104.466 -3.89002 -1.62036 0
M  V30 1164 H 103.19 -2.67381 -1.8755 0
M  V30 1165 H 101.849 -3.66598 0.0121472 0
M  V30 1166 H 101.497 -4.45533 -2.33473 0
M  V30 1167 H 101.197 -5.7604 -1.15982 0
M  V30 1168 H 102.721 -5.73647 -2.09194 0
M  V30 1169 H 104.135 -5.73019 0.179491 0
M  V30 1170 H 102.532 -5.92595 0.946076 0
M  V30 1171 H 103.602 -4.6174 1.48068 0
M  V30 1172 N 104.945 -0.338344 -1.53925 0
M  V30 1173 C 105.875 0.51328 -2.27789 0
M  V30 1174 C 106.856 1.107 -1.29149 0
M  V30 1175 O 108.041 1.12937 -1.57984 0
M  V30 1176 C 105.171 1.66697 -3.04679 0
M  V30 1177 C 104.125 1.20183 -4.1078 0
M  V30 1178 C 103.451 2.44363 -4.75595 0
M  V30 1179 C 104.751 0.30605 -5.21403 0
M  V30 1180 H 106.445 -0.102883 -2.99223 0
M  V30 1181 H 103.991 -0.0509219 -1.4391 0
M  V30 1182 H 105.944 2.26915 -3.55088 0
M  V30 1183 H 104.668 2.30995 -2.30887 0
M  V30 1184 H 103.327 0.622499 -3.61276 0
M  V30 1185 H 102.975 3.07057 -3.98403 0
M  V30 1186 H 102.675 2.13925 -5.47275 0
M  V30 1187 H 104.199 3.05317 -5.28786 0
M  V30 1188 H 105.613 0.814929 -5.67478 0
M  V30 1189 H 104.01 0.0937929 -6.00027 0
M  V30 1190 H 105.08 -0.65921 -4.80398 0
M  V30 1191 N 106.423 1.57458 -0.0668435 0
M  V30 1192 C 107.671 1.92919 0.602214 0
M  V30 1193 C 107.992 0.947215 1.70449 0
M  V30 1194 O 107.262 -0.00544117 1.95899 0
M  V30 1195 H 105.842 0.71217 0.22544 0
M  V30 1196 H 108.504 1.94508 -0.123535 0
M  V30 1197 H 107.6 2.94589 1.03073 0
M  V30 1198 N 107.901 -0.206675 1.56239 0
M  V30 1199 C 109.312 -0.772383 1.69974 0
M  V30 1200 C 109.663 -1.84353 0.671436 0
M  V30 1201 O 108.788 -2.15695 -0.174491 0
M  V30 1202 C 109.383 -1.40779 3.08167 0
M  V30 1203 C 107.942 -1.92072 3.23706 0
M  V30 1204 C 107.089 -0.786347 2.65917 0
M  V30 1205 H 110.04 0.0182223 1.5869 0
M  V30 1206 H 110.061 -2.27696 3.04852 0
M  V30 1207 H 109.573 -0.627958 3.82986 0
M  V30 1208 H 107.674 -2.7281 2.53782 0
M  V30 1209 H 107.787 -2.09046 4.31087 0
M  V30 1210 H 106.151 -1.1976 2.24788 0
M  V30 1211 H 106.934 -0.0189416 3.43295 0
M  V30 1212 N 109.379 -1.50304 -0.473955 0
M  V30 1213 C 110.607 -1.64902 -1.24959 0
M  V30 1214 C 111.022 -0.331198 -1.85872 0
M  V30 1215 O 110.379 0.68652 -1.69095 0
M  V30 1216 C 110.43 -2.73803 -2.36038 0
M  V30 1217 O 110.151 -4.00477 -1.77624 0
M  V30 1218 C 111.652 -2.99349 -3.26964 0
M  V30 1219 H 108.872 -0.554383 -0.378022 0
M  V30 1220 H 111.416 -1.9651 -0.566054 0
M  V30 1221 H 109.571 -2.44898 -3.00173 0
M  V30 1222 H 109.985 -4.60678 -2.5075 0
M  V30 1223 H 111.459 -3.79217 -4.01121 0
M  V30 1224 H 111.936 -2.10307 -3.85574 0
M  V30 1225 H 112.542 -3.29774 -2.68569 0
M  V30 1226 N 110.857 0.726932 -1.39834 0
M  V30 1227 C 112.106 1.48214 -1.36805 0
M  V30 1228 C 112.419 1.95576 0.0305291 0
M  V30 1229 O 113.625 2.7088 0.183417 0
M  V30 1230 C 112.081 2.67854 -2.40379 0
M  V30 1231 C 111.689 2.27408 -3.85992 0
M  V30 1232 C 113.433 3.45641 -2.46439 0
M  V30 1233 C 111.34 3.43819 -4.81189 0
M  V30 1234 H 110.27 0.556606 -0.508631 0
M  V30 1235 H 112.921 0.792216 -1.65518 0
M  V30 1236 H 111.303 3.3896 -2.04749 0
M  V30 1237 H 112.477 1.63795 -4.30706 0
M  V30 1238 H 110.792 1.62692 -3.83302 0
M  V30 1239 H 113.389 4.32244 -3.14753 0
M  V30 1240 H 113.732 3.88669 -1.49139 0
M  V30 1241 H 114.265 2.8157 -2.81004 0
M  V30 1242 H 111.004 3.05834 -5.79781 0
M  V30 1243 H 110.524 4.06385 -4.41148 0
M  V30 1244 H 112.203 4.10043 -5.00474 0
M  V30 1245 N 112.336 1.25143 0.95797 0
M  V30 1246 C 113.268 1.01023 2.05735 0
M  V30 1247 C 114.281 -0.0236902 1.62783 0
M  V30 1248 O 115.47 0.21448 1.77207 0
M  V30 1249 C 112.57 0.504595 3.35122 0
M  V30 1250 C 111.743 1.6039 4.06932 0
M  V30 1251 C 110.802 1.09922 5.14591 0
M  V30 1252 O 109.828 1.79293 5.40225 0
M  V30 1253 N 111.03 -0.0612545 5.80468 0
M  V30 1254 H 113.795 1.95683 2.26998 0
M  V30 1255 H 111.356 1.16303 1.12629 0
M  V30 1256 H 113.348 0.151516 4.04416 0
M  V30 1257 H 111.918 -0.347989 3.10657 0
M  V30 1258 H 111.138 2.12872 3.31782 0
M  V30 1259 H 112.426 2.34252 4.51667 0
M  V30 1260 H 111.824 -0.640985 5.62057 0
M  V30 1261 H 110.381 -0.355395 6.5083 0
M  V30 1262 N 113.814 -1.1601 1.06675 0
M  V30 1263 C 114.777 -2.18724 0.685001 0
M  V30 1264 C 115.777 -1.58496 -0.271246 0
M  V30 1265 O 116.967 -1.74119 -0.0531156 0
M  V30 1266 C 114.099 -3.40899 0.00853648 0
M  V30 1267 H 115.292 -2.54011 1.59431 0
M  V30 1268 H 112.845 -1.30352 0.862441 0
M  V30 1269 H 113.58 -3.11173 -0.913337 0
M  V30 1270 H 113.365 -3.8587 0.696204 0
M  V30 1271 H 114.855 -4.16886 -0.24414 0
M  V30 1272 N 115.292 -0.849877 -1.32721 0
M  V30 1273 C 116.202 -0.293791 -2.32753 0
M  V30 1274 C 117.218 0.585906 -1.63839 0
M  V30 1275 O 118.394 0.487413 -1.95413 0
M  V30 1276 C 115.459 0.512752 -3.42887 0
M  V30 1277 C 114.52 -0.39252 -4.27502 0
M  V30 1278 C 113.753 0.375625 -5.32377 0
M  V30 1279 O 113.976 1.60613 -5.4732 0
M  V30 1280 O 112.91 -0.256094 -6.01355 0
M  V30 1281 H 116.736 -1.12242 -2.82197 0
M  V30 1282 H 114.321 -0.612685 -1.36259 0
M  V30 1283 H 116.203 0.970704 -4.10067 0
M  V30 1284 H 114.878 1.31826 -2.95641 0
M  V30 1285 H 113.785 -0.898547 -3.63149 0
M  V30 1286 H 115.118 -1.16309 -4.7826 0
M  V30 1287 N 116.77 1.45427 -0.607355 0
M  V30 1288 C 118.016 2.0254 -0.102607 0
M  V30 1289 C 118.349 1.47478 1.26348 0
M  V30 1290 O 117.624 0.64939 1.83339 0
M  V30 1291 C 117.907 3.60044 -0.0634347 0
M  V30 1292 C 117.76 4.2544 -1.46017 0
M  V30 1293 C 119.079 4.35646 0.624514 0
M  V30 1294 H 116.198 0.73598 -0.0387607 0
M  V30 1295 H 118.84 1.73284 -0.779282 0
M  V30 1296 H 116.99 3.85101 0.512808 0
M  V30 1297 H 118.662 4.11569 -2.08347 0
M  V30 1298 H 116.905 3.83849 -2.02094 0
M  V30 1299 H 117.576 5.34342 -1.385 0
M  V30 1300 H 120.052 4.15882 0.134723 0
M  V30 1301 H 118.928 5.45376 0.621028 0
M  V30 1302 H 119.189 4.08501 1.69055 0
M  V30 1303 N 118.248 0.346503 1.53744 0
M  V30 1304 C 119.478 -0.250047 2.05081 0
M  V30 1305 C 119.886 -1.44529 1.22098 0
M  V30 1306 O 119.229 -1.81992 0.249917 0
M  V30 1307 C 119.291 -0.725934 3.52094 0
M  V30 1308 C 118.955 0.350053 4.55657 0
M  V30 1309 C 119.952 1.19372 5.0601 0
M  V30 1310 C 117.637 0.504827 4.99757 0
M  V30 1311 C 119.631 2.17768 5.99046 0
M  V30 1312 C 117.318 1.49218 5.92602 0
M  V30 1313 C 118.316 2.32706 6.42135 0
M  V30 1314 O 118.004 3.2976 7.33153 0
M  V30 1315 H 117.736 -0.0515469 0.674032 0
M  V30 1316 H 120.29 0.497559 1.99282 0
M  V30 1317 H 118.52 -1.52483 3.55367 0
M  V30 1318 H 120.209 -1.24336 3.86388 0
M  V30 1319 H 120.975 1.08525 4.72702 0
M  V30 1320 H 116.854 -0.135178 4.60802 0
M  V30 1321 H 120.398 2.82971 6.37631 0
M  V30 1322 H 116.295 1.6012 6.25325 0
M  V30 1323 H 117.063 3.25265 7.51096 0
M  V30 1324 N 119.726 -1.57421 0.075193 0
M  V30 1325 C 121.003 -1.85029 -0.634329 0
M  V30 1326 C 121.383 -0.968305 -1.87582 0
M  V30 1327 O 120.731 -0.0354749 -2.28472 0
M  V30 1328 C 120.941 -3.35286 -0.968742 0
M  V30 1329 C 122.289 -4.02875 -1.34077 0
M  V30 1330 O 123.313 -3.40051 -1.06037 0
M  V30 1331 O 122.172 -5.13691 -1.86506 0
M  V30 1332 H 119.266 -0.7645 -0.315387 0
M  V30 1333 H 121.812 -1.69366 0.106382 0
M  V30 1334 H 120.584 -3.91203 -0.0871376 0
M  V30 1335 H 120.207 -3.56223 -1.7661 0
M  V30 1336 N 121.204 0.198386 -1.56346 0
M  V30 1337 C 122.432 0.935572 -1.84539 0
M  V30 1338 C 122.847 1.76989 -0.657281 0
M  V30 1339 O 122.204 1.78626 0.374043 0
M  V30 1340 C 122.255 1.8344 -3.11499 0
M  V30 1341 O 121.976 1.03377 -4.25728 0
M  V30 1342 C 123.477 2.68355 -3.52846 0
M  V30 1343 H 120.697 0.273126 -0.612897 0
M  V30 1344 H 123.241 0.20663 -2.03453 0
M  V30 1345 H 121.396 2.51701 -2.94492 0
M  V30 1346 H 121.81 1.64599 -4.98003 0
M  V30 1347 H 123.284 3.27085 -4.44657 0
M  V30 1348 H 123.761 3.41901 -2.75681 0
M  V30 1349 H 124.367 2.05471 -3.72373 0
M  V30 1350 N 122.682 1.50554 0.465978 0
M  V30 1351 C 123.928 1.62038 1.21949 0
M  V30 1352 C 124.261 0.322116 1.9151 0
M  V30 1353 O 123.536 -0.676723 1.82348 0
M  V30 1354 C 123.819 2.80421 2.25912 0
M  V30 1355 C 123.672 4.20144 1.60622 0
M  V30 1356 C 124.991 2.94354 3.27176 0
M  V30 1357 H 122.11 0.589752 0.441998 0
M  V30 1358 H 124.752 1.82956 0.51257 0
M  V30 1359 H 122.902 2.62717 2.86203 0
M  V30 1360 H 124.574 4.49449 1.03889 0
M  V30 1361 H 122.817 4.24165 0.909211 0
M  V30 1362 H 123.488 4.98914 2.36196 0
M  V30 1363 H 125.964 3.10578 2.76913 0
M  V30 1364 H 124.84 3.788 3.97242 0
M  V30 1365 H 125.101 2.05186 3.916 0
M  V30 1366 N 124.16 -0.719506 1.40217 0
M  V30 1367 C 125.406 -1.48152 1.38488 0
M  V30 1368 C 125.739 -1.94195 -0.0141867 0
M  V30 1369 O 125.014 -1.67884 -0.982096 0
M  V30 1370 C 125.297 -2.71035 2.37091 0
M  V30 1371 C 125.15 -2.30912 3.86005 0
M  V30 1372 C 126.469 -3.73182 2.33288 0
M  V30 1373 H 123.588 -0.537395 0.504357 0
M  V30 1374 H 126.23 -0.821472 1.71324 0
M  V30 1375 H 124.38 -3.27352 2.0922 0
M  V30 1376 H 126.052 -1.80107 4.24687 0
M  V30 1377 H 124.295 -1.62958 4.02029 0
M  V30 1378 H 124.966 -3.18978 4.50508 0
M  V30 1379 H 127.442 -3.26485 2.57966 0
M  V30 1380 H 126.318 -4.56806 3.04334 0
M  V30 1381 H 126.579 -4.21202 1.34317 0
M  V30 1382 N 125.638 -1.25649 -0.95132 0
M  V30 1383 C 126.887 -1.09988 -1.69073 0
M  V30 1384 C 127.2 0.358355 -1.92289 0
M  V30 1385 O 128.406 0.635466 -2.63958 0
M  V30 1386 C 126.862 -1.92012 -3.044 0
M  V30 1387 C 126.47 -3.42347 -2.88968 0
M  V30 1388 C 128.214 -1.8493 -3.82101 0
M  V30 1389 C 126.121 -4.16655 -4.19705 0
M  V30 1390 H 125.051 -0.407993 -0.63408 0
M  V30 1391 H 127.702 -1.49873 -1.05879 0
M  V30 1392 H 126.084 -1.44952 -3.68517 0
M  V30 1393 H 127.258 -3.97104 -2.33762 0
M  V30 1394 H 125.573 -3.50557 -2.24719 0
M  V30 1395 H 128.17 -2.37739 -4.78941 0
M  V30 1396 H 128.513 -0.817883 -4.08187 0
M  V30 1397 H 129.046 -2.29758 -3.2474 0
M  V30 1398 H 125.785 -5.20224 -3.98807 0
M  V30 1399 H 125.305 -3.66681 -4.74663 0
M  V30 1400 H 126.984 -4.24551 -4.88227 0
M  V30 1401 N 127.117 1.15442 -1.07289 0
M  V30 1402 C 128.345 1.90096 -0.81676 0
M  V30 1403 C 128.76 1.7798 0.629966 0
M  V30 1404 O 128.117 1.1313 1.43206 0
M  V30 1405 C 128.168 3.40466 -1.21512 0
M  V30 1406 O 127.889 3.52232 -2.60508 0
M  V30 1407 C 129.39 4.32145 -0.988198 0
M  V30 1408 H 126.61 0.602495 -0.295366 0
M  V30 1409 H 129.154 1.4627 -1.42918 0
M  V30 1410 H 127.309 3.81958 -0.647039 0
M  V30 1411 H 127.723 4.45549 -2.76742 0
M  V30 1412 H 129.197 5.36072 -1.31645 0
M  V30 1413 H 129.674 4.39135 0.0755063 0
M  V30 1414 H 130.28 3.96395 -1.54115 0
M  V30 1415 N 128.595 0.856903 1.32268 0
M  V30 1416 C 129.525 0.31858 2.31316 0
M  V30 1417 C 130.506 -0.583487 1.59779 0
M  V30 1418 O 131.691 -0.503259 1.87566 0
M  V30 1419 C 128.821 -0.491979 3.43798 0
M  V30 1420 C 127.775 0.315849 4.26833 0
M  V30 1421 C 127.101 -0.619586 5.31098 0
M  V30 1422 C 128.401 1.54282 4.98993 0
M  V30 1423 H 130.095 1.14621 2.76591 0
M  V30 1424 H 127.641 0.552613 1.32974 0
M  V30 1425 H 129.594 -0.879012 4.1213 0
M  V30 1426 H 128.318 -1.35299 2.97257 0
M  V30 1427 H 126.977 0.684664 3.6015 0
M  V30 1428 H 126.625 -1.47751 4.8081 0
M  V30 1429 H 126.325 -0.0830621 5.87541 0
M  V30 1430 H 127.849 -1.00375 6.02293 0
M  V30 1431 H 129.263 1.22796 5.59995 0
M  V30 1432 H 127.66 2.01745 5.65172 0
M  V30 1433 H 128.73 2.30285 4.26728 0
M  V30 1434 N 130.073 -1.45103 0.615059 0
M  V30 1435 C 131.02 -2.30586 -0.0993978 0
M  V30 1436 C 131.99 -1.42544 -0.852669 0
M  V30 1437 O 133.175 -1.71465 -0.836917 0
M  V30 1438 C 130.315 -3.27572 -1.08583 0
M  V30 1439 C 129.428 -4.30717 -0.332656 0
M  V30 1440 C 128.563 -5.14807 -1.30947 0
M  V30 1441 C 127.602 -6.09673 -0.544538 0
M  V30 1442 N 126.739 -6.86517 -1.47101 0
M  V30 1443 H 131.579 -2.91144 0.635542 0
M  V30 1444 H 129.116 -1.4346 0.325206 0
M  V30 1445 H 131.074 -3.82276 -1.67095 0
M  V30 1446 H 129.704 -2.68751 -1.78809 0
M  V30 1447 H 128.756 -3.78615 0.368107 0
M  V30 1448 H 130.068 -4.98102 0.263842 0
M  V30 1449 H 129.222 -5.73948 -1.96643 0
M  V30 1450 H 127.961 -4.47458 -1.9399 0
M  V30 1451 H 126.966 -5.49656 0.126003 0
M  V30 1452 H 128.191 -6.79052 0.080947 0
M  V30 1453 H 126.137 -6.21851 -2.08895 0
M  V30 1454 H 126.054 -7.50281 -0.928137 0
M  V30 1455 H 127.322 -7.50194 -2.11731 0
M  V30 1456 N 131.551 -0.354651 -1.53558 0
M  V30 1457 C 132.499 0.512195 -2.26891 0
M  V30 1458 C 133.493 1.09263 -1.29452 0
M  V30 1459 O 134.699 1.03709 -1.47121 0
M  V30 1460 H 131.074 0.183878 -0.729173 0
M  V30 1461 H 133.045 -0.128202 -2.98124 0
M  V30 1462 C 131.794 1.64563 -3.06291 0
M  V30 1463 H 131.117 1.20829 -3.81104 0
M  V30 1464 H 132.557 2.22711 -3.60799 0
M  V30 1465 C 131.016 2.58158 -2.16462 0
M  V30 1466 O 131.546 3.60695 -1.76811 0
M  V30 1467 N 129.752 2.27096 -1.81317 0
M  V30 1468 H 129.299 1.43751 -2.1376 0
M  V30 1469 H 129.257 2.89975 -1.21498 0
M  V30 1470 N 133.029 1.57378 -0.0835403 0
M  V30 1471 C 133.962 2.09016 0.915833 0
M  V30 1472 C 134.94 0.997993 1.2837 0
M  V30 1473 O 136.124 1.27219 1.39096 0
M  V30 1474 C 133.251 2.55757 2.22049 0
M  V30 1475 C 132.297 3.76522 2.00333 0
M  V30 1476 S 133.13 5.20661 1.25191 0
M  V30 1477 C 134.286 5.70743 2.56912 0
M  V30 1478 H 134.519 2.93457 0.476492 0
M  V30 1479 H 132.052 1.53856 0.129493 0
M  V30 1480 H 134.01 2.83346 2.97027 0
M  V30 1481 H 132.671 1.71564 2.63106 0
M  V30 1482 H 131.864 4.07256 2.96916 0
M  V30 1483 H 131.466 3.49367 1.33488 0
M  V30 1484 H 133.758 5.78304 3.52946 0
M  V30 1485 H 134.701 6.6944 2.30772 0
M  V30 1486 H 135.109 4.98616 2.64655 0
M  V30 1487 N 134.507 -0.190092 1.56449 0
M  V30 1488 C 135.47 -1.21925 1.9408 0
M  V30 1489 C 136.47 -1.38176 0.822431 0
M  V30 1490 O 137.66 -1.35903 1.08977 0
M  V30 1491 C 134.792 -2.58773 2.21922 0
M  V30 1492 H 135.985 -0.897464 2.86157 0
M  V30 1493 H 133.538 -0.43181 1.50217 0
M  V30 1494 H 134.273 -2.95998 1.32499 0
M  V30 1495 H 134.058 -2.48348 3.03424 0
M  V30 1496 H 135.548 -3.32978 2.52022 0
M  V30 1497 N 135.985 -1.50799 -0.457987 0
M  V30 1498 C 137.21 -1.66496 -1.23668 0
M  V30 1499 C 137.635 -0.353288 -1.84752 0
M  V30 1500 O 136.993 0.684346 -1.67888 0
M  V30 1501 C 137.041 -2.76763 -2.3116 0
M  V30 1502 O 136.145 -2.38928 -3.36136 0
M  V30 1503 H 135.486 -0.555828 -0.363252 0
M  V30 1504 H 138.016 -1.9725 -0.543474 0
M  V30 1505 H 138.026 -3.00232 -2.76269 0
M  V30 1506 H 136.701 -3.71954 -1.86073 0
M  V30 1507 H 135.278 -2.25953 -2.96647 0
M  V30 1508 N 137.463 0.71206 -1.40597 0
M  V30 1509 C 138.413 1.81783 -1.37619 0
M  V30 1510 C 139.397 1.58896 -0.253162 0
M  V30 1511 O 140.589 1.70009 -0.492547 0
M  V30 1512 C 137.718 3.19944 -1.24462 0
M  V30 1513 C 136.804 3.48582 -2.4156 0
M  V30 1514 N 137.195 3.48016 -3.67041 0
M  V30 1515 C 135.493 3.79056 -2.35016 0
M  V30 1516 C 136.194 3.75096 -4.44609 0
M  V30 1517 N 135.17 3.94022 -3.74497 0
M  V30 1518 H 138.972 1.79683 -2.32575 0
M  V30 1519 H 136.486 0.91134 -1.34419 0
M  V30 1520 H 138.483 3.99133 -1.20411 0
M  V30 1521 H 137.143 3.23267 -0.304762 0
M  V30 1522 H 138.154 3.28782 -4.00153 0
M  V30 1523 H 134.831 3.89848 -1.49415 0
M  V30 1524 H 136.221 3.80934 -5.53479 0
M  V30 1525 N 138.941 1.26152 0.944643 0
M  V30 1526 C 140.352 1.10454 1.50522 0
M  V30 1527 C 140.703 -0.31635 1.93633 0
M  V30 1528 O 139.828 -1.20746 1.79581 0
M  V30 1529 C 140.423 1.99891 2.73549 0
M  V30 1530 C 138.982 1.88348 3.25886 0
M  V30 1531 C 138.129 1.93447 1.9868 0
M  V30 1532 H 141.08 1.39292 0.760489 0
M  V30 1533 H 141.101 1.54477 3.47732 0
M  V30 1534 H 140.613 3.03297 2.42141 0
M  V30 1535 H 138.714 0.878636 3.62092 0
M  V30 1536 H 138.827 2.73696 3.93227 0
M  V30 1537 H 137.191 1.37456 2.14425 0
M  V30 1538 H 137.974 2.98476 1.69607 0
M  V30 1539 N 140.419 -1.14872 1.07899 0
M  V30 1540 C 141.665 -1.86064 0.806725 0
M  V30 1541 C 141.998 -1.82434 -0.665706 0
M  V30 1542 O 141.273 -1.25138 -1.48899 0
M  V30 1543 C 141.556 -3.34929 1.32267 0
M  V30 1544 C 141.409 -3.47161 2.86006 0
M  V30 1545 C 142.728 -4.29863 0.943717 0
M  V30 1546 H 139.847 -0.675591 0.294526 0
M  V30 1547 H 142.489 -1.34925 1.33773 0
M  V30 1548 H 140.639 -3.78611 0.870974 0
M  V30 1549 H 142.311 -3.12302 3.39507 0
M  V30 1550 H 140.554 -2.88539 3.23925 0
M  V30 1551 H 141.225 -4.51777 3.17177 0
M  V30 1552 H 143.701 -3.9417 1.33302 0
M  V30 1553 H 142.577 -5.32494 1.33198 0
M  V30 1554 H 142.838 -4.41846 -0.149796 0
M  V30 1555 N 141.898 -0.863906 -1.31812 0
M  V30 1556 C 143.123 -0.48527 -2.01643 0
M  V30 1557 C 143.548 0.913058 -1.64453 0
M  V30 1558 O 142.906 1.6014 -0.849985 0
M  V30 1559 C 142.954 -0.642625 -3.54828 0
M  V30 1560 O 142.058 0.320659 -4.11151 0
M  V30 1561 H 141.399 -0.193793 -0.635091 0
M  V30 1562 H 143.929 -1.16565 -1.68148 0
M  V30 1563 H 143.939 -0.533628 -4.04495 0
M  V30 1564 H 142.614 -1.66227 -3.81237 0
M  V30 1565 H 141.191 0.167126 -3.72525 0
M  V30 1566 N 143.376 1.44774 -0.622745 0
M  V30 1567 C 144.306 2.33382 0.0741861 0
M  V30 1568 C 145.287 1.47719 0.843387 0
M  V30 1569 O 146.472 1.76458 0.810934 0
M  V30 1570 C 143.602 3.30663 1.06204 0
M  V30 1571 C 142.556 4.26079 0.405037 0
M  V30 1572 C 141.882 5.13165 1.5022 0
M  V30 1573 C 143.182 5.1781 -0.683414 0
M  V30 1574 H 144.876 2.91905 -0.665713 0
M  V30 1575 H 142.422 1.40363 -0.321587 0
M  V30 1576 H 144.375 3.9153 1.55827 0
M  V30 1577 H 143.099 2.70331 1.83272 0
M  V30 1578 H 141.758 3.66532 -0.0704683 0
M  V30 1579 H 141.406 4.49191 2.26355 0
M  V30 1580 H 141.106 5.77812 1.06803 0
M  V30 1581 H 142.63 5.76902 2.00041 0
M  V30 1582 H 144.044 5.72661 -0.270631 0
M  V30 1583 H 142.441 5.91015 -1.04023 0
M  V30 1584 H 143.511 4.59326 -1.55395 0
M  V30 1585 N 144.854 0.36279 1.53368 0
M  V30 1586 C 145.804 -0.501391 2.22419 0
M  V30 1587 C 146.788 -1.0509 1.2184 0
M  V30 1588 O 147.98 -0.981404 1.47301 0
M  V30 1589 C 145.109 -1.64201 3.01484 0
M  V30 1590 C 144.195 -1.10552 4.09438 0
M  V30 1591 N 144.586 -0.291788 5.04958 0
M  V30 1592 C 142.884 -1.3806 4.24094 0
M  V30 1593 C 143.585 0.00162655 5.817 0
M  V30 1594 N 142.561 -0.595244 5.40331 0
M  V30 1595 H 146.363 0.127159 2.93625 0
M  V30 1596 H 143.877 0.170658 1.61501 0
M  V30 1597 H 145.874 -2.27326 3.49469 0
M  V30 1598 H 144.534 -2.27365 2.31809 0
M  V30 1599 H 145.545 0.0687731 5.17854 0
M  V30 1600 H 142.222 -2.01522 3.65644 0
M  V30 1601 H 143.612 0.659278 6.68658 0
M  V30 1602 N 146.332 -1.57332 0.0918853 0
M  V30 1603 C 147.295 -2.12708 -0.85369 0
M  V30 1604 C 148.295 -1.05561 -1.213 0
M  V30 1605 O 149.485 -1.31461 -1.14296 0
M  V30 1606 C 146.617 -2.64503 -2.15061 0
M  V30 1607 H 147.81 -2.97573 -0.3729 0
M  V30 1608 H 145.363 -1.55509 -0.157072 0
M  V30 1609 H 146.098 -1.83149 -2.67632 0
M  V30 1610 H 145.883 -3.4284 -1.90272 0
M  V30 1611 H 147.373 -3.07351 -2.82711 0
M  V30 1612 N 147.81 0.181792 -1.56548 0
M  V30 1613 C 149.056 0.901431 -1.81665 0
M  V30 1614 C 149.389 1.82347 -0.668075 0
M  V30 1615 O 148.664 1.91669 0.330615 0
M  V30 1616 C 148.947 1.70618 -3.17115 0
M  V30 1617 C 148.8 0.807964 -4.42484 0
M  V30 1618 C 150.119 2.67605 -3.49393 0
M  V30 1619 H 147.238 0.32627 -0.660846 0
M  V30 1620 H 149.88 0.168134 -1.89255 0
M  V30 1621 H 148.03 2.33133 -3.10775 0
M  V30 1622 H 149.702 0.19649 -4.60881 0
M  V30 1623 H 147.945 0.115411 -4.33646 0
M  V30 1624 H 148.616 1.40632 -5.33785 0
M  V30 1625 H 151.092 2.15218 -3.56118 0
M  V30 1626 H 149.968 3.20985 -4.45264 0
M  V30 1627 H 150.229 3.47298 -2.73563 0
M  V30 1628 N 149.288 1.51039 0.449983 0
M  V30 1629 C 150.536 1.62759 1.19808 0
M  V30 1630 C 150.857 0.339981 1.92013 0
M  V30 1631 O 150.127 -0.643606 1.85026 0
M  V30 1632 H 148.707 0.599811 0.445237 0
M  V30 1633 H 151.369 1.87914 0.517138 0
M  V30 1634 H 150.465 2.44911 1.93455 0
M  V30 1635 N 150.766 -0.704594 1.40972 0
M  V30 1636 C 152.012 -1.46675 1.40051 0
M  V30 1637 C 152.345 -1.94199 0.00641102 0
M  V30 1638 O 151.62 -1.68916 -0.964235 0
M  V30 1639 C 151.903 -2.68505 2.39952 0
M  V30 1640 C 151.756 -2.26805 3.88432 0
M  V30 1641 C 153.075 -3.70686 2.37233 0
M  V30 1642 H 150.194 -0.532015 0.510028 0
M  V30 1643 H 152.836 -0.803255 1.72185 0
M  V30 1644 H 150.986 -3.25114 2.1268 0
M  V30 1645 H 152.658 -1.75592 4.26574 0
M  V30 1646 H 150.901 -1.58685 4.03734 0
M  V30 1647 H 151.572 -3.14181 4.53866 0
M  V30 1648 H 154.048 -3.23731 2.61415 0
M  V30 1649 H 152.924 -4.53553 3.09162 0
M  V30 1650 H 153.185 -4.19754 1.38777 0
M  V30 1651 N 152.244 -1.26651 -0.937939 0
M  V30 1652 C 153.469 -1.15279 -1.72411 0
M  V30 1653 C 153.894 0.287866 -1.85884 0
M  V30 1654 O 153.252 1.20855 -1.35143 0
M  V30 1655 C 153.3 -1.83028 -3.10698 0
M  V30 1656 O 152.404 -1.12128 -3.96864 0
M  V30 1657 H 151.745 -0.401504 -0.528858 0
M  V30 1658 H 154.275 -1.67531 -1.1745 0
M  V30 1659 H 154.285 -1.89981 -3.6107 0
M  V30 1660 H 152.96 -2.87833 -3.00208 0
M  V30 1661 H 151.537 -1.13173 -3.55312 0
M  V30 1662 N 153.722 1.14298 -1.08507 0
M  V30 1663 C 154.952 1.88945 -0.835663 0
M  V30 1664 C 155.36 1.78894 0.615928 0
M  V30 1665 O 154.703 1.1468 1.43506 0
M  V30 1666 C 154.765 3.39585 -1.17994 0
M  V30 1667 C 154.429 3.7342 -2.63451 0
M  V30 1668 C 155.426 3.73454 -3.61702 0
M  V30 1669 C 153.111 4.03368 -2.99332 0
M  V30 1670 C 155.105 4.02961 -4.93864 0
M  V30 1671 C 152.792 4.32538 -4.31687 0
M  V30 1672 C 153.79 4.32318 -5.28763 0
M  V30 1673 O 153.478 4.6078 -6.58739 0
M  V30 1674 H 153.21 0.605307 -0.300965 0
M  V30 1675 H 155.764 1.45673 -1.44806 0
M  V30 1676 H 153.994 3.83315 -0.51055 0
M  V30 1677 H 155.683 3.9554 -0.911182 0
M  V30 1678 H 156.449 3.50403 -3.35325 0
M  V30 1679 H 152.328 4.02692 -2.24411 0
M  V30 1680 H 155.872 4.02704 -5.69627 0
M  V30 1681 H 151.769 4.55059 -4.57812 0
M  V30 1682 H 152.537 4.78492 -6.64069 0
M  V30 1683 N 155.201 0.870884 1.31352 0
M  V30 1684 C 156.447 0.492314 1.97352 0
M  V30 1685 C 156.802 -0.945174 1.67583 0
M  V30 1686 O 156.095 -1.65674 0.962423 0
M  V30 1687 C 156.289 0.687157 3.50732 0
M  V30 1688 C 156.118 2.14203 3.95407 0
M  V30 1689 C 154.888 2.78382 4.21701 0
M  V30 1690 C 157.086 3.1144 4.09279 0
M  V30 1691 N 155.068 4.14611 4.52737 0
M  V30 1692 C 156.439 4.32702 4.44037 0
M  V30 1693 C 158.494 3.07418 3.91661 0
M  V30 1694 C 157.197 5.50463 4.63015 0
M  V30 1695 C 159.223 4.24438 4.11833 0
M  V30 1696 C 158.585 5.44463 4.46923 0
M  V30 1697 H 154.684 0.229206 0.747655 0
M  V30 1698 H 157.268 1.12568 1.5886 0
M  V30 1699 H 155.439 0.083384 3.8831 0
M  V30 1700 H 157.171 0.276883 4.03752 0
M  V30 1701 H 153.926 2.29326 4.14375 0
M  V30 1702 H 154.35 4.84928 4.72413 0
M  V30 1703 H 158.992 2.15732 3.6362 0
M  V30 1704 H 156.71 6.42666 4.89904 0
M  V30 1705 H 160.296 4.2278 3.99685 0
M  V30 1706 H 159.176 6.33504 4.62214 0
M  V30 1707 N 156.679 -1.44442 0.630414 0
M  V30 1708 C 157.626 -2.30678 -0.0749355 0
M  V30 1709 C 158.596 -1.4344 -0.837502 0
M  V30 1710 O 159.781 -1.72343 -0.818684 0
M  V30 1711 C 156.921 -3.28706 -1.05103 0
M  V30 1712 C 156.034 -4.31046 -0.286954 0
M  V30 1713 C 155.169 -5.16167 -1.2548 0
M  V30 1714 C 154.208 -6.10216 -0.479843 0
M  V30 1715 N 153.345 -6.88039 -1.39811 0
M  V30 1716 H 158.185 -2.90454 0.666386 0
M  V30 1717 H 155.722 -1.43107 0.340404 0
M  V30 1718 H 157.68 -3.84027 -1.63031 0
M  V30 1719 H 156.31 -2.70632 -1.75949 0
M  V30 1720 H 155.362 -3.78203 0.408243 0
M  V30 1721 H 156.674 -4.97794 0.316657 0
M  V30 1722 H 155.828 -5.76002 -1.90544 0
M  V30 1723 H 154.567 -4.49491 -1.89233 0
M  V30 1724 H 153.572 -5.49491 0.184295 0
M  V30 1725 H 154.797 -6.78928 0.152965 0
M  V30 1726 H 152.743 -6.24032 -2.02287 0
M  V30 1727 H 152.66 -7.51223 -0.848508 0
M  V30 1728 H 153.928 -7.52397 -2.03762 0
M  V30 1729 N 158.157 -0.370918 -1.53173 0
M  V30 1730 C 159.12 0.460778 -2.24521 0
M  V30 1731 C 160.12 1.00536 -1.25496 0
M  V30 1732 O 161.31 0.890266 -1.49733 0
M  V30 1733 C 158.442 1.64457 -2.98608 0
M  V30 1734 H 159.635 -0.163613 -2.99453 0
M  V30 1735 H 157.188 -0.122699 -1.55818 0
M  V30 1736 H 157.923 2.30691 -2.2793 0
M  V30 1737 H 157.708 1.26099 -3.7127 0
M  V30 1738 H 159.198 2.23384 -3.5283 0
M  V30 1739 N 159.635 1.57281 -0.100228 0
M  V30 1740 C 160.86 1.99302 0.573881 0
M  V30 1741 C 161.285 0.979059 1.60611 0
M  V30 1742 O 160.643 -0.0517803 1.81226 0
M  V30 1743 C 160.691 3.40274 1.19358 0
M  V30 1744 O 159.795 3.41676 2.30935 0
M  V30 1745 H 159.136 0.647944 0.145138 0
M  V30 1746 H 161.666 2.03779 -0.183156 0
M  V30 1747 H 161.676 3.78078 1.53365 0
M  V30 1748 H 160.351 4.13594 0.437385 0
M  V30 1749 H 158.928 3.15672 1.98509 0
M  V30 1750 N 161.113 -0.173488 1.56642 0
M  V30 1751 C 162.023 -1.23482 1.99473 0
M  V30 1752 C 163.039 -1.48567 0.905752 0
M  V30 1753 O 164.215 -1.60758 1.21321 0
M  V30 1754 C 161.28 -2.55444 2.34413 0
M  V30 1755 C 160.341 -2.38241 3.57127 0
M  V30 1756 C 159.574 -3.63909 3.90392 0
M  V30 1757 O 159.797 -4.68996 3.24653 0
M  V30 1758 O 158.731 -3.58149 4.83749 0
M  V30 1759 H 162.557 -0.901279 2.90018 0
M  V30 1760 H 160.142 -0.380185 1.44482 0
M  V30 1761 H 162.024 -3.33292 2.57865 0
M  V30 1762 H 160.699 -2.88382 1.4703 0
M  V30 1763 H 159.606 -1.58431 3.38896 0
M  V30 1764 H 160.939 -2.10228 4.45045 0
M  V30 1765 N 162.591 -1.51276 -0.441967 0
M  V30 1766 C 163.839 -1.63392 -1.18943 0
M  V30 1767 C 164.16 -0.350159 -1.9183 0
M  V30 1768 O 163.43 0.633784 -1.85364 0
M  V30 1769 H 162.01 -0.602164 -0.442049 0
M  V30 1770 H 164.672 -1.88186 -0.507165 0
M  V30 1771 H 163.768 -2.45934 -1.92154 0
M  V30 1772 N 164.069 0.697108 -1.41344 0
M  V30 1773 C 165.032 1.79281 -1.42797 0
M  V30 1774 C 166.032 1.57607 -0.318837 0
M  V30 1775 O 167.222 1.64309 -0.578642 0
M  V30 1776 C 164.354 3.17632 -1.23785 0
M  V30 1777 H 165.547 1.79385 -2.40335 0
M  V30 1778 H 163.1 0.904582 -1.27464 0
M  V30 1779 H 163.835 3.23167 -0.270814 0
M  V30 1780 H 163.62 3.34765 -2.04144 0
M  V30 1781 H 165.11 3.97617 -1.27633 0
M  V30 1782 N 165.547 1.27147 0.931209 0
M  V30 1783 C 166.457 1.11372 2.06478 0
M  V30 1784 C 167.473 0.044645 1.73943 0
M  V30 1785 O 168.649 0.250417 1.99837 0
M  V30 1786 C 165.714 0.758838 3.38294 0
M  V30 1787 C 164.775 1.90841 3.84549 0
M  V30 1788 C 164.008 1.57036 5.10074 0
M  V30 1789 O 164.231 0.476645 5.68405 0
M  V30 1790 O 163.165 2.40839 5.51616 0
M  V30 1791 H 166.991 2.06493 2.22698 0
M  V30 1792 H 164.576 1.06301 1.04978 0
M  V30 1793 H 166.458 0.574098 4.17471 0
M  V30 1794 H 165.133 -0.162879 3.2329 0
M  V30 1795 H 164.04 2.14819 3.06274 0
M  V30 1796 H 165.373 2.81021 4.04089 0
M  V30 1797 N 167.025 -1.13721 1.09112 0
M  V30 1798 C 168.255 -1.88499 0.845671 0
M  V30 1799 C 168.663 -1.79218 -0.606432 0
M  V30 1800 O 168.006 -1.1544 -1.42896 0
M  V30 1801 C 168.068 -3.38954 1.19793 0
M  V30 1802 C 167.732 -3.72018 2.65428 0
M  V30 1803 C 168.729 -3.7153 3.63677 0
M  V30 1804 C 166.414 -4.01775 3.01467 0
M  V30 1805 C 168.408 -4.00336 4.95994 0
M  V30 1806 C 166.095 -4.30243 4.33975 0
M  V30 1807 C 167.093 -4.29508 5.31048 0
M  V30 1808 O 166.781 -4.5728 6.61173 0
M  V30 1809 H 166.513 -0.603702 0.304171 0
M  V30 1810 H 169.067 -1.44903 1.45576 0
M  V30 1811 H 167.297 -3.83039 0.530871 0
M  V30 1812 H 168.986 -3.95052 0.932146 0
M  V30 1813 H 169.752 -3.4862 3.37179 0
M  V30 1814 H 165.631 -4.01496 2.26544 0
M  V30 1815 H 169.175 -3.99678 5.71755 0
M  V30 1816 H 165.072 -4.52625 4.60219 0
M  V30 1817 H 165.84 -4.74964 6.66597 0
M  V30 1818 N 168.503 -0.877838 -1.30888 0
M  V30 1819 C 169.78 -0.413052 -1.91189 0
M  V30 1820 C 170.16 1.1056 -1.79832 0
M  V30 1821 O 169.508 1.93771 -1.21099 0
M  V30 1822 C 169.718 -0.903191 -3.3711 0
M  V30 1823 C 171.066 -0.93395 -4.14201 0
M  V30 1824 O 172.09 -0.849373 -3.45925 0
M  V30 1825 O 170.949 -1.05772 -5.36167 0
M  V30 1826 H 168.043 -0.125035 -0.817493 0
M  V30 1827 H 170.589 -0.966269 -1.39504 0
M  V30 1828 H 169.361 -1.94692 -3.39427 0
M  V30 1829 H 168.984 -0.328732 -3.96239 0
M  V30 1830 N 169.982 1.44106 -0.638065 0
M  V30 1831 C 171.259 1.95453 -0.0759321 0
M  V30 1832 C 171.639 1.57984 1.40015 0
M  V30 1833 O 170.987 0.857361 2.11806 0
M  V30 1834 C 171.197 3.47655 -0.306132 0
M  V30 1835 C 172.545 4.24114 -0.203008 0
M  V30 1836 O 173.569 3.55405 -0.237871 0
M  V30 1837 O 172.428 5.46381 -0.113827 0
M  V30 1838 H 169.522 0.826797 0.0183332 0
M  V30 1839 H 172.068 1.54122 -0.710251 0
M  V30 1840 H 170.84 3.68 -1.3301 0
M  V30 1841 H 170.463 3.95949 0.361991 0
M  V30 1842 N 171.46 0.379036 1.52974 0
M  V30 1843 C 172.392 -0.495963 2.2377 0
M  V30 1844 C 173.405 -1.03517 1.25651 0
M  V30 1845 O 174.594 -0.939249 1.51791 0
M  V30 1846 C 171.694 -1.69894 2.93239 0
M  V30 1847 C 170.867 -1.2889 4.17979 0
M  V30 1848 C 169.926 -2.35543 4.70538 0
M  V30 1849 O 168.952 -1.97375 5.33883 0
M  V30 1850 N 170.154 -3.67318 4.49508 0
M  V30 1851 H 172.919 0.110523 2.99496 0
M  V30 1852 H 170.48 0.204878 1.60598 0
M  V30 1853 H 172.472 -2.40747 3.25304 0
M  V30 1854 H 171.042 -2.212 2.20883 0
M  V30 1855 H 170.262 -0.409676 3.92065 0
M  V30 1856 H 171.55 -0.991443 4.99047 0
M  V30 1857 H 170.948 -4.01095 3.98923 0
M  V30 1858 H 169.505 -4.34235 4.8609 0
M  V30 1859 N 172.938 -1.57226 0.108567 0
M  V30 1860 C 174.166 -1.99179 -0.559954 0
M  V30 1861 C 174.581 -0.988022 -1.60884 0
M  V30 1862 O 173.938 0.0205512 -1.82488 0
M  V30 1863 C 173.989 -3.41159 -1.19552 0
M  V30 1864 O 173.71 -4.37694 -0.188577 0
M  V30 1865 C 175.211 -3.98188 -1.94837 0
M  V30 1866 H 172.431 -0.654228 -0.149088 0
M  V30 1867 H 174.975 -2.03598 0.19183 0
M  V30 1868 H 173.13 -3.37711 -1.89815 0
M  V30 1869 H 173.544 -5.20469 -0.649014 0
M  V30 1870 H 175.018 -4.99644 -2.34648 0
M  V30 1871 H 175.495 -3.3675 -2.81951 0
M  V30 1872 H 176.101 -4.0515 -1.2936 0
M  V30 1873 N 174.416 0.165178 -1.56732 0
M  V30 1874 C 175.641 0.900253 -1.86843 0
M  V30 1875 C 176.066 1.74766 -0.695596 0
M  V30 1876 O 175.424 1.77786 0.35522 0
M  V30 1877 C 175.472 1.74777 -3.15413 0
M  V30 1878 O 174.576 2.85007 -2.98068 0
M  V30 1879 H 173.917 0.251832 -0.614391 0
M  V30 1880 H 176.447 0.161468 -2.03962 0
M  V30 1881 H 176.457 2.14646 -3.46974 0
M  V30 1882 H 175.132 1.12537 -4.00385 0
M  V30 1883 H 173.709 2.48676 -2.77875 0
M  V30 1884 N 175.894 1.51508 0.433938 0
M  V30 1885 C 176.826 1.69266 1.54537 0
M  V30 1886 C 177.839 0.573276 1.52373 0
M  V30 1887 O 179.028 0.847698 1.57087 0
M  V30 1888 C 176.128 1.69524 2.93453 0
M  V30 1889 C 175.301 2.98101 3.20085 0
M  V30 1890 C 174.36 2.90502 4.38742 0
M  V30 1891 O 173.386 3.64442 4.3723 0
M  V30 1892 N 174.588 2.06586 5.42496 0
M  V30 1893 H 177.353 2.65145 1.39708 0
M  V30 1894 H 174.914 1.49437 0.622922 0
M  V30 1895 H 176.906 1.62004 3.70859 0
M  V30 1896 H 175.476 0.812245 3.01863 0
M  V30 1897 H 174.696 3.19464 2.30947 0
M  V30 1898 H 175.984 3.83207 3.34708 0
M  V30 1899 H 175.382 1.45896 5.46563 0
M  V30 1900 H 173.939 2.04943 6.18742 0
M  V30 1901 N 177.372 -0.689602 1.41712 0
M  V30 1902 C 178.788 -1.00093 1.24312 0
M  V30 1903 C 178.988 -2.01036 0.136729 0
M  V30 1904 O 178.044 -2.47562 -0.496918 0
M  V30 1905 C 179.357 -1.51985 2.59463 0
M  V30 1906 C 180.905 -1.63838 2.66695 0
M  V30 1907 C 181.38 -2.1913 4.02177 0
M  V30 1908 N 182.871 -2.26483 4.04054 0
M  V30 1909 C 183.606 -2.70306 5.0569 0
M  V30 1910 N 183.102 -3.13691 6.17713 0
M  V30 1911 N 184.895 -2.69923 4.9305 0
M  V30 1912 H 177.046 -0.0210029 2.1239 0
M  V30 1913 H 179.309 -0.0718733 0.945272 0
M  V30 1914 H 179.015 -0.85269 3.41207 0
M  V30 1915 H 178.889 -2.50103 2.82362 0
M  V30 1916 H 181.276 -2.29664 1.85306 0
M  V30 1917 H 181.357 -0.642492 2.476 0
M  V30 1918 H 181.001 -1.53918 4.84016 0
M  V30 1919 H 180.931 -3.19482 4.18615 0
M  V30 1920 H 183.422 -1.95874 3.23174 0
M  V30 1921 H 183.735 -3.45773 6.9113 0
M  V30 1922 H 182.08 -3.11585 6.21241 0
M  V30 1923 H 185.271 -2.35382 4.04614 0
M  V30 1924 H 185.444 -3.03758 5.72394 0
M  V30 1925 N 178.85 -1.27639 -0.924453 0
M  V30 1926 C 179.76 -1.12466 -2.05885 0
M  V30 1927 C 180.776 -0.053869 -1.73917 0
M  V30 1928 O 181.952 -0.261012 -1.99702 0
M  V30 1929 C 179.017 -0.776768 -3.37886 0
M  V30 1930 C 178.078 -1.92878 -3.83532 0
M  V30 1931 C 177.311 -1.59739 -5.09234 0
M  V30 1932 O 177.534 -0.506782 -5.68144 0
M  V30 1933 O 176.468 -2.43761 -5.50331 0
M  V30 1934 H 180.294 -2.07671 -2.21599 0
M  V30 1935 H 177.879 -1.06857 -1.04413 0
M  V30 1936 H 179.761 -0.596229 -4.17161 0
M  V30 1937 H 178.436 0.145732 -3.23372 0
M  V30 1938 H 177.343 -2.1644 -3.0513 0
M  V30 1939 H 178.676 -2.8316 -4.02593 0
M  V30 1940 N 180.328 1.1314 -1.09713 0
M  V30 1941 C 181.275 2.18642 -0.739196 0
M  V30 1942 C 182.245 1.63706 0.280978 0
M  V30 1943 O 183.43 1.90111 0.161946 0
M  V30 1944 C 180.57 3.44685 -0.169102 0
M  V30 1945 C 179.683 4.13711 -1.24367 0
M  V30 1946 C 178.818 5.27379 -0.636019 0
M  V30 1947 C 177.857 5.88259 -1.69169 0
M  V30 1948 N 176.994 6.93352 -1.10485 0
M  V30 1949 H 181.834 2.48607 -1.64312 0
M  V30 1950 H 179.371 1.22066 -0.820875 0
M  V30 1951 H 181.329 4.16815 0.179256 0
M  V30 1952 H 179.959 3.15161 0.698079 0
M  V30 1953 H 179.011 3.39835 -1.70927 0
M  V30 1954 H 180.323 4.55037 -2.04311 0
M  V30 1955 H 179.477 6.06238 -0.236677 0
M  V30 1956 H 178.216 4.8731 0.194928 0
M  V30 1957 H 177.221 5.08092 -2.10055 0
M  V30 1958 H 178.446 6.30399 -2.52536 0
M  V30 1959 H 176.392 6.55335 -0.295234 0
M  V30 1960 H 176.309 7.33236 -1.84121 0
M  V30 1961 H 177.577 7.76057 -0.73181 0
M  V30 1962 N 181.806 0.884767 1.30421 0
M  V30 1963 C 182.716 0.355398 2.31892 0
M  V30 1964 C 183.732 -0.542261 1.65335 0
M  V30 1965 O 184.908 -0.435432 1.96637 0
M  V30 1966 C 181.973 -0.421661 3.44126 0
M  V30 1967 C 181.034 0.505727 4.26311 0
M  V30 1968 C 180.267 -0.234343 5.33185 0
M  V30 1969 O 180.49 -1.46045 5.51386 0
M  V30 1970 O 179.424 0.415443 6.00465 0
M  V30 1971 H 183.25 1.19685 2.79122 0
M  V30 1972 H 180.835 0.648596 1.34587 0
M  V30 1973 H 182.717 -0.861641 4.12497 0
M  V30 1974 H 181.392 -1.23942 2.99032 0
M  V30 1975 H 180.299 0.994513 3.60639 0
M  V30 1976 H 181.632 1.28948 4.75009 0
M  V30 1977 N 183.284 -1.43765 0.645699 0
M  V30 1978 C 184.561 -1.9541 0.0862963 0
M  V30 1979 C 184.941 -1.58725 -1.39175 0
M  V30 1980 O 184.289 -0.868581 -2.11348 0
M  V30 1981 C 184.499 -3.47488 0.324565 0
M  V30 1982 C 185.847 -4.24001 0.225497 0
M  V30 1983 O 186.871 -3.55274 0.256715 0
M  V30 1984 O 185.73 -5.46313 0.142801 0
M  V30 1985 H 182.824 -0.826882 -0.0139483 0
M  V30 1986 H 185.37 -1.53743 0.718415 0
M  V30 1987 H 184.142 -3.67289 1.3496 0
M  V30 1988 H 183.765 -3.96135 -0.340987 0
M  V30 1989 N 184.763 -0.387143 -1.52771 0
M  V30 1990 C 186.04 0.253197 -1.93954 0
M  V30 1991 C 186.42 1.64545 -1.32243 0
M  V30 1992 O 185.768 2.23191 -0.489699 0
M  V30 1993 C 185.978 0.281722 -3.47861 0
M  V30 1994 C 187.326 0.511715 -4.21505 0
M  V30 1995 O 188.35 0.362023 -3.54356 0
M  V30 1996 O 187.209 0.804847 -5.40541 0
M  V30 1997 H 184.303 0.156845 -0.811991 0
M  V30 1998 H 186.849 -0.441494 -1.63856 0
M  V30 1999 H 185.621 -0.693571 -3.85104 0
M  V30 2000 H 185.244 1.02142 -3.84256 0
M  V30 2001 N 186.241 1.57166 -0.116904 0
M  V30 2002 C 187.188 2.15202 0.83408 0
M  V30 2003 C 188.158 1.07644 1.26499 0
M  V30 2004 O 189.343 1.35541 1.34288 0
M  V30 2005 C 186.483 2.75405 2.07957 0
M  V30 2006 C 185.596 3.97264 1.69721 0
M  V30 2007 C 184.731 4.45561 2.89221 0
M  V30 2008 C 183.77 5.59956 2.47215 0
M  V30 2009 N 182.907 6.03006 3.59622 0
M  V30 2010 H 187.747 2.96141 0.332335 0
M  V30 2011 H 185.284 1.46309 0.152349 0
M  V30 2012 H 187.242 3.08439 2.80929 0
M  V30 2013 H 185.872 1.97159 2.55594 0
M  V30 2014 H 184.924 3.70404 0.866316 0
M  V30 2015 H 186.236 4.80226 1.34849 0
M  V30 2016 H 185.39 4.80493 3.7042 0
M  V30 2017 H 184.129 3.61544 3.27318 0
M  V30 2018 H 183.134 5.2463 1.64448 0
M  V30 2019 H 184.359 6.45738 2.10238 0
M  V30 2020 H 182.305 5.21931 3.97396 0
M  V30 2021 H 182.222 6.80819 3.28667 0
M  V30 2022 H 183.49 6.42576 4.41267 0
M  V30 2023 N 187.719 -0.156864 1.56817 0
M  V30 2024 C 188.965 -0.872416 1.83076 0
M  V30 2025 C 189.298 -1.81261 0.697001 0
M  V30 2026 O 188.573 -1.92171 -0.30008 0
M  V30 2027 C 188.856 -1.65551 3.19789 0
M  V30 2028 C 188.709 -0.737467 4.43713 0
M  V30 2029 C 190.028 -2.62012 3.53606 0
M  V30 2030 H 187.147 -0.315715 0.665953 0
M  V30 2031 H 189.789 -0.138004 1.89498 0
M  V30 2032 H 187.939 -2.28159 3.14445 0
M  V30 2033 H 189.611 -0.123143 4.61136 0
M  V30 2034 H 187.854 -0.0464067 4.33775 0
M  V30 2035 H 188.525 -1.32122 5.35955 0
M  V30 2036 H 191.001 -2.09525 3.59497 0
M  V30 2037 H 189.877 -3.13861 4.50314 0
M  V30 2038 H 190.138 -3.42902 2.79053 0
M  V30 2039 N 189.197 -1.51736 -0.425897 0
M  V30 2040 C 190.444 -1.6497 -1.17436 0
M  V30 2041 C 190.772 -0.371445 -1.9092 0
M  V30 2042 O 190.027 0.644963 -1.84767 0
M  V30 2043 C 190.326 -2.81103 -2.20717 0
M  V30 2044 C 189.992 -4.19954 -1.64162 0
M  V30 2045 C 188.654 -4.57725 -1.48462 0
M  V30 2046 C 191.006 -5.06552 -1.22696 0
M  V30 2047 C 188.334 -5.79789 -0.897873 0
M  V30 2048 C 190.686 -6.29205 -0.654464 0
M  V30 2049 C 189.35 -6.6574 -0.484456 0
M  V30 2050 H 188.62 -0.603668 -0.429727 0
M  V30 2051 H 191.267 -1.85798 -0.463829 0
M  V30 2052 H 189.572 -2.54542 -2.97852 0
M  V30 2053 H 191.269 -2.8854 -2.78471 0
M  V30 2054 H 187.859 -3.90181 -1.77361 0
M  V30 2055 H 192.043 -4.77968 -1.33642 0
M  V30 2056 H 187.299 -6.06733 -0.75402 0
M  V30 2057 H 191.473 -6.95643 -0.324694 0
M  V30 2058 H 189.1 -7.60195 -0.0276833 0
M  V30 2059 N 190.675 0.682077 -1.42076 0
M  V30 2060 C 192.086 1.26246 -1.37546 0
M  V30 2061 C 192.437 1.96092 -0.0651481 0
M  V30 2062 O 191.562 1.99587 0.836297 0
M  V30 2063 C 192.157 2.29594 -2.49143 0
M  V30 2064 C 190.716 2.83175 -2.47969 0
M  V30 2065 C 189.863 1.57395 -2.28303 0
M  V30 2066 H 192.814 0.475937 -1.51395 0
M  V30 2067 H 192.835 3.11175 -2.18976 0
M  V30 2068 H 192.347 1.78729 -3.44496 0
M  V30 2069 H 190.448 3.3818 -1.56413 0
M  V30 2070 H 190.561 3.32687 -3.44755 0
M  V30 2071 H 188.925 1.83699 -1.76428 0
M  V30 2072 H 189.708 1.08507 -3.25701 0
M  V30 2073 N 192.153 1.28127 0.917671 0
M  V30 2074 C 193.401 1.14825 1.66312 0
M  V30 2075 C 193.722 -0.304379 1.9261 0
M  V30 2076 O 192.992 -1.21149 1.53947 0
M  V30 2077 H 191.572 0.421953 0.616413 0
M  V30 2078 H 194.234 1.608 1.10134 0
M  V30 2079 H 193.33 1.68489 2.62712 0
M  V30 2080 N 193.631 -1.12557 1.10312 0
M  V30 2081 C 194.879 -1.83675 0.843091 0
M  V30 2082 C 195.2 -1.84435 -0.633131 0
M  V30 2083 O 194.47 -1.30657 -1.45964 0
M  V30 2084 H 193.05 -0.680138 0.308904 0
M  V30 2085 H 195.712 -1.36301 1.39313 0
M  V30 2086 H 194.808 -2.87908 1.2048 0
M  V30 2087 N 195.109 -0.891671 -1.2995 0
M  V30 2088 C 196.334 -0.527932 -2.00568 0
M  V30 2089 C 196.759 0.877969 -1.66353 0
M  V30 2090 O 196.117 1.58301 -0.883762 0
M  V30 2091 C 196.165 -0.717745 -3.53385 0
M  V30 2092 O 195.269 0.233376 -4.11739 0
M  V30 2093 H 194.61 -0.20722 -0.630837 0
M  V30 2094 H 197.14 -1.20105 -1.65638 0
M  V30 2095 H 197.15 -0.619307 -4.03272 0
M  V30 2096 H 195.825 -1.74276 -3.77625 0
M  V30 2097 H 194.402 0.0880706 -3.72796 0
M  V30 2098 N 196.587 1.43421 -0.653314 0
M  V30 2099 C 197.537 2.2792 0.060558 0
M  V30 2100 C 198.521 1.39906 0.794677 0
M  V30 2101 O 199.713 1.63536 0.677128 0
M  V30 2102 C 196.842 3.27603 1.0262 0
M  V30 2103 C 195.928 4.23104 0.290551 0
M  V30 2104 N 196.319 5.01031 -0.692967 0
M  V30 2105 C 194.617 4.42816 0.531984 0
M  V30 2106 C 195.318 5.70626 -1.12963 0
M  V30 2107 N 194.294 5.41617 -0.463867 0
M  V30 2108 H 198.096 2.85585 -0.694143 0
M  V30 2109 H 195.61 1.55126 -0.480602 0
M  V30 2110 H 197.607 3.86918 1.55242 0
M  V30 2111 H 196.267 2.71499 1.78096 0
M  V30 2112 H 197.278 5.0669 -1.07169 0
M  V30 2113 H 193.955 3.97782 1.26791 0
M  V30 2114 H 195.345 6.4318 -1.94343 0
M  V30 2115 N 198.065 0.39524 1.52563 0
M  V30 2116 C 199.293 -0.184943 2.06072 0
M  V30 2117 C 199.708 -1.40021 1.26647 0
M  V30 2118 O 199.065 -1.79767 0.314672 0
M  V30 2119 C 199.116 -0.549179 3.57304 0
M  V30 2120 O 198.837 0.617813 4.33722 0
M  V30 2121 C 200.338 -1.18459 4.2718 0
M  V30 2122 H 197.558 -0.0265025 0.670476 0
M  V30 2123 H 200.102 0.562184 1.96621 0
M  V30 2124 H 198.257 -1.2462 3.66809 0
M  V30 2125 H 198.671 0.317091 5.23541 0
M  V30 2126 H 200.145 -1.38976 5.34219 0
M  V30 2127 H 200.622 -2.15368 3.82771 0
M  V30 2128 H 201.228 -0.528163 4.22008 0
M  V30 2129 N 199.544 -1.57102 0.125237 0
M  V30 2130 C 200.774 -1.99472 -0.538015 0
M  V30 2131 C 201.182 -1.00395 -1.60366 0
M  V30 2132 O 200.525 0.0103875 -1.83697 0
M  V30 2133 C 200.587 -3.38262 -1.21734 0
M  V30 2134 C 200.251 -4.56021 -0.298897 0
M  V30 2135 C 201.248 -5.17817 0.464943 0
M  V30 2136 C 198.933 -5.01869 -0.208149 0
M  V30 2137 C 200.927 -6.23852 1.3072 0
M  V30 2138 C 198.614 -6.07763 0.637736 0
M  V30 2139 C 199.612 -6.68622 1.39403 0
M  V30 2140 O 199.3 -7.7247 2.22586 0
M  V30 2141 H 199.032 -0.659934 -0.146501 0
M  V30 2142 H 201.586 -2.04321 0.210267 0
M  V30 2143 H 199.816 -3.30185 -2.01282 0
M  V30 2144 H 201.505 -3.6488 -1.77813 0
M  V30 2145 H 202.271 -4.83308 0.404741 0
M  V30 2146 H 198.15 -4.54241 -0.786522 0
M  V30 2147 H 201.694 -6.71284 1.898 0
M  V30 2148 H 197.591 -6.41701 0.699309 0
M  V30 2149 H 198.359 -7.89595 2.15596 0
M  V30 2150 N 201.022 0.148545 -1.56898 0
M  V30 2151 C 202.268 0.862694 -1.83536 0
M  V30 2152 C 202.601 1.80889 -0.706604 0
M  V30 2153 O 201.876 1.92328 0.289885 0
M  V30 2154 C 202.159 1.63853 -3.20662 0
M  V30 2155 C 202.012 0.713925 -4.44098 0
M  V30 2156 C 203.331 2.60133 -3.54991 0
M  V30 2157 H 200.45 0.312179 -0.667618 0
M  V30 2158 H 203.092 0.127953 -1.89569 0
M  V30 2159 H 201.242 2.26489 -3.1565 0
M  V30 2160 H 202.914 0.098686 -4.61194 0
M  V30 2161 H 201.157 0.0234019 -4.33794 0
M  V30 2162 H 201.828 1.29278 -5.36648 0
M  V30 2163 H 204.304 2.07616 -3.60603 0
M  V30 2164 H 203.18 3.11468 -4.51972 0
M  V30 2165 H 203.441 3.41417 -2.80868 0
M  V30 2166 N 202.5 1.5196 0.417844 0
M  V30 2167 C 203.746 1.66793 1.16411 0
M  V30 2168 C 204.101 0.388758 1.88432 0
M  V30 2169 O 203.394 -0.616409 1.81414 0
M  V30 2170 C 203.588 2.82269 2.19223 0
M  V30 2171 C 203.417 4.21293 1.57297 0
M  V30 2172 C 202.187 4.86948 1.34944 0
M  V30 2173 C 204.385 5.03704 1.03858 0
M  V30 2174 N 202.367 6.1003 0.688195 0
M  V30 2175 C 203.738 6.1795 0.503742 0
M  V30 2176 C 205.793 4.89095 0.932203 0
M  V30 2177 C 204.496 7.19188 -0.127034 0
M  V30 2178 C 206.522 5.90559 0.315293 0
M  V30 2179 C 205.884 7.0409 -0.208906 0
M  V30 2180 H 201.983 0.66407 0.412959 0
M  V30 2181 H 204.567 1.89242 0.457772 0
M  V30 2182 H 202.738 2.61451 2.87225 0
M  V30 2183 H 204.47 2.86183 2.86149 0
M  V30 2184 H 201.225 4.45156 1.61657 0
M  V30 2185 H 201.649 6.75964 0.374449 0
M  V30 2186 H 206.291 4.01557 1.32332 0
M  V30 2187 H 204.009 8.06359 -0.530231 0
M  V30 2188 H 207.595 5.81327 0.234625 0
M  V30 2189 H 206.475 7.81257 -0.67875 0
M  V30 2190 N 203.978 -0.674533 1.42435 0
M  V30 2191 C 204.91 -1.80005 1.41883 0
M  V30 2192 C 205.923 -1.59667 0.31787 0
M  V30 2193 O 207.112 -1.68781 0.580973 0
M  V30 2194 C 204.212 -3.17114 1.19549 0
M  V30 2195 C 203.385 -3.64299 2.42084 0
M  V30 2196 C 202.444 -4.80142 2.15291 0
M  V30 2197 O 201.47 -4.90673 2.88493 0
M  V30 2198 N 202.672 -5.68869 1.1562 0
M  V30 2199 H 205.437 -1.80964 2.38898 0
M  V30 2200 H 202.998 -0.857633 1.37318 0
M  V30 2201 H 204.99 -3.92267 0.995417 0
M  V30 2202 H 203.56 -3.11053 0.310569 0
M  V30 2203 H 202.78 -2.79822 2.77657 0
M  V30 2204 H 204.068 -3.92567 3.23679 0
M  V30 2205 H 203.466 -5.63012 0.550765 0
M  V30 2206 H 202.023 -6.43833 1.016 0
M  V30 2207 N 205.456 -1.28612 -0.910864 0
M  V30 2208 C 206.702 -1.16106 -1.66274 0
M  V30 2209 C 207.035 0.289113 -1.92036 0
M  V30 2210 O 206.31 1.21 -1.52281 0
M  V30 2211 C 206.593 -1.96309 -3.01885 0
M  V30 2212 C 206.446 -3.49405 -2.8326 0
M  V30 2213 C 207.765 -1.78076 -4.02463 0
M  V30 2214 H 204.884 -0.423152 -0.603417 0
M  V30 2215 H 207.526 -1.57961 -1.05586 0
M  V30 2216 H 205.676 -1.60742 -3.53687 0
M  V30 2217 H 207.348 -3.94894 -2.38446 0
M  V30 2218 H 205.591 -3.74893 -2.18261 0
M  V30 2219 H 206.262 -4.00784 -3.79574 0
M  V30 2220 H 208.738 -2.0912 -3.59733 0
M  V30 2221 H 207.614 -2.36561 -4.95308 0
M  V30 2222 H 207.875 -0.733008 -4.35981 0
M  V30 2223 N 206.934 1.1197 -1.10907 0
M  V30 2224 C 207.864 2.19928 -0.784473 0
M  V30 2225 C 208.845 1.6833 0.244726 0
M  V30 2226 O 210.03 1.93892 0.109418 0
M  V30 2227 C 207.16 3.46597 -0.220827 0
M  V30 2228 C 206.114 4.11376 -1.18127 0
M  V30 2229 C 205.44 5.32554 -0.478594 0
M  V30 2230 C 206.74 4.56945 -2.52979 0
M  V30 2231 H 208.434 2.47337 -1.68715 0
M  V30 2232 H 205.98 1.18879 -0.812642 0
M  V30 2233 H 207.933 4.21396 0.0184278 0
M  V30 2234 H 206.657 3.1863 0.717113 0
M  V30 2235 H 205.316 3.38564 -1.40606 0
M  V30 2236 H 204.964 5.00856 0.463976 0
M  V30 2237 H 204.664 5.76844 -1.11912 0
M  V30 2238 H 206.188 6.10096 -0.248 0
M  V30 2239 H 207.602 5.23093 -2.3462 0
M  V30 2240 H 205.999 5.1203 -3.12962 0
M  V30 2241 H 207.069 3.70676 -3.12614 0
M  V30 2242 N 208.412 0.89855 1.29475 0
M  V30 2243 C 209.359 0.373819 2.27753 0
M  V30 2244 C 210.329 -0.543444 1.56958 0
M  V30 2245 O 211.514 -0.468934 1.84948 0
M  V30 2246 C 208.654 -0.393648 3.42848 0
M  V30 2247 C 207.767 0.554379 4.28428 0
M  V30 2248 C 206.902 -0.230026 5.30702 0
M  V30 2249 C 205.941 0.712599 6.07938 0
M  V30 2250 N 205.078 -0.0373283 7.0209 0
M  V30 2251 H 209.918 1.21699 2.72017 0
M  V30 2252 H 207.455 0.611456 1.33789 0
M  V30 2253 H 209.413 -0.85466 4.08352 0
M  V30 2254 H 208.043 -1.20128 2.99615 0
M  V30 2255 H 207.095 1.13391 3.63107 0
M  V30 2256 H 208.407 1.27597 4.82204 0
M  V30 2257 H 207.561 -0.752288 6.02018 0
M  V30 2258 H 206.3 -0.984758 4.77654 0
M  V30 2259 H 205.305 1.24637 5.35486 0
M  V30 2260 H 206.53 1.46664 6.63074 0
M  V30 2261 H 204.476 -0.774348 6.51414 0
M  V30 2262 H 204.393 0.624374 7.53417 0
M  V30 2263 H 205.661 -0.539891 7.77628 0
M  V30 2264 N 209.89 -1.43072 0.660911 0
M  V30 2265 C 210.8 -2.34585 -0.0264163 0
M  V30 2266 C 211.816 -1.54316 -0.803898 0
M  V30 2267 O 212.992 -1.86939 -0.749391 0
M  V30 2268 C 210.057 -3.32689 -0.975639 0
M  V30 2269 C 209.118 -4.2886 -0.194236 0
M  V30 2270 C 208.351 -5.22278 -1.09825 0
M  V30 2271 O 208.574 -5.20299 -2.33763 0
M  V30 2272 O 207.508 -5.99228 -0.566513 0
M  V30 2273 H 211.334 -2.94869 0.727034 0
M  V30 2274 H 208.919 -1.43342 0.42111 0
M  V30 2275 H 210.801 -3.92995 -1.52094 0
M  V30 2276 H 209.476 -2.74898 -1.70918 0
M  V30 2277 H 208.383 -3.72011 0.394835 0
M  V30 2278 H 209.716 -4.89655 0.499899 0
M  V30 2279 N 211.368 -0.403325 -1.52352 0
M  V30 2280 C 212.316 0.439752 -2.28405 0
M  V30 2281 C 213.31 1.05089 -1.32863 0
M  V30 2282 O 214.516 0.989759 -1.50345 0
M  V30 2283 H 210.891 0.160587 -0.734653 0
M  V30 2284 H 212.862 -0.222983 -2.97566 0
M  V30 2285 C 211.611 1.54736 -3.11371 0
M  V30 2286 H 210.934 1.08643 -3.84755 0
M  V30 2287 H 212.374 2.1112 -3.67701 0
M  V30 2288 C 210.833 2.51141 -2.24566 0
M  V30 2289 O 211.363 3.54887 -1.88196 0
M  V30 2290 N 209.569 2.21213 -1.8845 0
M  V30 2291 H 209.116 1.36878 -2.18225 0
M  V30 2292 H 209.074 2.85963 -1.30662 0
M  V30 2293 N 212.846 1.57033 -0.133567 0
M  V30 2294 C 214.094 1.953 0.519848 0
M  V30 2295 C 214.415 1.01866 1.66278 0
M  V30 2296 O 213.685 0.0776513 1.95746 0
M  V30 2297 H 212.265 0.721091 0.195032 0
M  V30 2298 H 214.927 1.93809 -0.205921 0
M  V30 2299 H 214.023 2.98695 0.904854 0
M  V30 2300 N 214.325 -0.140222 1.56975 0
M  V30 2301 C 215.736 -0.699596 1.73097 0
M  V30 2302 C 216.087 -1.8134 0.749022 0
M  V30 2303 O 215.212 -2.16241 -0.0828503 0
M  V30 2304 C 215.807 -1.27582 3.1386 0
M  V30 2305 C 214.366 -1.78169 3.31561 0
M  V30 2306 C 213.513 -0.672855 2.69013 0
M  V30 2307 H 216.464 0.0855115 1.58469 0
M  V30 2308 H 216.485 -2.14561 3.14235 0
M  V30 2309 H 215.997 -0.464955 3.85305 0
M  V30 2310 H 214.098 -2.61801 2.65124 0
M  V30 2311 H 214.211 -1.90574 4.39566 0
M  V30 2312 H 212.575 -1.10118 2.29665 0
M  V30 2313 H 213.358 0.126679 3.43066 0
M  V30 2314 N 215.803 -1.52179 -0.40978 0
M  V30 2315 C 216.736 -1.70196 -1.52015 0
M  V30 2316 C 217.714 -0.549542 -1.53032 0
M  V30 2317 O 218.898 -0.776815 -1.71749 0
M  V30 2318 C 216.025 -1.74069 -2.90547 0
M  V30 2319 C 215.071 -2.95601 -3.07445 0
M  V30 2320 S 215.904 -4.55956 -2.80827 0
M  V30 2321 C 217.06 -4.62614 -4.21591 0
M  V30 2322 H 217.293 -2.64109 -1.36504 0
M  V30 2323 H 214.826 -1.4221 -0.601312 0
M  V30 2324 H 216.784 -1.76985 -3.70387 0
M  V30 2325 H 215.445 -0.812835 -3.034 0
M  V30 2326 H 214.638 -2.94791 -4.08796 0
M  V30 2327 H 214.24 -2.90569 -2.35469 0
M  V30 2328 H 216.532 -4.39951 -5.15218 0
M  V30 2329 H 217.475 -5.64548 -4.27424 0
M  V30 2330 H 217.883 -3.91654 -4.06531 0
M  V30 2331 N 217.281 0.66697 -1.42791 0
M  V30 2332 C 218.244 1.76211 -1.46568 0
M  V30 2333 C 219.244 1.56896 -0.352196 0
M  V30 2334 O 220.434 1.63044 -0.613364 0
M  V30 2335 C 217.566 3.14935 -1.30494 0
M  V30 2336 H 218.759 1.74247 -2.44086 0
M  V30 2337 H 216.312 0.877342 -1.29354 0
M  V30 2338 H 217.047 3.2252 -0.339301 0
M  V30 2339 H 216.832 3.30359 -2.11199 0
M  V30 2340 H 218.322 3.94821 -1.36038 0
M  V30 2341 N 218.759 1.29093 0.90403 0
M  V30 2342 C 219.984 1.19809 1.69294 0
M  V30 2343 C 220.409 -0.238481 1.86582 0
M  V30 2344 O 219.767 -1.1723 1.383 0
M  V30 2345 C 219.815 1.91202 3.05736 0
M  V30 2346 O 218.919 1.22611 3.93752 0
M  V30 2347 H 218.26 0.415385 0.518027 0
M  V30 2348 H 220.79 1.70586 1.12967 0
M  V30 2349 H 220.8 1.99487 3.55906 0
M  V30 2350 H 219.475 2.95692 2.92471 0
M  V30 2351 H 218.052 1.22554 3.52186 0
M  V30 2352 N 220.237 -1.11381 1.11499 0
M  V30 2353 C 221.514 -1.7955 0.775965 0
M  V30 2354 C 221.894 -1.97859 -0.73588 0
M  V30 2355 O 221.242 -1.56376 -1.66609 0
M  V30 2356 C 221.452 -3.13196 1.53977 0
M  V30 2357 C 222.8 -3.88227 1.71944 0
M  V30 2358 O 223.824 -3.22887 1.50407 0
M  V30 2359 O 222.683 -5.05477 2.07738 0
M  V30 2360 H 219.777 -0.777728 0.28119 0
M  V30 2361 H 222.323 -1.18118 1.21845 0
M  V30 2362 H 221.095 -2.95229 2.56818 0
M  V30 2363 H 220.718 -3.82342 1.09088 0
M  V30 2364 N 221.715 -0.905404 -1.28997 0
M  V30 2365 C 223.126 -0.581953 -1.77398 0
M  V30 2366 C 223.477 0.902552 -1.74208 0
M  V30 2367 O 222.602 1.70584 -1.33154 0
M  V30 2368 C 223.197 -1.04961 -3.22131 0
M  V30 2369 C 221.756 -0.777229 -3.68288 0
M  V30 2370 C 220.903 -1.22109 -2.48967 0
M  V30 2371 H 223.854 -1.08754 -1.15578 0
M  V30 2372 H 223.875 -0.387387 -3.78523 0
M  V30 2373 H 223.387 -2.13008 -3.24421 0
M  V30 2374 H 221.488 0.290383 -3.71467 0
M  V30 2375 H 221.601 -1.37911 -4.58822 0
M  V30 2376 H 219.965 -0.639971 -2.46529 0
M  V30 2377 H 220.748 -2.30972 -2.53982 0
M  V30 2378 N 223.193 1.4272 -0.668489 0
M  V30 2379 C 224.123 2.335 -0.000100175 0
M  V30 2380 C 225.104 1.50328 0.795964 0
M  V30 2381 O 226.289 1.78949 0.754385 0
M  V30 2382 C 223.419 3.33874 0.956302 0
M  V30 2383 C 222.373 4.27152 0.269278 0
M  V30 2384 C 221.699 5.17684 1.33818 0
M  V30 2385 C 222.999 5.15373 -0.847805 0
M  V30 2386 H 224.693 2.89639 -0.758244 0
M  V30 2387 H 222.239 1.39269 -0.366079 0
M  V30 2388 H 224.192 3.9629 1.43292 0
M  V30 2389 H 222.916 2.76025 1.74579 0
M  V30 2390 H 221.575 3.66123 -0.187042 0
M  V30 2391 H 221.223 4.56165 2.1195 0
M  V30 2392 H 220.923 5.80918 0.883659 0
M  V30 2393 H 222.447 5.82974 1.81586 0
M  V30 2394 H 223.861 5.7151 -0.452681 0
M  V30 2395 H 222.258 5.87407 -1.22773 0
M  V30 2396 H 223.328 4.5415 -1.69929 0
M  V30 2397 N 224.671 0.411399 1.52136 0
M  V30 2398 C 225.911 -0.163143 2.03748 0
M  V30 2399 C 226.275 -1.42187 1.29022 0
M  V30 2400 O 227.476 -2.075 1.70872 0
M  V30 2401 C 225.747 -0.402651 3.55125 0
M  V30 2402 S 227.306 -0.944315 4.28519 0
M  V30 2403 H 224.124 -0.0439833 0.709638 0
M  V30 2404 H 226.726 0.56484 1.87163 0
M  V30 2405 H 225.43 0.520212 4.0709 0
M  V30 2406 H 224.961 -1.15844 3.75957 0
M  V30 2407 H 226.976 -2.22463 4.43536 0
M  V30 2408 N 226.149 -1.5696 0.141893 0
M  V30 2409 C 227.079 -2.19516 -0.795936 0
M  V30 2410 C 228.06 -1.14187 -1.26077 0
M  V30 2411 O 229.245 -1.42511 -1.31925 0
M  V30 2412 C 226.375 -2.81272 -2.03723 0
M  V30 2413 C 225.329 -3.92384 -1.70936 0
M  V30 2414 C 224.655 -4.41052 -3.02287 0
M  V30 2415 C 225.955 -5.13403 -0.959954 0
M  V30 2416 H 227.649 -2.98138 -0.274596 0
M  V30 2417 H 225.195 -1.43406 -0.130636 0
M  V30 2418 H 227.148 -3.237 -2.69808 0
M  V30 2419 H 225.872 -1.99973 -2.58221 0
M  V30 2420 H 224.531 -3.50566 -1.07232 0
M  V30 2421 H 224.179 -3.56582 -3.54765 0
M  V30 2422 H 223.879 -5.15993 -2.81114 0
M  V30 2423 H 225.403 -4.86146 -3.69451 0
M  V30 2424 H 226.817 -5.52706 -1.52279 0
M  V30 2425 H 225.214 -5.94073 -0.848357 0
M  V30 2426 H 226.284 -4.84875 0.0492434 0
M  V30 2427 N 227.627 0.131896 -1.57047 0
M  V30 2428 C 228.855 0.856461 -1.88341 0
M  V30 2429 C 229.27 1.74042 -0.731757 0
M  V30 2430 O 228.627 1.80051 0.297945 0
M  V30 2431 C 228.678 1.70064 -3.18999 0
M  V30 2432 O 228.399 0.852278 -4.2973 0
M  V30 2433 C 229.9 2.53148 -3.63911 0
M  V30 2434 H 227.12 0.246885 -0.62393 0
M  V30 2435 H 229.664 0.120152 -2.04147 0
M  V30 2436 H 227.819 2.38984 -3.04902 0
M  V30 2437 H 228.233 1.43329 -5.04537 0
M  V30 2438 H 229.707 3.07931 -4.58129 0
M  V30 2439 H 230.184 3.29901 -2.89935 0
M  V30 2440 H 230.79 1.89492 -3.80753 0
M  V30 2441 N 229.106 1.52395 0.401703 0
M  V30 2442 C 230.336 1.70429 1.1678 0
M  V30 2443 C 230.744 0.416702 1.84554 0
M  V30 2444 O 230.087 -0.617697 1.73003 0
M  V30 2445 C 230.149 2.78919 2.26814 0
M  V30 2446 C 229.813 4.20437 1.79113 0
M  V30 2447 C 230.81 5.04028 1.27482 0
M  V30 2448 C 228.495 4.66704 1.85722 0
M  V30 2449 C 230.489 6.31961 0.830913 0
M  V30 2450 C 228.176 5.94625 1.40942 0
M  V30 2451 C 229.174 6.77082 0.897128 0
M  V30 2452 O 228.862 8.02607 0.455822 0
M  V30 2453 H 228.594 0.574272 0.356634 0
M  V30 2454 H 231.148 1.99767 0.477724 0
M  V30 2455 H 229.378 2.44973 2.99207 0
M  V30 2456 H 231.067 2.8548 2.88541 0
M  V30 2457 H 231.833 4.69471 1.21744 0
M  V30 2458 H 227.712 4.0262 2.24539 0
M  V30 2459 H 231.256 6.96271 0.430368 0
M  V30 2460 H 227.153 6.28688 1.46362 0
M  V30 2461 H 227.921 8.16453 0.578457 0
M  V30 2462 N 230.584 -0.659388 1.43143 0
M  V30 2463 C 231.809 -1.45221 1.48073 0
M  V30 2464 C 232.234 -1.87845 0.097995 0
M  V30 2465 O 231.592 -1.56985 -0.90694 0
M  V30 2466 C 231.64 -2.66748 2.42647 0
M  V30 2467 O 230.744 -3.65583 1.90848 0
M  V30 2468 H 230.085 -0.435669 0.501088 0
M  V30 2469 H 232.615 -0.807432 1.87994 0
M  V30 2470 H 232.625 -3.14637 2.59745 0
M  V30 2471 H 231.3 -2.35067 3.43098 0
M  V30 2472 H 229.877 -3.24693 1.83381 0
M  V30 2473 N 232.062 -1.29571 -0.897171 0
M  V30 2474 C 233.292 -1.20408 -1.67886 0
M  V30 2475 C 233.7 0.237429 -1.87704 0
M  V30 2476 O 233.043 1.17048 -1.41582 0
M  V30 2477 C 233.105 -1.84887 -3.08314 0
M  V30 2478 C 232.769 -3.34189 -3.11716 0
M  V30 2479 C 233.766 -4.30374 -2.91675 0
M  V30 2480 C 231.451 -3.75431 -3.33701 0
M  V30 2481 C 233.445 -5.65776 -2.93557 0
M  V30 2482 C 231.132 -5.10955 -3.35214 0
M  V30 2483 C 232.13 -6.05938 -3.15164 0
M  V30 2484 O 231.818 -7.38987 -3.1647 0
M  V30 2485 H 231.55 -0.418289 -0.531046 0
M  V30 2486 H 234.104 -1.71514 -1.13014 0
M  V30 2487 H 232.334 -1.28295 -3.64798 0
M  V30 2488 H 234.023 -1.70011 -3.6858 0
M  V30 2489 H 234.789 -3.99844 -2.74499 0
M  V30 2490 H 230.668 -3.01953 -3.48347 0
M  V30 2491 H 234.212 -6.39889 -2.77826 0
M  V30 2492 H 230.109 -5.4113 -3.51922 0
M  V30 2493 H 230.877 -7.47823 -3.3272 0
M  V30 2494 N 233.54 1.10788 -1.12088 0
M  V30 2495 C 234.47 2.19083 -0.807755 0
M  V30 2496 C 235.451 1.6858 0.226859 0
M  V30 2497 O 236.636 1.93997 0.0888475 0
M  V30 2498 C 233.766 3.46344 -0.257576 0
M  V30 2499 C 232.72 4.101 -1.22483 0
M  V30 2500 C 232.046 5.32016 -0.535052 0
M  V30 2501 C 233.346 4.54236 -2.57811 0
M  V30 2502 H 235.04 2.45534 -1.71328 0
M  V30 2503 H 232.586 1.1801 -0.825205 0
M  V30 2504 H 234.539 4.21392 -0.0262679 0
M  V30 2505 H 233.263 3.19373 0.683278 0
M  V30 2506 H 231.922 3.37054 -1.44189 0
M  V30 2507 H 231.57 5.01319 0.410827 0
M  V30 2508 H 231.27 5.75625 -1.18024 0
M  V30 2509 H 232.794 6.09799 -0.312695 0
M  V30 2510 H 234.208 5.20575 -2.40155 0
M  V30 2511 H 232.605 5.08682 -3.18375 0
M  V30 2512 H 233.675 3.6734 -3.16528 0
M  V30 2513 N 235.018 0.912232 1.28515 0
M  V30 2514 C 236.243 0.559774 1.99703 0
M  V30 2515 C 236.668 -0.851393 1.67729 0
M  V30 2516 O 236.026 -1.56875 0.908834 0
M  V30 2517 C 236.074 0.773874 3.52198 0
M  V30 2518 O 235.178 -0.167842 4.12058 0
M  V30 2519 H 234.519 0.21723 0.627461 0
M  V30 2520 H 237.049 1.22725 1.63706 0
M  V30 2521 H 237.059 0.683386 4.02236 0
M  V30 2522 H 235.734 1.80261 3.74805 0
M  V30 2523 H 234.311 -0.0287509 3.72889 0
M  V30 2524 N 236.496 -1.42363 0.676048 0
M  V30 2525 C 237.446 -2.27987 -0.0242903 0
M  V30 2526 C 238.43 -1.41153 -0.772319 0
M  V30 2527 O 239.622 -1.64592 -0.651025 0
M  V30 2528 C 236.751 -3.29195 -0.973953 0
M  V30 2529 C 235.837 -4.23512 -0.223202 0
M  V30 2530 N 236.228 -4.99865 0.772589 0
M  V30 2531 C 234.526 -4.43606 -0.461469 0
M  V30 2532 C 235.227 -5.68757 1.22027 0
M  V30 2533 N 234.203 -5.40811 0.549975 0
M  V30 2534 H 238.005 -2.84445 0.73949 0
M  V30 2535 H 235.519 -1.54341 0.50522 0
M  V30 2536 H 237.516 -3.89339 -1.49067 0
M  V30 2537 H 236.176 -2.74298 -1.73755 0
M  V30 2538 H 237.187 -5.04921 1.15217 0
M  V30 2539 H 233.864 -3.99749 -1.20446 0
M  V30 2540 H 235.254 -6.40007 2.0455 0
M  V30 2541 N 237.974 -0.419461 -1.51915 0
M  V30 2542 C 239.22 0.153166 -2.02221 0
M  V30 2543 C 239.553 1.43907 -1.30401 0
M  V30 2544 O 238.828 1.90055 -0.413438 0
M  V30 2545 C 239.111 0.390291 -3.57979 0
M  V30 2546 C 238.964 -0.913014 -4.40436 0
M  V30 2547 C 240.283 1.16794 -4.2432 0
M  V30 2548 H 237.402 0.0541924 -0.735005 0
M  V30 2549 H 240.044 -0.554955 -1.81715 0
M  V30 2550 H 238.194 0.993491 -3.75582 0
M  V30 2551 H 239.866 -1.54882 -4.34522 0
M  V30 2552 H 238.109 -1.52168 -4.06236 0
M  V30 2553 H 238.78 -0.701361 -5.47526 0
M  V30 2554 H 241.256 0.657161 -4.10878 0
M  V30 2555 H 240.132 1.3026 -5.3322 0
M  V30 2556 H 240.393 2.19132 -3.83971 0
M  V30 2557 N 239.452 1.56882 -0.150215 0
M  V30 2558 C 240.729 1.87844 0.545327 0
M  V30 2559 C 241.109 1.0567 1.82749 0
M  V30 2560 O 240.457 0.144442 2.28043 0
M  V30 2561 C 240.667 3.39526 0.80767 0
M  V30 2562 C 242.015 4.08814 1.14703 0
M  V30 2563 O 243.039 3.44723 0.896917 0
M  V30 2564 O 241.898 5.22004 1.61784 0
M  V30 2565 H 238.992 0.778677 0.278553 0
M  V30 2566 H 241.538 1.68666 -0.187068 0
M  V30 2567 H 240.31 3.91173 -0.0996096 0
M  V30 2568 H 239.933 3.64243 1.59413 0
M  V30 2569 N 240.93 -0.123565 1.57115 0
M  V30 2570 C 241.86 -1.15309 2.03042 0
M  V30 2571 C 242.841 -1.43454 0.914061 0
M  V30 2572 O 244.026 -1.53973 1.18347 0
M  V30 2573 C 241.156 -2.48043 2.43089 0
M  V30 2574 C 240.11 -2.3437 3.58127 0
M  V30 2575 C 239.436 -3.72026 3.84059 0
M  V30 2576 C 240.736 -1.80804 4.90007 0
M  V30 2577 H 242.43 -0.771102 2.893 0
M  V30 2578 H 239.976 -0.369479 1.39179 0
M  V30 2579 H 241.929 -3.20311 2.73823 0
M  V30 2580 H 240.653 -2.88122 1.53796 0
M  V30 2581 H 239.312 -1.64551 3.27595 0
M  V30 2582 H 238.96 -4.09582 2.91979 0
M  V30 2583 H 238.66 -3.63732 4.6149 0
M  V30 2584 H 240.184 -4.45806 4.1724 0
M  V30 2585 H 241.598 -2.42886 5.19307 0
M  V30 2586 H 239.995 -1.83343 5.71407 0
M  V30 2587 H 241.065 -0.76528 4.78823 0
M  V30 2588 N 242.408 -1.52605 -0.393616 0
M  V30 2589 C 243.654 -1.67672 -1.14079 0
M  V30 2590 C 243.987 -0.413121 -1.89755 0
M  V30 2591 O 243.262 0.588952 -1.85369 0
M  V30 2592 C 243.545 -2.9088 -2.12276 0
M  V30 2593 C 243.398 -4.27329 -1.40394 0
M  V30 2594 C 244.717 -3.09628 -3.12759 0
M  V30 2595 H 241.836 -0.610168 -0.413356 0
M  V30 2596 H 244.478 -1.85193 -0.424696 0
M  V30 2597 H 242.628 -2.76073 -2.73342 0
M  V30 2598 H 244.3 -4.53894 -0.82327 0
M  V30 2599 H 242.543 -4.2802 -0.705801 0
M  V30 2600 H 243.214 -5.09615 -2.12123 0
M  V30 2601 H 245.69 -3.23436 -2.61779 0
M  V30 2602 H 244.566 -3.97322 -3.78717 0
M  V30 2603 H 244.827 -2.23637 -3.81365 0
M  V30 2604 N 243.887 0.651787 -1.4349 0
M  V30 2605 C 244.834 1.76462 -1.4876 0
M  V30 2606 C 245.804 1.62641 -0.337189 0
M  V30 2607 O 246.989 1.82864 -0.544544 0
M  V30 2608 C 244.129 3.14623 -1.41796 0
M  V30 2609 C 243.242 3.39568 -2.67053 0
M  V30 2610 C 242.377 4.67585 -2.52068 0
M  V30 2611 C 241.416 4.85639 -3.72587 0
M  V30 2612 N 240.553 6.04915 -3.56402 0
M  V30 2613 H 245.393 1.71293 -2.43849 0
M  V30 2614 H 242.93 0.835889 -1.21043 0
M  V30 2615 H 244.888 3.94496 -1.35753 0
M  V30 2616 H 243.518 3.18859 -0.50288 0
M  V30 2617 H 242.57 2.53783 -2.8337 0
M  V30 2618 H 243.882 3.48795 -3.56572 0
M  V30 2619 H 243.036 5.55586 -2.4374 0
M  V30 2620 H 241.775 4.60681 -1.60075 0
M  V30 2621 H 240.78 3.96073 -3.81321 0
M  V30 2622 H 242.005 4.94372 -4.65589 0
M  V30 2623 H 239.951 5.9914 -2.67146 0
M  V30 2624 H 239.868 6.15106 -4.39524 0
M  V30 2625 H 241.136 6.95533 -3.51929 0
M  V30 2626 N 245.365 1.30045 0.890287 0
M  V30 2627 C 246.642 1.09227 1.62262 0
M  V30 2628 C 247.022 -0.360305 2.08002 0
M  V30 2629 O 246.37 -1.35084 1.84295 0
M  V30 2630 C 246.58 2.08835 2.79623 0
M  V30 2631 C 247.928 2.40266 3.50082 0
M  V30 2632 O 248.952 2.07104 2.89804 0
M  V30 2633 O 247.811 2.96967 4.58773 0
M  V30 2634 H 244.905 0.419132 0.712922 0
M  V30 2635 H 247.451 1.41451 0.937529 0
M  V30 2636 H 246.223 3.06633 2.43089 0
M  V30 2637 H 245.846 1.77397 3.55832 0
M  V30 2638 N 246.843 -1.10192 1.12674 0
M  V30 2639 C 247.773 -2.18652 0.819362 0
M  V30 2640 C 248.754 -1.68698 -0.217915 0
M  V30 2641 O 249.939 -1.94041 -0.0785581 0
M  V30 2642 C 247.069 -3.46202 0.27594 0
M  V30 2643 C 246.023 -4.09444 1.24656 0
M  V30 2644 C 245.349 -5.31725 0.563258 0
M  V30 2645 C 246.649 -4.52863 2.60217 0
M  V30 2646 H 248.343 -2.44622 1.72628 0
M  V30 2647 H 245.889 -1.17571 0.831451 0
M  V30 2648 H 247.842 -4.21372 0.0486149 0
M  V30 2649 H 246.566 -3.1973 -0.666331 0
M  V30 2650 H 245.225 -3.36284 1.45974 0
M  V30 2651 H 244.873 -5.0153 -0.384235 0
M  V30 2652 H 244.573 -5.74991 1.21075 0
M  V30 2653 H 246.097 -6.09624 0.34503 0
M  V30 2654 H 247.511 -5.19294 2.42913 0
M  V30 2655 H 245.908 -5.06986 3.21068 0
M  V30 2656 H 246.978 -3.65656 3.18471 0
M  V30 2657 N 248.321 -0.919034 -1.28029 0
M  V30 2658 C 249.269 -0.401753 -2.29104 0
M  V30 2659 C 250.263 0.509354 -1.61561 0
M  V30 2660 O 251.469 0.390014 -1.75724 0
M  V30 2661 H 247.844 -0.111331 -0.743713 0
M  V30 2662 H 249.815 -1.2672 -2.70156 0
M  V30 2663 C 248.564 0.338148 -3.46052 0
M  V30 2664 H 247.887 -0.353732 -3.98232 0
M  V30 2665 H 249.327 0.664653 -4.18758 0
M  V30 2666 C 247.786 1.54798 -2.99231 0
M  V30 2667 O 248.316 2.64696 -3.02157 0
M  V30 2668 N 246.522 1.3968 -2.54829 0
M  V30 2669 H 246.069 0.502698 -2.52647 0
M  V30 2670 H 246.027 2.20755 -2.23863 0
M  V30 2671 N 249.799 1.42003 -0.683588 0
M  V30 2672 C 251.024 2.06265 -0.216647 0
M  V30 2673 C 251.449 1.51059 1.12083 0
M  V30 2674 O 250.807 0.632638 1.69904 0
M  V30 2675 C 250.855 3.60191 -0.171759 0
M  V30 2676 O 249.959 4.03396 0.857069 0
M  V30 2677 H 249.3 0.65502 -0.108834 0
M  V30 2678 H 251.83 1.81982 -0.935077 0
M  V30 2679 H 251.84 4.08 0.0014303 0
M  V30 2680 H 250.515 3.99743 -1.14796 0
M  V30 2681 H 249.092 3.67117 0.654208 0
M  V30 2682 N 251.277 0.427512 1.51691 0
M  V30 2683 C 252.525 -0.141948 2.01601 0
M  V30 2684 C 252.846 -1.44067 1.31414 0
M  V30 2685 O 252.116 -1.90763 0.445658 0
M  V30 2686 H 250.696 -0.0554468 0.744939 0
M  V30 2687 H 253.358 0.567968 1.86441 0
M  V30 2688 H 252.454 -0.324913 3.10404 0
M  V30 2689 N 252.755 -1.56801 0.158532 0
M  V30 2690 C 253.685 -2.20347 -0.772609 0
M  V30 2691 C 254.666 -1.15518 -1.24859 0
M  V30 2692 O 255.851 -1.43902 -1.30406 0
M  V30 2693 C 252.981 -2.83417 -2.00729 0
M  V30 2694 C 251.935 -3.94174 -1.66765 0
M  V30 2695 C 251.261 -4.44233 -2.97592 0
M  V30 2696 C 252.561 -5.14392 -0.905447 0
M  V30 2697 H 254.255 -2.98413 -0.242959 0
M  V30 2698 H 251.801 -1.43537 -0.115419 0
M  V30 2699 H 253.754 -3.26543 -2.6636 0
M  V30 2700 H 252.478 -2.02701 -2.56086 0
M  V30 2701 H 251.137 -3.51684 -1.03508 0
M  V30 2702 H 250.785 -3.60325 -3.50963 0
M  V30 2703 H 250.485 -5.18945 -2.75626 0
M  V30 2704 H 252.009 -4.90037 -3.64274 0
M  V30 2705 H 253.423 -5.5429 -1.46408 0
M  V30 2706 H 251.82 -5.9494 -0.7853 0
M  V30 2707 H 252.89 -4.84795 0.100668 0
M  V30 2708 N 254.233 0.115231 -1.57178 0
M  V30 2709 C 255.482 0.820945 -1.84237 0
M  V30 2710 C 255.795 1.80866 -0.744761 0
M  V30 2711 O 257.001 2.56083 -0.901871 0
M  V30 2712 C 255.457 1.51072 -3.26658 0
M  V30 2713 C 255.065 0.563795 -4.44438 0
M  V30 2714 C 256.809 2.20134 -3.62962 0
M  V30 2715 C 254.716 1.25701 -5.77887 0
M  V30 2716 H 253.646 0.310328 -0.687177 0
M  V30 2717 H 256.297 0.0737134 -1.83352 0
M  V30 2718 H 254.679 2.30471 -3.22024 0
M  V30 2719 H 255.853 -0.197247 -4.60378 0
M  V30 2720 H 254.168 -0.0200638 -4.16395 0
M  V30 2721 H 256.765 2.72696 -4.59936 0
M  V30 2722 H 257.108 2.98107 -2.90582 0
M  V30 2723 H 257.641 1.47619 -3.69396 0
M  V30 2724 H 254.38 0.518493 -6.53446 0
M  V30 2725 H 253.9 1.98997 -5.65827 0
M  V30 2726 H 255.579 1.78915 -6.2177 0
M  V30 2727 N 255.711 1.52812 0.385517 0
M  V30 2728 C 256.959 1.67694 1.12797 0
M  V30 2729 C 257.28 0.421115 1.90399 0
M  V30 2730 O 256.55 -0.564551 1.87589 0
M  V30 2731 H 255.13 0.618155 0.419396 0
M  V30 2732 H 257.792 1.89938 0.436972 0
M  V30 2733 H 256.888 2.52896 1.82894 0
M  V30 2734 N 257.189 -0.644168 1.43834 0
M  V30 2735 C 258.152 -1.73857 1.49353 0
M  V30 2736 C 259.152 -1.56315 0.377112 0
M  V30 2737 O 260.342 -1.62048 0.639226 0
M  V30 2738 C 257.474 -3.12819 1.35488 0
M  V30 2739 H 258.667 -1.70342 2.46827 0
M  V30 2740 H 256.22 -0.856652 1.30733 0
M  V30 2741 H 256.955 -3.2194 0.390569 0
M  V30 2742 H 256.74 -3.26958 2.16428 0
M  V30 2743 H 258.23 -3.92606 1.42302 0
M  V30 2744 N 258.668 -1.30515 -0.883378 0
M  V30 2745 C 259.598 -1.19607 -2.00541 0
M  V30 2746 C 260.579 -0.086346 -1.69881 0
M  V30 2747 O 261.764 -0.268654 -1.92333 0
M  V30 2748 C 258.894 -0.888758 -3.35736 0
M  V30 2749 C 257.848 -1.95659 -3.8066 0
M  V30 2750 C 257.174 -1.50224 -5.13164 0
M  V30 2751 C 258.474 -3.36788 -3.99213 0
M  V30 2752 H 260.168 -2.13476 -2.09925 0
M  V30 2753 H 257.714 -1.02775 -1.00863 0
M  V30 2754 H 259.667 -0.799094 -4.13754 0
M  V30 2755 H 258.391 0.0856125 -3.26488 0
M  V30 2756 H 257.05 -2.03591 -3.04871 0
M  V30 2757 H 256.698 -0.516092 -5.00345 0
M  V30 2758 H 256.398 -2.2165 -5.44192 0
M  V30 2759 H 257.922 -1.42639 -5.93706 0
M  V30 2760 H 259.336 -3.31605 -4.67665 0
M  V30 2761 H 257.733 -4.06314 -4.41621 0
M  V30 2762 H 258.803 -3.78561 -3.03017 0
M  V30 2763 N 260.146 1.09593 -1.13257 0
M  V30 2764 C 261.076 2.18214 -0.830946 0
M  V30 2765 C 262.057 1.68812 0.208966 0
M  V30 2766 O 263.242 1.9408 0.0682666 0
M  V30 2767 C 260.372 3.46051 -0.294296 0
M  V30 2768 C 259.326 4.08778 -1.26826 0
M  V30 2769 C 258.652 5.31419 -0.591449 0
M  V30 2770 C 259.952 4.51476 -2.62615 0
M  V30 2771 H 261.646 2.43703 -1.73923 0
M  V30 2772 H 259.192 1.17128 -0.837675 0
M  V30 2773 H 261.145 4.2134 -0.0709606 0
M  V30 2774 H 259.869 3.20079 0.649366 0
M  V30 2775 H 258.528 3.35505 -1.47756 0
M  V30 2776 H 258.176 5.01727 0.357633 0
M  V30 2777 H 257.876 5.74341 -1.24123 0
M  V30 2778 H 259.4 6.09433 -0.377355 0
M  V30 2779 H 260.814 5.17999 -2.45663 0
M  V30 2780 H 259.211 5.05277 -3.23752 0
M  V30 2781 H 260.281 3.63962 -3.20406 0
M  V30 2782 N 261.624 0.925811 1.2754 0
M  V30 2783 C 262.87 0.566092 1.94739 0
M  V30 2784 C 263.203 -0.890057 1.72603 0
M  V30 2785 O 262.478 -1.63467 1.05399 0
M  V30 2786 C 262.761 0.89054 3.48915 0
M  V30 2787 C 262.614 2.4003 3.80402 0
M  V30 2788 C 263.933 0.395101 4.38323 0
M  V30 2789 H 261.052 0.20714 0.707292 0
M  V30 2790 H 263.694 1.15725 1.50691 0
M  V30 2791 H 261.844 0.387452 3.86563 0
M  V30 2792 H 263.516 2.97494 3.52555 0
M  V30 2793 H 261.759 2.85028 3.2702 0
M  V30 2794 H 262.43 2.57785 4.8811 0
M  V30 2795 H 264.906 0.826241 4.07814 0
M  V30 2796 H 263.782 0.651086 5.45025 0
M  V30 2797 H 264.043 -0.704798 4.36446 0
M  V30 2798 N 263.102 -1.41638 0.69111 0
M  V30 2799 C 264.342 -2.03166 0.224291 0
M  V30 2800 C 264.706 -1.53537 -1.15284 0
M  V30 2801 O 265.907 -2.0696 -1.71525 0
M  V30 2802 C 264.178 -3.56342 0.274758 0
M  V30 2803 S 265.737 -4.3864 -0.118669 0
M  V30 2804 H 262.555 -0.705188 0.0907263 0
M  V30 2805 H 265.157 -1.7314 0.907895 0
M  V30 2806 H 263.861 -3.89958 1.2791 0
M  V30 2807 H 263.392 -3.91063 -0.428142 0
M  V30 2808 H 265.407 -4.77549 -1.34764 0
M  V30 2809 N 264.58 -0.43555 -1.51462 0
M  V30 2810 C 265.996 -0.0877501 -1.59359 0
M  V30 2811 C 266.196 1.4027 -1.4466 0
M  V30 2812 O 265.252 2.17243 -1.28693 0
M  V30 2813 C 266.565 -0.606264 -2.94525 0
M  V30 2814 C 268.113 -0.566548 -3.0783 0
M  V30 2815 C 268.588 -1.06201 -4.45517 0
M  V30 2816 N 270.079 -1.01992 -4.51832 0
M  V30 2817 C 270.814 -1.37417 -5.5669 0
M  V30 2818 N 270.31 -1.80119 -6.68976 0
M  V30 2819 N 272.103 -1.29245 -5.47039 0
M  V30 2820 H 264.254 -1.40533 -1.59261 0
M  V30 2821 H 266.517 -0.578992 -0.750648 0
M  V30 2822 H 266.223 -1.64901 -3.10645 0
M  V30 2823 H 266.097 -0.0302097 -3.77188 0
M  V30 2824 H 268.484 0.467208 -2.91378 0
M  V30 2825 H 268.565 -1.17898 -2.2701 0
M  V30 2826 H 268.209 -2.09422 -4.62715 0
M  V30 2827 H 268.139 -0.426127 -5.24873 0
M  V30 2828 H 270.63 -0.706308 -3.71241 0
M  V30 2829 H 270.943 -2.05392 -7.45006 0
M  V30 2830 H 269.288 -1.84044 -6.70189 0
M  V30 2831 H 272.479 -0.957522 -4.58202 0
M  V30 2832 H 272.652 -1.57182 -6.28648 0
M  V30 2833 N 266.058 1.56714 -0.166846 0
M  V30 2834 C 266.968 2.21331 0.777791 0
M  V30 2835 C 267.984 1.20358 1.25658 0
M  V30 2836 O 269.16 1.53005 1.30964 0
M  V30 2837 C 266.225 2.83787 1.99163 0
M  V30 2838 C 265.286 3.99947 1.56016 0
M  V30 2839 C 264.519 4.59415 2.71613 0
M  V30 2840 O 264.742 4.17769 3.88362 0
M  V30 2841 O 263.676 5.49359 2.45945 0
M  V30 2842 H 267.502 3.02605 0.257636 0
M  V30 2843 H 265.087 1.49275 0.0611393 0
M  V30 2844 H 266.969 3.23405 2.70161 0
M  V30 2845 H 265.644 2.05513 2.50092 0
M  V30 2846 H 264.551 3.65007 0.819809 0
M  V30 2847 H 265.884 4.79801 1.09782 0
M  V30 2848 N 267.536 -0.106894 1.57237 0
M  V30 2849 C 268.784 -0.810921 1.85117 0
M  V30 2850 C 269.105 -1.7984 0.753827 0
M  V30 2851 O 268.375 -1.94649 -0.221056 0
M  V30 2852 H 266.955 -0.302466 0.683025 0
M  V30 2853 H 269.617 -0.0913324 1.94686 0
M  V30 2854 H 268.713 -1.34875 2.81452 0
M  V30 2855 N 269.014 -1.53014 -0.377408 0
M  V30 2856 C 270.239 -1.72818 -1.14668 0
M  V30 2857 C 270.664 -0.450725 -1.8262 0
M  V30 2858 O 270.022 0.59439 -1.7128 0
M  V30 2859 C 270.07 -2.88627 -2.16164 0
M  V30 2860 O 269.174 -2.56409 -3.22998 0
M  V30 2861 H 268.515 -0.574301 -0.333278 0
M  V30 2862 H 271.045 -1.99853 -0.438152 0
M  V30 2863 H 271.055 -3.14455 -2.59966 0
M  V30 2864 H 269.73 -3.81294 -1.66095 0
M  V30 2865 H 268.307 -2.4136 -2.84253 0
M  V30 2866 N 270.492 0.636531 -1.44174 0
M  V30 2867 C 271.422 1.76003 -1.53444 0
M  V30 2868 C 272.403 1.65619 -0.387841 0
M  V30 2869 O 273.588 1.84461 -0.607257 0
M  V30 2870 C 270.718 3.14511 -1.4731 0
M  V30 2871 C 269.672 3.39677 -2.60391 0
M  V30 2872 C 268.998 4.78159 -2.39308 0
M  V30 2873 C 270.298 3.32772 -4.02567 0
M  V30 2874 H 271.992 1.68501 -2.47483 0
M  V30 2875 H 269.538 0.809237 -1.19111 0
M  V30 2876 H 271.491 3.92878 -1.52397 0
M  V30 2877 H 270.215 3.22783 -0.49785 0
M  V30 2878 H 268.874 2.63688 -2.54684 0
M  V30 2879 H 268.522 4.83128 -1.39988 0
M  V30 2880 H 268.222 4.95956 -3.15122 0
M  V30 2881 H 269.746 5.58762 -2.46205 0
M  V30 2882 H 271.16 4.01051 -4.09672 0
M  V30 2883 H 269.557 3.62104 -4.7854 0
M  V30 2884 H 270.627 2.30669 -4.2652 0
M  V30 2885 N 271.97 1.30982 0.876444 0
M  V30 2886 C 272.933 1.18054 1.96459 0
M  V30 2887 C 273.933 0.109399 1.60427 0
M  V30 2888 O 275.123 0.358173 1.70478 0
M  V30 2889 C 272.255 0.810616 3.31122 0
M  V30 2890 H 273.448 2.14735 2.09354 0
M  V30 2891 H 271.001 1.145 1.06392 0
M  V30 2892 H 271.736 -0.155322 3.23928 0
M  V30 2893 H 271.521 1.58481 3.58645 0
M  V30 2894 H 273.011 0.743876 4.10921 0
M  V30 2895 N 273.449 -1.08991 1.13837 0
M  V30 2896 C 274.396 -2.15748 0.819835 0
M  V30 2897 C 275.366 -1.64636 -0.220026 0
M  V30 2898 O 276.551 -1.90582 -0.0912757 0
M  V30 2899 C 273.691 -3.4382 0.296913 0
M  V30 2900 C 272.804 -4.0881 1.39636 0
M  V30 2901 C 271.939 -5.24655 0.831314 0
M  V30 2902 C 270.978 -5.81575 1.90886 0
M  V30 2903 N 270.115 -6.88774 1.36142 0
M  V30 2904 H 274.955 -2.42338 1.73426 0
M  V30 2905 H 272.492 -1.18935 0.865613 0
M  V30 2906 H 274.45 -4.17193 -0.0244339 0
M  V30 2907 H 273.08 -3.17535 -0.580628 0
M  V30 2908 H 272.132 -3.33258 1.83422 0
M  V30 2909 H 273.444 -4.47141 2.21058 0
M  V30 2910 H 272.598 -6.04942 0.461515 0
M  V30 2911 H 271.337 -4.87698 -0.013932 0
M  V30 2912 H 270.342 -4.99946 2.28767 0
M  V30 2913 H 271.567 -6.20592 2.75758 0
M  V30 2914 H 269.513 -6.53788 0.538254 0
M  V30 2915 H 269.43 -7.25898 2.11208 0
M  V30 2916 H 270.698 -7.72806 1.01933 0
M  V30 2917 N 274.927 -0.932562 -1.27047 0
M  V30 2918 C 275.837 -0.441219 -2.30414 0
M  V30 2919 C 276.853 0.480525 -1.67233 0
M  V30 2920 O 278.029 0.362151 -1.98117 0
M  V30 2921 C 275.094 0.293651 -3.45454 0
M  V30 2922 C 274.155 -0.663601 -4.2414 0
M  V30 2923 C 273.388 0.0362932 -5.33688 0
M  V30 2924 O 273.611 1.2548 -5.56427 0
M  V30 2925 O 272.545 -0.638015 -5.98509 0
M  V30 2926 H 276.371 -1.29962 -2.74488 0
M  V30 2927 H 273.956 -0.6981 -1.32087 0
M  V30 2928 H 275.838 0.707951 -4.15411 0
M  V30 2929 H 274.513 1.12758 -3.03426 0
M  V30 2930 H 273.42 -1.12768 -3.56699 0
M  V30 2931 H 274.753 -1.46489 -4.69896 0
M  V30 2932 N 276.405 1.4127 -0.698611 0
M  V30 2933 C 277.352 2.30773 -0.0352094 0
M  V30 2934 C 278.322 1.47273 0.768111 0
M  V30 2935 O 279.507 1.76053 0.735524 0
M  V30 2936 C 276.647 3.33346 0.893 0
M  V30 2937 C 275.76 4.31924 0.0809695 0
M  V30 2938 C 274.895 5.21566 1.0071 0
M  V30 2939 C 273.934 6.11811 0.188155 0
M  V30 2940 N 273.071 6.93926 1.06825 0
M  V30 2941 H 277.911 2.86943 -0.804207 0
M  V30 2942 H 275.448 1.4132 -0.408294 0
M  V30 2943 H 277.406 3.91368 1.44523 0
M  V30 2944 H 276.036 2.78719 1.62836 0
M  V30 2945 H 275.088 3.75825 -0.588224 0
M  V30 2946 H 276.4 4.95716 -0.553801 0
M  V30 2947 H 275.554 5.84437 1.62845 0
M  V30 2948 H 274.293 4.58008 1.67572 0
M  V30 2949 H 273.298 5.47986 -0.446254 0
M  V30 2950 H 274.523 6.77425 -0.476716 0
M  V30 2951 H 272.469 6.32973 1.72283 0
M  V30 2952 H 272.386 7.54416 0.489123 0
M  V30 2953 H 273.654 7.61262 1.67632 0
M  V30 2954 N 277.883 0.443576 1.51229 0
M  V30 2955 C 279.111 -0.11929 2.06556 0
M  V30 2956 C 279.526 -1.35921 1.31038 0
M  V30 2957 O 278.883 -1.78675 0.371704 0
M  V30 2958 C 278.934 -0.435228 3.5887 0
M  V30 2959 O 278.655 0.755486 4.31537 0
M  V30 2960 C 280.156 -1.04808 4.30732 0
M  V30 2961 H 277.376 -0.0051584 0.67098 0
M  V30 2962 H 279.92 0.624453 1.94733 0
M  V30 2963 H 278.075 -1.12887 3.70588 0
M  V30 2964 H 278.489 0.483491 5.22267 0
M  V30 2965 H 279.963 -1.2191 5.3837 0
M  V30 2966 H 280.44 -2.03081 3.89429 0
M  V30 2967 H 281.046 -0.393637 4.23474 0
M  V30 2968 N 279.361 -1.56624 0.175154 0
M  V30 2969 C 280.293 -2.15333 -0.785128 0
M  V30 2970 C 281.306 -1.1099 -1.19101 0
M  V30 2971 O 282.495 -1.38162 -1.13019 0
M  V30 2972 C 279.595 -2.68427 -2.06882 0
M  V30 2973 C 278.768 -3.97466 -1.8259 0
M  V30 2974 C 277.827 -4.35585 -2.95215 0
M  V30 2975 O 276.853 -5.03389 -2.65684 0
M  V30 2976 N 278.055 -3.97457 -4.23094 0
M  V30 2977 H 280.82 -2.98359 -0.283187 0
M  V30 2978 H 278.381 -1.61898 -0.00749817 0
M  V30 2979 H 280.373 -2.90924 -2.81328 0
M  V30 2980 H 278.943 -1.89968 -2.48256 0
M  V30 2981 H 278.163 -3.83307 -0.920287 0
M  V30 2982 H 279.451 -4.81736 -1.63733 0
M  V30 2983 H 278.849 -3.42878 -4.49945 0
M  V30 2984 H 277.406 -4.24947 -4.9423 0
M  V30 2985 N 280.839 0.0985539 -1.57292 0
M  V30 2986 C 282.067 0.816318 -1.90115 0
M  V30 2987 C 282.482 1.72451 -0.768509 0
M  V30 2988 O 281.839 1.80643 0.259687 0
M  V30 2989 C 281.89 1.63259 -3.22535 0
M  V30 2990 O 281.611 0.760934 -4.31441 0
M  V30 2991 C 283.112 2.45372 -3.69199 0
M  V30 2992 H 280.332 0.233595 -0.629027 0
M  V30 2993 H 282.876 0.0768229 -2.04356 0
M  V30 2994 H 281.031 2.32463 -3.09903 0
M  V30 2995 H 281.445 1.32595 -5.07463 0
M  V30 2996 H 282.919 2.98144 -4.64558 0
M  V30 2997 H 283.396 3.23677 -2.96867 0
M  V30 2998 H 284.002 1.81373 -3.84687 0
M  V30 2999 N 282.317 1.53212 0.369288 0
M  V30 3000 C 283.247 1.82365 1.45826 0
M  V30 3001 C 284.228 0.676907 1.56051 0
M  V30 3002 O 285.413 0.926401 1.70679 0
M  V30 3003 C 282.543 2.01023 2.83208 0
M  V30 3004 C 281.497 3.1678 2.8781 0
M  V30 3005 C 280.823 3.20724 4.27832 0
M  V30 3006 C 282.123 4.55447 2.55667 0
M  V30 3007 H 283.817 2.73559 1.21678 0
M  V30 3008 H 281.363 1.3163 0.583911 0
M  V30 3009 H 283.316 2.20001 3.59413 0
M  V30 3010 H 282.04 1.06536 3.08736 0
M  V30 3011 H 280.699 2.97616 2.14056 0
M  V30 3012 H 280.347 2.23882 4.50429 0
M  V30 3013 H 280.047 3.98496 4.31827 0
M  V30 3014 H 281.571 3.41881 5.05915 0
M  V30 3015 H 282.985 4.74611 3.21586 0
M  V30 3016 H 281.382 5.35432 2.70984 0
M  V30 3017 H 282.452 4.60812 1.5093 0
M  V30 3018 N 283.795 -0.628877 1.44509 0
M  V30 3019 C 284.745 -1.7345 1.47983 0
M  V30 3020 C 285.729 -1.5715 0.345373 0
M  V30 3021 O 286.921 -1.66848 0.590829 0
M  V30 3022 C 284.05 -3.12143 1.42904 0
M  V30 3023 C 283.136 -3.33906 2.61472 0
M  V30 3024 N 283.527 -3.26024 3.86706 0
M  V30 3025 C 281.825 -3.64709 2.56716 0
M  V30 3026 C 282.526 -3.48536 4.65722 0
M  V30 3027 N 281.502 -3.71517 3.96832 0
M  V30 3028 H 285.304 -1.65818 2.42655 0
M  V30 3029 H 282.818 -0.831419 1.39503 0
M  V30 3030 H 284.815 -3.91433 1.43476 0
M  V30 3031 H 283.475 -3.2094 0.492717 0
M  V30 3032 H 284.486 -3.04893 4.18641 0
M  V30 3033 H 281.163 -3.80473 1.71891 0
M  V30 3034 H 282.553 -3.48016 5.74747 0
M  V30 3035 N 285.273 -1.31445 -0.869486 0
M  V30 3036 C 286.22 -1.19135 -1.97675 0
M  V30 3037 C 287.19 -0.0770266 -1.65921 0
M  V30 3038 O 288.375 -0.249972 -1.89155 0
M  V30 3039 C 285.515 -0.905149 -3.33018 0
M  V30 3040 C 284.628 -2.10285 -3.77365 0
M  V30 3041 C 283.763 -1.75339 -5.01427 0
M  V30 3042 C 282.802 -2.91515 -5.38224 0
M  V30 3043 N 281.939 -2.56762 -6.53466 0
M  V30 3044 H 286.779 -2.13853 -2.07535 0
M  V30 3045 H 284.316 -1.06379 -1.01597 0
M  V30 3046 H 286.274 -0.719765 -4.10944 0
M  V30 3047 H 284.904 0.00519624 -3.228 0
M  V30 3048 H 283.956 -2.39899 -2.95216 0
M  V30 3049 H 285.268 -2.97237 -4.00564 0
M  V30 3050 H 284.422 -1.53266 -5.87022 0
M  V30 3051 H 283.161 -0.855801 -4.80133 0
M  V30 3052 H 282.166 -3.14237 -4.51149 0
M  V30 3053 H 283.391 -3.81985 -5.61484 0
M  V30 3054 H 281.337 -1.69526 -6.33717 0
M  V30 3055 H 281.254 -3.37243 -6.76612 0
M  V30 3056 H 282.522 -2.38083 -7.42251 0
M  V30 3057 N 286.751 1.08385 -1.14413 0
M  V30 3058 C 287.998 1.80776 -0.912482 0
M  V30 3059 C 288.326 1.86236 0.560934 0
M  V30 3060 O 287.581 1.33431 1.43159 0
M  V30 3061 C 287.88 3.26273 -1.45879 0
M  V30 3062 C 287.546 3.4093 -2.95089 0
M  V30 3063 C 286.208 3.44638 -3.35824 0
M  V30 3064 C 288.56 3.44591 -3.91033 0
M  V30 3065 C 285.888 3.49597 -4.71167 0
M  V30 3066 C 288.24 3.51086 -5.26233 0
M  V30 3067 C 286.904 3.53067 -5.6648 0
M  V30 3068 H 286.174 0.661507 -0.333901 0
M  V30 3069 H 288.821 1.27613 -1.42784 0
M  V30 3070 H 287.126 3.82146 -0.864376 0
M  V30 3071 H 288.823 3.80839 -1.2555 0
M  V30 3072 H 285.413 3.38736 -2.62594 0
M  V30 3073 H 289.597 3.40957 -3.60641 0
M  V30 3074 H 284.853 3.49424 -5.0171 0
M  V30 3075 H 289.027 3.52864 -6.00383 0
M  V30 3076 H 286.654 3.56662 -6.71339 0
M  V30 3077 N 288.23 0.939286 1.26551 0
M  V30 3078 C 289.479 0.581601 1.93133 0
M  V30 3079 C 289.792 -0.883224 1.74524 0
M  V30 3080 O 290.998 -1.3502 2.35546 0
M  V30 3081 C 289.454 0.989425 3.46032 0
M  V30 3082 C 289.062 2.47573 3.73379 0
M  V30 3083 C 290.806 0.703544 4.18629 0
M  V30 3084 C 288.713 2.82235 5.19709 0
M  V30 3085 H 287.643 0.213803 0.723052 0
M  V30 3086 H 290.294 1.14167 1.4366 0
M  V30 3087 H 288.676 0.357902 3.94379 0
M  V30 3088 H 289.85 3.15614 3.35744 0
M  V30 3089 H 288.165 2.73471 3.1401 0
M  V30 3090 H 290.762 0.938869 5.26393 0
M  V30 3091 H 291.105 -0.359639 4.14744 0
M  V30 3092 H 291.638 1.2947 3.76141 0
M  V30 3093 H 288.377 3.87509 5.28694 0
M  V30 3094 H 287.897 2.18854 5.58447 0
M  V30 3095 H 289.576 2.70599 5.87695 0
M  V30 3096 N 289.708 -1.40897 0.706093 0
M  V30 3097 C 290.638 -2.33418 0.0620085 0
M  V30 3098 C 291.619 -1.52385 -0.755827 0
M  V30 3099 O 292.804 -1.80886 -0.706674 0
M  V30 3100 C 289.934 -3.36293 -0.867445 0
M  V30 3101 C 288.888 -4.27716 -0.155932 0
M  V30 3102 C 288.214 -5.2105 -1.20046 0
M  V30 3103 C 289.514 -5.12944 0.984149 0
M  V30 3104 H 291.208 -2.87527 0.83477 0
M  V30 3105 H 288.754 -1.38249 0.402875 0
M  V30 3106 H 290.707 -3.99949 -1.32735 0
M  V30 3107 H 289.431 -2.80556 -1.67199 0
M  V30 3108 H 288.09 -3.65498 0.284047 0
M  V30 3109 H 287.738 -4.61624 -1.99781 0
M  V30 3110 H 287.438 -5.83056 -0.729328 0
M  V30 3111 H 288.962 -5.87584 -1.66066 0
M  V30 3112 H 290.376 -5.70109 0.604048 0
M  V30 3113 H 288.773 -5.83945 1.38304 0
M  V30 3114 H 289.843 -4.49485 1.81911 0
M  V30 3115 N 291.186 -0.45159 -1.50991 0
M  V30 3116 C 292.116 0.342898 -2.30969 0
M  V30 3117 C 293.097 1.00815 -1.37005 0
M  V30 3118 O 294.282 1.00907 -1.65926 0
M  V30 3119 C 291.412 1.43637 -3.16205 0
M  V30 3120 C 290.366 0.893818 -4.18563 0
M  V30 3121 C 289.692 2.08411 -4.92411 0
M  V30 3122 C 290.992 -0.0815568 -5.22236 0
M  V30 3123 H 292.686 -0.324556 -2.97636 0
M  V30 3124 H 290.232 -0.157531 -1.43136 0
M  V30 3125 H 292.185 1.9995 -3.70942 0
M  V30 3126 H 290.909 2.13232 -2.47386 0
M  V30 3127 H 289.568 0.352798 -3.64898 0
M  V30 3128 H 289.216 2.76658 -4.20082 0
M  V30 3129 H 288.916 1.72741 -5.61636 0
M  V30 3130 H 290.44 2.65251 -5.49976 0
M  V30 3131 H 291.854 0.391742 -5.7196 0
M  V30 3132 H 290.251 -0.351551 -5.99069 0
M  V30 3133 H 291.321 -1.01374 -4.74185 0
M  V30 3134 N 292.664 1.56529 -0.183458 0
M  V30 3135 C 293.911 1.97244 0.458357 0
M  V30 3136 C 294.239 1.06992 1.62428 0
M  V30 3137 O 293.494 0.106542 1.9541 0
M  V30 3138 C 293.793 3.43939 0.971637 0
M  V30 3139 C 293.459 4.5083 -0.0796784 0
M  V30 3140 C 292.121 4.79786 -0.368584 0
M  V30 3141 C 294.473 5.15138 -0.792638 0
M  V30 3142 C 291.801 5.70345 -1.37563 0
M  V30 3143 C 294.153 6.06784 -1.78875 0
M  V30 3144 C 292.817 6.34102 -2.08497 0
M  V30 3145 H 292.087 0.721768 0.167725 0
M  V30 3146 H 294.734 1.89472 -0.277976 0
M  V30 3147 H 293.039 3.48724 1.78602 0
M  V30 3148 H 294.736 3.72791 1.47744 0
M  V30 3149 H 291.326 4.28317 0.155668 0
M  V30 3150 H 295.51 4.92868 -0.582659 0
M  V30 3151 H 290.766 5.89789 -1.61118 0
M  V30 3152 H 294.94 6.55677 -2.3465 0
M  V30 3153 H 292.567 7.04074 -2.86678 0
M  V30 3154 N 294.142 -0.090211 1.57342 0
M  V30 3155 C 295.105 -1.09335 2.01441 0
M  V30 3156 C 296.105 -1.32666 0.908641 0
M  V30 3157 O 297.295 -1.28697 1.174 0
M  V30 3158 C 294.427 -2.44136 2.3793 0
M  V30 3159 H 295.62 -0.713662 2.91285 0
M  V30 3160 H 293.173 -0.335404 1.52659 0
M  V30 3161 H 293.908 -2.86972 1.51055 0
M  V30 3162 H 293.693 -2.28548 3.18603 0
M  V30 3163 H 295.183 -3.16277 2.72688 0
M  V30 3164 N 295.62 -1.53406 -0.361157 0
M  V30 3165 C 296.866 -1.70054 -1.10496 0
M  V30 3166 C 297.199 -0.453278 -1.88836 0
M  V30 3167 O 296.474 0.5495 -1.86576 0
M  V30 3168 C 296.757 -2.95317 -2.06058 0
M  V30 3169 C 296.61 -4.3021 -1.31298 0
M  V30 3170 C 297.929 -3.16193 -3.06121 0
M  V30 3171 H 295.048 -0.618799 -0.400321 0
M  V30 3172 H 297.69 -1.86052 -0.385318 0
M  V30 3173 H 295.84 -2.81809 -2.67425 0
M  V30 3174 H 297.512 -4.55538 -0.726807 0
M  V30 3175 H 295.755 -4.29421 -0.614853 0
M  V30 3176 H 296.426 -5.14 -2.01265 0
M  V30 3177 H 298.902 -3.28916 -2.5486 0
M  V30 3178 H 297.778 -4.05266 -3.70204 0
M  V30 3179 H 298.039 -2.31676 -3.76535 0
M  V30 3180 N 297.098 0.621204 -1.44841 0
M  V30 3181 C 298.345 1.38055 -1.48145 0
M  V30 3182 C 298.673 1.94143 -0.117867 0
M  V30 3183 O 297.928 1.74713 0.881694 0
M  V30 3184 C 298.227 2.55675 -2.4973 0
M  V30 3185 C 297.893 2.17817 -3.94799 0
M  V30 3186 C 296.555 2.07205 -4.34303 0
M  V30 3187 C 298.907 1.88065 -4.86087 0
M  V30 3188 C 296.235 1.65045 -5.63007 0
M  V30 3189 C 298.587 1.47394 -6.15189 0
M  V30 3190 C 297.251 1.35331 -6.53637 0
M  V30 3191 H 296.521 0.505181 -0.542101 0
M  V30 3192 H 299.168 0.703477 -1.78111 0
M  V30 3193 H 297.473 3.2866 -2.13284 0
M  V30 3194 H 299.17 3.13904 -2.4953 0
M  V30 3195 H 295.76 2.26998 -3.63552 0
M  V30 3196 H 299.944 1.95168 -4.56315 0
M  V30 3197 H 295.2 1.54317 -5.91605 0
M  V30 3198 H 299.374 1.23415 -6.85377 0
M  V30 3199 H 297.001 1.02435 -7.53267 0
M  V30 3200 N 298.576 1.31904 0.862503 0
M  V30 3201 C 299.853 1.12644 1.59908 0
M  V30 3202 C 300.233 -0.316104 2.0872 0
M  V30 3203 O 299.581 -1.31145 1.87118 0
M  V30 3204 C 299.791 2.1472 2.7513 0
M  V30 3205 C 301.139 2.47637 3.44907 0
M  V30 3206 O 302.163 2.13205 2.85346 0
M  V30 3207 O 301.022 3.06632 4.52371 0
M  V30 3208 H 298.116 0.43416 0.703871 0
M  V30 3209 H 300.662 1.43408 0.907314 0
M  V30 3210 H 299.434 3.1172 2.3653 0
M  V30 3211 H 299.057 1.84905 3.51989 0
M  V30 3212 N 300.054 -1.07777 1.14986 0
M  V30 3213 C 300.964 -2.18404 0.856546 0
M  V30 3214 C 301.98 -1.73211 -0.165485 0
M  V30 3215 O 303.156 -2.01399 0.00755219 0
M  V30 3216 C 300.221 -3.44977 0.34526 0
M  V30 3217 C 299.282 -4.0476 1.43065 0
M  V30 3218 C 298.515 -5.25291 0.943663 0
M  V30 3219 O 298.738 -5.70004 -0.212426 0
M  V30 3220 O 297.672 -5.76638 1.72547 0
M  V30 3221 H 301.498 -2.45978 1.78125 0
M  V30 3222 H 299.083 -1.17033 0.928631 0
M  V30 3223 H 300.965 -4.21348 0.0663671 0
M  V30 3224 H 299.64 -3.18965 -0.551631 0
M  V30 3225 H 298.547 -3.29949 1.76309 0
M  V30 3226 H 299.88 -4.35035 2.30229 0
M  V30 3227 N 301.532 -0.945985 -1.26051 0
M  V30 3228 C 302.78 -0.594941 -1.93145 0
M  V30 3229 C 303.101 0.86953 -1.7454 0
M  V30 3230 O 302.371 1.61838 -1.10387 0
M  V30 3231 H 300.951 -0.217044 -0.714773 0
M  V30 3232 H 303.613 -1.20235 -1.53393 0
M  V30 3233 H 302.709 -0.816835 -3.01221 0
M  V30 3234 N 303.011 1.40521 -0.713556 0
M  V30 3235 C 303.958 2.30723 -0.059684 0
M  V30 3236 C 304.928 1.48079 0.752448 0
M  V30 3237 O 306.113 1.76823 0.71681 0
M  V30 3238 C 303.253 3.34274 0.857594 0
M  V30 3239 C 302.366 4.31986 0.0351536 0
M  V30 3240 C 301.501 5.22605 0.951724 0
M  V30 3241 C 300.54 6.11976 0.123253 0
M  V30 3242 N 299.677 6.9502 0.99459 0
M  V30 3243 H 304.517 2.86074 -0.834596 0
M  V30 3244 H 302.054 1.40879 -0.42326 0
M  V30 3245 H 304.012 3.92879 1.40364 0
M  V30 3246 H 302.642 2.8043 1.59871 0
M  V30 3247 H 301.694 3.7518 -0.628052 0
M  V30 3248 H 303.006 4.95101 -0.606347 0
M  V30 3249 H 302.16 5.86131 1.56638 0
M  V30 3250 H 300.899 4.59759 1.62705 0
M  V30 3251 H 299.904 5.47482 -0.50435 0
M  V30 3252 H 301.129 6.76881 -0.548539 0
M  V30 3253 H 299.075 6.34764 1.6556 0
M  V30 3254 H 298.992 7.54892 0.40908 0
M  V30 3255 H 300.26 7.62997 1.59549 0
M  V30 3256 N 304.489 0.459591 1.5075 0
M  V30 3257 C 305.714 -0.0996819 2.0716 0
M  V30 3258 C 306.139 -1.33761 1.32249 0
M  V30 3259 O 305.497 -1.77551 0.366786 0
M  V30 3260 C 305.545 -0.378226 3.58611 0
M  V30 3261 O 304.649 -1.46081 3.85661 0
M  V30 3262 H 303.99 0.00791392 0.663953 0
M  V30 3263 H 306.52 0.647329 1.9409 0
M  V30 3264 H 306.53 -0.622135 4.03229 0
M  V30 3265 H 305.205 0.526439 4.12555 0
M  V30 3266 H 303.782 -1.20511 3.5289 0
M  V30 3267 N 305.967 -1.56429 0.191757 0
M  V30 3268 C 307.213 -1.98541 -0.441943 0
M  V30 3269 C 307.568 -1.07646 -1.59468 0
M  V30 3270 O 306.861 -0.120191 -1.91223 0
M  V30 3271 C 307.055 -3.44449 -0.953384 0
M  V30 3272 C 306.884 -4.49456 0.148262 0
M  V30 3273 C 305.654 -5.01668 0.604781 0
M  V30 3274 C 307.852 -5.05336 0.95602 0
M  V30 3275 N 305.834 -5.90334 1.6846 0
M  V30 3276 C 307.205 -5.9064 1.88531 0
M  V30 3277 C 309.26 -4.87779 0.998811 0
M  V30 3278 C 307.963 -6.60264 2.85383 0
M  V30 3279 C 309.989 -5.58139 1.95537 0
M  V30 3280 C 309.351 -6.43187 2.8721 0
M  V30 3281 H 305.45 -0.771247 -0.129236 0
M  V30 3282 H 308.034 -1.92426 0.296682 0
M  V30 3283 H 306.205 -3.5107 -1.66146 0
M  V30 3284 H 307.937 -3.73533 -1.55741 0
M  V30 3285 H 304.692 -4.73183 0.198736 0
M  V30 3286 H 305.116 -6.39371 2.22561 0
M  V30 3287 H 309.758 -4.21705 0.304048 0
M  V30 3288 H 307.476 -7.25538 3.55837 0
M  V30 3289 H 311.062 -5.46532 1.99484 0
M  V30 3290 H 309.942 -6.96674 3.60022 0
M  V30 3291 N 307.445 0.0818655 -1.57387 0
M  V30 3292 C 308.395 1.10501 -1.99433 0
M  V30 3293 C 309.379 1.35041 -0.874798 0
M  V30 3294 O 310.571 1.35511 -1.13868 0
M  V30 3295 C 307.7 2.42159 -2.43339 0
M  V30 3296 C 306.786 2.20937 -3.62005 0
M  V30 3297 N 307.177 1.69616 -4.76512 0
M  V30 3298 C 305.475 2.51451 -3.68359 0
M  V30 3299 C 306.176 1.62973 -5.58404 0
M  V30 3300 N 305.152 2.08664 -5.01956 0
M  V30 3301 H 308.954 0.701373 -2.85408 0
M  V30 3302 H 306.468 0.289096 -1.59806 0
M  V30 3303 H 308.465 3.16208 -2.71695 0
M  V30 3304 H 307.125 2.83249 -1.58746 0
M  V30 3305 H 308.136 1.38624 -4.99003 0
M  V30 3306 H 304.813 2.95975 -2.94457 0
M  V30 3307 H 306.203 1.24233 -6.60315 0
M  V30 3308 N 308.923 1.53595 0.353017 0
M  V30 3309 C 310.148 1.7462 1.11904 0
M  V30 3310 C 310.573 0.479721 1.8188 0
M  V30 3311 O 309.931 -0.567066 1.72204 0
M  V30 3312 C 309.979 2.92029 2.11545 0
M  V30 3313 O 309.083 2.61516 3.18878 0
M  V30 3314 H 308.424 0.579531 0.324099 0
M  V30 3315 H 310.954 2.00525 0.406301 0
M  V30 3316 H 310.964 3.18551 2.5493 0
M  V30 3317 H 309.639 3.83888 1.60008 0
M  V30 3318 H 308.216 2.45852 2.80377 0
M  V30 3319 N 310.401 -0.613514 1.45168 0
M  V30 3320 C 311.311 -1.75296 1.55912 0
M  V30 3321 C 312.327 -1.68244 0.443856 0
M  V30 3322 O 313.503 -1.88706 0.70371 0
M  V30 3323 C 310.568 -3.1174 1.5172 0
M  V30 3324 C 309.629 -3.30291 2.74238 0
M  V30 3325 C 308.862 -4.60226 2.70236 0
M  V30 3326 O 309.085 -5.42168 1.77229 0
M  V30 3327 O 308.019 -4.81361 3.61352 0
M  V30 3328 H 311.845 -1.69183 2.52212 0
M  V30 3329 H 309.43 -0.776886 1.27612 0
M  V30 3330 H 311.312 -3.93044 1.51968 0
M  V30 3331 H 309.987 -3.18357 0.585697 0
M  V30 3332 H 308.894 -2.48598 2.79553 0
M  V30 3333 H 310.227 -3.28547 3.66494 0
M  V30 3334 N 311.879 -1.3236 -0.855495 0
M  V30 3335 C 313.107 -1.2587 -1.64208 0
M  V30 3336 C 313.522 0.173457 -1.88002 0
M  V30 3337 O 312.879 1.11027 -1.44842 0
M  V30 3338 C 312.93 -2.01424 -3.00184 0
M  V30 3339 O 312.651 -3.39051 -2.77445 0
M  V30 3340 C 314.152 -2.01948 -3.94629 0
M  V30 3341 H 311.372 -0.434318 -0.511477 0
M  V30 3342 H 313.916 -1.74469 -1.0668 0
M  V30 3343 H 312.071 -1.56549 -3.5436 0
M  V30 3344 H 312.485 -3.77711 -3.63916 0
M  V30 3345 H 313.959 -2.59297 -4.87308 0
M  V30 3346 H 314.436 -1.00554 -4.27534 0
M  V30 3347 H 315.042 -2.46767 -3.4639 0
M  V30 3348 N 313.357 1.07166 -1.15556 0
M  V30 3349 C 314.304 2.14417 -0.854055 0
M  V30 3350 C 315.274 1.64965 0.193806 0
M  V30 3351 O 316.459 1.90703 0.0609443 0
M  V30 3352 C 313.599 3.43304 -0.351574 0
M  V30 3353 C 312.712 4.06537 -1.46123 0
M  V30 3354 C 311.847 5.23266 -0.914677 0
M  V30 3355 C 310.886 5.78464 -2.00114 0
M  V30 3356 N 310.023 6.86521 -1.47083 0
M  V30 3357 H 314.863 2.39548 -1.77259 0
M  V30 3358 H 312.4 1.17543 -0.884425 0
M  V30 3359 H 314.358 4.17179 -0.0419409 0
M  V30 3360 H 312.988 3.18419 0.530037 0
M  V30 3361 H 312.04 3.30297 -1.88701 0
M  V30 3362 H 313.352 4.43567 -2.28144 0
M  V30 3363 H 312.506 6.04131 -0.557698 0
M  V30 3364 H 311.245 4.87658 -0.0636583 0
M  V30 3365 H 310.25 4.96243 -2.36692 0
M  V30 3366 H 311.475 6.16126 -2.85597 0
M  V30 3367 H 309.421 6.52849 -0.642198 0
M  V30 3368 H 309.338 7.22446 -2.22729 0
M  V30 3369 H 310.606 7.71087 -1.14215 0
M  V30 3370 N 314.835 0.952656 1.25548 0
M  V30 3371 C 315.783 0.462354 2.27958 0
M  V30 3372 C 316.777 -0.46634 1.62855 0
M  V30 3373 O 317.983 -0.343287 1.76696 0
M  V30 3374 H 314.358 0.13101 0.7405 0
M  V30 3375 H 316.329 1.33839 2.66702 0
M  V30 3376 C 315.078 -0.24628 3.46827 0
M  V30 3377 H 314.401 0.459192 3.97154 0
M  V30 3378 H 315.841 -0.553393 4.20373 0
M  V30 3379 C 314.3 -1.4681 3.0323 0
M  V30 3380 O 314.83 -2.56591 3.09069 0
M  V30 3381 N 313.036 -1.32874 2.58443 0
M  V30 3382 H 312.583 -0.435536 2.53891 0
M  V30 3383 H 312.541 -2.14742 2.29637 0
M  V30 3384 N 316.313 -1.40141 0.720998 0
M  V30 3385 C 317.538 -2.05618 0.271258 0
M  V30 3386 C 317.963 -1.53978 -1.08039 0
M  V30 3387 O 317.321 -0.677463 -1.68167 0
M  V30 3388 C 317.369 -3.59609 0.267197 0
M  V30 3389 O 316.473 -4.05526 -0.749814 0
M  V30 3390 H 315.814 -0.651904 0.126162 0
M  V30 3391 H 318.344 -1.79439 0.982997 0
M  V30 3392 H 318.354 -4.0786 0.106744 0
M  V30 3393 H 317.029 -3.96559 1.25354 0
M  V30 3394 H 315.606 -3.68722 -0.556644 0
M  V30 3395 N 317.792 -0.46758 -1.50504 0
M  V30 3396 C 318.722 0.318381 -2.31319 0
M  V30 3397 C 319.703 0.993564 -1.38066 0
M  V30 3398 O 320.888 0.991411 -1.66987 0
M  V30 3399 C 318.018 1.40275 -3.17711 0
M  V30 3400 C 316.972 0.849373 -4.19487 0
M  V30 3401 C 316.298 2.03177 -4.94594 0
M  V30 3402 C 317.598 -0.136942 -5.2212 0
M  V30 3403 H 319.292 -0.356106 -2.97275 0
M  V30 3404 H 316.838 -0.172703 -1.42961 0
M  V30 3405 H 318.791 1.96004 -3.73042 0
M  V30 3406 H 317.515 2.10596 -2.49634 0
M  V30 3407 H 316.174 0.314076 -3.65252 0
M  V30 3408 H 315.822 2.72187 -4.22993 0
M  V30 3409 H 315.522 1.66774 -5.63436 0
M  V30 3410 H 317.046 2.59403 -5.52759 0
M  V30 3411 H 318.46 0.331056 -5.72343 0
M  V30 3412 H 316.857 -0.41507 -5.98663 0
M  V30 3413 H 317.927 -1.06398 -4.73083 0
M  V30 3414 N 319.27 1.56325 -0.20005 0
M  V30 3415 C 320.203 2.15234 0.758267 0
M  V30 3416 C 321.181 1.09046 1.20614 0
M  V30 3417 O 322.365 1.37186 1.29276 0
M  V30 3418 C 319.492 2.71524 2.02466 0
M  V30 3419 C 318.538 3.90345 1.71852 0
M  V30 3420 S 319.371 5.28513 0.862249 0
M  V30 3421 C 320.527 5.88227 2.13868 0
M  V30 3422 H 320.76 2.96183 0.2575 0
M  V30 3423 H 318.293 1.54393 0.0150099 0
M  V30 3424 H 320.251 3.04598 2.75191 0
M  V30 3425 H 318.912 1.90607 2.49655 0
M  V30 3426 H 318.105 4.28158 2.65888 0
M  V30 3427 H 317.707 3.58306 1.07205 0
M  V30 3428 H 319.999 6.02891 3.09076 0
M  V30 3429 H 320.942 6.84714 1.80479 0
M  V30 3430 H 321.35 5.16874 2.2694 0
M  V30 3431 N 320.748 -0.0735177 1.57428 0
M  V30 3432 C 321.68 -1.11423 2.00294 0
M  V30 3433 C 322.693 -1.35084 0.908637 0
M  V30 3434 O 323.882 -1.33355 1.18654 0
M  V30 3435 C 320.982 -2.46548 2.32523 0
M  V30 3436 C 320.155 -2.42867 3.63778 0
M  V30 3437 C 319.214 -3.60087 3.83697 0
M  V30 3438 O 318.24 -3.41595 4.55304 0
M  V30 3439 N 319.442 -4.80372 3.25919 0
M  V30 3440 H 322.207 -0.749206 2.90184 0
M  V30 3441 H 319.768 -0.262195 1.59763 0
M  V30 3442 H 321.76 -3.23607 2.43024 0
M  V30 3443 H 320.33 -2.75059 1.48531 0
M  V30 3444 H 319.55 -1.51206 3.64047 0
M  V30 3445 H 320.838 -2.37506 4.49965 0
M  V30 3446 H 320.236 -4.983 2.67795 0
M  V30 3447 H 318.793 -5.54948 3.41871 0
M  V30 3448 N 322.226 -1.5378 -0.344866 0
M  V30 3449 C 323.503 -1.61589 -1.10219 0
M  V30 3450 C 323.883 -0.436316 -2.06542 0
M  V30 3451 O 323.231 0.571543 -2.21237 0
M  V30 3452 C 323.441 -2.97602 -1.82301 0
M  V30 3453 C 324.789 -3.5291 -2.36093 0
M  V30 3454 O 325.813 -2.99768 -1.924 0
M  V30 3455 O 324.672 -4.45859 -3.16026 0
M  V30 3456 H 321.766 -0.653522 -0.506792 0
M  V30 3457 H 324.312 -1.66126 -0.346465 0
M  V30 3458 H 323.084 -3.74893 -1.12121 0
M  V30 3459 H 322.707 -2.9665 -2.64735 0
M  V30 3460 N 323.704 0.605807 -1.45491 0
M  V30 3461 C 325.12 0.926751 -1.29936 0
M  V30 3462 C 325.32 1.99896 -0.253706 0
M  V30 3463 O 324.376 2.50038 0.351737 0
M  V30 3464 C 325.689 1.36599 -2.67883 0
M  V30 3465 C 327.237 1.4801 -2.75793 0
M  V30 3466 C 327.712 1.95309 -4.14268 0
M  V30 3467 N 329.203 2.0254 -4.16571 0
M  V30 3468 C 329.938 2.40363 -5.20589 0
M  V30 3469 N 329.434 2.77143 -6.34952 0
M  V30 3470 N 331.227 2.40718 -5.07948 0
M  V30 3471 H 323.378 -0.102862 -2.12151 0
M  V30 3472 H 325.641 0.016639 -0.947854 0
M  V30 3473 H 325.347 0.652306 -3.45598 0
M  V30 3474 H 325.221 2.33215 -2.96463 0
M  V30 3475 H 327.608 2.1847 -1.98381 0
M  V30 3476 H 327.689 0.497041 -2.50925 0
M  V30 3477 H 327.333 1.25436 -4.92167 0
M  V30 3478 H 327.263 2.94532 -4.3653 0
M  V30 3479 H 329.754 1.76699 -3.34045 0
M  V30 3480 H 330.067 3.0489 -7.10114 0
M  V30 3481 H 328.412 2.74834 -6.3835 0
M  V30 3482 H 331.603 2.11392 -4.1765 0
M  V30 3483 H 331.776 2.69869 -5.89131 0
M  V30 3484 N 325.182 1.32811 0.848464 0
M  V30 3485 C 326.459 1.14334 1.58704 0
M  V30 3486 C 326.839 -0.293948 2.09043 0
M  V30 3487 O 326.187 -1.29153 1.88499 0
M  V30 3488 C 326.397 2.17626 2.72837 0
M  V30 3489 C 327.745 2.51282 3.42261 0
M  V30 3490 O 328.769 2.16219 2.83068 0
M  V30 3491 O 327.628 3.11413 4.49093 0
M  V30 3492 H 324.722 0.441601 0.699226 0
M  V30 3493 H 327.268 1.44362 0.892053 0
M  V30 3494 H 326.04 3.14211 2.3321 0
M  V30 3495 H 325.663 1.88628 3.50008 0
M  V30 3496 N 326.66 -1.06551 1.16123 0
M  V30 3497 C 327.623 -2.12132 0.867906 0
M  V30 3498 C 328.623 -1.60224 -0.135944 0
M  V30 3499 O 329.813 -1.73943 0.0946422 0
M  V30 3500 C 326.945 -3.396 0.297419 0
M  V30 3501 H 328.138 -2.39586 1.80385 0
M  V30 3502 H 325.691 -1.22574 0.969812 0
M  V30 3503 H 326.426 -3.17794 -0.64633 0
M  V30 3504 H 326.211 -3.78581 1.02073 0
M  V30 3505 H 327.701 -4.17455 0.110052 0
M  V30 3506 N 328.138 -0.959301 -1.25041 0
M  V30 3507 C 329.101 -0.487677 -2.23952 0
M  V30 3508 C 330.101 0.41119 -1.55454 0
M  V30 3509 O 331.291 0.207825 -1.72956 0
M  V30 3510 C 328.423 0.294807 -3.39623 0
M  V30 3511 H 329.616 -1.36198 -2.67189 0
M  V30 3512 H 327.169 -0.743042 -1.37508 0
M  V30 3513 H 327.904 1.18658 -3.01813 0
M  V30 3514 H 327.689 -0.35012 -3.90534 0
M  V30 3515 H 329.179 0.614089 -4.1306 0
M  V30 3516 N 329.616 1.39756 -0.72842 0
M  V30 3517 C 330.841 2.05472 -0.282159 0
M  V30 3518 C 331.266 1.54549 1.07221 0
M  V30 3519 O 330.624 0.686372 1.67805 0
M  V30 3520 C 330.672 3.59462 -0.286264 0
M  V30 3521 O 329.776 4.05918 0.728298 0
M  V30 3522 H 329.117 0.651226 -0.129618 0
M  V30 3523 H 331.647 1.78915 -0.992499 0
M  V30 3524 H 331.657 4.07798 -0.128373 0
M  V30 3525 H 330.332 3.95889 -1.27456 0
M  V30 3526 H 328.909 3.69012 0.537081 0
M  V30 3527 N 331.094 0.475555 1.50254 0
M  V30 3528 C 332.057 -0.305016 2.27161 0
M  V30 3529 C 333.057 -0.916519 1.32123 0
M  V30 3530 O 334.247 -0.785003 1.5551 0
M  V30 3531 C 331.379 -1.43496 3.09227 0
M  V30 3532 H 332.572 0.369511 2.97615 0
M  V30 3533 H 330.125 0.229747 1.54602 0
M  V30 3534 H 330.86 -2.14441 2.43281 0
M  V30 3535 H 330.645 -1.00223 3.79075 0
M  V30 3536 H 332.135 -1.98548 3.67381 0
M  V30 3537 N 332.573 -1.56217 0.208337 0
M  V30 3538 C 333.989 -1.58919 -0.14729 0
M  V30 3539 C 334.189 -1.22486 -1.59998 0
M  V30 3540 O 333.245 -0.953849 -2.3379 0
M  V30 3541 C 334.558 -3.00236 0.167048 0
M  V30 3542 C 336.106 -3.12813 0.108219 0
M  V30 3543 C 336.581 -4.56284 0.396049 0
M  V30 3544 N 338.072 -4.61912 0.345142 0
M  V30 3545 C 338.807 -5.70837 0.541523 0
M  V30 3546 N 338.303 -6.88178 0.798968 0
M  V30 3547 N 340.096 -5.60091 0.474867 0
M  V30 3548 H 332.247 -1.78177 1.15614 0
M  V30 3549 H 334.51 -0.827555 0.462446 0
M  V30 3550 H 334.216 -3.31499 1.1748 0
M  V30 3551 H 334.09 -3.7354 -0.524184 0
M  V30 3552 H 336.477 -2.81354 -0.890157 0
M  V30 3553 H 336.558 -2.41866 0.832729 0
M  V30 3554 H 336.202 -4.88458 1.3918 0
M  V30 3555 H 336.132 -5.25439 -0.349502 0
M  V30 3556 H 338.623 -3.77589 0.153316 0
M  V30 3557 H 338.936 -7.67095 0.93727 0
M  V30 3558 H 337.281 -6.89953 0.836013 0
M  V30 3559 H 340.472 -4.67297 0.274064 0
M  V30 3560 H 340.645 -6.44917 0.631326 0
M  V30 3561 N 334.051 0.0651679 -1.57465 0
M  V30 3562 C 335.014 1.06117 -2.03155 0
M  V30 3563 C 336.014 1.31204 -0.929632 0
M  V30 3564 O 337.204 1.26813 -1.19432 0
M  V30 3565 C 334.336 2.4032 -2.41783 0
M  V30 3566 H 335.529 0.667231 -2.92383 0
M  V30 3567 H 333.082 0.311075 -1.53173 0
M  V30 3568 H 333.817 2.84532 -1.55601 0
M  V30 3569 H 333.602 2.23451 -3.22199 0
M  V30 3570 H 335.092 3.11898 -2.77685 0
M  V30 3571 N 335.529 1.53961 0.336706 0
M  V30 3572 C 336.775 1.7273 1.07406 0
M  V30 3573 C 337.13 0.488095 1.86106 0
M  V30 3574 O 336.423 -0.519379 1.84426 0
M  V30 3575 C 336.617 2.93493 2.03953 0
M  V30 3576 C 336.446 4.29039 1.34744 0
M  V30 3577 C 335.216 4.93416 1.08942 0
M  V30 3578 C 337.414 5.08501 0.770115 0
M  V30 3579 N 335.396 6.12821 0.363864 0
M  V30 3580 C 336.767 6.19752 0.175472 0
M  V30 3581 C 338.822 4.93349 0.671633 0
M  V30 3582 C 337.525 7.17503 -0.508081 0
M  V30 3583 C 339.551 5.914 0.0018076 0
M  V30 3584 C 338.913 7.01993 -0.581835 0
M  V30 3585 H 335.012 0.685026 0.377177 0
M  V30 3586 H 337.596 1.91403 0.356815 0
M  V30 3587 H 335.767 2.76308 2.72962 0
M  V30 3588 H 337.499 3.00949 2.70577 0
M  V30 3589 H 334.254 4.53099 1.37833 0
M  V30 3590 H 334.678 6.76998 0.0156092 0
M  V30 3591 H 339.32 4.08007 1.1086 0
M  V30 3592 H 337.038 8.02414 -0.956918 0
M  V30 3593 H 340.624 5.81753 -0.0738538 0
M  V30 3594 H 339.504 7.76561 -1.09192 0
M  V30 3595 N 337.007 -0.598083 1.45811 0
M  V30 3596 C 338.418 -1.18011 1.44673 0
M  V30 3597 C 338.769 -1.95378 0.179364 0
M  V30 3598 O 337.894 -2.04124 -0.718509 0
M  V30 3599 C 338.489 -2.14677 2.62105 0
M  V30 3600 C 337.048 -2.68236 2.64057 0
M  V30 3601 C 336.195 -1.43816 2.37091 0
M  V30 3602 H 339.146 -0.38686 1.53913 0
M  V30 3603 H 339.167 -2.97878 2.36746 0
M  V30 3604 H 338.679 -1.5834 3.5433 0
M  V30 3605 H 336.78 -3.28486 1.75864 0
M  V30 3606 H 336.893 -3.12021 3.63566 0
M  V30 3607 H 335.257 -1.731 1.86838 0
M  V30 3608 H 336.04 -0.893333 3.31473 0
M  V30 3609 N 338.485 -1.33259 -0.841409 0
M  V30 3610 C 339.432 -1.23302 -1.95103 0
M  V30 3611 C 340.402 -0.112204 -1.65721 0
M  V30 3612 O 341.587 -0.290038 -1.88583 0
M  V30 3613 C 338.727 -0.975583 -3.31023 0
M  V30 3614 C 337.84 -2.18243 -3.72819 0
M  V30 3615 C 336.975 -1.85936 -4.97595 0
M  V30 3616 C 336.014 -3.02866 -5.3192 0
M  V30 3617 N 335.151 -2.70565 -6.47873 0
M  V30 3618 H 339.991 -2.18207 -2.02952 0
M  V30 3619 H 337.528 -1.0851 -0.993173 0
M  V30 3620 H 339.486 -0.80677 -4.09325 0
M  V30 3621 H 338.116 -0.0632755 -3.22738 0
M  V30 3622 H 337.168 -2.46107 -2.90061 0
M  V30 3623 H 338.48 -3.05666 -3.94169 0
M  V30 3624 H 337.634 -1.65684 -5.83638 0
M  V30 3625 H 336.373 -0.957452 -4.78209 0
M  V30 3626 H 335.378 -3.23736 -4.44382 0
M  V30 3627 H 336.603 -3.93809 -5.53255 0
M  V30 3628 H 334.549 -1.8293 -6.29978 0
M  V30 3629 H 334.466 -3.51519 -6.69306 0
M  V30 3630 H 335.734 -2.53774 -7.37034 0
M  V30 3631 N 339.963 1.05934 -1.16686 0
M  V30 3632 C 340.896 2.1295 -0.820225 0
M  V30 3633 C 341.874 1.61242 0.209722 0
M  V30 3634 O 343.058 1.88271 0.0929688 0
M  V30 3635 C 340.185 3.3797 -0.22223 0
M  V30 3636 C 339.231 4.08488 -1.22637 0
M  V30 3637 S 340.064 4.58015 -2.77457 0
M  V30 3638 C 341.22 5.86292 -2.19117 0
M  V30 3639 H 341.453 2.42025 -1.72659 0
M  V30 3640 H 338.986 1.18423 -0.990722 0
M  V30 3641 H 340.944 4.10335 0.116322 0
M  V30 3642 H 339.605 3.07045 0.66196 0
M  V30 3643 H 338.798 4.98291 -0.756455 0
M  V30 3644 H 338.4 3.42154 -1.51019 0
M  V30 3645 H 340.692 6.59246 -1.56209 0
M  V30 3646 H 341.635 6.38019 -3.07144 0
M  V30 3647 H 342.043 5.40497 -1.62858 0
M  V30 3648 N 341.441 0.965919 1.2453 0
M  V30 3649 C 342.391 0.465731 2.23193 0
M  V30 3650 C 343.375 -0.451277 1.54442 0
M  V30 3651 O 344.567 -0.282489 1.74731 0
M  V30 3652 C 341.696 -0.244511 3.42428 0
M  V30 3653 C 340.782 0.691222 4.18429 0
M  V30 3654 N 341.173 1.82771 4.71623 0
M  V30 3655 C 339.471 0.501649 4.4317 0
M  V30 3656 C 340.172 2.41285 5.29298 0
M  V30 3657 N 339.148 1.69819 5.16394 0
M  V30 3658 H 342.95 1.33291 2.61937 0
M  V30 3659 H 340.464 0.824789 1.39896 0
M  V30 3660 H 342.461 -0.620056 4.12263 0
M  V30 3661 H 341.121 -1.10815 3.05205 0
M  V30 3662 H 342.132 2.20929 4.68413 0
M  V30 3663 H 338.809 -0.318177 4.16286 0
M  V30 3664 H 340.199 3.37181 5.8117 0
M  V30 3665 N 342.919 -1.39368 0.735821 0
M  V30 3666 C 344.147 -2.04795 0.294393 0
M  V30 3667 C 344.562 -1.55478 -1.07107 0
M  V30 3668 O 343.919 -0.720038 -1.67695 0
M  V30 3669 C 343.97 -3.6035 0.288071 0
M  V30 3670 O 343.691 -4.07852 1.59963 0
M  V30 3671 C 345.192 -4.42976 -0.169422 0
M  V30 3672 H 342.412 -0.658571 0.128551 0
M  V30 3673 H 344.956 -1.78399 0.999701 0
M  V30 3674 H 343.111 -3.85645 -0.368355 0
M  V30 3675 H 343.525 -5.02181 1.51375 0
M  V30 3676 H 344.999 -5.51864 -0.122687 0
M  V30 3677 H 345.476 -4.22068 -1.21472 0
M  V30 3678 H 346.082 -4.22832 0.457469 0
M  V30 3679 N 344.397 -0.483516 -1.5 0
M  V30 3680 C 345.643 0.0672592 -2.02688 0
M  V30 3681 C 345.976 1.38247 -1.36387 0
M  V30 3682 O 345.251 1.88131 -0.493675 0
M  V30 3683 C 345.534 0.238109 -3.59312 0
M  V30 3684 C 345.387 -1.099 -4.36168 0
M  V30 3685 C 346.706 0.986916 -4.28892 0
M  V30 3686 H 343.825 0.0229696 -0.736642 0
M  V30 3687 H 346.467 -0.631527 -1.79197 0
M  V30 3688 H 344.617 0.8333 -3.79458 0
M  V30 3689 H 346.289 -1.73172 -4.27562 0
M  V30 3690 H 344.532 -1.69261 -3.99416 0
M  V30 3691 H 345.203 -0.932954 -5.44059 0
M  V30 3692 H 347.679 0.482302 -4.13295 0
M  V30 3693 H 346.555 1.07527 -5.38265 0
M  V30 3694 H 346.816 2.0265 -3.92919 0
M  V30 3695 N 345.875 1.56104 -0.216619 0
M  V30 3696 C 346.823 2.21434 0.712036 0
M  V30 3697 C 347.817 1.19218 1.20348 0
M  V30 3698 O 349.023 1.3731 1.16387 0
M  V30 3699 H 345.398 0.70992 0.248026 0
M  V30 3700 H 347.369 2.98083 0.137558 0
M  V30 3701 C 346.118 2.90434 1.91163 0
M  V30 3702 H 345.441 3.68842 1.54258 0
M  V30 3703 H 346.881 3.39552 2.5393 0
M  V30 3704 C 345.34 1.92635 2.76394 0
M  V30 3705 O 345.87 1.44017 3.74996 0
M  V30 3706 N 344.076 1.60392 2.42328 0
M  V30 3707 H 343.623 2.00122 1.622 0
M  V30 3708 H 343.581 0.952159 2.99635 0
M  V30 3709 N 347.353 -0.0568162 1.57498 0
M  V30 3710 C 348.601 -0.751617 1.87604 0
M  V30 3711 C 348.922 -1.77351 0.81066 0
M  V30 3712 O 348.192 -1.95254 -0.159018 0
M  V30 3713 H 346.772 -0.280583 0.692302 0
M  V30 3714 H 349.434 -0.0293483 1.94878 0
M  V30 3715 H 348.53 -1.25852 2.856 0
M  V30 3716 N 348.832 -1.54138 -0.328536 0
M  V30 3717 C 350.062 -1.75807 -1.08516 0
M  V30 3718 C 350.47 -0.50428 -1.82356 0
M  V30 3719 O 349.813 0.534451 -1.75754 0
M  V30 3720 C 349.875 -2.89423 -2.13248 0
M  V30 3721 C 349.539 -4.28504 -1.5885 0
M  V30 3722 C 350.536 -5.09536 -1.03289 0
M  V30 3723 C 348.221 -4.75034 -1.63243 0
M  V30 3724 C 350.215 -6.35206 -0.52845 0
M  V30 3725 C 347.902 -6.00672 -1.12411 0
M  V30 3726 C 348.9 -6.80592 -0.573062 0
M  V30 3727 O 348.588 -8.03867 -0.0723692 0
M  V30 3728 H 348.32 -0.590633 -0.328829 0
M  V30 3729 H 350.874 -2.01819 -0.381868 0
M  V30 3730 H 349.104 -2.5897 -2.87178 0
M  V30 3731 H 350.793 -2.98921 -2.74592 0
M  V30 3732 H 351.559 -4.74745 -0.99206 0
M  V30 3733 H 347.438 -4.12875 -2.05074 0
M  V30 3734 H 350.982 -6.97532 -0.0976774 0
M  V30 3735 H 346.879 -6.34955 -1.162 0
M  V30 3736 H 347.647 -8.18283 -0.188258 0
M  V30 3737 N 350.31 0.590341 -1.46126 0
M  V30 3738 C 351.556 1.35082 -1.51264 0
M  V30 3739 C 351.889 1.93534 -0.160711 0
M  V30 3740 O 351.164 1.76045 0.826956 0
M  V30 3741 C 351.447 2.48588 -2.6053 0
M  V30 3742 C 351.3 1.95221 -4.05227 0
M  V30 3743 C 352.619 3.50662 -2.6594 0
M  V30 3744 H 349.738 0.489803 -0.550692 0
M  V30 3745 H 352.38 0.663887 -1.78024 0
M  V30 3746 H 350.53 3.07186 -2.37843 0
M  V30 3747 H 352.202 1.41139 -4.39178 0
M  V30 3748 H 350.445 1.26101 -4.15068 0
M  V30 3749 H 351.116 2.77121 -4.77397 0
M  V30 3750 H 353.592 3.01934 -2.86313 0
M  V30 3751 H 352.468 4.27551 -3.44226 0
M  V30 3752 H 352.729 4.07399 -1.71694 0
M  V30 3753 N 351.788 1.33704 0.83433 0
M  V30 3754 C 352.736 1.24323 1.96587 0
M  V30 3755 C 353.73 0.143659 1.6879 0
M  V30 3756 O 354.936 0.30791 1.77347 0
M  V30 3757 H 351.311 0.385925 0.645419 0
M  V30 3758 H 353.282 2.19978 2.01624 0
M  V30 3759 C 352.031 1.00394 3.32891 0
M  V30 3760 H 351.354 1.84231 3.54822 0
M  V30 3761 H 352.794 0.97862 4.12552 0
M  V30 3762 C 351.253 -0.293047 3.35623 0
M  V30 3763 O 351.783 -1.29823 3.80143 0
M  V30 3764 N 349.989 -0.322174 2.88809 0
M  V30 3765 H 349.536 0.496379 2.52772 0
M  V30 3766 H 349.494 -1.18977 2.91019 0
M  V30 3767 N 353.266 -1.05314 1.17247 0
M  V30 3768 C 354.682 -1.30452 0.919473 0
M  V30 3769 C 354.882 -1.9703 -0.42209 0
M  V30 3770 O 353.938 -2.24311 -1.15935 0
M  V30 3771 C 355.251 -2.17551 2.07586 0
M  V30 3772 C 356.799 -2.30937 2.11275 0
M  V30 3773 C 357.274 -3.21396 3.26296 0
M  V30 3774 N 358.765 -3.28981 3.26076 0
M  V30 3775 C 359.5 -3.99095 4.11716 0
M  V30 3776 N 358.996 -4.71648 5.07465 0
M  V30 3777 N 360.789 -3.95247 3.9967 0
M  V30 3778 H 352.94 -0.604988 2.03602 0
M  V30 3779 H 355.203 -0.329368 0.888944 0
M  V30 3780 H 354.909 -1.75921 3.0454 0
M  V30 3781 H 354.783 -3.18182 2.02584 0
M  V30 3782 H 357.17 -2.71809 1.14907 0
M  V30 3783 H 357.251 -1.2994 2.20339 0
M  V30 3784 H 356.895 -2.81238 4.22927 0
M  V30 3785 H 356.825 -4.22395 3.14467 0
M  V30 3786 H 359.316 -2.77286 2.5675 0
M  V30 3787 H 359.629 -5.22705 5.6921 0
M  V30 3788 H 357.974 -4.70594 5.11435 0
M  V30 3789 H 361.165 -3.37691 3.24164 0
M  V30 3790 H 361.338 -4.4962 4.66632 0
M  V30 3791 N 354.744 -0.972509 -1.24016 0
M  V30 3792 C 355.969 -0.654417 -1.96805 0
M  V30 3793 C 356.394 0.770398 -1.716 0
M  V30 3794 O 355.752 1.52361 -0.982647 0
M  V30 3795 C 355.8 -0.941031 -3.48105 0
M  V30 3796 O 354.904 -0.0289472 -4.1239 0
M  V30 3797 H 354.245 -0.24692 -0.616382 0
M  V30 3798 H 356.775 -1.30396 -1.57664 0
M  V30 3799 H 356.785 -0.87452 -3.98517 0
M  V30 3800 H 355.46 -1.97939 -3.65777 0
M  V30 3801 H 354.037 -0.149192 -3.72601 0
M  V30 3802 N 356.222 1.38976 -0.743202 0
M  V30 3803 C 357.152 2.33171 -0.123873 0
M  V30 3804 C 358.133 1.54336 0.71516 0
M  V30 3805 O 359.318 1.82696 0.658467 0
M  V30 3806 C 356.448 3.38474 0.777978 0
M  V30 3807 C 355.402 4.27979 0.0424758 0
M  V30 3808 C 354.728 5.2405 1.06189 0
M  V30 3809 C 356.028 5.10155 -1.1198 0
M  V30 3810 H 357.722 2.85213 -0.910709 0
M  V30 3811 H 355.268 1.37133 -0.439388 0
M  V30 3812 H 357.221 4.03328 1.22084 0
M  V30 3813 H 355.945 2.84891 1.59702 0
M  V30 3814 H 354.604 3.64616 -0.380853 0
M  V30 3815 H 354.252 4.66758 1.87472 0
M  V30 3816 H 353.952 5.84785 0.574485 0
M  V30 3817 H 355.476 5.9178 1.50428 0
M  V30 3818 H 356.89 5.68307 -0.75499 0
M  V30 3819 H 355.287 5.80073 -1.53738 0
M  V30 3820 H 356.357 4.44504 -1.93764 0
M  V30 3821 N 357.7 0.491464 1.49741 0
M  V30 3822 C 359.111 0.0413169 1.86654 0
M  V30 3823 C 359.462 -1.36985 1.40462 0
M  V30 3824 O 358.587 -2.01917 0.778354 0
M  V30 3825 C 359.182 0.0682023 3.38731 0
M  V30 3826 C 357.741 -0.32656 3.74981 0
M  V30 3827 C 356.888 0.444888 2.73708 0
M  V30 3828 H 359.839 0.704733 1.42194 0
M  V30 3829 H 359.86 -0.729322 3.73445 0
M  V30 3830 H 359.372 1.09539 3.72321 0
M  V30 3831 H 357.473 -1.35734 3.46997 0
M  V30 3832 H 357.586 -0.013741 4.79098 0
M  V30 3833 H 355.95 -0.104062 2.54487 0
M  V30 3834 H 356.733 1.47197 3.10142 0
M  V30 3835 N 359.178 -1.55987 0.224894 0
M  V30 3836 C 360.426 -1.97998 -0.405099 0
M  V30 3837 C 360.747 -1.11387 -1.60056 0
M  V30 3838 O 360.017 -0.191645 -1.9496 0
M  V30 3839 H 358.597 -0.731235 -0.152658 0
M  V30 3840 H 361.259 -1.92279 0.318567 0
M  V30 3841 H 360.355 -3.03463 -0.729167 0
M  V30 3842 N 360.656 0.0484629 -1.57525 0
M  V30 3843 C 361.586 1.0549 -2.08313 0
M  V30 3844 C 362.567 1.38929 -0.981463 0
M  V30 3845 O 363.752 1.48151 -1.25558 0
M  V30 3846 C 360.882 2.36162 -2.54646 0
M  V30 3847 C 359.836 2.17016 -3.68901 0
M  V30 3848 C 359.162 3.53278 -4.01371 0
M  V30 3849 C 360.462 1.57219 -4.98076 0
M  V30 3850 H 362.156 0.632195 -2.92649 0
M  V30 3851 H 359.702 0.302654 -1.40784 0
M  V30 3852 H 361.655 3.06882 -2.88793 0
M  V30 3853 H 360.379 2.80456 -1.67368 0
M  V30 3854 H 359.038 1.48733 -3.35073 0
M  V30 3855 H 358.686 3.95185 -3.11188 0
M  V30 3856 H 358.386 3.41299 -4.78318 0
M  V30 3857 H 359.91 4.25391 -4.38035 0
M  V30 3858 H 361.324 2.17832 -5.30304 0
M  V30 3859 H 359.721 1.55871 -5.79503 0
M  V30 3860 H 360.791 0.535956 -4.81929 0
M  V30 3861 N 362.134 1.5431 0.320358 0
M  V30 3862 C 363.383 1.7188 1.05546 0
M  V30 3863 C 363.696 0.501143 1.89071 0
M  V30 3864 O 364.902 0.558258 2.65699 0
M  V30 3865 C 363.358 3.04025 1.92605 0
M  V30 3866 C 362.966 4.33207 1.14176 0
M  V30 3867 C 364.71 3.30959 2.65832 0
M  V30 3868 C 362.617 5.56412 2.00399 0
M  V30 3869 H 361.547 0.640547 0.397763 0
M  V30 3870 H 364.198 1.80802 0.313522 0
M  V30 3871 H 362.58 2.89019 2.7071 0
M  V30 3872 H 363.754 4.58989 0.40819 0
M  V30 3873 H 362.069 4.13062 0.526165 0
M  V30 3874 H 364.666 4.20203 3.30656 0
M  V30 3875 H 365.009 2.48979 3.33639 0
M  V30 3876 H 365.542 3.46847 1.94787 0
M  V30 3877 H 362.281 6.41004 1.37094 0
M  V30 3878 H 361.801 5.34844 2.7148 0
M  V30 3879 H 363.48 5.92938 2.58908 0
M  V30 3880 N 363.613 -0.582584 1.46437 0
M  V30 3881 C 364.861 -1.33814 1.51453 0
M  V30 3882 C 365.182 -1.94277 0.167792 0
M  V30 3883 O 364.452 -1.78566 -0.805677 0
M  V30 3884 H 363.032 -0.496838 0.557818 0
M  V30 3885 H 365.694 -0.682281 1.82568 0
M  V30 3886 H 364.79 -2.14479 2.26728 0
M  V30 3887 N 365.091 -1.34144 -0.827227 0
M  V30 3888 C 366.331 -1.27603 -1.59677 0
M  V30 3889 C 366.695 0.153035 -1.91389 0
M  V30 3890 O 367.896 0.342566 -2.66608 0
M  V30 3891 C 366.167 -2.13784 -2.86411 0
M  V30 3892 S 367.726 -2.24552 -3.76991 0
M  V30 3893 H 364.544 -0.453789 -0.547354 0
M  V30 3894 H 367.146 -1.69309 -0.977479 0
M  V30 3895 H 365.85 -3.16627 -2.61104 0
M  V30 3896 H 365.381 -1.72959 -3.5334 0
M  V30 3897 H 367.396 -1.41514 -4.75593 0
M  V30 3898 N 366.569 1.04691 -1.17803 0
M  V30 3899 C 367.519 2.10856 -0.867391 0
M  V30 3900 C 368.503 1.601 0.160206 0
M  V30 3901 O 369.695 1.76948 -0.042947 0
M  V30 3902 C 366.824 3.411 -0.388012 0
M  V30 3903 C 365.91 3.9864 -1.44732 0
M  V30 3904 N 366.301 4.30075 -2.66212 0
M  V30 3905 C 364.599 4.26439 -1.30637 0
M  V30 3906 C 365.3 4.76033 -3.34317 0
M  V30 3907 N 364.276 4.76462 -2.61696 0
M  V30 3908 H 368.078 2.33029 -1.79094 0
M  V30 3909 H 365.592 1.22386 -1.0675 0
M  V30 3910 H 367.589 4.16641 -0.146994 0
M  V30 3911 H 366.249 3.20357 0.529271 0
M  V30 3912 H 367.26 4.19917 -3.03134 0
M  V30 3913 H 363.937 4.15056 -0.451129 0
M  V30 3914 H 365.327 5.09427 -4.38103 0
M  V30 3915 N 368.047 0.979072 1.23499 0
M  V30 3916 C 369.463 0.687475 1.44034 0
M  V30 3917 C 369.663 -0.746801 1.8715 0
M  V30 3918 O 368.719 -1.51939 2.0167 0
M  V30 3919 C 370.032 1.68127 2.49307 0
M  V30 3920 C 371.58 1.69516 2.63122 0
M  V30 3921 C 372.055 2.67723 3.71603 0
M  V30 3922 N 373.546 2.66233 3.79044 0
M  V30 3923 C 374.281 3.38891 4.62537 0
M  V30 3924 N 373.777 4.21103 5.50131 0
M  V30 3925 N 375.57 3.27661 4.56721 0
M  V30 3926 H 367.721 1.90559 0.938135 0
M  V30 3927 H 369.984 0.821051 0.473897 0
M  V30 3928 H 369.69 2.70693 2.2454 0
M  V30 3929 H 369.564 1.46306 3.4767 0
M  V30 3930 H 371.951 0.676561 2.8724 0
M  V30 3931 H 372.032 1.95404 1.65079 0
M  V30 3932 H 371.676 3.69724 3.48233 0
M  V30 3933 H 371.606 2.39111 4.69184 0
M  V30 3934 H 374.097 2.06568 3.16446 0
M  V30 3935 H 374.41 4.73403 6.10827 0
M  V30 3936 H 372.755 4.25195 5.49759 0
M  V30 3937 H 375.946 2.62887 3.87309 0
M  V30 3938 H 376.119 3.84547 5.21562 0
M  V30 3939 N 369.525 -1.3858 0.750561 0
M  V30 3940 C 370.472 -2.30483 0.120835 0
M  V30 3941 C 371.442 -1.50022 -0.712923 0
M  V30 3942 O 372.627 -1.78662 -0.669676 0
M  V30 3943 C 369.767 -3.36431 -0.768666 0
M  V30 3944 C 368.88 -4.31927 0.0793922 0
M  V30 3945 C 368.015 -5.24944 -0.81283 0
M  V30 3946 C 367.054 -6.12088 0.0390447 0
M  V30 3947 N 366.191 -6.97412 -0.809969 0
M  V30 3948 H 371.031 -2.83761 0.91015 0
M  V30 3949 H 368.568 -1.39707 0.460463 0
M  V30 3950 H 370.526 -3.96462 -1.29898 0
M  V30 3951 H 369.156 -2.8457 -1.5238 0
M  V30 3952 H 368.208 -3.73382 0.727303 0
M  V30 3953 H 369.52 -4.93319 0.737401 0
M  V30 3954 H 368.674 -5.90078 -1.41042 0
M  V30 3955 H 367.413 -4.63911 -1.50458 0
M  V30 3956 H 366.418 -5.45952 0.649328 0
M  V30 3957 H 367.643 -6.75189 0.727809 0
M  V30 3958 H 365.589 -6.38931 -1.48672 0
M  V30 3959 H 365.506 -7.55712 -0.208789 0
M  V30 3960 H 366.774 -7.66959 -1.39263 0
M  V30 3961 N 371.003 -0.499398 -1.49478 0
M  V30 3962 C 372.228 0.044722 -2.07352 0
M  V30 3963 C 372.653 1.30207 -1.35749 0
M  V30 3964 O 372.011 1.76516 -0.413732 0
M  V30 3965 C 372.059 0.283013 -3.59488 0
M  V30 3966 O 371.163 1.35804 -3.89398 0
M  V30 3967 H 370.504 -0.0255147 -0.66351 0
M  V30 3968 H 373.034 -0.698561 -1.92305 0
M  V30 3969 H 373.044 0.515007 -4.04737 0
M  V30 3970 H 371.719 -0.635636 -4.11014 0
M  V30 3971 H 370.296 1.11113 -3.55961 0
M  V30 3972 N 372.481 1.55866 -0.233164 0
M  V30 3973 C 373.727 1.98897 0.395959 0
M  V30 3974 C 374.06 1.12091 1.58585 0
M  V30 3975 O 373.335 0.181182 1.93654 0
M  V30 3976 C 373.618 3.50658 0.819224 0
M  V30 3977 C 373.471 4.48233 -0.375109 0
M  V30 3978 C 374.79 4.07135 1.67121 0
M  V30 3979 H 371.909 0.723102 0.142451 0
M  V30 3980 H 374.551 1.87082 -0.331725 0
M  V30 3981 H 372.701 3.60857 1.43925 0
M  V30 3982 H 374.373 4.50031 -1.01341 0
M  V30 3983 H 372.616 4.21624 -1.02058 0
M  V30 3984 H 373.287 5.51988 -0.0358328 0
M  V30 3985 H 375.763 3.99952 1.14795 0
M  V30 3986 H 374.639 5.13615 1.93625 0
M  V30 3987 H 374.9 3.54736 2.63846 0
M  V30 3988 N 373.959 -0.0401083 1.57549 0
M  V30 3989 C 375.189 -0.744115 1.92734 0
M  V30 3990 C 375.597 -1.70005 0.830348 0
M  V30 3991 O 374.94 -1.82576 -0.20286 0
M  V30 3992 C 375.002 -1.56516 3.2364 0
M  V30 3993 C 374.666 -0.7752 4.50377 0
M  V30 3994 C 375.663 -0.0803326 5.19838 0
M  V30 3995 C 373.348 -0.733002 4.96923 0
M  V30 3996 C 375.342 0.646154 6.34116 0
M  V30 3997 C 373.029 -0.00276321 6.111 0
M  V30 3998 C 374.027 0.685585 6.7955 0
M  V30 3999 O 373.715 1.40399 7.91545 0
M  V30 4000 H 373.447 -0.214861 0.640945 0
M  V30 4001 H 376.001 -0.00503675 2.05399 0
M  V30 4002 H 374.231 -2.3478 3.07271 0
M  V30 4003 H 375.92 -2.15076 3.44234 0
M  V30 4004 H 376.686 -0.104035 4.84888 0
M  V30 4005 H 372.565 -1.25827 4.43496 0
M  V30 4006 H 376.109 1.18398 6.87479 0
M  V30 4007 H 372.006 0.0229012 6.45496 0
M  V30 4008 H 372.774 1.31653 8.07843 0
M  V30 4009 N 375.437 -1.54477 -0.31217 0
M  V30 4010 C 376.683 -1.74417 -1.04644 0
M  V30 4011 C 377.038 -0.517641 -1.85306 0
M  V30 4012 O 376.331 0.489973 -1.85229 0
M  V30 4013 C 376.525 -2.967 -1.99258 0
M  V30 4014 C 376.354 -4.31128 -1.27901 0
M  V30 4015 C 375.124 -4.95087 -1.01079 0
M  V30 4016 C 377.322 -5.09662 -0.689119 0
M  V30 4017 N 375.304 -6.13322 -0.266323 0
M  V30 4018 C 376.675 -6.19952 -0.0768523 0
M  V30 4019 C 378.73 -4.94355 -0.593061 0
M  V30 4020 C 377.433 -7.16604 0.622165 0
M  V30 4021 C 379.459 -5.91328 0.0922792 0
M  V30 4022 C 378.821 -7.00978 0.693443 0
M  V30 4023 H 374.92 -0.69094 -0.366231 0
M  V30 4024 H 377.504 -1.91946 -0.326319 0
M  V30 4025 H 375.675 -2.80616 -2.68532 0
M  V30 4026 H 377.407 -3.05216 -2.65755 0
M  V30 4027 H 374.162 -4.55235 -1.30607 0
M  V30 4028 H 374.586 -6.76937 0.0920973 0
M  V30 4029 H 379.228 -4.09719 -1.04355 0
M  V30 4030 H 376.946 -8.0079 1.08445 0
M  V30 4031 H 380.532 -5.81562 0.166396 0
M  V30 4032 H 379.412 -7.74725 1.21533 0
M  V30 4033 N 376.915 0.57481 -1.46744 0
M  V30 4034 C 377.865 1.67838 -1.54319 0
M  V30 4035 C 378.849 1.55759 -0.40346 0
M  V30 4036 O 380.041 1.6454 -0.652347 0
M  V30 4037 C 377.17 3.06624 -1.5439 0
M  V30 4038 C 376.256 3.23971 -2.73685 0
M  V30 4039 N 376.647 3.11447 -3.9854 0
M  V30 4040 C 374.945 3.5493 -2.70075 0
M  V30 4041 C 375.646 3.31011 -4.78337 0
M  V30 4042 N 374.622 3.56533 -4.10348 0
M  V30 4043 H 378.424 1.56698 -2.48642 0
M  V30 4044 H 375.938 0.779071 -1.42493 0
M  V30 4045 H 377.935 3.85839 -1.57905 0
M  V30 4046 H 376.595 3.1889 -0.611493 0
M  V30 4047 H 377.606 2.89145 -4.29669 0
M  V30 4048 H 374.283 3.73832 -1.85893 0
M  V30 4049 H 375.673 3.26445 -5.87268 0
M  V30 4050 N 378.394 1.34581 0.820102 0
M  V30 4051 C 379.64 1.27285 1.57881 0
M  V30 4052 C 379.973 -0.156137 1.93571 0
M  V30 4053 O 379.248 -1.10222 1.60254 0
M  V30 4054 C 379.531 2.16639 2.87645 0
M  V30 4055 C 379.384 3.68088 2.58517 0
M  V30 4056 C 380.703 2.05378 3.8924 0
M  V30 4057 H 377.822 0.463714 0.572833 0
M  V30 4058 H 380.464 1.64859 0.944539 0
M  V30 4059 H 378.614 1.84725 3.41773 0
M  V30 4060 H 380.286 4.10382 2.10676 0
M  V30 4061 H 378.529 3.89038 1.91917 0
M  V30 4062 H 379.2 4.2598 3.51063 0
M  V30 4063 H 381.676 2.33404 3.44473 0
M  V30 4064 H 380.552 2.7012 4.77835 0
M  V30 4065 H 380.813 1.0316 4.29896 0
M  V30 4066 N 379.872 -1.04064 1.18357 0
M  V30 4067 C 381.121 -1.76662 0.973313 0
M  V30 4068 C 381.434 -1.89154 -0.497991 0
M  V30 4069 O 382.64 -2.58606 -0.826762 0
M  V30 4070 C 381.096 -3.17624 1.69242 0
M  V30 4071 C 380.704 -3.13225 3.20303 0
M  V30 4072 C 382.448 -3.946 1.56497 0
M  V30 4073 C 380.355 -4.49046 3.84853 0
M  V30 4074 H 379.285 -0.662214 0.36054 0
M  V30 4075 H 381.936 -1.16553 1.41731 0
M  V30 4076 H 380.318 -3.78129 1.1762 0
M  V30 4077 H 381.492 -2.62172 3.78949 0
M  V30 4078 H 379.807 -2.49749 3.33189 0
M  V30 4079 H 382.404 -4.95042 2.02084 0
M  V30 4080 H 382.747 -4.13074 0.517243 0
M  V30 4081 H 383.28 -3.4067 2.05399 0
M  V30 4082 H 380.019 -4.35777 4.89672 0
M  V30 4083 H 379.539 -5.00203 3.30994 0
M  V30 4084 H 381.218 -5.17961 3.87718 0
M  V30 4085 N 381.35 -0.985608 -1.22978 0
M  V30 4086 C 382.598 -0.656087 -1.91154 0
M  V30 4087 C 382.919 0.813561 -1.77218 0
M  V30 4088 O 382.189 1.58244 -1.1548 0
M  V30 4089 H 380.769 -0.239674 -0.707506 0
M  V30 4090 H 383.431 -1.25054 -1.49491 0
M  V30 4091 H 382.527 -0.912253 -2.9847 0
M  V30 4092 N 382.828 1.3818 -0.7579 0
M  V30 4093 C 383.761 2.28055 -0.0814093 0
M  V30 4094 C 384.739 1.45603 0.723779 0
M  V30 4095 O 385.923 1.74961 0.701491 0
M  V30 4096 C 383.05 3.2676 0.891394 0
M  V30 4097 C 382.096 4.26153 0.171909 0
M  V30 4098 S 382.929 5.23434 -1.13035 0
M  V30 4099 C 384.085 6.25694 -0.160727 0
M  V30 4100 H 384.318 2.85082 -0.84353 0
M  V30 4101 H 381.851 1.44246 -0.550671 0
M  V30 4102 H 383.809 3.8414 1.44731 0
M  V30 4103 H 382.47 2.68706 1.62652 0
M  V30 4104 H 381.663 4.95738 0.908843 0
M  V30 4105 H 381.265 3.72691 -0.312606 0
M  V30 4106 H 383.557 6.74161 0.671773 0
M  V30 4107 H 384.5 7.03285 -0.824353 0
M  V30 4108 H 384.908 5.64064 0.221892 0
M  V30 4109 N 384.306 0.507319 1.49211 0
M  V30 4110 C 385.554 -0.0348839 2.0207 0
M  V30 4111 C 385.875 -1.36898 1.38866 0
M  V30 4112 O 385.145 -1.88133 0.546151 0
M  V30 4113 H 383.725 -0.0158812 0.746831 0
M  V30 4114 H 386.387 0.665998 1.83168 0
M  V30 4115 H 385.483 -0.159917 3.1169 0
M  V30 4116 N 385.784 -1.5574 0.241426 0
M  V30 4117 C 387.012 -2.03208 -0.389134 0
M  V30 4118 C 387.427 -1.12082 -1.51931 0
M  V30 4119 O 386.784 -0.134183 -1.82006 0
M  V30 4120 C 386.835 -3.50064 -0.902087 0
M  V30 4121 O 386.556 -4.37717 0.18305 0
M  V30 4122 C 388.057 -4.13268 -1.60389 0
M  V30 4123 H 385.277 -0.664509 -0.0931053 0
M  V30 4124 H 387.821 -2.0124 0.36369 0
M  V30 4125 H 385.976 -3.52583 -1.60511 0
M  V30 4126 H 386.39 -5.24097 -0.205579 0
M  V30 4127 H 387.864 -5.17733 -1.91458 0
M  V30 4128 H 388.341 -3.59434 -2.52397 0
M  V30 4129 H 388.947 -4.14655 -0.945576 0
M  V30 4130 N 387.262 0.0317525 -1.57568 0
M  V30 4131 C 388.49 0.734949 -1.93407 0
M  V30 4132 C 388.905 1.69036 -0.84096 0
M  V30 4133 O 388.262 1.81582 0.182836 0
M  V30 4134 C 388.313 1.49432 -3.29169 0
M  V30 4135 O 388.034 0.577261 -4.3428 0
M  V30 4136 C 389.535 2.29492 -3.79273 0
M  V30 4137 H 386.755 0.206706 -0.638368 0
M  V30 4138 H 389.299 -0.00992046 -2.04498 0
M  V30 4139 H 387.454 2.1911 -3.19483 0
M  V30 4140 H 387.868 1.10952 -5.1263 0
M  V30 4141 H 389.342 2.78172 -4.76785 0
M  V30 4142 H 389.819 3.10794 -3.10328 0
M  V30 4143 H 390.425 1.64894 -3.92033 0
M  V30 4144 N 388.74 1.54641 0.303973 0
M  V30 4145 C 390.151 1.64811 0.877163 0
M  V30 4146 C 390.502 0.554838 1.88191 0
M  V30 4147 O 389.627 -0.309033 2.14182 0
M  V30 4148 C 390.222 2.9876 1.59775 0
M  V30 4149 C 388.781 3.11061 2.11938 0
M  V30 4150 C 387.928 2.60479 0.951097 0
M  V30 4151 H 390.879 1.58493 0.0810486 0
M  V30 4152 H 390.9 2.90017 2.46314 0
M  V30 4153 H 390.412 3.7831 0.866226 0
M  V30 4154 H 388.513 2.36225 2.88146 0
M  V30 4155 H 388.626 4.17171 2.35595 0
M  V30 4156 H 386.99 2.16859 1.33583 0
M  V30 4157 H 387.773 3.42504 0.233581 0
M  V30 4158 N 390.218 -0.567019 1.47046 0
M  V30 4159 C 391.128 -1.70247 1.6141 0
M  V30 4160 C 392.144 -1.66746 0.497157 0
M  V30 4161 O 393.32 -1.86371 0.763389 0
M  V30 4162 C 390.385 -3.06756 1.61561 0
M  V30 4163 C 389.446 -3.21399 2.84607 0
M  V30 4164 C 388.679 -4.51396 2.84741 0
M  V30 4165 O 388.902 -5.36255 1.94388 0
M  V30 4166 O 387.836 -4.69621 3.76483 0
M  V30 4167 H 391.662 -1.61073 2.57467 0
M  V30 4168 H 389.247 -0.735894 1.30019 0
M  V30 4169 H 391.129 -3.8801 1.64396 0
M  V30 4170 H 389.804 -3.16333 0.686684 0
M  V30 4171 H 388.711 -2.39579 2.8732 0
M  V30 4172 H 390.044 -3.16721 3.76761 0
M  V30 4173 N 391.696 -1.35014 -0.812953 0
M  V30 4174 C 392.942 -1.2812 -1.57204 0
M  V30 4175 C 393.275 0.145869 -1.93651 0
M  V30 4176 O 392.55 1.0937 -1.60836 0
M  V30 4177 C 392.833 -2.18162 -2.86492 0
M  V30 4178 C 392.686 -3.69454 -2.56561 0
M  V30 4179 C 394.005 -2.07439 -3.88145 0
M  V30 4180 H 391.124 -0.466746 -0.570366 0
M  V30 4181 H 393.766 -1.65357 -0.935783 0
M  V30 4182 H 391.916 -1.86535 -3.40789 0
M  V30 4183 H 393.588 -4.11493 -2.08497 0
M  V30 4184 H 391.831 -3.9005 -1.89851 0
M  V30 4185 H 392.502 -4.27835 -3.48799 0
M  V30 4186 H 394.978 -2.35228 -3.4323 0
M  V30 4187 H 393.854 -2.7265 -4.76396 0
M  V30 4188 H 394.115 -1.05439 -4.29343 0
M  V30 4189 N 393.175 1.03435 -1.18907 0
M  V30 4190 C 394.125 2.09924 -0.889706 0
M  V30 4191 C 395.109 1.60261 0.143216 0
M  V30 4192 O 396.301 1.76892 -0.0617122 0
M  V30 4193 C 393.43 3.40669 -0.424168 0
M  V30 4194 C 392.516 3.97082 -1.48952 0
M  V30 4195 N 392.907 4.27227 -2.70759 0
M  V30 4196 C 391.205 4.25029 -1.35152 0
M  V30 4197 C 391.906 4.7246 -3.39347 0
M  V30 4198 N 390.882 4.7366 -2.66735 0
M  V30 4199 H 394.684 2.31116 -1.81555 0
M  V30 4200 H 392.198 1.21246 -1.08042 0
M  V30 4201 H 394.195 4.16461 -0.191176 0
M  V30 4202 H 392.855 3.20901 0.495263 0
M  V30 4203 H 393.866 4.16678 -3.0757 0
M  V30 4204 H 390.543 4.14554 -0.495126 0
M  V30 4205 H 391.933 5.04751 -4.43481 0
M  V30 4206 N 394.653 0.992116 1.22453 0
M  V30 4207 C 395.878 0.685644 1.95739 0
M  V30 4208 C 396.303 -0.743 1.72804 0
M  V30 4209 O 395.661 -1.50778 1.00676 0
M  V30 4210 C 395.709 0.996293 3.46564 0
M  V30 4211 O 394.813 0.0945512 4.12292 0
M  V30 4212 H 394.154 0.256694 0.612376 0
M  V30 4213 H 396.684 1.32888 1.5557 0
M  V30 4214 H 396.694 0.93781 3.97076 0
M  V30 4215 H 395.369 2.03733 3.62582 0
M  V30 4216 H 393.946 0.208451 3.72317 0
M  V30 4217 N 396.131 -1.37776 0.765217 0
M  V30 4218 C 397.38 -1.99092 0.323307 0
M  V30 4219 C 397.693 -1.61434 -1.10446 0
M  V30 4220 O 398.899 -2.15805 -1.64743 0
M  V30 4221 C 397.355 -3.56019 0.527098 0
M  V30 4222 C 396.963 -4.0262 1.96471 0
M  V30 4223 C 398.707 -4.2424 0.148483 0
M  V30 4224 C 396.614 -5.52233 2.11644 0
M  V30 4225 H 395.544 -0.744846 0.117137 0
M  V30 4226 H 398.195 -1.57391 0.943417 0
M  V30 4227 H 396.577 -3.95667 -0.162372 0
M  V30 4228 H 397.751 -3.74234 2.68859 0
M  V30 4229 H 396.066 -3.47161 2.29931 0
M  V30 4230 H 398.663 -5.34159 0.240456 0
M  V30 4231 H 399.006 -4.06446 -0.900422 0
M  V30 4232 H 399.539 -3.89872 0.79025 0
M  V30 4233 H 396.278 -5.74945 3.1483 0
M  V30 4234 H 395.798 -5.82324 1.4373 0
M  V30 4235 H 397.477 -6.18106 1.91193 0
M  V30 4236 N 397.609 -0.515225 -1.4894 0
M  V30 4237 C 398.856 0.024215 -2.02486 0
M  V30 4238 C 399.184 1.35671 -1.39368 0
M  V30 4239 O 398.439 1.88566 -0.523574 0
M  V30 4240 C 398.738 0.210595 -3.56779 0
M  V30 4241 C 398.404 -1.04569 -4.38607 0
M  V30 4242 C 397.066 -1.39002 -4.60686 0
M  V30 4243 C 399.418 -1.88008 -4.86109 0
M  V30 4244 C 396.746 -2.568 -5.27514 0
M  V30 4245 C 399.098 -3.04972 -5.54234 0
M  V30 4246 C 397.762 -3.39768 -5.74555 0
M  V30 4247 H 397.032 0.00886088 -0.740947 0
M  V30 4248 H 399.679 -0.678263 -1.79086 0
M  V30 4249 H 397.984 0.99572 -3.78936 0
M  V30 4250 H 399.681 0.642659 -3.95817 0
M  V30 4251 H 396.271 -0.767497 -4.21672 0
M  V30 4252 H 400.455 -1.62719 -4.68867 0
M  V30 4253 H 395.711 -2.8398 -5.41447 0
M  V30 4254 H 399.885 -3.69943 -5.90013 0
M  V30 4255 H 397.512 -4.31148 -6.26112 0
M  V30 4256 N 399.087 1.5561 -0.249682 0
M  V30 4257 C 400.017 2.24477 0.642826 0
M  V30 4258 C 400.998 1.22601 1.17911 0
M  V30 4259 O 402.183 1.5126 1.21795 0
M  V30 4260 C 399.313 2.94638 1.83863 0
M  V30 4261 C 398.267 4.03227 1.435 0
M  V30 4262 C 397.593 4.60828 2.71186 0
M  V30 4263 C 398.893 5.18796 0.604002 0
M  V30 4264 H 400.587 2.99321 0.0685625 0
M  V30 4265 H 398.133 1.43965 0.0315363 0
M  V30 4266 H 400.086 3.41517 2.46868 0
M  V30 4267 H 398.81 2.17287 2.43832 0
M  V30 4268 H 397.469 3.57121 0.828275 0
M  V30 4269 H 397.117 3.80174 3.29358 0
M  V30 4270 H 396.817 5.34132 2.44901 0
M  V30 4271 H 398.341 5.10442 3.35084 0
M  V30 4272 H 399.755 5.61883 1.13842 0
M  V30 4273 H 398.152 5.98506 0.437097 0
M  V30 4274 H 399.222 4.83384 -0.383147 0
M  V30 4275 N 400.565 -0.0233959 1.57583 0
M  V30 4276 C 401.475 -1.03907 2.10334 0
M  V30 4277 C 402.491 -1.39257 1.04323 0
M  V30 4278 O 403.667 -1.48462 1.36091 0
M  V30 4279 C 400.732 -2.31938 2.57693 0
M  V30 4280 C 399.793 -2.03117 3.78209 0
M  V30 4281 C 399.026 -3.25043 4.233 0
M  V30 4282 O 399.249 -4.35916 3.67876 0
M  V30 4283 O 398.183 -3.10411 5.15683 0
M  V30 4284 H 402.009 -0.620748 2.97288 0
M  V30 4285 H 399.594 -0.240743 1.47448 0
M  V30 4286 H 401.476 -3.07196 2.88458 0
M  V30 4287 H 400.151 -2.73055 1.73847 0
M  V30 4288 H 399.058 -1.25408 3.52454 0
M  V30 4289 H 400.391 -1.66852 4.63056 0
M  V30 4290 N 402.043 -1.548 -0.295768 0
M  V30 4291 C 403.291 -1.73985 -1.02828 0
M  V30 4292 C 403.612 -0.531406 -1.87619 0
M  V30 4293 O 402.882 0.454221 -1.90561 0
M  V30 4294 H 401.462 -0.641556 -0.382642 0
M  V30 4295 H 404.124 -1.92163 -0.325489 0
M  V30 4296 H 403.22 -2.63129 -1.67838 0
M  V30 4297 N 403.521 0.559213 -1.47345 0
M  V30 4298 C 404.471 1.66192 -1.5609 0
M  V30 4299 C 405.455 1.55323 -0.419957 0
M  V30 4300 O 406.647 1.63839 -0.669762 0
M  V30 4301 C 403.776 3.0497 -1.57634 0
M  V30 4302 C 402.862 3.2105 -2.77106 0
M  V30 4303 N 403.253 3.07203 -4.01821 0
M  V30 4304 C 401.551 3.52046 -2.73825 0
M  V30 4305 C 402.252 3.25919 -4.81821 0
M  V30 4306 N 401.228 3.52161 -4.14106 0
M  V30 4307 H 405.03 1.54052 -2.5029 0
M  V30 4308 H 402.544 0.763914 -1.43311 0
M  V30 4309 H 404.541 3.84142 -1.61989 0
M  V30 4310 H 403.201 3.18224 -0.645281 0
M  V30 4311 H 404.212 2.84572 -4.32711 0
M  V30 4312 H 400.889 3.71839 -1.89848 0
M  V30 4313 H 402.279 3.20198 -5.90697 0
M  V30 4314 N 404.999 1.35443 0.805782 0
M  V30 4315 C 406.227 1.31878 1.59423 0
M  V30 4316 C 406.642 -0.103562 1.88516 0
M  V30 4317 O 405.999 -1.05575 1.48863 0
M  V30 4318 C 406.05 2.12426 2.92502 0
M  V30 4319 O 405.771 3.49115 2.6467 0
M  V30 4320 C 407.272 2.16455 3.86862 0
M  V30 4321 H 404.492 0.453002 0.495005 0
M  V30 4322 H 407.036 1.78309 1.00131 0
M  V30 4323 H 405.191 1.69593 3.48306 0
M  V30 4324 H 405.605 3.90957 3.49647 0
M  V30 4325 H 407.079 2.77204 4.77349 0
M  V30 4326 H 407.556 1.16352 4.23508 0
M  V30 4327 H 408.162 2.59453 3.36993 0
M  V30 4328 N 406.477 -1.02803 1.19454 0
M  V30 4329 C 407.724 -1.76217 0.997693 0
M  V30 4330 C 408.052 -1.887 -0.47144 0
M  V30 4331 O 407.307 -1.4011 -1.3663 0
M  V30 4332 C 407.606 -3.18941 1.6128 0
M  V30 4333 C 407.272 -3.26463 3.11019 0
M  V30 4334 C 405.934 -3.28223 3.51885 0
M  V30 4335 C 408.286 -3.25542 4.07028 0
M  V30 4336 C 405.614 -3.26719 4.8731 0
M  V30 4337 C 407.966 -3.25579 5.42385 0
M  V30 4338 C 406.63 -3.25637 5.82681 0
M  V30 4339 H 405.9 -0.644823 0.365082 0
M  V30 4340 H 408.547 -1.20655 1.4871 0
M  V30 4341 H 406.852 -3.77587 1.04572 0
M  V30 4342 H 408.549 -3.74415 1.43577 0
M  V30 4343 H 405.139 -3.25822 2.78457 0
M  V30 4344 H 409.323 -3.23362 3.76498 0
M  V30 4345 H 404.579 -3.25089 5.1781 0
M  V30 4346 H 408.753 -3.23817 6.16535 0
M  V30 4347 H 406.38 -3.24226 6.87591 0
M  V30 4348 N 407.956 -0.998596 -1.21925 0
M  V30 4349 C 408.886 -0.573688 -2.26343 0
M  V30 4350 C 409.867 0.402296 -1.65274 0
M  V30 4351 O 411.052 0.291683 -1.91997 0
M  V30 4352 C 408.182 0.106839 -3.47136 0
M  V30 4353 C 407.136 -0.788269 -4.20678 0
M  V30 4354 C 406.462 0.0254927 -5.34694 0
M  V30 4355 C 407.762 -2.08784 -4.78755 0
M  V30 4356 H 409.456 -1.44651 -2.62138 0
M  V30 4357 H 407.002 -0.696975 -1.26009 0
M  V30 4358 H 408.955 0.415531 -4.19346 0
M  V30 4359 H 407.679 1.01424 -3.10452 0
M  V30 4360 H 406.338 -1.08069 -3.50309 0
M  V30 4361 H 405.986 0.933989 -4.94253 0
M  V30 4362 H 405.686 -0.570437 -5.84825 0
M  V30 4363 H 407.21 0.328147 -6.09718 0
M  V30 4364 H 408.624 -1.84272 -5.42878 0
M  V30 4365 H 407.021 -2.63307 -5.39249 0
M  V30 4366 H 408.091 -2.76284 -3.98491 0
M  V30 4367 N 409.434 1.37368 -0.772513 0
M  V30 4368 C 410.68 1.99969 -0.337681 0
M  V30 4369 C 411.013 1.61184 1.08321 0
M  V30 4370 O 410.288 0.858395 1.74533 0
M  V30 4371 C 410.571 3.56858 -0.482121 0
M  V30 4372 C 410.424 4.0555 -1.94549 0
M  V30 4373 C 411.743 4.39955 0.113143 0
M  V30 4374 H 408.862 0.726464 -0.124171 0
M  V30 4375 H 411.504 1.63034 -0.975699 0
M  V30 4376 H 409.654 3.88452 0.0610361 0
M  V30 4377 H 411.326 3.84518 -2.54841 0
M  V30 4378 H 409.569 3.57715 -2.45403 0
M  V30 4379 H 410.24 5.14587 -1.9976 0
M  V30 4380 H 412.716 4.14623 -0.35031 0
M  V30 4381 H 411.592 5.48897 -0.0180514 0
M  V30 4382 H 411.853 4.25403 1.20354 0
M  V30 4383 N 410.912 0.523116 1.48665 0
M  V30 4384 C 412.328 0.180511 1.58576 0
M  V30 4385 C 412.528 -1.31597 1.52592 0
M  V30 4386 O 411.584 -2.0937 1.4114 0
M  V30 4387 C 412.897 0.776949 2.90489 0
M  V30 4388 C 414.445 0.745058 3.04003 0
M  V30 4389 C 414.92 1.31995 4.38567 0
M  V30 4390 N 416.411 1.28162 4.45117 0
M  V30 4391 C 417.146 1.6964 5.47731 0
M  V30 4392 N 416.642 2.18816 6.57337 0
M  V30 4393 N 418.435 1.6092 5.38573 0
M  V30 4394 H 410.586 1.4958 1.50797 0
M  V30 4395 H 412.849 0.621772 0.715614 0
M  V30 4396 H 412.555 1.82732 3.00503 0
M  V30 4397 H 412.429 0.25007 3.7637 0
M  V30 4398 H 414.816 -0.296532 2.93606 0
M  V30 4399 H 414.897 1.30933 2.1975 0
M  V30 4400 H 414.541 2.36043 4.49718 0
M  V30 4401 H 414.471 0.731418 5.21496 0
M  V30 4402 H 416.962 0.92155 3.66491 0
M  V30 4403 H 417.275 2.48478 7.31764 0
M  V30 4404 H 415.62 2.22805 6.58318 0
M  V30 4405 H 418.811 1.22304 4.5184 0
M  V30 4406 H 418.984 1.93567 6.18414 0
M  V30 4407 N 412.39 -1.55475 0.257931 0
M  V30 4408 C 413.338 -2.23244 -0.653076 0
M  V30 4409 C 414.332 -1.22366 -1.17144 0
M  V30 4410 O 415.538 -1.40347 -1.12706 0
M  V30 4411 H 411.913 -0.716247 -0.229117 0
M  V30 4412 H 413.884 -2.98343 -0.0584788 0
M  V30 4413 C 412.633 -2.95401 -1.83395 0
M  V30 4414 H 411.956 -3.72802 -1.44424 0
M  V30 4415 H 413.396 -3.46165 -2.44838 0
M  V30 4416 C 411.855 -1.99895 -2.71189 0
M  V30 4417 O 412.385 -1.53909 -3.71046 0
M  V30 4418 N 410.591 -1.6676 -2.3799 0
M  V30 4419 H 410.138 -2.04352 -1.56837 0
M  V30 4420 H 410.096 -1.03127 -2.97005 0
M  V30 4421 N 413.868 0.0150385 -1.57593 0
M  V30 4422 C 414.818 1.01943 -2.0394 0
M  V30 4423 C 415.802 1.31209 -0.931286 0
M  V30 4424 O 416.994 1.30559 -1.19513 0
M  V30 4425 C 414.123 2.31621 -2.53391 0
M  V30 4426 C 413.209 2.05384 -3.7105 0
M  V30 4427 N 413.6 1.49253 -4.83278 0
M  V30 4428 C 411.898 2.35601 -3.78693 0
M  V30 4429 C 412.599 1.39143 -5.64813 0
M  V30 4430 N 411.575 1.87187 -5.10355 0
M  V30 4431 H 415.377 0.57969 -2.88126 0
M  V30 4432 H 412.891 0.221056 -1.60888 0
M  V30 4433 H 414.888 3.044 -2.84862 0
M  V30 4434 H 413.548 2.76261 -1.70616 0
M  V30 4435 H 414.559 1.17334 -5.04433 0
M  V30 4436 H 411.236 2.8322 -3.06746 0
M  V30 4437 H 412.626 0.961153 -6.6499 0
M  V30 4438 N 415.346 1.54954 0.287554 0
M  V30 4439 C 416.762 1.46469 0.633964 0
M  V30 4440 C 416.962 0.666865 1.90145 0
M  V30 4441 O 416.018 0.179906 2.51858 0
M  V30 4442 C 417.331 2.90556 0.774454 0
M  V30 4443 C 418.879 3.00681 0.869462 0
M  V30 4444 C 419.354 4.45993 1.04184 0
M  V30 4445 N 420.845 4.4976 1.10772 0
M  V30 4446 C 421.58 5.59393 1.25964 0
M  V30 4447 N 421.076 6.78923 1.37968 0
M  V30 4448 N 422.869 5.47107 1.28959 0
M  V30 4449 H 415.02 2.05288 -0.545041 0
M  V30 4450 H 417.283 0.930305 -0.182308 0
M  V30 4451 H 416.989 3.51594 -0.086207 0
M  V30 4452 H 416.863 3.38743 1.6593 0
M  V30 4453 H 419.25 2.39749 1.7206 0
M  V30 4454 H 419.331 2.55769 -0.0396831 0
M  V30 4455 H 418.975 5.07524 0.195422 0
M  V30 4456 H 418.905 4.88548 1.96542 0
M  V30 4457 H 421.396 3.63651 1.02794 0
M  V30 4458 H 421.709 7.58231 1.49353 0
M  V30 4459 H 420.054 6.81763 1.34999 0
M  V30 4460 H 423.245 4.52668 1.19202 0
M  V30 4461 H 423.418 6.32595 1.40455 0
M  V30 4462 N 416.824 -0.551391 1.4764 0
M  V30 4463 C 417.756 -1.67333 1.56628 0
M  V30 4464 C 418.769 -1.56398 0.452045 0
M  V30 4465 O 419.958 -1.6325 0.721926 0
M  V30 4466 C 417.058 -3.05841 1.45994 0
M  V30 4467 C 416.231 -3.42472 2.72088 0
M  V30 4468 C 415.29 -4.60168 2.55209 0
M  V30 4469 O 414.316 -4.64458 3.2904 0
M  V30 4470 N 415.518 -5.57024 1.63416 0
M  V30 4471 H 418.283 -1.60066 2.53375 0
M  V30 4472 H 415.844 -0.738169 1.44093 0
M  V30 4473 H 417.836 -3.8242 1.32428 0
M  V30 4474 H 416.406 -3.07302 0.573071 0
M  V30 4475 H 415.626 -2.55284 3.00373 0
M  V30 4476 H 416.914 -3.63723 3.55785 0
M  V30 4477 H 416.312 -5.56319 1.02594 0
M  V30 4478 H 414.869 -6.32906 1.558 0
M  V30 4479 N 418.302 -1.35869 -0.798587 0
M  V30 4480 C 419.265 -1.29307 -1.89242 0
M  V30 4481 C 420.265 -0.202747 -1.59517 0
M  V30 4482 O 421.455 -0.456957 -1.681 0
M  V30 4483 C 418.587 -1.00229 -3.25833 0
M  V30 4484 H 419.78 -2.26576 -1.96478 0
M  V30 4485 H 417.333 -1.20509 -0.995358 0
M  V30 4486 H 418.068 -0.033801 -3.24282 0
M  V30 4487 H 417.853 -1.79121 -3.48795 0
M  V30 4488 H 419.343 -0.98219 -4.05885 0
M  V30 4489 N 419.78 1.02168 -1.19998 0
M  V30 4490 C 421.005 1.79833 -1.03319 0
M  V30 4491 C 421.43 1.83504 0.413281 0
M  V30 4492 O 420.788 1.26635 1.29743 0
M  V30 4493 C 420.836 3.22396 -1.61533 0
M  V30 4494 O 419.94 4.03555 -0.849519 0
M  V30 4495 H 419.281 0.554872 -0.364709 0
M  V30 4496 H 421.811 1.28542 -1.59179 0
M  V30 4497 H 421.821 3.73124 -1.65054 0
M  V30 4498 H 420.496 3.19039 -2.66809 0
M  V30 4499 H 419.073 3.62169 -0.888129 0
M  V30 4500 N 421.258 1.00505 1.21394 0
M  V30 4501 C 422.188 0.585684 2.26035 0
M  V30 4502 C 423.169 -0.393525 1.65485 0
M  V30 4503 O 424.354 -0.281497 1.92149 0
M  V30 4504 C 421.484 -0.0884283 3.47187 0
M  V30 4505 C 420.438 0.810567 4.20254 0
M  V30 4506 C 419.764 0.00286382 5.347 0
M  V30 4507 C 421.064 2.1132 4.77641 0
M  V30 4508 H 422.758 1.46039 2.61368 0
M  V30 4509 H 420.304 0.703648 1.25638 0
M  V30 4510 H 422.257 -0.393286 4.19561 0
M  V30 4511 H 420.981 -0.997766 3.10986 0
M  V30 4512 H 419.64 1.09925 3.49731 0
M  V30 4513 H 419.288 -0.907765 4.94741 0
M  V30 4514 H 418.988 0.601444 5.84514 0
M  V30 4515 H 420.512 -0.295808 6.09883 0
M  V30 4516 H 421.926 1.87148 5.41893 0
M  V30 4517 H 420.323 2.66164 5.37845 0
M  V30 4518 H 421.393 2.78393 3.9702 0
M  V30 4519 N 422.737 -1.36956 0.779787 0
M  V30 4520 C 423.647 -2.33965 0.172491 0
M  V30 4521 C 424.663 -1.60574 -0.670222 0
M  V30 4522 O 425.839 -1.92617 -0.588263 0
M  V30 4523 C 422.904 -3.39761 -0.690173 0
M  V30 4524 C 421.965 -4.28964 0.169924 0
M  V30 4525 C 421.198 -5.29707 -0.651662 0
M  V30 4526 O 421.421 -5.38238 -1.88827 0
M  V30 4527 O 420.355 -6.01873 -0.0566264 0
M  V30 4528 H 424.181 -2.87647 0.974321 0
M  V30 4529 H 421.766 -1.39258 0.541078 0
M  V30 4530 H 423.648 -4.04471 -1.1824 0
M  V30 4531 H 422.323 -2.88394 -1.47006 0
M  V30 4532 H 421.23 -3.67326 0.708696 0
M  V30 4533 H 422.563 -4.83656 0.913085 0
M  V30 4534 N 424.215 -0.530993 -1.48385 0
M  V30 4535 C 425.464 0.00474348 -2.01699 0
M  V30 4536 C 425.777 1.35227 -1.41325 0
M  V30 4537 O 426.983 1.97643 -1.86144 0
M  V30 4538 C 425.439 0.0588473 -3.59852 0
M  V30 4539 C 425.047 -1.28385 -4.2921 0
M  V30 4540 C 426.791 0.543358 -4.21008 0
M  V30 4541 C 424.698 -1.19028 -5.79298 0
M  V30 4542 H 423.628 0.00554317 -0.75398 0
M  V30 4543 H 426.279 -0.674924 -1.70637 0
M  V30 4544 H 424.661 0.803612 -3.8776 0
M  V30 4545 H 425.835 -2.04426 -4.12973 0
M  V30 4546 H 424.15 -1.70418 -3.7993 0
M  V30 4547 H 426.747 0.631351 -5.3096 0
M  V30 4548 H 427.09 1.54937 -3.86394 0
M  V30 4549 H 427.623 -0.145754 -3.97533 0
M  V30 4550 H 424.362 -2.17147 -6.18488 0
M  V30 4551 H 423.882 -0.471246 -5.97946 0
M  V30 4552 H 425.561 -0.881365 -6.40969 0
M  V30 4553 N 425.693 1.55336 -0.266172 0
M  V30 4554 C 426.918 2.04258 0.359661 0
M  V30 4555 C 427.343 1.14359 1.49344 0
M  V30 4556 O 426.701 0.140369 1.80756 0
M  V30 4557 C 426.749 3.50997 0.826635 0
M  V30 4558 O 425.853 3.64204 1.93466 0
M  V30 4559 H 425.194 0.659668 0.075727 0
M  V30 4560 H 427.724 2.00694 -0.39786 0
M  V30 4561 H 427.734 3.9219 1.12477 0
M  V30 4562 H 426.409 4.159 -0.00293032 0
M  V30 4563 H 424.986 3.34913 1.63974 0
M  V30 4564 N 427.171 -0.0066808 1.57599 0
M  V30 4565 C 428.582 -0.550379 1.78403 0
M  V30 4566 C 428.933 -1.74339 0.900014 0
M  V30 4567 O 428.058 -2.16166 0.100713 0
M  V30 4568 C 428.653 -1.00523 3.23544 0
M  V30 4569 C 427.212 -1.49428 3.45468 0
M  V30 4570 C 426.359 -0.442444 2.73748 0
M  V30 4571 H 429.31 0.219508 1.57175 0
M  V30 4572 H 429.331 -1.87157 3.31289 0
M  V30 4573 H 428.843 -0.136735 3.87859 0
M  V30 4574 H 426.944 -2.3839 2.86358 0
M  V30 4575 H 427.057 -1.52635 4.54136 0
M  V30 4576 H 425.421 -0.902578 2.38171 0
M  V30 4577 H 426.204 0.416973 3.40758 0
M  V30 4578 N 428.649 -1.55105 -0.279332 0
M  V30 4579 C 429.898 -1.74618 -1.00952 0
M  V30 4580 C 430.211 -0.551096 -1.87676 0
M  V30 4581 O 431.417 -0.628507 -2.64125 0
M  V30 4582 C 429.873 -3.09025 -1.84476 0
M  V30 4583 C 429.481 -4.36081 -1.0265 0
M  V30 4584 C 431.225 -3.37891 -2.56963 0
M  V30 4585 C 429.132 -5.6153 -1.85576 0
M  V30 4586 H 428.062 -0.650868 -0.38064 0
M  V30 4587 H 430.713 -1.81569 -0.265475 0
M  V30 4588 H 429.095 -2.96095 -2.62952 0
M  V30 4589 H 430.269 -4.59909 -0.286354 0
M  V30 4590 H 428.584 -4.14312 -0.416464 0
M  V30 4591 H 431.181 -4.28822 -3.19399 0
M  V30 4592 H 431.524 -2.57737 -3.26921 0
M  V30 4593 H 432.057 -3.5189 -1.85522 0
M  V30 4594 H 428.796 -6.44413 -1.2005 0
M  V30 4595 H 428.316 -5.41854 -2.57204 0
M  V30 4596 H 429.995 -5.99594 -2.43096 0
M  V30 4597 N 430.127 0.543554 -1.4793 0
M  V30 4598 C 431.355 1.32516 -1.58894 0
M  V30 4599 C 431.77 1.87215 -0.244131 0
M  V30 4600 O 431.127 1.65709 0.764652 0
M  V30 4601 C 431.178 2.48554 -2.62494 0
M  V30 4602 O 430.899 1.96112 -3.91755 0
M  V30 4603 C 432.4 3.40572 -2.8377 0
M  V30 4604 H 429.62 0.403472 -0.536145 0
M  V30 4605 H 432.164 0.657106 -1.93655 0
M  V30 4606 H 430.319 3.1127 -2.30629 0
M  V30 4607 H 430.733 2.71967 -4.4848 0
M  V30 4608 H 432.207 4.18375 -3.60093 0
M  V30 4609 H 432.684 3.94965 -1.92092 0
M  V30 4610 H 433.29 2.8366 -3.16887 0
M  V30 4611 N 431.605 1.3629 0.791371 0
M  V30 4612 C 432.852 1.30412 1.54916 0
M  V30 4613 C 433.18 -0.117162 1.94147 0
M  V30 4614 O 432.435 -1.08599 1.62803 0
M  V30 4615 C 432.734 2.17068 2.8393 0
M  V30 4616 C 432.4 3.65645 2.63846 0
M  V30 4617 C 431.062 4.0614 2.58077 0
M  V30 4618 C 433.414 4.59855 2.45322 0
M  V30 4619 C 430.742 5.3899 2.31748 0
M  V30 4620 C 433.094 5.9292 2.2052 0
M  V30 4621 C 431.758 6.32542 2.13183 0
M  V30 4622 H 431.028 0.47721 0.566879 0
M  V30 4623 H 433.675 1.68325 0.913172 0
M  V30 4624 H 431.98 1.72085 3.51986 0
M  V30 4625 H 433.677 2.09846 3.4171 0
M  V30 4626 H 430.267 3.33518 2.69191 0
M  V30 4627 H 434.451 4.29443 2.48782 0
M  V30 4628 H 429.707 5.68672 2.24548 0
M  V30 4629 H 433.881 6.65487 2.05182 0
M  V30 4630 H 431.508 7.35412 1.92544 0
M  V30 4631 N 433.083 -1.0153 1.20538 0
M  V30 4632 C 434.013 -2.11972 0.979295 0
M  V30 4633 C 434.994 -1.6985 -0.0921787 0
M  V30 4634 O 436.179 -1.94089 0.0655932 0
M  V30 4635 C 433.309 -3.43201 0.531984 0
M  V30 4636 C 432.263 -3.9907 1.54685 0
M  V30 4637 C 431.589 -5.26082 0.956127 0
M  V30 4638 C 432.889 -4.32313 2.93092 0
M  V30 4639 H 434.583 -2.31143 1.90298 0
M  V30 4640 H 432.129 -1.11079 0.916372 0
M  V30 4641 H 434.082 -4.1985 0.361044 0
M  V30 4642 H 432.806 -3.23792 -0.427327 0
M  V30 4643 H 431.465 -3.2453 1.70517 0
M  V30 4644 H 431.113 -5.02999 -0.0111538 0
M  V30 4645 H 430.813 -5.64426 1.63393 0
M  V30 4646 H 432.337 -6.05386 0.796284 0
M  V30 4647 H 433.751 -4.99845 2.80763 0
M  V30 4648 H 432.148 -4.81774 3.57791 0
M  V30 4649 H 433.218 -3.41025 3.44717 0
M  V30 4650 N 434.561 -1.01147 -1.20859 0
M  V30 4651 C 435.789 -0.716911 -1.94082 0
M  V30 4652 C 436.204 0.721568 -1.74467 0
M  V30 4653 O 435.561 1.48889 -1.05539 0
M  V30 4654 C 435.612 -1.03662 -3.46318 0
M  V30 4655 O 435.333 -2.4186 -3.65288 0
M  V30 4656 C 436.834 -0.762386 -4.36695 0
M  V30 4657 H 434.054 -0.26367 -0.617024 0
M  V30 4658 H 436.598 -1.35127 -1.53496 0
M  V30 4659 H 434.753 -0.447757 -3.84804 0
M  V30 4660 H 435.167 -2.53224 -4.59323 0
M  V30 4661 H 436.641 -1.03621 -5.42187 0
M  V30 4662 H 437.118 0.303514 -4.3815 0
M  V30 4663 H 437.724 -1.33316 -4.03865 0
M  V30 4664 N 436.039 1.36541 -0.78704 0
M  V30 4665 C 437.002 2.28413 -0.189778 0
M  V30 4666 C 438.002 1.48719 0.611499 0
M  V30 4667 O 439.192 1.68737 0.432842 0
M  V30 4668 C 436.324 3.32824 0.737638 0
M  V30 4669 H 437.517 2.82743 -0.999831 0
M  V30 4670 H 435.07 1.46065 -0.556298 0
M  V30 4671 H 435.805 2.83646 1.57212 0
M  V30 4672 H 435.59 3.91752 0.165044 0
M  V30 4673 H 437.08 4.0144 1.15047 0
M  V30 4674 N 437.518 0.538854 1.48102 0
M  V30 4675 C 438.45 -0.256278 2.27763 0
M  V30 4676 C 439.463 -0.89633 1.35904 0
M  V30 4677 O 440.652 -0.773275 1.60881 0
M  V30 4678 C 437.752 -1.37896 3.09577 0
M  V30 4679 C 436.925 -0.839159 4.29275 0
M  V30 4680 C 435.984 -1.84405 4.9283 0
M  V30 4681 O 435.01 -1.39746 5.51779 0
M  V30 4682 N 436.212 -3.17666 4.85869 0
M  V30 4683 H 438.977 0.426968 2.96643 0
M  V30 4684 H 436.538 0.373747 1.57527 0
M  V30 4685 H 438.53 -2.04955 3.48963 0
M  V30 4686 H 437.1 -1.96572 2.4306 0
M  V30 4687 H 436.32 0.00769287 3.94199 0
M  V30 4688 H 437.608 -0.457548 5.06739 0
M  V30 4689 H 437.006 -3.56609 4.39143 0
M  V30 4690 H 435.563 -3.80334 5.29329 0
M  V30 4691 N 438.996 -1.55193 0.274407 0
M  V30 4692 C 440.224 -2.03987 -0.345943 0
M  V30 4693 C 440.639 -1.15279 -1.4952 0
M  V30 4694 O 439.996 -0.172759 -1.8168 0
M  V30 4695 C 440.047 -3.51898 -0.827631 0
M  V30 4696 O 439.768 -4.37231 0.275855 0
M  V30 4697 C 441.269 -4.16577 -1.51587 0
M  V30 4698 H 438.489 -0.666335 -0.0789892 0
M  V30 4699 H 441.033 -2.00423 0.406294 0
M  V30 4700 H 439.188 -3.55909 -1.52996 0
M  V30 4701 H 439.602 -5.24415 -0.0943638 0
M  V30 4702 H 441.076 -5.21678 -1.80433 0
M  V30 4703 H 441.553 -3.64707 -2.44716 0
M  V30 4704 H 442.159 -4.16568 -0.857409 0
M  V30 4705 N 440.474 -0.00167713 -1.576 0
M  V30 4706 C 441.404 0.988091 -2.11563 0
M  V30 4707 C 442.385 1.35736 -1.02517 0
M  V30 4708 O 443.57 1.44082 -1.30208 0
M  V30 4709 C 440.7 2.27941 -2.62031 0
M  V30 4710 C 439.654 2.0517 -3.75619 0
M  V30 4711 C 438.98 3.4033 -4.12407 0
M  V30 4712 C 440.28 1.41294 -5.02825 0
M  V30 4713 H 441.974 0.538771 -2.94513 0
M  V30 4714 H 439.52 0.257712 -1.41675 0
M  V30 4715 H 441.473 2.97539 -2.9841 0
M  V30 4716 H 440.197 2.74989 -1.76205 0
M  V30 4717 H 438.856 1.37998 -3.39635 0
M  V30 4718 H 438.504 3.85085 -3.23603 0
M  V30 4719 H 438.204 3.25909 -4.88935 0
M  V30 4720 H 439.728 4.1124 -4.51347 0
M  V30 4721 H 441.142 2.00851 -5.36965 0
M  V30 4722 H 439.539 1.37356 -5.84169 0
M  V30 4723 H 440.609 0.382362 -4.8339 0
M  V30 4724 N 441.952 1.55251 0.271103 0
M  V30 4725 C 442.882 1.9127 1.33933 0
M  V30 4726 C 443.863 0.77478 1.5143 0
M  V30 4727 O 445.048 1.03307 1.64442 0
M  V30 4728 C 442.178 2.18627 2.69851 0
M  V30 4729 C 441.132 3.34442 2.67081 0
M  V30 4730 C 440.458 3.47284 4.06569 0
M  V30 4731 C 441.758 4.70784 2.26185 0
M  V30 4732 H 443.452 2.80744 1.04035 0
M  V30 4733 H 440.998 1.35077 0.499017 0
M  V30 4734 H 442.951 2.42413 3.44694 0
M  V30 4735 H 441.675 1.25955 3.01335 0
M  V30 4736 H 440.334 3.10627 1.94695 0
M  V30 4737 H 439.982 2.52074 4.35279 0
M  V30 4738 H 439.682 4.25152 4.0561 0
M  V30 4739 H 441.206 3.73363 4.83148 0
M  V30 4740 H 442.62 4.94102 2.90751 0
M  V30 4741 H 441.017 5.51582 2.36384 0
M  V30 4742 H 442.087 4.69478 1.21319 0
M  V30 4743 N 443.43 -0.535701 1.48216 0
M  V30 4744 C 444.363 -1.65726 1.56876 0
M  V30 4745 C 445.341 -1.57094 0.419542 0
M  V30 4746 O 446.525 -1.77648 0.630352 0
M  V30 4747 C 443.652 -3.04096 1.49142 0
M  V30 4748 C 442.698 -3.31105 2.68834 0
M  V30 4749 S 443.531 -3.18001 4.30854 0
M  V30 4750 C 444.687 -4.58828 4.25709 0
M  V30 4751 H 444.92 -1.58129 2.51759 0
M  V30 4752 H 442.453 -0.718218 1.36678 0
M  V30 4753 H 444.411 -3.839 1.45366 0
M  V30 4754 H 443.072 -3.09139 0.556067 0
M  V30 4755 H 442.265 -4.32033 2.59545 0
M  V30 4756 H 441.867 -2.58961 2.69843 0
M  V30 4757 H 444.159 -5.5023 3.95289 0
M  V30 4758 H 445.102 -4.73172 5.26796 0
M  V30 4759 H 445.51 -4.37883 3.56257 0
M  V30 4760 N 444.908 -1.36708 -0.784132 0
M  V30 4761 C 446.185 -1.21776 -1.53069 0
M  V30 4762 C 446.565 0.193876 -2.10208 0
M  V30 4763 O 445.913 1.20012 -1.94446 0
M  V30 4764 C 446.123 -2.30395 -2.62143 0
M  V30 4765 C 447.471 -2.67325 -3.29882 0
M  V30 4766 O 448.495 -2.29478 -2.7243 0
M  V30 4767 O 447.354 -3.32485 -4.33724 0
M  V30 4768 H 444.448 -0.474459 -0.677361 0
M  V30 4769 H 446.994 -1.48454 -0.82216 0
M  V30 4770 H 445.766 -3.2498 -2.17953 0
M  V30 4771 H 445.389 -2.05112 -3.40609 0
M  V30 4772 N 446.386 1.0089 -1.21074 0
M  V30 4773 C 447.316 2.1145 -0.990523 0
M  V30 4774 C 448.297 1.69897 0.0831699 0
M  V30 4775 O 449.482 1.94052 -0.0758853 0
M  V30 4776 C 446.612 3.42914 -0.550177 0
M  V30 4777 C 445.566 3.98244 -1.56799 0
M  V30 4778 C 444.892 5.25568 -0.984013 0
M  V30 4779 C 446.192 4.30752 -2.95381 0
M  V30 4780 H 447.886 2.3013 -1.91521 0
M  V30 4781 H 445.432 1.10592 -0.92225 0
M  V30 4782 H 447.385 4.19653 -0.383305 0
M  V30 4783 H 446.109 3.24014 0.41015 0
M  V30 4784 H 444.768 3.23621 -1.72236 0
M  V30 4785 H 444.416 5.02998 -0.0155216 0
M  V30 4786 H 444.116 5.63551 -1.66384 0
M  V30 4787 H 445.64 6.04955 -0.828378 0
M  V30 4788 H 447.054 4.98349 -2.8341 0
M  V30 4789 H 445.451 4.79869 -3.60341 0
M  V30 4790 H 446.521 3.39192 -3.46521 0
M  V30 4791 N 447.864 1.01787 1.20321 0
M  V30 4792 C 449.112 0.706538 1.89347 0
M  V30 4793 C 449.433 -0.766289 1.79313 0
M  V30 4794 O 448.703 -1.55126 1.19635 0
M  V30 4795 H 447.283 0.258348 0.700903 0
M  V30 4796 H 449.945 1.28974 1.46122 0
M  V30 4797 H 449.041 0.991066 2.95946 0
M  V30 4798 N 449.342 -1.36122 0.79427 0
M  V30 4799 C 450.274 -2.28683 0.153903 0
M  V30 4800 C 451.287 -1.49707 -0.639669 0
M  V30 4801 O 452.476 -1.7209 -0.474054 0
M  V30 4802 C 449.576 -3.29202 -0.804921 0
M  V30 4803 C 448.749 -4.37358 -0.060366 0
M  V30 4804 C 447.808 -5.17811 -0.935849 0
M  V30 4805 O 446.834 -5.67853 -0.391309 0
M  V30 4806 N 448.036 -5.34721 -2.25951 0
M  V30 4807 H 450.801 -2.84278 0.949008 0
M  V30 4808 H 448.362 -1.4834 0.648611 0
M  V30 4809 H 450.354 -3.79914 -1.39455 0
M  V30 4810 H 448.924 -2.74212 -1.50088 0
M  V30 4811 H 448.144 -3.87746 0.710382 0
M  V30 4812 H 449.432 -5.06777 0.45324 0
M  V30 4813 H 448.83 -4.95687 -2.72601 0
M  V30 4814 H 447.387 -5.88657 -2.79867 0
M  V30 4815 N 450.82 -0.546701 -1.47814 0
M  V30 4816 C 452.067 -0.0187407 -2.02491 0
M  V30 4817 C 452.395 1.32685 -1.42215 0
M  V30 4818 O 451.65 1.87413 -0.563454 0
M  V30 4819 C 451.949 0.134869 -3.57145 0
M  V30 4820 C 451.615 -1.13849 -4.3629 0
M  V30 4821 C 450.277 -1.48743 -4.57634 0
M  V30 4822 C 452.629 -1.98277 -4.82012 0
M  V30 4823 C 449.957 -2.67932 -5.21948 0
M  V30 4824 C 452.309 -3.16659 -5.4764 0
M  V30 4825 C 450.973 -3.51879 -5.67219 0
M  V30 4826 H 450.243 -0.0068577 -0.740968 0
M  V30 4827 H 452.89 -0.716097 -1.77607 0
M  V30 4828 H 451.195 0.915118 -3.80963 0
M  V30 4829 H 452.892 0.558556 -3.97091 0
M  V30 4830 H 449.482 -0.856767 -4.19949 0
M  V30 4831 H 453.666 -1.72628 -4.6531 0
M  V30 4832 H 448.922 -2.95401 -5.35302 0
M  V30 4833 H 453.096 -3.82374 -5.82033 0
M  V30 4834 H 450.723 -4.44331 -6.16825 0
M  V30 4835 N 452.299 1.55045 -0.282633 0
M  V30 4836 C 453.229 2.2579 0.595066 0
M  V30 4837 C 454.21 1.25074 1.15284 0
M  V30 4838 O 455.395 1.5381 1.18559 0
M  V30 4839 C 452.525 2.98472 1.77572 0
M  V30 4840 C 451.479 4.0618 1.34914 0
M  V30 4841 C 450.805 4.66477 2.6135 0
M  V30 4842 C 452.105 5.1996 0.493821 0
M  V30 4843 H 453.799 2.994 0.00505653 0
M  V30 4844 H 451.345 1.44 0.000992001 0
M  V30 4845 H 453.298 3.46677 2.39568 0
M  V30 4846 H 452.022 2.2241 2.39168 0
M  V30 4847 H 450.681 3.58797 0.752338 0
M  V30 4848 H 450.329 3.87074 3.2122 0
M  V30 4849 H 450.029 5.39207 2.33516 0
M  V30 4850 H 451.553 5.17435 3.24181 0
M  V30 4851 H 452.967 5.64172 1.01898 0
M  V30 4852 H 451.364 5.99299 0.310047 0
M  V30 4853 H 452.434 4.82462 -0.485593 0
M  V30 4854 N 453.777 0.010035 1.57597 0
M  V30 4855 C 454.707 -0.976857 2.12084 0
M  V30 4856 C 455.688 -1.35191 1.03235 0
M  V30 4857 O 456.873 -1.43389 1.3097 0
M  V30 4858 C 454.003 -2.26548 2.63236 0
M  V30 4859 C 452.957 -2.03175 3.76701 0
M  V30 4860 C 452.283 -3.38138 4.14206 0
M  V30 4861 C 453.583 -1.38625 5.03568 0
M  V30 4862 H 455.277 -0.523145 2.94794 0
M  V30 4863 H 452.823 -0.250195 1.4181 0
M  V30 4864 H 454.776 -2.95952 2.99984 0
M  V30 4865 H 453.5 -2.74051 1.77661 0
M  V30 4866 H 452.159 -1.36195 3.40362 0
M  V30 4867 H 451.807 -3.83363 3.25641 0
M  V30 4868 H 451.507 -3.23312 4.90656 0
M  V30 4869 H 453.031 -4.08841 4.53521 0
M  V30 4870 H 454.445 -1.98 5.38023 0
M  V30 4871 H 452.842 -1.34256 5.84889 0
M  V30 4872 H 453.912 -0.356722 4.83586 0
M  V30 4873 N 455.255 -1.55392 -0.262866 0
M  V30 4874 C 456.502 -1.76476 -0.993109 0
M  V30 4875 C 456.83 -0.571479 -1.85915 0
M  V30 4876 O 456.085 0.445733 -1.90556 0
M  V30 4877 C 456.384 -3.02889 -1.89718 0
M  V30 4878 C 456.05 -4.34974 -1.18781 0
M  V30 4879 C 454.712 -4.7087 -0.991699 0
M  V30 4880 C 457.064 -5.16695 -0.683798 0
M  V30 4881 C 454.392 -5.86036 -0.279024 0
M  V30 4882 C 456.744 -6.32598 0.0153327 0
M  V30 4883 C 455.408 -6.67127 0.223062 0
M  V30 4884 H 454.678 -0.64577 -0.363404 0
M  V30 4885 H 457.325 -1.89664 -0.264525 0
M  V30 4886 H 455.63 -2.84644 -2.6923 0
M  V30 4887 H 457.327 -3.16399 -2.46359 0
M  V30 4888 H 453.917 -4.06765 -1.35058 0
M  V30 4889 H 458.101 -4.8943 -0.8229 0
M  V30 4890 H 453.357 -6.11306 -0.107456 0
M  V30 4891 H 457.531 -6.95171 0.413584 0
M  V30 4892 H 455.158 -7.56216 0.777265 0
M  V30 4893 N 456.733 0.527833 -1.48498 0
M  V30 4894 C 457.973 1.29401 -1.58224 0
M  V30 4895 C 458.337 1.90348 -0.251327 0
M  V30 4896 O 459.538 2.67868 -0.223588 0
M  V30 4897 C 457.809 2.35266 -2.69044 0
M  V30 4898 S 459.368 3.2158 -2.98549 0
M  V30 4899 H 456.186 0.440138 -0.558391 0
M  V30 4900 H 458.788 0.601079 -1.8603 0
M  V30 4901 H 457.492 1.88975 -3.64303 0
M  V30 4902 H 457.023 3.09263 -2.43146 0
M  V30 4903 H 459.038 4.35391 -2.38011 0
M  V30 4904 N 458.211 1.37122 0.776871 0
M  V30 4905 C 459.161 1.28989 1.88005 0
M  V30 4906 C 460.145 0.178765 1.59904 0
M  V30 4907 O 461.337 0.412705 1.72121 0
M  V30 4908 C 458.466 1.09402 3.25402 0
M  V30 4909 C 457.552 2.25036 3.59471 0
M  V30 4910 N 457.943 3.50407 3.64759 0
M  V30 4911 C 456.241 2.17078 3.89607 0
M  V30 4912 C 456.942 4.26628 3.95428 0
M  V30 4913 N 455.918 3.55709 4.11062 0
M  V30 4914 H 459.72 2.2394 1.90337 0
M  V30 4915 H 457.234 1.30021 0.973052 0
M  V30 4916 H 459.231 1.01661 4.04315 0
M  V30 4917 H 457.891 0.153632 3.24336 0
M  V30 4918 H 458.902 3.8438 3.47091 0
M  V30 4919 H 455.579 1.31067 3.96393 0
M  V30 4920 H 456.969 5.35107 4.06338 0
M  V30 4921 N 459.689 -1.00246 1.21608 0
M  V30 4922 C 460.938 -1.73476 1.02902 0
M  V30 4923 C 461.251 -1.90643 -0.437561 0
M  V30 4924 O 462.457 -2.61105 -0.74407 0
M  V30 4925 C 460.913 -3.12079 1.79261 0
M  V30 4926 C 460.521 -3.02877 3.30106 0
M  V30 4927 C 462.265 -3.89421 1.68972 0
M  V30 4928 C 460.172 -4.36575 3.98944 0
M  V30 4929 H 459.102 -0.650408 0.381425 0
M  V30 4930 H 461.753 -1.11985 1.45367 0
M  V30 4931 H 460.135 -3.74196 1.2959 0
M  V30 4932 H 461.309 -2.49983 3.87098 0
M  V30 4933 H 459.624 -2.39022 3.40965 0
M  V30 4934 H 462.221 -4.88362 2.17731 0
M  V30 4935 H 462.564 -4.1122 0.648397 0
M  V30 4936 H 463.097 -3.33963 2.16133 0
M  V30 4937 H 459.836 -4.19978 5.03288 0
M  V30 4938 H 459.356 -4.8942 3.4674 0
M  V30 4939 H 461.035 -5.05364 4.04 0
M  V30 4940 N 461.167 -1.02423 -1.1978 0
M  V30 4941 C 462.392 -0.7373 -1.93852 0
M  V30 4942 C 462.817 0.696923 -1.74713 0
M  V30 4943 O 462.175 1.48056 -1.04638 0
M  V30 4944 C 462.223 -1.08783 -3.438 0
M  V30 4945 O 461.327 -0.20383 -4.11896 0
M  V30 4946 H 460.668 -0.27284 -0.605355 0
M  V30 4947 H 463.198 -1.36966 -1.51992 0
M  V30 4948 H 463.208 -1.04276 -3.9445 0
M  V30 4949 H 461.883 -2.13274 -3.57053 0
M  V30 4950 H 460.46 -0.307091 -3.71633 0
M  V30 4951 N 462.645 1.35699 -0.801477 0
M  V30 4952 C 463.87 2.03687 -0.390678 0
M  V30 4953 C 464.295 1.60015 0.988778 0
M  V30 4954 O 463.653 0.774357 1.63931 0
M  V30 4955 C 463.701 3.57439 -0.476404 0
M  V30 4956 O 462.805 4.09208 0.512106 0
M  V30 4957 H 462.146 0.64344 -0.163956 0
M  V30 4958 H 464.676 1.73403 -1.08594 0
M  V30 4959 H 464.686 4.06544 -0.344357 0
M  V30 4960 H 463.361 3.88576 -1.48262 0
M  V30 4961 H 461.938 3.7134 0.340721 0
M  V30 4962 N 464.123 0.554532 1.47522 0
M  V30 4963 C 465.073 -0.215008 2.26984 0
M  V30 4964 C 466.057 -0.88774 1.34194 0
M  V30 4965 O 467.249 -0.786489 1.58567 0
M  V30 4966 C 464.378 -1.24604 3.19889 0
M  V30 4967 C 463.464 -0.576857 4.20159 0
M  V30 4968 N 463.855 0.351541 5.04577 0
M  V30 4969 C 462.153 -0.831104 4.38188 0
M  V30 4970 C 462.854 0.739995 5.76974 0
M  V30 4971 N 461.83 0.0954407 5.43516 0
M  V30 4972 H 465.632 0.498843 2.89636 0
M  V30 4973 H 463.146 0.374279 1.58028 0
M  V30 4974 H 465.143 -1.81128 3.75498 0
M  V30 4975 H 463.803 -1.96101 2.58794 0
M  V30 4976 H 464.814 0.725556 5.12792 0
M  V30 4977 H 461.491 -1.53479 3.88266 0
M  V30 4978 H 462.881 1.50271 6.5488 0
M  V30 4979 N 465.601 -1.54893 0.290851 0
M  V30 4980 C 466.533 -2.20564 -0.623236 0
M  V30 4981 C 467.546 -1.19519 -1.1054 0
M  V30 4982 O 468.735 -1.46165 -1.02459 0
M  V30 4983 C 465.835 -2.83033 -1.86401 0
M  V30 4984 C 465.008 -4.09916 -1.52604 0
M  V30 4985 C 464.067 -4.56284 -2.62091 0
M  V30 4986 O 463.093 -5.2171 -2.27612 0
M  V30 4987 N 464.295 -4.27746 -3.92446 0
M  V30 4988 H 467.06 -2.99638 -0.0610915 0
M  V30 4989 H 464.621 -1.61508 0.112615 0
M  V30 4990 H 466.613 -3.1099 -2.58973 0
M  V30 4991 H 465.183 -2.0786 -2.33481 0
M  V30 4992 H 464.403 -3.89078 -0.633424 0
M  V30 4993 H 465.691 -4.92554 -1.27547 0
M  V30 4994 H 465.089 -3.7531 -4.23272 0
M  V30 4995 H 463.646 -4.60437 -4.61347 0
M  V30 4996 N 467.08 -0.0183926 -1.57589 0
M  V30 4997 C 468.03 0.975944 -2.06057 0
M  V30 4998 C 469.014 1.29204 -0.958908 0
M  V30 4999 O 470.206 1.27995 -1.22255 0
M  V30 5000 C 467.335 2.26194 -2.58247 0
M  V30 5001 C 466.421 1.97467 -3.75323 0
M  V30 5002 N 466.812 1.38968 -4.86335 0
M  V30 5003 C 465.11 2.27515 -3.83605 0
M  V30 5004 C 465.811 1.27131 -5.67638 0
M  V30 5005 N 464.787 1.76319 -5.14211 0
M  V30 5006 H 468.589 0.518444 -2.89291 0
M  V30 5007 H 466.103 0.18688 -1.61321 0
M  V30 5008 H 468.1 2.98289 -2.91255 0
M  V30 5009 H 466.76 2.7258 -1.76438 0
M  V30 5010 H 467.771 1.06608 -5.06809 0
M  V30 5011 H 464.448 2.76649 -3.12684 0
M  V30 5012 H 465.838 0.819882 -6.66879 0
M  V30 5013 N 468.558 1.5553 0.254621 0
M  V30 5014 C 469.835 1.6774 1.00611 0
M  V30 5015 C 470.215 0.555993 2.03647 0
M  V30 5016 O 469.563 -0.441583 2.24193 0
M  V30 5017 C 469.773 3.07725 1.6464 0
M  V30 5018 C 471.121 3.66074 2.15116 0
M  V30 5019 O 472.145 3.10476 1.74595 0
M  V30 5020 O 471.004 4.63526 2.89493 0
M  V30 5021 H 468.098 0.681958 0.467828 0
M  V30 5022 H 470.644 1.67863 0.24902 0
M  V30 5023 H 469.416 3.80792 0.900734 0
M  V30 5024 H 469.039 3.1158 2.46989 0
M  V30 5025 N 470.036 -0.519951 1.48776 0
M  V30 5026 C 471.284 -1.2727 1.56993 0
M  V30 5027 C 471.605 -1.9339 0.25004 0
M  V30 5028 O 470.875 -1.81822 -0.729216 0
M  V30 5029 H 469.455 -0.472732 0.578389 0
M  V30 5030 H 472.117 -0.604234 1.85297 0
M  V30 5031 H 471.213 -2.04669 2.3562 0
M  V30 5032 N 471.514 -1.37532 -0.769588 0
M  V30 5033 C 472.447 -1.27839 -1.8903 0
M  V30 5034 C 473.425 -0.158504 -1.61826 0
M  V30 5035 O 474.609 -0.333086 -1.85534 0
M  V30 5036 C 471.736 -0.977072 -3.24301 0
M  V30 5037 C 470.782 -2.11414 -3.70414 0
M  V30 5038 S 471.615 -3.73409 -3.83831 0
M  V30 5039 C 472.771 -3.45432 -5.21946 0
M  V30 5040 H 473.004 -2.22694 -1.96963 0
M  V30 5041 H 470.537 -1.2318 -0.930914 0
M  V30 5042 H 472.495 -0.810049 -4.02428 0
M  V30 5043 H 471.156 -0.0459701 -3.14066 0
M  V30 5044 H 470.349 -1.85837 -4.68488 0
M  V30 5045 H 469.951 -2.24141 -2.99394 0
M  V30 5046 H 472.243 -3.00554 -6.07185 0
M  V30 5047 H 473.186 -4.42841 -5.52537 0
M  V30 5048 H 473.594 -2.80311 -4.89986 0
M  V30 5049 N 472.992 0.995999 -1.22138 0
M  V30 5050 C 473.902 2.11985 -1.00496 0
M  V30 5051 C 474.918 1.7394 0.0457701 0
M  V30 5052 O 476.094 2.00868 -0.146273 0
M  V30 5053 C 473.159 3.41779 -0.582086 0
M  V30 5054 C 472.22 3.93943 -1.70608 0
M  V30 5055 C 471.453 5.17542 -1.30328 0
M  V30 5056 O 471.676 5.70114 -0.180743 0
M  V30 5057 O 470.61 5.63382 -2.11861 0
M  V30 5058 H 474.436 2.33123 -1.94647 0
M  V30 5059 H 472.021 1.10358 -1.00705 0
M  V30 5060 H 473.903 4.1989 -0.356467 0
M  V30 5061 H 472.578 3.22007 0.330592 0
M  V30 5062 H 471.485 3.17019 -1.98619 0
M  V30 5063 H 472.818 4.18141 -2.59651 0
M  V30 5064 N 474.47 1.03057 1.19235 0
M  V30 5065 C 475.433 0.617418 2.20727 0
M  V30 5066 C 476.433 -0.319856 1.57587 0
M  V30 5067 O 477.623 -0.106633 1.73873 0
M  V30 5068 C 474.755 -0.096296 3.40764 0
M  V30 5069 H 475.948 1.51544 2.58794 0
M  V30 5070 H 473.501 0.821949 1.32942 0
M  V30 5071 H 474.236 -1.00859 3.08217 0
M  V30 5072 H 474.021 0.577217 3.87828 0
M  V30 5073 H 475.511 -0.372219 4.15938 0
M  V30 5074 N 475.948 -1.35272 0.808662 0
M  V30 5075 C 477.178 -2.02652 0.401953 0
M  V30 5076 C 477.586 -1.6108 -0.992462 0
M  V30 5077 O 476.929 -0.804984 -1.65123 0
M  V30 5078 C 476.991 -3.57174 0.408246 0
M  V30 5079 C 476.655 -4.22019 1.75353 0
M  V30 5080 C 477.652 -4.43552 2.71215 0
M  V30 5081 C 475.337 -4.59093 2.03811 0
M  V30 5082 C 477.331 -5.01264 3.93717 0
M  V30 5083 C 475.018 -5.16519 3.26576 0
M  V30 5084 C 476.016 -5.37546 4.21347 0
M  V30 5085 O 475.704 -5.93761 5.41944 0
M  V30 5086 H 475.436 -0.656495 0.161216 0
M  V30 5087 H 477.99 -1.73829 1.0942 0
M  V30 5088 H 476.22 -3.85197 -0.340608 0
M  V30 5089 H 477.909 -4.05893 0.0235623 0
M  V30 5090 H 478.675 -4.15288 2.50522 0
M  V30 5091 H 474.554 -4.42039 1.30854 0
M  V30 5092 H 478.098 -5.17592 4.67701 0
M  V30 5093 H 473.995 -5.4421 3.47139 0
M  V30 5094 H 474.763 -6.1221 5.43269 0
M  V30 5095 N 477.426 -0.562348 -1.47226 0
M  V30 5096 C 478.672 -0.0402761 -2.0276 0
M  V30 5097 C 479.005 1.30823 -1.43523 0
M  V30 5098 O 478.28 1.85249 -0.592705 0
M  V30 5099 C 478.563 0.047311 -3.60069 0
M  V30 5100 C 478.416 -1.32865 -4.29729 0
M  V30 5101 C 479.735 0.758182 -4.3352 0
M  V30 5102 H 476.854 -0.0161105 -0.736824 0
M  V30 5103 H 479.496 -0.725628 -1.75598 0
M  V30 5104 H 477.646 0.630986 -3.83342 0
M  V30 5105 H 479.318 -1.95593 -4.17781 0
M  V30 5106 H 477.561 -1.90195 -3.89882 0
M  V30 5107 H 478.232 -1.22004 -5.38349 0
M  V30 5108 H 480.708 0.262546 -4.15271 0
M  V30 5109 H 479.584 0.78844 -5.43208 0
M  V30 5110 H 479.845 1.81537 -4.03109 0
M  V30 5111 N 478.904 1.54736 -0.299062 0
M  V30 5112 C 479.851 2.23448 0.577899 0
M  V30 5113 C 480.821 1.21637 1.13109 0
M  V30 5114 O 482.006 1.50252 1.17597 0
M  V30 5115 C 479.146 2.9774 1.74484 0
M  V30 5116 C 478.259 4.1432 1.22323 0
M  V30 5117 C 477.394 4.76199 2.35388 0
M  V30 5118 C 476.433 5.84927 1.80351 0
M  V30 5119 N 475.57 6.4077 2.86982 0
M  V30 5120 H 480.41 2.97996 -0.0146545 0
M  V30 5121 H 477.947 1.47088 -0.0190013 0
M  V30 5122 H 479.905 3.39045 2.43114 0
M  V30 5123 H 478.535 2.25572 2.30905 0
M  V30 5124 H 477.587 3.7797 0.429249 0
M  V30 5125 H 478.899 4.92659 0.780309 0
M  V30 5126 H 478.053 5.20346 3.11969 0
M  V30 5127 H 476.792 3.97188 2.83006 0
M  V30 5128 H 475.797 5.40207 1.02259 0
M  V30 5129 H 477.022 6.65821 1.3364 0
M  V30 5130 H 474.968 5.64643 3.33938 0
M  V30 5131 H 474.885 7.1445 2.4718 0
M  V30 5132 H 476.153 6.89574 3.63466 0
M  V30 5133 N 480.382 0.0267497 1.57577 0
M  V30 5134 C 481.628 -0.653371 1.91987 0
M  V30 5135 C 481.961 -1.71915 0.903263 0
M  V30 5136 O 481.236 -1.94358 -0.0743387 0
M  V30 5137 C 481.519 -1.272 3.36886 0
M  V30 5138 C 481.372 -0.215938 4.49281 0
M  V30 5139 C 482.691 -2.19069 3.81703 0
M  V30 5140 H 479.81 -0.236047 0.698177 0
M  V30 5141 H 482.452 0.0835236 1.89816 0
M  V30 5142 H 480.602 -1.90005 3.38866 0
M  V30 5143 H 482.274 0.41449 4.59434 0
M  V30 5144 H 480.517 0.458855 4.31366 0
M  V30 5145 H 481.188 -0.688347 5.47691 0
M  V30 5146 H 483.664 -1.66253 3.81444 0
M  V30 5147 H 482.54 -2.59307 4.83788 0
M  V30 5148 H 482.801 -3.08087 3.17072 0
M  V30 5149 N 481.861 -1.55662 -0.24637 0
M  V30 5150 C 483.138 -1.68272 -0.997198 0
M  V30 5151 C 483.518 -0.566785 -2.03349 0
M  V30 5152 O 482.866 0.429688 -2.24424 0
M  V30 5153 C 483.076 -3.08594 -1.63006 0
M  V30 5154 C 484.424 -3.6721 -2.13171 0
M  V30 5155 O 485.448 -3.11397 -1.72946 0
M  V30 5156 O 484.307 -4.65054 -2.87031 0
M  V30 5157 H 481.401 -0.684429 -0.464205 0
M  V30 5158 H 483.947 -1.67993 -0.240114 0
M  V30 5159 H 482.719 -3.81264 -0.880527 0
M  V30 5160 H 482.342 -3.12886 -2.45333 0
M  V30 5161 N 483.339 0.512053 -1.4905 0
M  V30 5162 C 484.564 1.2959 -1.6193 0
M  V30 5163 C 484.989 1.85906 -0.286454 0
M  V30 5164 O 484.347 1.65312 0.744426 0
M  V30 5165 C 484.395 2.40987 -2.68249 0
M  V30 5166 O 483.499 3.44531 -2.26654 0
M  V30 5167 H 482.84 0.383053 -0.542371 0
M  V30 5168 H 485.37 0.614231 -1.95162 0
M  V30 5169 H 485.38 2.86913 -2.90078 0
M  V30 5170 H 484.055 1.99361 -3.65004 0
M  V30 5171 H 482.632 3.046 -2.15112 0
M  V30 5172 N 484.817 1.37938 0.762283 0
M  V30 5173 C 486.057 1.35076 1.53407 0
M  V30 5174 C 486.421 -0.061546 1.91901 0
M  V30 5175 O 487.622 -0.214973 2.67939 0
M  V30 5176 C 485.893 2.27206 2.75884 0
M  V30 5177 S 487.452 2.42283 3.65848 0
M  V30 5178 H 484.27 0.479387 0.52508 0
M  V30 5179 H 486.872 1.7378 0.895586 0
M  V30 5180 H 485.576 3.28724 2.457 0
M  V30 5181 H 485.107 1.8962 3.44685 0
M  V30 5182 H 487.122 1.64044 4.68299 0
M  V30 5183 N 486.295 -0.989507 1.22664 0
M  V30 5184 C 487.706 -1.54406 1.04955 0
M  V30 5185 C 488.057 -1.92366 -0.385951 0
M  V30 5186 O 487.182 -1.75111 -1.27142 0
M  V30 5187 C 487.777 -2.80578 1.89899 0
M  V30 5188 C 486.336 -3.32464 1.76478 0
M  V30 5189 C 485.483 -2.05524 1.86159 0
M  V30 5190 H 488.434 -0.810211 1.3646 0
M  V30 5191 H 488.455 -3.53075 1.4184 0
M  V30 5192 H 487.967 -2.52918 2.94371 0
M  V30 5193 H 486.068 -3.65024 0.747528 0
M  V30 5194 H 486.181 -4.02838 2.59342 0
M  V30 5195 H 484.545 -2.19241 1.29636 0
M  V30 5196 H 485.328 -1.80258 2.92168 0
M  V30 5197 N 487.773 -1.03688 -1.18687 0
M  V30 5198 C 488.683 -0.634908 -2.25845 0
M  V30 5199 C 489.699 0.337065 -1.70704 0
M  V30 5200 O 490.875 0.192943 -2.00474 0
M  V30 5201 C 487.94 -0.000180054 -3.467 0
M  V30 5202 C 487.001 -1.02067 -4.1699 0
M  V30 5203 C 486.234 -0.41614 -5.32075 0
M  V30 5204 O 486.457 0.778712 -5.65059 0
M  V30 5205 O 485.391 -1.14296 -5.90948 0
M  V30 5206 H 489.217 -1.52757 -2.62486 0
M  V30 5207 H 486.802 -0.807533 -1.25695 0
M  V30 5208 H 488.684 0.353342 -4.19916 0
M  V30 5209 H 487.359 0.866367 -3.11891 0
M  V30 5210 H 486.266 -1.42592 -3.45859 0
M  V30 5211 H 487.599 -1.85786 -4.5579 0
M  V30 5212 N 489.251 1.34841 -0.815825 0
M  V30 5213 C 490.161 2.33425 -0.234462 0
M  V30 5214 C 491.177 1.62295 0.627413 0
M  V30 5215 O 492.353 1.94109 0.536987 0
M  V30 5216 C 489.418 3.41471 0.599849 0
M  V30 5217 C 488.479 4.28362 -0.283596 0
M  V30 5218 C 487.712 5.31248 0.51099 0
M  V30 5219 O 487.935 5.43056 1.7449 0
M  V30 5220 O 486.869 6.01812 -0.10297 0
M  V30 5221 H 490.695 2.84962 -1.05024 0
M  V30 5222 H 488.28 1.37774 -0.577809 0
M  V30 5223 H 490.162 4.07464 1.07475 0
M  V30 5224 H 488.837 2.9219 1.39308 0
M  V30 5225 H 487.744 3.65318 -0.805836 0
M  V30 5226 H 489.077 4.81066 -1.041 0
M  V30 5227 N 490.729 0.570148 1.46925 0
M  V30 5228 C 492.14 0.1402 1.86173 0
M  V30 5229 C 492.491 -1.29347 1.47526 0
M  V30 5230 O 491.616 -1.97508 0.884292 0
M  V30 5231 C 492.211 0.247661 3.37894 0
M  V30 5232 C 490.77 -0.127332 3.76185 0
M  V30 5233 C 489.917 0.589349 2.70965 0
M  V30 5234 H 492.868 0.779117 1.38259 0
M  V30 5235 H 492.889 -0.530341 3.76786 0
M  V30 5236 H 492.401 1.29121 3.65991 0
M  V30 5237 H 490.502 -1.17149 3.53704 0
M  V30 5238 H 490.615 0.240238 4.78497 0
M  V30 5239 H 488.979 0.0309824 2.54681 0
M  V30 5240 H 489.762 1.6343 3.01903 0
M  V30 5241 N 492.207 -1.54576 0.307264 0
M  V30 5242 C 493.139 -2.21212 -0.599807 0
M  V30 5243 C 494.152 -1.20685 -1.09266 0
M  V30 5244 O 495.341 -1.47244 -1.00903 0
M  V30 5245 C 492.441 -2.84994 -1.83389 0
M  V30 5246 C 491.614 -4.11511 -1.48248 0
M  V30 5247 C 490.673 -4.59038 -2.57237 0
M  V30 5248 O 489.699 -5.24095 -2.22065 0
M  V30 5249 N 490.901 -4.31884 -3.87887 0
M  V30 5250 H 493.666 -2.99686 -0.0293075 0
M  V30 5251 H 491.227 -1.61379 0.129738 0
M  V30 5252 H 493.219 -3.1372 -2.5566 0
M  V30 5253 H 491.789 -2.10324 -2.31263 0
M  V30 5254 H 491.009 -3.89728 -0.592122 0
M  V30 5255 H 492.297 -4.93879 -1.22316 0
M  V30 5256 H 491.695 -3.79778 -4.19268 0
M  V30 5257 H 490.252 -4.65304 -4.56438 0
M  V30 5258 N 493.685 -0.035106 -1.57561 0
M  V30 5259 C 494.615 0.942993 -2.13612 0
M  V30 5260 C 495.596 1.33531 -1.05373 0
M  V30 5261 O 496.781 1.41287 -1.33235 0
M  V30 5262 C 493.911 2.22332 -2.66807 0
M  V30 5263 C 492.865 1.97156 -3.79886 0
M  V30 5264 C 492.191 3.31506 -4.19533 0
M  V30 5265 C 493.491 1.30596 -5.05709 0
M  V30 5266 H 495.185 0.476179 -2.95589 0
M  V30 5267 H 492.731 0.227602 -1.4219 0
M  V30 5268 H 494.684 2.91142 -3.04654 0
M  V30 5269 H 493.408 2.7119 -1.81999 0
M  V30 5270 H 492.067 1.30763 -3.42486 0
M  V30 5271 H 491.715 3.78134 -3.31698 0
M  V30 5272 H 491.415 3.15465 -4.95738 0
M  V30 5273 H 492.939 4.01574 -4.59968 0
M  V30 5274 H 494.353 1.89416 -5.41105 0
M  V30 5275 H 492.75 1.24934 -5.86951 0
M  V30 5276 H 493.82 0.279742 -4.84092 0
M  V30 5277 N 495.163 1.55791 0.238111 0
M  V30 5278 C 496.579 1.48411 0.587045 0
M  V30 5279 C 496.779 0.72702 1.87927 0
M  V30 5280 O 495.835 0.259942 2.51158 0
M  V30 5281 C 497.148 2.92873 0.681623 0
M  V30 5282 C 498.696 3.03295 0.773363 0
M  V30 5283 C 499.171 4.49082 0.899428 0
M  V30 5284 N 500.662 4.53056 0.964075 0
M  V30 5285 C 501.397 5.63117 1.08104 0
M  V30 5286 N 500.893 6.82969 1.16299 0
M  V30 5287 N 502.686 5.50933 1.11488 0
M  V30 5288 H 494.837 2.0345 -0.610076 0
M  V30 5289 H 497.1 0.924034 -0.211813 0
M  V30 5290 H 496.806 3.51142 -0.19802 0
M  V30 5291 H 496.68 3.43851 1.55069 0
M  V30 5292 H 499.067 2.45101 1.64346 0
M  V30 5293 H 499.148 2.55513 -0.121034 0
M  V30 5294 H 498.792 5.07889 0.0338586 0
M  V30 5295 H 498.722 4.94553 1.809 0
M  V30 5296 H 501.213 3.66737 0.91173 0
M  V30 5297 H 501.526 7.62598 1.25155 0
M  V30 5298 H 499.871 6.85712 1.13241 0
M  V30 5299 H 503.062 4.56231 1.0474 0
M  V30 5300 H 503.235 6.36743 1.20259 0
M  V30 5301 N 496.642 -0.504142 1.49319 0
M  V30 5302 C 497.575 -1.62361 1.60356 0
M  V30 5303 C 498.553 -1.56169 0.45277 0
M  V30 5304 O 499.737 -1.76271 0.667892 0
M  V30 5305 C 496.864 -3.00864 1.55559 0
M  V30 5306 C 495.91 -3.25328 2.75797 0
M  V30 5307 S 496.743 -3.08791 4.37503 0
M  V30 5308 C 497.899 -4.49695 4.35345 0
M  V30 5309 H 498.132 -1.52753 2.55056 0
M  V30 5310 H 495.665 -0.689065 1.38171 0
M  V30 5311 H 497.623 -3.8073 1.53477 0
M  V30 5312 H 496.284 -3.0789 0.621515 0
M  V30 5313 H 495.477 -4.2643 2.68651 0
M  V30 5314 H 495.079 -2.53179 2.75275 0
M  V30 5315 H 497.371 -5.41721 4.06871 0
M  V30 5316 H 498.314 -4.61891 5.36714 0
M  V30 5317 H 498.722 -4.30227 3.65465 0
M  V30 5318 N 498.12 -1.38341 -0.754957 0
M  V30 5319 C 499.067 -1.3546 -1.86867 0
M  V30 5320 C 500.037 -0.217369 -1.64672 0
M  V30 5321 O 501.222 -0.409383 -1.86356 0
M  V30 5322 C 498.362 -1.18413 -3.24149 0
M  V30 5323 C 497.475 -2.41511 -3.58185 0
M  V30 5324 C 496.61 -2.17205 -4.84763 0
M  V30 5325 C 495.649 -3.36081 -5.11582 0
M  V30 5326 N 494.786 -3.11219 -6.29354 0
M  V30 5327 H 499.626 -2.30672 -1.88664 0
M  V30 5328 H 497.163 -1.14607 -0.922154 0
M  V30 5329 H 499.121 -1.06545 -4.03366 0
M  V30 5330 H 497.751 -0.268397 -3.21682 0
M  V30 5331 H 496.803 -2.64056 -2.73822 0
M  V30 5332 H 498.115 -3.30115 -3.73932 0
M  V30 5333 H 497.269 -2.02465 -5.7192 0
M  V30 5334 H 496.008 -1.25964 -4.71152 0
M  V30 5335 H 495.013 -3.51341 -4.22894 0
M  V30 5336 H 496.238 -4.28196 -5.27091 0
M  V30 5337 H 494.184 -2.22624 -6.17069 0
M  V30 5338 H 494.101 -3.93373 -6.45596 0
M  V30 5339 H 495.369 -3.00132 -7.19403 0
M  V30 5340 N 499.598 0.982988 -1.23187 0
M  V30 5341 C 500.546 2.09616 -1.00817 0
M  V30 5342 C 501.54 1.6932 0.0519995 0
M  V30 5343 O 502.746 1.79715 -0.101284 0
M  V30 5344 H 499.121 0.685628 -0.308899 0
M  V30 5345 H 501.092 2.25652 -1.95253 0
M  V30 5346 C 499.841 3.42249 -0.613243 0
M  V30 5347 H 499.164 3.73705 -1.42073 0
M  V30 5348 H 500.604 4.21086 -0.496208 0
M  V30 5349 C 499.063 3.30002 0.678233 0
M  V30 5350 O 499.593 3.6263 1.72807 0
M  V30 5351 N 497.799 2.83164 0.653165 0
M  V30 5352 H 497.346 2.56811 -0.201492 0
M  V30 5353 H 497.304 2.75352 1.51752 0
M  V30 5354 N 501.076 1.04316 1.18135 0
M  V30 5355 C 502.024 0.630175 2.23901 0
M  V30 5356 C 503.018 -0.344254 1.65865 0
M  V30 5357 O 504.224 -0.211273 1.78756 0
M  V30 5358 H 500.599 0.185578 0.728742 0
M  V30 5359 H 502.57 1.53253 2.56039 0
M  V30 5360 C 501.319 0.011666 3.47698 0
M  V30 5361 H 500.642 0.752526 3.92654 0
M  V30 5362 H 502.082 -0.240046 4.2332 0
M  V30 5363 C 500.541 -1.23913 3.13285 0
M  V30 5364 O 501.071 -2.32959 3.27251 0
M  V30 5365 N 499.277 -1.13338 2.67587 0
M  V30 5366 H 498.824 -0.246006 2.56423 0
M  V30 5367 H 498.782 -1.97116 2.44934 0
M  V30 5368 N 502.554 -1.34406 0.822964 0
M  V30 5369 C 503.464 -2.33298 0.246838 0
M  V30 5370 C 504.48 -1.62625 -0.618797 0
M  V30 5371 O 505.656 -1.94391 -0.526685 0
M  V30 5372 C 502.721 -3.41785 -0.581731 0
M  V30 5373 C 501.782 -4.28206 0.306309 0
M  V30 5374 C 501.015 -5.31512 -0.48281 0
M  V30 5375 O 501.238 -5.43973 -1.71607 0
M  V30 5376 O 500.172 -6.01749 0.134884 0
M  V30 5377 H 503.998 -2.84401 1.06534 0
M  V30 5378 H 501.583 -1.37466 0.585108 0
M  V30 5379 H 503.465 -4.08028 -1.05313 0
M  V30 5380 H 502.14 -2.92925 -1.37756 0
M  V30 5381 H 501.047 -3.64885 0.825199 0
M  V30 5382 H 502.38 -4.80507 1.06649 0
M  V30 5383 N 504.032 -0.577932 -1.46621 0
M  V30 5384 C 504.942 0.160651 -2.34049 0
M  V30 5385 C 505.958 0.890911 -1.49462 0
M  V30 5386 O 507.134 0.855166 -1.82343 0
M  V30 5387 C 504.199 1.16447 -3.26559 0
M  V30 5388 C 503.26 0.4394 -4.27045 0
M  V30 5389 C 502.493 1.3954 -5.15135 0
M  V30 5390 O 502.716 2.63162 -5.06065 0
M  V30 5391 O 501.65 0.908585 -5.95003 0
M  V30 5392 H 505.476 -0.557057 -2.98547 0
M  V30 5393 H 503.061 -0.338369 -1.45518 0
M  V30 5394 H 504.943 1.7434 -3.83645 0
M  V30 5395 H 503.618 1.86373 -2.64663 0
M  V30 5396 H 502.525 -0.181247 -3.73661 0
M  V30 5397 H 503.858 -0.218799 -4.91713 0
M  V30 5398 N 505.51 1.54411 -0.315457 0
M  V30 5399 C 506.473 2.22713 0.54142 0
M  V30 5400 C 507.473 1.2179 1.04995 0
M  V30 5401 O 508.663 1.46426 0.943667 0
M  V30 5402 C 505.795 2.92485 1.75116 0
M  V30 5403 H 506.988 2.99849 -0.0555508 0
M  V30 5404 H 504.541 1.56159 -0.0664453 0
M  V30 5405 H 505.276 2.19466 2.38758 0
M  V30 5406 H 505.061 3.66483 1.39401 0
M  V30 5407 H 506.551 3.44548 2.35959 0
M  V30 5408 N 506.988 0.0434614 1.5754 0
M  V30 5409 C 507.898 -0.94893 2.14552 0
M  V30 5410 C 508.914 -1.34707 1.10136 0
M  V30 5411 O 510.09 -1.42557 1.42266 0
M  V30 5412 C 507.155 -2.208 2.67298 0
M  V30 5413 C 506.216 -1.86893 3.86484 0
M  V30 5414 C 505.449 -3.06797 4.36705 0
M  V30 5415 O 505.672 -4.19921 3.86034 0
M  V30 5416 O 504.606 -2.8826 5.28384 0
M  V30 5417 H 508.432 -0.494099 2.99654 0
M  V30 5418 H 506.017 -0.177989 1.48336 0
M  V30 5419 H 507.899 -2.94686 3.01228 0
M  V30 5420 H 506.574 -2.65436 1.85272 0
M  V30 5421 H 505.481 -1.10347 3.57455 0
M  V30 5422 H 506.814 -1.47062 4.69716 0
M  V30 5423 N 508.466 -1.55915 -0.229846 0
M  V30 5424 C 509.743 -1.6932 -0.979295 0
M  V30 5425 C 510.123 -0.588321 -2.02736 0
M  V30 5426 O 509.471 0.40586 -2.24867 0
M  V30 5427 C 509.681 -3.10305 -1.59724 0
M  V30 5428 C 511.029 -3.6945 -2.09264 0
M  V30 5429 O 512.053 -3.13214 -1.69633 0
M  V30 5430 O 510.912 -4.68072 -2.82082 0
M  V30 5431 H 508.006 -0.689314 -0.456919 0
M  V30 5432 H 510.552 -1.68238 -0.222283 0
M  V30 5433 H 509.324 -3.82177 -0.840039 0
M  V30 5434 H 508.947 -3.1547 -2.42001 0
M  V30 5435 N 509.944 0.496216 -1.49584 0
M  V30 5436 C 511.174 1.27209 -1.62793 0
M  V30 5437 C 511.582 1.86799 -0.300476 0
M  V30 5438 O 510.925 1.68802 0.724674 0
M  V30 5439 C 510.987 2.43812 -2.64189 0
M  V30 5440 C 510.651 2.05055 -4.08414 0
M  V30 5441 C 511.648 1.58752 -4.9507 0
M  V30 5442 C 509.333 2.14543 -4.54177 0
M  V30 5443 C 511.327 1.22448 -6.25528 0
M  V30 5444 C 509.014 1.77851 -5.84647 0
M  V30 5445 C 510.012 1.31878 -6.70147 0
M  V30 5446 O 509.7 0.956834 -7.98185 0
M  V30 5447 H 509.432 0.391848 -0.550846 0
M  V30 5448 H 511.986 0.601712 -1.96389 0
M  V30 5449 H 510.216 3.13941 -2.25783 0
M  V30 5450 H 511.905 3.05829 -2.66877 0
M  V30 5451 H 512.671 1.50863 -4.60939 0
M  V30 5452 H 508.55 2.49277 -3.87791 0
M  V30 5453 H 512.094 0.864933 -6.92217 0
M  V30 5454 H 507.991 1.8539 -6.18305 0
M  V30 5455 H 508.759 1.08789 -8.11238 0
M  V30 5456 N 511.423 1.38739 0.74761 0
M  V30 5457 C 512.7 1.25791 1.49786 0
M  V30 5458 C 513.08 -0.138075 2.10648 0
M  V30 5459 O 512.428 -1.14815 1.9756 0
M  V30 5460 C 512.638 2.37265 2.55942 0
M  V30 5461 C 513.986 2.75978 3.22679 0
M  V30 5462 O 515.01 2.36621 2.6625 0
M  V30 5463 O 513.869 3.43867 4.24756 0
M  V30 5464 H 510.963 0.492251 0.664543 0
M  V30 5465 H 513.509 1.50582 0.782511 0
M  V30 5466 H 512.281 3.30644 2.0926 0
M  V30 5467 H 511.904 2.14071 3.35051 0
M  V30 5468 N 512.901 -0.976442 1.23707 0
M  V30 5469 C 514.178 -1.69296 0.979699 0
M  V30 5470 C 514.558 -2.0508 -0.500555 0
M  V30 5471 O 513.906 -1.74708 -1.47273 0
M  V30 5472 C 514.116 -2.93143 1.89389 0
M  V30 5473 C 515.464 -3.65572 2.15968 0
M  V30 5474 O 516.488 -3.03184 1.86971 0
M  V30 5475 O 515.347 -4.77859 2.65167 0
M  V30 5476 H 512.441 -0.739708 0.369812 0
M  V30 5477 H 514.987 -1.03131 1.34767 0
M  V30 5478 H 513.759 -2.63327 2.89439 0
M  V30 5479 H 513.382 -3.67044 1.52854 0
M  V30 5480 N 514.379 -1.04941 -1.1758 0
M  V30 5481 C 515.656 -0.671918 -1.83697 0
M  V30 5482 C 516.036 0.847929 -1.93322 0
M  V30 5483 O 515.384 1.75287 -1.46583 0
M  V30 5484 C 515.594 -1.35797 -3.21497 0
M  V30 5485 C 516.942 -1.4944 -3.97433 0
M  V30 5486 O 517.966 -1.31678 -3.30967 0
M  V30 5487 O 516.825 -1.78463 -5.1654 0
M  V30 5488 H 513.919 -0.236212 -0.792548 0
M  V30 5489 H 516.465 -1.14884 -1.24899 0
M  V30 5490 H 515.237 -2.39498 -3.09446 0
M  V30 5491 H 514.86 -0.870236 -3.8796 0
M  V30 5492 N 515.857 1.33968 -0.830081 0
M  V30 5493 C 516.787 2.31911 -0.271911 0
M  V30 5494 C 517.768 1.58571 0.61556 0
M  V30 5495 O 518.953 1.86514 0.540946 0
M  V30 5496 C 516.083 3.42737 0.561146 0
M  V30 5497 C 515.037 4.27383 -0.229789 0
M  V30 5498 C 514.363 5.29742 0.726463 0
M  V30 5499 C 515.663 5.02 -1.44197 0
M  V30 5500 H 517.357 2.78844 -1.09025 0
M  V30 5501 H 514.903 1.34061 -0.52571 0
M  V30 5502 H 516.856 4.10276 0.961867 0
M  V30 5503 H 515.58 2.94471 1.41261 0
M  V30 5504 H 514.239 3.61456 -0.611964 0
M  V30 5505 H 513.887 4.77736 1.57408 0
M  V30 5506 H 513.587 5.87255 0.20142 0
M  V30 5507 H 515.111 6.00149 1.12489 0
M  V30 5508 H 516.525 5.62355 -1.11488 0
M  V30 5509 H 514.922 5.69122 -1.90317 0
M  V30 5510 H 515.992 4.31281 -2.2164 0
M  V30 5511 N 517.335 0.585699 1.46312 0
M  V30 5512 C 518.563 0.0781299 2.06752 0
M  V30 5513 C 518.978 -1.22812 1.43396 0
M  V30 5514 O 518.335 -1.74318 0.540314 0
M  V30 5515 C 518.386 -0.0911927 3.61385 0
M  V30 5516 O 518.107 1.16336 4.22371 0
M  V30 5517 C 519.608 -0.632765 4.38761 0
M  V30 5518 H 516.828 0.0588188 0.668417 0
M  V30 5519 H 519.372 0.807218 1.87894 0
M  V30 5520 H 517.527 -0.770514 3.7966 0
M  V30 5521 H 517.941 0.979082 5.15281 0
M  V30 5522 H 519.415 -0.70041 5.47538 0
M  V30 5523 H 519.892 -1.65039 4.07012 0
M  V30 5524 H 520.498 0.0117856 4.25298 0
M  V30 5525 N 518.813 -1.54241 0.323641 0
M  V30 5526 C 520.09 -1.92741 -0.333181 0
M  V30 5527 C 520.47 -1.25326 -1.69872 0
M  V30 5528 O 519.818 -0.396991 -2.25025 0
M  V30 5529 C 520.028 -3.46399 -0.425322 0
M  V30 5530 C 521.376 -4.19029 -0.68557 0
M  V30 5531 O 522.4 -3.52555 -0.50824 0
M  V30 5532 O 521.259 -5.36751 -1.02767 0
M  V30 5533 H 518.353 -0.804811 -0.190286 0
M  V30 5534 H 520.899 -1.65542 0.373361 0
M  V30 5535 H 519.671 -3.87643 0.533737 0
M  V30 5536 H 519.294 -3.79704 -1.17944 0
M  V30 5537 N 520.291 -0.0518155 -1.57515 0
M  V30 5538 C 521.516 0.634896 -1.97443 0
M  V30 5539 C 521.941 1.63546 -0.929207 0
M  V30 5540 O 521.299 1.80981 0.107484 0
M  V30 5541 C 521.347 1.29765 -3.36442 0
M  V30 5542 O 520.451 2.41333 -3.34413 0
M  V30 5543 H 519.792 0.164994 -0.643174 0
M  V30 5544 H 522.322 -0.120407 -2.04245 0
M  V30 5545 H 522.332 1.64918 -3.73184 0
M  V30 5546 H 521.007 0.564361 -4.12053 0
M  V30 5547 H 519.584 2.08122 -3.09418 0
M  V30 5548 N 521.769 1.56035 0.221574 0
M  V30 5549 C 522.679 1.95581 1.29558 0
M  V30 5550 C 523.695 0.859639 1.51282 0
M  V30 5551 O 524.871 1.16321 1.64413 0
M  V30 5552 C 521.936 2.26447 2.62531 0
M  V30 5553 C 520.997 3.49632 2.4911 0
M  V30 5554 C 520.23 3.79017 3.75742 0
M  V30 5555 O 520.453 3.10077 4.78757 0
M  V30 5556 O 519.387 4.72507 3.72855 0
M  V30 5557 H 523.213 2.8711 0.990035 0
M  V30 5558 H 520.798 1.43244 0.424434 0
M  V30 5559 H 522.68 2.47494 3.41064 0
M  V30 5560 H 521.355 1.38092 2.92766 0
M  V30 5561 H 520.262 3.33864 1.68777 0
M  V30 5562 H 521.595 4.3837 2.23814 0
M  V30 5563 N 523.247 -0.488276 1.49845 0
M  V30 5564 C 524.18 -1.60651 1.62069 0
M  V30 5565 C 525.158 -1.5568 0.469308 0
M  V30 5566 O 526.342 -1.75553 0.686551 0
M  V30 5567 C 523.469 -2.99197 1.58741 0
M  V30 5568 C 522.515 -3.22385 2.79232 0
M  V30 5569 S 523.348 -3.04133 4.40753 0
M  V30 5570 C 524.504 -4.45052 4.4009 0
M  V30 5571 H 524.737 -1.50039 2.56662 0
M  V30 5572 H 522.27 -0.674371 1.38894 0
M  V30 5573 H 524.228 -3.79081 1.57506 0
M  V30 5574 H 522.889 -3.07213 0.654136 0
M  V30 5575 H 522.082 -4.23557 2.73159 0
M  V30 5576 H 521.684 -2.50245 2.77945 0
M  V30 5577 H 523.976 -5.37375 4.12594 0
M  V30 5578 H 524.919 -4.56172 5.41583 0
M  V30 5579 H 525.327 -4.26327 3.70008 0
M  V30 5580 N 524.725 -1.39134 -0.740242 0
M  V30 5581 C 526.002 -1.26584 -1.49117 0
M  V30 5582 C 526.382 0.126902 -2.10718 0
M  V30 5583 O 525.73 1.13765 -1.98166 0
M  V30 5584 C 525.94 -2.38619 -2.54681 0
M  V30 5585 C 527.288 -2.77685 -3.21211 0
M  V30 5586 O 528.312 -2.38029 -2.64991 0
M  V30 5587 O 527.171 -3.46115 -4.22926 0
M  V30 5588 H 524.265 -0.495769 -0.661923 0
M  V30 5589 H 526.811 -1.50995 -0.774514 0
M  V30 5590 H 525.583 -3.3175 -2.07504 0
M  V30 5591 H 525.206 -2.15845 -3.33911 0
M  V30 5592 N 526.204 0.969867 -1.24223 0
M  V30 5593 C 527.45 1.7151 -1.08223 0
M  V30 5594 C 527.783 1.90478 0.37838 0
M  V30 5595 O 527.058 1.4647 1.27971 0
M  V30 5596 C 527.341 3.10714 -1.82013 0
M  V30 5597 C 527.194 2.9925 -3.35811 0
M  V30 5598 C 528.513 4.10332 -1.59108 0
M  V30 5599 H 525.632 0.622499 -0.394543 0
M  V30 5600 H 528.274 1.1284 -1.52863 0
M  V30 5601 H 526.424 3.608 -1.44068 0
M  V30 5602 H 528.096 2.56608 -3.83341 0
M  V30 5603 H 526.339 2.35512 -3.64303 0
M  V30 5604 H 527.01 3.97857 -3.82641 0
M  V30 5605 H 529.486 3.69097 -1.92111 0
M  V30 5606 H 528.362 5.05804 -2.13198 0
M  V30 5607 H 528.623 4.38926 -0.528832 0
M  V30 5608 N 527.682 1.05563 1.17022 0
M  V30 5609 C 528.928 0.769074 1.87652 0
M  V30 5610 C 529.261 -0.702326 1.81055 0
M  V30 5611 O 528.536 -1.5139 1.22112 0
M  V30 5612 C 528.819 1.25492 3.37526 0
M  V30 5613 C 528.672 2.78953 3.52853 0
M  V30 5614 C 529.991 0.856919 4.31677 0
M  V30 5615 H 527.11 0.280854 0.681388 0
M  V30 5616 H 529.752 1.31027 1.37593 0
M  V30 5617 H 527.902 0.794516 3.80289 0
M  V30 5618 H 529.574 3.33146 3.19079 0
M  V30 5619 H 527.817 3.18046 2.95007 0
M  V30 5620 H 528.488 3.08011 4.58076 0
M  V30 5621 H 530.964 1.25334 3.96775 0
M  V30 5622 H 529.84 1.22443 5.35069 0
M  V30 5623 H 530.101 -0.238787 4.41455 0
M  V30 5624 N 529.16 -1.33526 0.837174 0
M  V30 5625 C 530.576 -1.50727 0.524743 0
M  V30 5626 C 530.776 -1.77792 -0.948279 0
M  V30 5627 O 529.832 -1.83719 -1.73216 0
M  V30 5628 C 531.145 -2.66299 1.39661 0
M  V30 5629 C 532.693 -2.80183 1.39521 0
M  V30 5630 C 533.168 -3.98815 2.25189 0
M  V30 5631 N 534.659 -4.06047 2.2289 0
M  V30 5632 C 535.394 -4.97032 2.85915 0
M  V30 5633 N 534.89 -5.93143 3.57985 0
M  V30 5634 N 536.683 -4.90015 2.75394 0
M  V30 5635 H 528.834 -1.1422 1.79074 0
M  V30 5636 H 531.097 -0.561399 0.763894 0
M  V30 5637 H 530.803 -2.52974 2.4433 0
M  V30 5638 H 530.677 -3.61663 1.07145 0
M  V30 5639 H 533.064 -2.92942 0.356253 0
M  V30 5640 H 533.145 -1.85586 1.76044 0
M  V30 5641 H 532.789 -3.86817 3.29143 0
M  V30 5642 H 532.719 -4.92654 1.86009 0
M  V30 5643 H 535.21 -3.37262 1.70478 0
M  V30 5644 H 535.523 -6.59227 4.03286 0
M  V30 5645 H 533.868 -5.93223 3.62093 0
M  V30 5646 H 537.059 -4.13894 2.18654 0
M  V30 5647 H 537.232 -5.60724 3.24796 0
M  V30 5648 N 530.638 -0.59345 -1.46 0
M  V30 5649 C 531.885 -0.0831523 -2.02329 0
M  V30 5650 C 532.213 1.28093 -1.46364 0
M  V30 5651 O 531.468 1.85526 -0.622793 0
M  V30 5652 C 531.767 0.021178 -3.57394 0
M  V30 5653 C 531.433 -1.27671 -4.32448 0
M  V30 5654 C 530.095 -1.63227 -4.5267 0
M  V30 5655 C 532.447 -2.13511 -4.7546 0
M  V30 5656 C 529.775 -2.84401 -5.1316 0
M  V30 5657 C 532.127 -3.33922 -5.37289 0
M  V30 5658 C 530.791 -3.69747 -5.55737 0
M  V30 5659 H 530.061 -0.0304276 -0.740375 0
M  V30 5660 H 532.708 -0.772239 -1.75239 0
M  V30 5661 H 531.013 0.793454 -3.83682 0
M  V30 5662 H 532.71 0.431942 -3.98667 0
M  V30 5663 H 529.3 -0.989937 -4.17011 0
M  V30 5664 H 533.484 -1.87344 -4.59582 0
M  V30 5665 H 528.74 -3.12282 -5.25633 0
M  V30 5666 H 532.914 -4.00698 -5.69574 0
M  V30 5667 H 530.541 -4.6373 -6.02377 0
M  V30 5668 N 532.116 1.54067 -0.331816 0
M  V30 5669 C 533.393 1.92915 0.322955 0
M  V30 5670 C 533.773 1.26225 1.69205 0
M  V30 5671 O 533.121 0.408919 2.24811 0
M  V30 5672 C 533.331 3.46619 0.406946 0
M  V30 5673 C 534.679 4.19386 0.663339 0
M  V30 5674 O 535.703 3.5282 0.489536 0
M  V30 5675 O 534.562 5.37288 0.999193 0
M  V30 5676 H 531.656 0.805808 0.186016 0
M  V30 5677 H 534.202 1.65342 -0.382135 0
M  V30 5678 H 532.974 3.87354 -0.554287 0
M  V30 5679 H 532.597 3.80324 1.15929 0
M  V30 5680 N 533.594 0.0601682 1.57485 0
M  V30 5681 C 534.871 -0.651956 1.84415 0
M  V30 5682 C 535.251 -1.88498 0.950361 0
M  V30 5683 O 534.599 -2.28496 0.0136719 0
M  V30 5684 C 534.809 -1.00069 3.34346 0
M  V30 5685 C 536.157 -1.37915 4.01578 0
M  V30 5686 O 537.181 -1.09277 3.39024 0
M  V30 5687 O 536.04 -1.91399 5.11887 0
M  V30 5688 H 533.134 -0.322668 0.761455 0
M  V30 5689 H 535.68 0.0902159 1.6946 0
M  V30 5690 H 534.452 -0.124463 3.91102 0
M  V30 5691 H 534.075 -1.80001 3.54521 0
M  V30 5692 N 535.072 -1.5615 -0.213296 0
M  V30 5693 C 536.349 -1.70349 -0.961281 0
M  V30 5694 C 536.729 -0.609791 -2.02101 0
M  V30 5695 O 536.077 0.381987 -2.25285 0
M  V30 5696 C 536.287 -3.11982 -1.56424 0
M  V30 5697 C 537.635 -3.71649 -2.05334 0
M  V30 5698 O 538.659 -3.14995 -1.66302 0
M  V30 5699 O 537.518 -4.71038 -2.77102 0
M  V30 5700 H 534.612 -0.694121 -0.449582 0
M  V30 5701 H 537.158 -1.68464 -0.204426 0
M  V30 5702 H 535.93 -3.83046 -0.799457 0
M  V30 5703 H 535.553 -3.18019 -2.38641 0
M  V30 5704 N 536.55 0.480323 -1.50102 0
M  V30 5705 C 537.498 1.60024 -1.68805 0
M  V30 5706 C 538.492 1.60089 -0.553888 0
M  V30 5707 O 539.698 1.64349 -0.734127 0
M  V30 5708 H 536.073 0.530841 -0.532646 0
M  V30 5709 H 538.044 1.41408 -2.62767 0
M  V30 5710 C 536.793 2.98029 -1.79092 0
M  V30 5711 H 536.116 2.98694 -2.65748 0
M  V30 5712 H 537.556 3.75871 -1.96206 0
M  V30 5713 C 536.015 3.32538 -0.540388 0
M  V30 5714 O 536.545 4.00386 0.324637 0
M  V30 5715 N 534.751 2.87873 -0.397154 0
M  V30 5716 H 534.298 2.32834 -1.1021 0
M  V30 5717 H 534.256 3.11328 0.438425 0
M  V30 5718 N 538.028 1.39524 0.732853 0
M  V30 5719 C 539.253 1.40329 1.52717 0
M  V30 5720 C 539.678 0.000286574 1.881 0
M  V30 5721 O 539.036 -0.987262 1.52062 0
M  V30 5722 C 539.084 2.28464 2.78992 0
M  V30 5723 O 538.188 1.716 3.75003 0
M  V30 5724 H 537.529 0.47778 0.461109 0
M  V30 5725 H 540.059 1.83546 0.903996 0
M  V30 5726 H 540.069 2.43051 3.27705 0
M  V30 5727 H 538.744 3.30425 2.52572 0
M  V30 5728 H 537.321 1.66267 3.33781 0
M  V30 5729 N 539.506 -0.963266 1.24736 0
M  V30 5730 C 540.917 -1.52145 1.08207 0
M  V30 5731 C 541.268 -1.93142 -0.345061 0
M  V30 5732 O 540.393 -1.77769 -1.23399 0
M  V30 5733 C 540.988 -2.76486 1.95808 0
M  V30 5734 C 539.547 -3.28646 1.8349 0
M  V30 5735 C 538.694 -2.01529 1.90476 0
M  V30 5736 H 541.645 -0.781083 1.38148 0
M  V30 5737 H 541.666 -3.49986 1.49297 0
M  V30 5738 H 541.178 -2.46617 2.99669 0
M  V30 5739 H 539.279 -3.63357 0.824787 0
M  V30 5740 H 539.392 -3.97246 2.67829 0
M  V30 5741 H 537.756 -2.16442 1.34258 0
M  V30 5742 H 538.539 -1.7402 2.95926 0
M  V30 5743 N 540.985 -1.06182 -1.16461 0
M  V30 5744 C 542.21 -0.798599 -1.91408 0
M  V30 5745 C 542.635 0.640987 -1.76842 0
M  V30 5746 O 541.993 1.44652 -1.09296 0
M  V30 5747 C 542.041 -1.19665 -3.40165 0
M  V30 5748 O 541.145 -0.334768 -4.11039 0
M  V30 5749 H 540.486 -0.291961 -0.596368 0
M  V30 5750 H 543.016 -1.41732 -1.47557 0
M  V30 5751 H 543.026 -1.16772 -3.90933 0
M  V30 5752 H 541.701 -2.24526 -3.50087 0
M  V30 5753 H 540.278 -0.425168 -3.70468 0
M  V30 5754 N 542.463 1.3308 -0.844243 0
M  V30 5755 C 543.71 1.97605 -0.44255 0
M  V30 5756 C 544.038 1.66856 0.999458 0
M  V30 5757 O 543.293 0.943586 1.7145 0
M  V30 5758 C 543.592 3.52045 -0.616354 0
M  V30 5759 C 543.258 4.02757 -2.02726 0
M  V30 5760 C 541.92 4.16316 -2.41317 0
M  V30 5761 C 544.272 4.29776 -2.9486 0
M  V30 5762 C 541.6 4.54232 -3.71335 0
M  V30 5763 C 543.952 4.69146 -4.24364 0
M  V30 5764 C 542.616 4.80911 -4.62904 0
M  V30 5765 H 541.886 0.723088 -0.161941 0
M  V30 5766 H 544.533 1.58663 -1.0723 0
M  V30 5767 H 542.838 3.91681 0.0966812 0
M  V30 5768 H 544.535 3.99981 -0.285756 0
M  V30 5769 H 541.125 3.9268 -1.71756 0
M  V30 5770 H 545.309 4.18818 -2.6628 0
M  V30 5771 H 540.565 4.61535 -4.00993 0
M  V30 5772 H 544.739 4.89008 -4.95827 0
M  V30 5773 H 542.366 5.10048 -5.63698 0
M  V30 5774 N 543.941 0.601185 1.45683 0
M  V30 5775 C 545.19 0.0914953 2.01492 0
M  V30 5776 C 545.503 -1.28331 1.47616 0
M  V30 5777 O 546.709 -1.88537 1.95362 0
M  V30 5778 C 545.165 0.11291 3.59723 0
M  V30 5779 C 544.773 1.48717 4.22596 0
M  V30 5780 C 546.517 -0.341871 4.23121 0
M  V30 5781 C 544.424 1.46531 5.7296 0
M  V30 5782 H 543.354 0.0304365 0.753385 0
M  V30 5783 H 546.005 0.755568 1.67223 0
M  V30 5784 H 544.387 -0.617692 3.91153 0
M  V30 5785 H 545.561 2.23897 4.02749 0
M  V30 5786 H 543.876 1.88351 3.71366 0
M  V30 5787 H 546.473 -0.377304 5.33367 0
M  V30 5788 H 546.816 -1.36325 3.93346 0
M  V30 5789 H 547.349 0.335256 3.96385 0
M  V30 5790 H 544.088 2.46408 6.07423 0
M  V30 5791 H 543.608 0.755997 5.95017 0
M  V30 5792 H 545.287 1.18618 6.36034 0
M  V30 5793 N 545.419 -1.53889 0.339982 0
M  V30 5794 C 546.351 -2.22435 -0.55275 0
M  V30 5795 C 547.364 -1.22975 -1.06681 0
M  V30 5796 O 548.553 -1.49351 -0.977575 0
M  V30 5797 C 545.653 -2.8882 -1.77302 0
M  V30 5798 C 544.826 -4.14563 -1.39486 0
M  V30 5799 C 543.885 -4.64391 -2.47442 0
M  V30 5800 O 542.911 -5.28687 -2.10899 0
M  V30 5801 N 544.113 -4.40015 -3.78639 0
M  V30 5802 H 546.878 -2.9968 0.0342669 0
M  V30 5803 H 544.439 -1.61068 0.16394 0
M  V30 5804 H 546.431 -3.19072 -2.48948 0
M  V30 5805 H 545.001 -2.15182 -2.26749 0
M  V30 5806 H 544.221 -3.90896 -0.509321 0
M  V30 5807 H 545.509 -4.96362 -1.11813 0
M  V30 5808 H 544.907 -3.88586 -4.11118 0
M  V30 5809 H 543.464 -4.74881 -4.46465 0
M  V30 5810 N 546.897 -0.0685191 -1.57451 0
M  V30 5811 C 548.146 0.600898 -1.92541 0
M  V30 5812 C 548.459 1.70967 -0.950239 0
M  V30 5813 O 549.665 2.43844 -1.19384 0
M  V30 5814 C 548.121 1.12019 -3.42023 0
M  V30 5815 C 547.729 0.0426028 -4.4798 0
M  V30 5816 C 549.473 1.76386 -3.86119 0
M  V30 5817 C 547.38 0.575759 -5.88591 0
M  V30 5818 H 546.31 0.228225 -0.71863 0
M  V30 5819 H 548.961 -0.140223 -1.82963 0
M  V30 5820 H 547.343 1.91418 -3.46663 0
M  V30 5821 H 548.517 -0.73182 -4.54952 0
M  V30 5822 H 546.832 -0.504642 -4.13331 0
M  V30 5823 H 549.429 2.17302 -4.88553 0
M  V30 5824 H 549.772 2.62255 -3.23308 0
M  V30 5825 H 550.305 1.03615 -3.84069 0
M  V30 5826 H 547.044 -0.245691 -6.55039 0
M  V30 5827 H 546.564 1.31778 -5.85145 0
M  V30 5828 H 548.243 1.0532 -6.3837 0
M  V30 5829 N 548.375 1.56261 0.205012 0
M  V30 5830 C 549.791 1.49623 0.555433 0
M  V30 5831 C 549.991 0.766719 1.86343 0
M  V30 5832 O 549.047 0.313158 2.50551 0
M  V30 5833 C 550.36 2.94253 0.619347 0
M  V30 5834 C 551.908 3.04868 0.708855 0
M  V30 5835 C 552.383 4.50888 0.803969 0
M  V30 5836 N 553.874 4.54999 0.867758 0
M  V30 5837 C 554.609 5.65284 0.96135 0
M  V30 5838 N 554.105 6.85282 1.01786 0
M  V30 5839 N 555.898 5.53174 0.997771 0
M  V30 5840 H 548.049 2.0211 -0.653094 0
M  V30 5841 H 550.312 0.919333 -0.231366 0
M  V30 5842 H 550.018 3.50643 -0.272458 0
M  V30 5843 H 549.892 3.47063 1.47741 0
M  V30 5844 H 552.279 2.48532 1.5911 0
M  V30 5845 H 552.36 2.55199 -0.175205 0
M  V30 5846 H 552.004 5.07846 -0.0738798 0
M  V30 5847 H 551.934 4.98279 1.70369 0
M  V30 5848 H 554.425 3.68588 0.833735 0
M  V30 5849 H 554.738 7.65081 1.08951 0
M  V30 5850 H 553.083 6.8796 0.986706 0
M  V30 5851 H 556.274 4.5835 0.950392 0
M  V30 5852 H 556.447 6.39151 1.06725 0
M  V30 5853 N 549.853 -0.472356 1.50355 0
M  V30 5854 C 551.078 -1.25251 1.65309 0
M  V30 5855 C 551.503 -1.85081 0.335643 0
M  V30 5856 O 550.861 -1.67227 -0.700335 0
M  V30 5857 C 550.909 -2.3379 2.74544 0
M  V30 5858 O 550.013 -3.38401 2.35709 0
M  V30 5859 H 549.354 -0.368539 0.552336 0
M  V30 5860 H 551.884 -0.562271 1.96722 0
M  V30 5861 H 551.894 -2.79121 2.97583 0
M  V30 5862 H 550.569 -1.89614 3.70161 0
M  V30 5863 H 549.146 -2.9879 2.23112 0
M  V30 5864 N 551.331 -1.39911 -0.725443 0
M  V30 5865 C 552.577 -1.37858 -1.48738 0
M  V30 5866 C 552.91 0.0224187 -1.94187 0
M  V30 5867 O 552.185 0.989204 -1.67466 0
M  V30 5868 C 552.468 -2.3594 -2.72038 0
M  V30 5869 C 552.321 -3.85023 -2.32546 0
M  V30 5870 C 553.64 -2.31704 -3.74167 0
M  V30 5871 H 550.759 -0.502074 -0.539528 0
M  V30 5872 H 553.401 -1.70974 -0.828728 0
M  V30 5873 H 551.551 -2.0783 -3.28236 0
M  V30 5874 H 553.223 -4.2392 -1.81905 0
M  V30 5875 H 551.466 -4.01334 -1.64661 0
M  V30 5876 H 552.137 -4.49152 -3.20884 0
M  V30 5877 H 554.613 -2.5658 -3.27576 0
M  V30 5878 H 553.489 -3.02395 -4.58092 0
M  V30 5879 H 553.75 -1.3253 -4.21768 0
M  V30 5880 N 552.809 0.956637 -1.25245 0
M  V30 5881 C 553.772 2.03457 -1.05537 0
M  V30 5882 C 554.772 1.60798 -0.00886317 0
M  V30 5883 O 555.962 1.72384 -0.250865 0
M  V30 5884 C 553.094 3.35543 -0.601965 0
M  V30 5885 H 554.287 2.22372 -2.01223 0
M  V30 5886 H 551.84 1.13344 -1.07623 0
M  V30 5887 H 552.575 3.22323 0.357584 0
M  V30 5888 H 552.36 3.67854 -1.35743 0
M  V30 5889 H 553.85 4.14769 -0.485454 0
M  V30 5890 N 554.287 1.06798 1.15896 0
M  V30 5891 C 555.234 0.683314 2.20453 0
M  V30 5892 C 556.204 -0.32255 1.62938 0
M  V30 5893 O 557.389 -0.210276 1.89638 0
M  V30 5894 C 554.529 0.0813266 3.45004 0
M  V30 5895 C 553.642 1.13799 4.16742 0
M  V30 5896 C 552.777 0.501598 5.28826 0
M  V30 5897 C 551.816 1.54144 5.92373 0
M  V30 5898 N 550.953 0.928038 6.9594 0
M  V30 5899 H 555.793 1.57932 2.52708 0
M  V30 5900 H 553.33 0.789544 1.24115 0
M  V30 5901 H 555.288 -0.285274 4.16224 0
M  V30 5902 H 553.918 -0.77806 3.13283 0
M  V30 5903 H 552.97 1.62223 3.44075 0
M  V30 5904 H 554.282 1.92664 4.60089 0
M  V30 5905 H 553.436 0.0823162 6.06644 0
M  V30 5906 H 552.175 -0.318883 4.86656 0
M  V30 5907 H 551.18 1.97056 5.13273 0
M  V30 5908 H 552.405 2.3641 6.36621 0
M  V30 5909 H 550.351 0.12836 6.55874 0
M  V30 5910 H 550.268 1.65401 7.37685 0
M  V30 5911 H 551.536 0.534071 7.77668 0
M  V30 5912 N 555.766 -1.3263 0.851289 0
M  V30 5913 C 556.713 -2.28952 0.291469 0
M  V30 5914 C 557.683 -1.54897 -0.599676 0
M  V30 5915 O 558.868 -1.83137 -0.535305 0
M  V30 5916 C 556.008 -3.41206 -0.516992 0
M  V30 5917 C 555.121 -4.30148 0.399566 0
M  V30 5918 C 554.256 -5.29527 -0.4212 0
M  V30 5919 C 553.295 -6.10112 0.492969 0
M  V30 5920 N 552.432 -7.01499 -0.290414 0
M  V30 5921 H 557.272 -2.76228 1.11813 0
M  V30 5922 H 554.809 -1.35907 0.562826 0
M  V30 5923 H 556.767 -4.05005 -1.00132 0
M  V30 5924 H 555.397 -2.9509 -1.30851 0
M  V30 5925 H 554.449 -3.66959 1.00227 0
M  V30 5926 H 555.761 -4.8649 1.1013 0
M  V30 5927 H 554.915 -5.98914 -0.968832 0
M  V30 5928 H 553.654 -4.73794 -1.15632 0
M  V30 5929 H 552.659 -5.39632 1.05251 0
M  V30 5930 H 553.884 -6.6793 1.22664 0
M  V30 5931 H 551.83 -6.48199 -1.00868 0
M  V30 5932 H 551.747 -7.55178 0.352354 0
M  V30 5933 H 553.015 -7.75176 -0.819882 0
M  V30 5934 N 557.244 -0.608902 -1.45362 0
M  V30 5935 C 558.194 0.130616 -2.27626 0
M  V30 5936 C 559.178 0.837323 -1.37396 0
M  V30 5937 O 560.37 0.727096 -1.61376 0
M  V30 5938 C 557.499 1.12646 -3.24293 0
M  V30 5939 C 556.585 0.42052 -4.2201 0
M  V30 5940 N 556.976 -0.538569 -5.02925 0
M  V30 5941 C 555.274 0.667901 -4.40971 0
M  V30 5942 C 555.975 -0.953625 -5.7383 0
M  V30 5943 N 554.951 -0.297097 -5.42788 0
M  V30 5944 H 558.753 -0.605996 -2.87585 0
M  V30 5945 H 556.267 -0.432672 -1.5653 0
M  V30 5946 H 558.264 1.67066 -3.81961 0
M  V30 5947 H 556.924 1.86361 -2.65894 0
M  V30 5948 H 557.935 -0.915375 -5.09746 0
M  V30 5949 H 554.612 1.38963 -3.93695 0
M  V30 5950 H 556.002 -1.74473 -6.48852 0
M  V30 5951 N 558.722 1.53707 -0.348139 0
M  V30 5952 C 560.133 1.86213 0.134797 0
M  V30 5953 C 560.484 1.26925 1.49614 0
M  V30 5954 O 559.609 0.584573 2.08355 0
M  V30 5955 C 560.204 3.37866 0.251371 0
M  V30 5956 C 558.763 3.70233 0.678543 0
M  V30 5957 C 557.91 2.76683 -0.184925 0
M  V30 5958 H 560.861 1.48204 -0.567571 0
M  V30 5959 H 560.882 3.64908 1.07806 0
M  V30 5960 H 560.394 3.80988 -0.739581 0
M  V30 5961 H 558.495 3.32659 1.67835 0
M  V30 5962 H 558.608 4.76836 0.465251 0
M  V30 5963 H 556.972 2.52374 0.343465 0
M  V30 5964 H 557.755 3.22635 -1.1731 0
M  V30 5965 N 560.2 0.0768682 1.57412 0
M  V30 5966 C 561.147 -0.888577 2.13009 0
M  V30 5967 C 562.117 -1.29198 1.0439 0
M  V30 5968 O 563.302 -1.37694 1.3208 0
M  V30 5969 C 560.442 -2.14899 2.70023 0
M  V30 5970 C 559.555 -1.79777 3.92816 0
M  V30 5971 C 558.69 -3.00467 4.38056 0
M  V30 5972 C 557.729 -2.61385 5.53484 0
M  V30 5973 N 556.866 -3.74851 5.93659 0
M  V30 5974 H 561.706 -0.407593 2.95199 0
M  V30 5975 H 559.243 -0.189534 1.45874 0
M  V30 5976 H 561.201 -2.88688 3.0119 0
M  V30 5977 H 559.831 -2.60529 1.9059 0
M  V30 5978 H 558.883 -0.960301 3.68079 0
M  V30 5979 H 560.195 -1.47027 4.76639 0
M  V30 5980 H 559.349 -3.82529 4.7091 0
M  V30 5981 H 558.088 -3.36413 3.53097 0
M  V30 5982 H 557.093 -1.77746 5.20275 0
M  V30 5983 H 558.318 -2.26603 6.40178 0
M  V30 5984 H 556.264 -4.1055 5.11649 0
M  V30 5985 H 556.181 -3.45887 6.72234 0
M  V30 5986 H 557.449 -4.57477 6.31138 0
M  V30 5987 N 561.678 -1.56367 -0.196722 0
M  V30 5988 C 562.906 -1.84639 -0.933608 0
M  V30 5989 C 563.321 -0.659164 -1.76919 0
M  V30 5990 O 562.678 0.372142 -1.78665 0
M  V30 5991 C 562.729 -3.11694 -1.83109 0
M  V30 5992 O 562.45 -4.25838 -1.02924 0
M  V30 5993 C 563.951 -3.53132 -2.67979 0
M  V30 5994 H 561.171 -0.613188 -0.272473 0
M  V30 5995 H 563.715 -2.03475 -0.204465 0
M  V30 5996 H 561.87 -2.94759 -2.51387 0
M  V30 5997 H 562.284 -4.98178 -1.64069 0
M  V30 5998 H 563.758 -4.45005 -3.26611 0
M  V30 5999 H 564.235 -2.76045 -3.41608 0
M  V30 6000 H 564.841 -3.72592 -2.05074 0
M  V30 6001 N 563.156 0.464375 -1.50603 0
M  V30 6002 C 564.402 1.21485 -1.63135 0
M  V30 6003 C 564.757 1.89538 -0.33063 0
M  V30 6004 O 564.05 1.79432 0.671903 0
M  V30 6005 C 564.244 2.278 -2.75394 0
M  V30 6006 C 564.073 1.70178 -4.16257 0
M  V30 6007 C 562.843 1.49854 -4.82568 0
M  V30 6008 C 565.041 1.19298 -5.00272 0
M  V30 6009 N 563.023 0.875458 -6.07626 0
M  V30 6010 C 564.394 0.693527 -6.16109 0
M  V30 6011 C 566.449 1.08216 -4.85998 0
M  V30 6012 C 565.152 0.0941808 -7.19238 0
M  V30 6013 C 567.178 0.496745 -5.8931 0
M  V30 6014 C 566.54 0.00770448 -7.044 0
M  V30 6015 H 562.639 0.433184 -0.651057 0
M  V30 6016 H 565.223 0.515748 -1.87745 0
M  V30 6017 H 563.394 2.95129 -2.52495 0
M  V30 6018 H 565.126 2.94814 -2.77249 0
M  V30 6019 H 561.881 1.75269 -4.39975 0
M  V30 6020 H 562.305 0.582135 -6.74493 0
M  V30 6021 H 566.947 1.44617 -3.97298 0
M  V30 6022 H 564.665 -0.28202 -8.07608 0
M  V30 6023 H 568.251 0.413275 -5.8033 0
M  V30 6024 H 567.131 -0.438188 -7.82975 0
M  V30 6025 N 564.634 1.40294 0.718013 0
M  V30 6026 C 565.88 1.38645 1.48005 0
M  V30 6027 C 566.213 -0.0121202 1.94196 0
M  V30 6028 O 565.488 -0.980309 1.67989 0
M  V30 6029 C 565.771 2.37379 2.70782 0
M  V30 6030 C 565.624 3.8625 2.30501 0
M  V30 6031 C 566.943 2.33685 3.72933 0
M  V30 6032 H 564.062 0.504928 0.536858 0
M  V30 6033 H 566.704 1.71411 0.819649 0
M  V30 6034 H 564.854 2.09568 3.27129 0
M  V30 6035 H 566.526 4.24879 1.79655 0
M  V30 6036 H 564.769 4.02202 1.6253 0
M  V30 6037 H 565.44 4.50847 3.18498 0
M  V30 6038 H 567.916 2.58314 3.2621 0
M  V30 6039 H 566.792 3.0482 4.56482 0
M  V30 6040 H 567.053 1.34765 4.21059 0
M  V30 6041 N 566.112 -0.949982 1.2575 0
M  V30 6042 C 567.062 -2.03297 1.03221 0
M  V30 6043 C 568.046 -1.60867 -0.0324751 0
M  V30 6044 O 569.238 -1.76047 0.183423 0
M  V30 6045 C 566.367 -3.36938 0.657841 0
M  V30 6046 C 565.453 -3.85878 1.75952 0
M  V30 6047 N 565.844 -4.0756 2.99547 0
M  V30 6048 C 564.142 -4.14709 1.64111 0
M  V30 6049 C 564.843 -4.47961 3.71087 0
M  V30 6050 N 563.819 -4.5416 2.98731 0
M  V30 6051 H 567.621 -2.1806 1.97045 0
M  V30 6052 H 565.135 -1.13516 1.16138 0
M  V30 6053 H 567.132 -4.14155 0.477614 0
M  V30 6054 H 565.792 -3.2355 -0.273025 0
M  V30 6055 H 566.803 -3.94501 3.35544 0
M  V30 6056 H 563.48 -4.10158 0.779527 0
M  V30 6057 H 564.87 -4.73002 4.77199 0
M  V30 6058 N 567.59 -1.07411 -1.15328 0
M  V30 6059 C 568.82 -0.817595 -1.89734 0
M  V30 6060 C 569.228 0.63297 -1.78298 0
M  V30 6061 O 568.571 1.44594 -1.13306 0
M  V30 6062 C 568.633 -1.14748 -3.40695 0
M  V30 6063 C 568.297 -2.59876 -3.75917 0
M  V30 6064 C 569.294 -3.58122 -3.76888 0
M  V30 6065 C 566.979 -2.95469 -4.06206 0
M  V30 6066 C 568.973 -4.89996 -4.07655 0
M  V30 6067 C 566.66 -4.2754 -4.36638 0
M  V30 6068 C 567.658 -5.24614 -4.37344 0
M  V30 6069 O 567.346 -6.54312 -4.67045 0
M  V30 6070 H 567.078 -0.295175 -0.608151 0
M  V30 6071 H 569.632 -1.43409 -1.47048 0
M  V30 6072 H 567.862 -0.47395 -3.83785 0
M  V30 6073 H 569.551 -0.873397 -3.96392 0
M  V30 6074 H 570.317 -3.31966 -3.53587 0
M  V30 6075 H 566.196 -2.20558 -4.04815 0
M  V30 6076 H 569.74 -5.65759 -4.08121 0
M  V30 6077 H 565.637 -4.53449 -4.59407 0
M  V30 6078 H 566.405 -6.59473 -4.84807 0
M  V30 6079 N 569.068 1.32177 -0.85831 0
M  V30 6080 C 570.317 1.96392 -0.459689 0
M  V30 6081 C 570.63 1.68659 0.990632 0
M  V30 6082 O 571.836 2.26641 1.49485 0
M  V30 6083 C 570.292 3.51542 -0.7711 0
M  V30 6084 C 569.9 3.8813 -2.2374 0
M  V30 6085 C 571.644 4.2221 -0.44038 0
M  V30 6086 C 569.551 5.36341 -2.49183 0
M  V30 6087 H 568.481 0.735007 -0.168169 0
M  V30 6088 H 571.132 1.50518 -1.0496 0
M  V30 6089 H 569.514 3.95846 -0.11058 0
M  V30 6090 H 570.688 3.54824 -2.94001 0
M  V30 6091 H 569.003 3.30497 -2.533 0
M  V30 6092 H 571.6 5.31234 -0.607855 0
M  V30 6093 H 571.943 4.11683 0.618291 0
M  V30 6094 H 572.476 3.83502 -1.05695 0
M  V30 6095 H 569.215 5.51892 -3.53689 0
M  V30 6096 H 568.735 5.7104 -1.83504 0
M  V30 6097 H 570.414 6.03466 -2.33318 0
M  V30 6098 N 570.547 0.616602 1.45037 0
M  V30 6099 C 571.51 -0.0871112 2.29034 0
M  V30 6100 C 572.51 -0.786414 1.40258 0
M  V30 6101 O 573.7 -0.633207 1.62284 0
M  V30 6102 C 570.832 -1.13369 3.21497 0
M  V30 6103 H 572.025 0.651497 2.92738 0
M  V30 6104 H 569.578 0.376058 1.51709 0
M  V30 6105 H 570.313 -1.90277 2.62612 0
M  V30 6106 H 570.098 -0.636358 3.86902 0
M  V30 6107 H 571.588 -1.62627 3.84633 0
M  V30 6108 N 572.025 -1.5352 0.356285 0
M  V30 6109 C 572.988 -2.24071 -0.482182 0
M  V30 6110 C 573.988 -1.24531 -1.01729 0
M  V30 6111 O 575.178 -1.48876 -0.904513 0
M  V30 6112 C 572.31 -2.97025 -1.67299 0
M  V30 6113 H 573.503 -2.99596 0.135031 0
M  V30 6114 H 571.056 -1.55928 0.107825 0
M  V30 6115 H 571.791 -2.25719 -2.32855 0
M  V30 6116 H 571.576 -3.7005 -1.29636 0
M  V30 6117 H 573.066 -3.50683 -2.26741 0
M  V30 6118 N 573.503 -0.0852151 -1.57369 0
M  V30 6119 C 574.413 0.891712 -2.16992 0
M  V30 6120 C 575.429 1.3174 -1.13669 0
M  V30 6121 O 576.605 1.38735 -1.45995 0
M  V30 6122 C 573.67 2.13635 -2.73059 0
M  V30 6123 C 572.731 1.7658 -3.91303 0
M  V30 6124 C 571.964 2.95111 -4.44686 0
M  V30 6125 O 572.187 4.09539 -3.97032 0
M  V30 6126 O 571.121 2.74149 -5.35841 0
M  V30 6127 H 574.947 0.414477 -3.00858 0
M  V30 6128 H 572.532 0.138598 -1.48756 0
M  V30 6129 H 574.414 2.86595 -3.08935 0
M  V30 6130 H 573.089 2.6043 -1.92244 0
M  V30 6131 H 571.996 1.00831 -3.60255 0
M  V30 6132 H 573.329 1.34557 -4.7345 0
M  V30 6133 N 574.981 1.5647 0.188427 0
M  V30 6134 C 575.891 1.98285 1.2538 0
M  V30 6135 C 576.907 0.891535 1.49424 0
M  V30 6136 O 578.083 1.19782 1.61908 0
M  V30 6137 C 575.148 2.31965 2.57669 0
M  V30 6138 C 574.209 3.54838 2.41638 0
M  V30 6139 C 573.442 3.86901 3.67618 0
M  V30 6140 O 573.665 3.20163 4.72072 0
M  V30 6141 O 572.599 4.80309 3.62749 0
M  V30 6142 H 576.425 2.89145 0.928912 0
M  V30 6143 H 574.01 1.44112 0.393955 0
M  V30 6144 H 575.892 2.54673 3.35737 0
M  V30 6145 H 574.567 1.44271 2.89771 0
M  V30 6146 H 573.474 3.37369 1.61658 0
M  V30 6147 H 574.807 4.43019 2.14465 0
M  V30 6148 N 576.459 -0.456382 1.50847 0
M  V30 6149 C 577.369 -1.57805 1.73594 0
M  V30 6150 C 578.385 -1.62599 0.619476 0
M  V30 6151 O 579.561 -1.80195 0.899532 0
M  V30 6152 C 576.626 -2.93926 1.8387 0
M  V30 6153 C 575.687 -2.99402 3.07663 0
M  V30 6154 C 574.92 -4.29031 3.1744 0
M  V30 6155 O 575.143 -5.20358 2.33631 0
M  V30 6156 O 574.077 -4.40401 4.10281 0
M  V30 6157 H 577.903 -1.41531 2.68705 0
M  V30 6158 H 575.488 -0.637422 1.3512 0
M  V30 6159 H 577.37 -3.74747 1.92725 0
M  V30 6160 H 576.045 -3.10368 0.91944 0
M  V30 6161 H 574.952 -2.17606 3.043 0
M  V30 6162 H 576.285 -2.87901 3.99216 0
M  V30 6163 N 577.937 -1.40673 -0.710563 0
M  V30 6164 C 579.214 -1.29718 -1.46398 0
M  V30 6165 C 579.594 0.082177 -2.1094 0
M  V30 6166 O 578.942 1.09536 -2.00534 0
M  V30 6167 C 579.152 -2.43967 -2.49562 0
M  V30 6168 C 580.5 -2.84436 -3.15248 0
M  V30 6169 O 581.524 -2.43597 -2.59883 0
M  V30 6170 O 580.383 -3.55008 -4.1549 0
M  V30 6171 H 577.477 -0.509697 -0.651258 0
M  V30 6172 H 580.023 -1.52603 -0.742312 0
M  V30 6173 H 578.795 -3.36076 -2.0042 0
M  V30 6174 H 578.418 -2.22879 -3.29258 0
M  V30 6175 N 579.415 0.9433 -1.26252 0
M  V30 6176 C 580.661 1.69226 -1.12846 0
M  V30 6177 C 581.016 1.8963 0.325282 0
M  V30 6178 O 580.309 1.46435 1.23561 0
M  V30 6179 C 580.503 3.07073 -1.82868 0
M  V30 6180 C 580.332 3.00118 -3.34902 0
M  V30 6181 C 579.102 3.03251 -4.04186 0
M  V30 6182 C 581.3 2.80418 -4.31127 0
M  V30 6183 N 579.282 2.86573 -5.42908 0
M  V30 6184 C 580.653 2.72287 -5.5701 0
M  V30 6185 C 582.708 2.65185 -4.21404 0
M  V30 6186 C 581.411 2.50479 -6.74279 0
M  V30 6187 C 583.437 2.4475 -5.38378 0
M  V30 6188 C 582.799 2.37349 -6.63208 0
M  V30 6189 H 578.898 0.626716 -0.467708 0
M  V30 6190 H 581.482 1.11645 -1.5951 0
M  V30 6191 H 579.653 3.62797 -1.38682 0
M  V30 6192 H 581.385 3.70816 -1.62103 0
M  V30 6193 H 578.14 3.12882 -3.55531 0
M  V30 6194 H 578.564 2.81408 -6.15742 0
M  V30 6195 H 583.206 2.69675 -3.25631 0
M  V30 6196 H 580.924 2.4473 -7.70151 0
M  V30 6197 H 584.51 2.33872 -5.32724 0
M  V30 6198 H 583.39 2.21746 -7.52196 0
M  V30 6199 N 580.893 1.08022 1.14757 0
M  V30 6200 C 582.17 0.720386 1.81851 0
M  V30 6201 C 582.55 -0.796375 1.95502 0
M  V30 6202 O 581.898 -1.71339 1.51179 0
M  V30 6203 C 582.108 1.44273 3.17783 0
M  V30 6204 C 583.456 1.59925 3.93331 0
M  V30 6205 O 584.48 1.40407 3.2736 0
M  V30 6206 O 583.339 1.92096 5.11626 0
M  V30 6207 H 580.433 0.257142 0.786007 0
M  V30 6208 H 582.979 1.18155 1.21809 0
M  V30 6209 H 581.751 2.47618 3.02987 0
M  V30 6210 H 581.374 0.97279 3.85516 0
M  V30 6211 N 582.371 -1.3172 0.865308 0
M  V30 6212 C 583.601 -2.00765 0.487543 0
M  V30 6213 C 584.009 -1.65145 -0.92325 0
M  V30 6214 O 583.352 -0.874294 -1.61561 0
M  V30 6215 C 583.414 -3.55122 0.559369 0
M  V30 6216 C 583.078 -4.14202 1.93095 0
M  V30 6217 C 584.075 -4.3165 2.89784 0
M  V30 6218 C 581.76 -4.50036 2.23099 0
M  V30 6219 C 583.754 -4.84114 4.14623 0
M  V30 6220 C 581.441 -5.02203 3.48189 0
M  V30 6221 C 582.439 -5.19192 4.43767 0
M  V30 6222 O 582.127 -5.70241 5.6664 0
M  V30 6223 H 581.859 -0.649066 0.188915 0
M  V30 6224 H 584.413 -1.69032 1.16694 0
M  V30 6225 H 582.643 -3.86295 -0.176926 0
M  V30 6226 H 584.332 -4.05428 0.195694 0
M  V30 6227 H 585.098 -4.04288 2.6791 0
M  V30 6228 H 580.977 -4.36091 1.49485 0
M  V30 6229 H 584.521 -4.9729 4.89233 0
M  V30 6230 H 580.418 -5.28997 3.69908 0
M  V30 6231 H 581.186 -5.88617 5.68746 0
M  V30 6232 N 583.85 -0.624285 -1.44708 0
M  V30 6233 C 584.812 0.0749638 -2.29077 0
M  V30 6234 C 585.812 0.778965 -1.40673 0
M  V30 6235 O 587.003 0.624591 -1.62618 0
M  V30 6236 C 584.135 1.11663 -3.22094 0
M  V30 6237 H 585.327 -0.667013 -2.92388 0
M  V30 6238 H 582.88 -0.384098 -1.51507 0
M  V30 6239 H 583.615 1.88881 -2.63618 0
M  V30 6240 H 583.401 0.61583 -3.87234 0
M  V30 6241 H 584.891 1.60585 -3.8549 0
M  V30 6242 N 585.328 1.53329 -0.364422 0
M  V30 6243 C 586.739 1.86345 0.115039 0
M  V30 6244 C 587.09 1.28505 1.4826 0
M  V30 6245 O 586.215 0.606639 2.07723 0
M  V30 6246 C 586.81 3.38114 0.215522 0
M  V30 6247 C 585.369 3.70932 0.639237 0
M  V30 6248 C 584.516 2.76471 -0.214261 0
M  V30 6249 H 587.467 1.47593 -0.583258 0
M  V30 6250 H 587.488 3.66031 1.0393 0
M  V30 6251 H 587 3.80182 -0.779948 0
M  V30 6252 H 585.101 3.3442 1.64298 0
M  V30 6253 H 585.214 4.77302 0.41465 0
M  V30 6254 H 583.578 2.52724 0.316678 0
M  V30 6255 H 584.361 3.21373 -1.20725 0
M  V30 6256 N 586.806 0.0935595 1.57322 0
M  V30 6257 C 587.736 -0.863062 2.16964 0
M  V30 6258 C 588.717 -1.29528 1.10256 0
M  V30 6259 O 589.902 -1.36245 1.38387 0
M  V30 6260 C 587.032 -2.12276 2.74875 0
M  V30 6261 C 585.986 -1.82921 3.86942 0
M  V30 6262 C 585.312 -3.15707 4.31548 0
M  V30 6263 C 586.612 -1.11737 5.10208 0
M  V30 6264 H 588.306 -0.366145 2.97153 0
M  V30 6265 H 585.852 -0.174673 1.42937 0
M  V30 6266 H 587.805 -2.79634 3.1525 0
M  V30 6267 H 586.529 -2.64248 1.91938 0
M  V30 6268 H 585.188 -1.17961 3.47103 0
M  V30 6269 H 584.836 -3.65563 3.45504 0
M  V30 6270 H 584.536 -2.96849 5.07104 0
M  V30 6271 H 586.06 -3.84226 4.74555 0
M  V30 6272 H 587.474 -1.69203 5.47762 0
M  V30 6273 H 585.871 -1.03064 5.91183 0
M  V30 6274 H 586.941 -0.0998818 4.84797 0
M  V30 6275 N 588.284 -1.56567 -0.180126 0
M  V30 6276 C 589.53 -1.81761 -0.899497 0
M  V30 6277 C 589.863 -0.670015 -1.82276 0
M  V30 6278 O 589.138 0.328575 -1.91705 0
M  V30 6279 C 589.421 -3.17296 -1.7028 0
M  V30 6280 C 589.274 -4.4257 -0.803255 0
M  V30 6281 C 590.593 -3.49678 -2.67233 0
M  V30 6282 H 587.712 -0.661192 -0.325567 0
M  V30 6283 H 590.354 -1.89272 -0.16612 0
M  V30 6284 H 588.504 -3.11023 -2.32802 0
M  V30 6285 H 590.176 -4.60902 -0.191585 0
M  V30 6286 H 588.419 -4.33658 -0.110796 0
M  V30 6287 H 589.09 -5.33935 -1.40064 0
M  V30 6288 H 591.566 -3.56347 -2.14839 0
M  V30 6289 H 590.442 -4.45605 -3.20511 0
M  V30 6290 H 590.703 -2.73932 -3.47007 0
M  V30 6291 N 589.762 0.448376 -1.51087 0
M  V30 6292 C 590.692 1.55102 -1.74544 0
M  V30 6293 C 591.673 1.59357 -0.594932 0
M  V30 6294 O 592.858 1.75261 -0.836491 0
M  V30 6295 C 589.988 2.93268 -1.86041 0
M  V30 6296 C 588.942 3.03877 -3.01402 0
M  V30 6297 C 588.268 4.43914 -2.98068 0
M  V30 6298 C 589.568 2.7898 -4.41551 0
M  V30 6299 H 591.262 1.35724 -2.66869 0
M  V30 6300 H 588.808 0.651498 -1.28419 0
M  V30 6301 H 590.761 3.70356 -2.01034 0
M  V30 6302 H 589.485 3.13853 -0.903548 0
M  V30 6303 H 588.144 2.29227 -2.86096 0
M  V30 6304 H 587.792 4.6145 -2.00182 0
M  V30 6305 H 587.492 4.51944 -3.75527 0
M  V30 6306 H 589.016 5.22991 -3.1514 0
M  V30 6307 H 590.43 3.45805 -4.57265 0
M  V30 6308 H 588.827 2.98431 -5.20633 0
M  V30 6309 H 589.897 1.74663 -4.5235 0
M  V30 6310 N 591.24 1.41047 0.703093 0
M  V30 6311 C 592.203 1.42036 1.79884 0
M  V30 6312 C 593.203 0.312153 1.57741 0
M  V30 6313 O 594.393 0.571672 1.64553 0
M  V30 6314 C 591.525 1.22437 3.18154 0
M  V30 6315 H 592.718 2.39572 1.80403 0
M  V30 6316 H 590.271 1.27079 0.909977 0
M  V30 6317 H 591.006 0.257112 3.23279 0
M  V30 6318 H 590.791 2.02723 3.35627 0
M  V30 6319 H 592.281 1.25946 3.98155 0
M  V30 6320 N 592.718 -0.936591 1.26751 0
M  V30 6321 C 594.129 -1.49816 1.1141 0
M  V30 6322 C 594.48 -1.9383 -0.304015 0
M  V30 6323 O 593.605 -1.80346 -1.196 0
M  V30 6324 C 594.2 -2.72271 2.01629 0
M  V30 6325 C 592.759 -3.2468 1.9042 0
M  V30 6326 C 591.906 -1.97444 1.94708 0
M  V30 6327 H 594.857 -0.751604 1.39773 0
M  V30 6328 H 594.878 -3.46741 1.56688 0
M  V30 6329 H 594.39 -2.40205 3.04833 0
M  V30 6330 H 592.491 -3.61525 0.901674 0
M  V30 6331 H 592.604 -3.91476 2.76195 0
M  V30 6332 H 590.968 -2.13545 1.38818 0
M  V30 6333 H 591.751 -1.67703 2.9955 0
M  V30 6334 N 594.196 -1.08629 -1.14182 0
M  V30 6335 C 595.473 -0.73002 -1.81466 0
M  V30 6336 C 595.853 0.785996 -1.95922 0
M  V30 6337 O 595.201 1.70535 -1.52086 0
M  V30 6338 C 595.411 -1.45957 -3.17014 0
M  V30 6339 C 596.759 -1.62008 -3.92477 0
M  V30 6340 O 597.783 -1.42141 -3.26611 0
M  V30 6341 O 596.642 -1.94806 -5.106 0
M  V30 6342 H 593.736 -0.261307 -0.784632 0
M  V30 6343 H 596.282 -1.188 -1.2118 0
M  V30 6344 H 595.054 -2.49221 -3.01669 0
M  V30 6345 H 594.677 -0.993222 -3.84995 0
M  V30 6346 N 595.674 1.31259 -0.872281 0
M  V30 6347 C 596.951 1.91362 -0.404943 0
M  V30 6348 C 597.331 1.79362 1.11321 0
M  V30 6349 O 596.679 1.20277 1.94283 0
M  V30 6350 C 596.889 3.3749 -0.888893 0
M  V30 6351 C 598.237 4.14593 -0.916384 0
M  V30 6352 O 599.261 3.46282 -0.834701 0
M  V30 6353 O 598.12 5.3661 -1.03498 0
M  V30 6354 H 595.214 0.818016 -0.121569 0
M  V30 6355 H 597.76 1.39912 -0.960346 0
M  V30 6356 H 596.532 3.40249 -1.93251 0
M  V30 6357 H 596.155 3.96375 -0.311932 0
M  V30 6358 N 597.152 0.631951 1.44375 0
M  V30 6359 C 598.568 0.297642 1.568 0
M  V30 6360 C 598.768 -1.19916 1.61934 0
M  V30 6361 O 597.824 -1.98324 1.56281 0
M  V30 6362 C 599.137 0.990286 2.83926 0
M  V30 6363 C 600.685 0.968507 2.97639 0
M  V30 6364 C 601.16 1.64163 4.27568 0
M  V30 6365 N 602.651 1.60826 4.34384 0
M  V30 6366 C 603.386 2.09802 5.33639 0
M  V30 6367 N 602.882 2.66973 6.39294 0
M  V30 6368 N 604.675 2.00426 5.25153 0
M  V30 6369 H 596.826 1.60353 1.39286 0
M  V30 6370 H 599.089 0.673142 0.667521 0
M  V30 6371 H 598.795 2.04519 2.8612 0
M  V30 6372 H 598.669 0.528563 3.73478 0
M  V30 6373 H 601.056 -0.0779247 2.94997 0
M  V30 6374 H 601.137 1.46873 2.09433 0
M  V30 6375 H 600.781 2.68752 4.3097 0
M  V30 6376 H 600.711 1.11624 5.14634 0
M  V30 6377 H 603.202 1.19087 3.58646 0
M  V30 6378 H 603.515 3.02074 7.11316 0
M  V30 6379 H 601.86 2.71024 6.39977 0
M  V30 6380 H 605.051 1.55483 4.41523 0
M  V30 6381 H 605.224 2.38906 6.02352 0
M  V30 6382 N 598.631 -1.53133 0.372548 0
M  V30 6383 C 599.856 -2.0625 -0.218098 0
M  V30 6384 C 600.281 -1.24375 -1.41111 0
M  V30 6385 O 599.639 -0.264554 -1.79359 0
M  V30 6386 C 599.687 -3.55858 -0.582876 0
M  V30 6387 O 598.791 -3.76667 -1.67917 0
M  V30 6388 H 598.132 -0.663317 -0.030104 0
M  V30 6389 H 600.662 -1.97477 0.535169 0
M  V30 6390 H 600.672 -3.99007 -0.851925 0
M  V30 6391 H 599.347 -4.14892 0.289428 0
M  V30 6392 H 597.924 -3.45413 -1.40513 0
M  V30 6393 N 600.109 -0.101901 -1.5727 0
M  V30 6394 C 601.339 0.567568 -1.98651 0
M  V30 6395 C 601.747 1.61839 -0.980037 0
M  V30 6396 O 601.09 1.83661 0.0376564 0
M  V30 6397 C 601.152 1.26742 -3.36417 0
M  V30 6398 C 600.816 0.366561 -4.55528 0
M  V30 6399 C 601.813 -0.388022 -5.1845 0
M  V30 6400 C 599.498 0.282629 -5.01504 0
M  V30 6401 C 601.492 -1.21445 -6.25724 0
M  V30 6402 C 599.179 -0.547443 -6.08643 0
M  V30 6403 C 600.177 -1.29462 -6.70618 0
M  V30 6404 O 599.865 -2.11095 -7.7569 0
M  V30 6405 H 599.597 0.156282 -0.657687 0
M  V30 6406 H 602.151 -0.179912 -2.04611 0
M  V30 6407 H 600.381 2.06162 -3.27161 0
M  V30 6408 H 602.07 1.8321 -3.622 0
M  V30 6409 H 602.836 -0.332949 -4.83856 0
M  V30 6410 H 598.715 0.853868 -4.53023 0
M  V30 6411 H 602.259 -1.79814 -6.74027 0
M  V30 6412 H 598.156 -0.603971 -6.42668 0
M  V30 6413 H 598.924 -2.03851 -7.92709 0
M  V30 6414 N 601.587 1.56661 0.17182 0
M  V30 6415 C 602.534 1.96371 1.21273 0
M  V30 6416 C 603.504 0.82756 1.44016 0
M  V30 6417 O 604.689 1.08764 1.56764 0
M  V30 6418 C 601.829 2.32838 2.54716 0
M  V30 6419 C 600.942 3.59628 2.39356 0
M  V30 6420 C 600.077 3.85311 3.65662 0
M  V30 6421 C 599.116 5.0545 3.45234 0
M  V30 6422 N 598.253 5.27268 4.63608 0
M  V30 6423 H 603.093 2.85106 0.86709 0
M  V30 6424 H 600.63 1.41073 0.416744 0
M  V30 6425 H 602.588 2.52004 3.3249 0
M  V30 6426 H 601.218 1.47214 2.87277 0
M  V30 6427 H 600.27 3.4838 1.52761 0
M  V30 6428 H 601.582 4.4756 2.20207 0
M  V30 6429 H 600.736 4.04841 4.51872 0
M  V30 6430 H 599.475 2.95753 3.8779 0
M  V30 6431 H 598.48 4.85819 2.5741 0
M  V30 6432 H 599.705 5.96538 3.24529 0
M  V30 6433 H 597.651 4.40662 4.85956 0
M  V30 6434 H 597.568 6.09422 4.4737 0
M  V30 6435 H 598.836 5.51277 5.51103 0
M  V30 6436 N 603.065 -0.440357 1.51323 0
M  V30 6437 C 604.29 -1.21716 1.67928 0
M  V30 6438 C 604.715 -1.84328 0.374826 0
M  V30 6439 O 604.073 -1.68675 -0.664706 0
M  V30 6440 C 604.121 -2.27914 2.79442 0
M  V30 6441 O 603.225 -3.33325 2.42834 0
M  V30 6442 H 602.566 -0.35674 0.560029 0
M  V30 6443 H 605.096 -0.520417 1.97871 0
M  V30 6444 H 605.106 -2.72746 3.03436 0
M  V30 6445 H 603.781 -1.8172 3.741 0
M  V30 6446 H 602.358 -2.9399 2.294 0
M  V30 6447 N 604.543 -1.41418 -0.695603 0
M  V30 6448 C 605.475 -1.39195 -1.82092 0
M  V30 6449 C 606.488 -0.294132 -1.60121 0
M  V30 6450 O 607.677 -0.555854 -1.69625 0
M  V30 6451 C 604.777 -1.14828 -3.18854 0
M  V30 6452 C 603.95 -2.36649 -3.67853 0
M  V30 6453 C 603.009 -2.08139 -4.83285 0
M  V30 6454 O 602.035 -2.81177 -4.94902 0
M  V30 6455 N 603.237 -1.07162 -5.70523 0
M  V30 6456 H 606.002 -2.36185 -1.84491 0
M  V30 6457 H 603.563 -1.3603 -0.877923 0
M  V30 6458 H 605.555 -0.937075 -3.93702 0
M  V30 6459 H 604.125 -0.264358 -3.1148 0
M  V30 6460 H 603.345 -2.73472 -2.83913 0
M  V30 6461 H 604.633 -3.17816 -3.97329 0
M  V30 6462 H 604.031 -0.467124 -5.63768 0
M  V30 6463 H 602.588 -0.920311 -6.4527 0
M  V30 6464 N 606.021 0.929856 -1.27246 0
M  V30 6465 C 607.251 1.70895 -1.16096 0
M  V30 6466 C 607.659 1.87039 0.285122 0
M  V30 6467 O 607.002 1.38557 1.20614 0
M  V30 6468 C 607.064 3.12919 -1.7698 0
M  V30 6469 C 606.728 3.2012 -3.26148 0
M  V30 6470 C 607.725 3.02533 -4.22812 0
M  V30 6471 C 605.41 3.43148 -3.66817 0
M  V30 6472 C 607.404 3.07861 -5.58122 0
M  V30 6473 C 605.091 3.48109 -5.02258 0
M  V30 6474 C 606.089 3.30483 -5.97721 0
M  V30 6475 O 605.777 3.35175 -7.30694 0
M  V30 6476 H 605.509 0.54152 -0.404639 0
M  V30 6477 H 608.063 1.17342 -1.68582 0
M  V30 6478 H 606.293 3.67945 -1.18969 0
M  V30 6479 H 607.982 3.72787 -1.60576 0
M  V30 6480 H 608.748 2.84586 -3.92728 0
M  V30 6481 H 604.627 3.55918 -2.9299 0
M  V30 6482 H 608.171 2.94021 -6.32612 0
M  V30 6483 H 604.068 3.65579 -5.31998 0
M  V30 6484 H 604.836 3.51644 -7.39114 0
M  V30 6485 N 607.499 1.09233 1.13605 0
M  V30 6486 C 608.429 0.751738 2.21068 0
M  V30 6487 C 609.41 -0.269688 1.67948 0
M  V30 6488 O 610.595 -0.13819 1.93708 0
M  V30 6489 C 607.725 0.16935 3.46887 0
M  V30 6490 C 606.679 1.12007 4.13084 0
M  V30 6491 C 606.005 0.399483 5.33206 0
M  V30 6492 C 607.305 2.46168 4.6065 0
M  V30 6493 H 608.999 1.65024 2.49815 0
M  V30 6494 H 606.545 0.794905 1.20072 0
M  V30 6495 H 608.498 -0.0809824 4.21322 0
M  V30 6496 H 607.222 -0.764335 3.1753 0
M  V30 6497 H 605.881 1.35564 3.40614 0
M  V30 6498 H 605.529 -0.538277 5.00112 0
M  V30 6499 H 605.229 1.03337 5.78442 0
M  V30 6500 H 606.753 0.157403 6.10397 0
M  V30 6501 H 608.167 2.26829 5.26518 0
M  V30 6502 H 606.564 3.05326 5.1662 0
M  V30 6503 H 607.634 3.07076 3.75276 0
M  V30 6504 N 608.977 -1.30795 0.87923 0
M  V30 6505 C 609.925 -2.30231 0.331112 0
M  V30 6506 C 610.919 -1.59918 -0.558794 0
M  V30 6507 O 612.125 -1.74441 -0.443866 0
M  V30 6508 H 608.5 -0.746785 0.088409 0
M  V30 6509 H 610.471 -2.73925 1.18353 0
M  V30 6510 C 609.22 -3.44848 -0.444401 0
M  V30 6511 H 608.543 -3.99131 0.231106 0
M  V30 6512 H 609.983 -4.16516 -0.793109 0
M  V30 6513 C 608.442 -2.94329 -1.63926 0
M  V30 6514 O 608.972 -2.93875 -2.73862 0
M  V30 6515 N 607.178 -2.50413 -1.4745 0
M  V30 6516 H 606.725 -2.50982 -0.58015 0
M  V30 6517 H 606.683 -2.16969 -2.27534 0
M  V30 6518 N 610.455 -0.639598 -1.44038 0
M  V30 6519 C 611.403 0.0723409 -2.32487 0
M  V30 6520 C 612.397 0.827129 -1.47834 0
M  V30 6521 O 613.603 0.73907 -1.64127 0
M  V30 6522 H 609.978 0.0421696 -0.750817 0
M  V30 6523 H 611.949 -0.691593 -2.90275 0
M  V30 6524 C 610.698 1.03452 -3.31953 0
M  V30 6525 H 610.021 0.46315 -3.97108 0
M  V30 6526 H 611.461 1.502 -3.96505 0
M  V30 6527 C 609.92 2.12392 -2.61518 0
M  V30 6528 O 610.45 3.2059 -2.42044 0
M  V30 6529 N 608.656 1.88563 -2.21116 0
M  V30 6530 H 608.203 1.00577 -2.37154 0
M  V30 6531 H 608.161 2.61651 -1.74316 0
M  V30 6532 N 611.933 1.52934 -0.380664 0
M  V30 6533 C 613.181 2.01069 0.203874 0
M  V30 6534 C 613.502 1.26922 1.4804 0
M  V30 6535 O 612.772 0.386787 1.92044 0
M  V30 6536 H 611.352 0.742882 0.0783279 0
M  V30 6537 H 614.014 1.88099 -0.510368 0
M  V30 6538 H 613.11 3.09258 0.42021 0
M  V30 6539 N 613.412 0.11024 1.57214 0
M  V30 6540 C 614.823 -0.416527 1.81994 0
M  V30 6541 C 615.174 -1.67183 1.02686 0
M  V30 6542 O 614.299 -2.14823 0.260782 0
M  V30 6543 C 614.894 -0.762466 3.30109 0
M  V30 6544 C 613.453 -1.23391 3.556 0
M  V30 6545 C 612.6 -0.238166 2.76275 0
M  V30 6546 H 615.551 0.335491 1.55113 0
M  V30 6547 H 615.572 -1.62068 3.44259 0
M  V30 6548 H 615.084 0.151346 3.87805 0
M  V30 6549 H 613.185 -2.16492 3.03253 0
M  V30 6550 H 613.298 -1.18528 4.64207 0
M  V30 6551 H 611.662 -0.723421 2.4421 0
M  V30 6552 H 612.445 0.668591 3.36727 0
M  V30 6553 N 614.89 -1.56749 -0.16351 0
M  V30 6554 C 615.822 -1.93587 -1.22705 0
M  V30 6555 C 616.835 -0.829824 -1.40063 0
M  V30 6556 O 618.024 -1.10826 -1.39928 0
M  V30 6557 C 615.124 -2.1803 -2.59454 0
M  V30 6558 C 614.297 -3.4928 -2.63292 0
M  V30 6559 C 613.356 -3.62457 -3.8146 0
M  V30 6560 O 612.382 -4.35004 -3.67096 0
M  V30 6561 N 613.584 -2.97888 -4.9824 0
M  V30 6562 H 616.349 -2.8542 -0.914081 0
M  V30 6563 H 613.91 -1.58 -0.353214 0
M  V30 6564 H 615.902 -2.24102 -3.36987 0
M  V30 6565 H 614.472 -1.32543 -2.8311 0
M  V30 6566 H 613.692 -3.54795 -1.71796 0
M  V30 6567 H 614.98 -4.35632 -2.62873 0
M  V30 6568 H 614.378 -2.38833 -5.12811 0
M  V30 6569 H 612.935 -3.09545 -5.73607 0
M  V30 6570 N 616.368 0.432326 -1.51554 0
M  V30 6571 C 617.784 0.769195 -1.39841 0
M  V30 6572 C 617.984 1.95584 -0.484675 0
M  V30 6573 O 617.04 2.52433 0.0582829 0
M  V30 6574 C 618.353 1.04487 -2.81963 0
M  V30 6575 C 619.901 1.149 -2.91148 0
M  V30 6576 C 620.376 1.45758 -4.34187 0
M  V30 6577 N 621.867 1.52671 -4.37317 0
M  V30 6578 C 622.602 1.78129 -5.4503 0
M  V30 6579 N 622.098 2.01345 -6.62897 0
M  V30 6580 N 623.891 1.79953 -5.32516 0
M  V30 6581 H 616.042 -0.349122 -2.09511 0
M  V30 6582 H 618.305 -0.0938113 -0.943347 0
M  V30 6583 H 618.011 0.24557 -3.50842 0
M  V30 6584 H 617.885 1.97119 -3.21596 0
M  V30 6585 H 620.272 1.93891 -2.22464 0
M  V30 6586 H 620.353 0.201568 -2.55005 0
M  V30 6587 H 619.997 0.672917 -5.03423 0
M  V30 6588 H 619.927 2.41715 -4.67848 0
M  V30 6589 H 622.418 1.36612 -3.52343 0
M  V30 6590 H 622.731 2.20155 -7.40778 0
M  V30 6591 H 621.076 1.98657 -6.66003 0
M  V30 6592 H 624.267 1.61337 -4.39418 0
M  V30 6593 H 624.44 1.99455 -6.1654 0
M  V30 6594 N 617.846 1.41785 0.688094 0
M  V30 6595 C 619.095 1.4084 1.44385 0
M  V30 6596 C 619.408 0.0234166 1.95586 0
M  V30 6597 O 620.614 -0.108647 2.71283 0
M  V30 6598 C 619.07 2.47675 2.61123 0
M  V30 6599 C 618.678 3.92116 2.16677 0
M  V30 6600 C 620.422 2.55877 3.38714 0
M  V30 6601 C 618.329 4.90487 3.30419 0
M  V30 6602 H 617.259 0.523787 0.542368 0
M  V30 6603 H 619.91 1.6764 0.74627 0
M  V30 6604 H 618.292 2.14018 3.33185 0
M  V30 6605 H 619.466 4.35059 1.51856 0
M  V30 6606 H 617.781 3.87642 1.5206 0
M  V30 6607 H 620.378 3.26553 4.234 0
M  V30 6608 H 620.721 1.59801 3.84408 0
M  V30 6609 H 621.254 2.88662 2.73714 0
M  V30 6610 H 617.993 5.87994 2.89729 0
M  V30 6611 H 617.513 4.52187 3.94065 0
M  V30 6612 H 619.192 5.11591 3.96085 0
M  V30 6613 N 619.324 -0.923095 1.27737 0
M  V30 6614 C 620.572 -1.66797 1.14119 0
M  V30 6615 C 620.893 -1.92479 -0.312541 0
M  V30 6616 O 620.163 -1.53432 -1.218 0
M  V30 6617 H 618.743 -0.618196 0.419336 0
M  V30 6618 H 621.405 -1.10815 1.60331 0
M  V30 6619 H 620.501 -2.63424 1.67374 0
M  V30 6620 N 620.802 -1.09834 -1.13024 0
M  V30 6621 C 622.218 -0.828875 -1.36388 0
M  V30 6622 C 622.418 0.554756 -1.93713 0
M  V30 6623 O 621.474 1.30882 -2.15931 0
M  V30 6624 C 622.787 -1.92352 -2.3113 0
M  V30 6625 C 624.335 -1.95124 -2.44735 0
M  V30 6626 C 624.81 -3.03745 -3.42787 0
M  V30 6627 N 626.301 -3.03012 -3.5034 0
M  V30 6628 C 627.036 -3.83699 -4.26101 0
M  V30 6629 N 626.532 -4.74306 -5.04981 0
M  V30 6630 N 628.325 -3.71942 -4.21445 0
M  V30 6631 H 620.476 -1.99029 -0.74169 0
M  V30 6632 H 622.739 -0.864557 -0.388903 0
M  V30 6633 H 622.445 -2.91906 -1.96172 0
M  V30 6634 H 622.319 -1.80536 -3.3119 0
M  V30 6635 H 624.706 -0.962069 -2.78977 0
M  V30 6636 H 624.787 -2.11018 -1.44586 0
M  V30 6637 H 624.431 -4.02878 -3.09276 0
M  V30 6638 H 624.361 -2.85094 -4.42752 0
M  V30 6639 H 626.852 -2.37352 -2.94062 0
M  V30 6640 H 627.165 -5.32446 -5.60108 0
M  V30 6641 H 625.51 -4.78339 -5.04199 0
M  V30 6642 H 628.701 -3.00513 -3.589 0
M  V30 6643 H 628.874 -4.35062 -4.80235 0
M  V30 6644 N 622.28 1.30327 -0.886154 0
M  V30 6645 C 623.227 2.28099 -0.352069 0
M  V30 6646 C 624.197 1.56433 0.558397 0
M  V30 6647 O 625.382 1.84492 0.486561 0
M  V30 6648 C 622.522 3.42456 0.426346 0
M  V30 6649 C 621.635 4.28938 -0.513472 0
M  V30 6650 C 620.77 5.30458 0.280657 0
M  V30 6651 C 619.809 6.0859 -0.654556 0
M  V30 6652 N 618.946 7.02022 0.104322 0
M  V30 6653 H 623.786 2.73166 -1.19097 0
M  V30 6654 H 621.323 1.34367 -0.598662 0
M  V30 6655 H 623.281 4.07518 0.893587 0
M  V30 6656 H 621.911 2.98455 1.22981 0
M  V30 6657 H 620.963 3.64173 -1.09921 0
M  V30 6658 H 622.275 4.83399 -1.2299 0
M  V30 6659 H 621.429 6.01273 0.8097 0
M  V30 6660 H 620.168 4.76693 1.03029 0
M  V30 6661 H 619.173 5.36651 -1.19522 0
M  V30 6662 H 620.398 6.64443 -1.4033 0
M  V30 6663 H 618.344 6.50645 0.836472 0
M  V30 6664 H 618.261 7.53979 -0.552453 0
M  V30 6665 H 619.529 7.77077 0.614069 0
M  V30 6666 N 623.758 0.647228 1.43697 0
M  V30 6667 C 624.988 0.16551 2.05936 0
M  V30 6668 C 625.396 -1.17164 1.48557 0
M  V30 6669 O 624.739 -1.73307 0.60914 0
M  V30 6670 C 624.801 -0.00648082 3.59499 0
M  V30 6671 C 624.465 1.25503 4.39429 0
M  V30 6672 C 625.462 2.18241 4.71876 0
M  V30 6673 C 623.147 1.49494 4.79538 0
M  V30 6674 C 625.141 3.33268 5.43333 0
M  V30 6675 C 622.828 2.64815 5.50742 0
M  V30 6676 C 623.826 3.56528 5.82561 0
M  V30 6677 O 623.514 4.69836 6.52311 0
M  V30 6678 H 623.246 0.0844124 0.670709 0
M  V30 6679 H 625.8 0.88638 1.8529 0
M  V30 6680 H 624.03 -0.782661 3.78697 0
M  V30 6681 H 625.719 -0.444794 4.03456 0
M  V30 6682 H 626.485 2.00946 4.41413 0
M  V30 6683 H 622.364 0.789912 4.54182 0
M  V30 6684 H 625.908 4.04874 5.68087 0
M  V30 6685 H 621.805 2.82047 5.8062 0
M  V30 6686 H 622.573 4.69024 6.70789 0
M  V30 6687 N 625.236 -1.5273 0.388769 0
M  V30 6688 C 626.183 -2.26437 -0.446639 0
M  V30 6689 C 627.153 -1.28025 -1.05824 0
M  V30 6690 O 628.338 -1.56852 -1.08637 0
M  V30 6691 C 625.478 -3.07407 -1.56828 0
M  V30 6692 C 624.591 -4.20747 -0.979589 0
M  V30 6693 C 623.726 -4.89113 -2.07224 0
M  V30 6694 C 622.765 -5.94447 -1.45942 0
M  V30 6695 N 621.902 -6.56411 -2.49135 0
M  V30 6696 H 626.742 -2.97404 0.18837 0
M  V30 6697 H 624.279 -1.46727 0.104725 0
M  V30 6698 H 626.237 -3.52642 -2.22934 0
M  V30 6699 H 624.867 -2.3865 -2.17361 0
M  V30 6700 H 623.919 -3.7983 -0.208151 0
M  V30 6701 H 625.231 -4.9637 -0.491747 0
M  V30 6702 H 624.385 -5.3765 -2.81101 0
M  V30 6703 H 623.124 -4.13013 -2.59368 0
M  V30 6704 H 622.129 -5.4525 -0.705894 0
M  V30 6705 H 623.354 -6.7248 -0.945932 0
M  V30 6706 H 621.3 -5.83152 -3.00449 0
M  V30 6707 H 621.217 -7.27645 -2.05105 0
M  V30 6708 H 622.485 -7.09592 -3.22644 0
M  V30 6709 N 626.714 -0.118576 -1.57153 0
M  V30 6710 C 627.661 0.831789 -2.1529 0
M  V30 6711 C 628.631 1.26385 -1.07778 0
M  V30 6712 O 629.816 1.34144 -1.35684 0
M  V30 6713 C 626.956 2.07664 -2.75626 0
M  V30 6714 C 626.069 1.69298 -3.97444 0
M  V30 6715 C 625.204 2.88747 -4.45868 0
M  V30 6716 C 624.243 2.46619 -5.60219 0
M  V30 6717 N 623.38 3.5898 -6.03389 0
M  V30 6718 H 628.22 0.329183 -2.96176 0
M  V30 6719 H 625.757 0.150792 -1.46325 0
M  V30 6720 H 627.715 2.80601 -3.08738 0
M  V30 6721 H 626.345 2.55384 -1.97431 0
M  V30 6722 H 625.397 0.862374 -3.70496 0
M  V30 6723 H 626.709 1.34338 -4.80369 0
M  V30 6724 H 625.863 3.69909 -4.80887 0
M  V30 6725 H 624.602 3.26933 -3.61892 0
M  V30 6726 H 623.607 1.63889 -5.24805 0
M  V30 6727 H 624.832 2.0955 -6.45961 0
M  V30 6728 H 622.778 3.9684 -5.22354 0
M  V30 6729 H 622.695 3.27942 -6.81168 0
M  V30 6730 H 623.963 4.40583 -6.43045 0
M  V30 6731 N 628.193 1.56834 0.155195 0
M  V30 6732 C 629.439 1.83169 0.870467 0
M  V30 6733 C 629.772 0.698929 1.81187 0
M  V30 6734 O 629.047 -0.298035 1.92203 0
M  V30 6735 C 629.33 3.19965 1.65211 0
M  V30 6736 C 629.183 4.43792 0.732744 0
M  V30 6737 C 630.502 3.53885 2.61636 0
M  V30 6738 H 627.621 0.666288 0.315006 0
M  V30 6739 H 630.263 1.89513 0.135988 0
M  V30 6740 H 628.413 3.14687 2.27825 0
M  V30 6741 H 630.085 4.61148 0.118236 0
M  V30 6742 H 628.328 4.3378 0.0417906 0
M  V30 6743 H 628.999 5.36095 1.31552 0
M  V30 6744 H 631.475 3.5972 2.09143 0
M  V30 6745 H 630.351 4.50648 3.13381 0
M  V30 6746 H 630.612 2.79418 3.42605 0
M  V30 6747 N 629.671 -0.424282 1.51781 0
M  V30 6748 C 631.087 -0.761768 1.40247 0
M  V30 6749 C 631.287 -1.95324 0.495041 0
M  V30 6750 O 630.343 -2.5246 -0.0448949 0
M  V30 6751 C 631.656 -1.0299 2.82513 0
M  V30 6752 C 633.204 -1.13354 2.91753 0
M  V30 6753 C 633.679 -1.43453 4.34954 0
M  V30 6754 N 635.17 -1.5035 4.3812 0
M  V30 6755 C 635.905 -1.75236 5.45967 0
M  V30 6756 N 635.401 -1.97827 6.63955 0
M  V30 6757 N 637.194 -1.77126 5.33463 0
M  V30 6758 H 629.345 0.360228 2.09323 0
M  V30 6759 H 631.608 0.0988128 0.942836 0
M  V30 6760 H 631.314 -0.226961 3.50967 0
M  V30 6761 H 631.188 -1.95411 3.22637 0
M  V30 6762 H 633.575 -1.92709 2.23489 0
M  V30 6763 H 633.656 -0.188041 2.55108 0
M  V30 6764 H 633.3 -0.646209 5.03772 0
M  V30 6765 H 633.23 -2.3923 4.69123 0
M  V30 6766 H 635.721 -1.34742 3.53062 0
M  V30 6767 H 636.034 -2.16223 7.41935 0
M  V30 6768 H 634.379 -1.95123 6.67047 0
M  V30 6769 H 637.57 -1.59005 4.40267 0
M  V30 6770 H 637.743 -1.96182 6.17589 0
M  V30 6771 N 631.149 -1.42148 -0.680565 0
M  V30 6772 C 632.396 -1.4231 -1.44063 0
M  V30 6773 C 632.724 -0.037488 -1.94464 0
M  V30 6774 O 631.979 0.953184 -1.70918 0
M  V30 6775 C 632.278 -2.38945 -2.65782 0
M  V30 6776 C 631.944 -3.85455 -2.33956 0
M  V30 6777 C 630.606 -4.25364 -2.24987 0
M  V30 6778 C 632.958 -4.77895 -2.08004 0
M  V30 6779 C 630.286 -5.55701 -1.88184 0
M  V30 6780 C 632.638 -6.08568 -1.72706 0
M  V30 6781 C 631.302 -6.47482 -1.62244 0
M  V30 6782 H 630.572 -0.520748 -0.527164 0
M  V30 6783 H 633.219 -1.7505 -0.776524 0
M  V30 6784 H 631.524 -1.99511 -3.37198 0
M  V30 6785 H 633.221 -2.36336 -3.23954 0
M  V30 6786 H 629.811 -3.53855 -2.41836 0
M  V30 6787 H 633.995 -4.47854 -2.1387 0
M  V30 6788 H 629.251 -5.84718 -1.78648 0
M  V30 6789 H 633.425 -6.79688 -1.5165 0
M  V30 6790 H 631.052 -7.48387 -1.33496 0
M  V30 6791 N 632.627 0.916307 -1.28225 0
M  V30 6792 C 633.56 2.01954 -1.06254 0
M  V30 6793 C 634.538 1.62587 0.0205983 0
M  V30 6794 O 635.722 1.88073 -0.126824 0
M  V30 6795 C 632.849 3.33086 -0.614141 0
M  V30 6796 C 631.895 3.91435 -1.69354 0
M  V30 6797 S 632.728 4.22603 -3.28887 0
M  V30 6798 C 633.884 5.568 -2.85876 0
M  V30 6799 H 634.117 2.20281 -1.99659 0
M  V30 6800 H 631.65 1.06085 -1.12184 0
M  V30 6801 H 633.608 4.089 -0.36213 0
M  V30 6802 H 632.269 3.12664 0.300036 0
M  V30 6803 H 631.462 4.86098 -1.33136 0
M  V30 6804 H 631.064 3.22248 -1.89821 0
M  V30 6805 H 633.356 6.3658 -2.31888 0
M  V30 6806 H 634.299 5.97927 -3.79326 0
M  V30 6807 H 634.707 5.17865 -2.24669 0
M  V30 6808 N 634.105 1.10431 1.1244 0
M  V30 6809 C 635.068 0.756542 2.16354 0
M  V30 6810 C 636.068 -0.21899 1.59302 0
M  V30 6811 O 637.258 0.00415969 1.742 0
M  V30 6812 C 634.39 0.120612 3.40687 0
M  V30 6813 H 635.583 1.67696 2.48632 0
M  V30 6814 H 633.136 0.904832 1.27446 0
M  V30 6815 H 633.871 -0.810536 3.14008 0
M  V30 6816 H 633.656 0.822693 3.83372 0
M  V30 6817 H 635.146 -0.106945 4.17463 0
M  V30 6818 N 635.583 -1.29855 0.893053 0
M  V30 6819 C 636.813 -1.99686 0.530019 0
M  V30 6820 C 637.221 -1.67066 -0.888012 0
M  V30 6821 O 636.564 -0.908366 -1.5967 0
M  V30 6822 C 636.626 -3.53855 0.63457 0
M  V30 6823 C 636.29 -4.10013 2.01837 0
M  V30 6824 C 637.287 -4.25406 2.98874 0
M  V30 6825 C 634.972 -4.45202 2.32595 0
M  V30 6826 C 636.966 -4.7521 4.24799 0
M  V30 6827 C 634.653 -4.94704 3.58763 0
M  V30 6828 C 635.651 -5.09662 4.5468 0
M  V30 6829 O 635.339 -5.58093 5.78608 0
M  V30 6830 H 635.071 -0.644913 0.20264 0
M  V30 6831 H 637.625 -1.66518 1.20253 0
M  V30 6832 H 635.855 -3.86583 -0.0949477 0
M  V30 6833 H 637.544 -4.04922 0.281648 0
M  V30 6834 H 638.31 -3.98515 2.76425 0
M  V30 6835 H 634.189 -4.32822 1.58701 0
M  V30 6836 H 637.733 -4.86801 4.99671 0
M  V30 6837 H 633.63 -5.21032 3.81046 0
M  V30 6838 H 634.398 -5.7642 5.81104 0
M  V30 6839 N 637.061 -0.65484 -1.43351 0
M  V30 6840 C 638.289 -0.176685 -2.06144 0
M  V30 6841 C 638.704 1.15831 -1.49093 0
M  V30 6842 O 638.061 1.71542 -0.622868 0
M  V30 6843 C 638.112 -0.0813326 -3.61408 0
M  V30 6844 O 637.833 -1.36355 -4.1634 0
M  V30 6845 C 639.334 0.422706 -4.4128 0
M  V30 6846 H 636.554 -0.0906429 -0.66485 0
M  V30 6847 H 639.098 -0.895945 -1.83829 0
M  V30 6848 H 637.253 0.588496 -3.82904 0
M  V30 6849 H 637.667 -1.22381 -5.10023 0
M  V30 6850 H 639.141 0.438375 -5.50257 0
M  V30 6851 H 639.618 1.45432 -4.14423 0
M  V30 6852 H 640.224 -0.214687 -4.24758 0
M  V30 6853 N 638.539 1.52521 -0.396863 0
M  V30 6854 C 639.816 1.94112 0.240842 0
M  V30 6855 C 640.196 1.33288 1.637 0
M  V30 6856 O 639.544 0.503901 2.22875 0
M  V30 6857 C 639.754 3.48033 0.259567 0
M  V30 6858 C 641.102 4.21822 0.484866 0
M  V30 6859 O 642.126 3.54579 0.339453 0
M  V30 6860 O 640.985 5.41042 0.770412 0
M  V30 6861 H 638.079 0.812973 0.151671 0
M  V30 6862 H 640.625 1.63572 -0.451918 0
M  V30 6863 H 639.397 3.84655 -0.718078 0
M  V30 6864 H 639.02 3.84899 0.996937 0
M  V30 6865 N 640.017 0.126909 1.57088 0
M  V30 6866 C 640.927 -0.833867 2.1928 0
M  V30 6867 C 641.943 -1.2868 1.17122 0
M  V30 6868 O 643.119 -1.34815 1.49622 0
M  V30 6869 C 640.184 -2.0632 2.78627 0
M  V30 6870 C 639.245 -1.66143 3.95847 0
M  V30 6871 C 638.478 -2.83217 4.52354 0
M  V30 6872 O 638.701 -3.98868 4.0775 0
M  V30 6873 O 637.635 -2.59846 5.42922 0
M  V30 6874 H 641.461 -0.334564 3.01852 0
M  V30 6875 H 639.046 -0.0991091 1.49071 0
M  V30 6876 H 640.928 -2.78304 3.16425 0
M  V30 6877 H 639.603 -2.55242 1.99082 0
M  V30 6878 H 638.51 -0.912435 3.62802 0
M  V30 6879 H 639.843 -1.21957 4.76852 0
M  V30 6880 N 641.495 -1.56914 -0.146875 0
M  V30 6881 C 642.723 -1.87515 -0.874394 0
M  V30 6882 C 643.138 -0.715116 -1.74733 0
M  V30 6883 O 642.495 0.315113 -1.79759 0
M  V30 6884 C 642.546 -3.17362 -1.731 0
M  V30 6885 O 642.267 -4.28897 -0.893245 0
M  V30 6886 C 643.768 -3.61479 -2.56609 0
M  V30 6887 H 640.988 -0.621546 -0.252827 0
M  V30 6888 H 643.532 -2.04023 -0.139627 0
M  V30 6889 H 641.687 -3.02608 -2.41883 0
M  V30 6890 H 642.101 -5.03146 -1.48137 0
M  V30 6891 H 643.575 -4.5517 -3.12289 0
M  V30 6892 H 644.052 -2.86773 -3.32653 0
M  V30 6893 H 644.658 -3.78927 -1.93117 0
M  V30 6894 N 642.974 0.416227 -1.52004 0
M  V30 6895 C 644.221 1.16383 -1.65714 0
M  V30 6896 C 644.549 1.9068 -0.383594 0
M  V30 6897 O 643.804 1.85174 0.633185 0
M  V30 6898 C 644.103 2.18923 -2.82502 0
M  V30 6899 C 643.769 1.61485 -4.20991 0
M  V30 6900 C 642.431 1.45545 -4.58661 0
M  V30 6901 C 644.783 1.19468 -5.07323 0
M  V30 6902 C 642.111 0.860937 -5.80349 0
M  V30 6903 C 644.463 0.614386 -6.29609 0
M  V30 6904 C 643.127 0.442056 -6.66035 0
M  V30 6905 H 642.397 0.425875 -0.606392 0
M  V30 6906 H 645.044 0.45199 -1.8609 0
M  V30 6907 H 643.349 2.96225 -2.56433 0
M  V30 6908 H 645.046 2.76628 -2.90307 0
M  V30 6909 H 641.636 1.74873 -3.91302 0
M  V30 6910 H 645.82 1.30596 -4.78809 0
M  V30 6911 H 641.076 0.715372 -6.072 0
M  V30 6912 H 645.25 0.280393 -6.95835 0
M  V30 6913 H 642.877 -0.0207218 -7.60197 0
M  V30 6914 N 644.452 1.42507 0.673017 0
M  V30 6915 C 645.399 1.46124 1.78651 0
M  V30 6916 C 646.369 0.313007 1.63124 0
M  V30 6917 O 647.554 0.517337 1.83653 0
M  V30 6918 C 644.694 1.3711 3.16694 0
M  V30 6919 C 643.807 2.61983 3.43495 0
M  V30 6920 C 642.942 2.45098 4.71275 0
M  V30 6921 C 641.981 3.65336 4.91117 0
M  V30 6922 N 641.118 3.47383 6.10139 0
M  V30 6923 H 645.958 2.4128 1.74895 0
M  V30 6924 H 643.495 1.19788 0.853766 0
M  V30 6925 H 645.453 1.29881 3.96468 0
M  V30 6926 H 644.083 0.45549 3.1957 0
M  V30 6927 H 643.135 2.79571 2.57961 0
M  V30 6928 H 644.447 3.51355 3.5405 0
M  V30 6929 H 643.601 2.35466 5.59143 0
M  V30 6930 H 642.34 1.53219 4.63007 0
M  V30 6931 H 641.345 3.754 4.0169 0
M  V30 6932 H 642.57 4.58199 5.01229 0
M  V30 6933 H 640.516 2.58222 6.0304 0
M  V30 6934 H 640.433 4.30344 6.21563 0
M  V30 6935 H 641.701 3.41565 7.00681 0
M  V30 6936 N 645.93 -0.909495 1.28709 0
M  V30 6937 C 647.158 -1.69272 1.18973 0
M  V30 6938 C 647.573 -1.87123 -0.251048 0
M  V30 6939 O 646.93 -1.40127 -1.16922 0
M  V30 6940 C 646.981 -3.08257 1.88839 0
M  V30 6941 O 646.702 -2.91228 3.27289 0
M  V30 6942 C 648.203 -4.02642 1.85457 0
M  V30 6943 H 645.423 -0.528999 0.412797 0
M  V30 6944 H 647.967 -1.13803 1.69909 0
M  V30 6945 H 646.122 -3.6053 1.41762 0
M  V30 6946 H 646.536 -3.79223 3.6234 0
M  V30 6947 H 648.01 -4.97613 2.38925 0
M  V30 6948 H 648.487 -4.31327 0.827893 0
M  V30 6949 H 649.093 -3.56298 2.32233 0
M  V30 6950 N 647.408 -1.11026 -1.11852 0
M  V30 6951 C 648.824 -0.843294 -1.35502 0
M  V30 6952 C 649.024 0.534179 -1.9429 0
M  V30 6953 O 648.08 1.28585 -2.17307 0
M  V30 6954 C 649.393 -1.94793 -2.29077 0
M  V30 6955 C 650.941 -1.97709 -2.42652 0
M  V30 6956 C 651.416 -3.07364 -3.39546 0
M  V30 6957 N 652.907 -3.0671 -3.47107 0
M  V30 6958 C 653.642 -3.88197 -4.22008 0
M  V30 6959 N 653.138 -4.79635 -4.99922 0
M  V30 6960 N 654.931 -3.76391 -4.17476 0
M  V30 6961 H 647.082 -1.99805 -0.720538 0
M  V30 6962 H 649.345 -0.868633 -0.379711 0
M  V30 6963 H 649.051 -2.93971 -1.93065 0
M  V30 6964 H 648.925 -1.84039 -3.29256 0
M  V30 6965 H 651.312 -0.991604 -2.77941 0
M  V30 6966 H 651.393 -2.1254 -1.4234 0
M  V30 6967 H 651.037 -4.06136 -3.04985 0
M  V30 6968 H 650.967 -2.89774 -4.39703 0
M  V30 6969 H 653.458 -2.40457 -2.91528 0
M  V30 6970 H 653.771 -5.38357 -5.54429 0
M  V30 6971 H 652.116 -4.8366 -4.99097 0
M  V30 6972 H 655.307 -3.04303 -3.55693 0
M  V30 6973 H 655.48 -4.40131 -4.75593 0
M  V30 6974 N 648.886 1.2938 -0.899927 0
M  V30 6975 C 649.796 2.31462 -0.382437 0
M  V30 6976 C 650.812 1.65956 0.522929 0
M  V30 6977 O 651.988 1.97131 0.412454 0
M  V30 6978 C 649.053 3.44595 0.381472 0
M  V30 6979 C 648.114 4.25692 -0.555444 0
M  V30 6980 C 647.347 5.33422 0.172102 0
M  V30 6981 O 647.57 5.53053 1.396 0
M  V30 6982 O 646.504 5.99939 -0.485491 0
M  V30 6983 H 650.33 2.77706 -1.22934 0
M  V30 6984 H 647.915 1.33821 -0.664259 0
M  V30 6985 H 649.797 4.13474 0.813442 0
M  V30 6986 H 648.472 3.00458 1.20443 0
M  V30 6987 H 647.379 3.59453 -1.03653 0
M  V30 6988 H 648.712 4.73471 -1.34483 0
M  V30 6989 N 650.364 0.662433 1.43002 0
M  V30 6990 C 651.327 -0.0142016 2.29196 0
M  V30 6991 C 652.327 -0.741394 1.42688 0
M  V30 6992 O 653.517 -0.581257 1.64216 0
M  V30 6993 C 650.649 -1.03084 3.24941 0
M  V30 6994 H 651.842 0.7443 2.90517 0
M  V30 6995 H 649.395 0.424133 1.50435 0
M  V30 6996 H 650.13 -1.81826 2.68533 0
M  V30 6997 H 649.915 -0.512946 3.8873 0
M  V30 6998 H 651.405 -1.50308 3.89612 0
M  V30 6999 N 651.842 -1.52309 0.404946 0
M  V30 7000 C 653.091 -2.00952 -0.173529 0
M  V30 7001 C 653.404 -1.29512 -1.46581 0
M  V30 7002 O 654.61 -1.6895 -2.12528 0
M  V30 7003 C 653.066 -3.58097 -0.359801 0
M  V30 7004 C 652.674 -4.38449 0.920138 0
M  V30 7005 C 654.418 -4.14984 -0.893794 0
M  V30 7006 C 652.325 -5.87227 0.701285 0
M  V30 7007 H 651.255 -0.750871 -0.0686244 0
M  V30 7008 H 653.906 -1.75687 0.529749 0
M  V30 7009 H 652.288 -3.79675 -1.12531 0
M  V30 7010 H 653.462 -4.28633 1.69147 0
M  V30 7011 H 651.777 -3.92859 1.38024 0
M  V30 7012 H 654.374 -5.23813 -1.0735 0
M  V30 7013 H 654.717 -3.72072 -1.8673 0
M  V30 7014 H 655.25 -3.97358 -0.187453 0
M  V30 7015 H 651.989 -6.34491 1.64624 0
M  V30 7016 H 651.509 -5.99792 -0.0308288 0
M  V30 7017 H 653.188 -6.46096 0.341846 0
M  V30 7018 N 653.32 -0.135238 -1.57019 0
M  V30 7019 C 654.252 0.839675 -2.13265 0
M  V30 7020 C 655.265 1.21887 -1.07923 0
M  V30 7021 O 656.454 1.16499 -1.35241 0
M  V30 7022 C 653.554 2.13647 -2.63075 0
M  V30 7023 C 652.727 1.92646 -3.92691 0
M  V30 7024 C 651.786 3.06205 -4.27931 0
M  V30 7025 O 650.812 2.78409 -4.96465 0
M  V30 7026 N 652.014 4.33072 -3.86561 0
M  V30 7027 H 654.779 0.359026 -2.97542 0
M  V30 7028 H 652.34 0.0486979 -1.61827 0
M  V30 7029 H 654.332 2.88641 -2.8367 0
M  V30 7030 H 652.902 2.5301 -1.83588 0
M  V30 7031 H 652.122 1.01754 -3.80841 0
M  V30 7032 H 653.41 1.75939 -4.77413 0
M  V30 7033 H 652.808 4.58526 -3.31316 0
M  V30 7034 H 651.365 5.04885 -4.12231 0
M  V30 7035 N 654.798 1.5699 0.138552 0
M  V30 7036 C 655.748 1.9532 1.17619 0
M  V30 7037 C 656.732 0.825545 1.38107 0
M  V30 7038 O 657.924 1.08908 1.39528 0
M  V30 7039 C 655.053 2.34451 2.50774 0
M  V30 7040 C 654.139 3.53805 2.33844 0
M  V30 7041 N 654.53 4.70088 1.86685 0
M  V30 7042 C 652.828 3.59055 2.64567 0
M  V30 7043 C 653.529 5.52165 1.82998 0
M  V30 7044 N 652.505 4.94108 2.26624 0
M  V30 7045 H 656.307 2.82694 0.803809 0
M  V30 7046 H 653.821 1.5866 0.346519 0
M  V30 7047 H 655.818 2.60119 3.25797 0
M  V30 7048 H 654.478 1.48431 2.88788 0
M  V30 7049 H 655.489 4.93681 1.56523 0
M  V30 7050 H 652.166 2.83596 3.06398 0
M  V30 7051 H 653.556 6.55407 1.47957 0
M  V30 7052 N 656.276 -0.40816 1.52223 0
M  V30 7053 C 657.186 -1.52202 1.78526 0
M  V30 7054 C 658.202 -1.60546 0.670892 0
M  V30 7055 O 659.378 -1.77242 0.956404 0
M  V30 7056 C 656.443 -2.87928 1.93128 0
M  V30 7057 C 655.504 -2.89463 3.17033 0
M  V30 7058 C 654.737 -4.18715 3.30929 0
M  V30 7059 O 654.96 -5.12662 2.50067 0
M  V30 7060 O 653.894 -4.27125 4.24084 0
M  V30 7061 H 657.72 -1.32911 2.73072 0
M  V30 7062 H 655.305 -0.594112 1.37079 0
M  V30 7063 H 657.187 -3.68426 2.04549 0
M  V30 7064 H 655.862 -3.07285 1.01772 0
M  V30 7065 H 654.769 -2.07815 3.11069 0
M  V30 7066 H 656.102 -2.75055 4.08174 0
M  V30 7067 N 657.755 -1.42862 -0.66545 0
M  V30 7068 C 658.98 -1.47456 -1.45848 0
M  V30 7069 C 659.405 -0.0900312 -1.87884 0
M  V30 7070 O 658.763 0.913587 -1.56599 0
M  V30 7071 C 658.811 -2.41514 -2.67774 0
M  V30 7072 O 657.915 -1.89296 -3.66389 0
M  V30 7073 H 657.256 -0.499236 -0.437789 0
M  V30 7074 H 659.786 -1.8765 -0.815394 0
M  V30 7075 H 659.796 -2.58409 -3.15735 0
M  V30 7076 H 658.471 -3.42099 -2.36519 0
M  V30 7077 H 657.048 -1.82003 -3.25468 0
M  V30 7078 N 659.233 0.902656 -1.29189 0
M  V30 7079 C 660.481 1.6496 -1.16758 0
M  V30 7080 C 660.802 1.92952 0.28188 0
M  V30 7081 O 660.072 1.55351 1.19344 0
M  V30 7082 H 658.652 0.611447 -0.429118 0
M  V30 7083 H 661.314 1.0825 -1.62074 0
M  V30 7084 H 660.41 2.60728 -1.71544 0
M  V30 7085 N 660.711 1.11618 1.11262 0
M  V30 7086 C 661.96 0.860934 1.82403 0
M  V30 7087 C 662.273 -0.615303 1.8567 0
M  V30 7088 O 663.479 -0.986861 2.52929 0
M  V30 7089 C 661.935 1.49048 3.27586 0
M  V30 7090 C 661.543 3.00089 3.32642 0
M  V30 7091 C 663.287 1.31515 4.03614 0
M  V30 7092 C 661.194 3.56019 4.72234 0
M  V30 7093 H 660.124 0.318423 0.683464 0
M  V30 7094 H 662.775 1.34165 1.25188 0
M  V30 7095 H 661.157 0.937434 3.84744 0
M  V30 7096 H 662.331 3.61813 2.85356 0
M  V30 7097 H 660.646 3.16919 2.70096 0
M  V30 7098 H 663.243 1.70732 5.0671 0
M  V30 7099 H 663.586 0.257917 4.155 0
M  V30 7100 H 664.119 1.83694 3.52848 0
M  V30 7101 H 660.858 4.61463 4.65545 0
M  V30 7102 H 660.378 2.99066 5.19923 0
M  V30 7103 H 662.057 3.54568 5.41193 0
M  V30 7104 N 662.189 -1.289 0.906776 0
M  V30 7105 C 663.119 -2.29932 0.406659 0
M  V30 7106 C 664.1 -1.6189 -0.522061 0
M  V30 7107 O 665.285 -1.8935 -0.431283 0
M  V30 7108 C 662.415 -3.45425 -0.360366 0
M  V30 7109 C 661.369 -4.25316 0.478574 0
M  V30 7110 C 660.695 -5.33076 -0.416373 0
M  V30 7111 C 661.995 -4.92739 1.7322 0
M  V30 7112 H 663.689 -2.72013 1.25097 0
M  V30 7113 H 661.235 -1.30768 0.602977 0
M  V30 7114 H 663.188 -4.15186 -0.721029 0
M  V30 7115 H 661.912 -3.02206 -1.23852 0
M  V30 7116 H 660.571 -3.57273 0.821662 0
M  V30 7117 H 660.219 -4.86101 -1.29287 0
M  V30 7118 H 659.919 -5.8743 0.141309 0
M  V30 7119 H 661.443 -6.05686 -0.773072 0
M  V30 7120 H 662.857 -5.54898 1.44086 0
M  V30 7121 H 661.254 -5.57057 2.23175 0
M  V30 7122 H 662.324 -4.17625 2.46408 0
M  V30 7123 N 663.667 -0.670007 -1.42649 0
M  V30 7124 C 664.915 -0.18991 -2.01206 0
M  V30 7125 C 665.236 1.20617 -1.53221 0
M  V30 7126 O 664.506 1.80898 -0.751856 0
M  V30 7127 H 663.086 -0.0672189 -0.743969 0
M  V30 7128 H 665.748 -0.865442 -1.74631 0
M  V30 7129 H 664.844 -0.187481 -3.11536 0
M  V30 7130 N 665.145 1.52092 -0.413018 0
M  V30 7131 C 666.556 1.86617 0.0556967 0
M  V30 7132 C 666.907 1.33156 1.44097 0
M  V30 7133 O 666.032 0.672417 2.05688 0
M  V30 7134 C 666.627 3.38628 0.107844 0
M  V30 7135 C 665.186 3.72778 0.520904 0
M  V30 7136 C 664.333 2.75649 -0.302109 0
M  V30 7137 H 667.284 1.45663 -0.629919 0
M  V30 7138 H 667.305 3.69152 0.922324 0
M  V30 7139 H 666.817 3.77508 -0.900506 0
M  V30 7140 H 664.918 3.39478 1.53575 0
M  V30 7141 H 665.031 4.7838 0.262591 0
M  V30 7142 H 663.395 2.53603 0.236115 0
M  V30 7143 H 664.178 3.17369 -1.30888 0
M  V30 7144 N 666.623 0.143563 1.56945 0
M  V30 7145 C 667.553 -0.7936 2.196 0
M  V30 7146 C 668.534 -1.25955 1.14321 0
M  V30 7147 O 669.719 -1.31773 1.42651 0
M  V30 7148 C 666.849 -2.03424 2.81489 0
M  V30 7149 C 665.803 -1.70519 3.92565 0
M  V30 7150 C 665.129 -3.01817 4.41373 0
M  V30 7151 C 666.429 -0.95449 5.13504 0
M  V30 7152 H 668.123 -0.271423 2.98167 0
M  V30 7153 H 665.669 -0.12911 1.4342 0
M  V30 7154 H 667.622 -2.69463 3.23987 0
M  V30 7155 H 666.346 -2.58008 2.00248 0
M  V30 7156 H 665.005 -1.06859 3.5068 0
M  V30 7157 H 664.653 -3.54386 3.56959 0
M  V30 7158 H 664.353 -2.80565 5.16292 0
M  V30 7159 H 665.877 -3.68934 4.86539 0
M  V30 7160 H 667.291 -1.5169 5.52868 0
M  V30 7161 H 665.688 -0.842035 5.94163 0
M  V30 7162 H 666.758 0.0544033 4.84869 0
M  V30 7163 N 668.101 -1.57061 -0.130224 0
M  V30 7164 C 669.031 -2.02552 -1.16168 0
M  V30 7165 C 670.012 -0.907971 -1.4384 0
M  V30 7166 O 671.197 -1.17693 -1.54473 0
M  V30 7167 C 668.327 -2.42035 -2.49071 0
M  V30 7168 C 667.281 -3.5713 -2.35886 0
M  V30 7169 C 666.607 -3.82478 -3.7365 0
M  V30 7170 C 667.907 -4.89236 -1.8288 0
M  V30 7171 H 669.601 -2.8897 -0.783359 0
M  V30 7172 H 667.147 -1.39021 -0.375376 0
M  V30 7173 H 669.1 -2.72462 -3.21469 0
M  V30 7174 H 667.824 -1.52573 -2.88771 0
M  V30 7175 H 666.483 -3.26895 -1.65938 0
M  V30 7176 H 666.131 -2.9024 -4.10816 0
M  V30 7177 H 665.831 -4.59944 -3.65685 0
M  V30 7178 H 667.355 -4.15347 -4.47571 0
M  V30 7179 H 668.769 -5.18272 -2.45085 0
M  V30 7180 H 667.166 -5.70624 -1.85763 0
M  V30 7181 H 668.236 -4.78494 -0.785571 0
M  V30 7182 N 669.579 0.400081 -1.52437 0
M  V30 7183 C 670.809 1.16598 -1.70553 0
M  V30 7184 C 671.217 1.8451 -0.418665 0
M  V30 7185 O 670.56 1.73069 0.615855 0
M  V30 7186 C 670.622 2.26517 -2.7916 0
M  V30 7187 C 670.286 1.78666 -4.20628 0
M  V30 7188 C 671.283 1.26946 -5.04163 0
M  V30 7189 C 668.968 1.85225 -4.66902 0
M  V30 7190 C 670.962 0.824187 -6.32049 0
M  V30 7191 C 668.649 1.40309 -5.94774 0
M  V30 7192 C 669.647 0.889922 -6.77178 0
M  V30 7193 O 669.335 0.447281 -8.02655 0
M  V30 7194 H 669.067 0.356023 -0.574651 0
M  V30 7195 H 671.621 0.475598 -1.99818 0
M  V30 7196 H 669.851 2.98946 -2.45292 0
M  V30 7197 H 671.54 2.88237 -2.85787 0
M  V30 7198 H 672.306 1.21244 -4.69601 0
M  V30 7199 H 668.185 2.24111 -4.02859 0
M  V30 7200 H 671.729 0.422958 -6.96317 0
M  V30 7201 H 667.626 1.45693 -6.28843 0
M  V30 7202 H 668.394 0.569768 -8.16514 0
M  V30 7203 N 671.057 1.43213 0.657864 0
M  V30 7204 C 672.305 1.44298 1.41501 0
M  V30 7205 C 672.626 0.0666478 1.94886 0
M  V30 7206 O 671.896 -0.897345 1.74139 0
M  V30 7207 H 670.476 0.531257 0.525143 0
M  V30 7208 H 673.138 1.78777 0.776195 0
M  V30 7209 H 672.234 2.1528 2.25966 0
M  V30 7210 N 672.536 -0.895792 1.29666 0
M  V30 7211 C 673.446 -2.03329 1.17024 0
M  V30 7212 C 674.462 -1.73753 0.0925962 0
M  V30 7213 O 675.638 -1.99071 0.305431 0
M  V30 7214 C 672.703 -3.36072 0.851841 0
M  V30 7215 C 671.764 -3.7914 2.01373 0
M  V30 7216 C 670.997 -5.05549 1.71043 0
M  V30 7217 O 671.22 -5.66874 0.633213 0
M  V30 7218 O 670.154 -5.44764 2.5596 0
M  V30 7219 H 673.98 -2.16918 2.12556 0
M  V30 7220 H 671.565 -1.02007 1.09156 0
M  V30 7221 H 673.447 -4.15729 0.689006 0
M  V30 7222 H 672.122 -3.23616 -0.0736634 0
M  V30 7223 H 671.029 -3.00233 2.23183 0
M  V30 7224 H 672.362 -3.96186 2.92058 0
M  V30 7225 N 674.014 -1.12206 -1.10668 0
M  V30 7226 C 675.26 -0.877172 -1.82848 0
M  V30 7227 C 675.593 0.595571 -1.84842 0
M  V30 7228 O 674.868 1.44013 -1.30731 0
M  V30 7229 C 675.151 -1.44957 -3.29635 0
M  V30 7230 C 675.004 -2.99051 -3.35989 0
M  V30 7231 C 676.323 -1.10714 -4.25946 0
M  V30 7232 H 673.442 -0.320103 -0.663854 0
M  V30 7233 H 676.084 -1.38827 -1.2972 0
M  V30 7234 H 674.234 -1.01488 -3.7501 0
M  V30 7235 H 675.906 -3.51182 -2.99113 0
M  V30 7236 H 674.149 -3.34705 -2.75962 0
M  V30 7237 H 674.82 -3.34194 -4.39339 0
M  V30 7238 H 677.296 -1.48254 -3.88793 0
M  V30 7239 H 676.172 -1.5343 -5.2702 0
M  V30 7240 H 676.433 -0.019 -4.42096 0
M  V30 7241 N 675.492 1.28418 -0.913599 0
M  V30 7242 C 676.74 1.94596 -0.545594 0
M  V30 7243 C 677.061 1.7227 0.913668 0
M  V30 7244 O 676.331 1.06233 1.64595 0
M  V30 7245 H 674.911 0.720065 -0.198783 0
M  V30 7246 H 677.573 1.56404 -1.16292 0
M  V30 7247 H 676.669 3.03202 -0.739911 0
M  V30 7248 N 676.97 0.677563 1.42291 0
M  V30 7249 C 678.247 0.129803 1.95169 0
M  V30 7250 C 678.627 -1.35605 1.61786 0
M  V30 7251 O 677.975 -2.09361 0.915444 0
M  V30 7252 C 678.185 0.401889 3.46678 0
M  V30 7253 C 679.533 0.319889 4.23393 0
M  V30 7254 O 680.557 0.33579 3.54614 0
M  V30 7255 O 679.416 0.264459 5.4586 0
M  V30 7256 H 676.51 0.00447433 0.826988 0
M  V30 7257 H 679.056 0.752483 1.52105 0
M  V30 7258 H 677.828 1.43108 3.64192 0
M  V30 7259 H 677.451 -0.252662 3.96796 0
M  V30 7260 N 678.448 -1.51871 0.421078 0
M  V30 7261 C 679.676 -2.06356 -0.14994 0
M  V30 7262 C 680.091 -1.29006 -1.37851 0
M  V30 7263 O 679.448 -0.345139 -1.79207 0
M  V30 7264 C 679.499 -3.58185 -0.488454 0
M  V30 7265 O 679.22 -4.32611 0.691341 0
M  V30 7266 C 680.721 -4.29129 -1.11191 0
M  V30 7267 H 677.941 -0.67083 -0.0151186 0
M  V30 7268 H 680.485 -1.95638 0.595476 0
M  V30 7269 H 678.64 -3.68871 -1.18376 0
M  V30 7270 H 679.054 -5.22927 0.405906 0
M  V30 7271 H 680.528 -5.36501 -1.29889 0
M  V30 7272 H 681.005 -3.86371 -2.0884 0
M  V30 7273 H 681.611 -4.22843 -0.456458 0
M  V30 7274 N 679.926 -0.151884 -1.56866 0
M  V30 7275 C 680.856 0.781943 -2.20018 0
M  V30 7276 C 681.837 1.25347 -1.14987 0
M  V30 7277 O 683.022 1.31015 -1.43348 0
M  V30 7278 C 680.152 2.01928 -2.82564 0
M  V30 7279 C 679.106 1.68434 -3.93464 0
M  V30 7280 C 678.432 2.99472 -4.42968 0
M  V30 7281 C 679.732 0.927244 -5.14003 0
M  V30 7282 H 681.426 0.255607 -2.98307 0
M  V30 7283 H 678.972 0.121502 -1.43486 0
M  V30 7284 H 680.925 2.67741 -3.25411 0
M  V30 7285 H 679.649 2.56943 -2.01614 0
M  V30 7286 H 678.308 1.04998 -3.51242 0
M  V30 7287 H 677.956 3.52488 -3.58834 0
M  V30 7288 H 677.656 2.77823 -5.17772 0
M  V30 7289 H 679.18 3.66348 -4.88489 0
M  V30 7290 H 680.594 1.48756 -5.53665 0
M  V30 7291 H 678.991 0.810513 -5.94601 0
M  V30 7292 H 680.061 -0.0801163 -4.84834 0
M  V30 7293 N 681.404 1.57128 0.121893 0
M  V30 7294 C 682.334 2.03165 1.15092 0
M  V30 7295 C 683.315 0.915587 1.43356 0
M  V30 7296 O 684.5 1.1851 1.53847 0
M  V30 7297 C 681.63 2.43352 2.47784 0
M  V30 7298 C 680.584 3.58376 2.33989 0
M  V30 7299 C 679.91 3.84454 3.71617 0
M  V30 7300 C 681.21 4.90199 1.80283 0
M  V30 7301 H 682.904 2.89382 0.768023 0
M  V30 7302 H 680.45 1.39218 0.367998 0
M  V30 7303 H 682.403 2.74163 3.20019 0
M  V30 7304 H 681.127 1.54103 2.87958 0
M  V30 7305 H 679.786 3.2777 1.64202 0
M  V30 7306 H 679.434 2.92414 4.09271 0
M  V30 7307 H 679.134 4.61877 3.6324 0
M  V30 7308 H 680.658 4.17714 4.45362 0
M  V30 7309 H 682.072 5.19565 2.42333 0
M  V30 7310 H 680.469 5.71601 1.82735 0
M  V30 7311 H 681.539 4.78904 0.760184 0
M  V30 7312 N 682.882 -0.391992 1.52647 0
M  V30 7313 C 684.131 -1.13449 1.6677 0
M  V30 7314 C 684.444 -1.91203 0.412399 0
M  V30 7315 O 685.65 -2.68013 0.433707 0
M  V30 7316 C 684.106 -2.06577 2.9471 0
M  V30 7317 C 683.714 -1.3426 4.27409 0
M  V30 7318 C 685.458 -2.80981 3.18198 0
M  V30 7319 C 683.365 -2.26136 5.46458 0
M  V30 7320 H 682.295 -0.427211 0.621295 0
M  V30 7321 H 684.946 -0.397522 1.79142 0
M  V30 7322 H 683.328 -2.83898 2.76076 0
M  V30 7323 H 684.502 -0.621856 4.56585 0
M  V30 7324 H 682.817 -0.718279 4.10158 0
M  V30 7325 H 685.414 -3.49898 4.04321 0
M  V30 7326 H 685.757 -3.44891 2.33144 0
M  V30 7327 H 686.29 -2.10754 3.37383 0
M  V30 7328 H 683.029 -1.66846 6.33911 0
M  V30 7329 H 682.549 -2.96134 5.21598 0
M  V30 7330 H 684.228 -2.86286 5.80215 0
M  V30 7331 N 684.36 -1.4356 -0.65026 0
M  V30 7332 C 685.609 -1.44619 -1.406 0
M  V30 7333 C 685.922 -0.0752645 -1.95455 0
M  V30 7334 O 687.128 0.0366832 -2.71475 0
M  V30 7335 C 685.584 -2.54511 -2.54465 0
M  V30 7336 C 685.192 -3.97723 -2.06204 0
M  V30 7337 C 686.936 -2.64768 -3.31811 0
M  V30 7338 C 684.843 -4.99075 -3.17298 0
M  V30 7339 H 683.773 -0.537983 -0.52829 0
M  V30 7340 H 686.424 -1.69559 -0.701561 0
M  V30 7341 H 684.806 -2.22777 -3.27393 0
M  V30 7342 H 685.98 -4.38932 -1.40267 0
M  V30 7343 H 684.295 -3.91538 -1.41729 0
M  V30 7344 H 686.892 -3.37664 -4.14593 0
M  V30 7345 H 687.235 -1.69936 -3.80036 0
M  V30 7346 H 687.768 -2.95817 -2.65964 0
M  V30 7347 H 684.507 -5.95469 -2.74038 0
M  V30 7348 H 684.027 -4.62476 -3.81937 0
M  V30 7349 H 685.706 -5.21913 -3.82382 0
M  V30 7350 N 685.838 0.888903 -1.30139 0
M  V30 7351 C 687.085 1.64037 -1.18736 0
M  V30 7352 C 687.413 1.92771 0.258801 0
M  V30 7353 O 686.668 1.54427 1.20212 0
M  V30 7354 C 686.967 2.99041 -1.95728 0
M  V30 7355 C 686.633 2.89874 -3.45375 0
M  V30 7356 C 685.295 2.87082 -3.86183 0
M  V30 7357 C 687.647 2.78289 -4.40687 0
M  V30 7358 C 684.975 2.70536 -5.20603 0
M  V30 7359 C 687.327 2.63282 -5.75209 0
M  V30 7360 C 685.991 2.58861 -6.15262 0
M  V30 7361 H 685.261 0.600253 -0.434485 0
M  V30 7362 H 687.908 1.0338 -1.61198 0
M  V30 7363 H 686.213 3.63626 -1.45888 0
M  V30 7364 H 687.91 3.56139 -1.843 0
M  V30 7365 H 684.5 2.92856 -3.12943 0
M  V30 7366 H 688.684 2.79516 -4.10103 0
M  V30 7367 H 683.94 2.65526 -5.50732 0
M  V30 7368 H 688.114 2.5329 -6.48704 0
M  V30 7369 H 685.741 2.45799 -7.19366 0
M  V30 7370 N 687.317 1.12792 1.10072 0
M  V30 7371 C 688.264 0.79921 2.16521 0
M  V30 7372 C 689.234 -0.235726 1.64419 0
M  V30 7373 O 690.419 -0.109457 1.90486 0
M  V30 7374 C 687.559 0.264091 3.44088 0
M  V30 7375 C 686.672 1.35729 4.10124 0
M  V30 7376 C 685.807 0.781212 5.25424 0
M  V30 7377 C 684.846 1.85327 5.8337 0
M  V30 7378 N 683.983 1.29564 6.90042 0
M  V30 7379 H 688.823 1.71105 2.43981 0
M  V30 7380 H 686.36 0.854225 1.19756 0
M  V30 7381 H 688.318 -0.0642423 4.17151 0
M  V30 7382 H 686.948 -0.610901 3.16967 0
M  V30 7383 H 686 1.80234 3.34993 0
M  V30 7384 H 687.312 2.16782 4.4923 0
M  V30 7385 H 686.466 0.403769 6.05355 0
M  V30 7386 H 685.205 -0.0604686 4.87663 0
M  V30 7387 H 684.21 2.23986 5.02106 0
M  V30 7388 H 685.435 2.69824 6.23195 0
M  V30 7389 H 683.381 0.475844 6.54272 0
M  V30 7390 H 683.298 2.04271 7.2788 0
M  V30 7391 H 684.566 0.945545 7.73744 0
M  V30 7392 N 688.795 -1.27931 0.920396 0
M  V30 7393 C 689.743 -2.29061 0.404191 0
M  V30 7394 C 690.737 -1.61615 -0.507634 0
M  V30 7395 O 691.943 -1.75765 -0.388144 0
M  V30 7396 H 688.318 -0.743594 0.112123 0
M  V30 7397 H 690.289 -2.70021 1.27008 0
M  V30 7398 C 689.038 -3.46088 -0.334466 0
M  V30 7399 H 688.361 -3.98194 0.35797 0
M  V30 7400 H 689.801 -4.18829 -0.660196 0
M  V30 7401 C 688.26 -2.99396 -1.54479 0
M  V30 7402 O 688.79 -3.02439 -2.64374 0
M  V30 7403 N 686.996 -2.54978 -1.39408 0
M  V30 7404 H 686.543 -2.52701 -0.500009 0
M  V30 7405 H 686.501 -2.24098 -2.20516 0
M  V30 7406 N 690.273 -0.685099 -1.4193 0
M  V30 7407 C 691.205 0.0258679 -2.29185 0
M  V30 7408 C 692.218 0.755076 -1.44231 0
M  V30 7409 O 693.407 0.60752 -1.67844 0
M  V30 7410 C 690.507 1.06055 -3.21878 0
M  V30 7411 C 689.68 0.403088 -4.35539 0
M  V30 7412 C 688.739 1.33895 -5.0888 0
M  V30 7413 O 687.765 0.835326 -5.63037 0
M  V30 7414 N 688.967 2.6718 -5.15359 0
M  V30 7415 H 691.732 -0.723201 -2.90843 0
M  V30 7416 H 689.293 -0.53031 -1.52968 0
M  V30 7417 H 691.285 1.68813 -3.6781 0
M  V30 7418 H 689.855 1.71126 -2.616 0
M  V30 7419 H 689.075 -0.404185 -3.92122 0
M  V30 7420 H 690.363 -0.0545098 -5.08771 0
M  V30 7421 H 689.761 3.10626 -4.72788 0
M  V30 7422 H 688.318 3.25159 -5.64903 0
M  V30 7423 N 691.751 1.51645 -0.429126 0
M  V30 7424 C 692.714 2.26116 0.374726 0
M  V30 7425 C 693.714 1.29242 0.956714 0
M  V30 7426 O 694.904 1.53022 0.832452 0
M  V30 7427 C 692.036 3.04669 1.52937 0
M  V30 7428 H 693.229 2.9861 -0.277818 0
M  V30 7429 H 690.782 1.55236 -0.182097 0
M  V30 7430 H 691.517 2.36571 2.21821 0
M  V30 7431 H 691.302 3.75814 1.11833 0
M  V30 7432 H 692.792 3.61102 2.09751 0
M  V30 7433 N 693.229 0.160201 1.56784 0
M  V30 7434 C 694.454 -0.497373 2.01348 0
M  V30 7435 C 694.879 -1.56757 1.03966 0
M  V30 7436 O 694.237 -1.81292 0.0174455 0
M  V30 7437 C 694.285 -1.0628 3.44582 0
M  V30 7438 O 693.389 -2.17723 3.50244 0
M  V30 7439 H 692.73 -0.120295 0.653012 0
M  V30 7440 H 695.26 0.260821 2.02931 0
M  V30 7441 H 695.27 -1.38819 3.83658 0
M  V30 7442 H 693.945 -0.279166 4.14962 0
M  V30 7443 H 692.522 -1.86313 3.2302 0
M  V30 7444 N 694.707 -1.5719 -0.113559 0
M  V30 7445 C 696.123 -1.52607 -0.467253 0
M  V30 7446 C 696.323 -0.874058 -1.81556 0
M  V30 7447 O 695.379 -0.458703 -2.48299 0
M  V30 7448 C 696.692 -2.97363 -0.446736 0
M  V30 7449 C 698.24 -3.08482 -0.529903 0
M  V30 7450 C 698.715 -4.54809 -0.539721 0
M  V30 7451 N 700.206 -4.59284 -0.601005 0
M  V30 7452 C 700.941 -5.69927 -0.630138 0
M  V30 7453 N 700.437 -6.90051 -0.616589 0
M  V30 7454 N 702.23 -5.5805 -0.673558 0
M  V30 7455 H 694.381 -1.97958 0.769819 0
M  V30 7456 H 696.644 -0.90428 0.284572 0
M  V30 7457 H 696.35 -3.48458 0.47643 0
M  V30 7458 H 696.224 -3.55086 -1.27254 0
M  V30 7459 H 698.611 -2.57386 -1.44349 0
M  V30 7460 H 698.692 -2.53744 0.323695 0
M  V30 7461 H 698.336 -5.06552 0.369843 0
M  V30 7462 H 698.266 -5.07364 -1.41028 0
M  V30 7463 H 700.757 -3.72822 -0.617419 0
M  V30 7464 H 701.07 -7.70132 -0.641592 0
M  V30 7465 H 699.415 -6.92543 -0.583927 0
M  V30 7466 H 702.606 -4.63112 -0.681544 0
M  V30 7467 H 702.779 -6.44286 -0.692794 0
M  V30 7468 N 696.185 0.383891 -1.52853 0
M  V30 7469 C 697.596 0.961591 -1.60032 0
M  V30 7470 C 697.947 1.90819 -0.456333 0
M  V30 7471 O 697.072 2.12288 0.419873 0
M  V30 7472 C 697.667 1.75078 -2.90057 0
M  V30 7473 C 696.226 2.2781 -2.99632 0
M  V30 7474 C 695.373 1.08512 -2.55187 0
M  V30 7475 H 698.324 0.163269 -1.57858 0
M  V30 7476 H 698.345 2.61046 -2.7683 0
M  V30 7477 H 697.857 1.06157 -3.73299 0
M  V30 7478 H 695.958 3.00028 -2.20939 0
M  V30 7479 H 696.071 2.56947 -4.0437 0
M  V30 7480 H 694.435 1.44667 -2.09627 0
M  V30 7481 H 695.218 0.41118 -3.40829 0
M  V30 7482 N 697.663 1.43903 0.642637 0
M  V30 7483 C 698.893 1.49323 1.4278 0
M  V30 7484 C 699.301 0.113058 1.88862 0
M  V30 7485 O 698.644 -0.889089 1.60751 0
M  V30 7486 C 698.706 2.3861 2.68897 0
M  V30 7487 C 698.37 3.85976 2.44687 0
M  V30 7488 C 699.367 4.7681 2.07239 0
M  V30 7489 C 697.052 4.30567 2.58683 0
M  V30 7490 C 699.046 6.10234 1.841 0
M  V30 7491 C 696.733 5.64042 2.35159 0
M  V30 7492 C 697.731 6.53693 1.97925 0
M  V30 7493 O 697.419 7.84698 1.74654 0
M  V30 7494 H 697.151 0.509109 0.444729 0
M  V30 7495 H 699.705 1.89425 0.794195 0
M  V30 7496 H 697.935 1.93415 3.34855 0
M  V30 7497 H 699.624 2.35112 3.30873 0
M  V30 7498 H 700.39 4.43635 1.95993 0
M  V30 7499 H 696.269 3.61054 2.86637 0
M  V30 7500 H 699.813 6.80171 1.54962 0
M  V30 7501 H 695.71 5.96782 2.46011 0
M  V30 7502 H 696.478 7.96382 1.88993 0
M  V30 7503 N 699.141 -0.881989 1.30609 0
M  V30 7504 C 700.089 -2.00942 1.17155 0
M  V30 7505 C 701.083 -1.69198 0.0827154 0
M  V30 7506 O 702.289 -1.78342 0.243775 0
M  V30 7507 H 698.664 -0.658913 0.362406 0
M  V30 7508 H 700.635 -2.09423 2.12567 0
M  V30 7509 C 699.384 -3.36294 0.883273 0
M  V30 7510 H 698.707 -3.61233 1.7132 0
M  V30 7511 H 700.147 -4.15812 0.829255 0
M  V30 7512 C 698.606 -3.34348 -0.413851 0
M  V30 7513 O 699.136 -3.75216 -1.43444 0
M  V30 7514 N 697.342 -2.87459 -0.426082 0
M  V30 7515 H 696.889 -2.54397 0.40493 0
M  V30 7516 H 696.847 -2.8654 -1.29391 0
M  V30 7517 N 700.619 -1.13374 -1.09472 0
M  V30 7518 C 701.868 -0.889844 -1.8101 0
M  V30 7519 C 702.181 0.585686 -1.86625 0
M  V30 7520 O 703.387 0.946497 -2.54467 0
M  V30 7521 C 701.843 -1.54241 -3.25174 0
M  V30 7522 C 701.451 -3.05343 -3.27826 0
M  V30 7523 C 703.195 -1.37919 -4.0147 0
M  V30 7524 C 701.102 -3.63486 -4.6651 0
M  V30 7525 H 700.032 -0.329256 -0.678311 0
M  V30 7526 H 702.683 -1.36139 -1.23038 0
M  V30 7527 H 701.065 -0.998525 -3.83204 0
M  V30 7528 H 702.239 -3.66307 -2.79563 0
M  V30 7529 H 700.554 -3.21175 -2.65019 0
M  V30 7530 H 703.151 -1.78771 -5.03929 0
M  V30 7531 H 703.494 -0.323987 -4.15037 0
M  V30 7532 H 704.027 -1.89284 -3.49881 0
M  V30 7533 H 700.766 -4.68811 -4.58145 0
M  V30 7534 H 700.286 -3.073 -5.15099 0
M  V30 7535 H 701.965 -3.63134 -5.35484 0
M  V30 7536 N 702.098 1.27442 -0.927168 0
M  V30 7537 C 703.328 1.9821 -0.582775 0
M  V30 7538 C 703.736 1.69361 0.843406 0
M  V30 7539 O 703.079 0.950381 1.57205 0
M  V30 7540 C 703.141 3.52048 -0.728165 0
M  V30 7541 C 702.805 4.04518 -2.12637 0
M  V30 7542 C 703.802 4.17332 -3.10048 0
M  V30 7543 C 701.487 4.38879 -2.44317 0
M  V30 7544 C 703.481 4.6378 -4.37249 0
M  V30 7545 C 701.168 4.85018 -3.71753 0
M  V30 7546 C 702.166 4.97428 -4.68033 0
M  V30 7547 O 701.854 5.42556 -5.93202 0
M  V30 7548 H 701.586 0.639314 -0.219667 0
M  V30 7549 H 704.14 1.63272 -1.24626 0
M  V30 7550 H 702.37 3.86699 -0.00758143 0
M  V30 7551 H 704.059 4.04033 -0.388906 0
M  V30 7552 H 704.825 3.91046 -2.86894 0
M  V30 7553 H 700.704 4.28462 -1.70121 0
M  V30 7554 H 704.248 4.73382 -5.12402 0
M  V30 7555 H 700.145 5.10746 -3.94726 0
M  V30 7556 H 700.913 5.60811 -5.96182 0
M  V30 7557 N 703.576 0.692616 1.41565 0
M  V30 7558 C 704.987 0.297478 1.84315 0
M  V30 7559 C 705.338 -1.16379 1.57957 0
M  V30 7560 O 704.463 -1.89303 1.0485 0
M  V30 7561 C 705.058 0.533136 3.34579 0
M  V30 7562 C 703.617 0.191944 3.7591 0
M  V30 7563 C 702.764 0.816873 2.64995 0
M  V30 7564 H 705.715 0.893488 1.31158 0
M  V30 7565 H 705.736 -0.209105 3.79925 0
M  V30 7566 H 705.248 1.59674 3.53731 0
M  V30 7567 H 703.349 -0.867512 3.6236 0
M  V30 7568 H 703.462 0.644902 4.7474 0
M  V30 7569 H 701.826 0.246715 2.53502 0
M  V30 7570 H 702.609 1.88429 2.86966 0
M  V30 7571 N 705.054 -1.51416 0.437162 0
M  V30 7572 C 706.004 -2.24599 -0.392311 0
M  V30 7573 C 706.988 -1.2682 -0.990221 0
M  V30 7574 O 708.18 -1.51912 -0.908391 0
M  V30 7575 C 705.309 -3.09134 -1.49301 0
M  V30 7576 C 704.395 -4.14342 -0.904503 0
M  V30 7577 N 704.786 -5.0578 -0.0451511 0
M  V30 7578 C 703.084 -4.30323 -1.1721 0
M  V30 7579 C 703.785 -5.81 0.285344 0
M  V30 7580 N 702.761 -5.42591 -0.330993 0
M  V30 7581 H 706.563 -2.92655 0.270221 0
M  V30 7582 H 704.077 -1.60476 0.249226 0
M  V30 7583 H 706.074 -3.6014 -2.10011 0
M  V30 7584 H 704.734 -2.42622 -2.15788 0
M  V30 7585 H 705.745 -5.16903 0.321271 0
M  V30 7586 H 702.422 -3.75037 -1.83448 0
M  V30 7587 H 703.812 -6.64646 0.984626 0
M  V30 7588 N 706.532 -0.168513 -1.56696 0
M  V30 7589 C 707.78 0.476216 -1.96409 0
M  V30 7590 C 708.101 1.63968 -1.05544 0
M  V30 7591 O 707.371 1.95525 -0.121235 0
M  V30 7592 H 705.951 0.178921 -0.725256 0
M  V30 7593 H 708.613 -0.249042 -1.93302 0
M  V30 7594 H 707.709 0.838094 -3.00637 0
M  V30 7595 N 708.01 1.57248 0.105221 0
M  V30 7596 C 709.259 1.84756 0.809198 0
M  V30 7597 C 709.572 0.756262 1.80389 0
M  V30 7598 O 710.778 0.918158 2.55504 0
M  V30 7599 C 709.234 3.27613 1.48989 0
M  V30 7600 C 708.842 4.44788 0.535484 0
M  V30 7601 C 710.586 3.64356 2.17819 0
M  V30 7602 C 708.493 5.78676 1.22019 0
M  V30 7603 H 707.423 0.689139 0.305946 0
M  V30 7604 H 710.074 1.83395 0.0620371 0
M  V30 7605 H 708.456 3.23485 2.28415 0
M  V30 7606 H 709.63 4.60243 -0.226557 0
M  V30 7607 H 707.945 4.16374 -0.0465769 0
M  V30 7608 H 710.542 4.61663 2.69761 0
M  V30 7609 H 710.885 2.92474 2.96251 0
M  V30 7610 H 711.418 3.70328 1.45264 0
M  V30 7611 H 708.157 6.53763 0.476875 0
M  V30 7612 H 707.677 5.67083 1.9539 0
M  V30 7613 H 709.356 6.22897 1.74952 0
M  V30 7614 N 709.488 -0.375779 1.53054 0
M  V30 7615 C 710.716 -1.14036 1.72637 0
M  V30 7616 C 711.131 -1.83342 0.450687 0
M  V30 7617 O 710.488 -1.7318 -0.575749 0
M  V30 7618 C 710.539 -2.17841 2.88492 0
M  V30 7619 O 710.26 -1.51358 4.11123 0
M  V30 7620 C 711.761 -3.06924 3.19863 0
M  V30 7621 H 708.981 -0.341386 0.577665 0
M  V30 7622 H 711.525 -0.437809 1.99759 0
M  V30 7623 H 709.68 -2.8371 2.63794 0
M  V30 7624 H 710.094 -2.20439 4.75928 0
M  V30 7625 H 711.568 -3.75763 4.04359 0
M  V30 7626 H 712.045 -3.71169 2.34798 0
M  V30 7627 H 712.651 -2.46684 3.46449 0
M  V30 7628 N 710.966 -1.44241 -0.634997 0
M  V30 7629 C 712.243 -1.37296 -1.39317 0
M  V30 7630 C 712.623 -0.0297532 -2.11079 0
M  V30 7631 O 711.971 0.987524 -2.06059 0
M  V30 7632 C 712.181 -2.56853 -2.36279 0
M  V30 7633 C 713.529 -3.00747 -2.99728 0
M  V30 7634 O 714.553 -2.5703 -2.46605 0
M  V30 7635 O 713.412 -3.76533 -3.96087 0
M  V30 7636 H 710.506 -0.543503 -0.623325 0
M  V30 7637 H 713.052 -1.56324 -0.660376 0
M  V30 7638 H 711.824 -3.46228 -1.82324 0
M  V30 7639 H 711.447 -2.40019 -3.16981 0
M  V30 7640 N 712.444 0.87505 -1.31075 0
M  V30 7641 C 713.69 1.63009 -1.20647 0
M  V30 7642 C 714.023 1.9276 0.236045 0
M  V30 7643 O 713.298 1.55559 1.16754 0
M  V30 7644 C 713.581 2.96357 -2.0456 0
M  V30 7645 C 713.434 2.73516 -3.57084 0
M  V30 7646 C 714.753 3.974 -1.89107 0
M  V30 7647 H 711.872 0.591518 -0.439631 0
M  V30 7648 H 714.514 1.0119 -1.60812 0
M  V30 7649 H 712.664 3.49119 -1.70435 0
M  V30 7650 H 714.336 2.27465 -4.01319 0
M  V30 7651 H 712.579 2.0784 -3.80769 0
M  V30 7652 H 713.25 3.68377 -4.11099 0
M  V30 7653 H 715.726 3.5383 -2.18961 0
M  V30 7654 H 714.602 4.88596 -2.5013 0
M  V30 7655 H 714.863 4.33794 -0.85296 0
M  V30 7656 N 713.922 1.13953 1.08869 0
M  V30 7657 C 715.338 0.878924 1.33218 0
M  V30 7658 C 715.538 -0.482478 1.95638 0
M  V30 7659 O 714.594 -1.22778 2.2064 0
M  V30 7660 C 715.907 2.00798 2.23832 0
M  V30 7661 C 717.455 2.04073 2.37325 0
M  V30 7662 C 717.93 3.16258 3.31278 0
M  V30 7663 N 719.421 3.15805 3.38853 0
M  V30 7664 C 720.156 3.99249 4.11567 0
M  V30 7665 N 719.652 4.92721 4.87029 0
M  V30 7666 N 721.445 3.87327 4.0735 0
M  V30 7667 H 713.596 2.01645 0.66731 0
M  V30 7668 H 715.859 0.878395 0.356547 0
M  V30 7669 H 715.565 2.98986 1.85203 0
M  V30 7670 H 715.439 1.92704 3.24261 0
M  V30 7671 H 717.826 1.06495 2.75214 0
M  V30 7672 H 717.907 2.16239 1.36654 0
M  V30 7673 H 717.551 4.14079 2.9411 0
M  V30 7674 H 717.481 3.0133 4.31866 0
M  V30 7675 H 719.972 2.48102 2.8505 0
M  V30 7676 H 720.285 5.52867 5.39961 0
M  V30 7677 H 718.63 4.96723 4.86098 0
M  V30 7678 H 721.821 3.13627 3.475 0
M  V30 7679 H 721.994 4.52585 4.63757 0
M  V30 7680 N 715.4 -1.26948 0.933913 0
M  V30 7681 C 716.811 -1.76058 0.621324 0
M  V30 7682 C 717.162 -1.76175 -0.863522 0
M  V30 7683 O 716.287 -1.36921 -1.67576 0
M  V30 7684 C 716.882 -3.19713 1.12111 0
M  V30 7685 C 715.441 -3.66465 0.859074 0
M  V30 7686 C 714.588 -2.46186 1.27624 0
M  V30 7687 H 717.539 -1.13127 1.11301 0
M  V30 7688 H 717.56 -3.77566 0.471608 0
M  V30 7689 H 717.072 -3.19596 2.20182 0
M  V30 7690 H 715.173 -3.72021 -0.207566 0
M  V30 7691 H 715.286 -4.55636 1.48098 0
M  V30 7692 H 713.65 -2.45042 0.694727 0
M  V30 7693 H 714.433 -2.48774 2.36572 0
M  V30 7694 N 716.879 -0.700114 -1.41195 0
M  V30 7695 C 717.809 -0.0521132 -2.33442 0
M  V30 7696 C 718.79 0.76228 -1.52063 0
M  V30 7697 O 719.975 0.714336 -1.80585 0
M  V30 7698 C 717.105 0.881693 -3.35922 0
M  V30 7699 C 716.059 0.174062 -4.27646 0
M  V30 7700 C 715.385 1.22254 -5.20536 0
M  V30 7701 C 716.685 -0.962396 -5.13357 0
M  V30 7702 H 718.379 -0.822574 -2.87879 0
M  V30 7703 H 715.925 -0.397011 -1.38419 0
M  V30 7704 H 717.878 1.34429 -3.99383 0
M  V30 7705 H 716.602 1.68387 -2.79845 0
M  V30 7706 H 715.261 -0.268551 -3.65615 0
M  V30 7707 H 714.909 2.01736 -4.60773 0
M  V30 7708 H 714.609 0.754038 -5.82742 0
M  V30 7709 H 716.133 1.68555 -5.86874 0
M  V30 7710 H 717.547 -0.579875 -5.7036 0
M  V30 7711 H 715.944 -1.35828 -5.84526 0
M  V30 7712 H 717.014 -1.80003 -4.50252 0
M  V30 7713 N 718.357 1.51182 -0.445186 0
M  V30 7714 C 719.587 2.06269 0.116922 0
M  V30 7715 C 719.995 1.31188 1.36332 0
M  V30 7716 O 719.338 0.367067 1.79995 0
M  V30 7717 C 719.4 3.56051 0.496757 0
M  V30 7718 C 719.064 4.52441 -0.64394 0
M  V30 7719 C 720.061 4.97233 -1.5184 0
M  V30 7720 C 717.746 4.95447 -0.826905 0
M  V30 7721 C 719.74 5.83712 -2.56046 0
M  V30 7722 C 717.427 5.81714 -1.87222 0
M  V30 7723 C 718.425 6.25745 -2.73738 0
M  V30 7724 O 718.113 7.10298 -3.76474 0
M  V30 7725 H 717.845 0.675954 0.00785733 0
M  V30 7726 H 720.399 1.95648 -0.625371 0
M  V30 7727 H 718.629 3.64483 1.29187 0
M  V30 7728 H 720.318 3.93618 0.990928 0
M  V30 7729 H 721.084 4.64696 -1.38862 0
M  V30 7730 H 716.963 4.60712 -0.163052 0
M  V30 7731 H 720.507 6.18 -3.23607 0
M  V30 7732 H 716.404 6.13664 -2.00218 0
M  V30 7733 H 717.172 7.28493 -3.73149 0
M  V30 7734 N 719.835 0.176821 1.56605 0
M  V30 7735 C 721.06 -0.47599 2.01864 0
M  V30 7736 C 721.485 -1.55645 1.05623 0
M  V30 7737 O 720.843 -1.81263 0.0366729 0
M  V30 7738 C 720.891 -1.02619 3.4569 0
M  V30 7739 O 719.995 -2.13996 3.52533 0
M  V30 7740 H 719.336 -0.113363 0.654251 0
M  V30 7741 H 721.866 0.28233 2.02643 0
M  V30 7742 H 721.876 -1.34742 3.85109 0
M  V30 7743 H 720.551 -0.235138 4.15235 0
M  V30 7744 H 719.128 -1.82876 3.24978 0
M  V30 7745 N 721.313 -1.57302 -0.09688 0
M  V30 7746 C 722.729 -1.53094 -0.451041 0
M  V30 7747 C 722.929 -0.893265 -1.80618 0
M  V30 7748 O 721.985 -0.485013 -2.47798 0
M  V30 7749 C 723.298 -2.9782 -0.415172 0
M  V30 7750 C 724.846 -3.09026 -0.497155 0
M  V30 7751 C 725.321 -4.55356 -0.491452 0
M  V30 7752 N 726.812 -4.59896 -0.552258 0
M  V30 7753 C 727.547 -5.70563 -0.569654 0
M  V30 7754 N 727.043 -6.90666 -0.543365 0
M  V30 7755 N 728.836 -5.58733 -0.614331 0
M  V30 7756 H 720.987 -1.97131 0.790771 0
M  V30 7757 H 723.25 -0.901211 0.294147 0
M  V30 7758 H 722.956 -3.47933 0.513362 0
M  V30 7759 H 722.83 -3.56416 -1.23481 0
M  V30 7760 H 725.217 -2.58902 -1.41611 0
M  V30 7761 H 725.298 -2.53386 0.35059 0
M  V30 7762 H 724.942 -5.06131 0.423549 0
M  V30 7763 H 724.872 -5.08832 -1.35639 0
M  V30 7764 H 727.363 -3.73456 -0.577842 0
M  V30 7765 H 727.676 -7.70769 -0.559873 0
M  V30 7766 H 726.021 -6.93123 -0.510441 0
M  V30 7767 H 729.212 -4.63809 -0.632387 0
M  V30 7768 H 729.385 -6.44984 -0.62442 0
M  V30 7769 N 722.791 0.367657 -1.53252 0
M  V30 7770 C 724.207 0.709191 -1.42978 0
M  V30 7771 C 724.407 1.93352 -0.567193 0
M  V30 7772 O 723.463 2.52453 -0.0488349 0
M  V30 7773 C 724.776 0.924338 -2.86141 0
M  V30 7774 C 726.324 1.02448 -2.95759 0
M  V30 7775 C 726.799 1.27211 -4.39979 0
M  V30 7776 N 728.29 1.33986 -4.43398 0
M  V30 7777 C 729.025 1.54852 -5.52095 0
M  V30 7778 N 728.521 1.73049 -6.7084 0
M  V30 7779 N 730.314 1.57205 -5.39669 0
M  V30 7780 H 722.465 -0.437669 -2.07842 0
M  V30 7781 H 724.728 -0.133737 -0.938519 0
M  V30 7782 H 724.434 0.0965455 -3.51567 0
M  V30 7783 H 724.308 1.83302 -3.29667 0
M  V30 7784 H 726.695 1.84282 -2.30487 0
M  V30 7785 H 726.776 0.0932301 -2.5563 0
M  V30 7786 H 726.42 0.458792 -5.05824 0
M  V30 7787 H 726.35 2.21654 -4.77679 0
M  V30 7788 H 728.841 1.21545 -3.5782 0
M  V30 7789 H 729.154 1.88538 -7.49449 0
M  V30 7790 H 727.499 1.70231 -6.7383 0
M  V30 7791 H 730.69 1.42555 -4.45865 0
M  V30 7792 H 730.863 1.73126 -6.24445 0
M  V30 7793 N 724.269 1.44576 0.627338 0
M  V30 7794 C 725.199 1.54562 1.75022 0
M  V30 7795 C 726.18 0.398378 1.65369 0
M  V30 7796 O 727.365 0.61899 1.84071 0
M  V30 7797 C 724.495 1.49309 3.13567 0
M  V30 7798 C 723.449 2.62549 3.38012 0
M  V30 7799 C 722.775 2.42348 4.76625 0
M  V30 7800 C 724.075 4.04678 3.30202 0
M  V30 7801 H 725.769 2.4855 1.66922 0
M  V30 7802 H 723.315 1.19624 0.801636 0
M  V30 7803 H 725.268 1.54895 3.919 0
M  V30 7804 H 723.992 0.518392 3.2246 0
M  V30 7805 H 722.651 2.56358 2.62061 0
M  V30 7806 H 722.299 1.43062 4.82226 0
M  V30 7807 H 721.999 3.18273 4.93939 0
M  V30 7808 H 723.523 2.49758 5.57183 0
M  V30 7809 H 724.937 4.12217 3.98435 0
M  V30 7810 H 723.334 4.80836 3.5905 0
M  V30 7811 H 724.404 4.2798 2.27949 0
M  V30 7812 N 725.747 -0.868086 1.31537 0
M  V30 7813 C 727.158 -1.437 1.19195 0
M  V30 7814 C 727.509 -1.95169 -0.200842 0
M  V30 7815 O 726.634 -1.86432 -1.09872 0
M  V30 7816 C 727.229 -2.612 2.15778 0
M  V30 7817 C 725.788 -3.1413 2.07363 0
M  V30 7818 C 724.935 -1.86845 2.049 0
M  V30 7819 H 727.886 -0.676457 1.43561 0
M  V30 7820 H 727.907 -3.37948 1.74847 0
M  V30 7821 H 727.419 -2.23709 3.17137 0
M  V30 7822 H 725.52 -3.56238 1.09204 0
M  V30 7823 H 725.633 -3.76285 2.96557 0
M  V30 7824 H 723.997 -2.05886 1.49943 0
M  V30 7825 H 724.78 -1.51589 3.08019 0
M  V30 7826 N 727.225 -1.14528 -1.08264 0
M  V30 7827 C 728.172 -0.833556 -2.15222 0
M  V30 7828 C 729.142 0.209539 -1.64773 0
M  V30 7829 O 730.327 0.0791388 -1.90636 0
M  V30 7830 C 727.467 -0.318799 -3.43624 0
M  V30 7831 C 726.58 -1.42237 -4.07913 0
M  V30 7832 C 725.715 -0.864704 -5.24115 0
M  V30 7833 C 724.754 -1.94585 -5.80347 0
M  V30 7834 N 723.891 -1.40525 -6.87893 0
M  V30 7835 H 728.731 -1.74965 -2.41228 0
M  V30 7836 H 726.268 -0.873169 -1.18381 0
M  V30 7837 H 728.226 -0.00213088 -4.172 0
M  V30 7838 H 726.856 0.560397 -3.17898 0
M  V30 7839 H 725.908 -1.8554 -3.32083 0
M  V30 7840 H 727.22 -2.23901 -4.45724 0
M  V30 7841 H 726.374 -0.500025 -6.04636 0
M  V30 7842 H 725.113 -0.0171219 -4.87697 0
M  V30 7843 H 724.118 -2.31946 -4.98479 0
M  V30 7844 H 725.343 -2.79704 -6.18823 0
M  V30 7845 H 723.289 -0.579873 -6.53432 0
M  V30 7846 H 723.206 -2.15825 -7.24538 0
M  V30 7847 H 724.474 -1.06852 -7.72142 0
M  V30 7848 N 728.703 1.26451 -0.940633 0
M  V30 7849 C 729.951 1.93395 -0.586748 0
M  V30 7850 C 730.272 1.7417 0.876921 0
M  V30 7851 O 729.542 1.097 1.62304 0
M  V30 7852 H 728.122 0.715687 -0.214012 0
M  V30 7853 H 730.784 1.53902 -1.19584 0
M  V30 7854 H 729.88 3.01565 -0.804059 0
M  V30 7855 N 730.181 0.707592 1.40822 0
M  V30 7856 C 731.427 0.244031 2.01326 0
M  V30 7857 C 731.76 -1.15722 1.55955 0
M  V30 7858 O 731.035 -1.78347 0.776044 0
M  V30 7859 C 731.318 0.315128 3.58718 0
M  V30 7860 C 731.171 1.75419 4.14184 0
M  V30 7861 C 732.49 -0.318251 4.38948 0
M  V30 7862 H 729.609 0.0901471 0.731466 0
M  V30 7863 H 732.251 0.898584 1.67408 0
M  V30 7864 H 730.401 -0.242176 3.87744 0
M  V30 7865 H 732.073 2.36626 3.95987 0
M  V30 7866 H 730.316 2.28449 3.68773 0
M  V30 7867 H 730.987 1.75538 5.23345 0
M  V30 7868 H 733.463 0.156514 4.15806 0
M  V30 7869 H 732.339 -0.238019 5.48384 0
M  V30 7870 H 732.6 -1.40067 4.19325 0
M  V30 7871 N 731.66 -1.50943 0.453197 0
M  V30 7872 C 732.607 -2.28128 -0.350197 0
M  V30 7873 C 733.577 -1.32398 -1.00299 0
M  V30 7874 O 734.762 -1.61319 -1.01887 0
M  V30 7875 C 731.902 -3.13782 -1.43649 0
M  V30 7876 C 731.015 -4.24523 -0.800255 0
M  V30 7877 C 730.15 -4.97462 -1.86293 0
M  V30 7878 C 729.189 -6.00102 -1.20598 0
M  V30 7879 N 728.326 -6.66387 -2.21071 0
M  V30 7880 H 733.166 -2.96337 0.31434 0
M  V30 7881 H 730.703 -1.46151 0.166863 0
M  V30 7882 H 732.661 -3.6178 -2.07776 0
M  V30 7883 H 731.291 -2.47655 -2.07044 0
M  V30 7884 H 730.343 -3.80371 -0.0468651 0
M  V30 7885 H 731.655 -4.98009 -0.280777 0
M  V30 7886 H 730.809 -5.49088 -2.58044 0
M  V30 7887 H 729.548 -4.23642 -2.41617 0
M  V30 7888 H 728.553 -5.47753 -0.474 0
M  V30 7889 H 729.778 -6.75887 -0.659859 0
M  V30 7890 H 727.724 -5.9537 -2.75446 0
M  V30 7891 H 727.641 -7.3569 -1.74058 0
M  V30 7892 H 728.909 -7.22638 -2.92257 0
M  V30 7893 N 733.138 -0.185124 -1.56509 0
M  V30 7894 C 734.088 0.752315 -2.15231 0
M  V30 7895 C 735.072 1.18327 -1.0903 0
M  V30 7896 O 736.264 1.14333 -1.35119 0
M  V30 7897 C 733.393 1.97583 -2.80742 0
M  V30 7898 C 732.479 1.56623 -3.94119 0
M  V30 7899 N 732.87 0.867008 -4.98314 0
M  V30 7900 C 731.168 1.85626 -4.05535 0
M  V30 7901 C 731.869 0.663228 -5.77907 0
M  V30 7902 N 730.845 1.20891 -5.29987 0
M  V30 7903 H 734.647 0.209267 -2.93154 0
M  V30 7904 H 732.161 0.0150444 -1.62393 0
M  V30 7905 H 734.158 2.65779 -3.21197 0
M  V30 7906 H 732.818 2.52369 -2.04303 0
M  V30 7907 H 733.829 0.52355 -5.15247 0
M  V30 7908 H 730.506 2.41992 -3.40215 0
M  V30 7909 H 731.896 0.109273 -6.71811 0
M  V30 7910 N 734.616 1.57351 0.0885366 0
M  V30 7911 C 735.546 2.05561 1.10757 0
M  V30 7912 C 736.527 0.945789 1.41382 0
M  V30 7913 O 737.712 1.21747 1.51299 0
M  V30 7914 C 734.842 2.48554 2.42566 0
M  V30 7915 C 733.796 3.63259 2.26334 0
M  V30 7916 C 733.122 3.9225 3.63378 0
M  V30 7917 C 734.422 4.93913 1.69844 0
M  V30 7918 H 736.116 2.90946 0.706468 0
M  V30 7919 H 733.662 1.39968 0.338385 0
M  V30 7920 H 735.615 2.8089 3.14132 0
M  V30 7921 H 734.339 1.60176 2.84625 0
M  V30 7922 H 732.998 3.31179 1.57213 0
M  V30 7923 H 732.646 3.0103 4.02976 0
M  V30 7924 H 732.346 4.69478 3.53362 0
M  V30 7925 H 733.87 4.27067 4.36401 0
M  V30 7926 H 735.284 5.24588 2.31258 0
M  V30 7927 H 733.681 5.75349 1.70569 0
M  V30 7928 H 734.751 4.80409 0.65843 0
M  V30 7929 N 736.094 -0.359525 1.53444 0
M  V30 7930 C 737.041 -1.44073 1.8031 0
M  V30 7931 C 738.011 -1.52946 0.647811 0
M  V30 7932 O 739.196 -1.68739 0.890614 0
M  V30 7933 C 736.336 -2.80941 2.00416 0
M  V30 7934 C 735.449 -2.80986 3.28132 0
M  V30 7935 C 734.584 -4.09468 3.38393 0
M  V30 7936 C 733.623 -4.03679 4.60119 0
M  V30 7937 N 732.76 -5.23821 4.675 0
M  V30 7938 H 737.6 -1.20464 2.72566 0
M  V30 7939 H 735.137 -0.583859 1.35017 0
M  V30 7940 H 737.095 -3.60459 2.1006 0
M  V30 7941 H 735.725 -3.02936 1.11489 0
M  V30 7942 H 734.777 -1.93666 3.27411 0
M  V30 7943 H 736.089 -2.72583 4.17732 0
M  V30 7944 H 735.243 -4.97404 3.47382 0
M  V30 7945 H 733.982 -4.20632 2.4682 0
M  V30 7946 H 732.987 -3.14129 4.51224 0
M  V30 7947 H 734.212 -3.94112 5.5304 0
M  V30 7948 H 732.158 -5.35559 3.7883 0
M  V30 7949 H 732.075 -5.17611 5.51013 0
M  V30 7950 H 733.343 -6.13572 4.8078 0
M  V30 7951 N 737.572 -1.44907 -0.619662 0
M  V30 7952 C 738.849 -1.38766 -1.37852 0
M  V30 7953 C 739.229 -0.0521393 -2.11036 0
M  V30 7954 O 738.577 0.965613 -2.07095 0
M  V30 7955 C 738.787 -2.59344 -2.33541 0
M  V30 7956 C 740.135 -3.03909 -2.96521 0
M  V30 7957 O 741.159 -2.59631 -2.43865 0
M  V30 7958 O 740.018 -3.80713 -3.92071 0
M  V30 7959 H 737.112 -0.550083 -0.617525 0
M  V30 7960 H 739.658 -1.57015 -0.643759 0
M  V30 7961 H 738.43 -3.48142 -1.78642 0
M  V30 7962 H 738.053 -2.43367 -3.14417 0
M  V30 7963 N 739.05 0.861098 -1.31996 0
M  V30 7964 C 740.297 1.61481 -1.22188 0
M  V30 7965 C 740.625 1.93276 0.217853 0
M  V30 7966 O 739.88 1.56942 1.16909 0
M  V30 7967 C 740.179 2.94822 -2.02027 0
M  V30 7968 C 739.845 2.82483 -3.51446 0
M  V30 7969 C 738.507 2.78825 -3.92186 0
M  V30 7970 C 740.859 2.68878 -4.46491 0
M  V30 7971 C 738.187 2.59433 -5.26224 0
M  V30 7972 C 740.539 2.51022 -5.80664 0
M  V30 7973 C 739.203 2.45753 -6.20614 0
M  V30 7974 H 738.473 0.590902 -0.447119 0
M  V30 7975 H 741.12 0.999376 -1.63355 0
M  V30 7976 H 739.425 3.6045 -1.53569 0
M  V30 7977 H 741.122 3.52149 -1.91812 0
M  V30 7978 H 737.712 2.86152 -3.19085 0
M  V30 7979 H 741.896 2.70754 -4.1594 0
M  V30 7980 H 737.152 2.53784 -5.5624 0
M  V30 7981 H 741.326 2.39473 -6.53931 0
M  V30 7982 H 738.953 2.30485 -7.24417 0
M  V30 7983 N 740.528 1.15101 1.07655 0
M  V30 7984 C 741.939 0.933848 1.61667 0
M  V30 7985 C 742.29 -0.525569 1.8903 0
M  V30 7986 O 741.415 -1.39605 1.65346 0
M  V30 7987 C 742.01 1.68876 2.93711 0
M  V30 7988 C 740.569 1.51697 3.44478 0
M  V30 7989 C 739.716 1.70633 2.18586 0
M  V30 7990 H 742.667 1.30171 0.907816 0
M  V30 7991 H 742.688 1.15645 3.625 0
M  V30 7992 H 742.2 2.7509 2.73764 0
M  V30 7993 H 740.301 0.478635 3.69513 0
M  V30 7994 H 740.414 2.29194 4.20722 0
M  V30 7995 H 738.778 1.13259 2.28132 0
M  V30 7996 H 739.561 2.78206 2.01137 0
M  V30 7997 N 742.006 -1.2595 0.947325 0
M  V30 7998 C 743.255 -1.92759 0.593887 0
M  V30 7999 C 743.568 -1.75083 -0.872093 0
M  V30 8000 O 744.774 -2.36401 -1.33518 0
M  V30 8001 C 743.23 -3.45395 1.01144 0
M  V30 8002 C 742.838 -3.71795 2.49946 0
M  V30 8003 C 744.582 -4.18173 0.730185 0
M  V30 8004 C 742.489 -5.17901 2.85539 0
M  V30 8005 H 741.419 -0.721676 0.218403 0
M  V30 8006 H 744.07 -1.4293 1.15079 0
M  V30 8007 H 742.452 -3.94143 0.383007 0
M  V30 8008 H 743.626 -3.33728 3.17746 0
M  V30 8009 H 741.941 -3.12263 2.75465 0
M  V30 8010 H 744.538 -5.25784 0.972367 0
M  V30 8011 H 744.881 -4.14964 -0.333223 0
M  V30 8012 H 745.414 -3.75309 1.31862 0
M  V30 8013 H 742.153 -5.26216 3.90867 0
M  V30 8014 H 741.673 -5.57042 2.22406 0
M  V30 8015 H 743.352 -5.8596 2.74336 0
M  V30 8016 N 743.484 -0.715051 -1.40445 0
M  V30 8017 C 744.414 -0.0768699 -2.33373 0
M  V30 8018 C 745.395 0.746109 -1.52863 0
M  V30 8019 O 746.58 0.695142 -1.81332 0
M  V30 8020 C 743.71 0.846014 -3.36838 0
M  V30 8021 C 742.664 0.128694 -4.27806 0
M  V30 8022 C 741.99 1.16726 -5.21804 0
M  V30 8023 C 743.29 -1.01679 -5.12307 0
M  V30 8024 H 744.984 -0.853061 -2.8699 0
M  V30 8025 H 742.53 -0.41167 -1.3799 0
M  V30 8026 H 744.483 1.30185 -4.00786 0
M  V30 8027 H 743.207 1.6541 -2.81615 0
M  V30 8028 H 741.866 -0.307314 -3.6531 0
M  V30 8029 H 741.514 1.96838 -4.62887 0
M  V30 8030 H 741.214 0.692188 -5.83509 0
M  V30 8031 H 742.738 1.62321 -5.88629 0
M  V30 8032 H 744.152 -0.640337 -5.69713 0
M  V30 8033 H 742.549 -1.4202 -5.83053 0
M  V30 8034 H 743.619 -1.84769 -4.48317 0
M  V30 8035 N 744.962 1.50701 -0.461195 0
M  V30 8036 C 746.373 1.867 -0.00370227 0
M  V30 8037 C 746.724 1.37673 1.39787 0
M  V30 8038 O 745.849 0.737515 2.03445 0
M  V30 8039 C 746.444 3.388 5.75786e-05 0
M  V30 8040 C 745.003 3.74247 0.402044 0
M  V30 8041 C 744.15 2.74549 -0.389652 0
M  V30 8042 H 747.101 1.43585 -0.675942 0
M  V30 8043 H 747.122 3.719 0.804414 0
M  V30 8044 H 746.634 3.74452 -1.02015 0
M  V30 8045 H 744.735 3.44192 1.42697 0
M  V30 8046 H 744.848 4.78973 0.110265 0
M  V30 8047 H 743.212 2.54226 0.155314 0
M  V30 8048 H 743.995 3.13044 -1.40919 0
M  V30 8049 N 746.441 0.193421 1.56409 0
M  V30 8050 C 747.689 -0.444908 1.97142 0
M  V30 8051 C 748.01 -1.62268 1.08139 0
M  V30 8052 O 747.28 -1.95307 0.152326 0
M  V30 8053 H 745.86 -0.16736 0.728011 0
M  V30 8054 H 748.522 0.279763 1.92882 0
M  V30 8055 H 747.618 -0.790159 3.01932 0
M  V30 8056 N 747.919 -1.57396 -0.0801906 0
M  V30 8057 C 748.829 -2.06451 -1.11423 0
M  V30 8058 C 749.845 -0.992352 -1.42928 0
M  V30 8059 O 751.021 -1.30651 -1.53272 0
M  V30 8060 C 748.086 -2.49164 -2.41077 0
M  V30 8061 C 747.147 -3.70641 -2.16619 0
M  V30 8062 C 746.38 -4.11307 -3.40092 0
M  V30 8063 O 746.603 -3.51922 -4.48895 0
M  V30 8064 O 745.537 -5.04157 -3.288 0
M  V30 8065 H 749.363 -2.94857 -0.727519 0
M  V30 8066 H 746.948 -1.46484 -0.293743 0
M  V30 8067 H 748.83 -2.77196 -3.17396 0
M  V30 8068 H 747.505 -1.6389 -2.79145 0
M  V30 8069 H 746.412 -3.47703 -1.38033 0
M  V30 8070 H 747.745 -4.5674 -1.83437 0
M  V30 8071 N 749.397 0.351382 -1.53633 0
M  V30 8072 C 750.646 1.08988 -1.69719 0
M  V30 8073 C 750.959 1.90043 -0.462948 0
M  V30 8074 O 752.165 2.66769 -0.504613 0
M  V30 8075 C 750.621 1.98691 -3.00083 0
M  V30 8076 C 750.229 1.22881 -4.30818 0
M  V30 8077 C 751.973 2.72446 -3.25536 0
M  V30 8078 C 749.88 2.11568 -5.52262 0
M  V30 8079 H 748.81 0.410588 -0.632403 0
M  V30 8080 H 751.461 0.349886 -1.80133 0
M  V30 8081 H 749.843 2.76478 -2.83506 0
M  V30 8082 H 751.017 0.500582 -4.58073 0
M  V30 8083 H 749.332 0.60928 -4.11918 0
M  V30 8084 H 751.929 3.39055 -4.13456 0
M  V30 8085 H 752.272 3.38588 -2.42206 0
M  V30 8086 H 752.805 2.01735 -3.42852 0
M  V30 8087 H 749.544 1.4998 -6.38111 0
M  V30 8088 H 749.064 2.82201 -5.29266 0
M  V30 8089 H 750.743 2.70802 -5.87601 0
M  V30 8090 N 750.875 1.45233 0.611969 0
M  V30 8091 C 752.122 1.49021 1.37109 0
M  V30 8092 C 752.45 0.130227 1.94064 0
M  V30 8093 O 751.705 -0.870551 1.75271 0
M  V30 8094 C 752.004 2.51353 2.54079 0
M  V30 8095 C 751.67 3.96178 2.15299 0
M  V30 8096 C 750.332 4.35614 2.04436 0
M  V30 8097 C 752.684 4.87275 1.84966 0
M  V30 8098 C 750.012 5.64047 1.61456 0
M  V30 8099 C 752.364 6.16115 1.43474 0
M  V30 8100 C 751.028 6.54486 1.31167 0
M  V30 8101 H 750.298 0.545307 0.501719 0
M  V30 8102 H 752.945 1.78555 0.692122 0
M  V30 8103 H 751.25 2.15372 3.27295 0
M  V30 8104 H 752.947 2.51523 3.12309 0
M  V30 8105 H 749.537 3.6499 2.24678 0
M  V30 8106 H 753.721 4.57548 1.92258 0
M  V30 8107 H 748.977 5.92575 1.50547 0
M  V30 8108 H 753.151 6.86149 1.19048 0
M  V30 8109 H 750.778 7.53904 0.97637 0
M  V30 8110 N 752.353 -0.854086 1.3245 0
M  V30 8111 C 753.3 -1.96271 1.21434 0
M  V30 8112 C 754.27 -1.6582 0.0963851 0
M  V30 8113 O 755.455 -1.88851 0.27203 0
M  V30 8114 C 752.595 -3.31939 0.943952 0
M  V30 8115 C 751.708 -3.74885 2.14675 0
M  V30 8116 C 750.843 -4.99347 1.81179 0
M  V30 8117 C 749.882 -5.34785 2.97777 0
M  V30 8118 N 749.019 -6.50425 2.6437 0
M  V30 8119 H 753.859 -2.05025 2.16261 0
M  V30 8120 H 751.396 -1.00348 1.07558 0
M  V30 8121 H 753.354 -4.10076 0.767675 0
M  V30 8122 H 751.984 -3.22784 0.0324763 0
M  V30 8123 H 751.036 -2.92396 2.43328 0
M  V30 8124 H 752.348 -3.97068 3.01891 0
M  V30 8125 H 751.502 -5.85193 1.60107 0
M  V30 8126 H 750.241 -4.79101 0.911777 0
M  V30 8127 H 749.246 -4.47451 3.1948 0
M  V30 8128 H 750.471 -5.56988 3.88511 0
M  V30 8129 H 748.417 -6.31695 1.7691 0
M  V30 8130 H 748.334 -6.7263 3.45116 0
M  V30 8131 H 749.602 -7.39422 2.46729 0
M  V30 8132 N 753.831 -1.1567 -1.07043 0
M  V30 8133 C 755.061 -0.956083 -1.83146 0
M  V30 8134 C 755.469 0.498969 -1.82502 0
M  V30 8135 O 754.812 1.35791 -1.23719 0
M  V30 8136 C 754.874 -1.39704 -3.31245 0
M  V30 8137 C 754.538 -2.87045 -3.55604 0
M  V30 8138 C 755.535 -3.85092 -3.49285 0
M  V30 8139 C 753.22 -3.24787 -3.8317 0
M  V30 8140 C 755.214 -5.18885 -3.70185 0
M  V30 8141 C 752.901 -4.58751 -4.03721 0
M  V30 8142 C 753.899 -5.55609 -3.97224 0
M  V30 8143 O 753.587 -6.87154 -4.17223 0
M  V30 8144 H 753.319 -0.339473 -0.58458 0
M  V30 8145 H 755.873 -1.53922 -1.36005 0
M  V30 8146 H 754.103 -0.757326 -3.79212 0
M  V30 8147 H 755.792 -1.16503 -3.88821 0
M  V30 8148 H 756.558 -3.5728 -3.27988 0
M  V30 8149 H 752.437 -2.49979 -3.87339 0
M  V30 8150 H 755.981 -5.94473 -3.6503 0
M  V30 8151 H 751.878 -4.86277 -4.24505 0
M  V30 8152 H 752.646 -6.93618 -4.34553 0
M  V30 8153 N 755.309 1.25446 -0.953992 0
M  V30 8154 C 756.256 2.25912 -0.472485 0
M  V30 8155 C 757.226 1.59173 0.47469 0
M  V30 8156 O 758.411 1.86812 0.388082 0
M  V30 8157 C 755.551 3.44235 0.244218 0
M  V30 8158 C 754.664 4.25613 -0.740121 0
M  V30 8159 C 753.799 5.312 -0.000922267 0
M  V30 8160 C 752.838 6.04265 -0.976236 0
M  V30 8161 N 751.975 7.01589 -0.267952 0
M  V30 8162 H 756.815 2.66469 -1.3341 0
M  V30 8163 H 754.352 1.31005 -0.669045 0
M  V30 8164 H 756.31 4.11682 0.676314 0
M  V30 8165 H 754.94 3.04554 1.06988 0
M  V30 8166 H 753.992 3.57834 -1.2907 0
M  V30 8167 H 755.304 4.762 -1.48441 0
M  V30 8168 H 754.458 6.04719 0.48984 0
M  V30 8169 H 753.197 4.81484 0.776159 0
M  V30 8170 H 752.202 5.29561 -1.478 0
M  V30 8171 H 753.427 6.5607 -1.75354 0
M  V30 8172 H 751.373 6.54164 0.490403 0
M  V30 8173 H 751.29 7.4999 -0.951344 0
M  V30 8174 H 752.558 7.7924 0.201294 0
M  V30 8175 N 756.787 0.722489 1.40064 0
M  V30 8176 C 758.033 0.27422 2.01543 0
M  V30 8177 C 758.388 -1.12224 1.5628 0
M  V30 8178 O 757.681 -1.75179 0.776063 0
M  V30 8179 C 757.875 0.300682 3.56133 0
M  V30 8180 C 757.704 1.69818 4.16404 0
M  V30 8181 C 756.474 2.30747 4.49537 0
M  V30 8182 C 758.672 2.64962 4.40794 0
M  V30 8183 N 756.654 3.62781 4.9524 0
M  V30 8184 C 758.025 3.81712 4.88565 0
M  V30 8185 C 760.08 2.62885 4.22842 0
M  V30 8186 C 758.783 4.96703 5.20268 0
M  V30 8187 C 760.809 3.77009 4.55652 0
M  V30 8188 C 760.171 4.92492 5.03618 0
M  V30 8189 H 756.27 0.146328 0.768188 0
M  V30 8190 H 758.854 0.94577 1.70186 0
M  V30 8191 H 757.025 -0.340461 3.86905 0
M  V30 8192 H 758.757 -0.164951 4.04364 0
M  V30 8193 H 755.512 1.82783 4.36907 0
M  V30 8194 H 755.936 4.30533 5.22465 0
M  V30 8195 H 760.578 1.74803 3.84972 0
M  V30 8196 H 758.296 5.85425 5.57049 0
M  V30 8197 H 761.882 3.76685 4.43396 0
M  V30 8198 H 760.762 5.79336 5.28525 0
M  V30 8199 N 758.265 -1.50454 0.469181 0
M  V30 8200 C 759.493 -2.06729 -0.0842134 0
M  V30 8201 C 759.908 -1.33326 -1.33677 0
M  V30 8202 O 759.265 -0.401977 -1.78018 0
M  V30 8203 C 759.316 -3.59557 -0.374253 0
M  V30 8204 O 759.037 -4.30192 0.828622 0
M  V30 8205 C 760.538 -4.32449 -0.974824 0
M  V30 8206 H 757.758 -0.670971 0.006231 0
M  V30 8207 H 760.302 -1.93645 0.657415 0
M  V30 8208 H 758.457 -3.7245 -1.06581 0
M  V30 8209 H 758.871 -5.21371 0.572066 0
M  V30 8210 H 760.345 -5.40361 -1.12755 0
M  V30 8211 H 760.822 -3.92819 -1.96442 0
M  V30 8212 H 761.428 -4.24082 -0.321703 0
M  V30 8213 N 759.743 -0.201713 -1.56304 0
M  V30 8214 C 760.989 0.435952 -1.98059 0
M  V30 8215 C 761.322 1.60811 -1.08873 0
M  V30 8216 O 760.597 1.9398 -0.142128 0
M  V30 8217 C 760.88 0.889706 -3.48936 0
M  V30 8218 C 760.733 -0.284725 -4.48898 0
M  V30 8219 C 762.052 1.7529 -4.03685 0
M  V30 8220 H 759.171 0.15699 -0.720085 0
M  V30 8221 H 761.813 -0.293965 -1.87712 0
M  V30 8222 H 759.963 1.51166 -3.57884 0
M  V30 8223 H 761.635 -0.922531 -4.51981 0
M  V30 8224 H 759.878 -0.935427 -4.23594 0
M  V30 8225 H 760.549 0.0753865 -5.51949 0
M  V30 8226 H 763.025 1.2283 -3.97558 0
M  V30 8227 H 761.901 2.03933 -5.0961 0
M  V30 8228 H 762.162 2.70939 -3.49348 0
M  V30 8229 N 761.222 1.57436 0.0718424 0
M  V30 8230 C 762.45 1.91474 0.783932 0
M  V30 8231 C 762.865 0.797669 1.71122 0
M  V30 8232 O 762.222 -0.228989 1.81058 0
M  V30 8233 C 762.273 3.25259 1.57761 0
M  V30 8234 O 761.994 4.3267 0.687596 0
M  V30 8235 C 763.495 3.7331 2.3907 0
M  V30 8236 H 760.715 0.632901 0.222885 0
M  V30 8237 H 763.259 2.04457 0.0421262 0
M  V30 8238 H 761.414 3.13804 2.27169 0
M  V30 8239 H 761.828 5.09641 1.23962 0
M  V30 8240 H 763.302 4.69551 2.90216 0
M  V30 8241 H 763.779 3.02318 3.18591 0
M  V30 8242 H 764.385 3.8771 1.74818 0
M  V30 8243 N 762.7 -0.34323 1.53817 0
M  V30 8244 C 763.946 -1.08504 1.71332 0
M  V30 8245 C 764.279 -1.88294 0.475285 0
M  V30 8246 O 763.554 -1.87205 -0.527688 0
M  V30 8247 C 763.837 -2.02597 2.97702 0
M  V30 8248 C 763.69 -1.26268 4.31713 0
M  V30 8249 C 765.009 -3.0241 3.19744 0
M  V30 8250 H 762.128 -0.393072 0.623429 0
M  V30 8251 H 764.77 -0.363579 1.86489 0
M  V30 8252 H 762.92 -2.64118 2.8491 0
M  V30 8253 H 764.592 -0.673594 4.56356 0
M  V30 8254 H 762.835 -0.564696 4.30109 0
M  V30 8255 H 763.506 -1.95253 5.16314 0
M  V30 8256 H 765.982 -2.51004 3.31868 0
M  V30 8257 H 764.858 -3.65449 4.09558 0
M  V30 8258 H 765.119 -3.73806 2.36054 0
M  V30 8259 N 764.178 -1.45556 -0.604258 0
M  V30 8260 C 765.088 -1.57025 -1.74299 0
M  V30 8261 C 766.104 -0.45456 -1.67958 0
M  V30 8262 O 767.28 -0.715711 -1.88254 0
M  V30 8263 C 764.345 -1.53702 -3.10768 0
M  V30 8264 C 763.406 -2.76335 -3.28538 0
M  V30 8265 C 762.639 -2.73161 -4.58496 0
M  V30 8266 O 762.862 -1.80678 -5.41028 0
M  V30 8267 O 761.796 -3.64409 -4.79051 0
M  V30 8268 H 765.622 -2.53284 -1.67573 0
M  V30 8269 H 763.207 -1.28104 -0.768745 0
M  V30 8270 H 765.089 -1.54468 -3.92068 0
M  V30 8271 H 763.764 -0.605957 -3.17978 0
M  V30 8272 H 762.671 -2.8113 -2.46813 0
M  V30 8273 H 764.004 -3.68578 -3.26207 0
M  V30 8274 N 765.656 0.84705 -1.32902 0
M  V30 8275 C 766.933 1.58583 -1.14503 0
M  V30 8276 C 767.313 2.09075 0.291724 0
M  V30 8277 O 766.661 1.88636 1.28952 0
M  V30 8278 C 766.871 2.72605 -2.17916 0
M  V30 8279 C 768.219 3.41993 -2.51646 0
M  V30 8280 O 769.243 2.82838 -2.1652 0
M  V30 8281 O 768.102 4.48761 -3.1189 0
M  V30 8282 H 765.196 0.698756 -0.442345 0
M  V30 8283 H 767.742 0.890516 -1.44457 0
M  V30 8284 H 766.514 2.32876 -3.14459 0
M  V30 8285 H 766.137 3.49807 -1.89 0
M  V30 8286 N 767.134 1.16236 1.06428 0
M  V30 8287 C 768.382 0.941171 1.78847 0
M  V30 8288 C 768.703 -0.53248 1.87589 0
M  V30 8289 O 767.973 -1.38686 1.38358 0
M  V30 8290 H 766.553 0.345228 0.66244 0
M  V30 8291 H 769.215 1.46479 1.28569 0
M  V30 8292 H 768.311 1.35871 2.80972 0
M  V30 8293 N 768.612 -1.24939 0.960631 0
M  V30 8294 C 770.023 -1.74701 0.658529 0
M  V30 8295 C 770.374 -1.77967 -0.825959 0
M  V30 8296 O 769.499 -1.40444 -1.64634 0
M  V30 8297 C 770.094 -3.17263 1.18867 0
M  V30 8298 C 768.653 -3.64561 0.936614 0
M  V30 8299 C 767.8 -2.43423 1.32817 0
M  V30 8300 H 770.751 -1.10741 1.13676 0
M  V30 8301 H 770.772 -3.76481 0.551589 0
M  V30 8302 H 770.284 -3.14854 2.26912 0
M  V30 8303 H 768.385 -3.72378 -0.128608 0
M  V30 8304 H 768.498 -4.52392 1.57729 0
M  V30 8305 H 766.862 -2.43513 0.746548 0
M  V30 8306 H 767.645 -2.437 2.41796 0
M  V30 8307 N 770.09 -0.729906 -1.39679 0
M  V30 8308 C 771.318 -0.285709 -2.04918 0
M  V30 8309 C 771.733 1.07765 -1.55023 0
M  V30 8310 O 771.09 1.67999 -0.712923 0
M  V30 8311 C 771.141 -0.272793 -3.60469 0
M  V30 8312 O 770.862 -1.58233 -4.08527 0
M  V30 8313 C 772.363 0.188199 -4.429 0
M  V30 8314 H 769.583 -0.125758 -0.65911 0
M  V30 8315 H 772.127 -0.992129 -1.78821 0
M  V30 8316 H 770.282 0.384699 -3.85485 0
M  V30 8317 H 770.696 -1.49245 -5.02818 0
M  V30 8318 H 772.17 0.14608 -5.51807 0
M  V30 8319 H 772.647 1.2326 -4.21549 0
M  V30 8320 H 773.253 -0.439541 -4.23023 0
M  V30 8321 N 771.568 1.50203 -0.477153 0
M  V30 8322 C 772.515 2.28656 0.31386 0
M  V30 8323 C 773.485 1.33977 0.981802 0
M  V30 8324 O 774.67 1.62919 0.993072 0
M  V30 8325 C 771.81 3.16027 1.38639 0
M  V30 8326 C 770.923 4.25743 0.732615 0
M  V30 8327 C 770.058 5.00363 1.78355 0
M  V30 8328 C 769.097 6.01945 1.11035 0
M  V30 8329 N 768.234 6.6982 2.10441 0
M  V30 8330 H 773.074 2.958 -0.361445 0
M  V30 8331 H 770.611 1.45867 -0.190093 0
M  V30 8332 H 772.569 3.6504 2.01994 0
M  V30 8333 H 771.199 2.50917 2.03077 0
M  V30 8334 H 770.251 3.80398 -0.0136546 0
M  V30 8335 H 771.563 4.98393 0.201513 0
M  V30 8336 H 770.717 5.53124 2.49276 0
M  V30 8337 H 769.456 4.27432 2.34847 0
M  V30 8338 H 768.461 5.48438 0.386797 0
M  V30 8339 H 769.686 6.76851 0.552248 0
M  V30 8340 H 767.632 5.99677 2.65939 0
M  V30 8341 H 767.549 7.38366 1.62332 0
M  V30 8342 H 768.817 7.27196 2.80724 0
M  V30 8343 N 773.046 0.209999 1.56195 0
M  V30 8344 C 774.271 -0.433064 2.02828 0
M  V30 8345 C 774.696 -1.5337 1.08901 0
M  V30 8346 O 774.054 -1.81144 0.0751132 0
M  V30 8347 C 774.102 -0.952635 3.47789 0
M  V30 8348 O 773.206 -2.0647 3.56993 0
M  V30 8349 H 772.547 -0.0994594 0.656509 0
M  V30 8350 H 775.077 0.32525 2.01998 0
M  V30 8351 H 775.087 -1.26542 3.8788 0
M  V30 8352 H 773.762 -0.147007 4.1564 0
M  V30 8353 H 772.339 -1.75942 3.28784 0
M  V30 8354 N 774.524 -1.57472 -0.0634922 0
M  V30 8355 C 775.801 -1.78736 -0.794538 0
M  V30 8356 C 776.181 -0.799645 -1.95369 0
M  V30 8357 O 775.529 0.165521 -2.279 0
M  V30 8358 C 775.739 -3.25471 -1.25975 0
M  V30 8359 C 777.087 -3.89528 -1.68976 0
M  V30 8360 O 778.111 -3.29412 -1.35521 0
M  V30 8361 O 776.97 -4.95305 -2.30944 0
M  V30 8362 H 774.064 -0.733813 -0.381376 0
M  V30 8363 H 776.61 -1.69646 -0.0429258 0
M  V30 8364 H 775.382 -3.88922 -0.430721 0
M  V30 8365 H 775.005 -3.39317 -2.07243 0
M  V30 8366 N 776.003 0.335068 -1.53997 0
M  V30 8367 C 777.414 0.910191 -1.6301 0
M  V30 8368 C 777.765 1.89271 -0.516809 0
M  V30 8369 O 776.89 2.13516 0.352123 0
M  V30 8370 C 777.485 1.65761 -2.9548 0
M  V30 8371 C 776.044 2.18163 -3.06728 0
M  V30 8372 C 775.191 1.00338 -2.5851 0
M  V30 8373 H 778.142 0.112965 -1.58297 0
M  V30 8374 H 778.163 2.52107 -2.84995 0
M  V30 8375 H 777.675 0.94227 -3.76488 0
M  V30 8376 H 775.776 2.92847 -2.30372 0
M  V30 8377 H 775.889 2.43952 -4.1234 0
M  V30 8378 H 774.253 1.37925 -2.14124 0
M  V30 8379 H 775.036 0.30254 -3.41964 0
M  V30 8380 N 777.481 1.45874 0.596531 0
M  V30 8381 C 778.897 1.30524 0.918459 0
M  V30 8382 C 779.097 0.266429 1.99731 0
M  V30 8383 O 778.153 -0.335809 2.50257 0
M  V30 8384 C 779.466 2.68747 1.3489 0
M  V30 8385 C 781.014 2.7673 1.46251 0
M  V30 8386 C 781.489 4.15504 1.92667 0
M  V30 8387 N 782.98 4.17853 1.99883 0
M  V30 8388 C 783.715 5.22109 2.37044 0
M  V30 8389 N 783.211 6.36704 2.73094 0
M  V30 8390 N 785.004 5.09471 2.37479 0
M  V30 8391 H 777.155 2.12081 -0.116368 0
M  V30 8392 H 779.418 0.947941 0.0106033 0
M  V30 8393 H 779.124 3.46006 0.630288 0
M  V30 8394 H 778.998 2.97942 2.31323 0
M  V30 8395 H 781.385 1.99768 2.17202 0
M  V30 8396 H 781.466 2.51236 0.481054 0
M  V30 8397 H 781.11 4.92956 1.223 0
M  V30 8398 H 781.04 4.38396 2.91747 0
M  V30 8399 H 783.531 3.35163 1.74568 0
M  V30 8400 H 783.844 7.12041 3.00362 0
M  V30 8401 H 782.189 6.40087 2.70764 0
M  V30 8402 H 785.38 4.18987 2.08728 0
M  V30 8403 H 785.553 5.90837 2.66112 0
M  V30 8404 N 778.959 -0.83999 1.33349 0
M  V30 8405 C 780.199 -1.60888 1.26073 0
M  V30 8406 C 780.563 -1.91234 -0.17129 0
M  V30 8407 O 781.764 -2.66269 -0.36799 0
M  V30 8408 C 780.035 -2.88438 2.11042 0
M  V30 8409 S 781.594 -3.79116 2.20944 0
M  V30 8410 H 778.412 -0.55166 0.448545 0
M  V30 8411 H 781.014 -0.99359 1.68369 0
M  V30 8412 H 779.718 -2.64113 3.14121 0
M  V30 8413 H 779.249 -3.54974 1.69579 0
M  V30 8414 H 781.264 -4.76921 1.36969 0
M  V30 8415 N 780.437 -1.16799 -1.0581 0
M  V30 8416 C 781.367 -0.902241 -2.15364 0
M  V30 8417 C 782.348 0.153351 -1.69407 0
M  V30 8418 O 783.533 0.00442032 -1.94199 0
M  V30 8419 C 780.663 -0.407911 -3.44896 0
M  V30 8420 C 779.617 -1.40197 -4.04387 0
M  V30 8421 C 778.943 -0.765848 -5.29187 0
M  V30 8422 C 780.243 -2.77316 -4.42598 0
M  V30 8423 H 781.937 -1.81841 -2.37853 0
M  V30 8424 H 779.483 -0.875731 -1.14311 0
M  V30 8425 H 781.436 -0.20945 -4.20879 0
M  V30 8426 H 780.16 0.54378 -3.22041 0
M  V30 8427 H 778.819 -1.58707 -3.30466 0
M  V30 8428 H 778.467 0.192482 -5.02632 0
M  V30 8429 H 778.167 -1.42939 -5.69949 0
M  V30 8430 H 779.691 -0.577519 -6.07863 0
M  V30 8431 H 781.105 -2.62561 -5.09642 0
M  V30 8432 H 779.502 -3.4019 -4.94359 0
M  V30 8433 H 780.572 -3.32199 -3.53231 0
M  V30 8434 N 781.915 1.24427 -0.967243 0
M  V30 8435 C 783.143 1.96541 -0.646477 0
M  V30 8436 C 783.558 1.71753 0.783996 0
M  V30 8437 O 782.915 1.00102 1.52597 0
M  V30 8438 C 782.966 3.4983 -0.911098 0
M  V30 8439 O 782.687 3.7377 -2.28534 0
M  V30 8440 C 784.188 4.3916 -0.604458 0
M  V30 8441 H 781.408 0.626129 -0.241255 0
M  V30 8442 H 783.952 1.58268 -1.29505 0
M  V30 8443 H 782.107 3.86168 -0.308741 0
M  V30 8444 H 782.521 4.68154 -2.365 0
M  V30 8445 H 783.995 5.4557 -0.840069 0
M  V30 8446 H 784.472 4.36771 0.461273 0
M  V30 8447 H 785.078 4.08409 -1.1867 0
M  V30 8448 N 783.393 0.737304 1.3929 0
M  V30 8449 C 784.809 0.413132 1.5416 0
M  V30 8450 C 785.009 -1.07574 1.70382 0
M  V30 8451 O 784.065 -1.86185 1.70562 0
M  V30 8452 C 785.378 1.19817 2.75798 0
M  V30 8453 C 786.926 1.18662 2.89635 0
M  V30 8454 C 787.401 1.95427 4.14213 0
M  V30 8455 N 788.892 1.92605 4.21257 0
M  V30 8456 C 789.627 2.48808 5.16606 0
M  V30 8457 N 789.123 3.13659 6.1773 0
M  V30 8458 N 790.916 2.38829 5.08839 0
M  V30 8459 H 783.067 1.70243 1.27008 0
M  V30 8460 H 785.33 0.720802 0.61575 0
M  V30 8461 H 785.036 2.25179 2.70161 0
M  V30 8462 H 784.91 0.804144 3.68529 0
M  V30 8463 H 787.297 0.141112 2.94762 0
M  V30 8464 H 787.378 1.62003 1.97961 0
M  V30 8465 H 787.022 2.9998 4.09847 0
M  V30 8466 H 786.952 1.4949 5.04936 0
M  V30 8467 H 789.443 1.45362 3.48824 0
M  V30 8468 H 789.756 3.54006 6.8695 0
M  V30 8469 H 788.101 3.17749 6.1811 0
M  V30 8470 H 791.292 1.87806 4.28773 0
M  V30 8471 H 791.465 2.82929 5.82971 0
M  V30 8472 N 784.871 -1.49948 0.485112 0
M  V30 8473 C 786.101 -2.06506 -0.0621921 0
M  V30 8474 C 786.509 -1.34756 -1.32806 0
M  V30 8475 O 785.852 -0.41466 -1.78959 0
M  V30 8476 C 785.914 -3.57243 -0.402182 0
M  V30 8477 C 785.578 -4.50574 0.763671 0
M  V30 8478 C 786.575 -4.93032 1.6497 0
M  V30 8479 C 784.26 -4.9308 0.957973 0
M  V30 8480 C 786.254 -5.76718 2.71432 0
M  V30 8481 C 783.941 -5.76546 2.0258 0
M  V30 8482 C 784.939 -6.18267 2.90232 0
M  V30 8483 O 784.627 -7.00066 3.95174 0
M  V30 8484 H 784.359 -0.675925 0.0100672 0
M  V30 8485 H 786.913 -1.93922 0.677023 0
M  V30 8486 H 785.143 -3.6778 -1.19478 0
M  V30 8487 H 786.832 -3.96107 -0.886219 0
M  V30 8488 H 787.598 -4.60851 1.51134 0
M  V30 8489 H 783.477 -4.60117 0.285144 0
M  V30 8490 H 787.021 -6.09203 3.39878 0
M  V30 8491 H 782.918 -6.0814 2.16417 0
M  V30 8492 H 783.686 -7.18343 3.92333 0
M  V30 8493 N 786.349 -0.21828 -1.56081 0
M  V30 8494 C 787.579 0.41865 -2.02314 0
M  V30 8495 C 787.987 1.54124 -1.09739 0
M  V30 8496 O 787.33 1.83435 -0.0986829 0
M  V30 8497 C 787.392 1.01439 -3.44892 0
M  V30 8498 C 787.056 0.0276523 -4.56992 0
M  V30 8499 C 788.053 -0.771526 -5.14143 0
M  V30 8500 C 785.738 -0.0901537 -5.02219 0
M  V30 8501 C 787.732 -1.67525 -6.14991 0
M  V30 8502 C 785.419 -0.997411 -6.02905 0
M  V30 8503 C 786.417 -1.78851 -6.59167 0
M  V30 8504 O 786.105 -2.68052 -7.57894 0
M  V30 8505 H 785.837 0.107066 -0.667468 0
M  V30 8506 H 788.391 -0.331191 -2.02712 0
M  V30 8507 H 786.621 1.81326 -3.41552 0
M  V30 8508 H 788.31 1.55838 -3.74792 0
M  V30 8509 H 789.076 -0.690945 -4.80053 0
M  V30 8510 H 784.955 0.515474 -4.58109 0
M  V30 8511 H 788.499 -2.29316 -6.58832 0
M  V30 8512 H 784.396 -1.07902 -6.36418 0
M  V30 8513 H 785.164 -2.6209 -7.75404 0
M  V30 8514 N 787.827 1.57504 0.0551401 0
M  V30 8515 C 789.052 1.92682 0.767352 0
M  V30 8516 C 789.477 0.81614 1.69472 0
M  V30 8517 O 788.835 -0.229989 1.79835 0
M  V30 8518 C 788.883 3.26866 1.52286 0
M  V30 8519 O 787.987 3.17274 2.63459 0
M  V30 8520 H 787.328 0.630502 0.208238 0
M  V30 8521 H 789.858 2.04592 0.0184026 0
M  V30 8522 H 789.868 3.61138 1.8985 0
M  V30 8523 H 788.543 4.07276 0.842541 0
M  V30 8524 H 787.12 2.94589 2.2863 0
M  V30 8525 N 789.305 -0.326896 1.54172 0
M  V30 8526 C 790.53 -1.08924 1.76494 0
M  V30 8527 C 790.955 -1.81039 0.510523 0
M  V30 8528 O 790.313 -1.73141 -0.537756 0
M  V30 8529 C 790.361 -2.06558 2.95578 0
M  V30 8530 O 789.465 -3.14394 2.6689 0
M  V30 8531 H 788.806 -0.314216 0.584948 0
M  V30 8532 H 791.336 -0.372207 2.01186 0
M  V30 8533 H 791.346 -2.49487 3.22832 0
M  V30 8534 H 790.021 -1.53469 3.86549 0
M  V30 8535 H 788.598 -2.76164 2.50576 0
M  V30 8536 N 790.784 -1.46188 -0.588786 0
M  V30 8537 C 792.031 -1.51184 -1.34721 0
M  V30 8538 C 792.359 -0.161084 -1.93832 0
M  V30 8539 O 791.614 0.842557 -1.76634 0
M  V30 8540 C 791.913 -2.55364 -2.50048 0
M  V30 8541 C 791.579 -3.99553 -2.08969 0
M  V30 8542 C 790.241 -4.38811 -1.9748 0
M  V30 8543 C 792.593 -4.90156 -1.77191 0
M  V30 8544 C 789.921 -5.66544 -1.52463 0
M  V30 8545 C 792.273 -6.1832 -1.33654 0
M  V30 8546 C 790.937 -6.5649 -1.20738 0
M  V30 8547 H 790.207 -0.55322 -0.49298 0
M  V30 8548 H 792.854 -1.79634 -0.663627 0
M  V30 8549 H 791.159 -2.20552 -3.23827 0
M  V30 8550 H 792.856 -2.5646 -3.08268 0
M  V30 8551 H 789.446 -3.68518 -2.18843 0
M  V30 8552 H 793.63 -4.60549 -1.84955 0
M  V30 8553 H 788.886 -5.94895 -1.411 0
M  V30 8554 H 793.06 -6.87956 -1.08117 0
M  V30 8555 H 790.687 -7.55362 -0.856307 0
M  V30 8556 N 792.262 0.832906 -1.33792 0
M  V30 8557 C 793.508 1.59089 -1.25772 0
M  V30 8558 C 793.841 1.93414 0.174601 0
M  V30 8559 O 793.116 1.59195 1.11746 0
M  V30 8560 C 793.399 2.89699 -2.13885 0
M  V30 8561 C 793.252 2.62017 -3.65605 0
M  V30 8562 C 794.571 3.91182 -2.01654 0
M  V30 8563 H 791.69 0.577232 -0.458227 0
M  V30 8564 H 794.332 0.960227 -1.6395 0
M  V30 8565 H 792.482 3.4352 -1.81456 0
M  V30 8566 H 794.154 2.14582 -4.08353 0
M  V30 8567 H 792.397 1.95621 -3.87189 0
M  V30 8568 H 793.068 3.55112 -4.2261 0
M  V30 8569 H 795.544 3.46684 -2.30107 0
M  V30 8570 H 794.42 4.80391 -2.65548 0
M  V30 8571 H 794.681 4.30861 -0.990536 0
M  V30 8572 N 793.74 1.17359 1.05189 0
M  V30 8573 C 794.688 0.886527 2.15043 0
M  V30 8574 C 795.682 -0.148834 1.68745 0
M  V30 8575 O 796.888 -0.00175123 1.8 0
M  V30 8576 H 793.263 0.269147 0.702185 0
M  V30 8577 H 795.234 1.82016 2.36459 0
M  V30 8578 C 793.983 0.416333 3.45198 0
M  V30 8579 H 793.306 1.20449 3.81225 0
M  V30 8580 H 794.746 0.254362 4.23236 0
M  V30 8581 C 793.205 -0.866016 3.25579 0
M  V30 8582 O 793.735 -1.9328 3.52144 0
M  V30 8583 N 791.941 -0.814179 2.78961 0
M  V30 8584 H 791.488 0.0541618 2.57543 0
M  V30 8585 H 791.446 -1.67264 2.66214 0
M  V30 8586 N 795.218 -1.23913 0.973828 0
M  V30 8587 C 796.151 -2.23647 0.45355 0
M  V30 8588 C 797.129 -1.55485 -0.475724 0
M  V30 8589 O 798.313 -1.84083 -0.405689 0
M  V30 8590 C 795.44 -3.36942 -0.344594 0
M  V30 8591 C 794.486 -4.23221 0.527859 0
M  V30 8592 S 795.319 -4.97877 1.97177 0
M  V30 8593 C 796.475 -6.14627 1.18258 0
M  V30 8594 H 796.708 -2.67433 1.29873 0
M  V30 8595 H 794.241 -1.33289 0.779322 0
M  V30 8596 H 796.199 -4.02647 -0.799103 0
M  V30 8597 H 794.86 -2.91703 -1.16482 0
M  V30 8598 H 794.053 -5.03928 -0.0852555 0
M  V30 8599 H 793.655 -3.6255 0.918344 0
M  V30 8600 H 795.947 -6.76066 0.440629 0
M  V30 8601 H 796.89 -6.80311 1.96425 0
M  V30 8602 H 797.298 -5.6009 0.704256 0
M  V30 8603 N 796.696 -0.74468 -1.38897 0
M  V30 8604 C 797.606 -0.112892 -2.34328 0
M  V30 8605 C 798.622 0.71087 -1.58816 0
M  V30 8606 O 799.798 0.637092 -1.91058 0
M  V30 8607 C 796.863 0.776417 -3.37894 0
M  V30 8608 C 795.924 -0.0606999 -4.29257 0
M  V30 8609 C 795.157 0.786258 -5.27877 0
M  V30 8610 O 795.38 2.02463 -5.33259 0
M  V30 8611 O 794.314 0.209781 -6.01534 0
M  V30 8612 H 798.14 -0.900801 -2.90033 0
M  V30 8613 H 795.725 -0.505462 -1.4059 0
M  V30 8614 H 797.607 1.28496 -4.01331 0
M  V30 8615 H 796.282 1.54297 -2.84559 0
M  V30 8616 H 795.189 -0.614984 -3.69011 0
M  V30 8617 H 796.522 -0.789702 -4.85824 0
M  V30 8618 N 798.174 1.49689 -0.493057 0
M  V30 8619 C 799.59 1.58907 -0.148526 0
M  V30 8620 C 799.79 1.4991 1.34645 0
M  V30 8621 O 798.846 1.36893 2.12171 0
M  V30 8622 C 800.159 2.91996 -0.718265 0
M  V30 8623 C 801.707 3.05443 -0.683658 0
M  V30 8624 C 802.182 4.41138 -1.23132 0
M  V30 8625 N 803.673 4.47608 -1.19167 0
M  V30 8626 C 804.408 5.51038 -1.5857 0
M  V30 8627 N 803.904 6.61612 -2.05528 0
M  V30 8628 N 805.697 5.41706 -1.50036 0
M  V30 8629 H 797.848 1.5378 -1.46511 0
M  V30 8630 H 800.111 0.727996 -0.607228 0
M  V30 8631 H 799.817 3.04123 -1.7664 0
M  V30 8632 H 799.691 3.76798 -0.17419 0
M  V30 8633 H 802.078 2.92949 0.355626 0
M  V30 8634 H 802.159 2.22344 -1.26479 0
M  V30 8635 H 801.803 4.54382 -2.26935 0
M  V30 8636 H 801.733 5.22864 -0.626201 0
M  V30 8637 H 804.224 3.68274 -0.847524 0
M  V30 8638 H 804.537 7.36622 -2.33685 0
M  V30 8639 H 802.882 6.62674 -2.09497 0
M  V30 8640 H 806.073 4.54212 -1.13176 0
M  V30 8641 H 806.246 6.22188 -1.81068 0
M  V30 8642 N 799.652 0.226554 1.55963 0
M  V30 8643 C 800.929 -0.453058 1.90281 0
M  V30 8644 C 801.309 -1.77377 1.14458 0
M  V30 8645 O 800.657 -2.27067 0.255496 0
M  V30 8646 C 800.867 -0.641108 3.43061 0
M  V30 8647 C 802.215 -0.946265 4.13921 0
M  V30 8648 O 803.239 -0.727713 3.48687 0
M  V30 8649 O 802.098 -1.36131 5.29274 0
M  V30 8650 H 799.192 -0.240242 0.791336 0
M  V30 8651 H 801.738 0.26911 1.67553 0
M  V30 8652 H 800.51 0.290283 3.90222 0
M  V30 8653 H 800.133 -1.41458 3.71585 0
M  V30 8654 N 801.13 -1.57531 -0.0467866 0
M  V30 8655 C 802.06 -2.08425 -1.05268 0
M  V30 8656 C 803.041 -0.982941 -1.38825 0
M  V30 8657 O 804.226 -1.25716 -1.48018 0
M  V30 8658 C 801.356 -2.54897 -2.35891 0
M  V30 8659 C 800.31 -3.69132 -2.16623 0
M  V30 8660 C 799.636 -4.01747 -3.52851 0
M  V30 8661 C 800.936 -4.98243 -1.56689 0
M  V30 8662 H 802.63 -2.92716 -0.62908 0
M  V30 8663 H 800.176 -1.40816 -0.301156 0
M  V30 8664 H 802.129 -2.8912 -3.06574 0
M  V30 8665 H 800.853 -1.67666 -2.80278 0
M  V30 8666 H 799.512 -3.35231 -1.48377 0
M  V30 8667 H 799.16 -3.11608 -3.94853 0
M  V30 8668 H 798.86 -4.78681 -3.4079 0
M  V30 8669 H 800.384 -4.38487 -4.24925 0
M  V30 8670 H 801.798 -5.30535 -2.17268 0
M  V30 8671 H 800.195 -5.79669 -1.55255 0
M  V30 8672 H 801.265 -4.81986 -0.530827 0
M  V30 8673 N 802.608 0.318715 -1.54344 0
M  V30 8674 C 803.571 1.37545 -1.83342 0
M  V30 8675 C 804.571 1.445 -0.705444 0
M  V30 8676 O 805.761 1.44443 -0.973752 0
M  V30 8677 C 802.893 2.76225 -1.99781 0
M  V30 8678 H 804.086 1.13084 -2.77762 0
M  V30 8679 H 801.639 0.554457 -1.46135 0
M  V30 8680 H 802.374 3.05934 -1.07588 0
M  V30 8681 H 802.159 2.7257 -2.81865 0
M  V30 8682 H 803.649 3.52664 -2.23647 0
M  V30 8683 N 804.086 1.46499 0.581025 0
M  V30 8684 C 805.311 1.55708 1.37002 0
M  V30 8685 C 805.736 0.19942 1.8704 0
M  V30 8686 O 805.094 -0.820731 1.61659 0
M  V30 8687 C 805.142 2.56716 2.53238 0
M  V30 8688 O 804.246 2.10336 3.54729 0
M  V30 8689 H 803.587 0.523912 0.407937 0
M  V30 8690 H 806.117 1.92085 0.704602 0
M  V30 8691 H 806.127 2.76378 3.00132 0
M  V30 8692 H 804.802 3.55307 2.16171 0
M  V30 8693 H 803.379 2.00669 3.14303 0
M  V30 8694 N 805.565 -0.825799 1.34232 0
M  V30 8695 C 806.813 -1.57873 1.26177 0
M  V30 8696 C 807.134 -1.94267 -0.168904 0
M  V30 8697 O 806.404 -1.62045 -1.10084 0
M  V30 8698 H 804.984 -0.585388 0.464037 0
M  V30 8699 H 807.646 -0.986163 1.6811 0
M  V30 8700 H 806.742 -2.50283 1.86453 0
M  V30 8701 N 807.043 -1.17915 -1.04565 0
M  V30 8702 C 807.973 -0.925033 -2.14395 0
M  V30 8703 C 808.954 0.135375 -1.6956 0
M  V30 8704 O 810.139 -0.0161774 -1.94193 0
M  V30 8705 C 807.269 -0.444469 -3.44444 0
M  V30 8706 C 806.223 -1.44478 -4.02877 0
M  V30 8707 C 805.549 -0.821933 -5.28345 0
M  V30 8708 C 806.849 -2.81995 -4.39632 0
M  V30 8709 H 808.543 -1.84354 -2.35911 0
M  V30 8710 H 806.089 -0.887806 -1.13375 0
M  V30 8711 H 808.042 -0.254078 -4.20633 0
M  V30 8712 H 806.766 0.509592 -3.226 0
M  V30 8713 H 805.425 -1.62203 -3.28764 0
M  V30 8714 H 805.073 0.139161 -5.02807 0
M  V30 8715 H 804.773 -1.48976 -5.68401 0
M  V30 8716 H 806.297 -0.641959 -6.07216 0
M  V30 8717 H 807.711 -2.67952 -5.06828 0
M  V30 8718 H 806.108 -3.45414 -4.90723 0
M  V30 8719 H 807.178 -3.35927 -3.49687 0
M  V30 8720 N 808.521 1.23394 -0.980386 0
M  V30 8721 C 809.77 1.91116 -0.644785 0
M  V30 8722 C 810.083 1.77333 0.825367 0
M  V30 8723 O 811.289 2.39858 1.27203 0
M  V30 8724 C 809.745 3.42592 -1.10266 0
M  V30 8725 C 809.353 3.65037 -2.59715 0
M  V30 8726 C 811.097 4.1609 -0.8408 0
M  V30 8727 C 809.004 5.10148 -2.9917 0
M  V30 8728 H 807.934 0.715632 -0.23746 0
M  V30 8729 H 810.585 1.39829 -1.18828 0
M  V30 8730 H 808.967 3.92989 -0.487372 0
M  V30 8731 H 810.141 3.25186 -3.26482 0
M  V30 8732 H 808.456 3.04849 -2.83647 0
M  V30 8733 H 811.053 5.23021 -1.11143 0
M  V30 8734 H 811.396 4.15702 0.223085 0
M  V30 8735 H 811.929 3.71681 -1.41767 0
M  V30 8736 H 808.668 5.15668 -4.04682 0
M  V30 8737 H 808.188 5.50949 -2.37097 0
M  V30 8738 H 809.867 5.7848 -2.89775 0
M  V30 8739 N 809.999 0.752036 1.385 0
M  V30 8740 C 811.247 0.306895 1.99756 0
M  V30 8741 C 811.568 -1.11478 1.59992 0
M  V30 8742 O 810.838 -1.76206 0.856045 0
M  V30 8743 H 809.418 0.11048 0.738785 0
M  V30 8744 H 812.08 0.965785 1.69289 0
M  V30 8745 H 811.176 0.368797 3.09913 0
M  V30 8746 N 811.477 -1.49425 0.500989 0
M  V30 8747 C 812.888 -1.86624 0.0532011 0
M  V30 8748 C 813.239 -1.41331 -1.36088 0
M  V30 8749 O 812.364 -0.791195 -2.01418 0
M  V30 8750 C 812.959 -3.38681 0.0897693 0
M  V30 8751 C 811.518 -3.75181 -0.302677 0
M  V30 8752 C 810.665 -2.73419 0.462307 0
M  V30 8753 H 813.616 -1.41743 0.713773 0
M  V30 8754 H 813.637 -3.73902 -0.705528 0
M  V30 8755 H 813.149 -3.71616 1.11907 0
M  V30 8756 H 811.25 -3.47855 -1.33521 0
M  V30 8757 H 811.363 -4.79097 0.0167653 0
M  V30 8758 H 809.727 -2.54548 -0.0878557 0
M  V30 8759 H 810.51 -3.09198 1.49169 0
M  V30 8760 N 812.955 -0.234822 -1.55841 0
M  V30 8761 C 813.885 0.664217 -2.23854 0
M  V30 8762 C 814.866 1.19076 -1.2147 0
M  V30 8763 O 816.051 1.23232 -1.50091 0
M  V30 8764 C 813.181 1.86666 -2.9287 0
M  V30 8765 C 812.135 1.47341 -4.01839 0
M  V30 8766 C 811.461 2.75571 -4.58219 0
M  V30 8767 C 812.761 0.653479 -5.18196 0
M  V30 8768 H 814.455 0.0971213 -2.99242 0
M  V30 8769 H 812.001 0.0452724 -1.43929 0
M  V30 8770 H 813.954 2.50116 -3.39146 0
M  V30 8771 H 812.678 2.45894 -2.1495 0
M  V30 8772 H 811.337 0.862314 -3.56314 0
M  V30 8773 H 810.985 3.32971 -3.77014 0
M  V30 8774 H 810.685 2.49987 -5.31771 0
M  V30 8775 H 812.209 3.39939 -5.07221 0
M  V30 8776 H 813.623 1.19198 -5.60771 0
M  V30 8777 H 812.02 0.494188 -5.98062 0
M  V30 8778 H 813.09 -0.337004 -4.83728 0
M  V30 8779 N 814.433 1.57553 0.0384317 0
M  V30 8780 C 815.363 2.0898 1.04161 0
M  V30 8781 C 816.344 0.99029 1.38301 0
M  V30 8782 O 817.529 1.26499 1.47349 0
M  V30 8783 C 814.659 2.56145 2.34536 0
M  V30 8784 C 813.613 3.70275 2.14663 0
M  V30 8785 C 812.939 4.03612 3.50715 0
M  V30 8786 C 814.239 4.99067 1.54045 0
M  V30 8787 H 815.933 2.93046 0.613548 0
M  V30 8788 H 813.479 1.40973 0.293684 0
M  V30 8789 H 815.432 2.90741 3.05037 0
M  V30 8790 H 814.156 1.6915 2.79385 0
M  V30 8791 H 812.815 3.36013 1.46597 0
M  V30 8792 H 812.463 3.13698 3.93195 0
M  V30 8793 H 812.163 4.80482 3.38247 0
M  V30 8794 H 813.687 4.40735 4.22593 0
M  V30 8795 H 815.101 5.3168 2.14451 0
M  V30 8796 H 813.498 5.80484 1.52178 0
M  V30 8797 H 814.568 4.8226 0.505259 0
M  V30 8798 N 815.911 -0.310526 1.54511 0
M  V30 8799 C 817.16 -1.0445 1.72549 0
M  V30 8800 C 817.473 -1.88748 0.513172 0
M  V30 8801 O 818.679 -2.65338 0.575165 0
M  V30 8802 C 817.135 -1.90665 3.05246 0
M  V30 8803 C 816.743 -1.11415 4.33925 0
M  V30 8804 C 818.487 -2.63719 3.32645 0
M  V30 8805 C 816.394 -1.96852 5.57677 0
M  V30 8806 H 815.324 -0.393676 0.643067 0
M  V30 8807 H 817.975 -0.302003 1.80998 0
M  V30 8808 H 816.357 -2.68864 2.90737 0
M  V30 8809 H 817.531 -0.378956 4.59239 0
M  V30 8810 H 815.846 -0.499853 4.13389 0
M  V30 8811 H 818.443 -3.27974 4.223 0
M  V30 8812 H 818.786 -3.32047 2.51098 0
M  V30 8813 H 819.319 -1.92574 3.48081 0
M  V30 8814 H 816.058 -1.33009 6.41864 0
M  V30 8815 H 815.578 -2.68069 5.36562 0
M  V30 8816 H 817.257 -2.55127 5.94575 0
M  V30 8817 N 817.389 -1.46805 -0.573248 0
M  V30 8818 C 818.629 -1.5417 -1.34205 0
M  V30 8819 C 818.993 -0.192675 -1.91031 0
M  V30 8820 O 820.194 -0.141111 -2.68429 0
M  V30 8821 C 818.465 -2.61682 -2.43428 0
M  V30 8822 S 820.024 -2.88519 -3.30609 0
M  V30 8823 H 816.842 -0.544592 -0.4571 0
M  V30 8824 H 819.444 -1.84094 -0.658001 0
M  V30 8825 H 818.148 -3.58319 -2.00088 0
M  V30 8826 H 817.679 -2.33521 -3.16594 0
M  V30 8827 H 819.694 -2.2451 -4.42504 0
M  V30 8828 N 818.867 0.818669 -1.34668 0
M  V30 8829 C 820.097 1.60441 -1.30162 0
M  V30 8830 C 820.505 1.88783 0.125579 0
M  V30 8831 O 819.848 1.48281 1.08437 0
M  V30 8832 C 819.91 2.96794 -2.02864 0
M  V30 8833 C 819.574 2.91327 -3.52105 0
M  V30 8834 C 820.571 2.65611 -4.4693 0
M  V30 8835 C 818.256 3.10825 -3.9458 0
M  V30 8836 C 820.25 2.59452 -5.82206 0
M  V30 8837 C 817.937 3.0429 -5.29954 0
M  V30 8838 C 818.935 2.78637 -6.23579 0
M  V30 8839 O 818.623 2.72042 -7.56471 0
M  V30 8840 H 818.355 0.505278 -0.449077 0
M  V30 8841 H 820.909 1.02632 -1.77921 0
M  V30 8842 H 819.139 3.56538 -1.49725 0
M  V30 8843 H 820.828 3.57837 -1.91592 0
M  V30 8844 H 821.594 2.50278 -4.15434 0
M  V30 8845 H 817.473 3.29807 -3.221 0
M  V30 8846 H 821.017 2.39349 -6.55254 0
M  V30 8847 H 816.914 3.19177 -5.61067 0
M  V30 8848 H 817.682 2.87738 -7.66257 0
M  V30 8849 N 820.346 1.18468 1.03938 0
M  V30 8850 C 821.293 0.912859 2.1198 0
M  V30 8851 C 822.263 -0.14824 1.65437 0
M  V30 8852 O 823.448 -0.008331 1.90798 0
M  V30 8853 C 820.588 0.446114 3.42204 0
M  V30 8854 C 819.701 1.57278 4.02353 0
M  V30 8855 C 818.836 1.05863 5.20544 0
M  V30 8856 C 817.875 2.1599 5.72726 0
M  V30 8857 N 817.012 1.65959 6.82204 0
M  V30 8858 H 821.852 1.83798 2.34569 0
M  V30 8859 H 819.389 0.916504 1.15059 0
M  V30 8860 H 821.347 0.15697 4.16905 0
M  V30 8861 H 819.977 -0.442025 3.19759 0
M  V30 8862 H 819.029 1.97737 3.24968 0
M  V30 8863 H 820.341 2.40289 4.37107 0
M  V30 8864 H 819.495 0.724087 6.02364 0
M  V30 8865 H 818.234 0.198116 4.87297 0
M  V30 8866 H 817.239 2.50287 4.89527 0
M  V30 8867 H 818.464 3.02479 6.08016 0
M  V30 8868 H 816.41 0.82199 6.5083 0
M  V30 8869 H 816.327 2.42567 7.16029 0
M  V30 8870 H 817.595 1.35436 7.67644 0
M  V30 8871 N 821.824 -1.22873 0.986916 0
M  V30 8872 C 822.734 -2.28277 0.540978 0
M  V30 8873 C 823.75 -1.69164 -0.407363 0
M  V30 8874 O 824.926 -1.99504 -0.275674 0
M  V30 8875 C 821.991 -3.46404 -0.143181 0
M  V30 8876 C 821.052 -4.20854 0.847375 0
M  V30 8877 C 820.285 -5.33341 0.19577 0
M  V30 8878 O 820.508 -5.61356 -1.0117 0
M  V30 8879 O 819.442 -5.95169 0.897623 0
M  V30 8880 H 823.268 -2.68578 1.41773 0
M  V30 8881 H 820.853 -1.28927 0.754867 0
M  V30 8882 H 822.735 -4.18096 -0.526676 0
M  V30 8883 H 821.41 -3.08041 -0.994593 0
M  V30 8884 H 820.317 -3.51459 1.28169 0
M  V30 8885 H 821.65 -4.63082 1.6678 0
M  V30 8886 N 823.302 -0.75937 -1.38099 0
M  V30 8887 C 824.527 -0.327859 -2.04792 0
M  V30 8888 C 824.952 1.03752 -1.56899 0
M  V30 8889 O 824.31 1.66235 -0.723581 0
M  V30 8890 C 824.358 -0.366264 -3.58735 0
M  V30 8891 O 823.462 0.637697 -4.0744 0
M  V30 8892 H 822.803 -0.144092 -0.648177 0
M  V30 8893 H 825.333 -1.03211 -1.7666 0
M  V30 8894 H 825.343 -0.219179 -4.07411 0
M  V30 8895 H 824.018 -1.36243 -3.92951 0
M  V30 8896 H 822.595 0.454749 -3.70117 0
M  V30 8897 N 824.78 1.49157 -0.508906 0
M  V30 8898 C 826.026 2.02773 0.0328469 0
M  V30 8899 C 826.359 1.38714 1.35912 0
M  V30 8900 O 825.634 0.525536 1.87266 0
M  V30 8901 C 825.917 3.59664 0.177088 0
M  V30 8902 C 825.77 4.34239 -1.17287 0
M  V30 8903 C 827.089 4.30505 0.913977 0
M  V30 8904 H 824.208 0.736926 0.0104631 0
M  V30 8905 H 826.85 1.781 -0.661851 0
M  V30 8906 H 825 3.80818 0.768774 0
M  V30 8907 H 826.672 4.24561 -1.80404 0
M  V30 8908 H 824.915 3.96486 -1.76016 0
M  V30 8909 H 825.586 5.42397 -1.02516 0
M  V30 8910 H 828.062 4.14054 0.412084 0
M  V30 8911 H 826.938 5.40012 0.983759 0
M  V30 8912 H 827.199 3.96302 1.95951 0
M  V30 8913 N 826.258 0.243083 1.55714 0
M  V30 8914 C 827.535 -0.432851 1.90751 0
M  V30 8915 C 827.915 -1.76153 1.16333 0
M  V30 8916 O 827.263 -2.26783 0.279565 0
M  V30 8917 C 827.473 -0.604685 3.43722 0
M  V30 8918 C 828.821 -0.90231 4.14902 0
M  V30 8919 O 829.845 -0.690689 3.49439 0
M  V30 8920 O 828.704 -1.3051 5.30688 0
M  V30 8921 H 825.798 -0.231835 0.79384 0
M  V30 8922 H 828.344 0.286867 1.67258 0
M  V30 8923 H 827.116 0.331655 3.89892 0
M  V30 8924 H 826.739 -1.37509 3.73065 0
M  V30 8925 N 827.736 -1.57571 -0.0300757 0
M  V30 8926 C 828.668 -2.0329 -1.05857 0
M  V30 8927 C 829.681 -0.945543 -1.32527 0
M  V30 8928 O 830.87 -1.22287 -1.30032 0
M  V30 8929 C 827.97 -2.39234 -2.40042 0
M  V30 8930 C 827.143 -3.70337 -2.32743 0
M  V30 8931 C 826.202 -3.93482 -3.49369 0
M  V30 8932 O 825.228 -4.64551 -3.28909 0
M  V30 8933 N 826.43 -3.39042 -4.71201 0
M  V30 8934 H 829.195 -2.9214 -0.668897 0
M  V30 8935 H 826.756 -1.60425 -0.218038 0
M  V30 8936 H 828.748 -2.51856 -3.16782 0
M  V30 8937 H 827.318 -1.5606 -2.70858 0
M  V30 8938 H 826.538 -3.68079 -1.41109 0
M  V30 8939 H 827.826 -4.56343 -2.25007 0
M  V30 8940 H 827.224 -2.81434 -4.90725 0
M  V30 8941 H 825.781 -3.57045 -5.45309 0
M  V30 8942 N 829.214 0.302327 -1.54673 0
M  V30 8943 C 830.63 0.647911 -1.45857 0
M  V30 8944 C 830.83 1.90773 -0.64869 0
M  V30 8945 O 829.886 2.52018 -0.155865 0
M  V30 8946 C 831.199 0.802144 -2.89804 0
M  V30 8947 C 832.747 0.898114 -2.99838 0
M  V30 8948 C 833.222 1.08436 -4.44978 0
M  V30 8949 N 834.713 1.15059 -4.48682 0
M  V30 8950 C 835.448 1.31296 -5.58166 0
M  V30 8951 N 834.944 1.4444 -6.77576 0
M  V30 8952 N 836.737 1.34174 -5.45851 0
M  V30 8953 H 828.888 -0.525428 -2.05798 0
M  V30 8954 H 831.151 -0.173423 -0.932002 0
M  V30 8955 H 830.857 -0.0526531 -3.51661 0
M  V30 8956 H 830.731 1.69155 -3.37145 0
M  V30 8957 H 833.118 1.7434 -2.38096 0
M  V30 8958 H 833.199 -0.0152752 -2.55795 0
M  V30 8959 H 832.843 0.243843 -5.07314 0
M  V30 8960 H 832.773 2.01195 -4.8665 0
M  V30 8961 H 835.264 1.0626 -3.62653 0
M  V30 8962 H 835.577 1.56582 -7.56771 0
M  V30 8963 H 833.922 1.41499 -6.80443 0
M  V30 8964 H 837.113 1.23516 -4.5151 0
M  V30 8965 H 837.286 1.46485 -6.31226 0
M  V30 8966 N 830.692 1.47107 0.565454 0
M  V30 8967 C 831.94 1.53005 1.32038 0
M  V30 8968 C 832.261 0.190453 1.94068 0
M  V30 8969 O 831.531 -0.784783 1.79494 0
M  V30 8970 H 830.111 0.563578 0.490294 0
M  V30 8971 H 832.773 1.83351 0.660928 0
M  V30 8972 H 831.869 2.29215 2.11818 0
M  V30 8973 N 832.17 -0.811516 1.35101 0
M  V30 8974 C 833.118 -1.94449 1.27642 0
M  V30 8975 C 834.112 -1.68522 0.172287 0
M  V30 8976 O 835.318 -1.76799 0.337967 0
M  V30 8977 H 831.693 -0.638776 0.396824 0
M  V30 8978 H 833.664 -1.97861 2.23369 0
M  V30 8979 C 832.413 -3.31139 1.06029 0
M  V30 8980 H 831.736 -3.51644 1.90227 0
M  V30 8981 H 833.176 -4.10831 1.0485 0
M  V30 8982 C 831.635 -3.36072 -0.236039 0
M  V30 8983 O 832.165 -3.82292 -1.23353 0
M  V30 8984 N 830.371 -2.89314 -0.273107 0
M  V30 8985 H 829.918 -2.51893 0.539211 0
M  V30 8986 H 829.876 -2.92996 -1.1402 0
M  V30 8987 N 833.648 -1.19017 -1.03309 0
M  V30 8988 C 834.58 -0.881847 -2.11556 0
M  V30 8989 C 835.593 0.123711 -1.62329 0
M  V30 8990 O 836.782 -0.105141 -1.7819 0
M  V30 8991 C 833.882 -0.297634 -3.37591 0
M  V30 8992 C 833.055 -1.35072 -4.16022 0
M  V30 8993 C 832.114 -0.780812 -5.20375 0
M  V30 8994 O 831.14 -1.45745 -5.50224 0
M  V30 8995 N 832.342 0.417964 -5.78993 0
M  V30 8996 H 835.107 -1.81359 -2.38598 0
M  V30 8997 H 832.668 -1.0916 -1.19565 0
M  V30 8998 H 834.66 0.097374 -4.04583 0
M  V30 8999 H 833.23 0.538299 -3.0793 0
M  V30 9000 H 832.45 -1.92074 -3.4424 0
M  V30 9001 H 833.738 -2.06044 -4.65213 0
M  V30 9002 H 833.136 0.985281 -5.57054 0
M  V30 9003 H 831.693 0.754802 -6.47415 0
M  V30 9004 N 835.127 1.22348 -0.993418 0
M  V30 9005 C 836.376 1.90422 -0.665019 0
M  V30 9006 C 836.689 1.78199 0.806512 0
M  V30 9007 O 837.895 2.41193 1.24652 0
M  V30 9008 C 836.351 3.41403 -1.13893 0
M  V30 9009 C 835.959 3.62262 -2.63572 0
M  V30 9010 C 837.703 4.15175 -0.884884 0
M  V30 9011 C 835.61 5.06947 -3.04564 0
M  V30 9012 H 834.54 0.713073 -0.245037 0
M  V30 9013 H 837.191 1.3856 -1.20305 0
M  V30 9014 H 835.573 3.9245 -0.529027 0
M  V30 9015 H 836.747 3.21705 -3.29913 0
M  V30 9016 H 835.062 3.01824 -2.86865 0
M  V30 9017 H 837.659 5.21813 -1.16684 0
M  V30 9018 H 838.002 4.15915 0.178982 0
M  V30 9019 H 838.535 3.70157 -1.45701 0
M  V30 9020 H 835.274 5.11346 -4.10128 0
M  V30 9021 H 834.794 5.48404 -2.42927 0
M  V30 9022 H 836.473 5.75374 -2.95894 0
M  V30 9023 N 836.605 0.766683 1.37694 0
M  V30 9024 C 837.538 0.0959288 2.27998 0
M  V30 9025 C 838.516 -0.714493 1.46061 0
M  V30 9026 O 839.7 -0.690337 1.75404 0
M  V30 9027 C 836.827 -0.87057 3.27321 0
M  V30 9028 C 835.873 -0.144771 4.26254 0
M  V30 9029 S 836.706 1.16365 5.22704 0
M  V30 9030 C 837.862 0.200564 6.25579 0
M  V30 9031 H 838.095 0.861666 2.84539 0
M  V30 9032 H 835.628 0.559845 1.43893 0
M  V30 9033 H 837.586 -1.42282 3.85053 0
M  V30 9034 H 836.247 -1.60938 2.69737 0
M  V30 9035 H 835.44 -0.877259 4.96307 0
M  V30 9036 H 835.042 0.33633 3.72485 0
M  V30 9037 H 837.334 -0.628833 6.74575 0
M  V30 9038 H 838.277 0.869117 7.02746 0
M  V30 9039 H 838.685 -0.185972 5.64194 0
M  V30 9040 N 838.083 -1.48885 0.516809 0
M  V30 9041 C 839.308 -2.0739 -0.0205201 0
M  V30 9042 C 839.733 -1.37259 -1.28614 0
M  V30 9043 O 839.091 -0.434304 -1.76021 0
M  V30 9044 C 839.139 -3.59793 -0.24104 0
M  V30 9045 O 838.243 -3.90957 -1.31251 0
M  V30 9046 H 837.584 -0.663167 0.0332564 0
M  V30 9047 H 840.114 -1.91477 0.720956 0
M  V30 9048 H 840.124 -4.0531 -0.467737 0
M  V30 9049 H 838.799 -4.10244 0.68356 0
M  V30 9050 H 837.376 -3.57234 -1.06951 0
M  V30 9051 N 839.561 -0.251338 -1.55583 0
M  V30 9052 C 840.838 0.422729 -1.90977 0
M  V30 9053 C 841.218 1.75534 -1.17265 0
M  V30 9054 O 840.566 2.26632 -0.291588 0
M  V30 9055 C 840.776 0.586448 -3.44037 0
M  V30 9056 C 842.124 0.880294 -4.15375 0
M  V30 9057 O 843.148 0.672148 -3.49801 0
M  V30 9058 O 842.007 1.27694 -5.31372 0
M  V30 9059 H 839.101 0.227622 -0.795058 0
M  V30 9060 H 841.647 -0.295733 -1.67103 0
M  V30 9061 H 840.419 -0.352327 -3.89711 0
M  V30 9062 H 840.042 1.35528 -3.73789 0
M  V30 9063 N 841.039 1.57585 0.0217189 0
M  V30 9064 C 841.986 2.07036 1.02004 0
M  V30 9065 C 842.956 0.96106 1.35473 0
M  V30 9066 O 844.141 1.23211 1.45684 0
M  V30 9067 C 841.281 2.56056 2.31364 0
M  V30 9068 C 840.394 3.80805 2.03989 0
M  V30 9069 C 839.529 4.18409 3.27272 0
M  V30 9070 C 838.568 5.36055 2.95486 0
M  V30 9071 N 837.705 5.69056 4.11242 0
M  V30 9072 H 842.545 2.92073 0.591396 0
M  V30 9073 H 840.082 1.44403 0.280384 0
M  V30 9074 H 842.04 2.82548 3.06957 0
M  V30 9075 H 840.67 1.73925 2.71937 0
M  V30 9076 H 839.722 3.61354 1.1886 0
M  V30 9077 H 841.034 4.66512 1.76546 0
M  V30 9078 H 840.188 4.46068 4.11228 0
M  V30 9079 H 838.927 3.31369 3.57835 0
M  V30 9080 H 837.932 5.08142 2.09933 0
M  V30 9081 H 839.157 6.24755 2.66193 0
M  V30 9082 H 837.103 4.84974 4.41742 0
M  V30 9083 H 837.02 6.49288 3.87247 0
M  V30 9084 H 838.288 6.01295 4.96049 0
M  V30 9085 N 842.517 -0.29412 1.54831 0
M  V30 9086 C 843.933 -0.640167 1.46199 0
M  V30 9087 C 844.133 -1.90426 0.658798 0
M  V30 9088 O 843.189 -2.51932 0.169228 0
M  V30 9089 C 844.502 -0.786763 2.90225 0
M  V30 9090 C 846.05 -0.882201 3.0031 0
M  V30 9091 C 846.525 -1.06074 4.45547 0
M  V30 9092 N 848.016 -1.12678 4.49286 0
M  V30 9093 C 848.751 -1.28334 5.58854 0
M  V30 9094 N 848.247 -1.40845 6.78332 0
M  V30 9095 N 850.04 -1.31277 5.46555 0
M  V30 9096 H 842.191 0.536334 2.05517 0
M  V30 9097 H 844.454 0.178363 0.93107 0
M  V30 9098 H 844.16 0.0713018 3.51628 0
M  V30 9099 H 844.034 -1.67364 3.38037 0
M  V30 9100 H 846.421 -1.73075 2.39017 0
M  V30 9101 H 846.502 0.0288405 2.55784 0
M  V30 9102 H 846.146 -0.216935 5.07437 0
M  V30 9103 H 846.076 -1.98611 4.8771 0
M  V30 9104 H 848.567 -1.04335 3.63212 0
M  V30 9105 H 848.88 -1.52566 7.57591 0
M  V30 9106 H 847.225 -1.37888 6.81184 0
M  V30 9107 H 850.416 -1.2112 4.52159 0
M  V30 9108 H 850.589 -1.43136 6.31994 0
M  V30 9109 N 843.995 -1.47404 -0.557645 0
M  V30 9110 C 844.943 -1.60265 -1.68576 0
M  V30 9111 C 845.937 -0.469982 -1.6275 0
M  V30 9112 O 847.143 -0.647764 -1.67941 0
M  V30 9113 H 843.518 -0.504353 -0.557792 0
M  V30 9114 H 845.489 -2.55066 -1.54867 0
M  V30 9115 C 844.238 -1.63369 -3.0693 0
M  V30 9116 H 843.561 -2.49874 -3.12095 0
M  V30 9117 H 845.001 -1.76417 -3.85556 0
M  V30 9118 C 843.46 -0.366921 -3.34896 0
M  V30 9119 O 843.99 0.53218 -3.98159 0
M  V30 9120 N 842.196 -0.247082 -2.89548 0
M  V30 9121 H 841.743 -0.979669 -2.38244 0
M  V30 9122 H 841.701 0.599552 -3.0863 0
M  V30 9123 N 845.473 0.80434 -1.35529 0
M  V30 9124 C 846.719 1.56385 -1.29118 0
M  V30 9125 C 847.052 1.9374 0.133536 0
M  V30 9126 O 846.327 1.6153 1.08344 0
M  V30 9127 C 846.61 2.85097 -2.19981 0
M  V30 9128 C 846.463 2.54204 -3.7108 0
M  V30 9129 C 847.782 3.86817 -2.09907 0
M  V30 9130 H 844.901 0.567382 -0.470368 0
M  V30 9131 H 847.543 0.925235 -1.6595 0
M  V30 9132 H 845.693 3.39594 -1.88701 0
M  V30 9133 H 847.365 2.05872 -4.12813 0
M  V30 9134 H 845.608 1.87364 -3.91251 0
M  V30 9135 H 846.279 3.46068 -4.30048 0
M  V30 9136 H 848.755 3.41725 -2.37409 0
M  V30 9137 H 847.631 4.7465 -2.75678 0
M  V30 9138 H 847.892 4.28663 -1.08171 0
M  V30 9139 N 846.951 1.19563 1.02676 0
M  V30 9140 C 848.2 0.993864 1.75514 0
M  V30 9141 C 848.513 -0.475882 1.89723 0
M  V30 9142 O 849.719 -0.796525 2.59553 0
M  V30 9143 C 848.175 1.72937 3.15628 0
M  V30 9144 C 847.783 3.23937 3.09466 0
M  V30 9145 C 849.527 1.61092 3.92746 0
M  V30 9146 C 847.434 3.90067 4.44524 0
M  V30 9147 H 846.364 0.368244 0.657961 0
M  V30 9148 H 849.015 1.43081 1.14891 0
M  V30 9149 H 847.397 1.22025 3.76731 0
M  V30 9150 H 848.571 3.81983 2.57731 0
M  V30 9151 H 846.886 3.3608 2.45843 0
M  V30 9152 H 849.483 2.07848 4.92649 0
M  V30 9153 H 849.826 0.565415 4.12442 0
M  V30 9154 H 850.359 2.09361 3.3825 0
M  V30 9155 H 847.098 4.94725 4.30032 0
M  V30 9156 H 846.618 3.36809 4.96306 0
M  V30 9157 H 848.297 3.93736 5.13401 0
M  V30 9158 N 848.429 -1.21819 0.999893 0
M  V30 9159 C 849.359 -2.26282 0.576096 0
M  V30 9160 C 850.34 -1.65317 -0.400537 0
M  V30 9161 O 851.525 -1.92028 -0.28964 0
M  V30 9162 C 848.655 -3.47147 -0.103145 0
M  V30 9163 C 847.609 -4.20594 0.792745 0
M  V30 9164 C 846.935 -5.34696 -0.0198026 0
M  V30 9165 C 848.235 -4.78533 2.09293 0
M  V30 9166 H 849.929 -2.61984 1.4493 0
M  V30 9167 H 847.475 -1.25935 0.698316 0
M  V30 9168 H 849.428 -4.1939 -0.411068 0
M  V30 9169 H 848.152 -3.1056 -1.01094 0
M  V30 9170 H 846.811 -3.50194 1.08442 0
M  V30 9171 H 846.459 -4.94352 -0.928729 0
M  V30 9172 H 846.159 -5.84764 0.576661 0
M  V30 9173 H 847.683 -6.09752 -0.321659 0
M  V30 9174 H 849.097 -5.42682 1.8485 0
M  V30 9175 H 847.494 -5.38968 2.63881 0
M  V30 9176 H 848.564 -3.98197 2.76708 0
M  V30 9177 N 849.908 -0.773975 -1.37286 0
M  V30 9178 C 851.155 -0.339306 -1.99637 0
M  V30 9179 C 851.483 1.08478 -1.61439 0
M  V30 9180 O 850.738 1.7612 -0.853252 0
M  V30 9181 C 851.037 -0.432651 -3.54772 0
M  V30 9182 C 850.703 -1.81531 -4.12744 0
M  V30 9183 C 849.365 -2.19366 -4.2829 0
M  V30 9184 C 851.717 -2.72137 -4.44512 0
M  V30 9185 C 849.045 -3.47239 -4.72908 0
M  V30 9186 C 851.397 -3.99421 -4.90556 0
M  V30 9187 C 850.061 -4.37298 -5.04308 0
M  V30 9188 H 849.331 -0.124161 -0.730524 0
M  V30 9189 H 851.978 -0.988432 -1.64019 0
M  V30 9190 H 850.283 0.30001 -3.9065 0
M  V30 9191 H 851.98 -0.0776 -4.00925 0
M  V30 9192 H 848.57 -1.51126 -4.01072 0
M  V30 9193 H 852.754 -2.44165 -4.32084 0
M  V30 9194 H 848.01 -3.76477 -4.81742 0
M  V30 9195 H 852.184 -4.69756 -5.14104 0
M  V30 9196 H 849.811 -5.36442 -5.38641 0
M  V30 9197 N 851.386 1.48609 -0.524698 0
M  V30 9198 C 852.611 2.07398 0.00952139 0
M  V30 9199 C 853.036 1.37939 1.27884 0
M  V30 9200 O 852.394 0.443633 1.75788 0
M  V30 9201 C 852.442 3.59916 0.221956 0
M  V30 9202 O 851.546 3.91647 1.29175 0
M  V30 9203 H 850.887 0.662981 -0.0367729 0
M  V30 9204 H 853.417 1.91092 -0.7311 0
M  V30 9205 H 853.427 4.05552 0.446236 0
M  V30 9206 H 852.102 4.09876 -0.705306 0
M  V30 9207 H 850.679 3.57796 1.05055 0
M  V30 9208 N 852.864 0.259585 1.55447 0
M  V30 9209 C 854.11 -0.362143 1.9954 0
M  V30 9210 C 854.443 -1.5666 1.14767 0
M  V30 9211 O 853.718 -1.93319 0.214025 0
M  V30 9212 C 854.001 -0.759588 3.51998 0
M  V30 9213 C 853.854 0.451134 4.47532 0
M  V30 9214 C 855.173 -1.60186 4.09913 0
M  V30 9215 H 852.292 -0.130157 0.725416 0
M  V30 9216 H 854.934 0.363431 1.86492 0
M  V30 9217 H 853.084 -1.3778 3.63248 0
M  V30 9218 H 854.756 1.08965 4.48246 0
M  V30 9219 H 852.999 1.092 4.19831 0
M  V30 9220 H 853.67 0.129518 5.51848 0
M  V30 9221 H 856.146 -1.0799 4.01842 0
M  V30 9222 H 855.022 -1.84879 5.16828 0
M  V30 9223 H 855.283 -2.57787 3.59163 0
M  V30 9224 N 854.342 -1.57594 -0.0133615 0
M  V30 9225 C 855.589 -1.8998 -0.70098 0
M  V30 9226 C 855.917 -0.858802 -1.74513 0
M  V30 9227 O 855.172 0.138209 -1.95211 0
M  V30 9228 C 855.471 -3.29121 -1.39336 0
M  V30 9229 C 855.137 -4.48298 -0.483687 0
M  V30 9230 C 853.799 -4.80635 -0.233186 0
M  V30 9231 C 856.151 -5.21003 0.143426 0
M  V30 9232 C 853.479 -5.83055 0.652943 0
M  V30 9233 C 855.831 -6.24366 1.01735 0
M  V30 9234 C 854.495 -6.55168 1.27716 0
M  V30 9235 H 853.765 -0.695187 -0.256507 0
M  V30 9236 H 856.412 -1.9146 0.0392965 0
M  V30 9237 H 854.717 -3.23703 -2.20735 0
M  V30 9238 H 856.414 -3.51433 -1.93121 0
M  V30 9239 H 853.004 -4.23024 -0.689092 0
M  V30 9240 H 857.188 -4.96286 -0.0371139 0
M  V30 9241 H 852.444 -6.05288 0.862379 0
M  V30 9242 H 856.618 -6.79839 1.5097 0
M  V30 9243 H 854.245 -7.34351 1.9655 0
M  V30 9244 N 855.82 0.285905 -1.54985 0
M  V30 9245 C 857.097 1.0397 -1.65679 0
M  V30 9246 C 857.477 2.04725 -0.514851 0
M  V30 9247 O 856.825 2.23257 0.486663 0
M  V30 9248 C 857.035 1.70807 -3.04345 0
M  V30 9249 C 858.383 2.22447 -3.61666 0
M  V30 9250 O 859.407 1.80815 -3.06895 0
M  V30 9251 O 858.266 2.98773 -4.57599 0
M  V30 9252 H 855.36 0.481473 -0.672394 0
M  V30 9253 H 857.906 0.282789 -1.67327 0
M  V30 9254 H 856.678 0.977271 -3.789 0
M  V30 9255 H 856.301 2.53217 -3.06541 0
M  V30 9256 N 857.298 1.47698 0.54982 0
M  V30 9257 C 858.208 1.63386 1.68351 0
M  V30 9258 C 859.224 0.516583 1.66155 0
M  V30 9259 O 860.4 0.785088 1.85468 0
M  V30 9260 C 857.465 1.6513 3.04849 0
M  V30 9261 C 856.526 2.88338 3.18056 0
M  V30 9262 C 855.759 2.8999 4.48042 0
M  V30 9263 O 855.982 2.00633 5.3395 0
M  V30 9264 O 854.916 3.81938 4.65196 0
M  V30 9265 H 858.742 2.59329 1.58057 0
M  V30 9266 H 856.327 1.30869 0.72067 0
M  V30 9267 H 858.209 1.68913 3.86065 0
M  V30 9268 H 856.884 0.723555 3.1551 0
M  V30 9269 H 855.791 2.90097 2.36209 0
M  V30 9270 H 857.124 3.80431 3.12302 0
M  V30 9271 N 858.776 -0.797141 1.35954 0
M  V30 9272 C 859.724 -1.93084 1.29697 0
M  V30 9273 C 860.718 -1.68329 0.190152 0
M  V30 9274 O 861.924 -1.7643 0.3567 0
M  V30 9275 H 858.299 -0.634531 0.403577 0
M  V30 9276 H 860.27 -1.95481 2.25455 0
M  V30 9277 C 859.019 -3.29996 1.09536 0
M  V30 9278 H 858.342 -3.49607 1.93946 0
M  V30 9279 H 859.782 -4.09696 1.09202 0
M  V30 9280 C 858.241 -3.36304 -0.200381 0
M  V30 9281 O 858.771 -3.83579 -1.19291 0
M  V30 9282 N 856.977 -2.89587 -0.242406 0
M  V30 9283 H 856.524 -2.51307 0.565897 0
M  V30 9284 H 856.482 -2.94189 -1.10906 0
M  V30 9285 N 860.254 -1.20106 -1.0204 0
M  V30 9286 C 861.67 -0.955099 -1.27867 0
M  V30 9287 C 861.87 0.367595 -1.98119 0
M  V30 9288 O 860.926 1.09705 -2.27423 0
M  V30 9289 C 862.239 -2.13507 -2.11744 0
M  V30 9290 C 863.787 -2.17563 -2.25023 0
M  V30 9291 C 864.262 -3.35035 -3.12275 0
M  V30 9292 N 865.753 -3.35024 -3.19864 0
M  V30 9293 C 866.488 -4.22566 -3.8759 0
M  V30 9294 N 865.984 -5.20278 -4.57474 0
M  V30 9295 N 867.777 -4.10418 -3.84075 0
M  V30 9296 H 859.928 -2.05193 -0.54861 0
M  V30 9297 H 862.191 -0.897689 -0.304728 0
M  V30 9298 H 861.897 -3.09275 -1.67456 0
M  V30 9299 H 861.771 -2.11281 -3.12474 0
M  V30 9300 H 864.158 -1.22359 -2.68537 0
M  V30 9301 H 864.239 -2.23838 -1.23815 0
M  V30 9302 H 863.883 -4.30522 -2.69468 0
M  V30 9303 H 863.813 -3.25996 -4.13563 0
M  V30 9304 H 866.304 -2.64299 -2.701 0
M  V30 9305 H 866.617 -5.83408 -5.06809 0
M  V30 9306 H 864.962 -5.24219 -4.56311 0
M  V30 9307 H 868.153 -3.33353 -3.28623 0
M  V30 9308 H 868.326 -4.78854 -4.36581 0
M  V30 9309 N 861.732 1.21287 -1.00634 0
M  V30 9310 C 862.957 1.94925 -0.708441 0
M  V30 9311 C 863.382 1.73659 0.722783 0
M  V30 9312 O 862.74 1.02429 1.49593 0
M  V30 9313 C 862.788 3.45377 -1.03667 0
M  V30 9314 O 861.892 4.12153 -0.142661 0
M  V30 9315 H 861.233 0.609338 -0.263824 0
M  V30 9316 H 863.763 1.54008 -1.34695 0
M  V30 9317 H 863.773 3.95954 -0.984086 0
M  V30 9318 H 862.448 3.6018 -2.0795 0
M  V30 9319 H 861.025 3.72048 -0.251888 0
M  V30 9320 N 863.21 0.781244 1.36873 0
M  V30 9321 C 864.456 0.359455 2.00199 0
M  V30 9322 C 864.811 -1.05495 1.60899 0
M  V30 9323 O 864.104 -1.7173 0.849664 0
M  V30 9324 C 864.298 0.45146 3.54537 0
M  V30 9325 C 864.127 1.87326 4.08826 0
M  V30 9326 C 862.897 2.49606 4.39346 0
M  V30 9327 C 865.095 2.8342 4.29159 0
M  V30 9328 N 863.077 3.8346 4.79408 0
M  V30 9329 C 864.448 4.02091 4.71935 0
M  V30 9330 C 866.503 2.80583 4.11312 0
M  V30 9331 C 865.206 5.18322 4.98733 0
M  V30 9332 C 867.232 3.95995 4.39251 0
M  V30 9333 C 866.594 5.13409 4.82276 0
M  V30 9334 H 862.693 0.178778 0.76129 0
M  V30 9335 H 865.277 1.0171 1.66022 0
M  V30 9336 H 863.448 -0.176055 3.88001 0
M  V30 9337 H 865.18 0.00670219 4.04699 0
M  V30 9338 H 861.935 2.01149 4.28761 0
M  V30 9339 H 862.359 4.52306 5.03735 0
M  V30 9340 H 867.001 1.90974 3.77212 0
M  V30 9341 H 864.719 6.08524 5.31718 0
M  V30 9342 H 868.305 3.95152 4.2702 0
M  V30 9343 H 867.185 6.01232 5.03478 0
M  V30 9344 N 864.689 -1.48329 0.532571 0
M  V30 9345 C 865.919 -2.066 0.00353785 0
M  V30 9346 C 866.327 -1.38913 -1.28451 0
M  V30 9347 O 865.67 -0.471385 -1.77549 0
M  V30 9348 C 865.732 -3.58342 -0.288324 0
M  V30 9349 C 865.396 -4.47917 0.906631 0
M  V30 9350 C 866.393 -4.87534 1.80572 0
M  V30 9351 C 864.078 -4.89783 1.11436 0
M  V30 9352 C 866.072 -5.6779 2.89642 0
M  V30 9353 C 863.759 -5.69809 2.20819 0
M  V30 9354 C 864.757 -6.08721 3.09755 0
M  V30 9355 O 864.445 -6.8714 4.17246 0
M  V30 9356 H 864.177 -0.675263 0.0315661 0
M  V30 9357 H 866.731 -1.91669 0.738375 0
M  V30 9358 H 864.961 -3.71395 -1.07717 0
M  V30 9359 H 866.65 -3.98726 -0.759752 0
M  V30 9360 H 867.416 -4.5581 1.65719 0
M  V30 9361 H 863.295 -4.58977 0.431382 0
M  V30 9362 H 866.839 -5.98082 3.59087 0
M  V30 9363 H 862.736 -6.00947 2.35655 0
M  V30 9364 H 863.504 -7.05498 4.14988 0
M  V30 9365 N 866.167 -0.267825 -1.55308 0
M  V30 9366 C 867.097 0.616585 -2.25212 0
M  V30 9367 C 868.078 1.16472 -1.23969 0
M  V30 9368 O 869.263 1.20021 -1.52672 0
M  V30 9369 C 866.393 1.80412 -2.96764 0
M  V30 9370 C 865.347 1.38784 -4.04874 0
M  V30 9371 C 864.673 2.65789 -4.63961 0
M  V30 9372 C 865.973 0.543415 -5.19465 0
M  V30 9373 H 867.667 0.0336257 -2.99381 0
M  V30 9374 H 865.213 0.0147328 -1.43992 0
M  V30 9375 H 867.166 2.42866 -3.44375 0
M  V30 9376 H 865.89 2.4128 -2.20118 0
M  V30 9377 H 864.549 0.786541 -3.58063 0
M  V30 9378 H 864.197 3.24899 -3.83992 0
M  V30 9379 H 863.897 2.38651 -5.36954 0
M  V30 9380 H 865.421 3.29104 -5.14318 0
M  V30 9381 H 866.835 1.07277 -5.63174 0
M  V30 9382 H 865.232 0.367219 -5.98975 0
M  V30 9383 H 866.302 -0.439534 -4.82904 0
M  V30 9384 N 867.645 1.57599 0.00500368 0
M  V30 9385 C 868.873 1.94626 0.702016 0
M  V30 9386 C 869.288 0.86953 1.67585 0
M  V30 9387 O 868.645 -0.15199 1.81866 0
M  V30 9388 C 868.696 3.31658 1.43824 0
M  V30 9389 O 868.417 4.35197 0.503467 0
M  V30 9390 C 869.918 3.83114 2.23021 0
M  V30 9391 H 867.138 0.641785 0.195841 0
M  V30 9392 H 869.682 2.04451 -0.0446287 0
M  V30 9393 H 867.837 3.23156 2.13655 0
M  V30 9394 H 868.251 5.1444 1.02235 0
M  V30 9395 H 869.725 4.81438 2.7004 0
M  V30 9396 H 870.202 3.15559 3.05482 0
M  V30 9397 H 870.808 3.94775 1.58216 0
M  V30 9398 N 869.123 -0.277682 1.55134 0
M  V30 9399 C 870.033 -1.36524 1.90783 0
M  V30 9400 C 871.049 -1.54283 0.804542 0
M  V30 9401 O 872.225 -1.68499 1.10318 0
M  V30 9402 C 869.29 -2.70524 2.16835 0
M  V30 9403 C 868.351 -2.61552 3.40424 0
M  V30 9404 C 867.584 -3.89162 3.65224 0
M  V30 9405 O 867.807 -4.89624 2.92616 0
M  V30 9406 O 866.741 -3.89647 4.58758 0
M  V30 9407 H 870.567 -1.0929 2.83354 0
M  V30 9408 H 868.152 -0.475799 1.41621 0
M  V30 9409 H 870.034 -3.49765 2.35038 0
M  V30 9410 H 868.709 -2.97555 1.27448 0
M  V30 9411 H 867.616 -1.80704 3.27562 0
M  V30 9412 H 868.949 -2.39472 4.30016 0
M  V30 9413 N 870.601 -1.47988 -0.541979 0
M  V30 9414 C 871.549 -1.62044 -1.66867 0
M  V30 9415 C 872.543 -0.487217 -1.62242 0
M  V30 9416 O 873.749 -0.66554 -1.67244 0
M  V30 9417 H 870.124 -0.51024 -0.552412 0
M  V30 9418 H 872.095 -2.56695 -1.52153 0
M  V30 9419 C 870.844 -1.66615 -3.0518 0
M  V30 9420 H 870.167 -2.5317 -3.09427 0
M  V30 9421 H 871.607 -1.80496 -3.83663 0
M  V30 9422 C 870.066 -0.402421 -3.34488 0
M  V30 9423 O 870.596 0.48992 -3.98701 0
M  V30 9424 N 868.802 -0.277778 -2.89269 0
M  V30 9425 H 868.349 -1.00488 -2.37192 0
M  V30 9426 H 868.307 0.566784 -3.09249 0
M  V30 9427 N 872.079 0.78992 -1.36375 0
M  V30 9428 C 873.328 1.54296 -1.29906 0
M  V30 9429 C 873.641 1.95234 0.119651 0
M  V30 9430 O 874.847 2.69762 0.306708 0
M  V30 9431 C 873.303 2.78533 -2.27919 0
M  V30 9432 C 872.911 2.44767 -3.75224 0
M  V30 9433 C 874.655 3.56516 -2.30427 0
M  V30 9434 C 872.562 3.65397 -4.65015 0
M  V30 9435 H 871.492 0.579214 -0.482729 0
M  V30 9436 H 874.143 0.866845 -1.61735 0
M  V30 9437 H 872.525 3.47941 -1.89084 0
M  V30 9438 H 873.699 1.83259 -4.22792 0
M  V30 9439 H 872.014 1.79996 -3.75487 0
M  V30 9440 H 874.611 4.46143 -2.94722 0
M  V30 9441 H 874.954 3.95063 -1.31266 0
M  V30 9442 H 875.487 2.94087 -2.67876 0
M  V30 9443 H 872.226 3.31946 -5.65236 0
M  V30 9444 H 871.746 4.26072 -4.22164 0
M  V30 9445 H 873.425 4.32431 -4.81261 0
M  V30 9446 N 873.557 1.20646 1.01402 0
M  V30 9447 C 874.489 0.915392 2.10127 0
M  V30 9448 C 875.502 -0.0978705 1.62506 0
M  V30 9449 O 876.691 0.133477 1.78 0
M  V30 9450 C 873.791 0.351304 3.37074 0
M  V30 9451 C 872.964 1.41673 4.13821 0
M  V30 9452 C 872.023 0.8635 5.19067 0
M  V30 9453 O 871.049 1.54481 5.47836 0
M  V30 9454 N 872.251 -0.325799 5.79585 0
M  V30 9455 H 875.016 1.85132 2.35682 0
M  V30 9456 H 872.577 1.11048 1.17813 0
M  V30 9457 H 874.569 -0.032996 4.04687 0
M  V30 9458 H 873.139 -0.489242 3.08748 0
M  V30 9459 H 872.359 1.97526 3.41141 0
M  V30 9460 H 873.647 2.1342 4.61876 0
M  V30 9461 H 873.045 -0.896534 5.58551 0
M  V30 9462 H 871.602 -0.651708 6.48534 0
M  V30 9463 N 875.035 -1.20752 1.01276 0
M  V30 9464 C 876.451 -1.42084 0.726934 0
M  V30 9465 C 876.651 -1.89138 -0.694907 0
M  V30 9466 O 875.707 -2.05783 -1.4632 0
M  V30 9467 C 877.02 -2.44575 1.74938 0
M  V30 9468 C 878.568 -2.58347 1.76708 0
M  V30 9469 C 879.043 -3.64078 2.77869 0
M  V30 9470 N 880.534 -3.71558 2.76585 0
M  V30 9471 C 881.269 -4.53016 3.51517 0
M  V30 9472 N 880.765 -5.38309 4.36114 0
M  V30 9473 N 882.558 -4.47512 3.40132 0
M  V30 9474 H 874.709 -0.885228 1.93074 0
M  V30 9475 H 876.972 -0.451075 0.833808 0
M  V30 9476 H 876.678 -2.1699 2.76782 0
M  V30 9477 H 876.552 -3.43503 1.55838 0
M  V30 9478 H 878.939 -2.85265 0.755516 0
M  V30 9479 H 879.02 -1.59628 1.99882 0
M  V30 9480 H 878.664 -3.37905 3.79187 0
M  V30 9481 H 878.594 -4.62412 2.51958 0
M  V30 9482 H 881.085 -3.10629 2.15216 0
M  V30 9483 H 881.398 -5.9754 4.90068 0
M  V30 9484 H 879.743 -5.37824 4.40194 0
M  V30 9485 H 882.934 -3.79912 2.73467 0
M  V30 9486 H 883.107 -5.10759 3.98784 0
M  V30 9487 N 876.513 -0.788492 -1.36457 0
M  V30 9488 C 877.76 -0.360461 -1.99266 0
M  V30 9489 C 878.088 1.0676 -1.62581 0
M  V30 9490 O 877.343 1.75205 -0.871884 0
M  V30 9491 C 877.642 -0.470255 -3.54293 0
M  V30 9492 C 877.308 -1.85899 -4.10795 0
M  V30 9493 C 875.97 -2.23896 -4.25939 0
M  V30 9494 C 878.322 -2.76836 -4.41601 0
M  V30 9495 C 875.65 -3.52235 -4.69199 0
M  V30 9496 C 878.002 -4.04602 -4.86292 0
M  V30 9497 C 876.666 -4.42623 -4.99641 0
M  V30 9498 H 875.936 -0.131902 -0.729166 0
M  V30 9499 H 878.583 -1.00577 -1.62962 0
M  V30 9500 H 876.888 0.258559 -3.90946 0
M  V30 9501 H 878.585 -0.120119 -4.0082 0
M  V30 9502 H 875.175 -1.55372 -3.99447 0
M  V30 9503 H 879.359 -2.48735 -4.2947 0
M  V30 9504 H 874.615 -3.81565 -4.77722 0
M  V30 9505 H 878.789 -4.75182 -5.09092 0
M  V30 9506 H 876.416 -5.42125 -5.32921 0
M  V30 9507 N 877.991 1.48044 -0.54043 0
M  V30 9508 C 878.921 2.32597 0.205178 0
M  V30 9509 C 879.902 1.42748 0.925041 0
M  V30 9510 O 881.087 1.71624 0.908784 0
M  V30 9511 C 878.217 3.24175 1.24612 0
M  V30 9512 C 877.171 4.23131 0.64376 0
M  V30 9513 C 876.497 5.03915 1.78812 0
M  V30 9514 C 877.797 5.20831 -0.39144 0
M  V30 9515 H 879.491 2.95184 -0.500676 0
M  V30 9516 H 877.037 1.41948 -0.242225 0
M  V30 9517 H 878.99 3.82158 1.77576 0
M  V30 9518 H 877.714 2.59608 1.98169 0
M  V30 9519 H 876.373 3.66349 0.135554 0
M  V30 9520 H 876.021 4.35765 2.51232 0
M  V30 9521 H 875.721 5.709 1.39094 0
M  V30 9522 H 877.245 5.64753 2.32134 0
M  V30 9523 H 878.659 5.73277 0.0515064 0
M  V30 9524 H 877.056 5.95926 -0.706569 0
M  V30 9525 H 878.126 4.6733 -1.29345 0
M  V30 9526 N 879.47 0.276058 1.55163 0
M  V30 9527 C 880.881 -0.221516 1.85381 0
M  V30 9528 C 881.232 -1.55372 1.19808 0
M  V30 9529 O 880.357 -2.10855 0.486742 0
M  V30 9530 C 880.952 -0.408706 3.36326 0
M  V30 9531 C 879.511 -0.850512 3.66665 0
M  V30 9532 C 878.658 0.055656 2.77244 0
M  V30 9533 H 881.609 0.497819 1.5069 0
M  V30 9534 H 881.63 -1.24711 3.59482 0
M  V30 9535 H 881.142 0.561052 3.84023 0
M  V30 9536 H 879.243 -1.83171 3.24468 0
M  V30 9537 H 879.356 -0.687181 4.74146 0
M  V30 9538 H 877.72 -0.460819 2.50497 0
M  V30 9539 H 878.503 1.02131 3.27756 0
M  V30 9540 N 880.948 -1.576 0.00335426 0
M  V30 9541 C 881.896 -2.09759 -1.00517 0
M  V30 9542 C 882.89 -1.01833 -1.35375 0
M  V30 9543 O 884.096 -1.20294 -1.339 0
M  V30 9544 H 880.471 -0.669821 -0.341825 0
M  V30 9545 H 882.442 -2.93478 -0.539718 0
M  V30 9546 C 881.191 -2.6189 -2.28711 0
M  V30 9547 H 880.514 -3.44571 -2.02758 0
M  V30 9548 H 881.954 -3.02061 -2.97548 0
M  V30 9549 C 880.413 -1.53455 -2.99922 0
M  V30 9550 O 880.943 -0.919402 -3.91037 0
M  V30 9551 N 879.149 -1.2612 -2.61806 0
M  V30 9552 H 878.696 -1.76329 -1.87792 0
M  V30 9553 H 878.654 -0.537872 -3.09765 0
M  V30 9554 N 882.426 0.269451 -1.5528 0
M  V30 9555 C 883.837 0.840233 -1.66724 0
M  V30 9556 C 884.188 1.86909 -0.596621 0
M  V30 9557 O 883.313 2.14817 0.261246 0
M  V30 9558 C 883.908 1.5308 -3.02245 0
M  V30 9559 C 882.467 2.04957 -3.15705 0
M  V30 9560 C 881.614 0.892838 -2.62533 0
M  V30 9561 H 884.565 0.0457236 -1.58634 0
M  V30 9562 H 884.586 2.39792 -2.95432 0
M  V30 9563 H 884.098 0.781741 -3.80145 0
M  V30 9564 H 882.199 2.82813 -2.42585 0
M  V30 9565 H 882.312 2.26244 -4.22316 0
M  V30 9566 H 880.676 1.28719 -2.19781 0
M  V30 9567 H 881.459 0.157229 -3.4294 0
M  V30 9568 N 883.904 1.48273 0.534124 0
M  V30 9569 C 884.867 1.6201 1.62127 0
M  V30 9570 C 885.867 0.493653 1.53035 0
M  V30 9571 O 887.057 0.759337 1.56779 0
M  V30 9572 C 884.189 1.5864 3.01739 0
M  V30 9573 H 885.382 2.58944 1.51288 0
M  V30 9574 H 882.935 1.36808 0.755861 0
M  V30 9575 H 883.67 0.631685 3.18088 0
M  V30 9576 H 883.455 2.40415 3.09747 0
M  V30 9577 H 884.945 1.71438 3.80787 0
M  V30 9578 N 885.382 -0.782676 1.36792 0
M  V30 9579 C 886.63 -1.53778 1.31136 0
M  V30 9580 C 886.951 -1.94706 -0.107014 0
M  V30 9581 O 886.221 -1.65465 -1.04872 0
M  V30 9582 H 884.801 -0.570328 0.482426 0
M  V30 9583 H 887.463 -0.932181 1.71162 0
M  V30 9584 H 886.559 -2.44224 1.94321 0
M  V30 9585 N 886.86 -1.21182 -1.00761 0
M  V30 9586 C 888.106 -1.02898 -1.74756 0
M  V30 9587 C 888.439 0.436774 -1.89225 0
M  V30 9588 O 887.714 1.32415 -1.42466 0
M  V30 9589 C 887.997 -1.72372 -3.16164 0
M  V30 9590 C 887.85 -3.2645 -3.09435 0
M  V30 9591 C 889.169 -1.46415 -4.15031 0
M  V30 9592 H 886.288 -0.375214 -0.634337 0
M  V30 9593 H 888.93 -1.49321 -1.17487 0
M  V30 9594 H 887.08 -1.32906 -3.65059 0
M  V30 9595 H 888.752 -3.75269 -2.68274 0
M  V30 9596 H 886.995 -3.56889 -2.46603 0
M  V30 9597 H 887.666 -3.70226 -4.09435 0
M  V30 9598 H 890.142 -1.80671 -3.7483 0
M  V30 9599 H 889.018 -1.97544 -5.12121 0
M  V30 9600 H 889.279 -0.39361 -4.40344 0
M  V30 9601 N 888.338 1.20213 -1.01915 0
M  V30 9602 C 889.27 2.2251 -0.549725 0
M  V30 9603 C 890.283 1.58558 0.369235 0
M  V30 9604 O 891.472 1.77715 0.167176 0
M  V30 9605 C 888.572 3.38189 0.219432 0
M  V30 9606 C 887.745 4.31729 -0.702066 0
M  V30 9607 C 886.804 5.26196 0.0199624 0
M  V30 9608 O 885.83 5.65993 -0.60339 0
M  V30 9609 N 887.032 5.65895 1.29397 0
M  V30 9610 H 889.797 2.63412 -1.42948 0
M  V30 9611 H 887.358 1.3478 -0.896987 0
M  V30 9612 H 889.35 3.98392 0.711763 0
M  V30 9613 H 887.92 2.96156 1.00051 0
M  V30 9614 H 887.14 3.69455 -1.37466 0
M  V30 9615 H 888.428 4.91145 -1.3287 0
M  V30 9616 H 887.826 5.35579 1.8213 0
M  V30 9617 H 886.383 6.28395 1.73098 0
M  V30 9618 N 889.816 0.795718 1.36037 0
M  V30 9619 C 890.746 0.212803 2.32528 0
M  V30 9620 C 891.727 -0.655716 1.56953 0
M  V30 9621 O 892.912 -0.588238 1.85077 0
M  V30 9622 C 890.042 -0.648189 3.41198 0
M  V30 9623 C 888.996 0.120948 4.27829 0
M  V30 9624 C 888.322 -0.861044 5.27722 0
M  V30 9625 C 889.622 1.31375 5.05508 0
M  V30 9626 H 891.316 1.01893 2.81528 0
M  V30 9627 H 888.862 0.491422 1.35355 0
M  V30 9628 H 890.815 -1.06597 4.07695 0
M  V30 9629 H 889.539 -1.48709 2.9078 0
M  V30 9630 H 888.198 0.519777 3.62897 0
M  V30 9631 H 887.846 -1.69515 4.73575 0
M  V30 9632 H 887.546 -0.350808 5.86552 0
M  V30 9633 H 889.07 -1.27726 5.97092 0
M  V30 9634 H 890.484 0.971406 5.6501 0
M  V30 9635 H 888.881 1.75772 5.73781 0
M  V30 9636 H 889.951 2.10593 4.36782 0
M  V30 9637 N 891.294 -1.47756 0.548274 0
M  V30 9638 C 892.204 -2.33678 -0.207773 0
M  V30 9639 C 893.22 -1.47636 -0.920843 0
M  V30 9640 O 894.396 -1.80583 -0.89173 0
M  V30 9641 C 891.461 -3.24147 -1.23003 0
M  V30 9642 C 890.522 -4.26073 -0.52535 0
M  V30 9643 C 889.755 -5.12219 -1.4989 0
M  V30 9644 O 889.978 -5.0066 -2.73305 0
M  V30 9645 O 888.912 -5.93051 -1.02828 0
M  V30 9646 H 892.738 -2.99609 0.496794 0
M  V30 9647 H 890.323 -1.4617 0.308982 0
M  V30 9648 H 892.205 -3.80055 -1.82034 0
M  V30 9649 H 890.88 -2.60855 -1.91668 0
M  V30 9650 H 889.787 -3.7395 0.105927 0
M  V30 9651 H 891.12 -4.92054 0.119686 0
M  V30 9652 N 892.772 -0.284283 -1.55015 0
M  V30 9653 C 894.049 0.382125 -1.91831 0
M  V30 9654 C 894.429 1.73007 -1.20962 0
M  V30 9655 O 893.777 2.25962 -0.339594 0
M  V30 9656 C 893.987 0.513341 -3.45204 0
M  V30 9657 C 895.335 0.791989 -4.17148 0
M  V30 9658 O 896.359 0.597799 -3.51148 0
M  V30 9659 O 895.218 1.16394 -5.33961 0
M  V30 9660 H 892.312 0.210707 -0.799707 0
M  V30 9661 H 894.858 -0.331111 -1.66438 0
M  V30 9662 H 893.63 -0.434911 -3.88876 0
M  V30 9663 H 893.253 1.27569 -3.76579 0
M  V30 9664 N 894.251 1.57596 -0.0117121 0
M  V30 9665 C 895.662 1.79033 0.529521 0
M  V30 9666 C 896.013 0.920299 1.73277 0
M  V30 9667 O 895.138 0.125934 2.16033 0
M  V30 9668 C 895.733 3.24695 0.967405 0
M  V30 9669 C 894.292 3.47188 1.45387 0
M  V30 9670 C 893.439 2.74245 0.410466 0
M  V30 9671 H 896.39 1.56908 -0.237836 0
M  V30 9672 H 896.411 3.33451 1.83278 0
M  V30 9673 H 895.923 3.87992 0.0914605 0
M  V30 9674 H 894.024 2.89121 2.35032 0
M  V30 9675 H 894.137 4.55886 1.47325 0
M  V30 9676 H 892.501 2.39209 0.874721 0
M  V30 9677 H 893.284 3.40248 -0.456713 0
M  V30 9678 N 895.729 -0.261212 1.5542 0
M  V30 9679 C 896.639 -1.34493 1.92221 0
M  V30 9680 C 897.655 -1.53421 0.82086 0
M  V30 9681 O 898.831 -1.6732 1.12099 0
M  V30 9682 C 895.896 -2.68209 2.19692 0
M  V30 9683 C 894.957 -2.57927 3.43179 0
M  V30 9684 C 894.19 -3.85266 3.69331 0
M  V30 9685 O 894.413 -4.86493 2.97793 0
M  V30 9686 O 893.347 -3.8476 4.62865 0
M  V30 9687 H 897.173 -1.06278 2.84497 0
M  V30 9688 H 894.758 -0.460752 1.42118 0
M  V30 9689 H 896.64 -3.47252 2.38734 0
M  V30 9690 H 895.315 -2.96186 1.30597 0
M  V30 9691 H 894.222 -1.77219 3.2946 0
M  V30 9692 H 895.555 -2.34898 4.32532 0
M  V30 9693 N 897.207 -1.48554 -0.526253 0
M  V30 9694 C 898.454 -1.56761 -1.28188 0
M  V30 9695 C 898.782 -0.24315 -1.92974 0
M  V30 9696 O 898.037 0.766883 -1.80048 0
M  V30 9697 C 898.336 -2.65739 -2.38993 0
M  V30 9698 C 898.002 -4.08057 -1.91834 0
M  V30 9699 C 896.664 -4.46792 -1.78691 0
M  V30 9700 C 899.016 -4.9723 -1.56242 0
M  V30 9701 C 896.344 -5.72501 -1.28296 0
M  V30 9702 C 898.696 -6.23432 -1.07309 0
M  V30 9703 C 897.36 -6.6102 -0.927853 0
M  V30 9704 H 896.63 -0.573631 -0.469072 0
M  V30 9705 H 899.277 -1.82287 -0.586842 0
M  V30 9706 H 897.582 -2.34088 -3.14181 0
M  V30 9707 H 899.279 -2.69304 -2.97113 0
M  V30 9708 H 895.869 -3.77469 -2.03016 0
M  V30 9709 H 900.053 -4.67979 -1.65255 0
M  V30 9710 H 895.309 -6.00345 -1.15742 0
M  V30 9711 H 899.483 -6.91923 -0.788412 0
M  V30 9712 H 897.11 -7.58314 -0.535162 0
M  V30 9713 N 898.685 0.775411 -1.37205 0
M  V30 9714 C 899.617 1.89761 -1.28544 0
M  V30 9715 C 900.63 1.61542 -0.201996 0
M  V30 9716 O 901.819 1.72528 -0.457848 0
M  V30 9717 C 898.919 3.24904 -0.963885 0
M  V30 9718 C 898.092 3.80796 -2.15205 0
M  V30 9719 C 897.151 4.94407 -1.80135 0
M  V30 9720 O 896.177 5.10185 -2.52388 0
M  V30 9721 N 897.379 5.75722 -0.743298 0
M  V30 9722 H 900.144 1.97708 -2.25237 0
M  V30 9723 H 897.705 0.954348 -1.30782 0
M  V30 9724 H 899.697 3.9842 -0.710182 0
M  V30 9725 H 898.267 3.12483 -0.085632 0
M  V30 9726 H 897.487 2.99101 -2.56773 0
M  V30 9727 H 898.775 4.1487 -2.94552 0
M  V30 9728 H 898.173 5.65518 -0.143655 0
M  V30 9729 H 896.73 6.4948 -0.549446 0
M  V30 9730 N 900.163 1.21714 1.00117 0
M  V30 9731 C 901.126 0.981338 2.07129 0
M  V30 9732 C 902.126 -0.0491116 1.60725 0
M  V30 9733 O 903.316 0.188555 1.73177 0
M  V30 9734 C 900.448 0.480608 3.37495 0
M  V30 9735 H 901.641 1.93075 2.29482 0
M  V30 9736 H 899.194 1.03467 1.17151 0
M  V30 9737 H 899.929 -0.473552 3.20824 0
M  V30 9738 H 899.714 1.22393 3.72508 0
M  V30 9739 H 901.204 0.33561 4.16249 0
M  V30 9740 N 901.641 -1.19671 1.02551 0
M  V30 9741 C 902.866 -1.93774 0.739363 0
M  V30 9742 C 903.291 -1.74787 -0.695064 0
M  V30 9743 O 902.649 -1.04796 -1.47944 0
M  V30 9744 C 902.697 -3.43684 1.09149 0
M  V30 9745 O 901.801 -4.11874 0.208213 0
M  V30 9746 H 901.142 -0.605064 0.273484 0
M  V30 9747 H 903.672 -1.51846 1.37128 0
M  V30 9748 H 903.682 -3.94339 1.04695 0
M  V30 9749 H 902.357 -3.56826 2.13654 0
M  V30 9750 H 900.934 -3.716 0.311045 0
M  V30 9751 N 903.119 -0.802921 -1.35613 0
M  V30 9752 C 904.067 -0.198783 -2.31749 0
M  V30 9753 C 905.061 0.649416 -1.56458 0
M  V30 9754 O 906.267 0.542989 -1.71615 0
M  V30 9755 H 902.642 -0.0455177 -0.750621 0
M  V30 9756 H 904.613 -1.02479 -2.80251 0
M  V30 9757 C 903.362 0.641066 -3.41739 0
M  V30 9758 H 902.685 -0.00226244 -3.998 0
M  V30 9759 H 904.125 1.03022 -4.11294 0
M  V30 9760 C 902.584 1.80505 -2.84464 0
M  V30 9761 O 903.114 2.90235 -2.77717 0
M  V30 9762 N 901.32 1.61542 -2.41563 0
M  V30 9763 H 900.867 0.722863 -2.4725 0
M  V30 9764 H 900.825 2.39581 -2.03589 0
M  V30 9765 N 904.597 1.47463 -0.556102 0
M  V30 9766 C 905.846 2.01678 -0.029492 0
M  V30 9767 C 906.159 1.436 1.32809 0
M  V30 9768 O 907.365 1.89472 1.94455 0
M  V30 9769 C 905.821 3.599 -0.00223937 0
M  V30 9770 C 905.429 4.26969 -1.35651 0
M  V30 9771 C 907.173 4.2187 0.471822 0
M  V30 9772 C 905.08 5.77194 -1.28843 0
M  V30 9773 H 904.01 0.753965 -0.00725504 0
M  V30 9774 H 906.661 1.69467 -0.703789 0
M  V30 9775 H 905.043 3.89068 0.737682 0
M  V30 9776 H 906.217 4.09444 -2.11406 0
M  V30 9777 H 904.532 3.76983 -1.76842 0
M  V30 9778 H 907.129 5.31955 0.541139 0
M  V30 9779 H 907.472 3.88968 1.48356 0
M  V30 9780 H 908.005 3.97228 -0.213207 0
M  V30 9781 H 904.744 6.14713 -2.27613 0
M  V30 9782 H 904.264 5.9706 -0.572668 0
M  V30 9783 H 905.943 6.3938 -0.990031 0
M  V30 9784 N 906.075 0.2925 1.54862 0
M  V30 9785 C 907.008 -0.629155 2.19356 0
M  V30 9786 C 907.986 -1.13927 1.16014 0
M  V30 9787 O 909.17 -1.20904 1.44618 0
M  V30 9788 C 906.297 -1.8599 2.83064 0
M  V30 9789 C 905.343 -1.48376 3.99859 0
M  V30 9790 S 906.176 -0.546976 5.32699 0
M  V30 9791 C 907.332 -1.7857 5.99886 0
M  V30 9792 H 907.565 -0.0812166 2.97189 0
M  V30 9793 H 905.098 0.0766721 1.5421 0
M  V30 9794 H 907.056 -2.56623 3.20398 0
M  V30 9795 H 905.717 -2.37899 2.05092 0
M  V30 9796 H 904.91 -2.40002 4.43187 0
M  V30 9797 H 904.512 -0.857447 3.64038 0
M  V30 9798 H 906.804 -2.7274 6.20177 0
M  V30 9799 H 907.747 -1.39513 6.9422 0
M  V30 9800 H 908.155 -1.95856 5.29434 0
M  V30 9801 N 907.553 -1.57587 0.0200696 0
M  V30 9802 C 908.503 -2.0616 -0.973751 0
M  V30 9803 C 909.487 -0.960282 -1.29102 0
M  V30 9804 O 910.679 -1.22391 -1.27865 0
M  V30 9805 C 907.808 -2.58487 -2.25919 0
M  V30 9806 C 906.894 -3.75533 -1.97068 0
M  V30 9807 N 907.285 -4.86482 -1.38451 0
M  V30 9808 C 905.583 -3.83847 -2.27107 0
M  V30 9809 C 906.284 -5.67773 -1.26527 0
M  V30 9810 N 905.26 -5.14398 -1.75772 0
M  V30 9811 H 909.062 -2.89346 -0.515365 0
M  V30 9812 H 906.576 -1.61341 -0.185163 0
M  V30 9813 H 908.573 -2.91572 -2.97979 0
M  V30 9814 H 907.233 -1.76728 -2.72392 0
M  V30 9815 H 908.244 -5.06922 -1.06069 0
M  V30 9816 H 904.921 -3.12978 -2.76316 0
M  V30 9817 H 906.311 -6.66966 -0.812785 0
M  V30 9818 N 909.032 0.252966 -1.55557 0
M  V30 9819 C 910.257 1.0038 -1.8149 0
M  V30 9820 C 910.682 1.78397 -0.596318 0
M  V30 9821 O 910.04 1.7551 0.454535 0
M  V30 9822 C 910.088 1.9222 -3.05096 0
M  V30 9823 O 909.192 3.01302 -2.81587 0
M  V30 9824 H 908.533 0.285949 -0.599274 0
M  V30 9825 H 911.063 0.275795 -2.02733 0
M  V30 9826 H 911.073 2.338 -3.34368 0
M  V30 9827 H 909.748 1.34852 -3.93431 0
M  V30 9828 H 908.325 2.63894 -2.63466 0
M  V30 9829 N 910.51 1.48831 0.518367 0
M  V30 9830 C 911.759 1.5669 1.27008 0
M  V30 9831 C 912.072 0.250934 1.93984 0
M  V30 9832 O 913.278 0.207884 2.70703 0
M  V30 9833 C 911.734 2.76387 2.30517 0
M  V30 9834 C 911.342 4.14673 1.69559 0
M  V30 9835 C 913.086 2.93566 3.06625 0
M  V30 9836 C 910.993 5.25616 2.71076 0
M  V30 9837 H 909.923 0.583362 0.477708 0
M  V30 9838 H 912.574 1.75187 0.546052 0
M  V30 9839 H 910.956 2.51348 3.06006 0
M  V30 9840 H 912.13 4.49779 1.00179 0
M  V30 9841 H 910.445 4.02708 1.05902 0
M  V30 9842 H 913.042 3.7362 3.82508 0
M  V30 9843 H 913.385 2.03462 3.63193 0
M  V30 9844 H 913.918 3.18562 2.38251 0
M  V30 9845 H 910.657 6.17723 2.19313 0
M  V30 9846 H 910.177 4.94985 3.38748 0
M  V30 9847 H 911.856 5.5422 3.3384 0
M  V30 9848 N 911.988 -0.768124 1.37614 0
M  V30 9849 C 912.936 -1.9029 1.33763 0
M  V30 9850 C 913.93 -1.67888 0.225814 0
M  V30 9851 O 915.136 -1.75634 0.394043 0
M  V30 9852 H 911.511 -0.625828 0.416945 0
M  V30 9853 H 913.482 -1.90654 2.29551 0
M  V30 9854 C 912.231 -3.27598 1.16511 0
M  V30 9855 H 911.554 -3.45414 2.01318 0
M  V30 9856 H 912.994 -4.07288 1.17867 0
M  V30 9857 C 911.453 -3.36653 -0.129001 0
M  V30 9858 O 911.983 -3.86023 -1.11128 0
M  V30 9859 N 910.189 -2.90036 -0.180926 0
M  V30 9860 H 909.736 -2.5005 0.619076 0
M  V30 9861 H 909.694 -2.96475 -1.04641 0
M  V30 9862 N 913.466 -1.22244 -0.994698 0
M  V30 9863 C 914.714 -1.04384 -1.73056 0
M  V30 9864 C 915.035 0.422204 -1.90374 0
M  V30 9865 O 914.305 1.30383 -1.46209 0
M  V30 9866 H 912.885 -0.383263 -0.641185 0
M  V30 9867 H 915.547 -1.53725 -1.1981 0
M  V30 9868 H 914.643 -1.52021 -2.72573 0
M  V30 9869 N 914.944 1.19125 -1.03184 0
M  V30 9870 C 916.174 1.92558 -0.748663 0
M  V30 9871 C 916.582 1.759 0.696837 0
M  V30 9872 O 915.925 1.08019 1.48585 0
M  V30 9873 C 915.987 3.4461 -1.02391 0
M  V30 9874 C 915.651 3.85041 -2.46155 0
M  V30 9875 C 916.648 3.89554 -3.44302 0
M  V30 9876 C 914.333 4.16594 -2.80633 0
M  V30 9877 C 916.327 4.25055 -4.74981 0
M  V30 9878 C 914.014 4.51767 -4.11521 0
M  V30 9879 C 915.012 4.55972 -5.08506 0
M  V30 9880 O 914.7 4.9033 -6.37049 0
M  V30 9881 H 914.432 0.618397 -0.273059 0
M  V30 9882 H 916.986 1.52122 -1.38015 0
M  V30 9883 H 915.216 3.85244 -0.335284 0
M  V30 9884 H 916.905 3.99283 -0.729927 0
M  V30 9885 H 917.671 3.65324 -3.19003 0
M  V30 9886 H 913.55 4.12503 -2.05821 0
M  V30 9887 H 917.094 4.28252 -5.50678 0
M  V30 9888 H 912.991 4.75455 -4.36592 0
M  V30 9889 H 913.759 5.08266 -6.41566 0
M  V30 9890 N 916.422 0.810101 1.35185 0
M  V30 9891 C 917.668 0.392698 1.98962 0
M  V30 9892 C 918.001 -1.03835 1.64109 0
M  V30 9893 O 917.276 -1.721 0.9062 0
M  V30 9894 C 917.559 0.580349 3.55393 0
M  V30 9895 C 917.412 2.05658 4.00031 0
M  V30 9896 C 918.731 0.00822618 4.40099 0
M  V30 9897 H 915.85 0.144157 0.722764 0
M  V30 9898 H 918.492 1.02029 1.60281 0
M  V30 9899 H 916.642 0.0461106 3.88473 0
M  V30 9900 H 918.314 2.65348 3.77344 0
M  V30 9901 H 916.557 2.55174 3.50811 0
M  V30 9902 H 917.228 2.13875 5.08883 0
M  V30 9903 H 919.704 0.464517 4.13499 0
M  V30 9904 H 918.58 0.169414 5.48638 0
M  V30 9905 H 918.841 -1.08576 4.2856 0
M  V30 9906 N 917.9 -1.47166 0.563914 0
M  V30 9907 C 919.147 -2.02456 0.042371 0
M  V30 9908 C 919.475 -1.43753 -1.31016 0
M  V30 9909 O 918.73 -0.585287 -1.86743 0
M  V30 9910 C 919.029 -3.57279 -0.0931797 0
M  V30 9911 C 918.695 -4.34932 1.18933 0
M  V30 9912 C 917.357 -4.55867 1.54073 0
M  V30 9913 C 919.709 -4.79665 2.03889 0
M  V30 9914 C 917.037 -5.18785 2.74005 0
M  V30 9915 C 919.389 -5.43907 3.23029 0
M  V30 9916 C 918.053 -5.63074 3.58475 0
M  V30 9917 H 917.323 -0.740838 0.0155047 0
M  V30 9918 H 919.97 -1.76759 0.736776 0
M  V30 9919 H 918.275 -3.82005 -0.870596 0
M  V30 9920 H 919.972 -3.97716 -0.512176 0
M  V30 9921 H 916.562 -4.18921 0.905718 0
M  V30 9922 H 920.746 -4.63264 1.78046 0
M  V30 9923 H 916.002 -5.31818 3.01628 0
M  V30 9924 H 920.176 -5.77531 3.89141 0
M  V30 9925 H 917.803 -6.11598 4.515 0
M  V30 9926 N 919.378 -0.300708 -1.54705 0
M  V30 9927 C 920.655 0.361757 -1.92226 0
M  V30 9928 C 921.035 1.71714 -1.2279 0
M  V30 9929 O 920.383 2.2559 -0.363542 0
M  V30 9930 C 920.593 0.476699 -3.45729 0
M  V30 9931 C 921.941 0.7477 -4.17965 0
M  V30 9932 O 922.965 0.560521 -3.51762 0
M  V30 9933 O 921.824 1.10724 -5.35166 0
M  V30 9934 H 918.918 0.202213 -0.801897 0
M  V30 9935 H 921.464 -0.348746 -1.66078 0
M  V30 9936 H 920.236 -0.476132 -3.88392 0
M  V30 9937 H 919.859 1.23568 -3.77911 0
M  V30 9938 N 920.856 1.57574 -0.0284266 0
M  V30 9939 C 922.081 1.96479 0.664137 0
M  V30 9940 C 922.506 0.904826 1.64908 0
M  V30 9941 O 921.864 -0.134339 1.80802 0
M  V30 9942 C 921.912 3.34479 1.34745 0
M  V30 9943 O 921.016 3.30794 2.46271 0
M  V30 9944 H 920.357 0.640654 0.174524 0
M  V30 9945 H 922.887 2.04402 -0.0900729 0
M  V30 9946 H 922.897 3.70694 1.7044 0
M  V30 9947 H 921.572 4.1117 0.625468 0
M  V30 9948 H 920.149 3.06294 2.12693 0
M  V30 9949 N 922.334 -0.244713 1.55689 0
M  V30 9950 C 923.264 -1.30667 1.93516 0
M  V30 9951 C 924.245 -1.50094 0.800371 0
M  V30 9952 O 925.43 -1.62665 1.06083 0
M  V30 9953 C 922.56 -2.66101 2.23176 0
M  V30 9954 C 921.514 -2.61366 3.38927 0
M  V30 9955 C 920.84 -4.00616 3.54134 0
M  V30 9956 C 922.14 -2.18161 4.74555 0
M  V30 9957 H 923.834 -0.992546 2.82469 0
M  V30 9958 H 921.38 -0.476018 1.35905 0
M  V30 9959 H 923.333 -3.4053 2.48228 0
M  V30 9960 H 922.057 -2.99154 1.31051 0
M  V30 9961 H 920.716 -1.89395 3.13887 0
M  V30 9962 H 920.364 -4.30938 2.59426 0
M  V30 9963 H 920.064 -3.98335 4.31975 0
M  V30 9964 H 921.588 -4.76741 3.8151 0
M  V30 9965 H 923.002 -2.82323 4.98965 0
M  V30 9966 H 921.399 -2.26988 5.55515 0
M  V30 9967 H 922.469 -1.13333 4.7147 0
M  V30 9968 N 923.813 -1.49104 -0.510467 0
M  V30 9969 C 924.745 -1.61183 -1.6295 0
M  V30 9970 C 925.758 -0.495003 -1.55092 0
M  V30 9971 O 926.947 -0.766671 -1.61197 0
M  V30 9972 C 924.047 -1.54373 -3.01699 0
M  V30 9973 C 923.22 -2.81428 -3.34838 0
M  V30 9974 C 922.279 -2.67802 -4.52956 0
M  V30 9975 O 921.305 -3.41723 -4.55208 0
M  V30 9976 N 922.507 -1.78715 -5.52305 0
M  V30 9977 H 925.272 -2.57693 -1.53018 0
M  V30 9978 H 922.833 -1.46073 -0.698152 0
M  V30 9979 H 924.825 -1.42924 -3.78622 0
M  V30 9980 H 923.395 -0.657597 -3.05605 0
M  V30 9981 H 922.615 -3.07299 -2.46903 0
M  V30 9982 H 923.903 -3.6568 -3.53773 0
M  V30 9983 H 923.301 -1.17897 -5.53278 0
M  V30 9984 H 921.858 -1.73194 -6.28369 0
M  V30 9985 N 925.291 0.760815 -1.38019 0
M  V30 9986 C 926.221 1.88811 -1.37377 0
M  V30 9987 C 927.202 1.68388 -0.240737 0
M  V30 9988 O 928.387 1.89086 -0.442739 0
M  V30 9989 C 925.517 3.26244 -1.1909 0
M  V30 9990 C 924.471 3.61254 -2.29521 0
M  V30 9991 C 923.797 4.97346 -1.96345 0
M  V30 9992 C 925.097 3.66874 -3.71753 0
M  V30 9993 H 926.791 1.89606 -2.31711 0
M  V30 9994 H 924.337 0.910818 -1.11535 0
M  V30 9995 H 926.29 4.04755 -1.17267 0
M  V30 9996 H 925.014 3.2591 -0.212152 0
M  V30 9997 H 923.673 2.85057 -2.30517 0
M  V30 9998 H 923.321 4.93564 -0.969728 0
M  V30 9999 H 923.021 5.21739 -2.703 0
M  V30 10000 H 924.545 5.78244 -1.96129 0
M  V30 10001 H 925.959 4.35514 -3.72828 0
M  V30 10002 H 924.356 4.02772 -4.44853 0
M  V30 10003 H 925.426 2.67273 -4.0459 0
M  V30 10004 N 926.769 1.22769 0.988202 0
M  V30 10005 C 927.994 1.08239 1.76915 0
M  V30 10006 C 928.419 -0.362519 1.84574 0
M  V30 10007 O 927.777 -1.26202 1.30165 0
M  V30 10008 C 927.825 1.70363 3.17819 0
M  V30 10009 O 926.929 0.960484 4.01059 0
M  V30 10010 H 926.27 0.379872 0.544604 0
M  V30 10011 H 928.8 1.62663 1.24104 0
M  V30 10012 H 928.81 1.7528 3.6843 0
M  V30 10013 H 927.485 2.75505 3.1156 0
M  V30 10014 H 926.062 0.987667 3.59582 0
M  V30 10015 N 928.247 -1.18576 1.03814 0
M  V30 10016 C 929.493 -1.88773 0.741132 0
M  V30 10017 C 929.826 -1.79993 -0.729127 0
M  V30 10018 O 929.101 -1.19851 -1.53186 0
M  V30 10019 C 929.384 -3.39352 1.20468 0
M  V30 10020 C 929.237 -3.56955 2.73684 0
M  V30 10021 C 930.556 -4.32901 0.792741 0
M  V30 10022 H 927.675 -0.685482 0.270708 0
M  V30 10023 H 930.317 -1.39523 1.2897 0
M  V30 10024 H 928.467 -3.81427 0.737974 0
M  V30 10025 H 930.139 -3.2399 3.28372 0
M  V30 10026 H 928.382 -2.99696 3.13632 0
M  V30 10027 H 929.053 -4.62598 3.01176 0
M  V30 10028 H 931.529 -3.98592 1.1943 0
M  V30 10029 H 930.405 -5.36828 1.14486 0
M  V30 10030 H 930.666 -4.41052 -0.304295 0
M  V30 10031 N 929.725 -0.817259 -1.34754 0
M  V30 10032 C 930.965 -0.408429 -2.00278 0
M  V30 10033 C 931.329 1.00818 -1.634 0
M  V30 10034 O 932.53 1.51959 -2.21725 0
M  V30 10035 C 930.801 -0.598219 -3.52358 0
M  V30 10036 S 932.36 -0.281395 -4.37897 0
M  V30 10037 H 929.178 -0.154587 -0.693991 0
M  V30 10038 H 931.78 -1.06184 -1.6415 0
M  V30 10039 H 930.484 -1.62901 -3.76685 0
M  V30 10040 H 930.015 0.0701299 -3.93337 0
M  V30 10041 H 932.03 0.907024 -4.8784 0
M  V30 10042 N 931.203 1.46865 -0.571711 0
M  V30 10043 C 932.133 2.3298 0.155795 0
M  V30 10044 C 933.114 1.44678 0.894553 0
M  V30 10045 O 934.299 1.73513 0.872176 0
M  V30 10046 C 931.429 3.26745 1.17708 0
M  V30 10047 C 930.383 4.24401 0.553863 0
M  V30 10048 C 929.709 5.07595 1.68083 0
M  V30 10049 C 931.009 5.19884 -0.501827 0
M  V30 10050 H 932.703 2.94056 -0.563176 0
M  V30 10051 H 930.249 1.41402 -0.27228 0
M  V30 10052 H 932.202 3.85838 1.6943 0
M  V30 10053 H 930.926 2.63753 1.92618 0
M  V30 10054 H 929.585 3.66554 0.057815 0
M  V30 10055 H 929.233 4.40996 2.41933 0
M  V30 10056 H 928.933 5.73722 1.26953 0
M  V30 10057 H 930.457 5.6955 2.20103 0
M  V30 10058 H 931.871 5.73257 -0.0701057 0
M  V30 10059 H 930.268 5.94293 -0.832815 0
M  V30 10060 H 931.338 4.64482 -1.39229 0
M  V30 10061 N 932.681 0.308908 1.54543 0
M  V30 10062 C 933.631 -0.578902 2.20528 0
M  V30 10063 C 934.615 -1.09288 1.18088 0
M  V30 10064 O 935.807 -1.03234 1.43777 0
M  V30 10065 C 932.936 -1.74649 2.95555 0
M  V30 10066 C 932.022 -1.24809 4.05319 0
M  V30 10067 N 932.413 -0.46828 5.03628 0
M  V30 10068 C 930.711 -1.52813 4.19004 0
M  V30 10069 C 931.412 -0.201896 5.8135 0
M  V30 10070 N 930.388 -0.783927 5.37918 0
M  V30 10071 H 934.19 0.0243496 2.9389 0
M  V30 10072 H 931.704 0.114049 1.61999 0
M  V30 10073 H 933.701 -2.39414 3.41301 0
M  V30 10074 H 932.361 -2.35336 2.23712 0
M  V30 10075 H 933.372 -0.112453 5.17778 0
M  V30 10076 H 930.049 -2.14191 3.58369 0
M  V30 10077 H 931.439 0.424929 6.70555 0
M  V30 10078 N 934.159 -1.57557 0.0367827 0
M  V30 10079 C 935.069 -2.14148 -0.958017 0
M  V30 10080 C 936.085 -1.09564 -1.35173 0
M  V30 10081 O 937.261 -1.4166 -1.43158 0
M  V30 10082 C 934.326 -2.6636 -2.21931 0
M  V30 10083 C 933.387 -3.85688 -1.8853 0
M  V30 10084 C 932.62 -4.35401 -3.08645 0
M  V30 10085 O 932.843 -3.8425 -4.21554 0
M  V30 10086 O 931.777 -5.27158 -2.90497 0
M  V30 10087 H 935.603 -2.99442 -0.506797 0
M  V30 10088 H 933.188 -1.48259 -0.184275 0
M  V30 10089 H 935.07 -2.99976 -2.9596 0
M  V30 10090 H 933.745 -1.84145 -2.66219 0
M  V30 10091 H 932.652 -3.56985 -1.11861 0
M  V30 10092 H 933.985 -4.69089 -1.49052 0
M  V30 10093 N 935.637 0.236453 -1.55816 0
M  V30 10094 C 936.883 0.964439 -1.784 0
M  V30 10095 C 937.216 1.84573 -0.603868 0
M  V30 10096 O 936.491 1.90395 0.397473 0
M  V30 10097 C 936.774 1.81608 -3.10951 0
M  V30 10098 C 936.627 0.962283 -4.39386 0
M  V30 10099 C 937.946 2.79665 -3.39817 0
M  V30 10100 H 935.065 0.349192 -0.649026 0
M  V30 10101 H 937.707 0.234247 -1.8855 0
M  V30 10102 H 935.857 2.43864 -3.02428 0
M  V30 10103 H 937.529 0.35762 -4.59912 0
M  V30 10104 H 935.772 0.267062 -4.32977 0
M  V30 10105 H 936.443 1.59222 -5.28538 0
M  V30 10106 H 938.919 2.27546 -3.4837 0
M  V30 10107 H 937.795 3.36367 -4.33761 0
M  V30 10108 H 938.056 3.56657 -2.61244 0
M  V30 10109 N 937.115 1.49373 0.502552 0
M  V30 10110 C 938.078 1.65413 1.58654 0
M  V30 10111 C 939.078 0.526003 1.51953 0
M  V30 10112 O 940.268 0.792421 1.55133 0
M  V30 10113 C 937.4 1.65005 2.98306 0
M  V30 10114 H 938.593 2.62095 1.45762 0
M  V30 10115 H 936.146 1.38381 0.726672 0
M  V30 10116 H 936.881 0.699014 3.16677 0
M  V30 10117 H 936.666 2.46931 3.04578 0
M  V30 10118 H 938.156 1.79477 3.77065 0
M  V30 10119 N 938.594 -0.753485 1.38421 0
M  V30 10120 C 939.824 -1.54049 1.37669 0
M  V30 10121 C 940.232 -1.89167 -0.0353656 0
M  V30 10122 O 939.575 -1.53285 -1.01239 0
M  V30 10123 C 939.637 -2.86777 2.16793 0
M  V30 10124 C 939.301 -2.74196 3.65603 0
M  V30 10125 C 940.298 -2.43985 4.59094 0
M  V30 10126 C 937.983 -2.91645 4.0896 0
M  V30 10127 C 939.977 -2.31379 5.93921 0
M  V30 10128 C 937.664 -2.78658 5.43868 0
M  V30 10129 C 938.662 -2.48568 6.36163 0
M  V30 10130 O 938.35 -2.3564 7.68589 0
M  V30 10131 H 938.082 -0.483276 0.472673 0
M  V30 10132 H 940.636 -0.940267 1.82615 0
M  V30 10133 H 938.866 -3.48988 1.66565 0
M  V30 10134 H 940.555 -3.48289 2.08446 0
M  V30 10135 H 941.321 -2.30172 4.26902 0
M  V30 10136 H 937.2 -3.14063 3.37469 0
M  V30 10137 H 940.744 -2.07813 6.65927 0
M  V30 10138 H 936.641 -2.92044 5.75656 0
M  V30 10139 H 937.409 -2.50851 7.79112 0
M  V30 10140 N 940.072 -1.23292 -0.981677 0
M  V30 10141 C 941.318 -1.07588 -1.72616 0
M  V30 10142 C 941.673 0.383441 -1.8854 0
M  V30 10143 O 940.966 1.28006 -1.42566 0
M  V30 10144 C 941.16 -1.73339 -3.12551 0
M  V30 10145 C 940.989 -3.25514 -3.10275 0
M  V30 10146 C 939.759 -3.9467 -3.15537 0
M  V30 10147 C 941.957 -4.223 -2.93543 0
M  V30 10148 N 939.939 -5.33839 -3.03133 0
M  V30 10149 C 941.31 -5.48373 -2.89287 0
M  V30 10150 C 943.365 -4.1305 -2.78018 0
M  V30 10151 C 942.068 -6.66258 -2.71095 0
M  V30 10152 C 944.094 -5.30598 -2.6119 0
M  V30 10153 C 943.456 -6.55596 -2.57631 0
M  V30 10154 H 939.555 -0.448215 -0.640802 0
M  V30 10155 H 942.139 -1.56001 -1.16498 0
M  V30 10156 H 940.31 -1.2746 -3.6689 0
M  V30 10157 H 942.042 -1.50624 -3.75626 0
M  V30 10158 H 938.797 -3.45741 -3.23666 0
M  V30 10159 H 939.221 -6.06798 -3.00209 0
M  V30 10160 H 943.863 -3.17184 -2.7956 0
M  V30 10161 H 941.581 -7.62261 -2.68297 0
M  V30 10162 H 945.167 -5.25281 -2.50143 0
M  V30 10163 H 944.047 -7.45021 -2.44772 0
M  V30 10164 N 941.55 1.18024 -1.04442 0
M  V30 10165 C 942.78 1.91753 -0.769044 0
M  V30 10166 C 943.188 1.76629 0.678141 0
M  V30 10167 O 942.531 1.09589 1.47431 0
M  V30 10168 C 942.593 3.43505 -1.0604 0
M  V30 10169 C 942.257 3.82409 -2.50225 0
M  V30 10170 C 943.254 3.8588 -3.48414 0
M  V30 10171 C 940.939 4.13594 -2.85036 0
M  V30 10172 C 942.933 4.19993 -4.79463 0
M  V30 10173 C 940.62 4.47377 -4.1629 0
M  V30 10174 C 941.618 4.50553 -5.13314 0
M  V30 10175 O 941.306 4.83546 -6.42214 0
M  V30 10176 H 941.038 0.615466 -0.279603 0
M  V30 10177 H 943.592 1.5065 -1.3962 0
M  V30 10178 H 941.822 3.84866 -0.376125 0
M  V30 10179 H 943.511 3.98486 -0.772235 0
M  V30 10180 H 944.277 3.6192 -3.2286 0
M  V30 10181 H 940.156 4.10297 -2.10185 0
M  V30 10182 H 943.7 4.22387 -5.55189 0
M  V30 10183 H 939.597 4.70798 -4.4161 0
M  V30 10184 H 940.365 5.01433 -6.46921 0
M  V30 10185 N 943.028 0.824394 1.34319 0
M  V30 10186 C 944.277 0.40956 1.97498 0
M  V30 10187 C 944.59 -1.03323 1.66083 0
M  V30 10188 O 945.796 -1.55205 2.22764 0
M  V30 10189 C 944.252 0.681384 3.53391 0
M  V30 10190 C 943.86 2.1379 3.93698 0
M  V30 10191 C 945.604 0.332788 4.23194 0
M  V30 10192 C 943.511 2.35453 5.42509 0
M  V30 10193 H 942.441 0.149409 0.739049 0
M  V30 10194 H 945.092 1.01095 1.5314 0
M  V30 10195 H 943.474 0.00980375 3.95999 0
M  V30 10196 H 944.648 2.84876 3.62191 0
M  V30 10197 H 942.963 2.44807 3.36836 0
M  V30 10198 H 945.56 0.472463 5.32609 0
M  V30 10199 H 945.903 -0.722862 4.09976 0
M  V30 10200 H 946.436 0.959005 3.86067 0
M  V30 10201 H 943.175 3.39529 5.60714 0
M  V30 10202 H 942.695 1.68912 5.75525 0
M  V30 10203 H 944.374 2.17885 6.09209 0
M  V30 10204 N 944.506 -1.46559 0.579492 0
M  V30 10205 C 945.436 -2.33059 -0.143437 0
M  V30 10206 C 946.417 -1.4515 -0.886868 0
M  V30 10207 O 947.602 -1.73973 -0.862961 0
M  V30 10208 C 944.732 -3.27364 -1.15973 0
M  V30 10209 C 943.686 -4.24689 -0.531348 0
M  V30 10210 C 943.012 -5.08479 -1.65388 0
M  V30 10211 C 944.312 -5.1961 0.529391 0
M  V30 10212 H 946.006 -2.93753 0.578762 0
M  V30 10213 H 943.552 -1.41256 0.279775 0
M  V30 10214 H 945.505 -3.86732 -1.67382 0
M  V30 10215 H 944.229 -2.64771 -1.91217 0
M  V30 10216 H 942.888 -3.6658 -0.0383749 0
M  V30 10217 H 942.536 -4.42273 -2.3959 0
M  V30 10218 H 942.236 -5.74387 -1.23909 0
M  V30 10219 H 943.76 -5.70709 -2.17079 0
M  V30 10220 H 945.174 -5.73212 0.100506 0
M  V30 10221 H 943.571 -5.93843 0.86432 0
M  V30 10222 H 944.641 -4.63737 1.4169 0
M  V30 10223 N 945.984 -0.3171 -1.54377 0
M  V30 10224 C 947.209 0.292311 -2.0533 0
M  V30 10225 C 947.634 1.45503 -1.19207 0
M  V30 10226 O 946.992 1.80197 -0.199721 0
M  V30 10227 C 947.04 0.710787 -3.53525 0
M  V30 10228 O 946.144 1.81387 -3.70368 0
M  V30 10229 H 945.485 0.0539976 -0.661801 0
M  V30 10230 H 948.015 -0.463629 -1.99278 0
M  V30 10231 H 948.025 0.995216 -3.95676 0
M  V30 10232 H 946.7 -0.139668 -4.15665 0
M  V30 10233 H 945.277 1.52875 -3.40123 0
M  V30 10234 N 947.462 1.57535 -0.0451378 0
M  V30 10235 C 948.711 1.91628 0.629415 0
M  V30 10236 C 949.024 0.924754 1.72359 0
M  V30 10237 O 950.23 1.15751 2.45589 0
M  V30 10238 C 948.686 3.40322 1.17084 0
M  V30 10239 C 948.294 4.47867 0.109101 0
M  V30 10240 C 950.038 3.83458 1.82099 0
M  V30 10241 C 947.945 5.87671 0.663072 0
M  V30 10242 H 946.875 0.715163 0.238868 0
M  V30 10243 H 949.526 1.83151 -0.113046 0
M  V30 10244 H 947.908 3.43783 1.96543 0
M  V30 10245 H 949.082 4.55988 -0.664201 0
M  V30 10246 H 947.397 4.14034 -0.443227 0
M  V30 10247 H 949.994 4.85273 2.2453 0
M  V30 10248 H 950.337 3.19379 2.67026 0
M  V30 10249 H 950.87 3.82488 1.09305 0
M  V30 10250 H 947.609 6.55332 -0.148423 0
M  V30 10251 H 947.129 5.83124 1.4045 0
M  V30 10252 H 948.808 6.36737 1.14785 0
M  V30 10253 N 948.94 -0.228186 1.55939 0
M  V30 10254 C 950.188 -0.951668 1.78291 0
M  V30 10255 C 950.509 -1.85132 0.612474 0
M  V30 10256 O 949.779 -1.92356 -0.370942 0
M  V30 10257 H 948.359 -0.354388 0.657585 0
M  V30 10258 H 951.021 -0.241635 1.93396 0
M  V30 10259 H 950.117 -1.56239 2.70177 0
M  V30 10260 N 950.418 -1.49637 -0.494624 0
M  V30 10261 C 951.381 -1.66252 -1.57775 0
M  V30 10262 C 952.381 -0.534054 -1.51672 0
M  V30 10263 O 953.571 -0.800637 -1.54711 0
M  V30 10264 C 950.703 -1.66584 -2.97426 0
M  V30 10265 H 951.896 -2.62864 -1.4437 0
M  V30 10266 H 949.449 -1.38764 -0.719323 0
M  V30 10267 H 950.184 -0.715798 -3.16302 0
M  V30 10268 H 949.969 -2.48543 -3.03264 0
M  V30 10269 H 951.459 -1.81474 -3.76108 0
M  V30 10270 N 951.896 0.746133 -1.38819 0
M  V30 10271 C 952.828 1.86991 -1.3254 0
M  V30 10272 C 953.841 1.61077 -0.236216 0
M  V30 10273 O 955.03 1.71518 -0.494341 0
M  V30 10274 C 952.13 3.22786 -1.03258 0
M  V30 10275 C 951.303 3.76145 -2.23234 0
M  V30 10276 C 950.362 4.90474 -1.90581 0
M  V30 10277 O 949.388 5.04717 -2.63153 0
M  V30 10278 N 950.59 5.74015 -0.86525 0
M  V30 10279 H 953.355 1.92885 -2.2938 0
M  V30 10280 H 950.916 0.926392 -1.32776 0
M  V30 10281 H 952.908 3.96824 -0.794533 0
M  V30 10282 H 951.478 3.12231 -0.151895 0
M  V30 10283 H 950.698 2.93587 -2.63059 0
M  V30 10284 H 951.986 4.08528 -3.03285 0
M  V30 10285 H 951.384 5.65086 -0.263577 0
M  V30 10286 H 949.941 6.48168 -0.687087 0
M  V30 10287 N 953.375 1.23811 0.975125 0
M  V30 10288 C 954.603 1.10019 1.75224 0
M  V30 10289 C 955.018 -0.34791 1.85567 0
M  V30 10290 O 954.375 -1.24043 1.33864 0
M  V30 10291 C 954.426 1.72572 3.1765 0
M  V30 10292 O 954.147 3.11719 3.07836 0
M  V30 10293 C 955.648 1.64292 4.11732 0
M  V30 10294 H 952.868 0.38476 0.549728 0
M  V30 10295 H 955.412 1.63768 1.22476 0
M  V30 10296 H 953.567 1.22843 3.67408 0
M  V30 10297 H 953.981 3.42152 3.97533 0
M  V30 10298 H 955.455 2.12754 5.09352 0
M  V30 10299 H 955.932 0.602722 4.35045 0
M  V30 10300 H 956.538 2.13411 3.6788 0
M  V30 10301 N 954.853 -1.17469 1.05066 0
M  V30 10302 C 956.13 -1.83625 0.673872 0
M  V30 10303 C 956.51 -1.93412 -0.845871 0
M  V30 10304 O 955.858 -1.4677 -1.75131 0
M  V30 10305 C 956.068 -3.21352 1.36139 0
M  V30 10306 C 957.416 -3.97274 1.49863 0
M  V30 10307 O 958.44 -3.30827 1.3203 0
M  V30 10308 O 957.299 -5.16349 1.79013 0
M  V30 10309 H 954.393 -0.792297 0.237055 0
M  V30 10310 H 956.939 -1.24776 1.15017 0
M  V30 10311 H 955.711 -3.0919 2.39827 0
M  V30 10312 H 955.334 -3.87867 0.874364 0
M  V30 10313 N 956.331 -0.831506 -1.3388 0
M  V30 10314 C 957.578 -0.423674 -1.98018 0
M  V30 10315 C 957.906 1.01533 -1.65895 0
M  V30 10316 O 957.161 1.72342 -0.927183 0
M  V30 10317 C 957.46 -0.582733 -3.52617 0
M  V30 10318 C 957.126 -1.98874 -4.04673 0
M  V30 10319 C 955.788 -2.37334 -4.186 0
M  V30 10320 C 958.14 -2.90745 -4.3257 0
M  V30 10321 C 955.468 -3.66984 -4.57755 0
M  V30 10322 C 957.82 -4.19868 -4.73174 0
M  V30 10323 C 956.484 -4.58294 -4.85307 0
M  V30 10324 H 955.754 -0.155033 -0.7246 0
M  V30 10325 H 958.401 -1.05711 -1.59679 0
M  V30 10326 H 956.706 0.134052 -3.91571 0
M  V30 10327 H 958.403 -0.247576 -4.00235 0
M  V30 10328 H 954.993 -1.68001 -3.94301 0
M  V30 10329 H 959.177 -2.62272 -4.2134 0
M  V30 10330 H 954.433 -3.9657 -4.65341 0
M  V30 10331 H 958.607 -4.91138 -4.93717 0
M  V30 10332 H 956.234 -5.58805 -5.15404 0
M  V30 10333 N 957.809 1.4625 -0.587256 0
M  V30 10334 C 958.739 2.33132 0.131076 0
M  V30 10335 C 959.72 1.45619 0.879158 0
M  V30 10336 O 960.905 1.74428 0.853723 0
M  V30 10337 C 958.035 3.27975 1.14236 0
M  V30 10338 C 956.989 4.24965 0.508819 0
M  V30 10339 C 956.315 5.09349 1.62689 0
M  V30 10340 C 957.615 5.19322 -0.55694 0
M  V30 10341 H 959.309 2.93442 -0.594333 0
M  V30 10342 H 956.855 1.41106 -0.287263 0
M  V30 10343 H 958.808 3.87614 1.65328 0
M  V30 10344 H 957.532 2.65781 1.8981 0
M  V30 10345 H 956.191 3.66595 0.0189337 0
M  V30 10346 H 955.839 4.43537 2.37242 0
M  V30 10347 H 955.539 5.75036 1.20861 0
M  V30 10348 H 957.063 5.71852 2.14049 0
M  V30 10349 H 958.477 5.73151 -0.130903 0
M  V30 10350 H 956.874 5.93376 -0.895801 0
M  V30 10351 H 957.944 4.62979 -1.44148 0
M  V30 10352 N 959.287 0.325282 1.54207 0
M  V30 10353 C 960.512 -0.281418 2.05482 0
M  V30 10354 C 960.937 -1.44869 1.19977 0
M  V30 10355 O 960.295 -1.80088 0.209275 0
M  V30 10356 C 960.343 -0.692029 3.53897 0
M  V30 10357 O 959.447 -1.7942 3.71325 0
M  V30 10358 H 958.788 -0.0504872 0.662078 0
M  V30 10359 H 961.318 0.474191 1.99029 0
M  V30 10360 H 961.328 -0.974219 3.96198 0
M  V30 10361 H 960.003 0.161709 4.15586 0
M  V30 10362 H 958.58 -1.51069 3.40929 0
M  V30 10363 N 960.765 -1.57509 0.0534917 0
M  V30 10364 C 962.011 -1.93068 -0.62069 0
M  V30 10365 C 962.344 -0.932313 -1.70357 0
M  V30 10366 O 961.619 0.0413393 -1.94456 0
M  V30 10367 C 961.902 -3.38997 -1.21463 0
M  V30 10368 C 961.755 -4.49583 -0.13965 0
M  V30 10369 C 963.074 -3.85366 -2.12558 0
M  V30 10370 H 960.193 -0.702083 -0.224163 0
M  V30 10371 H 962.835 -1.89647 0.115729 0
M  V30 10372 H 960.985 -3.42043 -1.84226 0
M  V30 10373 H 962.657 -4.58664 0.492411 0
M  V30 10374 H 960.9 -4.30525 0.532006 0
M  V30 10375 H 961.571 -5.48781 -0.595287 0
M  V30 10376 H 964.047 -3.8421 -1.59755 0
M  V30 10377 H 962.923 -4.8812 -2.51058 0
M  V30 10378 H 963.184 -3.22256 -3.02661 0
M  V30 10379 N 962.243 0.219913 -1.56058 0
M  V30 10380 C 963.49 0.944064 -1.79147 0
M  V30 10381 C 963.818 1.84268 -0.622531 0
M  V30 10382 O 963.073 1.91713 0.393013 0
M  V30 10383 C 963.372 1.81293 -3.08006 0
M  V30 10384 C 963.038 1.0674 -4.38084 0
M  V30 10385 C 961.7 0.86147 -4.73426 0
M  V30 10386 C 964.052 0.541049 -5.18384 0
M  V30 10387 C 961.38 0.117307 -5.86583 0
M  V30 10388 C 963.732 -0.189779 -6.32315 0
M  V30 10389 C 962.396 -0.406951 -6.66258 0
M  V30 10390 H 961.666 0.345458 -0.655546 0
M  V30 10391 H 964.313 0.212121 -1.90322 0
M  V30 10392 H 962.618 2.61278 -2.9196 0
M  V30 10393 H 964.315 2.3754 -3.23072 0
M  V30 10394 H 960.905 1.23789 -4.10334 0
M  V30 10395 H 965.089 0.687617 -4.91514 0
M  V30 10396 H 960.345 -0.0611651 -6.11369 0
M  V30 10397 H 964.519 -0.605134 -6.93766 0
M  V30 10398 H 962.146 -0.985511 -7.53785 0
M  V30 10399 N 963.721 1.49897 0.486681 0
M  V30 10400 C 964.968 1.60105 1.23986 0
M  V30 10401 C 965.296 0.294228 1.92262 0
M  V30 10402 O 964.551 -0.718876 1.82018 0
M  V30 10403 C 964.85 2.71982 2.31863 0
M  V30 10404 C 964.516 4.13 1.80948 0
M  V30 10405 C 963.178 4.51373 1.66782 0
M  V30 10406 C 965.53 5.01198 1.43004 0
M  V30 10407 C 962.858 5.75701 1.13072 0
M  V30 10408 C 965.21 6.26058 0.90742 0
M  V30 10409 C 963.874 6.63247 0.752269 0
M  V30 10410 H 963.144 0.585866 0.453698 0
M  V30 10411 H 965.791 1.83778 0.538305 0
M  V30 10412 H 964.096 2.42336 3.07865 0
M  V30 10413 H 965.793 2.77087 2.89869 0
M  V30 10414 H 962.383 3.82718 1.92937 0
M  V30 10415 H 966.567 4.72196 1.52789 0
M  V30 10416 H 961.823 6.03202 0.997842 0
M  V30 10417 H 965.997 6.9377 0.604684 0
M  V30 10418 H 963.624 7.59466 0.33392 0
M  V30 10419 N 965.199 -0.738761 1.39212 0
M  V30 10420 C 966.424 -1.5331 1.39681 0
M  V30 10421 C 966.849 -1.88098 -0.00768715 0
M  V30 10422 O 966.207 -1.51642 -0.993699 0
M  V30 10423 C 966.255 -2.79958 2.27279 0
M  V30 10424 O 965.359 -3.75727 1.70008 0
M  V30 10425 H 964.7 -0.463131 0.475821 0
M  V30 10426 H 967.23 -0.911768 1.83161 0
M  V30 10427 H 967.24 -3.28732 2.41659 0
M  V30 10428 H 965.915 -2.5397 3.29351 0
M  V30 10429 H 964.492 -3.34483 1.64851 0
M  V30 10430 N 966.677 -1.24326 -0.968545 0
M  V30 10431 C 967.925 -1.08032 -1.70803 0
M  V30 10432 C 968.246 0.381728 -1.91227 0
M  V30 10433 O 967.516 1.27253 -1.48942 0
M  V30 10434 H 966.096 -0.396777 -0.632912 0
M  V30 10435 H 968.758 -1.56232 -1.16523 0
M  V30 10436 H 967.854 -1.57769 -2.69287 0
M  V30 10437 N 968.156 1.1691 -1.05688 0
M  V30 10438 C 969.386 1.90927 -0.789339 0
M  V30 10439 C 969.794 1.77339 0.659369 0
M  V30 10440 O 969.137 1.11147 1.4626 0
M  V30 10441 C 969.199 3.42361 -1.09677 0
M  V30 10442 C 968.863 3.79733 -2.54267 0
M  V30 10443 C 969.86 3.82163 -3.52487 0
M  V30 10444 C 967.545 4.10547 -2.89406 0
M  V30 10445 C 969.539 4.14884 -4.8389 0
M  V30 10446 C 967.226 4.42936 -4.21011 0
M  V30 10447 C 968.224 4.45084 -5.18063 0
M  V30 10448 O 967.912 4.76707 -6.47307 0
M  V30 10449 H 967.644 0.612466 -0.286115 0
M  V30 10450 H 970.198 1.4916 -1.4121 0
M  V30 10451 H 968.428 3.84446 -0.416924 0
M  V30 10452 H 970.117 3.97645 -0.814456 0
M  V30 10453 H 970.883 3.58476 -3.26681 0
M  V30 10454 H 966.762 4.08044 -2.14525 0
M  V30 10455 H 970.306 4.16475 -5.59638 0
M  V30 10456 H 966.203 4.66088 -4.46579 0
M  V30 10457 H 966.971 4.94544 -6.52203 0
M  V30 10458 N 969.634 0.838594 1.33437 0
M  V30 10459 C 970.862 0.447644 2.01999 0
M  V30 10460 C 971.277 -0.951053 1.63096 0
M  V30 10461 O 970.634 -1.61802 0.844169 0
M  V30 10462 C 970.685 0.558378 3.57162 0
M  V30 10463 O 970.406 1.90196 3.94661 0
M  V30 10464 C 971.907 0.164348 4.42995 0
M  V30 10465 H 969.127 0.177736 0.647032 0
M  V30 10466 H 971.671 1.13109 1.70372 0
M  V30 10467 H 969.826 -0.0771563 3.87323 0
M  V30 10468 H 970.24 1.88729 4.89369 0
M  V30 10469 H 971.714 0.292876 5.51222 0
M  V30 10470 H 972.191 -0.893713 4.30011 0
M  V30 10471 H 972.797 0.774306 4.18192 0
M  V30 10472 N 971.112 -1.45937 0.595003 0
M  V30 10473 C 972.359 -2.0232 0.0853053 0
M  V30 10474 C 972.687 -1.465 -1.27937 0
M  V30 10475 O 971.942 -0.624767 -1.85459 0
M  V30 10476 C 972.241 -3.57396 -0.0173747 0
M  V30 10477 C 971.907 -4.32311 1.28131 0
M  V30 10478 C 970.569 -4.52496 1.63708 0
M  V30 10479 C 972.921 -4.75233 2.14017 0
M  V30 10480 C 970.249 -5.12857 2.84947 0
M  V30 10481 C 972.601 -5.36933 3.34493 0
M  V30 10482 C 971.265 -5.55343 3.70338 0
M  V30 10483 H 970.535 -0.740342 0.0312154 0
M  V30 10484 H 973.182 -1.75157 0.774103 0
M  V30 10485 H 971.487 -3.83766 -0.789371 0
M  V30 10486 H 973.184 -3.98713 -0.427699 0
M  V30 10487 H 969.774 -4.16905 0.994374 0
M  V30 10488 H 973.958 -4.59383 1.87833 0
M  V30 10489 H 969.214 -5.253 3.12841 0
M  V30 10490 H 973.388 -5.69147 4.01304 0
M  V30 10491 H 971.015 -6.01883 4.64371 0
M  V30 10492 N 972.59 -0.333456 -1.54032 0
M  V30 10493 C 973.537 0.527981 -2.2468 0
M  V30 10494 C 974.507 1.10371 -1.24127 0
M  V30 10495 O 975.692 1.14221 -1.52834 0
M  V30 10496 C 972.832 1.67808 -3.01553 0
M  V30 10497 C 971.945 1.13064 -4.16942 0
M  V30 10498 C 971.08 2.24722 -4.81325 0
M  V30 10499 C 970.119 1.67277 -5.88799 0
M  V30 10500 N 969.256 2.72638 -6.47003 0
M  V30 10501 H 974.096 -0.0810308 -2.9789 0
M  V30 10502 H 971.633 -0.051761 -1.47009 0
M  V30 10503 H 973.591 2.35502 -3.44376 0
M  V30 10504 H 972.221 2.25823 -2.30659 0
M  V30 10505 H 971.273 0.344948 -3.78833 0
M  V30 10506 H 972.585 0.670373 -4.94275 0
M  V30 10507 H 971.739 3.00301 -5.27166 0
M  V30 10508 H 970.478 2.74089 -4.03394 0
M  V30 10509 H 969.483 0.902002 -5.4235 0
M  V30 10510 H 970.708 1.18775 -6.68632 0
M  V30 10511 H 968.654 3.21277 -5.71941 0
M  V30 10512 H 968.571 2.31204 -7.19778 0
M  V30 10513 H 969.839 3.48015 -6.97499 0
M  V30 10514 N 974.068 1.57479 -0.061844 0
M  V30 10515 C 975.018 2.0867 0.918749 0
M  V30 10516 C 976.002 0.994174 1.26511 0
M  V30 10517 O 977.194 1.25738 1.24575 0
M  V30 10518 C 974.323 2.64386 2.18986 0
M  V30 10519 C 973.409 3.80626 1.87042 0
M  V30 10520 N 973.8 4.89982 1.25504 0
M  V30 10521 C 972.098 3.89733 2.1685 0
M  V30 10522 C 972.799 5.70928 1.11429 0
M  V30 10523 N 971.775 5.18877 1.62072 0
M  V30 10524 H 975.577 2.90611 0.438469 0
M  V30 10525 H 973.091 1.61775 0.142321 0
M  V30 10526 H 975.088 2.9937 2.90144 0
M  V30 10527 H 973.748 1.83888 2.67611 0
M  V30 10528 H 974.759 5.09556 0.925914 0
M  V30 10529 H 971.436 3.20194 2.67921 0
M  V30 10530 H 972.826 6.68886 0.635665 0
M  V30 10531 N 975.546 -0.211634 1.56173 0
M  V30 10532 C 976.493 -1.26231 1.93221 0
M  V30 10533 C 977.463 -1.46076 0.790641 0
M  V30 10534 O 978.648 -1.59482 1.04739 0
M  V30 10535 C 975.788 -2.60559 2.26281 0
M  V30 10536 C 974.901 -2.48431 3.5342 0
M  V30 10537 C 974.036 -3.7535 3.7588 0
M  V30 10538 C 973.075 -3.57985 4.96501 0
M  V30 10539 N 972.212 -4.76877 5.15299 0
M  V30 10540 H 977.052 -0.939367 2.82807 0
M  V30 10541 H 974.589 -0.452511 1.39967 0
M  V30 10542 H 976.547 -3.38796 2.43461 0
M  V30 10543 H 975.177 -2.9093 1.39855 0
M  V30 10544 H 974.229 -1.61577 3.44379 0
M  V30 10545 H 975.541 -2.31526 4.41811 0
M  V30 10546 H 974.695 -4.62029 3.9321 0
M  V30 10547 H 973.434 -3.95191 2.85788 0
M  V30 10548 H 972.439 -2.69691 4.79111 0
M  V30 10549 H 973.664 -3.39605 5.88086 0
M  V30 10550 H 971.61 -4.97013 4.28152 0
M  V30 10551 H 971.527 -4.62735 5.9784 0
M  V30 10552 H 972.795 -5.64954 5.37073 0
M  V30 10553 N 977.024 -1.50153 -0.478725 0
M  V30 10554 C 977.957 -1.63089 -1.59616 0
M  V30 10555 C 978.935 -0.479211 -1.55378 0
M  V30 10556 O 980.119 -0.697715 -1.75112 0
M  V30 10557 C 977.246 -1.60643 -2.9818 0
M  V30 10558 C 976.292 -2.81279 -3.206 0
M  V30 10559 S 977.125 -4.42681 -3.0132 0
M  V30 10560 C 978.281 -4.42915 -4.42241 0
M  V30 10561 H 978.514 -2.57612 -1.48402 0
M  V30 10562 H 976.047 -1.39321 -0.665513 0
M  V30 10563 H 978.005 -1.59917 -3.7807 0
M  V30 10564 H 976.666 -0.673684 -3.0679 0
M  V30 10565 H 975.859 -2.7585 -4.21809 0
M  V30 10566 H 975.461 -2.79533 -2.4847 0
M  V30 10567 H 977.753 -4.16007 -5.34737 0
M  V30 10568 H 978.696 -5.44477 -4.52715 0
M  V30 10569 H 979.104 -3.72715 -4.23962 0
M  V30 10570 N 978.502 0.731368 -1.39602 0
M  V30 10571 C 979.748 1.49321 -1.37227 0
M  V30 10572 C 980.081 1.94176 0.0306502 0
M  V30 10573 O 979.356 1.67046 0.996294 0
M  V30 10574 C 979.639 2.73035 -2.34784 0
M  V30 10575 C 979.492 2.34176 -3.84033 0
M  V30 10576 C 980.811 3.75146 -2.30116 0
M  V30 10577 H 977.93 0.541652 -0.499783 0
M  V30 10578 H 980.572 0.835968 -1.70621 0
M  V30 10579 H 978.722 3.29114 -2.06437 0
M  V30 10580 H 980.394 1.83701 -4.23145 0
M  V30 10581 H 978.637 1.66361 -4.00633 0
M  V30 10582 H 979.308 3.22786 -4.47787 0
M  V30 10583 H 981.784 3.28661 -2.55189 0
M  V30 10584 H 980.66 4.5937 -3.00451 0
M  V30 10585 H 980.921 4.22326 -1.30741 0
M  V30 10586 N 979.98 1.24838 0.961938 0
M  V30 10587 C 981.21 1.11709 1.73795 0
M  V30 10588 C 981.618 -0.33263 1.86253 0
M  V30 10589 O 980.961 -1.24101 1.35443 0
M  V30 10590 C 981.023 1.68959 3.17322 0
M  V30 10591 C 980.687 3.17895 3.28316 0
M  V30 10592 C 981.684 4.14975 3.13196 0
M  V30 10593 C 979.369 3.57966 3.52372 0
M  V30 10594 C 981.363 5.50107 3.21965 0
M  V30 10595 C 979.05 4.93237 3.60778 0
M  V30 10596 C 980.048 5.89116 3.45588 0
M  V30 10597 O 979.736 7.21927 3.53662 0
M  V30 10598 H 979.468 0.390726 0.551642 0
M  V30 10599 H 982.022 1.65541 1.21594 0
M  V30 10600 H 980.252 1.09567 3.70853 0
M  V30 10601 H 981.941 1.51036 3.76753 0
M  V30 10602 H 982.707 3.85359 2.94489 0
M  V30 10603 H 978.586 2.83837 3.63259 0
M  V30 10604 H 982.13 6.24924 3.10025 0
M  V30 10605 H 978.027 5.22522 3.79 0
M  V30 10606 H 978.795 7.29925 3.7034 0
M  V30 10607 N 981.458 -1.16348 1.06306 0
M  V30 10608 C 982.368 -2.24375 0.685059 0
M  V30 10609 C 983.384 -1.71413 -0.298956 0
M  V30 10610 O 984.56 -2.00854 -0.148239 0
M  V30 10611 C 981.625 -3.46614 0.0774088 0
M  V30 10612 C 980.686 -4.14613 1.11331 0
M  V30 10613 C 979.919 -5.31016 0.534559 0
M  V30 10614 O 980.142 -5.66654 -0.65265 0
M  V30 10615 O 979.076 -5.88256 1.27431 0
M  V30 10616 H 982.902 -2.59018 1.58566 0
M  V30 10617 H 980.487 -1.23865 0.835332 0
M  V30 10618 H 982.369 -4.20599 -0.259716 0
M  V30 10619 H 981.044 -3.13743 -0.796677 0
M  V30 10620 H 979.951 -3.42597 1.50261 0
M  V30 10621 H 981.284 -4.51538 1.95893 0
M  V30 10622 N 982.937 -0.845659 -1.3299 0
M  V30 10623 C 984.214 -0.366306 -1.92139 0
M  V30 10624 C 984.594 1.14912 -1.77083 0
M  V30 10625 O 983.942 1.96667 -1.16338 0
M  V30 10626 C 984.152 -0.820716 -3.39213 0
M  V30 10627 C 985.5 -0.832667 -4.16355 0
M  V30 10628 O 986.524 -0.764764 -3.47893 0
M  V30 10629 O 985.383 -0.926658 -5.38586 0
M  V30 10630 H 982.477 -0.105063 -0.820299 0
M  V30 10631 H 985.023 -0.931962 -1.41819 0
M  V30 10632 H 983.795 -1.86357 -3.44074 0
M  V30 10633 H 983.418 -0.232009 -3.96923 0
M  V30 10634 N 984.415 1.45619 -0.602734 0
M  V30 10635 C 985.643 2.06647 -0.102253 0
M  V30 10636 C 986.058 1.4482 1.21131 0
M  V30 10637 O 985.415 0.560621 1.73676 0
M  V30 10638 C 985.466 3.61467 0.0490113 0
M  V30 10639 O 985.187 4.20985 -1.21257 0
M  V30 10640 C 986.688 4.39469 0.581517 0
M  V30 10641 H 983.908 0.667685 -0.0666155 0
M  V30 10642 H 986.452 1.86939 -0.829091 0
M  V30 10643 H 984.607 3.80534 0.726153 0
M  V30 10644 H 985.021 5.14103 -1.03915 0
M  V30 10645 H 986.495 5.48318 0.636462 0
M  V30 10646 H 986.972 4.0891 1.60277 0
M  V30 10647 H 987.578 4.25256 -0.061419 0
M  V30 10648 N 985.893 0.34162 1.53853 0
M  V30 10649 C 986.823 -0.508431 2.27897 0
M  V30 10650 C 987.804 -1.10425 1.29384 0
M  V30 10651 O 988.989 -1.126 1.58224 0
M  V30 10652 C 986.119 -1.66048 3.05034 0
M  V30 10653 C 985.073 -1.19309 4.11035 0
M  V30 10654 C 984.399 -2.4335 4.76114 0
M  V30 10655 C 985.699 -0.294952 5.21467 0
M  V30 10656 H 987.393 0.109251 2.99201 0
M  V30 10657 H 984.939 0.0539847 1.43899 0
M  V30 10658 H 986.892 -2.26158 3.5557 0
M  V30 10659 H 985.616 -2.30503 2.31379 0
M  V30 10660 H 984.275 -0.614809 3.61408 0
M  V30 10661 H 983.923 -3.06208 3.99056 0
M  V30 10662 H 983.623 -2.1276 5.47729 0
M  V30 10663 H 985.147 -3.0419 5.29434 0
M  V30 10664 H 986.561 -0.80285 5.67651 0
M  V30 10665 H 984.958 -0.0810221 6.00045 0
M  V30 10666 H 986.028 0.669433 4.80257 0
M  V30 10667 N 987.371 -1.57444 0.0701946 0
M  V30 10668 C 988.599 -1.97754 -0.608358 0
M  V30 10669 C 989.014 -0.948496 -1.63245 0
M  V30 10670 O 988.371 0.065046 -1.82384 0
M  V30 10671 C 988.422 -3.38142 -1.27836 0
M  V30 10672 O 988.143 -4.37104 -0.295255 0
M  V30 10673 C 989.644 -3.93318 -2.04489 0
M  V30 10674 H 986.864 -0.650398 -0.164997 0
M  V30 10675 H 989.408 -2.04006 0.142124 0
M  V30 10676 H 987.563 -3.32982 -1.97994 0
M  V30 10677 H 987.977 -5.18732 -0.77574 0
M  V30 10678 H 989.451 -4.93774 -2.46762 0
M  V30 10679 H 989.928 -3.29774 -2.90079 0
M  V30 10680 H 990.534 -4.01875 -1.39201 0
M  V30 10681 N 988.849 0.203349 -1.56283 0
M  V30 10682 C 989.779 1.2549 -1.96912 0
M  V30 10683 C 990.76 1.47919 -0.839884 0
M  V30 10684 O 991.945 1.59795 -1.10359 0
M  V30 10685 C 989.075 2.6009 -2.30153 0
M  V30 10686 C 988.029 2.52289 -3.45738 0
M  V30 10687 C 987.355 3.91086 -3.64632 0
M  V30 10688 C 988.655 2.05503 -4.80173 0
M  V30 10689 H 990.349 0.917306 -2.85002 0
M  V30 10690 H 987.895 0.439818 -1.37119 0
M  V30 10691 H 989.848 3.33829 -2.5717 0
M  V30 10692 H 988.572 2.95574 -1.38937 0
M  V30 10693 H 987.231 1.81006 -3.18798 0
M  V30 10694 H 986.879 4.23908 -2.7076 0
M  V30 10695 H 986.579 3.86742 -4.42385 0
M  V30 10696 H 988.103 4.66459 -3.94016 0
M  V30 10697 H 989.517 2.68995 -5.06275 0
M  V30 10698 H 987.914 2.1218 -5.61337 0
M  V30 10699 H 988.984 1.00793 -4.74309 0
M  V30 10700 N 990.327 1.50405 0.470755 0
M  V30 10701 C 991.574 1.61411 1.22281 0
M  V30 10702 C 991.902 0.314603 1.91939 0
M  V30 10703 O 991.157 -0.699531 1.82771 0
M  V30 10704 C 991.456 2.74426 2.28965 0
M  V30 10705 C 991.122 4.14896 1.76557 0
M  V30 10706 C 989.784 4.53116 1.61985 0
M  V30 10707 C 992.136 5.02686 1.3768 0
M  V30 10708 C 989.464 5.76868 1.0696 0
M  V30 10709 C 991.816 6.26985 0.840967 0
M  V30 10710 C 990.48 6.64008 0.68188 0
M  V30 10711 H 989.75 0.590645 0.447459 0
M  V30 10712 H 992.397 1.84339 0.518783 0
M  V30 10713 H 990.702 2.45588 3.05277 0
M  V30 10714 H 992.399 2.80146 2.86914 0
M  V30 10715 H 988.989 3.84743 1.88867 0
M  V30 10716 H 993.173 4.7379 1.47772 0
M  V30 10717 H 988.429 6.04227 0.933808 0
M  V30 10718 H 992.603 6.94372 0.531066 0
M  V30 10719 H 990.23 7.59778 0.25335 0
M  V30 10720 N 991.805 -0.723954 1.39988 0
M  V30 10721 C 993.216 -1.30273 1.33738 0
M  V30 10722 C 993.567 -1.96199 0.00690581 0
M  V30 10723 O 992.692 -1.97016 -0.895179 0
M  V30 10724 C 993.287 -2.36889 2.42217 0
M  V30 10725 C 991.846 -2.90412 2.39453 0
M  V30 10726 C 990.993 -1.64103 2.2353 0
M  V30 10727 H 993.944 -0.520672 1.49916 0
M  V30 10728 H 993.965 -3.17538 2.09642 0
M  V30 10729 H 993.477 -1.88878 3.39038 0
M  V30 10730 H 991.578 -3.42674 1.46304 0
M  V30 10731 H 991.691 -3.42775 3.34727 0
M  V30 10732 H 990.055 -1.88855 1.70897 0
M  V30 10733 H 990.838 -1.18128 3.22336 0
M  V30 10734 N 993.283 -1.25346 -0.955304 0
M  V30 10735 C 994.53 -1.10055 -1.69983 0
M  V30 10736 C 994.858 0.358586 -1.91166 0
M  V30 10737 O 994.113 1.28071 -1.47974 0
M  V30 10738 C 994.412 -1.7993 -3.08804 0
M  V30 10739 C 994.078 -3.29851 -3.07424 0
M  V30 10740 C 992.74 -3.7075 -3.06754 0
M  V30 10741 C 995.092 -4.25636 -3.00805 0
M  V30 10742 C 992.42 -5.05847 -2.97214 0
M  V30 10743 C 994.772 -5.60756 -2.92806 0
M  V30 10744 C 993.436 -6.00984 -2.90472 0
M  V30 10745 H 992.706 -0.402718 -0.622012 0
M  V30 10746 H 995.353 -1.5561 -1.11614 0
M  V30 10747 H 993.658 -1.26803 -3.70713 0
M  V30 10748 H 995.355 -1.65551 -3.65231 0
M  V30 10749 H 991.945 -2.97308 -3.08716 0
M  V30 10750 H 996.129 -3.9503 -3.00441 0
M  V30 10751 H 991.385 -5.36196 -2.93775 0
M  V30 10752 H 995.559 -6.34671 -2.86645 0
M  V30 10753 H 993.186 -7.05626 -2.82835 0
M  V30 10754 N 994.761 1.15782 -1.06922 0
M  V30 10755 C 995.986 1.90896 -0.810771 0
M  V30 10756 C 996.411 1.77246 0.629714 0
M  V30 10757 O 995.769 1.10215 1.43953 0
M  V30 10758 C 995.817 3.39397 -1.21829 0
M  V30 10759 O 994.921 4.10818 -0.360934 0
M  V30 10760 H 994.262 0.594497 -0.295752 0
M  V30 10761 H 996.792 1.46652 -1.42669 0
M  V30 10762 H 996.802 3.90181 -1.19259 0
M  V30 10763 H 995.477 3.4865 -2.2675 0
M  V30 10764 H 994.054 3.7019 -0.448748 0
M  V30 10765 N 996.239 0.8527 1.3254 0
M  V30 10766 C 997.487 0.454224 1.96929 0
M  V30 10767 C 997.808 -0.993034 1.67821 0
M  V30 10768 O 997.078 -1.69371 0.984393 0
M  V30 10769 H 995.658 0.164977 0.728554 0
M  V30 10770 H 998.32 1.0887 1.61658 0
M  V30 10771 H 997.416 0.597667 3.06324 0
M  V30 10772 N 997.718 -1.45297 0.610449 0
M  V30 10773 C 998.628 -2.34349 -0.108475 0
M  V30 10774 C 999.644 -1.51409 -0.857397 0
M  V30 10775 O 1000.82 -1.84202 -0.814337 0
M  V30 10776 C 997.885 -3.29072 -1.09144 0
M  V30 10777 C 996.946 -4.27918 -0.344165 0
M  V30 10778 C 996.179 -5.18116 -1.28031 0
M  V30 10779 O 996.402 -5.11802 -2.51824 0
M  V30 10780 O 995.336 -5.96879 -0.775821 0
M  V30 10781 H 999.162 -2.97232 0.623421 0
M  V30 10782 H 996.747 -1.44728 0.3707 0
M  V30 10783 H 998.629 -3.87433 -1.65751 0
M  V30 10784 H 997.304 -2.68749 -1.80431 0
M  V30 10785 H 996.211 -3.73164 0.264437 0
M  V30 10786 H 997.544 -4.91104 0.328275 0
M  V30 10787 N 999.196 -0.349774 -1.5367 0
M  V30 10788 C 1000.42 0.246038 -2.05432 0
M  V30 10789 C 1000.84 1.43719 -1.22435 0
M  V30 10790 O 1000.2 1.80622 -0.261166 0
M  V30 10791 C 1000.25 0.65501 -3.55516 0
M  V30 10792 O 999.968 -0.488782 -4.35365 0
M  V30 10793 C 1001.47 1.31088 -4.23475 0
M  V30 10794 H 998.689 0.0463952 -0.669394 0
M  V30 10795 H 1001.23 -0.503566 -1.98203 0
M  V30 10796 H 999.388 1.35455 -3.62947 0
M  V30 10797 H 999.802 -0.161528 -5.24251 0
M  V30 10798 H 1001.28 1.54774 -5.29857 0
M  V30 10799 H 1001.75 2.26636 -3.76208 0
M  V30 10800 H 1002.36 0.653211 -4.20254 0
M  V30 10801 N 1000.67 1.57404 -0.0785433 0
M  V30 10802 C 1001.92 1.94031 0.589896 0
M  V30 10803 C 1002.25 0.959297 1.68852 0
M  V30 10804 O 1001.53 -0.0103978 1.94497 0
M  V30 10805 C 1001.81 3.40886 1.16055 0
M  V30 10806 C 1001.66 4.49748 0.0681072 0
M  V30 10807 C 1002.98 3.88699 2.06401 0
M  V30 10808 H 1000.1 0.70556 0.212965 0
M  V30 10809 H 1002.74 1.89439 -0.145886 0
M  V30 10810 H 1000.89 3.4493 1.78761 0
M  V30 10811 H 1002.57 4.57823 -0.565318 0
M  V30 10812 H 1000.81 4.29625 -0.600431 0
M  V30 10813 H 1001.48 5.49658 0.507906 0
M  V30 10814 H 1003.96 3.86703 1.53622 0
M  V30 10815 H 1002.83 4.92052 2.43261 0
M  V30 10816 H 1003.09 3.2703 2.97496 0
M  V30 10817 N 1002.15 -0.195058 1.56388 0
M  V30 10818 C 1003.4 -0.915444 1.80626 0
M  V30 10819 C 1003.73 -1.83255 0.651768 0
M  V30 10820 O 1002.98 -1.92314 -0.362464 0
M  V30 10821 C 1003.28 -1.7637 3.10851 0
M  V30 10822 C 1002.95 -0.997572 4.39726 0
M  V30 10823 C 1001.61 -0.786043 4.74737 0
M  V30 10824 C 1003.96 -0.45851 5.19179 0
M  V30 10825 C 1001.29 -0.023972 5.86695 0
M  V30 10826 C 1003.64 0.29035 6.31933 0
M  V30 10827 C 1002.3 0.512895 6.65527 0
M  V30 10828 H 1001.57 -0.334985 0.660959 0
M  V30 10829 H 1004.22 -0.181815 1.90635 0
M  V30 10830 H 1002.53 -2.566 2.9608 0
M  V30 10831 H 1004.22 -2.3237 3.26811 0
M  V30 10832 H 1000.81 -1.17245 4.12252 0
M  V30 10833 H 1005 -0.609334 4.92545 0
M  V30 10834 H 1000.25 0.158421 6.11195 0
M  V30 10835 H 1004.43 0.715429 6.92715 0
M  V30 10836 H 1002.05 1.10531 7.52122 0
M  V30 10837 N 1003.63 -1.50653 -0.462772 0
M  V30 10838 C 1004.56 -1.64773 -1.57877 0
M  V30 10839 C 1005.54 -0.495664 -1.54861 0
M  V30 10840 O 1006.72 -0.716248 -1.74362 0
M  V30 10841 C 1003.85 -1.63796 -2.9646 0
M  V30 10842 C 1002.9 -2.84663 -3.17599 0
M  V30 10843 S 1003.73 -4.45852 -2.96608 0
M  V30 10844 C 1004.89 -4.47581 -4.37518 0
M  V30 10845 H 1005.12 -2.59172 -1.45661 0
M  V30 10846 H 1002.65 -1.40019 -0.650699 0
M  V30 10847 H 1004.61 -1.63918 -3.76353 0
M  V30 10848 H 1003.27 -0.706185 -3.06059 0
M  V30 10849 H 1002.46 -2.80308 -4.1886 0
M  V30 10850 H 1002.07 -2.82152 -2.45492 0
M  V30 10851 H 1004.36 -4.21656 -5.30295 0
M  V30 10852 H 1005.3 -5.49248 -4.46914 0
M  V30 10853 H 1005.71 -3.7719 -4.19985 0
M  V30 10854 N 1005.11 0.71652 -1.4037 0
M  V30 10855 C 1006.33 1.51069 -1.42102 0
M  V30 10856 C 1006.76 1.88087 -0.0222387 0
M  V30 10857 O 1006.12 1.53204 0.969448 0
M  V30 10858 C 1006.16 2.76307 -2.31704 0
M  V30 10859 O 1005.27 3.72975 -1.75964 0
M  V30 10860 H 1004.61 0.455502 -0.483129 0
M  V30 10861 H 1007.14 0.882514 -1.84588 0
M  V30 10862 H 1007.15 3.24846 -2.46859 0
M  V30 10863 H 1005.82 2.48698 -3.3335 0
M  V30 10864 H 1004.4 3.31818 -1.70151 0
M  V30 10865 N 1006.59 1.25851 0.948643 0
M  V30 10866 C 1007.52 1.0108 2.04593 0
M  V30 10867 C 1008.5 -0.0619691 1.62482 0
M  V30 10868 O 1009.68 0.0789196 1.88335 0
M  V30 10869 C 1006.81 0.529174 3.34541 0
M  V30 10870 C 1005.85 1.59337 3.95618 0
M  V30 10871 S 1006.69 3.18026 4.30836 0
M  V30 10872 C 1007.84 2.71613 5.63895 0
M  V30 10873 H 1008.08 1.93988 2.2529 0
M  V30 10874 H 1005.61 1.09448 1.08906 0
M  V30 10875 H 1007.57 0.25795 4.09689 0
M  V30 10876 H 1006.23 -0.37951 3.11799 0
M  V30 10877 H 1005.42 1.20722 4.89328 0
M  V30 10878 H 1005.02 1.81559 3.26975 0
M  V30 10879 H 1007.32 2.15612 6.42275 0
M  V30 10880 H 1008.26 3.63986 6.07387 0
M  V30 10881 H 1008.67 2.11417 5.23415 0
M  V30 10882 N 1008.06 -1.15214 1.07534 0
M  V30 10883 C 1008.97 -2.23636 0.708818 0
M  V30 10884 C 1009.99 -1.7172 -0.280759 0
M  V30 10885 O 1011.17 -2.01 -0.126927 0
M  V30 10886 C 1008.23 -3.46512 0.114167 0
M  V30 10887 C 1007.29 -4.13409 1.15722 0
M  V30 10888 C 1006.53 -5.30419 0.59085 0
M  V30 10889 O 1006.75 -5.67314 -0.592512 0
M  V30 10890 O 1005.68 -5.86871 1.33663 0
M  V30 10891 H 1009.51 -2.57322 1.61305 0
M  V30 10892 H 1007.09 -1.22972 0.848422 0
M  V30 10893 H 1008.98 -4.20851 -0.215091 0
M  V30 10894 H 1007.65 -3.1457 -0.763356 0
M  V30 10895 H 1006.56 -3.40984 1.53886 0
M  V30 10896 H 1007.89 -4.49435 2.00671 0
M  V30 10897 N 1009.54 -0.859717 -1.32086 0
M  V30 10898 C 1010.49 -0.296897 -2.30697 0
M  V30 10899 C 1011.48 0.582473 -1.59071 0
M  V30 10900 O 1012.69 0.469713 -1.73763 0
M  V30 10901 H 1009.07 -0.0773132 -0.748015 0
M  V30 10902 H 1011.04 -1.14273 -2.75652 0
M  V30 10903 C 1009.79 0.495546 -3.44151 0
M  V30 10904 H 1009.11 -0.171829 -3.99431 0
M  V30 10905 H 1010.55 0.854854 -4.15293 0
M  V30 10906 C 1009.01 1.68278 -2.91863 0
M  V30 10907 O 1009.54 2.78194 -2.89777 0
M  V30 10908 N 1007.74 1.51151 -2.48197 0
M  V30 10909 H 1007.29 0.617345 -2.50093 0
M  V30 10910 H 1007.25 2.3073 -2.13567 0
M  V30 10911 N 1011.02 1.44971 -0.618145 0
M  V30 10912 C 1012.43 1.85611 -0.201334 0
M  V30 10913 C 1012.78 1.51698 1.24427 0
M  V30 10914 O 1011.91 0.94875 1.94493 0
M  V30 10915 C 1012.5 3.36897 -0.358619 0
M  V30 10916 C 1011.06 3.764 0.00358196 0
M  V30 10917 C 1010.21 2.68881 -0.678118 0
M  V30 10918 H 1013.16 1.35622 -0.824152 0
M  V30 10919 H 1013.18 3.78326 0.406176 0
M  V30 10920 H 1012.69 3.61548 -1.41084 0
M  V30 10921 H 1010.79 3.57365 1.05457 0
M  V30 10922 H 1010.91 4.77449 -0.397427 0
M  V30 10923 H 1009.27 2.54442 -0.114699 0
M  V30 10924 H 1010.05 2.96367 -1.73268 0
M  V30 10925 N 1012.5 0.357919 1.53482 0
M  V30 10926 C 1013.75 -0.2337 2.00744 0
M  V30 10927 C 1014.07 -1.49908 1.2471 0
M  V30 10928 O 1013.34 -1.92597 0.358235 0
M  V30 10929 H 1011.92 -0.0893474 0.741637 0
M  V30 10930 H 1014.58 0.482388 1.88836 0
M  V30 10931 H 1013.68 -0.466073 3.086 0
M  V30 10932 N 1013.98 -1.5736 0.0868897 0
M  V30 10933 C 1014.91 -2.16596 -0.872252 0
M  V30 10934 C 1015.89 -1.09706 -1.29995 0
M  V30 10935 O 1017.07 -1.37808 -1.36831 0
M  V30 10936 C 1014.2 -2.73972 -2.1344 0
M  V30 10937 C 1013.16 -3.86163 -1.8456 0
M  V30 10938 C 1012.48 -4.30206 -3.17533 0
M  V30 10939 C 1013.78 -5.0973 -1.13899 0
M  V30 10940 H 1015.48 -2.96995 -0.378738 0
M  V30 10941 H 1013.02 -1.42861 -0.18073 0
M  V30 10942 H 1014.98 -3.14062 -2.80968 0
M  V30 10943 H 1013.7 -1.90817 -2.6506 0
M  V30 10944 H 1012.36 -3.466 -1.19432 0
M  V30 10945 H 1012.01 -3.43951 -3.67024 0
M  V30 10946 H 1011.71 -5.05841 -2.98996 0
M  V30 10947 H 1013.23 -4.72922 -3.86234 0
M  V30 10948 H 1014.64 -5.4704 -1.71523 0
M  V30 10949 H 1013.04 -5.90741 -1.05569 0
M  V30 10950 H 1014.11 -4.8475 -0.120432 0
M  V30 10951 N 1015.45 0.186762 -1.56489 0
M  V30 10952 C 1016.7 0.902594 -1.82277 0
M  V30 10953 C 1017.06 1.80536 -0.665179 0
M  V30 10954 O 1016.35 1.88573 0.339224 0
M  V30 10955 C 1016.54 1.74719 -3.11782 0
M  V30 10956 C 1016.37 0.92769 -4.40027 0
M  V30 10957 C 1015.14 0.608832 -5.01619 0
M  V30 10958 C 1017.34 0.276471 -5.13556 0
M  V30 10959 N 1015.32 -0.228425 -6.13475 0
M  V30 10960 C 1016.69 -0.42262 -6.18558 0
M  V30 10961 C 1018.75 0.19305 -4.97526 0
M  V30 10962 C 1017.45 -1.1972 -7.09267 0
M  V30 10963 C 1019.48 -0.568152 -5.88665 0
M  V30 10964 C 1018.84 -1.25566 -6.93118 0
M  V30 10965 H 1014.94 0.309403 -0.718188 0
M  V30 10966 H 1017.52 0.170693 -1.9395 0
M  V30 10967 H 1015.69 2.45063 -3.01328 0
M  V30 10968 H 1017.42 2.40314 -3.25625 0
M  V30 10969 H 1014.18 0.935247 -4.64274 0
M  V30 10970 H 1014.6 -0.636908 -6.73997 0
M  V30 10971 H 1019.25 0.71023 -4.16792 0
M  V30 10972 H 1016.96 -1.72578 -7.89457 0
M  V30 10973 H 1020.55 -0.634164 -5.78333 0
M  V30 10974 H 1019.43 -1.83524 -7.62423 0
M  V30 10975 N 1016.93 1.50896 0.454776 0
M  V30 10976 C 1018.18 1.61936 1.20248 0
M  V30 10977 C 1018.49 0.332983 1.92745 0
M  V30 10978 O 1019.7 0.322512 2.69578 0
M  V30 10979 C 1018.16 2.85916 2.18587 0
M  V30 10980 C 1017.76 4.21492 1.51818 0
M  V30 10981 C 1019.51 3.06307 2.93898 0
M  V30 10982 C 1017.42 5.3664 2.48539 0
M  V30 10983 H 1016.35 0.603098 0.452536 0
M  V30 10984 H 1019 1.77345 0.471257 0
M  V30 10985 H 1017.38 2.64101 2.95071 0
M  V30 10986 H 1018.55 4.53623 0.810123 0
M  V30 10987 H 1016.87 4.06837 0.887265 0
M  V30 10988 H 1019.46 3.89507 3.66317 0
M  V30 10989 H 1019.81 2.18683 3.54236 0
M  V30 10990 H 1020.34 3.2838 2.24525 0
M  V30 10991 H 1017.08 6.26469 1.92916 0
M  V30 10992 H 1016.6 5.08907 3.17449 0
M  V30 10993 H 1018.28 5.67881 3.10033 0
M  V30 10994 N 1018.41 -0.709066 1.40748 0
M  V30 10995 C 1019.34 -1.83583 1.4429 0
M  V30 10996 C 1020.32 -1.67378 0.303067 0
M  V30 10997 O 1021.51 -1.87312 0.512612 0
M  V30 10998 C 1018.64 -3.21599 1.31116 0
M  V30 10999 C 1017.59 -3.52486 2.4277 0
M  V30 11000 C 1016.92 -4.89716 2.14668 0
M  V30 11001 C 1018.22 -3.52824 3.85113 0
M  V30 11002 H 1019.91 -1.80876 2.38588 0
M  V30 11003 H 1017.46 -0.868795 1.14839 0
M  V30 11004 H 1019.41 -4.00123 1.32209 0
M  V30 11005 H 1018.13 -3.24898 0.332965 0
M  V30 11006 H 1016.79 -2.76305 2.40937 0
M  V30 11007 H 1016.44 -4.89625 1.15224 0
M  V30 11008 H 1016.14 -5.11347 2.89478 0
M  V30 11009 H 1017.66 -5.70566 2.17455 0
M  V30 11010 H 1019.08 -4.21377 3.88734 0
M  V30 11011 H 1017.48 -3.85984 4.59496 0
M  V30 11012 H 1018.55 -2.52073 4.14231 0
M  V30 11013 N 1019.89 -1.26353 -0.941956 0
M  V30 11014 C 1021.14 -1.1163 -1.68473 0
M  V30 11015 C 1021.46 0.34108 -1.91994 0
M  V30 11016 O 1020.73 1.24065 -1.51607 0
M  V30 11017 H 1019.31 -0.410113 -0.624353 0
M  V30 11018 H 1021.97 -1.58669 -1.13182 0
M  V30 11019 H 1021.07 -1.63445 -2.6588 0
M  V30 11020 N 1021.37 1.14642 -1.08144 0
M  V30 11021 C 1022.61 1.87277 -0.818953 0
M  V30 11022 C 1022.97 1.80896 0.643482 0
M  V30 11023 O 1024.17 2.4864 1.02135 0
M  V30 11024 C 1022.44 3.32006 -1.32314 0
M  V30 11025 S 1024 4.22284 -1.19256 0
M  V30 11026 H 1020.82 0.646204 -0.29655 0
M  V30 11027 H 1023.42 1.38261 -1.38217 0
M  V30 11028 H 1022.13 3.34197 -2.38203 0
M  V30 11029 H 1021.66 3.86078 -0.75548 0
M  V30 11030 H 1023.67 4.96016 -0.135143 0
M  V30 11031 N 1022.85 0.866709 1.31628 0
M  V30 11032 C 1023.8 0.291712 2.26126 0
M  V30 11033 C 1024.78 -0.569375 1.50489 0
M  V30 11034 O 1025.97 -0.416786 1.72023 0
M  V30 11035 C 1023.1 -0.508624 3.39511 0
M  V30 11036 C 1022.19 0.365524 4.22522 0
M  V30 11037 N 1022.58 1.45747 4.84346 0
M  V30 11038 C 1020.88 0.157384 4.45722 0
M  V30 11039 C 1021.58 1.99625 5.46374 0
M  V30 11040 N 1020.55 1.29371 5.27981 0
M  V30 11041 H 1024.35 1.12633 2.71461 0
M  V30 11042 H 1021.87 0.714118 1.45857 0
M  V30 11043 H 1023.87 -0.937057 4.06233 0
M  V30 11044 H 1022.53 -1.34089 2.9572 0
M  V30 11045 H 1023.54 1.84039 4.84097 0
M  V30 11046 H 1020.21 -0.639193 4.12578 0
M  V30 11047 H 1021.6 2.91222 6.05508 0
M  V30 11048 N 1024.32 -1.44642 0.625825 0
M  V30 11049 C 1025.27 -2.32408 -0.0945221 0
M  V30 11050 C 1026.27 -1.47038 -0.841198 0
M  V30 11051 O 1027.47 -1.63415 -0.754698 0
M  V30 11052 H 1023.85 -0.75038 -0.0493321 0
M  V30 11053 H 1025.82 -2.90922 0.663863 0
M  V30 11054 C 1024.57 -3.30951 -1.06615 0
M  V30 11055 H 1023.89 -3.96648 -0.501021 0
M  V30 11056 H 1025.33 -3.95054 -1.53976 0
M  V30 11057 C 1023.79 -2.59479 -2.14877 0
M  V30 11058 O 1024.32 -2.38974 -3.22885 0
M  V30 11059 N 1022.52 -2.19307 -1.90665 0
M  V30 11060 H 1022.07 -2.36184 -1.02835 0
M  V30 11061 H 1022.03 -1.71811 -2.63303 0
M  V30 11062 N 1025.8 -0.366053 -1.5329 0
M  V30 11063 C 1027.03 0.226839 -2.06156 0
M  V30 11064 C 1027.45 1.41637 -1.23776 0
M  V30 11065 O 1026.81 1.7947 -0.256948 0
M  V30 11066 C 1026.86 0.597956 -3.55608 0
M  V30 11067 O 1025.96 1.69512 -3.75951 0
M  V30 11068 H 1025.3 0.0329156 -0.663184 0
M  V30 11069 H 1027.83 -0.526793 -1.97702 0
M  V30 11070 H 1027.84 0.868831 -3.98642 0
M  V30 11071 H 1026.52 -0.271838 -4.15011 0
M  V30 11072 H 1025.09 1.41976 -3.44815 0
M  V30 11073 N 1027.28 1.57312 -0.0952337 0
M  V30 11074 C 1028.56 1.85822 0.610715 0
M  V30 11075 C 1028.94 0.992114 1.86334 0
M  V30 11076 O 1028.28 0.0645669 2.28409 0
M  V30 11077 C 1028.49 3.36492 0.925967 0
M  V30 11078 C 1029.84 4.0455 1.28936 0
M  V30 11079 O 1030.87 3.41374 1.01698 0
M  V30 11080 O 1029.73 5.16024 1.79949 0
M  V30 11081 H 1026.82 0.768454 0.305626 0
M  V30 11082 H 1029.37 1.69217 -0.127941 0
M  V30 11083 H 1028.14 3.91282 0.0373127 0
M  V30 11084 H 1027.76 3.58443 1.7206 0
M  V30 11085 N 1028.76 -0.17846 1.56586 0
M  V30 11086 C 1030 -0.896235 1.81587 0
M  V30 11087 C 1030.33 -1.82553 0.671168 0
M  V30 11088 O 1029.59 -1.92688 -0.342046 0
M  V30 11089 C 1029.89 -1.73063 3.12704 0
M  V30 11090 C 1029.55 -0.950877 4.4076 0
M  V30 11091 C 1028.21 -0.735647 4.75544 0
M  V30 11092 C 1030.57 -0.403419 5.19636 0
M  V30 11093 C 1027.89 0.0382562 5.86688 0
M  V30 11094 C 1030.25 0.357359 6.3159 0
M  V30 11095 C 1028.91 0.583455 6.64945 0
M  V30 11096 H 1028.18 -0.327956 0.664474 0
M  V30 11097 H 1030.83 -0.161586 1.90817 0
M  V30 11098 H 1029.13 -2.53446 2.98785 0
M  V30 11099 H 1030.83 -2.28891 3.29257 0
M  V30 11100 H 1027.42 -1.12866 4.13472 0
M  V30 11101 H 1031.6 -0.557059 4.93164 0
M  V30 11102 H 1026.86 0.223237 6.10992 0
M  V30 11103 H 1031.03 0.788861 6.91918 0
M  V30 11104 H 1028.66 1.18502 7.50907 0
M  V30 11105 N 1030.24 -1.51135 -0.446768 0
M  V30 11106 C 1031.65 -1.39101 -0.782504 0
M  V30 11107 C 1031.85 -0.46599 -1.96038 0
M  V30 11108 O 1030.91 0.0823679 -2.52366 0
M  V30 11109 C 1032.22 -2.80953 -1.07173 0
M  V30 11110 C 1033.77 -2.90038 -1.17673 0
M  V30 11111 C 1034.24 -4.32777 -1.49894 0
M  V30 11112 N 1035.73 -4.3584 -1.56837 0
M  V30 11113 C 1036.47 -5.43305 -1.83322 0
M  V30 11114 N 1035.97 -6.60945 -2.07662 0
M  V30 11115 N 1037.76 -5.30775 -1.85026 0
M  V30 11116 H 1029.91 -2.09835 0.329114 0
M  V30 11117 H 1032.17 -0.944199 0.0848054 0
M  V30 11118 H 1031.88 -3.50591 -0.279037 0
M  V30 11119 H 1031.75 -3.197 -2.00179 0
M  V30 11120 H 1034.14 -2.20603 -1.96005 0
M  V30 11121 H 1034.22 -2.54801 -0.225892 0
M  V30 11122 H 1033.86 -5.02757 -0.720924 0
M  V30 11123 H 1033.79 -4.6552 -2.46168 0
M  V30 11124 H 1036.29 -3.51023 -1.39968 0
M  V30 11125 H 1036.6 -7.38643 -2.27214 0
M  V30 11126 H 1034.94 -6.64077 -2.05003 0
M  V30 11127 H 1038.13 -4.37858 -1.65523 0
M  V30 11128 H 1038.31 -6.14609 -2.05329 0
M  V30 11129 N 1031.71 0.701592 -1.41122 0
M  V30 11130 C 1032.66 1.83691 -1.4269 0
M  V30 11131 C 1033.66 1.6662 -0.305658 0
M  V30 11132 O 1034.86 1.73554 -0.477392 0
M  V30 11133 H 1031.24 0.605222 -0.44633 0
M  V30 11134 H 1033.21 1.79485 -2.38386 0
M  V30 11135 C 1031.96 3.21666 -1.32008 0
M  V30 11136 H 1031.28 3.35416 -2.17569 0
M  V30 11137 H 1032.72 4.012 -1.37165 0
M  V30 11138 C 1031.18 3.36885 -0.0317678 0
M  V30 11139 O 1031.71 3.90885 0.925836 0
M  V30 11140 N 1029.91 2.90569 0.0423401 0
M  V30 11141 H 1029.46 2.46812 -0.737673 0
M  V30 11142 H 1029.42 3.0113 0.903764 0
M  V30 11143 N 1033.19 1.2685 0.935242 0
M  V30 11144 C 1034.61 1.04091 1.20984 0
M  V30 11145 C 1034.81 -0.230242 2.0018 0
M  V30 11146 O 1033.86 -0.93778 2.3444 0
M  V30 11147 C 1035.18 2.27586 1.96533 0
M  V30 11148 C 1036.72 2.32547 2.09501 0
M  V30 11149 C 1037.2 3.55751 2.88454 0
M  V30 11150 N 1038.69 3.56263 2.96025 0
M  V30 11151 C 1039.43 4.48262 3.57559 0
M  V30 11152 N 1038.92 5.50557 4.20546 0
M  V30 11153 N 1040.71 4.35901 3.5489 0
M  V30 11154 H 1032.87 2.08484 0.405954 0
M  V30 11155 H 1035.13 0.916548 0.242164 0
M  V30 11156 H 1034.83 3.20076 1.45753 0
M  V30 11157 H 1034.71 2.32305 2.97177 0
M  V30 11158 H 1037.1 1.40568 2.5947 0
M  V30 11159 H 1037.18 2.31836 1.08101 0
M  V30 11160 H 1036.82 4.48063 2.3917 0
M  V30 11161 H 1036.75 3.53711 3.90123 0
M  V30 11162 H 1039.24 2.82278 2.51252 0
M  V30 11163 H 1039.55 6.16935 4.65415 0
M  V30 11164 H 1037.9 5.54407 4.19115 0
M  V30 11165 H 1041.09 3.552 3.04879 0
M  V30 11166 H 1041.26 5.07792 4.02557 0
M  V30 11167 N 1034.67 -1.14067 1.0875 0
M  V30 11168 C 1035.92 -1.84819 0.817698 0
M  V30 11169 C 1036.24 -1.83545 -0.658488 0
M  V30 11170 O 1035.51 -1.28633 -1.47751 0
M  V30 11171 H 1034.09 -0.68433 0.299502 0
M  V30 11172 H 1036.75 -1.38208 1.37421 0
M  V30 11173 H 1035.85 -2.89541 1.16501 0
M  V30 11174 N 1036.15 -0.873678 -1.31166 0
M  V30 11175 C 1037.08 -0.276805 -2.26515 0
M  V30 11176 C 1038.06 0.596166 -1.51277 0
M  V30 11177 O 1039.24 0.548769 -1.80335 0
M  V30 11178 C 1036.37 0.607711 -3.33203 0
M  V30 11179 C 1035.42 -0.194411 -4.26057 0
M  V30 11180 S 1036.25 -1.57534 -5.11804 0
M  V30 11181 C 1037.41 -0.697047 -6.22006 0
M  V30 11182 H 1037.64 -1.08505 -2.76792 0
M  V30 11183 H 1035.17 -0.672419 -1.38989 0
M  V30 11184 H 1037.13 1.11234 -3.95142 0
M  V30 11185 H 1035.79 1.38994 -2.81673 0
M  V30 11186 H 1034.98 0.480094 -5.01708 0
M  V30 11187 H 1034.59 -0.631262 -3.68634 0
M  V30 11188 H 1036.88 0.0907919 -6.77439 0
M  V30 11189 H 1037.82 -1.42481 -6.93617 0
M  V30 11190 H 1038.23 -0.262954 -5.63887 0
M  V30 11191 N 1037.63 1.44308 -0.633487 0
M  V30 11192 C 1038.85 2.06384 -0.146063 0
M  V30 11193 C 1039.27 1.47357 1.18031 0
M  V30 11194 O 1038.63 0.597334 1.72448 0
M  V30 11195 C 1038.68 3.61489 -0.0276722 0
M  V30 11196 O 1038.4 4.18318 -1.3016 0
M  V30 11197 C 1039.9 4.40604 0.488168 0
M  V30 11198 H 1037.12 0.666122 -0.0807632 0
M  V30 11199 H 1039.66 1.85139 -0.868557 0
M  V30 11200 H 1037.82 3.81988 0.645273 0
M  V30 11201 H 1038.23 5.11783 -1.14797 0
M  V30 11202 H 1039.71 5.49545 0.520013 0
M  V30 11203 H 1040.18 4.12218 1.51568 0
M  V30 11204 H 1040.79 4.2503 -0.151608 0
M  V30 11205 N 1039.1 0.374177 1.53094 0
M  V30 11206 C 1040.07 -0.455999 2.24618 0
M  V30 11207 C 1041.07 -1.00269 1.25709 0
M  V30 11208 O 1042.26 -0.887077 1.49922 0
M  V30 11209 C 1039.39 -1.63822 2.98957 0
M  V30 11210 H 1040.58 0.169986 2.99418 0
M  V30 11211 H 1038.14 0.126015 1.55791 0
M  V30 11212 H 1038.87 -2.30205 2.28421 0
M  V30 11213 H 1038.66 -1.25308 3.71538 0
M  V30 11214 H 1040.15 -2.22633 3.53305 0
M  V30 11215 N 1040.58 -1.57259 0.103575 0
M  V30 11216 C 1041.51 -2.17509 -0.84923 0
M  V30 11217 C 1042.49 -1.11079 -1.28824 0
M  V30 11218 O 1043.68 -1.39252 -1.35361 0
M  V30 11219 C 1040.81 -2.76221 -2.10522 0
M  V30 11220 C 1039.76 -3.88098 -1.80454 0
M  V30 11221 C 1039.09 -4.33549 -3.12952 0
M  V30 11222 C 1040.39 -5.10909 -1.08486 0
M  V30 11223 H 1042.08 -2.9738 -0.347217 0
M  V30 11224 H 1039.63 -1.43045 -0.165568 0
M  V30 11225 H 1041.58 -3.17024 -2.77621 0
M  V30 11226 H 1040.31 -1.93617 -2.63021 0
M  V30 11227 H 1038.96 -3.47847 -1.15749 0
M  V30 11228 H 1038.61 -3.47825 -3.63355 0
M  V30 11229 H 1038.31 -5.08984 -2.93614 0
M  V30 11230 H 1039.84 -4.76992 -3.81196 0
M  V30 11231 H 1041.25 -5.48828 -1.65711 0
M  V30 11232 H 1039.65 -5.91828 -0.992973 0
M  V30 11233 H 1040.72 -4.84851 -0.0690108 0
M  V30 11234 N 1042.06 0.170153 -1.56679 0
M  V30 11235 C 1042.99 1.21285 -1.9953 0
M  V30 11236 C 1043.97 1.46104 -0.871071 0
M  V30 11237 O 1045.16 1.57419 -1.13724 0
M  V30 11238 C 1042.29 2.5515 -2.35618 0
M  V30 11239 C 1041.24 2.44898 -3.51011 0
M  V30 11240 C 1040.57 3.83263 -3.72845 0
M  V30 11241 C 1041.87 1.95271 -4.84424 0
M  V30 11242 H 1043.56 0.856646 -2.86883 0
M  V30 11243 H 1041.11 0.410634 -1.38021 0
M  V30 11244 H 1043.06 3.28299 -2.64193 0
M  V30 11245 H 1041.78 2.92561 -1.45175 0
M  V30 11246 H 1040.44 1.74203 -3.22566 0
M  V30 11247 H 1040.09 4.18069 -2.79691 0
M  V30 11248 H 1039.79 3.77272 -4.50488 0
M  V30 11249 H 1041.31 4.57996 -4.03822 0
M  V30 11250 H 1042.73 2.58195 -5.11867 0
M  V30 11251 H 1041.13 2.00225 -5.65712 0
M  V30 11252 H 1042.2 0.90709 -4.7634 0
M  V30 11253 N 1043.54 1.5137 0.438746 0
M  V30 11254 C 1044.49 1.72582 1.53245 0
M  V30 11255 C 1045.46 0.567488 1.56105 0
M  V30 11256 O 1046.64 0.80176 1.73137 0
M  V30 11257 C 1043.78 1.85551 2.90972 0
M  V30 11258 C 1042.89 3.13094 2.97652 0
M  V30 11259 C 1042.03 3.16666 4.26493 0
M  V30 11260 C 1041.07 4.38529 4.27035 0
M  V30 11261 N 1040.2 4.39659 5.47398 0
M  V30 11262 H 1045.04 2.65941 1.3446 0
M  V30 11263 H 1042.58 1.31801 0.653206 0
M  V30 11264 H 1044.54 1.91053 3.70884 0
M  V30 11265 H 1043.17 0.956025 3.08318 0
M  V30 11266 H 1042.22 3.16909 2.10412 0
M  V30 11267 H 1043.53 4.03009 2.93914 0
M  V30 11268 H 1042.69 3.21075 5.14777 0
M  V30 11269 H 1041.43 2.24637 4.32885 0
M  V30 11270 H 1040.43 4.34297 3.37144 0
M  V30 11271 H 1041.66 5.31821 4.22307 0
M  V30 11272 H 1039.6 3.50499 5.54514 0
M  V30 11273 H 1039.52 5.23382 5.45534 0
M  V30 11274 H 1040.79 4.48259 6.37718 0
M  V30 11275 N 1045.02 -0.694098 1.41492 0
M  V30 11276 C 1046.26 -1.4563 1.41137 0
M  V30 11277 C 1046.6 -1.94189 0.0208428 0
M  V30 11278 O 1045.87 -1.69628 -0.951655 0
M  V30 11279 C 1046.15 -2.66714 2.41941 0
M  V30 11280 C 1046.01 -2.23912 3.90107 0
M  V30 11281 C 1047.33 -3.68913 2.39981 0
M  V30 11282 H 1044.44 -0.52821 0.513968 0
M  V30 11283 H 1047.09 -0.790437 1.72778 0
M  V30 11284 H 1045.24 -3.23525 2.1509 0
M  V30 11285 H 1046.91 -1.72417 4.27867 0
M  V30 11286 H 1045.15 -1.5568 4.04903 0
M  V30 11287 H 1045.82 -3.108 4.56188 0
M  V30 11288 H 1048.3 -3.21779 2.63813 0
M  V30 11289 H 1047.17 -4.51242 3.12524 0
M  V30 11290 H 1047.44 -4.18711 1.41892 0
M  V30 11291 N 1046.49 -1.27344 -0.928501 0
M  V30 11292 C 1047.72 -1.16557 -1.7155 0
M  V30 11293 C 1048.14 0.274044 -1.86093 0
M  V30 11294 O 1047.5 1.19847 -1.36038 0
M  V30 11295 C 1047.55 -1.85332 -3.09329 0
M  V30 11296 O 1046.65 -1.15074 -3.9602 0
M  V30 11297 H 1046 -0.405423 -0.525859 0
M  V30 11298 H 1048.53 -1.68399 -1.16202 0
M  V30 11299 H 1048.54 -1.92659 -3.59648 0
M  V30 11300 H 1047.21 -2.90056 -2.98061 0
M  V30 11301 H 1045.79 -1.1581 -3.54461 0
M  V30 11302 N 1047.97 1.13488 -1.09353 0
M  V30 11303 C 1049.2 1.89133 -0.85108 0
M  V30 11304 C 1049.62 1.78542 0.591976 0
M  V30 11305 O 1048.98 1.13243 1.41583 0
M  V30 11306 C 1049.03 3.36736 -1.29001 0
M  V30 11307 O 1048.13 4.09959 -0.447993 0
M  V30 11308 H 1047.47 0.58809 -0.308296 0
M  V30 11309 H 1050 1.43593 -1.45747 0
M  V30 11310 H 1050.01 3.87564 -1.27508 0
M  V30 11311 H 1048.69 3.43762 -2.34095 0
M  V30 11312 H 1047.27 3.69155 -0.52717 0
M  V30 11313 N 1049.45 0.880621 1.30701 0
M  V30 11314 C 1050.69 0.503519 1.98101 0
M  V30 11315 C 1051.06 -0.929075 1.68024 0
M  V30 11316 O 1052.26 -1.41208 2.28722 0
M  V30 11317 C 1050.53 0.765652 3.49102 0
M  V30 11318 S 1052.09 0.490001 4.36056 0
M  V30 11319 H 1048.9 0.187522 0.685825 0
M  V30 11320 H 1051.51 1.13895 1.58897 0
M  V30 11321 H 1050.21 1.80688 3.68484 0
M  V30 11322 H 1049.74 0.117616 3.93224 0
M  V30 11323 H 1051.76 -0.673236 4.91612 0
M  V30 11324 N 1050.93 -1.4397 0.641131 0
M  V30 11325 C 1052.21 -1.95436 0.0800918 0
M  V30 11326 C 1052.59 -1.58282 -1.39678 0
M  V30 11327 O 1051.93 -0.861867 -2.11623 0
M  V30 11328 C 1052.14 -3.47589 0.313531 0
M  V30 11329 C 1053.49 -4.2407 0.212034 0
M  V30 11330 O 1054.52 -3.55353 0.245434 0
M  V30 11331 O 1053.38 -5.46356 0.125455 0
M  V30 11332 H 1050.47 -0.826834 -0.0165735 0
M  V30 11333 H 1053.02 -1.5397 0.71353 0
M  V30 11334 H 1051.79 -3.67716 1.33793 0
M  V30 11335 H 1051.41 -3.96025 -0.353563 0
M  V30 11336 N 1052.41 -0.382291 -1.52893 0
M  V30 11337 C 1053.35 0.456234 -2.26246 0
M  V30 11338 C 1054.32 1.06366 -1.27575 0
M  V30 11339 O 1055.51 1.09301 -1.5639 0
M  V30 11340 C 1052.65 1.5813 -3.06739 0
M  V30 11341 C 1051.76 0.997416 -4.20328 0
M  V30 11342 C 1050.9 2.09296 -4.8823 0
M  V30 11343 C 1049.94 1.4846 -5.93823 0
M  V30 11344 N 1049.07 2.51916 -6.55349 0
M  V30 11345 H 1053.91 -0.175761 -2.97481 0
M  V30 11346 H 1051.45 -0.0985046 -1.4677 0
M  V30 11347 H 1053.41 2.24426 -3.51694 0
M  V30 11348 H 1052.04 2.18371 -2.37727 0
M  V30 11349 H 1051.09 0.224251 -3.79738 0
M  V30 11350 H 1052.4 0.512784 -4.96157 0
M  V30 11351 H 1051.56 2.83377 -5.36453 0
M  V30 11352 H 1050.3 2.61116 -4.1191 0
M  V30 11353 H 1049.3 0.729001 -5.44946 0
M  V30 11354 H 1050.53 0.97443 -6.72073 0
M  V30 11355 H 1048.47 3.02919 -5.81873 0
M  V30 11356 H 1048.39 2.08188 -7.26769 0
M  V30 11357 H 1049.66 3.25649 -7.08218 0
M  V30 11358 N 1053.89 1.57202 -0.111913 0
M  V30 11359 C 1054.83 2.16186 0.858286 0
M  V30 11360 C 1055.83 1.10917 1.28039 0
M  V30 11361 O 1057.03 1.29233 1.25295 0
M  V30 11362 H 1053.41 0.691777 0.29487 0
M  V30 11363 H 1055.38 2.96499 0.336265 0
M  V30 11364 C 1054.13 2.77024 2.10127 0
M  V30 11365 H 1053.45 3.5772 1.78539 0
M  V30 11366 H 1054.89 3.21841 2.76033 0
M  V30 11367 C 1053.35 1.73752 2.88638 0
M  V30 11368 O 1053.88 1.18659 3.83774 0
M  V30 11369 N 1052.09 1.43855 2.52496 0
M  V30 11370 H 1051.63 1.88846 1.75199 0
M  V30 11371 H 1051.59 0.749985 3.05324 0
M  V30 11372 N 1055.36 -0.161842 1.56767 0
M  V30 11373 C 1056.59 -0.892247 1.86672 0
M  V30 11374 C 1057.01 -1.75407 0.69841 0
M  V30 11375 O 1056.36 -1.7945 -0.332251 0
M  V30 11376 C 1056.41 -1.7612 3.15696 0
M  V30 11377 O 1056.14 -0.934131 4.28025 0
M  V30 11378 C 1057.64 -2.60046 3.59014 0
M  V30 11379 H 1054.86 -0.258747 0.619105 0
M  V30 11380 H 1057.4 -0.159089 2.0388 0
M  V30 11381 H 1055.56 -2.44759 3.00286 0
M  V30 11382 H 1055.97 -1.52931 5.01709 0
M  V30 11383 H 1057.44 -3.16618 4.5217 0
M  V30 11384 H 1057.92 -3.35374 2.83586 0
M  V30 11385 H 1058.53 -1.96724 3.77067 0
M  V30 11386 N 1056.84 -1.516 -0.430713 0
M  V30 11387 C 1058.09 -1.64271 -1.17726 0
M  V30 11388 C 1058.41 -0.364406 -1.91565 0
M  V30 11389 O 1057.68 0.619991 -1.8583 0
M  V30 11390 H 1056.26 -0.605432 -0.437562 0
M  V30 11391 H 1058.92 -1.88557 -0.493166 0
M  V30 11392 H 1058.02 -2.47355 -1.90321 0
M  V30 11393 N 1058.32 0.686584 -1.41858 0
M  V30 11394 C 1059.6 1.44176 -1.32185 0
M  V30 11395 C 1059.98 2.11049 0.046362 0
M  V30 11396 O 1059.32 2.02365 1.06117 0
M  V30 11397 C 1059.53 2.45385 -2.48168 0
M  V30 11398 C 1060.88 3.10375 -2.89746 0
M  V30 11399 O 1061.91 2.55711 -2.47973 0
M  V30 11400 O 1060.77 4.09404 -3.62009 0
M  V30 11401 H 1057.86 0.642513 -0.520678 0
M  V30 11402 H 1060.41 0.716303 -1.53841 0
M  V30 11403 H 1059.18 1.94687 -3.3943 0
M  V30 11404 H 1058.8 3.25428 -2.28435 0
M  V30 11405 N 1059.8 1.27835 0.921735 0
M  V30 11406 C 1061.03 1.17182 1.70153 0
M  V30 11407 C 1061.44 -0.273207 1.87217 0
M  V30 11408 O 1060.78 -1.19729 1.39322 0
M  V30 11409 C 1060.84 1.78969 3.11786 0
M  V30 11410 C 1060.5 3.28179 3.18037 0
M  V30 11411 C 1061.5 4.24729 2.99835 0
M  V30 11412 C 1059.19 3.68995 3.40805 0
M  V30 11413 C 1061.18 5.60071 3.04301 0
M  V30 11414 C 1058.87 5.04465 3.44904 0
M  V30 11415 C 1059.87 5.99813 3.2667 0
M  V30 11416 O 1059.55 7.32813 3.30515 0
M  V30 11417 H 1059.29 0.408079 0.538932 0
M  V30 11418 H 1061.84 1.69326 1.16266 0
M  V30 11419 H 1060.07 1.2131 3.6718 0
M  V30 11420 H 1061.76 1.62946 3.71757 0
M  V30 11421 H 1062.52 3.94533 2.8208 0
M  V30 11422 H 1058.4 2.9525 3.54045 0
M  V30 11423 H 1061.95 6.34471 2.89987 0
M  V30 11424 H 1057.84 5.34315 3.62185 0
M  V30 11425 H 1058.61 7.41338 3.4693 0
M  V30 11426 N 1061.28 -1.12907 1.09954 0
M  V30 11427 C 1062.51 -1.87866 0.859656 0
M  V30 11428 C 1062.91 -1.79664 -0.593096 0
M  V30 11429 O 1062.26 -1.16499 -1.42034 0
M  V30 11430 C 1062.32 -3.38055 1.22308 0
M  V30 11431 C 1061.98 -3.70035 2.68185 0
M  V30 11432 C 1062.98 -3.68817 3.66428 0
M  V30 11433 C 1060.66 -3.99523 3.04444 0
M  V30 11434 C 1062.66 -3.96639 4.98955 0
M  V30 11435 C 1060.35 -4.27006 4.37161 0
M  V30 11436 C 1061.34 -4.25549 5.34225 0
M  V30 11437 O 1061.03 -4.52354 6.64553 0
M  V30 11438 H 1060.76 -0.601425 0.308649 0
M  V30 11439 H 1063.32 -1.43817 1.46649 0
M  V30 11440 H 1061.55 -3.82634 0.559322 0
M  V30 11441 H 1063.24 -3.94348 0.961479 0
M  V30 11442 H 1064 -3.46104 3.3976 0
M  V30 11443 H 1059.88 -3.99801 2.29521 0
M  V30 11444 H 1063.43 -3.95418 5.74709 0
M  V30 11445 H 1059.32 -4.49192 4.6357 0
M  V30 11446 H 1060.09 -4.69997 6.70108 0
M  V30 11447 N 1062.75 -0.88754 -1.30232 0
M  V30 11448 C 1063.66 -0.360333 -2.31816 0
M  V30 11449 C 1064.68 0.538741 -1.6545 0
M  V30 11450 O 1065.86 0.431246 -1.96729 0
M  V30 11451 C 1062.92 0.414336 -3.44215 0
M  V30 11452 C 1061.98 -0.514799 -4.26202 0
M  V30 11453 C 1061.21 0.222994 -5.33234 0
M  V30 11454 O 1061.44 1.44871 -5.51696 0
M  V30 11455 O 1060.37 -0.428221 -6.00375 0
M  V30 11456 H 1064.2 -1.20279 -2.78867 0
M  V30 11457 H 1061.78 -0.651459 -1.34448 0
M  V30 11458 H 1063.66 0.852859 -4.12679 0
M  V30 11459 H 1062.34 1.23305 -2.99295 0
M  V30 11460 H 1061.25 -1.00219 -3.60426 0
M  V30 11461 H 1062.58 -1.29959 -4.74733 0
M  V30 11462 N 1064.23 1.43628 -0.648757 0
M  V30 11463 C 1065.51 1.95391 -0.0904551 0
M  V30 11464 C 1065.89 1.59021 1.38837 0
M  V30 11465 O 1065.24 0.873078 2.11163 0
M  V30 11466 C 1065.45 3.47418 -0.33196 0
M  V30 11467 C 1066.8 4.23952 -0.234521 0
M  V30 11468 O 1067.82 3.55218 -0.264276 0
M  V30 11469 O 1066.68 5.46282 -0.154428 0
M  V30 11470 H 1063.77 0.82691 0.0121884 0
M  V30 11471 H 1066.32 1.5359 -0.721685 0
M  V30 11472 H 1065.09 3.67001 -1.35741 0
M  V30 11473 H 1064.71 3.96207 0.332556 0
M  V30 11474 N 1065.71 0.390394 1.52688 0
M  V30 11475 C 1066.94 -0.194013 2.06491 0
M  V30 11476 C 1067.36 -1.3965 1.26014 0
M  V30 11477 O 1066.72 -1.79038 0.285468 0
M  V30 11478 C 1066.77 -0.541306 3.56514 0
M  V30 11479 O 1065.87 -1.63509 3.78601 0
M  V30 11480 H 1065.21 -0.0223608 0.663623 0
M  V30 11481 H 1067.74 0.558179 1.96839 0
M  V30 11482 H 1067.75 -0.805301 3.99974 0
M  V30 11483 H 1066.43 0.337828 4.14526 0
M  V30 11484 H 1065 -1.36473 3.4703 0
M  V30 11485 N 1067.19 -1.57141 0.120249 0
M  V30 11486 C 1068.42 -1.993 -0.544346 0
M  V30 11487 C 1068.83 -0.998858 -1.60684 0
M  V30 11488 O 1068.17 0.0162197 -1.83693 0
M  V30 11489 C 1068.23 -3.37874 -1.22808 0
M  V30 11490 C 1067.9 -4.55924 -0.313374 0
M  V30 11491 C 1068.89 -5.17962 0.448501 0
M  V30 11492 C 1066.58 -5.018 -0.224082 0
M  V30 11493 C 1068.57 -6.24264 1.28739 0
M  V30 11494 C 1066.26 -6.07963 0.618437 0
M  V30 11495 C 1067.26 -6.69061 1.3728 0
M  V30 11496 O 1066.94 -7.73173 2.20133 0
M  V30 11497 H 1066.68 -0.659466 -0.148596 0
M  V30 11498 H 1069.23 -2.04387 0.203779 0
M  V30 11499 H 1067.46 -3.29545 -2.02329 0
M  V30 11500 H 1069.15 -3.64314 -1.7897 0
M  V30 11501 H 1069.92 -4.83434 0.389395 0
M  V30 11502 H 1065.79 -4.53989 -0.80094 0
M  V30 11503 H 1069.34 -6.71883 1.87667 0
M  V30 11504 H 1065.24 -6.4192 0.678932 0
M  V30 11505 H 1066 -7.90276 2.13088 0
M  V30 11506 N 1068.67 0.153526 -1.5685 0
M  V30 11507 C 1069.58 1.20932 -2.01029 0
M  V30 11508 C 1070.59 1.47401 -0.924598 0
M  V30 11509 O 1071.77 1.592 -1.23359 0
M  V30 11510 C 1068.83 2.52438 -2.37647 0
M  V30 11511 C 1067.89 2.33673 -3.60132 0
M  V30 11512 C 1067.13 3.58909 -3.94994 0
M  V30 11513 O 1067.35 4.64823 -3.30599 0
M  V30 11514 O 1066.28 3.5196 -4.8827 0
M  V30 11515 H 1070.11 0.864273 -2.91143 0
M  V30 11516 H 1067.7 0.361755 -1.44954 0
M  V30 11517 H 1069.58 3.29981 -2.62088 0
M  V30 11518 H 1068.25 2.86486 -1.5069 0
M  V30 11519 H 1067.16 1.54102 -3.40886 0
M  V30 11520 H 1068.49 2.04544 -4.47686 0
M  V30 11521 N 1070.14 1.51827 0.422667 0
M  V30 11522 C 1071.42 1.55772 1.18299 0
M  V30 11523 C 1071.8 0.330657 2.08494 0
M  V30 11524 O 1071.15 -0.683373 2.18042 0
M  V30 11525 C 1071.36 2.87941 1.97208 0
M  V30 11526 C 1072.71 3.4044 2.53744 0
M  V30 11527 O 1073.73 2.8959 2.07403 0
M  V30 11528 O 1072.59 4.29201 3.38303 0
M  V30 11529 H 1069.68 0.626889 0.539388 0
M  V30 11530 H 1072.23 1.64147 0.430545 0
M  V30 11531 H 1071 3.68702 1.31052 0
M  V30 11532 H 1070.63 2.82795 2.79486 0
M  V30 11533 N 1071.62 -0.679052 1.4222 0
M  V30 11534 C 1072.87 -1.43485 1.41757 0
M  V30 11535 C 1073.18 -1.95567 0.0358698 0
M  V30 11536 O 1074.39 -2.71346 -0.0913713 0
M  V30 11537 C 1072.85 -2.59541 2.49332 0
M  V30 11538 C 1072.45 -2.14176 3.93488 0
M  V30 11539 C 1074.2 -3.37078 2.58029 0
M  V30 11540 C 1072.11 -3.27289 4.92581 0
M  V30 11541 H 1071.04 -0.539022 0.52723 0
M  V30 11542 H 1073.69 -0.735581 1.68111 0
M  V30 11543 H 1072.07 -3.31815 2.16135 0
M  V30 11544 H 1073.24 -1.49082 4.36017 0
M  V30 11545 H 1071.56 -1.49589 3.88603 0
M  V30 11546 H 1074.15 -4.21312 3.29242 0
M  V30 11547 H 1074.5 -3.83383 1.62245 0
M  V30 11548 H 1075.03 -2.7187 2.90399 0
M  V30 11549 H 1071.77 -2.8598 5.89827 0
M  V30 11550 H 1071.29 -3.91178 4.54687 0
M  V30 11551 H 1072.97 -3.9282 5.14103 0
M  V30 11552 N 1073.1 -1.28322 -0.914942 0
M  V30 11553 C 1074.33 -1.1837 -1.70304 0
M  V30 11554 C 1074.75 0.254291 -1.86373 0
M  V30 11555 O 1074.11 1.18398 -1.37301 0
M  V30 11556 C 1074.16 -1.88603 -3.07346 0
M  V30 11557 O 1073.26 -1.19268 -3.94777 0
M  V30 11558 H 1072.6 -0.410978 -0.52153 0
M  V30 11559 H 1075.13 -1.69622 -1.14409 0
M  V30 11560 H 1075.14 -1.96463 -3.57584 0
M  V30 11561 H 1073.82 -2.93201 -2.94967 0
M  V30 11562 H 1072.39 -1.19563 -3.53212 0
M  V30 11563 N 1074.58 1.12322 -1.10551 0
M  V30 11564 C 1075.54 2.16273 -0.758844 0
M  V30 11565 C 1076.54 1.59325 0.217294 0
M  V30 11566 O 1077.73 1.74199 -0.00601346 0
M  V30 11567 C 1074.86 3.40674 -0.124238 0
M  V30 11568 H 1076.06 2.48454 -1.6796 0
M  V30 11569 H 1073.61 1.2735 -0.906188 0
M  V30 11570 H 1074.34 3.14094 0.807194 0
M  V30 11571 H 1074.13 3.83284 -0.826772 0
M  V30 11572 H 1075.62 4.17474 0.102502 0
M  V30 11573 N 1076.06 0.894434 1.2976 0
M  V30 11574 C 1077.29 0.532143 1.99629 0
M  V30 11575 C 1077.69 -0.886234 1.6716 0
M  V30 11576 O 1077.04 -1.59573 0.910065 0
M  V30 11577 C 1077.1 0.638335 3.53787 0
M  V30 11578 C 1076.76 2.02273 4.09798 0
M  V30 11579 C 1077.76 2.99327 4.25087 0
M  V30 11580 C 1075.45 2.33069 4.44954 0
M  V30 11581 C 1077.44 4.25304 4.74758 0
M  V30 11582 C 1075.13 3.59289 4.94322 0
M  V30 11583 C 1076.12 4.55222 5.09178 0
M  V30 11584 O 1075.81 5.79202 5.57477 0
M  V30 11585 H 1075.54 0.203326 0.644697 0
M  V30 11586 H 1078.1 1.2043 1.6639 0
M  V30 11587 H 1076.33 -0.0908338 3.86593 0
M  V30 11588 H 1078.02 0.285956 4.04891 0
M  V30 11589 H 1078.78 2.76849 3.9822 0
M  V30 11590 H 1074.66 1.59162 4.32653 0
M  V30 11591 H 1078.21 5.00189 4.86269 0
M  V30 11592 H 1074.1 3.816 5.20626 0
M  V30 11593 H 1074.87 5.81717 5.75802 0
M  V30 11594 N 1077.53 -1.43282 0.656365 0
M  V30 11595 C 1078.46 -2.33492 -0.0196962 0
M  V30 11596 C 1079.45 -1.49647 -0.80868 0
M  V30 11597 O 1080.63 -1.78303 -0.769529 0
M  V30 11598 C 1077.76 -3.33052 -0.984574 0
M  V30 11599 C 1076.71 -4.26908 -0.305483 0
M  V30 11600 C 1076.04 -5.16531 -1.38202 0
M  V30 11601 C 1077.34 -5.16073 0.804081 0
M  V30 11602 H 1079.03 -2.90272 0.733661 0
M  V30 11603 H 1076.58 -1.39574 0.354259 0
M  V30 11604 H 1078.53 -3.9506 -1.46647 0
M  V30 11605 H 1077.26 -2.74535 -1.76913 0
M  V30 11606 H 1075.92 -3.66268 0.155995 0
M  V30 11607 H 1075.56 -4.54351 -2.1581 0
M  V30 11608 H 1075.26 -5.80148 -0.932878 0
M  V30 11609 H 1076.79 -5.81414 -1.86522 0
M  V30 11610 H 1078.2 -5.71873 0.404212 0
M  V30 11611 H 1076.6 -5.88427 1.17789 0
M  V30 11612 H 1077.67 -4.55574 1.66073 0
M  V30 11613 N 1079.01 -0.398486 -1.52479 0
M  V30 11614 C 1079.94 0.423498 -2.29627 0
M  V30 11615 C 1080.92 1.05547 -1.33394 0
M  V30 11616 O 1082.11 1.0665 -1.62294 0
M  V30 11617 C 1079.24 1.54612 -3.10986 0
M  V30 11618 C 1078.19 1.03971 -4.15179 0
M  V30 11619 C 1077.52 2.25512 -4.84818 0
M  V30 11620 C 1078.82 0.10121 -5.22202 0
M  V30 11621 H 1080.51 -0.220222 -2.98589 0
M  V30 11622 H 1078.06 -0.107355 -1.43599 0
M  V30 11623 H 1080.01 2.12806 -3.63719 0
M  V30 11624 H 1078.74 2.21756 -2.39774 0
M  V30 11625 H 1077.4 0.480251 -3.63441 0
M  V30 11626 H 1077.04 2.91187 -4.10145 0
M  V30 11627 H 1076.74 1.92285 -5.55248 0
M  V30 11628 H 1078.27 2.84331 -5.40359 0
M  V30 11629 H 1079.68 0.591617 -5.70239 0
M  V30 11630 H 1078.08 -0.141737 -5.99933 0
M  V30 11631 H 1079.15 -0.847216 -4.77441 0
M  V30 11632 N 1080.49 1.57075 -0.12858 0
M  V30 11633 C 1081.72 2.00305 0.537839 0
M  V30 11634 C 1082.14 1.00787 1.58819 0
M  V30 11635 O 1081.5 -0.0190839 1.8129 0
M  V30 11636 C 1081.55 3.42371 1.13201 0
M  V30 11637 O 1080.65 3.45786 2.24735 0
M  V30 11638 H 1079.99 0.650456 0.133428 0
M  V30 11639 H 1082.52 2.03415 -0.219882 0
M  V30 11640 H 1082.53 3.80783 1.4652 0
M  V30 11641 H 1081.21 4.14315 0.362713 0
M  V30 11642 H 1079.78 3.19201 1.92783 0
M  V30 11643 N 1081.97 -0.145205 1.5693 0
M  V30 11644 C 1082.92 -1.17923 1.98401 0
M  V30 11645 C 1083.89 -1.42591 0.851885 0
M  V30 11646 O 1085.07 -1.54896 1.11409 0
M  V30 11647 C 1082.21 -2.50727 2.37128 0
M  V30 11648 C 1081.32 -2.33218 3.63639 0
M  V30 11649 C 1080.46 -3.5907 3.91462 0
M  V30 11650 C 1079.5 -3.36605 5.11237 0
M  V30 11651 N 1078.64 -4.54592 5.35061 0
M  V30 11652 H 1083.48 -0.818573 2.86537 0
M  V30 11653 H 1081.01 -0.392739 1.4176 0
M  V30 11654 H 1082.97 -3.28165 2.57611 0
M  V30 11655 H 1081.6 -2.84736 1.52069 0
M  V30 11656 H 1080.65 -1.46826 3.50922 0
M  V30 11657 H 1081.96 -2.12579 4.51234 0
M  V30 11658 H 1081.12 -4.44936 4.12453 0
M  V30 11659 H 1079.86 -3.82715 3.02293 0
M  V30 11660 H 1078.86 -2.49127 4.90118 0
M  V30 11661 H 1080.09 -3.14357 6.01961 0
M  V30 11662 H 1078.03 -4.78406 4.48847 0
M  V30 11663 H 1077.95 -4.36962 6.16928 0
M  V30 11664 H 1079.22 -5.41666 5.60551 0
M  V30 11665 N 1083.45 -1.52049 -0.414609 0
M  V30 11666 C 1084.4 -1.75603 -1.52533 0
M  V30 11667 C 1085.39 -0.622965 -1.57529 0
M  V30 11668 O 1086.6 -0.804886 -1.61002 0
M  V30 11669 H 1082.97 -0.555222 -0.507181 0
M  V30 11670 H 1084.94 -2.68666 -1.2985 0
M  V30 11671 C 1083.69 -1.9188 -2.89961 0
M  V30 11672 H 1083.01 -2.78483 -2.86857 0
M  V30 11673 H 1084.45 -2.12363 -3.66985 0
M  V30 11674 C 1082.91 -0.684453 -3.29874 0
M  V30 11675 O 1083.44 0.150256 -4.01419 0
M  V30 11676 N 1081.65 -0.521936 -2.85874 0
M  V30 11677 H 1081.2 -1.20229 -2.27822 0
M  V30 11678 H 1081.15 0.302655 -3.1294 0
M  V30 11679 N 1084.93 0.6715 -1.42579 0
M  V30 11680 C 1085.87 1.80623 -1.46554 0
M  V30 11681 C 1086.87 1.65934 -0.340932 0
M  V30 11682 O 1088.07 1.72502 -0.514098 0
M  V30 11683 H 1084.45 0.595619 -0.459067 0
M  V30 11684 H 1086.42 1.74388 -2.42139 0
M  V30 11685 C 1085.17 3.18794 -1.38801 0
M  V30 11686 H 1084.49 3.30725 -2.24635 0
M  V30 11687 H 1085.93 3.98201 -1.45645 0
M  V30 11688 C 1084.39 3.36742 -0.103219 0
M  V30 11689 O 1084.92 3.92761 0.842715 0
M  V30 11690 N 1083.13 2.90594 -0.0193034 0
M  V30 11691 H 1082.67 2.45192 -0.78986 0
M  V30 11692 H 1082.63 3.0298 0.839686 0
M  V30 11693 N 1086.4 1.28806 0.908124 0
M  V30 11694 C 1087.37 1.13228 1.99279 0
M  V30 11695 C 1088.37 0.0702456 1.60646 0
M  V30 11696 O 1089.56 0.316494 1.71301 0
M  V30 11697 C 1086.69 0.729629 3.33 0
M  V30 11698 H 1087.88 2.09566 2.14528 0
M  V30 11699 H 1085.43 1.11872 1.09153 0
M  V30 11700 H 1086.17 -0.234268 3.23453 0
M  V30 11701 H 1085.95 1.49688 3.62403 0
M  V30 11702 H 1087.44 0.643449 4.12613 0
M  V30 11703 N 1087.88 -1.11734 1.11145 0
M  V30 11704 C 1089.13 -1.82766 0.853194 0
M  V30 11705 C 1089.44 -1.85408 -0.623168 0
M  V30 11706 O 1090.65 -2.52509 -0.997574 0
M  V30 11707 C 1089.11 -3.28215 1.47658 0
M  V30 11708 C 1088.71 -3.33911 2.98676 0
M  V30 11709 C 1090.46 -4.04168 1.29803 0
M  V30 11710 C 1088.36 -4.73739 3.54013 0
M  V30 11711 H 1087.29 -0.684807 0.315523 0
M  V30 11712 H 1089.95 -1.25756 1.33633 0
M  V30 11713 H 1088.33 -3.85138 0.921116 0
M  V30 11714 H 1089.5 -2.86887 3.606 0
M  V30 11715 H 1087.82 -2.71437 3.15771 0
M  V30 11716 H 1090.41 -5.07429 1.68582 0
M  V30 11717 H 1090.76 -4.15606 0.240302 0
M  V30 11718 H 1091.29 -3.53623 1.82196 0
M  V30 11719 H 1088.03 -4.67497 4.59485 0
M  V30 11720 H 1087.55 -5.21186 2.9686 0
M  V30 11721 H 1089.23 -5.42691 3.52271 0
M  V30 11722 N 1089.36 -0.901303 -1.29284 0
M  V30 11723 C 1090.27 -0.3849 -2.31421 0
M  V30 11724 C 1091.29 0.521163 -1.66012 0
M  V30 11725 O 1092.46 0.410356 -1.97175 0
M  V30 11726 C 1089.53 0.377804 -3.44635 0
M  V30 11727 C 1088.59 -0.559974 -4.25632 0
M  V30 11728 C 1087.82 0.166425 -5.3344 0
M  V30 11729 O 1088.04 1.39012 -5.53202 0
M  V30 11730 O 1086.98 -0.491875 -5.99887 0
M  V30 11731 H 1090.8 -1.2323 -2.77575 0
M  V30 11732 H 1088.39 -0.665683 -1.3375 0
M  V30 11733 H 1090.27 0.809041 -4.13561 0
M  V30 11734 H 1088.95 1.20124 -3.00586 0
M  V30 11735 H 1087.85 -1.04036 -3.59343 0
M  V30 11736 H 1089.19 -1.34987 -4.73328 0
M  V30 11737 N 1090.84 1.42931 -0.663954 0
M  V30 11738 C 1092.25 1.84877 -0.260283 0
M  V30 11739 C 1092.6 1.5558 1.19538 0
M  V30 11740 O 1091.72 1.01015 1.91377 0
M  V30 11741 C 1092.32 3.35585 -0.465618 0
M  V30 11742 C 1090.88 3.76221 -0.116169 0
M  V30 11743 C 1090.03 2.66587 -0.763317 0
M  V30 11744 H 1092.98 1.32932 -0.866882 0
M  V30 11745 H 1093 3.79427 0.285608 0
M  V30 11746 H 1092.51 3.56877 -1.52515 0
M  V30 11747 H 1090.61 3.60539 0.940342 0
M  V30 11748 H 1090.72 4.75943 -0.549123 0
M  V30 11749 H 1089.09 2.53948 -0.19559 0
M  V30 11750 H 1089.87 2.90704 -1.82609 0
M  V30 11751 N 1092.32 0.406567 1.52266 0
M  V30 11752 C 1093.73 0.0573228 1.59497 0
M  V30 11753 C 1093.93 -1.43005 1.41957 0
M  V30 11754 O 1092.99 -2.19659 1.24523 0
M  V30 11755 C 1094.3 0.549947 2.95628 0
M  V30 11756 C 1095.85 0.5077 3.08855 0
M  V30 11757 C 1096.32 0.976792 4.47463 0
M  V30 11758 N 1097.81 0.933508 4.53696 0
M  V30 11759 C 1098.55 1.26769 5.59211 0
M  V30 11760 N 1098.05 1.6732 6.72292 0
M  V30 11761 N 1099.84 1.18782 5.49406 0
M  V30 11762 H 1091.99 1.37468 1.61914 0
M  V30 11763 H 1094.25 0.564562 0.76156 0
M  V30 11764 H 1093.96 1.58943 3.13736 0
M  V30 11765 H 1093.83 -0.0417767 3.77177 0
M  V30 11766 H 1096.22 -0.522728 2.90433 0
M  V30 11767 H 1096.3 1.13545 2.29219 0
M  V30 11768 H 1095.94 2.00554 4.66627 0
M  V30 11769 H 1095.87 0.325885 5.25591 0
M  V30 11770 H 1098.37 0.635333 3.72521 0
M  V30 11771 H 1098.68 1.91137 7.4879 0
M  V30 11772 H 1097.02 1.71221 6.73579 0
M  V30 11773 H 1100.21 0.869906 4.59946 0
M  V30 11774 H 1100.39 1.45157 6.31533 0
M  V30 11775 N 1093.79 -1.57004 0.136909 0
M  V30 11776 C 1095.02 -2.00587 -0.527209 0
M  V30 11777 C 1095.44 -1.01628 -1.58283 0
M  V30 11778 O 1094.8 0.00946934 -1.81298 0
M  V30 11779 C 1094.85 -3.42967 -1.11384 0
M  V30 11780 O 1093.95 -3.46973 -2.22898 0
M  V30 11781 H 1093.3 -0.651155 -0.129976 0
M  V30 11782 H 1095.83 -2.03296 0.230667 0
M  V30 11783 H 1095.84 -3.81555 -1.44499 0
M  V30 11784 H 1094.51 -4.14502 -0.340736 0
M  V30 11785 H 1093.09 -3.20219 -1.91087 0
M  V30 11786 N 1095.27 0.136881 -1.57004 0
M  V30 11787 C 1096.52 0.847775 -1.83899 0
M  V30 11788 C 1096.85 1.80709 -0.719332 0
M  V30 11789 O 1096.1 1.93527 0.290838 0
M  V30 11790 C 1096.4 1.64711 -3.17183 0
M  V30 11791 C 1096.07 0.833683 -4.43126 0
M  V30 11792 C 1094.73 0.609306 -4.77327 0
M  V30 11793 C 1097.08 0.265504 -5.20523 0
M  V30 11794 C 1094.41 -0.193793 -5.8638 0
M  V30 11795 C 1096.76 -0.524688 -6.3042 0
M  V30 11796 C 1095.43 -0.759548 -6.63164 0
M  V30 11797 H 1094.7 0.310223 -0.672936 0
M  V30 11798 H 1097.34 0.110937 -1.91178 0
M  V30 11799 H 1095.65 2.45435 -3.054 0
M  V30 11800 H 1097.34 2.20081 -3.3521 0
M  V30 11801 H 1093.93 1.01864 -4.16319 0
M  V30 11802 H 1098.12 0.426109 -4.94467 0
M  V30 11803 H 1093.37 -0.385153 -6.10186 0
M  V30 11804 H 1097.55 -0.972033 -6.89583 0
M  V30 11805 H 1095.18 -1.38369 -7.47501 0
M  V30 11806 N 1096.75 1.52266 0.40654 0
M  V30 11807 C 1097.98 1.70598 1.17945 0
M  V30 11808 C 1098.4 0.415793 1.83447 0
M  V30 11809 O 1097.76 -0.626968 1.70114 0
M  V30 11810 C 1097.81 2.84449 2.21633 0
M  V30 11811 O 1096.91 2.50199 3.27833 0
M  V30 11812 H 1096.25 0.567837 0.344177 0
M  V30 11813 H 1098.78 1.98981 0.476211 0
M  V30 11814 H 1098.79 3.09436 2.65919 0
M  V30 11815 H 1097.47 3.78055 1.73341 0
M  V30 11816 H 1096.04 2.35892 2.88807 0
M  V30 11817 N 1098.23 -0.663929 1.42933 0
M  V30 11818 C 1099.16 -1.78946 1.43217 0
M  V30 11819 C 1100.17 -1.59426 0.329727 0
M  V30 11820 O 1101.36 -1.68344 0.5935 0
M  V30 11821 C 1098.46 -3.16217 1.21902 0
M  V30 11822 C 1097.64 -3.6249 2.44785 0
M  V30 11823 C 1096.69 -4.78529 2.18853 0
M  V30 11824 O 1095.72 -4.88516 2.92131 0
M  V30 11825 N 1096.92 -5.67994 1.19845 0
M  V30 11826 H 1099.69 -1.79184 2.40236 0
M  V30 11827 H 1097.25 -0.847404 1.37952 0
M  V30 11828 H 1099.24 -3.91517 1.02454 0
M  V30 11829 H 1097.81 -3.10814 0.333676 0
M  V30 11830 H 1097.03 -2.77751 2.79729 0
M  V30 11831 H 1098.32 -3.90151 3.26588 0
M  V30 11832 H 1097.72 -5.62588 0.59259 0
M  V30 11833 H 1096.27 -6.4306 1.06382 0
M  V30 11834 N 1099.71 -1.29285 -0.901281 0
M  V30 11835 C 1100.65 -1.14159 -2.02659 0
M  V30 11836 C 1101.65 -0.0575887 -1.69302 0
M  V30 11837 O 1102.85 -0.217273 -1.78684 0
M  V30 11838 H 1099.23 -0.352584 -0.66422 0
M  V30 11839 H 1101.2 -2.09434 -2.12555 0
M  V30 11840 C 1099.95 -0.833253 -3.37568 0
M  V30 11841 H 1099.27 -1.65939 -3.63737 0
M  V30 11842 H 1100.71 -0.767436 -4.16997 0
M  V30 11843 C 1099.17 0.46344 -3.33697 0
M  V30 11844 O 1099.7 1.48998 -3.73045 0
M  V30 11845 N 1097.91 0.468709 -2.86795 0
M  V30 11846 H 1097.45 -0.36712 -2.54971 0
M  V30 11847 H 1097.41 1.3363 -2.84588 0
M  V30 11848 N 1101.18 1.11143 -1.11736 0
M  V30 11849 C 1102.41 1.87285 -0.891007 0
M  V30 11850 C 1102.83 1.79758 0.553971 0
M  V30 11851 O 1102.19 1.16221 1.39149 0
M  V30 11852 C 1102.24 3.33924 -1.36114 0
M  V30 11853 O 1101.34 4.08917 -0.534851 0
M  V30 11854 H 1100.69 0.581418 -0.320701 0
M  V30 11855 H 1103.22 1.40469 -1.4876 0
M  V30 11856 H 1103.23 3.84772 -1.35701 0
M  V30 11857 H 1101.9 3.38719 -2.41334 0
M  V30 11858 H 1100.48 3.67954 -0.605355 0
M  V30 11859 N 1102.66 0.908147 1.28804 0
M  V30 11860 C 1104.08 0.605474 1.47669 0
M  V30 11861 C 1104.28 -0.850759 1.82659 0
M  V30 11862 O 1103.33 -1.63029 1.92816 0
M  V30 11863 C 1104.65 1.53856 2.58358 0
M  V30 11864 C 1106.2 1.54467 2.7223 0
M  V30 11865 C 1106.67 2.46424 3.86056 0
M  V30 11866 N 1108.16 2.44519 3.93402 0
M  V30 11867 C 1108.9 3.12371 4.80845 0
M  V30 11868 N 1108.39 3.89533 5.72919 0
M  V30 11869 N 1110.19 3.01486 4.74407 0
M  V30 11870 H 1102.34 1.84988 1.04371 0
M  V30 11871 H 1104.6 0.793132 0.519274 0
M  V30 11872 H 1104.31 2.57651 2.39393 0
M  V30 11873 H 1104.18 1.26543 3.5534 0
M  V30 11874 H 1106.57 0.514127 2.90587 0
M  V30 11875 H 1106.65 1.85821 1.75796 0
M  V30 11876 H 1106.29 3.49577 3.68454 0
M  V30 11877 H 1106.22 2.12375 4.81876 0
M  V30 11878 H 1108.71 1.88464 3.27551 0
M  V30 11879 H 1109.03 4.3834 6.36457 0
M  V30 11880 H 1107.37 3.93639 5.72777 0
M  V30 11881 H 1110.56 2.40713 4.01466 0
M  V30 11882 H 1110.73 3.5464 5.42342 0
M  V30 11883 N 1104.14 -1.42577 0.671525 0
M  V30 11884 C 1105.09 -2.27978 -0.0315286 0
M  V30 11885 C 1106.07 -1.40907 -0.776796 0
M  V30 11886 O 1107.27 -1.64385 -0.656248 0
M  V30 11887 C 1104.4 -3.28884 -0.9844 0
M  V30 11888 C 1103.48 -4.23439 -0.236647 0
M  V30 11889 N 1103.87 -5.00107 0.756714 0
M  V30 11890 C 1102.17 -4.43457 -0.475551 0
M  V30 11891 C 1102.87 -5.69141 1.20221 0
M  V30 11892 N 1101.85 -5.40983 0.532802 0
M  V30 11893 H 1105.65 -2.84678 0.730455 0
M  V30 11894 H 1103.16 -1.54501 0.500317 0
M  V30 11895 H 1105.16 -3.88864 -1.50302 0
M  V30 11896 H 1103.82 -2.73745 -1.74625 0
M  V30 11897 H 1104.83 -5.05285 1.13613 0
M  V30 11898 H 1101.51 -3.99364 -1.21715 0
M  V30 11899 H 1102.9 -6.40653 2.02517 0
M  V30 11900 N 1105.62 -0.414636 -1.52048 0
M  V30 11901 C 1107.03 0.0537107 -1.86623 0
M  V30 11902 C 1107.38 1.43955 -1.3331 0
M  V30 11903 O 1106.51 2.05616 -0.674606 0
M  V30 11904 C 1107.1 0.104241 -3.3864 0
M  V30 11905 C 1105.66 0.516936 -3.72833 0
M  V30 11906 C 1104.81 -0.305042 -2.75617 0
M  V30 11907 H 1107.76 -0.631469 -1.45596 0
M  V30 11908 H 1107.78 0.918395 -3.6925 0
M  V30 11909 H 1107.29 -0.904523 -3.77412 0
M  V30 11910 H 1105.39 1.53214 -3.39641 0
M  V30 11911 H 1105.5 0.2575 -4.78408 0
M  V30 11912 H 1103.87 0.233416 -2.53628 0
M  V30 11913 H 1104.65 -1.31226 -3.1723 0
M  V30 11914 N 1107.1 1.56929 -0.145233 0
M  V30 11915 C 1108.32 2.00864 0.516564 0
M  V30 11916 C 1108.75 1.02466 1.57741 0
M  V30 11917 O 1108.1 0.000145439 1.813 0
M  V30 11918 C 1108.15 3.43552 1.09563 0
M  V30 11919 O 1107.26 3.4815 2.21055 0
M  V30 11920 H 1106.6 0.651835 0.126521 0
M  V30 11921 H 1109.13 2.0317 -0.241445 0
M  V30 11922 H 1109.14 3.82316 1.42473 0
M  V30 11923 H 1107.81 4.14677 0.318749 0
M  V30 11924 H 1106.39 3.21228 1.89387 0
M  V30 11925 N 1108.58 -0.128553 1.57075 0
M  V30 11926 C 1109.8 -0.85245 1.88523 0
M  V30 11927 C 1110.22 -1.73886 0.735459 0
M  V30 11928 O 1109.58 -1.80114 -0.294113 0
M  V30 11929 C 1109.63 -1.69384 3.19361 0
M  V30 11930 O 1109.35 -0.84313 4.2991 0
M  V30 11931 C 1110.85 -2.52373 3.64449 0
M  V30 11932 H 1108.07 -0.245556 0.624454 0
M  V30 11933 H 1110.61 -0.115807 2.04172 0
M  V30 11934 H 1108.77 -2.38335 3.0541 0
M  V30 11935 H 1109.18 -1.42255 5.0484 0
M  V30 11936 H 1110.66 -3.06955 4.58784 0
M  V30 11937 H 1111.13 -3.29283 2.90636 0
M  V30 11938 H 1111.74 -1.88681 3.81155 0
M  V30 11939 N 1110.05 -1.5248 -0.398459 0
M  V30 11940 C 1111.47 -1.4152 -0.737854 0
M  V30 11941 C 1111.67 -0.528122 -1.94456 0
M  V30 11942 O 1110.73 0.00203799 -2.525 0
M  V30 11943 C 1112.04 -2.8422 -0.9818 0
M  V30 11944 C 1113.59 -2.93635 -1.08386 0
M  V30 11945 C 1114.06 -4.37327 -1.3605 0
M  V30 11946 N 1115.55 -4.40609 -1.42892 0
M  V30 11947 C 1116.29 -5.48863 -1.65944 0
M  V30 11948 N 1115.78 -6.67217 -1.86529 0
M  V30 11949 N 1117.58 -5.36393 -1.68046 0
M  V30 11950 H 1109.73 -2.08681 0.395705 0
M  V30 11951 H 1111.99 -0.941023 0.114801 0
M  V30 11952 H 1111.7 -3.51302 -0.167358 0
M  V30 11953 H 1111.57 -3.25907 -1.89907 0
M  V30 11954 H 1113.96 -2.26728 -1.88888 0
M  V30 11955 H 1114.04 -2.5539 -0.144714 0
M  V30 11956 H 1113.68 -5.04797 -0.56061 0
M  V30 11957 H 1113.61 -4.73116 -2.31233 0
M  V30 11958 H 1116.1 -3.55298 -1.2873 0
M  V30 11959 H 1116.42 -7.45498 -2.03599 0
M  V30 11960 H 1114.76 -6.70263 -1.83773 0
M  V30 11961 H 1117.95 -4.42903 -1.51509 0
M  V30 11962 H 1118.13 -6.2083 -1.85672 0
M  V30 11963 N 1111.53 0.65634 -1.43283 0
M  V30 11964 C 1112.46 1.78184 -1.44164 0
M  V30 11965 C 1113.48 1.59249 -0.338177 0
M  V30 11966 O 1114.67 1.68027 -0.60242 0
M  V30 11967 C 1111.77 3.15566 -1.23577 0
M  V30 11968 C 1110.94 3.61187 -2.46704 0
M  V30 11969 C 1110 4.77361 -2.21388 0
M  V30 11970 O 1109.02 4.8696 -2.94718 0
M  V30 11971 N 1110.23 5.67351 -1.22855 0
M  V30 11972 H 1112.99 1.77907 -2.41183 0
M  V30 11973 H 1110.55 0.840076 -1.38399 0
M  V30 11974 H 1112.54 3.90968 -1.04529 0
M  V30 11975 H 1111.11 3.10633 -0.350155 0
M  V30 11976 H 1110.33 2.76263 -2.81198 0
M  V30 11977 H 1111.62 3.88413 -3.28652 0
M  V30 11978 H 1111.02 5.62265 -0.622417 0
M  V30 11979 H 1109.58 6.42487 -1.09791 0
M  V30 11980 N 1113.01 1.29761 0.894412 0
M  V30 11981 C 1113.96 1.15341 1.99912 0
M  V30 11982 C 1114.93 0.0453488 1.66038 0
M  V30 11983 O 1116.11 0.213829 1.89598 0
M  V30 11984 C 1113.25 0.841432 3.34685 0
M  V30 11985 C 1112.36 2.03046 3.81309 0
M  V30 11986 C 1111.5 1.65739 5.04682 0
M  V30 11987 C 1110.54 2.81191 5.43689 0
M  V30 11988 N 1109.68 2.44244 6.58247 0
M  V30 11989 H 1114.52 2.09854 2.11578 0
M  V30 11990 H 1112.05 1.04421 1.03608 0
M  V30 11991 H 1114.01 0.641211 4.12243 0
M  V30 11992 H 1112.64 -0.066797 3.22731 0
M  V30 11993 H 1111.69 2.34222 2.9974 0
M  V30 11994 H 1113 2.89538 4.06164 0
M  V30 11995 H 1112.16 1.42036 5.8984 0
M  V30 11996 H 1110.9 0.764019 4.81678 0
M  V30 11997 H 1109.9 3.0557 4.57064 0
M  V30 11998 H 1111.13 3.712 5.68672 0
M  V30 11999 H 1109.07 1.57402 6.36837 0
M  V30 12000 H 1108.99 3.24269 6.82924 0
M  V30 12001 H 1110.26 2.23875 7.46659 0
M  V30 12002 N 1114.49 -1.10549 1.12324 0
M  V30 12003 C 1115.42 -2.16657 0.747826 0
M  V30 12004 C 1116.43 -1.61238 -0.224981 0
M  V30 12005 O 1117.62 -1.78499 -0.00649408 0
M  V30 12006 C 1114.72 -3.38791 0.0859421 0
M  V30 12007 C 1113.89 -4.23655 1.08792 0
M  V30 12008 C 1112.95 -5.24239 0.453871 0
M  V30 12009 O 1111.98 -5.58262 1.11052 0
M  V30 12010 N 1113.18 -5.75246 -0.779215 0
M  V30 12011 H 1115.95 -2.49472 1.66084 0
M  V30 12012 H 1113.51 -1.26157 1.01469 0
M  V30 12013 H 1115.5 -4.03182 -0.350186 0
M  V30 12014 H 1114.07 -3.03961 -0.729807 0
M  V30 12015 H 1113.29 -3.55578 1.70171 0
M  V30 12016 H 1114.58 -4.77187 1.76549 0
M  V30 12017 H 1113.98 -5.49802 -1.3317 0
M  V30 12018 H 1112.53 -6.41428 -1.15818 0
M  V30 12019 N 1115.97 -0.914965 -1.28321 0
M  V30 12020 C 1117.21 -0.548749 -1.94923 0
M  V30 12021 C 1117.54 0.907776 -1.72016 0
M  V30 12022 O 1116.8 1.66097 -1.03491 0
M  V30 12023 C 1117.09 -0.805805 -3.48198 0
M  V30 12024 C 1116.76 -2.24207 -3.91206 0
M  V30 12025 C 1115.42 -2.63475 -4.02659 0
M  V30 12026 C 1117.77 -3.17667 -4.13204 0
M  V30 12027 C 1115.1 -3.95353 -4.3349 0
M  V30 12028 C 1117.45 -4.4911 -4.45514 0
M  V30 12029 C 1116.12 -4.8823 -4.55179 0
M  V30 12030 H 1115.39 -0.200801 -0.713274 0
M  V30 12031 H 1118.04 -1.15652 -1.52633 0
M  V30 12032 H 1116.34 -0.115244 -3.9163 0
M  V30 12033 H 1118.04 -0.501609 -3.9785 0
M  V30 12034 H 1114.63 -1.92737 -3.82819 0
M  V30 12035 H 1118.81 -2.88537 -4.03807 0
M  V30 12036 H 1114.07 -4.25362 -4.39178 0
M  V30 12037 H 1118.24 -5.21542 -4.61483 0
M  V30 12038 H 1115.87 -5.90451 -4.78823 0
M  V30 12039 N 1117.44 1.42219 -0.679077 0
M  V30 12040 C 1118.39 2.32599 0.00820028 0
M  V30 12041 C 1119.39 1.50059 0.786046 0
M  V30 12042 O 1120.59 1.66103 0.693528 0
M  V30 12043 H 1116.97 0.751694 0.0214483 0
M  V30 12044 H 1118.94 2.88257 -0.77138 0
M  V30 12045 C 1117.69 3.3468 0.942581 0
M  V30 12046 H 1117.01 3.98234 0.353463 0
M  V30 12047 H 1118.45 4.00496 1.39208 0
M  V30 12048 C 1116.91 2.67275 2.05099 0
M  V30 12049 O 1117.44 2.50793 3.13793 0
M  V30 12050 N 1115.64 2.26232 1.82394 0
M  V30 12051 H 1115.19 2.39838 0.939983 0
M  V30 12052 H 1115.15 1.81465 2.56744 0
M  V30 12053 N 1118.92 0.422693 1.51826 0
M  V30 12054 C 1119.88 -0.384307 2.25955 0
M  V30 12055 C 1120.88 -0.962184 1.28836 0
M  V30 12056 O 1122.07 -0.838931 1.52668 0
M  V30 12057 C 1119.21 -1.54228 3.04018 0
M  V30 12058 H 1120.4 0.265157 2.98726 0
M  V30 12059 H 1117.95 0.175515 1.55311 0
M  V30 12060 H 1118.69 -2.22822 2.35629 0
M  V30 12061 H 1118.47 -1.13425 3.75336 0
M  V30 12062 H 1119.96 -2.1128 3.60209 0
M  V30 12063 N 1120.4 -1.5685 0.153553 0
M  V30 12064 C 1121.63 -2.00701 -0.502678 0
M  V30 12065 C 1122.04 -1.0337 -1.57988 0
M  V30 12066 O 1121.4 -0.0317233 -1.82472 0
M  V30 12067 C 1121.45 -3.44443 -1.09732 0
M  V30 12068 O 1121.17 -4.38054 -0.0631405 0
M  V30 12069 C 1122.67 -4.03605 -1.83352 0
M  V30 12070 H 1119.89 -0.658229 -0.130289 0
M  V30 12071 H 1122.44 -2.02965 0.250063 0
M  V30 12072 H 1120.59 -3.43009 -1.80065 0
M  V30 12073 H 1121.01 -5.22114 -0.499681 0
M  V30 12074 H 1122.48 -5.0616 -2.20241 0
M  V30 12075 H 1122.96 -3.44687 -2.7219 0
M  V30 12076 H 1123.56 -4.08688 -1.17703 0
M  V30 12077 N 1121.88 0.120221 -1.57141 0
M  V30 12078 C 1123.11 0.842441 -1.88972 0
M  V30 12079 C 1123.52 1.73494 -0.744671 0
M  V30 12080 O 1122.88 1.80268 0.284557 0
M  V30 12081 C 1122.93 1.67688 -3.20254 0
M  V30 12082 O 1122.65 0.820319 -4.30351 0
M  V30 12083 C 1124.15 2.50436 -3.65782 0
M  V30 12084 H 1121.37 0.242241 -0.625748 0
M  V30 12085 H 1123.91 0.104978 -2.0423 0
M  V30 12086 H 1122.07 2.36712 -3.0667 0
M  V30 12087 H 1122.48 1.39575 -5.05588 0
M  V30 12088 H 1123.96 3.04518 -4.60405 0
M  V30 12089 H 1124.43 3.27737 -2.92378 0
M  V30 12090 H 1125.04 1.86657 -3.82151 0
M  V30 12091 N 1123.36 1.52689 0.390367 0
M  V30 12092 C 1124.61 1.6689 1.13272 0
M  V30 12093 C 1124.92 0.414433 1.91159 0
M  V30 12094 O 1126.12 0.436559 2.67967 0
M  V30 12095 C 1124.58 2.94929 2.06264 0
M  V30 12096 C 1124.19 4.27551 1.33805 0
M  V30 12097 C 1125.93 3.18497 2.80642 0
M  V30 12098 C 1123.84 5.46698 2.25554 0
M  V30 12099 H 1122.77 0.621749 0.426549 0
M  V30 12100 H 1125.42 1.79185 0.395615 0
M  V30 12101 H 1123.8 2.76378 2.83604 0
M  V30 12102 H 1124.98 4.56651 0.616997 0
M  V30 12103 H 1123.29 4.10234 0.713913 0
M  V30 12104 H 1125.89 4.04693 3.49467 0
M  V30 12105 H 1126.23 2.33511 3.44642 0
M  V30 12106 H 1126.76 3.37607 2.10395 0
M  V30 12107 H 1123.5 6.34088 1.66171 0
M  V30 12108 H 1123.02 5.21913 2.95579 0
M  V30 12109 H 1124.7 5.80519 2.85668 0
M  V30 12110 N 1124.83 -0.648732 1.43629 0
M  V30 12111 C 1126.25 -1.23001 1.40455 0
M  V30 12112 C 1126.6 -1.95886 0.110897 0
M  V30 12113 O 1125.72 -2.01485 -0.789487 0
M  V30 12114 C 1126.32 -2.23716 2.54434 0
M  V30 12115 C 1124.88 -2.77311 2.54511 0
M  V30 12116 C 1124.02 -1.52024 2.31914 0
M  V30 12117 H 1126.97 -0.440473 1.52465 0
M  V30 12118 H 1126.99 -3.05979 2.26179 0
M  V30 12119 H 1126.51 -1.7064 3.48574 0
M  V30 12120 H 1124.61 -3.34437 1.64263 0
M  V30 12121 H 1124.72 -3.2455 3.52426 0
M  V30 12122 H 1123.08 -1.79531 1.80667 0
M  V30 12123 H 1123.87 -1.00876 3.28145 0
M  V30 12124 N 1126.31 -1.30234 -0.887518 0
M  V30 12125 C 1127.22 -1.18316 -2.02579 0
M  V30 12126 C 1128.24 -0.103658 -1.73691 0
M  V30 12127 O 1129.41 -0.3181 -1.98872 0
M  V30 12128 C 1126.48 -0.873222 -3.35523 0
M  V30 12129 C 1125.54 -2.03783 -3.7785 0
M  V30 12130 C 1124.77 -1.74258 -5.0445 0
M  V30 12131 O 1125 -0.669295 -5.6646 0
M  V30 12132 O 1123.93 -2.59423 -5.43124 0
M  V30 12133 H 1127.76 -2.13933 -2.15561 0
M  V30 12134 H 1125.34 -1.09803 -1.0131 0
M  V30 12135 H 1127.22 -0.715463 -4.15282 0
M  V30 12136 H 1125.9 0.053056 -3.23657 0
M  V30 12137 H 1124.81 -2.2509 -2.98806 0
M  V30 12138 H 1126.14 -2.94574 -3.94318 0
M  V30 12139 N 1127.79 1.09952 -1.12909 0
M  V30 12140 C 1128.74 2.18525 -0.796849 0
M  V30 12141 C 1129.73 1.67985 0.218483 0
M  V30 12142 O 1130.94 1.79839 0.07618 0
M  V30 12143 H 1127.31 0.712714 -0.239882 0
M  V30 12144 H 1129.28 2.43783 -1.72083 0
M  V30 12145 C 1128.03 3.46625 -0.273237 0
M  V30 12146 H 1127.36 3.85879 -1.04582 0
M  V30 12147 H 1128.8 4.23926 -0.0791355 0
M  V30 12148 C 1127.26 3.2172 0.999903 0
M  V30 12149 O 1127.79 3.43851 2.07676 0
M  V30 12150 N 1125.99 2.75356 0.928833 0
M  V30 12151 H 1125.54 2.57547 0.052379 0
M  V30 12152 H 1125.5 2.5907 1.78129 0
M  V30 12153 N 1129.27 0.921757 1.27833 0
M  V30 12154 C 1130.55 0.477706 1.89677 0
M  V30 12155 C 1130.93 -1.04392 1.83481 0
M  V30 12156 O 1130.27 -1.89549 1.27606 0
M  V30 12157 C 1130.48 1.01709 3.33851 0
M  V30 12158 C 1131.83 1.074 4.10792 0
M  V30 12159 O 1132.86 0.966295 3.42843 0
M  V30 12160 O 1131.71 1.23909 5.32268 0
M  V30 12161 H 1128.81 0.15271 0.812778 0
M  V30 12162 H 1131.35 1.01306 1.36144 0
M  V30 12163 H 1130.13 2.061 3.32623 0
M  V30 12164 H 1129.75 0.463031 3.94895 0
M  V30 12165 N 1130.75 -1.41857 0.686609 0
M  V30 12166 C 1132 -2.00594 0.21095 0
M  V30 12167 C 1132.31 -1.54974 -1.19341 0
M  V30 12168 O 1133.51 -2.0621 -1.76607 0
M  V30 12169 C 1131.97 -3.58418 0.326261 0
M  V30 12170 C 1131.58 -4.13022 1.73542 0
M  V30 12171 C 1133.32 -4.24404 -0.0900816 0
M  V30 12172 C 1131.23 -5.6325 1.80287 0
M  V30 12173 H 1130.16 -0.75025 0.0751077 0
M  V30 12174 H 1132.81 -1.62442 0.853508 0
M  V30 12175 H 1131.19 -3.9413 -0.384394 0
M  V30 12176 H 1132.37 -3.88747 2.47411 0
M  V30 12177 H 1130.68 -3.5953 2.10065 0
M  V30 12178 H 1133.28 -5.34666 -0.060004 0
M  V30 12179 H 1133.62 -4.00745 -1.12733 0
M  V30 12180 H 1134.15 -3.93695 0.569979 0
M  V30 12181 H 1130.89 -5.91724 2.82034 0
M  V30 12182 H 1130.41 -5.89479 1.1079 0
M  V30 12183 H 1132.09 -6.2787 1.56167 0
M  V30 12184 N 1132.22 -0.430739 -1.51599 0
M  V30 12185 C 1133.13 0.390347 -2.3133 0
M  V30 12186 C 1134.15 1.03376 -1.39962 0
M  V30 12187 O 1135.33 1.03057 -1.73035 0
M  V30 12188 C 1132.39 1.48039 -3.13505 0
M  V30 12189 C 1131.45 0.857792 -4.20643 0
M  V30 12190 C 1130.69 1.89589 -4.9889 0
M  V30 12191 O 1130.91 3.11717 -4.77691 0
M  V30 12192 O 1129.84 1.49009 -5.83164 0
M  V30 12193 H 1133.67 -0.260358 -3.02582 0
M  V30 12194 H 1131.25 -0.193428 -1.48143 0
M  V30 12195 H 1133.14 2.11272 -3.64612 0
M  V30 12196 H 1131.81 2.1153 -2.45024 0
M  V30 12197 H 1130.72 0.187592 -3.73629 0
M  V30 12198 H 1132.05 0.266474 -4.91478 0
M  V30 12199 N 1133.7 1.56767 -0.161869 0
M  V30 12200 C 1134.65 2.17502 0.772102 0
M  V30 12201 C 1135.62 1.11223 1.23364 0
M  V30 12202 O 1136.8 1.39332 1.30351 0
M  V30 12203 C 1133.94 2.81248 1.99984 0
M  V30 12204 C 1133.06 4.01962 1.58274 0
M  V30 12205 C 1132.19 4.53662 2.76341 0
M  V30 12206 C 1131.23 5.66807 2.31076 0
M  V30 12207 N 1130.37 6.13059 3.42203 0
M  V30 12208 H 1135.21 2.96971 0.247382 0
M  V30 12209 H 1132.75 1.46685 0.110382 0
M  V30 12210 H 1134.7 3.16359 2.7198 0
M  V30 12211 H 1133.33 2.04398 2.49842 0
M  V30 12212 H 1132.39 3.72733 0.759874 0
M  V30 12213 H 1133.7 4.83891 1.2104 0
M  V30 12214 H 1132.85 4.90905 3.56507 0
M  V30 12215 H 1131.59 3.7077 3.16829 0
M  V30 12216 H 1130.6 5.29125 1.49354 0
M  V30 12217 H 1131.82 6.51494 1.91657 0
M  V30 12218 H 1129.77 5.33099 3.82285 0
M  V30 12219 H 1129.68 6.89953 3.09033 0
M  V30 12220 H 1130.95 6.54951 4.22682 0
M  V30 12221 N 1135.18 -0.111886 1.57202 0
M  V30 12222 C 1136.41 -0.832407 1.89416 0
M  V30 12223 C 1136.82 -1.73096 0.753861 0
M  V30 12224 O 1136.18 -1.80416 -0.274992 0
M  V30 12225 C 1136.23 -1.65988 3.21139 0
M  V30 12226 O 1135.95 -0.797485 4.3078 0
M  V30 12227 C 1137.45 -2.48493 3.67105 0
M  V30 12228 H 1134.67 -0.238919 0.627024 0
M  V30 12229 H 1137.22 -0.0941456 2.04283 0
M  V30 12230 H 1135.37 -2.35082 3.07921 0
M  V30 12231 H 1135.79 -1.36892 5.06321 0
M  V30 12232 H 1137.26 -3.02072 4.62014 0
M  V30 12233 H 1137.74 -3.26182 2.94112 0
M  V30 12234 H 1138.34 -1.84628 3.83135 0
M  V30 12235 N 1136.66 -1.52894 -0.382264 0
M  V30 12236 C 1137.94 -1.58853 -1.14127 0
M  V30 12237 C 1138.32 -0.38582 -2.07544 0
M  V30 12238 O 1137.66 0.625323 -2.19777 0
M  V30 12239 C 1137.87 -2.93068 -1.89504 0
M  V30 12240 C 1139.22 -3.47048 -2.44629 0
M  V30 12241 O 1140.25 -2.94987 -1.99652 0
M  V30 12242 O 1139.1 -4.3802 -3.26804 0
M  V30 12243 H 1136.2 -0.640969 -0.522578 0
M  V30 12244 H 1138.74 -1.65231 -0.386873 0
M  V30 12245 H 1137.52 -3.72047 -1.2123 0
M  V30 12246 H 1137.14 -2.90106 -2.7189 0
M  V30 12247 N 1138.14 0.641106 -1.43971 0
M  V30 12248 C 1139.55 1.22254 -1.41106 0
M  V30 12249 C 1139.9 1.95825 -0.121284 0
M  V30 12250 O 1139.02 2.01901 0.77879 0
M  V30 12251 C 1139.62 2.22364 -2.55617 0
M  V30 12252 C 1138.18 2.75957 -2.55978 0
M  V30 12253 C 1137.33 1.50792 -2.32717 0
M  V30 12254 H 1140.28 0.432381 -1.52696 0
M  V30 12255 H 1140.3 3.04775 -2.27799 0
M  V30 12256 H 1139.81 1.68789 -3.49474 0
M  V30 12257 H 1137.91 3.33562 -1.66034 0
M  V30 12258 H 1138.02 3.22676 -3.54142 0
M  V30 12259 H 1136.39 1.7857 -1.81617 0
M  V30 12260 H 1137.17 0.991343 -3.28675 0
M  V30 12261 N 1139.62 1.30703 0.880598 0
M  V30 12262 C 1140.86 1.20965 1.63521 0
M  V30 12263 C 1141.22 -0.232404 1.90991 0
M  V30 12264 O 1140.51 -1.16272 1.52287 0
M  V30 12265 C 1140.7 1.97628 2.97789 0
M  V30 12266 C 1140.53 3.49141 2.83427 0
M  V30 12267 C 1139.3 4.18496 2.83177 0
M  V30 12268 C 1141.5 4.44291 2.59056 0
M  V30 12269 N 1139.48 5.56239 2.59752 0
M  V30 12270 C 1140.85 5.69627 2.44795 0
M  V30 12271 C 1142.91 4.33837 2.44316 0
M  V30 12272 C 1141.61 6.85694 2.17293 0
M  V30 12273 C 1143.64 5.49675 2.182 0
M  V30 12274 C 1143 6.73995 2.04719 0
M  V30 12275 H 1139.1 0.497719 0.603158 0
M  V30 12276 H 1141.68 1.64765 1.03733 0
M  V30 12277 H 1139.85 1.56212 3.55601 0
M  V30 12278 H 1141.59 1.79996 3.62468 0
M  V30 12279 H 1138.34 3.70368 2.95168 0
M  V30 12280 H 1138.76 6.28735 2.5104 0
M  V30 12281 H 1143.41 3.38396 2.53471 0
M  V30 12282 H 1141.12 7.81171 2.06875 0
M  V30 12283 H 1144.71 5.43497 2.0761 0
M  V30 12284 H 1143.59 7.62116 1.84794 0
M  V30 12285 N 1141.09 -1.09351 1.1349 0
M  V30 12286 C 1142.34 -1.81543 0.897123 0
M  V30 12287 C 1142.67 -1.85754 -0.576703 0
M  V30 12288 O 1141.92 -1.32213 -1.44285 0
M  V30 12289 C 1142.22 -3.27498 1.43108 0
M  V30 12290 C 1141.89 -3.4342 2.92188 0
M  V30 12291 C 1140.55 -3.47473 3.32891 0
M  V30 12292 C 1142.9 -3.47894 3.88097 0
M  V30 12293 C 1140.23 -3.5358 4.68186 0
M  V30 12294 C 1142.58 -3.55535 5.23238 0
M  V30 12295 C 1141.25 -3.57857 5.63467 0
M  V30 12296 H 1140.52 -0.664314 0.32828 0
M  V30 12297 H 1143.16 -1.28819 1.41697 0
M  V30 12298 H 1141.47 -3.82865 0.831946 0
M  V30 12299 H 1143.17 -3.8189 1.22316 0
M  V30 12300 H 1139.76 -3.4095 2.59713 0
M  V30 12301 H 1143.94 -3.44002 3.57737 0
M  V30 12302 H 1139.2 -3.53665 4.9873 0
M  V30 12303 H 1143.37 -3.57942 5.9737 0
M  V30 12304 H 1141 -3.62341 6.68291 0
M  V30 12305 N 1142.57 -0.928524 -1.27343 0
M  V30 12306 C 1143.53 -0.43292 -2.25074 0
M  V30 12307 C 1144.53 0.448976 -1.54405 0
M  V30 12308 O 1145.72 0.249939 -1.72398 0
M  V30 12309 C 1142.86 0.377539 -3.38803 0
M  V30 12310 H 1144.05 -1.29642 -2.70431 0
M  V30 12311 H 1141.6 -0.709289 -1.3928 0
M  V30 12312 H 1142.34 1.25982 -2.98829 0
M  V30 12313 H 1142.12 -0.254782 -3.91271 0
M  V30 12314 H 1143.61 0.714634 -4.1144 0
M  V30 12315 N 1144.05 1.41491 -0.694123 0
M  V30 12316 C 1145 2.28 -0.00474478 0
M  V30 12317 C 1145.98 1.42125 0.754281 0
M  V30 12318 O 1147.18 1.65408 0.630012 0
M  V30 12319 C 1144.3 3.30408 0.931953 0
M  V30 12320 C 1143.39 4.23762 0.169251 0
M  V30 12321 N 1143.78 4.9884 -0.836181 0
M  V30 12322 C 1142.08 4.44158 0.40494 0
M  V30 12323 C 1142.78 5.67157 -1.2926 0
M  V30 12324 N 1141.76 5.40066 -0.6188 0
M  V30 12325 H 1145.56 2.8348 -0.775652 0
M  V30 12326 H 1143.07 1.53686 -0.524834 0
M  V30 12327 H 1145.07 3.91206 1.44097 0
M  V30 12328 H 1143.73 2.76489 1.70247 0
M  V30 12329 H 1144.74 5.03413 -1.21637 0
M  V30 12330 H 1141.42 4.0125 1.15346 0
M  V30 12331 H 1142.81 6.3735 -2.12684 0
M  V30 12332 N 1145.53 0.438773 1.51369 0
M  V30 12333 C 1146.94 0.0911416 1.5934 0
M  V30 12334 C 1147.14 -1.39962 1.44958 0
M  V30 12335 O 1146.2 -2.16968 1.29155 0
M  V30 12336 C 1147.51 0.612531 2.94395 0
M  V30 12337 C 1149.06 0.573098 3.07709 0
M  V30 12338 C 1149.54 1.07149 4.4529 0
M  V30 12339 N 1151.03 1.02953 4.51614 0
M  V30 12340 C 1151.76 1.38602 5.56397 0
M  V30 12341 N 1151.26 1.81543 6.68591 0
M  V30 12342 N 1153.05 1.30409 5.46763 0
M  V30 12343 H 1145.2 1.40872 1.58962 0
M  V30 12344 H 1147.46 0.580589 0.749414 0
M  V30 12345 H 1147.17 1.65562 3.10294 0
M  V30 12346 H 1147.04 0.0382375 3.77181 0
M  V30 12347 H 1149.43 -0.461006 2.91477 0
M  V30 12348 H 1149.51 1.18381 2.26759 0
M  V30 12349 H 1149.16 2.10406 4.62268 0
M  V30 12350 H 1149.09 0.437297 5.24781 0
M  V30 12351 H 1151.58 0.714208 3.7109 0
M  V30 12352 H 1151.89 2.06977 7.44567 0
M  V30 12353 H 1150.24 1.8547 6.69795 0
M  V30 12354 H 1153.43 0.967272 4.57997 0
M  V30 12355 H 1153.6 1.5852 6.28312 0
M  V30 12356 N 1147.01 -1.56678 0.170181 0
M  V30 12357 C 1148.23 -2.01223 -0.481362 0
M  V30 12358 C 1148.65 -1.05039 -1.56883 0
M  V30 12359 O 1148.01 -0.0510751 -1.82429 0
M  V30 12360 C 1148.06 -3.45588 -1.06073 0
M  V30 12361 O 1147.78 -4.38097 -0.0166754 0
M  V30 12362 C 1149.28 -4.05527 -1.79061 0
M  V30 12363 H 1146.5 -0.659574 -0.1233 0
M  V30 12364 H 1149.04 -2.02689 0.271576 0
M  V30 12365 H 1147.2 -3.449 -1.76417 0
M  V30 12366 H 1147.61 -5.22615 -0.444276 0
M  V30 12367 H 1149.09 -5.08467 -2.1486 0
M  V30 12368 H 1149.56 -3.47554 -2.68519 0
M  V30 12369 H 1150.17 -4.09914 -1.13361 0
M  V30 12370 N 1148.48 0.103547 -1.57259 0
M  V30 12371 C 1149.89 0.659006 -1.74683 0
M  V30 12372 C 1150.25 1.79542 -0.791142 0
M  V30 12373 O 1149.37 2.16376 0.0323585 0
M  V30 12374 C 1149.97 1.20222 -3.16752 0
M  V30 12375 C 1148.52 1.70382 -3.35629 0
M  V30 12376 C 1147.67 0.609886 -2.7051 0
M  V30 12377 H 1150.62 -0.122474 -1.58227 0
M  V30 12378 H 1150.64 2.07169 -3.19157 0
M  V30 12379 H 1150.16 0.374901 -3.86285 0
M  V30 12380 H 1148.26 2.55542 -2.71162 0
M  V30 12381 H 1148.37 1.80263 -4.43894 0
M  V30 12382 H 1146.73 1.04728 -2.32173 0
M  V30 12383 H 1147.52 -0.206713 -3.42677 0
M  V30 12384 N 1149.96 1.53094 0.37415 0
M  V30 12385 C 1150.89 1.73697 1.48002 0
M  V30 12386 C 1151.87 0.585109 1.51708 0
M  V30 12387 O 1153.06 0.816688 1.6989 0
M  V30 12388 C 1150.18 1.80802 2.86406 0
M  V30 12389 C 1149.23 3.02696 3.00462 0
M  V30 12390 S 1150.06 4.62386 2.70109 0
M  V30 12391 C 1151.22 4.72328 4.10679 0
M  V30 12392 H 1151.45 2.67223 1.30303 0
M  V30 12393 H 1148.98 1.43574 0.567957 0
M  V30 12394 H 1150.94 1.85581 3.66155 0
M  V30 12395 H 1149.6 0.883425 3.01421 0
M  V30 12396 H 1148.8 3.04252 4.01804 0
M  V30 12397 H 1148.4 2.95985 2.28624 0
M  V30 12398 H 1150.69 4.51856 5.04809 0
M  V30 12399 H 1151.63 5.7437 4.14131 0
M  V30 12400 H 1152.04 4.01035 3.9728 0
M  V30 12401 N 1151.44 -0.633461 1.44309 0
M  V30 12402 C 1152.85 -1.21504 1.41752 0
M  V30 12403 C 1153.2 -1.95758 0.131667 0
M  V30 12404 O 1152.33 -2.02311 -0.768072 0
M  V30 12405 C 1152.92 -2.21005 2.56792 0
M  V30 12406 C 1151.48 -2.74596 2.57438 0
M  V30 12407 C 1150.63 -1.49555 2.33513 0
M  V30 12408 H 1153.58 -0.424277 1.52923 0
M  V30 12409 H 1153.6 -3.03563 2.29412 0
M  V30 12410 H 1153.11 -1.66934 3.50364 0
M  V30 12411 H 1151.21 -3.32676 1.67801 0
M  V30 12412 H 1151.33 -3.20794 3.55849 0
M  V30 12413 H 1149.69 -1.77605 1.82561 0
M  V30 12414 H 1150.47 -0.973899 3.29196 0
M  V30 12415 N 1152.92 -1.31168 -0.873655 0
M  V30 12416 C 1153.87 -1.18507 -1.98052 0
M  V30 12417 C 1154.84 -0.0717583 -1.65945 0
M  V30 12418 O 1156.02 -0.243965 -1.89234 0
M  V30 12419 C 1153.16 -0.894571 -3.33304 0
M  V30 12420 C 1152.27 -2.09086 -3.7803 0
M  V30 12421 C 1151.41 -1.73747 -5.01982 0
M  V30 12422 C 1150.45 -2.89805 -5.39147 0
M  V30 12423 N 1149.58 -2.54686 -6.54278 0
M  V30 12424 H 1154.42 -2.13193 -2.08213 0
M  V30 12425 H 1151.96 -1.06056 -1.01934 0
M  V30 12426 H 1153.92 -0.706714 -4.11171 0
M  V30 12427 H 1152.55 0.0154449 -3.22796 0
M  V30 12428 H 1151.6 -2.38961 -2.95976 0
M  V30 12429 H 1152.91 -2.95963 -4.01506 0
M  V30 12430 H 1152.07 -1.51402 -5.87505 0
M  V30 12431 H 1150.81 -0.840553 -4.80402 0
M  V30 12432 H 1149.81 -3.12803 -4.52144 0
M  V30 12433 H 1151.04 -3.802 -5.62694 0
M  V30 12434 H 1148.98 -1.67513 -6.34252 0
M  V30 12435 H 1148.9 -3.35093 -6.77679 0
M  V30 12436 H 1150.17 -2.35725 -7.43003 0
M  V30 12437 N 1154.4 1.08748 -1.14068 0
M  V30 12438 C 1155.65 1.8044 -0.901352 0
M  V30 12439 C 1155.96 1.86995 0.573791 0
M  V30 12440 O 1157.16 2.55065 0.930275 0
M  V30 12441 C 1155.62 3.24185 -1.56308 0
M  V30 12442 C 1155.23 3.25875 -3.07424 0
M  V30 12443 C 1156.97 4.00584 -1.40473 0
M  V30 12444 C 1154.88 4.64186 -3.66449 0
M  V30 12445 H 1153.81 0.676201 -0.333569 0
M  V30 12446 H 1156.46 1.22169 -1.3692 0
M  V30 12447 H 1154.84 3.82561 -1.0229 0
M  V30 12448 H 1156.02 2.77225 -3.6808 0
M  V30 12449 H 1154.33 2.62969 -3.22856 0
M  V30 12450 H 1156.93 5.02781 -1.81976 0
M  V30 12451 H 1157.27 4.14823 -0.350408 0
M  V30 12452 H 1157.8 3.48668 -1.91508 0
M  V30 12453 H 1154.54 4.5515 -4.71719 0
M  V30 12454 H 1154.06 5.13132 -3.10574 0
M  V30 12455 H 1155.74 5.33161 -3.66536 0
M  V30 12456 N 1155.87 0.935264 1.26849 0
M  V30 12457 C 1156.81 0.397539 2.25726 0
M  V30 12458 C 1157.82 -0.475928 1.55688 0
M  V30 12459 O 1159.01 -0.287329 1.76172 0
M  V30 12460 C 1156.11 -0.448308 3.35922 0
M  V30 12461 C 1155.28 0.407624 4.35496 0
M  V30 12462 C 1154.34 -0.376815 5.24849 0
M  V30 12463 O 1153.37 0.218109 5.68782 0
M  V30 12464 N 1154.57 -1.67481 5.55815 0
M  V30 12465 H 1157.33 1.24753 2.72501 0
M  V30 12466 H 1154.89 0.803505 1.40554 0
M  V30 12467 H 1156.89 -0.980338 3.92647 0
M  V30 12468 H 1155.46 -1.19908 2.88688 0
M  V30 12469 H 1154.68 1.12091 3.77928 0
M  V30 12470 H 1155.96 0.992512 4.99026 0
M  V30 12471 H 1155.36 -2.18037 5.21993 0
M  V30 12472 H 1153.92 -2.15321 6.15207 0
M  V30 12473 N 1157.35 -1.41121 0.701616 0
M  V30 12474 C 1158.3 -2.32582 0.0288052 0
M  V30 12475 C 1159.29 -1.5129 -0.762074 0
M  V30 12476 O 1160.5 -1.67185 -0.667014 0
M  V30 12477 H 1156.88 -0.75194 -0.00948675 0
M  V30 12478 H 1158.85 -2.86994 0.817141 0
M  V30 12479 C 1157.6 -3.36137 -0.889217 0
M  V30 12480 H 1156.92 -3.98746 -0.290062 0
M  V30 12481 H 1158.36 -4.0266 -1.32819 0
M  V30 12482 C 1156.82 -2.70504 -2.00821 0
M  V30 12483 O 1157.35 -2.55753 -3.09763 0
M  V30 12484 N 1155.55 -2.29105 -1.78772 0
M  V30 12485 H 1155.1 -2.41303 -0.901708 0
M  V30 12486 H 1155.06 -1.85527 -2.53825 0
M  V30 12487 N 1158.83 -0.446794 -1.51134 0
M  V30 12488 C 1160.08 0.116666 -2.02464 0
M  V30 12489 C 1160.41 1.41532 -1.32975 0
M  V30 12490 O 1159.68 1.89278 -0.447651 0
M  V30 12491 C 1159.97 0.325659 -3.58624 0
M  V30 12492 C 1159.82 -0.992307 -4.38718 0
M  V30 12493 C 1161.14 1.09121 -4.26357 0
M  V30 12494 H 1158.26 0.0409262 -0.735863 0
M  V30 12495 H 1160.9 -0.587641 -1.80684 0
M  V30 12496 H 1159.05 0.925585 -3.77313 0
M  V30 12497 H 1160.72 -1.62694 -4.31658 0
M  V30 12498 H 1158.97 -1.5947 -4.03425 0
M  V30 12499 H 1159.64 -0.800005 -5.46172 0
M  V30 12500 H 1162.11 0.582944 -4.11996 0
M  V30 12501 H 1160.99 1.20621 -5.35483 0
M  V30 12502 H 1161.25 2.12171 -3.87861 0
M  V30 12503 N 1160.31 1.56586 -0.178487 0
M  V30 12504 C 1161.53 2.01915 0.473841 0
M  V30 12505 C 1161.96 1.05789 1.55533 0
M  V30 12506 O 1161.32 0.0386018 1.81259 0
M  V30 12507 C 1161.36 3.45799 1.02251 0
M  V30 12508 O 1160.47 3.52761 2.1362 0
M  V30 12509 H 1159.81 0.654372 0.112666 0
M  V30 12510 H 1162.34 2.02613 -0.284486 0
M  V30 12511 H 1162.35 3.85252 1.34332 0
M  V30 12512 H 1161.02 4.1526 0.230719 0
M  V30 12513 H 1159.6 3.25172 1.8253 0
M  V30 12514 N 1161.79 -0.095206 1.57312 0
M  V30 12515 C 1163.01 -0.81614 1.90667 0
M  V30 12516 C 1163.44 -1.71494 0.772746 0
M  V30 12517 O 1162.79 -1.79192 -0.275682 0
M  V30 12518 C 1162.84 -1.60555 3.22885 0
M  V30 12519 O 1161.95 -2.71448 3.10467 0
M  V30 12520 H 1161.29 -0.224217 0.624998 0
M  V30 12521 H 1163.82 -0.070464 2.04479 0
M  V30 12522 H 1163.83 -1.98979 3.5619 0
M  V30 12523 H 1162.5 -0.945918 4.05 0
M  V30 12524 H 1161.08 -2.36053 2.88675 0
M  V30 12525 N 1163.26 -1.53291 -0.366026 0
M  V30 12526 C 1164.49 -1.73665 -1.13381 0
M  V30 12527 C 1164.91 -0.464284 -1.8228 0
M  V30 12528 O 1164.27 0.581645 -1.71717 0
M  V30 12529 C 1164.32 -2.90225 -2.14013 0
M  V30 12530 O 1163.42 -2.58803 -3.21084 0
M  V30 12531 H 1162.77 -0.576762 -0.329 0
M  V30 12532 H 1165.3 -2.00174 -0.423287 0
M  V30 12533 H 1165.31 -3.16378 -2.57622 0
M  V30 12534 H 1163.98 -3.82518 -1.63257 0
M  V30 12535 H 1162.56 -2.43466 -2.82451 0
M  V30 12536 N 1164.74 0.6258 -1.44643 0
M  V30 12537 C 1166.02 1.38439 -1.38181 0
M  V30 12538 C 1166.4 2.11056 -0.0431928 0
M  V30 12539 O 1165.75 2.06683 0.974383 0
M  V30 12540 C 1165.96 2.34639 -2.58352 0
M  V30 12541 C 1167.31 2.97807 -3.02649 0
M  V30 12542 O 1168.33 2.44963 -2.58595 0
M  V30 12543 O 1167.19 3.93682 -3.79048 0
M  V30 12544 H 1164.28 0.619852 -0.54746 0
M  V30 12545 H 1166.83 0.650409 -1.56741 0
M  V30 12546 H 1165.6 1.80116 -3.47382 0
M  V30 12547 H 1165.22 3.15446 -2.42032 0
M  V30 12548 N 1166.22 1.31629 0.866686 0
M  V30 12549 C 1167.15 1.22151 1.99001 0
M  V30 12550 C 1168.13 0.107972 1.69757 0
M  V30 12551 O 1169.32 0.293125 1.91975 0
M  V30 12552 C 1166.45 0.93144 3.34577 0
M  V30 12553 C 1165.4 2.0049 3.78137 0
M  V30 12554 C 1164.73 1.56747 5.11209 0
M  V30 12555 C 1166.03 3.41844 3.94892 0
M  V30 12556 H 1167.72 2.16132 2.0719 0
M  V30 12557 H 1165.27 1.04051 0.995463 0
M  V30 12558 H 1167.22 0.851719 4.12703 0
M  V30 12559 H 1165.94 -0.0440289 3.2657 0
M  V30 12560 H 1164.6 2.07457 3.02253 0
M  V30 12561 H 1164.25 0.579767 4.99648 0
M  V30 12562 H 1163.95 2.28562 5.41326 0
M  V30 12563 H 1165.47 1.50188 5.91841 0
M  V30 12564 H 1166.89 3.37534 4.63405 0
M  V30 12565 H 1165.29 4.11905 4.36411 0
M  V30 12566 H 1166.36 3.82389 2.98172 0
M  V30 12567 N 1167.7 -1.08142 1.14644 0
M  V30 12568 C 1168.63 -2.17139 0.858667 0
M  V30 12569 C 1169.61 -1.69064 -0.187452 0
M  V30 12570 O 1170.8 -1.94151 -0.0435458 0
M  V30 12571 C 1167.93 -3.45648 0.33834 0
M  V30 12572 C 1166.88 -4.07129 1.32021 0
M  V30 12573 C 1166.21 -5.30623 0.659075 0
M  V30 12574 C 1167.51 -4.48095 2.68343 0
M  V30 12575 H 1169.2 -2.41468 1.77012 0
M  V30 12576 H 1166.75 -1.16052 0.852523 0
M  V30 12577 H 1168.7 -4.21216 0.124611 0
M  V30 12578 H 1167.42 -3.2088 -0.608553 0
M  V30 12579 H 1166.08 -3.33596 1.52016 0
M  V30 12580 H 1165.73 -5.02142 -0.293711 0
M  V30 12581 H 1165.43 -5.72714 1.31427 0
M  V30 12582 H 1166.95 -6.08903 0.454933 0
M  V30 12583 H 1168.37 -5.14828 2.5224 0
M  V30 12584 H 1166.76 -5.01113 3.30161 0
M  V30 12585 H 1167.83 -3.59852 3.25015 0
M  V30 12586 N 1169.18 -0.941978 -1.26351 0
M  V30 12587 C 1170.11 -0.396486 -2.24729 0
M  V30 12588 C 1171.09 0.51514 -1.54224 0
M  V30 12589 O 1172.27 0.452405 -1.82991 0
M  V30 12590 C 1169.4 0.430232 -3.35956 0
M  V30 12591 C 1168.45 -0.419981 -4.24427 0
M  V30 12592 S 1169.28 -1.84442 -5.02734 0
M  V30 12593 C 1170.43 -1.02578 -6.17437 0
M  V30 12594 H 1170.67 -1.23025 -2.70651 0
M  V30 12595 H 1168.2 -0.745148 -1.35229 0
M  V30 12596 H 1170.16 0.901315 -4.00483 0
M  V30 12597 H 1168.82 1.23868 -2.88644 0
M  V30 12598 H 1168.01 0.213475 -5.03548 0
M  V30 12599 H 1167.61 -0.82578 -3.6477 0
M  V30 12600 H 1169.91 -0.268431 -6.76968 0
M  V30 12601 H 1170.85 -1.79047 -6.85089 0
M  V30 12602 H 1171.26 -0.561488 -5.61701 0
M  V30 12603 N 1170.66 1.40747 -0.709091 0
M  V30 12604 C 1171.59 2.33404 -0.0669763 0
M  V30 12605 C 1172.57 1.52546 0.752582 0
M  V30 12606 O 1173.75 1.81036 0.702823 0
M  V30 12607 C 1170.88 3.36476 0.860285 0
M  V30 12608 C 1169.84 4.27748 0.146828 0
M  V30 12609 C 1169.16 5.21304 1.18937 0
M  V30 12610 C 1170.46 5.12734 -0.995064 0
M  V30 12611 H 1172.16 2.87349 -0.840888 0
M  V30 12612 H 1169.7 1.38163 -0.405817 0
M  V30 12613 H 1171.65 4.00231 1.31883 0
M  V30 12614 H 1170.38 2.80912 1.66602 0
M  V30 12615 H 1169.04 3.65437 -0.291826 0
M  V30 12616 H 1168.69 4.62048 1.98798 0
M  V30 12617 H 1168.39 5.8321 0.716917 0
M  V30 12618 H 1169.91 5.87936 1.64815 0
M  V30 12619 H 1171.32 5.69979 -0.61618 0
M  V30 12620 H 1169.72 5.83649 -1.39547 0
M  V30 12621 H 1170.79 4.49097 -1.82867 0
M  V30 12622 N 1172.13 0.454803 1.50895 0
M  V30 12623 C 1173.06 -0.337982 2.31041 0
M  V30 12624 C 1174.04 -1.00523 1.37219 0
M  V30 12625 O 1175.23 -1.00553 1.66141 0
M  V30 12626 C 1172.36 -1.42964 3.1651 0
M  V30 12627 C 1171.31 -0.884907 4.18752 0
M  V30 12628 C 1170.64 -2.07363 4.92854 0
M  V30 12629 C 1171.94 0.0926716 5.22218 0
M  V30 12630 H 1173.63 0.33089 2.97566 0
M  V30 12631 H 1171.18 0.160577 1.43102 0
M  V30 12632 H 1173.13 -1.9916 3.71367 0
M  V30 12633 H 1171.86 -2.12705 2.47839 0
M  V30 12634 H 1170.52 -0.345031 3.64973 0
M  V30 12635 H 1170.16 -2.75764 4.2067 0
M  V30 12636 H 1169.86 -1.71545 5.62002 0
M  V30 12637 H 1171.39 -2.6408 5.5054 0
M  V30 12638 H 1172.8 -0.379568 5.72042 0
M  V30 12639 H 1171.2 0.3643 5.98993 0
M  V30 12640 H 1172.27 1.02383 4.73968 0
M  V30 12641 N 1173.61 -1.56489 0.186789 0
M  V30 12642 C 1175.03 -1.58701 -0.169176 0
M  V30 12643 C 1175.23 -1.2027 -1.61671 0
M  V30 12644 O 1174.28 -0.92154 -2.35083 0
M  V30 12645 C 1175.6 -3.00437 0.125657 0
M  V30 12646 C 1177.14 -3.12932 0.0651 0
M  V30 12647 C 1177.62 -4.56787 0.333131 0
M  V30 12648 N 1179.11 -4.62344 0.281453 0
M  V30 12649 C 1179.85 -5.71529 0.462805 0
M  V30 12650 N 1179.34 -6.89213 0.704054 0
M  V30 12651 N 1181.13 -5.60692 0.397636 0
M  V30 12652 H 1173.29 -1.79754 1.13148 0
M  V30 12653 H 1175.55 -0.83385 0.450997 0
M  V30 12654 H 1175.25 -3.33086 1.12901 0
M  V30 12655 H 1175.13 -3.72782 -0.575612 0
M  V30 12656 H 1177.52 -2.80101 -0.928845 0
M  V30 12657 H 1177.6 -2.42991 0.799318 0
M  V30 12658 H 1177.24 -4.9033 1.32436 0
M  V30 12659 H 1177.17 -5.24907 -0.421879 0
M  V30 12660 H 1179.66 -3.77764 0.101266 0
M  V30 12661 H 1179.97 -7.68314 0.831468 0
M  V30 12662 H 1178.32 -6.9104 0.740851 0
M  V30 12663 H 1181.51 -4.6763 0.20964 0
M  V30 12664 H 1181.68 -6.45726 0.54239 0
M  V30 12665 N 1175.09 0.086862 -1.5736 0
M  V30 12666 C 1176.02 1.13117 -1.99342 0
M  V30 12667 C 1177.03 1.35849 -0.897151 0
M  V30 12668 O 1178.22 1.34356 -1.17519 0
M  V30 12669 C 1175.32 2.48511 -2.30425 0
M  V30 12670 C 1174.5 2.45942 -3.61706 0
M  V30 12671 C 1173.56 3.63327 -3.80631 0
M  V30 12672 O 1172.58 3.45443 -4.52392 0
M  V30 12673 N 1173.78 4.83118 -3.21835 0
M  V30 12674 H 1176.55 0.773782 -2.89539 0
M  V30 12675 H 1174.11 0.275731 -1.59535 0
M  V30 12676 H 1176.1 3.25656 -2.40272 0
M  V30 12677 H 1174.67 2.76308 -1.46194 0
M  V30 12678 H 1173.89 1.54287 -3.62752 0
M  V30 12679 H 1175.18 2.41313 -4.47935 0
M  V30 12680 H 1174.58 5.00552 -2.6356 0
M  V30 12681 H 1173.13 5.57827 -3.37154 0
M  V30 12682 N 1176.57 1.53483 0.357892 0
M  V30 12683 C 1177.79 1.74264 1.12458 0
M  V30 12684 C 1178.22 0.473944 1.82031 0
M  V30 12685 O 1177.58 -0.57253 1.72023 0
M  V30 12686 C 1177.62 2.91356 2.12471 0
M  V30 12687 O 1176.73 2.60502 3.19707 0
M  V30 12688 H 1176.07 0.578499 0.325937 0
M  V30 12689 H 1178.6 2.00395 0.412666 0
M  V30 12690 H 1178.61 3.1774 2.5594 0
M  V30 12691 H 1177.28 3.83378 1.61226 0
M  V30 12692 H 1175.86 2.44961 2.81156 0
M  V30 12693 N 1178.05 -0.61812 1.44973 0
M  V30 12694 C 1179.46 -1.19994 1.43033 0
M  V30 12695 C 1179.81 -1.95607 0.152422 0
M  V30 12696 O 1178.93 -2.03114 -0.746571 0
M  V30 12697 C 1179.53 -2.18269 2.59122 0
M  V30 12698 C 1178.09 -2.7185 2.60336 0
M  V30 12699 C 1177.23 -1.4707 2.35086 0
M  V30 12700 H 1180.18 -0.408034 1.53365 0
M  V30 12701 H 1180.21 -3.01113 2.32619 0
M  V30 12702 H 1179.72 -1.63208 3.52115 0
M  V30 12703 H 1177.82 -3.30878 1.7132 0
M  V30 12704 H 1177.93 -3.17001 3.59231 0
M  V30 12705 H 1176.3 -1.75658 1.84435 0
M  V30 12706 H 1177.08 -0.938928 3.30211 0
M  V30 12707 N 1179.52 -1.32087 -0.859693 0
M  V30 12708 C 1180.75 -1.25348 -1.64607 0
M  V30 12709 C 1181.17 0.179425 -1.87945 0
M  V30 12710 O 1180.52 1.11487 -1.44489 0
M  V30 12711 C 1180.57 -2.0047 -3.00822 0
M  V30 12712 O 1180.3 -3.38169 -2.7852 0
M  V30 12713 C 1181.8 -2.00694 -3.95268 0
M  V30 12714 H 1179.02 -0.432692 -0.512854 0
M  V30 12715 H 1181.56 -1.7413 -1.07234 0
M  V30 12716 H 1179.72 -1.55423 -3.54855 0
M  V30 12717 H 1180.13 -3.76553 -3.65113 0
M  V30 12718 H 1181.6 -2.57748 -4.88129 0
M  V30 12719 H 1182.08 -0.99196 -4.27851 0
M  V30 12720 H 1182.69 -2.45666 -3.47172 0
M  V30 12721 N 1181 1.07532 -1.15215 0
M  V30 12722 C 1182.41 1.61567 -0.935568 0
M  V30 12723 C 1182.76 1.89085 0.523557 0
M  V30 12724 O 1181.89 1.65495 1.39429 0
M  V30 12725 C 1182.48 2.93531 -1.69189 0
M  V30 12726 C 1181.04 3.44316 -1.52063 0
M  V30 12727 C 1180.19 2.18404 -1.70866 0
M  V30 12728 H 1183.14 0.906431 -1.30267 0
M  V30 12729 H 1183.16 3.62377 -1.16031 0
M  V30 12730 H 1182.67 2.73471 -2.75381 0
M  V30 12731 H 1180.77 3.69462 -0.482567 0
M  V30 12732 H 1180.89 4.20478 -2.29642 0
M  V30 12733 H 1179.25 2.28012 -1.13502 0
M  V30 12734 H 1180.03 2.00841 -2.7842 0
M  V30 12735 N 1182.48 0.948665 1.2585 0
M  V30 12736 C 1183.43 0.434929 2.23813 0
M  V30 12737 C 1184.41 -0.472518 1.53805 0
M  V30 12738 O 1185.61 -0.306542 1.74325 0
M  V30 12739 C 1182.74 -0.291678 3.42059 0
M  V30 12740 C 1181.82 0.633493 4.19342 0
M  V30 12741 N 1182.21 1.76254 4.74097 0
M  V30 12742 C 1180.51 0.440528 4.43819 0
M  V30 12743 C 1181.21 2.33968 5.32573 0
M  V30 12744 N 1180.19 1.62687 5.18685 0
M  V30 12745 H 1183.99 1.29668 2.63749 0
M  V30 12746 H 1181.5 0.805431 1.4102 0
M  V30 12747 H 1183.5 -0.676811 4.1137 0
M  V30 12748 H 1182.16 -1.15011 3.03649 0
M  V30 12749 H 1183.17 2.14453 4.71413 0
M  V30 12750 H 1179.85 -0.375515 4.15808 0
M  V30 12751 H 1181.24 3.2914 5.85761 0
M  V30 12752 N 1183.96 -1.40369 0.716545 0
M  V30 12753 C 1185.21 -2.00473 0.255959 0
M  V30 12754 C 1185.53 -1.57104 -1.15514 0
M  V30 12755 O 1184.8 -0.810925 -1.78328 0
M  V30 12756 H 1183.38 -0.741357 0.0916427 0
M  V30 12757 H 1186.04 -1.71692 0.922389 0
M  V30 12758 H 1185.14 -3.10752 0.289806 0
M  V30 12759 N 1185.44 -0.462799 -1.50652 0
M  V30 12760 C 1186.37 0.325724 -2.31217 0
M  V30 12761 C 1187.35 0.997942 -1.3775 0
M  V30 12762 O 1188.53 0.996707 -1.66671 0
M  V30 12763 C 1185.66 1.41283 -3.17264 0
M  V30 12764 C 1184.62 0.862687 -4.19216 0
M  V30 12765 C 1183.94 2.04746 -4.93946 0
M  V30 12766 C 1185.24 -0.120365 -5.22161 0
M  V30 12767 H 1186.94 -0.346666 -2.97386 0
M  V30 12768 H 1184.48 -0.168163 -1.43015 0
M  V30 12769 H 1186.44 1.97188 -3.72418 0
M  V30 12770 H 1185.16 2.11387 -2.48964 0
M  V30 12771 H 1183.82 0.325671 -3.65151 0
M  V30 12772 H 1183.47 2.73529 -4.22127 0
M  V30 12773 H 1183.17 1.68562 -5.62904 0
M  V30 12774 H 1184.69 2.61157 -5.51932 0
M  V30 12775 H 1186.1 0.349226 -5.72235 0
M  V30 12776 H 1184.5 -0.396061 -5.98792 0
M  V30 12777 H 1185.57 -1.04895 -4.73418 0
M  V30 12778 N 1186.91 1.56388 -0.195085 0
M  V30 12779 C 1188.14 2.02406 0.452399 0
M  V30 12780 C 1188.56 1.07432 1.54402 0
M  V30 12781 O 1187.92 0.0578246 1.81208 0
M  V30 12782 C 1187.97 3.46864 0.985778 0
M  V30 12783 O 1187.07 3.55007 2.09867 0
M  V30 12784 H 1186.42 0.65553 0.105719 0
M  V30 12785 H 1188.95 2.02299 -0.30596 0
M  V30 12786 H 1188.96 3.86655 1.30238 0
M  V30 12787 H 1187.63 4.15481 0.186662 0
M  V30 12788 H 1186.21 3.2709 1.79071 0
M  V30 12789 N 1188.39 -0.0785156 1.57404 0
M  V30 12790 C 1189.32 -1.09446 2.06262 0
M  V30 12791 C 1190.3 -1.40777 0.954772 0
M  V30 12792 O 1191.49 -1.5052 1.22708 0
M  V30 12793 C 1188.62 -2.40979 2.50093 0
M  V30 12794 C 1187.57 -2.24017 3.64692 0
M  V30 12795 C 1186.9 -3.60873 3.94556 0
M  V30 12796 C 1188.2 -1.66696 4.94985 0
M  V30 12797 H 1189.89 -0.687928 2.9139 0
M  V30 12798 H 1187.44 -0.329466 1.4018 0
M  V30 12799 H 1189.39 -3.12337 2.82884 0
M  V30 12800 H 1188.12 -2.83599 1.61985 0
M  V30 12801 H 1186.77 -1.55101 3.32174 0
M  V30 12802 H 1186.42 -4.01051 3.0359 0
M  V30 12803 H 1186.12 -3.50365 4.71718 0
M  V30 12804 H 1187.65 -4.33673 4.29837 0
M  V30 12805 H 1189.06 -2.27913 5.2605 0
M  V30 12806 H 1187.46 -1.66902 5.76423 0
M  V30 12807 H 1188.53 -0.627827 4.80818 0
M  V30 12808 N 1189.87 -1.5367 -0.349747 0
M  V30 12809 C 1191.1 -1.74858 -1.11532 0
M  V30 12810 C 1191.52 -0.483591 -1.81777 0
M  V30 12811 O 1190.88 0.563399 -1.72324 0
M  V30 12812 C 1190.93 -2.92479 -2.10923 0
M  V30 12813 O 1190.03 -2.62194 -3.18321 0
M  V30 12814 H 1189.37 -0.580219 -0.322865 0
M  V30 12815 H 1191.9 -2.00611 -0.402033 0
M  V30 12816 H 1191.91 -3.19093 -2.54252 0
M  V30 12817 H 1190.59 -3.84228 -1.59191 0
M  V30 12818 H 1189.16 -2.46448 -2.79853 0
M  V30 12819 N 1191.35 0.610423 -1.45298 0
M  V30 12820 C 1192.63 1.36966 -1.39641 0
M  V30 12821 C 1193.01 2.10998 -0.0655757 0
M  V30 12822 O 1192.35 2.07705 0.952407 0
M  V30 12823 C 1192.56 2.31885 -2.60826 0
M  V30 12824 C 1193.91 2.9458 -3.05791 0
M  V30 12825 O 1194.94 2.42207 -2.61179 0
M  V30 12826 O 1193.79 3.89639 -3.83202 0
M  V30 12827 H 1190.89 0.61401 -0.554004 0
M  V30 12828 H 1193.43 0.633748 -1.57422 0
M  V30 12829 H 1192.21 1.76421 -3.49272 0
M  V30 12830 H 1191.83 3.12861 -2.45364 0
M  V30 12831 N 1192.83 1.32541 0.852676 0
M  V30 12832 C 1193.76 1.24254 1.97694 0
M  V30 12833 C 1194.74 0.125971 1.69633 0
M  V30 12834 O 1195.92 0.31347 1.91653 0
M  V30 12835 C 1193.05 0.966874 3.3357 0
M  V30 12836 C 1192.01 2.0449 3.75989 0
M  V30 12837 C 1191.33 1.6216 5.09518 0
M  V30 12838 C 1192.63 3.46013 3.91244 0
M  V30 12839 H 1194.33 2.18317 2.04886 0
M  V30 12840 H 1191.87 1.05101 0.984371 0
M  V30 12841 H 1193.83 0.895444 4.11776 0
M  V30 12842 H 1192.55 -0.0093893 3.26599 0
M  V30 12843 H 1191.21 2.10651 3.00036 0
M  V30 12844 H 1190.86 0.632729 4.99005 0
M  V30 12845 H 1190.56 2.3429 5.38871 0
M  V30 12846 H 1192.08 1.56457 5.90215 0
M  V30 12847 H 1193.49 3.4243 4.59799 0
M  V30 12848 H 1191.89 4.1651 4.32017 0
M  V30 12849 H 1192.96 3.8553 2.941 0
M  V30 12850 N 1194.3 -1.0692 1.15784 0
M  V30 12851 C 1195.24 -2.14168 0.816375 0
M  V30 12852 C 1196.25 -1.61872 -0.17357 0
M  V30 12853 O 1197.44 -1.78429 0.0502973 0
M  V30 12854 C 1194.54 -3.38346 0.193682 0
M  V30 12855 C 1193.71 -4.19979 1.22215 0
M  V30 12856 C 1192.77 -5.2253 0.620424 0
M  V30 12857 O 1191.8 -5.54446 1.28757 0
M  V30 12858 N 1193 -5.77434 -0.595811 0
M  V30 12859 H 1195.76 -2.44062 1.73937 0
M  V30 12860 H 1193.32 -1.22865 1.05431 0
M  V30 12861 H 1195.32 -4.04092 -0.22174 0
M  V30 12862 H 1193.89 -3.06129 -0.632735 0
M  V30 12863 H 1193.11 -3.49984 1.81397 0
M  V30 12864 H 1194.39 -4.71329 1.91641 0
M  V30 12865 H 1193.79 -5.5376 -1.15611 0
M  V30 12866 H 1192.35 -6.44788 -0.953529 0
M  V30 12867 N 1195.78 -0.955326 -1.25345 0
M  V30 12868 C 1196.69 -0.482707 -2.2958 0
M  V30 12869 C 1197.71 0.450283 -1.68073 0
M  V30 12870 O 1198.88 0.326358 -1.98738 0
M  V30 12871 C 1195.95 0.231293 -3.45928 0
M  V30 12872 C 1195.01 -0.739995 -4.22874 0
M  V30 12873 C 1194.24 -0.0599748 -5.33666 0
M  V30 12874 O 1194.47 1.15423 -5.586 0
M  V30 12875 O 1193.4 -0.745865 -5.97261 0
M  V30 12876 H 1197.23 -1.34892 -2.72099 0
M  V30 12877 H 1194.81 -0.721812 -1.30806 0
M  V30 12878 H 1196.69 0.632908 -4.1662 0
M  V30 12879 H 1195.37 1.07267 -3.0541 0
M  V30 12880 H 1194.28 -1.19183 -3.54607 0
M  V30 12881 H 1195.61 -1.54941 -4.67177 0
M  V30 12882 N 1197.26 1.39987 -0.723979 0
M  V30 12883 C 1198.22 2.29041 -0.0854583 0
M  V30 12884 C 1199.22 1.45777 0.678657 0
M  V30 12885 O 1200.41 1.66588 0.509311 0
M  V30 12886 C 1197.55 3.29115 0.88859 0
M  V30 12887 H 1198.74 2.87006 -0.869903 0
M  V30 12888 H 1196.29 1.48449 -0.489136 0
M  V30 12889 H 1197.03 2.76184 1.69979 0
M  V30 12890 H 1196.81 3.90593 0.343454 0
M  V30 12891 H 1198.3 3.95778 1.33227 0
M  V30 12892 N 1198.74 0.470782 1.50404 0
M  V30 12893 C 1199.69 -0.32355 2.28521 0
M  V30 12894 C 1200.66 -0.987472 1.3356 0
M  V30 12895 O 1201.84 -0.999969 1.62497 0
M  V30 12896 C 1198.98 -1.39977 3.15437 0
M  V30 12897 C 1198.09 -0.750656 4.25428 0
M  V30 12898 C 1197.23 -1.80474 4.99602 0
M  V30 12899 C 1196.27 -1.13586 6.01469 0
M  V30 12900 N 1195.41 -2.13279 6.68922 0
M  V30 12901 H 1200.25 0.348902 2.9595 0
M  V30 12902 H 1197.78 0.183908 1.45946 0
M  V30 12903 H 1199.74 -2.0354 3.6418 0
M  V30 12904 H 1198.37 -2.04139 2.50054 0
M  V30 12905 H 1197.42 -0.00247092 3.804 0
M  V30 12906 H 1198.73 -0.222638 4.98303 0
M  V30 12907 H 1197.89 -2.51619 5.52062 0
M  V30 12908 H 1196.63 -2.36657 4.26433 0
M  V30 12909 H 1195.63 -0.410042 5.48269 0
M  V30 12910 H 1196.86 -0.580935 6.76611 0
M  V30 12911 H 1194.8 -2.68479 5.98544 0
M  V30 12912 H 1194.72 -1.65461 7.37671 0
M  V30 12913 H 1195.99 -2.83804 7.26 0
M  V30 12914 N 1200.22 -1.56282 0.203376 0
M  V30 12915 C 1201.45 -2.01905 -0.437936 0
M  V30 12916 C 1201.86 -1.08263 -1.55164 0
M  V30 12917 O 1201.2 -0.0811746 -1.83521 0
M  V30 12918 C 1201.26 -3.43908 -1.04725 0
M  V30 12919 C 1200.92 -4.56944 -0.0712582 0
M  V30 12920 C 1201.92 -5.14856 0.72243 0
M  V30 12921 C 1199.61 -5.02282 0.0422267 0
M  V30 12922 C 1201.6 -6.16562 1.61649 0
M  V30 12923 C 1199.29 -6.0383 0.939835 0
M  V30 12924 C 1200.29 -6.60844 1.72552 0
M  V30 12925 O 1199.97 -7.60417 2.60808 0
M  V30 12926 H 1199.71 -0.666416 -0.11343 0
M  V30 12927 H 1202.26 -2.03019 0.311833 0
M  V30 12928 H 1200.49 -3.39806 -1.84577 0
M  V30 12929 H 1202.18 -3.73288 -1.59407 0
M  V30 12930 H 1202.94 -4.80691 0.645105 0
M  V30 12931 H 1198.82 -4.57596 -0.559165 0
M  V30 12932 H 1202.37 -6.6099 2.23019 0
M  V30 12933 H 1198.26 -6.37418 1.01824 0
M  V30 12934 H 1199.03 -7.77869 2.54679 0
M  V30 12935 N 1201.7 0.070167 -1.57444 0
M  V30 12936 C 1202.61 1.10106 -2.07157 0
M  V30 12937 C 1203.62 1.42293 -1.00143 0
M  V30 12938 O 1204.8 1.52437 -1.31624 0
M  V30 12939 C 1201.86 2.39486 -2.50694 0
M  V30 12940 C 1200.92 2.14255 -3.72012 0
M  V30 12941 C 1200.16 3.37466 -4.13464 0
M  V30 12942 O 1200.38 4.46645 -3.54773 0
M  V30 12943 O 1199.31 3.25583 -5.0624 0
M  V30 12944 H 1203.14 0.70873 -2.95315 0
M  V30 12945 H 1200.72 0.28441 -1.46668 0
M  V30 12946 H 1202.61 3.15625 -2.79212 0
M  V30 12947 H 1201.28 2.78095 -1.65664 0
M  V30 12948 H 1200.19 1.35816 -3.48575 0
M  V30 12949 H 1201.52 1.80525 -4.57899 0
M  V30 12950 N 1203.17 1.53854 0.341593 0
M  V30 12951 C 1204.4 1.75134 1.10162 0
M  V30 12952 C 1204.82 0.491415 1.82292 0
M  V30 12953 O 1204.17 -0.53703 1.7442 0
M  V30 12954 C 1204.22 2.93273 2.1136 0
M  V30 12955 O 1203.95 4.14393 1.42162 0
M  V30 12956 C 1205.45 3.26621 2.99723 0
M  V30 12957 H 1202.67 0.585126 0.328434 0
M  V30 12958 H 1205.21 2.00684 0.393204 0
M  V30 12959 H 1203.37 2.70048 2.77764 0
M  V30 12960 H 1203.78 4.8072 2.09783 0
M  V30 12961 H 1205.25 4.12629 3.66662 0
M  V30 12962 H 1205.73 2.43008 3.65847 0
M  V30 12963 H 1206.34 3.51858 2.38906 0
M  V30 12964 N 1204.65 -0.602709 1.4562 0
M  V30 12965 C 1205.9 -1.36158 1.49891 0
M  V30 12966 C 1206.23 -1.93977 0.142581 0
M  V30 12967 O 1205.48 -1.75822 -0.859374 0
M  V30 12968 C 1205.78 -2.52474 2.52966 0
M  V30 12969 C 1205.45 -2.12772 3.97541 0
M  V30 12970 C 1204.11 -2.01658 4.36907 0
M  V30 12971 C 1206.46 -1.8186 4.88443 0
M  V30 12972 C 1203.79 -1.57862 5.65063 0
M  V30 12973 C 1206.14 -1.39548 6.17016 0
M  V30 12974 C 1204.8 -1.26997 6.55308 0
M  V30 12975 H 1204.07 -0.498236 0.54849 0
M  V30 12976 H 1206.72 -0.680738 1.78992 0
M  V30 12977 H 1205.03 -3.25917 2.17452 0
M  V30 12978 H 1206.72 -3.10701 2.53507 0
M  V30 12979 H 1203.31 -2.22349 3.66413 0
M  V30 12980 H 1207.5 -1.89341 4.58763 0
M  V30 12981 H 1202.75 -1.46771 5.93522 0
M  V30 12982 H 1206.93 -1.14677 6.86893 0
M  V30 12983 H 1204.55 -0.928346 7.5451 0
M  V30 12984 N 1206.13 -1.32992 -0.845635 0
M  V30 12985 C 1207.35 -1.27231 -1.6379 0
M  V30 12986 C 1207.78 0.155141 -1.87459 0
M  V30 12987 O 1207.14 1.10953 -1.43384 0
M  V30 12988 C 1207.19 -2.04629 -2.96916 0
M  V30 12989 O 1206.29 -1.40027 -3.879 0
M  V30 12990 H 1205.63 -0.438045 -0.499011 0
M  V30 12991 H 1208.16 -1.75448 -1.05257 0
M  V30 12992 H 1208.17 -2.15141 -3.46667 0
M  V30 12993 H 1206.85 -3.08425 -2.79011 0
M  V30 12994 H 1205.42 -1.38118 -3.46378 0
M  V30 12995 N 1207.61 1.06304 -1.1635 0
M  V30 12996 C 1208.88 1.75916 -0.855166 0
M  V30 12997 C 1209.26 2.0094 0.647024 0
M  V30 12998 O 1208.61 1.63642 1.59479 0
M  V30 12999 C 1208.82 3.06028 -1.67774 0
M  V30 13000 C 1210.17 3.80184 -1.89065 0
M  V30 13001 O 1211.19 3.15868 -1.64639 0
M  V30 13002 O 1210.05 4.95723 -2.30045 0
M  V30 13003 H 1207.15 0.764432 -0.315551 0
M  V30 13004 H 1209.69 1.12574 -1.26985 0
M  V30 13005 H 1208.47 2.83498 -2.69712 0
M  V30 13006 H 1208.09 3.77104 -1.26009 0
M  V30 13007 N 1209.09 0.96196 1.24836 0
M  V30 13008 C 1210.36 0.537809 1.88061 0
M  V30 13009 C 1210.74 -0.985023 1.8671 0
M  V30 13010 O 1210.09 -1.85394 1.33572 0
M  V30 13011 C 1210.3 1.12279 3.30446 0
M  V30 13012 C 1211.65 1.20414 4.07168 0
M  V30 13013 O 1212.67 1.07488 3.39595 0
M  V30 13014 O 1211.53 1.4078 5.28056 0
M  V30 13015 H 1208.63 0.178491 0.807509 0
M  V30 13016 H 1211.17 1.05586 1.32852 0
M  V30 13017 H 1209.94 2.16578 3.25898 0
M  V30 13018 H 1209.57 0.58843 3.93222 0
M  V30 13019 N 1210.56 -1.39601 0.731392 0
M  V30 13020 C 1211.97 -1.83424 0.348194 0
M  V30 13021 C 1212.33 -1.61106 -1.11979 0
M  V30 13022 O 1211.45 -1.1003 -1.86339 0
M  V30 13023 C 1212.05 -3.32982 0.6252 0
M  V30 13024 C 1210.6 -3.75238 0.295536 0
M  V30 13025 C 1209.75 -2.62642 0.88964 0
M  V30 13026 H 1212.7 -1.28644 0.929318 0
M  V30 13027 H 1212.72 -3.80357 -0.104254 0
M  V30 13028 H 1212.24 -3.49193 1.69368 0
M  V30 13029 H 1210.34 -3.64615 -0.767254 0
M  V30 13030 H 1210.45 -4.72781 0.775576 0
M  V30 13031 H 1208.81 -2.52726 0.316529 0
M  V30 13032 H 1209.6 -2.81661 1.96271 0
M  V30 13033 N 1212.04 -0.478751 -1.50152 0
M  V30 13034 C 1213.27 0.0732929 -2.0727 0
M  V30 13035 C 1213.69 1.32066 -1.33941 0
M  V30 13036 O 1213.05 1.7707 -0.389367 0
M  V30 13037 C 1213.1 0.332528 -3.59064 0
M  V30 13038 O 1212.2 1.41158 -3.8749 0
M  V30 13039 H 1211.54 -0.0163684 -0.663798 0
M  V30 13040 H 1214.07 -0.671993 -1.9325 0
M  V30 13041 H 1214.08 0.570735 -4.03988 0
M  V30 13042 H 1212.76 -0.578934 -4.11851 0
M  V30 13043 H 1211.34 1.16008 -3.54396 0
M  V30 13044 N 1213.52 1.56172 -0.211661 0
M  V30 13045 C 1214.93 1.84307 0.297982 0
M  V30 13046 C 1215.28 1.1328 1.60194 0
M  V30 13047 O 1214.41 0.399137 2.12687 0
M  V30 13048 C 1215 3.34348 0.547428 0
M  V30 13049 C 1213.56 3.62835 1.0014 0
M  V30 13050 C 1212.71 2.77237 0.0590326 0
M  V30 13051 H 1215.66 1.5262 -0.435083 0
M  V30 13052 H 1215.68 3.54018 1.39469 0
M  V30 13053 H 1215.19 3.86015 -0.401778 0
M  V30 13054 H 1213.29 3.16616 1.96431 0
M  V30 13055 H 1213.41 4.70899 0.882653 0
M  V30 13056 H 1211.77 2.48377 0.564005 0
M  V30 13057 H 1212.55 3.31699 -0.884913 0
M  V30 13058 N 1215 -0.0618163 1.57479 0
M  V30 13059 C 1216.25 -0.757569 1.87364 0
M  V30 13060 C 1216.57 -1.77607 0.805025 0
M  V30 13061 O 1215.84 -1.95202 -0.165216 0
M  V30 13062 H 1214.42 -0.28278 0.691408 0
M  V30 13063 H 1217.08 -0.0355354 1.94868 0
M  V30 13064 H 1216.18 -1.26758 2.85199 0
M  V30 13065 N 1216.48 -1.54033 -0.333429 0
M  V30 13066 C 1217.44 -1.82021 -1.39288 0
M  V30 13067 C 1218.44 -0.691623 -1.45166 0
M  V30 13068 O 1219.63 -0.959925 -1.45365 0
M  V30 13069 C 1216.76 -1.97136 -2.78119 0
M  V30 13070 H 1217.95 -2.76671 -1.1573 0
M  V30 13071 H 1215.51 -1.45599 -0.568376 0
M  V30 13072 H 1216.24 -1.04663 -3.06946 0
M  V30 13073 H 1216.03 -2.79251 -2.75247 0
M  V30 13074 H 1217.52 -2.20271 -3.54782 0
M  V30 13075 N 1217.95 0.594978 -1.45938 0
M  V30 13076 C 1219.2 1.34976 -1.49881 0
M  V30 13077 C 1219.52 1.95025 -0.14983 0
M  V30 13078 O 1220.72 2.71417 -0.0669868 0
M  V30 13079 C 1219.18 2.44563 -2.6404 0
M  V30 13080 C 1218.79 1.9087 -4.05306 0
M  V30 13081 C 1220.53 3.21461 -2.77242 0
M  V30 13082 C 1218.44 2.98013 -5.10825 0
M  V30 13083 H 1217.37 0.507366 -0.55776 0
M  V30 13084 H 1220.02 0.636316 -1.72114 0
M  V30 13085 H 1218.4 3.1865 -2.35114 0
M  V30 13086 H 1219.57 1.23408 -4.43968 0
M  V30 13087 H 1217.89 1.26678 -3.96663 0
M  V30 13088 H 1220.49 4.01399 -3.53246 0
M  V30 13089 H 1220.83 3.73271 -1.84321 0
M  V30 13090 H 1221.36 2.54477 -3.05756 0
M  V30 13091 H 1218.1 2.51104 -6.05497 0
M  V30 13092 H 1217.62 3.64003 -4.7672 0
M  V30 13093 H 1219.3 3.62178 -5.36131 0
M  V30 13094 N 1219.43 1.33438 0.838571 0
M  V30 13095 C 1220.71 1.1551 1.5785 0
M  V30 13096 C 1221.09 -0.278405 2.09256 0
M  V30 13097 O 1220.44 -1.27748 1.89453 0
M  V30 13098 C 1220.65 2.19647 2.71212 0
M  V30 13099 C 1222 2.53818 3.40384 0
M  V30 13100 O 1223.02 2.18317 2.81454 0
M  V30 13101 O 1221.88 3.14741 4.46766 0
M  V30 13102 H 1218.97 0.446785 0.695925 0
M  V30 13103 H 1221.52 1.45021 0.8813 0
M  V30 13104 H 1220.29 3.15936 2.30869 0
M  V30 13105 H 1219.91 1.91224 3.48596 0
M  V30 13106 N 1220.91 -1.05686 1.16912 0
M  V30 13107 C 1222.14 -1.82821 0.979348 0
M  V30 13108 C 1222.56 -1.82196 -0.467575 0
M  V30 13109 O 1221.92 -1.22727 -1.33445 0
M  V30 13110 C 1221.97 -3.2705 1.51891 0
M  V30 13111 O 1221.07 -4.05899 0.729341 0
M  V30 13112 H 1220.41 -0.565455 0.348076 0
M  V30 13113 H 1222.94 -1.33211 1.55293 0
M  V30 13114 H 1222.95 -3.77859 1.53904 0
M  V30 13115 H 1221.63 -3.26819 2.5722 0
M  V30 13116 H 1220.2 -3.64646 0.780221 0
M  V30 13117 N 1222.39 -0.968567 -1.24324 0
M  V30 13118 C 1223.34 -0.491346 -2.27351 0
M  V30 13119 C 1224.33 0.445563 -1.63435 0
M  V30 13120 O 1225.54 0.320758 -1.77119 0
M  V30 13121 H 1221.91 -0.14043 -0.738772 0
M  V30 13122 H 1223.88 -1.37224 -2.64976 0
M  V30 13123 C 1222.63 0.202093 -3.47112 0
M  V30 13124 H 1221.95 -0.50973 -3.96537 0
M  V30 13125 H 1223.39 0.499815 -4.21044 0
M  V30 13126 C 1221.85 1.42937 -3.05075 0
M  V30 13127 O 1222.38 2.52635 -3.12312 0
M  V30 13128 N 1220.59 1.29572 -2.60114 0
M  V30 13129 H 1220.14 0.403169 -2.54425 0
M  V30 13130 H 1220.09 2.118 -2.32353 0
M  V30 13131 N 1223.87 1.39211 -0.738786 0
M  V30 13132 C 1224.81 2.32424 -0.0904601 0
M  V30 13133 C 1225.81 1.53258 0.721694 0
M  V30 13134 O 1227.01 1.68895 0.622454 0
M  V30 13135 H 1223.39 0.751927 -0.010453 0
M  V30 13136 H 1225.36 2.84726 -0.892945 0
M  V30 13137 C 1224.11 3.38377 0.799783 0
M  V30 13138 H 1223.43 3.99375 0.18424 0
M  V30 13139 H 1224.87 4.0604 1.22096 0
M  V30 13140 C 1223.33 2.75734 1.93578 0
M  V30 13141 O 1223.86 2.63876 3.02874 0
M  V30 13142 N 1222.07 2.33764 1.72634 0
M  V30 13143 H 1221.61 2.43609 0.837413 0
M  V30 13144 H 1221.57 1.92191 2.48817 0
M  V30 13145 N 1225.34 0.486708 1.49896 0
M  V30 13146 C 1226.57 -0.0622999 2.07306 0
M  V30 13147 C 1226.99 -1.31353 1.3464 0
M  V30 13148 O 1226.35 -1.76861 0.398752 0
M  V30 13149 C 1226.4 -0.313481 3.59235 0
M  V30 13150 O 1225.5 -1.39101 3.88233 0
M  V30 13151 H 1224.85 0.0198885 0.663702 0
M  V30 13152 H 1227.38 0.682232 1.92891 0
M  V30 13153 H 1227.39 -0.549302 4.04285 0
M  V30 13154 H 1226.06 0.600767 4.11538 0
M  V30 13155 H 1224.64 -1.14127 3.55006 0
M  V30 13156 N 1226.82 -1.56058 0.219941 0
M  V30 13157 C 1227.75 -2.2321 -0.685547 0
M  V30 13158 C 1228.73 -1.20328 -1.20229 0
M  V30 13159 O 1229.92 -1.48909 -1.24659 0
M  V30 13160 C 1227.05 -2.91076 -1.89452 0
M  V30 13161 C 1226 -4.00415 -1.51169 0
M  V30 13162 C 1225.33 -4.55569 -2.79931 0
M  V30 13163 C 1226.63 -5.17549 -0.702896 0
M  V30 13164 H 1228.32 -2.99136 -0.125671 0
M  V30 13165 H 1225.87 -1.43879 -0.0590043 0
M  V30 13166 H 1227.82 -3.36744 -2.53341 0
M  V30 13167 H 1226.55 -2.12594 -2.47934 0
M  V30 13168 H 1225.21 -3.55475 -0.896275 0
M  V30 13169 H 1224.85 -3.73819 -3.36553 0
M  V30 13170 H 1224.55 -5.29361 -2.55049 0
M  V30 13171 H 1226.08 -5.03955 -3.44764 0
M  V30 13172 H 1227.49 -5.59608 -1.24544 0
M  V30 13173 H 1225.89 -5.97563 -0.551234 0
M  V30 13174 H 1226.96 -4.84027 0.29083 0
M  V30 13175 N 1228.3 0.053464 -1.57509 0
M  V30 13176 C 1229.53 0.765301 -1.92764 0
M  V30 13177 C 1229.95 1.69385 -0.817943 0
M  V30 13178 O 1229.31 1.7986 0.228075 0
M  V30 13179 C 1229.36 1.51938 -3.27028 0
M  V30 13180 O 1228.46 2.63121 -3.17555 0
M  V30 13181 H 1227.8 0.207567 -0.630723 0
M  V30 13182 H 1230.33 0.0162254 -2.04594 0
M  V30 13183 H 1230.34 1.89466 -3.6134 0
M  V30 13184 H 1229.02 0.838207 -4.07366 0
M  V30 13185 H 1227.59 2.28316 -2.94832 0
M  V30 13186 N 1229.78 1.54207 0.325255 0
M  V30 13187 C 1230.69 1.86495 1.42326 0
M  V30 13188 C 1231.71 0.756718 1.56684 0
M  V30 13189 O 1232.88 1.05084 1.71812 0
M  V30 13190 C 1229.95 2.08414 2.77064 0
M  V30 13191 C 1229.01 3.32221 2.71897 0
M  V30 13192 C 1228.24 3.53085 4.00209 0
M  V30 13193 O 1228.46 2.77421 4.98391 0
M  V30 13194 O 1227.4 4.46559 4.0357 0
M  V30 13195 H 1231.22 2.79859 1.17951 0
M  V30 13196 H 1228.81 1.40091 0.519124 0
M  V30 13197 H 1230.69 2.24171 3.56827 0
M  V30 13198 H 1229.37 1.18238 3.01333 0
M  V30 13199 H 1228.27 3.21851 1.90691 0
M  V30 13200 H 1229.61 4.22449 2.52582 0
M  V30 13201 N 1231.26 -0.58723 1.46251 0
M  V30 13202 C 1232.19 -1.71113 1.50982 0
M  V30 13203 C 1233.17 -1.58466 0.364322 0
M  V30 13204 O 1234.35 -1.79745 0.567812 0
M  V30 13205 C 1231.48 -3.09128 1.38411 0
M  V30 13206 C 1230.53 -3.40308 2.57085 0
M  V30 13207 S 1231.36 -3.32881 4.19464 0
M  V30 13208 C 1232.51 -4.73441 4.09395 0
M  V30 13209 H 1232.75 -1.66841 2.46072 0
M  V30 13210 H 1230.28 -0.765598 1.34082 0
M  V30 13211 H 1232.24 -3.88751 1.31846 0
M  V30 13212 H 1230.9 -3.10895 0.447567 0
M  V30 13213 H 1230.09 -4.40849 2.4427 0
M  V30 13214 H 1229.69 -2.68244 2.60617 0
M  V30 13215 H 1231.99 -5.63723 3.75796 0
M  V30 13216 H 1232.93 -4.91313 5.09919 0
M  V30 13217 H 1233.34 -4.50079 3.40719 0
M  V30 13218 N 1232.74 -1.33881 -0.831482 0
M  V30 13219 C 1233.96 -1.28812 -1.61911 0
M  V30 13220 C 1234.38 0.139519 -1.88284 0
M  V30 13221 O 1233.74 1.08397 -1.46821 0
M  V30 13222 C 1233.79 -2.06806 -2.96502 0
M  V30 13223 O 1233.51 -3.44 -2.71285 0
M  V30 13224 C 1235.01 -2.09033 -3.90922 0
M  V30 13225 H 1232.23 -0.443473 -0.50356 0
M  V30 13226 H 1234.77 -1.76365 -1.03516 0
M  V30 13227 H 1232.93 -1.62915 -3.51479 0
M  V30 13228 H 1233.34 -3.84213 -3.57044 0
M  V30 13229 H 1234.82 -2.68044 -4.82552 0
M  V30 13230 H 1235.29 -1.08249 -4.25651 0
M  V30 13231 H 1235.9 -2.52975 -3.41883 0
M  V30 13232 N 1234.21 1.05064 -1.1747 0
M  V30 13233 C 1235.16 2.11131 -0.860692 0
M  V30 13234 C 1236.15 1.60049 0.165288 0
M  V30 13235 O 1237.34 1.76961 -0.0373288 0
M  V30 13236 C 1234.47 3.41222 -0.37718 0
M  V30 13237 C 1233.55 3.99097 -1.43466 0
M  V30 13238 N 1233.95 4.30918 -2.64846 0
M  V30 13239 C 1232.24 4.26851 -1.29282 0
M  V30 13240 C 1232.94 4.77092 -3.32804 0
M  V30 13241 N 1231.92 4.77291 -2.60182 0
M  V30 13242 H 1235.72 2.33597 -1.78353 0
M  V30 13243 H 1233.24 1.22724 -1.06361 0
M  V30 13244 H 1235.23 4.16685 -0.133766 0
M  V30 13245 H 1233.89 3.20188 0.53944 0
M  V30 13246 H 1234.9 4.20877 -3.01799 0
M  V30 13247 H 1231.58 4.15197 -0.437949 0
M  V30 13248 H 1232.97 5.10815 -4.36483 0
M  V30 13249 N 1235.69 0.975146 1.23809 0
M  V30 13250 C 1236.94 0.641124 1.92083 0
M  V30 13251 C 1237.27 -0.824671 1.76152 0
M  V30 13252 O 1236.52 -1.6097 1.11298 0
M  V30 13253 C 1236.82 0.971016 3.43956 0
M  V30 13254 C 1236.49 2.42616 3.80063 0
M  V30 13255 C 1235.15 2.82386 3.8963 0
M  V30 13256 C 1237.5 3.37019 3.97577 0
M  V30 13257 C 1234.83 4.15585 4.14133 0
M  V30 13258 C 1237.18 4.69855 4.23579 0
M  V30 13259 C 1235.84 5.09391 4.31366 0
M  V30 13260 H 1235.11 0.234604 0.702881 0
M  V30 13261 H 1237.76 1.22803 1.46941 0
M  V30 13262 H 1236.07 0.301965 3.90635 0
M  V30 13263 H 1237.76 0.690858 3.95004 0
M  V30 13264 H 1234.35 2.10782 3.73187 0
M  V30 13265 H 1238.54 3.07474 3.89581 0
M  V30 13266 H 1233.79 4.45831 4.18383 0
M  V30 13267 H 1237.97 5.42966 4.36074 0
M  V30 13268 H 1235.59 6.12624 4.50106 0
M  V30 13269 N 1237.17 -1.38817 0.746158 0
M  V30 13270 C 1238.59 -1.53894 0.42294 0
M  V30 13271 C 1238.79 -1.71064 -1.06486 0
M  V30 13272 O 1237.84 -1.71744 -1.85095 0
M  V30 13273 C 1239.15 -2.75029 1.2157 0
M  V30 13274 C 1240.7 -2.88873 1.20504 0
M  V30 13275 C 1241.18 -4.1296 1.9806 0
M  V30 13276 N 1242.67 -4.20022 1.95283 0
M  V30 13277 C 1243.4 -5.15011 2.52093 0
M  V30 13278 N 1242.9 -6.1572 3.17586 0
M  V30 13279 N 1244.69 -5.07308 2.42064 0
M  V30 13280 H 1236.84 -1.25921 1.71049 0
M  V30 13281 H 1239.11 -0.611148 0.724708 0
M  V30 13282 H 1238.81 -2.68722 2.26895 0
M  V30 13283 H 1238.69 -3.68009 0.827593 0
M  V30 13284 H 1241.07 -2.94667 0.159877 0
M  V30 13285 H 1241.15 -1.96925 1.63261 0
M  V30 13286 H 1240.8 -4.07929 3.02583 0
M  V30 13287 H 1240.73 -5.03974 1.52702 0
M  V30 13288 H 1243.22 -3.47892 1.4758 0
M  V30 13289 H 1243.53 -6.84682 3.58373 0
M  V30 13290 H 1241.88 -6.16075 3.21678 0
M  V30 13291 H 1245.07 -4.27569 1.90532 0
M  V30 13292 H 1245.24 -5.81158 2.86635 0
M  V30 13293 N 1238.65 -0.49465 -1.49636 0
M  V30 13294 C 1240.06 -0.0452894 -1.86645 0
M  V30 13295 C 1240.41 1.36686 -1.40753 0
M  V30 13296 O 1239.53 2.01751 -0.78265 0
M  V30 13297 C 1240.13 -0.0754115 -3.38716 0
M  V30 13298 C 1238.69 0.318579 -3.75049 0
M  V30 13299 C 1237.84 -0.450712 -2.73613 0
M  V30 13300 H 1240.79 -0.707758 -1.42044 0
M  V30 13301 H 1240.81 0.721372 -3.73599 0
M  V30 13302 H 1240.32 -1.10331 -3.72087 0
M  V30 13303 H 1238.42 1.34995 -3.47285 0
M  V30 13304 H 1238.53 0.00354416 -4.791 0
M  V30 13305 H 1236.9 0.0986455 -2.54509 0
M  V30 13306 H 1237.68 -1.47857 -3.09828 0
M  V30 13307 N 1240.13 1.55939 -0.228214 0
M  V30 13308 C 1241.06 2.17874 0.711589 0
M  V30 13309 C 1242.07 1.14969 1.15265 0
M  V30 13310 O 1243.26 1.41919 1.08265 0
M  V30 13311 C 1240.36 2.75294 1.97652 0
M  V30 13312 C 1239.53 4.03435 1.68994 0
M  V30 13313 C 1238.59 4.45354 2.8026 0
M  V30 13314 O 1237.62 5.12117 2.48445 0
M  V30 13315 N 1238.82 4.11588 4.0936 0
M  V30 13316 H 1241.58 2.99148 0.181757 0
M  V30 13317 H 1239.15 1.6183 -0.0474567 0
M  V30 13318 H 1241.14 3.00305 2.71292 0
M  V30 13319 H 1239.71 1.98285 2.41665 0
M  V30 13320 H 1238.93 3.8621 0.789657 0
M  V30 13321 H 1240.22 4.87015 1.47287 0
M  V30 13322 H 1239.61 3.57953 4.38048 0
M  V30 13323 H 1238.17 4.41477 4.79522 0
M  V30 13324 N 1241.6 -0.0451101 1.57535 0
M  V30 13325 C 1242.53 -1.05046 2.08537 0
M  V30 13326 C 1243.52 -1.3872 0.984418 0
M  V30 13327 O 1244.7 -1.47884 1.25873 0
M  V30 13328 C 1241.83 -2.3562 2.55148 0
M  V30 13329 C 1240.78 -2.16231 3.69362 0
M  V30 13330 C 1240.11 -3.52423 4.02122 0
M  V30 13331 C 1241.41 -1.56159 4.98409 0
M  V30 13332 H 1243.1 -0.625965 2.92783 0
M  V30 13333 H 1240.65 -0.299657 1.40848 0
M  V30 13334 H 1242.6 -3.06266 2.89446 0
M  V30 13335 H 1241.33 -2.80099 1.67964 0
M  V30 13336 H 1239.99 -1.4802 3.35389 0
M  V30 13337 H 1239.63 -3.94522 3.12028 0
M  V30 13338 H 1239.33 -3.4028 4.79044 0
M  V30 13339 H 1240.86 -4.24458 4.38939 0
M  V30 13340 H 1242.27 -2.16703 5.30766 0
M  V30 13341 H 1240.67 -1.54638 5.79834 0
M  V30 13342 H 1241.74 -0.525698 4.82042 0
M  V30 13343 N 1243.08 -1.54377 -0.317073 0
M  V30 13344 C 1244.03 -1.80597 -1.39172 0
M  V30 13345 C 1245.02 -0.662289 -1.46637 0
M  V30 13346 O 1246.21 -0.922477 -1.51061 0
M  V30 13347 C 1243.34 -2.04252 -2.75927 0
M  V30 13348 C 1242.42 -3.2476 -2.72749 0
M  V30 13349 N 1242.81 -4.45671 -2.39189 0
M  V30 13350 C 1241.11 -3.26464 -3.03871 0
M  V30 13351 C 1241.81 -5.27631 -2.44908 0
M  V30 13352 N 1240.79 -4.64968 -2.81613 0
M  V30 13353 H 1244.59 -2.71655 -1.12164 0
M  V30 13354 H 1242.11 -1.5366 -0.525586 0
M  V30 13355 H 1244.1 -2.21178 -3.53392 0
M  V30 13356 H 1242.76 -1.14452 -3.0386 0
M  V30 13357 H 1243.77 -4.72556 -2.11922 0
M  V30 13358 H 1240.45 -2.46718 -3.36803 0
M  V30 13359 H 1241.84 -6.34202 -2.21896 0
M  V30 13360 N 1244.56 0.579466 -1.4656 0
M  V30 13361 C 1245.51 1.68327 -1.53785 0
M  V30 13362 C 1246.49 1.55887 -0.398512 0
M  V30 13363 O 1247.69 1.64746 -0.647119 0
M  V30 13364 C 1244.82 3.07113 -1.53416 0
M  V30 13365 C 1243.9 3.24839 -2.72655 0
M  V30 13366 N 1244.29 3.12711 -3.97549 0
M  V30 13367 C 1242.59 3.55786 -2.68947 0
M  V30 13368 C 1243.29 3.32528 -4.77284 0
M  V30 13369 N 1242.27 3.57834 -4.09214 0
M  V30 13370 H 1246.07 1.57486 -2.48144 0
M  V30 13371 H 1243.58 0.783591 -1.42245 0
M  V30 13372 H 1245.58 3.86338 -1.5668 0
M  V30 13373 H 1244.24 3.19083 -0.601365 0
M  V30 13374 H 1245.25 2.90508 -4.28749 0
M  V30 13375 H 1241.93 3.7442 -1.84705 0
M  V30 13376 H 1243.32 3.28308 -5.86228 0
M  V30 13377 N 1246.04 1.3432 0.824371 0
M  V30 13378 C 1247.26 1.2982 1.61745 0
M  V30 13379 C 1247.69 -0.125298 1.87682 0
M  V30 13380 O 1247.05 -1.08658 1.45131 0
M  V30 13381 C 1247.09 2.09327 2.93623 0
M  V30 13382 O 1246.2 1.4618 3.85623 0
M  V30 13383 H 1245.54 0.445929 0.491979 0
M  V30 13384 H 1248.07 1.77101 1.02452 0
M  V30 13385 H 1248.08 2.20629 3.43201 0
M  V30 13386 H 1246.75 3.12825 2.74069 0
M  V30 13387 H 1245.33 1.43611 3.44137 0
M  V30 13388 N 1247.52 -1.0444 1.18026 0
M  V30 13389 C 1248.76 -1.77224 0.971391 0
M  V30 13390 C 1249.09 -1.88466 -0.500564 0
M  V30 13391 O 1248.36 -1.40692 -1.36317 0
M  V30 13392 H 1246.94 -0.656485 0.356422 0
M  V30 13393 H 1249.6 -1.26064 1.4864 0
M  V30 13394 H 1248.69 -2.78626 1.4062 0
M  V30 13395 N 1248.99 -0.981699 -1.2329 0
M  V30 13396 C 1250.27 -0.567659 -1.87182 0
M  V30 13397 C 1250.65 0.955194 -1.88253 0
M  V30 13398 O 1250 1.83245 -1.36504 0
M  V30 13399 C 1250.21 -1.17522 -3.28618 0
M  V30 13400 C 1251.56 -1.26877 -4.052 0
M  V30 13401 O 1252.58 -1.12877 -3.37842 0
M  V30 13402 O 1251.44 -1.49163 -5.2575 0
M  V30 13403 H 1248.53 -0.191315 -0.804567 0
M  V30 13404 H 1251.08 -1.07686 -1.31155 0
M  V30 13405 H 1249.85 -2.21735 -3.22411 0
M  V30 13406 H 1249.48 -0.650913 -3.92236 0
M  V30 13407 N 1250.47 1.3842 -0.753509 0
M  V30 13408 C 1251.41 2.28079 -0.0741683 0
M  V30 13409 C 1252.38 1.45372 0.728398 0
M  V30 13410 O 1253.57 1.74737 0.707043 0
M  V30 13411 C 1250.69 3.26475 0.901764 0
M  V30 13412 C 1249.74 4.26097 0.185438 0
M  V30 13413 S 1250.57 5.23791 -1.11372 0
M  V30 13414 C 1251.73 6.25741 -0.140861 0
M  V30 13415 H 1251.96 2.85349 -0.834475 0
M  V30 13416 H 1249.5 1.4442 -0.546089 0
M  V30 13417 H 1251.45 3.83678 1.4595 0
M  V30 13418 H 1250.11 2.68189 1.63504 0
M  V30 13419 H 1249.31 4.95447 0.924578 0
M  V30 13420 H 1248.91 3.72789 -0.300772 0
M  V30 13421 H 1251.2 6.73945 0.693174 0
M  V30 13422 H 1252.14 7.03543 -0.80202 0
M  V30 13423 H 1252.55 5.6399 0.2398 0
M  V30 13424 N 1251.95 0.502579 1.49372 0
M  V30 13425 C 1253.2 -0.0414423 2.02758 0
M  V30 13426 C 1253.53 -1.36499 1.38136 0
M  V30 13427 O 1252.8 -1.87487 0.517593 0
M  V30 13428 C 1253.09 -0.192333 3.59586 0
M  V30 13429 C 1252.94 1.15445 4.34733 0
M  V30 13430 C 1254.26 -0.932218 4.30114 0
M  V30 13431 H 1251.38 -0.0135869 0.736875 0
M  V30 13432 H 1254.02 0.654296 1.78379 0
M  V30 13433 H 1252.17 -0.78491 3.80488 0
M  V30 13434 H 1253.84 1.78603 4.25322 0
M  V30 13435 H 1252.09 1.74333 3.97228 0
M  V30 13436 H 1252.76 1.00216 5.42827 0
M  V30 13437 H 1255.23 -0.429632 4.13876 0
M  V30 13438 H 1254.11 -1.00664 5.39591 0
M  V30 13439 H 1254.37 -1.9763 3.95468 0
M  V30 13440 N 1253.43 -1.55816 0.23648 0
M  V30 13441 C 1254.68 -1.98686 -0.391146 0
M  V30 13442 C 1255 -1.12443 -1.58703 0
M  V30 13443 O 1254.26 -0.172805 -1.94936 0
M  V30 13444 C 1254.56 -3.47039 -0.85434 0
M  V30 13445 C 1254.22 -4.50299 0.232651 0
M  V30 13446 C 1252.89 -4.78259 0.531218 0
M  V30 13447 C 1255.24 -5.1215 0.967027 0
M  V30 13448 C 1252.57 -5.65347 1.56842 0
M  V30 13449 C 1254.92 -6.00363 1.99367 0
M  V30 13450 C 1253.58 -6.2666 2.299 0
M  V30 13451 H 1252.85 -0.727045 -0.14313 0
M  V30 13452 H 1255.5 -1.88419 0.342125 0
M  V30 13453 H 1253.8 -3.54585 -1.66663 0
M  V30 13454 H 1255.5 -3.7759 -1.35005 0
M  V30 13455 H 1252.09 -4.28599 -0.0102014 0
M  V30 13456 H 1256.27 -4.90606 0.749609 0
M  V30 13457 H 1251.53 -5.83981 1.81043 0
M  V30 13458 H 1255.7 -6.47335 2.56769 0
M  V30 13459 H 1253.33 -6.93938 3.1041 0
M  V30 13460 N 1254.91 0.036755 -1.57557 0
M  V30 13461 C 1256.13 0.741086 -1.93172 0
M  V30 13462 C 1256.55 1.69303 -0.835589 0
M  V30 13463 O 1255.91 1.81523 0.1886 0
M  V30 13464 C 1255.96 1.50477 -3.28693 0
M  V30 13465 O 1255.68 0.591046 -4.34095 0
M  V30 13466 C 1257.18 2.30695 -3.78543 0
M  V30 13467 H 1254.4 0.208731 -0.637709 0
M  V30 13468 H 1256.94 -0.00342776 -2.045 0
M  V30 13469 H 1255.1 2.20123 -3.18786 0
M  V30 13470 H 1255.51 1.12579 -5.12276 0
M  V30 13471 H 1256.99 2.79685 -4.759 0
M  V30 13472 H 1257.46 3.11778 -3.0934 0
M  V30 13473 H 1258.07 1.66138 -3.91508 0
M  V30 13474 N 1256.39 1.54543 0.308881 0
M  V30 13475 C 1257.8 1.64532 0.882392 0
M  V30 13476 C 1258.15 0.54886 1.88367 0
M  V30 13477 O 1257.27 -0.315832 2.14083 0
M  V30 13478 C 1257.87 2.98251 1.60722 0
M  V30 13479 C 1256.43 3.10387 2.12925 0
M  V30 13480 C 1255.57 2.60176 0.959362 0
M  V30 13481 H 1258.52 1.58466 0.0860803 0
M  V30 13482 H 1258.55 2.89233 2.47233 0
M  V30 13483 H 1258.06 3.78033 0.878233 0
M  V30 13484 H 1256.16 2.35309 2.88895 0
M  V30 13485 H 1256.27 4.16421 2.36918 0
M  V30 13486 H 1254.64 2.16434 1.3427 0
M  V30 13487 H 1255.42 3.42429 0.244454 0
M  V30 13488 N 1257.86 -0.571685 1.46866 0
M  V30 13489 C 1258.77 -1.70758 1.60869 0
M  V30 13490 C 1259.79 -1.66903 0.49186 0
M  V30 13491 O 1260.97 -1.86613 0.757468 0
M  V30 13492 C 1258.03 -3.07267 1.60586 0
M  V30 13493 C 1257.09 -3.22301 2.83585 0
M  V30 13494 C 1256.32 -4.52298 2.83306 0
M  V30 13495 O 1256.55 -5.36869 1.92685 0
M  V30 13496 O 1255.48 -4.70814 3.7499 0
M  V30 13497 H 1259.31 -1.6189 2.56954 0
M  V30 13498 H 1256.89 -0.740018 1.29785 0
M  V30 13499 H 1258.77 -3.8853 1.63163 0
M  V30 13500 H 1257.45 -3.16549 0.676637 0
M  V30 13501 H 1256.36 -2.4049 2.86558 0
M  V30 13502 H 1257.69 -3.17916 3.75753 0
M  V30 13503 N 1259.34 -1.34755 -0.817236 0
M  V30 13504 C 1260.57 -1.30676 -1.61054 0
M  V30 13505 C 1260.99 0.115343 -1.87746 0
M  V30 13506 O 1260.35 1.07887 -1.45705 0
M  V30 13507 C 1260.4 -2.10881 -2.92509 0
M  V30 13508 O 1259.5 -1.48223 -3.84842 0
M  V30 13509 H 1258.84 -0.448531 -0.489608 0
M  V30 13510 H 1261.37 -1.77642 -1.01512 0
M  V30 13511 H 1261.38 -2.22446 -3.42026 0
M  V30 13512 H 1260.06 -3.14274 -2.72406 0
M  V30 13513 H 1258.63 -1.45434 -3.4337 0
M  V30 13514 N 1260.82 1.03812 -1.18578 0
M  V30 13515 C 1262.07 1.76706 -0.980776 0
M  V30 13516 C 1262.39 1.88729 0.490562 0
M  V30 13517 O 1261.66 1.41413 1.35569 0
M  V30 13518 H 1260.24 0.654586 -0.359898 0
M  V30 13519 H 1262.9 1.25274 -1.49306 0
M  V30 13520 H 1262 2.77876 -1.42096 0
M  V30 13521 N 1262.3 0.988223 1.22768 0
M  V30 13522 C 1263.23 0.554478 2.26821 0
M  V30 13523 C 1264.21 -0.416293 1.64927 0
M  V30 13524 O 1265.39 -0.30795 1.91743 0
M  V30 13525 C 1262.52 -0.136266 3.47033 0
M  V30 13526 C 1261.48 0.752575 4.21332 0
M  V30 13527 C 1260.8 -0.0708236 5.34653 0
M  V30 13528 C 1262.1 2.04717 4.80508 0
M  V30 13529 H 1263.8 1.42423 2.63355 0
M  V30 13530 H 1261.34 0.686267 1.26595 0
M  V30 13531 H 1263.3 -0.451068 4.18979 0
M  V30 13532 H 1262.02 -1.04053 3.09581 0
M  V30 13533 H 1260.68 1.05095 3.51213 0
M  V30 13534 H 1260.33 -0.975859 4.93443 0
M  V30 13535 H 1260.03 0.520835 5.85287 0
M  V30 13536 H 1261.55 -0.379828 6.09417 0
M  V30 13537 H 1262.97 1.79663 5.44421 0
M  V30 13538 H 1261.36 2.58726 5.41462 0
M  V30 13539 H 1262.43 2.72896 4.00819 0
M  V30 13540 N 1263.78 -1.38018 0.760839 0
M  V30 13541 C 1264.71 -2.2899 0.0980916 0
M  V30 13542 C 1265.72 -1.48102 -0.675985 0
M  V30 13543 O 1266.91 -1.70883 -0.515878 0
M  V30 13544 C 1264.01 -3.27142 -0.884959 0
M  V30 13545 C 1263.18 -4.37081 -0.167 0
M  V30 13546 C 1262.24 -5.15375 -1.06184 0
M  V30 13547 O 1261.27 -5.6673 -0.529667 0
M  V30 13548 N 1262.47 -5.29052 -2.38924 0
M  V30 13549 H 1265.23 -2.86508 0.879403 0
M  V30 13550 H 1262.8 -1.49877 0.612245 0
M  V30 13551 H 1264.79 -3.764 -1.48678 0
M  V30 13552 H 1263.36 -2.70471 -1.5673 0
M  V30 13553 H 1262.58 -3.89363 0.615617 0
M  V30 13554 H 1263.87 -5.07732 0.329525 0
M  V30 13555 H 1263.26 -4.88892 -2.84607 0
M  V30 13556 H 1261.82 -5.81658 -2.94139 0
M  V30 13557 N 1265.25 -0.510493 -1.49103 0
M  V30 13558 C 1266.18 0.251999 -2.32136 0
M  V30 13559 C 1267.16 0.953613 -1.40855 0
M  V30 13560 O 1268.35 0.943178 -1.69758 0
M  V30 13561 C 1265.48 1.31118 -3.21598 0
M  V30 13562 C 1264.43 0.72888 -4.21748 0
M  V30 13563 C 1263.76 1.88928 -5.0021 0
M  V30 13564 C 1265.06 -0.286425 -5.21514 0
M  V30 13565 H 1266.75 -0.441102 -2.96133 0
M  V30 13566 H 1264.3 -0.213577 -1.42407 0
M  V30 13567 H 1266.25 1.8524 -3.78503 0
M  V30 13568 H 1264.98 2.0336 -2.55563 0
M  V30 13569 H 1263.64 0.209336 -3.66002 0
M  V30 13570 H 1263.28 2.59961 -4.30615 0
M  V30 13571 H 1262.98 1.50568 -5.67981 0
M  V30 13572 H 1264.51 2.43465 -5.59962 0
M  V30 13573 H 1265.92 0.166997 -5.73057 0
M  V30 13574 H 1264.32 -0.586361 -5.97228 0
M  V30 13575 H 1265.39 -1.19904 -4.69842 0
M  V30 13576 N 1266.73 1.55688 -0.24474 0
M  V30 13577 C 1268.15 1.59219 0.110159 0
M  V30 13578 C 1268.35 1.26187 1.57096 0
M  V30 13579 O 1267.4 1.00815 2.31501 0
M  V30 13580 C 1268.72 2.99764 -0.237075 0
M  V30 13581 C 1270.26 3.12475 -0.181198 0
M  V30 13582 C 1270.74 4.55236 -0.502435 0
M  V30 13583 N 1272.23 4.60981 -0.452855 0
M  V30 13584 C 1272.97 5.69418 -0.674605 0
M  V30 13585 N 1272.46 6.86125 -0.959366 0
M  V30 13586 N 1274.25 5.5883 -0.605459 0
M  V30 13587 H 1266.41 1.7543 -1.19741 0
M  V30 13588 H 1268.67 0.816537 -0.481634 0
M  V30 13589 H 1268.37 3.28666 -1.25185 0
M  V30 13590 H 1268.25 3.74662 0.436859 0
M  V30 13591 H 1270.64 2.83355 0.824248 0
M  V30 13592 H 1270.72 2.39857 -0.888952 0
M  V30 13593 H 1270.36 4.85077 -1.50543 0
M  V30 13594 H 1270.29 5.26111 0.226773 0
M  V30 13595 H 1272.78 3.77128 -0.241401 0
M  V30 13596 H 1273.09 7.64699 -1.11605 0
M  V30 13597 H 1271.44 6.87814 -0.996816 0
M  V30 13598 H 1274.63 4.6653 -0.383053 0
M  V30 13599 H 1274.8 6.43268 -0.781673 0
M  V30 13600 N 1268.21 -0.0283989 1.57574 0
M  V30 13601 C 1269.14 -1.02828 2.09639 0
M  V30 13602 C 1270.12 -1.37668 0.999076 0
M  V30 13603 O 1271.31 -1.4654 1.27435 0
M  V30 13604 C 1268.44 -2.329 2.57633 0
M  V30 13605 C 1267.39 -2.12301 3.71635 0
M  V30 13606 C 1266.72 -3.48138 4.05837 0
M  V30 13607 C 1268.02 -1.50864 5.00037 0
M  V30 13608 H 1269.71 -0.594876 2.93431 0
M  V30 13609 H 1267.26 -0.284701 1.41158 0
M  V30 13610 H 1269.21 -3.03179 2.92678 0
M  V30 13611 H 1267.93 -2.78302 1.70926 0
M  V30 13612 H 1266.59 -1.44454 3.3694 0
M  V30 13613 H 1266.24 -3.9119 3.16195 0
M  V30 13614 H 1265.94 -3.3518 4.82626 0
M  V30 13615 H 1267.46 -4.19779 4.43417 0
M  V30 13616 H 1268.88 -2.11062 5.33035 0
M  V30 13617 H 1267.27 -1.48479 5.81441 0
M  V30 13618 H 1268.34 -0.474541 4.82572 0
M  V30 13619 N 1269.69 -1.54705 -0.300681 0
M  V30 13620 C 1270.64 -1.86433 -1.39087 0
M  V30 13621 C 1271.63 -0.738101 -1.52474 0
M  V30 13622 O 1272.84 -0.922096 -1.54588 0
M  V30 13623 H 1269.21 -0.591314 -0.464599 0
M  V30 13624 H 1271.18 -2.77558 -1.09563 0
M  V30 13625 C 1269.93 -2.1286 -2.74929 0
M  V30 13626 H 1269.25 -2.98994 -2.6541 0
M  V30 13627 H 1270.69 -2.39 -3.50222 0
M  V30 13628 C 1269.15 -0.92726 -3.23888 0
M  V30 13629 O 1269.68 -0.147921 -4.01428 0
M  V30 13630 N 1267.89 -0.732553 -2.81215 0
M  V30 13631 H 1267.44 -1.36797 -2.18276 0
M  V30 13632 H 1267.39 0.0696902 -3.14323 0
M  V30 13633 N 1271.17 0.563888 -1.47167 0
M  V30 13634 C 1272.08 1.69903 -1.61772 0
M  V30 13635 C 1273.09 1.6664 -0.500705 0
M  V30 13636 O 1274.27 1.86209 -0.767354 0
M  V30 13637 C 1271.33 3.06411 -1.62213 0
M  V30 13638 C 1270.39 3.20793 -2.8529 0
M  V30 13639 C 1269.63 4.50789 -2.85701 0
M  V30 13640 O 1269.85 5.3584 -1.95529 0
M  V30 13641 O 1268.78 4.68819 -3.77481 0
M  V30 13642 H 1272.61 1.60525 -2.57809 0
M  V30 13643 H 1270.2 0.733125 -1.30175 0
M  V30 13644 H 1272.08 3.87659 -1.65221 0
M  V30 13645 H 1270.75 3.16186 -0.693415 0
M  V30 13646 H 1269.66 2.38967 -2.87829 0
M  V30 13647 H 1270.99 3.15918 -3.77434 0
M  V30 13648 N 1272.64 1.35187 0.810078 0
M  V30 13649 C 1273.59 1.27822 1.92173 0
M  V30 13650 C 1274.56 0.150851 1.65414 0
M  V30 13651 O 1275.75 0.333973 1.87854 0
M  V30 13652 C 1272.89 1.05258 3.28656 0
M  V30 13653 C 1272 2.26884 3.67624 0
M  V30 13654 C 1271.13 1.97499 4.9312 0
M  V30 13655 C 1270.17 3.15198 5.24706 0
M  V30 13656 N 1269.31 2.85612 6.41381 0
M  V30 13657 H 1274.15 2.22884 1.97804 0
M  V30 13658 H 1271.69 1.10799 0.967577 0
M  V30 13659 H 1273.65 0.902084 4.07331 0
M  V30 13660 H 1272.28 0.138583 3.22502 0
M  V30 13661 H 1271.33 2.5281 2.84238 0
M  V30 13662 H 1272.64 3.14783 3.86928 0
M  V30 13663 H 1271.79 1.7926 5.79613 0
M  V30 13664 H 1270.53 1.0688 4.75844 0
M  V30 13665 H 1269.54 3.34019 4.36705 0
M  V30 13666 H 1270.76 4.06614 5.43913 0
M  V30 13667 H 1268.71 1.97583 6.25537 0
M  V30 13668 H 1268.63 3.67044 6.60919 0
M  V30 13669 H 1269.89 2.70906 7.3091 0
M  V30 13670 N 1274.12 -1.03182 1.19127 0
M  V30 13671 C 1275.05 -2.13301 0.94999 0
M  V30 13672 C 1276.03 -1.69707 -0.115577 0
M  V30 13673 O 1277.22 -1.94161 0.0388395 0
M  V30 13674 C 1274.35 -3.43902 0.484637 0
M  V30 13675 C 1273.3 -4.01164 1.4917 0
M  V30 13676 C 1272.63 -5.2735 0.883537 0
M  V30 13677 C 1273.93 -4.36311 2.87107 0
M  V30 13678 H 1275.62 -2.33743 1.87095 0
M  V30 13679 H 1273.17 -1.12332 0.900977 0
M  V30 13680 H 1275.12 -4.20308 0.30315 0
M  V30 13681 H 1273.85 -3.23173 -0.471909 0
M  V30 13682 H 1272.5 -3.26849 1.66028 0
M  V30 13683 H 1272.15 -5.02936 -0.0804712 0
M  V30 13684 H 1271.85 -5.66624 1.55599 0
M  V30 13685 H 1273.38 -6.06425 0.71278 0
M  V30 13686 H 1274.79 -5.03666 2.73848 0
M  V30 13687 H 1273.19 -4.86659 3.51117 0
M  V30 13688 H 1274.26 -3.45743 3.39985 0
M  V30 13689 N 1275.6 -0.99472 -1.22242 0
M  V30 13690 C 1276.85 -0.670275 -1.90661 0
M  V30 13691 C 1277.17 0.800369 -1.77818 0
M  V30 13692 O 1276.44 1.57381 -1.16653 0
M  V30 13693 H 1275.02 -0.244925 -0.705706 0
M  V30 13694 H 1277.68 -1.26162 -1.48557 0
M  V30 13695 H 1276.78 -0.934408 -2.97784 0
M  V30 13696 N 1277.08 1.37613 -0.768148 0
M  V30 13697 C 1278.31 2.04052 -0.342111 0
M  V30 13698 C 1278.72 1.57936 1.03449 0
M  V30 13699 O 1278.08 0.758981 1.65969 0
M  V30 13700 C 1278.13 3.5958 -0.372096 0
M  V30 13701 O 1277.85 4.04008 -1.69439 0
M  V30 13702 C 1279.35 4.43251 0.0659884 0
M  V30 13703 H 1276.57 0.655391 -0.143886 0
M  V30 13704 H 1279.12 1.76017 -1.04107 0
M  V30 13705 H 1277.27 3.86399 0.278248 0
M  V30 13706 H 1277.68 4.98511 -1.63054 0
M  V30 13707 H 1279.16 5.52 -0.00614775 0
M  V30 13708 H 1279.64 4.24788 1.11588 0
M  V30 13709 H 1280.24 4.2165 -0.55603 0
M  V30 13710 N 1278.56 0.518393 1.4883 0
M  V30 13711 C 1279.78 -0.0162 2.06894 0
M  V30 13712 C 1280.2 -1.29222 1.37649 0
M  V30 13713 O 1279.56 -1.766 0.460288 0
M  V30 13714 C 1279.61 -0.255836 3.60594 0
M  V30 13715 O 1279.33 0.969612 4.27235 0
M  V30 13716 C 1280.83 -0.832117 4.3542 0
M  V30 13717 H 1278.05 0.0282877 0.670403 0
M  V30 13718 H 1280.59 0.720726 1.91379 0
M  V30 13719 H 1278.75 -0.942782 3.75753 0
M  V30 13720 H 1279.16 0.743172 5.19208 0
M  V30 13721 H 1280.64 -0.949279 5.43776 0
M  V30 13722 H 1281.11 -1.83421 3.99066 0
M  V30 13723 H 1281.72 -0.1821 4.2491 0
M  V30 13724 N 1280.03 -1.55556 0.252993 0
M  V30 13725 C 1281 -2.20351 -0.630705 0
M  V30 13726 C 1282 -1.17461 -1.09816 0
M  V30 13727 O 1283.19 -1.42505 -1.00189 0
M  V30 13728 C 1280.32 -2.85192 -1.86757 0
M  V30 13729 H 1281.51 -2.99829 -0.0652939 0
M  V30 13730 H 1279.07 -1.563 0.00347982 0
M  V30 13731 H 1279.8 -2.09669 -2.47406 0
M  V30 13732 H 1279.59 -3.60569 -1.54053 0
M  V30 13733 H 1281.08 -3.34762 -2.49648 0
M  V30 13734 N 1281.51 0.0200419 -1.57587 0
M  V30 13735 C 1282.48 1.00255 -2.06111 0
M  V30 13736 C 1283.48 1.28488 -0.966829 0
M  V30 13737 O 1284.67 1.2334 -1.23015 0
M  V30 13738 C 1281.8 2.33296 -2.48567 0
M  V30 13739 H 1282.99 0.583216 -2.94174 0
M  V30 13740 H 1280.54 0.267077 -1.54001 0
M  V30 13741 H 1281.28 2.79959 -1.63687 0
M  V30 13742 H 1281.06 2.14131 -3.28467 0
M  V30 13743 H 1282.55 3.03817 -2.86505 0
M  V30 13744 N 1282.99 1.54862 0.292472 0
M  V30 13745 C 1284.22 1.7855 1.04534 0
M  V30 13746 C 1284.63 0.549161 1.80637 0
M  V30 13747 O 1283.99 -0.481268 1.7604 0
M  V30 13748 C 1284.04 2.99849 2.01923 0
M  V30 13749 O 1283.76 4.18706 1.28907 0
M  V30 13750 C 1285.26 3.35991 2.8918 0
M  V30 13751 H 1282.48 0.595279 0.309652 0
M  V30 13752 H 1285.03 2.01834 0.329159 0
M  V30 13753 H 1283.18 2.78749 2.69032 0
M  V30 13754 H 1283.6 4.87151 1.94383 0
M  V30 13755 H 1285.07 4.24085 3.53349 0
M  V30 13756 H 1285.55 2.54524 3.57931 0
M  V30 13757 H 1286.15 3.59281 2.27591 0
M  V30 13758 N 1284.47 -0.556076 1.47464 0
M  V30 13759 C 1285.38 -1.69043 1.62671 0
M  V30 13760 C 1286.39 -1.66372 0.509535 0
M  V30 13761 O 1287.57 -1.85799 0.777218 0
M  V30 13762 C 1284.64 -3.05546 1.63836 0
M  V30 13763 C 1283.7 -3.19275 2.86988 0
M  V30 13764 C 1282.93 -4.49267 2.88088 0
M  V30 13765 O 1283.15 -5.34796 1.98368 0
M  V30 13766 O 1282.09 -4.66811 3.79962 0
M  V30 13767 H 1285.91 -1.59155 2.58657 0
M  V30 13768 H 1283.5 -0.726211 1.30562 0
M  V30 13769 H 1285.38 -3.86778 1.67275 0
M  V30 13770 H 1284.05 -3.15814 0.710173 0
M  V30 13771 H 1282.96 -2.37437 2.89093 0
M  V30 13772 H 1284.29 -3.13912 3.79104 0
M  V30 13773 N 1285.95 -1.35615 -0.802897 0
M  V30 13774 C 1286.88 -1.31506 -1.92947 0
M  V30 13775 C 1287.86 -0.188843 -1.69048 0
M  V30 13776 O 1289.04 -0.384384 -1.90358 0
M  V30 13777 C 1286.17 -1.09001 -3.29752 0
M  V30 13778 C 1285.13 -2.18303 -3.68141 0
M  V30 13779 C 1284.45 -1.80959 -5.03148 0
M  V30 13780 C 1285.75 -3.60296 -3.78132 0
M  V30 13781 H 1287.45 -2.25771 -1.96642 0
M  V30 13782 H 1284.99 -1.08682 -0.944685 0
M  V30 13783 H 1286.95 -1.04766 -4.08169 0
M  V30 13784 H 1285.67 -0.111832 -3.26408 0
M  V30 13785 H 1284.33 -2.21642 -2.92011 0
M  V30 13786 H 1283.98 -0.817495 -4.96312 0
M  V30 13787 H 1283.68 -2.54129 -5.29804 0
M  V30 13788 H 1285.2 -1.78255 -5.84001 0
M  V30 13789 H 1286.62 -3.59259 -4.46773 0
M  V30 13790 H 1285.01 -4.32258 -4.16261 0
M  V30 13791 H 1286.08 -3.9618 -2.79588 0
M  V30 13792 N 1287.43 1.02549 -1.19673 0
M  V30 13793 C 1288.37 2.109 -0.937536 0
M  V30 13794 C 1289.34 1.65599 0.128923 0
M  V30 13795 O 1290.53 1.90795 -0.0139366 0
M  V30 13796 C 1287.67 3.4166 -0.48602 0
M  V30 13797 C 1286.78 4.0049 -1.61963 0
M  V30 13798 C 1285.92 5.19273 -1.11931 0
M  V30 13799 C 1284.95 5.70166 -2.22659 0
M  V30 13800 N 1284.09 6.80221 -1.73909 0
M  V30 13801 H 1288.93 2.32408 -1.86523 0
M  V30 13802 H 1286.47 1.13982 -0.929869 0
M  V30 13803 H 1288.43 4.16693 -0.205614 0
M  V30 13804 H 1287.06 3.20253 0.404678 0
M  V30 13805 H 1286.11 3.22638 -2.01516 0
M  V30 13806 H 1287.42 4.34273 -2.45374 0
M  V30 13807 H 1286.57 6.01478 -0.794336 0
M  V30 13808 H 1285.31 4.87033 -0.254972 0
M  V30 13809 H 1284.32 4.86572 -2.55983 0
M  V30 13810 H 1285.54 6.04444 -3.09554 0
M  V30 13811 H 1283.49 6.49826 -0.897889 0
M  V30 13812 H 1283.41 7.13149 -2.50907 0
M  V30 13813 H 1284.67 7.66011 -1.44386 0
M  V30 13814 N 1288.9 1.00119 1.21713 0
M  V30 13815 C 1289.85 0.558388 2.23943 0
M  V30 13816 C 1290.82 -0.413576 1.60869 0
M  V30 13817 O 1292.01 -0.316478 1.88157 0
M  V30 13818 C 1289.15 -0.112618 3.44916 0
M  V30 13819 C 1288.26 0.902071 4.22477 0
M  V30 13820 C 1287.39 0.203722 5.30809 0
M  V30 13821 C 1286.43 1.20622 6.00097 0
M  V30 13822 N 1285.57 0.535607 7.00054 0
M  V30 13823 H 1290.41 1.43486 2.61182 0
M  V30 13824 H 1287.95 0.718572 1.28355 0
M  V30 13825 H 1289.9 -0.51865 4.13964 0
M  V30 13826 H 1288.53 -0.952827 3.08417 0
M  V30 13827 H 1287.59 1.42637 3.52645 0
M  V30 13828 H 1288.9 1.66513 4.70186 0
M  V30 13829 H 1288.05 -0.258614 6.06149 0
M  V30 13830 H 1286.79 -0.591773 4.84096 0
M  V30 13831 H 1285.8 1.6791 5.23532 0
M  V30 13832 H 1287.02 2.00273 6.48897 0
M  V30 13833 H 1284.97 -0.2403 6.5556 0
M  V30 13834 H 1284.88 1.23698 7.45812 0
M  V30 13835 H 1286.15 0.0963489 7.7944 0
M  V30 13836 N 1290.38 -1.37203 0.775435 0
M  V30 13837 C 1291.31 -2.32819 0.17826 0
M  V30 13838 C 1292.29 -1.55963 -0.678944 0
M  V30 13839 O 1293.48 -1.84183 -0.615648 0
M  V30 13840 C 1290.61 -3.40198 -0.698768 0
M  V30 13841 C 1289.56 -4.27961 0.057423 0
M  V30 13842 C 1288.89 -5.26385 -0.93929 0
M  V30 13843 C 1290.19 -5.07402 1.23856 0
M  V30 13844 H 1291.88 -2.8301 0.977028 0
M  V30 13845 H 1289.43 -1.3607 0.471274 0
M  V30 13846 H 1291.38 -4.06067 -1.12637 0
M  V30 13847 H 1290.1 -2.88541 -1.53009 0
M  V30 13848 H 1288.76 -3.63628 0.465848 0
M  V30 13849 H 1288.41 -4.71007 -1.76527 0
M  V30 13850 H 1288.11 -5.85966 -0.437844 0
M  V30 13851 H 1289.64 -5.9513 -1.36576 0
M  V30 13852 H 1291.05 -5.6639 0.887423 0
M  V30 13853 H 1289.45 -5.76327 1.67234 0
M  V30 13854 H 1290.52 -4.3986 2.04085 0
M  V30 13855 N 1291.86 -0.526279 -1.48553 0
M  V30 13856 C 1293.14 0.073385 -1.95462 0
M  V30 13857 C 1293.52 1.51658 -1.46843 0
M  V30 13858 O 1292.86 2.17729 -0.693293 0
M  V30 13859 C 1293.07 -0.040041 -3.48977 0
M  V30 13860 C 1294.42 0.121108 -4.24427 0
M  V30 13861 O 1295.45 0.0339335 -3.56184 0
M  V30 13862 O 1294.31 0.303297 -5.45658 0
M  V30 13863 H 1291.4 0.0813498 -0.822989 0
M  V30 13864 H 1293.95 -0.590614 -1.59091 0
M  V30 13865 H 1292.72 -1.0455 -3.77074 0
M  V30 13866 H 1292.34 0.662975 -3.92034 0
M  V30 13867 N 1293.34 1.5542 -0.261239 0
M  V30 13868 C 1294.58 1.99284 0.359487 0
M  V30 13869 C 1294.91 1.14954 1.56894 0
M  V30 13870 O 1294.17 0.203796 1.94636 0
M  V30 13871 C 1294.47 3.48354 0.799021 0
M  V30 13872 C 1294.13 4.49872 -0.30426 0
M  V30 13873 C 1292.79 4.77353 -0.607237 0
M  V30 13874 C 1295.15 5.10547 -1.04838 0
M  V30 13875 C 1292.47 5.62781 -1.65816 0
M  V30 13876 C 1294.83 5.97115 -2.08893 0
M  V30 13877 C 1293.49 6.22923 -2.3984 0
M  V30 13878 H 1292.76 0.72923 0.131546 0
M  V30 13879 H 1295.41 1.87851 -0.372058 0
M  V30 13880 H 1293.71 3.57192 1.61001 0
M  V30 13881 H 1295.41 3.7969 1.28981 0
M  V30 13882 H 1292 4.28561 -0.0579863 0
M  V30 13883 H 1296.18 4.89352 -0.827566 0
M  V30 13884 H 1291.44 5.81026 -1.90311 0
M  V30 13885 H 1295.61 6.43168 -2.67035 0
M  V30 13886 H 1293.24 6.88912 -3.2141 0
M  V30 13887 N 1294.82 -0.0116844 1.57596 0
M  V30 13888 C 1295.76 -1.00684 2.07681 0
M  V30 13889 C 1296.73 -1.34858 0.969666 0
M  V30 13890 O 1297.92 -1.44896 1.24136 0
M  V30 13891 C 1295.06 -2.29729 2.57524 0
M  V30 13892 C 1294.17 -2.0156 3.82096 0
M  V30 13893 C 1293.31 -3.24601 4.20485 0
M  V30 13894 C 1292.34 -2.92066 5.37925 0
M  V30 13895 N 1291.48 -4.0761 5.71663 0
M  V30 13896 H 1296.32 -0.572787 2.92443 0
M  V30 13897 H 1293.86 -0.271184 1.44579 0
M  V30 13898 H 1295.82 -3.05152 2.84496 0
M  V30 13899 H 1294.45 -2.70824 1.75653 0
M  V30 13900 H 1293.5 -1.16556 3.62103 0
M  V30 13901 H 1294.81 -1.73572 4.67626 0
M  V30 13902 H 1293.96 -4.08379 4.48677 0
M  V30 13903 H 1292.7 -3.55718 3.3364 0
M  V30 13904 H 1291.71 -2.06693 5.09468 0
M  V30 13905 H 1292.93 -2.62209 6.26437 0
M  V30 13906 H 1290.88 -4.38645 4.87777 0
M  V30 13907 H 1290.8 -3.83105 6.51741 0
M  V30 13908 H 1292.06 -4.92211 6.04441 0
M  V30 13909 N 1296.29 -1.55015 -0.284256 0
M  V30 13910 C 1297.54 -1.7535 -1.01884 0
M  V30 13911 C 1297.87 -0.546825 -1.86342 0
M  V30 13912 O 1297.15 0.455832 -1.89083 0
M  V30 13913 C 1297.43 -3.05219 -1.91084 0
M  V30 13914 C 1297.28 -4.36219 -1.09694 0
M  V30 13915 C 1298.6 -3.31056 -2.89983 0
M  V30 13916 H 1295.72 -0.637981 -0.368984 0
M  V30 13917 H 1298.36 -1.87741 -0.292116 0
M  V30 13918 H 1296.51 -2.94786 -2.53048 0
M  V30 13919 H 1298.19 -4.58594 -0.498876 0
M  V30 13920 H 1296.43 -4.31951 -0.400078 0
M  V30 13921 H 1297.1 -5.23392 -1.75399 0
M  V30 13922 H 1299.58 -3.41209 -2.38151 0
M  V30 13923 H 1298.45 -4.23212 -3.49547 0
M  V30 13924 H 1298.71 -2.50153 -3.64521 0
M  V30 13925 N 1297.77 0.548248 -1.47757 0
M  V30 13926 C 1299 1.335 -1.58722 0
M  V30 13927 C 1299.42 1.86549 -0.241034 0
M  V30 13928 O 1298.78 1.63447 0.784517 0
M  V30 13929 C 1298.83 2.47457 -2.62293 0
M  V30 13930 O 1297.93 3.49956 -2.18185 0
M  V30 13931 H 1297.27 0.396166 -0.532868 0
M  V30 13932 H 1299.8 0.66164 -1.93607 0
M  V30 13933 H 1299.81 2.93901 -2.82995 0
M  V30 13934 H 1298.49 2.08203 -3.60034 0
M  V30 13935 H 1297.06 3.09755 -2.0762 0
M  V30 13936 N 1299.25 1.36039 0.795694 0
M  V30 13937 C 1300.47 1.33222 1.58955 0
M  V30 13938 C 1300.9 -0.0854596 1.87906 0
M  V30 13939 O 1300.26 -1.05555 1.47403 0
M  V30 13940 C 1300.31 2.15508 2.89117 0
M  V30 13941 O 1299.41 1.54327 3.82436 0
M  V30 13942 H 1298.75 0.456264 0.48241 0
M  V30 13943 H 1301.28 1.79234 0.986726 0
M  V30 13944 H 1301.29 2.2786 3.38444 0
M  V30 13945 H 1299.97 3.18568 2.67371 0
M  V30 13946 H 1298.54 1.50879 3.41013 0
M  V30 13947 N 1300.73 -1.01913 1.20215 0
M  V30 13948 C 1301.96 -1.79076 1.03631 0
M  V30 13949 C 1302.37 -1.84192 -0.414583 0
M  V30 13950 O 1301.73 -1.29306 -1.28788 0
M  V30 13951 C 1301.78 -3.23665 1.61008 0
M  V30 13952 O 1301.5 -3.18873 3.00419 0
M  V30 13953 C 1303 -4.17387 1.49342 0
M  V30 13954 H 1300.22 -0.563241 0.364692 0
M  V30 13955 H 1302.77 -1.283 1.59246 0
M  V30 13956 H 1300.92 -3.71597 1.09518 0
M  V30 13957 H 1301.33 -4.09609 3.27598 0
M  V30 13958 H 1302.81 -5.16691 1.94253 0
M  V30 13959 H 1303.29 -4.36935 0.445493 0
M  V30 13960 H 1303.89 -3.75335 2.0001 0
M  V30 13961 N 1302.21 -1.00763 -1.2118 0
M  V30 13962 C 1303.43 -0.710515 -1.9485 0
M  V30 13963 C 1303.86 0.720934 -1.73736 0
M  V30 13964 O 1303.21 1.49484 -1.02588 0
M  V30 13965 C 1303.26 -1.04035 -3.45267 0
M  V30 13966 O 1302.37 -0.147047 -4.12138 0
M  V30 13967 H 1301.71 -0.264472 -0.609057 0
M  V30 13968 H 1304.24 -1.34858 -1.53865 0
M  V30 13969 H 1304.25 -0.9883 -3.95849 0
M  V30 13970 H 1302.92 -2.08334 -3.59958 0
M  V30 13971 H 1301.5 -0.255847 -3.72021 0
M  V30 13972 N 1303.68 1.3679 -0.7827 0
M  V30 13973 C 1304.63 2.32019 -0.164358 0
M  V30 13974 C 1305.63 1.55476 0.672571 0
M  V30 13975 O 1306.83 1.7079 0.568406 0
M  V30 13976 H 1303.21 0.751214 -0.0343697 0
M  V30 13977 H 1305.18 2.81741 -0.983077 0
M  V30 13978 C 1303.93 3.4075 0.691727 0
M  V30 13979 H 1303.25 3.99759 0.0570885 0
M  V30 13980 H 1304.69 4.09719 1.09117 0
M  V30 13981 C 1303.15 2.81753 1.84708 0
M  V30 13982 O 1303.68 2.73378 2.94325 0
M  V30 13983 N 1301.89 2.39138 1.6511 0
M  V30 13984 H 1301.43 2.46149 0.759487 0
M  V30 13985 H 1301.39 2.0001 2.42576 0
M  V30 13986 N 1305.16 0.53415 1.48272 0
M  V30 13987 C 1306.11 -0.239672 2.31362 0
M  V30 13988 C 1307.1 -0.931501 1.4149 0
M  V30 13989 O 1308.31 -0.855411 1.58375 0
M  V30 13990 H 1304.69 -0.09616 0.745827 0
M  V30 13991 H 1306.66 0.480638 2.94504 0
M  V30 13992 C 1305.41 -1.27102 3.23636 0
M  V30 13993 H 1304.73 -0.748082 3.92739 0
M  V30 13994 H 1306.17 -1.78379 3.84652 0
M  V30 13995 C 1304.63 -2.30683 2.45534 0
M  V30 13996 O 1305.16 -3.37197 2.18314 0
M  V30 13997 N 1303.36 -2.04006 2.06954 0
M  V30 13998 H 1302.91 -1.17403 2.29291 0
M  V30 13999 H 1302.87 -2.73531 1.5501 0
M  V30 14000 N 1306.64 -1.55279 0.269478 0
M  V30 14001 C 1307.57 -2.25278 -0.614188 0
M  V30 14002 C 1308.55 -1.24092 -1.1634 0
M  V30 14003 O 1309.74 -1.52799 -1.19858 0
M  V30 14004 C 1306.87 -2.96956 -1.80096 0
M  V30 14005 C 1305.82 -4.05021 -1.38353 0
M  V30 14006 C 1305.15 -4.64244 -2.65295 0
M  V30 14007 C 1306.45 -5.19523 -0.537886 0
M  V30 14008 H 1308.14 -2.99385 -0.0304397 0
M  V30 14009 H 1305.69 -1.43994 -0.0132004 0
M  V30 14010 H 1307.64 -3.44633 -2.42499 0
M  V30 14011 H 1306.36 -2.20374 -2.41045 0
M  V30 14012 H 1305.02 -3.58146 -0.78273 0
M  V30 14013 H 1304.67 -3.84337 -3.2449 0
M  V30 14014 H 1304.37 -5.37208 -2.38079 0
M  V30 14015 H 1305.89 -5.14668 -3.28557 0
M  V30 14016 H 1307.31 -5.63287 -1.06677 0
M  V30 14017 H 1305.71 -5.99014 -0.360845 0
M  V30 14018 H 1306.78 -4.82857 0.444672 0
M  V30 14019 N 1308.12 0.00332656 -1.576 0
M  V30 14020 C 1309.37 0.688044 -1.89602 0
M  V30 14021 C 1309.68 1.75121 -0.871316 0
M  V30 14022 O 1310.89 2.49032 -1.08144 0
M  V30 14023 C 1309.34 1.27494 -3.36561 0
M  V30 14024 C 1308.95 0.246771 -4.4732 0
M  V30 14025 C 1310.69 1.93804 -3.77677 0
M  V30 14026 C 1308.6 0.843471 -5.85354 0
M  V30 14027 H 1307.53 0.260747 -0.707479 0
M  V30 14028 H 1310.18 -0.0566727 -1.83412 0
M  V30 14029 H 1308.56 2.07022 -3.37577 0
M  V30 14030 H 1309.74 -0.523668 -4.57815 0
M  V30 14031 H 1308.05 -0.3157 -4.15202 0
M  V30 14032 H 1310.65 2.39347 -4.78139 0
M  V30 14033 H 1310.99 2.7672 -3.11017 0
M  V30 14034 H 1311.53 1.21015 -3.78946 0
M  V30 14035 H 1308.27 0.0531655 -6.55478 0
M  V30 14036 H 1307.79 1.58315 -5.7853 0
M  V30 14037 H 1309.46 1.34311 -6.32906 0
M  V30 14038 N 1309.6 1.55164 0.276031 0
M  V30 14039 C 1310.82 1.7998 1.03063 0
M  V30 14040 C 1311.25 0.569769 1.79263 0
M  V30 14041 O 1310.6 -0.48054 1.74816 0
M  V30 14042 C 1310.65 3.02209 1.96728 0
M  V30 14043 O 1309.76 2.77083 3.05449 0
M  V30 14044 H 1309.1 0.594963 0.294814 0
M  V30 14045 H 1311.63 2.02301 0.305861 0
M  V30 14046 H 1311.64 3.3086 2.38738 0
M  V30 14047 H 1310.31 3.91386 1.40677 0
M  V30 14048 H 1308.89 2.5952 2.67776 0
M  V30 14049 N 1311.07 -0.540404 1.48045 0
M  V30 14050 C 1312.3 -1.32177 1.59175 0
M  V30 14051 C 1312.72 -1.87163 0.248115 0
M  V30 14052 O 1312.07 -1.65871 -0.761124 0
M  V30 14053 C 1312.13 -2.47995 2.63023 0
M  V30 14054 O 1311.85 -1.95278 3.92171 0
M  V30 14055 C 1313.35 -3.39967 2.84495 0
M  V30 14056 H 1310.57 -0.40233 0.537002 0
M  V30 14057 H 1313.11 -0.652983 1.93795 0
M  V30 14058 H 1311.27 -3.10779 2.31291 0
M  V30 14059 H 1311.68 -2.71012 4.49058 0
M  V30 14060 H 1313.15 -4.17607 3.60982 0
M  V30 14061 H 1313.63 -3.94555 1.92932 0
M  V30 14062 H 1314.24 -2.82985 3.1749 0
M  V30 14063 N 1312.55 -1.36459 -0.788468 0
M  V30 14064 C 1313.8 -1.3007 -1.54158 0
M  V30 14065 C 1314.11 0.117574 -1.95246 0
M  V30 14066 O 1315.32 0.303837 -2.69795 0
M  V30 14067 C 1313.78 -2.28216 -2.78291 0
M  V30 14068 C 1313.38 -3.75484 -2.44368 0
M  V30 14069 C 1315.13 -2.30806 -3.56271 0
M  V30 14070 C 1313.04 -4.65404 -3.64902 0
M  V30 14071 H 1311.97 -0.483345 -0.5787 0
M  V30 14072 H 1314.62 -1.61827 -0.865123 0
M  V30 14073 H 1313 -1.89454 -3.4774 0
M  V30 14074 H 1314.17 -4.22986 -1.82809 0
M  V30 14075 H 1312.49 -3.75678 -1.79597 0
M  V30 14076 H 1315.08 -2.95196 -4.45829 0
M  V30 14077 H 1315.43 -1.31687 -3.94923 0
M  V30 14078 H 1315.96 -2.68189 -2.93802 0
M  V30 14079 H 1312.7 -5.65589 -3.31344 0
M  V30 14080 H 1312.22 -4.22617 -4.25623 0
M  V30 14081 H 1313.9 -4.81721 -4.31919 0
M  V30 14082 N 1314.03 1.01274 -1.20754 0
M  V30 14083 C 1315.44 1.56381 -1.0199 0
M  V30 14084 C 1315.79 1.91595 0.422591 0
M  V30 14085 O 1314.92 1.72653 1.3046 0
M  V30 14086 C 1315.51 2.8415 -1.8451 0
M  V30 14087 C 1314.07 3.35772 -1.70101 0
M  V30 14088 C 1313.22 2.0904 -1.82202 0
M  V30 14089 H 1316.17 0.836105 -1.34889 0
M  V30 14090 H 1316.19 3.55717 -1.35076 0
M  V30 14091 H 1315.7 2.5849 -2.8949 0
M  V30 14092 H 1313.8 3.66384 -0.677732 0
M  V30 14093 H 1313.92 4.07714 -2.51607 0
M  V30 14094 H 1312.28 2.21675 -1.25429 0
M  V30 14095 H 1313.06 1.858 -2.88675 0
M  V30 14096 N 1315.51 1.01404 1.20644 0
M  V30 14097 C 1316.73 0.720839 1.9447 0
M  V30 14098 C 1317.16 -0.711711 1.74116 0
M  V30 14099 O 1316.52 -1.48938 1.03379 0
M  V30 14100 C 1316.57 1.05864 3.4471 0
M  V30 14101 O 1315.67 0.168901 4.12054 0
M  V30 14102 H 1315.01 0.267698 0.607646 0
M  V30 14103 H 1317.54 1.35672 1.53147 0
M  V30 14104 H 1317.55 1.00928 3.9532 0
M  V30 14105 H 1316.23 2.1024 3.58848 0
M  V30 14106 H 1314.8 0.275572 3.7188 0
M  V30 14107 N 1316.99 -1.36373 0.789944 0
M  V30 14108 C 1318.26 -1.9349 0.286543 0
M  V30 14109 C 1318.64 -1.7218 -1.22136 0
M  V30 14110 O 1317.99 -1.08106 -2.01309 0
M  V30 14111 C 1318.2 -3.42316 0.679749 0
M  V30 14112 C 1319.55 -4.19442 0.659791 0
M  V30 14113 O 1320.57 -3.50758 0.620256 0
M  V30 14114 O 1319.43 -5.41957 0.703159 0
M  V30 14115 H 1316.53 -0.823942 0.0710537 0
M  V30 14116 H 1319.07 -1.45551 0.872523 0
M  V30 14117 H 1317.85 -3.51485 1.7197 0
M  V30 14118 H 1317.47 -3.97542 0.0676823 0
M  V30 14119 N 1318.47 -0.542005 -1.47987 0
M  V30 14120 C 1319.41 0.227398 -2.31486 0
M  V30 14121 C 1320.41 0.923984 -1.41982 0
M  V30 14122 O 1321.61 0.847 -1.58827 0
M  V30 14123 H 1317.99 0.0922034 -0.746326 0
M  V30 14124 H 1319.96 -0.49625 -2.94245 0
M  V30 14125 C 1318.71 1.25384 -3.24306 0
M  V30 14126 H 1318.03 0.727243 -3.9313 0
M  V30 14127 H 1319.47 1.76337 -3.85592 0
M  V30 14128 C 1317.93 2.29378 -2.46754 0
M  V30 14129 O 1318.46 3.36034 -2.201 0
M  V30 14130 N 1316.67 2.02905 -2.08033 0
M  V30 14131 H 1316.21 1.16186 -2.2991 0
M  V30 14132 H 1316.17 2.72705 -1.56458 0
M  V30 14133 N 1319.94 1.55134 -0.277709 0
M  V30 14134 C 1320.87 2.256 0.602232 0
M  V30 14135 C 1321.85 1.24708 1.15681 0
M  V30 14136 O 1323.04 1.53433 1.19046 0
M  V30 14137 C 1320.17 2.97907 1.78519 0
M  V30 14138 C 1319.12 4.0575 1.36203 0
M  V30 14139 C 1318.45 4.65644 2.62829 0
M  V30 14140 C 1319.75 5.19801 0.510327 0
M  V30 14141 H 1321.44 2.99396 0.0145622 0
M  V30 14142 H 1318.99 1.43999 0.00556389 0
M  V30 14143 H 1320.94 3.45915 2.40668 0
M  V30 14144 H 1319.67 2.21649 2.39873 0
M  V30 14145 H 1318.33 3.58557 0.763726 0
M  V30 14146 H 1317.97 3.86053 3.22447 0
M  V30 14147 H 1317.67 5.38463 2.35227 0
M  V30 14148 H 1319.2 5.16403 3.25823 0
M  V30 14149 H 1320.61 5.63845 1.03689 0
M  V30 14150 H 1319.01 5.99197 0.329073 0
M  V30 14151 H 1320.08 4.82614 -0.470273 0
M  V30 14152 N 1321.42 0.00503138 1.57599 0
M  V30 14153 C 1322.38 -0.969628 2.0768 0
M  V30 14154 C 1323.38 -1.26933 0.987148 0
M  V30 14155 O 1324.57 -1.21368 1.24962 0
M  V30 14156 C 1321.71 -2.29312 2.52247 0
M  V30 14157 H 1322.9 -0.536342 2.95065 0
M  V30 14158 H 1320.45 -0.242543 1.54407 0
M  V30 14159 H 1321.19 -2.7732 1.6812 0
M  V30 14160 H 1320.97 -2.08878 3.31832 0
M  V30 14161 H 1322.46 -2.99221 2.91302 0
M  V30 14162 N 1322.9 -1.55308 -0.267798 0
M  V30 14163 C 1323.86 -1.87765 -1.31442 0
M  V30 14164 C 1324.86 -0.752571 -1.42102 0
M  V30 14165 O 1326.05 -1.02072 -1.41163 0
M  V30 14166 C 1323.18 -2.08754 -2.69508 0
M  V30 14167 H 1324.38 -2.8133 -1.03891 0
M  V30 14168 H 1321.93 -1.47879 -0.506111 0
M  V30 14169 H 1322.67 -1.17588 -3.02231 0
M  V30 14170 H 1322.45 -2.90674 -2.63156 0
M  V30 14171 H 1323.94 -2.3512 -3.4512 0
M  V30 14172 N 1324.38 0.532545 -1.4833 0
M  V30 14173 C 1325.63 1.28597 -1.55908 0
M  V30 14174 C 1325.95 1.93595 -0.233635 0
M  V30 14175 O 1325.22 1.81197 0.744605 0
M  V30 14176 H 1323.8 0.477619 -0.57436 0
M  V30 14177 H 1326.46 0.619922 -1.84778 0
M  V30 14178 H 1325.55 2.0666 -2.33877 0
M  V30 14179 N 1325.86 1.36875 0.78122 0
M  V30 14180 C 1327.08 1.34732 1.57019 0
M  V30 14181 C 1327.5 -0.0695423 1.88672 0
M  V30 14182 O 1326.86 -1.02873 1.50743 0
M  V30 14183 C 1326.91 2.17668 2.88623 0
M  V30 14184 O 1326.63 3.53832 2.5833 0
M  V30 14185 C 1328.13 2.23398 3.82895 0
M  V30 14186 H 1325.35 0.461857 0.486754 0
M  V30 14187 H 1327.89 1.80086 0.968989 0
M  V30 14188 H 1326.05 1.75848 3.4519 0
M  V30 14189 H 1326.46 3.972 3.42538 0
M  V30 14190 H 1327.94 2.85769 4.72271 0
M  V30 14191 H 1328.41 1.23972 4.2134 0
M  V30 14192 H 1329.02 2.65489 3.32258 0
M  V30 14193 N 1327.33 -1.00632 1.21289 0
M  V30 14194 C 1328.61 -1.71635 0.938124 0
M  V30 14195 C 1328.99 -2.03798 -0.550416 0
M  V30 14196 O 1328.34 -1.71065 -1.5149 0
M  V30 14197 C 1328.55 -2.97674 1.82184 0
M  V30 14198 C 1329.9 -3.7073 2.06989 0
M  V30 14199 O 1330.92 -3.07653 1.79522 0
M  V30 14200 O 1329.78 -4.84183 2.53435 0
M  V30 14201 H 1326.87 -0.748506 0.351664 0
M  V30 14202 H 1329.42 -1.06387 1.32212 0
M  V30 14203 H 1328.19 -2.70306 2.82931 0
M  V30 14204 H 1327.81 -3.70663 1.43858 0
M  V30 14205 N 1328.81 -1.02043 -1.20104 0
M  V30 14206 C 1329.76 -0.587332 -2.25063 0
M  V30 14207 C 1330.75 0.375844 -1.65178 0
M  V30 14208 O 1331.96 0.245347 -1.7832 0
M  V30 14209 H 1328.33 -0.171637 -0.732151 0
M  V30 14210 H 1330.31 -1.48339 -2.58917 0
M  V30 14211 C 1329.05 0.0546893 -3.47657 0
M  V30 14212 H 1328.38 -0.677457 -3.94018 0
M  V30 14213 H 1329.82 0.320786 -4.22785 0
M  V30 14214 C 1328.28 1.29869 -3.10863 0
M  V30 14215 O 1328.81 2.39161 -3.22746 0
M  V30 14216 N 1327.01 1.18423 -2.65376 0
M  V30 14217 H 1326.56 0.294895 -2.55906 0
M  V30 14218 H 1326.52 2.01755 -2.41128 0
M  V30 14219 N 1330.29 1.35952 -0.797165 0
M  V30 14220 C 1331.52 2.0328 -0.385316 0
M  V30 14221 C 1331.93 1.60095 1.00076 0
M  V30 14222 O 1331.29 0.794014 1.64322 0
M  V30 14223 C 1331.34 3.5871 -0.448284 0
M  V30 14224 O 1331.06 4.00323 -1.7797 0
M  V30 14225 C 1332.56 4.43291 -0.0280465 0
M  V30 14226 H 1329.78 0.652192 -0.157756 0
M  V30 14227 H 1332.33 1.73769 -1.07817 0
M  V30 14228 H 1330.48 3.86903 0.196224 0
M  V30 14229 H 1330.9 4.94941 -1.73592 0
M  V30 14230 H 1332.37 5.51862 -0.123234 0
M  V30 14231 H 1332.85 4.27059 1.02552 0
M  V30 14232 H 1333.45 4.20375 -0.645343 0
M  V30 14233 N 1331.77 0.549846 1.47697 0
M  V30 14234 C 1332.99 0.0256819 2.07384 0
M  V30 14235 C 1333.42 -1.25525 1.4009 0
M  V30 14236 O 1332.78 -1.7501 0.473406 0
M  V30 14237 C 1332.82 -0.160835 3.60241 0
M  V30 14238 O 1331.93 -1.22509 3.93783 0
M  V30 14239 H 1331.27 0.0480204 0.662261 0
M  V30 14240 H 1333.8 0.763429 1.89823 0
M  V30 14241 H 1333.81 -0.377337 4.06251 0
M  V30 14242 H 1332.48 0.774774 4.0862 0
M  V30 14243 H 1331.06 -0.98967 3.59527 0
M  V30 14244 N 1333.25 -1.54984 0.285932 0
M  V30 14245 C 1334.47 -2.04699 -0.333621 0
M  V30 14246 C 1334.9 -1.16252 -1.47875 0
M  V30 14247 O 1334.25 -0.163376 -1.80562 0
M  V30 14248 C 1334.3 -3.52022 -0.78187 0
M  V30 14249 O 1333.41 -3.66639 -1.88812 0
M  V30 14250 H 1332.75 -0.660579 -0.0673203 0
M  V30 14251 H 1335.28 -2.00171 0.423386 0
M  V30 14252 H 1335.29 -3.93591 -1.07473 0
M  V30 14253 H 1333.96 -4.15862 0.055893 0
M  V30 14254 H 1332.54 -3.36974 -1.59696 0
M  V30 14255 N 1334.72 -0.0133892 -1.57594 0
M  V30 14256 C 1335.65 0.972341 -2.12292 0
M  V30 14257 C 1336.64 1.34971 -1.03522 0
M  V30 14258 O 1337.82 1.4311 -1.31275 0
M  V30 14259 C 1334.95 2.25988 -2.63717 0
M  V30 14260 C 1333.9 2.02373 -3.77133 0
M  V30 14261 C 1333.23 3.37256 -4.14925 0
M  V30 14262 C 1334.53 1.37553 -5.03861 0
M  V30 14263 H 1336.22 0.516869 -2.94905 0
M  V30 14264 H 1333.77 0.247176 -1.41863 0
M  V30 14265 H 1335.72 2.95313 -3.00613 0
M  V30 14266 H 1334.45 2.73672 -1.78244 0
M  V30 14267 H 1333.11 1.3547 -3.40651 0
M  V30 14268 H 1332.75 3.82669 -3.26456 0
M  V30 14269 H 1332.45 3.22267 -4.91343 0
M  V30 14270 H 1333.98 4.07875 -4.5439 0
M  V30 14271 H 1335.39 1.96855 -5.38443 0
M  V30 14272 H 1333.79 1.33011 -5.85174 0
M  V30 14273 H 1334.86 0.346429 -4.83661 0
M  V30 14274 N 1336.2 1.55448 0.259558 0
M  V30 14275 C 1337.45 1.76337 0.987396 0
M  V30 14276 C 1337.77 0.57505 1.86328 0
M  V30 14277 O 1337.04 -0.409621 1.9157 0
M  V30 14278 H 1335.62 0.650312 0.367565 0
M  V30 14279 H 1338.28 1.9287 0.280551 0
M  V30 14280 H 1337.38 2.66975 1.61651 0
M  V30 14281 N 1337.68 -0.524672 1.4861 0
M  V30 14282 C 1339.09 -1.10655 1.50374 0
M  V30 14283 C 1339.44 -1.94242 0.276512 0
M  V30 14284 O 1338.57 -2.07451 -0.615887 0
M  V30 14285 C 1339.16 -2.01348 2.72478 0
M  V30 14286 C 1337.72 -2.54743 2.77097 0
M  V30 14287 C 1336.87 -1.31822 2.43964 0
M  V30 14288 H 1339.82 -0.309674 1.55649 0
M  V30 14289 H 1339.84 -2.85709 2.51297 0
M  V30 14290 H 1339.35 -1.40485 3.61781 0
M  V30 14291 H 1337.45 -3.19313 1.92016 0
M  V30 14292 H 1337.57 -2.93514 3.78664 0
M  V30 14293 H 1335.93 -1.63574 1.95233 0
M  V30 14294 H 1336.71 -0.727026 3.35513 0
M  V30 14295 N 1339.16 -1.37287 -0.77395 0
M  V30 14296 C 1340.57 -1.28954 -1.3501 0
M  V30 14297 C 1340.92 0.0638301 -1.96096 0
M  V30 14298 O 1340.05 0.965624 -1.93661 0
M  V30 14299 C 1340.64 -2.3352 -2.45467 0
M  V30 14300 C 1339.2 -2.28828 -2.98856 0
M  V30 14301 C 1338.35 -2.17468 -1.72055 0
M  V30 14302 H 1341.3 -1.47941 -0.57438 0
M  V30 14303 H 1341.32 -1.98058 -3.24889 0
M  V30 14304 H 1340.83 -3.32009 -2.00977 0
M  V30 14305 H 1338.93 -1.33855 -3.47726 0
M  V30 14306 H 1339.04 -3.22152 -3.54619 0
M  V30 14307 H 1337.41 -1.63977 -1.94894 0
M  V30 14308 H 1338.19 -3.17868 -1.29672 0
M  V30 14309 N 1340.64 0.999871 -1.21821 0
M  V30 14310 C 1341.86 1.7794 -1.06546 0
M  V30 14311 C 1342.29 1.84219 0.380115 0
M  V30 14312 O 1341.64 1.28955 1.27438 0
M  V30 14313 C 1341.69 3.1943 -1.67322 0
M  V30 14314 O 1340.8 4.01957 -0.922171 0
M  V30 14315 H 1340.14 0.548204 -0.374658 0
M  V30 14316 H 1342.67 1.2565 -1.61472 0
M  V30 14317 H 1342.68 3.70086 -1.71757 0
M  V30 14318 H 1341.35 3.14175 -2.7252 0
M  V30 14319 H 1339.93 3.60509 -0.95331 0
M  V30 14320 N 1342.11 1.02678 1.19562 0
M  V30 14321 C 1343.05 0.550355 2.21464 0
M  V30 14322 C 1344.03 -0.407674 1.57406 0
M  V30 14323 O 1345.21 -0.325272 1.85672 0
M  V30 14324 C 1342.34 -0.197777 3.38122 0
M  V30 14325 C 1341.38 0.711362 4.20526 0
M  V30 14326 S 1342.22 2.18636 4.88834 0
M  V30 14327 C 1343.37 1.44868 6.08904 0
M  V30 14328 H 1343.6 1.41377 2.61534 0
M  V30 14329 H 1341.14 0.836535 1.29775 0
M  V30 14330 H 1343.1 -0.62329 4.0574 0
M  V30 14331 H 1341.76 -1.03689 2.96492 0
M  V30 14332 H 1340.95 0.133916 5.03822 0
M  V30 14333 H 1340.55 1.0751 3.58214 0
M  V30 14334 H 1342.84 0.734143 6.73511 0
M  V30 14335 H 1343.79 2.25816 6.71128 0
M  V30 14336 H 1344.19 0.947098 5.56498 0
M  V30 14337 N 1343.59 -1.35528 0.804364 0
M  V30 14338 C 1345 -1.81321 0.444933 0
M  V30 14339 C 1345.35 -1.66816 -1.03281 0
M  V30 14340 O 1344.48 -1.19753 -1.80245 0
M  V30 14341 C 1345.07 -3.29199 0.800827 0
M  V30 14342 C 1343.63 -3.73144 0.494026 0
M  V30 14343 C 1342.78 -2.57557 1.02761 0
M  V30 14344 H 1345.73 -1.23537 0.996203 0
M  V30 14345 H 1345.75 -3.80375 0.0975117 0
M  V30 14346 H 1345.26 -3.39725 1.8764 0
M  V30 14347 H 1343.37 -3.68169 -0.572901 0
M  V30 14348 H 1343.48 -4.68005 1.0251 0
M  V30 14349 H 1341.84 -2.50692 0.450048 0
M  V30 14350 H 1342.63 -2.70861 2.10925 0
M  V30 14351 N 1345.07 -0.557671 -1.47404 0
M  V30 14352 C 1346.32 -0.0338384 -2.02772 0
M  V30 14353 C 1346.65 1.31278 -1.43107 0
M  V30 14354 O 1345.93 1.85436 -0.58682 0
M  V30 14355 C 1346.21 0.0587427 -3.60052 0
M  V30 14356 C 1346.06 -1.315 -4.30148 0
M  V30 14357 C 1347.38 0.771942 -4.33277 0
M  V30 14358 H 1344.5 -0.0137711 -0.736871 0
M  V30 14359 H 1347.14 -0.720049 -1.75827 0
M  V30 14360 H 1345.29 0.643154 -3.83139 0
M  V30 14361 H 1346.96 -1.94265 -4.184 0
M  V30 14362 H 1345.21 -1.88956 -3.90484 0
M  V30 14363 H 1345.88 -1.20294 -5.38733 0
M  V30 14364 H 1348.35 0.275729 -4.15185 0
M  V30 14365 H 1347.23 0.805683 -5.42955 0
M  V30 14366 H 1347.49 1.82816 -4.0253 0
M  V30 14367 N 1346.55 1.54831 -0.294147 0
M  V30 14368 C 1347.5 2.19966 0.599919 0
M  V30 14369 C 1348.48 1.1704 1.1041 0
M  V30 14370 O 1349.68 1.42785 1.04601 0
M  V30 14371 C 1346.8 2.93875 1.77461 0
M  V30 14372 C 1345.89 4.0411 1.28671 0
M  V30 14373 N 1346.28 5.03158 0.516316 0
M  V30 14374 C 1344.58 4.17527 1.56804 0
M  V30 14375 C 1345.28 5.8113 0.257361 0
M  V30 14376 N 1344.26 5.37145 0.835221 0
M  V30 14377 H 1348.06 2.939 0.00369516 0
M  V30 14378 H 1345.57 1.621 -0.0985855 0
M  V30 14379 H 1347.57 3.39001 2.4266 0
M  V30 14380 H 1346.23 2.21456 2.3746 0
M  V30 14381 H 1347.24 5.17647 0.161855 0
M  V30 14382 H 1343.92 3.56309 2.17601 0
M  V30 14383 H 1345.31 6.7093 -0.360924 0
M  V30 14384 N 1348.03 0.0217466 1.57585 0
M  V30 14385 C 1349.26 -0.667911 1.95506 0
M  V30 14386 C 1349.67 -1.66616 0.89642 0
M  V30 14387 O 1349.01 -1.83232 -0.131059 0
M  V30 14388 C 1349.07 -1.43696 3.29533 0
M  V30 14389 C 1348.73 -0.59787 4.53072 0
M  V30 14390 C 1349.73 0.12372 5.19753 0
M  V30 14391 C 1347.42 -0.53744 4.99417 0
M  V30 14392 C 1349.41 0.894491 6.31092 0
M  V30 14393 C 1347.1 0.237041 6.1064 0
M  V30 14394 C 1348.1 0.95172 6.76337 0
M  V30 14395 O 1347.78 1.71352 7.85426 0
M  V30 14396 H 1347.52 -0.189544 0.648883 0
M  V30 14397 H 1350.07 0.0755682 2.05261 0
M  V30 14398 H 1348.3 -2.22541 3.16247 0
M  V30 14399 H 1349.99 -2.01402 3.52409 0
M  V30 14400 H 1350.75 0.0863208 4.84923 0
M  V30 14401 H 1346.63 -1.08327 4.48092 0
M  V30 14402 H 1350.18 1.45285 6.82304 0
M  V30 14403 H 1346.07 0.276183 6.44909 0
M  V30 14404 H 1346.84 1.63252 8.02054 0
M  V30 14405 N 1349.51 -1.55583 -0.251311 0
M  V30 14406 C 1350.78 -1.67954 -1.00254 0
M  V30 14407 C 1351.16 -0.560326 -2.03528 0
M  V30 14408 O 1350.51 0.436811 -2.24286 0
M  V30 14409 C 1350.72 -3.08075 -1.63985 0
M  V30 14410 C 1352.07 -3.66531 -2.14336 0
M  V30 14411 O 1353.09 -3.10846 -1.73934 0
M  V30 14412 O 1351.95 -4.64141 -2.88506 0
M  V30 14413 H 1349.05 -0.682952 -0.466375 0
M  V30 14414 H 1351.59 -1.67916 -0.245447 0
M  V30 14415 H 1350.36 -3.80983 -0.892627 0
M  V30 14416 H 1349.99 -3.12105 -2.46325 0
M  V30 14417 N 1350.98 0.516783 -1.48886 0
M  V30 14418 C 1352.21 1.30103 -1.61518 0
M  V30 14419 C 1352.63 1.85996 -0.28055 0
M  V30 14420 O 1351.99 1.65075 0.749671 0
M  V30 14421 C 1352.04 2.41837 -2.67483 0
M  V30 14422 O 1351.14 3.45249 -2.25559 0
M  V30 14423 H 1350.48 0.384774 -0.541152 0
M  V30 14424 H 1353.01 0.620424 -1.94966 0
M  V30 14425 H 1353.02 2.87832 -2.89165 0
M  V30 14426 H 1351.7 2.00519 -3.64369 0
M  V30 14427 H 1350.28 3.05281 -2.14144 0
M  V30 14428 N 1352.46 1.37696 0.766659 0
M  V30 14429 C 1353.39 1.2975 1.88938 0
M  V30 14430 C 1354.41 0.212278 1.6141 0
M  V30 14431 O 1355.6 0.468825 1.72233 0
M  V30 14432 C 1352.7 0.984553 3.24283 0
M  V30 14433 C 1351.87 2.17625 3.79418 0
M  V30 14434 C 1350.93 1.83279 4.9325 0
M  V30 14435 O 1349.95 2.55631 5.08568 0
M  V30 14436 N 1351.16 0.779941 5.75237 0
M  V30 14437 H 1353.92 2.26492 1.96269 0
M  V30 14438 H 1351.48 1.31387 0.946001 0
M  V30 14439 H 1353.47 0.735536 3.9796 0
M  V30 14440 H 1352.04 0.105527 3.12422 0
M  V30 14441 H 1351.26 2.58672 2.9746 0
M  V30 14442 H 1352.55 2.97187 4.12986 0
M  V30 14443 H 1351.95 0.179661 5.65415 0
M  V30 14444 H 1350.51 0.59079 6.49117 0
M  V30 14445 N 1353.94 -0.993397 1.22349 0
M  V30 14446 C 1354.87 -2.10171 1.01737 0
M  V30 14447 C 1355.85 -1.69989 -0.0615276 0
M  V30 14448 O 1357.04 -1.93939 0.100591 0
M  V30 14449 C 1354.17 -3.42186 0.593801 0
M  V30 14450 C 1353.12 -3.96215 1.61858 0
M  V30 14451 C 1352.45 -5.24272 1.05086 0
M  V30 14452 C 1353.75 -4.26956 3.00842 0
M  V30 14453 H 1355.44 -2.27673 1.94436 0
M  V30 14454 H 1352.99 -1.09408 0.936258 0
M  V30 14455 H 1354.94 -4.19131 0.436715 0
M  V30 14456 H 1353.66 -3.2451 -0.368855 0
M  V30 14457 H 1352.32 -3.21401 1.76343 0
M  V30 14458 H 1351.97 -5.02937 0.0795747 0
M  V30 14459 H 1351.67 -5.61387 1.73547 0
M  V30 14460 H 1353.19 -6.03851 0.905349 0
M  V30 14461 H 1354.61 -4.94699 2.89734 0
M  V30 14462 H 1353 -4.75242 3.66422 0
M  V30 14463 H 1354.07 -3.34752 3.50812 0
M  V30 14464 N 1355.42 -1.03311 -1.19015 0
M  V30 14465 C 1356.69 -0.646539 -1.84606 0
M  V30 14466 C 1357.07 0.87449 -1.92135 0
M  V30 14467 O 1356.42 1.77291 -1.44154 0
M  V30 14468 C 1356.63 -1.31354 -3.23338 0
M  V30 14469 C 1357.98 -1.43949 -3.99455 0
M  V30 14470 O 1359 -1.27104 -3.32751 0
M  V30 14471 O 1357.86 -1.71328 -5.1895 0
M  V30 14472 H 1354.96 -0.225267 -0.795728 0
M  V30 14473 H 1357.5 -1.13152 -1.2647 0
M  V30 14474 H 1356.28 -2.3521 -3.12717 0
M  V30 14475 H 1355.9 -0.816688 -3.89122 0
M  V30 14476 N 1356.9 1.35099 -0.81154 0
M  V30 14477 C 1358.12 2.0286 -0.406855 0
M  V30 14478 C 1358.54 1.61147 0.98372 0
M  V30 14479 O 1357.9 0.811398 1.6347 0
M  V30 14480 C 1357.95 3.58214 -0.486305 0
M  V30 14481 O 1357.67 3.98412 -1.82206 0
M  V30 14482 C 1359.17 4.43236 -0.0750619 0
M  V30 14483 H 1356.39 0.650482 -0.164664 0
M  V30 14484 H 1358.93 1.72616 -1.09654 0
M  V30 14485 H 1357.09 3.87089 0.155177 0
M  V30 14486 H 1357.5 4.93072 -1.78831 0
M  V30 14487 H 1358.98 5.51701 -0.181759 0
M  V30 14488 H 1359.45 4.28123 0.980169 0
M  V30 14489 H 1360.06 4.19667 -0.689894 0
M  V30 14490 N 1358.37 0.56548 1.47106 0
M  V30 14491 C 1359.6 0.0496298 2.0684 0
M  V30 14492 C 1360.02 -1.24777 1.4169 0
M  V30 14493 O 1359.37 -1.75046 0.516239 0
M  V30 14494 C 1359.42 -0.140987 3.61225 0
M  V30 14495 O 1359.15 1.10504 4.23934 0
M  V30 14496 C 1360.65 -0.693171 4.37847 0
M  V30 14497 H 1357.87 0.0496018 0.669164 0
M  V30 14498 H 1360.41 0.781247 1.88989 0
M  V30 14499 H 1358.57 -0.822762 3.78562 0
M  V30 14500 H 1358.98 0.907978 5.16581 0
M  V30 14501 H 1360.45 -0.7758 5.46521 0
M  V30 14502 H 1360.93 -1.70632 4.04699 0
M  V30 14503 H 1361.54 -0.046826 4.25274 0
M  V30 14504 N 1359.85 -1.54672 0.302354 0
M  V30 14505 C 1360.78 -2.2653 -0.566265 0
M  V30 14506 C 1361.76 -1.26532 -1.13682 0
M  V30 14507 O 1362.95 -1.55307 -1.1659 0
M  V30 14508 C 1360.08 -3.00709 -1.73757 0
M  V30 14509 C 1359.03 -4.07865 -1.29731 0
M  V30 14510 C 1358.36 -4.69767 -2.55388 0
M  V30 14511 C 1359.66 -5.20547 -0.427567 0
M  V30 14512 H 1361.35 -2.99382 0.033071 0
M  V30 14513 H 1358.9 -1.4399 0.0173458 0
M  V30 14514 H 1360.85 -3.497 -2.35134 0
M  V30 14515 H 1359.58 -2.25437 -2.36317 0
M  V30 14516 H 1358.23 -3.59726 -0.706586 0
M  V30 14517 H 1357.88 -3.91134 -3.16265 0
M  V30 14518 H 1357.58 -5.42137 -2.26631 0
M  V30 14519 H 1359.11 -5.21521 -3.17566 0
M  V30 14520 H 1360.52 -5.65424 -0.947053 0
M  V30 14521 H 1358.92 -5.99645 -0.233704 0
M  V30 14522 H 1359.99 -4.81805 0.546993 0
M  V30 14523 N 1361.33 -0.0301034 -1.57571 0
M  V30 14524 C 1362.58 0.648323 -1.91841 0
M  V30 14525 C 1362.91 1.72078 -0.906601 0
M  V30 14526 O 1362.16 1.95518 0.0843233 0
M  V30 14527 C 1362.46 1.30206 -3.32838 0
M  V30 14528 C 1362.13 0.359876 -4.49462 0
M  V30 14529 C 1360.79 0.100552 -4.81095 0
M  V30 14530 C 1363.14 -0.287048 -5.20409 0
M  V30 14531 C 1360.47 -0.813484 -5.81033 0
M  V30 14532 C 1362.82 -1.18914 -6.21323 0
M  V30 14533 C 1361.48 -1.45735 -6.51397 0
M  V30 14534 H 1360.75 0.237238 -0.701997 0
M  V30 14535 H 1363.4 -0.0920804 -1.91278 0
M  V30 14536 H 1361.71 2.11724 -3.29667 0
M  V30 14537 H 1363.4 1.83356 -3.56625 0
M  V30 14538 H 1359.99 0.572172 -4.24764 0
M  V30 14539 H 1364.18 -0.0997611 -4.962 0
M  V30 14540 H 1359.43 -1.02897 -6.02679 0
M  V30 14541 H 1363.61 -1.69661 -6.75417 0
M  V30 14542 H 1361.23 -2.16727 -7.28652 0
M  V30 14543 N 1362.81 1.55714 0.243056 0
M  V30 14544 C 1364.06 1.77375 0.968638 0
M  V30 14545 C 1364.38 0.594781 1.85708 0
M  V30 14546 O 1363.65 -0.38928 1.91993 0
M  V30 14547 H 1362.23 0.654174 0.360646 0
M  V30 14548 H 1364.89 1.93157 0.260079 0
M  V30 14549 H 1363.99 2.68674 1.5881 0
M  V30 14550 N 1364.29 -0.50888 1.49158 0
M  V30 14551 C 1365.23 -1.61129 1.65246 0
M  V30 14552 C 1366.2 -1.58582 0.49405 0
M  V30 14553 O 1367.39 -1.76689 0.720122 0
M  V30 14554 C 1364.53 -2.99311 1.71776 0
M  V30 14555 C 1363.64 -3.11933 2.98868 0
M  V30 14556 C 1362.78 -4.408 2.96426 0
M  V30 14557 C 1361.82 -4.47027 4.18131 0
M  V30 14558 N 1360.95 -5.67311 4.13645 0
M  V30 14559 H 1365.79 -1.4672 2.59379 0
M  V30 14560 H 1363.33 -0.713978 1.28611 0
M  V30 14561 H 1365.29 -3.79392 1.73543 0
M  V30 14562 H 1363.92 -3.12442 0.811159 0
M  V30 14563 H 1362.97 -2.24966 3.06748 0
M  V30 14564 H 1364.28 -3.12393 3.8886 0
M  V30 14565 H 1363.44 -5.29194 2.96712 0
M  V30 14566 H 1362.17 -4.42893 2.04199 0
M  V30 14567 H 1361.18 -3.57036 4.18097 0
M  V30 14568 H 1362.4 -4.46656 5.11542 0
M  V30 14569 H 1360.35 -5.70261 3.2425 0
M  V30 14570 H 1360.27 -5.69355 4.97364 0
M  V30 14571 H 1361.54 -6.57934 4.18022 0
M  V30 14572 N 1365.76 -1.381 -0.759346 0
M  V30 14573 C 1366.71 -1.34866 -1.87296 0
M  V30 14574 C 1367.68 -0.212139 -1.6474 0
M  V30 14575 O 1368.87 -0.403464 -1.86485 0
M  V30 14576 C 1366.01 -1.17383 -3.24523 0
M  V30 14577 C 1365.12 -2.40372 -3.5895 0
M  V30 14578 C 1364.25 -2.15665 -4.8545 0
M  V30 14579 C 1363.29 -3.34455 -5.12646 0
M  V30 14580 N 1362.43 -3.0922 -6.30339 0
M  V30 14581 H 1367.27 -2.30072 -1.89396 0
M  V30 14582 H 1364.81 -1.14314 -0.925788 0
M  V30 14583 H 1366.77 -1.05264 -4.03702 0
M  V30 14584 H 1365.4 -0.258182 -3.21766 0
M  V30 14585 H 1364.45 -2.63185 -2.74659 0
M  V30 14586 H 1365.76 -3.28926 -3.74978 0
M  V30 14587 H 1364.91 -2.00649 -5.7256 0
M  V30 14588 H 1363.65 -1.24467 -4.7155 0
M  V30 14589 H 1362.66 -3.49997 -4.24007 0
M  V30 14590 H 1363.88 -4.26521 -5.28448 0
M  V30 14591 H 1361.83 -2.20664 -6.17773 0
M  V30 14592 H 1361.75 -3.91321 -6.46841 0
M  V30 14593 H 1363.01 -2.97847 -7.20352 0
M  V30 14594 N 1367.24 0.986894 -1.22875 0
M  V30 14595 C 1368.47 1.768 -1.08427 0
M  V30 14596 C 1368.89 1.84612 0.360555 0
M  V30 14597 O 1368.25 1.30299 1.26063 0
M  V30 14598 C 1368.3 3.17638 -1.70701 0
M  V30 14599 O 1367.4 4.00957 -0.964752 0
M  V30 14600 H 1366.74 0.544199 -0.380451 0
M  V30 14601 H 1369.27 1.23931 -1.62795 0
M  V30 14602 H 1369.28 3.68243 -1.75672 0
M  V30 14603 H 1367.96 3.11267 -2.75837 0
M  V30 14604 H 1366.54 3.59477 -0.991493 0
M  V30 14605 N 1368.72 1.0394 1.18466 0
M  V30 14606 C 1369.95 0.761926 1.92897 0
M  V30 14607 C 1370.37 -0.674618 1.75586 0
M  V30 14608 O 1369.73 -1.46711 1.06515 0
M  V30 14609 C 1369.78 1.13152 3.42387 0
M  V30 14610 O 1368.88 0.256266 4.11603 0
M  V30 14611 H 1368.22 0.280527 0.601831 0
M  V30 14612 H 1370.75 1.3889 1.50235 0
M  V30 14613 H 1370.76 1.0929 3.9309 0
M  V30 14614 H 1369.44 2.17804 3.54308 0
M  V30 14615 H 1368.01 0.354392 3.71212 0
M  V30 14616 N 1370.2 -1.34667 0.818693 0
M  V30 14617 C 1371.61 -1.80839 0.46414 0
M  V30 14618 C 1371.96 -1.67902 -1.01506 0
M  V30 14619 O 1371.09 -1.21658 -1.78964 0
M  V30 14620 C 1371.68 -3.28331 0.835698 0
M  V30 14621 C 1370.24 -3.72599 0.533575 0
M  V30 14622 C 1369.39 -2.56452 1.05487 0
M  V30 14623 H 1372.34 -1.22474 1.00925 0
M  V30 14624 H 1372.36 -3.8025 0.13785 0
M  V30 14625 H 1371.87 -3.37715 1.91233 0
M  V30 14626 H 1369.97 -3.68756 -0.533819 0
M  V30 14627 H 1370.08 -4.66891 1.07468 0
M  V30 14628 H 1368.45 -2.50201 0.476612 0
M  V30 14629 H 1369.23 -2.68608 2.13786 0
M  V30 14630 N 1371.68 -0.573274 -1.46804 0
M  V30 14631 C 1372.61 0.153316 -2.32996 0
M  V30 14632 C 1373.59 0.893013 -1.44773 0
M  V30 14633 O 1374.77 0.870329 -1.73606 0
M  V30 14634 C 1371.9 1.1736 -3.2687 0
M  V30 14635 C 1370.86 0.549347 -4.2446 0
M  V30 14636 C 1370.18 1.67542 -5.07773 0
M  V30 14637 C 1371.48 -0.50736 -5.1983 0
M  V30 14638 H 1373.18 -0.566305 -2.93995 0
M  V30 14639 H 1370.72 -0.273785 -1.41373 0
M  V30 14640 H 1372.68 1.6902 -3.86019 0
M  V30 14641 H 1371.4 1.92337 -2.63958 0
M  V30 14642 H 1370.06 0.0539142 -3.6656 0
M  V30 14643 H 1369.71 2.41463 -4.41253 0
M  V30 14644 H 1369.41 1.26343 -5.73856 0
M  V30 14645 H 1370.93 2.19496 -5.69784 0
M  V30 14646 H 1372.34 -0.0762061 -5.73249 0
M  V30 14647 H 1370.74 -0.839139 -5.94204 0
M  V30 14648 H 1371.81 -1.39723 -4.64333 0
M  V30 14649 N 1373.15 1.5451 -0.310553 0
M  V30 14650 C 1374.38 2.04739 0.29824 0
M  V30 14651 C 1374.8 1.18737 1.46788 0
M  V30 14652 O 1374.15 0.215114 1.81228 0
M  V30 14653 C 1374.21 3.53734 0.745274 0
M  V30 14654 O 1373.93 4.36468 -0.377826 0
M  V30 14655 C 1375.43 4.20001 1.41823 0
M  V30 14656 H 1372.65 0.667997 0.0634159 0
M  V30 14657 H 1375.19 1.9942 -0.452961 0
M  V30 14658 H 1373.35 3.59383 1.44648 0
M  V30 14659 H 1373.76 5.24492 -0.0280567 0
M  V30 14660 H 1375.23 5.25747 1.68209 0
M  V30 14661 H 1375.71 3.70319 2.36137 0
M  V30 14662 H 1376.32 4.18455 0.759951 0
M  V30 14663 N 1374.63 0.0384594 1.57553 0
M  V30 14664 C 1375.54 -0.955737 2.14249 0
M  V30 14665 C 1376.56 -1.35056 1.09708 0
M  V30 14666 O 1377.74 -1.43008 1.41812 0
M  V30 14667 C 1374.8 -2.21647 2.66596 0
M  V30 14668 C 1373.86 -1.88119 3.85888 0
M  V30 14669 C 1373.09 -3.08182 4.35729 0
M  V30 14670 O 1373.32 -4.21145 3.84699 0
M  V30 14671 O 1372.25 -2.89936 5.27467 0
M  V30 14672 H 1376.08 -0.50361 2.99495 0
M  V30 14673 H 1373.66 -0.182698 1.48279 0
M  V30 14674 H 1375.54 -2.9564 3.00291 0
M  V30 14675 H 1374.22 -2.66022 1.84428 0
M  V30 14676 H 1373.13 -1.11481 3.57103 0
M  V30 14677 H 1374.46 -1.48553 4.69247 0
M  V30 14678 N 1376.11 -1.55841 -0.234795 0
M  V30 14679 C 1377.34 -1.82649 -0.982547 0
M  V30 14680 C 1377.76 -0.617097 -1.77689 0
M  V30 14681 O 1377.12 0.434022 -1.76028 0
M  V30 14682 C 1377.17 -3.07319 -1.88646 0
M  V30 14683 O 1376.27 -2.85084 -2.97995 0
M  V30 14684 H 1375.61 -0.60257 -0.278936 0
M  V30 14685 H 1378.14 -2.03041 -0.252117 0
M  V30 14686 H 1378.15 -3.37073 -2.29882 0
M  V30 14687 H 1376.83 -3.94978 -1.30251 0
M  V30 14688 H 1375.4 -2.66528 -2.60801 0
M  V30 14689 N 1377.59 0.500963 -1.49426 0
M  V30 14690 C 1378.84 1.25261 -1.58601 0
M  V30 14691 C 1379.16 1.93056 -0.274647 0
M  V30 14692 O 1378.43 1.82736 0.706003 0
M  V30 14693 H 1377.01 0.465328 -0.584362 0
M  V30 14694 H 1379.67 0.580588 -1.86052 0
M  V30 14695 H 1378.77 2.01652 -2.38208 0
M  V30 14696 N 1379.07 1.38501 0.752011 0
M  V30 14697 C 1380.32 1.34529 1.50819 0
M  V30 14698 C 1380.64 -0.0636155 1.94896 0
M  V30 14699 O 1379.91 -1.01161 1.6776 0
M  V30 14700 H 1378.49 0.49501 0.559441 0
M  V30 14701 H 1381.15 1.73196 0.893822 0
M  V30 14702 H 1380.24 1.99713 2.39835 0
M  V30 14703 N 1380.55 -0.980364 1.23396 0
M  V30 14704 C 1381.96 -1.53622 1.061 0
M  V30 14705 C 1382.31 -1.92648 -0.371645 0
M  V30 14706 O 1381.43 -1.76051 -1.25837 0
M  V30 14707 C 1382.03 -2.79159 1.91979 0
M  V30 14708 C 1380.59 -3.31144 1.78943 0
M  V30 14709 C 1379.73 -2.04135 1.87681 0
M  V30 14710 H 1382.68 -0.800047 1.37058 0
M  V30 14711 H 1382.71 -3.52011 1.4446 0
M  V30 14712 H 1382.22 -2.50723 2.96242 0
M  V30 14713 H 1380.32 -3.64459 0.774634 0
M  V30 14714 H 1380.43 -4.009 2.62329 0
M  V30 14715 H 1378.8 -2.18271 1.31262 0
M  V30 14716 H 1379.58 -1.78081 2.93499 0
M  V30 14717 N 1382.02 -1.04567 -1.17913 0
M  V30 14718 C 1382.95 -0.662066 -2.23917 0
M  V30 14719 C 1383.93 0.33713 -1.66726 0
M  V30 14720 O 1385.12 0.216116 -1.92994 0
M  V30 14721 C 1382.25 -0.029463 -3.47288 0
M  V30 14722 C 1381.2 -0.95274 -4.17261 0
M  V30 14723 C 1380.53 -0.184347 -5.34382 0
M  V30 14724 C 1381.83 -2.2741 -4.70194 0
M  V30 14725 H 1383.52 -1.54826 -2.5626 0
M  V30 14726 H 1381.07 -0.745886 -1.23177 0
M  V30 14727 H 1383.02 0.250654 -4.20654 0
M  V30 14728 H 1381.75 0.891638 -3.14193 0
M  V30 14729 H 1380.41 -1.21732 -3.45799 0
M  V30 14730 H 1380.05 0.73932 -4.97537 0
M  V30 14731 H 1379.75 -0.79949 -5.82136 0
M  V30 14732 H 1381.28 0.0886344 -6.10536 0
M  V30 14733 H 1382.69 -2.05433 -5.35229 0
M  V30 14734 H 1381.09 -2.84265 -5.28501 0
M  V30 14735 H 1382.16 -2.91708 -3.87342 0
M  V30 14736 N 1383.5 1.34231 -0.825823 0
M  V30 14737 C 1384.73 2.02949 -0.427354 0
M  V30 14738 C 1385.15 1.61772 0.959755 0
M  V30 14739 O 1384.51 0.803799 1.62508 0
M  V30 14740 C 1384.56 3.56522 -0.540799 0
M  V30 14741 O 1383.66 4.10065 0.438213 0
M  V30 14742 H 1383 0.640378 -0.175535 0
M  V30 14743 H 1385.53 1.71416 -1.11704 0
M  V30 14744 H 1385.54 4.05857 -0.41763 0
M  V30 14745 H 1384.22 3.85839 -1.55246 0
M  V30 14746 H 1382.79 3.71894 0.273687 0
M  V30 14747 N 1384.98 0.581051 1.46498 0
M  V30 14748 C 1385.91 -0.140957 2.33074 0
M  V30 14749 C 1386.89 -0.885323 1.45245 0
M  V30 14750 O 1388.08 -0.86111 1.74065 0
M  V30 14751 C 1385.21 -1.15625 3.27488 0
M  V30 14752 C 1384.16 -0.526829 4.24745 0
M  V30 14753 C 1383.49 -1.64847 5.08655 0
M  V30 14754 C 1384.79 0.53492 5.19554 0
M  V30 14755 H 1386.48 0.581888 2.93691 0
M  V30 14756 H 1384.03 0.281278 1.41226 0
M  V30 14757 H 1385.98 -1.6697 3.8691 0
M  V30 14758 H 1384.7 -1.90935 2.64974 0
M  V30 14759 H 1383.36 -0.0344738 3.66584 0
M  V30 14760 H 1383.01 -2.3912 4.42528 0
M  V30 14761 H 1382.71 -1.23298 5.74518 0
M  V30 14762 H 1384.23 -2.16472 5.7094 0
M  V30 14763 H 1385.65 0.106606 5.73201 0
M  V30 14764 H 1384.04 0.870639 5.93751 0
M  V30 14765 H 1385.11 1.42184 4.63586 0
M  V30 14766 N 1386.46 -1.54343 0.318742 0
M  V30 14767 C 1387.68 -2.05361 -0.290126 0
M  V30 14768 C 1388.11 -1.19362 -1.45376 0
M  V30 14769 O 1387.47 -0.201639 -1.80175 0
M  V30 14770 C 1387.51 -3.53601 -0.707025 0
M  V30 14771 O 1386.62 -3.70561 -1.80992 0
M  V30 14772 H 1385.96 -0.661858 -0.0532933 0
M  V30 14773 H 1388.49 -1.99228 0.46575 0
M  V30 14774 H 1388.5 -3.95782 -0.991005 0
M  V30 14775 H 1387.17 -4.1565 0.144091 0
M  V30 14776 H 1385.75 -3.40286 -1.52513 0
M  V30 14777 N 1387.94 -0.0468143 -1.5753 0
M  V30 14778 C 1388.85 0.944362 -2.14753 0
M  V30 14779 C 1389.86 1.34473 -1.10422 0
M  V30 14780 O 1391.04 1.42254 -1.42569 0
M  V30 14781 C 1388.1 2.2023 -2.67768 0
M  V30 14782 C 1387.16 1.8607 -3.8688 0
M  V30 14783 C 1386.4 3.05867 -4.37357 0
M  V30 14784 O 1386.62 4.19099 -3.86927 0
M  V30 14785 O 1385.55 2.87134 -5.28997 0
M  V30 14786 H 1389.38 0.48772 -2.99758 0
M  V30 14787 H 1386.96 0.174831 -1.48374 0
M  V30 14788 H 1388.85 2.94044 -3.01855 0
M  V30 14789 H 1387.52 2.65041 -1.85836 0
M  V30 14790 H 1386.43 1.09586 -3.5769 0
M  V30 14791 H 1387.76 1.46062 -4.70028 0
M  V30 14792 N 1389.41 1.55964 0.226527 0
M  V30 14793 C 1390.32 1.95169 1.30178 0
M  V30 14794 C 1391.34 0.854831 1.51554 0
M  V30 14795 O 1392.52 1.15798 1.64781 0
M  V30 14796 C 1389.58 2.25612 2.63249 0
M  V30 14797 C 1388.64 3.4884 2.50219 0
M  V30 14798 C 1387.88 3.77822 3.76944 0
M  V30 14799 O 1388.1 3.08556 4.79739 0
M  V30 14800 O 1387.03 4.7132 3.74354 0
M  V30 14801 H 1390.86 2.86794 0.999145 0
M  V30 14802 H 1388.44 1.43109 0.42898 0
M  V30 14803 H 1390.33 2.4641 3.41848 0
M  V30 14804 H 1389 1.37162 2.93203 0
M  V30 14805 H 1387.91 3.33326 1.69836 0
M  V30 14806 H 1389.24 4.37657 2.25205 0
M  V30 14807 N 1390.89 -0.493031 1.4969 0
M  V30 14808 C 1391.84 -1.61449 1.67442 0
M  V30 14809 C 1392.83 -1.60553 0.540296 0
M  V30 14810 O 1394.04 -1.64965 0.720167 0
M  V30 14811 H 1390.42 -0.535337 0.528127 0
M  V30 14812 H 1392.39 -1.43631 2.61558 0
M  V30 14813 C 1391.14 -2.99537 1.76559 0
M  V30 14814 H 1390.46 -3.00936 2.63206 0
M  V30 14815 H 1391.9 -3.77521 1.93013 0
M  V30 14816 C 1390.36 -3.32984 0.512176 0
M  V30 14817 O 1390.89 -4.00096 -0.35857 0
M  V30 14818 N 1389.09 -2.882 0.372734 0
M  V30 14819 H 1388.64 -2.3376 1.08232 0
M  V30 14820 H 1388.6 -3.10945 -0.464804 0
M  V30 14821 N 1392.37 -1.38898 -0.744656 0
M  V30 14822 C 1393.32 -1.36974 -1.87992 0
M  V30 14823 C 1394.31 -0.254277 -1.67481 0
M  V30 14824 O 1395.52 -0.423797 -1.7494 0
M  V30 14825 H 1391.89 -0.427508 -0.618661 0
M  V30 14826 H 1393.86 -2.32754 -1.86731 0
M  V30 14827 C 1392.61 -1.22054 -3.25573 0
M  V30 14828 H 1391.94 -2.07152 -3.41947 0
M  V30 14829 H 1393.38 -1.24763 -4.05228 0
M  V30 14830 C 1391.84 0.0718413 -3.36823 0
M  V30 14831 O 1392.37 1.0456 -3.87853 0
M  V30 14832 N 1390.57 0.131672 -2.90302 0
M  V30 14833 H 1390.12 -0.661428 -2.48964 0
M  V30 14834 H 1390.08 0.995936 -2.98209 0
M  V30 14835 N 1393.85 0.973806 -1.23914 0
M  V30 14836 C 1395.13 1.69087 -0.9833 0
M  V30 14837 C 1395.51 2.05186 0.49619 0
M  V30 14838 O 1394.85 1.75021 1.46901 0
M  V30 14839 C 1395.06 2.92739 -1.90012 0
M  V30 14840 C 1396.41 3.65112 -2.16745 0
M  V30 14841 O 1397.44 3.02785 -1.87616 0
M  V30 14842 O 1396.29 4.77293 -2.66183 0
M  V30 14843 H 1393.39 0.738919 -0.371386 0
M  V30 14844 H 1395.93 1.02844 -1.34986 0
M  V30 14845 H 1394.71 2.6271 -2.89999 0
M  V30 14846 H 1394.33 3.66718 -1.53635 0
M  V30 14847 N 1395.33 1.05191 1.17357 0
M  V30 14848 C 1396.55 0.782343 1.92079 0
M  V30 14849 C 1396.98 -0.655957 1.76292 0
M  V30 14850 O 1396.33 -1.45573 1.08065 0
M  V30 14851 C 1396.38 1.16777 3.41168 0
M  V30 14852 O 1395.49 0.299908 4.11308 0
M  V30 14853 H 1394.83 0.286894 0.598822 0
M  V30 14854 H 1397.36 1.40476 1.48754 0
M  V30 14855 H 1397.37 1.13454 3.91909 0
M  V30 14856 H 1396.04 2.2155 3.51978 0
M  V30 14857 H 1394.62 0.393744 3.70815 0
M  V30 14858 N 1396.8 -1.33791 0.83293 0
M  V30 14859 C 1397.75 -2.29332 0.25989 0
M  V30 14860 C 1398.72 -1.54056 -0.620965 0
M  V30 14861 O 1399.91 -1.82382 -0.560492 0
M  V30 14862 C 1397.05 -3.40461 -0.563964 0
M  V30 14863 C 1396.16 -4.30658 0.34025 0
M  V30 14864 C 1395.29 -5.28897 -0.494134 0
M  V30 14865 C 1394.33 -6.10733 0.408842 0
M  V30 14866 N 1393.47 -7.01032 -0.38706 0
M  V30 14867 H 1398.31 -2.77743 1.07996 0
M  V30 14868 H 1395.85 -1.3667 0.544043 0
M  V30 14869 H 1397.81 -4.03587 -1.05704 0
M  V30 14870 H 1396.44 -2.93258 -1.34905 0
M  V30 14871 H 1395.49 -3.68305 0.9516 0
M  V30 14872 H 1396.8 -4.87962 1.03415 0
M  V30 14873 H 1395.95 -5.97522 -1.05128 0
M  V30 14874 H 1394.69 -4.72155 -1.2215 0
M  V30 14875 H 1393.7 -5.41031 0.978046 0
M  V30 14876 H 1394.92 -6.69557 1.13448 0
M  V30 14877 H 1392.87 -6.46747 -1.09792 0
M  V30 14878 H 1392.79 -7.55592 0.248249 0
M  V30 14879 H 1394.05 -7.73973 -0.926631 0
M  V30 14880 N 1398.28 -0.588812 -1.46187 0
M  V30 14881 C 1399.21 0.128595 -2.33146 0
M  V30 14882 C 1400.19 0.877608 -1.45712 0
M  V30 14883 O 1401.38 0.851866 -1.74519 0
M  V30 14884 C 1398.51 1.13886 -3.28096 0
M  V30 14885 C 1397.46 0.504296 -4.25019 0
M  V30 14886 C 1396.79 1.62147 -5.09522 0
M  V30 14887 C 1398.09 -0.562466 -5.19263 0
M  V30 14888 H 1399.78 -0.597455 -2.93378 0
M  V30 14889 H 1397.33 -0.288764 -1.41075 0
M  V30 14890 H 1399.28 1.64916 -3.8779 0
M  V30 14891 H 1398.01 1.89527 -2.65983 0
M  V30 14892 H 1396.66 0.0150325 -3.66597 0
M  V30 14893 H 1396.31 2.36769 -4.4379 0
M  V30 14894 H 1396.01 1.20249 -5.75164 0
M  V30 14895 H 1397.54 2.13441 -5.7208 0
M  V30 14896 H 1398.95 -0.137003 -5.73136 0
M  V30 14897 H 1397.35 -0.902115 -5.93281 0
M  V30 14898 H 1398.42 -1.4464 -4.62825 0
M  V30 14899 N 1399.76 1.54172 -0.326923 0
M  V30 14900 C 1400.69 2.27402 0.530154 0
M  V30 14901 C 1401.67 1.28325 1.11655 0
M  V30 14902 O 1402.86 1.57142 1.14105 0
M  V30 14903 C 1399.99 3.03435 1.68951 0
M  V30 14904 C 1398.94 4.09877 1.23226 0
M  V30 14905 C 1398.27 4.7377 2.47882 0
M  V30 14906 C 1399.57 5.21161 0.344698 0
M  V30 14907 H 1401.26 2.99291 -0.0806959 0
M  V30 14908 H 1398.81 1.43944 -0.0402511 0
M  V30 14909 H 1400.76 3.53396 2.29541 0
M  V30 14910 H 1399.48 2.29169 2.327 0
M  V30 14911 H 1398.14 3.60805 0.649267 0
M  V30 14912 H 1397.79 3.96116 3.10002 0
M  V30 14913 H 1397.49 5.45674 2.17977 0
M  V30 14914 H 1399.01 5.26507 3.09229 0
M  V30 14915 H 1400.43 5.66859 0.856979 0
M  V30 14916 H 1398.83 5.99941 0.138276 0
M  V30 14917 H 1399.9 4.80874 -0.623575 0
M  V30 14918 N 1401.24 0.0551678 1.57503 0
M  V30 14919 C 1402.15 -0.932959 2.15251 0
M  V30 14920 C 1403.16 -1.33885 1.11134 0
M  V30 14921 O 1404.34 -1.41495 1.43321 0
M  V30 14922 C 1401.41 -2.18807 2.68932 0
M  V30 14923 C 1400.47 -1.84016 3.87862 0
M  V30 14924 C 1399.7 -3.03543 4.38973 0
M  V30 14925 O 1399.92 -4.17041 3.89144 0
M  V30 14926 O 1398.86 -2.84325 5.30512 0
M  V30 14927 H 1402.68 -0.471816 3.00013 0
M  V30 14928 H 1400.27 -0.16696 1.48464 0
M  V30 14929 H 1402.15 -2.92439 3.0341 0
M  V30 14930 H 1400.82 -2.64051 1.87239 0
M  V30 14931 H 1399.73 -1.07687 3.58266 0
M  V30 14932 H 1401.06 -1.43567 4.70796 0
M  V30 14933 N 1402.72 -1.56081 -0.218252 0
M  V30 14934 C 1403.94 -1.83681 -0.963119 0
M  V30 14935 C 1404.37 -0.635909 -1.77025 0
M  V30 14936 O 1403.72 0.415327 -1.76479 0
M  V30 14937 C 1403.77 -3.09302 -1.85376 0
M  V30 14938 O 1402.88 -2.88228 -2.94955 0
M  V30 14939 H 1402.22 -0.605495 -0.272529 0
M  V30 14940 H 1404.75 -2.03297 -0.230567 0
M  V30 14941 H 1404.76 -3.39493 -2.26294 0
M  V30 14942 H 1403.43 -3.96337 -1.26054 0
M  V30 14943 H 1402.01 -2.69279 -2.57959 0
M  V30 14944 N 1404.2 0.485086 -1.49949 0
M  V30 14945 C 1405.44 1.23571 -1.5992 0
M  V30 14946 C 1405.76 1.92754 -0.295108 0
M  V30 14947 O 1405.03 1.83474 0.686582 0
M  V30 14948 H 1403.61 0.459104 -0.589264 0
M  V30 14949 H 1406.28 0.560822 -1.86657 0
M  V30 14950 H 1405.37 1.99114 -2.40333 0
M  V30 14951 N 1405.67 1.39291 0.737279 0
M  V30 14952 C 1406.6 1.40562 1.86452 0
M  V30 14953 C 1407.58 0.269283 1.67955 0
M  V30 14954 O 1408.77 0.474769 1.88307 0
M  V30 14955 C 1405.9 1.2461 3.24175 0
M  V30 14956 C 1404.85 2.35619 3.57306 0
M  V30 14957 C 1404.18 2.04758 4.93941 0
M  V30 14958 C 1405.48 3.77927 3.60512 0
M  V30 14959 H 1407.17 2.34896 1.85646 0
M  V30 14960 H 1404.72 1.13065 0.891756 0
M  V30 14961 H 1406.67 1.2412 4.02706 0
M  V30 14962 H 1405.4 0.267438 3.25503 0
M  V30 14963 H 1404.06 2.35322 2.81104 0
M  V30 14964 H 1403.7 1.05336 4.91847 0
M  V30 14965 H 1403.4 2.79117 5.17076 0
M  V30 14966 H 1404.93 2.05915 5.74832 0
M  V30 14967 H 1406.34 3.80166 4.29123 0
M  V30 14968 H 1404.74 4.51626 3.95164 0
M  V30 14969 H 1405.81 4.09068 2.60368 0
M  V30 14970 N 1407.15 -0.967221 1.24429 0
M  V30 14971 C 1408.08 -2.06071 0.980314 0
M  V30 14972 C 1409.06 -1.62372 -0.0860829 0
M  V30 14973 O 1410.25 -1.88431 0.0509524 0
M  V30 14974 C 1407.37 -3.35289 0.479452 0
M  V30 14975 C 1406.42 -3.9794 1.53447 0
M  V30 14976 S 1407.25 -4.3551 3.11595 0
M  V30 14977 C 1408.41 -5.67865 2.63212 0
M  V30 14978 H 1408.64 -2.28145 1.90623 0
M  V30 14979 H 1406.17 -1.10519 1.07819 0
M  V30 14980 H 1408.13 -4.10027 0.197103 0
M  V30 14981 H 1406.79 -3.11201 -0.425755 0
M  V30 14982 H 1405.99 -4.91067 1.13445 0
M  V30 14983 H 1405.59 -3.29634 1.76685 0
M  V30 14984 H 1407.88 -6.45405 2.06054 0
M  V30 14985 H 1408.82 -6.12724 3.5493 0
M  V30 14986 H 1409.23 -5.26496 2.03623 0
M  V30 14987 N 1408.63 -1.05812 -1.16797 0
M  V30 14988 C 1409.58 -0.658636 -2.2308 0
M  V30 14989 C 1410.57 0.323104 -1.6629 0
M  V30 14990 O 1411.78 0.188492 -1.7901 0
M  V30 14991 H 1408.15 -0.194843 -0.72632 0
M  V30 14992 H 1410.12 -1.56501 -2.54067 0
M  V30 14993 C 1408.87 -0.0559428 -3.47655 0
M  V30 14994 H 1408.2 -0.802468 -3.91664 0
M  V30 14995 H 1409.64 0.186118 -4.23591 0
M  V30 14996 C 1408.09 1.19913 -3.14837 0
M  V30 14997 O 1408.62 2.28772 -3.30191 0
M  V30 14998 N 1406.83 1.09921 -2.69009 0
M  V30 14999 H 1406.38 0.213331 -2.56715 0
M  V30 15000 H 1406.34 1.93981 -2.47424 0
M  V30 15001 N 1410.11 1.33347 -0.840014 0
M  V30 15002 C 1411.33 2.02485 -0.448856 0
M  V30 15003 C 1411.76 1.62781 0.942543 0
M  V30 15004 O 1411.12 0.82099 1.61646 0
M  V30 15005 C 1411.16 3.55928 -0.578582 0
M  V30 15006 O 1410.27 4.10507 0.394695 0
M  V30 15007 H 1409.61 0.63848 -0.182317 0
M  V30 15008 H 1412.14 1.70221 -1.13516 0
M  V30 15009 H 1412.15 4.05391 -0.460653 0
M  V30 15010 H 1410.82 3.8417 -1.5933 0
M  V30 15011 H 1409.4 3.72164 0.234227 0
M  V30 15012 N 1411.59 0.596556 1.45873 0
M  V30 15013 C 1412.52 -0.166704 2.28593 0
M  V30 15014 C 1413.53 -0.84231 1.39316 0
M  V30 15015 O 1414.72 -0.709548 1.63792 0
M  V30 15016 C 1411.82 -1.25641 3.1475 0
M  V30 15017 C 1410.99 -0.67006 4.32237 0
M  V30 15018 C 1410.05 -1.64924 4.99686 0
M  V30 15019 O 1409.08 -1.17986 5.56838 0
M  V30 15020 N 1410.28 -2.98355 4.9796 0
M  V30 15021 H 1413.04 0.543045 2.94739 0
M  V30 15022 H 1410.61 0.435274 1.55939 0
M  V30 15023 H 1412.6 -1.91104 3.56737 0
M  V30 15024 H 1411.17 -1.86883 2.50586 0
M  V30 15025 H 1410.39 0.162375 3.93865 0
M  V30 15026 H 1411.68 -0.258345 5.08144 0
M  V30 15027 H 1411.07 -3.39101 4.52799 0
M  V30 15028 H 1409.63 -3.5927 5.43846 0
M  V30 15029 N 1413.06 -1.53996 0.335095 0
M  V30 15030 C 1413.97 -2.28436 -0.534244 0
M  V30 15031 C 1414.99 -1.33224 -1.11926 0
M  V30 15032 O 1416.17 -1.66252 -1.13676 0
M  V30 15033 C 1413.23 -3.03634 -1.67354 0
M  V30 15034 C 1412.29 -4.14455 -1.11916 0
M  V30 15035 C 1411.52 -4.86058 -2.20416 0
M  V30 15036 O 1411.75 -4.57263 -3.40979 0
M  V30 15037 O 1410.68 -5.72704 -1.85185 0
M  V30 15038 H 1414.51 -3.03618 0.0706314 0
M  V30 15039 H 1412.09 -1.49062 0.100409 0
M  V30 15040 H 1413.97 -3.50687 -2.33659 0
M  V30 15041 H 1412.65 -2.31317 -2.26438 0
M  V30 15042 H 1411.56 -3.71725 -0.420871 0
M  V30 15043 H 1412.89 -4.8885 -0.573295 0
M  V30 15044 N 1414.54 -0.0635198 -1.57472 0
M  V30 15045 C 1415.77 0.620205 -1.9791 0
M  V30 15046 C 1416.19 1.62851 -0.941335 0
M  V30 15047 O 1415.55 1.81056 0.0940313 0
M  V30 15048 C 1415.6 1.27261 -3.37397 0
M  V30 15049 O 1414.7 2.38841 -3.36197 0
M  V30 15050 H 1414.04 0.16021 -0.644382 0
M  V30 15051 H 1416.57 -0.135582 -2.0415 0
M  V30 15052 H 1416.58 1.6214 -3.74399 0
M  V30 15053 H 1415.26 0.533723 -4.12461 0
M  V30 15054 H 1413.83 2.05817 -3.10956 0
M  V30 15055 N 1416.02 1.56195 0.209972 0
M  V30 15056 C 1417.24 1.84189 0.953364 0
M  V30 15057 C 1417.67 0.645288 1.76685 0
M  V30 15058 O 1417.03 -0.405962 1.76696 0
M  V30 15059 C 1417.08 3.10281 1.83733 0
M  V30 15060 O 1416.18 2.89788 2.93422 0
M  V30 15061 H 1415.52 0.606931 0.269314 0
M  V30 15062 H 1418.05 2.03416 0.219783 0
M  V30 15063 H 1418.06 3.40688 2.2449 0
M  V30 15064 H 1416.74 3.97 1.23951 0
M  V30 15065 H 1415.31 2.70643 2.56528 0
M  V30 15066 N 1417.5 -0.477127 1.50204 0
M  V30 15067 C 1418.74 -1.22864 1.62099 0
M  V30 15068 C 1419.1 -1.89811 0.314549 0
M  V30 15069 O 1418.39 -1.78856 -0.687092 0
M  V30 15070 C 1418.59 -2.30126 2.73453 0
M  V30 15071 C 1418.41 -1.73701 4.14799 0
M  V30 15072 C 1417.18 -1.5394 4.8128 0
M  V30 15073 C 1419.38 -1.23535 4.99243 0
M  V30 15074 N 1417.36 -0.926941 6.06862 0
M  V30 15075 C 1418.74 -0.745736 6.15499 0
M  V30 15076 C 1420.79 -1.12333 4.85063 0
M  V30 15077 C 1419.49 -0.155155 7.19133 0
M  V30 15078 C 1421.52 -0.546689 5.88868 0
M  V30 15079 C 1420.88 -0.0674239 7.04368 0
M  V30 15080 H 1416.98 -0.438688 0.647361 0
M  V30 15081 H 1419.56 -0.531647 1.87301 0
M  V30 15082 H 1417.74 -2.97259 2.49984 0
M  V30 15083 H 1419.47 -2.97154 2.74739 0
M  V30 15084 H 1416.22 -1.78993 4.38473 0
M  V30 15085 H 1416.65 -0.639298 6.73975 0
M  V30 15086 H 1421.29 -1.4798 3.96058 0
M  V30 15087 H 1419.01 0.21354 8.07818 0
M  V30 15088 H 1422.59 -0.462461 5.79959 0
M  V30 15089 H 1421.47 0.371791 7.83318 0
M  V30 15090 N 1418.98 -1.3968 -0.729882 0
M  V30 15091 C 1420.22 -1.36911 -1.4866 0
M  V30 15092 C 1420.55 0.0326011 -1.94973 0
M  V30 15093 O 1419.82 0.984789 -1.69348 0
M  V30 15094 H 1418.4 -0.503848 -0.551495 0
M  V30 15095 H 1421.06 -1.74596 -0.866155 0
M  V30 15096 H 1420.15 -2.03504 -2.36628 0
M  V30 15097 N 1420.45 0.960609 -1.2494 0
M  V30 15098 C 1421.4 2.05634 -1.04801 0
M  V30 15099 C 1422.37 1.66049 0.0409611 0
M  V30 15100 O 1423.56 1.90453 -0.115053 0
M  V30 15101 C 1420.7 3.38604 -0.666444 0
M  V30 15102 C 1419.81 3.91341 -1.82964 0
M  V30 15103 C 1418.94 5.1261 -1.39299 0
M  V30 15104 C 1417.98 5.57562 -2.52569 0
M  V30 15105 N 1417.12 6.70046 -2.09722 0
M  V30 15106 H 1421.96 2.22194 -1.9858 0
M  V30 15107 H 1419.5 1.08892 -0.988981 0
M  V30 15108 H 1421.46 4.15017 -0.426205 0
M  V30 15109 H 1420.09 3.21948 0.23435 0
M  V30 15110 H 1419.14 3.11502 -2.18335 0
M  V30 15111 H 1420.45 4.20656 -2.68049 0
M  V30 15112 H 1419.6 5.96421 -1.11205 0
M  V30 15113 H 1418.34 4.84997 -0.512779 0
M  V30 15114 H 1417.35 4.72319 -2.81415 0
M  V30 15115 H 1418.57 5.87186 -3.41159 0
M  V30 15116 H 1416.52 6.44153 -1.24109 0
M  V30 15117 H 1416.44 6.98846 -2.88357 0
M  V30 15118 H 1417.7 7.57281 -1.84787 0
M  V30 15119 N 1421.93 1.0643 1.16234 0
M  V30 15120 C 1422.88 0.670457 2.22728 0
M  V30 15121 C 1423.87 -0.31428 1.66459 0
M  V30 15122 O 1425.08 -0.178996 1.79108 0
M  V30 15123 H 1421.46 0.198692 0.725276 0
M  V30 15124 H 1423.43 1.57846 2.53233 0
M  V30 15125 C 1422.18 0.074379 3.4762 0
M  V30 15126 H 1421.5 0.823227 3.91233 0
M  V30 15127 H 1422.94 -0.163652 4.23684 0
M  V30 15128 C 1421.4 -1.18242 3.15469 0
M  V30 15129 O 1421.93 -2.27018 3.314 0
M  V30 15130 N 1420.13 -1.08493 2.69588 0
M  V30 15131 H 1419.68 -0.199714 2.56825 0
M  V30 15132 H 1419.64 -1.92666 2.48449 0
M  V30 15133 N 1423.41 -1.329 0.847073 0
M  V30 15134 C 1424.66 -1.97803 0.447417 0
M  V30 15135 C 1424.99 -1.6691 -0.9927 0
M  V30 15136 O 1424.26 -0.953315 -1.69535 0
M  V30 15137 C 1424.55 -3.53657 0.678135 0
M  V30 15138 C 1424.4 -3.94207 2.16612 0
M  V30 15139 C 1425.72 -4.39909 0.129589 0
M  V30 15140 H 1422.84 -0.718514 0.164034 0
M  V30 15141 H 1425.48 -1.57407 1.0641 0
M  V30 15142 H 1423.63 -3.88198 0.153222 0
M  V30 15143 H 1425.3 -3.69883 2.75653 0
M  V30 15144 H 1423.55 -3.43641 2.64752 0
M  V30 15145 H 1424.22 -5.02791 2.27827 0
M  V30 15146 H 1426.69 -4.12061 0.578371 0
M  V30 15147 H 1425.57 -5.47963 0.320648 0
M  V30 15148 H 1425.83 -4.31391 -0.967167 0
M  V30 15149 N 1424.89 -0.604284 -1.45555 0
M  V30 15150 C 1426.11 -0.102634 -2.07146 0
M  V30 15151 C 1426.54 1.20239 -1.44652 0
M  V30 15152 O 1425.9 1.73133 -0.538033 0
M  V30 15153 C 1425.94 0.0270231 -3.6059 0
M  V30 15154 O 1425.05 1.0781 -3.98059 0
M  V30 15155 H 1424.39 -0.0725667 -0.660023 0
M  V30 15156 H 1426.92 -0.833355 -1.86859 0
M  V30 15157 H 1426.93 0.226299 -4.07372 0
M  V30 15158 H 1425.6 -0.925896 -4.05463 0
M  V30 15159 H 1424.18 0.855552 -3.62953 0
M  V30 15160 N 1426.37 1.53816 -0.343257 0
M  V30 15161 C 1427.59 2.05796 0.257418 0
M  V30 15162 C 1428.02 1.2166 1.43459 0
M  V30 15163 O 1427.37 0.230278 1.79832 0
M  V30 15164 C 1427.42 3.54681 0.65068 0
M  V30 15165 O 1426.53 3.73394 1.75074 0
M  V30 15166 H 1425.87 0.662622 0.042757 0
M  V30 15167 H 1428.4 1.98462 -0.497386 0
M  V30 15168 H 1428.41 3.97308 0.927914 0
M  V30 15169 H 1427.08 4.15368 -0.210199 0
M  V30 15170 H 1425.66 3.42669 1.4708 0
M  V30 15171 N 1427.84 0.0718701 1.57436 0
M  V30 15172 C 1429.07 -0.606253 1.97819 0
M  V30 15173 C 1429.49 -1.63144 0.950233 0
M  V30 15174 O 1428.84 -1.82391 -0.0631051 0
M  V30 15175 C 1428.9 -1.27476 3.38278 0
M  V30 15176 O 1428.62 -0.290603 4.37135 0
M  V30 15177 C 1430.12 -2.0407 3.93536 0
M  V30 15178 H 1427.34 -0.164305 0.650573 0
M  V30 15179 H 1429.88 0.144295 2.0399 0
M  V30 15180 H 1428.04 -1.97639 3.33193 0
M  V30 15181 H 1428.45 -0.77022 5.18814 0
M  V30 15182 H 1429.92 -2.46237 4.94036 0
M  V30 15183 H 1430.4 -2.89728 3.30083 0
M  V30 15184 H 1431.01 -1.38773 4.02022 0
M  V30 15185 N 1429.32 -1.56304 -0.201686 0
M  V30 15186 C 1430.23 -1.97215 -1.27057 0
M  V30 15187 C 1431.25 -0.878834 -1.50175 0
M  V30 15188 O 1432.42 -1.18405 -1.62918 0
M  V30 15189 C 1429.49 -2.29772 -2.59626 0
M  V30 15190 C 1428.55 -3.52776 -2.44637 0
M  V30 15191 C 1427.78 -3.83771 -3.70885 0
M  V30 15192 O 1428.01 -3.16149 -4.7477 0
M  V30 15193 O 1426.94 -4.77216 -3.66808 0
M  V30 15194 H 1430.77 -2.88347 -0.953393 0
M  V30 15195 H 1428.35 -1.43773 -0.406158 0
M  V30 15196 H 1430.23 -2.51817 -3.37885 0
M  V30 15197 H 1428.91 -1.41809 -2.90984 0
M  V30 15198 H 1427.82 -3.35986 -1.64512 0
M  V30 15199 H 1429.15 -4.41184 -2.18214 0
M  V30 15200 N 1430.8 0.469154 -1.50455 0
M  V30 15201 C 1432.03 1.24899 -1.65575 0
M  V30 15202 C 1432.45 1.85009 -0.339581 0
M  V30 15203 O 1431.81 1.67376 0.696774 0
M  V30 15204 C 1431.86 2.33205 -2.75041 0
M  V30 15205 O 1430.96 3.37898 -2.36429 0
M  V30 15206 H 1430.3 0.367362 -0.553119 0
M  V30 15207 H 1432.83 0.558083 -1.96842 0
M  V30 15208 H 1432.84 2.78487 -2.98176 0
M  V30 15209 H 1431.52 1.88826 -3.70564 0
M  V30 15210 H 1430.09 2.98314 -2.23748 0
M  V30 15211 N 1432.28 1.40065 0.722464 0
M  V30 15212 C 1433.53 1.37698 1.47932 0
M  V30 15213 C 1433.85 -0.0222608 1.94987 0
M  V30 15214 O 1433.12 -0.975795 1.69868 0
M  V30 15215 H 1431.7 0.506766 0.548815 0
M  V30 15216 H 1434.36 1.75053 0.856884 0
M  V30 15217 H 1433.46 2.04756 2.35545 0
M  V30 15218 N 1433.76 -0.95397 1.25448 0
M  V30 15219 C 1435.17 -1.22516 1.02284 0
M  V30 15220 C 1435.37 -1.99816 -0.259933 0
M  V30 15221 O 1434.43 -2.33022 -0.972479 0
M  V30 15222 C 1435.74 -1.9989 2.24643 0
M  V30 15223 C 1437.29 -2.1293 2.29412 0
M  V30 15224 C 1437.77 -2.93703 3.51429 0
M  V30 15225 N 1439.26 -3.01281 3.51829 0
M  V30 15226 C 1439.99 -3.64174 4.42905 0
M  V30 15227 N 1439.49 -4.28673 5.44253 0
M  V30 15228 N 1441.28 -3.61321 4.30585 0
M  V30 15229 H 1433.43 -0.436859 2.07859 0
M  V30 15230 H 1435.69 -0.255744 0.912852 0
M  V30 15231 H 1435.4 -1.50489 3.17877 0
M  V30 15232 H 1435.27 -3.00593 2.27868 0
M  V30 15233 H 1437.66 -2.61528 1.367 0
M  V30 15234 H 1437.74 -1.1153 2.30206 0
M  V30 15235 H 1437.39 -2.45795 4.44463 0
M  V30 15236 H 1437.32 -3.95331 3.47881 0
M  V30 15237 H 1439.81 -2.55414 2.78517 0
M  V30 15238 H 1440.12 -4.74522 6.09958 0
M  V30 15239 H 1438.47 -4.27299 5.48125 0
M  V30 15240 H 1441.66 -3.10118 3.50634 0
M  V30 15241 H 1441.83 -4.1005 5.0176 0
M  V30 15242 N 1435.24 -1.07045 -1.15668 0
M  V30 15243 C 1436.17 -0.709413 -2.22463 0
M  V30 15244 C 1437.15 0.30169 -1.67403 0
M  V30 15245 O 1438.33 0.175131 -1.93409 0
M  V30 15246 C 1435.46 -0.103121 -3.47147 0
M  V30 15247 C 1434.42 -1.04103 -4.15146 0
M  V30 15248 C 1433.74 -0.297656 -5.33871 0
M  V30 15249 C 1435.04 -2.37332 -4.65264 0
M  V30 15250 H 1436.74 -1.60227 -2.52918 0
M  V30 15251 H 1434.28 -0.771846 -1.21567 0
M  V30 15252 H 1436.23 0.161371 -4.21091 0
M  V30 15253 H 1434.96 0.824792 -3.16014 0
M  V30 15254 H 1433.62 -1.2904 -3.43139 0
M  V30 15255 H 1433.27 0.633618 -4.98993 0
M  V30 15256 H 1432.97 -0.922789 -5.80309 0
M  V30 15257 H 1434.49 -0.0408892 -6.10586 0
M  V30 15258 H 1435.9 -2.1674 -5.30751 0
M  V30 15259 H 1434.3 -2.95412 -5.22352 0
M  V30 15260 H 1435.37 -2.99859 -3.81068 0
M  V30 15261 N 1436.71 1.32449 -0.85411 0
M  V30 15262 C 1437.96 1.97271 -0.457223 0
M  V30 15263 C 1438.29 1.67595 0.987031 0
M  V30 15264 O 1437.54 0.956301 1.70744 0
M  V30 15265 C 1437.84 3.51577 -0.642499 0
M  V30 15266 C 1437.51 4.01239 -2.05714 0
M  V30 15267 C 1436.17 4.14512 -2.44405 0
M  V30 15268 C 1438.52 4.27573 -2.98046 0
M  V30 15269 C 1435.85 4.5146 -3.74701 0
M  V30 15270 C 1438.2 4.65979 -4.27839 0
M  V30 15271 C 1436.87 4.77458 -4.66465 0
M  V30 15272 H 1436.14 0.721865 -0.16731 0
M  V30 15273 H 1438.78 1.57862 -1.08406 0
M  V30 15274 H 1437.09 3.91742 0.0675706 0
M  V30 15275 H 1438.79 3.99757 -0.315473 0
M  V30 15276 H 1435.38 3.91393 -1.74669 0
M  V30 15277 H 1439.56 4.16827 -2.69386 0
M  V30 15278 H 1434.82 4.58542 -4.04412 0
M  V30 15279 H 1438.99 4.8531 -4.99447 0
M  V30 15280 H 1436.62 5.05845 -5.67472 0
M  V30 15281 N 1438.19 0.611994 1.45232 0
M  V30 15282 C 1439.14 -0.104265 2.30564 0
M  V30 15283 C 1440.11 -0.855676 1.42364 0
M  V30 15284 O 1441.29 -0.840534 1.71288 0
M  V30 15285 C 1438.43 -1.09274 3.27343 0
M  V30 15286 C 1437.55 -0.341747 4.30646 0
M  V30 15287 C 1436.68 -1.32034 5.14529 0
M  V30 15288 C 1435.72 -0.557405 6.09557 0
M  V30 15289 N 1434.86 -1.4855 6.86205 0
M  V30 15290 H 1439.7 0.629396 2.91278 0
M  V30 15291 H 1437.23 0.322177 1.43528 0
M  V30 15292 H 1439.19 -1.67902 3.81923 0
M  V30 15293 H 1437.82 -1.79376 2.68373 0
M  V30 15294 H 1436.87 0.360114 3.78692 0
M  V30 15295 H 1438.19 0.253328 4.98156 0
M  V30 15296 H 1437.34 -1.97854 5.73532 0
M  V30 15297 H 1436.08 -1.94934 4.47048 0
M  V30 15298 H 1435.08 0.114401 5.49681 0
M  V30 15299 H 1436.31 0.0666137 6.79067 0
M  V30 15300 H 1434.26 -2.10207 6.21409 0
M  V30 15301 H 1434.17 -0.943972 7.50083 0
M  V30 15302 H 1435.44 -2.13314 7.49745 0
M  V30 15303 N 1439.67 -1.53632 0.351409 0
M  V30 15304 C 1440.92 -2.00643 -0.242208 0
M  V30 15305 C 1441.24 -1.24074 -1.50435 0
M  V30 15306 O 1440.51 -0.350067 -1.92747 0
M  V30 15307 H 1439.09 -0.741252 -0.0924904 0
M  V30 15308 H 1441.75 -1.89039 0.474379 0
M  V30 15309 H 1440.85 -3.084 -0.479151 0
M  V30 15310 N 1441.15 -0.0802183 -1.57396 0
M  V30 15311 C 1442.09 0.884041 -2.13198 0
M  V30 15312 C 1443.06 1.28975 -1.04664 0
M  V30 15313 O 1444.25 1.37413 -1.32372 0
M  V30 15314 C 1441.39 2.14323 -2.7048 0
M  V30 15315 C 1440.5 1.7894 -3.93198 0
M  V30 15316 C 1439.64 2.99534 -4.38695 0
M  V30 15317 C 1438.68 2.60207 -5.54039 0
M  V30 15318 N 1437.81 3.73587 -5.94455 0
M  V30 15319 H 1442.65 0.40131 -2.95285 0
M  V30 15320 H 1440.19 0.186429 -1.45914 0
M  V30 15321 H 1442.15 2.88046 -3.01804 0
M  V30 15322 H 1440.78 2.60122 -1.91144 0
M  V30 15323 H 1439.83 0.952465 -3.68283 0
M  V30 15324 H 1441.14 1.46012 -4.76951 0
M  V30 15325 H 1440.3 3.81526 -4.71724 0
M  V30 15326 H 1439.04 3.35661 -3.53812 0
M  V30 15327 H 1438.04 1.76638 -5.20652 0
M  V30 15328 H 1439.27 2.2524 -6.40659 0
M  V30 15329 H 1437.21 4.0946 -5.12521 0
M  V30 15330 H 1437.13 3.44455 -6.72969 0
M  V30 15331 H 1438.4 4.56133 -6.3211 0
M  V30 15332 N 1442.63 1.56409 0.193394 0
M  V30 15333 C 1444.04 1.50032 0.544298 0
M  V30 15334 C 1444.24 0.780546 1.85768 0
M  V30 15335 O 1443.3 0.331769 2.50311 0
M  V30 15336 C 1444.61 2.94705 0.597463 0
M  V30 15337 C 1446.16 3.05386 0.686179 0
M  V30 15338 C 1446.63 4.51473 0.770439 0
M  V30 15339 N 1448.12 4.55631 0.833921 0
M  V30 15340 C 1448.86 5.65982 0.919314 0
M  V30 15341 N 1448.36 6.8602 0.966904 0
M  V30 15342 N 1450.15 5.539 0.956634 0
M  V30 15343 H 1442.3 2.01619 -0.668096 0
M  V30 15344 H 1444.56 0.917589 -0.238191 0
M  V30 15345 H 1444.27 3.50431 -0.298509 0
M  V30 15346 H 1444.14 3.48151 1.45157 0
M  V30 15347 H 1446.53 2.49708 1.57258 0
M  V30 15348 H 1446.61 2.55062 -0.194165 0
M  V30 15349 H 1446.25 5.07777 -0.111619 0
M  V30 15350 H 1446.18 4.99531 1.66661 0
M  V30 15351 H 1448.68 3.69198 0.80632 0
M  V30 15352 H 1448.99 7.6587 1.03262 0
M  V30 15353 H 1447.33 6.88674 0.935552 0
M  V30 15354 H 1450.52 4.59044 0.916304 0
M  V30 15355 H 1450.7 6.39926 1.01972 0
M  V30 15356 N 1444.1 -0.461169 1.50702 0
M  V30 15357 C 1445.07 -1.54032 1.69725 0
M  V30 15358 C 1446.07 -1.50445 0.567707 0
M  V30 15359 O 1447.26 -1.52889 0.834901 0
M  V30 15360 C 1444.39 -2.93642 1.73168 0
M  V30 15361 H 1445.58 -1.38478 2.66015 0
M  V30 15362 H 1443.13 -0.688235 1.40332 0
M  V30 15363 H 1443.87 -3.14629 0.786078 0
M  V30 15364 H 1443.65 -2.97652 2.55236 0
M  V30 15365 H 1445.14 -3.71972 1.89807 0
M  V30 15366 N 1445.58 -1.40446 -0.715026 0
M  V30 15367 C 1446.53 -1.37235 -1.82073 0
M  V30 15368 C 1447.52 -0.249808 -1.58949 0
M  V30 15369 O 1448.71 -0.488958 -1.70112 0
M  V30 15370 C 1445.84 -1.23786 -3.20206 0
M  V30 15371 C 1444.92 -2.40824 -3.49091 0
M  V30 15372 N 1445.31 -3.66305 -3.4879 0
M  V30 15373 C 1443.61 -2.34215 -3.79551 0
M  V30 15374 C 1444.31 -4.43817 -3.76034 0
M  V30 15375 N 1443.29 -3.73664 -3.94811 0
M  V30 15376 H 1447.09 -2.32195 -1.80174 0
M  V30 15377 H 1444.6 -1.34226 -0.914175 0
M  V30 15378 H 1446.6 -1.19568 -3.99386 0
M  V30 15379 H 1445.26 -0.297938 -3.2333 0
M  V30 15380 H 1446.27 -3.99458 -3.29626 0
M  V30 15381 H 1442.95 -1.48592 -3.90162 0
M  V30 15382 H 1444.34 -5.52674 -3.82101 0
M  V30 15383 N 1447.06 0.947303 -1.25952 0
M  V30 15384 C 1448.31 1.68945 -1.10915 0
M  V30 15385 C 1448.63 1.91848 0.349216 0
M  V30 15386 O 1447.9 1.5108 1.24706 0
M  V30 15387 H 1446.48 0.626086 -0.407462 0
M  V30 15388 H 1449.14 1.13854 -1.58187 0
M  V30 15389 H 1448.24 2.6657 -1.62317 0
M  V30 15390 N 1448.54 1.07657 1.15099 0
M  V30 15391 C 1449.95 0.823828 1.67541 0
M  V30 15392 C 1450.3 -0.650601 1.85099 0
M  V30 15393 O 1449.43 -1.50333 1.55657 0
M  V30 15394 C 1450.02 1.4889 3.04331 0
M  V30 15395 C 1448.58 1.28359 3.53837 0
M  V30 15396 C 1447.73 1.55659 2.2949 0
M  V30 15397 H 1450.68 1.23819 0.992699 0
M  V30 15398 H 1450.7 0.911848 3.69412 0
M  V30 15399 H 1450.21 2.56199 2.9152 0
M  V30 15400 H 1448.31 0.230864 3.71884 0
M  V30 15401 H 1448.42 2.00593 4.35085 0
M  V30 15402 H 1446.79 0.977755 2.35185 0
M  V30 15403 H 1447.57 2.64157 2.19263 0
M  V30 15404 N 1450.02 -1.31994 0.861122 0
M  V30 15405 C 1450.98 -2.27019 0.315421 0
M  V30 15406 C 1451.98 -1.51864 -0.528575 0
M  V30 15407 O 1453.17 -1.70867 -0.339154 0
M  V30 15408 C 1450.3 -3.36384 -0.553021 0
M  V30 15409 H 1451.49 -2.768 1.1542 0
M  V30 15410 H 1449.05 -1.42776 0.635982 0
M  V30 15411 H 1449.78 -2.91882 -1.41335 0
M  V30 15412 H 1449.57 -3.92067 0.0511919 0
M  V30 15413 H 1451.06 -4.07172 -0.927392 0
M  V30 15414 N 1451.49 -0.619688 -1.44906 0
M  V30 15415 C 1452.42 0.0791121 -2.33366 0
M  V30 15416 C 1453.41 0.846503 -1.47541 0
M  V30 15417 O 1454.59 0.814657 -1.76287 0
M  V30 15418 C 1451.72 1.06901 -3.30438 0
M  V30 15419 C 1450.67 0.41403 -4.25993 0
M  V30 15420 C 1450 1.51303 -5.12846 0
M  V30 15421 C 1451.3 -0.672483 -5.17953 0
M  V30 15422 H 1452.99 -0.659551 -2.92045 0
M  V30 15423 H 1450.54 -0.318623 -1.40431 0
M  V30 15424 H 1452.49 1.56653 -3.912 0
M  V30 15425 H 1451.22 1.83842 -2.69944 0
M  V30 15426 H 1449.88 -0.0627315 -3.66546 0
M  V30 15427 H 1449.52 2.27303 -4.48712 0
M  V30 15428 H 1449.22 1.08022 -5.77586 0
M  V30 15429 H 1450.75 2.01258 -5.76479 0
M  V30 15430 H 1452.16 -0.258542 -5.72717 0
M  V30 15431 H 1450.56 -1.02776 -5.91234 0
M  V30 15432 H 1451.63 -1.54425 -4.59653 0
M  V30 15433 N 1452.97 1.53444 -0.359552 0
M  V30 15434 C 1453.9 2.28475 0.4818 0
M  V30 15435 C 1454.88 1.30664 1.08908 0
M  V30 15436 O 1456.07 1.59527 1.10746 0
M  V30 15437 C 1453.2 3.06951 1.62477 0
M  V30 15438 C 1452.15 4.12399 1.14504 0
M  V30 15439 C 1451.48 4.78922 2.37777 0
M  V30 15440 C 1452.78 5.21775 0.234075 0
M  V30 15441 H 1454.47 2.99053 -0.144162 0
M  V30 15442 H 1452.02 1.43826 -0.0707746 0
M  V30 15443 H 1453.97 3.58186 2.21993 0
M  V30 15444 H 1452.7 2.34053 2.27787 0
M  V30 15445 H 1451.35 3.62101 0.572589 0
M  V30 15446 H 1451 4.02602 3.0153 0
M  V30 15447 H 1450.7 5.50175 2.06353 0
M  V30 15448 H 1452.23 5.32948 2.97991 0
M  V30 15449 H 1453.64 5.68549 0.736548 0
M  V30 15450 H 1452.04 6.00099 0.0109887 0
M  V30 15451 H 1453.11 4.79443 -0.725435 0
M  V30 15452 N 1454.45 0.0885642 1.57351 0
M  V30 15453 C 1455.68 -0.585238 1.9845 0
M  V30 15454 C 1456.09 -1.62127 0.967483 0
M  V30 15455 O 1455.45 -1.82448 -0.0437565 0
M  V30 15456 C 1455.5 -1.23881 3.39611 0
M  V30 15457 O 1455.22 -0.244223 4.37419 0
M  V30 15458 C 1456.72 -1.99885 3.95678 0
M  V30 15459 H 1453.94 -0.157396 0.652279 0
M  V30 15460 H 1456.49 0.165923 2.03826 0
M  V30 15461 H 1454.64 -1.94094 3.3527 0
M  V30 15462 H 1455.06 -0.715149 5.19602 0
M  V30 15463 H 1456.53 -2.40983 4.9662 0
M  V30 15464 H 1457.01 -2.8621 3.33137 0
M  V30 15465 H 1457.61 -1.34501 4.03472 0
M  V30 15466 N 1455.93 -1.56509 -0.185096 0
M  V30 15467 C 1456.88 -1.95336 -1.22934 0
M  V30 15468 C 1457.85 -0.81532 -1.44713 0
M  V30 15469 O 1459.03 -1.07431 -1.57681 0
M  V30 15470 C 1456.17 -2.30671 -2.56681 0
M  V30 15471 C 1455.28 -3.57586 -2.42397 0
M  V30 15472 C 1454.42 -3.82197 -3.68916 0
M  V30 15473 C 1453.46 -5.02505 -3.49507 0
M  V30 15474 N 1452.59 -5.23319 -4.68062 0
M  V30 15475 H 1457.43 -2.84361 -0.89123 0
M  V30 15476 H 1454.97 -1.40715 -0.428689 0
M  V30 15477 H 1456.93 -2.49176 -3.34615 0
M  V30 15478 H 1455.56 -1.44773 -2.88514 0
M  V30 15479 H 1454.61 -3.47072 -1.55709 0
M  V30 15480 H 1455.92 -4.45677 -2.23994 0
M  V30 15481 H 1455.08 -4.00996 -4.55288 0
M  V30 15482 H 1453.82 -2.92455 -3.90284 0
M  V30 15483 H 1452.82 -4.83619 -2.6152 0
M  V30 15484 H 1454.05 -5.93765 -3.29574 0
M  V30 15485 H 1451.99 -4.36526 -4.89674 0
M  V30 15486 H 1451.91 -6.05608 -4.52521 0
M  V30 15487 H 1453.18 -5.46585 -5.55757 0
M  V30 15488 N 1457.41 0.45317 -1.50944 0
M  V30 15489 C 1458.68 1.21413 -1.53357 0
M  V30 15490 C 1459.06 2.09118 -0.288584 0
M  V30 15491 O 1458.41 2.16621 0.727164 0
M  V30 15492 C 1458.62 2.02969 -2.83909 0
M  V30 15493 C 1459.97 2.60551 -3.35258 0
M  V30 15494 O 1460.99 2.13196 -2.85353 0
M  V30 15495 O 1459.85 3.46881 -4.22298 0
M  V30 15496 H 1456.95 0.551909 -0.615894 0
M  V30 15497 H 1459.49 0.463529 -1.63247 0
M  V30 15498 H 1458.26 1.38453 -3.65987 0
M  V30 15499 H 1457.89 2.85127 -2.77107 0
M  V30 15500 N 1458.88 1.40823 0.707568 0
M  V30 15501 C 1459.83 1.4191 1.84294 0
M  V30 15502 C 1460.83 0.298592 1.66748 0
M  V30 15503 O 1462.03 0.47003 1.73755 0
M  V30 15504 H 1458.41 0.44376 0.607109 0
M  V30 15505 H 1460.38 2.37623 1.80494 0
M  V30 15506 C 1459.13 1.30643 3.22223 0
M  V30 15507 H 1458.45 2.16145 3.36335 0
M  V30 15508 H 1459.89 1.35463 4.01778 0
M  V30 15509 C 1458.35 0.0174867 3.36895 0
M  V30 15510 O 1458.88 -0.942398 3.90489 0
M  V30 15511 N 1457.09 -0.0546572 2.90549 0
M  V30 15512 H 1456.63 0.727204 2.47122 0
M  V30 15513 H 1456.59 -0.916521 3.00744 0
M  V30 15514 N 1460.36 -0.94061 1.26453 0
M  V30 15515 C 1461.33 -2.02096 1.0812 0
M  V30 15516 C 1462.33 -1.60773 0.0293393 0
M  V30 15517 O 1463.52 -1.72051 0.272796 0
M  V30 15518 C 1460.65 -3.34749 0.644646 0
M  V30 15519 H 1461.84 -2.19792 2.04038 0
M  V30 15520 H 1459.39 -1.11965 1.09058 0
M  V30 15521 H 1460.13 -3.22752 -0.316509 0
M  V30 15522 H 1459.91 -3.66095 1.40416 0
M  V30 15523 H 1461.4 -4.14117 0.538233 0
M  V30 15524 N 1461.84 -1.08266 -1.14527 0
M  V30 15525 C 1462.77 -0.732968 -2.21698 0
M  V30 15526 C 1463.75 0.283917 -1.67714 0
M  V30 15527 O 1464.94 0.154607 -1.93584 0
M  V30 15528 C 1462.07 -0.139935 -3.47018 0
M  V30 15529 C 1461.02 -1.08501 -4.14019 0
M  V30 15530 C 1460.35 -0.354263 -5.33525 0
M  V30 15531 C 1461.65 -2.42254 -4.62721 0
M  V30 15532 H 1463.34 -1.629 -2.51205 0
M  V30 15533 H 1460.89 -0.784696 -1.20742 0
M  V30 15534 H 1462.84 0.1167 -4.21238 0
M  V30 15535 H 1461.56 0.791228 -3.16871 0
M  V30 15536 H 1460.22 -1.32672 -3.41751 0
M  V30 15537 H 1459.87 0.580658 -4.99637 0
M  V30 15538 H 1459.57 -0.984287 -5.79297 0
M  V30 15539 H 1461.09 -0.105648 -6.10509 0
M  V30 15540 H 1462.51 -2.22357 -5.28422 0
M  V30 15541 H 1460.91 -3.00935 -5.1919 0
M  V30 15542 H 1461.98 -3.03884 -3.77866 0
M  V30 15543 N 1463.32 1.31536 -0.86811 0
M  V30 15544 C 1464.57 1.96775 -0.47812 0
M  V30 15545 C 1464.89 1.68632 0.9692 0
M  V30 15546 O 1464.15 0.974357 1.6972 0
M  V30 15547 C 1464.45 3.50876 -0.679752 0
M  V30 15548 C 1464.11 3.99034 -2.09958 0
M  V30 15549 C 1462.78 4.11896 -2.48787 0
M  V30 15550 C 1465.13 4.24387 -3.02564 0
M  V30 15551 C 1462.46 4.47461 -3.79468 0
M  V30 15552 C 1464.81 4.61415 -4.32757 0
M  V30 15553 C 1463.47 4.72484 -4.71503 0
M  V30 15554 H 1462.74 0.720049 -0.174957 0
M  V30 15555 H 1465.39 1.56703 -1.10074 0
M  V30 15556 H 1463.69 3.91791 0.0260174 0
M  V30 15557 H 1465.39 3.994 -0.357855 0
M  V30 15558 H 1461.98 3.89518 -1.78811 0
M  V30 15559 H 1466.17 4.13947 -2.73791 0
M  V30 15560 H 1461.42 4.54227 -4.09252 0
M  V30 15561 H 1465.6 4.79985 -5.04566 0
M  V30 15562 H 1463.22 4.99798 -5.72806 0
M  V30 15563 N 1464.8 0.627364 1.44575 0
M  V30 15564 C 1465.74 -0.0798044 2.30662 0
M  V30 15565 C 1466.71 -0.840528 1.43263 0
M  V30 15566 O 1467.9 -0.82232 1.7217 0
M  V30 15567 C 1465.04 -1.05796 3.28483 0
M  V30 15568 C 1464.15 -0.296052 4.30984 0
M  V30 15569 C 1463.29 -1.26569 5.15901 0
M  V30 15570 C 1462.33 -0.492722 6.10114 0
M  V30 15571 N 1461.46 -1.41263 6.87742 0
M  V30 15572 H 1466.3 0.660254 2.90594 0
M  V30 15573 H 1463.84 0.337382 1.43179 0
M  V30 15574 H 1465.8 -1.63842 3.83682 0
M  V30 15575 H 1464.43 -1.7652 2.7026 0
M  V30 15576 H 1463.48 0.400259 3.78288 0
M  V30 15577 H 1464.79 0.306149 4.9786 0
M  V30 15578 H 1463.95 -1.9176 5.75598 0
M  V30 15579 H 1462.69 -1.90182 4.4909 0
M  V30 15580 H 1461.69 0.172696 5.49529 0
M  V30 15581 H 1462.92 0.138634 6.78958 0
M  V30 15582 H 1460.86 -2.03604 6.23604 0
M  V30 15583 H 1460.78 -0.864362 7.51042 0
M  V30 15584 H 1462.05 -2.0535 7.51965 0
M  V30 15585 N 1466.28 -1.53251 0.367684 0
M  V30 15586 C 1467.52 -2.01585 -0.221679 0
M  V30 15587 C 1467.85 -1.25444 -1.48248 0
M  V30 15588 O 1467.13 -0.348726 -1.91348 0
M  V30 15589 C 1467.41 -3.56449 -0.511507 0
M  V30 15590 C 1467.27 -4.4328 0.763075 0
M  V30 15591 C 1468.58 -4.20113 -1.31121 0
M  V30 15592 H 1465.7 -0.732743 -0.0790954 0
M  V30 15593 H 1468.35 -1.83493 0.492991 0
M  V30 15594 H 1466.5 -3.71996 -1.12033 0
M  V30 15595 H 1468.17 -4.39526 1.40052 0
M  V30 15596 H 1466.41 -4.11164 1.38299 0
M  V30 15597 H 1467.08 -5.4959 0.515215 0
M  V30 15598 H 1469.56 -4.08412 -0.796169 0
M  V30 15599 H 1468.43 -5.28494 -1.48274 0
M  V30 15600 H 1468.69 -3.76316 -2.32032 0
M  V30 15601 N 1467.75 -0.0969077 -1.57302 0
M  V30 15602 C 1468.98 0.578086 -1.99181 0
M  V30 15603 C 1469.4 1.60818 -0.975667 0
M  V30 15604 O 1468.76 1.81215 0.0556054 0
M  V30 15605 C 1468.81 1.20076 -3.40021 0
M  V30 15606 O 1467.91 2.31656 -3.41188 0
M  V30 15607 H 1467.25 0.146506 -0.647636 0
M  V30 15608 H 1469.78 -0.178855 -2.03817 0
M  V30 15609 H 1469.79 1.54162 -3.77754 0
M  V30 15610 H 1468.47 0.446114 -4.135 0
M  V30 15611 H 1467.05 1.99175 -3.15252 0
M  V30 15612 N 1469.23 1.56605 0.176793 0
M  V30 15613 C 1470.48 1.80875 0.892578 0
M  V30 15614 C 1470.79 0.673245 1.83648 0
M  V30 15615 O 1472 0.800732 2.59423 0
M  V30 15616 C 1470.46 3.20481 1.63768 0
M  V30 15617 C 1470.06 4.41885 0.737685 0
M  V30 15618 C 1471.81 3.54048 2.34202 0
M  V30 15619 C 1469.71 5.72512 1.48271 0
M  V30 15620 H 1468.64 0.674476 0.337042 0
M  V30 15621 H 1471.3 1.82922 0.145574 0
M  V30 15622 H 1469.68 3.12736 2.42924 0
M  V30 15623 H 1470.85 4.60797 -0.0165186 0
M  V30 15624 H 1469.17 4.16153 0.143277 0
M  V30 15625 H 1471.76 4.48886 2.90526 0
M  V30 15626 H 1472.11 2.78665 3.09276 0
M  V30 15627 H 1472.64 3.63322 1.61995 0
M  V30 15628 H 1469.38 6.5091 0.774399 0
M  V30 15629 H 1468.9 5.57586 2.21038 0
M  V30 15630 H 1470.58 6.14274 2.03165 0
M  V30 15631 N 1470.71 -0.445159 1.51182 0
M  V30 15632 C 1471.93 -1.22249 1.67541 0
M  V30 15633 C 1472.36 -1.84446 0.368972 0
M  V30 15634 O 1471.72 -1.68463 -0.670058 0
M  V30 15635 C 1471.77 -2.288 2.78717 0
M  V30 15636 O 1470.87 -3.34094 2.41775 0
M  V30 15637 H 1470.21 -0.358516 0.558894 0
M  V30 15638 H 1472.74 -0.526696 1.97704 0
M  V30 15639 H 1472.75 -2.73708 3.02569 0
M  V30 15640 H 1471.43 -1.82906 3.73521 0
M  V30 15641 H 1470 -2.94717 2.28466 0
M  V30 15642 N 1472.19 -1.41197 -0.700089 0
M  V30 15643 C 1473.12 -1.45456 -1.8266 0
M  V30 15644 C 1474.1 -0.313719 -1.67182 0
M  V30 15645 O 1475.28 -0.524528 -1.86982 0
M  V30 15646 C 1472.41 -1.33161 -3.20758 0
M  V30 15647 C 1471.37 -2.4501 -3.50933 0
M  V30 15648 C 1470.69 -2.17782 -4.88339 0
M  V30 15649 C 1471.99 -3.87352 -3.50365 0
M  V30 15650 H 1473.69 -2.39735 -1.79353 0
M  V30 15651 H 1471.23 -1.1539 -0.861465 0
M  V30 15652 H 1473.19 -1.34754 -3.99274 0
M  V30 15653 H 1471.91 -0.353646 -3.2468 0
M  V30 15654 H 1470.57 -2.42692 -2.74766 0
M  V30 15655 H 1470.22 -1.1834 -4.88881 0
M  V30 15656 H 1469.92 -2.92728 -5.09494 0
M  V30 15657 H 1471.44 -2.21083 -5.6917 0
M  V30 15658 H 1472.86 -3.9141 -4.18893 0
M  V30 15659 H 1471.25 -4.61944 -3.83051 0
M  V30 15660 H 1472.32 -4.15827 -2.4943 0
M  V30 15661 N 1473.67 0.933891 -1.2695 0
M  V30 15662 C 1474.6 2.05078 -1.11649 0
M  V30 15663 C 1475.58 1.70089 -0.0196463 0
M  V30 15664 O 1476.76 1.93239 -0.193007 0
M  V30 15665 C 1473.89 3.38963 -0.756387 0
M  V30 15666 C 1472.85 3.88041 -1.80577 0
M  V30 15667 C 1472.17 5.18661 -1.2998 0
M  V30 15668 C 1473.47 4.12116 -3.2087 0
M  V30 15669 H 1475.17 2.18137 -2.05077 0
M  V30 15670 H 1472.71 1.04817 -0.987392 0
M  V30 15671 H 1474.66 4.1657 -0.63619 0
M  V30 15672 H 1473.39 3.25901 0.213607 0
M  V30 15673 H 1472.05 3.12622 -1.91477 0
M  V30 15674 H 1471.7 5.01985 -0.319442 0
M  V30 15675 H 1471.4 5.52467 -2.00134 0
M  V30 15676 H 1472.92 5.98844 -1.19242 0
M  V30 15677 H 1474.33 4.80312 -3.13006 0
M  V30 15678 H 1472.73 4.57218 -3.88679 0
M  V30 15679 H 1473.8 3.17633 -3.66384 0
M  V30 15680 N 1475.14 1.08871 1.13951 0
M  V30 15681 C 1476.09 0.722966 2.19184 0
M  V30 15682 C 1477.06 -0.293108 1.63493 0
M  V30 15683 O 1478.25 -0.176036 1.89986 0
M  V30 15684 C 1475.39 0.143542 3.44801 0
M  V30 15685 C 1474.5 1.21297 4.14622 0
M  V30 15686 C 1473.63 0.596902 5.27836 0
M  V30 15687 C 1472.67 1.64803 5.89497 0
M  V30 15688 N 1471.81 1.05341 6.94152 0
M  V30 15689 H 1476.65 1.62464 2.49819 0
M  V30 15690 H 1474.19 0.811803 1.22671 0
M  V30 15691 H 1476.14 -0.210153 4.1667 0
M  V30 15692 H 1474.77 -0.721426 3.14635 0
M  V30 15693 H 1473.83 1.68403 3.41093 0
M  V30 15694 H 1475.14 2.00931 4.56539 0
M  V30 15695 H 1474.29 0.191724 6.06397 0
M  V30 15696 H 1473.03 -0.231052 4.87152 0
M  V30 15697 H 1472.04 2.06282 5.09635 0
M  V30 15698 H 1473.26 2.47855 6.32254 0
M  V30 15699 H 1471.21 0.24664 6.55536 0
M  V30 15700 H 1471.12 1.7868 7.34581 0
M  V30 15701 H 1472.39 0.674253 7.76578 0
M  V30 15702 N 1476.62 -1.31073 0.875073 0
M  V30 15703 C 1477.85 -2.00688 0.503179 0
M  V30 15704 C 1478.26 -1.65657 -0.905714 0
M  V30 15705 O 1477.62 -0.888468 -1.59413 0
M  V30 15706 C 1477.67 -3.55486 0.65666 0
M  V30 15707 O 1477.39 -3.89265 2.01007 0
M  V30 15708 C 1478.89 -4.42374 0.28645 0
M  V30 15709 H 1476.11 -0.641885 0.195512 0
M  V30 15710 H 1478.66 -1.67188 1.17765 0
M  V30 15711 H 1476.81 -3.87389 0.0296852 0
M  V30 15712 H 1477.23 -4.83978 2.02153 0
M  V30 15713 H 1478.7 -5.50205 0.444776 0
M  V30 15714 H 1479.18 -4.32312 -0.774789 0
M  V30 15715 H 1479.78 -4.15898 0.889336 0
M  V30 15716 N 1478.1 -0.635022 -1.4424 0
M  V30 15717 C 1479.05 0.0797218 -2.32463 0
M  V30 15718 C 1480.04 0.831818 -1.47571 0
M  V30 15719 O 1481.25 0.744277 -1.63892 0
M  V30 15720 H 1477.62 0.0445532 -0.750679 0
M  V30 15721 H 1479.59 -0.682374 -2.90493 0
M  V30 15722 C 1478.34 1.04505 -3.31623 0
M  V30 15723 H 1477.67 0.475755 -3.96959 0
M  V30 15724 H 1479.11 1.51458 -3.96026 0
M  V30 15725 C 1477.57 2.13221 -2.60842 0
M  V30 15726 O 1478.1 3.21357 -2.41025 0
M  V30 15727 N 1476.3 1.89264 -2.20516 0
M  V30 15728 H 1475.85 1.01329 -2.36834 0
M  V30 15729 H 1475.81 2.62203 -1.73484 0
M  V30 15730 N 1479.58 1.53054 -0.375806 0
M  V30 15731 C 1480.53 2.2605 0.46582 0
M  V30 15732 C 1481.5 1.27123 1.06906 0
M  V30 15733 O 1482.68 1.55926 1.09963 0
M  V30 15734 C 1479.82 3.06066 1.59429 0
M  V30 15735 C 1478.93 4.19901 1.01523 0
M  V30 15736 C 1478.07 4.87339 2.11363 0
M  V30 15737 C 1477.11 5.93189 1.50976 0
M  V30 15738 N 1476.24 6.54276 2.54692 0
M  V30 15739 H 1481.08 2.97553 -0.163149 0
M  V30 15740 H 1478.62 1.4681 -0.092282 0
M  V30 15741 H 1480.58 3.50739 2.25915 0
M  V30 15742 H 1479.21 2.36799 2.19377 0
M  V30 15743 H 1478.26 3.7964 0.240346 0
M  V30 15744 H 1479.57 4.95935 0.533812 0
M  V30 15745 H 1478.73 5.35247 2.85649 0
M  V30 15746 H 1477.47 4.10799 2.6286 0
M  V30 15747 H 1476.47 5.44632 0.752095 0
M  V30 15748 H 1477.7 6.71654 1.00291 0
M  V30 15749 H 1475.64 5.80584 3.05383 0
M  V30 15750 H 1475.56 7.2588 2.11267 0
M  V30 15751 H 1476.83 7.06831 3.28648 0
M  V30 15752 N 1481.06 0.105248 1.57248 0
M  V30 15753 C 1482.28 -0.564157 1.9906 0
M  V30 15754 C 1482.7 -1.61092 0.984624 0
M  V30 15755 O 1482.06 -1.82484 -0.0244031 0
M  V30 15756 C 1482.11 -1.20272 3.40906 0
M  V30 15757 O 1481.83 -0.197815 4.37653 0
M  V30 15758 C 1483.33 -1.95677 3.97776 0
M  V30 15759 H 1480.55 -0.150468 0.653912 0
M  V30 15760 H 1483.09 0.187532 2.03638 0
M  V30 15761 H 1481.25 -1.90528 3.3731 0
M  V30 15762 H 1481.66 -0.659998 5.20331 0
M  V30 15763 H 1483.14 -2.35702 4.99148 0
M  V30 15764 H 1483.61 -2.82661 3.36154 0
M  V30 15765 H 1484.22 -1.30215 4.04876 0
M  V30 15766 N 1482.53 -1.56697 -0.168486 0
M  V30 15767 C 1483.76 -1.86652 -0.904195 0
M  V30 15768 C 1484.18 -0.691906 -1.74912 0
M  V30 15769 O 1483.54 0.358971 -1.77711 0
M  V30 15770 C 1483.59 -3.15043 -1.75442 0
M  V30 15771 O 1482.69 -2.97466 -2.85636 0
M  V30 15772 H 1482.04 -0.613859 -0.253128 0
M  V30 15773 H 1484.57 -2.03927 -0.165773 0
M  V30 15774 H 1484.58 -3.4652 -2.15378 0
M  V30 15775 H 1483.25 -4.00147 -1.13381 0
M  V30 15776 H 1481.83 -2.7735 -2.49262 0
M  V30 15777 N 1484.01 0.437135 -1.51416 0
M  V30 15778 C 1484.96 1.55124 -1.73319 0
M  V30 15779 C 1485.95 1.58437 -0.599511 0
M  V30 15780 O 1487.16 1.62179 -0.780896 0
M  V30 15781 H 1483.54 0.515368 -0.547632 0
M  V30 15782 H 1485.51 1.33824 -2.66709 0
M  V30 15783 C 1484.26 2.92778 -1.87554 0
M  V30 15784 H 1483.58 2.9096 -2.74194 0
M  V30 15785 H 1485.02 3.70097 -2.06891 0
M  V30 15786 C 1483.48 3.30854 -0.635408 0
M  V30 15787 O 1484.01 4.01152 0.20983 0
M  V30 15788 N 1482.21 2.86618 -0.47944 0
M  V30 15789 H 1481.76 2.29582 -1.16834 0
M  V30 15790 H 1481.72 3.12456 0.349078 0
M  V30 15791 N 1485.49 1.41566 0.692592 0
M  V30 15792 C 1486.44 1.43857 1.82779 0
M  V30 15793 C 1487.43 0.316262 1.66422 0
M  V30 15794 O 1488.64 0.488433 1.73246 0
M  V30 15795 H 1485.01 0.450174 0.602368 0
M  V30 15796 H 1486.98 2.39524 1.77964 0
M  V30 15797 C 1485.73 1.34054 3.20819 0
M  V30 15798 H 1485.06 2.19701 3.34023 0
M  V30 15799 H 1486.5 1.39717 4.00319 0
M  V30 15800 C 1484.96 0.053218 3.36858 0
M  V30 15801 O 1485.49 -0.900928 3.91467 0
M  V30 15802 N 1483.69 -0.0238376 2.9059 0
M  V30 15803 H 1483.24 0.753374 2.46337 0
M  V30 15804 H 1483.2 -0.884571 3.017 0
M  V30 15805 N 1486.97 -0.927146 1.27443 0
M  V30 15806 C 1488.19 -1.71426 1.16739 0
M  V30 15807 C 1488.62 -1.86122 -0.272063 0
M  V30 15808 O 1487.98 -1.36165 -1.19703 0
M  V30 15809 C 1488.02 -3.09131 1.85661 0
M  V30 15810 O 1487.13 -3.95897 1.15495 0
M  V30 15811 H 1486.47 -0.525428 0.405983 0
M  V30 15812 H 1489 -1.16022 1.68523 0
M  V30 15813 H 1489.01 -3.59442 1.93042 0
M  V30 15814 H 1487.68 -2.97752 2.90373 0
M  V30 15815 H 1486.26 -3.54337 1.16187 0
M  V30 15816 N 1488.45 -1.09474 -1.13372 0
M  V30 15817 C 1489.41 -0.738173 -2.16988 0
M  V30 15818 C 1490.41 0.232488 -1.5911 0
M  V30 15819 O 1491.6 0.0106093 -1.74197 0
M  V30 15820 C 1488.73 -0.091724 -3.40777 0
M  V30 15821 H 1489.92 -1.65582 -2.50045 0
M  V30 15822 H 1487.48 -0.893994 -1.28209 0
M  V30 15823 H 1488.21 0.837129 -3.13309 0
M  V30 15824 H 1488 -0.790161 -3.84056 0
M  V30 15825 H 1489.49 0.142334 -4.17357 0
M  V30 15826 N 1489.92 1.30607 -0.882012 0
M  V30 15827 C 1491.15 2.00418 -0.513815 0
M  V30 15828 C 1491.57 1.66135 0.896916 0
M  V30 15829 O 1490.92 0.89691 1.5894 0
M  V30 15830 C 1490.98 3.55133 -0.675503 0
M  V30 15831 O 1490.7 3.88194 -2.03069 0
M  V30 15832 C 1492.2 4.42215 -0.309906 0
M  V30 15833 H 1489.42 0.640839 -0.198913 0
M  V30 15834 H 1491.96 1.66561 -1.1865 0
M  V30 15835 H 1490.12 3.87367 -0.0502289 0
M  V30 15836 H 1490.53 4.82899 -2.04717 0
M  V30 15837 H 1492 5.49962 -0.473948 0
M  V30 15838 H 1492.48 4.32717 0.751852 0
M  V30 15839 H 1493.09 4.1542 -0.91138 0
M  V30 15840 N 1491.4 0.642663 1.43901 0
M  V30 15841 C 1492.35 -0.0673926 2.32502 0
M  V30 15842 C 1493.34 -0.823981 1.4801 0
M  V30 15843 O 1494.55 -0.735575 1.64284 0
M  V30 15844 H 1490.93 -0.0405715 0.750905 0
M  V30 15845 H 1492.9 0.69777 2.90127 0
M  V30 15846 C 1491.65 -1.02745 3.32173 0
M  V30 15847 H 1490.97 -0.454697 3.97206 0
M  V30 15848 H 1492.41 -1.49355 3.96824 0
M  V30 15849 C 1490.87 -2.11835 2.61969 0
M  V30 15850 O 1491.4 -3.20074 2.42725 0
M  V30 15851 N 1489.6 -1.88092 2.21517 0
M  V30 15852 H 1489.15 -1.00072 2.37368 0
M  V30 15853 H 1489.11 -2.61279 1.74873 0
M  V30 15854 N 1492.88 -1.52852 0.383918 0
M  V30 15855 C 1494.3 -1.59565 0.0336391 0
M  V30 15856 C 1494.5 -1.39819 -1.45097 0
M  V30 15857 O 1493.55 -1.21249 -2.21484 0
M  V30 15858 C 1494.87 -2.96412 0.506001 0
M  V30 15859 C 1496.41 -3.09575 0.461794 0
M  V30 15860 C 1496.89 -4.48863 0.910259 0
M  V30 15861 N 1498.38 -4.55032 0.866053 0
M  V30 15862 C 1499.12 -5.61032 1.18453 0
M  V30 15863 N 1498.61 -6.74701 1.57321 0
M  V30 15864 N 1500.4 -5.51109 1.10613 0
M  V30 15865 H 1492.56 -1.63937 1.3505 0
M  V30 15866 H 1494.82 -0.769857 0.553194 0
M  V30 15867 H 1494.52 -3.16061 1.54268 0
M  V30 15868 H 1494.4 -3.77073 -0.0977643 0
M  V30 15869 H 1496.79 -2.89625 -0.565786 0
M  V30 15870 H 1496.87 -2.30879 1.10129 0
M  V30 15871 H 1496.51 -4.69553 1.93604 0
M  V30 15872 H 1496.44 -5.26017 0.247825 0
M  V30 15873 H 1498.93 -3.73423 0.579962 0
M  V30 15874 H 1499.24 -7.51545 1.8 0
M  V30 15875 H 1497.59 -6.76046 1.61203 0
M  V30 15876 H 1500.78 -4.61187 0.801531 0
M  V30 15877 H 1500.95 -6.33618 1.35766 0
M  V30 15878 N 1494.36 -0.113586 -1.5719 0
M  V30 15879 C 1495.31 0.83862 -2.15025 0
M  V30 15880 C 1496.28 1.26726 -1.07376 0
M  V30 15881 O 1497.46 1.34574 -1.35257 0
M  V30 15882 C 1494.6 2.08538 -2.74965 0
M  V30 15883 C 1493.71 1.70559 -3.96905 0
M  V30 15884 C 1492.85 2.90161 -4.44949 0
M  V30 15885 C 1491.89 2.48396 -5.59433 0
M  V30 15886 N 1491.03 3.60894 -6.02246 0
M  V30 15887 H 1495.87 0.338585 -2.9607 0
M  V30 15888 H 1493.4 0.155437 -1.46276 0
M  V30 15889 H 1495.36 2.81579 -3.07846 0
M  V30 15890 H 1493.99 2.56009 -1.96619 0
M  V30 15891 H 1493.04 0.874133 -3.7022 0
M  V30 15892 H 1494.35 1.35863 -4.7994 0
M  V30 15893 H 1493.51 3.71434 -4.7971 0
M  V30 15894 H 1492.25 3.28081 -3.60852 0
M  V30 15895 H 1491.25 1.65555 -5.24282 0
M  V30 15896 H 1492.48 2.116 -6.45292 0
M  V30 15897 H 1490.42 3.98497 -5.21091 0
M  V30 15898 H 1490.34 3.30103 -6.80124 0
M  V30 15899 H 1491.61 4.42622 -6.41643 0
M  V30 15900 N 1495.84 1.56784 0.160173 0
M  V30 15901 C 1497.07 1.86767 0.89026 0
M  V30 15902 C 1497.48 0.700276 1.75333 0
M  V30 15903 O 1496.84 -0.330342 1.79485 0
M  V30 15904 C 1496.89 3.15883 1.75784 0
M  V30 15905 O 1496.61 4.28124 0.929575 0
M  V30 15906 C 1498.11 3.5929 2.59664 0
M  V30 15907 H 1495.33 0.61938 0.258088 0
M  V30 15908 H 1497.87 2.03897 0.156919 0
M  V30 15909 H 1496.03 3.00546 2.4444 0
M  V30 15910 H 1496.44 5.01872 1.52397 0
M  V30 15911 H 1497.92 4.52506 3.16136 0
M  V30 15912 H 1498.39 2.83943 3.35072 0
M  V30 15913 H 1499 3.77277 1.96323 0
M  V30 15914 N 1497.32 -0.429099 1.51646 0
M  V30 15915 C 1498.27 -1.52004 1.69937 0
M  V30 15916 C 1499.25 -1.51087 0.5533 0
M  V30 15917 O 1500.44 -1.57401 0.809558 0
M  V30 15918 C 1497.57 -2.90123 1.83531 0
M  V30 15919 C 1496.66 -2.95764 3.03948 0
M  V30 15920 N 1497.05 -2.71135 4.26989 0
M  V30 15921 C 1495.35 -3.26927 3.03372 0
M  V30 15922 C 1496.05 -2.82831 5.08312 0
M  V30 15923 N 1495.02 -3.14856 4.43133 0
M  V30 15924 H 1498.82 -1.31726 2.62727 0
M  V30 15925 H 1496.34 -0.63653 1.49406 0
M  V30 15926 H 1498.34 -3.68618 1.94747 0
M  V30 15927 H 1497 -3.11415 0.919285 0
M  V30 15928 H 1498.01 -2.45906 4.55797 0
M  V30 15929 H 1494.68 -3.53941 2.21432 0
M  V30 15930 H 1496.07 -2.67673 6.1628 0
M  V30 15931 N 1498.79 -1.41931 -0.685074 0
M  V30 15932 C 1500.04 -1.41147 -1.44085 0
M  V30 15933 C 1500.36 -0.0275793 -1.95581 0
M  V30 15934 O 1501.56 0.102873 -2.71305 0
M  V30 15935 C 1500.02 -2.4823 -2.60596 0
M  V30 15936 C 1499.63 -3.92576 -2.15842 0
M  V30 15937 C 1501.37 -2.56597 -3.38169 0
M  V30 15938 C 1499.28 -4.91189 -3.29374 0
M  V30 15939 H 1498.21 -0.52494 -0.541252 0
M  V30 15940 H 1500.86 -1.67798 -0.7427 0
M  V30 15941 H 1499.24 -2.14727 -3.32729 0
M  V30 15942 H 1500.41 -4.35381 -1.50929 0
M  V30 15943 H 1498.73 -3.87965 -1.51235 0
M  V30 15944 H 1501.33 -3.27453 -4.22704 0
M  V30 15945 H 1501.67 -1.60618 -3.84067 0
M  V30 15946 H 1502.2 -2.89244 -2.73099 0
M  V30 15947 H 1498.94 -5.88609 -2.88477 0
M  V30 15948 H 1498.46 -4.53024 -3.93102 0
M  V30 15949 H 1500.14 -5.12433 -3.94996 0
M  V30 15950 N 1500.27 0.920374 -1.27933 0
M  V30 15951 C 1501.55 1.64765 -1.05413 0
M  V30 15952 C 1501.93 2.07106 0.408717 0
M  V30 15953 O 1501.28 1.81094 1.39346 0
M  V30 15954 C 1501.49 2.84417 -2.02257 0
M  V30 15955 C 1502.83 3.5559 -2.32036 0
M  V30 15956 O 1503.86 2.94555 -2.00289 0
M  V30 15957 O 1502.72 4.65574 -2.86187 0
M  V30 15958 H 1499.81 0.722503 -0.402391 0
M  V30 15959 H 1502.36 0.970263 -1.39226 0
M  V30 15960 H 1501.13 2.50174 -3.0088 0
M  V30 15961 H 1500.75 3.59872 -1.6905 0
M  V30 15962 N 1501.75 1.10074 1.1279 0
M  V30 15963 C 1503 0.839212 1.83852 0
M  V30 15964 C 1503.32 -0.637023 1.84301 0
M  V30 15965 O 1502.59 -1.46239 1.30349 0
M  V30 15966 H 1501.17 0.307468 0.680788 0
M  V30 15967 H 1503.83 1.39025 1.36595 0
M  V30 15968 H 1502.93 1.19872 2.88162 0
M  V30 15969 N 1503.23 -1.30138 0.888926 0
M  V30 15970 C 1504.64 -1.78124 0.559346 0
M  V30 15971 C 1504.99 -1.73046 -0.924633 0
M  V30 15972 O 1504.11 -1.30974 -1.72264 0
M  V30 15973 C 1504.71 -3.2344 1.00856 0
M  V30 15974 C 1503.27 -3.69247 0.730332 0
M  V30 15975 C 1502.42 -2.505 1.18933 0
M  V30 15976 H 1505.37 -1.16952 1.07275 0
M  V30 15977 H 1505.39 -3.78985 0.339219 0
M  V30 15978 H 1504.9 -3.27104 2.08865 0
M  V30 15979 H 1503 -3.71067 -0.337599 0
M  V30 15980 H 1503.11 -4.60538 1.32066 0
M  V30 15981 H 1501.48 -2.47323 0.608568 0
M  V30 15982 H 1502.26 -2.56899 2.27724 0
M  V30 15983 N 1504.71 -0.650285 -1.43559 0
M  V30 15984 C 1505.93 -0.168483 -2.06715 0
M  V30 15985 C 1506.36 1.15576 -1.48404 0
M  V30 15986 O 1505.71 1.71333 -0.592842 0
M  V30 15987 C 1505.76 -0.0877095 -3.60493 0
M  V30 15988 O 1504.87 0.950915 -4.01287 0
M  V30 15989 H 1504.21 -0.0935281 -0.65738 0
M  V30 15990 H 1506.74 -0.892381 -1.84113 0
M  V30 15991 H 1506.75 0.0965825 -4.07886 0
M  V30 15992 H 1505.42 -1.05442 -4.02312 0
M  V30 15993 H 1504 0.739648 -3.65491 0
M  V30 15994 N 1506.18 1.52647 -0.392018 0
M  V30 15995 C 1507.11 2.29446 0.433228 0
M  V30 15996 C 1508.09 1.32945 1.06111 0
M  V30 15997 O 1509.28 1.61841 1.07337 0
M  V30 15998 C 1506.41 3.10328 1.55929 0
M  V30 15999 C 1505.36 4.14735 1.05731 0
M  V30 16000 C 1504.69 4.83858 2.27565 0
M  V30 16001 C 1505.99 5.22154 0.123346 0
M  V30 16002 H 1507.68 2.9868 -0.207563 0
M  V30 16003 H 1505.23 1.43643 -0.101266 0
M  V30 16004 H 1507.18 3.62814 2.14346 0
M  V30 16005 H 1505.91 2.38832 2.22771 0
M  V30 16006 H 1504.57 3.63234 0.495653 0
M  V30 16007 H 1504.21 4.08907 2.92923 0
M  V30 16008 H 1503.91 5.54428 1.94637 0
M  V30 16009 H 1505.44 5.39149 2.86619 0
M  V30 16010 H 1506.85 5.69983 0.615784 0
M  V30 16011 H 1505.25 5.99987 -0.116304 0
M  V30 16012 H 1506.32 4.77796 -0.826969 0
M  V30 16013 N 1507.66 0.121921 1.57128 0
M  V30 16014 C 1508.59 -0.823788 2.18486 0
M  V30 16015 C 1509.57 -1.27519 1.12574 0
M  V30 16016 O 1510.76 -1.33727 1.40822 0
M  V30 16017 C 1507.89 -2.07284 2.78659 0
M  V30 16018 C 1506.84 -1.75912 3.90178 0
M  V30 16019 C 1506.17 -3.07871 4.37172 0
M  V30 16020 C 1507.47 -1.02517 5.1214 0
M  V30 16021 H 1509.16 -0.312488 2.97765 0
M  V30 16022 H 1506.71 -0.148862 1.43228 0
M  V30 16023 H 1508.66 -2.73903 3.20242 0
M  V30 16024 H 1507.39 -2.60743 1.96673 0
M  V30 16025 H 1506.04 -1.11681 3.49174 0
M  V30 16026 H 1505.69 -3.59271 3.52041 0
M  V30 16027 H 1505.39 -2.87653 5.12376 0
M  V30 16028 H 1506.92 -3.75604 4.81409 0
M  V30 16029 H 1508.33 -1.59295 5.50725 0
M  V30 16030 H 1506.73 -0.923836 5.92946 0
M  V30 16031 H 1507.8 -0.0124219 4.84898 0
M  V30 16032 N 1509.14 -1.56867 -0.151857 0
M  V30 16033 C 1510.39 -1.82273 -0.863689 0
M  V30 16034 C 1510.7 -0.702377 -1.82554 0
M  V30 16035 O 1511.91 -0.841903 -2.58117 0
M  V30 16036 C 1510.36 -3.23046 -1.58649 0
M  V30 16037 C 1509.97 -4.43003 -0.667292 0
M  V30 16038 C 1511.72 -3.57729 -2.28539 0
M  V30 16039 C 1509.62 -5.74798 -1.39144 0
M  V30 16040 H 1508.55 -0.679753 -0.326269 0
M  V30 16041 H 1511.2 -1.8313 -0.116454 0
M  V30 16042 H 1509.59 -3.16561 -2.37918 0
M  V30 16043 H 1510.76 -4.60712 0.0898254 0
M  V30 16044 H 1509.08 -4.16329 -0.0770521 0
M  V30 16045 H 1511.67 -4.53451 -2.83348 0
M  V30 16046 H 1512.02 -2.8355 -3.04803 0
M  V30 16047 H 1512.55 -3.65853 -1.56194 0
M  V30 16048 H 1509.29 -6.52059 -0.670747 0
M  V30 16049 H 1508.81 -5.61032 -2.12139 0
M  V30 16050 H 1510.49 -6.17429 -1.93367 0
M  V30 16051 N 1510.62 0.421051 -1.51871 0
M  V30 16052 C 1511.53 1.5371 -1.7723 0
M  V30 16053 C 1512.54 1.61109 -0.657256 0
M  V30 16054 O 1513.72 1.78047 -0.941343 0
M  V30 16055 C 1510.79 2.89555 -1.9068 0
M  V30 16056 C 1509.85 2.9214 -3.14567 0
M  V30 16057 C 1509.08 4.21505 -3.27367 0
M  V30 16058 O 1509.3 5.14764 -2.45712 0
M  V30 16059 O 1508.24 4.30706 -4.20448 0
M  V30 16060 H 1512.06 1.35221 -2.71935 0
M  V30 16061 H 1509.65 0.605712 -1.3657 0
M  V30 16062 H 1511.53 3.70147 -2.01418 0
M  V30 16063 H 1510.2 3.08137 -0.991627 0
M  V30 16064 H 1509.11 2.10444 -3.09296 0
M  V30 16065 H 1510.44 2.78505 -4.05827 0
M  V30 16066 N 1512.1 1.42293 0.677538 0
M  V30 16067 C 1513.04 1.45787 1.81243 0
M  V30 16068 C 1514.04 0.333895 1.66077 0
M  V30 16069 O 1515.24 0.50678 1.72719 0
M  V30 16070 H 1511.62 0.456538 0.597559 0
M  V30 16071 H 1513.59 2.41398 1.75413 0
M  V30 16072 C 1512.34 1.37449 3.19379 0
M  V30 16073 H 1511.66 2.23231 3.31674 0
M  V30 16074 H 1513.1 1.43955 3.98814 0
M  V30 16075 C 1511.56 0.0889433 3.36783 0
M  V30 16076 O 1512.09 -0.859357 3.924 0
M  V30 16077 N 1510.3 0.00698476 2.90599 0
M  V30 16078 H 1509.84 0.779459 2.45524 0
M  V30 16079 H 1509.8 -0.852522 3.02621 0
M  V30 16080 N 1513.57 -0.913576 1.28419 0
M  V30 16081 C 1514.8 -1.70178 1.18551 0
M  V30 16082 C 1515.22 -1.864 -0.252307 0
M  V30 16083 O 1514.58 -1.37427 -1.18252 0
M  V30 16084 C 1514.63 -3.07145 1.8893 0
M  V30 16085 O 1513.73 -3.9465 1.19688 0
M  V30 16086 H 1513.08 -0.521092 0.411533 0
M  V30 16087 H 1515.61 -1.14228 1.69744 0
M  V30 16088 H 1515.62 -3.57375 1.96843 0
M  V30 16089 H 1514.29 -2.94655 2.93515 0
M  V30 16090 H 1512.87 -3.53085 1.19939 0
M  V30 16091 N 1515.05 -1.1067 -1.12204 0
M  V30 16092 C 1516.46 -0.867959 -1.65298 0
M  V30 16093 C 1516.81 0.601297 -1.86759 0
M  V30 16094 O 1515.94 1.46153 -1.59588 0
M  V30 16095 C 1516.53 -1.56906 -3.00276 0
M  V30 16096 C 1515.09 -1.37696 -3.5031 0
M  V30 16097 C 1514.24 -1.61688 -2.25282 0
M  V30 16098 H 1517.19 -1.26408 -0.959521 0
M  V30 16099 H 1517.21 -1.00947 -3.66865 0
M  V30 16100 H 1516.72 -2.63838 -2.84625 0
M  V30 16101 H 1514.83 -0.329381 -3.71141 0
M  V30 16102 H 1514.94 -2.12058 -4.29614 0
M  V30 16103 H 1513.3 -1.03977 -2.3251 0
M  V30 16104 H 1514.09 -2.69877 -2.12182 0
M  V30 16105 N 1516.53 1.29665 -0.895815 0
M  V30 16106 C 1517.76 2.00399 -0.534333 0
M  V30 16107 C 1518.18 1.66632 0.872654 0
M  V30 16108 O 1517.54 0.888811 1.58018 0
M  V30 16109 C 1517.59 3.53154 -0.729023 0
M  V30 16110 O 1516.69 4.11812 0.22023 0
M  V30 16111 H 1516.03 0.630173 -0.209233 0
M  V30 16112 H 1518.56 1.65253 -1.20634 0
M  V30 16113 H 1518.57 4.03073 -0.632179 0
M  V30 16114 H 1517.25 3.77067 -1.75481 0
M  V30 16115 H 1515.82 3.72822 0.0761687 0
M  V30 16116 N 1518.01 0.657889 1.43212 0
M  V30 16117 C 1519.25 0.173443 2.02057 0
M  V30 16118 C 1519.59 -1.21108 1.51811 0
M  V30 16119 O 1518.86 -1.80953 0.71317 0
M  V30 16120 C 1519.15 0.189429 3.59601 0
M  V30 16121 C 1519 1.6082 4.20068 0
M  V30 16122 C 1520.32 -0.471633 4.37566 0
M  V30 16123 H 1517.44 0.0644999 0.734172 0
M  V30 16124 H 1520.08 0.839462 1.7045 0
M  V30 16125 H 1518.23 -0.377689 3.8666 0
M  V30 16126 H 1519.9 2.22627 4.04024 0
M  V30 16127 H 1518.14 2.15407 3.7654 0
M  V30 16128 H 1518.81 1.5712 5.29167 0
M  V30 16129 H 1521.29 0.0109387 4.16099 0
M  V30 16130 H 1520.17 -0.429739 5.47215 0
M  V30 16131 H 1520.43 -1.54652 4.14168 0
M  V30 16132 N 1519.49 -1.52437 0.400108 0
M  V30 16133 C 1520.73 -2.02677 -0.171293 0
M  V30 16134 C 1521.09 -1.28088 -1.43566 0
M  V30 16135 O 1520.38 -0.37592 -1.87876 0
M  V30 16136 C 1520.57 -3.54133 -0.482141 0
M  V30 16137 C 1520.4 -4.43392 0.750551 0
M  V30 16138 C 1519.17 -4.89 1.27306 0
M  V30 16139 C 1521.37 -4.87918 1.62604 0
M  V30 16140 N 1519.35 -5.62361 2.46217 0
M  V30 16141 C 1520.72 -5.59969 2.66148 0
M  V30 16142 C 1522.78 -4.69945 1.64486 0
M  V30 16143 C 1521.48 -6.15955 3.71473 0
M  V30 16144 C 1523.51 -5.26821 2.68725 0
M  V30 16145 C 1522.87 -5.98787 3.7099 0
M  V30 16146 H 1518.97 -0.781617 -0.0244842 0
M  V30 16147 H 1521.55 -1.86698 0.552429 0
M  V30 16148 H 1519.72 -3.70203 -1.17491 0
M  V30 16149 H 1521.46 -3.91065 -1.04164 0
M  V30 16150 H 1518.21 -4.66227 0.832434 0
M  V30 16151 H 1518.64 -6.03688 3.06414 0
M  V30 16152 H 1523.28 -4.13801 0.867657 0
M  V30 16153 H 1521 -6.71175 4.50055 0
M  V30 16154 H 1524.58 -5.14789 2.71078 0
M  V30 16155 H 1523.46 -6.4201 4.50325 0
M  V30 16156 N 1520.96 -0.130252 -1.57061 0
M  V30 16157 C 1521.9 0.846442 -2.12998 0
M  V30 16158 C 1522.91 1.22229 -1.07536 0
M  V30 16159 O 1524.1 1.16928 -1.34871 0
M  V30 16160 C 1521.2 2.14481 -2.62395 0
M  V30 16161 C 1520.37 1.93892 -3.92077 0
M  V30 16162 C 1519.43 3.07562 -4.26957 0
M  V30 16163 O 1518.46 2.79983 -4.95578 0
M  V30 16164 N 1519.66 4.34297 -3.85184 0
M  V30 16165 H 1522.42 0.368471 -2.97426 0
M  V30 16166 H 1519.98 0.0538355 -1.6181 0
M  V30 16167 H 1521.98 2.8954 -2.82752 0
M  V30 16168 H 1520.55 2.53592 -1.82784 0
M  V30 16169 H 1519.77 1.02962 -3.80516 0
M  V30 16170 H 1521.05 1.77454 -4.76852 0
M  V30 16171 H 1520.45 4.59575 -3.29859 0
M  V30 16172 H 1519.01 5.06191 -4.10626 0
M  V30 16173 N 1522.44 1.56945 0.143535 0
M  V30 16174 C 1523.39 1.99479 1.19628 0
M  V30 16175 C 1524.39 0.887733 1.44276 0
M  V30 16176 O 1525.59 1.07292 1.44528 0
M  V30 16177 H 1521.97 0.635049 0.402761 0
M  V30 16178 H 1523.94 2.87171 0.810877 0
M  V30 16179 C 1522.69 2.39436 2.52123 0
M  V30 16180 H 1522.01 3.24176 2.33987 0
M  V30 16181 H 1523.45 2.73017 3.24404 0
M  V30 16182 C 1521.91 1.24836 3.12918 0
M  V30 16183 O 1522.44 0.550973 3.97903 0
M  V30 16184 N 1520.64 1.01172 2.7242 0
M  V30 16185 H 1520.19 1.5806 2.03408 0
M  V30 16186 H 1520.15 0.246846 3.13429 0
M  V30 16187 N 1523.92 -0.412991 1.52093 0
M  V30 16188 C 1525.17 -1.15737 1.65191 0
M  V30 16189 C 1525.48 -1.91753 0.38601 0
M  V30 16190 O 1526.69 -2.68586 0.396731 0
M  V30 16191 C 1525.15 -2.10619 2.91835 0
M  V30 16192 C 1524.75 -1.40137 4.25518 0
M  V30 16193 C 1526.5 -2.85339 3.14296 0
M  V30 16194 C 1524.4 -2.33645 5.4329 0
M  V30 16195 H 1523.33 -0.435732 0.615348 0
M  V30 16196 H 1525.99 -0.422172 1.78578 0
M  V30 16197 H 1524.37 -2.87675 2.72138 0
M  V30 16198 H 1525.54 -0.684719 4.55684 0
M  V30 16199 H 1523.86 -0.774734 4.09129 0
M  V30 16200 H 1526.45 -3.55437 3.99461 0
M  V30 16201 H 1526.8 -3.48071 2.28369 0
M  V30 16202 H 1527.33 -2.15384 3.34447 0
M  V30 16203 H 1524.07 -1.75566 6.31551 0
M  V30 16204 H 1523.59 -3.03294 5.17467 0
M  V30 16205 H 1525.27 -2.94255 5.76215 0
M  V30 16206 N 1525.4 -1.4265 -0.669982 0
M  V30 16207 C 1526.33 -1.49298 -1.79534 0
M  V30 16208 C 1527.31 -0.34911 -1.66479 0
M  V30 16209 O 1528.5 -0.564072 -1.85828 0
M  V30 16210 C 1525.63 -1.39935 -3.17861 0
M  V30 16211 C 1524.58 -2.52398 -3.45657 0
M  V30 16212 C 1523.91 -2.28092 -4.8361 0
M  V30 16213 C 1525.21 -3.94697 -3.4207 0
M  V30 16214 H 1526.9 -2.43486 -1.74227 0
M  V30 16215 H 1524.45 -1.17191 -0.836796 0
M  V30 16216 H 1526.4 -1.43193 -3.96325 0
M  V30 16217 H 1525.12 -0.422436 -3.23857 0
M  V30 16218 H 1523.78 -2.48465 -2.69556 0
M  V30 16219 H 1523.43 -1.28683 -4.86261 0
M  V30 16220 H 1523.13 -3.03469 -5.0317 0
M  V30 16221 H 1524.65 -2.33107 -5.64352 0
M  V30 16222 H 1526.07 -4.00207 -4.10496 0
M  V30 16223 H 1524.46 -4.69965 -3.73166 0
M  V30 16224 H 1525.53 -4.21025 -2.40554 0
M  V30 16225 N 1526.88 0.906753 -1.28902 0
M  V30 16226 C 1527.79 2.04313 -1.15296 0
M  V30 16227 C 1528.8 1.73826 -0.0778619 0
M  V30 16228 O 1529.98 1.99322 -0.288543 0
M  V30 16229 C 1527.04 3.36782 -0.823317 0
M  V30 16230 C 1526.11 3.80834 -1.98152 0
M  V30 16231 C 1525.34 5.06981 -1.66751 0
M  V30 16232 O 1525.56 5.67391 -0.58513 0
M  V30 16233 O 1524.5 5.46915 -2.51332 0
M  V30 16234 H 1528.32 2.18713 -2.10709 0
M  V30 16235 H 1525.91 1.02928 -1.08287 0
M  V30 16236 H 1527.79 4.16298 -0.653735 0
M  V30 16237 H 1526.46 3.23542 0.101097 0
M  V30 16238 H 1525.37 3.02115 -2.2063 0
M  V30 16239 H 1526.7 3.98648 -2.88688 0
M  V30 16240 N 1528.36 1.11264 1.11616 0
M  V30 16241 C 1529.58 0.88306 1.87661 0
M  V30 16242 C 1530.01 -0.561586 1.79521 0
M  V30 16243 O 1529.36 -1.3964 1.1563 0
M  V30 16244 C 1529.41 1.34698 3.34498 0
M  V30 16245 O 1528.52 0.517512 4.0914 0
M  V30 16246 H 1527.86 0.318233 0.582772 0
M  V30 16247 H 1530.39 1.48164 1.41098 0
M  V30 16248 H 1530.4 1.34068 3.85344 0
M  V30 16249 H 1529.07 2.39896 3.39739 0
M  V30 16250 H 1527.65 0.589751 3.68207 0
M  V30 16251 N 1529.83 -1.29188 0.902679 0
M  V30 16252 C 1531.11 -1.90365 0.449496 0
M  V30 16253 C 1531.49 -1.81911 -1.07105 0
M  V30 16254 O 1530.84 -1.24778 -1.91423 0
M  V30 16255 C 1531.05 -3.35324 0.967418 0
M  V30 16256 C 1532.4 -4.12342 1.0129 0
M  V30 16257 O 1533.42 -3.44239 0.915293 0
M  V30 16258 O 1532.28 -5.34048 1.15994 0
M  V30 16259 H 1529.37 -0.814956 0.140628 0
M  V30 16260 H 1531.92 -1.37633 0.992739 0
M  V30 16261 H 1530.69 -3.35646 2.0114 0
M  V30 16262 H 1530.31 -3.95539 0.404358 0
M  V30 16263 N 1531.31 -0.665475 -1.42861 0
M  V30 16264 C 1532.54 -0.192 -2.06007 0
M  V30 16265 C 1532.95 1.1472 -1.49949 0
M  V30 16266 O 1532.31 1.71074 -0.635599 0
M  V30 16267 C 1532.36 -0.108189 -3.61338 0
M  V30 16268 O 1532.08 -1.39446 -4.15315 0
M  V30 16269 C 1533.58 0.3899 -4.41582 0
M  V30 16270 H 1530.8 -0.0955812 -0.664158 0
M  V30 16271 H 1533.35 -0.909582 -1.83158 0
M  V30 16272 H 1531.5 0.560024 -3.83331 0
M  V30 16273 H 1531.92 -1.26168 -5.09099 0
M  V30 16274 H 1533.39 0.39747 -5.50567 0
M  V30 16275 H 1533.87 1.42348 -4.15492 0
M  V30 16276 H 1534.47 -0.246248 -4.24587 0
M  V30 16277 N 1532.79 1.52222 -0.408187 0
M  V30 16278 C 1533.7 2.30725 0.424645 0
M  V30 16279 C 1534.72 1.38412 1.05442 0
M  V30 16280 O 1535.89 1.71486 1.05614 0
M  V30 16281 C 1532.96 3.11273 1.52677 0
M  V30 16282 C 1532.02 4.19323 0.920143 0
M  V30 16283 C 1531.25 4.96021 1.96974 0
M  V30 16284 O 1531.47 4.73011 3.18774 0
M  V30 16285 O 1530.41 5.80887 1.5765 0
M  V30 16286 H 1534.23 3.02935 -0.215411 0
M  V30 16287 H 1531.82 1.48413 -0.171414 0
M  V30 16288 H 1533.7 3.61436 2.16661 0
M  V30 16289 H 1532.38 2.41857 2.15144 0
M  V30 16290 H 1531.28 3.7331 0.243037 0
M  V30 16291 H 1532.62 4.91028 0.339405 0
M  V30 16292 N 1534.27 0.138579 1.5699 0
M  V30 16293 C 1535.51 -0.514627 1.95852 0
M  V30 16294 C 1535.84 -1.65424 1.02299 0
M  V30 16295 O 1535.1 -1.95635 0.0505654 0
M  V30 16296 C 1535.4 -1.06969 3.41017 0
M  V30 16297 C 1535.06 -0.049396 4.50873 0
M  V30 16298 C 1533.72 0.231103 4.80645 0
M  V30 16299 C 1536.08 0.644865 5.17195 0
M  V30 16300 C 1533.4 1.21181 5.74049 0
M  V30 16301 C 1535.76 1.61434 6.11655 0
M  V30 16302 C 1534.42 1.90262 6.3981 0
M  V30 16303 H 1533.69 -0.188315 0.716672 0
M  V30 16304 H 1536.34 0.223629 1.9019 0
M  V30 16305 H 1534.64 -1.88511 3.43469 0
M  V30 16306 H 1536.34 -1.58354 3.68409 0
M  V30 16307 H 1532.93 -0.278202 4.27696 0
M  V30 16308 H 1537.11 0.441346 4.94334 0
M  V30 16309 H 1532.37 1.4417 5.94159 0
M  V30 16310 H 1536.54 2.15786 6.62125 0
M  V30 16311 H 1534.17 2.66407 7.11991 0
M  V30 16312 N 1535.75 -1.57019 -0.13521 0
M  V30 16313 C 1536.69 -1.99148 -1.16657 0
M  V30 16314 C 1537.66 -0.860947 -1.42045 0
M  V30 16315 O 1538.85 -1.12393 -1.54183 0
M  V30 16316 C 1535.99 -2.3872 -2.49212 0
M  V30 16317 C 1535.1 -3.65117 -2.30898 0
M  V30 16318 C 1534.24 -3.9374 -3.5657 0
M  V30 16319 C 1533.27 -5.1337 -3.33343 0
M  V30 16320 N 1532.41 -5.37945 -4.51176 0
M  V30 16321 H 1537.25 -2.87052 -0.800312 0
M  V30 16322 H 1534.79 -1.42007 -0.383705 0
M  V30 16323 H 1536.75 -2.59695 -3.26518 0
M  V30 16324 H 1535.38 -1.53879 -2.83762 0
M  V30 16325 H 1534.43 -3.5185 -1.44588 0
M  V30 16326 H 1535.74 -4.52578 -2.09701 0
M  V30 16327 H 1534.89 -4.15277 -4.423 0
M  V30 16328 H 1533.63 -3.04723 -3.80782 0
M  V30 16329 H 1532.64 -4.91694 -2.46002 0
M  V30 16330 H 1533.86 -6.0395 -3.10517 0
M  V30 16331 H 1531.81 -4.51884 -4.75539 0
M  V30 16332 H 1531.73 -6.19698 -4.33025 0
M  V30 16333 H 1532.99 -5.63989 -5.38086 0
M  V30 16334 N 1537.22 0.404919 -1.52309 0
M  V30 16335 C 1538.17 1.49363 -1.75953 0
M  V30 16336 C 1539.14 1.54802 -0.60212 0
M  V30 16337 O 1540.33 1.71308 -0.840128 0
M  V30 16338 C 1537.47 2.86767 -1.91987 0
M  V30 16339 C 1536.58 2.90603 -3.19646 0
M  V30 16340 C 1535.71 4.19333 -3.26088 0
M  V30 16341 C 1534.75 4.17161 -4.47932 0
M  V30 16342 N 1533.89 5.37469 -4.51743 0
M  V30 16343 H 1538.73 1.28503 -2.6887 0
M  V30 16344 H 1536.27 0.623684 -1.33224 0
M  V30 16345 H 1538.23 3.66536 -1.99267 0
M  V30 16346 H 1536.86 3.06112 -1.02447 0
M  V30 16347 H 1535.91 2.033 -3.21517 0
M  V30 16348 H 1537.22 2.84864 -4.09456 0
M  V30 16349 H 1536.37 5.07497 -3.32463 0
M  V30 16350 H 1535.11 4.27774 -2.34224 0
M  V30 16351 H 1534.12 3.27386 -4.417 0
M  V30 16352 H 1535.34 4.10356 -5.41096 0
M  V30 16353 H 1533.29 5.46569 -3.62764 0
M  V30 16354 H 1533.21 5.3374 -5.35404 0
M  V30 16355 H 1534.47 6.27575 -4.62353 0
M  V30 16356 N 1538.7 1.43003 0.662408 0
M  V30 16357 C 1539.95 1.44346 1.4245 0
M  V30 16358 C 1540.28 0.064094 1.94094 0
M  V30 16359 O 1539.56 -0.913633 1.71706 0
M  V30 16360 C 1539.84 2.47822 2.61259 0
M  V30 16361 C 1539.69 3.94998 2.15166 0
M  V30 16362 C 1541.01 2.48139 3.63476 0
M  V30 16363 H 1538.13 0.525606 0.51663 0
M  V30 16364 H 1540.77 1.74495 0.751754 0
M  V30 16365 H 1538.92 2.22244 3.18653 0
M  V30 16366 H 1540.59 4.31601 1.62843 0
M  V30 16367 H 1538.84 4.0827 1.46622 0
M  V30 16368 H 1539.51 4.62998 3.00561 0
M  V30 16369 H 1541.98 2.70916 3.15823 0
M  V30 16370 H 1540.86 3.22498 4.44169 0
M  V30 16371 H 1541.12 1.51184 4.15447 0
M  V30 16372 N 1540.18 -0.899904 1.29381 0
M  V30 16373 C 1541.41 -1.68383 1.20227 0
M  V30 16374 C 1541.82 -1.87305 -0.237135 0
M  V30 16375 O 1541.18 -1.40992 -1.15877 0
M  V30 16376 C 1541.23 -3.06845 1.91124 0
M  V30 16377 O 1540.95 -2.88787 3.29444 0
M  V30 16378 C 1542.45 -4.01253 1.88444 0
M  V30 16379 H 1539.67 -0.525917 0.416717 0
M  V30 16380 H 1542.22 -1.12537 1.7075 0
M  V30 16381 H 1540.37 -3.59467 1.44438 0
M  V30 16382 H 1540.79 -3.7652 3.65148 0
M  V30 16383 H 1542.26 -4.95824 2.42616 0
M  V30 16384 H 1542.74 -4.30699 0.859925 0
M  V30 16385 H 1543.34 -3.54562 2.34874 0
M  V30 16386 N 1541.66 -1.11854 -1.11024 0
M  V30 16387 C 1543.07 -0.885443 -1.64368 0
M  V30 16388 C 1543.42 0.581455 -1.87386 0
M  V30 16389 O 1542.55 1.44452 -1.61129 0
M  V30 16390 C 1543.14 -1.60082 -2.98595 0
M  V30 16391 C 1541.7 -1.41403 -3.4883 0
M  V30 16392 C 1540.85 -1.64069 -2.23555 0
M  V30 16393 H 1543.8 -1.27418 -0.94606 0
M  V30 16394 H 1543.82 -1.04832 -3.65774 0
M  V30 16395 H 1543.33 -2.66842 -2.8181 0
M  V30 16396 H 1541.43 -0.368727 -3.70771 0
M  V30 16397 H 1541.54 -2.16603 -4.27341 0
M  V30 16398 H 1539.91 -1.06437 -2.31394 0
M  V30 16399 H 1540.69 -2.72112 -2.09308 0
M  V30 16400 N 1543.14 1.28707 -0.909517 0
M  V30 16401 C 1544.07 2.29845 -0.411552 0
M  V30 16402 C 1545.05 1.62001 0.518615 0
M  V30 16403 O 1546.23 1.89442 0.427252 0
M  V30 16404 C 1543.36 3.45501 0.353013 0
M  V30 16405 C 1542.32 4.25213 -0.487625 0
M  V30 16406 C 1541.64 5.33164 0.405026 0
M  V30 16407 C 1542.94 4.9237 -1.74268 0
M  V30 16408 H 1544.64 2.71746 -1.25676 0
M  V30 16409 H 1542.18 1.30639 -0.605759 0
M  V30 16410 H 1544.14 4.15338 0.712191 0
M  V30 16411 H 1542.86 3.02469 1.23209 0
M  V30 16412 H 1541.52 3.57098 -0.829265 0
M  V30 16413 H 1541.17 4.86375 1.28252 0
M  V30 16414 H 1540.87 5.87399 -0.153811 0
M  V30 16415 H 1542.39 6.0585 0.760179 0
M  V30 16416 H 1543.8 5.5459 -1.45266 0
M  V30 16417 H 1542.2 5.56581 -2.2436 0
M  V30 16418 H 1543.27 4.171 -2.47297 0
M  V30 16419 N 1544.61 0.673042 1.42506 0
M  V30 16420 C 1545.86 0.1918 2.00786 0
M  V30 16421 C 1546.18 -1.20814 1.53829 0
M  V30 16422 O 1547.38 -1.78566 2.04515 0
M  V30 16423 C 1545.84 0.292045 3.58713 0
M  V30 16424 C 1545.45 1.69593 4.14659 0
M  V30 16425 C 1547.19 -0.130575 4.24299 0
M  V30 16426 C 1545.1 1.74904 5.64945 0
M  V30 16427 H 1544.03 0.0679452 0.750932 0
M  V30 16428 H 1546.68 0.837968 1.63249 0
M  V30 16429 H 1545.06 -0.421985 3.93745 0
M  V30 16430 H 1546.23 2.4369 3.9109 0
M  V30 16431 H 1544.55 2.06625 3.61518 0
M  V30 16432 H 1547.15 -0.11102 5.34585 0
M  V30 16433 H 1547.49 -1.16552 3.99651 0
M  V30 16434 H 1548.02 0.532386 3.94221 0
M  V30 16435 H 1544.76 2.76374 5.94388 0
M  V30 16436 H 1544.28 1.0516 5.9051 0
M  V30 16437 H 1545.96 1.50168 6.29332 0
M  V30 16438 N 1546.09 -1.52004 0.416254 0
M  V30 16439 C 1547.04 -2.24037 -0.423226 0
M  V30 16440 C 1548.03 -1.25444 -1.0076 0
M  V30 16441 O 1549.22 -1.50646 -0.92924 0
M  V30 16442 C 1546.35 -3.07048 -1.53547 0
M  V30 16443 C 1545.43 -4.13056 -0.961518 0
M  V30 16444 N 1545.82 -5.0567 -0.114849 0
M  V30 16445 C 1544.12 -4.28667 -1.2313 0
M  V30 16446 C 1544.82 -5.81338 0.205249 0
M  V30 16447 N 1543.8 -5.42084 -0.405736 0
M  V30 16448 H 1547.6 -2.93 0.229864 0
M  V30 16449 H 1545.12 -1.60804 0.227087 0
M  V30 16450 H 1547.11 -3.57212 -2.14954 0
M  V30 16451 H 1545.77 -2.39626 -2.19111 0
M  V30 16452 H 1546.78 -5.17296 0.250006 0
M  V30 16453 H 1543.46 -3.72474 -1.88599 0
M  V30 16454 H 1544.85 -6.6594 0.892938 0
M  V30 16455 N 1547.57 -0.146903 -1.56914 0
M  V30 16456 C 1548.85 0.549291 -1.87729 0
M  V30 16457 C 1549.23 1.82971 -1.05284 0
M  V30 16458 O 1548.58 2.28073 -0.139628 0
M  V30 16459 C 1548.79 0.814835 -3.39354 0
M  V30 16460 C 1550.13 1.15565 -4.0857 0
M  V30 16461 O 1551.16 0.904191 -3.44533 0
M  V30 16462 O 1550.02 1.62886 -5.21661 0
M  V30 16463 H 1547.11 0.280196 -0.778087 0
M  V30 16464 H 1549.66 -0.183507 -1.68705 0
M  V30 16465 H 1548.43 -0.0913527 -3.91193 0
M  V30 16466 H 1548.05 1.60182 -3.63906 0
M  V30 16467 N 1549.05 1.57088 0.126881 0
M  V30 16468 C 1550.46 1.52205 0.480175 0
M  V30 16469 C 1550.66 0.858634 1.8229 0
M  V30 16470 O 1549.72 0.437636 2.48679 0
M  V30 16471 C 1551.03 2.96974 0.471931 0
M  V30 16472 C 1552.58 3.08021 0.556037 0
M  V30 16473 C 1553.06 4.54335 0.57826 0
M  V30 16474 N 1554.55 4.58758 0.639922 0
M  V30 16475 C 1555.28 5.69372 0.678434 0
M  V30 16476 N 1554.78 6.89503 0.67507 0
M  V30 16477 N 1556.57 5.57459 0.720845 0
M  V30 16478 H 1548.72 1.98604 -0.753008 0
M  V30 16479 H 1550.99 0.90666 -0.276895 0
M  V30 16480 H 1550.69 3.48849 -0.44687 0
M  V30 16481 H 1550.57 3.53994 1.3026 0
M  V30 16482 H 1552.95 2.56153 1.46526 0
M  V30 16483 H 1553.03 2.54009 -0.302171 0
M  V30 16484 H 1552.68 5.06847 -0.326884 0
M  V30 16485 H 1552.61 5.06151 1.45324 0
M  V30 16486 H 1555.1 3.72285 0.649005 0
M  V30 16487 H 1555.41 7.6956 0.706862 0
M  V30 16488 H 1553.76 6.92023 0.64262 0
M  V30 16489 H 1556.95 4.62517 0.720783 0
M  V30 16490 H 1557.12 6.43675 0.747392 0
M  V30 16491 N 1550.53 -0.396836 1.52522 0
M  V30 16492 C 1551.46 -1.50564 1.71481 0
M  V30 16493 C 1552.44 -1.5256 0.562524 0
M  V30 16494 O 1553.62 -1.71083 0.791378 0
M  V30 16495 C 1550.75 -2.89058 1.76531 0
M  V30 16496 C 1549.79 -3.04922 2.98202 0
M  V30 16497 S 1550.63 -2.76944 4.58326 0
M  V30 16498 C 1551.78 -4.17645 4.66179 0
M  V30 16499 H 1552.02 -1.34256 2.6526 0
M  V30 16500 H 1549.55 -0.589208 1.42715 0
M  V30 16501 H 1551.51 -3.6887 1.80125 0
M  V30 16502 H 1550.17 -3.02699 0.838582 0
M  V30 16503 H 1549.36 -4.06277 2.98254 0
M  V30 16504 H 1548.96 -2.32992 2.92559 0
M  V30 16505 H 1551.26 -5.11461 4.44312 0
M  V30 16506 H 1552.2 -4.22612 5.68159 0
M  V30 16507 H 1552.61 -4.03189 3.95093 0
M  V30 16508 N 1552.01 -1.43353 -0.654814 0
M  V30 16509 C 1552.94 -1.51194 -1.7794 0
M  V30 16510 C 1553.92 -0.366747 -1.66099 0
M  V30 16511 O 1555.1 -0.58375 -1.85219 0
M  V30 16512 C 1552.23 -1.43298 -3.16359 0
M  V30 16513 C 1551.19 -2.5605 -3.42961 0
M  V30 16514 C 1550.51 -2.33208 -4.81163 0
M  V30 16515 C 1551.81 -3.98303 -3.37864 0
M  V30 16516 H 1553.51 -2.4532 -1.71635 0
M  V30 16517 H 1551.05 -1.18072 -0.824319 0
M  V30 16518 H 1553 -1.47388 -3.94784 0
M  V30 16519 H 1551.73 -0.456761 -3.2339 0
M  V30 16520 H 1550.39 -2.5131 -2.66906 0
M  V30 16521 H 1550.04 -1.33833 -4.84869 0
M  V30 16522 H 1549.74 -3.08789 -4.99923 0
M  V30 16523 H 1551.26 -2.39079 -5.61848 0
M  V30 16524 H 1552.67 -4.04538 -4.06229 0
M  V30 16525 H 1551.07 -4.73897 -3.6816 0
M  V30 16526 H 1552.14 -4.23552 -2.36075 0
M  V30 16527 N 1553.48 0.89303 -1.29857 0
M  V30 16528 C 1554.42 2.00005 -1.09879 0
M  V30 16529 C 1555.39 1.62598 -0.00873108 0
M  V30 16530 O 1556.58 1.87814 -0.160726 0
M  V30 16531 C 1553.71 3.31924 -0.67412 0
M  V30 16532 C 1552.75 3.88317 -1.76387 0
M  V30 16533 S 1553.58 4.16602 -3.36456 0
M  V30 16534 C 1554.74 5.51553 -2.95873 0
M  V30 16535 H 1554.97 2.16644 -2.036 0
M  V30 16536 H 1552.51 1.04045 -1.14079 0
M  V30 16537 H 1554.46 4.0818 -0.435825 0
M  V30 16538 H 1553.13 3.13154 0.243592 0
M  V30 16539 H 1552.32 4.83617 -1.41882 0
M  V30 16540 H 1551.92 3.18772 -1.95603 0
M  V30 16541 H 1554.21 6.32294 -2.43332 0
M  V30 16542 H 1555.16 5.90988 -3.90049 0
M  V30 16543 H 1555.56 5.13728 -2.33973 0
M  V30 16544 N 1554.96 1.12442 1.10429 0
M  V30 16545 C 1556.24 0.791191 1.78884 0
M  V30 16546 C 1556.62 -0.719044 1.98477 0
M  V30 16547 O 1555.97 -1.65275 1.57786 0
M  V30 16548 C 1556.18 1.56632 3.11877 0
M  V30 16549 C 1557.52 1.75236 3.86752 0
M  V30 16550 O 1558.55 1.53145 3.21598 0
M  V30 16551 O 1557.41 2.12025 5.03694 0
M  V30 16552 H 1554.5 0.287788 0.775311 0
M  V30 16553 H 1557.05 1.22844 1.17078 0
M  V30 16554 H 1555.82 2.59317 2.93037 0
M  V30 16555 H 1555.44 1.12332 3.81402 0
M  V30 16556 N 1556.44 -1.28223 0.91633 0
M  V30 16557 C 1557.39 -2.27215 0.40521 0
M  V30 16558 C 1558.36 -1.57693 -0.521734 0
M  V30 16559 O 1559.54 -1.85577 -0.443369 0
M  V30 16560 C 1556.68 -3.43358 -0.346303 0
M  V30 16561 C 1555.79 -4.27622 0.613443 0
M  V30 16562 C 1554.93 -5.30969 -0.156775 0
M  V30 16563 C 1553.97 -6.06897 0.796418 0
M  V30 16564 N 1553.11 -7.02075 0.0595539 0
M  V30 16565 H 1557.95 -2.70312 1.2544 0
M  V30 16566 H 1555.48 -1.32933 0.629859 0
M  V30 16567 H 1557.44 -4.09492 -0.798231 0
M  V30 16568 H 1556.07 -3.01244 -1.15982 0
M  V30 16569 H 1555.12 -3.61508 1.1839 0
M  V30 16570 H 1556.43 -4.80397 1.34239 0
M  V30 16571 H 1555.59 -6.02999 -0.669146 0
M  V30 16572 H 1554.33 -4.78968 -0.918755 0
M  V30 16573 H 1553.33 -5.33716 1.32014 0
M  V30 16574 H 1554.56 -6.60987 1.558 0
M  V30 16575 H 1552.5 -6.5242 -0.684388 0
M  V30 16576 H 1552.42 -7.52484 0.728275 0
M  V30 16577 H 1553.69 -7.78299 -0.432538 0
M  V30 16578 N 1557.92 -0.68059 -1.42147 0
M  V30 16579 C 1558.87 0.00572503 -2.32599 0
M  V30 16580 C 1559.86 0.784449 -1.50142 0
M  V30 16581 O 1561.07 0.69176 -1.66177 0
M  V30 16582 H 1557.44 0.0206483 -0.751716 0
M  V30 16583 H 1559.41 -0.774447 -2.88175 0
M  V30 16584 C 1558.16 0.939019 -3.3478 0
M  V30 16585 H 1557.48 0.349225 -3.98272 0
M  V30 16586 H 1558.92 1.38782 -4.00644 0
M  V30 16587 C 1557.38 2.04814 -2.67493 0
M  V30 16588 O 1557.91 3.13526 -2.51126 0
M  V30 16589 N 1556.12 1.82153 -2.26426 0
M  V30 16590 H 1555.67 0.93743 -2.39938 0
M  V30 16591 H 1555.62 2.56551 -1.81738 0
M  V30 16592 N 1559.4 1.51781 -0.424309 0
M  V30 16593 C 1560.36 2.25996 0.381903 0
M  V30 16594 C 1561.36 1.28938 0.960813 0
M  V30 16595 O 1562.55 1.52757 0.837306 0
M  V30 16596 C 1559.68 3.04181 1.53904 0
M  V30 16597 H 1560.87 2.98697 -0.268336 0
M  V30 16598 H 1558.43 1.55293 -0.177167 0
M  V30 16599 H 1559.16 2.35866 2.22571 0
M  V30 16600 H 1558.95 3.75457 1.13025 0
M  V30 16601 H 1560.44 3.60434 2.10896 0
M  V30 16602 N 1560.87 0.155222 1.56834 0
M  V30 16603 C 1562.1 -0.500542 2.00754 0
M  V30 16604 C 1562.52 -1.57878 1.03538 0
M  V30 16605 O 1561.87 -1.82469 0.0336651 0
M  V30 16606 C 1561.92 -1.09366 3.4456 0
M  V30 16607 O 1561.65 -0.0584788 4.38061 0
M  V30 16608 C 1563.15 -1.82923 4.038 0
M  V30 16609 H 1560.37 -0.129589 0.658368 0
M  V30 16610 H 1562.91 0.252223 2.02939 0
M  V30 16611 H 1561.07 -1.797 3.43201 0
M  V30 16612 H 1561.48 -0.494125 5.22167 0
M  V30 16613 H 1562.95 -2.19703 5.06394 0
M  V30 16614 H 1563.43 -2.71823 3.44976 0
M  V30 16615 H 1564.04 -1.17268 4.08813 0
M  V30 16616 N 1562.35 -1.57153 -0.118549 0
M  V30 16617 C 1563.31 -1.99438 -1.12947 0
M  V30 16618 C 1564.31 -0.884588 -1.34282 0
M  V30 16619 O 1565.5 -1.15062 -1.30792 0
M  V30 16620 C 1562.64 -2.33492 -2.48384 0
M  V30 16621 H 1563.83 -2.89952 -0.766034 0
M  V30 16622 H 1561.38 -1.5203 -0.362858 0
M  V30 16623 H 1562.12 -1.45859 -2.89647 0
M  V30 16624 H 1561.9 -3.14433 -2.34252 0
M  V30 16625 H 1563.39 -2.66945 -3.21139 0
M  V30 16626 N 1563.83 0.388742 -1.5273 0
M  V30 16627 C 1564.76 1.48133 -1.80496 0
M  V30 16628 C 1565.74 1.56899 -0.657008 0
M  V30 16629 O 1566.93 1.71844 -0.904621 0
M  V30 16630 C 1564.06 2.85742 -1.97405 0
M  V30 16631 C 1563.01 2.91815 -3.13094 0
M  V30 16632 C 1562.34 4.31876 -3.15258 0
M  V30 16633 C 1563.64 2.61438 -4.52159 0
M  V30 16634 H 1565.33 1.25147 -2.7199 0
M  V30 16635 H 1562.88 0.600603 -1.30877 0
M  V30 16636 H 1564.83 3.62182 -2.15412 0
M  V30 16637 H 1563.55 3.10065 -1.02601 0
M  V30 16638 H 1562.21 2.17824 -2.9487 0
M  V30 16639 H 1561.86 4.53239 -2.18135 0
M  V30 16640 H 1561.56 4.3686 -3.92972 0
M  V30 16641 H 1563.08 5.10221 -3.3542 0
M  V30 16642 H 1564.5 3.27596 -4.70483 0
M  V30 16643 H 1562.89 2.77771 -5.31943 0
M  V30 16644 H 1563.96 1.56778 -4.58856 0
M  V30 16645 N 1565.31 1.43698 0.647203 0
M  V30 16646 C 1566.72 1.27231 0.963563 0
M  V30 16647 C 1566.92 0.196385 2.00541 0
M  V30 16648 O 1565.98 -0.423162 2.48929 0
M  V30 16649 C 1567.29 2.63863 1.44211 0
M  V30 16650 C 1568.84 2.71444 1.55844 0
M  V30 16651 C 1569.32 4.08508 2.07087 0
M  V30 16652 N 1570.81 4.10603 2.14381 0
M  V30 16653 C 1571.54 5.13496 2.55166 0
M  V30 16654 N 1571.04 6.26759 2.95203 0
M  V30 16655 N 1572.83 5.0085 2.55158 0
M  V30 16656 H 1564.98 2.12358 -0.0420956 0
M  V30 16657 H 1567.24 0.946989 0.0437628 0
M  V30 16658 H 1566.95 3.43589 0.75096 0
M  V30 16659 H 1566.82 2.89666 2.41605 0
M  V30 16660 H 1569.21 1.92046 2.24058 0
M  V30 16661 H 1569.29 2.49399 0.56866 0
M  V30 16662 H 1568.94 4.88375 1.39472 0
M  V30 16663 H 1568.87 4.2792 3.06907 0
M  V30 16664 H 1571.36 3.2885 1.86188 0
M  V30 16665 H 1571.67 7.01096 3.25091 0
M  V30 16666 H 1570.02 6.30222 2.92993 0
M  V30 16667 H 1573.21 4.11428 2.2326 0
M  V30 16668 H 1573.38 5.81165 2.86621 0
M  V30 16669 N 1566.79 -0.886131 1.30328 0
M  V30 16670 C 1567.72 -2.00793 1.19183 0
M  V30 16671 C 1568.7 -1.69899 0.08276 0
M  V30 16672 O 1569.88 -1.92389 0.264593 0
M  V30 16673 C 1567.01 -3.35922 0.881669 0
M  V30 16674 C 1565.97 -3.81072 1.94855 0
M  V30 16675 C 1565.29 -5.1348 1.4914 0
M  V30 16676 C 1566.59 -3.99923 3.35944 0
M  V30 16677 H 1568.29 -2.10375 2.13032 0
M  V30 16678 H 1565.83 -1.0108 1.02561 0
M  V30 16679 H 1567.79 -4.13922 0.790359 0
M  V30 16680 H 1566.51 -3.26469 -0.0925037 0
M  V30 16681 H 1565.17 -3.053 2.02947 0
M  V30 16682 H 1564.82 -5.00453 0.50553 0
M  V30 16683 H 1564.52 -5.44659 2.205 0
M  V30 16684 H 1566.04 -5.94005 1.41386 0
M  V30 16685 H 1567.45 -4.68364 3.30617 0
M  V30 16686 H 1565.85 -4.42477 4.05381 0
M  V30 16687 H 1566.92 -3.03816 3.77921 0
M  V30 16688 N 1568.26 -1.13026 -1.09832 0
M  V30 16689 C 1569.21 -0.799174 -2.1844 0
M  V30 16690 C 1570.21 0.216695 -1.68008 0
M  V30 16691 O 1571.41 0.0742662 -1.79847 0
M  V30 16692 H 1567.79 -0.24064 -0.712458 0
M  V30 16693 H 1569.76 -1.72342 -2.436 0
M  V30 16694 C 1568.51 -0.276925 -3.46595 0
M  V30 16695 H 1567.83 -1.04993 -3.85768 0
M  V30 16696 H 1569.27 -0.0836468 -4.23917 0
M  V30 16697 C 1567.73 0.996479 -3.21826 0
M  V30 16698 O 1568.26 2.0731 -3.44072 0
M  V30 16699 N 1566.47 0.925903 -2.75455 0
M  V30 16700 H 1566.01 0.0496383 -2.57552 0
M  V30 16701 H 1565.97 1.77853 -2.5926 0
M  V30 16702 N 1569.74 1.27735 -0.923117 0
M  V30 16703 C 1570.69 2.24644 -0.389748 0
M  V30 16704 C 1571.68 1.52822 0.50341 0
M  V30 16705 O 1572.87 1.73672 0.341602 0
M  V30 16706 C 1570 3.41402 0.360535 0
M  V30 16707 C 1569.08 4.20533 -0.548877 0
M  V30 16708 N 1569.47 4.77552 -1.66667 0
M  V30 16709 C 1567.77 4.44617 -0.35102 0
M  V30 16710 C 1568.47 5.37179 -2.23191 0
M  V30 16711 N 1567.45 5.21857 -1.52204 0
M  V30 16712 H 1571.25 2.66308 -1.24328 0
M  V30 16713 H 1568.77 1.42614 -0.776856 0
M  V30 16714 H 1570.76 4.09922 0.759555 0
M  V30 16715 H 1569.42 3.0127 1.21105 0
M  V30 16716 H 1570.43 4.75638 -2.04912 0
M  V30 16717 H 1567.11 4.14967 0.459214 0
M  V30 16718 H 1568.5 5.92274 -3.17272 0
M  V30 16719 N 1571.22 0.688118 1.41784 0
M  V30 16720 C 1572.15 -0.0323076 2.28177 0
M  V30 16721 C 1573.13 -0.795419 1.41816 0
M  V30 16722 O 1574.32 -0.787785 1.71249 0
M  V30 16723 C 1571.44 -1.05308 3.21913 0
M  V30 16724 C 1570.49 -0.384003 4.24768 0
M  V30 16725 S 1571.32 0.86817 5.28416 0
M  V30 16726 C 1572.48 -0.151191 6.25717 0
M  V30 16727 H 1572.71 0.700456 2.88931 0
M  V30 16728 H 1570.24 0.478125 1.46811 0
M  V30 16729 H 1572.2 -1.63689 3.76452 0
M  V30 16730 H 1570.86 -1.75837 2.6027 0
M  V30 16731 H 1570.06 -1.15469 4.90594 0
M  V30 16732 H 1569.66 0.126545 3.73786 0
M  V30 16733 H 1571.95 -1.0068 6.69977 0
M  V30 16734 H 1572.89 0.472955 7.06519 0
M  V30 16735 H 1573.3 -0.502631 5.62258 0
M  V30 16736 N 1572.7 -1.51554 0.432352 0
M  V30 16737 C 1573.92 -2.06947 -0.136995 0
M  V30 16738 C 1574.35 -1.29817 -1.36122 0
M  V30 16739 O 1573.71 -0.334733 -1.78183 0
M  V30 16740 C 1573.75 -3.57871 -0.442785 0
M  V30 16741 O 1572.86 -3.82966 -1.53007 0
M  V30 16742 H 1572.2 -0.663988 -0.00405152 0
M  V30 16743 H 1574.73 -1.95225 0.612249 0
M  V30 16744 H 1574.74 -4.02042 -0.694694 0
M  V30 16745 H 1573.41 -4.13436 0.452013 0
M  V30 16746 H 1571.99 -3.50661 -1.26851 0
M  V30 16747 N 1574.18 -0.163538 -1.56749 0
M  V30 16748 C 1575.12 0.786745 -2.18891 0
M  V30 16749 C 1576.12 1.24323 -1.15066 0
M  V30 16750 O 1577.32 1.20979 -1.33282 0
M  V30 16751 H 1573.7 0.271967 -0.701098 0
M  V30 16752 H 1575.67 0.2386 -2.97445 0
M  V30 16753 C 1574.42 2.00905 -2.83782 0
M  V30 16754 H 1573.74 1.66681 -3.63397 0
M  V30 16755 H 1575.18 2.65302 -3.30743 0
M  V30 16756 C 1573.64 2.8277 -1.83148 0
M  V30 16757 O 1574.17 3.79666 -1.31213 0
M  V30 16758 N 1572.38 2.47629 -1.52079 0
M  V30 16759 H 1571.92 1.68896 -1.94504 0
M  V30 16760 H 1571.88 3.02693 -0.849963 0
M  V30 16761 N 1575.65 1.57214 0.110213 0
M  V30 16762 C 1576.6 2.00978 1.13474 0
M  V30 16763 C 1577.57 0.883436 1.40658 0
M  V30 16764 O 1578.76 1.14832 1.52376 0
M  V30 16765 C 1575.9 2.42654 2.45383 0
M  V30 16766 C 1575.01 3.68744 2.2506 0
M  V30 16767 C 1574.14 3.99363 3.50261 0
M  V30 16768 C 1573.18 5.18608 3.25133 0
M  V30 16769 N 1572.32 5.45055 4.42561 0
M  V30 16770 H 1577.16 2.88289 0.754543 0
M  V30 16771 H 1574.7 1.426 0.361064 0
M  V30 16772 H 1576.66 2.64857 3.22345 0
M  V30 16773 H 1575.29 1.58374 2.81278 0
M  V30 16774 H 1574.34 3.54106 1.38972 0
M  V30 16775 H 1575.65 4.55857 2.02475 0
M  V30 16776 H 1574.8 4.22261 4.35638 0
M  V30 16777 H 1573.54 3.10743 3.75886 0
M  V30 16778 H 1572.55 4.95546 2.38148 0
M  V30 16779 H 1573.77 6.08814 3.0087 0
M  V30 16780 H 1571.72 4.59392 4.6829 0
M  V30 16781 H 1571.64 6.26508 4.23111 0
M  V30 16782 H 1572.9 5.72478 5.29046 0
M  V30 16783 N 1577.13 -0.380637 1.52934 0
M  V30 16784 C 1578.36 -1.14583 1.72274 0
M  V30 16785 C 1578.78 -1.83484 0.444864 0
M  V30 16786 O 1578.13 -1.72997 -0.581245 0
M  V30 16787 C 1578.18 -2.18756 2.87799 0
M  V30 16788 O 1577.9 -1.52662 4.10641 0
M  V30 16789 C 1579.41 -3.07938 3.18887 0
M  V30 16790 H 1576.63 -0.343218 0.576578 0
M  V30 16791 H 1579.17 -0.444149 1.99619 0
M  V30 16792 H 1577.32 -2.84546 2.62892 0
M  V30 16793 H 1577.74 -2.21949 4.75225 0
M  V30 16794 H 1579.21 -3.77045 4.03164 0
M  V30 16795 H 1579.69 -3.71913 2.33618 0
M  V30 16796 H 1580.3 -2.47783 3.45664 0
M  V30 16797 N 1578.61 -1.44039 -0.639573 0
M  V30 16798 C 1579.84 -1.49844 -1.42669 0
M  V30 16799 C 1580.25 -0.120599 -1.88414 0
M  V30 16800 O 1579.61 0.871875 -1.60327 0
M  V30 16801 C 1579.66 -2.45597 -2.65263 0
M  V30 16802 O 1579.38 -3.78023 -2.21427 0
M  V30 16803 C 1580.88 -2.60781 -3.5848 0
M  V30 16804 H 1578.1 -0.508477 -0.437826 0
M  V30 16805 H 1580.65 -1.88919 -0.782923 0
M  V30 16806 H 1578.8 -2.09679 -3.2575 0
M  V30 16807 H 1579.22 -4.29642 -3.00846 0
M  V30 16808 H 1580.69 -3.31826 -4.4113 0
M  V30 16809 H 1581.17 -1.65727 -4.06732 0
M  V30 16810 H 1581.77 -2.97565 -3.03867 0
M  V30 16811 N 1580.09 0.879207 -1.30796 0
M  V30 16812 C 1581.31 1.66975 -1.23021 0
M  V30 16813 C 1581.74 1.87004 0.202798 0
M  V30 16814 O 1581.1 1.40514 1.14566 0
M  V30 16815 C 1581.14 3.02028 -1.97007 0
M  V30 16816 O 1580.25 3.91338 -1.30109 0
M  V30 16817 H 1579.59 0.509998 -0.425204 0
M  V30 16818 H 1582.12 1.09688 -1.72713 0
M  V30 16819 H 1582.13 3.5203 -2.06249 0
M  V30 16820 H 1580.8 2.8677 -3.01224 0
M  V30 16821 H 1579.38 3.49781 -1.29258 0
M  V30 16822 N 1581.57 1.13606 1.09231 0
M  V30 16823 C 1582.79 0.922667 1.85746 0
M  V30 16824 C 1583.22 -0.523381 1.80672 0
M  V30 16825 O 1582.58 -1.37156 1.18566 0
M  V30 16826 C 1582.62 1.41762 3.31566 0
M  V30 16827 O 1581.73 0.60418 4.0795 0
M  V30 16828 H 1581.07 0.330523 0.575891 0
M  V30 16829 H 1583.6 1.51123 1.37924 0
M  V30 16830 H 1583.61 1.42212 3.82413 0
M  V30 16831 H 1582.28 2.47048 3.34574 0
M  V30 16832 H 1580.86 0.667721 3.66873 0
M  V30 16833 N 1583.05 -1.27244 0.929878 0
M  V30 16834 C 1583.99 -2.26773 0.429287 0
M  V30 16835 C 1584.96 -1.58238 -0.50498 0
M  V30 16836 O 1586.15 -1.86037 -0.423661 0
M  V30 16837 C 1583.29 -3.43706 -0.309865 0
M  V30 16838 C 1582.4 -4.26948 0.658764 0
M  V30 16839 C 1581.54 -5.31105 -0.10045 0
M  V30 16840 C 1580.57 -6.06018 0.860743 0
M  V30 16841 N 1579.71 -7.01972 0.134015 0
M  V30 16842 H 1584.55 -2.68967 1.283 0
M  V30 16843 H 1582.09 -1.32257 0.643923 0
M  V30 16844 H 1584.05 -4.10316 -0.754754 0
M  V30 16845 H 1582.68 -3.02457 -1.1278 0
M  V30 16846 H 1581.73 -3.60232 1.22218 0
M  V30 16847 H 1583.04 -4.78946 1.39326 0
M  V30 16848 H 1582.19 -6.03674 -0.605153 0
M  V30 16849 H 1580.93 -4.79915 -0.867902 0
M  V30 16850 H 1579.94 -5.32285 1.37668 0
M  V30 16851 H 1581.16 -6.59297 1.62801 0
M  V30 16852 H 1579.11 -6.53109 -0.615152 0
M  V30 16853 H 1579.03 -7.51669 0.808045 0
M  V30 16854 H 1580.29 -7.78714 -0.349964 0
M  V30 16855 N 1584.52 -0.695628 -1.41417 0
M  V30 16856 C 1585.47 -0.0189456 -2.32592 0
M  V30 16857 C 1586.47 0.76848 -1.50966 0
M  V30 16858 O 1587.67 0.674096 -1.66901 0
M  V30 16859 H 1584.05 0.0126742 -0.751893 0
M  V30 16860 H 1586.02 -0.804968 -2.87337 0
M  V30 16861 C 1584.77 0.903458 -3.35757 0
M  V30 16862 H 1584.09 0.306963 -3.9862 0
M  V30 16863 H 1585.53 1.34525 -4.02093 0
M  V30 16864 C 1583.99 2.01966 -2.69651 0
M  V30 16865 O 1584.52 3.10845 -2.54438 0
M  V30 16866 N 1582.72 1.79741 -2.28345 0
M  V30 16867 H 1582.27 0.911929 -2.40918 0
M  V30 16868 H 1582.23 2.54609 -1.84449 0
M  V30 16869 N 1586 1.51322 -0.440383 0
M  V30 16870 C 1586.93 2.24398 0.414827 0
M  V30 16871 C 1587.91 1.26454 1.02216 0
M  V30 16872 O 1589.1 1.55597 1.06404 0
M  V30 16873 C 1586.22 2.99671 1.57844 0
M  V30 16874 C 1585.27 4.12297 1.0915 0
M  V30 16875 S 1586.1 5.35491 0.0310506 0
M  V30 16876 C 1587.26 6.14303 1.19926 0
M  V30 16877 H 1587.49 2.96588 -0.205572 0
M  V30 16878 H 1585.02 1.52753 -0.224932 0
M  V30 16879 H 1586.98 3.43638 2.24551 0
M  V30 16880 H 1585.64 2.27065 2.17027 0
M  V30 16881 H 1584.84 4.64254 1.96173 0
M  V30 16882 H 1584.44 3.70607 0.502621 0
M  V30 16883 H 1586.73 6.43575 2.11703 0
M  V30 16884 H 1587.67 7.04434 0.719591 0
M  V30 16885 H 1588.08 5.45845 1.43921 0
M  V30 16886 N 1587.48 0.171848 1.5666 0
M  V30 16887 C 1588.39 -0.770721 2.21579 0
M  V30 16888 C 1589.41 -1.25273 1.20759 0
M  V30 16889 O 1590.58 -1.30474 1.53422 0
M  V30 16890 C 1587.65 -1.98256 2.84422 0
M  V30 16891 C 1586.71 -1.54738 4.00443 0
M  V30 16892 C 1585.94 -2.70145 4.6028 0
M  V30 16893 O 1586.16 -3.87026 4.19007 0
M  V30 16894 O 1585.1 -2.44189 5.50141 0
M  V30 16895 H 1588.92 -0.247974 3.02686 0
M  V30 16896 H 1586.51 -0.0563734 1.49294 0
M  V30 16897 H 1588.39 -2.69127 3.24266 0
M  V30 16898 H 1587.07 -2.49435 2.0631 0
M  V30 16899 H 1585.97 -0.808152 3.65267 0
M  V30 16900 H 1587.31 -1.08249 4.80149 0
M  V30 16901 N 1588.96 -1.5727 -0.101874 0
M  V30 16902 C 1589.89 -1.96813 -1.15498 0
M  V30 16903 C 1590.87 -0.840319 -1.39203 0
M  V30 16904 O 1592.05 -1.10002 -1.53075 0
M  V30 16905 C 1589.18 -2.27908 -2.5055 0
M  V30 16906 C 1588.23 -3.50388 -2.43168 0
M  V30 16907 S 1589.06 -5.02354 -1.85475 0
M  V30 16908 C 1590.21 -5.36619 -3.22166 0
M  V30 16909 H 1590.45 -2.8583 -0.81785 0
M  V30 16910 H 1587.98 -1.5127 -0.309296 0
M  V30 16911 H 1589.94 -2.465 -3.2825 0
M  V30 16912 H 1588.6 -1.39475 -2.81435 0
M  V30 16913 H 1587.79 -3.69565 -3.42692 0
M  V30 16914 H 1587.39 -3.31271 -1.73596 0
M  V30 16915 H 1589.69 -5.32849 -4.18423 0
M  V30 16916 H 1590.63 -6.37703 -3.07799 0
M  V30 16917 H 1591.04 -4.64082 -3.21385 0
M  V30 16918 N 1590.44 0.372521 -1.53134 0
M  V30 16919 C 1591.68 1.11754 -1.6923 0
M  V30 16920 C 1592.01 1.89167 -0.439265 0
M  V30 16921 O 1591.29 1.86164 0.563317 0
M  V30 16922 C 1591.57 2.08242 -2.93781 0
M  V30 16923 C 1591.43 1.34484 -4.29225 0
M  V30 16924 C 1592.74 3.08457 -3.13914 0
M  V30 16925 H 1589.86 0.404898 -0.615814 0
M  V30 16926 H 1592.51 0.399101 -1.85761 0
M  V30 16927 H 1590.66 2.69507 -2.79818 0
M  V30 16928 H 1592.33 0.76056 -4.54987 0
M  V30 16929 H 1590.57 0.646673 -4.28953 0
M  V30 16930 H 1591.24 2.05071 -5.12494 0
M  V30 16931 H 1593.72 2.57292 -3.27017 0
M  V30 16932 H 1592.59 3.73198 -4.0251 0
M  V30 16933 H 1592.85 3.78243 -2.28878 0
M  V30 16934 N 1591.91 1.44376 0.631925 0
M  V30 16935 C 1592.85 1.47167 1.75711 0
M  V30 16936 C 1593.86 0.365158 1.58652 0
M  V30 16937 O 1595.05 0.630852 1.66981 0
M  V30 16938 C 1592.15 1.28916 3.13423 0
M  V30 16939 C 1591.32 2.52798 3.56948 0
M  V30 16940 C 1590.38 2.29458 4.73535 0
M  V30 16941 O 1589.41 3.02941 4.81887 0
M  V30 16942 N 1590.61 1.32467 5.65184 0
M  V30 16943 H 1593.37 2.44168 1.73788 0
M  V30 16944 H 1590.93 1.39805 0.816465 0
M  V30 16945 H 1592.93 1.1115 3.89137 0
M  V30 16946 H 1591.5 0.402828 3.09994 0
M  V30 16947 H 1590.72 2.85846 2.71451 0
M  V30 16948 H 1592 3.35198 3.82779 0
M  V30 16949 H 1591.4 0.717762 5.61128 0
M  V30 16950 H 1589.96 1.2068 6.40531 0
M  V30 16951 N 1593.39 -0.872258 1.31261 0
M  V30 16952 C 1594.32 -1.9853 1.14537 0
M  V30 16953 C 1595.34 -1.62578 0.0850723 0
M  V30 16954 O 1596.53 -1.75379 0.332343 0
M  V30 16955 C 1593.63 -3.31005 0.72727 0
M  V30 16956 C 1592.8 -3.95313 1.87208 0
M  V30 16957 C 1591.86 -5.06101 1.44042 0
M  V30 16958 O 1590.88 -5.27045 2.1497 0
M  V30 16959 N 1592.09 -5.79581 0.32653 0
M  V30 16960 H 1594.85 -2.13423 2.10406 0
M  V30 16961 H 1592.41 -1.0461 1.23565 0
M  V30 16962 H 1594.4 -4.02502 0.421255 0
M  V30 16963 H 1592.97 -3.12287 -0.13975 0
M  V30 16964 H 1592.19 -3.16825 2.34553 0
M  V30 16965 H 1593.48 -4.35015 2.63893 0
M  V30 16966 H 1592.88 -5.65083 -0.264202 0
M  V30 16967 H 1591.44 -6.51751 0.0800358 0
M  V30 16968 N 1594.87 -1.14184 -1.08627 0
M  V30 16969 C 1595.82 -0.826718 -2.15486 0
M  V30 16970 C 1596.79 0.214769 -1.64706 0
M  V30 16971 O 1597.97 0.0851909 -1.9061 0
M  V30 16972 C 1595.11 -0.307888 -3.43724 0
M  V30 16973 C 1594.22 -1.40941 -4.08362 0
M  V30 16974 C 1593.36 -0.848059 -5.24387 0
M  V30 16975 C 1592.4 -1.92741 -5.80962 0
M  V30 16976 N 1591.54 -1.3834 -6.88336 0
M  V30 16977 H 1596.38 -1.74198 -2.41783 0
M  V30 16978 H 1593.91 -0.869406 -1.18658 0
M  V30 16979 H 1595.87 0.0111149 -4.17199 0
M  V30 16980 H 1594.5 0.570488 -3.17719 0
M  V30 16981 H 1593.55 -1.84485 -3.3267 0
M  V30 16982 H 1594.86 -2.22485 -4.46433 0
M  V30 16983 H 1594.02 -0.480826 -6.04792 0
M  V30 16984 H 1592.76 -0.00163783 -4.877 0
M  V30 16985 H 1591.76 -2.30362 -4.99213 0
M  V30 16986 H 1592.99 -2.77738 -6.19708 0
M  V30 16987 H 1590.93 -0.559124 -6.53613 0
M  V30 16988 H 1590.85 -2.13524 -7.2522 0
M  V30 16989 H 1592.12 -1.044 -7.72477 0
M  V30 16990 N 1596.35 1.26749 -0.936613 0
M  V30 16991 C 1597.3 2.26542 -0.441307 0
M  V30 16992 C 1598.27 1.58503 0.496581 0
M  V30 16993 O 1599.45 1.86259 0.41379 0
M  V30 16994 C 1596.59 3.43866 0.291633 0
M  V30 16995 C 1595.7 4.26592 -0.681397 0
M  V30 16996 C 1594.84 5.31151 0.0722826 0
M  V30 16997 C 1593.88 6.05553 -0.892869 0
M  V30 16998 N 1593.01 7.01891 -0.17124 0
M  V30 16999 H 1597.85 2.68282 -1.29725 0
M  V30 17000 H 1595.39 1.31914 -0.650928 0
M  V30 17001 H 1597.35 4.10711 0.732984 0
M  V30 17002 H 1595.98 3.03051 1.11175 0
M  V30 17003 H 1595.03 3.59579 -1.24126 0
M  V30 17004 H 1596.34 4.78201 -1.41864 0
M  V30 17005 H 1595.5 6.03987 0.57313 0
M  V30 17006 H 1594.24 4.80369 0.842439 0
M  V30 17007 H 1593.24 5.31548 -1.40488 0
M  V30 17008 H 1594.47 6.58424 -1.66296 0
M  V30 17009 H 1592.41 6.53426 0.580507 0
M  V30 17010 H 1592.33 7.5123 -0.847897 0
M  V30 17011 H 1593.6 7.78889 0.308662 0
M  V30 17012 N 1597.83 0.703118 1.41046 0
M  V30 17013 C 1598.74 0.0432777 2.3456 0
M  V30 17014 C 1599.75 -0.757704 1.56636 0
M  V30 17015 O 1600.93 -0.693531 1.89082 0
M  V30 17016 C 1597.99 -0.876385 3.35441 0
M  V30 17017 C 1597.05 -0.06676 4.29248 0
M  V30 17018 C 1596.29 -0.942622 5.2531 0
M  V30 17019 O 1596.51 -2.18205 5.27013 0
M  V30 17020 O 1595.44 -0.388266 6.00646 0
M  V30 17021 H 1599.27 0.814302 2.9258 0
M  V30 17022 H 1596.86 0.463503 1.42028 0
M  V30 17023 H 1598.74 -1.40353 3.9734 0
M  V30 17024 H 1597.41 -1.62677 2.79853 0
M  V30 17025 H 1596.32 0.505165 3.70674 0
M  V30 17026 H 1597.65 0.645128 4.87954 0
M  V30 17027 N 1599.3 -1.51086 0.448402 0
M  V30 17028 C 1600.55 -2.01778 -0.114116 0
M  V30 17029 C 1600.87 -1.3339 -1.4224 0
M  V30 17030 O 1600.14 -0.471938 -1.9013 0
M  V30 17031 H 1598.72 -0.745634 -0.0451624 0
M  V30 17032 H 1601.39 -1.85639 0.59364 0
M  V30 17033 H 1600.48 -3.10823 -0.28205 0
M  V30 17034 N 1600.78 -0.180154 -1.56567 0
M  V30 17035 C 1602.19 0.335054 -1.83669 0
M  V30 17036 C 1602.54 1.62443 -1.1003 0
M  V30 17037 O 1601.67 2.13448 -0.356205 0
M  V30 17038 C 1602.26 0.61468 -3.33177 0
M  V30 17039 C 1600.82 1.0743 -3.60743 0
M  V30 17040 C 1599.97 0.114877 -2.77062 0
M  V30 17041 H 1602.92 -0.404245 -1.53465 0
M  V30 17042 H 1602.94 1.46574 -3.51136 0
M  V30 17043 H 1602.45 -0.323923 -3.86746 0
M  V30 17044 H 1600.56 2.0277 -3.12594 0
M  V30 17045 H 1600.67 0.977349 -4.69025 0
M  V30 17046 H 1599.03 0.613933 -2.4719 0
M  V30 17047 H 1599.82 -0.817904 -3.33414 0
M  V30 17048 N 1602.26 1.57322 0.0935319 0
M  V30 17049 C 1603.51 1.85353 0.795445 0
M  V30 17050 C 1603.82 0.769647 1.79822 0
M  V30 17051 O 1605.03 0.937121 2.54814 0
M  V30 17052 C 1603.48 3.28711 1.4655 0
M  V30 17053 C 1603.09 4.45174 0.502415 0
M  V30 17054 C 1604.84 3.65965 2.15105 0
M  V30 17055 C 1602.74 5.79566 1.17715 0
M  V30 17056 H 1601.67 0.691394 0.300816 0
M  V30 17057 H 1604.32 1.83436 0.0484063 0
M  V30 17058 H 1602.71 3.25173 2.26005 0
M  V30 17059 H 1603.88 4.60062 -0.260754 0
M  V30 17060 H 1602.2 4.16328 -0.0775186 0
M  V30 17061 H 1604.79 4.63655 2.66323 0
M  V30 17062 H 1605.14 2.94667 2.94069 0
M  V30 17063 H 1605.67 3.71398 1.42508 0
M  V30 17064 H 1602.41 6.54099 0.428277 0
M  V30 17065 H 1601.93 5.68519 1.9117 0
M  V30 17066 H 1603.61 6.2418 1.70318 0
M  V30 17067 N 1603.74 -0.364395 1.53329 0
M  V30 17068 C 1605.15 -0.941133 1.61244 0
M  V30 17069 C 1605.5 -1.90223 0.480596 0
M  V30 17070 O 1604.63 -2.12805 -0.392805 0
M  V30 17071 C 1605.22 -1.7137 2.92263 0
M  V30 17072 C 1603.78 -2.23976 3.02509 0
M  V30 17073 C 1602.93 -1.05253 2.56548 0
M  V30 17074 H 1605.88 -0.143153 1.58053 0
M  V30 17075 H 1605.9 -2.575 2.80132 0
M  V30 17076 H 1605.41 -1.01395 3.74621 0
M  V30 17077 H 1603.51 -2.9719 2.24741 0
M  V30 17078 H 1603.62 -2.51777 4.07609 0
M  V30 17079 H 1601.99 -1.41986 2.11452 0
M  V30 17080 H 1602.77 -0.367744 3.41325 0
M  V30 17081 N 1605.22 -1.44709 -0.62426 0
M  V30 17082 C 1606.63 -1.42523 -1.20599 0
M  V30 17083 C 1606.98 -0.144129 -1.9567 0
M  V30 17084 O 1606.1 0.755175 -2.02796 0
M  V30 17085 C 1606.7 -2.58194 -2.19365 0
M  V30 17086 C 1605.26 -2.59181 -2.72951 0
M  V30 17087 C 1604.4 -2.34461 -1.48065 0
M  V30 17088 H 1607.36 -1.5319 -0.414532 0
M  V30 17089 H 1607.38 -2.3134 -3.02096 0
M  V30 17090 H 1606.89 -3.5142 -1.64699 0
M  V30 17091 H 1604.99 -1.69916 -3.31601 0
M  V30 17092 H 1605.1 -3.57884 -3.18521 0
M  V30 17093 H 1603.47 -1.83688 -1.76439 0
M  V30 17094 H 1604.25 -3.2981 -0.952918 0
M  V30 17095 N 1606.69 0.865285 -1.31722 0
M  V30 17096 C 1607.97 1.60146 -1.12306 0
M  V30 17097 C 1608.35 2.08653 0.320508 0
M  V30 17098 O 1607.7 1.86841 1.31539 0
M  V30 17099 C 1607.91 2.75583 -2.14138 0
M  V30 17100 C 1609.26 3.45429 -2.46909 0
M  V30 17101 O 1610.28 2.85795 -2.12602 0
M  V30 17102 O 1609.14 4.53017 -3.05676 0
M  V30 17103 H 1606.23 0.704786 -0.432673 0
M  V30 17104 H 1608.78 0.910339 -1.43216 0
M  V30 17105 H 1607.55 2.37187 -3.1122 0
M  V30 17106 H 1607.18 3.52378 -1.84161 0
M  V30 17107 N 1608.17 1.14759 1.0802 0
M  V30 17108 C 1609.14 0.840859 2.13219 0
M  V30 17109 C 1610.14 -0.156309 1.60038 0
M  V30 17110 O 1611.33 0.0725143 1.74049 0
M  V30 17111 C 1608.46 0.254208 3.39951 0
M  V30 17112 H 1609.65 1.77323 2.4186 0
M  V30 17113 H 1607.2 0.954146 1.23797 0
M  V30 17114 H 1607.94 -0.686692 3.16946 0
M  V30 17115 H 1607.72 0.972499 3.79848 0
M  V30 17116 H 1609.21 0.0569551 4.17561 0
M  V30 17117 N 1609.65 -1.26251 0.943322 0
M  V30 17118 C 1610.58 -2.25468 0.411904 0
M  V30 17119 C 1611.6 -1.55988 -0.466005 0
M  V30 17120 O 1612.78 -1.76352 -0.276106 0
M  V30 17121 C 1609.88 -3.362 -0.426909 0
M  V30 17122 C 1609.06 -4.35228 0.435346 0
M  V30 17123 C 1608.12 -5.25078 -0.343388 0
M  V30 17124 O 1607.14 -5.68632 0.254322 0
M  V30 17125 N 1608.34 -5.5687 -1.63939 0
M  V30 17126 H 1611.11 -2.71701 1.26486 0
M  V30 17127 H 1608.67 -1.40039 0.812438 0
M  V30 17128 H 1610.66 -3.93263 -0.955316 0
M  V30 17129 H 1609.23 -2.89446 -1.18067 0
M  V30 17130 H 1608.45 -3.77206 1.14495 0
M  V30 17131 H 1609.74 -4.98384 1.02427 0
M  V30 17132 H 1609.14 -5.2337 -2.14709 0
M  V30 17133 H 1607.7 -6.16566 -2.11399 0
M  V30 17134 N 1611.13 -0.710588 -1.40671 0
M  V30 17135 C 1612.08 -0.043614 -2.32559 0
M  V30 17136 C 1613.07 0.752425 -1.51773 0
M  V30 17137 O 1614.28 0.656356 -1.67607 0
M  V30 17138 H 1610.65 0.00469865 -0.751985 0
M  V30 17139 H 1612.62 -0.835399 -2.86468 0
M  V30 17140 C 1611.37 0.867796 -3.36697 0
M  V30 17141 H 1610.7 0.264667 -3.98923 0
M  V30 17142 H 1612.14 1.30252 -4.03498 0
M  V30 17143 C 1610.59 1.99094 -2.71778 0
M  V30 17144 O 1611.12 3.08129 -2.5772 0
M  V30 17145 N 1609.33 1.77309 -2.30239 0
M  V30 17146 H 1608.88 0.886325 -2.41872 0
M  V30 17147 H 1608.84 2.52639 -1.87139 0
M  V30 17148 N 1612.61 1.50847 -0.456408 0
M  V30 17149 C 1614.02 1.867 0.00222532 0
M  V30 17150 C 1614.37 1.37229 1.40224 0
M  V30 17151 O 1613.49 0.731052 2.03678 0
M  V30 17152 C 1614.09 3.38798 0.0108142 0
M  V30 17153 C 1612.65 3.74117 0.413924 0
M  V30 17154 C 1611.8 2.74671 -0.380933 0
M  V30 17155 H 1614.75 1.43799 -0.671379 0
M  V30 17156 H 1614.77 3.71642 0.816217 0
M  V30 17157 H 1614.28 3.74774 -1.00826 0
M  V30 17158 H 1612.38 3.43737 1.43789 0
M  V30 17159 H 1612.49 4.78936 0.125471 0
M  V30 17160 H 1610.86 2.54175 0.163385 0
M  V30 17161 H 1611.64 3.1349 -1.39924 0
M  V30 17162 N 1614.09 0.188454 1.56469 0
M  V30 17163 C 1615.36 -0.499324 1.89119 0
M  V30 17164 C 1615.74 -1.80116 1.10098 0
M  V30 17165 O 1615.09 -2.27623 0.200048 0
M  V30 17166 C 1615.3 -0.724574 3.41396 0
M  V30 17167 C 1616.65 -1.04692 4.11491 0
M  V30 17168 O 1617.67 -0.812526 3.46809 0
M  V30 17169 O 1616.53 -1.48998 5.25797 0
M  V30 17170 H 1613.63 -0.259468 0.785242 0
M  V30 17171 H 1616.17 0.228172 1.68159 0
M  V30 17172 H 1614.94 0.195039 3.90814 0
M  V30 17173 H 1614.57 -1.50477 3.68025 0
M  V30 17174 N 1615.56 -1.5737 -0.0851874 0
M  V30 17175 C 1616.5 -1.98027 -1.13404 0
M  V30 17176 C 1617.47 -0.855036 -1.38304 0
M  V30 17177 O 1618.66 -1.11619 -1.51899 0
M  V30 17178 C 1615.79 -2.30553 -2.48119 0
M  V30 17179 C 1614.83 -3.52947 -2.39438 0
M  V30 17180 S 1615.66 -5.04293 -1.80136 0
M  V30 17181 C 1616.82 -5.40006 -3.16456 0
M  V30 17182 H 1617.05 -2.86681 -0.787488 0
M  V30 17183 H 1614.59 -1.5159 -0.293234 0
M  V30 17184 H 1616.54 -2.49968 -3.25617 0
M  V30 17185 H 1615.21 -1.42452 -2.7994 0
M  V30 17186 H 1614.4 -3.73179 -3.38753 0
M  V30 17187 H 1614 -3.33094 -1.70072 0
M  V30 17188 H 1616.29 -5.37257 -4.12748 0
M  V30 17189 H 1617.24 -6.40932 -3.01018 0
M  V30 17190 H 1617.64 -4.67465 -3.16444 0
M  V30 17191 N 1617.04 0.356258 -1.53521 0
M  V30 17192 C 1618.27 1.12273 -1.74383 0
M  V30 17193 C 1618.69 1.81981 -0.475881 0
M  V30 17194 O 1618.05 1.72083 0.570699 0
M  V30 17195 C 1618.1 2.12161 -2.91582 0
M  V30 17196 O 1617.2 3.1943 -2.60842 0
M  V30 17197 H 1616.54 0.325321 -0.578845 0
M  V30 17198 H 1619.07 0.410533 -2.00439 0
M  V30 17199 H 1619.08 2.55602 -3.18012 0
M  V30 17200 H 1617.76 1.60818 -3.8355 0
M  V30 17201 H 1616.33 2.80895 -2.4526 0
M  V30 17202 N 1618.52 1.45038 0.616577 0
M  V30 17203 C 1619.77 1.48585 1.37582 0
M  V30 17204 C 1620.09 0.124065 1.94104 0
M  V30 17205 O 1619.35 -0.876112 1.74994 0
M  V30 17206 C 1619.65 2.50545 2.54876 0
M  V30 17207 C 1619.31 3.95493 2.16555 0
M  V30 17208 C 1617.98 4.34963 2.05818 0
M  V30 17209 C 1620.33 4.86685 1.86512 0
M  V30 17210 C 1617.66 5.63531 1.63246 0
M  V30 17211 C 1620.01 6.15657 1.4543 0
M  V30 17212 C 1618.67 6.54066 1.33244 0
M  V30 17213 H 1617.94 0.543711 0.503447 0
M  V30 17214 H 1620.59 1.78334 0.697787 0
M  V30 17215 H 1618.89 2.14332 3.27977 0
M  V30 17216 H 1620.59 2.50531 3.13106 0
M  V30 17217 H 1617.18 3.64275 2.25836 0
M  V30 17218 H 1621.37 4.56936 1.9371 0
M  V30 17219 H 1616.62 5.92094 1.52427 0
M  V30 17220 H 1620.8 6.85768 1.21226 0
M  V30 17221 H 1618.42 7.5359 1.0003 0
M  V30 17222 N 1620 -0.858287 1.32179 0
M  V30 17223 C 1621.24 -1.61221 1.22532 0
M  V30 17224 C 1621.57 -1.93322 -0.213739 0
M  V30 17225 O 1620.83 -1.5719 -1.16575 0
M  V30 17226 C 1621.13 -2.94391 2.02654 0
M  V30 17227 C 1620.79 -2.81735 3.52046 0
M  V30 17228 C 1619.45 -2.7799 3.92778 0
M  V30 17229 C 1621.81 -2.67928 4.47062 0
M  V30 17230 C 1619.13 -2.58312 5.26775 0
M  V30 17231 C 1621.49 -2.49785 5.81197 0
M  V30 17232 C 1620.15 -2.44431 6.21136 0
M  V30 17233 H 1619.42 -0.589949 0.448376 0
M  V30 17234 H 1622.07 -0.995897 1.63567 0
M  V30 17235 H 1620.37 -3.60122 1.54336 0
M  V30 17236 H 1622.07 -3.5174 1.92561 0
M  V30 17237 H 1618.66 -2.85472 3.19693 0
M  V30 17238 H 1622.84 -2.69868 4.16515 0
M  V30 17239 H 1618.1 -2.526 5.56779 0
M  V30 17240 H 1622.27 -2.38081 6.54439 0
M  V30 17241 H 1619.9 -2.28943 7.24906 0
M  V30 17242 N 1621.48 -1.1533 -1.07409 0
M  V30 17243 C 1622.42 -0.849527 -2.14597 0
M  V30 17244 C 1623.39 0.197288 -1.64924 0
M  V30 17245 O 1624.58 0.0649694 -1.90689 0
M  V30 17246 C 1621.72 -0.344327 -3.43378 0
M  V30 17247 C 1620.83 -1.45264 -4.06844 0
M  V30 17248 C 1619.97 -0.90363 -5.23458 0
M  V30 17249 C 1619 -1.98892 -5.78885 0
M  V30 17250 N 1618.14 -1.45633 -6.8683 0
M  V30 17251 H 1622.98 -1.76753 -2.39922 0
M  V30 17252 H 1620.52 -0.881942 -1.17729 0
M  V30 17253 H 1622.48 -0.0331352 -4.17187 0
M  V30 17254 H 1621.11 0.536757 -3.18306 0
M  V30 17255 H 1620.16 -1.88003 -3.30695 0
M  V30 17256 H 1621.47 -2.27207 -4.44048 0
M  V30 17257 H 1620.62 -0.544945 -6.04248 0
M  V30 17258 H 1619.36 -0.0533648 -4.87671 0
M  V30 17259 H 1618.37 -2.35644 -4.96741 0
M  V30 17260 H 1619.59 -2.84295 -6.16728 0
M  V30 17261 H 1617.54 -0.628417 -6.52983 0
M  V30 17262 H 1617.46 -2.21204 -7.22914 0
M  V30 17263 H 1618.72 -1.12587 -7.71326 0
M  V30 17264 N 1622.95 1.25748 -0.950004 0
M  V30 17265 C 1623.89 2.24472 -0.410787 0
M  V30 17266 C 1624.86 1.54549 0.505309 0
M  V30 17267 O 1626.05 1.83275 0.440744 0
M  V30 17268 C 1623.18 3.36224 0.408832 0
M  V30 17269 C 1622.22 4.24151 -0.446997 0
M  V30 17270 S 1623.05 5.01549 -1.87639 0
M  V30 17271 C 1624.21 6.16771 -1.06507 0
M  V30 17272 H 1624.44 2.69863 -1.24745 0
M  V30 17273 H 1621.98 1.34752 -0.753744 0
M  V30 17274 H 1623.93 4.01049 0.875796 0
M  V30 17275 H 1622.6 2.89427 1.22027 0
M  V30 17276 H 1621.79 5.03673 0.181407 0
M  V30 17277 H 1621.39 3.64236 -0.848989 0
M  V30 17278 H 1623.68 6.76783 -0.311531 0
M  V30 17279 H 1624.63 6.83936 -1.83406 0
M  V30 17280 H 1625.03 5.61332 -0.597243 0
M  V30 17281 N 1624.43 0.718038 1.40292 0
M  V30 17282 C 1625.36 0.0818367 2.33357 0
M  V30 17283 C 1626.34 -0.742854 1.53022 0
M  V30 17284 O 1627.53 -0.691281 1.8148 0
M  V30 17285 C 1624.66 -0.838843 3.37017 0
M  V30 17286 C 1623.61 -0.119589 4.27833 0
M  V30 17287 C 1622.94 -1.15615 5.22051 0
M  V30 17288 C 1624.24 1.02769 5.1209 0
M  V30 17289 H 1625.93 0.859167 2.86808 0
M  V30 17290 H 1623.48 0.414606 1.37902 0
M  V30 17291 H 1625.43 -1.29332 4.01063 0
M  V30 17292 H 1624.15 -1.6481 2.81967 0
M  V30 17293 H 1622.81 0.315088 3.65243 0
M  V30 17294 H 1622.46 -1.95852 4.63304 0
M  V30 17295 H 1622.16 -0.679767 5.83655 0
M  V30 17296 H 1623.69 -1.61068 5.88973 0
M  V30 17297 H 1625.1 0.652461 5.69575 0
M  V30 17298 H 1623.5 1.4326 5.82749 0
M  V30 17299 H 1624.57 1.85723 4.47923 0
M  V30 17300 N 1625.91 -1.50602 0.464402 0
M  V30 17301 C 1627.16 -2.02287 -0.0928919 0
M  V30 17302 C 1627.49 -1.34685 -1.40321 0
M  V30 17303 O 1626.74 -0.459304 -1.90234 0
M  V30 17304 C 1627.04 -3.55859 -0.331507 0
M  V30 17305 C 1626.71 -4.41902 0.896292 0
M  V30 17306 C 1625.37 -4.65137 1.23294 0
M  V30 17307 C 1627.72 -4.92208 1.71409 0
M  V30 17308 C 1625.05 -5.35922 2.38757 0
M  V30 17309 C 1627.4 -5.6426 2.85995 0
M  V30 17310 C 1626.06 -5.85751 3.20082 0
M  V30 17311 H 1625.33 -0.74022 -0.0339916 0
M  V30 17312 H 1627.98 -1.81284 0.61712 0
M  V30 17313 H 1626.29 -3.7534 -1.1237 0
M  V30 17314 H 1627.98 -3.93409 -0.776566 0
M  V30 17315 H 1624.57 -4.24033 0.624007 0
M  V30 17316 H 1628.76 -4.74117 1.46719 0
M  V30 17317 H 1624.01 -5.50769 2.65449 0
M  V30 17318 H 1628.19 -6.02223 3.49714 0
M  V30 17319 H 1625.81 -6.40377 4.09659 0
M  V30 17320 N 1627.39 -0.19675 -1.56367 0
M  V30 17321 C 1628.32 0.718607 -2.22167 0
M  V30 17322 C 1629.3 1.22002 -1.1853 0
M  V30 17323 O 1630.48 1.26856 -1.47042 0
M  V30 17324 C 1627.61 1.93753 -2.88231 0
M  V30 17325 C 1626.57 1.57096 -3.98127 0
M  V30 17326 C 1625.89 2.86663 -4.51363 0
M  V30 17327 C 1627.19 0.779649 -5.16448 0
M  V30 17328 H 1628.89 0.170064 -2.98917 0
M  V30 17329 H 1626.43 0.0803568 -1.43776 0
M  V30 17330 H 1628.39 2.58312 -3.32946 0
M  V30 17331 H 1627.11 2.51063 -2.0889 0
M  V30 17332 H 1625.77 0.948947 -3.54105 0
M  V30 17333 H 1625.42 3.42066 -3.68782 0
M  V30 17334 H 1625.12 2.6288 -5.25517 0
M  V30 17335 H 1626.64 3.52207 -4.98781 0
M  V30 17336 H 1628.06 1.32838 -5.57698 0
M  V30 17337 H 1626.45 0.639882 -5.96679 0
M  V30 17338 H 1627.52 -0.218944 -4.84405 0
M  V30 17339 N 1628.87 1.57413 0.0768405 0
M  V30 17340 C 1630.28 1.75776 0.629262 0
M  V30 17341 C 1630.63 0.821502 1.78173 0
M  V30 17342 O 1629.75 0.00437198 2.164 0
M  V30 17343 C 1630.35 3.18747 1.14828 0
M  V30 17344 C 1628.91 3.38472 1.64661 0
M  V30 17345 C 1628.05 2.71506 0.563884 0
M  V30 17346 H 1631.01 1.57996 -0.149312 0
M  V30 17347 H 1631.03 3.22628 2.01722 0
M  V30 17348 H 1630.54 3.86866 0.309282 0
M  V30 17349 H 1628.64 2.75461 2.50903 0
M  V30 17350 H 1628.75 4.4689 1.72703 0
M  V30 17351 H 1627.12 2.33917 1.00772 0
M  V30 17352 H 1627.9 3.42277 -0.264847 0
M  V30 17353 N 1630.34 -0.348112 1.53707 0
M  V30 17354 C 1631.25 -1.45079 1.84361 0
M  V30 17355 C 1632.27 -1.5779 0.733375 0
M  V30 17356 O 1633.45 -1.73353 1.02522 0
M  V30 17357 C 1630.51 -2.80127 2.04278 0
M  V30 17358 C 1629.57 -2.76799 3.28148 0
M  V30 17359 C 1628.81 -4.05406 3.47105 0
M  V30 17360 O 1629.03 -5.02454 2.69992 0
M  V30 17361 O 1627.96 -4.10155 4.40519 0
M  V30 17362 H 1631.79 -1.22093 2.78077 0
M  V30 17363 H 1629.37 -0.539863 1.39305 0
M  V30 17364 H 1631.26 -3.60115 2.18849 0
M  V30 17365 H 1629.93 -3.03055 1.13751 0
M  V30 17366 H 1628.84 -1.95448 3.18984 0
M  V30 17367 H 1630.17 -2.58826 4.18653 0
M  V30 17368 N 1631.82 -1.45363 -0.608876 0
M  V30 17369 C 1633.05 -1.53066 -1.39949 0
M  V30 17370 C 1633.47 -0.16369 -1.87386 0
M  V30 17371 O 1632.83 0.851432 -1.60064 0
M  V30 17372 C 1632.88 -2.51836 -2.58091 0
M  V30 17373 O 1631.98 -2.03528 -3.58678 0
M  V30 17374 H 1631.32 -0.516031 -0.417861 0
M  V30 17375 H 1633.85 -1.90705 -0.74113 0
M  V30 17376 H 1633.86 -2.706 -3.05352 0
M  V30 17377 H 1632.54 -3.51117 -2.22912 0
M  V30 17378 H 1631.12 -1.94634 -3.18075 0
M  V30 17379 N 1633.3 0.851265 -1.32632 0
M  V30 17380 C 1634.26 1.94168 -1.21785 0
M  V30 17381 C 1635.26 1.60189 -0.140023 0
M  V30 17382 O 1636.45 1.69763 -0.390671 0
M  V30 17383 C 1633.59 3.29513 -0.873717 0
M  V30 17384 H 1634.78 2.05214 -2.18695 0
M  V30 17385 H 1632.33 1.04186 -1.16512 0
M  V30 17386 H 1633.07 3.24165 0.0934202 0
M  V30 17387 H 1632.85 3.55552 -1.65302 0
M  V30 17388 H 1634.34 4.09425 -0.822231 0
M  V30 17389 N 1634.78 1.15898 1.06796 0
M  V30 17390 C 1636.19 0.902809 1.31611 0
M  V30 17391 C 1636.39 -0.447112 1.96477 0
M  V30 17392 O 1635.45 -1.18778 2.22818 0
M  V30 17393 C 1636.76 2.04803 2.20173 0
M  V30 17394 C 1638.31 2.08321 2.33605 0
M  V30 17395 C 1638.79 3.22182 3.25519 0
M  V30 17396 N 1640.28 3.21866 3.33101 0
M  V30 17397 C 1641.01 4.06608 4.04299 0
M  V30 17398 N 1640.51 5.01426 4.78063 0
M  V30 17399 N 1642.3 3.94612 4.00297 0
M  V30 17400 H 1634.45 2.02816 0.630831 0
M  V30 17401 H 1636.72 0.884683 0.340646 0
M  V30 17402 H 1636.42 3.02278 1.7978 0
M  V30 17403 H 1636.3 1.98521 3.20732 0
M  V30 17404 H 1638.68 1.11441 2.73249 0
M  V30 17405 H 1638.76 2.18668 1.32732 0
M  V30 17406 H 1638.41 4.19317 2.86594 0
M  V30 17407 H 1638.34 3.0907 4.2636 0
M  V30 17408 H 1640.83 2.53203 2.80529 0
M  V30 17409 H 1641.14 5.62517 5.29901 0
M  V30 17410 H 1639.49 5.0541 4.7706 0
M  V30 17411 H 1642.68 3.19843 3.41786 0
M  V30 17412 H 1642.85 4.60877 4.55518 0
M  V30 17413 N 1636.26 -1.25243 0.956659 0
M  V30 17414 C 1637.5 -1.93624 0.623011 0
M  V30 17415 C 1637.86 -1.73521 -0.831149 0
M  V30 17416 O 1637.15 -1.07092 -1.58877 0
M  V30 17417 C 1637.34 -3.4536 0.919849 0
M  V30 17418 C 1637.17 -3.8022 2.40131 0
M  V30 17419 C 1635.94 -4.02169 3.05922 0
M  V30 17420 C 1638.14 -3.87567 3.38077 0
M  V30 17421 N 1636.12 -4.24037 4.43921 0
M  V30 17422 C 1637.49 -4.14149 4.6139 0
M  V30 17423 C 1639.55 -3.70257 3.32888 0
M  V30 17424 C 1638.25 -4.2522 5.80155 0
M  V30 17425 C 1640.28 -3.82569 4.50994 0
M  V30 17426 C 1639.64 -4.09565 5.73094 0
M  V30 17427 H 1635.74 -0.730679 0.278624 0
M  V30 17428 H 1638.32 -1.50988 1.22925 0
M  V30 17429 H 1636.49 -3.86887 0.342519 0
M  V30 17430 H 1638.23 -4.01001 0.545898 0
M  V30 17431 H 1634.98 -3.98135 2.56487 0
M  V30 17432 H 1635.41 -4.38974 5.15394 0
M  V30 17433 H 1640.05 -3.48401 2.39533 0
M  V30 17434 H 1637.77 -4.45892 6.73948 0
M  V30 17435 H 1641.35 -3.70559 4.48528 0
M  V30 17436 H 1640.23 -4.18875 6.62958 0
M  V30 17437 N 1637.73 -0.725468 -1.3991 0
M  V30 17438 C 1638.98 -0.266188 -1.99936 0
M  V30 17439 C 1639.3 1.15022 -1.58207 0
M  V30 17440 O 1640.5 1.70853 -2.11001 0
M  V30 17441 C 1638.96 -0.424978 -3.57382 0
M  V30 17442 C 1638.57 -1.84866 -4.08079 0
M  V30 17443 C 1640.31 -0.0269907 -4.24491 0
M  V30 17444 C 1638.22 -1.95751 -5.58064 0
M  V30 17445 H 1637.15 -0.0957688 -0.747893 0
M  V30 17446 H 1639.8 -0.89798 -1.60027 0
M  V30 17447 H 1638.18 0.275558 -3.9504 0
M  V30 17448 H 1639.35 -2.58037 -3.81776 0
M  V30 17449 H 1637.67 -2.199 -3.536 0
M  V30 17450 H 1640.27 -0.0874638 -5.34628 0
M  V30 17451 H 1640.61 1.01639 -4.03702 0
M  V30 17452 H 1641.14 -0.678332 -3.91974 0
M  V30 17453 H 1637.88 -2.98244 -5.83721 0
M  V30 17454 H 1637.4 -1.27004 -5.862 0
M  V30 17455 H 1639.08 -1.73422 -6.23325 0
M  V30 17456 N 1639.21 1.50354 -0.472382 0
M  V30 17457 C 1640.14 2.26396 0.357429 0
M  V30 17458 C 1641.16 1.31778 0.955949 0
M  V30 17459 O 1642.35 1.57279 0.844136 0
M  V30 17460 C 1639.45 3.03131 1.51542 0
M  V30 17461 C 1638.62 4.25113 1.02945 0
M  V30 17462 C 1637.68 4.84131 2.06164 0
M  V30 17463 O 1636.7 5.4501 1.64174 0
M  V30 17464 N 1637.91 4.71244 3.38983 0
M  V30 17465 H 1640.67 2.9825 -0.294473 0
M  V30 17466 H 1638.23 1.59035 -0.303242 0
M  V30 17467 H 1640.22 3.39492 2.20289 0
M  V30 17468 H 1638.79 2.34067 2.07199 0
M  V30 17469 H 1638.01 3.93843 0.167821 0
M  V30 17470 H 1639.3 5.04199 0.682705 0
M  V30 17471 H 1638.7 4.22831 3.75807 0
M  V30 17472 H 1637.26 5.11871 4.03524 0
M  V30 17473 N 1640.69 0.205039 1.56261 0
M  V30 17474 C 1642.11 -0.150644 1.58887 0
M  V30 17475 C 1642.31 -1.60256 1.22148 0
M  V30 17476 O 1641.36 -2.33991 0.948912 0
M  V30 17477 C 1642.68 0.160711 3.0027 0
M  V30 17478 C 1644.22 0.101616 3.12835 0
M  V30 17479 C 1644.7 0.386417 4.56367 0
M  V30 17480 N 1646.19 0.335392 4.61984 0
M  V30 17481 C 1646.93 0.529473 5.7095 0
M  V30 17482 N 1646.42 0.784441 6.88345 0
M  V30 17483 N 1648.21 0.463044 5.6019 0
M  V30 17484 H 1640.37 1.15238 1.78421 0
M  V30 17485 H 1642.63 0.460698 0.82853 0
M  V30 17486 H 1642.33 1.1678 3.31746 0
M  V30 17487 H 1642.21 -0.532067 3.73429 0
M  V30 17488 H 1644.6 -0.896093 2.81166 0
M  V30 17489 H 1644.68 0.827622 2.42041 0
M  V30 17490 H 1644.32 1.38149 4.88751 0
M  V30 17491 H 1644.25 -0.360592 5.25364 0
M  V30 17492 H 1646.74 0.145346 3.7762 0
M  V30 17493 H 1647.05 0.921077 7.67291 0
M  V30 17494 H 1645.4 0.821448 6.90128 0
M  V30 17495 H 1648.59 0.2642 4.67354 0
M  V30 17496 H 1648.76 0.617712 6.45049 0
M  V30 17497 N 1642.17 -1.57451 -0.0684915 0
M  V30 17498 C 1643.4 -1.9164 -0.779855 0
M  V30 17499 C 1643.81 -0.801309 -1.70952 0
M  V30 17500 O 1643.17 0.225134 -1.81106 0
M  V30 17501 C 1643.22 -3.25594 -1.57068 0
M  V30 17502 O 1642.94 -4.32816 -0.678385 0
M  V30 17503 C 1644.44 -3.73818 -2.38275 0
M  V30 17504 H 1641.66 -0.633374 -0.221537 0
M  V30 17505 H 1644.21 -2.04465 -0.0377746 0
M  V30 17506 H 1642.36 -3.14287 -2.26501 0
M  V30 17507 H 1642.78 -5.09903 -1.22877 0
M  V30 17508 H 1644.25 -4.70168 -2.89216 0
M  V30 17509 H 1644.73 -3.02995 -3.17947 0
M  V30 17510 H 1645.33 -3.88081 -1.73992 0
M  V30 17511 N 1643.65 0.339955 -1.5389 0
M  V30 17512 C 1644.6 1.41838 -1.78511 0
M  V30 17513 C 1645.58 1.47604 -0.640447 0
M  V30 17514 O 1646.77 1.52414 -0.899951 0
M  V30 17515 C 1643.9 2.78929 -2.00134 0
M  V30 17516 C 1642.99 2.7754 -3.20675 0
M  V30 17517 N 1643.38 2.45779 -4.42071 0
M  V30 17518 C 1641.68 3.08684 -3.21917 0
M  V30 17519 C 1642.38 2.52714 -5.23938 0
M  V30 17520 N 1641.35 2.88484 -4.60736 0
M  V30 17521 H 1645.16 1.16185 -2.6996 0
M  V30 17522 H 1642.67 0.548339 -1.52863 0
M  V30 17523 H 1644.67 3.56637 -2.15907 0
M  V30 17524 H 1643.33 3.05525 -1.09929 0
M  V30 17525 H 1644.34 2.18913 -4.69358 0
M  V30 17526 H 1641.02 3.40429 -2.41691 0
M  V30 17527 H 1642.41 2.31287 -6.30838 0
M  V30 17528 N 1645.13 1.45684 0.601159 0
M  V30 17529 C 1646.37 1.4974 1.35729 0
M  V30 17530 C 1646.69 0.143072 1.94474 0
M  V30 17531 O 1645.96 -0.82832 1.77527 0
M  V30 17532 H 1644.54 0.551455 0.503892 0
M  V30 17533 H 1647.21 1.81685 0.705443 0
M  V30 17534 H 1646.3 2.23982 2.17344 0
M  V30 17535 N 1646.6 -0.84422 1.33082 0
M  V30 17536 C 1647.55 -1.95363 1.2289 0
M  V30 17537 C 1648.52 -1.65744 0.108705 0
M  V30 17538 O 1649.71 -1.88643 0.286057 0
M  V30 17539 C 1646.85 -3.31228 0.968594 0
M  V30 17540 C 1645.96 -3.73279 2.17455 0
M  V30 17541 C 1645.09 -4.97987 1.84885 0
M  V30 17542 C 1644.13 -5.32558 3.01743 0
M  V30 17543 N 1643.27 -6.48442 2.69197 0
M  V30 17544 H 1648.11 -2.03412 2.17778 0
M  V30 17545 H 1645.65 -0.995461 1.083 0
M  V30 17546 H 1647.6 -4.09494 0.798129 0
M  V30 17547 H 1646.23 -3.22751 0.0564631 0
M  V30 17548 H 1645.29 -2.9058 2.45494 0
M  V30 17549 H 1646.6 -3.94814 3.04834 0
M  V30 17550 H 1645.75 -5.83987 1.64451 0
M  V30 17551 H 1644.49 -4.7841 0.947356 0
M  V30 17552 H 1643.5 -4.45064 3.22797 0
M  V30 17553 H 1644.72 -5.54085 3.9264 0
M  V30 17554 H 1642.67 -6.30363 1.816 0
M  V30 17555 H 1642.58 -6.70046 3.50106 0
M  V30 17556 H 1643.85 -7.37568 2.52217 0
M  V30 17557 N 1648.08 -1.16463 -1.0618 0
M  V30 17558 C 1649.03 -0.868264 -2.15787 0
M  V30 17559 C 1650.02 0.163135 -1.68613 0
M  V30 17560 O 1651.23 0.0170117 -1.79992 0
M  V30 17561 H 1647.6 -0.263184 -0.704442 0
M  V30 17562 H 1649.58 -1.80005 -2.37993 0
M  V30 17563 C 1648.32 -0.387052 -3.45539 0
M  V30 17564 H 1647.65 -1.17212 -3.82232 0
M  V30 17565 H 1649.09 -0.218471 -4.23437 0
M  V30 17566 C 1647.55 0.893588 -3.24833 0
M  V30 17567 O 1648.08 1.96259 -3.50493 0
M  V30 17568 N 1646.28 0.8378 -2.78261 0
M  V30 17569 H 1645.83 -0.0323251 -2.5758 0
M  V30 17570 H 1645.79 1.69515 -2.64787 0
M  V30 17571 N 1649.56 1.24734 -0.963288 0
M  V30 17572 C 1650.78 1.97285 -0.639808 0
M  V30 17573 C 1651.21 1.71024 0.783099 0
M  V30 17574 O 1650.57 0.971324 1.53085 0
M  V30 17575 C 1650.62 3.48793 -0.915197 0
M  V30 17576 O 1649.72 4.124 0.00162805 0
M  V30 17577 H 1649.06 0.618196 -0.242343 0
M  V30 17578 H 1651.59 1.58627 -1.29224 0
M  V30 17579 H 1651.6 3.99155 -0.84495 0
M  V30 17580 H 1650.28 3.67235 -1.95221 0
M  V30 17581 H 1648.85 3.72702 -0.121563 0
M  V30 17582 N 1651.04 0.732878 1.39523 0
M  V30 17583 C 1651.97 0.106583 2.33257 0
M  V30 17584 C 1652.95 -0.726582 1.53801 0
M  V30 17585 O 1654.13 -0.671994 1.82203 0
M  V30 17586 C 1651.26 -0.803051 3.37888 0
M  V30 17587 C 1650.22 -0.0742048 4.27936 0
M  V30 17588 C 1649.54 -1.10071 5.23248 0
M  V30 17589 C 1650.84 1.08195 5.10971 0
M  V30 17590 H 1652.54 0.889539 2.8588 0
M  V30 17591 H 1650.08 0.429209 1.37455 0
M  V30 17592 H 1652.04 -1.25071 4.02412 0
M  V30 17593 H 1650.76 -1.6181 2.83699 0
M  V30 17594 H 1649.42 0.35381 3.64889 0
M  V30 17595 H 1649.07 -1.90927 4.65356 0
M  V30 17596 H 1648.77 -0.617825 5.84343 0
M  V30 17597 H 1650.29 -1.54812 5.90649 0
M  V30 17598 H 1651.71 0.712835 5.68851 0
M  V30 17599 H 1650.1 1.49433 5.81197 0
M  V30 17600 H 1651.17 1.90463 4.45928 0
M  V30 17601 N 1652.52 -1.50101 0.480349 0
M  V30 17602 C 1653.46 -2.30347 -0.322924 0
M  V30 17603 C 1654.46 -1.3804 -0.981904 0
M  V30 17604 O 1655.66 -1.55188 -0.91195 0
M  V30 17605 H 1652.04 -0.741875 -0.122985 0
M  V30 17606 H 1654.01 -2.96045 0.374155 0
M  V30 17607 C 1652.76 -3.18844 -1.38686 0
M  V30 17608 H 1652.08 -3.89787 -0.889181 0
M  V30 17609 H 1653.52 -3.77971 -1.9213 0
M  V30 17610 C 1651.98 -2.37058 -2.39385 0
M  V30 17611 O 1652.51 -2.06016 -3.44848 0
M  V30 17612 N 1650.72 -1.99465 -2.11334 0
M  V30 17613 H 1650.26 -2.24909 -1.25593 0
M  V30 17614 H 1650.22 -1.45048 -2.78942 0
M  V30 17615 N 1653.99 -0.213323 -1.5615 0
M  V30 17616 C 1655.22 0.428746 -2.0292 0
M  V30 17617 C 1655.64 1.53137 -1.09227 0
M  V30 17618 O 1655 1.81128 -0.0789684 0
M  V30 17619 C 1655.05 0.945231 -3.47991 0
M  V30 17620 O 1654.15 2.05709 -3.57432 0
M  V30 17621 H 1653.49 0.0980619 -0.656719 0
M  V30 17622 H 1656.02 -0.329548 -2.01929 0
M  V30 17623 H 1656.03 1.25717 -3.88149 0
M  V30 17624 H 1654.71 0.138161 -4.1567 0
M  V30 17625 H 1653.29 1.75242 -3.29158 0
M  V30 17626 N 1655.47 1.57485 0.0601405 0
M  V30 17627 C 1656.72 1.87445 0.755575 0
M  V30 17628 C 1657.04 0.806915 1.77522 0
M  V30 17629 O 1656.31 -0.163139 1.9522 0
M  V30 17630 H 1654.89 0.691708 0.282044 0
M  V30 17631 H 1657.55 1.94871 0.0334616 0
M  V30 17632 H 1656.65 2.85334 1.26455 0
M  V30 17633 N 1656.95 -0.331789 1.54068 0
M  V30 17634 C 1657.88 -1.42889 1.79208 0
M  V30 17635 C 1658.9 -1.48204 0.673754 0
M  V30 17636 O 1660.08 -1.51075 0.950712 0
M  V30 17637 C 1657.18 -2.81477 1.88743 0
M  V30 17638 C 1656.36 -2.99463 3.18812 0
M  V30 17639 C 1655.42 -4.18363 3.19154 0
M  V30 17640 O 1654.44 -4.11916 3.92828 0
M  V30 17641 N 1655.64 -5.27489 2.42354 0
M  V30 17642 H 1658.41 -1.21689 2.73883 0
M  V30 17643 H 1655.97 -0.521735 1.53263 0
M  V30 17644 H 1657.96 -3.59213 1.86409 0
M  V30 17645 H 1656.53 -2.95765 1.01202 0
M  V30 17646 H 1655.75 -2.09097 3.34174 0
M  V30 17647 H 1657.04 -3.0837 4.04704 0
M  V30 17648 H 1656.44 -5.35599 1.82071 0
M  V30 17649 H 1655 -6.03674 2.45806 0
M  V30 17650 N 1658.43 -1.46001 -0.593424 0
M  V30 17651 C 1659.68 -1.50457 -1.34933 0
M  V30 17652 C 1660 -0.153383 -1.94396 0
M  V30 17653 O 1659.27 0.818894 -1.77963 0
M  V30 17654 H 1657.85 -0.554119 -0.50096 0
M  V30 17655 H 1660.51 -1.82057 -0.695798 0
M  V30 17656 H 1659.61 -2.25131 -2.16154 0
M  V30 17657 N 1659.91 0.83715 -1.33527 0
M  V30 17658 C 1661.32 1.40878 -1.22516 0
M  V30 17659 C 1661.67 1.95585 0.155236 0
M  V30 17660 O 1660.79 1.88946 1.05491 0
M  V30 17661 C 1661.39 2.56093 -2.21815 0
M  V30 17662 C 1659.95 3.09205 -2.14638 0
M  V30 17663 C 1659.09 1.82012 -2.09205 0
M  V30 17664 H 1662.05 0.642766 -1.45101 0
M  V30 17665 H 1662.07 3.33775 -1.82687 0
M  V30 17666 H 1661.58 2.16246 -3.22272 0
M  V30 17667 H 1659.68 3.53592 -1.17489 0
M  V30 17668 H 1659.79 3.69261 -3.05259 0
M  V30 17669 H 1658.16 2.02331 -1.54707 0
M  V30 17670 H 1658.94 1.44359 -3.11473 0
M  V30 17671 N 1661.38 1.17024 1.05561 0
M  V30 17672 C 1662.61 0.981293 1.82717 0
M  V30 17673 C 1663.03 -0.465636 1.82246 0
M  V30 17674 O 1662.39 -1.33315 1.22869 0
M  V30 17675 C 1662.44 1.52239 3.26888 0
M  V30 17676 O 1661.54 0.73366 4.05822 0
M  V30 17677 H 1660.89 0.348677 0.565084 0
M  V30 17678 H 1663.42 1.55435 1.33046 0
M  V30 17679 H 1663.43 1.54306 3.77695 0
M  V30 17680 H 1662.1 2.57567 3.26545 0
M  V30 17681 H 1660.68 0.784101 3.64563 0
M  V30 17682 N 1662.86 -1.24221 0.969889 0
M  V30 17683 C 1664.27 -1.74206 0.671494 0
M  V30 17684 C 1664.62 -1.78576 -0.81271 0
M  V30 17685 O 1663.75 -1.41664 -1.63586 0
M  V30 17686 C 1664.34 -3.16371 1.21222 0
M  V30 17687 C 1662.9 -3.63855 0.96368 0
M  V30 17688 C 1662.05 -2.42429 1.34623 0
M  V30 17689 H 1665 -1.09893 1.14496 0
M  V30 17690 H 1665.02 -3.7606 0.579552 0
M  V30 17691 H 1664.53 -3.13159 2.29245 0
M  V30 17692 H 1662.64 -3.72463 -0.100931 0
M  V30 17693 H 1662.75 -4.51207 1.61087 0
M  V30 17694 H 1661.11 -2.42952 0.764624 0
M  V30 17695 H 1661.9 -2.41896 2.436 0
M  V30 17696 N 1664.34 -0.740267 -1.39132 0
M  V30 17697 C 1665.29 -0.103744 -2.30567 0
M  V30 17698 C 1666.26 0.724026 -1.49489 0
M  V30 17699 O 1667.44 0.682904 -1.7816 0
M  V30 17700 C 1664.58 0.793587 -3.35851 0
M  V30 17701 C 1663.7 -0.0473671 -4.31974 0
M  V30 17702 C 1662.83 0.851726 -5.24327 0
M  V30 17703 C 1661.87 0.00633633 -6.121 0
M  V30 17704 N 1661.01 0.861652 -6.96793 0
M  V30 17705 H 1665.85 -0.889087 -2.84428 0
M  V30 17706 H 1663.38 -0.450093 -1.40045 0
M  V30 17707 H 1665.34 1.32834 -3.95488 0
M  V30 17708 H 1663.97 1.54485 -2.83433 0
M  V30 17709 H 1663.02 -0.699601 -3.73911 0
M  V30 17710 H 1664.34 -0.700806 -4.93852 0
M  V30 17711 H 1663.49 1.45413 -5.89016 0
M  V30 17712 H 1662.23 1.53893 -4.62783 0
M  V30 17713 H 1661.23 -0.608833 -5.46419 0
M  V30 17714 H 1662.46 -0.677731 -6.7571 0
M  V30 17715 H 1660.4 1.53405 -6.37811 0
M  V30 17716 H 1660.32 0.264812 -7.55536 0
M  V30 17717 H 1661.59 1.44945 -7.65905 0
M  V30 17718 N 1665.82 1.49844 -0.488302 0
M  V30 17719 C 1666.75 2.26762 0.333396 0
M  V30 17720 C 1667.76 1.32785 0.941918 0
M  V30 17721 O 1668.95 1.58165 0.827407 0
M  V30 17722 C 1666.05 3.04721 1.48318 0
M  V30 17723 C 1665.23 4.26181 0.984303 0
M  V30 17724 C 1664.28 4.8629 2.01018 0
M  V30 17725 O 1663.31 5.4672 1.58384 0
M  V30 17726 N 1664.51 4.74813 3.33965 0
M  V30 17727 H 1667.28 2.97921 -0.32609 0
M  V30 17728 H 1664.84 1.58704 -0.320092 0
M  V30 17729 H 1666.83 3.4181 2.16676 0
M  V30 17730 H 1665.4 2.36251 2.04705 0
M  V30 17731 H 1664.62 3.93998 0.126039 0
M  V30 17732 H 1665.91 5.04895 0.62919 0
M  V30 17733 H 1665.31 4.26793 3.71301 0
M  V30 17734 H 1663.86 5.16122 3.98072 0
M  V30 17735 N 1667.3 0.221601 1.56034 0
M  V30 17736 C 1668.23 -0.683171 2.23282 0
M  V30 17737 C 1669.21 -1.20101 1.20456 0
M  V30 17738 O 1670.39 -1.245 1.49041 0
M  V30 17739 C 1667.52 -1.89143 2.91277 0
M  V30 17740 C 1666.48 -1.50742 4.00576 0
M  V30 17741 C 1665.8 -2.79446 4.55867 0
M  V30 17742 C 1667.1 -0.697388 5.17623 0
M  V30 17743 H 1668.8 -0.122488 2.99149 0
M  V30 17744 H 1666.34 -0.0574732 1.43885 0
M  V30 17745 H 1668.3 -2.52982 3.37013 0
M  V30 17746 H 1667.02 -2.47708 2.12858 0
M  V30 17747 H 1665.68 -0.892492 3.5557 0
M  V30 17748 H 1665.33 -3.36155 3.74177 0
M  V30 17749 H 1665.03 -2.54486 5.29633 0
M  V30 17750 H 1666.55 -3.44228 5.04321 0
M  V30 17751 H 1667.96 -1.23948 5.59741 0
M  V30 17752 H 1666.36 -0.544875 5.97621 0
M  V30 17753 H 1667.43 0.295981 4.83996 0
M  V30 17754 N 1668.77 -1.57515 -0.0517878 0
M  V30 17755 C 1670.02 -1.88493 -0.748206 0
M  V30 17756 C 1670.35 -0.816494 -1.76202 0
M  V30 17757 O 1669.63 0.171075 -1.93746 0
M  V30 17758 C 1669.91 -3.30131 -1.43825 0
M  V30 17759 C 1669.76 -4.47648 -0.4395 0
M  V30 17760 C 1671.08 -3.70315 -2.37813 0
M  V30 17761 H 1668.2 -0.68555 -0.270537 0
M  V30 17762 H 1670.84 -1.89997 -0.0111457 0
M  V30 17763 H 1668.99 -3.2898 -2.06651 0
M  V30 17764 H 1670.67 -4.60929 0.185088 0
M  V30 17765 H 1668.91 -4.33117 0.243381 0
M  V30 17766 H 1669.58 -5.43582 -0.96035 0
M  V30 17767 H 1672.06 -3.72687 -1.8505 0
M  V30 17768 H 1670.93 -4.70269 -2.83087 0
M  V30 17769 H 1671.19 -3.0133 -3.23501 0
M  V30 17770 N 1670.25 0.323614 -1.54242 0
M  V30 17771 C 1671.48 1.08548 -1.76726 0
M  V30 17772 C 1671.9 1.8093 -0.514375 0
M  V30 17773 O 1671.26 1.73255 0.534069 0
M  V30 17774 C 1671.31 2.05928 -2.96017 0
M  V30 17775 O 1670.41 3.13825 -2.67559 0
M  V30 17776 H 1669.75 0.31297 -0.585616 0
M  V30 17777 H 1672.28 0.367925 -2.01265 0
M  V30 17778 H 1672.29 2.48799 -3.23362 0
M  V30 17779 H 1670.97 1.52646 -3.86875 0
M  V30 17780 H 1669.55 2.7563 -2.51163 0
M  V30 17781 N 1671.73 1.46313 0.585673 0
M  V30 17782 C 1672.66 1.59511 1.70524 0
M  V30 17783 C 1673.64 0.445578 1.6416 0
M  V30 17784 O 1674.83 0.671455 1.82223 0
M  V30 17785 C 1671.96 1.58229 3.09162 0
M  V30 17786 C 1670.91 2.72122 3.30354 0
M  V30 17787 C 1670.24 2.559 4.69489 0
M  V30 17788 C 1671.54 4.13969 3.18476 0
M  V30 17789 H 1673.23 2.53229 1.59735 0
M  V30 17790 H 1670.78 1.2187 0.767046 0
M  V30 17791 H 1672.73 1.66056 3.87303 0
M  V30 17792 H 1671.45 0.610535 3.20843 0
M  V30 17793 H 1670.11 2.63759 2.54611 0
M  V30 17794 H 1669.76 1.56814 4.77931 0
M  V30 17795 H 1669.46 3.32289 4.84621 0
M  V30 17796 H 1670.99 2.65613 5.49802 0
M  V30 17797 H 1672.4 4.23459 3.86465 0
M  V30 17798 H 1670.8 4.90922 3.45131 0
M  V30 17799 H 1671.87 4.34334 2.15598 0
M  V30 17800 N 1673.21 -0.830057 1.33969 0
M  V30 17801 C 1674.46 -1.58272 1.25675 0
M  V30 17802 C 1674.78 -1.94213 -0.175071 0
M  V30 17803 O 1674.05 -1.61694 -1.10597 0
M  V30 17804 H 1672.63 -0.586858 0.462176 0
M  V30 17805 H 1675.29 -0.991495 1.67796 0
M  V30 17806 H 1674.39 -2.50874 1.85658 0
M  V30 17807 N 1674.69 -1.17582 -1.04939 0
M  V30 17808 C 1676.1 -0.971326 -1.59443 0
M  V30 17809 C 1676.45 0.481308 -1.90205 0
M  V30 17810 O 1675.57 1.35708 -1.6856 0
M  V30 17811 C 1676.17 -1.75685 -2.8969 0
M  V30 17812 C 1674.73 -1.59695 -3.40844 0
M  V30 17813 C 1673.88 -1.75688 -2.14544 0
M  V30 17814 H 1676.83 -1.32254 -0.877188 0
M  V30 17815 H 1676.85 -1.24074 -3.59703 0
M  V30 17816 H 1676.36 -2.81405 -2.67269 0
M  V30 17817 H 1674.46 -0.564746 -3.68295 0
M  V30 17818 H 1674.57 -2.38951 -4.15258 0
M  V30 17819 H 1672.94 -1.18553 -2.25427 0
M  V30 17820 H 1673.72 -2.82825 -1.94589 0
M  V30 17821 N 1676.17 1.23705 -0.976463 0
M  V30 17822 C 1677.08 2.28728 -0.521605 0
M  V30 17823 C 1678.09 1.68813 0.421691 0
M  V30 17824 O 1679.27 1.99263 0.292579 0
M  V30 17825 C 1676.33 3.4627 0.172545 0
M  V30 17826 C 1675.39 4.21557 -0.811664 0
M  V30 17827 C 1674.63 5.33488 -0.150546 0
M  V30 17828 O 1674.85 5.60478 1.05926 0
M  V30 17829 O 1673.78 5.95909 -0.847132 0
M  V30 17830 H 1677.61 2.6977 -1.39491 0
M  V30 17831 H 1675.19 1.29562 -0.743909 0
M  V30 17832 H 1677.08 4.17634 0.562103 0
M  V30 17833 H 1675.75 3.07187 1.02067 0
M  V30 17834 H 1674.66 3.52533 -1.25185 0
M  V30 17835 H 1675.99 4.6448 -1.62848 0
M  V30 17836 N 1677.64 0.747635 1.38738 0
M  V30 17837 C 1678.59 0.11597 2.30508 0
M  V30 17838 C 1679.56 -0.716088 1.49871 0
M  V30 17839 O 1680.75 -0.673446 1.7852 0
M  V30 17840 C 1677.89 -0.775765 3.36268 0
M  V30 17841 C 1677 0.070275 4.31943 0
M  V30 17842 C 1676.13 -0.823908 5.24772 0
M  V30 17843 C 1675.17 0.0261249 6.12094 0
M  V30 17844 N 1674.31 -0.824688 6.9724 0
M  V30 17845 H 1679.15 0.904158 2.83952 0
M  V30 17846 H 1676.69 0.457513 1.39804 0
M  V30 17847 H 1678.64 -1.30735 3.96187 0
M  V30 17848 H 1677.27 -1.5298 2.84248 0
M  V30 17849 H 1676.33 0.719421 3.73535 0
M  V30 17850 H 1677.64 0.726987 4.93474 0
M  V30 17851 H 1676.79 -1.42287 5.89779 0
M  V30 17852 H 1675.53 -1.51437 4.63593 0
M  V30 17853 H 1674.54 0.637803 5.46088 0
M  V30 17854 H 1675.76 0.713556 6.75341 0
M  V30 17855 H 1673.71 -1.50021 6.38616 0
M  V30 17856 H 1673.62 -0.22474 7.55666 0
M  V30 17857 H 1674.89 -1.40882 7.66663 0
M  V30 17858 N 1679.12 -1.49583 0.496242 0
M  V30 17859 C 1680.35 -2.07342 -0.0490986 0
M  V30 17860 C 1680.77 -1.35474 -1.30493 0
M  V30 17861 O 1680.13 -0.410005 -1.76603 0
M  V30 17862 C 1680.18 -3.59427 -0.290601 0
M  V30 17863 O 1679.28 -3.89111 -1.36626 0
M  V30 17864 H 1678.62 -0.663562 0.0241141 0
M  V30 17865 H 1681.15 -1.92452 0.6945 0
M  V30 17866 H 1681.16 -4.04627 -0.523549 0
M  V30 17867 H 1679.84 -4.11147 0.626959 0
M  V30 17868 H 1678.41 -3.55726 -1.11864 0
M  V30 17869 N 1680.6 -0.229873 -1.55915 0
M  V30 17870 C 1681.85 0.400157 -1.98813 0
M  V30 17871 C 1682.18 1.58821 -1.11756 0
M  V30 17872 O 1681.45 1.93692 -0.177094 0
M  V30 17873 C 1681.74 0.826623 -3.50484 0
M  V30 17874 C 1681.59 -0.365647 -4.48311 0
M  V30 17875 C 1682.91 1.6798 -4.06781 0
M  V30 17876 H 1680.03 0.143977 -0.7228 0
M  V30 17877 H 1682.67 -0.327775 -1.87151 0
M  V30 17878 H 1680.82 1.44687 -3.60552 0
M  V30 17879 H 1682.49 -1.00391 -4.50244 0
M  V30 17880 H 1680.73 -1.01168 -4.21838 0
M  V30 17881 H 1681.41 -0.0241816 -5.51995 0
M  V30 17882 H 1683.88 1.15639 -3.99708 0
M  V30 17883 H 1682.76 1.94708 -5.13206 0
M  V30 17884 H 1683.02 2.64594 -3.54179 0
M  V30 17885 N 1682.08 1.5754 0.0434337 0
M  V30 17886 C 1682.99 2.08996 1.06574 0
M  V30 17887 C 1684 1.02544 1.40573 0
M  V30 17888 O 1685.18 1.34192 1.50181 0
M  V30 17889 C 1682.24 2.54723 2.35196 0
M  V30 17890 C 1681.31 3.75595 2.0791 0
M  V30 17891 C 1680.54 4.19132 3.304 0
M  V30 17892 O 1680.76 3.62303 4.40559 0
M  V30 17893 O 1679.7 5.11694 3.16944 0
M  V30 17894 H 1683.52 2.96475 0.658503 0
M  V30 17895 H 1681.11 1.47129 0.259475 0
M  V30 17896 H 1682.99 2.84529 3.1084 0
M  V30 17897 H 1681.66 1.70361 2.75243 0
M  V30 17898 H 1680.57 3.5083 1.2988 0
M  V30 17899 H 1681.9 4.60897 1.72727 0
M  V30 17900 N 1683.56 -0.31543 1.54411 0
M  V30 17901 C 1684.8 -1.05033 1.72663 0
M  V30 17902 C 1685.12 -1.8828 0.507504 0
M  V30 17903 O 1684.39 -1.89968 -0.478418 0
M  V30 17904 H 1682.97 -0.39077 0.636638 0
M  V30 17905 H 1685.64 -0.3499 1.91733 0
M  V30 17906 H 1684.73 -1.71171 2.60973 0
M  V30 17907 N 1685.03 -1.46622 -0.577906 0
M  V30 17908 C 1685.97 -1.53587 -1.70128 0
M  V30 17909 C 1686.98 -0.423789 -1.57187 0
M  V30 17910 O 1688.17 -0.692392 -1.64524 0
M  V30 17911 C 1685.27 -1.40459 -3.08422 0
M  V30 17912 C 1684.44 -2.65872 -3.47319 0
M  V30 17913 C 1683.5 -2.46875 -4.64693 0
M  V30 17914 O 1682.53 -3.20617 -4.70312 0
M  V30 17915 N 1683.73 -1.53352 -5.59878 0
M  V30 17916 H 1686.49 -2.50449 -1.64606 0
M  V30 17917 H 1684.05 -1.42739 -0.764014 0
M  V30 17918 H 1686.05 -1.25516 -3.84744 0
M  V30 17919 H 1684.62 -0.517603 -3.08285 0
M  V30 17920 H 1683.84 -2.95724 -2.60655 0
M  V30 17921 H 1685.12 -3.49173 -3.70075 0
M  V30 17922 H 1684.52 -0.925526 -5.58078 0
M  V30 17923 H 1683.08 -1.4437 -6.3561 0
M  V30 17924 N 1686.51 0.822941 -1.34408 0
M  V30 17925 C 1687.46 1.95524 -1.25988 0
M  V30 17926 C 1688.45 1.68662 -0.157994 0
M  V30 17927 O 1689.66 1.77079 -0.322966 0
M  V30 17928 H 1686.04 0.642117 -0.391394 0
M  V30 17929 H 1688.01 1.99747 -2.21683 0
M  V30 17930 C 1686.76 3.32026 -1.03218 0
M  V30 17931 H 1686.08 3.53244 -1.87239 0
M  V30 17932 H 1687.52 4.11706 -1.01363 0
M  V30 17933 C 1685.98 3.3586 0.264523 0
M  V30 17934 O 1686.51 3.81232 1.26589 0
M  V30 17935 N 1684.71 2.89072 0.297626 0
M  V30 17936 H 1684.26 2.52341 -0.517836 0
M  V30 17937 H 1684.22 2.92019 1.165 0
M  V30 17938 N 1687.99 1.18137 1.04314 0
M  V30 17939 C 1689.24 0.975203 1.77471 0
M  V30 17940 C 1689.57 -0.495399 1.88085 0
M  V30 17941 O 1688.82 -1.38401 1.38361 0
M  V30 17942 C 1689.12 1.57211 3.20966 0
M  V30 17943 C 1688.79 3.06842 3.30392 0
M  V30 17944 C 1687.45 3.47683 3.32671 0
M  V30 17945 C 1689.8 4.02855 3.30692 0
M  V30 17946 C 1687.13 4.83116 3.3289 0
M  V30 17947 C 1689.48 5.382 3.3245 0
M  V30 17948 C 1688.14 5.78492 3.33021 0
M  V30 17949 H 1687.41 0.356852 0.649413 0
M  V30 17950 H 1690.06 1.47163 1.22536 0
M  V30 17951 H 1688.37 0.997616 3.78886 0
M  V30 17952 H 1690.06 1.38804 3.76211 0
M  V30 17953 H 1686.65 2.74291 3.29336 0
M  V30 17954 H 1690.84 3.72355 3.28124 0
M  V30 17955 H 1686.09 5.13634 3.31647 0
M  V30 17956 H 1690.27 6.12367 3.31631 0
M  V30 17957 H 1687.89 6.83412 3.32944 0
M  V30 17958 N 1689.47 -1.23186 0.98301 0
M  V30 17959 C 1690.4 -2.27054 0.544858 0
M  V30 17960 C 1691.38 -1.64749 -0.423281 0
M  V30 17961 O 1692.56 -1.91611 -0.316075 0
M  V30 17962 C 1689.69 -3.46972 -0.150976 0
M  V30 17963 C 1688.65 -4.21647 0.734707 0
M  V30 17964 C 1687.97 -5.34618 -0.0934874 0
M  V30 17965 C 1689.27 -4.81372 2.02679 0
M  V30 17966 H 1690.97 -2.63957 1.41305 0
M  V30 17967 H 1688.51 -1.26885 0.680895 0
M  V30 17968 H 1690.47 -4.18784 -0.468825 0
M  V30 17969 H 1689.19 -3.09137 -1.05364 0
M  V30 17970 H 1687.85 -3.51655 1.03605 0
M  V30 17971 H 1687.5 -4.93025 -0.996768 0
M  V30 17972 H 1687.2 -5.85503 0.496019 0
M  V30 17973 H 1688.72 -6.09251 -0.405658 0
M  V30 17974 H 1690.14 -5.45178 1.77353 0
M  V30 17975 H 1688.53 -5.42554 2.56429 0
M  V30 17976 H 1689.6 -4.01972 2.71194 0
M  V30 17977 N 1690.95 -0.754982 -1.38339 0
M  V30 17978 C 1692.17 -0.321355 -2.04895 0
M  V30 17979 C 1692.6 1.04249 -1.56569 0
M  V30 17980 O 1691.95 1.66464 -0.718299 0
M  V30 17981 C 1692 -0.354873 -3.5885 0
M  V30 17982 O 1691.11 0.65063 -4.07235 0
M  V30 17983 H 1690.45 -0.142033 -0.648631 0
M  V30 17984 H 1692.98 -1.02649 -1.76987 0
M  V30 17985 H 1692.99 -0.206243 -4.07478 0
M  V30 17986 H 1691.66 -1.34994 -3.93382 0
M  V30 17987 H 1690.24 0.466498 -3.69971 0
M  V30 17988 N 1692.42 1.49318 -0.504168 0
M  V30 17989 C 1693.33 2.32958 0.277053 0
M  V30 17990 C 1694.35 1.44838 0.964266 0
M  V30 17991 O 1695.53 1.77856 0.944947 0
M  V30 17992 C 1692.59 3.20352 1.32572 0
M  V30 17993 C 1691.65 4.24326 0.651606 0
M  V30 17994 C 1690.89 5.07544 1.65031 0
M  V30 17995 O 1691.11 4.92326 2.88047 0
M  V30 17996 O 1690.04 5.89737 1.20388 0
M  V30 17997 H 1693.87 3.00952 -0.40763 0
M  V30 17998 H 1691.45 1.47023 -0.265453 0
M  V30 17999 H 1693.34 3.74483 1.93237 0
M  V30 18000 H 1692.01 2.5505 1.99327 0
M  V30 18001 H 1690.92 3.741 0.00513384 0
M  V30 18002 H 1692.25 4.92193 0.0264424 0
M  V30 18003 N 1693.9 0.238138 1.5579 0
M  V30 18004 C 1694.85 -0.665098 2.21009 0
M  V30 18005 C 1695.82 -1.17793 1.17107 0
M  V30 18006 O 1697 -1.234 1.45523 0
M  V30 18007 C 1694.14 -1.86028 2.90667 0
M  V30 18008 C 1693.26 -1.3848 4.09203 0
M  V30 18009 C 1692.39 -2.53885 4.666 0
M  V30 18010 C 1691.43 -2.03155 5.77403 0
M  V30 18011 N 1690.57 -3.11895 6.2902 0
M  V30 18012 H 1695.41 -0.102242 2.97825 0
M  V30 18013 H 1692.95 -0.0387064 1.47049 0
M  V30 18014 H 1694.9 -2.56226 3.29248 0
M  V30 18015 H 1693.53 -2.39575 2.16341 0
M  V30 18016 H 1692.59 -0.577172 3.75996 0
M  V30 18017 H 1693.9 -0.972946 4.89219 0
M  V30 18018 H 1693.05 -3.32139 5.07709 0
M  V30 18019 H 1691.79 -2.98368 3.85782 0
M  V30 18020 H 1690.8 -1.23369 5.3578 0
M  V30 18021 H 1692.02 -1.59653 6.60067 0
M  V30 18022 H 1689.97 -3.55828 5.5111 0
M  V30 18023 H 1689.88 -2.75013 7.04204 0
M  V30 18024 H 1691.15 -3.90234 6.74787 0
M  V30 18025 N 1695.38 -1.57561 -0.0350783 0
M  V30 18026 C 1696.33 -2.07246 -1.05602 0
M  V30 18027 C 1697.32 -0.985013 -1.37818 0
M  V30 18028 O 1698.53 -1.16993 -1.36794 0
M  V30 18029 H 1694.9 -0.661286 -0.358057 0
M  V30 18030 H 1696.87 -2.92075 -0.611124 0
M  V30 18031 C 1695.62 -2.56235 -2.3503 0
M  V30 18032 H 1694.95 -3.39525 -2.111 0
M  V30 18033 H 1696.39 -2.94716 -3.04826 0
M  V30 18034 C 1694.85 -1.46096 -3.03575 0
M  V30 18035 O 1695.38 -0.823772 -3.93163 0
M  V30 18036 N 1693.58 -1.19698 -2.64803 0
M  V30 18037 H 1693.13 -1.71697 -1.92036 0
M  V30 18038 H 1693.09 -0.462174 -3.10984 0
M  V30 18039 N 1696.86 0.307236 -1.54576 0
M  V30 18040 C 1697.81 1.3787 -1.85096 0
M  V30 18041 C 1698.78 1.5066 -0.69935 0
M  V30 18042 O 1699.96 1.65618 -0.947373 0
M  V30 18043 C 1697.1 2.73976 -2.09836 0
M  V30 18044 C 1696.21 2.69687 -3.3748 0
M  V30 18045 C 1695.35 3.97746 -3.52096 0
M  V30 18046 C 1694.39 3.87829 -4.73556 0
M  V30 18047 N 1693.52 5.07651 -4.8501 0
M  V30 18048 H 1698.36 1.11144 -2.76498 0
M  V30 18049 H 1695.9 0.537696 -1.36921 0
M  V30 18050 H 1697.86 3.53121 -2.22174 0
M  V30 18051 H 1696.49 2.98977 -1.21707 0
M  V30 18052 H 1695.54 1.82441 -3.33795 0
M  V30 18053 H 1696.85 2.58247 -4.26743 0
M  V30 18054 H 1696.01 4.85327 -3.64065 0
M  V30 18055 H 1694.75 4.12012 -2.60955 0
M  V30 18056 H 1693.75 2.98633 -4.61626 0
M  V30 18057 H 1694.98 3.75114 -5.66098 0
M  V30 18058 H 1692.92 5.22393 -3.9679 0
M  V30 18059 H 1692.84 4.9861 -5.68264 0
M  V30 18060 H 1694.11 5.969 -5.01328 0
M  V30 18061 N 1698.34 1.46926 0.570122 0
M  V30 18062 C 1699.58 1.53113 1.32982 0
M  V30 18063 C 1699.92 0.187401 1.93294 0
M  V30 18064 O 1699.19 -0.802585 1.77169 0
M  V30 18065 C 1699.47 2.63936 2.44969 0
M  V30 18066 C 1699.33 4.07882 1.8961 0
M  V30 18067 C 1700.65 2.70753 3.46959 0
M  V30 18068 H 1697.76 0.557398 0.482158 0
M  V30 18069 H 1700.41 1.78923 0.639259 0
M  V30 18070 H 1698.56 2.42059 3.03874 0
M  V30 18071 H 1700.23 4.41084 1.35066 0
M  V30 18072 H 1698.47 4.16768 1.20361 0
M  V30 18073 H 1699.14 4.81175 2.70508 0
M  V30 18074 H 1701.62 2.90452 2.97954 0
M  V30 18075 H 1700.49 3.50093 4.2276 0
M  V30 18076 H 1700.76 1.77299 4.04991 0
M  V30 18077 N 1699.82 -0.815801 1.34842 0
M  V30 18078 C 1701.06 -1.57474 1.27788 0
M  V30 18079 C 1701.39 -1.9362 -0.149956 0
M  V30 18080 O 1700.67 -1.60605 -1.0971 0
M  V30 18081 C 1700.95 -2.86952 2.17556 0
M  V30 18082 C 1700.81 -2.5734 3.68912 0
M  V30 18083 C 1702.12 -3.88582 2.0662 0
M  V30 18084 H 1699.24 -0.57135 0.465541 0
M  V30 18085 H 1701.89 -0.939271 1.6516 0
M  V30 18086 H 1700.04 -3.41182 1.85815 0
M  V30 18087 H 1701.71 -2.09365 4.11052 0
M  V30 18088 H 1699.95 -1.90674 3.89648 0
M  V30 18089 H 1700.62 -3.49702 4.27098 0
M  V30 18090 H 1703.1 -3.43726 2.34503 0
M  V30 18091 H 1701.97 -4.7697 2.71644 0
M  V30 18092 H 1702.23 -4.29564 1.04532 0
M  V30 18093 N 1701.29 -1.18689 -1.03686 0
M  V30 18094 C 1702.54 -0.98606 -1.77214 0
M  V30 18095 C 1702.87 0.482788 -1.88103 0
M  V30 18096 O 1702.15 1.3585 -1.39194 0
M  V30 18097 C 1702.43 -1.64611 -3.20274 0
M  V30 18098 C 1702.28 -3.18808 -3.17304 0
M  V30 18099 C 1703.6 -1.36251 -4.18478 0
M  V30 18100 H 1700.72 -0.359634 -0.643298 0
M  V30 18101 H 1703.36 -1.46412 -1.21094 0
M  V30 18102 H 1701.51 -1.23964 -3.68192 0
M  V30 18103 H 1703.19 -3.68615 -2.77346 0
M  V30 18104 H 1701.43 -3.50769 -2.55232 0
M  V30 18105 H 1702.1 -3.60131 -4.18341 0
M  V30 18106 H 1704.58 -1.71476 -3.79124 0
M  V30 18107 H 1703.45 -1.84997 -5.16786 0
M  V30 18108 H 1703.71 -0.286113 -4.41173 0
M  V30 18109 N 1702.77 1.22662 -0.989529 0
M  V30 18110 C 1704.02 1.90944 -0.662187 0
M  V30 18111 C 1704.34 1.77477 0.807899 0
M  V30 18112 O 1703.61 1.15985 1.57874 0
M  V30 18113 H 1702.19 0.706738 -0.241932 0
M  V30 18114 H 1704.85 1.49091 -1.25531 0
M  V30 18115 H 1703.95 2.98177 -0.921777 0
M  V30 18116 N 1704.25 0.762308 1.37937 0
M  V30 18117 C 1705.2 0.140412 2.30372 0
M  V30 18118 C 1706.17 -0.700152 1.50622 0
M  V30 18119 O 1707.35 -0.654474 1.79224 0
M  V30 18120 C 1704.49 -0.740056 3.37071 0
M  V30 18121 C 1703.6 0.116084 4.31844 0
M  V30 18122 C 1702.74 -0.768203 5.25616 0
M  V30 18123 C 1701.78 0.0910442 6.12032 0
M  V30 18124 N 1700.92 -0.75069 6.98075 0
M  V30 18125 H 1705.76 0.934224 2.82977 0
M  V30 18126 H 1703.29 0.472316 1.39311 0
M  V30 18127 H 1705.25 -1.26525 3.97551 0
M  V30 18128 H 1703.88 -1.49956 2.85855 0
M  V30 18129 H 1702.93 0.758999 3.72751 0
M  V30 18130 H 1704.24 0.779285 4.92675 0
M  V30 18131 H 1703.4 -1.36024 5.91255 0
M  V30 18132 H 1702.14 -1.46511 4.65173 0
M  V30 18133 H 1701.14 0.695687 5.45381 0
M  V30 18134 H 1702.37 0.785145 6.74546 0
M  V30 18135 H 1700.31 -1.43239 6.40171 0
M  V30 18136 H 1700.23 -0.144579 7.55862 0
M  V30 18137 H 1701.5 -1.32742 7.68114 0
M  V30 18138 N 1705.73 -1.49049 0.51208 0
M  V30 18139 C 1706.98 -2.0208 -0.0284326 0
M  V30 18140 C 1707.3 -1.39303 -1.36454 0
M  V30 18141 O 1706.57 -0.552155 -1.87958 0
M  V30 18142 H 1705.15 -0.746878 -0.0134968 0
M  V30 18143 H 1707.81 -1.82954 0.671842 0
M  V30 18144 H 1706.9 -3.11739 -0.149966 0
M  V30 18145 N 1707.21 -0.246397 -1.55662 0
M  V30 18146 C 1708.12 0.664125 -2.25003 0
M  V30 18147 C 1709.13 1.19368 -1.26598 0
M  V30 18148 O 1710.31 1.23006 -1.59473 0
M  V30 18149 C 1707.37 1.8446 -2.93557 0
M  V30 18150 C 1706.43 1.35456 -4.0737 0
M  V30 18151 C 1705.67 2.47877 -4.72645 0
M  V30 18152 O 1705.89 3.66594 -4.36995 0
M  V30 18153 O 1704.82 2.17663 -5.61165 0
M  V30 18154 H 1708.65 0.103277 -3.03524 0
M  V30 18155 H 1706.23 -0.0149207 -1.49393 0
M  V30 18156 H 1708.12 2.53349 -3.36737 0
M  V30 18157 H 1706.79 2.39308 -2.17976 0
M  V30 18158 H 1705.7 0.632958 -3.68706 0
M  V30 18159 H 1707.03 0.852175 -4.84767 0
M  V30 18160 N 1708.68 1.57577 0.026722 0
M  V30 18161 C 1709.93 1.89379 0.717062 0
M  V30 18162 C 1710.26 0.843976 1.75235 0
M  V30 18163 O 1709.51 -0.154755 1.95087 0
M  V30 18164 C 1709.81 3.27927 1.42121 0
M  V30 18165 C 1709.48 4.47872 0.521676 0
M  V30 18166 C 1708.14 4.8042 0.273926 0
M  V30 18167 C 1710.49 5.21105 -0.0992493 0
M  V30 18168 C 1707.82 5.83588 -0.603488 0
M  V30 18169 C 1710.17 6.25206 -0.964379 0
M  V30 18170 C 1708.84 6.56227 -1.22157 0
M  V30 18171 H 1708.11 0.692988 0.262391 0
M  V30 18172 H 1710.75 1.91486 -0.0230629 0
M  V30 18173 H 1709.06 3.2182 2.23471 0
M  V30 18174 H 1710.76 3.49783 1.96094 0
M  V30 18175 H 1707.35 4.22425 0.724931 0
M  V30 18176 H 1711.53 4.96237 0.0791882 0
M  V30 18177 H 1706.79 6.05997 -0.811031 0
M  V30 18178 H 1710.96 6.81094 -1.45201 0
M  V30 18179 H 1708.59 7.35991 -1.90317 0
M  V30 18180 N 1710.16 -0.299034 1.54737 0
M  V30 18181 C 1711.39 -1.0529 1.78105 0
M  V30 18182 C 1711.8 -1.80868 0.541499 0
M  V30 18183 O 1711.16 -1.75834 -0.488726 0
M  V30 18184 C 1711.21 -2.03192 2.9899 0
M  V30 18185 O 1710.93 -1.30681 4.18156 0
M  V30 18186 C 1712.43 -2.90602 3.34762 0
M  V30 18187 H 1709.65 -0.312173 0.593961 0
M  V30 18188 H 1712.2 -0.337712 2.01692 0
M  V30 18189 H 1710.35 -2.70211 2.77606 0
M  V30 18190 H 1710.77 -1.96446 4.86322 0
M  V30 18191 H 1712.24 -3.55144 4.22584 0
M  V30 18192 H 1712.72 -3.59006 2.53004 0
M  V30 18193 H 1713.32 -2.29112 3.58313 0
M  V30 18194 N 1711.64 -1.47227 -0.562322 0
M  V30 18195 C 1712.59 -1.59329 -1.66981 0
M  V30 18196 C 1713.56 -0.436558 -1.6026 0
M  V30 18197 O 1714.74 -0.655956 -1.7917 0
M  V30 18198 C 1711.88 -1.60874 -3.05309 0
M  V30 18199 C 1710.99 -2.87428 -3.22505 0
M  V30 18200 C 1710.13 -2.80342 -4.512 0
M  V30 18201 C 1709.17 -4.01744 -4.6181 0
M  V30 18202 N 1708.31 -3.92924 -5.81855 0
M  V30 18203 H 1713.15 -2.53921 -1.55975 0
M  V30 18204 H 1710.68 -1.25953 -0.759879 0
M  V30 18205 H 1712.64 -1.59753 -3.85402 0
M  V30 18206 H 1711.27 -0.697994 -3.15163 0
M  V30 18207 H 1710.32 -2.98439 -2.35878 0
M  V30 18208 H 1711.63 -3.77345 -3.26209 0
M  V30 18209 H 1710.79 -2.77442 -5.39547 0
M  V30 18210 H 1709.53 -1.881 -4.49966 0
M  V30 18211 H 1708.53 -4.04954 -3.71877 0
M  V30 18212 H 1709.76 -4.95107 -4.64807 0
M  V30 18213 H 1707.7 -3.03481 -5.8158 0
M  V30 18214 H 1707.62 -4.76514 -5.86916 0
M  V30 18215 H 1708.89 -3.94031 -6.72577 0
M  V30 18216 N 1713.12 0.808639 -1.35273 0
M  V30 18217 C 1714.39 1.55238 -1.18998 0
M  V30 18218 C 1714.77 2.09824 0.231723 0
M  V30 18219 O 1714.12 1.92252 1.23497 0
M  V30 18220 C 1714.33 2.66252 -2.25634 0
M  V30 18221 C 1715.68 3.34646 -2.61338 0
M  V30 18222 O 1716.7 2.76521 -2.24532 0
M  V30 18223 O 1715.56 4.39644 -3.24615 0
M  V30 18224 H 1712.66 0.6858 -0.462176 0
M  V30 18225 H 1715.2 0.848777 -1.46949 0
M  V30 18226 H 1713.98 2.23774 -3.21 0
M  V30 18227 H 1713.6 3.4425 -1.98941 0
M  V30 18228 N 1714.6 1.19237 1.03055 0
M  V30 18229 C 1715.84 0.995444 1.76688 0
M  V30 18230 C 1716.18 -0.472805 1.88357 0
M  V30 18231 O 1715.45 -1.3511 1.39913 0
M  V30 18232 C 1715.73 1.66308 3.19396 0
M  V30 18233 C 1715.59 3.20486 3.15609 0
M  V30 18234 C 1716.91 1.38468 4.17749 0
M  V30 18235 H 1714.02 0.36304 0.641382 0
M  V30 18236 H 1716.67 1.47052 1.20315 0
M  V30 18237 H 1714.82 1.25915 3.67529 0
M  V30 18238 H 1716.49 3.70081 2.75387 0
M  V30 18239 H 1714.73 3.52118 2.53369 0
M  V30 18240 H 1715.4 3.62345 4.16426 0
M  V30 18241 H 1717.88 1.73485 3.78209 0
M  V30 18242 H 1716.75 1.87735 5.15797 0
M  V30 18243 H 1717.02 0.309505 4.41015 0
M  V30 18244 N 1716.07 -1.22136 0.99602 0
M  V30 18245 C 1717.32 -1.9059 0.672303 0
M  V30 18246 C 1717.64 -1.77903 -0.798476 0
M  V30 18247 O 1716.91 -1.1682 -1.57257 0
M  V30 18248 H 1715.49 -0.705445 0.245676 0
M  V30 18249 H 1718.16 -1.48423 1.2632 0
M  V30 18250 H 1717.25 -2.97684 0.937577 0
M  V30 18251 N 1717.55 -0.769612 -1.37531 0
M  V30 18252 C 1718.48 -0.168389 -2.32892 0
M  V30 18253 C 1719.46 0.685549 -1.55673 0
M  V30 18254 O 1720.65 0.62345 -1.8392 0
M  V30 18255 C 1717.78 0.713183 -3.39898 0
M  V30 18256 C 1716.73 -0.0392808 -4.27982 0
M  V30 18257 C 1716.06 0.961596 -5.25982 0
M  V30 18258 C 1717.36 -1.21704 -5.07923 0
M  V30 18259 H 1719.05 -0.965022 -2.83421 0
M  V30 18260 H 1716.6 -0.465502 -1.36268 0
M  V30 18261 H 1718.55 1.14358 -4.05586 0
M  V30 18262 H 1717.28 1.54231 -2.87889 0
M  V30 18263 H 1715.93 -0.450429 -3.63822 0
M  V30 18264 H 1715.58 1.78522 -4.70254 0
M  V30 18265 H 1715.28 0.462679 -5.85776 0
M  V30 18266 H 1716.81 1.39097 -5.94545 0
M  V30 18267 H 1718.22 -0.863405 -5.66761 0
M  V30 18268 H 1716.62 -1.6479 -5.77031 0
M  V30 18269 H 1717.69 -2.02219 -4.40722 0
M  V30 18270 N 1719.03 1.48775 -0.519977 0
M  V30 18271 C 1719.98 2.29461 0.248242 0
M  V30 18272 C 1720.95 1.36734 0.943027 0
M  V30 18273 O 1722.13 1.65697 0.946003 0
M  V30 18274 C 1719.27 3.19868 1.29531 0
M  V30 18275 C 1718.39 4.27666 0.610379 0
M  V30 18276 C 1717.52 5.05266 1.63951 0
M  V30 18277 C 1716.56 6.04878 0.937496 0
M  V30 18278 N 1715.7 6.75573 1.91171 0
M  V30 18279 H 1720.54 2.94643 -0.446016 0
M  V30 18280 H 1718.07 1.45262 -0.231792 0
M  V30 18281 H 1720.03 3.70675 1.91456 0
M  V30 18282 H 1718.66 2.5663 1.95808 0
M  V30 18283 H 1717.71 3.80202 -0.122598 0
M  V30 18284 H 1719.03 4.98765 0.0586864 0
M  V30 18285 H 1718.18 5.60037 2.33332 0
M  V30 18286 H 1716.92 4.33983 2.22509 0
M  V30 18287 H 1715.92 5.49321 0.229562 0
M  V30 18288 H 1717.15 6.78155 0.358166 0
M  V30 18289 H 1715.09 6.07048 2.48655 0
M  V30 18290 H 1715.01 7.42712 1.41118 0
M  V30 18291 H 1716.28 7.34938 2.59781 0
M  V30 18292 N 1720.51 0.254649 1.55529 0
M  V30 18293 C 1721.42 -0.652184 2.25352 0
M  V30 18294 C 1722.43 -1.18695 1.2723 0
M  V30 18295 O 1723.61 -1.22158 1.60123 0
M  V30 18296 C 1720.68 -1.829 2.94531 0
M  V30 18297 C 1719.74 -1.33294 4.08082 0
M  V30 18298 C 1718.97 -2.45367 4.73952 0
M  V30 18299 O 1719.19 -3.64271 4.38933 0
M  V30 18300 O 1718.13 -2.14684 5.62311 0
M  V30 18301 H 1721.95 -0.0871786 3.03575 0
M  V30 18302 H 1719.54 0.0228432 1.49383 0
M  V30 18303 H 1721.42 -2.5156 3.38076 0
M  V30 18304 H 1720.09 -2.38148 2.19242 0
M  V30 18305 H 1719 -0.613396 3.69037 0
M  V30 18306 H 1720.33 -0.826454 4.85212 0
M  V30 18307 N 1721.99 -1.57589 -0.0183649 0
M  V30 18308 C 1722.92 -2.02659 -1.04903 0
M  V30 18309 C 1723.9 -0.912926 -1.34553 0
M  V30 18310 O 1725.08 -1.17961 -1.47029 0
M  V30 18311 C 1722.21 -2.40869 -2.38117 0
M  V30 18312 C 1721.25 -3.62785 -2.24253 0
M  V30 18313 S 1722.09 -5.11479 -1.58585 0
M  V30 18314 C 1723.24 -5.52942 -2.93268 0
M  V30 18315 H 1723.48 -2.89763 -0.665188 0
M  V30 18316 H 1721.01 -1.52697 -0.228676 0
M  V30 18317 H 1722.97 -2.63553 -3.14722 0
M  V30 18318 H 1721.63 -1.54197 -2.73646 0
M  V30 18319 H 1720.82 -3.87211 -3.2262 0
M  V30 18320 H 1720.42 -3.40007 -1.55792 0
M  V30 18321 H 1722.72 -5.5428 -3.8959 0
M  V30 18322 H 1723.66 -6.53123 -2.73563 0
M  V30 18323 H 1724.07 -4.80466 -2.96333 0
M  V30 18324 N 1723.46 0.290824 -1.54893 0
M  V30 18325 C 1724.71 1.02627 -1.74916 0
M  V30 18326 C 1725.04 1.86572 -0.538921 0
M  V30 18327 O 1724.32 1.88888 0.463844 0
M  V30 18328 C 1724.6 1.92376 -3.04407 0
M  V30 18329 C 1724.45 1.11542 -4.3575 0
M  V30 18330 C 1725.77 2.91383 -3.29824 0
M  V30 18331 H 1722.89 0.371685 -0.636411 0
M  V30 18332 H 1725.53 0.300072 -1.87615 0
M  V30 18333 H 1723.68 2.54295 -2.93711 0
M  V30 18334 H 1725.36 0.518312 -4.58379 0
M  V30 18335 H 1723.6 0.418386 -4.31778 0
M  V30 18336 H 1724.27 1.77616 -5.22644 0
M  V30 18337 H 1726.75 2.39595 -3.40196 0
M  V30 18338 H 1725.62 3.51338 -4.21726 0
M  V30 18339 H 1725.88 3.65579 -2.48606 0
M  V30 18340 N 1724.94 1.47523 0.554506 0
M  V30 18341 C 1726.19 1.54287 1.31156 0
M  V30 18342 C 1726.52 0.206279 1.93403 0
M  V30 18343 O 1725.77 -0.801103 1.78552 0
M  V30 18344 C 1726.07 2.6113 2.4402 0
M  V30 18345 C 1725.74 4.04322 1.99586 0
M  V30 18346 C 1724.4 4.43301 1.87184 0
M  V30 18347 C 1726.75 4.94158 1.65703 0
M  V30 18348 C 1724.08 5.69948 1.39198 0
M  V30 18349 C 1726.43 6.21271 1.19187 0
M  V30 18350 C 1725.1 6.59129 1.05383 0
M  V30 18351 H 1724.37 0.564575 0.479934 0
M  V30 18352 H 1727.01 1.81134 0.621521 0
M  V30 18353 H 1725.32 2.2805 3.18591 0
M  V30 18354 H 1727.01 2.63585 3.02199 0
M  V30 18355 H 1723.6 3.73526 2.10182 0
M  V30 18356 H 1727.79 4.6474 1.74156 0
M  V30 18357 H 1723.04 5.98027 1.27178 0
M  V30 18358 H 1727.22 6.90292 0.920312 0
M  V30 18359 H 1724.85 7.57155 0.679777 0
M  V30 18360 N 1726.42 -0.801453 1.357 0
M  V30 18361 C 1727.83 -1.37581 1.26208 0
M  V30 18362 C 1728.18 -1.95928 -0.103326 0
M  V30 18363 O 1727.31 -1.91676 -1.00445 0
M  V30 18364 C 1727.9 -2.50122 2.28527 0
M  V30 18365 C 1726.46 -3.03405 2.2276 0
M  V30 18366 C 1725.61 -1.76401 2.13958 0
M  V30 18367 H 1728.56 -0.60407 1.46754 0
M  V30 18368 H 1728.58 -3.28814 1.91472 0
M  V30 18369 H 1728.09 -2.07626 3.27892 0
M  V30 18370 H 1726.19 -3.50352 1.26822 0
M  V30 18371 H 1726.31 -3.61038 3.14942 0
M  V30 18372 H 1724.67 -1.98158 1.60017 0
M  V30 18373 H 1725.45 -1.3605 3.15191 0
M  V30 18374 N 1727.9 -1.19782 -1.02421 0
M  V30 18375 C 1729.12 -1.02939 -1.80051 0
M  V30 18376 C 1729.55 0.417153 -1.83416 0
M  V30 18377 O 1728.91 1.3001 -1.26361 0
M  V30 18378 C 1728.95 -1.60853 -3.22736 0
M  V30 18379 O 1728.06 -0.840999 -4.03734 0
M  V30 18380 H 1727.4 -0.363537 -0.555641 0
M  V30 18381 H 1729.93 -1.58908 -1.28878 0
M  V30 18382 H 1729.94 -1.64266 -3.73471 0
M  V30 18383 H 1728.61 -2.66135 -3.19602 0
M  V30 18384 H 1727.19 -0.880482 -3.62356 0
M  V30 18385 N 1729.38 1.21606 -1.00248 0
M  V30 18386 C 1730.6 1.95149 -0.702249 0
M  V30 18387 C 1731.03 1.73429 0.728293 0
M  V30 18388 O 1730.39 1.01953 1.49917 0
M  V30 18389 C 1730.43 3.45705 -1.0257 0
M  V30 18390 O 1729.54 4.12196 -0.129575 0
M  V30 18391 H 1728.88 0.610173 -0.261888 0
M  V30 18392 H 1731.41 1.54435 -1.34205 0
M  V30 18393 H 1731.42 3.96265 -0.97151 0
M  V30 18394 H 1730.09 3.60838 -2.06806 0
M  V30 18395 H 1728.67 3.72126 -0.240074 0
M  V30 18396 N 1730.86 0.776895 1.37121 0
M  V30 18397 C 1732.27 0.457116 1.52914 0
M  V30 18398 C 1732.47 -1.0265 1.73394 0
M  V30 18399 O 1731.53 -1.81224 1.75824 0
M  V30 18400 C 1732.84 1.27667 2.72253 0
M  V30 18401 C 1734.39 1.26909 2.86117 0
M  V30 18402 C 1734.86 2.0721 4.08446 0
M  V30 18403 N 1736.35 2.04591 4.15568 0
M  V30 18404 C 1737.09 2.63502 5.09268 0
M  V30 18405 N 1736.59 3.31222 6.08493 0
M  V30 18406 N 1738.38 2.53304 5.0179 0
M  V30 18407 H 1730.53 1.73811 1.2208 0
M  V30 18408 H 1732.79 0.738142 0.594853 0
M  V30 18409 H 1732.5 2.32825 2.63601 0
M  V30 18410 H 1732.37 0.909363 3.66074 0
M  V30 18411 H 1734.76 0.225476 2.94237 0
M  V30 18412 H 1734.84 1.67607 1.9324 0
M  V30 18413 H 1734.48 3.11595 4.01087 0
M  V30 18414 H 1734.41 1.63891 5.00447 0
M  V30 18415 H 1736.91 1.55293 3.44518 0
M  V30 18416 H 1737.22 3.73535 6.76529 0
M  V30 18417 H 1735.56 3.35322 6.08756 0
M  V30 18418 H 1738.75 2.00009 4.23218 0
M  V30 18419 H 1738.93 2.99509 5.74629 0
M  V30 18420 N 1732.33 -1.48497 0.527859 0
M  V30 18421 C 1733.28 -2.31258 -0.249477 0
M  V30 18422 C 1734.28 -1.41094 -0.93749 0
M  V30 18423 O 1735.48 -1.58011 -0.862117 0
M  V30 18424 H 1731.86 -0.745412 -0.0993208 0
M  V30 18425 H 1733.83 -2.94705 0.46815 0
M  V30 18426 C 1732.58 -3.23095 -1.28472 0
M  V30 18427 H 1731.9 -3.92418 -0.764724 0
M  V30 18428 H 1733.34 -3.83892 -1.80008 0
M  V30 18429 C 1731.8 -2.44554 -2.31722 0
M  V30 18430 O 1732.33 -2.16883 -3.38119 0
M  V30 18431 N 1730.53 -2.06088 -2.04881 0
M  V30 18432 H 1730.08 -2.28791 -1.18374 0
M  V30 18433 H 1730.04 -1.53849 -2.74186 0
M  V30 18434 N 1733.81 -0.262893 -1.55392 0
M  V30 18435 C 1734.74 0.623732 -2.25015 0
M  V30 18436 C 1735.72 1.16865 -1.23598 0
M  V30 18437 O 1736.91 1.20505 -1.5229 0
M  V30 18438 C 1734.04 1.81353 -2.9619 0
M  V30 18439 C 1732.99 1.40069 -4.04431 0
M  V30 18440 C 1732.32 2.67261 -4.63115 0
M  V30 18441 C 1733.62 0.559905 -5.1929 0
M  V30 18442 H 1735.31 0.0431306 -2.99369 0
M  V30 18443 H 1732.86 0.0193043 -1.43987 0
M  V30 18444 H 1734.81 2.43958 -3.43602 0
M  V30 18445 H 1733.53 2.41977 -2.1935 0
M  V30 18446 H 1732.19 0.797905 -3.57811 0
M  V30 18447 H 1731.84 3.26117 -3.82958 0
M  V30 18448 H 1731.54 2.40354 -5.36194 0
M  V30 18449 H 1733.07 3.30735 -5.1327 0
M  V30 18450 H 1734.48 1.09064 -5.6283 0
M  V30 18451 H 1732.88 0.386234 -5.98856 0
M  V30 18452 H 1733.95 -0.424199 -4.83041 0
M  V30 18453 N 1735.29 1.57597 0.0100073 0
M  V30 18454 C 1736.54 1.90129 0.696935 0
M  V30 18455 C 1736.86 0.862514 1.7433 0
M  V30 18456 O 1736.12 -0.134054 1.9524 0
M  V30 18457 C 1736.42 3.29416 1.38635 0
M  V30 18458 C 1736.08 4.484 0.474144 0
M  V30 18459 C 1734.75 4.80683 0.222956 0
M  V30 18460 C 1737.1 5.20971 -0.154514 0
M  V30 18461 C 1734.43 5.82915 -0.665351 0
M  V30 18462 C 1736.78 6.24148 -1.03064 0
M  V30 18463 C 1735.44 6.54895 -1.2911 0
M  V30 18464 H 1734.71 0.695732 0.255027 0
M  V30 18465 H 1737.36 1.91451 -0.0433713 0
M  V30 18466 H 1735.66 3.24172 2.20045 0
M  V30 18467 H 1737.36 3.51843 1.92373 0
M  V30 18468 H 1733.95 4.2317 0.680087 0
M  V30 18469 H 1738.14 4.96293 0.0265512 0
M  V30 18470 H 1733.39 6.05103 -0.875259 0
M  V30 18471 H 1737.57 6.79516 -1.52417 0
M  V30 18472 H 1735.19 7.33931 -1.98113 0
M  V30 18473 N 1736.77 -0.282606 1.55045 0
M  V30 18474 C 1737.7 -1.35347 1.90272 0
M  V30 18475 C 1738.68 -1.52001 0.763532 0
M  V30 18476 O 1739.86 -1.65204 1.02085 0
M  V30 18477 C 1736.99 -2.71464 2.16621 0
M  V30 18478 C 1735.95 -2.69554 3.32453 0
M  V30 18479 C 1735.27 -4.09132 3.4426 0
M  V30 18480 C 1736.57 -2.29669 4.69094 0
M  V30 18481 H 1738.27 -1.06113 2.79965 0
M  V30 18482 H 1735.81 -0.509018 1.34703 0
M  V30 18483 H 1737.77 -3.46482 2.39851 0
M  V30 18484 H 1736.49 -3.02261 1.23717 0
M  V30 18485 H 1735.15 -1.96993 3.09175 0
M  V30 18486 H 1734.8 -4.37136 2.4884 0
M  V30 18487 H 1734.5 -4.08751 4.22133 0
M  V30 18488 H 1736.02 -4.85903 3.69771 0
M  V30 18489 H 1737.44 -2.94407 4.91932 0
M  V30 18490 H 1735.83 -2.40467 5.49814 0
M  V30 18491 H 1736.9 -1.24796 4.68566 0
M  V30 18492 N 1738.25 -1.47815 -0.546675 0
M  V30 18493 C 1739.47 -1.58613 -1.32851 0
M  V30 18494 C 1739.89 -0.240179 -1.87266 0
M  V30 18495 O 1739.25 0.768148 -1.65547 0
M  V30 18496 C 1739.3 -2.61969 -2.49107 0
M  V30 18497 O 1739.02 -3.9134 -1.96938 0
M  V30 18498 C 1740.52 -2.83051 -3.4117 0
M  V30 18499 H 1737.74 -0.535292 -0.404603 0
M  V30 18500 H 1740.28 -1.93516 -0.661192 0
M  V30 18501 H 1738.44 -2.29971 -3.11756 0
M  V30 18502 H 1738.85 -4.47905 -2.72913 0
M  V30 18503 H 1740.33 -3.59209 -4.19134 0
M  V30 18504 H 1740.8 -1.91258 -3.95369 0
M  V30 18505 H 1741.41 -3.16287 -2.84328 0
M  V30 18506 N 1739.72 0.794246 -1.36123 0
M  V30 18507 C 1740.67 1.92808 -1.30108 0
M  V30 18508 C 1741.67 1.68289 -0.193734 0
M  V30 18509 O 1742.87 1.76354 -0.360454 0
M  V30 18510 H 1739.25 0.633671 -0.404926 0
M  V30 18511 H 1741.22 1.95 -2.2587 0
M  V30 18512 C 1739.97 3.29762 -1.10238 0
M  V30 18513 H 1739.29 3.49193 -1.9469 0
M  V30 18514 H 1740.73 4.09463 -1.10073 0
M  V30 18515 C 1739.19 3.36345 0.193222 0
M  V30 18516 O 1739.72 3.83832 1.18474 0
M  V30 18517 N 1737.92 2.89638 0.236243 0
M  V30 18518 H 1737.47 2.51186 -0.571245 0
M  V30 18519 H 1737.43 2.94424 1.1028 0
M  V30 18520 N 1741.2 1.20323 1.01785 0
M  V30 18521 C 1742.13 0.974819 2.12178 0
M  V30 18522 C 1743.11 -0.0957637 1.6983 0
M  V30 18523 O 1744.3 0.0614963 1.94103 0
M  V30 18524 C 1741.43 0.524739 3.43313 0
M  V30 18525 C 1740.38 1.53842 3.99395 0
M  V30 18526 C 1739.71 0.945021 5.26283 0
M  V30 18527 C 1741.01 2.92179 4.3293 0
M  V30 18528 H 1742.7 1.8981 2.31544 0
M  V30 18529 H 1740.25 0.914025 1.11273 0
M  V30 18530 H 1742.2 0.352182 4.19926 0
M  V30 18531 H 1740.92 -0.434161 3.23701 0
M  V30 18532 H 1739.58 1.69832 3.24889 0
M  V30 18533 H 1739.23 -0.0217709 5.02995 0
M  V30 18534 H 1738.93 1.62201 5.64769 0
M  V30 18535 H 1740.46 0.783504 6.05552 0
M  V30 18536 H 1741.87 2.79708 5.00436 0
M  V30 18537 H 1740.27 3.56773 4.82528 0
M  V30 18538 H 1741.34 3.43997 3.41752 0
M  V30 18539 N 1742.68 -1.21073 1.00892 0
M  V30 18540 C 1743.96 -1.85871 0.609214 0
M  V30 18541 C 1744.34 -1.90334 -0.913023 0
M  V30 18542 O 1743.68 -1.40552 -1.80159 0
M  V30 18543 C 1743.89 -3.25918 1.24813 0
M  V30 18544 C 1745.24 -4.02274 1.35871 0
M  V30 18545 O 1746.27 -3.35244 1.20375 0
M  V30 18546 O 1745.13 -5.22296 1.60838 0
M  V30 18547 H 1742.22 -0.800105 0.20919 0
M  V30 18548 H 1744.77 -1.28724 1.10581 0
M  V30 18549 H 1743.54 -3.17392 2.28862 0
M  V30 18550 H 1743.16 -3.90688 0.738124 0
M  V30 18551 N 1744.16 -0.784156 -1.36707 0
M  V30 18552 C 1745.11 -0.166827 -2.32001 0
M  V30 18553 C 1746.1 0.670916 -1.55548 0
M  V30 18554 O 1747.31 0.566588 -1.7085 0
M  V30 18555 H 1743.68 -0.0351691 -0.751177 0
M  V30 18556 H 1745.65 -0.986074 -2.81637 0
M  V30 18557 C 1744.4 0.6881 -3.40823 0
M  V30 18558 H 1743.72 0.0528343 -3.99765 0
M  V30 18559 H 1745.16 1.08681 -4.09835 0
M  V30 18560 C 1743.62 1.84408 -2.81949 0
M  V30 18561 O 1744.15 2.94034 -2.73691 0
M  V30 18562 N 1742.36 1.64855 -2.39314 0
M  V30 18563 H 1741.91 0.756867 -2.4623 0
M  V30 18564 H 1741.86 2.42363 -2.00268 0
M  V30 18565 N 1745.64 1.48215 -0.535727 0
M  V30 18566 C 1746.57 2.3253 0.212562 0
M  V30 18567 C 1747.55 1.42454 0.929568 0
M  V30 18568 O 1748.73 1.71334 0.914228 0
M  V30 18569 C 1745.86 3.23777 1.25641 0
M  V30 18570 C 1744.82 4.22924 0.657191 0
M  V30 18571 C 1744.14 5.03345 1.80411 0
M  V30 18572 C 1745.44 5.20953 -0.374902 0
M  V30 18573 H 1747.14 2.95341 -0.491301 0
M  V30 18574 H 1744.68 1.42024 -0.237718 0
M  V30 18575 H 1746.64 3.81592 1.78789 0
M  V30 18576 H 1745.36 2.58978 1.98993 0
M  V30 18577 H 1744.02 3.66304 0.147184 0
M  V30 18578 H 1743.67 4.34965 2.52615 0
M  V30 18579 H 1743.37 5.70455 1.40906 0
M  V30 18580 H 1744.89 5.64013 2.33926 0
M  V30 18581 H 1746.3 5.73258 0.0697072 0
M  V30 18582 H 1744.7 5.96147 -0.687646 0
M  V30 18583 H 1745.77 4.67739 -1.27861 0
M  V30 18584 N 1747.11 0.27113 1.5525 0
M  V30 18585 C 1748.06 -0.632507 2.19051 0
M  V30 18586 C 1749.05 -1.12135 1.15388 0
M  V30 18587 O 1750.24 -1.06709 1.41217 0
M  V30 18588 C 1747.37 -1.81804 2.91208 0
M  V30 18589 C 1746.46 -1.34656 4.02155 0
M  V30 18590 N 1746.85 -0.590954 5.02336 0
M  V30 18591 C 1745.14 -1.62985 4.15153 0
M  V30 18592 C 1745.85 -0.343602 5.80684 0
M  V30 18593 N 1744.82 -0.914869 5.35846 0
M  V30 18594 H 1748.62 -0.0473244 2.93862 0
M  V30 18595 H 1746.14 0.0745107 1.62229 0
M  V30 18596 H 1748.13 -2.47666 3.35361 0
M  V30 18597 H 1746.79 -2.40721 2.17907 0
M  V30 18598 H 1747.81 -0.238682 5.1735 0
M  V30 18599 H 1744.48 -2.22867 3.53039 0
M  V30 18600 H 1745.87 0.261284 6.71392 0
M  V30 18601 N 1748.59 -1.576 -0.00164943 0
M  V30 18602 C 1749.5 -2.11748 -1.00995 0
M  V30 18603 C 1750.52 -1.06235 -1.37805 0
M  V30 18604 O 1751.69 -1.38127 -1.4657 0
M  V30 18605 C 1748.76 -2.60869 -2.2836 0
M  V30 18606 C 1747.82 -3.80976 -1.97879 0
M  V30 18607 C 1747.05 -4.27745 -3.19171 0
M  V30 18608 O 1747.28 -3.73856 -4.30799 0
M  V30 18609 O 1746.21 -5.19917 -3.03265 0
M  V30 18610 H 1750.04 -2.98117 -0.579667 0
M  V30 18611 H 1747.62 -1.47766 -0.220375 0
M  V30 18612 H 1749.5 -2.9267 -3.03187 0
M  V30 18613 H 1748.18 -1.77598 -2.7063 0
M  V30 18614 H 1747.09 -3.54151 -1.20533 0
M  V30 18615 H 1748.42 -4.65315 -1.60447 0
M  V30 18616 N 1750.07 0.274379 -1.55193 0
M  V30 18617 C 1751.02 1.35903 -1.88767 0
M  V30 18618 C 1752.01 1.512 -0.763874 0
M  V30 18619 O 1753.22 1.53 -0.948201 0
M  V30 18620 H 1749.59 0.454495 -0.599114 0
M  V30 18621 H 1751.56 1.04837 -2.79378 0
M  V30 18622 C 1750.31 2.71277 -2.17496 0
M  V30 18623 H 1749.64 2.60297 -3.03456 0
M  V30 18624 H 1751.08 3.46115 -2.44909 0
M  V30 18625 C 1749.54 3.22268 -0.982101 0
M  V30 18626 O 1750.07 4.01119 -0.216035 0
M  V30 18627 N 1748.27 2.79931 -0.780179 0
M  V30 18628 H 1747.82 2.15923 -1.40482 0
M  V30 18629 H 1747.78 3.14396 0.0163297 0
M  V30 18630 N 1751.55 1.48103 0.538828 0
M  V30 18631 C 1752.5 1.62398 1.66522 0
M  V30 18632 C 1753.49 0.490669 1.62138 0
M  V30 18633 O 1754.7 0.669098 1.67102 0
M  V30 18634 H 1751.07 0.511415 0.551324 0
M  V30 18635 H 1753.04 2.57018 1.51606 0
M  V30 18636 C 1751.79 1.67264 3.04824 0
M  V30 18637 H 1751.11 2.53828 3.08887 0
M  V30 18638 H 1752.55 1.81312 3.83278 0
M  V30 18639 C 1751.01 0.409539 3.34402 0
M  V30 18640 O 1751.54 -0.481433 3.98805 0
M  V30 18641 N 1749.75 0.283934 2.8921 0
M  V30 18642 H 1749.3 1.00993 2.36977 0
M  V30 18643 H 1749.25 -0.560201 3.09369 0
M  V30 18644 N 1753.03 -0.787016 1.36542 0
M  V30 18645 C 1754.25 -1.57588 1.34065 0
M  V30 18646 C 1754.67 -1.88641 -0.0775397 0
M  V30 18647 O 1754.03 -1.50306 -1.03511 0
M  V30 18648 C 1754.08 -2.89543 2.16442 0
M  V30 18649 O 1753.8 -2.59828 3.52734 0
M  V30 18650 C 1755.3 -3.83838 2.21773 0
M  V30 18651 H 1752.52 -0.488708 0.459789 0
M  V30 18652 H 1755.06 -0.976614 1.79673 0
M  V30 18653 H 1753.22 -3.45933 1.74383 0
M  V30 18654 H 1753.63 -3.44219 3.95744 0
M  V30 18655 H 1755.11 -4.73478 2.83765 0
M  V30 18656 H 1755.58 -4.21862 1.22185 0
M  V30 18657 H 1756.19 -3.33381 2.64078 0
M  V30 18658 N 1754.5 -1.20861 -1.01145 0
M  V30 18659 C 1755.45 -0.929642 -2.08187 0
M  V30 18660 C 1756.44 0.112578 -1.60506 0
M  V30 18661 O 1757.63 -0.0954894 -1.76742 0
M  V30 18662 C 1754.76 -0.489163 -3.39797 0
M  V30 18663 C 1753.85 -1.5651 -3.94164 0
M  V30 18664 N 1754.24 -2.7887 -4.21978 0
M  V30 18665 C 1752.53 -1.43246 -4.2237 0
M  V30 18666 C 1753.24 -3.48309 -4.65892 0
M  V30 18667 N 1752.21 -2.75734 -4.68478 0
M  V30 18668 H 1756.01 -1.85937 -2.27606 0
M  V30 18669 H 1753.53 -1.10338 -1.19161 0
M  V30 18670 H 1755.52 -0.27069 -4.1602 0
M  V30 18671 H 1754.18 0.433877 -3.21788 0
M  V30 18672 H 1755.2 -3.15473 -4.10727 0
M  V30 18673 H 1751.87 -0.57422 -4.13532 0
M  V30 18674 H 1753.26 -4.53042 -4.96188 0
M  V30 18675 N 1755.98 1.20536 -1.01532 0
M  V30 18676 C 1756.93 2.2531 -0.577786 0
M  V30 18677 C 1757.92 1.65017 0.382843 0
M  V30 18678 O 1759.13 1.78214 0.252904 0
M  V30 18679 H 1755.51 0.732872 -0.168532 0
M  V30 18680 H 1757.48 2.59544 -1.4724 0
M  V30 18681 C 1756.23 3.47631 0.0694263 0
M  V30 18682 H 1755.55 3.94302 -0.660748 0
M  V30 18683 H 1756.99 4.22645 0.338706 0
M  V30 18684 C 1755.45 3.1031 1.31185 0
M  V30 18685 O 1755.98 3.21729 2.40527 0
M  V30 18686 N 1754.18 2.64871 1.19547 0
M  V30 18687 H 1753.73 2.55779 0.305741 0
M  V30 18688 H 1753.69 2.4027 2.02775 0
M  V30 18689 N 1757.46 0.791395 1.36289 0
M  V30 18690 C 1758.39 0.149076 2.28715 0
M  V30 18691 C 1759.41 -0.642827 1.49571 0
M  V30 18692 O 1760.59 -0.477685 1.7199 0
M  V30 18693 C 1757.69 -0.811868 3.29032 0
M  V30 18694 C 1756.87 -0.0695975 4.37345 0
M  V30 18695 C 1755.93 -0.946776 5.17612 0
M  V30 18696 O 1754.95 -0.403295 5.67769 0
M  V30 18697 N 1756.15 -2.27079 5.34243 0
M  V30 18698 H 1758.92 0.943005 2.84478 0
M  V30 18699 H 1756.48 0.645479 1.48476 0
M  V30 18700 H 1758.47 -1.40257 3.79618 0
M  V30 18701 H 1757.04 -1.50667 2.73895 0
M  V30 18702 H 1756.26 0.702196 3.87895 0
M  V30 18703 H 1757.55 0.442542 5.06872 0
M  V30 18704 H 1756.95 -2.73646 4.9511 0
M  V30 18705 H 1755.51 -2.81109 5.88065 0
M  V30 18706 N 1758.94 -1.47929 0.54358 0
M  V30 18707 C 1759.85 -2.33611 -0.215191 0
M  V30 18708 C 1760.87 -1.47343 -0.925526 0
M  V30 18709 O 1762.04 -1.80299 -0.897459 0
M  V30 18710 C 1759.11 -3.23755 -1.24031 0
M  V30 18711 C 1758.17 -4.25904 -0.538874 0
M  V30 18712 C 1757.4 -5.11741 -1.51516 0
M  V30 18713 O 1757.62 -4.9979 -2.74893 0
M  V30 18714 O 1756.56 -5.92722 -1.0471 0
M  V30 18715 H 1760.38 -2.99765 0.487279 0
M  V30 18716 H 1757.97 -1.46267 0.30434 0
M  V30 18717 H 1759.85 -3.79475 -1.8324 0
M  V30 18718 H 1758.53 -2.60245 -1.92495 0
M  V30 18719 H 1757.43 -3.73982 0.0940539 0
M  V30 18720 H 1758.77 -4.9209 0.104063 0
M  V30 18721 N 1760.42 -0.27936 -1.55104 0
M  V30 18722 C 1761.36 0.606268 -2.22695 0
M  V30 18723 C 1762.33 1.14646 -1.20189 0
M  V30 18724 O 1763.52 1.19498 -1.48744 0
M  V30 18725 C 1760.66 1.78256 -2.95497 0
M  V30 18726 C 1759.77 1.27582 -4.12731 0
M  V30 18727 C 1758.91 2.41425 -4.73167 0
M  V30 18728 C 1757.95 1.87775 -5.82586 0
M  V30 18729 N 1757.08 2.95108 -6.37068 0
M  V30 18730 H 1761.92 0.0232427 -2.97991 0
M  V30 18731 H 1759.46 -0.000294714 -1.471 0
M  V30 18732 H 1761.42 2.47406 -3.35925 0
M  V30 18733 H 1760.05 2.33755 -2.22617 0
M  V30 18734 H 1759.1 0.477281 -3.77394 0
M  V30 18735 H 1760.41 0.842897 -4.91627 0
M  V30 18736 H 1759.57 3.18561 -5.16337 0
M  V30 18737 H 1758.31 2.88035 -3.93557 0
M  V30 18738 H 1757.31 1.0912 -5.38862 0
M  V30 18739 H 1758.54 1.42096 -6.64067 0
M  V30 18740 H 1756.48 3.41091 -5.60351 0
M  V30 18741 H 1756.4 2.56246 -7.11248 0
M  V30 18742 H 1757.67 3.72206 -6.84896 0
M  V30 18743 N 1761.9 1.57599 -0.0067085 0
M  V30 18744 C 1762.84 2.08842 0.982532 0
M  V30 18745 C 1763.81 0.985339 1.33717 0
M  V30 18746 O 1765 1.25818 1.43438 0
M  V30 18747 C 1762.14 2.60188 2.26708 0
M  V30 18748 C 1761.25 3.84422 1.97087 0
M  V30 18749 C 1760.39 4.24244 3.19672 0
M  V30 18750 C 1759.42 5.41297 2.85769 0
M  V30 18751 N 1758.56 5.76381 4.00911 0
M  V30 18752 H 1763.4 2.93092 0.538618 0
M  V30 18753 H 1760.94 1.44885 0.254293 0
M  V30 18754 H 1762.9 2.88038 3.01811 0
M  V30 18755 H 1761.53 1.78802 2.68756 0
M  V30 18756 H 1760.58 3.63439 1.12323 0
M  V30 18757 H 1761.89 4.6962 1.68102 0
M  V30 18758 H 1761.04 4.53413 4.03115 0
M  V30 18759 H 1759.78 3.37769 3.518 0
M  V30 18760 H 1758.79 5.11846 2.00734 0
M  V30 18761 H 1760.01 6.29454 2.54881 0
M  V30 18762 H 1757.96 4.92863 4.32923 0
M  V30 18763 H 1757.88 6.56168 3.75473 0
M  V30 18764 H 1759.14 6.10144 4.85123 0
M  V30 18765 N 1763.37 -0.266145 1.55336 0
M  V30 18766 C 1764.62 -0.994648 1.7547 0
M  V30 18767 C 1764.94 -1.87201 0.56702 0
M  V30 18768 O 1766.14 -2.63582 0.650924 0
M  V30 18769 C 1764.6 -1.81844 3.10581 0
M  V30 18770 C 1764.21 -0.989413 4.36938 0
M  V30 18771 C 1765.95 -2.54084 3.40061 0
M  V30 18772 C 1763.86 -1.80799 5.63086 0
M  V30 18773 H 1762.79 -0.375097 0.654078 0
M  V30 18774 H 1765.44 -0.25004 1.81788 0
M  V30 18775 H 1763.82 -2.60427 2.98318 0
M  V30 18776 H 1764.99 -0.247271 4.60136 0
M  V30 18777 H 1763.31 -0.38125 4.14651 0
M  V30 18778 H 1765.91 -3.15744 4.3152 0
M  V30 18779 H 1766.25 -3.2472 2.60505 0
M  V30 18780 H 1766.78 -1.82526 3.53453 0
M  V30 18781 H 1763.52 -1.14571 6.4541 0
M  V30 18782 H 1763.04 -2.52592 5.4402 0
M  V30 18783 H 1764.72 -2.37994 6.01638 0
M  V30 18784 N 1764.85 -1.48386 -0.530967 0
M  V30 18785 C 1765.78 -1.58922 -1.65156 0
M  V30 18786 C 1766.8 -0.473583 -1.5576 0
M  V30 18787 O 1767.99 -0.744383 -1.62238 0
M  V30 18788 C 1765.09 -1.50201 -3.03798 0
M  V30 18789 C 1764.26 -2.76787 -3.38685 0
M  V30 18790 C 1763.32 -2.61534 -4.56603 0
M  V30 18791 O 1762.34 -3.35417 -4.59874 0
M  V30 18792 N 1763.55 -1.71087 -5.54716 0
M  V30 18793 H 1766.31 -2.55559 -1.56555 0
M  V30 18794 H 1763.87 -1.45097 -0.718216 0
M  V30 18795 H 1765.86 -1.37693 -3.80556 0
M  V30 18796 H 1764.43 -0.615419 -3.06482 0
M  V30 18797 H 1763.65 -3.03867 -2.51115 0
M  V30 18798 H 1764.94 -3.6077 -3.58779 0
M  V30 18799 H 1764.34 -1.10261 -5.54851 0
M  V30 18800 H 1762.9 -1.64518 -6.30696 0
M  V30 18801 N 1766.33 0.779763 -1.36958 0
M  V30 18802 C 1767.24 1.92394 -1.34245 0
M  V30 18803 C 1768.26 1.72292 -0.243187 0
M  V30 18804 O 1769.43 1.95665 -0.477211 0
M  V30 18805 C 1766.5 3.27402 -1.14057 0
M  V30 18806 C 1765.56 3.60213 -2.33548 0
M  V30 18807 C 1764.79 4.88779 -2.14314 0
M  V30 18808 O 1765.01 5.59231 -1.12327 0
M  V30 18809 O 1763.95 5.20469 -3.02316 0
M  V30 18810 H 1767.77 1.97633 -2.30596 0
M  V30 18811 H 1765.36 0.921386 -1.17605 0
M  V30 18812 H 1767.24 4.08172 -1.04755 0
M  V30 18813 H 1765.92 3.23033 -0.207744 0
M  V30 18814 H 1764.82 2.7971 -2.48421 0
M  V30 18815 H 1766.16 3.69317 -3.25371 0
M  V30 18816 N 1767.81 1.21396 1.00503 0
M  V30 18817 C 1768.72 0.989221 2.12724 0
M  V30 18818 C 1769.73 -0.0586646 1.73901 0
M  V30 18819 O 1770.91 0.131377 2.00971 0
M  V30 18820 C 1767.97 0.556731 3.42201 0
M  V30 18821 C 1767.04 1.67683 3.95197 0
M  V30 18822 C 1766.27 1.26488 5.18494 0
M  V30 18823 O 1766.49 0.13847 5.70232 0
M  V30 18824 O 1765.43 2.07678 5.64937 0
M  V30 18825 H 1769.25 1.92913 2.3456 0
M  V30 18826 H 1766.84 0.998837 1.11102 0
M  V30 18827 H 1768.72 0.325327 4.20142 0
M  V30 18828 H 1767.39 -0.354457 3.21753 0
M  V30 18829 H 1766.3 1.96263 3.18483 0
M  V30 18830 H 1767.63 2.56544 4.20055 0
M  V30 18831 N 1769.29 -1.19996 1.0217 0
M  V30 18832 C 1770.53 -1.88818 0.709281 0
M  V30 18833 C 1770.85 -1.80032 -0.764702 0
M  V30 18834 O 1772.05 -2.44037 -1.18988 0
M  V30 18835 C 1770.51 -3.38652 1.2183 0
M  V30 18836 C 1770.12 -3.56012 2.71955 0
M  V30 18837 C 1771.86 -4.12996 0.981542 0
M  V30 18838 C 1769.77 -4.997 3.16313 0
M  V30 18839 H 1768.7 -0.70716 0.261613 0
M  V30 18840 H 1771.35 -1.35715 1.23506 0
M  V30 18841 H 1769.73 -3.91109 0.620478 0
M  V30 18842 H 1770.91 -3.13918 3.37331 0
M  V30 18843 H 1769.22 -2.95046 2.93831 0
M  V30 18844 H 1771.82 -5.18948 1.28831 0
M  V30 18845 H 1772.16 -4.1622 -0.0818616 0
M  V30 18846 H 1772.69 -3.66656 1.543 0
M  V30 18847 H 1769.43 -5.01635 4.21951 0
M  V30 18848 H 1768.95 -5.42585 2.5566 0
M  V30 18849 H 1770.63 -5.68312 3.09242 0
M  V30 18850 N 1770.76 -0.798611 -1.35867 0
M  V30 18851 C 1771.67 -0.204758 -2.33705 0
M  V30 18852 C 1772.69 0.648001 -1.61484 0
M  V30 18853 O 1773.87 0.561628 -1.93411 0
M  V30 18854 C 1770.93 0.643225 -3.40681 0
M  V30 18855 C 1769.99 -0.229099 -4.28688 0
M  V30 18856 C 1769.22 0.578508 -5.30555 0
M  V30 18857 O 1769.45 1.81382 -5.40793 0
M  V30 18858 O 1768.38 -0.0264291 -6.01894 0
M  V30 18859 H 1772.21 -1.01392 -2.86275 0
M  V30 18860 H 1769.79 -0.560242 -1.38498 0
M  V30 18861 H 1771.67 1.12648 -4.06065 0
M  V30 18862 H 1770.35 1.43012 -2.90395 0
M  V30 18863 H 1769.26 -0.759314 -3.66313 0
M  V30 18864 H 1770.59 -0.979736 -4.82351 0
M  V30 18865 N 1772.24 1.47639 -0.551417 0
M  V30 18866 C 1773.19 2.29936 0.199514 0
M  V30 18867 C 1774.16 1.38704 0.913811 0
M  V30 18868 O 1775.34 1.67666 0.910643 0
M  V30 18869 C 1772.48 3.22544 1.22717 0
M  V30 18870 C 1771.6 4.28865 0.519527 0
M  V30 18871 C 1770.73 5.0863 1.53197 0
M  V30 18872 C 1769.77 6.06731 0.808981 0
M  V30 18873 N 1768.91 6.79476 1.76798 0
M  V30 18874 H 1773.75 2.93631 -0.508414 0
M  V30 18875 H 1771.28 1.44738 -0.262553 0
M  V30 18876 H 1773.24 3.74653 1.83551 0
M  V30 18877 H 1771.87 2.60726 1.9032 0
M  V30 18878 H 1770.92 3.79857 -0.203217 0
M  V30 18879 H 1772.24 4.98778 -0.0471224 0
M  V30 18880 H 1771.39 5.6486 2.214 0
M  V30 18881 H 1770.13 4.38605 2.13253 0
M  V30 18882 H 1769.13 5.49684 0.112991 0
M  V30 18883 H 1770.36 6.78762 0.214239 0
M  V30 18884 H 1768.31 6.12185 2.35722 0
M  V30 18885 H 1768.22 7.45539 1.25333 0
M  V30 18886 H 1769.49 7.40283 2.44133 0
M  V30 18887 N 1773.72 0.287581 1.54954 0
M  V30 18888 C 1774.67 -0.594449 2.23013 0
M  V30 18889 C 1775.64 -1.14007 1.20795 0
M  V30 18890 O 1776.82 -1.18708 1.49376 0
M  V30 18891 C 1773.96 -1.76687 2.96439 0
M  V30 18892 C 1773.08 -1.25391 4.13402 0
M  V30 18893 C 1772.21 -2.38912 4.74441 0
M  V30 18894 C 1771.25 -1.84683 5.83574 0
M  V30 18895 N 1770.39 -2.91725 6.38624 0
M  V30 18896 H 1775.23 -0.00743921 2.97999 0
M  V30 18897 H 1772.76 0.00809578 1.47098 0
M  V30 18898 H 1774.72 -2.45621 3.37233 0
M  V30 18899 H 1773.35 -2.32571 2.23853 0
M  V30 18900 H 1772.4 -0.45726 3.77642 0
M  V30 18901 H 1773.72 -0.816813 4.92067 0
M  V30 18902 H 1772.87 -3.15818 5.18019 0
M  V30 18903 H 1771.61 -2.85943 3.95079 0
M  V30 18904 H 1770.61 -1.06261 5.39434 0
M  V30 18905 H 1771.84 -1.38572 6.64812 0
M  V30 18906 H 1769.78 -3.38115 5.62152 0
M  V30 18907 H 1769.7 -2.5247 7.12597 0
M  V30 18908 H 1770.97 -3.68569 6.86861 0
M  V30 18909 N 1775.2 -1.57593 0.0150662 0
M  V30 18910 C 1776.11 -2.12807 -0.987437 0
M  V30 18911 C 1777.12 -1.07691 -1.3667 0
M  V30 18912 O 1778.3 -1.39674 -1.45097 0
M  V30 18913 C 1775.37 -2.63276 -2.2558 0
M  V30 18914 C 1774.43 -3.83053 -1.93827 0
M  V30 18915 C 1773.66 -4.31106 -3.14616 0
M  V30 18916 O 1773.88 -3.78405 -4.26809 0
M  V30 18917 O 1772.82 -5.23104 -2.97734 0
M  V30 18918 H 1776.64 -2.98715 -0.548015 0
M  V30 18919 H 1774.23 -1.47991 -0.20469 0
M  V30 18920 H 1776.11 -2.95869 -3.00066 0
M  V30 18921 H 1774.78 -1.80459 -2.68731 0
M  V30 18922 H 1773.69 -3.55409 -1.1677 0
M  V30 18923 H 1775.02 -4.6699 -1.55502 0
M  V30 18924 N 1776.68 0.257904 -1.55475 0
M  V30 18925 C 1777.9 1.00531 -1.80834 0
M  V30 18926 C 1778.32 1.79369 -0.589263 0
M  V30 18927 O 1777.68 1.77068 0.441935 0
M  V30 18928 C 1777.73 1.95194 -3.04272 0
M  V30 18929 O 1777.45 1.19548 -4.21473 0
M  V30 18930 C 1778.95 2.81624 -3.42349 0
M  V30 18931 H 1776.17 0.296315 -0.602029 0
M  V30 18932 H 1778.71 0.284118 -2.02517 0
M  V30 18933 H 1776.87 2.62756 -2.84672 0
M  V30 18934 H 1777.28 1.83483 -4.9136 0
M  V30 18935 H 1778.76 3.43815 -4.31851 0
M  V30 18936 H 1779.23 3.52172 -2.62434 0
M  V30 18937 H 1779.84 2.19531 -3.64261 0
M  V30 18938 N 1778.15 1.48666 0.52309 0
M  V30 18939 C 1779.08 1.666 1.63605 0
M  V30 18940 C 1780.07 0.514803 1.62123 0
M  V30 18941 O 1781.25 0.748138 1.79211 0
M  V30 18942 C 1778.38 1.71199 3.02172 0
M  V30 18943 C 1777.33 2.85888 3.18515 0
M  V30 18944 C 1776.66 2.75582 4.58213 0
M  V30 18945 C 1777.96 4.27104 3.00631 0
M  V30 18946 H 1779.65 2.59776 1.48851 0
M  V30 18947 H 1777.2 1.25014 0.714667 0
M  V30 18948 H 1779.15 1.82333 3.79911 0
M  V30 18949 H 1777.88 0.746066 3.17964 0
M  V30 18950 H 1776.54 2.7432 2.43195 0
M  V30 18951 H 1776.18 1.76944 4.7085 0
M  V30 18952 H 1775.88 3.52545 4.70091 0
M  V30 18953 H 1777.41 2.88693 5.38041 0
M  V30 18954 H 1778.82 4.3947 3.68157 0
M  V30 18955 H 1777.22 5.05119 3.23999 0
M  V30 18956 H 1778.29 4.43087 1.96982 0
M  V30 18957 N 1779.63 -0.772489 1.37369 0
M  V30 18958 C 1780.88 -1.52629 1.31861 0
M  V30 18959 C 1781.19 -1.9537 -0.0947795 0
M  V30 18960 O 1782.4 -2.70131 -0.27233 0
M  V30 18961 C 1780.86 -2.75608 2.31448 0
M  V30 18962 C 1780.46 -2.39969 3.78311 0
M  V30 18963 C 1782.21 -3.53553 2.34948 0
M  V30 18964 C 1780.12 -3.59445 4.69631 0
M  V30 18965 H 1779.05 -0.573019 0.490066 0
M  V30 18966 H 1781.7 -0.846178 1.62825 0
M  V30 18967 H 1780.08 -3.45505 1.935 0
M  V30 18968 H 1781.25 -1.7786 4.25091 0
M  V30 18969 H 1779.57 -1.752 3.77748 0
M  V30 18970 H 1782.16 -4.42353 3.00379 0
M  V30 18971 H 1782.51 -3.93359 1.36287 0
M  V30 18972 H 1783.04 -2.90652 2.716 0
M  V30 18973 H 1779.78 -3.24721 5.69418 0
M  V30 18974 H 1779.3 -4.20662 4.27555 0
M  V30 18975 H 1780.98 -4.26267 4.86729 0
M  V30 18976 N 1781.11 -1.21927 -0.998575 0
M  V30 18977 C 1782.04 -0.942076 -2.08944 0
M  V30 18978 C 1783.06 0.0771683 -1.62617 0
M  V30 18979 O 1784.24 -0.156133 -1.77816 0
M  V30 18980 C 1781.34 -0.394201 -3.366 0
M  V30 18981 C 1780.52 -1.46931 -4.11983 0
M  V30 18982 C 1779.58 -0.929531 -5.17925 0
M  V30 18983 O 1778.6 -1.61444 -5.45824 0
M  V30 18984 N 1779.8 0.251965 -5.79953 0
M  V30 18985 H 1782.57 -1.88119 -2.33306 0
M  V30 18986 H 1780.13 -1.12539 -1.16389 0
M  V30 18987 H 1782.12 -0.0185416 -4.04696 0
M  V30 18988 H 1780.69 0.449884 -3.09346 0
M  V30 18989 H 1779.91 -2.01854 -3.38598 0
M  V30 18990 H 1781.2 -2.19284 -4.59121 0
M  V30 18991 H 1780.6 0.825333 -5.59647 0
M  V30 18992 H 1779.16 0.569068 -6.49311 0
M  V30 18993 N 1782.59 1.19452 -1.02805 0
M  V30 18994 C 1783.5 2.2631 -0.618147 0
M  V30 18995 C 1784.51 1.70449 0.349712 0
M  V30 18996 O 1785.69 2.00325 0.207801 0
M  V30 18997 C 1782.76 3.46691 0.0255242 0
M  V30 18998 C 1781.82 4.17735 -0.98973 0
M  V30 18999 C 1781.05 5.32369 -0.376681 0
M  V30 19000 O 1781.27 5.64467 0.820584 0
M  V30 19001 O 1780.21 5.9178 -1.09911 0
M  V30 19002 H 1784.03 2.63611 -1.50807 0
M  V30 19003 H 1781.62 1.2629 -0.798192 0
M  V30 19004 H 1783.5 4.19643 0.384464 0
M  V30 19005 H 1782.17 3.1124 0.889467 0
M  V30 19006 H 1781.08 3.46906 -1.40024 0
M  V30 19007 H 1782.41 4.57155 -1.82402 0
M  V30 19008 N 1784.07 0.805805 1.35442 0
M  V30 19009 C 1785.01 0.203715 2.31706 0
M  V30 19010 C 1786.01 -0.646084 1.56595 0
M  V30 19011 O 1787.21 -0.539336 1.7173 0
M  V30 19012 H 1783.59 0.0471152 0.750523 0
M  V30 19013 H 1785.56 1.03076 2.80032 0
M  V30 19014 C 1784.31 -0.633791 3.41875 0
M  V30 19015 H 1783.63 0.0107715 3.99799 0
M  V30 19016 H 1785.07 -1.02147 4.11512 0
M  V30 19017 C 1783.53 -1.79899 2.84847 0
M  V30 19018 O 1784.06 -2.89643 2.78334 0
M  V30 19019 N 1782.27 -1.61027 2.41906 0
M  V30 19020 H 1781.81 -0.717599 2.47403 0
M  V30 19021 H 1781.77 -2.39147 2.04099 0
M  V30 19022 N 1785.54 -1.47344 0.559239 0
M  V30 19023 C 1786.79 -2.02768 0.0359962 0
M  V30 19024 C 1787.12 -1.43247 -1.31126 0
M  V30 19025 O 1786.4 -0.588793 -1.85374 0
M  V30 19026 C 1786.68 -3.60058 -0.0549111 0
M  V30 19027 C 1786.53 -4.30008 1.31958 0
M  V30 19028 C 1787.85 -4.33359 -0.767331 0
M  V30 19029 H 1784.97 -0.736856 0.0145552 0
M  V30 19030 H 1787.61 -1.75751 0.72192 0
M  V30 19031 H 1785.76 -3.83208 -0.639076 0
M  V30 19032 H 1787.44 -4.18193 1.94711 0
M  V30 19033 H 1785.68 -3.90283 1.89372 0
M  V30 19034 H 1786.35 -5.38605 1.20867 0
M  V30 19035 H 1788.83 -4.15215 -0.27131 0
M  V30 19036 H 1787.7 -5.4304 -0.799905 0
M  V30 19037 H 1787.96 -4.02725 -1.82387 0
M  V30 19038 N 1787.02 -0.295795 -1.54799 0
M  V30 19039 C 1788.27 0.315473 -2.00331 0
M  V30 19040 C 1788.6 1.53939 -1.18392 0
M  V30 19041 O 1787.88 1.92767 -0.259086 0
M  V30 19042 C 1788.16 0.677227 -3.53674 0
M  V30 19043 C 1788.01 -0.555462 -4.46357 0
M  V30 19044 C 1789.33 1.50576 -4.1354 0
M  V30 19045 H 1786.45 0.113191 -0.728256 0
M  V30 19046 H 1789.09 -0.406858 -1.85593 0
M  V30 19047 H 1787.24 1.29264 -3.66365 0
M  V30 19048 H 1788.91 -1.19397 -4.45581 0
M  V30 19049 H 1787.16 -1.18968 -4.17168 0
M  V30 19050 H 1787.83 -0.25828 -5.51395 0
M  V30 19051 H 1790.3 0.985819 -4.04253 0
M  V30 19052 H 1789.18 1.72766 -5.21002 0
M  V30 19053 H 1789.44 2.49334 -3.65082 0
M  V30 19054 N 1788.5 1.57583 -0.0234236 0
M  V30 19055 C 1789.43 2.12907 0.958804 0
M  V30 19056 C 1790.41 1.0438 1.34309 0
M  V30 19057 O 1791.6 1.32184 1.42271 0
M  V30 19058 C 1788.73 2.65151 2.24304 0
M  V30 19059 C 1787.68 3.78414 1.99967 0
M  V30 19060 C 1787.01 4.17064 3.34607 0
M  V30 19061 C 1788.31 5.04727 1.34342 0
M  V30 19062 H 1790 2.95228 0.498081 0
M  V30 19063 H 1787.55 1.42017 0.238138 0
M  V30 19064 H 1789.5 3.02487 2.93393 0
M  V30 19065 H 1788.22 1.79983 2.72532 0
M  V30 19066 H 1786.88 3.41507 1.33298 0
M  V30 19067 H 1786.53 3.28886 3.80583 0
M  V30 19068 H 1786.23 4.93385 3.19132 0
M  V30 19069 H 1787.76 4.56978 4.04973 0
M  V30 19070 H 1789.17 5.39686 1.93422 0
M  V30 19071 H 1787.57 5.86009 1.29282 0
M  V30 19072 H 1788.64 4.83872 0.315625 0
M  V30 19073 N 1789.98 -0.249655 1.5561 0
M  V30 19074 C 1791.39 -0.818934 1.67781 0
M  V30 19075 C 1791.74 -1.86134 0.620374 0
M  V30 19076 O 1790.87 -2.15133 -0.233869 0
M  V30 19077 C 1791.46 -1.49219 3.0417 0
M  V30 19078 C 1790.02 -2.0092 3.18289 0
M  V30 19079 C 1789.17 -0.859333 2.63649 0
M  V30 19080 H 1792.12 -0.0255186 1.58679 0
M  V30 19081 H 1792.14 -2.36011 2.98461 0
M  V30 19082 H 1791.65 -0.733268 3.8111 0
M  V30 19083 H 1789.75 -2.79701 2.46167 0
M  V30 19084 H 1789.87 -2.20848 4.25163 0
M  V30 19085 H 1788.23 -1.2591 2.21402 0
M  V30 19086 H 1789.01 -0.113545 3.43112 0
M  V30 19087 N 1791.46 -1.48941 -0.515198 0
M  V30 19088 C 1792.39 -1.60665 -1.63461 0
M  V30 19089 C 1793.4 -0.490076 -1.55248 0
M  V30 19090 O 1794.59 -0.761549 -1.61439 0
M  V30 19091 C 1791.69 -1.53414 -3.02187 0
M  V30 19092 C 1790.86 -2.80364 -3.3573 0
M  V30 19093 C 1789.92 -2.66362 -4.53804 0
M  V30 19094 O 1788.95 -3.40276 -4.5629 0
M  V30 19095 N 1790.15 -1.76961 -5.5287 0
M  V30 19096 H 1792.92 -2.57206 -1.53836 0
M  V30 19097 H 1790.48 -1.45851 -0.702786 0
M  V30 19098 H 1792.47 -1.41721 -3.79074 0
M  V30 19099 H 1791.04 -0.647891 -3.05812 0
M  V30 19100 H 1790.26 -3.06513 -2.47878 0
M  V30 19101 H 1791.55 -3.64555 -3.54932 0
M  V30 19102 H 1790.95 -1.16139 -5.5365 0
M  V30 19103 H 1789.5 -1.71198 -6.28915 0
M  V30 19104 N 1792.94 0.765193 -1.37777 0
M  V30 19105 C 1794.18 1.51928 -1.32668 0
M  V30 19106 C 1794.5 1.95418 0.0844172 0
M  V30 19107 O 1795.7 2.70271 0.258001 0
M  V30 19108 C 1794.16 2.74377 -2.32906 0
M  V30 19109 C 1793.77 2.37959 -3.79578 0
M  V30 19110 C 1795.51 3.52302 -2.3682 0
M  V30 19111 C 1793.42 3.5695 -4.7153 0
M  V30 19112 H 1792.35 0.570412 -0.493098 0
M  V30 19113 H 1795 0.837531 -1.63272 0
M  V30 19114 H 1793.38 3.44474 -1.95329 0
M  V30 19115 H 1794.56 1.75603 -4.26028 0
M  V30 19116 H 1792.87 1.73194 -3.78672 0
M  V30 19117 H 1795.47 4.40754 -3.02721 0
M  V30 19118 H 1795.81 3.92631 -1.38371 0
M  V30 19119 H 1796.34 2.89207 -2.73137 0
M  V30 19120 H 1793.08 3.21697 -5.71132 0
M  V30 19121 H 1792.6 4.18388 -4.2978 0
M  V30 19122 H 1794.28 4.2368 -4.88983 0
M  V30 19123 N 1794.41 1.22455 0.992094 0
M  V30 19124 C 1795.36 0.962645 2.06681 0
M  V30 19125 C 1796.35 -0.0870288 1.60664 0
M  V30 19126 O 1797.54 0.123596 1.76568 0
M  V30 19127 C 1794.67 0.54316 3.38976 0
M  V30 19128 C 1793.75 1.62761 3.91625 0
M  V30 19129 N 1794.15 2.85548 4.17488 0
M  V30 19130 C 1792.44 1.49948 4.20038 0
M  V30 19131 C 1793.14 3.55677 4.60292 0
M  V30 19132 N 1792.12 2.83152 4.64032 0
M  V30 19133 H 1795.92 1.89534 2.24619 0
M  V30 19134 H 1793.44 1.1222 1.1739 0
M  V30 19135 H 1795.43 0.336841 4.15537 0
M  V30 19136 H 1794.09 -0.382629 3.22438 0
M  V30 19137 H 1795.1 3.21968 4.05657 0
M  V30 19138 H 1791.78 0.639937 4.12566 0
M  V30 19139 H 1793.17 4.60878 4.88918 0
M  V30 19140 N 1795.89 -1.18905 1.03437 0
M  V30 19141 C 1797.12 -1.92678 0.753853 0
M  V30 19142 C 1797.53 -1.75814 -0.688111 0
M  V30 19143 O 1796.89 -1.08363 -1.46846 0
M  V30 19144 C 1796.94 -3.44275 1.10258 0
M  V30 19145 O 1796.66 -3.60602 2.48793 0
M  V30 19146 C 1798.16 -4.35159 0.84566 0
M  V30 19147 H 1795.38 -0.611875 0.275408 0
M  V30 19148 H 1797.93 -1.50887 1.38034 0
M  V30 19149 H 1796.08 -3.83878 0.521177 0
M  V30 19150 H 1796.5 -4.54403 2.61951 0
M  V30 19151 H 1797.97 -5.40109 1.13958 0
M  V30 19152 H 1798.45 -4.3865 -0.219767 0
M  V30 19153 H 1799.05 -4.01245 1.41006 0
M  V30 19154 N 1797.37 -0.812977 -1.35013 0
M  V30 19155 C 1798.62 -0.396932 -1.98878 0
M  V30 19156 C 1798.95 1.03486 -1.6433 0
M  V30 19157 O 1798.22 1.71906 -0.90986 0
M  V30 19158 C 1798.51 -0.587911 -3.55268 0
M  V30 19159 C 1798.36 -2.06509 -3.99592 0
M  V30 19160 C 1799.68 -0.017593 -4.40096 0
M  V30 19161 H 1796.8 -0.145695 -0.722455 0
M  V30 19162 H 1799.44 -1.0237 -1.60064 0
M  V30 19163 H 1797.59 -0.0543785 -3.88462 0
M  V30 19164 H 1799.26 -2.6615 -3.76778 0
M  V30 19165 H 1797.5 -2.55921 -3.50267 0
M  V30 19166 H 1798.18 -2.14958 -5.08426 0
M  V30 19167 H 1800.65 -0.473317 -4.13399 0
M  V30 19168 H 1799.53 -0.18109 -5.48601 0
M  V30 19169 H 1799.79 1.07664 -4.2879 0
M  V30 19170 N 1798.85 1.47045 -0.567045 0
M  V30 19171 C 1800.08 2.06835 -0.0518309 0
M  V30 19172 C 1800.49 1.41823 1.24626 0
M  V30 19173 O 1799.85 0.518102 1.74991 0
M  V30 19174 C 1799.9 3.6124 0.137142 0
M  V30 19175 O 1799.62 4.23817 -1.10955 0
M  V30 19176 C 1801.12 4.37921 0.688511 0
M  V30 19177 H 1798.34 0.669111 -0.0503138 0
M  V30 19178 H 1800.88 1.88906 -0.783258 0
M  V30 19179 H 1799.04 3.7865 0.818733 0
M  V30 19180 H 1799.45 5.16484 -0.913475 0
M  V30 19181 H 1800.93 5.46603 0.769984 0
M  V30 19182 H 1801.4 4.0488 1.70201 0
M  V30 19183 H 1802.01 4.25279 0.0423004 0
M  V30 19184 N 1800.33 0.304 1.5464 0
M  V30 19185 C 1801.57 -0.303793 1.99804 0
M  V30 19186 C 1801.89 -1.54179 1.19389 0
M  V30 19187 O 1801.16 -1.93732 0.290631 0
M  V30 19188 H 1799.74 -0.115241 0.738057 0
M  V30 19189 H 1802.41 0.416024 1.90408 0
M  V30 19190 H 1801.5 -0.573759 3.06781 0
M  V30 19191 N 1801.8 -1.57568 0.0317802 0
M  V30 19192 C 1803.03 -1.96212 -0.656401 0
M  V30 19193 C 1803.45 -0.908406 -1.6551 0
M  V30 19194 O 1802.8 0.109502 -1.82171 0
M  V30 19195 C 1802.85 -3.34924 -1.36044 0
M  V30 19196 O 1802.58 -4.36254 -0.401757 0
M  V30 19197 C 1804.08 -3.88215 -2.14019 0
M  V30 19198 H 1801.3 -0.646181 -0.180808 0
M  V30 19199 H 1803.84 -2.04291 0.0923341 0
M  V30 19200 H 1802 -3.28055 -2.06055 0
M  V30 19201 H 1802.41 -5.16686 -0.902005 0
M  V30 19202 H 1803.88 -4.87609 -2.5873 0
M  V30 19203 H 1804.36 -3.22602 -2.98034 0
M  V30 19204 H 1804.97 -3.98361 -1.4896 0
M  V30 19205 N 1803.28 0.241399 -1.5574 0
M  V30 19206 C 1804.23 1.29896 -1.90777 0
M  V30 19207 C 1805.2 1.47558 -0.76262 0
M  V30 19208 O 1806.38 1.61451 -1.01677 0
M  V30 19209 C 1803.52 2.6483 -2.21267 0
M  V30 19210 C 1802.64 2.5513 -3.48615 0
M  V30 19211 C 1801.77 3.82455 -3.68649 0
M  V30 19212 C 1800.81 3.67395 -4.89579 0
M  V30 19213 N 1799.95 4.86624 -5.06105 0
M  V30 19214 H 1804.79 0.993166 -2.80963 0
M  V30 19215 H 1802.33 0.47914 -1.39078 0
M  V30 19216 H 1804.28 3.4338 -2.36951 0
M  V30 19217 H 1802.91 2.93546 -1.34278 0
M  V30 19218 H 1801.97 1.6812 -3.41233 0
M  V30 19219 H 1803.28 2.39915 -4.37312 0
M  V30 19220 H 1802.43 4.69449 -3.84321 0
M  V30 19221 H 1801.17 4.00573 -2.78195 0
M  V30 19222 H 1800.18 2.78785 -4.73877 0
M  V30 19223 H 1801.4 3.50766 -5.81498 0
M  V30 19224 H 1799.35 5.05093 -4.18589 0
M  V30 19225 H 1799.26 4.7406 -5.889 0
M  V30 19226 H 1800.53 5.751 -5.26194 0
M  V30 19227 N 1804.76 1.49212 0.507292 0
M  V30 19228 C 1805.71 1.65894 1.6304 0
M  V30 19229 C 1806.7 0.524951 1.61061 0
M  V30 19230 O 1807.91 0.704392 1.65645 0
M  V30 19231 H 1804.28 0.522994 0.540353 0
M  V30 19232 H 1806.25 2.60176 1.4612 0
M  V30 19233 C 1805 1.73692 3.01208 0
M  V30 19234 H 1804.33 2.60323 3.03434 0
M  V30 19235 H 1805.77 1.89402 3.79346 0
M  V30 19236 C 1804.23 0.480378 3.33458 0
M  V30 19237 O 1804.76 -0.396732 3.99736 0
M  V30 19238 N 1802.96 0.345216 2.88542 0
M  V30 19239 H 1802.51 1.05997 2.34782 0
M  V30 19240 H 1802.47 -0.494453 3.10488 0
M  V30 19241 N 1806.24 -0.757876 1.38181 0
M  V30 19242 C 1807.49 -1.51688 1.34153 0
M  V30 19243 C 1807.81 -1.94375 -0.0697487 0
M  V30 19244 O 1807.07 -1.65404 -1.04594 0
M  V30 19245 C 1807.37 -2.78548 2.23933 0
M  V30 19246 C 1807.03 -2.54845 3.71975 0
M  V30 19247 C 1805.7 -2.48089 4.12317 0
M  V30 19248 C 1808.05 -2.34027 4.65704 0
M  V30 19249 C 1805.38 -2.18526 5.44485 0
M  V30 19250 C 1807.73 -2.05986 5.98124 0
M  V30 19251 C 1806.39 -1.97683 6.37556 0
M  V30 19252 H 1805.66 -0.555064 0.490902 0
M  V30 19253 H 1808.31 -0.871823 1.70504 0
M  V30 19254 H 1806.61 -3.47682 1.80623 0
M  V30 19255 H 1808.31 -3.36487 2.18122 0
M  V30 19256 H 1804.9 -2.60972 3.39988 0
M  V30 19257 H 1809.08 -2.38228 4.35386 0
M  V30 19258 H 1804.34 -2.10603 5.73983 0
M  V30 19259 H 1808.51 -1.8888 6.70296 0
M  V30 19260 H 1806.14 -1.7454 7.39892 0
M  V30 19261 N 1807.72 -1.22979 -0.985586 0
M  V30 19262 C 1808.65 -0.949615 -2.07503 0
M  V30 19263 C 1809.63 0.110178 -1.62226 0
M  V30 19264 O 1810.81 -0.022974 -1.88486 0
M  V30 19265 C 1807.94 -0.429626 -3.35964 0
M  V30 19266 C 1806.98 -1.47522 -4.00174 0
M  V30 19267 S 1807.82 -3.05095 -4.40088 0
M  V30 19268 C 1808.97 -2.54753 -5.71709 0
M  V30 19269 H 1809.21 -1.87215 -2.3095 0
M  V30 19270 H 1806.74 -1.06167 -1.12107 0
M  V30 19271 H 1808.7 -0.136212 -4.10274 0
M  V30 19272 H 1807.36 0.471907 -3.10535 0
M  V30 19273 H 1806.55 -1.06142 -4.92697 0
M  V30 19274 H 1806.15 -1.71772 -3.3222 0
M  V30 19275 H 1808.45 -1.9645 -6.48393 0
M  V30 19276 H 1809.39 -3.45795 -6.17925 0
M  V30 19277 H 1809.8 -1.95785 -5.29461 0
M  V30 19278 N 1809.19 1.18355 -1.04066 0
M  V30 19279 C 1810.14 2.21987 -0.631714 0
M  V30 19280 C 1811.11 1.62142 0.360462 0
M  V30 19281 O 1812.3 1.89096 0.254445 0
M  V30 19282 C 1809.44 3.451 -0.000843566 0
M  V30 19283 C 1808.55 4.19283 -1.04048 0
M  V30 19284 C 1807.68 5.29852 -0.37813 0
M  V30 19285 C 1806.72 5.95807 -1.40287 0
M  V30 19286 N 1805.86 6.97915 -0.765481 0
M  V30 19287 H 1810.7 2.56323 -1.51995 0
M  V30 19288 H 1808.24 1.25923 -0.760384 0
M  V30 19289 H 1810.2 4.15445 0.382267 0
M  V30 19290 H 1808.83 3.11383 0.850911 0
M  V30 19291 H 1807.88 3.47765 -1.54154 0
M  V30 19292 H 1809.19 4.64457 -1.81882 0
M  V30 19293 H 1808.34 6.06671 0.059186 0
M  V30 19294 H 1807.08 4.8578 0.432293 0
M  V30 19295 H 1806.09 5.17729 -1.85032 0
M  V30 19296 H 1807.31 6.41962 -2.21499 0
M  V30 19297 H 1805.26 6.55995 0.0246364 0
M  V30 19298 H 1805.18 7.41341 -1.48152 0
M  V30 19299 H 1806.44 7.78702 -0.35256 0
M  V30 19300 N 1810.67 0.820125 1.3458 0
M  V30 19301 C 1811.62 0.22828 2.31477 0
M  V30 19302 C 1812.61 -0.629439 1.57272 0
M  V30 19303 O 1813.82 -0.521091 1.72292 0
M  V30 19304 H 1810.2 0.0550728 0.749981 0
M  V30 19305 H 1812.17 1.0604 2.78923 0
M  V30 19306 C 1810.92 -0.597495 3.42528 0
M  V30 19307 H 1810.24 0.0531749 3.99765 0
M  V30 19308 H 1811.68 -0.977765 4.12572 0
M  V30 19309 C 1810.14 -1.76868 2.86739 0
M  V30 19310 O 1810.67 -2.86674 2.81391 0
M  V30 19311 N 1808.87 -1.58453 2.436 0
M  V30 19312 H 1808.42 -0.691318 2.4815 0
M  V30 19313 H 1808.38 -2.36969 2.06624 0
M  V30 19314 N 1812.15 -1.46743 0.574835 0
M  V30 19315 C 1813.08 -2.33012 -0.150836 0
M  V30 19316 C 1814.06 -1.44868 -0.891472 0
M  V30 19317 O 1815.25 -1.73698 -0.868481 0
M  V30 19318 C 1812.38 -3.26995 -1.17012 0
M  V30 19319 C 1811.33 -4.24518 -0.544829 0
M  V30 19320 C 1810.66 -5.07951 -1.67002 0
M  V30 19321 C 1811.96 -5.19776 0.512891 0
M  V30 19322 H 1813.65 -2.93935 0.569433 0
M  V30 19323 H 1811.2 -1.41344 0.275289 0
M  V30 19324 H 1813.15 -3.86198 -1.68609 0
M  V30 19325 H 1811.87 -2.64163 -1.92056 0
M  V30 19326 H 1810.53 -3.66566 -0.0500133 0
M  V30 19327 H 1810.18 -4.4151 -2.40993 0
M  V30 19328 H 1809.88 -5.73991 -1.25732 0
M  V30 19329 H 1811.4 -5.70017 -2.1889 0
M  V30 19330 H 1812.82 -5.73241 0.0823064 0
M  V30 19331 H 1811.22 -5.94114 0.845462 0
M  V30 19332 H 1812.29 -4.64184 1.40217 0
M  V30 19333 N 1813.63 -0.312197 -1.54477 0
M  V30 19334 C 1814.88 0.293772 -2.00358 0
M  V30 19335 C 1815.2 1.5303 -1.2005 0
M  V30 19336 O 1814.46 1.93861 -0.267678 0
M  V30 19337 C 1814.76 0.684057 -3.50793 0
M  V30 19338 C 1814.42 -0.452004 -4.48629 0
M  V30 19339 C 1813.09 -0.763853 -4.75099 0
M  V30 19340 C 1815.44 -1.21567 -5.06824 0
M  V30 19341 C 1812.77 -1.84229 -5.57025 0
M  V30 19342 C 1815.12 -2.28412 -5.89924 0
M  V30 19343 C 1813.78 -2.60191 -6.14701 0
M  V30 19344 H 1813.05 0.107499 -0.733161 0
M  V30 19345 H 1815.7 -0.433618 -1.86526 0
M  V30 19346 H 1814 1.4917 -3.62292 0
M  V30 19347 H 1815.7 1.16428 -3.83726 0
M  V30 19348 H 1812.29 -0.198857 -4.28138 0
M  V30 19349 H 1816.47 -0.988007 -4.86366 0
M  V30 19350 H 1811.73 -2.09311 -5.74455 0
M  V30 19351 H 1815.9 -2.88037 -6.34041 0
M  V30 19352 H 1813.53 -3.43887 -6.77972 0
M  V30 19353 N 1815.11 1.57549 -0.040136 0
M  V30 19354 C 1816.04 2.13912 0.936168 0
M  V30 19355 C 1817.02 1.05798 1.33194 0
M  V30 19356 O 1818.2 1.33685 1.40861 0
M  V30 19357 C 1815.33 2.67515 2.21479 0
M  V30 19358 C 1814.29 3.80513 1.95943 0
M  V30 19359 C 1813.61 4.20589 3.30165 0
M  V30 19360 C 1814.91 5.06124 1.28981 0
M  V30 19361 H 1816.61 2.9574 0.46674 0
M  V30 19362 H 1814.15 1.42262 0.223062 0
M  V30 19363 H 1816.11 3.05582 2.90168 0
M  V30 19364 H 1814.83 1.82864 2.70608 0
M  V30 19365 H 1813.49 3.42902 1.29669 0
M  V30 19366 H 1813.14 3.32904 3.77073 0
M  V30 19367 H 1812.84 4.96742 3.13881 0
M  V30 19368 H 1814.36 4.61248 4.00103 0
M  V30 19369 H 1815.77 5.41707 1.87687 0
M  V30 19370 H 1814.17 5.87347 1.2306 0
M  V30 19371 H 1815.24 4.84179 0.264286 0
M  V30 19372 N 1816.58 -0.233136 1.55866 0
M  V30 19373 C 1817.51 -1.29225 1.94482 0
M  V30 19374 C 1818.5 -1.49495 0.811503 0
M  V30 19375 O 1819.68 -1.61872 1.07289 0
M  V30 19376 C 1816.81 -2.64435 2.25147 0
M  V30 19377 C 1815.76 -2.5884 3.4086 0
M  V30 19378 C 1815.09 -3.97973 3.57102 0
M  V30 19379 C 1816.39 -2.14629 4.76164 0
M  V30 19380 H 1818.08 -0.971527 2.83199 0
M  V30 19381 H 1815.63 -0.465905 1.36255 0
M  V30 19382 H 1817.58 -3.38676 2.50752 0
M  V30 19383 H 1816.31 -2.98172 1.33271 0
M  V30 19384 H 1814.97 -1.87057 3.15286 0
M  V30 19385 H 1814.61 -4.28998 2.62621 0
M  V30 19386 H 1814.31 -3.95114 4.34924 0
M  V30 19387 H 1815.84 -4.73893 3.85043 0
M  V30 19388 H 1817.25 -2.78607 5.0105 0
M  V30 19389 H 1815.65 -2.22853 5.57186 0
M  V30 19390 H 1816.72 -1.09826 4.72299 0
M  V30 19391 N 1818.06 -1.49479 -0.499372 0
M  V30 19392 C 1819.29 -1.63025 -1.28209 0
M  V30 19393 C 1819.71 -0.302238 -1.85656 0
M  V30 19394 O 1819.07 0.730355 -1.65938 0
M  V30 19395 C 1819.12 -2.70287 -2.38699 0
M  V30 19396 O 1818.22 -2.29573 -3.42593 0
M  V30 19397 H 1817.56 -0.545605 -0.378432 0
M  V30 19398 H 1820.09 -1.95677 -0.597628 0
M  V30 19399 H 1820.1 -2.92505 -2.84438 0
M  V30 19400 H 1818.78 -3.66684 -1.96253 0
M  V30 19401 H 1817.36 -2.17692 -3.02761 0
M  V30 19402 N 1819.54 0.750537 -1.38581 0
M  V30 19403 C 1820.77 1.53978 -1.38196 0
M  V30 19404 C 1821.18 1.8878 0.0274976 0
M  V30 19405 O 1820.54 1.52997 0.994894 0
M  V30 19406 C 1820.59 2.83702 -2.24043 0
M  V30 19407 O 1820.31 2.50384 -3.59499 0
M  V30 19408 C 1821.81 3.77823 -2.31872 0
M  V30 19409 H 1819.03 0.476345 -0.472585 0
M  V30 19410 H 1821.58 0.928634 -1.82199 0
M  V30 19411 H 1819.73 3.41187 -1.83494 0
M  V30 19412 H 1820.15 3.33605 -4.04732 0
M  V30 19413 H 1821.62 4.65788 -2.96218 0
M  V30 19414 H 1822.1 4.18474 -1.33327 0
M  V30 19415 H 1822.7 3.26262 -2.72824 0
M  V30 19416 N 1821.02 1.235 0.979051 0
M  V30 19417 C 1822.44 0.997948 1.24552 0
M  V30 19418 C 1822.64 -0.300139 1.99252 0
M  V30 19419 O 1821.69 -1.01923 2.31015 0
M  V30 19420 C 1823 2.2057 2.04375 0
M  V30 19421 C 1824.55 2.25075 2.17509 0
M  V30 19422 C 1825.03 3.45441 3.00724 0
M  V30 19423 N 1826.52 3.45688 3.08308 0
M  V30 19424 C 1827.25 4.35478 3.73024 0
M  V30 19425 N 1826.75 5.35506 4.39551 0
M  V30 19426 N 1828.54 4.23218 3.69923 0
M  V30 19427 H 1820.69 2.06936 0.478649 0
M  V30 19428 H 1822.96 0.907514 0.274083 0
M  V30 19429 H 1822.66 3.14781 1.56863 0
M  V30 19430 H 1822.54 2.21765 3.05123 0
M  V30 19431 H 1824.92 1.31403 2.64229 0
M  V30 19432 H 1825 2.27912 1.16146 0
M  V30 19433 H 1824.65 4.3942 2.547 0
M  V30 19434 H 1824.58 3.39845 4.0226 0
M  V30 19435 H 1827.07 2.73315 2.60974 0
M  V30 19436 H 1827.38 6.00274 4.86715 0
M  V30 19437 H 1825.73 5.39404 4.38256 0
M  V30 19438 H 1828.92 3.44315 3.17119 0
M  V30 19439 H 1829.09 4.93396 4.20076 0
M  V30 19440 N 1822.5 -1.17802 1.04693 0
M  V30 19441 C 1823.43 -2.21166 0.601507 0
M  V30 19442 C 1824.44 -1.59376 -0.332128 0
M  V30 19443 O 1825.63 -1.78057 -0.125653 0
M  V30 19444 C 1822.73 -3.38609 -0.140442 0
M  V30 19445 C 1821.9 -4.29973 0.802637 0
M  V30 19446 C 1820.96 -5.26099 0.102853 0
M  V30 19447 O 1819.99 -5.6443 0.735325 0
M  V30 19448 N 1821.19 -5.68761 -1.16154 0
M  V30 19449 H 1823.96 -2.60004 1.49057 0
M  V30 19450 H 1821.52 -1.3265 0.928199 0
M  V30 19451 H 1823.51 -3.99944 -0.618587 0
M  V30 19452 H 1822.08 -2.98411 -0.931117 0
M  V30 19453 H 1821.3 -3.66146 1.46051 0
M  V30 19454 H 1822.59 -4.8791 1.44296 0
M  V30 19455 H 1821.99 -5.39684 -1.6958 0
M  V30 19456 H 1820.54 -6.32264 -1.58384 0
M  V30 19457 N 1823.98 -0.827251 -1.34143 0
M  V30 19458 C 1824.92 -0.240552 -2.31353 0
M  V30 19459 C 1825.92 0.62109 -1.57603 0
M  V30 19460 O 1827.12 0.511947 -1.72566 0
M  V30 19461 H 1823.5 -0.0590494 -0.749678 0
M  V30 19462 H 1825.47 -1.07518 -2.78357 0
M  V30 19463 C 1824.22 0.579321 -3.4284 0
M  V30 19464 H 1823.54 -0.0743746 -3.99731 0
M  V30 19465 H 1824.98 0.955871 -4.13085 0
M  V30 19466 C 1823.44 1.75345 -2.87673 0
M  V30 19467 O 1823.97 2.85178 -2.82907 0
M  V30 19468 N 1822.18 1.57158 -2.44437 0
M  V30 19469 H 1821.72 0.678148 -2.48513 0
M  V30 19470 H 1821.68 2.35869 -2.07877 0
M  V30 19471 N 1825.45 1.46436 -0.582609 0
M  V30 19472 C 1826.7 2.02685 -0.0682503 0
M  V30 19473 C 1827.03 1.45315 1.2883 0
M  V30 19474 O 1826.31 0.61821 1.84414 0
M  V30 19475 C 1826.59 3.601 -0.00237797 0
M  V30 19476 C 1826.44 4.27855 -1.38782 0
M  V30 19477 C 1827.76 4.34525 0.69829 0
M  V30 19478 H 1824.88 0.736531 -0.0262761 0
M  V30 19479 H 1827.52 1.7458 -0.749789 0
M  V30 19480 H 1825.67 3.84176 0.57803 0
M  V30 19481 H 1827.35 4.15043 -2.01339 0
M  V30 19482 H 1825.59 3.87221 -1.95557 0
M  V30 19483 H 1826.26 5.36614 -1.2942 0
M  V30 19484 H 1828.74 4.15594 0.205219 0
M  V30 19485 H 1827.61 5.44244 0.71341 0
M  V30 19486 H 1827.87 4.05575 1.75957 0
M  V30 19487 N 1826.93 0.320385 1.54309 0
M  V30 19488 C 1827.84 -0.556017 2.27916 0
M  V30 19489 C 1828.86 -1.13192 1.32149 0
M  V30 19490 O 1830.03 -1.15257 1.6516 0
M  V30 19491 C 1827.1 -1.70244 3.02023 0
M  V30 19492 C 1826.16 -1.15866 4.13369 0
M  V30 19493 C 1825.39 -2.25044 4.83933 0
M  V30 19494 O 1825.62 -3.45327 4.53988 0
M  V30 19495 O 1824.55 -1.90642 5.70911 0
M  V30 19496 H 1828.38 0.0416563 3.03671 0
M  V30 19497 H 1825.96 0.0861809 1.49151 0
M  V30 19498 H 1827.84 -2.36995 3.48442 0
M  V30 19499 H 1826.52 -2.28635 2.29146 0
M  V30 19500 H 1825.42 -0.456323 3.71306 0
M  V30 19501 H 1826.76 -0.619916 4.88281 0
M  V30 19502 N 1828.41 -1.57525 0.0484906 0
M  V30 19503 C 1829.66 -1.92204 -0.624654 0
M  V30 19504 C 1829.98 -0.927289 -1.71541 0
M  V30 19505 O 1829.25 0.0282687 -1.9588 0
M  V30 19506 H 1827.83 -0.709494 -0.233724 0
M  V30 19507 H 1830.49 -1.94639 0.100861 0
M  V30 19508 H 1829.59 -2.93368 -1.06498 0
M  V30 19509 N 1829.89 0.224867 -1.55988 0
M  V30 19510 C 1831.11 0.970897 -1.83271 0
M  V30 19511 C 1831.54 1.77293 -0.628399 0
M  V30 19512 O 1830.9 1.76301 0.422804 0
M  V30 19513 C 1830.94 1.86686 -3.08514 0
M  V30 19514 O 1830.05 2.96174 -2.86975 0
M  V30 19515 H 1829.39 0.275093 -0.604334 0
M  V30 19516 H 1831.92 0.239183 -2.03197 0
M  V30 19517 H 1831.93 2.27731 -3.3853 0
M  V30 19518 H 1830.6 1.27733 -3.95799 0
M  V30 19519 H 1829.18 2.59099 -2.68183 0
M  V30 19520 N 1831.37 1.49742 0.491438 0
M  V30 19521 C 1832.6 1.63198 1.26689 0
M  V30 19522 C 1833 0.306438 1.86702 0
M  V30 19523 O 1832.35 -0.719282 1.69033 0
M  V30 19524 C 1832.41 2.64966 2.42967 0
M  V30 19525 C 1832.07 4.09066 2.0375 0
M  V30 19526 C 1833.07 4.95574 1.57171 0
M  V30 19527 C 1830.75 4.54859 2.13092 0
M  V30 19528 C 1832.75 6.25916 1.2045 0
M  V30 19529 C 1830.44 5.85212 1.75983 0
M  V30 19530 C 1831.43 6.70565 1.29738 0
M  V30 19531 O 1831.12 7.98487 0.931347 0
M  V30 19532 H 1830.85 0.552094 0.390087 0
M  V30 19533 H 1833.41 1.9658 0.595439 0
M  V30 19534 H 1831.64 2.26784 3.13218 0
M  V30 19535 H 1833.33 2.67852 3.04975 0
M  V30 19536 H 1834.09 4.61419 1.49391 0
M  V30 19537 H 1829.97 3.88585 2.48038 0
M  V30 19538 H 1833.52 6.9249 0.84283 0
M  V30 19539 H 1829.41 6.18893 1.83415 0
M  V30 19540 H 1830.18 8.11581 1.06198 0
M  V30 19541 N 1832.84 -0.743177 1.38977 0
M  V30 19542 C 1834.12 -1.49384 1.26269 0
M  V30 19543 C 1834.5 -2.10691 -0.131349 0
M  V30 19544 O 1833.85 -1.97925 -1.14183 0
M  V30 19545 C 1834.06 -2.55184 2.3808 0
M  V30 19546 C 1835.41 -3.21796 2.77006 0
M  V30 19547 O 1836.43 -2.65493 2.37469 0
M  V30 19548 O 1835.29 -4.23656 3.45222 0
M  V30 19549 H 1832.38 -0.662968 0.49437 0
M  V30 19550 H 1834.93 -0.7777 1.50831 0
M  V30 19551 H 1833.7 -2.08204 3.31311 0
M  V30 19552 H 1833.33 -3.34366 2.15139 0
M  V30 19553 N 1834.32 -1.24018 -0.972487 0
M  V30 19554 C 1835.57 -1.07489 -1.71145 0
M  V30 19555 C 1835.89 0.387798 -1.91105 0
M  V30 19556 O 1835.16 1.27725 -1.48537 0
M  V30 19557 H 1833.74 -0.394765 -0.634168 0
M  V30 19558 H 1836.4 -1.55861 -1.17018 0
M  V30 19559 H 1835.5 -1.56913 -2.69786 0
M  V30 19560 N 1835.8 1.17245 -1.05316 0
M  V30 19561 C 1836.76 2.19508 -0.659467 0
M  V30 19562 C 1837.76 1.58169 0.289697 0
M  V30 19563 O 1838.95 1.74045 0.0734019 0
M  V30 19564 C 1836.09 3.40886 0.0311886 0
M  V30 19565 H 1837.28 2.55852 -1.5646 0
M  V30 19566 H 1834.83 1.31348 -0.847193 0
M  V30 19567 H 1835.57 3.10088 0.949535 0
M  V30 19568 H 1835.35 3.86655 -0.651191 0
M  V30 19569 H 1836.84 4.16573 0.292702 0
M  V30 19570 N 1837.28 0.834353 1.33702 0
M  V30 19571 C 1838.51 0.440589 2.01847 0
M  V30 19572 C 1838.92 -0.961513 1.62947 0
M  V30 19573 O 1838.26 -1.63556 0.836377 0
M  V30 19574 C 1838.32 0.476396 3.5633 0
M  V30 19575 C 1837.99 1.83382 4.18593 0
M  V30 19576 C 1838.98 2.79638 4.3829 0
M  V30 19577 C 1836.67 2.12543 4.55116 0
M  V30 19578 C 1838.66 4.0322 4.93652 0
M  V30 19579 C 1836.35 3.36382 5.10187 0
M  V30 19580 C 1837.35 4.31537 5.294 0
M  V30 19581 O 1837.03 5.53187 5.833 0
M  V30 19582 H 1836.77 0.173726 0.653296 0
M  V30 19583 H 1839.32 1.1272 1.71707 0
M  V30 19584 H 1837.55 -0.266969 3.85777 0
M  V30 19585 H 1839.24 0.101088 4.05774 0
M  V30 19586 H 1840.01 2.58409 4.10427 0
M  V30 19587 H 1835.88 1.39274 4.39459 0
M  V30 19588 H 1839.43 4.77502 5.08564 0
M  V30 19589 H 1835.33 3.5747 5.3748 0
M  V30 19590 H 1836.09 5.54864 6.01721 0
M  V30 19591 N 1838.76 -1.46125 0.590367 0
M  V30 19592 C 1839.72 -2.2884 -0.128368 0
M  V30 19593 C 1840.72 -1.38818 -0.81156 0
M  V30 19594 O 1841.91 -1.61117 -0.662347 0
M  V30 19595 C 1839.04 -3.19402 -1.19144 0
M  V30 19596 H 1840.23 -2.93864 0.598641 0
M  V30 19597 H 1837.79 -1.52362 0.34866 0
M  V30 19598 H 1838.52 -2.59141 -1.94978 0
M  V30 19599 H 1838.31 -3.85692 -0.705973 0
M  V30 19600 H 1839.8 -3.8164 -1.69532 0
M  V30 19601 N 1840.23 -0.328564 -1.54137 0
M  V30 19602 C 1841.65 0.158467 -1.86026 0
M  V30 19603 C 1842 1.51216 -1.25012 0
M  V30 19604 O 1841.12 2.09081 -0.558029 0
M  V30 19605 C 1841.72 0.294317 -3.37519 0
M  V30 19606 C 1840.28 0.72557 -3.69341 0
M  V30 19607 C 1839.42 -0.149724 -2.76895 0
M  V30 19608 H 1842.37 -0.548678 -1.48913 0
M  V30 19609 H 1842.39 1.12438 -3.63508 0
M  V30 19610 H 1841.91 -0.691071 -3.81898 0
M  V30 19611 H 1840.01 1.72052 -3.30498 0
M  V30 19612 H 1840.12 0.525853 -4.76205 0
M  V30 19613 H 1838.48 0.375531 -2.51916 0
M  V30 19614 H 1839.27 -1.13197 -3.24101 0
M  V30 19615 N 1841.71 1.57497 -0.0568439 0
M  V30 19616 C 1842.96 1.932 0.61658 0
M  V30 19617 C 1843.29 0.935936 1.70158 0
M  V30 19618 O 1842.57 -0.0372005 1.94464 0
M  V30 19619 C 1842.85 3.39254 1.20742 0
M  V30 19620 C 1842.7 4.49612 0.130081 0
M  V30 19621 C 1844.02 3.85817 2.11738 0
M  V30 19622 H 1841.14 0.702558 0.222668 0
M  V30 19623 H 1843.78 1.89622 -0.119765 0
M  V30 19624 H 1841.93 3.42434 1.83497 0
M  V30 19625 H 1843.6 4.58559 -0.502172 0
M  V30 19626 H 1841.85 4.30411 -0.541167 0
M  V30 19627 H 1842.52 5.48906 0.583606 0
M  V30 19628 H 1844.99 3.8455 1.58936 0
M  V30 19629 H 1843.87 4.88653 2.50019 0
M  V30 19630 H 1844.13 3.22899 3.01974 0
M  V30 19631 N 1843.19 -0.216591 1.56105 0
M  V30 19632 C 1844.12 -1.27155 1.95841 0
M  V30 19633 C 1845.1 -1.48626 0.827313 0
M  V30 19634 O 1846.29 -1.60725 1.09 0
M  V30 19635 C 1843.42 -2.62032 2.27939 0
M  V30 19636 C 1842.37 -2.55211 3.43586 0
M  V30 19637 C 1841.7 -3.94163 3.61303 0
M  V30 19638 C 1843 -2.09566 4.78413 0
M  V30 19639 H 1844.69 -0.941435 2.84214 0
M  V30 19640 H 1842.24 -0.451427 1.36741 0
M  V30 19641 H 1844.19 -3.35997 2.5433 0
M  V30 19642 H 1842.91 -2.96742 1.36426 0
M  V30 19643 H 1841.57 -1.83703 3.17252 0
M  V30 19644 H 1841.22 -4.26188 2.67156 0
M  V30 19645 H 1840.92 -3.90479 4.3909 0
M  V30 19646 H 1842.44 -4.69782 3.90047 0
M  V30 19647 H 1843.86 -2.73277 5.03977 0
M  V30 19648 H 1842.26 -2.16931 5.59518 0
M  V30 19649 H 1843.33 -1.0481 4.73437 0
M  V30 19650 N 1844.67 -1.5 -0.48349 0
M  V30 19651 C 1845.6 -1.64096 -1.60016 0
M  V30 19652 C 1846.61 -0.522896 -1.54174 0
M  V30 19653 O 1847.8 -0.795621 -1.59788 0
M  V30 19654 C 1844.9 -1.5979 -2.98865 0
M  V30 19655 C 1844.08 -2.87422 -3.29708 0
M  V30 19656 C 1843.13 -2.75928 -4.48051 0
M  V30 19657 O 1842.16 -3.49878 -4.4897 0
M  V30 19658 N 1843.36 -1.88648 -5.48992 0
M  V30 19659 H 1846.13 -2.60411 -1.48345 0
M  V30 19660 H 1843.69 -1.47309 -0.671691 0
M  V30 19661 H 1845.68 -1.4973 -3.75983 0
M  V30 19662 H 1844.25 -0.712613 -3.04369 0
M  V30 19663 H 1843.47 -3.11702 -2.4132 0
M  V30 19664 H 1844.76 -3.72002 -3.4712 0
M  V30 19665 H 1844.16 -1.27857 -5.51062 0
M  V30 19666 H 1842.71 -1.845 -6.25142 0
M  V30 19667 N 1846.15 0.735796 -1.39369 0
M  V30 19668 C 1847.42 1.48712 -1.27059 0
M  V30 19669 C 1847.8 2.10758 0.120174 0
M  V30 19670 O 1847.15 1.98528 1.13132 0
M  V30 19671 C 1847.36 2.53918 -2.3943 0
M  V30 19672 C 1848.71 3.20322 -2.78709 0
M  V30 19673 O 1849.73 2.6423 -2.38874 0
M  V30 19674 O 1848.59 4.21819 -3.47463 0
M  V30 19675 H 1845.69 0.660337 -0.497879 0
M  V30 19676 H 1848.23 0.76969 -1.51241 0
M  V30 19677 H 1847 2.06444 -3.3241 0
M  V30 19678 H 1846.63 3.33221 -2.16909 0
M  V30 19679 N 1847.63 1.24532 0.965897 0
M  V30 19680 C 1848.87 1.08609 1.7091 0
M  V30 19681 C 1849.2 -0.374781 1.90855 0
M  V30 19682 O 1848.46 -1.29321 1.46883 0
M  V30 19683 C 1848.75 1.77305 3.10319 0
M  V30 19684 C 1848.42 3.27233 3.10209 0
M  V30 19685 C 1847.08 3.68136 3.09887 0
M  V30 19686 C 1849.43 4.23071 3.04402 0
M  V30 19687 C 1846.76 5.03309 3.01492 0
M  V30 19688 C 1849.11 5.58254 2.9755 0
M  V30 19689 C 1847.78 5.985 2.95557 0
M  V30 19690 H 1847.05 0.39743 0.625404 0
M  V30 19691 H 1849.7 1.54658 1.12929 0
M  V30 19692 H 1848 1.23655 3.71775 0
M  V30 19693 H 1849.7 1.62449 3.66622 0
M  V30 19694 H 1846.29 2.9468 3.11226 0
M  V30 19695 H 1850.47 3.92469 3.03779 0
M  V30 19696 H 1845.73 5.33686 2.98311 0
M  V30 19697 H 1849.9 6.32218 2.92016 0
M  V30 19698 H 1847.53 7.03203 2.88807 0
M  V30 19699 N 1849.1 -1.16685 1.05936 0
M  V30 19700 C 1850.52 -1.39122 0.78213 0
M  V30 19701 C 1850.72 -1.9172 -0.620152 0
M  V30 19702 O 1849.78 -2.11366 -1.38132 0
M  V30 19703 C 1851.09 -2.37522 1.84401 0
M  V30 19704 C 1852.64 -2.51214 1.8671 0
M  V30 19705 C 1853.11 -3.52894 2.91942 0
M  V30 19706 N 1854.6 -3.60418 2.90952 0
M  V30 19707 C 1855.34 -4.38873 3.69023 0
M  V30 19708 N 1854.83 -5.20781 4.56902 0
M  V30 19709 N 1856.63 -4.3382 3.57431 0
M  V30 19710 H 1848.78 -0.808781 1.96399 0
M  V30 19711 H 1851.04 -0.418008 0.850866 0
M  V30 19712 H 1850.75 -2.05962 2.85084 0
M  V30 19713 H 1850.62 -3.37123 1.69197 0
M  V30 19714 H 1853.01 -2.8208 0.866875 0
M  V30 19715 H 1853.09 -1.51661 2.05992 0
M  V30 19716 H 1852.73 -3.22765 3.92155 0
M  V30 19717 H 1852.66 -4.52168 2.6991 0
M  V30 19718 H 1855.15 -3.01945 2.27239 0
M  V30 19719 H 1855.47 -5.77848 5.13138 0
M  V30 19720 H 1853.81 -5.20136 4.60959 0
M  V30 19721 H 1857 -3.68888 2.88165 0
M  V30 19722 H 1857.18 -4.94717 4.1852 0
M  V30 19723 N 1850.58 -0.841432 -1.33258 0
M  V30 19724 C 1851.81 -0.45101 -2.02437 0
M  V30 19725 C 1852.23 0.940811 -1.62881 0
M  V30 19726 O 1851.59 1.61559 -0.82271 0
M  V30 19727 C 1851.64 -0.58237 -3.55866 0
M  V30 19728 O 1850.74 0.390326 -4.10549 0
M  V30 19729 H 1850.08 -0.182996 -0.638285 0
M  V30 19730 H 1852.61 -1.13697 -1.701 0
M  V30 19731 H 1852.62 -0.464967 -4.05342 0
M  V30 19732 H 1851.3 -1.59739 -3.84 0
M  V30 19733 H 1849.87 0.230266 -3.72188 0
M  V30 19734 N 1852.06 1.4581 -0.598108 0
M  V30 19735 C 1852.99 2.33223 0.113747 0
M  V30 19736 C 1853.97 1.46268 0.868312 0
M  V30 19737 O 1855.16 1.75058 0.840737 0
M  V30 19738 C 1852.29 3.28815 1.11795 0
M  V30 19739 C 1851.24 4.25331 0.477223 0
M  V30 19740 C 1850.57 5.10544 1.589 0
M  V30 19741 C 1851.87 5.18894 -0.595518 0
M  V30 19742 H 1853.56 2.92992 -0.616123 0
M  V30 19743 H 1851.11 1.40888 -0.297741 0
M  V30 19744 H 1853.06 3.88832 1.62443 0
M  V30 19745 H 1851.78 2.67185 1.87829 0
M  V30 19746 H 1850.44 3.66599 -0.00831044 0
M  V30 19747 H 1850.09 4.45288 2.33939 0
M  V30 19748 H 1849.79 5.75918 1.16584 0
M  V30 19749 H 1851.31 5.73427 2.09794 0
M  V30 19750 H 1852.73 5.73037 -0.173494 0
M  V30 19751 H 1851.12 5.92694 -0.939873 0
M  V30 19752 H 1852.19 4.61895 -1.47584 0
M  V30 19753 N 1853.54 0.336733 1.53961 0
M  V30 19754 C 1854.49 -0.538599 2.26278 0
M  V30 19755 C 1855.48 -1.10764 1.2817 0
M  V30 19756 O 1856.69 -1.05416 1.45902 0
M  V30 19757 H 1853.06 -0.192363 0.72698 0
M  V30 19758 H 1855.03 0.0934532 2.98254 0
M  V30 19759 C 1853.78 -1.68121 3.04353 0
M  V30 19760 H 1853.1 -1.25261 3.7967 0
M  V30 19761 H 1854.54 -2.26901 3.58179 0
M  V30 19762 C 1853 -2.60663 2.13439 0
M  V30 19763 O 1853.53 -3.62731 1.72596 0
M  V30 19764 N 1851.74 -2.29194 1.78658 0
M  V30 19765 H 1851.29 -1.46233 2.1207 0
M  V30 19766 H 1851.24 -2.91371 1.18111 0
M  V30 19767 N 1855.02 -1.57465 0.0651956 0
M  V30 19768 C 1856.29 -1.84622 -0.646065 0
M  V30 19769 C 1856.67 -0.956374 -1.88193 0
M  V30 19770 O 1856.02 -0.0209666 -2.2849 0
M  V30 19771 C 1856.23 -3.34664 -0.990013 0
M  V30 19772 C 1857.58 -4.02016 -1.36632 0
M  V30 19773 O 1858.6 -3.39371 -1.08194 0
M  V30 19774 O 1857.46 -5.12496 -1.89764 0
M  V30 19775 H 1854.56 -0.762482 -0.320236 0
M  V30 19776 H 1857.1 -1.6943 0.0956254 0
M  V30 19777 H 1855.87 -3.9114 -0.111977 0
M  V30 19778 H 1855.5 -3.55094 -1.78869 0
M  V30 19779 N 1856.49 0.20831 -1.56217 0
M  V30 19780 C 1857.72 0.951404 -1.84291 0
M  V30 19781 C 1858.14 1.76616 -0.647168 0
M  V30 19782 O 1857.5 1.7674 0.404081 0
M  V30 19783 C 1857.55 1.83403 -3.10477 0
M  V30 19784 O 1856.65 2.93113 -2.90101 0
M  V30 19785 H 1855.99 0.268668 -0.607218 0
M  V30 19786 H 1858.52 0.217618 -2.03439 0
M  V30 19787 H 1858.53 2.24127 -3.40927 0
M  V30 19788 H 1857.21 1.23528 -3.97132 0
M  V30 19789 H 1855.79 2.5624 -2.70916 0
M  V30 19790 N 1857.97 1.50255 0.475528 0
M  V30 19791 C 1859.2 1.64771 1.25132 0
M  V30 19792 C 1859.61 0.329253 1.85907 0
M  V30 19793 O 1858.97 -0.688289 1.69023 0
M  V30 19794 C 1859.02 2.73556 2.36325 0
M  V30 19795 O 1858.74 4.0029 1.78043 0
M  V30 19796 C 1860.24 2.99006 3.27277 0
M  V30 19797 H 1857.46 0.553987 0.378602 0
M  V30 19798 H 1860.01 1.9645 0.56811 0
M  V30 19799 H 1858.16 2.44584 3.00429 0
M  V30 19800 H 1858.58 4.60416 2.51232 0
M  V30 19801 H 1860.05 3.78797 4.01518 0
M  V30 19802 H 1860.53 2.09904 3.85794 0
M  V30 19803 H 1861.13 3.29493 2.68914 0
M  V30 19804 N 1859.45 -0.728395 1.39758 0
M  V30 19805 C 1860.4 -1.8638 1.39158 0
M  V30 19806 C 1861.39 -1.67173 0.273806 0
M  V30 19807 O 1862.6 -1.74433 0.444184 0
M  V30 19808 H 1858.97 -0.61363 0.434698 0
M  V30 19809 H 1860.94 -1.84002 2.34917 0
M  V30 19810 C 1859.69 -3.24127 1.25845 0
M  V30 19811 H 1859.02 -3.39507 2.11129 0
M  V30 19812 H 1860.46 -4.03745 1.29484 0
M  V30 19813 C 1858.91 -3.36884 -0.0325277 0
M  V30 19814 O 1859.44 -3.89047 -1.00026 0
M  V30 19815 N 1857.65 -2.90435 -0.0977834 0
M  V30 19816 H 1857.2 -2.48175 0.690438 0
M  V30 19817 H 1857.16 -2.99351 -0.961066 0
M  V30 19818 N 1860.93 -1.25042 -0.959279 0
M  V30 19819 C 1862.34 -1.01764 -1.22948 0
M  V30 19820 C 1862.54 0.268402 -1.99704 0
M  V30 19821 O 1861.6 0.982348 -2.32607 0
M  V30 19822 C 1862.91 -2.23794 -2.0084 0
M  V30 19823 C 1864.46 -2.28507 -2.13901 0
M  V30 19824 C 1864.94 -3.50181 -2.9519 0
M  V30 19825 N 1866.43 -3.50549 -3.0277 0
M  V30 19826 C 1867.16 -4.41357 -3.66049 0
M  V30 19827 N 1866.66 -5.42431 -4.30976 0
M  V30 19828 N 1868.45 -4.29049 -3.63143 0
M  V30 19829 H 1860.6 -2.07672 -0.445667 0
M  V30 19830 H 1862.86 -0.91176 -0.259611 0
M  V30 19831 H 1862.57 -3.17237 -1.51835 0
M  V30 19832 H 1862.44 -2.26592 -3.01556 0
M  V30 19833 H 1864.83 -1.3559 -2.62105 0
M  V30 19834 H 1864.91 -2.29731 -1.12505 0
M  V30 19835 H 1864.56 -4.43417 -2.47677 0
M  V30 19836 H 1864.49 -3.46202 -3.96802 0
M  V30 19837 H 1866.98 -2.77432 -2.56593 0
M  V30 19838 H 1867.29 -6.07941 -4.77104 0
M  V30 19839 H 1865.64 -5.46308 -4.29619 0
M  V30 19840 H 1868.83 -3.49317 -3.11601 0
M  V30 19841 H 1869 -5.00017 -4.12174 0
M  V30 19842 N 1862.41 1.16121 -1.06553 0
M  V30 19843 C 1863.63 1.90611 -0.804673 0
M  V30 19844 C 1864.05 1.77576 0.641255 0
M  V30 19845 O 1863.41 1.12218 1.43921 0
M  V30 19846 C 1863.46 3.41231 -1.19348 0
M  V30 19847 O 1863.18 3.53879 -2.58266 0
M  V30 19848 C 1864.68 4.32764 -0.960738 0
M  V30 19849 H 1861.9 0.604358 -0.291534 0
M  V30 19850 H 1864.44 1.47174 -1.41986 0
M  V30 19851 H 1862.6 3.82361 -0.622772 0
M  V30 19852 H 1863.01 4.47298 -2.73907 0
M  V30 19853 H 1864.49 5.36898 -1.28238 0
M  V30 19854 H 1864.96 4.39078 0.103389 0
M  V30 19855 H 1865.57 3.97365 -1.51595 0
M  V30 19856 N 1863.88 0.848487 1.3281 0
M  V30 19857 C 1864.83 0.286636 2.29013 0
M  V30 19858 C 1865.8 -0.602944 1.5477 0
M  V30 19859 O 1866.99 -0.539169 1.83024 0
M  V30 19860 C 1864.13 -0.524193 3.41096 0
M  V30 19861 C 1863.24 0.390486 4.30232 0
M  V30 19862 C 1862.37 -0.432376 5.29437 0
M  V30 19863 C 1861.41 0.48009 6.10214 0
M  V30 19864 N 1860.55 -0.30522 7.01436 0
M  V30 19865 H 1865.39 1.1123 2.76463 0
M  V30 19866 H 1862.93 0.559956 1.36025 0
M  V30 19867 H 1864.89 -1.00987 4.04793 0
M  V30 19868 H 1863.52 -1.31474 2.94813 0
M  V30 19869 H 1862.57 0.994518 3.6717 0
M  V30 19870 H 1863.88 1.09103 4.86722 0
M  V30 19871 H 1863.03 -0.981471 5.98709 0
M  V30 19872 H 1861.77 -1.16631 4.73549 0
M  V30 19873 H 1860.78 1.04112 5.39853 0
M  V30 19874 H 1862 1.21254 6.68187 0
M  V30 19875 H 1859.95 -1.02236 6.47984 0
M  V30 19876 H 1859.87 0.336414 7.55251 0
M  V30 19877 H 1861.13 -0.836242 7.75001 0
M  V30 19878 N 1865.36 -1.4549 0.605832 0
M  V30 19879 C 1866.31 -2.30518 -0.114038 0
M  V30 19880 C 1867.28 -1.42 -0.861703 0
M  V30 19881 O 1868.46 -1.7093 -0.847788 0
M  V30 19882 C 1865.6 -3.26876 -1.10661 0
M  V30 19883 C 1864.72 -4.30497 -0.359999 0
M  V30 19884 C 1863.85 -5.13965 -1.34214 0
M  V30 19885 C 1862.89 -6.09315 -0.58324 0
M  V30 19886 N 1862.03 -6.85569 -1.51457 0
M  V30 19887 H 1866.87 -2.91542 0.617043 0
M  V30 19888 H 1864.41 -1.43664 0.31609 0
M  V30 19889 H 1866.36 -3.81207 -1.69519 0
M  V30 19890 H 1864.99 -2.6761 -1.80512 0
M  V30 19891 H 1864.05 -3.78841 0.344058 0
M  V30 19892 H 1865.36 -4.98259 0.232208 0
M  V30 19893 H 1864.51 -5.72688 -2.00283 0
M  V30 19894 H 1863.25 -4.46218 -1.96828 0
M  V30 19895 H 1862.26 -5.49725 0.0910986 0
M  V30 19896 H 1863.48 -6.79089 0.0378268 0
M  V30 19897 H 1861.43 -6.20512 -2.12839 0
M  V30 19898 H 1861.34 -7.49677 -0.97576 0
M  V30 19899 H 1862.61 -7.48834 -2.1649 0
M  V30 19900 N 1866.84 -0.344893 -1.5378 0
M  V30 19901 C 1867.79 0.527275 -2.21819 0
M  V30 19902 C 1868.77 1.06502 -1.20607 0
M  V30 19903 O 1869.97 0.998502 -1.46147 0
M  V30 19904 C 1867.1 1.67703 -2.99551 0
M  V30 19905 C 1866.18 1.15316 -4.08121 0
M  V30 19906 N 1866.57 0.35061 -5.04583 0
M  V30 19907 C 1864.87 1.42992 -4.22456 0
M  V30 19908 C 1865.57 0.0661583 -5.81662 0
M  V30 19909 N 1864.55 0.658168 -5.39601 0
M  V30 19910 H 1868.35 -0.0929348 -2.93753 0
M  V30 19911 H 1865.86 -0.151827 -1.61689 0
M  V30 19912 H 1867.86 2.31383 -3.46796 0
M  V30 19913 H 1866.52 2.30051 -2.29144 0
M  V30 19914 H 1867.53 -0.0084236 -5.17899 0
M  V30 19915 H 1864.21 2.05769 -3.6327 0
M  V30 19916 H 1865.6 -0.581316 -6.69381 0
M  V30 19917 N 1868.32 1.57428 -0.0735454 0
M  V30 19918 C 1869.55 1.97883 0.604148 0
M  V30 19919 C 1869.96 0.951968 1.63043 0
M  V30 19920 O 1869.32 -0.0611641 1.82397 0
M  V30 19921 C 1869.37 3.38414 1.27116 0
M  V30 19922 O 1869.09 4.37166 0.285951 0
M  V30 19923 C 1870.59 3.93753 2.03651 0
M  V30 19924 H 1867.81 0.650747 0.163613 0
M  V30 19925 H 1870.36 2.03975 -0.146466 0
M  V30 19926 H 1868.51 3.33403 1.97285 0
M  V30 19927 H 1868.92 5.18896 0.764698 0
M  V30 19928 H 1870.4 4.94298 2.45711 0
M  V30 19929 H 1870.88 3.30391 2.89376 0
M  V30 19930 H 1871.48 4.0217 1.38345 0
M  V30 19931 N 1869.8 -0.200022 1.56326 0
M  V30 19932 C 1870.76 -1.23155 1.93302 0
M  V30 19933 C 1871.76 -1.38696 0.81364 0
M  V30 19934 O 1872.95 -1.36592 1.08112 0
M  V30 19935 C 1870.08 -2.60177 2.20274 0
M  V30 19936 H 1871.27 -0.915616 2.85581 0
M  V30 19937 H 1868.83 -0.44134 1.4994 0
M  V30 19938 H 1869.56 -2.96833 1.30617 0
M  V30 19939 H 1869.35 -2.50269 3.01841 0
M  V30 19940 H 1870.84 -3.34572 2.49903 0
M  V30 19941 N 1871.27 -1.50505 -0.467553 0
M  V30 19942 C 1872.22 -1.66014 -1.5628 0
M  V30 19943 C 1873.21 -0.51467 -1.52447 0
M  V30 19944 O 1874.4 -0.769238 -1.59411 0
M  V30 19945 C 1871.53 -1.76088 -2.947 0
M  V30 19946 C 1870.62 -2.96323 -3.03404 0
M  V30 19947 N 1871.01 -4.19951 -2.81913 0
M  V30 19948 C 1869.3 -2.94954 -3.34542 0
M  V30 19949 C 1870.01 -5.0095 -2.95676 0
M  V30 19950 N 1868.98 -4.34977 -3.26031 0
M  V30 19951 H 1872.78 -2.59289 -1.3837 0
M  V30 19952 H 1870.3 -1.47737 -0.674347 0
M  V30 19953 H 1872.29 -1.85303 -3.73455 0
M  V30 19954 H 1870.95 -0.839734 -3.13654 0
M  V30 19955 H 1871.97 -4.49391 -2.57426 0
M  V30 19956 H 1868.64 -2.12353 -3.59462 0
M  V30 19957 H 1870.03 -6.09268 -2.8327 0
M  V30 19958 N 1872.75 0.720973 -1.40142 0
M  V30 19959 C 1874 1.48078 -1.38128 0
M  V30 19960 C 1874.33 1.94491 0.0181891 0
M  V30 19961 O 1873.58 1.68119 1.00172 0
M  V30 19962 C 1873.88 2.72513 -2.31239 0
M  V30 19963 C 1873.55 2.44893 -3.78601 0
M  V30 19964 C 1872.21 2.3707 -4.1875 0
M  V30 19965 C 1874.56 2.21598 -4.71745 0
M  V30 19966 C 1871.89 2.04013 -5.50087 0
M  V30 19967 C 1874.24 1.90055 -6.03375 0
M  V30 19968 C 1872.91 1.8071 -6.42573 0
M  V30 19969 H 1872.18 0.541854 -0.505446 0
M  V30 19970 H 1874.82 0.826311 -1.72755 0
M  V30 19971 H 1873.13 3.4277 -1.89778 0
M  V30 19972 H 1874.82 3.30586 -2.26967 0
M  V30 19973 H 1871.41 2.51866 -3.46788 0
M  V30 19974 H 1875.6 2.26601 -4.41549 0
M  V30 19975 H 1870.85 1.95311 -5.79365 0
M  V30 19976 H 1875.03 1.71042 -6.75069 0
M  V30 19977 H 1872.66 1.54862 -7.44259 0
M  V30 19978 N 1874.23 1.25549 0.952634 0
M  V30 19979 C 1875.46 1.13262 1.73743 0
M  V30 19980 C 1875.88 -0.309507 1.85536 0
M  V30 19981 O 1875.24 -1.22422 1.33726 0
M  V30 19982 C 1875.29 1.79395 3.12809 0
M  V30 19983 O 1874.39 1.07496 3.98144 0
M  V30 19984 H 1873.73 0.395314 0.5335 0
M  V30 19985 H 1876.26 1.66151 1.19394 0
M  V30 19986 H 1876.27 1.85761 3.63259 0
M  V30 19987 H 1874.95 2.84316 3.03542 0
M  V30 19988 H 1873.52 1.09025 3.56606 0
M  V30 19989 N 1875.71 -1.15554 1.07168 0
M  V30 19990 C 1876.66 -2.20234 0.690348 0
M  V30 19991 C 1877.63 -1.6304 -0.317346 0
M  V30 19992 O 1878.81 -1.89704 -0.20422 0
M  V30 19993 C 1875.95 -3.44976 0.0923404 0
M  V30 19994 C 1875.06 -4.16377 1.15128 0
M  V30 19995 C 1874.2 -5.28664 0.518478 0
M  V30 19996 C 1873.24 -5.91878 1.56034 0
M  V30 19997 N 1872.37 -6.9564 0.950251 0
M  V30 19998 H 1877.21 -2.52203 1.58738 0
M  V30 19999 H 1874.75 -1.23863 0.793502 0
M  V30 20000 H 1876.71 -4.16312 -0.271985 0
M  V30 20001 H 1875.34 -3.1353 -0.768054 0
M  V30 20002 H 1874.39 -3.43556 1.63321 0
M  V30 20003 H 1875.7 -4.59472 1.94132 0
M  V30 20004 H 1874.86 -6.06615 0.101683 0
M  V30 20005 H 1873.6 -4.86756 -0.303345 0
M  V30 20006 H 1872.6 -5.12641 1.98694 0
M  V30 20007 H 1873.83 -6.35864 2.38442 0
M  V30 20008 H 1871.77 -6.5583 0.149298 0
M  V30 20009 H 1871.69 -7.37153 1.67755 0
M  V30 20010 H 1872.96 -7.77494 0.558895 0
M  V30 20011 N 1877.19 -0.855519 -1.32358 0
M  V30 20012 C 1878.13 -0.298777 -2.28858 0
M  V30 20013 C 1879.1 0.594728 -1.55088 0
M  V30 20014 O 1880.29 0.529455 -1.83307 0
M  V30 20015 C 1877.43 0.506096 -3.41369 0
M  V30 20016 C 1876.54 -0.413297 -4.30018 0
M  V30 20017 C 1875.68 0.404292 -5.29659 0
M  V30 20018 C 1874.72 -0.512444 -6.09951 0
M  V30 20019 N 1873.85 0.268017 -7.01588 0
M  V30 20020 H 1878.69 -1.12694 -2.7587 0
M  V30 20021 H 1876.23 -0.567162 -1.35726 0
M  V30 20022 H 1878.19 0.988384 -4.05323 0
M  V30 20023 H 1876.82 1.29908 -2.95506 0
M  V30 20024 H 1875.87 -1.01398 -3.66637 0
M  V30 20025 H 1877.18 -1.11683 -4.86136 0
M  V30 20026 H 1876.34 0.949707 -5.99221 0
M  V30 20027 H 1875.08 1.14118 -4.74161 0
M  V30 20028 H 1874.08 -1.06974 -5.39293 0
M  V30 20029 H 1875.31 -1.24796 -6.67535 0
M  V30 20030 H 1873.25 0.987986 -6.48517 0
M  V30 20031 H 1873.17 -0.376462 -7.55062 0
M  V30 20032 H 1874.44 0.79513 -7.75434 0
M  V30 20033 N 1878.67 1.45167 -0.61354 0
M  V30 20034 C 1879.91 2.01796 -0.110844 0
M  V30 20035 C 1880.23 1.48372 1.26534 0
M  V30 20036 O 1879.5 0.680323 1.83707 0
M  V30 20037 H 1878.08 0.746034 -0.0379861 0
M  V30 20038 H 1880.75 1.77892 -0.796279 0
M  V30 20039 H 1879.84 3.12032 -0.0651413 0
M  V30 20040 N 1880.14 0.353044 1.53595 0
M  V30 20041 C 1881.05 -0.507548 2.29044 0
M  V30 20042 C 1882.07 -1.10364 1.34521 0
M  V30 20043 O 1883.25 -1.11728 1.67567 0
M  V30 20044 C 1880.31 -1.63799 3.05566 0
M  V30 20045 C 1879.37 -1.07071 4.15733 0
M  V30 20046 C 1878.6 -2.14728 4.88597 0
M  V30 20047 O 1878.83 -3.35619 4.61211 0
M  V30 20048 O 1877.76 -1.78489 5.74826 0
M  V30 20049 H 1881.59 0.10606 3.03515 0
M  V30 20050 H 1879.17 0.117799 1.48935 0
M  V30 20051 H 1881.05 -2.2955 3.5339 0
M  V30 20052 H 1879.73 -2.23723 2.33944 0
M  V30 20053 H 1878.64 -0.37746 3.72191 0
M  V30 20054 H 1879.97 -0.516205 4.89486 0
M  V30 20055 N 1881.62 -1.57387 0.0818932 0
M  V30 20056 C 1882.53 -2.16804 -0.89629 0
M  V30 20057 C 1883.55 -1.1339 -1.3198 0
M  V30 20058 O 1884.72 -1.45702 -1.39042 0
M  V30 20059 C 1881.79 -2.72607 -2.14211 0
M  V30 20060 C 1880.85 -3.90929 -1.77406 0
M  V30 20061 C 1880.08 -4.44062 -2.96049 0
M  V30 20062 O 1880.31 -3.96166 -4.10376 0
M  V30 20063 O 1879.24 -5.35261 -2.75279 0
M  V30 20064 H 1883.07 -3.0077 -0.420827 0
M  V30 20065 H 1880.65 -1.48726 -0.141737 0
M  V30 20066 H 1882.53 -3.0833 -2.87247 0
M  V30 20067 H 1881.21 -1.91694 -2.60835 0
M  V30 20068 H 1880.11 -3.60042 -1.01591 0
M  V30 20069 H 1881.45 -4.73165 -1.35556 0
M  V30 20070 N 1883.1 0.191729 -1.56429 0
M  V30 20071 C 1884.01 1.25798 -1.9802 0
M  V30 20072 C 1885.03 1.49612 -0.888379 0
M  V30 20073 O 1886.2 1.62161 -1.1944 0
M  V30 20074 C 1883.27 2.58158 -2.3142 0
M  V30 20075 C 1882.33 2.42386 -3.54327 0
M  V30 20076 C 1881.56 3.68434 -3.86124 0
M  V30 20077 O 1881.78 4.72747 -3.19165 0
M  V30 20078 O 1880.72 3.63762 -4.79542 0
M  V30 20079 H 1884.54 0.935013 -2.88948 0
M  V30 20080 H 1882.13 0.396996 -1.44029 0
M  V30 20081 H 1884.01 3.36274 -2.53964 0
M  V30 20082 H 1882.69 2.90075 -1.43659 0
M  V30 20083 H 1881.59 1.62369 -3.37027 0
M  V30 20084 H 1882.93 2.154 -4.42565 0
M  V30 20085 N 1884.58 1.50751 0.459565 0
M  V30 20086 C 1885.53 1.70997 1.57679 0
M  V30 20087 C 1886.52 0.575925 1.59309 0
M  V30 20088 O 1887.73 0.756735 1.6332 0
M  V30 20089 H 1884.1 0.539921 0.52344 0
M  V30 20090 H 1886.07 2.64693 1.37769 0
M  V30 20091 C 1884.82 1.83187 2.9553 0
M  V30 20092 H 1884.14 2.69844 2.94998 0
M  V30 20093 H 1885.58 2.01374 3.73128 0
M  V30 20094 C 1884.04 0.586222 3.31761 0
M  V30 20095 O 1884.57 -0.269358 4.00796 0
M  V30 20096 N 1882.78 0.436839 2.87298 0
M  V30 20097 H 1882.33 1.13413 2.31291 0
M  V30 20098 H 1882.28 -0.395424 3.11903 0
M  V30 20099 N 1886.06 -0.713531 1.40522 0
M  V30 20100 C 1886.99 -1.8404 1.43707 0
M  V30 20101 C 1887.97 -1.67474 0.297751 0
M  V30 20102 O 1889.15 -1.87474 0.506662 0
M  V30 20103 C 1886.28 -3.22014 1.30094 0
M  V30 20104 C 1885.24 -3.53255 2.4165 0
M  V30 20105 C 1884.56 -4.90395 2.13113 0
M  V30 20106 C 1885.86 -3.54045 3.83991 0
M  V30 20107 H 1887.56 -1.81632 2.38013 0
M  V30 20108 H 1885.1 -0.872437 1.14562 0
M  V30 20109 H 1887.05 -4.00541 1.30938 0
M  V30 20110 H 1885.78 -3.25002 0.322648 0
M  V30 20111 H 1884.44 -2.77069 2.40059 0
M  V30 20112 H 1884.09 -4.89988 1.13669 0
M  V30 20113 H 1883.79 -5.12264 2.87853 0
M  V30 20114 H 1885.31 -5.71254 2.15642 0
M  V30 20115 H 1886.72 -4.22609 3.87395 0
M  V30 20116 H 1885.12 -3.87441 4.58268 0
M  V30 20117 H 1886.19 -2.53387 4.13428 0
M  V30 20118 N 1887.53 -1.26053 -0.945962 0
M  V30 20119 C 1888.44 -1.08959 -2.07762 0
M  V30 20120 C 1889.46 -0.0243726 -1.73983 0
M  V30 20121 O 1890.64 -0.227113 -2.00115 0
M  V30 20122 C 1887.7 -0.719365 -3.39155 0
M  V30 20123 C 1886.76 -1.86347 -3.86747 0
M  V30 20124 C 1885.99 -1.51082 -5.11869 0
M  V30 20125 O 1886.22 -0.410377 -5.68922 0
M  V30 20126 O 1885.15 -2.34395 -5.54385 0
M  V30 20127 H 1888.98 -2.03884 -2.25089 0
M  V30 20128 H 1886.56 -1.05071 -1.0621 0
M  V30 20129 H 1888.44 -0.525412 -4.18112 0
M  V30 20130 H 1887.12 0.20054 -3.23078 0
M  V30 20131 H 1886.03 -2.11235 -3.08756 0
M  V30 20132 H 1887.36 -2.76293 -4.07336 0
M  V30 20133 N 1889.01 1.14984 -1.07779 0
M  V30 20134 C 1890.26 1.85506 -0.802 0
M  V30 20135 C 1890.58 1.82981 0.674026 0
M  V30 20136 O 1889.85 1.27376 1.48836 0
M  V30 20137 H 1888.43 0.686845 -0.293689 0
M  V30 20138 H 1891.09 1.39368 -1.36244 0
M  V30 20139 H 1890.19 2.90518 -1.14042 0
M  V30 20140 N 1890.49 0.862526 1.31902 0
M  V30 20141 C 1891.42 0.328423 2.31179 0
M  V30 20142 C 1892.4 -0.57668 1.60026 0
M  V30 20143 O 1893.59 -0.49527 1.87778 0
M  V30 20144 C 1890.72 -0.47734 3.44004 0
M  V30 20145 C 1889.67 0.334015 4.26695 0
M  V30 20146 C 1889 -0.596973 5.31357 0
M  V30 20147 C 1890.3 1.56405 4.98332 0
M  V30 20148 H 1891.99 1.15797 2.761 0
M  V30 20149 H 1889.54 0.558268 1.32738 0
M  V30 20150 H 1891.49 -0.861461 4.12501 0
M  V30 20151 H 1890.21 -1.34033 2.9783 0
M  V30 20152 H 1888.87 0.699989 3.59855 0
M  V30 20153 H 1888.52 -1.45703 4.81435 0
M  V30 20154 H 1888.22 -0.0580517 5.87571 0
M  V30 20155 H 1889.74 -0.978099 6.02715 0
M  V30 20156 H 1891.16 1.25178 5.59467 0
M  V30 20157 H 1889.55 2.04149 5.64308 0
M  V30 20158 H 1890.62 2.32099 4.25744 0
M  V30 20159 N 1891.97 -1.4484 0.62123 0
M  V30 20160 C 1893.22 -2.01734 0.121544 0
M  V30 20161 C 1893.54 -1.49041 -1.25745 0
M  V30 20162 O 1892.81 -0.690056 -1.83344 0
M  V30 20163 H 1891.39 -0.745822 0.0419419 0
M  V30 20164 H 1894.05 -1.77467 0.805702 0
M  V30 20165 H 1893.15 -3.11993 0.0816882 0
M  V30 20166 N 1893.45 -0.361184 -1.53405 0
M  V30 20167 C 1894.39 0.502532 -2.27107 0
M  V30 20168 C 1895.39 1.08711 -1.29916 0
M  V30 20169 O 1896.59 1.03082 -1.47561 0
M  V30 20170 H 1892.97 0.180773 -0.729949 0
M  V30 20171 H 1894.94 -0.140891 -2.98067 0
M  V30 20172 C 1893.69 1.63258 -3.06989 0
M  V30 20173 H 1893.01 1.19205 -3.81615 0
M  V30 20174 H 1894.45 2.21174 -3.61743 0
M  V30 20175 C 1892.91 2.57234 -2.17559 0
M  V30 20176 O 1893.44 3.59939 -1.78345 0
M  V30 20177 N 1891.65 2.26322 -1.82282 0
M  V30 20178 H 1891.19 1.4284 -2.1437 0
M  V30 20179 H 1891.15 2.89455 -1.22731 0
M  V30 20180 N 1894.92 1.57341 -0.0902386 0
M  V30 20181 C 1895.86 2.10775 0.900374 0
M  V30 20182 C 1896.87 1.0439 1.24926 0
M  V30 20183 O 1898.06 1.31851 1.20322 0
M  V30 20184 C 1895.16 2.56852 2.21089 0
M  V30 20185 C 1894.33 3.87016 2.03808 0
M  V30 20186 C 1893.39 4.18991 3.18328 0
M  V30 20187 O 1892.42 4.88292 2.92505 0
M  V30 20188 N 1893.62 3.74006 4.43959 0
M  V30 20189 H 1896.38 2.96392 0.444045 0
M  V30 20190 H 1893.94 1.61621 0.0949979 0
M  V30 20191 H 1895.94 2.75292 2.96642 0
M  V30 20192 H 1894.51 1.76271 2.58161 0
M  V30 20193 H 1893.73 3.77772 1.12613 0
M  V30 20194 H 1895.01 4.72181 1.89532 0
M  V30 20195 H 1894.41 3.18056 4.67821 0
M  V30 20196 H 1892.97 3.97611 5.16477 0
M  V30 20197 N 1896.4 -0.183431 1.56529 0
M  V30 20198 C 1897.63 -0.917888 1.85425 0
M  V30 20199 C 1898.05 -1.76353 0.674171 0
M  V30 20200 O 1897.4 -1.78975 -0.35695 0
M  V30 20201 C 1897.45 -1.80454 3.13239 0
M  V30 20202 O 1897.17 -0.993028 4.26697 0
M  V30 20203 C 1898.68 -2.64969 3.55396 0
M  V30 20204 H 1895.9 -0.267254 0.61548 0
M  V30 20205 H 1898.44 -0.187171 2.03642 0
M  V30 20206 H 1896.59 -2.48874 2.96884 0
M  V30 20207 H 1897.01 -1.59831 4.99554 0
M  V30 20208 H 1898.48 -3.22819 4.47763 0
M  V30 20209 H 1898.96 -3.3925 2.78937 0
M  V30 20210 H 1899.57 -2.01902 3.74321 0
M  V30 20211 N 1897.88 -1.50992 -0.451564 0
M  V30 20212 C 1898.83 -1.71277 -1.54703 0
M  V30 20213 C 1899.8 -0.554233 -1.56581 0
M  V30 20214 O 1900.98 -0.787053 -1.73811 0
M  V30 20215 C 1898.12 -1.83078 -2.92535 0
M  V30 20216 C 1897.24 -3.10559 -3.00295 0
M  V30 20217 C 1896.37 -3.13039 -4.29162 0
M  V30 20218 C 1895.41 -4.34893 -4.30737 0
M  V30 20219 N 1894.55 -4.35002 -5.51106 0
M  V30 20220 H 1899.39 -2.64791 -1.3671 0
M  V30 20221 H 1896.92 -1.31243 -0.664356 0
M  V30 20222 H 1898.88 -1.87901 -3.7249 0
M  V30 20223 H 1897.51 -0.929851 -3.09117 0
M  V30 20224 H 1896.56 -3.15113 -2.13091 0
M  V30 20225 H 1897.88 -4.00503 -2.9732 0
M  V30 20226 H 1897.03 -3.167 -5.17481 0
M  V30 20227 H 1895.77 -2.20959 -4.34774 0
M  V30 20228 H 1894.77 -4.31423 -3.40814 0
M  V30 20229 H 1896 -5.28221 -4.26801 0
M  V30 20230 H 1893.94 -3.45785 -5.57466 0
M  V30 20231 H 1893.86 -5.18738 -5.49952 0
M  V30 20232 H 1895.13 -4.42836 -6.41496 0
M  V30 20233 N 1899.36 0.706069 -1.40899 0
M  V30 20234 C 1900.29 1.83119 -1.37841 0
M  V30 20235 C 1901.3 1.60335 -0.282253 0
M  V30 20236 O 1902.49 1.70032 -0.543263 0
M  V30 20237 C 1899.59 3.19696 -1.12461 0
M  V30 20238 C 1898.77 3.69598 -2.33915 0
M  V30 20239 C 1897.82 4.84815 -2.04551 0
M  V30 20240 O 1896.85 4.96973 -2.775 0
M  V30 20241 N 1898.05 5.71302 -1.0293 0
M  V30 20242 H 1900.82 1.86237 -2.34811 0
M  V30 20243 H 1898.38 0.887984 -1.35375 0
M  V30 20244 H 1900.37 3.94386 -0.90786 0
M  V30 20245 H 1898.94 3.11668 -0.241258 0
M  V30 20246 H 1898.16 2.85933 -2.7136 0
M  V30 20247 H 1899.45 3.99674 -3.14862 0
M  V30 20248 H 1898.85 5.64099 -0.425314 0
M  V30 20249 H 1897.4 6.45935 -0.872446 0
M  V30 20250 N 1900.84 1.26553 0.939264 0
M  V30 20251 C 1902.09 1.11599 1.68014 0
M  V30 20252 C 1902.4 -0.339956 1.92623 0
M  V30 20253 O 1903.6 -0.610203 2.64554 0
M  V30 20254 C 1902.06 1.94913 3.02551 0
M  V30 20255 C 1901.67 3.45094 2.85682 0
M  V30 20256 C 1903.41 1.88574 3.80316 0
M  V30 20257 C 1901.32 4.20648 4.15703 0
M  V30 20258 H 1900.25 0.414037 0.630151 0
M  V30 20259 H 1902.9 1.50878 1.04441 0
M  V30 20260 H 1901.28 1.48469 3.67115 0
M  V30 20261 H 1902.46 3.99321 2.29956 0
M  V30 20262 H 1900.77 3.5269 2.21357 0
M  V30 20263 H 1903.37 2.42307 4.76646 0
M  V30 20264 H 1903.71 0.856867 4.07386 0
M  V30 20265 H 1904.24 2.32852 3.22529 0
M  V30 20266 H 1900.98 5.24013 3.93816 0
M  V30 20267 H 1900.5 3.71202 4.71136 0
M  V30 20268 H 1902.18 4.29199 4.84146 0
M  V30 20269 N 1902.31 -1.14411 1.08387 0
M  V30 20270 C 1903.56 -1.85719 0.814638 0
M  V30 20271 C 1903.89 -1.82715 -0.657934 0
M  V30 20272 O 1903.17 -1.2577 -1.48365 0
M  V30 20273 C 1903.45 -3.34363 1.33691 0
M  V30 20274 C 1903.3 -3.4594 2.87481 0
M  V30 20275 C 1904.62 -4.29457 0.962006 0
M  V30 20276 H 1901.74 -0.674332 0.297399 0
M  V30 20277 H 1904.38 -1.34354 1.34346 0
M  V30 20278 H 1902.53 -3.78237 0.887082 0
M  V30 20279 H 1904.21 -3.10854 3.40833 0
M  V30 20280 H 1902.45 -2.87158 3.25151 0
M  V30 20281 H 1903.12 -4.50423 3.19097 0
M  V30 20282 H 1905.6 -3.93599 1.34979 0
M  V30 20283 H 1904.47 -5.31922 1.35464 0
M  V30 20284 H 1904.73 -4.41906 -0.130987 0
M  V30 20285 N 1903.79 -0.869509 -1.31443 0
M  V30 20286 C 1904.7 -0.328352 -2.32291 0
M  V30 20287 C 1905.72 0.561491 -1.64691 0
M  V30 20288 O 1906.89 0.458316 -1.96116 0
M  V30 20289 C 1903.96 0.461733 -3.43612 0
M  V30 20290 C 1903.02 -0.456015 -4.26871 0
M  V30 20291 C 1902.25 0.296458 -5.32876 0
M  V30 20292 O 1902.48 1.5246 -5.49647 0
M  V30 20293 O 1901.41 -0.345443 -6.00908 0
M  V30 20294 H 1905.24 -1.16424 -2.80498 0
M  V30 20295 H 1902.82 -0.632869 -1.35333 0
M  V30 20296 H 1904.7 0.90965 -4.11465 0
M  V30 20297 H 1903.38 1.27418 -2.97567 0
M  V30 20298 H 1902.29 -0.952421 -3.61773 0
M  V30 20299 H 1903.62 -1.23404 -4.76479 0
M  V30 20300 N 1905.27 1.44508 -0.628902 0
M  V30 20301 C 1906.22 2.3067 0.0773497 0
M  V30 20302 C 1907.19 1.43353 0.839003 0
M  V30 20303 O 1908.37 1.72258 0.820487 0
M  V30 20304 C 1905.51 3.28596 1.05447 0
M  V30 20305 C 1904.63 4.31016 0.291465 0
M  V30 20306 C 1903.76 5.16035 1.2602 0
M  V30 20307 C 1902.8 6.10166 0.486229 0
M  V30 20308 N 1901.94 6.87892 1.40532 0
M  V30 20309 H 1906.78 2.90523 -0.663346 0
M  V30 20310 H 1904.31 1.43143 -0.338906 0
M  V30 20311 H 1906.27 3.83856 1.63433 0
M  V30 20312 H 1904.9 2.70448 1.76232 0
M  V30 20313 H 1903.95 3.78246 -0.404285 0
M  V30 20314 H 1905.27 4.97827 -0.311447 0
M  V30 20315 H 1904.42 5.75802 1.91147 0
M  V30 20316 H 1903.16 4.49293 1.89704 0
M  V30 20317 H 1902.16 5.4951 -0.178543 0
M  V30 20318 H 1903.39 6.78943 -0.145859 0
M  V30 20319 H 1901.33 6.2382 2.0294 0
M  V30 20320 H 1901.25 7.51134 0.856369 0
M  V30 20321 H 1902.52 7.52183 2.04549 0
M  V30 20322 N 1906.75 0.369315 1.53212 0
M  V30 20323 C 1907.98 -0.219539 2.0543 0
M  V30 20324 C 1908.39 -1.42698 1.24233 0
M  V30 20325 O 1907.73 -1.81601 0.276938 0
M  V30 20326 C 1907.79 -0.673523 3.53134 0
M  V30 20327 C 1907.46 0.417737 4.55087 0
M  V30 20328 C 1908.45 1.2688 5.0418 0
M  V30 20329 C 1906.14 0.579049 4.98951 0
M  V30 20330 C 1908.13 2.26648 5.95743 0
M  V30 20331 C 1905.82 1.58009 5.90319 0
M  V30 20332 C 1906.82 2.42224 6.38605 0
M  V30 20333 O 1906.51 3.4062 7.28171 0
M  V30 20334 H 1906.24 -0.0415233 0.674724 0
M  V30 20335 H 1908.79 0.527123 1.98521 0
M  V30 20336 H 1907.02 -1.47185 3.57594 0
M  V30 20337 H 1908.71 -1.1858 3.88193 0
M  V30 20338 H 1909.48 1.15538 4.71037 0
M  V30 20339 H 1905.36 -0.0666753 4.60952 0
M  V30 20340 H 1908.9 2.92416 6.33355 0
M  V30 20341 H 1904.8 1.69397 6.22876 0
M  V30 20342 H 1905.56 3.36393 7.46178 0
M  V30 20343 N 1908.23 -1.57291 0.0985816 0
M  V30 20344 C 1909.19 -2.1307 -0.844628 0
M  V30 20345 C 1910.19 -1.06076 -1.20849 0
M  V30 20346 O 1911.38 -1.31947 -1.13735 0
M  V30 20347 C 1908.51 -2.65416 -2.13933 0
M  V30 20348 H 1909.71 -2.97729 -0.36023 0
M  V30 20349 H 1907.26 -1.55574 -0.150451 0
M  V30 20350 H 1907.99 -1.84287 -2.6685 0
M  V30 20351 H 1907.78 -3.43647 -1.88811 0
M  V30 20352 H 1909.27 -3.08551 -2.814 0
M  V30 20353 N 1909.71 0.175127 -1.56624 0
M  V30 20354 C 1910.95 0.898905 -1.83573 0
M  V30 20355 C 1911.31 1.79594 -0.678963 0
M  V30 20356 O 1912.51 2.55703 -0.828812 0
M  V30 20357 C 1910.78 1.67681 -3.15623 0
M  V30 20358 S 1912.34 2.44988 -3.64042 0
M  V30 20359 H 1909.16 0.301138 -0.644078 0
M  V30 20360 H 1911.76 0.160814 -1.94837 0
M  V30 20361 H 1910.46 1.00879 -3.97809 0
M  V30 20362 H 1910 2.45635 -3.0729 0
M  V30 20363 H 1912.01 3.69608 -3.31065 0
M  V30 20364 N 1911.18 1.5123 0.44355 0
M  V30 20365 C 1912.41 1.67389 1.21609 0
M  V30 20366 C 1912.83 0.368612 1.85167 0
M  V30 20367 O 1912.18 -0.652282 1.70445 0
M  V30 20368 C 1912.23 2.78507 2.30469 0
M  V30 20369 O 1911.96 4.03977 1.69512 0
M  V30 20370 C 1913.46 3.05881 3.20861 0
M  V30 20371 H 1910.68 0.561893 0.366766 0
M  V30 20372 H 1913.22 1.97611 0.526312 0
M  V30 20373 H 1911.38 2.50901 2.95173 0
M  V30 20374 H 1911.79 4.65641 2.41409 0
M  V30 20375 H 1913.26 3.87229 3.93393 0
M  V30 20376 H 1913.74 2.1804 3.81255 0
M  V30 20377 H 1914.35 3.35123 2.61864 0
M  V30 20378 N 1912.66 -0.698586 1.41271 0
M  V30 20379 C 1913.89 -1.48743 1.43816 0
M  V30 20380 C 1914.3 -1.88752 0.0425858 0
M  V30 20381 O 1913.66 -1.56584 -0.937425 0
M  V30 20382 C 1913.71 -2.75192 2.34418 0
M  V30 20383 O 1913.43 -2.36869 3.68544 0
M  V30 20384 C 1914.93 -3.68957 2.45735 0
M  V30 20385 H 1912.15 -0.458477 0.489938 0
M  V30 20386 H 1914.7 -0.860372 1.85521 0
M  V30 20387 H 1912.85 -3.34142 1.9603 0
M  V30 20388 H 1913.27 -3.18354 4.16834 0
M  V30 20389 H 1914.74 -4.54473 3.13302 0
M  V30 20390 H 1915.22 -4.13237 1.48767 0
M  V30 20391 H 1915.82 -3.15912 2.84745 0
M  V30 20392 N 1914.14 -1.27049 -0.93254 0
M  V30 20393 C 1915.56 -1.04349 -1.20762 0
M  V30 20394 C 1915.76 0.225981 -2.00229 0
M  V30 20395 O 1914.81 0.932788 -2.34639 0
M  V30 20396 C 1916.12 -2.28004 -1.96048 0
M  V30 20397 C 1917.67 -2.32993 -2.09006 0
M  V30 20398 C 1918.15 -3.56364 -2.87696 0
M  V30 20399 N 1919.64 -3.56892 -2.95266 0
M  V30 20400 C 1920.37 -4.49022 -3.56604 0
M  V30 20401 N 1919.87 -5.51451 -4.19374 0
M  V30 20402 N 1921.66 -4.36656 -3.53961 0
M  V30 20403 H 1913.81 -2.0857 -0.401516 0
M  V30 20404 H 1916.08 -0.917061 -0.240213 0
M  V30 20405 H 1915.78 -3.20386 -1.45072 0
M  V30 20406 H 1915.66 -2.32937 -2.96682 0
M  V30 20407 H 1918.04 -1.41119 -2.5917 0
M  V30 20408 H 1918.12 -2.32065 -1.07607 0
M  V30 20409 H 1917.77 -4.48571 -2.38216 0
M  V30 20410 H 1917.7 -3.54541 -3.89369 0
M  V30 20411 H 1920.19 -2.82812 -2.5065 0
M  V30 20412 H 1920.5 -6.17924 -4.64101 0
M  V30 20413 H 1918.85 -5.55298 -4.17934 0
M  V30 20414 H 1922.04 -3.55848 -3.04122 0
M  V30 20415 H 1922.21 -5.08647 -4.01475 0
M  V30 20416 N 1915.62 1.13835 -1.08993 0
M  V30 20417 C 1916.87 1.84361 -0.818161 0
M  V30 20418 C 1917.18 1.84185 0.658437 0
M  V30 20419 O 1918.39 2.50559 1.04558 0
M  V30 20420 C 1916.84 3.30973 -1.41367 0
M  V30 20421 C 1916.45 3.3955 -2.92249 0
M  V30 20422 C 1918.19 4.06571 -1.22066 0
M  V30 20423 C 1916.1 4.80408 -3.44908 0
M  V30 20424 H 1915.03 0.690704 -0.302397 0
M  V30 20425 H 1917.68 1.28283 -1.31208 0
M  V30 20426 H 1916.06 3.86826 -0.84745 0
M  V30 20427 H 1917.24 2.93716 -3.5506 0
M  V30 20428 H 1915.55 2.77413 -3.10533 0
M  V30 20429 H 1918.15 5.10554 -1.58868 0
M  V30 20430 H 1918.49 4.15989 -0.160946 0
M  V30 20431 H 1919.03 3.57036 -1.75415 0
M  V30 20432 H 1915.76 4.76181 -4.5048 0
M  V30 20433 H 1915.28 5.26756 -2.86859 0
M  V30 20434 H 1916.96 5.49315 -3.4185 0
M  V30 20435 N 1917.1 0.876467 1.3098 0
M  V30 20436 C 1918.32 0.504524 2.0117 0
M  V30 20437 C 1918.75 -0.897295 1.65319 0
M  V30 20438 O 1918.1 -1.59321 0.865255 0
M  V30 20439 C 1918.15 0.676516 3.54197 0
M  V30 20440 O 1917.26 -0.28134 4.11439 0
M  V30 20441 H 1916.6 0.199855 0.633209 0
M  V30 20442 H 1919.13 1.18167 1.67026 0
M  V30 20443 H 1919.14 0.572273 4.03967 0
M  V30 20444 H 1917.81 1.69864 3.7963 0
M  V30 20445 H 1916.39 -0.131506 3.72668 0
M  V30 20446 N 1918.57 -1.44173 0.636557 0
M  V30 20447 C 1919.98 -1.8534 0.224954 0
M  V30 20448 C 1920.34 -1.53271 -1.22485 0
M  V30 20449 O 1919.46 -0.973441 -1.93269 0
M  V30 20450 C 1920.06 -3.36413 0.401492 0
M  V30 20451 C 1918.61 -3.76374 0.0443511 0
M  V30 20452 C 1917.76 -2.67995 0.712303 0
M  V30 20453 H 1920.71 -1.34562 0.841356 0
M  V30 20454 H 1920.73 -3.78812 -0.357965 0
M  V30 20455 H 1920.25 -3.59722 1.45677 0
M  V30 20456 H 1918.35 -3.58679 -1.00897 0
M  V30 20457 H 1918.46 -4.76904 0.458196 0
M  V30 20458 H 1916.82 -2.54275 0.147092 0
M  V30 20459 H 1917.61 -2.94136 1.77028 0
M  V30 20460 N 1920.05 -0.377435 -1.53014 0
M  V30 20461 C 1921 0.478416 -2.27627 0
M  V30 20462 C 1921.99 1.07327 -1.31062 0
M  V30 20463 O 1923.2 1.01511 -1.48646 0
M  V30 20464 H 1919.57 0.173021 -0.731825 0
M  V30 20465 H 1921.55 -0.172497 -2.97901 0
M  V30 20466 C 1920.29 1.59993 -3.08703 0
M  V30 20467 H 1919.62 1.15151 -3.82858 0
M  V30 20468 H 1921.06 2.17324 -3.64069 0
M  V30 20469 C 1919.52 2.54912 -2.20275 0
M  V30 20470 O 1920.05 3.58027 -1.82152 0
M  V30 20471 N 1918.25 2.24376 -1.84672 0
M  V30 20472 H 1917.8 1.40559 -2.15873 0
M  V30 20473 H 1917.76 2.88137 -1.25794 0
M  V30 20474 N 1921.53 1.57237 -0.106922 0
M  V30 20475 C 1922.76 1.9912 0.562038 0
M  V30 20476 C 1923.17 0.986338 1.60987 0
M  V30 20477 O 1922.53 -0.0224611 1.82486 0
M  V30 20478 C 1922.58 3.41034 1.19909 0
M  V30 20479 O 1922.3 4.37674 0.193157 0
M  V30 20480 C 1923.8 3.97984 1.95253 0
M  V30 20481 H 1921.02 0.654071 0.149772 0
M  V30 20482 H 1923.57 2.03618 -0.189699 0
M  V30 20483 H 1921.72 3.37513 1.90168 0
M  V30 20484 H 1922.14 5.20401 0.654461 0
M  V30 20485 H 1923.61 4.99398 2.35171 0
M  V30 20486 H 1924.09 3.36455 2.82303 0
M  V30 20487 H 1924.69 4.05014 1.29784 0
M  V30 20488 N 1923.01 -0.166818 1.56715 0
M  V30 20489 C 1924.23 -0.902208 1.86748 0
M  V30 20490 C 1924.66 -1.74838 0.693767 0
M  V30 20491 O 1924.02 -1.77749 -0.35708 0
M  V30 20492 C 1924.06 -1.75107 3.1523 0
M  V30 20493 O 1923.17 -2.85319 2.9777 0
M  V30 20494 H 1922.51 -0.252474 0.614128 0
M  V30 20495 H 1925.04 -0.163603 2.03945 0
M  V30 20496 H 1925.05 -2.15009 3.46749 0
M  V30 20497 H 1923.72 -1.12955 4.00267 0
M  V30 20498 H 1922.3 -2.48967 2.77615 0
M  V30 20499 N 1924.49 -1.51463 -0.435524 0
M  V30 20500 C 1925.42 -1.69104 -1.54715 0
M  V30 20501 C 1926.43 -0.571681 -1.52432 0
M  V30 20502 O 1927.62 -0.846054 -1.57176 0
M  V30 20503 C 1924.72 -1.69217 -2.9363 0
M  V30 20504 C 1923.89 -2.97766 -3.20397 0
M  V30 20505 C 1922.95 -2.90043 -4.39046 0
M  V30 20506 O 1921.98 -3.63985 -4.37611 0
M  V30 20507 N 1923.18 -2.06018 -5.42712 0
M  V30 20508 H 1925.95 -2.64998 -1.39985 0
M  V30 20509 H 1923.51 -1.49371 -0.624486 0
M  V30 20510 H 1925.5 -1.61616 -3.71029 0
M  V30 20511 H 1924.07 -0.809085 -3.01948 0
M  V30 20512 H 1923.29 -3.19222 -2.31282 0
M  V30 20513 H 1924.58 -3.82857 -3.35109 0
M  V30 20514 H 1923.97 -1.45324 -5.46715 0
M  V30 20515 H 1922.53 -2.04295 -6.18956 0
M  V30 20516 N 1925.96 0.691085 -1.4164 0
M  V30 20517 C 1926.9 1.81646 -1.39776 0
M  V30 20518 C 1927.91 1.60026 -0.299243 0
M  V30 20519 O 1929.1 1.69446 -0.561266 0
M  V30 20520 C 1926.2 3.18486 -1.15845 0
M  V30 20521 C 1925.37 3.67096 -2.37822 0
M  V30 20522 C 1924.43 4.82618 -2.09681 0
M  V30 20523 O 1923.46 4.94002 -2.82756 0
M  V30 20524 N 1924.66 5.70178 -1.08983 0
M  V30 20525 H 1927.42 1.83736 -2.36773 0
M  V30 20526 H 1924.98 0.873576 -1.36309 0
M  V30 20527 H 1926.98 3.934 -0.949639 0
M  V30 20528 H 1925.55 3.11394 -0.274301 0
M  V30 20529 H 1924.77 2.83038 -2.74377 0
M  V30 20530 H 1926.05 3.96312 -3.19083 0
M  V30 20531 H 1925.45 5.63616 -0.48512 0
M  V30 20532 H 1924.01 6.44973 -0.940906 0
M  V30 20533 N 1927.44 1.27542 0.925789 0
M  V30 20534 C 1928.39 1.10271 2.048 0
M  V30 20535 C 1929.38 0.0252694 1.69381 0
M  V30 20536 O 1930.59 0.183134 1.79066 0
M  V30 20537 H 1926.97 0.339845 0.670828 0
M  V30 20538 H 1928.94 2.0534 2.16513 0
M  V30 20539 C 1927.69 0.768681 3.39097 0
M  V30 20540 H 1927.01 1.58967 3.66837 0
M  V30 20541 H 1928.45 0.687719 4.18386 0
M  V30 20542 C 1926.91 -0.527037 3.32752 0
M  V30 20543 O 1927.44 -1.5609 3.70134 0
M  V30 20544 N 1925.64 -0.523354 2.85848 0
M  V30 20545 H 1925.19 0.318395 2.55625 0
M  V30 20546 H 1925.15 -1.39037 2.81986 0
M  V30 20547 N 1928.92 -1.13255 1.09595 0
M  V30 20548 C 1930.17 -1.84571 0.833056 0
M  V30 20549 C 1930.5 -1.83622 -0.641341 0
M  V30 20550 O 1929.75 -1.27084 -1.48823 0
M  V30 20551 C 1930.05 -3.32304 1.31562 0
M  V30 20552 C 1929.72 -3.53433 2.79993 0
M  V30 20553 C 1928.38 -3.58907 3.2053 0
M  V30 20554 C 1930.73 -3.61259 3.75687 0
M  V30 20555 C 1928.06 -3.69744 4.55529 0
M  V30 20556 C 1930.41 -3.73624 5.10478 0
M  V30 20557 C 1929.07 -3.77352 5.50601 0
M  V30 20558 H 1928.34 -0.675393 0.304837 0
M  V30 20559 H 1930.99 -1.33697 1.37103 0
M  V30 20560 H 1929.3 -3.85542 0.697482 0
M  V30 20561 H 1930.99 -3.85935 1.0888 0
M  V30 20562 H 1927.58 -3.49828 2.47625 0
M  V30 20563 H 1931.77 -3.56308 3.45483 0
M  V30 20564 H 1927.02 -3.70897 4.8605 0
M  V30 20565 H 1931.2 -3.78623 5.84481 0
M  V30 20566 H 1928.82 -3.85501 6.55204 0
M  V30 20567 N 1930.4 -0.883401 -1.30514 0
M  V30 20568 C 1931.64 -0.501795 -1.96494 0
M  V30 20569 C 1931.98 0.946294 -1.69585 0
M  V30 20570 O 1931.25 1.66842 -0.999705 0
M  V30 20571 C 1931.54 -0.775405 -3.51653 0
M  V30 20572 C 1931.39 -2.27401 -3.88084 0
M  V30 20573 C 1932.71 -0.250854 -4.39384 0
M  V30 20574 H 1929.83 -0.183786 -0.713717 0
M  V30 20575 H 1932.47 -1.1071 -1.54412 0
M  V30 20576 H 1930.62 -0.260217 -3.87628 0
M  V30 20577 H 1932.29 -2.85748 -3.62141 0
M  V30 20578 H 1930.53 -2.74128 -3.36209 0
M  V30 20579 H 1931.2 -2.41606 -4.96317 0
M  V30 20580 H 1933.68 -0.691785 -4.10309 0
M  V30 20581 H 1932.56 -0.471637 -5.4687 0
M  V30 20582 H 1932.82 0.847835 -4.33894 0
M  V30 20583 N 1931.88 1.43833 -0.644194 0
M  V30 20584 C 1933.1 2.0627 -0.161397 0
M  V30 20585 C 1933.52 1.4823 1.16933 0
M  V30 20586 O 1932.88 0.610133 1.71999 0
M  V30 20587 C 1932.93 3.61459 -0.0545357 0
M  V30 20588 O 1932.65 4.17339 -1.33265 0
M  V30 20589 C 1934.15 4.40955 0.455411 0
M  V30 20590 H 1931.37 0.665503 -0.0857112 0
M  V30 20591 H 1933.91 1.84488 -0.882291 0
M  V30 20592 H 1932.07 3.82457 0.616868 0
M  V30 20593 H 1932.48 5.10916 -1.18597 0
M  V30 20594 H 1933.96 5.49916 0.479159 0
M  V30 20595 H 1934.43 4.13333 1.485 0
M  V30 20596 H 1935.04 4.24905 -0.18319 0
M  V30 20597 N 1933.35 0.385544 1.52811 0
M  V30 20598 C 1934.29 -0.486433 2.23979 0
M  V30 20599 C 1935.3 -1.02981 1.2609 0
M  V30 20600 O 1936.49 -0.932779 1.52189 0
M  V30 20601 C 1933.59 -1.68645 2.93959 0
M  V30 20602 C 1932.76 -1.2711 4.18523 0
M  V30 20603 C 1931.82 -2.33538 4.71536 0
M  V30 20604 O 1930.85 -1.95101 5.34719 0
M  V30 20605 N 1932.05 -3.65401 4.51068 0
M  V30 20606 H 1934.81 0.12327 2.99446 0
M  V30 20607 H 1932.37 0.211712 1.6051 0
M  V30 20608 H 1934.37 -2.3936 3.26326 0
M  V30 20609 H 1932.94 -2.20257 2.21823 0
M  V30 20610 H 1932.16 -0.392983 3.92236 0
M  V30 20611 H 1933.44 -0.970192 4.99464 0
M  V30 20612 H 1932.84 -3.99393 4.00626 0
M  V30 20613 H 1931.4 -4.32162 4.87934 0
M  V30 20614 N 1934.83 -1.57178 0.115259 0
M  V30 20615 C 1936.25 -1.57765 -0.241345 0
M  V30 20616 C 1936.45 -1.12775 -1.66985 0
M  V30 20617 O 1935.5 -0.813419 -2.39039 0
M  V30 20618 C 1936.82 -3.00698 -0.0114291 0
M  V30 20619 C 1938.37 -3.12904 -0.0776187 0
M  V30 20620 C 1938.84 -4.57831 0.124557 0
M  V30 20621 N 1940.33 -4.63146 0.0703998 0
M  V30 20622 C 1941.07 -5.73045 0.20179 0
M  V30 20623 N 1940.56 -6.91706 0.389143 0
M  V30 20624 N 1942.36 -5.61922 0.141629 0
M  V30 20625 H 1934.51 -1.84725 1.04836 0
M  V30 20626 H 1936.77 -0.853542 0.412517 0
M  V30 20627 H 1936.48 -3.37886 0.975995 0
M  V30 20628 H 1936.35 -3.69771 -0.744947 0
M  V30 20629 H 1938.74 -2.75575 -1.05556 0
M  V30 20630 H 1938.82 -2.46382 0.687719 0
M  V30 20631 H 1938.46 -4.95857 1.09946 0
M  V30 20632 H 1938.39 -5.22439 -0.660721 0
M  V30 20633 H 1940.88 -3.77833 -0.0710442 0
M  V30 20634 H 1941.2 -7.71306 0.480365 0
M  V30 20635 H 1939.54 -6.93699 0.425069 0
M  V30 20636 H 1942.73 -4.681 -0.00374873 0
M  V30 20637 H 1942.9 -6.47527 0.24747 0
M  V30 20638 N 1936.31 0.158505 -1.56801 0
M  V30 20639 C 1937.54 0.892291 -1.87224 0
M  V30 20640 C 1937.96 1.74468 -0.703029 0
M  V30 20641 O 1937.32 1.77936 0.347649 0
M  V30 20642 C 1937.37 1.73433 -3.16154 0
M  V30 20643 O 1936.47 2.83736 -2.99279 0
M  V30 20644 H 1935.81 0.249214 -0.615458 0
M  V30 20645 H 1938.34 0.152785 -2.04029 0
M  V30 20646 H 1938.35 2.13168 -3.47884 0
M  V30 20647 H 1937.03 1.10831 -4.00861 0
M  V30 20648 H 1935.6 2.47491 -2.78931 0
M  V30 20649 N 1937.79 1.51692 0.427485 0
M  V30 20650 C 1938.74 1.73716 1.51958 0
M  V30 20651 C 1939.71 0.579073 1.55679 0
M  V30 20652 O 1940.89 0.814605 1.72536 0
M  V30 20653 C 1938.03 1.87709 2.89585 0
M  V30 20654 C 1937.14 3.15297 2.95317 0
M  V30 20655 C 1936.28 3.19827 4.24128 0
M  V30 20656 C 1935.32 4.4169 4.23764 0
M  V30 20657 N 1934.46 4.43715 5.44116 0
M  V30 20658 H 1939.3 2.66933 1.3248 0
M  V30 20659 H 1936.83 1.32283 0.643393 0
M  V30 20660 H 1938.79 1.93804 3.69454 0
M  V30 20661 H 1937.42 0.978912 3.07599 0
M  V30 20662 H 1936.47 3.18464 2.08051 0
M  V30 20663 H 1937.78 4.05182 2.90911 0
M  V30 20664 H 1936.94 3.24892 5.12377 0
M  V30 20665 H 1935.68 2.27848 4.31204 0
M  V30 20666 H 1934.68 4.36791 3.33907 0
M  V30 20667 H 1935.91 5.34944 4.18343 0
M  V30 20668 H 1933.85 3.5461 5.51894 0
M  V30 20669 H 1933.77 5.27421 5.4163 0
M  V30 20670 H 1935.04 4.52986 6.34369 0
M  V30 20671 N 1939.27 -0.683564 1.42004 0
M  V30 20672 C 1940.68 -0.99563 1.24737 0
M  V30 20673 C 1940.88 -2.00976 0.145285 0
M  V30 20674 O 1939.94 -2.47771 -0.486376 0
M  V30 20675 C 1941.25 -1.50879 2.60108 0
M  V30 20676 C 1942.8 -1.62701 2.6739 0
M  V30 20677 C 1943.28 -2.17416 4.03106 0
M  V30 20678 N 1944.77 -2.24761 4.05015 0
M  V30 20679 C 1945.5 -2.68151 5.06836 0
M  V30 20680 N 1945 -3.11059 6.19043 0
M  V30 20681 N 1946.79 -2.67822 4.94194 0
M  V30 20682 H 1938.94 -0.011962 2.12397 0
M  V30 20683 H 1941.2 -0.0678489 0.945569 0
M  V30 20684 H 1940.91 -0.838159 3.41567 0
M  V30 20685 H 1940.78 -2.48899 2.83424 0
M  V30 20686 H 1943.17 -2.28873 1.86282 0
M  V30 20687 H 1943.25 -0.631947 2.47871 0
M  V30 20688 H 1942.9 -1.51856 4.84667 0
M  V30 20689 H 1942.83 -3.17698 4.19971 0
M  V30 20690 H 1945.32 -1.94497 3.24005 0
M  V30 20691 H 1945.63 -3.42828 6.92596 0
M  V30 20692 H 1943.98 -3.08937 6.22561 0
M  V30 20693 H 1947.17 -2.33658 4.05613 0
M  V30 20694 H 1947.34 -3.01318 5.73682 0
M  V30 20695 N 1940.75 -1.28031 -0.919012 0
M  V30 20696 C 1941.71 -1.11534 -2.00232 0
M  V30 20697 C 1942.71 -0.0566233 -1.607 0
M  V30 20698 O 1943.9 -0.30196 -1.71563 0
M  V30 20699 C 1941.03 -0.701371 -3.33607 0
M  V30 20700 H 1942.22 -2.0774 -2.16297 0
M  V30 20701 H 1939.78 -1.10942 -1.10098 0
M  V30 20702 H 1940.51 0.261682 -3.23243 0
M  V30 20703 H 1940.3 -1.4661 -3.63659 0
M  V30 20704 H 1941.79 -0.608444 -4.13144 0
M  V30 20705 N 1942.22 1.12672 -1.10194 0
M  V30 20706 C 1943.15 2.20422 -0.770492 0
M  V30 20707 C 1944.13 1.68172 0.25541 0
M  V30 20708 O 1945.32 1.93818 0.121728 0
M  V30 20709 C 1942.45 3.4673 -0.198815 0
M  V30 20710 C 1941.4 4.12118 -1.15512 0
M  V30 20711 C 1940.73 5.32847 -0.444768 0
M  V30 20712 C 1942.03 4.58542 -2.50073 0
M  V30 20713 H 1943.72 2.48404 -1.67141 0
M  V30 20714 H 1941.27 1.19392 -0.805077 0
M  V30 20715 H 1943.22 4.21376 0.0451853 0
M  V30 20716 H 1941.95 3.18168 0.737331 0
M  V30 20717 H 1940.61 3.3945 -1.38453 0
M  V30 20718 H 1940.25 5.00551 0.49577 0
M  V30 20719 H 1939.95 5.77543 -1.08247 0
M  V30 20720 H 1941.48 6.10241 -0.209255 0
M  V30 20721 H 1942.89 5.24572 -2.31294 0
M  V30 20722 H 1941.29 5.14007 -3.09704 0
M  V30 20723 H 1942.36 3.72654 -3.10254 0
M  V30 20724 N 1943.7 0.89031 1.30043 0
M  V30 20725 C 1944.65 0.35935 2.27985 0
M  V30 20726 C 1945.62 -0.5534 1.5661 0
M  V30 20727 O 1946.8 -0.480669 1.84646 0
M  V30 20728 C 1943.94 -0.41541 3.42591 0
M  V30 20729 C 1943.06 0.527163 4.28771 0
M  V30 20730 C 1942.19 -0.26372 5.30545 0
M  V30 20731 C 1941.23 0.673982 6.08378 0
M  V30 20732 N 1940.37 -0.081909 7.02052 0
M  V30 20733 H 1945.21 1.19969 2.72785 0
M  V30 20734 H 1942.74 0.602948 1.34175 0
M  V30 20735 H 1944.7 -0.880572 4.07801 0
M  V30 20736 H 1943.33 -1.22028 2.98846 0
M  V30 20737 H 1942.38 1.11083 3.6382 0
M  V30 20738 H 1943.7 1.24532 4.83004 0
M  V30 20739 H 1942.85 -0.7905 6.01528 0
M  V30 20740 H 1941.59 -1.01507 4.7702 0
M  V30 20741 H 1940.59 1.21234 5.36267 0
M  V30 20742 H 1941.82 1.42451 6.63991 0
M  V30 20743 H 1939.77 -0.815696 6.50909 0
M  V30 20744 H 1939.68 0.576521 7.53799 0
M  V30 20745 H 1940.95 -0.589258 7.7727 0
M  V30 20746 N 1945.18 -1.43489 0.651812 0
M  V30 20747 C 1946.11 -2.29063 -0.0793108 0
M  V30 20748 C 1947.12 -1.4243 -0.788508 0
M  V30 20749 O 1948.31 -1.66381 -0.646499 0
M  V30 20750 C 1945.41 -3.19317 -1.13533 0
M  V30 20751 C 1944.59 -4.3448 -0.504553 0
M  V30 20752 C 1943.65 -5.05619 -1.45727 0
M  V30 20753 O 1942.67 -5.60936 -0.966409 0
M  V30 20754 N 1943.87 -5.08988 -2.79126 0
M  V30 20755 H 1946.64 -2.92451 0.655174 0
M  V30 20756 H 1944.2 -1.54164 0.494491 0
M  V30 20757 H 1946.19 -3.63773 -1.77345 0
M  V30 20758 H 1944.76 -2.57538 -1.7718 0
M  V30 20759 H 1943.98 -3.92958 0.312626 0
M  V30 20760 H 1945.27 -5.0876 -0.0641591 0
M  V30 20761 H 1944.67 -4.65415 -3.21567 0
M  V30 20762 H 1943.22 -5.57166 -3.38245 0
M  V30 20763 N 1946.66 -0.393643 -1.52605 0
M  V30 20764 C 1947.9 0.187154 -2.01633 0
M  V30 20765 C 1948.23 1.46451 -1.27993 0
M  V30 20766 O 1947.49 1.92169 -0.370063 0
M  V30 20767 C 1947.79 0.497148 -3.53925 0
M  V30 20768 C 1947.45 -0.689176 -4.45602 0
M  V30 20769 C 1946.11 -1.01462 -4.70382 0
M  V30 20770 C 1948.47 -1.48262 -4.99668 0
M  V30 20771 C 1945.79 -2.13497 -5.46476 0
M  V30 20772 C 1948.15 -2.59361 -5.76987 0
M  V30 20773 C 1946.81 -2.92409 -6.00044 0
M  V30 20774 H 1946.08 0.0684846 -0.737828 0
M  V30 20775 H 1948.73 -0.531882 -1.83965 0
M  V30 20776 H 1947.03 1.29756 -3.6969 0
M  V30 20777 H 1948.73 0.959239 -3.89358 0
M  V30 20778 H 1945.32 -0.425524 -4.26482 0
M  V30 20779 H 1949.5 -1.24443 -4.80445 0
M  V30 20780 H 1944.76 -2.39467 -5.62553 0
M  V30 20781 H 1948.93 -3.21241 -6.17881 0
M  V30 20782 H 1946.56 -3.79341 -6.5879 0
M  V30 20783 N 1948.14 1.57115 -0.123593 0
M  V30 20784 C 1949.55 1.5789 0.232975 0
M  V30 20785 C 1949.75 1.13659 1.66385 0
M  V30 20786 O 1948.81 0.826084 2.38604 0
M  V30 20787 C 1950.12 3.007 -0.0045178 0
M  V30 20788 C 1951.67 3.12941 0.0610235 0
M  V30 20789 C 1952.14 4.57758 -0.148835 0
M  V30 20790 N 1953.63 4.63103 -0.0949606 0
M  V30 20791 C 1954.37 5.7293 -0.232177 0
M  V30 20792 N 1953.87 6.9149 -0.42582 0
M  V30 20793 N 1955.66 5.61839 -0.171428 0
M  V30 20794 H 1947.81 1.84166 -1.05814 0
M  V30 20795 H 1950.07 0.851342 -0.417038 0
M  V30 20796 H 1949.78 3.37364 -0.993901 0
M  V30 20797 H 1949.65 3.70161 0.725327 0
M  V30 20798 H 1952.04 2.76131 1.04094 0
M  V30 20799 H 1952.12 2.46014 -0.700776 0
M  V30 20800 H 1951.76 4.95267 -1.12574 0
M  V30 20801 H 1951.69 5.22782 0.633006 0
M  V30 20802 H 1954.19 3.77866 0.0510058 0
M  V30 20803 H 1954.5 7.7104 -0.521263 0
M  V30 20804 H 1952.84 6.93464 -0.461851 0
M  V30 20805 H 1956.03 4.68095 -0.0210758 0
M  V30 20806 H 1956.21 6.47387 -0.281807 0
M  V30 20807 N 1949.61 -0.150187 1.56883 0
M  V30 20808 C 1950.54 -1.18735 2.01058 0
M  V30 20809 C 1951.52 -1.44983 0.889606 0
M  V30 20810 O 1952.71 -1.55958 1.15719 0
M  V30 20811 C 1949.84 -2.52129 2.38848 0
M  V30 20812 C 1948.79 -2.40408 3.54101 0
M  V30 20813 C 1948.12 -3.78484 3.77695 0
M  V30 20814 C 1949.42 -1.89087 4.86871 0
M  V30 20815 H 1951.11 -0.820044 2.87951 0
M  V30 20816 H 1948.66 -0.393025 1.38533 0
M  V30 20817 H 1950.61 -3.24908 2.68352 0
M  V30 20818 H 1949.34 -2.90688 1.48889 0
M  V30 20819 H 1948 -1.70082 3.24758 0
M  V30 20820 H 1947.64 -4.14474 2.84992 0
M  V30 20821 H 1947.34 -3.71504 4.55256 0
M  V30 20822 H 1948.87 -4.52816 4.09621 0
M  V30 20823 H 1950.28 -2.51656 5.15114 0
M  V30 20824 H 1948.68 -1.93005 5.68216 0
M  V30 20825 H 1949.75 -0.846357 4.77457 0
M  V30 20826 N 1951.09 -1.51916 -0.419434 0
M  V30 20827 C 1952.5 -1.57746 -0.998651 0
M  V30 20828 C 1952.85 -0.411706 -1.91832 0
M  V30 20829 O 1951.98 0.469268 -2.11251 0
M  V30 20830 C 1952.57 -2.85895 -1.81795 0
M  V30 20831 C 1951.13 -2.94238 -2.34736 0
M  V30 20832 C 1950.28 -2.52587 -1.14434 0
M  V30 20833 H 1953.23 -1.57434 -0.200039 0
M  V30 20834 H 1953.25 -2.70667 -2.67431 0
M  V30 20835 H 1952.76 -3.70722 -1.14834 0
M  V30 20836 H 1950.87 -2.13881 -3.05099 0
M  V30 20837 H 1950.98 -3.98268 -2.66308 0
M  V30 20838 H 1949.34 -2.06196 -1.49516 0
M  V30 20839 H 1950.13 -3.39777 -0.490555 0
M  V30 20840 N 1952.57 0.676023 -1.42365 0
M  V30 20841 C 1953.5 1.80165 -1.48536 0
M  V30 20842 C 1954.48 1.66625 -0.342049 0
M  V30 20843 O 1955.67 1.86065 -0.55619 0
M  V30 20844 C 1952.8 3.18451 -1.38586 0
M  V30 20845 C 1951.75 3.46724 -2.50931 0
M  V30 20846 C 1951.08 4.84572 -2.2604 0
M  V30 20847 C 1952.38 3.4374 -3.93243 0
M  V30 20848 H 1954.07 1.75258 -2.42745 0
M  V30 20849 H 1951.62 0.841756 -1.16835 0
M  V30 20850 H 1953.57 3.96929 -1.41511 0
M  V30 20851 H 1952.29 3.24033 -0.408703 0
M  V30 20852 H 1950.95 2.70607 -2.47321 0
M  V30 20853 H 1950.6 4.86802 -1.2662 0
M  V30 20854 H 1950.3 5.04452 -3.01334 0
M  V30 20855 H 1951.82 5.65336 -2.30712 0
M  V30 20856 H 1953.24 4.12189 -3.98463 0
M  V30 20857 H 1951.64 3.75155 -4.68379 0
M  V30 20858 H 1952.71 2.42337 -4.20001 0
M  V30 20859 N 1954.05 1.28517 0.912209 0
M  V30 20860 C 1954.96 1.14429 2.048 0
M  V30 20861 C 1955.97 0.0704926 1.73857 0
M  V30 20862 O 1957.15 0.280091 1.99443 0
M  V30 20863 C 1954.22 0.809034 3.37128 0
M  V30 20864 C 1953.28 1.96535 3.8167 0
M  V30 20865 C 1952.51 1.646 5.07684 0
M  V30 20866 O 1952.73 0.561072 5.67634 0
M  V30 20867 O 1951.67 2.49011 5.47975 0
M  V30 20868 H 1955.49 2.0978 2.19604 0
M  V30 20869 H 1953.08 1.0785 1.03387 0
M  V30 20870 H 1954.96 0.636082 4.16572 0
M  V30 20871 H 1953.63 -0.114812 3.23496 0
M  V30 20872 H 1952.54 2.19347 3.03047 0
M  V30 20873 H 1953.87 2.86996 3.99868 0
M  V30 20874 N 1955.53 -1.12086 1.1079 0
M  V30 20875 C 1956.44 -2.21514 0.772578 0
M  V30 20876 C 1957.45 -1.72454 -0.231462 0
M  V30 20877 O 1958.63 -2.01281 -0.0693074 0
M  V30 20878 C 1955.69 -3.46043 0.213364 0
M  V30 20879 C 1954.75 -4.09925 1.27515 0
M  V30 20880 C 1953.99 -5.28509 0.742524 0
M  V30 20881 O 1954.21 -5.68779 -0.429786 0
M  V30 20882 O 1953.14 -5.82802 1.50417 0
M  V30 20883 H 1956.97 -2.52596 1.68608 0
M  V30 20884 H 1954.56 -1.20492 0.883294 0
M  V30 20885 H 1956.44 -4.21294 -0.0944683 0
M  V30 20886 H 1955.11 -3.16628 -0.672947 0
M  V30 20887 H 1954.02 -3.36436 1.63589 0
M  V30 20888 H 1955.35 -4.43504 2.13461 0
M  V30 20889 N 1957 -0.897194 -1.29569 0
M  V30 20890 C 1958.23 -0.53717 -1.99805 0
M  V30 20891 C 1958.65 0.877466 -1.6717 0
M  V30 20892 O 1958 1.57882 -0.915398 0
M  V30 20893 C 1958.06 -0.716902 -3.5432 0
M  V30 20894 O 1957.78 -2.07586 -3.85798 0
M  V30 20895 C 1959.28 -0.361494 -4.41824 0
M  V30 20896 H 1956.5 -0.206379 -0.638474 0
M  V30 20897 H 1959.04 -1.20585 -1.65165 0
M  V30 20898 H 1957.2 -0.095433 -3.87282 0
M  V30 20899 H 1957.61 -2.10338 -4.80477 0
M  V30 20900 H 1959.08 -0.538099 -5.49371 0
M  V30 20901 H 1959.56 0.701301 -4.33565 0
M  V30 20902 H 1960.17 -0.959799 -4.14328 0
M  V30 20903 N 1958.48 1.43142 -0.659413 0
M  V30 20904 C 1959.39 2.34582 0.0288714 0
M  V30 20905 C 1960.41 1.54232 0.805512 0
M  V30 20906 O 1961.58 1.8686 0.751347 0
M  V30 20907 C 1958.65 3.32587 0.97912 0
M  V30 20908 C 1957.71 4.2884 0.198725 0
M  V30 20909 C 1956.94 5.22163 1.10371 0
M  V30 20910 O 1957.17 5.20054 2.34308 0
M  V30 20911 O 1956.1 5.99168 0.572785 0
M  V30 20912 H 1959.93 2.94945 -0.723947 0
M  V30 20913 H 1957.51 1.43386 -0.419609 0
M  V30 20914 H 1959.39 3.92836 1.52505 0
M  V30 20915 H 1958.07 2.74719 1.71206 0
M  V30 20916 H 1956.98 3.72052 -0.390942 0
M  V30 20917 H 1958.31 4.89707 -0.494774 0
M  V30 20918 N 1959.96 0.40173 1.52394 0
M  V30 20919 C 1960.89 -0.41861 2.29717 0
M  V30 20920 C 1961.87 -1.05263 1.33618 0
M  V30 20921 O 1963.06 -1.06304 1.62521 0
M  V30 20922 C 1960.19 -1.5395 3.11314 0
M  V30 20923 C 1959.14 -1.03088 4.154 0
M  V30 20924 C 1958.47 -2.2448 4.85297 0
M  V30 20925 C 1959.77 -0.0900956 5.22222 0
M  V30 20926 H 1961.46 0.226577 2.98541 0
M  V30 20927 H 1959.01 0.110411 1.43576 0
M  V30 20928 H 1960.96 -2.12031 3.64171 0
M  V30 20929 H 1959.68 -2.21246 2.40246 0
M  V30 20930 H 1958.34 -0.472515 3.63542 0
M  V30 20931 H 1957.99 -2.90313 4.10764 0
M  V30 20932 H 1957.69 -1.91103 5.55656 0
M  V30 20933 H 1959.21 -2.83181 5.40963 0
M  V30 20934 H 1960.63 -0.579479 5.70364 0
M  V30 20935 H 1959.03 0.154505 5.99901 0
M  V30 20936 H 1960.1 0.857375 4.7726 0
M  V30 20937 N 1961.44 -1.57047 0.131923 0
M  V30 20938 C 1962.35 -2.19545 -0.826862 0
M  V30 20939 C 1963.36 -1.17532 -1.28305 0
M  V30 20940 O 1964.54 -1.50052 -1.34337 0
M  V30 20941 C 1961.61 -2.79284 -2.0543 0
M  V30 20942 C 1960.67 -3.96375 -1.64879 0
M  V30 20943 C 1959.9 -4.53256 -2.81771 0
M  V30 20944 O 1960.12 -4.09022 -3.97564 0
M  V30 20945 O 1959.06 -5.43748 -2.58111 0
M  V30 20946 H 1962.88 -3.01957 -0.324926 0
M  V30 20947 H 1960.47 -1.49102 -0.0943495 0
M  V30 20948 H 1962.35 -3.17312 -2.77292 0
M  V30 20949 H 1961.02 -1.99895 -2.54605 0
M  V30 20950 H 1959.93 -3.63092 -0.900848 0
M  V30 20951 H 1961.26 -4.77238 -1.20434 0
M  V30 20952 N 1962.92 0.141865 -1.5696 0
M  V30 20953 C 1963.86 1.175 -1.98651 0
M  V30 20954 C 1964.83 1.42409 -0.854918 0
M  V30 20955 O 1966.02 1.54658 -1.11738 0
M  V30 20956 C 1963.16 2.50222 -2.37661 0
M  V30 20957 C 1962.27 2.32443 -3.64135 0
M  V30 20958 C 1961.41 3.58236 -3.92225 0
M  V30 20959 C 1960.45 3.35516 -5.11952 0
M  V30 20960 N 1959.58 4.53452 -5.36027 0
M  V30 20961 H 1964.42 0.812473 -2.8671 0
M  V30 20962 H 1961.96 0.389721 -1.41844 0
M  V30 20963 H 1963.92 3.27616 -2.58309 0
M  V30 20964 H 1962.55 2.84412 -1.52675 0
M  V30 20965 H 1961.6 1.46078 -3.51234 0
M  V30 20966 H 1962.91 2.11618 -4.51685 0
M  V30 20967 H 1962.07 4.44057 -4.13399 0
M  V30 20968 H 1960.8 3.8207 -3.03106 0
M  V30 20969 H 1959.81 2.48084 -4.90647 0
M  V30 20970 H 1961.03 3.13075 -6.02628 0
M  V30 20971 H 1958.98 4.7745 -4.49864 0
M  V30 20972 H 1958.9 4.35648 -6.17856 0
M  V30 20973 H 1960.17 5.40472 -5.61703 0
M  V30 20974 N 1964.39 1.52136 0.411372 0
M  V30 20975 C 1965.81 1.40889 0.749825 0
M  V30 20976 C 1966.01 0.511617 1.94897 0
M  V30 20977 O 1965.07 -0.0234451 2.52489 0
M  V30 20978 C 1966.38 2.83378 1.00586 0
M  V30 20979 C 1967.93 2.92706 1.10871 0
M  V30 20980 C 1968.4 4.36157 1.39752 0
M  V30 20981 N 1969.89 4.39382 1.46622 0
M  V30 20982 C 1970.63 5.47436 1.70591 0
M  V30 20983 N 1970.12 6.65612 1.92179 0
M  V30 20984 N 1971.92 5.34949 1.72587 0
M  V30 20985 H 1964.07 2.09009 -0.377998 0
M  V30 20986 H 1966.33 0.941963 -0.106819 0
M  V30 20987 H 1966.04 3.51147 0.197136 0
M  V30 20988 H 1965.91 3.24285 1.92663 0
M  V30 20989 H 1968.3 2.25118 1.90803 0
M  V30 20990 H 1968.38 2.55258 0.166361 0
M  V30 20991 H 1968.02 5.04303 0.603387 0
M  V30 20992 H 1967.95 4.71139 2.35236 0
M  V30 20993 H 1970.44 3.54194 1.31738 0
M  V30 20994 H 1970.76 7.43745 2.09912 0
M  V30 20995 H 1969.1 6.68681 1.89449 0
M  V30 20996 H 1972.29 4.41602 1.55258 0
M  V30 20997 H 1972.47 6.19234 1.90929 0
M  V30 20998 N 1965.87 -0.668464 1.42721 0
M  V30 20999 C 1967.12 -1.42428 1.42819 0
M  V30 21000 C 1967.44 -1.95535 0.0504025 0
M  V30 21001 O 1968.64 -2.71407 -0.0712036 0
M  V30 21002 C 1967.1 -2.57681 2.51254 0
M  V30 21003 C 1966.71 -2.11246 3.95069 0
M  V30 21004 C 1968.45 -3.35151 2.60527 0
M  V30 21005 C 1966.36 -3.23619 4.95 0
M  V30 21006 H 1965.29 -0.535089 0.531221 0
M  V30 21007 H 1967.94 -0.723067 1.68653 0
M  V30 21008 H 1966.32 -3.302 2.18595 0
M  V30 21009 H 1967.49 -1.45838 4.37113 0
M  V30 21010 H 1965.81 -1.46697 3.89704 0
M  V30 21011 H 1968.41 -4.18853 3.32364 0
M  V30 21012 H 1968.75 -3.82166 1.6509 0
M  V30 21013 H 1969.28 -2.69705 2.92411 0
M  V30 21014 H 1966.02 -2.81588 5.91936 0
M  V30 21015 H 1965.54 -3.87788 4.57581 0
M  V30 21016 H 1967.22 -3.88988 5.17008 0
M  V30 21017 N 1967.35 -1.28999 -0.905381 0
M  V30 21018 C 1968.6 -1.16014 -1.64996 0
M  V30 21019 C 1968.91 0.288766 -1.93457 0
M  V30 21020 O 1970.12 0.539847 -2.66079 0
M  V30 21021 C 1968.58 -2.02866 -2.97276 0
M  V30 21022 C 1968.18 -3.52547 -2.76432 0
M  V30 21023 C 1969.93 -1.98591 -3.75182 0
M  V30 21024 C 1967.83 -4.31522 -4.04404 0
M  V30 21025 H 1966.76 -0.430598 -0.618952 0
M  V30 21026 H 1969.42 -1.53594 -1.00404 0
M  V30 21027 H 1967.8 -1.5815 -3.63049 0
M  V30 21028 H 1968.97 -4.05277 -2.19287 0
M  V30 21029 H 1967.29 -3.58435 -2.11928 0
M  V30 21030 H 1969.88 -2.54859 -4.70054 0
M  V30 21031 H 1970.23 -0.964577 -4.04971 0
M  V30 21032 H 1970.76 -2.41321 -3.16242 0
M  V30 21033 H 1967.5 -5.3427 -3.79784 0
M  V30 21034 H 1967.02 -3.83563 -4.61129 0
M  V30 21035 H 1968.7 -4.41885 -4.72596 0
M  V30 21036 N 1968.83 1.11497 -1.11383 0
M  V30 21037 C 1970.08 1.83494 -0.863592 0
M  V30 21038 C 1970.41 1.84395 0.609259 0
M  V30 21039 O 1969.68 1.2966 1.44978 0
M  V30 21040 C 1969.97 3.30701 -1.42509 0
M  V30 21041 C 1969.82 3.38197 -2.96552 0
M  V30 21042 C 1971.14 4.26756 -1.07553 0
M  V30 21043 H 1968.26 0.666209 -0.315173 0
M  V30 21044 H 1970.9 1.30745 -1.37861 0
M  V30 21045 H 1969.05 3.75752 -0.987053 0
M  V30 21046 H 1970.72 3.01709 -3.48955 0
M  V30 21047 H 1968.96 2.78436 -3.3265 0
M  V30 21048 H 1969.64 4.41804 -3.30927 0
M  V30 21049 H 1972.11 3.89882 -1.45367 0
M  V30 21050 H 1970.99 5.28143 -1.49519 0
M  V30 21051 H 1971.25 4.42098 0.0137773 0
M  V30 21052 N 1970.31 0.904053 1.29092 0
M  V30 21053 C 1971.58 0.451521 1.90317 0
M  V30 21054 C 1971.96 -1.06911 1.82025 0
M  V30 21055 O 1971.31 -1.9129 1.24982 0
M  V30 21056 C 1971.52 0.970986 3.35221 0
M  V30 21057 C 1972.87 1.01728 4.12234 0
M  V30 21058 O 1973.89 0.918956 3.44142 0
M  V30 21059 O 1972.75 1.16562 5.33925 0
M  V30 21060 H 1969.85 0.141495 0.814806 0
M  V30 21061 H 1972.39 0.994203 1.37527 0
M  V30 21062 H 1971.17 2.01497 3.35432 0
M  V30 21063 H 1970.79 0.408567 3.95495 0
M  V30 21064 N 1971.79 -1.4279 0.666995 0
M  V30 21065 C 1973.06 -1.9526 0.11533 0
M  V30 21066 C 1973.44 -1.60776 -1.36801 0
M  V30 21067 O 1972.79 -0.899897 -2.10034 0
M  V30 21068 C 1973 -3.46967 0.376175 0
M  V30 21069 C 1974.35 -4.23619 0.28849 0
M  V30 21070 O 1975.37 -3.54853 0.30949 0
M  V30 21071 O 1974.23 -5.46041 0.223982 0
M  V30 21072 H 1971.33 -0.826998 -0.00165705 0
M  V30 21073 H 1973.87 -1.52658 0.741186 0
M  V30 21074 H 1972.64 -3.65243 1.40404 0
M  V30 21075 H 1972.27 -3.96598 -0.282074 0
M  V30 21076 N 1973.26 -0.409806 -1.52179 0
M  V30 21077 C 1974.49 0.165235 -2.06239 0
M  V30 21078 C 1974.91 1.38804 -1.2798 0
M  V30 21079 O 1974.26 1.79458 -0.331843 0
M  V30 21080 C 1974.31 0.514997 -3.57813 0
M  V30 21081 O 1974.04 -0.659248 -4.33111 0
M  V30 21082 C 1975.54 1.1437 -4.28293 0
M  V30 21083 H 1972.76 0.0200917 -0.670699 0
M  V30 21084 H 1975.3 -0.580955 -1.96074 0
M  V30 21085 H 1973.46 1.21108 -3.67983 0
M  V30 21086 H 1973.87 -0.367126 -5.23214 0
M  V30 21087 H 1975.34 1.33863 -5.35523 0
M  V30 21088 H 1975.82 2.11699 -3.84812 0
M  V30 21089 H 1976.43 0.487795 -4.22493 0
M  V30 21090 N 1974.74 1.56975 -0.14025 0
M  V30 21091 C 1975.97 2.00699 0.522938 0
M  V30 21092 C 1976.39 1.01964 1.58066 0
M  V30 21093 O 1975.75 -0.0056107 1.81299 0
M  V30 21094 C 1975.8 3.43203 1.10653 0
M  V30 21095 O 1974.9 3.47447 2.22159 0
M  V30 21096 H 1974.24 0.65143 0.12859 0
M  V30 21097 H 1976.77 2.03246 -0.234993 0
M  V30 21098 H 1976.78 3.81862 1.43686 0
M  V30 21099 H 1975.46 4.14573 0.331913 0
M  V30 21100 H 1974.03 3.20625 1.90405 0
M  V30 21101 N 1976.22 -0.133539 1.57033 0
M  V30 21102 C 1977.45 -0.858432 1.88251 0
M  V30 21103 C 1977.86 -1.74119 0.729935 0
M  V30 21104 O 1977.22 -1.8002 -0.29983 0
M  V30 21105 C 1977.27 -1.70397 3.18821 0
M  V30 21106 O 1976.99 -0.856775 4.29641 0
M  V30 21107 C 1978.49 -2.53529 3.63646 0
M  V30 21108 H 1975.71 -0.247538 0.623671 0
M  V30 21109 H 1978.26 -0.122289 2.04134 0
M  V30 21110 H 1976.41 -2.39303 3.04652 0
M  V30 21111 H 1976.83 -1.43857 5.04386 0
M  V30 21112 H 1978.3 -3.0841 4.57807 0
M  V30 21113 H 1978.78 -3.30204 2.89589 0
M  V30 21114 H 1979.38 -1.89891 3.80554 0
M  V30 21115 N 1977.7 -1.52352 -0.403298 0
M  V30 21116 C 1978.63 -1.72347 -1.51093 0
M  V30 21117 C 1979.64 -0.603886 -1.51186 0
M  V30 21118 O 1980.83 -0.879203 -1.55346 0
M  V30 21119 C 1977.93 -1.75407 -2.89975 0
M  V30 21120 C 1977.1 -3.04495 -3.14009 0
M  V30 21121 C 1976.16 -2.9929 -4.32795 0
M  V30 21122 O 1975.19 -3.73185 -4.29792 0
M  V30 21123 N 1976.39 -2.17484 -5.3822 0
M  V30 21124 H 1979.16 -2.67908 -1.34333 0
M  V30 21125 H 1976.72 -1.50662 -0.592661 0
M  V30 21126 H 1978.71 -1.6945 -3.67517 0
M  V30 21127 H 1977.28 -0.87295 -3.00164 0
M  V30 21128 H 1976.5 -3.24056 -2.24458 0
M  V30 21129 H 1977.79 -3.89879 -3.26913 0
M  V30 21130 H 1977.19 -1.56888 -5.4351 0
M  V30 21131 H 1975.74 -2.17378 -6.14484 0
M  V30 21132 N 1979.18 0.660885 -1.43074 0
M  V30 21133 C 1980.42 1.42136 -1.45495 0
M  V30 21134 C 1980.78 1.92253 -0.0751598 0
M  V30 21135 O 1980.07 1.68881 0.904973 0
M  V30 21136 C 1980.26 2.6246 -2.42589 0
M  V30 21137 C 1980.09 2.24119 -3.89873 0
M  V30 21138 C 1978.86 2.12811 -4.58301 0
M  V30 21139 C 1981.06 1.84886 -4.79918 0
M  V30 21140 N 1979.04 1.6772 -5.90545 0
M  V30 21141 C 1980.41 1.50819 -6.01376 0
M  V30 21142 C 1982.47 1.72001 -4.67247 0
M  V30 21143 C 1981.17 1.05159 -7.11572 0
M  V30 21144 C 1983.2 1.27746 -5.77438 0
M  V30 21145 C 1982.56 0.946114 -6.98017 0
M  V30 21146 H 1978.66 0.516063 -0.58754 0
M  V30 21147 H 1981.24 0.761285 -1.792 0
M  V30 21148 H 1979.41 3.26138 -2.10924 0
M  V30 21149 H 1981.15 3.29124 -2.35499 0
M  V30 21150 H 1977.9 2.32325 -4.12701 0
M  V30 21151 H 1978.32 1.47558 -6.60724 0
M  V30 21152 H 1982.97 1.9626 -3.74489 0
M  V30 21153 H 1980.68 0.796478 -8.04165 0
M  V30 21154 H 1984.27 1.18277 -5.69651 0
M  V30 21155 H 1983.15 0.608883 -7.81833 0
M  V30 21156 N 1980.65 1.29477 0.898527 0
M  V30 21157 C 1981.88 1.20529 1.68783 0
M  V30 21158 C 1982.3 -0.230536 1.86682 0
M  V30 21159 O 1981.66 -1.1664 1.38798 0
M  V30 21160 C 1981.71 1.92501 3.04919 0
M  V30 21161 O 1980.81 1.24286 3.93226 0
M  V30 21162 H 1980.16 0.417586 0.516254 0
M  V30 21163 H 1982.69 1.71066 1.1224 0
M  V30 21164 H 1982.7 2.01001 3.55053 0
M  V30 21165 H 1981.37 2.96934 2.9121 0
M  V30 21166 H 1979.95 1.24052 3.51661 0
M  V30 21167 N 1982.13 -1.10905 1.11972 0
M  V30 21168 C 1983.08 -2.17107 0.783135 0
M  V30 21169 C 1984.05 -1.6424 -0.24791 0
M  V30 21170 O 1985.23 -1.90399 -0.123577 0
M  V30 21171 C 1982.37 -3.44274 0.238574 0
M  V30 21172 C 1981.49 -4.11119 1.32685 0
M  V30 21173 C 1980.62 -5.25989 0.742236 0
M  V30 21174 C 1979.66 -5.84728 1.80997 0
M  V30 21175 N 1978.8 -6.90983 1.24444 0
M  V30 21176 H 1983.64 -2.45243 1.69292 0
M  V30 21177 H 1981.18 -1.20386 0.845323 0
M  V30 21178 H 1983.13 -4.17091 -0.0951679 0
M  V30 21179 H 1981.76 -3.16505 -0.634384 0
M  V30 21180 H 1980.82 -3.3632 1.77745 0
M  V30 21181 H 1982.13 -4.50824 2.13445 0
M  V30 21182 H 1981.28 -6.05638 0.358877 0
M  V30 21183 H 1980.02 -4.87604 -0.096622 0
M  V30 21184 H 1979.03 -5.03753 2.20258 0
M  V30 21185 H 1980.25 -6.25178 2.65196 0
M  V30 21186 H 1978.2 -6.54607 0.427323 0
M  V30 21187 H 1978.11 -7.29374 1.98869 0
M  V30 21188 H 1979.38 -7.74424 0.888154 0
M  V30 21189 N 1983.61 -0.910886 -1.2861 0
M  V30 21190 C 1984.56 -0.387197 -2.29355 0
M  V30 21191 C 1985.55 0.519603 -1.61234 0
M  V30 21192 O 1986.76 0.401165 -1.75473 0
M  V30 21193 H 1983.13 -0.106607 -0.744405 0
M  V30 21194 H 1985.1 -1.25002 -2.70956 0
M  V30 21195 C 1983.85 0.360115 -3.4583 0
M  V30 21196 H 1983.18 -0.328438 -3.98449 0
M  V30 21197 H 1984.62 0.69123 -4.18328 0
M  V30 21198 C 1983.08 1.56695 -2.98242 0
M  V30 21199 O 1983.61 2.66609 -3.00471 0
M  V30 21200 N 1981.81 1.41295 -2.53937 0
M  V30 21201 H 1981.36 0.51873 -2.52323 0
M  V30 21202 H 1981.32 2.22172 -2.22457 0
M  V30 21203 N 1985.09 1.42434 -0.674558 0
M  V30 21204 C 1986.02 2.28136 0.0540793 0
M  V30 21205 C 1987 1.41051 0.808915 0
M  V30 21206 O 1988.18 1.70489 0.80409 0
M  V30 21207 C 1985.31 3.20893 1.08375 0
M  V30 21208 C 1984.36 4.24382 0.424518 0
M  V30 21209 S 1985.19 5.2922 -0.817708 0
M  V30 21210 C 1986.35 6.25545 0.210891 0
M  V30 21211 H 1986.58 2.89586 -0.672854 0
M  V30 21212 H 1984.11 1.4726 -0.464094 0
M  V30 21213 H 1986.07 3.74873 1.67273 0
M  V30 21214 H 1984.73 2.5858 1.78312 0
M  V30 21215 H 1983.92 4.8947 1.20145 0
M  V30 21216 H 1983.53 3.7389 -0.0908715 0
M  V30 21217 H 1985.82 6.68986 1.07069 0
M  V30 21218 H 1986.76 7.06938 -0.405516 0
M  V30 21219 H 1987.17 5.61753 0.55626 0
M  V30 21220 N 1986.57 0.417871 1.51959 0
M  V30 21221 C 1987.51 -0.403305 2.27249 0
M  V30 21222 C 1988.48 -1.0336 1.30023 0
M  V30 21223 O 1989.67 -1.05621 1.58899 0
M  V30 21224 C 1986.81 -1.50928 3.10346 0
M  V30 21225 C 1985.92 -0.899043 4.22541 0
M  V30 21226 C 1985.06 -1.97844 4.92982 0
M  V30 21227 C 1984.1 -1.3456 5.97126 0
M  V30 21228 N 1983.23 -2.36552 6.6105 0
M  V30 21229 H 1988.07 0.245143 2.9699 0
M  V30 21230 H 1985.61 0.132733 1.465 0
M  V30 21231 H 1987.57 -2.16157 3.56836 0
M  V30 21232 H 1986.2 -2.12763 2.42759 0
M  V30 21233 H 1985.25 -0.135561 3.80158 0
M  V30 21234 H 1986.56 -0.396845 4.97219 0
M  V30 21235 H 1985.72 -2.7078 5.42921 0
M  V30 21236 H 1984.45 -2.51432 4.17892 0
M  V30 21237 H 1983.46 -0.601616 5.46499 0
M  V30 21238 H 1984.68 -0.817308 6.74164 0
M  V30 21239 H 1982.63 -2.89256 5.88784 0
M  V30 21240 H 1982.55 -1.91169 7.3143 0
M  V30 21241 H 1983.82 -3.09031 7.15626 0
M  V30 21242 N 1988.04 -1.56898 0.148573 0
M  V30 21243 C 1988.99 -2.13418 -0.802306 0
M  V30 21244 C 1989.98 -1.06241 -1.20837 0
M  V30 21245 O 1991.17 -1.32415 -1.17453 0
M  V30 21246 C 1988.3 -2.76057 -2.04076 0
M  V30 21247 C 1987.39 -3.90359 -1.65772 0
M  V30 21248 N 1987.78 -4.96156 -0.982988 0
M  V30 21249 C 1986.07 -4.01096 -1.95033 0
M  V30 21250 C 1986.78 -5.76203 -0.797825 0
M  V30 21251 N 1985.75 -5.27024 -1.33218 0
M  V30 21252 H 1989.55 -2.92586 -0.277579 0
M  V30 21253 H 1987.07 -1.62314 -0.0529132 0
M  V30 21254 H 1989.06 -3.14911 -2.73197 0
M  V30 21255 H 1987.72 -1.98362 -2.57065 0
M  V30 21256 H 1988.74 -5.13886 -0.643572 0
M  V30 21257 H 1985.41 -3.34479 -2.4986 0
M  V30 21258 H 1986.8 -6.71374 -0.265921 0
M  V30 21259 N 1989.52 0.125209 -1.57102 0
M  V30 21260 C 1990.45 1.15521 -2.02922 0
M  V30 21261 C 1991.43 1.43549 -0.912559 0
M  V30 21262 O 1992.62 1.54097 -1.18185 0
M  V30 21263 C 1989.75 2.48297 -2.42829 0
M  V30 21264 C 1988.7 2.34744 -3.57881 0
M  V30 21265 C 1988.03 3.72427 -3.83669 0
M  V30 21266 C 1989.33 1.81317 -4.89818 0
M  V30 21267 H 1991.02 0.774129 -2.89219 0
M  V30 21268 H 1988.57 0.370935 -1.3914 0
M  V30 21269 H 1990.52 3.20597 -2.73487 0
M  V30 21270 H 1989.25 2.88283 -1.53495 0
M  V30 21271 H 1987.9 1.64893 -3.27423 0
M  V30 21272 H 1987.55 4.09887 -2.9155 0
M  V30 21273 H 1987.25 3.64215 -4.61109 0
M  V30 21274 H 1988.78 4.46242 -4.16773 0
M  V30 21275 H 1990.19 2.43429 -5.19052 0
M  V30 21276 H 1988.59 1.83941 -5.71214 0
M  V30 21277 H 1989.66 0.770291 -4.78743 0
M  V30 21278 N 1991 1.52564 0.395213 0
M  V30 21279 C 1992.23 1.71173 1.16222 0
M  V30 21280 C 1992.64 0.427335 1.839 0
M  V30 21281 O 1992 -0.597726 1.72434 0
M  V30 21282 C 1992.05 2.85698 2.21492 0
M  V30 21283 O 1991.77 4.09165 1.56574 0
M  V30 21284 C 1993.27 3.15934 3.10967 0
M  V30 21285 H 1990.49 0.573277 0.348705 0
M  V30 21286 H 1993.04 1.99186 0.463177 0
M  V30 21287 H 1991.19 2.60165 2.87042 0
M  V30 21288 H 1991.61 4.73086 2.26473 0
M  V30 21289 H 1993.08 3.99548 3.80874 0
M  V30 21290 H 1993.56 2.30059 3.74125 0
M  V30 21291 H 1994.16 3.43284 2.5107 0
M  V30 21292 N 1992.48 -0.653289 1.43422 0
M  V30 21293 C 1993.89 -1.23446 1.40064 0
M  V30 21294 C 1994.24 -1.95921 0.104677 0
M  V30 21295 O 1993.37 -2.01233 -0.79588 0
M  V30 21296 C 1993.96 -2.24523 2.53722 0
M  V30 21297 C 1992.52 -2.78117 2.53629 0
M  V30 21298 C 1991.67 -1.52759 2.3143 0
M  V30 21299 H 1994.62 -0.445312 1.52324 0
M  V30 21300 H 1994.64 -3.06696 2.25207 0
M  V30 21301 H 1994.15 -1.71746 3.4803 0
M  V30 21302 H 1992.25 -3.34957 1.632 0
M  V30 21303 H 1992.36 -3.25667 3.51394 0
M  V30 21304 H 1990.73 -1.80104 1.80096 0
M  V30 21305 H 1991.51 -1.01917 3.27823 0
M  V30 21306 N 1993.96 -1.29952 -0.891648 0
M  V30 21307 C 1995.18 -1.21422 -1.68141 0
M  V30 21308 C 1995.61 0.220633 -1.86802 0
M  V30 21309 O 1994.96 1.15902 -1.39414 0
M  V30 21310 C 1995.01 -1.94116 -3.03894 0
M  V30 21311 O 1994.12 -1.26369 -3.92562 0
M  V30 21312 H 1993.46 -0.420318 -0.514032 0
M  V30 21313 H 1995.99 -1.71658 -1.11331 0
M  V30 21314 H 1996 -2.02881 -3.53982 0
M  V30 21315 H 1994.67 -2.98474 -2.89631 0
M  V30 21316 H 1993.25 -1.25915 -3.50998 0
M  V30 21317 N 1995.44 1.1031 -1.12559 0
M  V30 21318 C 1996.66 1.86078 -0.90458 0
M  V30 21319 C 1997.08 1.80726 0.546224 0
M  V30 21320 O 1996.44 1.1969 1.3777 0
M  V30 21321 C 1996.49 3.34425 -1.37268 0
M  V30 21322 O 1996.21 3.39691 -2.76661 0
M  V30 21323 C 1997.71 4.27063 -1.18879 0
M  V30 21324 H 1994.93 0.588055 -0.32316 0
M  V30 21325 H 1997.47 1.39441 -1.49588 0
M  V30 21326 H 1995.63 3.78523 -0.824578 0
M  V30 21327 H 1996.04 4.3215 -2.97232 0
M  V30 21328 H 1997.52 5.29345 -1.56518 0
M  V30 21329 H 1997.99 4.39009 -0.129502 0
M  V30 21330 H 1998.6 3.88771 -1.72445 0
M  V30 21331 N 1996.91 0.917694 1.28125 0
M  V30 21332 C 1997.84 0.426179 2.29578 0
M  V30 21333 C 1998.82 -0.508289 1.62328 0
M  V30 21334 O 2000.01 -0.415181 1.8971 0
M  V30 21335 C 1997.14 -0.331007 3.45719 0
M  V30 21336 C 1996.09 0.51469 4.24894 0
M  V30 21337 C 1995.42 -0.371069 5.33411 0
M  V30 21338 C 1996.72 1.774 4.9125 0
M  V30 21339 H 1998.41 1.27403 2.7094 0
M  V30 21340 H 1995.96 0.614065 1.30251 0
M  V30 21341 H 1997.91 -0.68573 4.15783 0
M  V30 21342 H 1996.64 -1.2128 3.03247 0
M  V30 21343 H 1995.3 0.851986 3.56562 0
M  V30 21344 H 1994.94 -1.25152 4.87182 0
M  V30 21345 H 1994.64 0.19121 5.87289 0
M  V30 21346 H 1996.17 -0.721587 6.06321 0
M  V30 21347 H 1997.58 1.48795 5.53654 0
M  V30 21348 H 1995.98 2.27899 5.55141 0
M  V30 21349 H 1997.05 2.49947 4.15517 0
M  V30 21350 N 1998.39 -1.42074 0.682102 0
M  V30 21351 C 1999.62 -2.05769 0.216029 0
M  V30 21352 C 2000.03 -1.51278 -1.12962 0
M  V30 21353 O 1999.39 -0.655521 -1.70321 0
M  V30 21354 C 1999.44 -3.61187 0.150351 0
M  V30 21355 O 1999.16 -4.13659 1.44283 0
M  V30 21356 C 2000.66 -4.42007 -0.338339 0
M  V30 21357 H 1997.88 -0.662997 0.103326 0
M  V30 21358 H 2000.43 -1.82084 0.930895 0
M  V30 21359 H 1998.58 -3.83958 -0.515249 0
M  V30 21360 H 1999 -5.07592 1.32101 0
M  V30 21361 H 2000.47 -5.50994 -0.33319 0
M  V30 21362 H 2000.95 -4.17125 -1.37489 0
M  V30 21363 H 2001.55 -4.2427 0.295782 0
M  V30 21364 N 1999.87 -0.425924 -1.51735 0
M  V30 21365 C 2000.8 0.426878 -2.2519 0
M  V30 21366 C 2001.81 0.996019 -1.28776 0
M  V30 21367 O 2003 0.892101 -1.54609 0
M  V30 21368 C 2000.1 1.60792 -2.98327 0
M  V30 21369 C 1999.28 1.15969 -4.21746 0
M  V30 21370 C 1998.34 2.20954 -4.77562 0
M  V30 21371 O 1997.36 1.80855 -5.39704 0
M  V30 21372 N 1998.56 3.53313 -4.60597 0
M  V30 21373 H 2001.33 -0.20262 -2.99014 0
M  V30 21374 H 1998.89 -0.254194 -1.59892 0
M  V30 21375 H 2000.88 2.30624 -3.32558 0
M  V30 21376 H 1999.45 2.14299 -2.27585 0
M  V30 21377 H 1998.67 0.28885 -3.9314 0
M  V30 21378 H 1999.96 0.837426 -5.01861 0
M  V30 21379 H 1999.36 3.88631 -4.11075 0
M  V30 21380 H 1997.91 4.19073 -4.9922 0
M  V30 21381 N 2001.35 1.56817 -0.156891 0
M  V30 21382 C 2002.6 1.95614 0.491749 0
M  V30 21383 C 2002.91 1.04481 1.65357 0
M  V30 21384 O 2004.12 1.32898 2.36749 0
M  V30 21385 C 2002.57 3.47777 0.926222 0
M  V30 21386 C 2002.18 4.47511 -0.209209 0
M  V30 21387 C 2003.92 3.95421 1.54409 0
M  V30 21388 C 2001.83 5.90896 0.244087 0
M  V30 21389 H 2000.76 0.73032 0.187481 0
M  V30 21390 H 2003.41 1.81886 -0.242819 0
M  V30 21391 H 2001.79 3.56872 1.71634 0
M  V30 21392 H 2002.97 4.5012 -0.986326 0
M  V30 21393 H 2001.28 4.09842 -0.736118 0
M  V30 21394 H 2003.88 4.99992 1.89504 0
M  V30 21395 H 2004.22 3.37535 2.43672 0
M  V30 21396 H 2004.76 3.89284 0.818685 0
M  V30 21397 H 2001.49 6.52624 -0.613406 0
M  V30 21398 H 2001.01 5.91626 0.986869 0
M  V30 21399 H 2002.69 6.4328 0.6928 0
M  V30 21400 N 2002.83 -0.116876 1.57166 0
M  V30 21401 C 2004.1 -0.854715 1.75937 0
M  V30 21402 C 2004.48 -1.97969 0.732908 0
M  V30 21403 O 2003.83 -2.27207 -0.242738 0
M  V30 21404 C 2004.04 -1.36944 3.2101 0
M  V30 21405 C 2005.39 -1.82093 3.83572 0
M  V30 21406 O 2006.41 -1.46618 3.24625 0
M  V30 21407 O 2005.27 -2.47614 4.87186 0
M  V30 21408 H 2002.37 -0.40605 0.720453 0
M  V30 21409 H 2004.91 -0.100451 1.69402 0
M  V30 21410 H 2003.68 -0.56241 3.87237 0
M  V30 21411 H 2003.31 -2.18635 3.32091 0
M  V30 21412 N 2004.3 -1.52772 -0.387116 0
M  V30 21413 C 2005.53 -1.71538 -1.15145 0
M  V30 21414 C 2005.94 -0.434325 -1.84147 0
M  V30 21415 O 2005.28 0.60113 -1.73586 0
M  V30 21416 C 2005.35 -2.81074 -2.24137 0
M  V30 21417 C 2005.01 -4.2213 -1.75086 0
M  V30 21418 C 2006.01 -5.05224 -1.22658 0
M  V30 21419 C 2003.69 -4.68458 -1.81252 0
M  V30 21420 C 2005.69 -6.32726 -0.770461 0
M  V30 21421 C 2003.37 -5.95945 -1.35251 0
M  V30 21422 C 2004.37 -6.77909 -0.832359 0
M  V30 21423 O 2004.06 -8.03006 -0.379074 0
M  V30 21424 H 2003.79 -0.577655 -0.351128 0
M  V30 21425 H 2006.35 -2.00215 -0.458605 0
M  V30 21426 H 2004.58 -2.47822 -2.96852 0
M  V30 21427 H 2006.26 -2.88225 -2.85799 0
M  V30 21428 H 2007.03 -4.70614 -1.1725 0
M  V30 21429 H 2002.91 -4.04748 -2.2068 0
M  V30 21430 H 2006.45 -6.96651 -0.363786 0
M  V30 21431 H 2002.35 -6.30058 -1.40345 0
M  V30 21432 H 2003.12 -8.16969 -0.500379 0
M  V30 21433 N 2005.78 0.645673 -1.43767 0
M  V30 21434 C 2006.73 1.7795 -1.49788 0
M  V30 21435 C 2007.72 1.65292 -0.370806 0
M  V30 21436 O 2008.93 1.71547 -0.545129 0
M  V30 21437 H 2005.3 0.587242 -0.469735 0
M  V30 21438 H 2007.28 1.69992 -2.45245 0
M  V30 21439 C 2006.02 3.16238 -1.44529 0
M  V30 21440 H 2005.35 3.2662 -2.30564 0
M  V30 21441 H 2006.79 3.95509 -1.52803 0
M  V30 21442 C 2005.25 3.36501 -0.163941 0
M  V30 21443 O 2005.78 3.94217 0.771735 0
M  V30 21444 N 2003.98 2.90511 -0.0717151 0
M  V30 21445 H 2003.53 2.43727 -0.833957 0
M  V30 21446 H 2003.49 3.04445 0.784901 0
M  V30 21447 N 2007.26 1.30423 0.884744 0
M  V30 21448 C 2008.17 1.18747 2.02327 0
M  V30 21449 C 2009.19 0.107354 1.73669 0
M  V30 21450 O 2010.36 0.322332 1.98804 0
M  V30 21451 C 2007.43 0.880361 3.35336 0
M  V30 21452 C 2006.49 2.04587 3.77416 0
M  V30 21453 C 2005.72 1.75332 5.04078 0
M  V30 21454 O 2005.94 0.68135 5.66316 0
M  V30 21455 O 2004.88 2.60579 5.4257 0
M  V30 21456 H 2008.7 2.14391 2.15105 0
M  V30 21457 H 2006.29 1.10019 1.01076 0
M  V30 21458 H 2008.17 0.7243 4.15129 0
M  V30 21459 H 2006.85 -0.0461673 3.23667 0
M  V30 21460 H 2005.75 2.25726 2.98326 0
M  V30 21461 H 2007.09 2.95413 3.9369 0
M  V30 21462 N 2008.74 -1.09711 1.13142 0
M  V30 21463 C 2009.68 -2.16265 0.806118 0
M  V30 21464 C 2010.65 -1.64493 -0.230476 0
M  V30 21465 O 2011.84 -1.9052 -0.103375 0
M  V30 21466 C 2008.98 -3.44002 0.275075 0
M  V30 21467 C 2008.09 -4.09688 1.37038 0
M  V30 21468 C 2007.23 -5.25172 0.797983 0
M  V30 21469 C 2006.27 -5.82775 1.87189 0
M  V30 21470 N 2005.4 -6.89625 1.31766 0
M  V30 21471 H 2010.24 -2.43434 1.71883 0
M  V30 21472 H 2007.78 -1.19482 0.858044 0
M  V30 21473 H 2009.74 -4.17169 -0.0509244 0
M  V30 21474 H 2008.37 -3.1716 -0.600779 0
M  V30 21475 H 2007.42 -3.34415 1.81302 0
M  V30 21476 H 2008.73 -4.48535 2.18215 0
M  V30 21477 H 2007.89 -6.05223 0.423093 0
M  V30 21478 H 2006.63 -4.87679 -0.0448997 0
M  V30 21479 H 2005.63 -5.01388 2.25588 0
M  V30 21480 H 2006.86 -6.2233 2.71812 0
M  V30 21481 H 2004.8 -6.54117 0.496729 0
M  V30 21482 H 2004.72 -7.27224 2.06594 0
M  V30 21483 H 2005.99 -7.73438 0.970242 0
M  V30 21484 N 2010.22 -0.924476 -1.27637 0
M  V30 21485 C 2011.13 -0.426579 -2.30689 0
M  V30 21486 C 2012.14 0.491134 -1.66925 0
M  V30 21487 O 2013.32 0.374724 -1.97883 0
M  V30 21488 C 2010.38 0.31558 -3.45261 0
M  V30 21489 C 2009.44 -0.636655 -4.24553 0
M  V30 21490 C 2008.68 0.0701807 -5.33654 0
M  V30 21491 O 2008.9 1.29011 -5.55619 0
M  V30 21492 O 2007.83 -0.599998 -5.98902 0
M  V30 21493 H 2011.66 -1.28216 -2.75308 0
M  V30 21494 H 2009.25 -0.689699 -1.32527 0
M  V30 21495 H 2011.13 0.734315 -4.14953 0
M  V30 21496 H 2009.8 1.14682 -3.02704 0
M  V30 21497 H 2008.71 -1.105 -3.57408 0
M  V30 21498 H 2010.04 -1.43502 -4.70816 0
M  V30 21499 N 2011.69 1.41711 -0.689627 0
M  V30 21500 C 2012.64 2.30791 -0.020555 0
M  V30 21501 C 2013.61 1.46782 0.777447 0
M  V30 21502 O 2014.8 1.75582 0.746688 0
M  V30 21503 C 2011.94 3.32772 0.914149 0
M  V30 21504 C 2011.05 4.31864 0.108394 0
M  V30 21505 C 2010.18 5.20916 1.0402 0
M  V30 21506 C 2009.22 6.11679 0.227 0
M  V30 21507 N 2008.36 6.93233 1.11229 0
M  V30 21508 H 2013.2 2.87448 -0.78597 0
M  V30 21509 H 2010.74 1.41576 -0.399313 0
M  V30 21510 H 2012.7 3.90442 1.47005 0
M  V30 21511 H 2011.33 2.77679 1.64603 0
M  V30 21512 H 2010.38 3.7619 -0.564348 0
M  V30 21513 H 2011.69 4.96058 -0.522312 0
M  V30 21514 H 2010.84 5.83391 1.66553 0
M  V30 21515 H 2009.58 4.56934 1.70477 0
M  V30 21516 H 2008.59 5.48258 -0.411449 0
M  V30 21517 H 2009.81 6.77714 -0.433691 0
M  V30 21518 H 2007.76 6.31866 1.76299 0
M  V30 21519 H 2007.68 7.5409 0.537017 0
M  V30 21520 H 2008.94 7.60182 1.72463 0
M  V30 21521 N 2013.17 0.433965 1.51507 0
M  V30 21522 C 2014.42 -0.133365 2.01659 0
M  V30 21523 C 2014.74 -1.43506 1.32026 0
M  V30 21524 O 2014.01 -1.90572 0.453774 0
M  V30 21525 H 2012.59 -0.0522753 0.745169 0
M  V30 21526 H 2015.25 0.575899 1.86197 0
M  V30 21527 H 2014.35 -0.311697 3.1054 0
M  V30 21528 N 2014.65 -1.56732 0.165206 0
M  V30 21529 C 2015.61 -2.1646 -0.753498 0
M  V30 21530 C 2016.61 -1.11106 -1.16241 0
M  V30 21531 O 2017.8 -1.36652 -1.08037 0
M  V30 21532 C 2014.94 -2.7425 -2.02483 0
M  V30 21533 H 2016.13 -2.98989 -0.233629 0
M  V30 21534 H 2013.68 -1.56072 -0.0843317 0
M  V30 21535 H 2014.42 -1.95439 -2.58794 0
M  V30 21536 H 2014.2 -3.51345 -1.74065 0
M  V30 21537 H 2015.69 -3.20209 -2.6806 0
M  V30 21538 N 2016.13 0.10854 -1.57226 0
M  V30 21539 C 2017.38 0.813095 -1.84585 0
M  V30 21540 C 2017.69 1.80548 -0.752453 0
M  V30 21541 O 2018.9 2.55697 -0.912763 0
M  V30 21542 C 2017.35 1.4968 -3.27298 0
M  V30 21543 C 2016.96 0.544871 -4.44674 0
M  V30 21544 C 2018.7 2.18587 -3.63895 0
M  V30 21545 C 2016.61 1.2324 -5.78417 0
M  V30 21546 H 2015.54 0.3074 -0.688492 0
M  V30 21547 H 2018.19 0.065908 -1.83382 0
M  V30 21548 H 2016.57 2.29098 -3.23002 0
M  V30 21549 H 2017.75 -0.216842 -4.6029 0
M  V30 21550 H 2016.06 -0.0377882 -4.16383 0
M  V30 21551 H 2018.66 2.70735 -4.61093 0
M  V30 21552 H 2019 2.96868 -2.91848 0
M  V30 21553 H 2019.54 1.46046 -3.70021 0
M  V30 21554 H 2016.28 0.490673 -6.53661 0
M  V30 21555 H 2015.8 1.96587 -5.66669 0
M  V30 21556 H 2017.47 1.76267 -6.22526 0
M  V30 21557 N 2017.61 1.52975 0.379009 0
M  V30 21558 C 2018.83 1.72396 1.144 0
M  V30 21559 C 2019.25 0.446816 1.83437 0
M  V30 21560 O 2018.61 -0.579403 1.73058 0
M  V30 21561 C 2018.66 2.88032 2.18449 0
M  V30 21562 O 2018.38 4.10803 1.52225 0
M  V30 21563 C 2019.88 3.19215 3.07599 0
M  V30 21564 H 2017.1 0.576943 0.342605 0
M  V30 21565 H 2019.64 1.99666 0.442025 0
M  V30 21566 H 2017.8 2.63195 2.84266 0
M  V30 21567 H 2018.21 4.75461 2.21443 0
M  V30 21568 H 2019.69 4.03565 3.76615 0
M  V30 21569 H 2020.16 2.34014 3.71664 0
M  V30 21570 H 2020.77 3.45928 2.47415 0
M  V30 21571 N 2019.08 -0.63804 1.44107 0
M  V30 21572 C 2020.02 -1.76333 1.46421 0
M  V30 21573 C 2021.03 -1.58805 0.358429 0
M  V30 21574 O 2022.22 -1.67246 0.623768 0
M  V30 21575 C 2019.32 -3.13967 1.27586 0
M  V30 21576 C 2018.49 -3.58016 2.51283 0
M  V30 21577 C 2017.55 -4.74503 2.27449 0
M  V30 21578 O 2016.58 -4.83167 3.00895 0
M  V30 21579 N 2017.78 -5.6574 1.3007 0
M  V30 21580 H 2020.54 -1.74822 2.43429 0
M  V30 21581 H 2018.1 -0.822384 1.39458 0
M  V30 21582 H 2020.1 -3.89605 1.09499 0
M  V30 21583 H 2018.67 -3.10162 0.389684 0
M  V30 21584 H 2017.89 -2.7266 2.84693 0
M  V30 21585 H 2019.17 -3.84197 3.33572 0
M  V30 21586 H 2018.57 -5.61427 0.693968 0
M  V30 21587 H 2017.13 -6.41037 1.17964 0
M  V30 21588 N 2020.56 -1.3089 -0.877815 0
M  V30 21589 C 2021.79 -1.23199 -1.66844 0
M  V30 21590 C 2022.21 0.200808 -1.87025 0
M  V30 21591 O 2021.57 1.14417 -1.40636 0
M  V30 21592 C 2021.62 -1.97328 -3.01818 0
M  V30 21593 O 2020.72 -1.30526 -3.91199 0
M  V30 21594 H 2020.06 -0.425746 -0.509545 0
M  V30 21595 H 2022.59 -1.7283 -1.09504 0
M  V30 21596 H 2022.6 -2.06624 -3.51811 0
M  V30 21597 H 2021.28 -3.01529 -2.86449 0
M  V30 21598 H 2019.86 -1.29631 -3.49643 0
M  V30 21599 N 2022.04 1.0911 -1.13723 0
M  V30 21600 C 2023.45 1.62841 -0.913213 0
M  V30 21601 C 2023.8 1.88346 0.549566 0
M  V30 21602 O 2022.93 1.63558 1.41696 0
M  V30 21603 C 2023.52 2.95835 -1.65127 0
M  V30 21604 C 2022.08 3.46379 -1.47304 0
M  V30 21605 C 2021.23 2.20738 -1.6784 0
M  V30 21606 H 2024.18 0.924297 -1.29006 0
M  V30 21607 H 2024.2 3.63942 -1.11026 0
M  V30 21608 H 2023.71 2.77241 -2.71587 0
M  V30 21609 H 2021.81 3.70092 -0.431605 0
M  V30 21610 H 2021.93 4.23603 -2.23825 0
M  V30 21611 H 2020.29 2.29554 -1.10349 0
M  V30 21612 H 2021.07 2.04659 -2.75626 0
M  V30 21613 N 2023.52 0.931232 1.27145 0
M  V30 21614 C 2024.45 0.450505 2.29113 0
M  V30 21615 C 2025.43 -0.491043 1.62858 0
M  V30 21616 O 2026.61 -0.395036 1.9014 0
M  V30 21617 C 2023.74 -0.29432 3.46051 0
M  V30 21618 C 2022.7 0.559727 4.24324 0
M  V30 21619 C 2022.02 -0.314473 5.33774 0
M  V30 21620 C 2023.32 1.826 4.89341 0
M  V30 21621 H 2025.02 1.3027 2.69574 0
M  V30 21622 H 2022.56 0.627845 1.29592 0
M  V30 21623 H 2024.52 -0.641592 4.16487 0
M  V30 21624 H 2023.24 -1.18057 3.04516 0
M  V30 21625 H 2021.9 0.889756 3.55639 0
M  V30 21626 H 2021.55 -1.19978 4.88482 0
M  V30 21627 H 2021.25 0.253489 5.87053 0
M  V30 21628 H 2022.77 -0.657238 6.07053 0
M  V30 21629 H 2024.19 1.54659 5.52045 0
M  V30 21630 H 2022.58 2.33775 5.52693 0
M  V30 21631 H 2023.65 2.5434 4.12842 0
M  V30 21632 N 2025 -1.41343 0.697132 0
M  V30 21633 C 2026.22 -2.06049 0.236356 0
M  V30 21634 C 2026.65 -1.52124 -1.10634 0
M  V30 21635 O 2026.01 -0.648852 -1.69291 0
M  V30 21636 C 2026.05 -3.6001 0.206185 0
M  V30 21637 O 2025.16 -4.04197 -0.818466 0
M  V30 21638 H 2024.5 -0.65395 0.115091 0
M  V30 21639 H 2027.03 -1.8108 0.952431 0
M  V30 21640 H 2027.04 -4.07983 0.0375737 0
M  V30 21641 H 2025.71 -3.98628 1.18612 0
M  V30 21642 H 2024.29 -3.67725 -0.619082 0
M  V30 21643 N 2026.48 -0.441993 -1.51275 0
M  V30 21644 C 2027.75 0.183076 -1.94741 0
M  V30 21645 C 2028.13 1.59668 -1.38092 0
M  V30 21646 O 2027.48 2.21279 -0.569882 0
M  V30 21647 C 2027.69 0.156071 -3.48651 0
M  V30 21648 C 2029.04 0.359351 -4.23077 0
M  V30 21649 O 2030.06 0.233977 -3.55431 0
M  V30 21650 O 2028.92 0.609358 -5.43092 0
M  V30 21651 H 2026.02 0.127455 -0.817119 0
M  V30 21652 H 2028.56 -0.500307 -1.62157 0
M  V30 21653 H 2027.33 -0.832021 -3.82352 0
M  V30 21654 H 2026.96 0.882165 -3.8769 0
M  V30 21655 N 2027.95 1.56642 -0.173515 0
M  V30 21656 C 2029.19 1.98845 0.473303 0
M  V30 21657 C 2029.56 1.05721 1.60272 0
M  V30 21658 O 2030.76 1.37073 2.31224 0
M  V30 21659 C 2029.03 3.44767 0.94185 0
M  V30 21660 S 2030.59 4.08998 1.58954 0
M  V30 21661 H 2027.41 0.694527 0.152161 0
M  V30 21662 H 2030.01 1.93606 -0.271494 0
M  V30 21663 H 2028.71 4.10254 0.109473 0
M  V30 21664 H 2028.24 3.53776 1.72063 0
M  V30 21665 H 2030.26 4.04227 2.87775 0
M  V30 21666 N 2029.43 -0.1002 1.57281 0
M  V30 21667 C 2030.36 -1.12278 2.04734 0
M  V30 21668 C 2031.34 -1.42079 0.935281 0
M  V30 21669 O 2032.53 -1.52197 1.20622 0
M  V30 21670 C 2029.66 -2.44402 2.46748 0
M  V30 21671 C 2028.61 -2.29021 3.61571 0
M  V30 21672 C 2027.94 -3.66276 3.89545 0
M  V30 21673 C 2029.24 -1.73501 4.9264 0
M  V30 21674 H 2030.93 -0.728019 2.90414 0
M  V30 21675 H 2028.48 -0.348753 1.39713 0
M  V30 21676 H 2030.43 -3.16206 2.78553 0
M  V30 21677 H 2029.15 -2.85804 1.58061 0
M  V30 21678 H 2027.81 -1.59664 3.30005 0
M  V30 21679 H 2027.46 -4.05197 2.98034 0
M  V30 21680 H 2027.16 -3.56833 4.66845 0
M  V30 21681 H 2028.69 -4.39555 4.2382 0
M  V30 21682 H 2030.1 -2.35141 5.22859 0
M  V30 21683 H 2028.5 -1.7483 5.74068 0
M  V30 21684 H 2029.57 -0.69403 4.79908 0
M  V30 21685 N 2030.91 -1.53174 -0.370891 0
M  V30 21686 C 2032.14 -1.73 -1.13484 0
M  V30 21687 C 2032.55 -0.456538 -1.83197 0
M  V30 21688 O 2031.91 0.570218 -1.73363 0
M  V30 21689 C 2031.96 -2.89186 -2.16919 0
M  V30 21690 O 2031.68 -4.11604 -1.50045 0
M  V30 21691 C 2033.18 -3.20841 -3.05901 0
M  V30 21692 H 2030.4 -0.578752 -0.33954 0
M  V30 21693 H 2032.95 -1.99897 -0.43143 0
M  V30 21694 H 2031.1 -2.64699 -2.82866 0
M  V30 21695 H 2031.52 -4.76629 -2.18918 0
M  V30 21696 H 2032.99 -4.05557 -3.7447 0
M  V30 21697 H 2033.47 -2.35982 -3.70418 0
M  V30 21698 H 2034.07 -3.47235 -2.45577 0
M  V30 21699 N 2032.39 0.630389 -1.44443 0
M  V30 21700 C 2033.8 0.948649 -1.28346 0
M  V30 21701 C 2034 2.00298 -0.219776 0
M  V30 21702 O 2033.06 2.49406 0.394082 0
M  V30 21703 C 2034.37 1.41121 -2.65528 0
M  V30 21704 C 2035.92 1.52665 -2.73244 0
M  V30 21705 C 2036.4 2.02305 -4.10897 0
M  V30 21706 N 2037.89 2.09574 -4.13077 0
M  V30 21707 C 2038.62 2.49156 -5.16439 0
M  V30 21708 N 2038.12 2.87869 -6.30161 0
M  V30 21709 N 2039.91 2.49296 -5.03794 0
M  V30 21710 H 2032.06 -0.0668759 -2.12295 0
M  V30 21711 H 2034.32 0.032708 -0.947436 0
M  V30 21712 H 2034.03 0.710811 -3.44442 0
M  V30 21713 H 2033.9 2.38208 -2.92466 0
M  V30 21714 H 2036.29 2.21802 -1.94648 0
M  V30 21715 H 2036.37 0.539516 -2.50046 0
M  V30 21716 H 2036.02 1.33763 -4.89969 0
M  V30 21717 H 2035.95 3.01892 -4.31473 0
M  V30 21718 H 2038.44 1.82338 -3.31001 0
M  V30 21719 H 2038.75 3.16887 -7.04842 0
M  V30 21720 H 2037.1 2.85619 -6.33598 0
M  V30 21721 H 2040.29 2.18443 -4.14005 0
M  V30 21722 H 2040.46 2.79819 -5.8447 0
M  V30 21723 N 2033.87 1.31354 0.870861 0
M  V30 21724 C 2035.09 1.24082 1.66188 0
M  V30 21725 C 2035.52 -0.190886 1.87129 0
M  V30 21726 O 2034.87 -1.13669 1.41241 0
M  V30 21727 C 2034.92 1.98926 3.00767 0
M  V30 21728 O 2034.03 1.32599 3.90501 0
M  V30 21729 H 2033.37 0.428443 0.50728 0
M  V30 21730 H 2035.9 1.73408 1.08586 0
M  V30 21731 H 2035.91 2.08487 3.5071 0
M  V30 21732 H 2034.58 3.03044 2.84846 0
M  V30 21733 H 2033.16 1.31483 3.48951 0
M  V30 21734 N 2035.34 -1.08505 1.143 0
M  V30 21735 C 2036.29 -2.13593 0.797635 0
M  V30 21736 C 2037.28 -1.59488 -0.212729 0
M  V30 21737 O 2038.47 -1.76993 -0.0152218 0
M  V30 21738 C 2035.6 -3.42191 0.275716 0
M  V30 21739 C 2034.68 -4.0318 1.31554 0
M  V30 21740 N 2035.08 -4.38591 2.51936 0
M  V30 21741 C 2033.37 -4.30501 1.16553 0
M  V30 21742 C 2034.07 -4.86762 3.18494 0
M  V30 21743 N 2033.05 -4.84804 2.45898 0
M  V30 21744 H 2036.85 -2.38788 1.7134 0
M  V30 21745 H 2034.37 -1.25827 1.02671 0
M  V30 21746 H 2036.36 -4.16899 0.0100056 0
M  V30 21747 H 2035.02 -3.18445 -0.634256 0
M  V30 21748 H 2036.03 -4.29651 2.89171 0
M  V30 21749 H 2032.71 -4.16314 0.314497 0
M  V30 21750 H 2034.1 -5.23548 4.21126 0
M  V30 21751 N 2036.82 -0.937962 -1.26649 0
M  V30 21752 C 2038.05 -0.59993 -1.98534 0
M  V30 21753 C 2038.47 0.817397 -1.69411 0
M  V30 21754 O 2037.83 1.55011 -0.940284 0
M  V30 21755 C 2037.88 -0.844738 -3.50566 0
M  V30 21756 O 2036.98 0.0847162 -4.12313 0
M  V30 21757 H 2036.32 -0.229839 -0.622953 0
M  V30 21758 H 2038.85 -1.26002 -1.61198 0
M  V30 21759 H 2038.86 -0.764359 -4.00776 0
M  V30 21760 H 2037.54 -1.87783 -3.71094 0
M  V30 21761 H 2036.11 -0.0464484 -3.72871 0
M  V30 21762 N 2038.3 1.40971 -0.704618 0
M  V30 21763 C 2039.55 2.00309 -0.236478 0
M  V30 21764 C 2039.86 1.56482 1.17358 0
M  V30 21765 O 2041.07 2.08442 1.73966 0
M  V30 21766 C 2039.52 3.57974 -0.371877 0
M  V30 21767 C 2039.13 4.10779 -1.78788 0
M  V30 21768 C 2040.88 4.24485 0.0360284 0
M  V30 21769 C 2038.78 5.60909 -1.87445 0
M  V30 21770 H 2037.71 0.749233 -0.0846557 0
M  V30 21771 H 2040.36 1.61342 -0.874125 0
M  V30 21772 H 2038.75 3.94587 0.334172 0
M  V30 21773 H 2039.92 3.85565 -2.52342 0
M  V30 21774 H 2038.23 3.56826 -2.14626 0
M  V30 21775 H 2040.83 5.34699 -0.00808813 0
M  V30 21776 H 2041.17 4.02149 1.07621 0
M  V30 21777 H 2041.71 3.92938 -0.620069 0
M  V30 21778 H 2038.45 5.88084 -2.89546 0
M  V30 21779 H 2037.97 5.88021 -1.18287 0
M  V30 21780 H 2039.65 6.25831 -1.6415 0
M  V30 21781 N 2039.78 0.45001 1.51039 0
M  V30 21782 C 2041.19 -0.0101397 1.86697 0
M  V30 21783 C 2041.54 -1.40804 1.36633 0
M  V30 21784 O 2040.67 -2.03986 0.722411 0
M  V30 21785 C 2041.26 -0.0251761 3.38791 0
M  V30 21786 C 2039.82 -0.429779 3.73938 0
M  V30 21787 C 2038.97 0.369286 2.7483 0
M  V30 21788 H 2041.92 0.665278 1.44082 0
M  V30 21789 H 2041.94 -0.831964 3.71293 0
M  V30 21790 H 2041.45 0.992361 3.75198 0
M  V30 21791 H 2039.55 -1.45245 3.43125 0
M  V30 21792 H 2039.66 -0.145773 4.78878 0
M  V30 21793 H 2038.03 -0.174158 2.54104 0
M  V30 21794 H 2038.81 1.38594 3.14081 0
M  V30 21795 N 2041.26 -1.56548 0.18182 0
M  V30 21796 C 2042.19 -2.15665 -0.775955 0
M  V30 21797 C 2043.2 -1.11496 -1.18627 0
M  V30 21798 O 2044.39 -1.38642 -1.1243 0
M  V30 21799 C 2041.49 -2.69305 -2.05738 0
M  V30 21800 C 2040.66 -3.9824 -1.80897 0
M  V30 21801 C 2039.72 -4.36838 -2.93358 0
M  V30 21802 O 2038.75 -5.04516 -2.63539 0
M  V30 21803 N 2039.95 -3.99254 -4.21398 0
M  V30 21804 H 2042.72 -2.98477 -0.270484 0
M  V30 21805 H 2040.28 -1.619 -0.000606634 0
M  V30 21806 H 2042.27 -2.92119 -2.80087 0
M  V30 21807 H 2040.84 -1.91023 -2.47445 0
M  V30 21808 H 2040.06 -3.83695 -0.903963 0
M  V30 21809 H 2041.35 -4.82428 -1.6168 0
M  V30 21810 H 2040.74 -3.44791 -4.48482 0
M  V30 21811 H 2039.3 -4.27047 -4.92417 0
M  V30 21812 N 2042.73 0.0918577 -1.57332 0
M  V30 21813 C 2043.7 1.09546 -2.01326 0
M  V30 21814 C 2044.7 1.32761 -0.907252 0
M  V30 21815 O 2045.89 1.2882 -1.17265 0
M  V30 21816 C 2043.02 2.44385 -2.37674 0
M  V30 21817 H 2044.21 0.71671 -2.9121 0
M  V30 21818 H 2041.77 0.337001 -1.52624 0
M  V30 21819 H 2042.5 2.8713 -1.50755 0
M  V30 21820 H 2042.29 2.28882 -3.18364 0
M  V30 21821 H 2043.78 3.16562 -2.72357 0
M  V30 21822 N 2044.21 1.53368 0.362763 0
M  V30 21823 C 2045.16 1.80679 1.46485 0
M  V30 21824 C 2046.15 0.676074 1.55324 0
M  V30 21825 O 2047.36 0.859068 1.58177 0
M  V30 21826 H 2043.74 0.572116 0.488044 0
M  V30 21827 H 2045.71 2.72919 1.20656 0
M  V30 21828 C 2044.46 2.01611 2.83281 0
M  V30 21829 H 2043.78 2.88059 2.7724 0
M  V30 21830 H 2045.22 2.24696 3.59566 0
M  V30 21831 C 2043.68 0.796023 3.27361 0
M  V30 21832 O 2044.21 -0.0139218 4.01698 0
M  V30 21833 N 2042.41 0.618665 2.83938 0
M  V30 21834 H 2041.96 1.27892 2.2361 0
M  V30 21835 H 2041.92 -0.196265 3.13787 0
M  V30 21836 N 2045.69 -0.62272 1.44776 0
M  V30 21837 C 2047.11 -0.941829 1.28848 0
M  V30 21838 C 2047.31 -2.00178 0.230395 0
M  V30 21839 O 2046.36 -2.49611 -0.38085 0
M  V30 21840 C 2047.68 -1.39711 2.66273 0
M  V30 21841 C 2049.22 -1.51214 2.7405 0
M  V30 21842 C 2049.7 -2.00123 4.11964 0
M  V30 21843 N 2051.19 -2.07381 4.14183 0
M  V30 21844 C 2051.92 -2.46413 5.17753 0
M  V30 21845 N 2051.42 -2.84523 6.31679 0
M  V30 21846 N 2053.21 -2.46621 5.05109 0
M  V30 21847 H 2045.36 0.0781334 2.12256 0
M  V30 21848 H 2047.63 -0.0276831 0.947596 0
M  V30 21849 H 2047.33 -0.692534 3.44814 0
M  V30 21850 H 2047.21 -2.36654 2.93726 0
M  V30 21851 H 2049.59 -2.20767 1.95822 0
M  V30 21852 H 2049.68 -0.526248 2.50328 0
M  V30 21853 H 2049.32 -1.31163 4.90672 0
M  V30 21854 H 2049.25 -2.99599 4.33068 0
M  V30 21855 H 2051.74 -1.8058 3.31963 0
M  V30 21856 H 2052.05 -3.13144 7.06513 0
M  V30 21857 H 2050.4 -2.82254 6.35104 0
M  V30 21858 H 2053.59 -2.16244 4.15158 0
M  V30 21859 H 2053.76 -2.76715 5.85946 0
M  V30 21860 N 2047.17 -1.31814 -0.863883 0
M  V30 21861 C 2048.39 -1.24961 -1.65528 0
M  V30 21862 C 2048.82 0.18096 -1.87228 0
M  V30 21863 O 2048.18 1.12919 -1.41842 0
M  V30 21864 C 2048.22 -2.00518 -2.99708 0
M  V30 21865 O 2047.33 -1.34668 -3.89793 0
M  V30 21866 H 2046.67 -0.431127 -0.505001 0
M  V30 21867 H 2049.2 -1.73981 -1.07665 0
M  V30 21868 H 2049.21 -2.10344 -3.49599 0
M  V30 21869 H 2047.88 -3.0455 -2.83235 0
M  V30 21870 H 2046.46 -1.33332 -3.48249 0
M  V30 21871 N 2048.65 1.07897 -1.14873 0
M  V30 21872 C 2050.06 1.61864 -0.930434 0
M  V30 21873 C 2050.41 1.88918 0.529558 0
M  V30 21874 O 2049.53 1.65051 1.39954 0
M  V30 21875 C 2050.13 2.94067 -1.68256 0
M  V30 21876 C 2048.69 3.44797 -1.50969 0
M  V30 21877 C 2047.83 2.18945 -1.70171 0
M  V30 21878 H 2050.79 0.910562 -1.29979 0
M  V30 21879 H 2050.81 3.62744 -1.1488 0
M  V30 21880 H 2050.32 2.74344 -2.74512 0
M  V30 21881 H 2048.42 3.69613 -0.470834 0
M  V30 21882 H 2048.53 4.21205 -2.28305 0
M  V30 21883 H 2046.9 2.28371 -1.12778 0
M  V30 21884 H 2047.68 2.01724 -2.77781 0
M  V30 21885 N 2050.12 0.944665 1.2615 0
M  V30 21886 C 2051.05 0.47478 2.28622 0
M  V30 21887 C 2052.04 -0.473742 1.6337 0
M  V30 21888 O 2053.22 -0.374847 1.90548 0
M  V30 21889 C 2050.35 -0.2576 3.46343 0
M  V30 21890 C 2049.3 0.604701 4.23707 0
M  V30 21891 C 2048.63 -0.257841 5.34078 0
M  V30 21892 C 2049.93 1.8778 4.87377 0
M  V30 21893 H 2051.62 1.33122 2.68177 0
M  V30 21894 H 2049.17 0.641555 1.28919 0
M  V30 21895 H 2051.12 -0.597382 4.17144 0
M  V30 21896 H 2049.85 -1.14821 3.05751 0
M  V30 21897 H 2048.51 0.927426 3.54675 0
M  V30 21898 H 2048.15 -1.1479 4.89727 0
M  V30 21899 H 2047.85 0.315739 5.86751 0
M  V30 21900 H 2049.38 -0.592815 6.07715 0
M  V30 21901 H 2050.79 1.60505 5.50374 0
M  V30 21902 H 2049.19 2.39623 5.50182 0
M  V30 21903 H 2050.26 2.58705 4.10122 0
M  V30 21904 N 2051.6 -1.40596 0.712085 0
M  V30 21905 C 2053.01 -1.83887 0.322883 0
M  V30 21906 C 2053.36 -1.59548 -1.14188 0
M  V30 21907 O 2052.49 -1.07452 -1.87838 0
M  V30 21908 C 2053.08 -3.33811 0.579252 0
M  V30 21909 C 2051.64 -3.7561 0.243796 0
M  V30 21910 C 2050.79 -2.63843 0.853361 0
M  V30 21911 H 2053.74 -1.29913 0.911501 0
M  V30 21912 H 2053.76 -3.80177 -0.156661 0
M  V30 21913 H 2053.27 -3.51494 1.6454 0
M  V30 21914 H 2051.38 -3.63523 -0.817429 0
M  V30 21915 H 2051.49 -4.73805 0.710348 0
M  V30 21916 H 2049.85 -2.53138 0.281671 0
M  V30 21917 H 2050.64 -2.84339 1.9237 0
M  V30 21918 N 2053.08 -0.458013 -1.50798 0
M  V30 21919 C 2054.33 0.10308 -2.01436 0
M  V30 21920 C 2054.64 1.41957 -1.34564 0
M  V30 21921 O 2055.85 2.06484 -1.76286 0
M  V30 21922 C 2054.3 0.234229 -3.59137 0
M  V30 21923 C 2053.91 -1.07305 -4.34959 0
M  V30 21924 C 2055.66 0.747982 -4.17858 0
M  V30 21925 C 2053.56 -0.906414 -5.84413 0
M  V30 21926 H 2052.49 0.0422981 -0.752813 0
M  V30 21927 H 2055.14 -0.590924 -1.73725 0
M  V30 21928 H 2053.53 0.991716 -3.83381 0
M  V30 21929 H 2054.7 -1.84048 -4.22449 0
M  V30 21930 H 2053.02 -1.51691 -3.87787 0
M  V30 21931 H 2055.61 0.889478 -5.2725 0
M  V30 21932 H 2055.96 1.73592 -3.7838 0
M  V30 21933 H 2056.49 0.048243 -3.97771 0
M  V30 21934 H 2053.23 -1.86733 -6.2834 0
M  V30 21935 H 2052.75 -0.179147 -5.99532 0
M  V30 21936 H 2054.43 -0.567802 -6.44504 0
M  V30 21937 N 2054.56 1.56449 -0.190119 0
M  V30 21938 C 2055.52 2.17632 0.718966 0
M  V30 21939 C 2056.52 1.12941 1.14459 0
M  V30 21940 O 2057.71 1.38353 1.05849 0
M  V30 21941 C 2054.84 2.77437 1.98095 0
M  V30 21942 H 2056.04 2.99322 0.186033 0
M  V30 21943 H 2053.59 1.56187 0.0594913 0
M  V30 21944 H 2054.33 1.99531 2.55652 0
M  V30 21945 H 2054.11 3.5407 1.68454 0
M  V30 21946 H 2055.6 3.24433 2.62932 0
M  V30 21947 N 2056.04 -0.0835127 1.57379 0
M  V30 21948 C 2056.98 -1.10046 2.02875 0
M  V30 21949 C 2057.95 -1.39138 0.907183 0
M  V30 21950 O 2059.14 -1.50405 1.17401 0
M  V30 21951 C 2056.28 -2.41229 2.46784 0
M  V30 21952 C 2055.39 -2.18769 3.72511 0
M  V30 21953 C 2054.53 -3.43432 4.05251 0
M  V30 21954 C 2053.57 -3.16284 5.24052 0
M  V30 21955 N 2052.7 -4.33246 5.52488 0
M  V30 21956 H 2057.54 -0.705503 2.89528 0
M  V30 21957 H 2055.08 -0.336809 1.43192 0
M  V30 21958 H 2057.04 -3.17803 2.7029 0
M  V30 21959 H 2055.67 -2.7855 1.63125 0
M  V30 21960 H 2054.72 -1.32942 3.56414 0
M  V30 21961 H 2056.03 -1.94708 4.59228 0
M  V30 21962 H 2055.19 -4.28408 4.29595 0
M  V30 21963 H 2053.93 -3.70558 3.17078 0
M  V30 21964 H 2052.93 -2.29703 4.99516 0
M  V30 21965 H 2054.16 -2.90493 6.13833 0
M  V30 21966 H 2052.1 -4.60425 4.67274 0
M  V30 21967 H 2052.02 -4.12417 6.336 0
M  V30 21968 H 2053.29 -5.19253 5.81375 0
M  V30 21969 N 2057.52 -1.53558 -0.354624 0
M  V30 21970 C 2058.76 -1.70523 -1.09772 0
M  V30 21971 C 2059.09 -0.461312 -1.88641 0
M  V30 21972 O 2058.37 0.541553 -1.86809 0
M  V30 21973 C 2058.65 -2.96191 -2.04799 0
M  V30 21974 C 2058.51 -4.30765 -1.29465 0
M  V30 21975 C 2059.82 -3.17493 -3.04772 0
M  V30 21976 H 2056.94 -0.620497 -0.397683 0
M  V30 21977 H 2059.59 -1.86214 -0.377395 0
M  V30 21978 H 2057.74 -2.82944 -2.66223 0
M  V30 21979 H 2059.41 -4.55844 -0.707409 0
M  V30 21980 H 2057.65 -4.29678 -0.596569 0
M  V30 21981 H 2058.32 -5.14852 -1.99076 0
M  V30 21982 H 2060.8 -3.29998 -2.53458 0
M  V30 21983 H 2059.67 -4.06838 -3.68476 0
M  V30 21984 H 2059.93 -2.33276 -3.75546 0
M  V30 21985 N 2058.99 0.615033 -1.45104 0
M  V30 21986 C 2060.22 1.40596 -1.52471 0
M  V30 21987 C 2060.64 1.87454 -0.155745 0
M  V30 21988 O 2060 1.59701 0.858209 0
M  V30 21989 C 2060.05 2.59156 -2.5074 0
M  V30 21990 O 2059.15 3.59538 -2.02006 0
M  V30 21991 H 2058.49 0.420045 -0.514255 0
M  V30 21992 H 2061.02 0.749208 -1.90389 0
M  V30 21993 H 2061.03 3.06496 -2.69303 0
M  V30 21994 H 2059.71 2.24399 -3.50169 0
M  V30 21995 H 2058.29 3.18897 -1.93284 0
M  V30 21996 N 2060.47 1.3227 0.85688 0
M  V30 21997 C 2061.7 1.25837 1.64863 0
M  V30 21998 C 2062.12 -0.171028 1.87321 0
M  V30 21999 O 2061.48 -1.12165 1.42438 0
M  V30 22000 C 2061.53 2.02105 2.9864 0
M  V30 22001 O 2060.63 1.36733 3.89073 0
M  V30 22002 H 2059.97 0.433799 0.502707 0
M  V30 22003 H 2062.5 1.7455 1.0674 0
M  V30 22004 H 2062.51 2.12195 3.48479 0
M  V30 22005 H 2061.19 3.06048 2.81616 0
M  V30 22006 H 2059.76 1.35177 3.47537 0
M  V30 22007 N 2061.95 -1.07287 1.15444 0
M  V30 22008 C 2063.2 -1.79896 0.929722 0
M  V30 22009 C 2063.52 -1.86764 -0.543105 0
M  V30 22010 O 2062.78 -1.34794 -1.41877 0
M  V30 22011 C 2063.08 -3.24863 1.48992 0
M  V30 22012 C 2062.74 -3.38094 2.98334 0
M  V30 22013 C 2061.41 -3.41412 3.39104 0
M  V30 22014 C 2063.76 -3.40837 3.94309 0
M  V30 22015 C 2061.09 -3.45077 4.74488 0
M  V30 22016 C 2063.44 -3.46039 5.29565 0
M  V30 22017 C 2062.1 -3.47635 5.6983 0
M  V30 22018 H 2061.37 -0.658285 0.340209 0
M  V30 22019 H 2064.02 -1.26242 1.43997 0
M  V30 22020 H 2062.32 -3.81302 0.900869 0
M  V30 22021 H 2064.02 -3.79621 1.29185 0
M  V30 22022 H 2060.61 -3.3621 2.65821 0
M  V30 22023 H 2064.8 -3.37494 3.63884 0
M  V30 22024 H 2060.05 -3.44611 5.05028 0
M  V30 22025 H 2064.23 -3.47108 6.03729 0
M  V30 22026 H 2061.85 -3.50228 6.74718 0
M  V30 22027 N 2063.43 -0.951342 -1.25647 0
M  V30 22028 C 2064.84 -0.645559 -1.75184 0
M  V30 22029 C 2065.19 0.83913 -1.7735 0
M  V30 22030 O 2064.31 1.65671 -1.3922 0
M  V30 22031 C 2064.91 -1.16512 -3.18136 0
M  V30 22032 C 2063.47 -0.90956 -3.65245 0
M  V30 22033 C 2062.62 -1.31009 -2.44401 0
M  V30 22034 H 2065.57 -1.12852 -1.1158 0
M  V30 22035 H 2065.59 -0.523662 -3.76879 0
M  V30 22036 H 2065.1 -2.24571 -3.16527 0
M  V30 22037 H 2063.2 0.156212 -3.72272 0
M  V30 22038 H 2063.31 -1.54371 -4.53549 0
M  V30 22039 H 2061.68 -0.728474 -2.4406 0
M  V30 22040 H 2062.46 -2.39983 -2.45486 0
M  V30 22041 N 2064.91 1.40216 -0.719531 0
M  V30 22042 C 2066.13 2.05647 -0.269106 0
M  V30 22043 C 2066.56 1.53865 1.082 0
M  V30 22044 O 2065.91 0.675703 1.68238 0
M  V30 22045 C 2065.96 3.59636 -0.263433 0
M  V30 22046 O 2065.07 4.05448 0.754058 0
M  V30 22047 H 2064.41 0.652036 -0.12548 0
M  V30 22048 H 2066.94 1.79542 -0.981119 0
M  V30 22049 H 2066.95 4.07871 -0.102475 0
M  V30 22050 H 2065.62 3.9669 -1.24939 0
M  V30 22051 H 2064.2 3.68664 0.560502 0
M  V30 22052 N 2066.38 0.466004 1.50553 0
M  V30 22053 C 2067.63 -0.0923956 2.01488 0
M  V30 22054 C 2067.95 -1.41242 1.35315 0
M  V30 22055 O 2069.15 -2.05546 1.77379 0
M  V30 22056 C 2067.61 -0.21518 3.59256 0
M  V30 22057 C 2067.22 1.09611 4.34384 0
M  V30 22058 C 2068.96 -0.725811 4.18249 0
M  V30 22059 C 2066.87 0.937394 5.83924 0
M  V30 22060 H 2065.8 -0.0383052 0.753026 0
M  V30 22061 H 2068.45 0.600129 1.73409 0
M  V30 22062 H 2066.83 -0.97137 3.83902 0
M  V30 22063 H 2068 1.86285 4.21467 0
M  V30 22064 H 2066.32 1.53746 3.86977 0
M  V30 22065 H 2068.92 -0.861504 5.27714 0
M  V30 22066 H 2069.26 -1.71583 3.79296 0
M  V30 22067 H 2069.79 -0.0271476 3.97791 0
M  V30 22068 H 2066.53 1.90063 6.27341 0
M  V30 22069 H 2066.05 0.210939 5.99429 0
M  V30 22070 H 2067.73 0.601974 6.44194 0
M  V30 22071 N 2067.86 -1.56346 0.198413 0
M  V30 22072 C 2069.28 -1.58822 -0.157378 0
M  V30 22073 C 2069.48 -1.21468 -1.60773 0
M  V30 22074 O 2068.53 -0.938985 -2.34391 0
M  V30 22075 C 2069.85 -3.00336 0.14798 0
M  V30 22076 C 2071.39 -3.12875 0.0883539 0
M  V30 22077 C 2071.87 -4.56527 0.367068 0
M  V30 22078 N 2073.36 -4.62122 0.315805 0
M  V30 22079 C 2074.1 -5.7117 0.505265 0
M  V30 22080 N 2073.59 -6.88671 0.755254 0
M  V30 22081 N 2075.38 -5.60381 0.439293 0
M  V30 22082 H 2067.54 -1.78908 1.1448 0
M  V30 22083 H 2069.8 -0.830475 0.457182 0
M  V30 22084 H 2069.5 -3.32238 1.15373 0
M  V30 22085 H 2069.38 -3.732 -0.547892 0
M  V30 22086 H 2071.77 -2.80783 -0.908004 0
M  V30 22087 H 2071.85 -2.4239 0.817354 0
M  V30 22088 H 2071.49 -4.89332 1.36076 0
M  V30 22089 H 2071.42 -5.25206 -0.382859 0
M  V30 22090 H 2073.91 -3.77679 0.129337 0
M  V30 22091 H 2074.22 -7.67675 0.888542 0
M  V30 22092 H 2072.57 -6.9047 0.792186 0
M  V30 22093 H 2075.76 -4.67462 0.244386 0
M  V30 22094 H 2075.93 -6.45305 0.590363 0
M  V30 22095 N 2069.34 0.0751653 -1.57421 0
M  V30 22096 C 2070.75 0.627391 -1.75843 0
M  V30 22097 C 2071.1 1.78086 -0.823397 0
M  V30 22098 O 2070.23 2.16399 -0.00667483 0
M  V30 22099 C 2070.82 1.14489 -3.18869 0
M  V30 22100 C 2069.38 1.64301 -3.38648 0
M  V30 22101 C 2068.53 0.560994 -2.71566 0
M  V30 22102 H 2071.48 -0.150994 -1.5798 0
M  V30 22103 H 2071.5 2.01378 -3.22842 0
M  V30 22104 H 2071.01 0.305165 -3.86898 0
M  V30 22105 H 2069.11 2.50609 -2.75728 0
M  V30 22106 H 2069.23 1.72227 -4.47073 0
M  V30 22107 H 2067.59 1.00523 -2.34024 0
M  V30 22108 H 2068.37 -0.268489 -3.42248 0
M  V30 22109 N 2070.82 1.53744 0.346476 0
M  V30 22110 C 2072.07 1.70066 1.08445 0
M  V30 22111 C 2072.38 0.469013 1.89894 0
M  V30 22112 O 2073.59 0.513127 2.66607 0
M  V30 22113 C 2072.04 3.00716 1.97732 0
M  V30 22114 C 2071.65 4.31208 1.21504 0
M  V30 22115 C 2073.39 3.26404 2.71405 0
M  V30 22116 C 2071.3 5.52934 2.09804 0
M  V30 22117 H 2070.23 0.633711 0.408567 0
M  V30 22118 H 2072.88 1.80244 0.344133 0
M  V30 22119 H 2071.26 2.84388 2.75572 0
M  V30 22120 H 2072.44 4.5823 0.485955 0
M  V30 22121 H 2070.75 4.12111 0.596126 0
M  V30 22122 H 2073.35 4.14536 3.37733 0
M  V30 22123 H 2073.69 2.43286 3.37813 0
M  V30 22124 H 2074.23 3.43495 2.0064 0
M  V30 22125 H 2070.97 6.38587 1.47943 0
M  V30 22126 H 2070.49 5.30164 2.8051 0
M  V30 22127 H 2072.16 5.88463 2.68924 0
M  V30 22128 N 2072.3 -0.607329 1.45428 0
M  V30 22129 C 2073.53 -1.39094 1.52763 0
M  V30 22130 C 2073.93 -1.8853 0.159113 0
M  V30 22131 O 2073.28 -1.62873 -0.849596 0
M  V30 22132 C 2073.34 -2.62994 2.45101 0
M  V30 22133 C 2073 -2.35195 3.91832 0
M  V30 22134 C 2074 -1.95542 4.81725 0
M  V30 22135 C 2071.69 -2.48099 4.36752 0
M  V30 22136 C 2073.68 -1.69154 6.14545 0
M  V30 22137 C 2071.37 -2.21325 5.69613 0
M  V30 22138 C 2072.36 -1.81914 6.58328 0
M  V30 22139 O 2072.05 -1.55453 7.88727 0
M  V30 22140 H 2071.78 -0.432173 0.51981 0
M  V30 22141 H 2074.34 -0.747733 1.91306 0
M  V30 22142 H 2072.57 -3.30035 2.01528 0
M  V30 22143 H 2074.26 -3.25037 2.43116 0
M  V30 22144 H 2075.02 -1.85109 4.48285 0
M  V30 22145 H 2070.9 -2.77741 3.67941 0
M  V30 22146 H 2074.45 -1.38318 6.8375 0
M  V30 22147 H 2070.34 -2.31375 6.02608 0
M  V30 22148 H 2071.11 -1.69503 8.00757 0
M  V30 22149 N 2073.77 -1.32722 -0.849853 0
M  V30 22150 C 2074.7 -1.24675 -1.97429 0
M  V30 22151 C 2075.69 -0.129581 -1.69606 0
M  V30 22152 O 2076.87 -0.317548 -1.91586 0
M  V30 22153 C 2074 -0.973971 -3.33363 0
M  V30 22154 C 2072.95 -2.05289 -3.75553 0
M  V30 22155 C 2072.28 -1.63244 -5.09171 0
M  V30 22156 C 2073.58 -3.46845 -3.90507 0
M  V30 22157 H 2075.27 -2.18753 -2.0442 0
M  V30 22158 H 2072.82 -1.0531 -0.982132 0
M  V30 22159 H 2074.77 -0.904206 -4.11585 0
M  V30 22160 H 2073.5 0.00243816 -3.266 0
M  V30 22161 H 2072.16 -2.11289 -2.99587 0
M  V30 22162 H 2071.8 -0.643348 -4.98869 0
M  V30 22163 H 2071.5 -2.35437 -5.38371 0
M  V30 22164 H 2073.03 -1.57713 -5.8988 0
M  V30 22165 H 2074.44 -3.43408 -4.59069 0
M  V30 22166 H 2072.84 -4.17429 -4.3113 0
M  V30 22167 H 2073.91 -3.86155 -2.93278 0
M  V30 22168 N 2075.25 1.06673 -1.16011 0
M  V30 22169 C 2076.48 1.83106 -0.963322 0
M  V30 22170 C 2076.9 1.82372 0.488451 0
M  V30 22171 O 2076.25 1.24012 1.33893 0
M  V30 22172 C 2076.3 3.29888 -1.47838 0
M  V30 22173 O 2076.02 3.30717 -2.87328 0
M  V30 22174 C 2077.53 4.23065 -1.32405 0
M  V30 22175 H 2074.75 0.577476 -0.341705 0
M  V30 22176 H 2077.29 1.34611 -1.53948 0
M  V30 22177 H 2075.44 3.75708 -0.944585 0
M  V30 22178 H 2075.86 4.22475 -3.1083 0
M  V30 22179 H 2077.33 5.24098 -1.73279 0
M  V30 22180 H 2077.81 4.38375 -0.269104 0
M  V30 22181 H 2078.42 3.83088 -1.84726 0
M  V30 22182 N 2076.73 0.957992 1.25141 0
M  V30 22183 C 2078.15 0.662955 1.45179 0
M  V30 22184 C 2078.35 -0.778426 1.85857 0
M  V30 22185 O 2077.4 -1.55337 1.99065 0
M  V30 22186 C 2078.72 1.63876 2.52121 0
M  V30 22187 C 2080.26 1.65031 2.65958 0
M  V30 22188 C 2080.74 2.61384 3.76089 0
M  V30 22189 N 2082.23 2.59768 3.83503 0
M  V30 22190 C 2082.96 3.30999 4.68217 0
M  V30 22191 N 2082.46 4.11715 5.57192 0
M  V30 22192 N 2084.25 3.1987 4.62211 0
M  V30 22193 H 2076.4 1.88941 0.97031 0
M  V30 22194 H 2078.67 0.812898 0.487751 0
M  V30 22195 H 2078.37 2.66846 2.29098 0
M  V30 22196 H 2078.25 1.4039 3.50101 0
M  V30 22197 H 2080.63 0.627761 2.88346 0
M  V30 22198 H 2080.72 1.92576 1.68369 0
M  V30 22199 H 2080.36 3.63767 3.54452 0
M  V30 22200 H 2080.29 2.31121 4.73171 0
M  V30 22201 H 2082.78 2.01172 3.19903 0
M  V30 22202 H 2083.09 4.62978 6.18766 0
M  V30 22203 H 2081.44 4.15812 5.56889 0
M  V30 22204 H 2084.63 2.56282 3.91711 0
M  V30 22205 H 2084.8 3.75649 5.28008 0
M  V30 22206 N 2078.21 -1.39832 0.726957 0
M  V30 22207 C 2079.45 -2.00971 0.271788 0
M  V30 22208 C 2079.79 -1.57537 -1.13559 0
M  V30 22209 O 2079.06 -0.800579 -1.7726 0
M  V30 22210 C 2079.35 -3.5825 0.364596 0
M  V30 22211 C 2079.2 -4.11724 1.81117 0
M  V30 22212 C 2080.52 -4.39345 -0.257652 0
M  V30 22213 H 2077.64 -0.730152 0.100232 0
M  V30 22214 H 2080.28 -1.66152 0.921599 0
M  V30 22215 H 2078.43 -3.88042 -0.18865 0
M  V30 22216 H 2080.1 -3.92684 2.42068 0
M  V30 22217 H 2078.34 -3.65585 2.33516 0
M  V30 22218 H 2079.01 -5.20873 1.82743 0
M  V30 22219 H 2081.49 -4.1555 0.213875 0
M  V30 22220 H 2080.37 -5.4866 -0.162327 0
M  V30 22221 H 2080.63 -4.21218 -1.34267 0
M  V30 22222 N 2079.69 -0.473982 -1.50304 0
M  V30 22223 C 2080.62 0.308532 -2.31453 0
M  V30 22224 C 2081.6 0.987678 -1.38488 0
M  V30 22225 O 2082.78 0.984294 -1.67408 0
M  V30 22226 C 2079.91 1.38921 -3.18305 0
M  V30 22227 C 2078.87 0.831509 -4.19845 0
M  V30 22228 C 2078.19 2.0107 -4.95454 0
M  V30 22229 C 2079.49 -0.159166 -5.22057 0
M  V30 22230 H 2081.19 -0.368757 -2.9712 0
M  V30 22231 H 2078.73 -0.178787 -1.42886 0
M  V30 22232 H 2080.69 1.94415 -3.73873 0
M  V30 22233 H 2079.41 2.09531 -2.50528 0
M  V30 22234 H 2078.07 0.298526 -3.65383 0
M  V30 22235 H 2077.72 2.70384 -4.24148 0
M  V30 22236 H 2077.42 1.64374 -5.64141 0
M  V30 22237 H 2078.94 2.57048 -5.53858 0
M  V30 22238 H 2080.35 0.306691 -5.72479 0
M  V30 22239 H 2078.75 -0.440549 -5.98481 0
M  V30 22240 H 2079.82 -1.08411 -4.72626 0
M  V30 22241 N 2081.16 1.56239 -0.206702 0
M  V30 22242 C 2082.41 1.97904 0.428991 0
M  V30 22243 C 2082.74 1.09394 1.6082 0
M  V30 22244 O 2081.99 0.135573 1.9523 0
M  V30 22245 C 2082.29 3.45345 0.920411 0
M  V30 22246 C 2081.96 4.50661 -0.146675 0
M  V30 22247 C 2080.62 4.79185 -0.439852 0
M  V30 22248 C 2082.97 5.13903 -0.869114 0
M  V30 22249 C 2080.3 5.68237 -1.46024 0
M  V30 22250 C 2082.65 6.04058 -1.87874 0
M  V30 22251 C 2081.32 6.30933 -2.17899 0
M  V30 22252 H 2080.59 0.724181 0.156979 0
M  V30 22253 H 2083.23 1.89038 -0.306106 0
M  V30 22254 H 2081.54 3.5134 1.734 0
M  V30 22255 H 2083.24 3.74945 1.42187 0
M  V30 22256 H 2079.83 4.28501 0.0919915 0
M  V30 22257 H 2084.01 4.91947 -0.655848 0
M  V30 22258 H 2079.27 5.87329 -1.69866 0
M  V30 22259 H 2083.44 6.52117 -2.44369 0
M  V30 22260 H 2081.07 6.99735 -2.9711 0
M  V30 22261 N 2082.64 -0.0668159 1.57458 0
M  V30 22262 C 2083.57 -1.10569 2.00766 0
M  V30 22263 C 2084.59 -1.34696 0.914378 0
M  V30 22264 O 2085.78 -1.32848 1.19221 0
M  V30 22265 C 2082.88 -2.45556 2.33571 0
M  V30 22266 C 2082.05 -2.41316 3.64808 0
M  V30 22267 C 2081.11 -3.58451 3.85227 0
M  V30 22268 O 2080.13 -3.39654 4.56754 0
M  V30 22269 N 2081.34 -4.7898 3.27961 0
M  V30 22270 H 2084.1 -0.736847 2.90501 0
M  V30 22271 H 2081.66 -0.255392 1.59873 0
M  V30 22272 H 2083.65 -3.2257 2.44399 0
M  V30 22273 H 2082.22 -2.74424 1.497 0
M  V30 22274 H 2081.44 -1.49655 3.64688 0
M  V30 22275 H 2082.73 -2.35589 4.50972 0
M  V30 22276 H 2082.13 -4.97155 2.69913 0
M  V30 22277 H 2080.69 -5.53488 3.4423 0
M  V30 22278 N 2084.12 -1.53926 -0.338317 0
M  V30 22279 C 2085.4 -1.62057 -1.09531 0
M  V30 22280 C 2085.78 -0.445104 -2.06354 0
M  V30 22281 O 2085.13 0.56212 -2.21478 0
M  V30 22282 C 2085.34 -2.98376 -1.81033 0
M  V30 22283 C 2086.68 -3.53912 -2.34589 0
M  V30 22284 O 2087.71 -3.00584 -1.91122 0
M  V30 22285 O 2086.57 -4.472 -3.14125 0
M  V30 22286 H 2083.66 -0.655673 -0.504006 0
M  V30 22287 H 2086.21 -1.66272 -0.339391 0
M  V30 22288 H 2084.98 -3.75366 -1.10525 0
M  V30 22289 H 2084.6 -2.97774 -2.6347 0
M  V30 22290 N 2085.6 0.599608 -1.45748 0
M  V30 22291 C 2086.55 1.73095 -1.55374 0
M  V30 22292 C 2087.54 1.64028 -0.423205 0
M  V30 22293 O 2088.75 1.69726 -0.599429 0
M  V30 22294 H 2085.12 0.572 -0.48818 0
M  V30 22295 H 2087.09 1.62104 -2.50529 0
M  V30 22296 C 2085.84 3.1148 -1.54517 0
M  V30 22297 H 2085.17 3.19119 -2.40838 0
M  V30 22298 H 2086.61 3.90447 -1.65309 0
M  V30 22299 C 2085.06 3.35809 -0.270913 0
M  V30 22300 O 2085.59 3.96473 0.645927 0
M  V30 22301 N 2083.8 2.90136 -0.164103 0
M  V30 22302 H 2083.35 2.40951 -0.911075 0
M  V30 22303 H 2083.31 3.06788 0.687647 0
M  V30 22304 N 2087.08 1.33171 0.842803 0
M  V30 22305 C 2088.3 1.27579 1.63519 0
M  V30 22306 C 2088.73 -0.151151 1.87492 0
M  V30 22307 O 2088.09 -1.10648 1.4362 0
M  V30 22308 C 2088.13 2.05261 2.9648 0
M  V30 22309 O 2087.24 1.40852 3.87601 0
M  V30 22310 H 2086.58 0.439106 0.498078 0
M  V30 22311 H 2089.11 1.75672 1.04883 0
M  V30 22312 H 2089.12 2.15879 3.46209 0
M  V30 22313 H 2087.79 3.09018 2.78354 0
M  V30 22314 H 2086.37 1.38855 3.46083 0
M  V30 22315 N 2088.56 -1.06056 1.16576 0
M  V30 22316 C 2089.78 -1.83131 0.973539 0
M  V30 22317 C 2090.21 -1.82047 -0.473358 0
M  V30 22318 O 2089.56 -1.22303 -1.33834 0
M  V30 22319 C 2089.61 -3.2753 1.50852 0
M  V30 22320 O 2088.72 -4.06129 0.716451 0
M  V30 22321 H 2088.06 -0.566557 0.346279 0
M  V30 22322 H 2090.59 -1.33704 1.54869 0
M  V30 22323 H 2090.6 -3.78346 1.52704 0
M  V30 22324 H 2089.27 -3.27634 2.56181 0
M  V30 22325 H 2087.85 -3.64892 0.768639 0
M  V30 22326 N 2090.03 -0.964615 -1.24631 0
M  V30 22327 C 2090.98 -0.463395 -2.23241 0
M  V30 22328 C 2091.97 0.452893 -1.54395 0
M  V30 22329 O 2093.16 0.284318 -1.74702 0
M  V30 22330 C 2090.29 0.248095 -3.42402 0
M  V30 22331 C 2089.37 -0.686842 -4.18501 0
M  V30 22332 N 2089.77 -1.82277 -4.71814 0
M  V30 22333 C 2088.06 -0.497011 -4.43222 0
M  V30 22334 C 2088.76 -2.40731 -5.2955 0
M  V30 22335 N 2087.74 -1.69279 -5.16571 0
M  V30 22336 H 2091.54 -1.33017 -2.62076 0
M  V30 22337 H 2089.06 -0.823324 -1.39983 0
M  V30 22338 H 2091.05 0.62437 -4.12198 0
M  V30 22339 H 2089.71 1.11135 -3.05089 0
M  V30 22340 H 2090.72 -2.20439 -4.68644 0
M  V30 22341 H 2087.4 0.322534 -4.16252 0
M  V30 22342 H 2088.79 -3.36573 -5.81522 0
M  V30 22343 N 2091.51 1.39445 -0.734362 0
M  V30 22344 C 2092.44 2.33245 -0.109065 0
M  V30 22345 C 2093.42 1.53878 0.724945 0
M  V30 22346 O 2094.61 1.82274 0.670055 0
M  V30 22347 C 2091.74 3.37973 0.799454 0
M  V30 22348 C 2090.69 4.27943 0.0696508 0
M  V30 22349 C 2090.02 5.23365 1.09514 0
M  V30 22350 C 2091.32 5.10855 -1.08738 0
M  V30 22351 H 2093.01 2.85786 -0.892581 0
M  V30 22352 H 2090.56 1.37409 -0.430672 0
M  V30 22353 H 2092.51 4.02545 1.24643 0
M  V30 22354 H 2091.23 2.83871 1.61508 0
M  V30 22355 H 2089.89 3.64851 -0.357693 0
M  V30 22356 H 2089.54 4.65559 1.90432 0
M  V30 22357 H 2089.24 5.84408 0.611606 0
M  V30 22358 H 2090.77 5.90813 1.54183 0
M  V30 22359 H 2092.18 5.68775 -0.718888 0
M  V30 22360 H 2090.58 5.81038 -1.50051 0
M  V30 22361 H 2091.65 4.45725 -1.90937 0
M  V30 22362 N 2092.99 0.481946 1.5005 0
M  V30 22363 C 2094.4 0.0294639 1.86677 0
M  V30 22364 C 2094.75 -1.37874 1.39589 0
M  V30 22365 O 2093.88 -2.02407 0.765517 0
M  V30 22366 C 2094.47 0.0466921 3.38768 0
M  V30 22367 C 2093.03 -0.350364 3.74766 0
M  V30 22368 C 2092.18 0.427499 2.73985 0
M  V30 22369 H 2095.13 0.69569 1.42639 0
M  V30 22370 H 2095.15 -0.75302 3.72974 0
M  V30 22371 H 2094.66 1.07172 3.73009 0
M  V30 22372 H 2092.76 -1.37934 3.46128 0
M  V30 22373 H 2092.88 -0.0441626 4.7908 0
M  V30 22374 H 2091.24 -0.120219 2.54416 0
M  V30 22375 H 2092.02 1.45225 3.1107 0
M  V30 22376 N 2094.47 -1.56127 0.214985 0
M  V30 22377 C 2095.43 -2.18748 -0.684252 0
M  V30 22378 C 2096.43 -1.14748 -1.12648 0
M  V30 22379 O 2097.62 -1.4002 -1.03634 0
M  V30 22380 C 2094.75 -2.80553 -1.93656 0
M  V30 22381 H 2095.95 -2.99581 -0.13839 0
M  V30 22382 H 2093.5 -1.56262 -0.0346358 0
M  V30 22383 H 2094.23 -2.03573 -2.52445 0
M  V30 22384 H 2094.02 -3.56705 -1.628 0
M  V30 22385 H 2095.51 -3.28575 -2.57737 0
M  V30 22386 N 2095.95 0.0584645 -1.57492 0
M  V30 22387 C 2096.91 1.05251 -2.03605 0
M  V30 22388 C 2097.91 1.30807 -0.935209 0
M  V30 22389 O 2099.1 1.26304 -1.19971 0
M  V30 22390 C 2096.23 2.39288 -2.42804 0
M  V30 22391 H 2097.42 0.654779 -2.92665 0
M  V30 22392 H 2094.98 0.304552 -1.53304 0
M  V30 22393 H 2095.71 2.83868 -1.56811 0
M  V30 22394 H 2095.5 2.22077 -3.23147 0
M  V30 22395 H 2096.99 3.10713 -2.79011 0
M  V30 22396 N 2097.42 1.54103 0.330149 0
M  V30 22397 C 2098.65 1.76264 1.09297 0
M  V30 22398 C 2099.07 0.5067 1.81147 0
M  V30 22399 O 2098.43 -0.541409 1.73027 0
M  V30 22400 C 2098.48 2.95141 2.07181 0
M  V30 22401 O 2097.58 2.66226 3.14956 0
M  V30 22402 H 2096.92 0.584284 0.31545 0
M  V30 22403 H 2099.45 2.01107 0.376453 0
M  V30 22404 H 2099.46 3.22305 2.50167 0
M  V30 22405 H 2098.14 3.86224 1.54285 0
M  V30 22406 H 2096.72 2.49992 2.76692 0
M  V30 22407 N 2098.9 -0.59187 1.46064 0
M  V30 22408 C 2100.13 -1.37466 1.54229 0
M  V30 22409 C 2100.54 -1.8835 0.1791 0
M  V30 22410 O 2099.88 -1.63765 -0.832274 0
M  V30 22411 C 2099.95 -2.60379 2.47877 0
M  V30 22412 C 2099.61 -2.31026 3.94305 0
M  V30 22413 C 2100.61 -1.90422 4.83772 0
M  V30 22414 C 2098.29 -2.43453 4.39359 0
M  V30 22415 C 2100.29 -1.62626 6.16305 0
M  V30 22416 C 2097.97 -2.15271 5.71928 0
M  V30 22417 C 2098.97 -1.74921 6.60221 0
M  V30 22418 O 2098.66 -1.47079 7.90331 0
M  V30 22419 H 2098.39 -0.426635 0.524365 0
M  V30 22420 H 2100.94 -0.7274 1.92089 0
M  V30 22421 H 2099.17 -3.27879 2.05018 0
M  V30 22422 H 2100.86 -3.2244 2.4655 0
M  V30 22423 H 2101.63 -1.80343 4.50224 0
M  V30 22424 H 2097.51 -2.73823 3.70866 0
M  V30 22425 H 2101.05 -1.31058 6.85179 0
M  V30 22426 H 2096.95 -2.2497 6.05028 0
M  V30 22427 H 2097.72 -1.61 8.02509 0
M  V30 22428 N 2100.38 -1.33616 -0.835729 0
M  V30 22429 C 2101.8 -1.13019 -1.12689 0
M  V30 22430 C 2102 0.0768335 -2.01353 0
M  V30 22431 O 2101.05 0.756169 -2.40911 0
M  V30 22432 C 2102.37 -2.41918 -1.78595 0
M  V30 22433 C 2103.91 -2.47854 -1.91147 0
M  V30 22434 C 2104.39 -3.76723 -2.60469 0
M  V30 22435 N 2105.88 -3.77811 -2.67979 0
M  V30 22436 C 2106.61 -4.74237 -3.22315 0
M  V30 22437 N 2106.11 -5.81039 -3.77313 0
M  V30 22438 N 2107.9 -4.61709 -3.20596 0
M  V30 22439 H 2100.05 -2.10974 -0.245697 0
M  V30 22440 H 2102.32 -0.932353 -0.171526 0
M  V30 22441 H 2102.02 -3.30264 -1.20906 0
M  V30 22442 H 2101.9 -2.54302 -2.78586 0
M  V30 22443 H 2104.28 -1.59955 -2.47989 0
M  V30 22444 H 2104.37 -2.39408 -0.900965 0
M  V30 22445 H 2104.01 -4.65005 -2.04286 0
M  V30 22446 H 2103.94 -3.82447 -3.61998 0
M  V30 22447 H 2106.43 -3.00626 -2.28982 0
M  V30 22448 H 2106.74 -6.50648 -4.16986 0
M  V30 22449 H 2105.09 -5.8477 -3.75592 0
M  V30 22450 H 2108.28 -3.77426 -2.76888 0
M  V30 22451 H 2108.45 -5.37026 -3.62639 0
M  V30 22452 N 2101.86 1.05436 -1.17136 0
M  V30 22453 C 2102.81 2.13124 -0.885828 0
M  V30 22454 C 2103.78 1.65235 0.169267 0
M  V30 22455 O 2104.96 1.90772 0.032594 0
M  V30 22456 C 2102.1 3.42744 -0.40256 0
M  V30 22457 C 2101.21 4.0432 -1.52149 0
M  V30 22458 C 2100.35 5.21849 -0.992347 0
M  V30 22459 C 2099.39 5.75426 -2.08689 0
M  V30 22460 N 2098.52 6.84259 -1.5727 0
M  V30 22461 H 2103.36 2.36887 -1.808 0
M  V30 22462 H 2100.9 1.16215 -0.901798 0
M  V30 22463 H 2102.86 4.17071 -0.10394 0
M  V30 22464 H 2101.49 3.19171 0.482653 0
M  V30 22465 H 2100.54 3.27456 -1.93589 0
M  V30 22466 H 2101.85 4.40127 -2.34711 0
M  V30 22467 H 2101.01 6.03236 -0.647426 0
M  V30 22468 H 2099.75 4.8751 -0.13613 0
M  V30 22469 H 2098.75 4.9267 -2.44041 0
M  V30 22470 H 2099.98 6.11813 -2.94722 0
M  V30 22471 H 2097.92 6.51822 -0.739158 0
M  V30 22472 H 2097.84 7.19055 -2.33442 0
M  V30 22473 H 2099.11 7.69304 -1.25663 0
M  V30 22474 N 2103.34 0.971211 1.24118 0
M  V30 22475 C 2104.28 0.503612 2.25239 0
M  V30 22476 C 2105.25 -0.452682 1.59812 0
M  V30 22477 O 2106.44 -0.362267 1.87329 0
M  V30 22478 C 2103.58 -0.196695 3.44539 0
M  V30 22479 C 2102.69 0.798779 4.24551 0
M  V30 22480 C 2101.83 0.0742204 5.31148 0
M  V30 22481 C 2100.87 1.05952 6.0286 0
M  V30 22482 N 2100 0.364736 7.01152 0
M  V30 22483 H 2104.84 1.37074 2.64603 0
M  V30 22484 H 2102.38 0.687058 1.30069 0
M  V30 22485 H 2104.34 -0.619443 4.12576 0
M  V30 22486 H 2102.97 -1.02775 3.06002 0
M  V30 22487 H 2102.02 1.33995 3.56019 0
M  V30 22488 H 2103.33 1.54998 4.74107 0
M  V30 22489 H 2102.49 -0.40635 6.05338 0
M  V30 22490 H 2101.22 -0.709647 4.82509 0
M  V30 22491 H 2100.23 1.55093 5.27471 0
M  V30 22492 H 2101.45 1.8439 6.53588 0
M  V30 22493 H 2099.4 -0.400091 6.54779 0
M  V30 22494 H 2099.32 1.05474 7.48606 0
M  V30 22495 H 2100.59 -0.0937508 7.79444 0
M  V30 22496 N 2104.81 -1.39054 0.741747 0
M  V30 22497 C 2106.09 -1.94374 0.218671 0
M  V30 22498 C 2106.47 -1.67801 -1.28086 0
M  V30 22499 O 2105.82 -1.00997 -2.04968 0
M  V30 22500 C 2106.03 -3.44485 0.559566 0
M  V30 22501 C 2107.38 -4.21494 0.512635 0
M  V30 22502 O 2108.4 -3.52713 0.497155 0
M  V30 22503 O 2107.26 -5.44086 0.513112 0
M  V30 22504 H 2104.35 -0.825923 0.0421827 0
M  V30 22505 H 2106.9 -1.48515 0.821064 0
M  V30 22506 H 2105.67 -3.57287 1.59567 0
M  V30 22507 H 2105.3 -3.97536 -0.0714489 0
M  V30 22508 N 2106.29 -0.489897 -1.49792 0
M  V30 22509 C 2107.52 0.0578875 -2.07319 0
M  V30 22510 C 2107.94 1.31067 -1.34919 0
M  V30 22511 O 2107.3 1.76775 -0.402515 0
M  V30 22512 C 2107.35 0.305835 -3.59301 0
M  V30 22513 O 2106.45 1.38274 -3.88528 0
M  V30 22514 H 2105.79 -0.021301 -0.663658 0
M  V30 22515 H 2108.32 -0.686335 -1.92745 0
M  V30 22516 H 2108.33 0.540697 -4.04401 0
M  V30 22517 H 2107.01 -0.609525 -4.11409 0
M  V30 22518 H 2105.59 1.13371 -3.55248 0
M  V30 22519 N 2107.77 1.56011 -0.223262 0
M  V30 22520 C 2109.02 1.97956 0.407171 0
M  V30 22521 C 2109.34 1.11219 1.60173 0
M  V30 22522 O 2108.61 0.189604 1.9498 0
M  V30 22523 H 2107.19 0.731075 0.153424 0
M  V30 22524 H 2109.85 1.92312 -0.316554 0
M  V30 22525 H 2108.95 3.03386 0.732342 0
M  V30 22526 N 2109.25 -0.0501116 1.5752 0
M  V30 22527 C 2110.49 -0.7462 1.88573 0
M  V30 22528 C 2110.83 -1.76115 0.818369 0
M  V30 22529 O 2110.1 -1.93764 -0.169013 0
M  V30 22530 C 2110.39 -1.43474 3.30284 0
M  V30 22531 C 2110.24 -0.434736 4.47694 0
M  V30 22532 C 2111.56 -2.37419 3.70568 0
M  V30 22533 H 2108.68 -0.269807 0.685838 0
M  V30 22534 H 2111.32 -0.00912382 1.89998 0
M  V30 22535 H 2109.47 -2.06301 3.29199 0
M  V30 22536 H 2111.14 0.189992 4.60909 0
M  V30 22537 H 2109.38 0.24799 4.33091 0
M  V30 22538 H 2110.05 -0.954564 5.43684 0
M  V30 22539 H 2112.53 -1.84653 3.72884 0
M  V30 22540 H 2111.41 -2.82587 4.7057 0
M  V30 22541 H 2111.67 -3.2318 3.01674 0
M  V30 22542 N 2110.73 -1.54276 -0.321972 0
M  V30 22543 C 2111.66 -1.80114 -1.41745 0
M  V30 22544 C 2112.67 -0.683177 -1.47772 0
M  V30 22545 O 2113.86 -0.960312 -1.50467 0
M  V30 22546 C 2110.96 -1.90532 -2.80269 0
M  V30 22547 C 2110.13 -3.20712 -2.97427 0
M  V30 22548 C 2109.19 -3.21811 -4.16322 0
M  V30 22549 O 2108.22 -3.95443 -4.09406 0
M  V30 22550 N 2109.42 -2.45708 -5.25935 0
M  V30 22551 H 2112.19 -2.74652 -1.19943 0
M  V30 22552 H 2109.75 -1.53592 -0.511965 0
M  V30 22553 H 2111.74 -1.88693 -3.58018 0
M  V30 22554 H 2110.31 -1.03083 -2.95115 0
M  V30 22555 H 2109.53 -3.35498 -2.06965 0
M  V30 22556 H 2110.82 -4.0666 -3.05786 0
M  V30 22557 H 2110.21 -1.85477 -5.34429 0
M  V30 22558 H 2108.77 -2.49645 -6.02097 0
M  V30 22559 N 2112.2 0.584116 -1.46376 0
M  V30 22560 C 2113.11 1.72116 -1.59415 0
M  V30 22561 C 2114.13 1.67314 -0.477692 0
M  V30 22562 O 2115.31 1.87248 -0.74162 0
M  V30 22563 C 2112.37 3.08617 -1.57975 0
M  V30 22564 C 2111.43 3.24694 -2.80842 0
M  V30 22565 C 2110.67 4.54683 -2.79462 0
M  V30 22566 O 2110.89 5.38484 -1.88126 0
M  V30 22567 O 2109.82 4.73977 -3.70985 0
M  V30 22568 H 2113.65 1.64062 -2.55572 0
M  V30 22569 H 2111.23 0.750995 -1.29153 0
M  V30 22570 H 2113.12 3.899 -1.59863 0
M  V30 22571 H 2111.79 3.17111 -0.649775 0
M  V30 22572 H 2110.7 2.4291 -2.84509 0
M  V30 22573 H 2112.03 3.2109 -3.73044 0
M  V30 22574 N 2113.68 1.34058 0.828631 0
M  V30 22575 C 2114.91 1.29306 1.62156 0
M  V30 22576 C 2115.33 -0.131256 1.87641 0
M  V30 22577 O 2114.69 -1.09118 1.44786 0
M  V30 22578 C 2114.74 2.08394 2.94286 0
M  V30 22579 O 2113.84 1.44955 3.86085 0
M  V30 22580 H 2113.18 0.444364 0.493393 0
M  V30 22581 H 2115.71 1.76775 1.03014 0
M  V30 22582 H 2115.72 2.19539 3.43899 0
M  V30 22583 H 2114.4 3.11953 2.7506 0
M  V30 22584 H 2112.98 1.42518 3.44591 0
M  V30 22585 N 2115.16 -1.04814 1.17694 0
M  V30 22586 C 2116.39 -1.82088 0.992908 0
M  V30 22587 C 2116.81 -1.82538 -0.454023 0
M  V30 22588 O 2116.17 -1.23716 -1.3253 0
M  V30 22589 C 2116.22 -3.25912 1.54318 0
M  V30 22590 O 2115.32 -4.05346 0.759486 0
M  V30 22591 H 2114.66 -0.562852 0.352268 0
M  V30 22592 H 2117.19 -1.32054 1.56279 0
M  V30 22593 H 2117.2 -3.76705 1.56708 0
M  V30 22594 H 2115.88 -3.24899 2.59641 0
M  V30 22595 H 2114.45 -3.64056 0.807298 0
M  V30 22596 N 2116.64 -0.977779 -1.23601 0
M  V30 22597 C 2117.59 -0.487047 -2.22737 0
M  V30 22598 C 2118.57 0.436492 -1.54866 0
M  V30 22599 O 2119.77 0.265773 -1.74993 0
M  V30 22600 C 2116.89 0.211764 -3.42646 0
M  V30 22601 C 2115.98 -0.731191 -4.17749 0
M  V30 22602 N 2116.37 -1.87271 -4.69854 0
M  V30 22603 C 2114.67 -0.543993 -4.4267 0
M  V30 22604 C 2115.37 -2.46334 -5.26967 0
M  V30 22605 N 2114.35 -1.74748 -5.14747 0
M  V30 22606 H 2118.15 -1.35789 -2.6065 0
M  V30 22607 H 2115.66 -0.838125 -1.39101 0
M  V30 22608 H 2117.66 0.580616 -4.12837 0
M  V30 22609 H 2116.32 1.07893 -3.0625 0
M  V30 22610 H 2117.33 -2.25397 -4.66279 0
M  V30 22611 H 2114.01 0.278366 -4.16571 0
M  V30 22612 H 2115.4 -3.42722 -5.7792 0
M  V30 22613 N 2118.12 1.38658 -0.749111 0
M  V30 22614 C 2119.36 2.00216 -0.303277 0
M  V30 22615 C 2119.69 1.59459 1.1137 0
M  V30 22616 O 2118.95 0.821377 1.77628 0
M  V30 22617 C 2119.25 3.55494 -0.368653 0
M  V30 22618 C 2118.91 4.15948 -1.74064 0
M  V30 22619 C 2117.57 4.32173 -2.11613 0
M  V30 22620 C 2119.93 4.49344 -2.64083 0
M  V30 22621 C 2117.25 4.79088 -3.38661 0
M  V30 22622 C 2119.61 4.97674 -3.90517 0
M  V30 22623 C 2118.27 5.12106 -4.2814 0
M  V30 22624 H 2117.54 0.732643 -0.110977 0
M  V30 22625 H 2120.19 1.65774 -0.958716 0
M  V30 22626 H 2118.49 3.90046 0.370354 0
M  V30 22627 H 2120.19 4.01 -0.00534235 0
M  V30 22628 H 2116.78 4.0373 -1.43875 0
M  V30 22629 H 2120.96 4.36414 -2.3634 0
M  V30 22630 H 2116.22 4.88447 -3.67735 0
M  V30 22631 H 2120.39 5.22485 -4.60415 0
M  V30 22632 H 2118.02 5.4822 -5.26649 0
M  V30 22633 N 2119.6 0.497834 1.49531 0
M  V30 22634 C 2120.53 -0.271671 2.31914 0
M  V30 22635 C 2121.51 -0.965521 1.40042 0
M  V30 22636 O 2122.69 -0.957536 1.68952 0
M  V30 22637 C 2119.82 -1.3384 3.20475 0
M  V30 22638 C 2118.78 -0.76461 4.21115 0
M  V30 22639 C 2118.1 -1.93162 4.98591 0
M  V30 22640 C 2119.4 0.242201 5.21738 0
M  V30 22641 H 2121.1 0.415979 2.96496 0
M  V30 22642 H 2118.64 0.201496 1.42583 0
M  V30 22643 H 2120.59 -1.88442 3.76918 0
M  V30 22644 H 2119.32 -2.05519 2.5383 0
M  V30 22645 H 2117.98 -0.240359 3.65811 0
M  V30 22646 H 2117.63 -2.63602 4.28396 0
M  V30 22647 H 2117.33 -1.55378 5.66685 0
M  V30 22648 H 2118.85 -2.48204 5.57877 0
M  V30 22649 H 2120.26 -0.215575 5.72895 0
M  V30 22650 H 2118.66 0.535707 5.97704 0
M  V30 22651 H 2119.73 1.15916 4.70841 0
M  V30 22652 N 2121.07 -1.5589 0.231532 0
M  V30 22653 C 2122.01 -2.18025 -0.70695 0
M  V30 22654 C 2123.02 -1.15214 -1.1502 0
M  V30 22655 O 2124.21 -1.42149 -1.07963 0
M  V30 22656 C 2121.31 -2.75714 -1.97066 0
M  V30 22657 C 2120.48 -4.03794 -1.68135 0
M  V30 22658 C 2119.54 -4.4595 -2.79312 0
M  V30 22659 O 2118.57 -5.12645 -2.47354 0
M  V30 22660 N 2119.77 -4.12459 -4.08483 0
M  V30 22661 H 2122.53 -2.99186 -0.175389 0
M  V30 22662 H 2120.09 -1.6182 0.0509009 0
M  V30 22663 H 2122.09 -3.00882 -2.70652 0
M  V30 22664 H 2120.66 -1.98799 -2.41242 0
M  V30 22665 H 2119.88 -3.86377 -0.781436 0
M  V30 22666 H 2121.16 -4.87328 -1.46251 0
M  V30 22667 H 2120.56 -3.58884 -4.37286 0
M  V30 22668 H 2119.12 -4.42496 -4.78581 0
M  V30 22669 N 2122.55 0.0417572 -1.57545 0
M  V30 22670 C 2123.8 0.733648 -1.88314 0
M  V30 22671 C 2124.12 1.76568 -0.827577 0
M  V30 22672 O 2123.39 1.95397 0.140345 0
M  V30 22673 H 2121.97 0.273952 -0.694953 0
M  V30 22674 H 2124.63 0.010717 -1.94897 0
M  V30 22675 H 2123.73 1.23116 -2.8679 0
M  V30 22676 N 2124.03 1.54445 0.313786 0
M  V30 22677 C 2124.99 1.8378 1.36959 0
M  V30 22678 C 2125.99 0.710053 1.44274 0
M  V30 22679 O 2127.18 0.978359 1.44131 0
M  V30 22680 C 2124.31 2.00661 2.75586 0
M  V30 22681 H 2125.51 2.78122 1.12197 0
M  V30 22682 H 2123.06 1.46311 0.549789 0
M  V30 22683 H 2123.8 1.08564 3.05589 0
M  V30 22684 H 2123.58 2.82734 2.71669 0
M  V30 22685 H 2125.07 2.24771 3.51948 0
M  V30 22686 N 2125.51 -0.576345 1.46683 0
M  V30 22687 C 2126.45 -1.68494 1.57729 0
M  V30 22688 C 2127.42 -1.6067 0.421246 0
M  V30 22689 O 2128.61 -1.79788 0.638829 0
M  V30 22690 C 2125.75 -3.0683 1.57953 0
M  V30 22691 C 2124.86 -3.25233 2.84337 0
M  V30 22692 C 2124 -4.53855 2.76024 0
M  V30 22693 C 2123.04 -4.65623 3.97319 0
M  V30 22694 N 2122.17 -5.85578 3.87354 0
M  V30 22695 H 2127.01 -1.58391 2.52421 0
M  V30 22696 H 2124.55 -0.771863 1.25223 0
M  V30 22697 H 2126.51 -3.86909 1.56068 0
M  V30 22698 H 2125.14 -3.15815 0.667889 0
M  V30 22699 H 2124.19 -2.38715 2.96174 0
M  V30 22700 H 2125.5 -3.29795 3.74215 0
M  V30 22701 H 2124.66 -5.4217 2.72281 0
M  V30 22702 H 2123.4 -4.51741 1.83797 0
M  V30 22703 H 2122.4 -3.75724 4.01387 0
M  V30 22704 H 2123.63 -4.69511 4.90649 0
M  V30 22705 H 2121.57 -5.84449 2.97918 0
M  V30 22706 H 2121.49 -5.91436 4.70892 0
M  V30 22707 H 2122.76 -6.76306 3.87596 0
M  V30 22708 N 2126.99 -1.34495 -0.82151 0
M  V30 22709 C 2127.93 -1.26188 -1.93249 0
M  V30 22710 C 2128.9 -0.136822 -1.65536 0
M  V30 22711 O 2130.09 -0.318035 -1.88131 0
M  V30 22712 C 2127.23 -1.02467 -3.29537 0
M  V30 22713 C 2126.34 -2.2376 -3.69534 0
M  V30 22714 C 2125.48 -1.93311 -4.94777 0
M  V30 22715 C 2124.51 -3.10739 -5.27359 0
M  V30 22716 N 2123.65 -2.80164 -6.4378 0
M  V30 22717 H 2128.49 -2.21199 -1.99687 0
M  V30 22718 H 2126.03 -1.09974 -0.976936 0
M  V30 22719 H 2127.99 -0.867518 -4.08081 0
M  V30 22720 H 2126.62 -0.111236 -3.22608 0
M  V30 22721 H 2125.67 -2.50391 -2.86371 0
M  V30 22722 H 2126.98 -3.11491 -3.89583 0
M  V30 22723 H 2126.13 -1.7434 -5.81112 0
M  V30 22724 H 2124.87 -1.02842 -4.76733 0
M  V30 22725 H 2123.88 -3.30304 -4.39521 0
M  V30 22726 H 2125.1 -4.01988 -5.47341 0
M  V30 22727 H 2123.05 -1.92273 -6.2719 0
M  V30 22728 H 2122.97 -3.61428 -6.64007 0
M  V30 22729 H 2124.23 -2.647 -7.33181 0
M  V30 22730 N 2128.46 1.04188 -1.18248 0
M  V30 22731 C 2129.41 2.14282 -0.904765 0
M  V30 22732 C 2130.41 1.68865 0.134493 0
M  V30 22733 O 2131.61 1.79995 -0.013541 0
M  V30 22734 H 2127.99 0.699873 -0.275103 0
M  V30 22735 H 2129.96 2.34904 -1.84018 0
M  V30 22736 C 2128.71 3.44832 -0.445645 0
M  V30 22737 H 2128.03 3.80187 -1.23683 0
M  V30 22738 H 2129.47 4.23005 -0.29031 0
M  V30 22739 C 2127.93 3.26303 0.838325 0
M  V30 22740 O 2128.46 3.53774 1.90282 0
M  V30 22741 N 2126.67 2.79643 0.79045 0
M  V30 22742 H 2126.21 2.57488 -0.0760399 0
M  V30 22743 H 2126.17 2.67626 1.64996 0
M  V30 22744 N 2129.94 0.98432 1.23081 0
M  V30 22745 C 2130.89 0.520259 2.26707 0
M  V30 22746 C 2131.88 -0.424715 1.63989 0
M  V30 22747 O 2133.09 -0.298177 1.77513 0
M  V30 22748 H 2129.47 0.149826 0.736923 0
M  V30 22749 H 2131.44 1.40587 2.63207 0
M  V30 22750 C 2130.19 -0.157874 3.47341 0
M  V30 22751 H 2129.51 0.560186 3.95856 0
M  V30 22752 H 2130.95 -0.446157 4.21646 0
M  V30 22753 C 2129.41 -1.3904 3.0687 0
M  V30 22754 O 2129.94 -2.48637 3.15503 0
M  V30 22755 N 2128.14 -1.26249 2.61743 0
M  V30 22756 H 2127.69 -0.370736 2.54918 0
M  V30 22757 H 2127.65 -2.08824 2.35032 0
M  V30 22758 N 2131.42 -1.38259 0.756453 0
M  V30 22759 C 2132.35 -2.33042 0.146158 0
M  V30 22760 C 2133.33 -1.55012 -0.700373 0
M  V30 22761 O 2134.52 -1.83317 -0.640972 0
M  V30 22762 C 2131.65 -3.39202 -0.745585 0
M  V30 22763 C 2130.6 -4.28 -0.00155995 0
M  V30 22764 C 2129.93 -5.25041 -1.01174 0
M  V30 22765 C 2131.23 -5.09061 1.16852 0
M  V30 22766 H 2132.92 -2.84329 0.937934 0
M  V30 22767 H 2130.47 -1.36706 0.452478 0
M  V30 22768 H 2132.42 -4.04477 -1.18223 0
M  V30 22769 H 2131.14 -2.86405 -1.56971 0
M  V30 22770 H 2129.8 -3.64236 0.415692 0
M  V30 22771 H 2129.45 -4.68529 -1.83001 0
M  V30 22772 H 2129.15 -5.85307 -0.518554 0
M  V30 22773 H 2130.67 -5.93191 -1.44764 0
M  V30 22774 H 2132.09 -5.67559 0.809284 0
M  V30 22775 H 2130.49 -5.78577 1.59276 0
M  V30 22776 H 2131.56 -4.42631 1.98004 0
M  V30 22777 N 2132.9 -0.505757 -1.49264 0
M  V30 22778 C 2134.12 0.0358953 -2.07369 0
M  V30 22779 C 2134.55 1.29628 -1.36302 0
M  V30 22780 O 2133.91 1.76338 -0.421242 0
M  V30 22781 C 2133.95 0.267709 -3.59605 0
M  V30 22782 O 2133.06 1.34146 -3.89973 0
M  V30 22783 H 2132.4 -0.0283388 -0.663395 0
M  V30 22784 H 2134.93 -0.70674 -1.92006 0
M  V30 22785 H 2134.94 0.497774 -4.04952 0
M  V30 22786 H 2133.61 -0.653126 -4.1074 0
M  V30 22787 H 2132.19 1.09597 -3.56431 0
M  V30 22788 N 2134.38 1.55765 -0.239796 0
M  V30 22789 C 2135.31 2.24064 0.657067 0
M  V30 22790 C 2136.29 1.2185 1.18687 0
M  V30 22791 O 2137.47 1.50484 1.22753 0
M  V30 22792 C 2134.6 2.93465 1.8573 0
M  V30 22793 C 2133.56 4.02307 1.46057 0
M  V30 22794 C 2132.88 4.59097 2.74106 0
M  V30 22795 C 2134.18 5.18402 0.636932 0
M  V30 22796 H 2135.88 2.99272 0.0875675 0
M  V30 22797 H 2133.42 1.43943 0.0406772 0
M  V30 22798 H 2135.38 3.39943 2.49032 0
M  V30 22799 H 2134.1 2.15734 2.45207 0
M  V30 22800 H 2132.76 3.56588 0.850935 0
M  V30 22801 H 2132.41 3.78075 3.31766 0
M  V30 22802 H 2132.11 5.32566 2.48288 0
M  V30 22803 H 2133.63 5.08304 3.38318 0
M  V30 22804 H 2135.04 5.61149 1.17408 0
M  V30 22805 H 2133.44 5.98216 0.475092 0
M  V30 22806 H 2134.51 4.83617 -0.352445 0
M  V30 22807 N 2135.85 -0.0334016 1.57565 0
M  V30 22808 C 2136.82 -1.01998 2.05253 0
M  V30 22809 C 2137.82 -1.29303 0.955901 0
M  V30 22810 O 2139.01 -1.24379 1.21965 0
M  V30 22811 C 2136.14 -2.35395 2.4658 0
M  V30 22812 H 2137.33 -0.608136 2.93669 0
M  V30 22813 H 2134.89 -0.280124 1.53769 0
M  V30 22814 H 2135.62 -2.81337 1.61307 0
M  V30 22815 H 2135.41 -2.16908 3.26639 0
M  V30 22816 H 2136.9 -3.06235 2.83918 0
M  V30 22817 N 2137.33 -1.54609 -0.305591 0
M  V30 22818 C 2138.58 -1.72882 -1.03898 0
M  V30 22819 C 2138.89 -0.519195 -1.88583 0
M  V30 22820 O 2140.1 -0.583633 -2.65153 0
M  V30 22821 C 2138.56 -3.05853 -1.89689 0
M  V30 22822 C 2138.16 -4.34278 -1.10029 0
M  V30 22823 C 2139.91 -3.33485 -2.62656 0
M  V30 22824 C 2137.82 -5.58302 -1.9507 0
M  V30 22825 H 2136.75 -0.64432 -0.391621 0
M  V30 22826 H 2139.4 -1.81093 -0.296223 0
M  V30 22827 H 2137.78 -2.91594 -2.67935 0
M  V30 22828 H 2138.95 -4.59358 -0.364293 0
M  V30 22829 H 2137.27 -4.13546 -0.486653 0
M  V30 22830 H 2139.86 -4.23345 -3.26624 0
M  V30 22831 H 2140.21 -2.52157 -3.31244 0
M  V30 22832 H 2140.74 -3.48694 -1.91462 0
M  V30 22833 H 2137.48 -6.42285 -1.3096 0
M  V30 22834 H 2137 -5.37415 -2.66355 0
M  V30 22835 H 2138.68 -5.95386 -2.53228 0
M  V30 22836 N 2138.81 0.568558 -1.46987 0
M  V30 22837 C 2139.74 1.68651 -1.61491 0
M  V30 22838 C 2140.72 1.63629 -0.464706 0
M  V30 22839 O 2141.91 1.81427 -0.692676 0
M  V30 22840 C 2139.04 3.07294 -1.61826 0
M  V30 22841 C 2137.99 3.27156 -2.75959 0
M  V30 22842 C 2137.32 4.6647 -2.61361 0
M  V30 22843 C 2138.62 3.13623 -4.17658 0
M  V30 22844 H 2140.31 1.56769 -2.55076 0
M  V30 22845 H 2137.86 0.752771 -1.22757 0
M  V30 22846 H 2139.81 3.85338 -1.70565 0
M  V30 22847 H 2138.53 3.20108 -0.647937 0
M  V30 22848 H 2137.19 2.51516 -2.66712 0
M  V30 22849 H 2136.84 4.76069 -1.62381 0
M  V30 22850 H 2136.54 4.8071 -3.37923 0
M  V30 22851 H 2138.06 5.46664 -2.72012 0
M  V30 22852 H 2139.48 3.81497 -4.27941 0
M  V30 22853 H 2137.88 3.39378 -4.94917 0
M  V30 22854 H 2138.95 2.10514 -4.3682 0
M  V30 22855 N 2140.29 1.34929 0.814366 0
M  V30 22856 C 2141.52 1.30863 1.60257 0
M  V30 22857 C 2141.93 -0.11553 1.88446 0
M  V30 22858 O 2141.29 -1.06518 1.4819 0
M  V30 22859 C 2141.34 2.10565 2.93845 0
M  V30 22860 O 2141.06 3.47427 2.66882 0
M  V30 22861 C 2142.56 2.13994 3.88228 0
M  V30 22862 H 2139.78 0.449849 0.497872 0
M  V30 22863 H 2142.33 1.77669 1.01262 0
M  V30 22864 H 2140.48 1.67378 3.49376 0
M  V30 22865 H 2140.89 3.88729 3.52122 0
M  V30 22866 H 2142.37 2.74168 4.79099 0
M  V30 22867 H 2142.85 1.13661 4.24238 0
M  V30 22868 H 2143.45 2.57308 3.38634 0
M  V30 22869 N 2141.77 -1.0356 1.18799 0
M  V30 22870 C 2142.7 -2.13602 0.943213 0
M  V30 22871 C 2143.68 -1.69669 -0.120965 0
M  V30 22872 O 2144.86 -1.94173 0.0326748 0
M  V30 22873 C 2141.99 -3.44054 0.473716 0
M  V30 22874 C 2140.95 -4.01635 1.47896 0
M  V30 22875 C 2140.27 -5.27628 0.866789 0
M  V30 22876 C 2141.57 -4.3722 2.8572 0
M  V30 22877 H 2143.27 -2.34336 1.86351 0
M  V30 22878 H 2140.81 -1.12617 0.897406 0
M  V30 22879 H 2142.77 -4.20402 0.289804 0
M  V30 22880 H 2141.49 -3.23021 -0.482167 0
M  V30 22881 H 2140.15 -3.27374 1.6499 0
M  V30 22882 H 2139.8 -5.02908 -0.0964386 0
M  V30 22883 H 2139.5 -5.67115 1.53799 0
M  V30 22884 H 2141.02 -6.06649 0.693523 0
M  V30 22885 H 2142.43 -5.04533 2.72248 0
M  V30 22886 H 2140.83 -4.87771 3.49571 0
M  V30 22887 H 2141.9 -3.46821 3.38885 0
M  V30 22888 N 2143.25 -0.990834 -1.22557 0
M  V30 22889 C 2144.16 -0.548263 -2.28104 0
M  V30 22890 C 2145.17 0.401961 -1.69293 0
M  V30 22891 O 2146.35 0.269304 -1.99591 0
M  V30 22892 C 2143.41 0.132121 -3.46448 0
M  V30 22893 C 2142.47 -0.860806 -4.20581 0
M  V30 22894 C 2141.71 -0.212796 -5.33276 0
M  V30 22895 O 2141.93 0.993773 -5.61676 0
M  V30 22896 O 2140.86 -0.916619 -5.9488 0
M  V30 22897 H 2144.69 -1.4263 -2.68124 0
M  V30 22898 H 2142.27 -0.758979 -1.28685 0
M  V30 22899 H 2144.16 0.513325 -4.18262 0
M  V30 22900 H 2142.83 0.984754 -3.08357 0
M  V30 22901 H 2141.74 -1.2929 -3.51048 0
M  V30 22902 H 2143.07 -1.68257 -4.62548 0
M  V30 22903 N 2144.72 1.37856 -0.763775 0
M  V30 22904 C 2145.66 2.28018 -0.0911161 0
M  V30 22905 C 2146.63 1.4591 0.717575 0
M  V30 22906 O 2147.82 1.75258 0.694038 0
M  V30 22907 C 2144.95 3.27136 0.877477 0
M  V30 22908 C 2143.99 4.26223 0.153768 0
M  V30 22909 S 2144.82 5.22948 -1.15262 0
M  V30 22910 C 2145.98 6.2562 -0.187359 0
M  V30 22911 H 2146.21 2.84721 -0.855658 0
M  V30 22912 H 2143.75 1.44011 -0.556806 0
M  V30 22913 H 2145.7 3.84752 1.43094 0
M  V30 22914 H 2144.37 2.69396 1.61507 0
M  V30 22915 H 2143.56 4.9612 0.887733 0
M  V30 22916 H 2143.16 3.72555 -0.328467 0
M  V30 22917 H 2145.45 6.74441 0.64307 0
M  V30 22918 H 2146.4 7.02928 -0.854282 0
M  V30 22919 H 2146.8 5.64153 0.19788 0
M  V30 22920 N 2146.2 0.513665 1.48994 0
M  V30 22921 C 2147.43 -0.0227686 2.06887 0
M  V30 22922 C 2147.84 -1.29658 1.37238 0
M  V30 22923 O 2147.2 -1.76745 0.454679 0
M  V30 22924 C 2147.25 -0.267284 3.60511 0
M  V30 22925 O 2146.97 0.956043 4.27541 0
M  V30 22926 C 2148.47 -0.845937 4.35154 0
M  V30 22927 H 2145.69 0.0261591 0.67049 0
M  V30 22928 H 2148.24 0.714646 1.91607 0
M  V30 22929 H 2146.39 -0.954707 3.75452 0
M  V30 22930 H 2146.81 0.726684 5.19442 0
M  V30 22931 H 2148.28 -0.966539 5.43472 0
M  V30 22932 H 2148.76 -1.84687 3.98481 0
M  V30 22933 H 2149.36 -0.19559 4.2485 0
M  V30 22934 N 2147.68 -1.55636 0.248053 0
M  V30 22935 C 2148.93 -1.98579 -0.375626 0
M  V30 22936 C 2149.25 -1.13753 -1.58383 0
M  V30 22937 O 2148.52 -0.2206 -1.94654 0
M  V30 22938 H 2147.1 -0.733423 -0.141773 0
M  V30 22939 H 2149.76 -1.91784 0.34711 0
M  V30 22940 H 2148.86 -3.04513 -0.683983 0
M  V30 22941 N 2149.16 0.0250451 -1.5758 0
M  V30 22942 C 2150.43 0.750684 -1.80621 0
M  V30 22943 C 2150.81 1.93359 -0.847083 0
M  V30 22944 O 2150.16 2.28236 0.109857 0
M  V30 22945 C 2150.37 1.17995 -3.28448 0
M  V30 22946 C 2151.72 1.5942 -3.93536 0
M  V30 22947 O 2152.74 1.27442 -3.32621 0
M  V30 22948 O 2151.6 2.18788 -5.00793 0
M  V30 22949 H 2148.7 0.363355 -0.742901 0
M  V30 22950 H 2151.24 0.00151411 -1.697 0
M  V30 22951 H 2150.02 0.335683 -3.89857 0
M  V30 22952 H 2149.64 1.98901 -3.44273 0
M  V30 22953 N 2150.64 1.54769 0.297388 0
M  V30 22954 C 2151.57 1.82346 1.38861 0
M  V30 22955 C 2152.58 0.7066 1.46666 0
M  V30 22956 O 2153.77 0.984128 1.4892 0
M  V30 22957 C 2150.87 1.94966 2.77203 0
M  V30 22958 C 2150.04 3.25403 2.92287 0
M  V30 22959 C 2149.1 3.28394 4.1115 0
M  V30 22960 O 2148.13 4.01906 4.03063 0
M  V30 22961 N 2149.33 2.54044 5.2196 0
M  V30 22962 H 2152.09 2.76526 1.15558 0
M  V30 22963 H 2149.66 1.54387 0.487465 0
M  V30 22964 H 2151.65 1.94365 3.54971 0
M  V30 22965 H 2150.22 1.07765 2.93437 0
M  V30 22966 H 2149.44 3.38748 2.01602 0
M  V30 22967 H 2150.73 4.11473 2.99278 0
M  V30 22968 H 2150.12 1.93956 5.31411 0
M  V30 22969 H 2148.68 2.59192 5.98049 0
M  V30 22970 N 2152.11 -0.560755 1.47286 0
M  V30 22971 C 2153.53 -0.886333 1.32726 0
M  V30 22972 C 2153.73 -1.99021 0.31509 0
M  V30 22973 O 2152.79 -2.51002 -0.274638 0
M  V30 22974 C 2154.1 -1.28292 2.71959 0
M  V30 22975 C 2155.65 -1.39455 2.80217 0
M  V30 22976 C 2156.12 -1.8247 4.20082 0
M  V30 22977 N 2157.61 -1.89627 4.22606 0
M  V30 22978 C 2158.35 -2.24232 5.27738 0
M  V30 22979 N 2157.84 -2.57475 6.43178 0
M  V30 22980 N 2159.64 -2.24975 5.15114 0
M  V30 22981 H 2151.79 0.168088 2.11734 0
M  V30 22982 H 2154.05 0.0125326 0.947917 0
M  V30 22983 H 2153.76 -0.545664 3.47441 0
M  V30 22984 H 2153.63 -2.23983 3.03499 0
M  V30 22985 H 2156.02 -2.12262 2.05009 0
M  V30 22986 H 2156.1 -0.419601 2.52335 0
M  V30 22987 H 2155.74 -1.10234 4.95793 0
M  V30 22988 H 2155.67 -2.80962 4.45385 0
M  V30 22989 H 2158.16 -1.66337 3.39323 0
M  V30 22990 H 2158.48 -2.82897 7.19159 0
M  V30 22991 H 2156.82 -2.55063 6.46504 0
M  V30 22992 H 2160.01 -1.98441 4.23956 0
M  V30 22993 H 2160.19 -2.51614 5.97155 0
M  V30 22994 N 2153.59 -1.35359 -0.807199 0
M  V30 22995 C 2154.5 -1.30342 -1.9506 0
M  V30 22996 C 2155.52 -0.208425 -1.72747 0
M  V30 22997 O 2156.69 -0.437692 -1.96586 0
M  V30 22998 C 2153.76 -1.07437 -3.29633 0
M  V30 22999 C 2152.82 -2.26243 -3.64846 0
M  V30 23000 C 2152.05 -2.04423 -4.92998 0
M  V30 23001 O 2152.28 -1.01037 -5.6138 0
M  V30 23002 O 2151.21 -2.91769 -5.26455 0
M  V30 23003 H 2155.04 -2.26568 -2.02239 0
M  V30 23004 H 2152.62 -1.15724 -0.944893 0
M  V30 23005 H 2154.5 -0.9651 -4.102 0
M  V30 23006 H 2153.18 -0.142618 -3.23386 0
M  V30 23007 H 2152.08 -2.42735 -2.84659 0
M  V30 23008 H 2153.42 -3.17864 -3.75797 0
M  V30 23009 N 2155.07 1.02928 -1.19346 0
M  V30 23010 C 2156.32 1.76582 -0.997324 0
M  V30 23011 C 2156.65 1.88407 0.470801 0
M  V30 23012 O 2155.92 1.40057 1.34961 0
M  V30 23013 C 2156.21 3.19219 -1.66647 0
M  V30 23014 C 2156.06 3.15268 -3.20822 0
M  V30 23015 C 2157.38 4.17602 -1.38912 0
M  V30 23016 H 2154.5 0.640995 -0.363722 0
M  V30 23017 H 2157.14 1.20159 -1.4718 0
M  V30 23018 H 2155.29 3.67395 -1.26306 0
M  V30 23019 H 2156.96 2.74993 -3.70374 0
M  V30 23020 H 2155.2 2.52994 -3.52387 0
M  V30 23021 H 2155.88 4.1604 -3.62788 0
M  V30 23022 H 2158.35 3.78025 -1.73887 0
M  V30 23023 H 2157.23 5.15597 -1.88283 0
M  V30 23024 H 2157.49 4.40982 -0.314198 0
M  V30 23025 N 2156.55 0.997319 1.2203 0
M  V30 23026 C 2157.8 0.674331 1.90518 0
M  V30 23027 C 2158.12 -0.796582 1.77988 0
M  V30 23028 O 2157.39 -1.57133 1.16988 0
M  V30 23029 H 2155.97 0.246427 0.705183 0
M  V30 23030 H 2158.63 1.26478 1.48288 0
M  V30 23031 H 2157.72 0.940744 2.97584 0
M  V30 23032 N 2158.03 -1.37449 0.771075 0
M  V30 23033 C 2159.25 -2.04506 0.345245 0
M  V30 23034 C 2159.68 -1.57774 -1.02415 0
M  V30 23035 O 2159.03 -0.737677 -1.65614 0
M  V30 23036 C 2159.08 -3.58411 0.396728 0
M  V30 23037 O 2158.19 -4.07967 -0.60306 0
M  V30 23038 H 2157.53 -0.64693 0.149593 0
M  V30 23039 H 2160.06 -1.75777 1.04708 0
M  V30 23040 H 2160.07 -4.0721 0.253784 0
M  V30 23041 H 2158.74 -3.9178 1.39576 0
M  V30 23042 H 2157.32 -3.7049 -0.423289 0
M  V30 23043 N 2159.5 -0.52156 -1.4872 0
M  V30 23044 C 2160.43 0.234741 -2.32317 0
M  V30 23045 C 2161.42 0.943119 -1.4156 0
M  V30 23046 O 2162.6 0.930536 -1.70454 0
M  V30 23047 C 2159.73 1.28724 -3.22564 0
M  V30 23048 C 2158.68 0.697518 -4.22278 0
M  V30 23049 C 2158.01 1.85205 -5.016 0
M  V30 23050 C 2159.31 -0.325174 -5.21287 0
M  V30 23051 H 2161 -0.463097 -2.95797 0
M  V30 23052 H 2158.55 -0.224154 -1.42245 0
M  V30 23053 H 2160.5 1.82422 -3.79869 0
M  V30 23054 H 2159.23 2.01455 -2.57067 0
M  V30 23055 H 2157.89 0.182131 -3.66147 0
M  V30 23056 H 2157.53 2.56754 -4.32535 0
M  V30 23057 H 2157.23 1.46343 -5.69085 0
M  V30 23058 H 2158.76 2.39297 -5.61755 0
M  V30 23059 H 2160.17 0.124406 -5.73165 0
M  V30 23060 H 2158.57 -0.630729 -5.96776 0
M  V30 23061 H 2159.64 -1.23392 -4.68938 0
M  V30 23062 N 2160.98 1.55502 -0.256304 0
M  V30 23063 C 2162.23 1.98775 0.36509 0
M  V30 23064 C 2162.55 1.14592 1.57778 0
M  V30 23065 O 2161.82 0.23092 1.94534 0
M  V30 23066 H 2160.4 0.734165 0.137882 0
M  V30 23067 H 2163.06 1.91597 -0.357276 0
M  V30 23068 H 2162.16 3.04871 0.667825 0
M  V30 23069 N 2162.46 -0.0166879 1.57591 0
M  V30 23070 C 2163.69 -0.716426 1.941 0
M  V30 23071 C 2164.1 -1.68225 0.857081 0
M  V30 23072 O 2163.46 -1.81748 -0.165469 0
M  V30 23073 C 2163.51 -1.46279 3.30583 0
M  V30 23074 O 2163.23 -0.535718 4.34812 0
M  V30 23075 C 2164.73 -2.25856 3.8145 0
M  V30 23076 H 2161.95 -0.200593 0.640315 0
M  V30 23077 H 2164.5 0.0294696 2.04479 0
M  V30 23078 H 2162.65 -2.16045 3.21564 0
M  V30 23079 H 2163.07 -1.06046 5.13668 0
M  V30 23080 H 2164.54 -2.73602 4.79423 0
M  V30 23081 H 2165.02 -3.07813 3.13285 0
M  V30 23082 H 2165.62 -1.61139 3.93592 0
M  V30 23083 N 2163.94 -1.54924 -0.289176 0
M  V30 23084 C 2165.16 -1.791 -1.04585 0
M  V30 23085 C 2165.59 -0.55455 -1.7974 0
M  V30 23086 O 2164.95 0.495343 -1.74402 0
M  V30 23087 C 2164.99 -3.0053 -1.99283 0
M  V30 23088 O 2164.1 -2.74483 -3.07787 0
M  V30 23089 H 2163.44 -0.592442 -0.299847 0
M  V30 23090 H 2165.97 -2.02034 -0.323001 0
M  V30 23091 H 2165.98 -3.28824 -2.41534 0
M  V30 23092 H 2164.65 -3.90179 -1.4399 0
M  V30 23093 H 2163.23 -2.5724 -2.69966 0
M  V30 23094 N 2165.42 0.552936 -1.47582 0
M  V30 23095 C 2166.38 1.64175 -1.59936 0
M  V30 23096 C 2167.38 1.5365 -0.474152 0
M  V30 23097 O 2168.57 1.57732 -0.739338 0
M  V30 23098 C 2165.7 3.03732 -1.5479 0
M  V30 23099 H 2166.89 1.54569 -2.56999 0
M  V30 23100 H 2164.45 0.773198 -1.35836 0
M  V30 23101 H 2165.18 3.18866 -0.591183 0
M  V30 23102 H 2164.97 3.12779 -2.36456 0
M  V30 23103 H 2166.46 3.82936 -1.66582 0
M  V30 23104 N 2166.89 1.35785 0.800009 0
M  V30 23105 C 2168.12 1.32556 1.5886 0
M  V30 23106 C 2168.54 -0.0955366 1.88558 0
M  V30 23107 O 2167.89 -1.0494 1.49311 0
M  V30 23108 C 2167.95 2.13669 2.91595 0
M  V30 23109 O 2167.67 3.50238 2.63182 0
M  V30 23110 C 2169.17 2.181 3.85937 0
M  V30 23111 H 2166.39 0.455105 0.493073 0
M  V30 23112 H 2168.93 1.78733 0.993714 0
M  V30 23113 H 2167.09 1.71074 3.47581 0
M  V30 23114 H 2167.5 3.92442 3.47979 0
M  V30 23115 H 2168.97 2.79234 4.76164 0
M  V30 23116 H 2169.45 1.18154 4.23009 0
M  V30 23117 H 2170.06 2.60885 3.35886 0
M  V30 23118 N 2168.37 -1.02294 1.19891 0
M  V30 23119 C 2169.32 -2.12815 0.938741 0
M  V30 23120 C 2170.31 -1.69058 -0.107611 0
M  V30 23121 O 2171.52 -1.79951 0.042175 0
M  V30 23122 H 2167.9 -0.695408 0.286203 0
M  V30 23123 H 2169.87 -2.31946 1.87732 0
M  V30 23124 C 2168.62 -3.4408 0.500448 0
M  V30 23125 H 2167.94 -3.78172 1.29716 0
M  V30 23126 H 2169.38 -4.2249 0.357569 0
M  V30 23127 C 2167.84 -3.27596 -0.786307 0
M  V30 23128 O 2168.37 -3.56756 -1.84629 0
M  V30 23129 N 2166.57 -2.80865 -0.745861 0
M  V30 23130 H 2166.12 -2.57334 0.116994 0
M  V30 23131 H 2166.08 -2.70217 -1.60718 0
M  V30 23132 N 2169.85 -1.00378 -1.21499 0
M  V30 23133 C 2171.08 -0.704325 -1.95074 0
M  V30 23134 C 2171.5 0.726447 -1.73506 0
M  V30 23135 O 2170.86 1.49809 -1.02113 0
M  V30 23136 C 2170.91 -1.02938 -3.45595 0
M  V30 23137 O 2170.01 -0.133961 -4.12182 0
M  V30 23138 H 2169.35 -0.262537 -0.609894 0
M  V30 23139 H 2171.88 -1.34369 -1.54292 0
M  V30 23140 H 2171.89 -0.975727 -3.96161 0
M  V30 23141 H 2170.57 -2.0719 -3.60618 0
M  V30 23142 H 2169.14 -0.244034 -3.72101 0
M  V30 23143 N 2171.33 1.37038 -0.778354 0
M  V30 23144 C 2172.57 1.99823 -0.34619 0
M  V30 23145 C 2172.91 1.61643 1.07634 0
M  V30 23146 O 2172.18 0.865817 1.74166 0
M  V30 23147 C 2172.47 3.56649 -0.497307 0
M  V30 23148 C 2172.32 4.04718 -1.96273 0
M  V30 23149 C 2173.64 4.39999 0.0944148 0
M  V30 23150 H 2170.76 0.725929 -0.127262 0
M  V30 23151 H 2173.4 1.62617 -0.98263 0
M  V30 23152 H 2171.55 3.88475 0.0445004 0
M  V30 23153 H 2173.22 3.8343 -2.56475 0
M  V30 23154 H 2171.46 3.56667 -2.46924 0
M  V30 23155 H 2172.13 5.13732 -2.01949 0
M  V30 23156 H 2174.61 4.1447 -0.367956 0
M  V30 23157 H 2173.49 5.48884 -0.0414159 0
M  V30 23158 H 2173.75 4.25911 1.18542 0
M  V30 23159 N 2172.81 0.529439 1.48441 0
M  V30 23160 C 2174.04 -0.000824174 2.069 0
M  V30 23161 C 2174.45 -1.28195 1.38605 0
M  V30 23162 O 2173.81 -1.76253 0.4734 0
M  V30 23163 C 2173.86 -0.229032 3.60774 0
M  V30 23164 O 2173.58 1.00134 4.26503 0
M  V30 23165 C 2175.08 -0.799736 4.36027 0
M  V30 23166 H 2172.3 0.0332691 0.670175 0
M  V30 23167 H 2174.84 0.734929 1.90838 0
M  V30 23168 H 2173 -0.914832 3.76443 0
M  V30 23169 H 2173.41 0.781737 5.18642 0
M  V30 23170 H 2174.89 -0.908842 5.44467 0
M  V30 23171 H 2175.36 -1.8045 4.00418 0
M  V30 23172 H 2175.97 -0.150518 4.25034 0
M  V30 23173 N 2174.29 -1.55364 0.264547 0
M  V30 23174 C 2175.52 -2.03468 -0.358369 0
M  V30 23175 C 2175.92 -1.14268 -1.50796 0
M  V30 23176 O 2175.27 -0.153128 -1.83061 0
M  V30 23177 C 2175.33 -3.47753 -0.91149 0
M  V30 23178 C 2174.99 -4.56872 0.108107 0
M  V30 23179 C 2175.99 -5.11625 0.923909 0
M  V30 23180 C 2173.67 -5.0173 0.239295 0
M  V30 23181 C 2175.67 -6.09744 1.85719 0
M  V30 23182 C 2173.36 -5.99677 1.17606 0
M  V30 23183 C 2174.35 -6.53564 1.98352 0
M  V30 23184 O 2174.04 -7.49597 2.90446 0
M  V30 23185 H 2173.77 -0.670353 -0.0871916 0
M  V30 23186 H 2176.33 -2.01639 0.39126 0
M  V30 23187 H 2174.56 -3.46788 -1.711 0
M  V30 23188 H 2176.25 -3.79256 -1.44636 0
M  V30 23189 H 2177.01 -4.77789 0.833237 0
M  V30 23190 H 2172.89 -4.59438 -0.379168 0
M  V30 23191 H 2176.44 -6.5173 2.48785 0
M  V30 23192 H 2172.33 -6.32932 1.26759 0
M  V30 23193 H 2173.1 -7.67276 2.85008 0
M  V30 23194 N 2175.76 0.00833021 -1.57598 0
M  V30 23195 C 2176.71 1.00242 -2.07895 0
M  V30 23196 C 2177.68 1.34651 -0.972534 0
M  V30 23197 O 2178.87 1.44632 -1.24444 0
M  V30 23198 C 2176.01 2.2918 -2.58013 0
M  V30 23199 C 2175.12 2.00747 -3.82524 0
M  V30 23200 C 2174.25 3.23706 -4.21175 0
M  V30 23201 C 2173.29 2.90921 -5.38546 0
M  V30 23202 N 2172.43 4.06392 -5.72529 0
M  V30 23203 H 2177.27 0.566561 -2.92565 0
M  V30 23204 H 2174.81 0.268106 -1.44636 0
M  V30 23205 H 2176.76 3.04546 -2.85145 0
M  V30 23206 H 2175.39 2.7045 -1.76229 0
M  V30 23207 H 2174.45 1.15786 -3.6235 0
M  V30 23208 H 2175.76 1.72576 -4.67995 0
M  V30 23209 H 2174.91 4.07424 -4.49545 0
M  V30 23210 H 2173.65 3.55007 -3.34397 0
M  V30 23211 H 2172.66 2.05609 -5.09907 0
M  V30 23212 H 2173.88 2.60875 -6.26993 0
M  V30 23213 H 2171.83 4.37606 -4.88709 0
M  V30 23214 H 2171.74 3.81717 -6.52555 0
M  V30 23215 H 2173.01 4.90923 -6.05487 0
M  V30 23216 N 2177.24 1.55075 0.280956 0
M  V30 23217 C 2178.19 1.87409 1.34709 0
M  V30 23218 C 2179.16 0.72482 1.49451 0
M  V30 23219 O 2180.34 0.975348 1.63987 0
M  V30 23220 C 2177.48 2.14456 2.70375 0
M  V30 23221 C 2176.6 3.42009 2.6392 0
M  V30 23222 C 2175.73 3.58796 3.91713 0
M  V30 23223 C 2174.77 4.8007 3.79736 0
M  V30 23224 N 2173.91 4.93556 4.99346 0
M  V30 23225 H 2178.75 2.78344 1.06435 0
M  V30 23226 H 2176.28 1.37813 0.514379 0
M  V30 23227 H 2178.24 2.28135 3.493 0
M  V30 23228 H 2176.87 1.26764 2.96868 0
M  V30 23229 H 2175.92 3.36844 1.7675 0
M  V30 23230 H 2177.24 4.31065 2.50967 0
M  V30 23231 H 2176.39 3.7225 4.79077 0
M  V30 23232 H 2175.13 2.6791 4.07524 0
M  V30 23233 H 2174.13 4.66628 2.90754 0
M  V30 23234 H 2175.36 5.72383 3.65451 0
M  V30 23235 H 2173.31 4.05599 5.15582 0
M  V30 23236 H 2173.22 5.76645 4.88893 0
M  V30 23237 H 2174.49 5.11387 5.88305 0
M  V30 23238 N 2178.72 -0.545102 1.47873 0
M  V30 23239 C 2179.97 -1.30364 1.55348 0
M  V30 23240 C 2180.3 -1.92948 0.220182 0
M  V30 23241 O 2179.57 -1.78506 -0.772398 0
M  V30 23242 C 2179.86 -2.40454 2.68055 0
M  V30 23243 C 2179.71 -1.8266 4.11042 0
M  V30 23244 C 2181.03 -3.42314 2.76603 0
M  V30 23245 H 2178.15 -0.472628 0.565502 0
M  V30 23246 H 2180.79 -0.608798 1.79982 0
M  V30 23247 H 2178.94 -2.99722 2.47182 0
M  V30 23248 H 2180.61 -1.2756 4.43313 0
M  V30 23249 H 2178.85 -1.1327 4.18751 0
M  V30 23250 H 2179.53 -2.62302 4.85697 0
M  V30 23251 H 2182 -2.92981 2.95468 0
M  V30 23252 H 2180.88 -4.16757 3.57218 0
M  V30 23253 H 2181.14 -4.01923 1.84147 0
M  V30 23254 N 2180.2 -1.36208 -0.792797 0
M  V30 23255 C 2181.11 -1.32403 -1.93666 0
M  V30 23256 C 2182.12 -0.226736 -1.72516 0
M  V30 23257 O 2183.3 -0.458518 -1.96111 0
M  V30 23258 C 2180.36 -1.10928 -3.28475 0
M  V30 23259 C 2179.43 -2.301 -3.62426 0
M  V30 23260 C 2178.66 -2.0964 -4.90802 0
M  V30 23261 O 2178.88 -1.06985 -5.60277 0
M  V30 23262 O 2177.82 -2.97336 -5.23331 0
M  V30 23263 H 2181.64 -2.287 -1.99825 0
M  V30 23264 H 2179.23 -1.1672 -0.932566 0
M  V30 23265 H 2181.11 -1.00855 -4.09153 0
M  V30 23266 H 2179.78 -0.17691 -3.23216 0
M  V30 23267 H 2178.69 -2.45741 -2.82068 0
M  V30 23268 H 2180.02 -3.21832 -3.72405 0
M  V30 23269 N 2181.68 1.01656 -1.20431 0
M  V30 23270 C 2182.62 2.12315 -0.950014 0
M  V30 23271 C 2183.62 1.69113 0.0986435 0
M  V30 23272 O 2184.82 1.79926 -0.0517176 0
M  V30 23273 H 2181.2 0.69388 -0.289886 0
M  V30 23274 H 2183.17 2.30948 -1.8896 0
M  V30 23275 C 2181.92 3.43809 -0.518689 0
M  V30 23276 H 2181.24 3.77478 -1.3172 0
M  V30 23277 H 2182.68 4.22294 -0.37997 0
M  V30 23278 C 2181.14 3.28008 0.768922 0
M  V30 23279 O 2181.67 3.5773 1.82735 0
M  V30 23280 N 2179.88 2.81257 0.730955 0
M  V30 23281 H 2179.42 2.57269 -0.13064 0
M  V30 23282 H 2179.38 2.71065 1.59282 0
M  V30 23283 N 2183.15 1.01021 1.20965 0
M  V30 23284 C 2184.38 0.71488 1.94157 0
M  V30 23285 C 2184.8 -0.723393 1.74392 0
M  V30 23286 O 2184.15 -1.48999 1.05383 0
M  V30 23287 C 2184.2 1.033 3.46427 0
M  V30 23288 O 2183.93 2.41477 3.65541 0
M  V30 23289 C 2185.43 0.757815 4.36775 0
M  V30 23290 H 2182.65 0.263024 0.6173 0
M  V30 23291 H 2185.19 1.34966 1.53637 0
M  V30 23292 H 2183.35 0.443729 3.8485 0
M  V30 23293 H 2183.76 2.52743 4.59588 0
M  V30 23294 H 2185.23 1.03053 5.42295 0
M  V30 23295 H 2185.71 -0.308099 4.38118 0
M  V30 23296 H 2186.32 1.32894 4.04004 0
M  V30 23297 N 2184.63 -1.36623 0.78561 0
M  V30 23298 C 2185.88 -1.99637 0.356782 0
M  V30 23299 C 2186.21 -1.62212 -1.06775 0
M  V30 23300 O 2185.49 -0.875041 -1.73705 0
M  V30 23301 C 2185.77 -3.56381 0.516214 0
M  V30 23302 C 2185.62 -4.03672 1.98417 0
M  V30 23303 C 2186.94 -4.40043 -0.0710792 0
M  V30 23304 H 2184.06 -0.725244 0.13111 0
M  V30 23305 H 2186.7 -1.62094 0.99124 0
M  V30 23306 H 2184.85 -3.88493 -0.023898 0
M  V30 23307 H 2186.52 -3.82064 2.58505 0
M  V30 23308 H 2184.77 -3.55352 2.48812 0
M  V30 23309 H 2185.44 -5.12654 2.0467 0
M  V30 23310 H 2187.91 -4.14269 0.389931 0
M  V30 23311 H 2186.79 -5.48855 0.070524 0
M  V30 23312 H 2187.05 -4.26534 -1.16281 0
M  V30 23313 N 2186.11 -0.537304 -1.48158 0
M  V30 23314 C 2187.04 0.210088 -2.32553 0
M  V30 23315 C 2188.02 0.928052 -1.42552 0
M  V30 23316 O 2189.21 0.912405 -1.71432 0
M  V30 23317 C 2186.34 1.25296 -3.23911 0
M  V30 23318 C 2185.29 0.65269 -4.22994 0
M  V30 23319 C 2184.62 1.79875 -5.03537 0
M  V30 23320 C 2185.92 -0.380445 -5.20913 0
M  V30 23321 H 2187.61 -0.494444 -2.95289 0
M  V30 23322 H 2185.16 -0.239229 -1.41999 0
M  V30 23323 H 2187.11 1.78383 -3.81782 0
M  V30 23324 H 2185.83 1.98717 -2.59189 0
M  V30 23325 H 2184.49 0.143286 -3.6632 0
M  V30 23326 H 2184.14 2.52152 -4.35234 0
M  V30 23327 H 2183.84 1.40299 -5.70605 0
M  V30 23328 H 2185.36 2.33326 -5.64262 0
M  V30 23329 H 2186.78 0.0636068 -5.73265 0
M  V30 23330 H 2185.17 -0.693989 -5.96074 0
M  V30 23331 H 2186.24 -1.28359 -4.67602 0
M  V30 23332 N 2187.59 1.55221 -0.272782 0
M  V30 23333 C 2189 1.85334 0.225428 0
M  V30 23334 C 2189.35 1.19479 1.55625 0
M  V30 23335 O 2188.48 0.482291 2.10957 0
M  V30 23336 C 2189.07 3.36239 0.415804 0
M  V30 23337 C 2187.63 3.66485 0.858249 0
M  V30 23338 C 2186.78 2.77255 -0.0498039 0
M  V30 23339 H 2189.73 1.50795 -0.494637 0
M  V30 23340 H 2189.75 3.59218 1.2547 0
M  V30 23341 H 2189.26 3.84141 -0.552945 0
M  V30 23342 H 2187.36 3.2408 1.83855 0
M  V30 23343 H 2187.47 4.74 0.697187 0
M  V30 23344 H 2185.84 2.50399 0.466105 0
M  V30 23345 H 2186.62 3.27971 -1.01439 0
M  V30 23346 N 2189.07 2.77022e-05 1.576 0
M  V30 23347 C 2190.01 -0.991376 2.08424 0
M  V30 23348 C 2190.98 -1.34134 0.979661 0
M  V30 23349 O 2192.17 -1.4397 1.25209 0
M  V30 23350 C 2189.31 -2.27808 2.59224 0
M  V30 23351 C 2188.42 -1.98715 3.83584 0
M  V30 23352 C 2187.56 -3.21468 4.22885 0
M  V30 23353 C 2186.6 -2.88061 5.40081 0
M  V30 23354 N 2185.73 -4.0335 5.74676 0
M  V30 23355 H 2190.57 -0.551038 2.92861 0
M  V30 23356 H 2188.11 -0.260432 1.44776 0
M  V30 23357 H 2190.07 -3.03029 2.86756 0
M  V30 23358 H 2188.7 -2.69511 1.77661 0
M  V30 23359 H 2187.75 -1.13862 3.62959 0
M  V30 23360 H 2189.06 -1.70092 4.68903 0
M  V30 23361 H 2188.22 -4.05034 4.517 0
M  V30 23362 H 2186.95 -3.53229 3.36275 0
M  V30 23363 H 2185.96 -2.02902 5.1099 0
M  V30 23364 H 2187.18 -2.57547 6.28368 0
M  V30 23365 H 2185.13 -4.35008 4.91023 0
M  V30 23366 H 2185.05 -3.78251 6.5457 0
M  V30 23367 H 2186.32 -4.87705 6.08082 0
M  V30 23368 N 2190.54 -1.55222 -0.272728 0
M  V30 23369 C 2191.96 -1.66547 -0.843751 0
M  V30 23370 C 2192.31 -0.592674 -1.87034 0
M  V30 23371 O 2191.43 0.26578 -2.14762 0
M  V30 23372 C 2192.03 -3.01921 -1.53718 0
M  V30 23373 C 2190.59 -3.15272 -2.05623 0
M  V30 23374 C 2189.73 -2.62344 -0.898377 0
M  V30 23375 H 2192.68 -1.58624 -0.0490719 0
M  V30 23376 H 2192.7 -2.94925 -2.40415 0
M  V30 23377 H 2192.22 -3.79979 -0.789763 0
M  V30 23378 H 2190.32 -2.41988 -2.83324 0
M  V30 23379 H 2190.43 -4.21837 -2.27135 0
M  V30 23380 H 2188.79 -2.19509 -1.29182 0
M  V30 23381 H 2189.58 -3.42906 -0.164467 0
M  V30 23382 N 2192.02 0.537252 -1.4816 0
M  V30 23383 C 2193.3 1.29837 -1.46294 0
M  V30 23384 C 2193.68 2.10409 -0.17065 0
M  V30 23385 O 2193.03 2.12194 0.847709 0
M  V30 23386 C 2193.24 2.18598 -2.72058 0
M  V30 23387 C 2194.59 2.78974 -3.20092 0
M  V30 23388 O 2195.61 2.28889 -2.72925 0
M  V30 23389 O 2194.47 3.70057 -4.02144 0
M  V30 23390 H 2191.56 0.585637 -0.583916 0
M  V30 23391 H 2194.11 0.554506 -1.60385 0
M  V30 23392 H 2192.88 1.58795 -3.57631 0
M  V30 23393 H 2192.5 3.00244 -2.60651 0
M  V30 23394 N 2193.5 1.36626 0.785562 0
M  V30 23395 C 2194.43 1.33953 1.91256 0
M  V30 23396 C 2195.41 0.210355 1.68794 0
M  V30 23397 O 2196.6 0.408594 1.89853 0
M  V30 23398 C 2193.73 1.13191 3.28337 0
M  V30 23399 C 2192.68 2.22974 3.65331 0
M  V30 23400 C 2192.01 1.87351 5.00803 0
M  V30 23401 C 2193.31 3.65082 3.73514 0
M  V30 23402 H 2195 2.28257 1.93751 0
M  V30 23403 H 2192.55 1.09876 0.930768 0
M  V30 23404 H 2194.5 1.09955 4.06802 0
M  V30 23405 H 2193.22 0.15339 3.2624 0
M  V30 23406 H 2191.88 2.25342 2.89165 0
M  V30 23407 H 2191.53 0.880632 4.95231 0
M  V30 23408 H 2191.23 2.60855 5.26525 0
M  V30 23409 H 2192.75 1.85677 5.81684 0
M  V30 23410 H 2194.17 3.64919 4.42162 0
M  V30 23411 H 2192.57 4.37523 4.10723 0
M  V30 23412 H 2193.64 3.99708 2.7452 0
M  V30 23413 N 2194.98 -1.01016 1.20969 0
M  V30 23414 C 2196.39 -1.56164 1.02322 0
M  V30 23415 C 2196.74 -1.91684 -0.418512 0
M  V30 23416 O 2195.87 -1.7293 -1.30093 0
M  V30 23417 C 2196.46 -2.83757 1.85114 0
M  V30 23418 C 2195.02 -3.35409 1.70815 0
M  V30 23419 C 2194.17 -2.08651 1.82647 0
M  V30 23420 H 2197.12 -0.833232 1.35066 0
M  V30 23421 H 2197.14 -3.55429 1.35833 0
M  V30 23422 H 2196.65 -2.57873 2.9004 0
M  V30 23423 H 2194.75 -3.66239 0.685528 0
M  V30 23424 H 2194.86 -4.07177 2.52475 0
M  V30 23425 H 2193.23 -2.21407 1.259 0
M  V30 23426 H 2194.01 -1.85185 2.8907 0
M  V30 23427 N 2196.46 -1.01661 -1.20428 0
M  V30 23428 C 2197.4 -0.586861 -2.23214 0
M  V30 23429 C 2198.37 0.393056 -1.61382 0
M  V30 23430 O 2199.56 0.292492 -1.88545 0
M  V30 23431 C 2196.7 0.0686858 -3.45032 0
M  V30 23432 C 2195.81 -0.955798 -4.21294 0
M  V30 23433 C 2194.95 -0.271301 -5.30507 0
M  V30 23434 C 2193.99 -1.28254 -5.98513 0
M  V30 23435 N 2193.12 -0.624713 -6.99315 0
M  V30 23436 H 2197.96 -1.468 -2.59333 0
M  V30 23437 H 2195.5 -0.734859 -1.27429 0
M  V30 23438 H 2197.46 0.465892 -4.14591 0
M  V30 23439 H 2196.09 0.913474 -3.09605 0
M  V30 23440 H 2195.14 -1.47116 -3.508 0
M  V30 23441 H 2196.45 -1.72487 -4.68027 0
M  V30 23442 H 2195.61 0.181403 -6.06429 0
M  V30 23443 H 2194.34 0.530078 -4.84811 0
M  V30 23444 H 2193.35 -1.74563 -5.21352 0
M  V30 23445 H 2194.57 -2.0852 -6.46294 0
M  V30 23446 H 2192.52 0.156798 -6.55813 0
M  V30 23447 H 2192.44 -1.33185 -7.44176 0
M  V30 23448 H 2193.71 -0.195599 -7.79255 0
M  V30 23449 N 2197.93 1.36205 -0.792844 0
M  V30 23450 C 2199.16 2.03402 -0.37886 0
M  V30 23451 C 2199.58 1.59776 1.00583 0
M  V30 23452 O 2198.93 0.788793 1.64573 0
M  V30 23453 C 2198.99 3.5885 -0.436893 0
M  V30 23454 O 2198.71 4.00886 -1.76698 0
M  V30 23455 C 2200.21 4.43298 -0.0139722 0
M  V30 23456 H 2197.43 0.652689 -0.155684 0
M  V30 23457 H 2199.97 1.74111 -1.07264 0
M  V30 23458 H 2198.13 3.86838 0.208507 0
M  V30 23459 H 2198.54 4.95489 -1.72019 0
M  V30 23460 H 2200.01 5.51899 -0.105712 0
M  V30 23461 H 2200.49 4.26732 1.03908 0
M  V30 23462 H 2201.1 4.20578 -0.631994 0
M  V30 23463 N 2199.41 0.545154 1.47871 0
M  V30 23464 C 2200.64 0.0190975 2.07391 0
M  V30 23465 C 2201.06 -1.25969 1.39691 0
M  V30 23466 O 2200.42 -1.7516 0.467847 0
M  V30 23467 C 2200.47 -0.172272 3.60188 0
M  V30 23468 O 2199.57 -1.23759 3.93392 0
M  V30 23469 H 2198.91 0.0459176 0.66241 0
M  V30 23470 H 2201.44 0.757399 1.90065 0
M  V30 23471 H 2201.45 -0.390233 4.0613 0
M  V30 23472 H 2200.13 0.761796 4.08864 0
M  V30 23473 H 2198.71 -1.00108 3.59211 0
M  V30 23474 N 2200.89 -1.55074 0.28101 0
M  V30 23475 C 2202.14 -1.99331 -0.33342 0
M  V30 23476 C 2202.46 -1.17087 -1.55934 0
M  V30 23477 O 2201.73 -0.261839 -1.94142 0
M  V30 23478 H 2200.31 -0.736265 -0.126184 0
M  V30 23479 H 2202.97 -1.91005 0.387712 0
M  V30 23480 H 2202.07 -3.05895 -0.619238 0
M  V30 23481 N 2202.37 -0.00838561 -1.57598 0
M  V30 23482 C 2203.32 0.980309 -2.08946 0
M  V30 23483 C 2204.29 1.33612 -0.986761 0
M  V30 23484 O 2205.47 1.43304 -1.25971 0
M  V30 23485 C 2202.61 2.2643 -2.60429 0
M  V30 23486 C 2201.72 1.96678 -3.84632 0
M  V30 23487 C 2200.86 3.1922 -4.24584 0
M  V30 23488 C 2199.9 2.85192 -5.41601 0
M  V30 23489 N 2199.04 4.00297 -5.76807 0
M  V30 23490 H 2203.88 0.535499 -2.93149 0
M  V30 23491 H 2201.41 0.252751 -1.44912 0
M  V30 23492 H 2203.37 3.01504 -2.88359 0
M  V30 23493 H 2202 2.68565 -1.79088 0
M  V30 23494 H 2201.05 1.11936 -3.63558 0
M  V30 23495 H 2202.36 1.67603 -4.69799 0
M  V30 23496 H 2201.52 4.02633 -4.53841 0
M  V30 23497 H 2200.26 3.51441 -3.38143 0
M  V30 23498 H 2199.26 2.00189 -5.12059 0
M  V30 23499 H 2200.49 2.54211 -6.29725 0
M  V30 23500 H 2198.43 4.32398 -4.93323 0
M  V30 23501 H 2198.35 3.74774 -6.56567 0
M  V30 23502 H 2199.62 4.84473 -6.1066 0
M  V30 23503 N 2203.85 1.55365 0.264492 0
M  V30 23504 C 2205.09 1.76633 0.996429 0
M  V30 23505 C 2205.43 0.570511 1.85631 0
M  V30 23506 O 2204.7 -0.431717 1.89648 0
M  V30 23507 C 2204.98 3.07628 1.87182 0
M  V30 23508 C 2204.84 4.37581 1.0413 0
M  V30 23509 C 2206.16 3.34722 2.85743 0
M  V30 23510 H 2203.28 0.642628 0.36083 0
M  V30 23511 H 2205.92 1.88098 0.268185 0
M  V30 23512 H 2204.07 2.97985 2.49274 0
M  V30 23513 H 2205.74 4.59193 0.440436 0
M  V30 23514 H 2203.98 4.32426 0.345039 0
M  V30 23515 H 2204.65 5.25583 1.6872 0
M  V30 23516 H 2207.13 3.44214 2.33787 0
M  V30 23517 H 2206.01 4.27629 3.44129 0
M  V30 23518 H 2206.27 2.54775 3.61306 0
M  V30 23519 N 2205.33 -0.529387 1.48443 0
M  V30 23520 C 2206.24 -1.66081 1.65693 0
M  V30 23521 C 2207.25 -1.65426 0.539461 0
M  V30 23522 O 2208.43 -1.84367 0.810605 0
M  V30 23523 C 2205.49 -3.02542 1.69321 0
M  V30 23524 C 2204.55 -3.14047 2.927 0
M  V30 23525 C 2203.79 -4.43998 2.96144 0
M  V30 23526 O 2204.01 -5.31131 2.07982 0
M  V30 23527 O 2202.94 -4.59881 3.8832 0
M  V30 23528 H 2206.77 -1.54464 2.61485 0
M  V30 23529 H 2204.35 -0.702544 1.31851 0
M  V30 23530 H 2206.24 -3.83698 1.74224 0
M  V30 23531 H 2204.91 -3.14481 0.767022 0
M  V30 23532 H 2203.82 -2.32184 2.93328 0
M  V30 23533 H 2205.15 -3.07023 3.84704 0
M  V30 23534 N 2206.8 -1.37041 -0.778305 0
M  V30 23535 C 2207.73 -1.34965 -1.90543 0
M  V30 23536 C 2208.71 -0.219304 -1.6868 0
M  V30 23537 O 2209.9 -0.418657 -1.89634 0
M  V30 23538 C 2207.03 -1.14931 -3.27732 0
M  V30 23539 C 2205.98 -2.24908 -3.64143 0
M  V30 23540 C 2205.31 -1.90004 -4.99802 0
M  V30 23541 C 2206.61 -3.67058 -3.71572 0
M  V30 23542 H 2208.3 -2.29281 -1.92537 0
M  V30 23543 H 2205.85 -1.10368 -0.924928 0
M  V30 23544 H 2207.8 -1.12111 -4.06213 0
M  V30 23545 H 2206.53 -0.170689 -3.26154 0
M  V30 23546 H 2205.19 -2.26873 -2.87966 0
M  V30 23547 H 2204.83 -0.906883 -4.94757 0
M  V30 23548 H 2204.53 -2.63644 -5.25134 0
M  V30 23549 H 2206.06 -1.88759 -5.80691 0
M  V30 23550 H 2207.47 -3.67259 -4.4022 0
M  V30 23551 H 2205.87 -4.39695 -4.08397 0
M  V30 23552 H 2206.94 -4.01158 -2.72397 0
M  V30 23553 N 2208.28 1.00373 -1.21503 0
M  V30 23554 C 2209.21 2.11026 -0.999515 0
M  V30 23555 C 2210.19 1.6993 0.0759372 0
M  V30 23556 O 2211.38 1.94018 -0.0841447 0
M  V30 23557 C 2208.51 3.42677 -0.564769 0
M  V30 23558 C 2207.46 3.97573 -1.58493 0
M  V30 23559 C 2206.79 5.25144 -1.00638 0
M  V30 23560 C 2208.09 4.29491 -2.97212 0
M  V30 23561 H 2209.78 2.29313 -1.92499 0
M  V30 23562 H 2207.33 1.10198 -0.926949 0
M  V30 23563 H 2209.28 4.19486 -0.401165 0
M  V30 23564 H 2208 3.24186 0.396354 0
M  V30 23565 H 2206.66 3.22885 -1.73612 0
M  V30 23566 H 2206.31 5.02986 -0.0369323 0
M  V30 23567 H 2206.01 5.62838 -1.68781 0
M  V30 23568 H 2207.54 6.04597 -0.854121 0
M  V30 23569 H 2208.95 4.97138 -2.85529 0
M  V30 23570 H 2207.35 4.78331 -3.6238 0
M  V30 23571 H 2208.42 3.37714 -3.47962 0
M  V30 23572 N 2209.76 1.02298 1.19887 0
M  V30 23573 C 2211.17 0.746598 1.71122 0
M  V30 23574 C 2211.52 -0.734303 1.81941 0
M  V30 23575 O 2210.65 -1.57272 1.48642 0
M  V30 23576 C 2211.24 1.34862 3.10802 0
M  V30 23577 C 2209.8 1.12096 3.59321 0
M  V30 23578 C 2208.95 1.45035 2.36347 0
M  V30 23579 H 2211.9 1.19165 1.04811 0
M  V30 23580 H 2211.92 0.742503 3.73185 0
M  V30 23581 H 2211.43 2.42643 3.02896 0
M  V30 23582 H 2209.53 0.0610992 3.7255 0
M  V30 23583 H 2209.65 1.80551 4.43777 0
M  V30 23584 H 2208.01 0.869529 2.39398 0
M  V30 23585 H 2208.79 2.53887 2.31076 0
M  V30 23586 N 2211.24 -1.35782 0.800057 0
M  V30 23587 C 2212.18 -2.29898 0.203888 0
M  V30 23588 C 2213.15 -1.52496 -0.658348 0
M  V30 23589 O 2214.34 -1.80961 -0.6048 0
M  V30 23590 C 2211.48 -3.38984 -0.64682 0
M  V30 23591 C 2210.59 -4.3136 0.23513 0
M  V30 23592 C 2209.73 -5.27534 -0.622961 0
M  V30 23593 C 2208.77 -6.11548 0.25979 0
M  V30 23594 N 2207.9 -6.9988 -0.557896 0
M  V30 23595 H 2212.74 -2.80294 1.01191 0
M  V30 23596 H 2210.28 -1.37956 0.510554 0
M  V30 23597 H 2212.24 -4.00889 -1.15514 0
M  V30 23598 H 2210.87 -2.89881 -1.42016 0
M  V30 23599 H 2209.92 -3.70516 0.861504 0
M  V30 23600 H 2211.23 -4.90339 0.914854 0
M  V30 23601 H 2210.39 -5.94781 -1.19667 0
M  V30 23602 H 2209.13 -4.69036 -1.33628 0
M  V30 23603 H 2208.13 -5.43255 0.845822 0
M  V30 23604 H 2209.36 -6.72124 0.970866 0
M  V30 23605 H 2207.3 -6.43877 -1.2553 0
M  V30 23606 H 2207.22 -7.55973 0.06392 0
M  V30 23607 H 2208.49 -7.71483 -1.11509 0
M  V30 23608 N 2212.72 -0.552988 -1.4758 0
M  V30 23609 C 2213.96 -0.0274004 -2.02781 0
M  V30 23610 C 2214.29 1.31732 -1.4269 0
M  V30 23611 O 2213.57 1.85622 -0.58093 0
M  V30 23612 C 2213.85 0.0701738 -3.60032 0
M  V30 23613 C 2213.71 -1.30134 -4.30564 0
M  V30 23614 C 2215.02 0.785694 -4.3303 0
M  V30 23615 H 2212.14 -0.0114315 -0.736911 0
M  V30 23616 H 2214.79 -0.714463 -1.76055 0
M  V30 23617 H 2212.94 0.655315 -3.82933 0
M  V30 23618 H 2214.61 -1.92936 -4.19015 0
M  V30 23619 H 2212.85 -1.87715 -3.91082 0
M  V30 23620 H 2213.52 -1.18583 -5.39112 0
M  V30 23621 H 2216 0.288909 -4.15096 0
M  V30 23622 H 2214.87 0.822917 -5.42696 0
M  V30 23623 H 2215.13 1.84093 -4.01948 0
M  V30 23624 N 2214.19 1.54923 -0.28923 0
M  V30 23625 C 2215.14 2.19774 0.6069 0
M  V30 23626 C 2216.13 1.16689 1.10781 0
M  V30 23627 O 2217.32 1.42452 1.05054 0
M  V30 23628 C 2214.45 2.9331 1.78393 0
M  V30 23629 C 2213.53 4.03699 1.29954 0
M  V30 23630 N 2213.93 5.02991 0.532289 0
M  V30 23631 C 2212.22 4.17027 1.58129 0
M  V30 23632 C 2212.92 5.81046 0.27581 0
M  V30 23633 N 2211.9 5.36877 0.852271 0
M  V30 23634 H 2215.7 2.93897 0.0130262 0
M  V30 23635 H 2213.22 1.62131 -0.0934385 0
M  V30 23636 H 2215.21 3.38229 2.43735 0
M  V30 23637 H 2213.87 2.20701 2.38162 0
M  V30 23638 H 2214.88 5.17593 0.178289 0
M  V30 23639 H 2211.56 3.55616 2.18731 0
M  V30 23640 H 2212.95 6.71041 -0.33962 0
M  V30 23641 N 2215.67 0.0167433 1.57591 0
M  V30 23642 C 2216.92 -0.663843 1.90463 0
M  V30 23643 C 2217.23 -1.73997 0.893546 0
M  V30 23644 O 2218.44 -2.47635 1.11307 0
M  V30 23645 C 2216.9 -1.23198 3.38157 0
M  V30 23646 C 2216.5 -0.189787 4.47598 0
M  V30 23647 C 2218.25 -1.88979 3.80115 0
M  V30 23648 C 2216.15 -0.768861 5.86381 0
M  V30 23649 H 2215.08 -0.251716 0.710742 0
M  V30 23650 H 2217.74 0.0800249 1.83325 0
M  V30 23651 H 2216.12 -2.02706 3.40186 0
M  V30 23652 H 2217.29 0.581926 4.57111 0
M  V30 23653 H 2215.61 0.368548 4.14766 0
M  V30 23654 H 2218.2 -2.33238 4.81149 0
M  V30 23655 H 2218.55 -2.72737 3.14516 0
M  V30 23656 H 2219.08 -1.1618 3.80456 0
M  V30 23657 H 2215.82 0.030311 6.55493 0
M  V30 23658 H 2215.34 -1.50935 5.80499 0
M  V30 23659 H 2217.02 -1.2624 6.34565 0
M  V30 23660 N 2217.15 -1.55503 -0.256249 0
M  V30 23661 C 2218.38 -1.80679 -1.00193 0
M  V30 23662 C 2218.79 -0.588829 -1.79804 0
M  V30 23663 O 2218.13 0.451852 -1.78056 0
M  V30 23664 C 2218.19 -2.99059 -1.9951 0
M  V30 23665 C 2217.86 -4.3545 -1.3868 0
M  V30 23666 C 2218.85 -5.13801 -0.793989 0
M  V30 23667 C 2216.54 -4.82134 -1.40897 0
M  V30 23668 C 2218.53 -6.3698 -0.23145 0
M  V30 23669 C 2216.22 -6.05263 -0.842578 0
M  V30 23670 C 2217.22 -6.82524 -0.254833 0
M  V30 23671 O 2216.91 -8.03329 0.302841 0
M  V30 23672 H 2216.64 -0.605335 -0.300908 0
M  V30 23673 H 2219.19 -2.03381 -0.287271 0
M  V30 23674 H 2217.42 -2.72089 -2.74781 0
M  V30 23675 H 2219.11 -3.1141 -2.60344 0
M  V30 23676 H 2219.88 -4.78858 -0.769435 0
M  V30 23677 H 2215.76 -4.21995 -1.85583 0
M  V30 23678 H 2219.3 -6.97228 0.227938 0
M  V30 23679 H 2215.2 -6.39686 -0.864428 0
M  V30 23680 H 2215.97 -8.18271 0.193806 0
M  V30 23681 N 2218.63 0.521507 -1.48721 0
M  V30 23682 C 2219.56 1.6414 -1.5997 0
M  V30 23683 C 2220.57 1.55455 -0.483491 0
M  V30 23684 O 2221.76 1.61761 -0.754698 0
M  V30 23685 C 2218.86 3.02835 -1.52132 0
M  V30 23686 C 2218.04 3.36916 -2.78938 0
M  V30 23687 C 2217.09 4.54929 -2.64436 0
M  V30 23688 O 2216.12 4.57729 -3.38339 0
M  V30 23689 N 2217.32 5.53615 -1.74615 0
M  V30 23690 H 2220.09 1.54925 -2.56551 0
M  V30 23691 H 2217.65 0.708963 -1.45552 0
M  V30 23692 H 2219.64 3.79671 -1.40113 0
M  V30 23693 H 2218.21 3.06084 -0.634922 0
M  V30 23694 H 2217.43 2.49175 -3.0546 0
M  V30 23695 H 2218.72 3.56474 -3.63047 0
M  V30 23696 H 2218.12 5.54137 -1.13791 0
M  V30 23697 H 2216.67 6.29635 -1.68531 0
M  V30 23698 N 2220.11 1.37452 0.771027 0
M  V30 23699 C 2221.05 1.33273 1.88433 0
M  V30 23700 C 2222.02 0.198165 1.64914 0
M  V30 23701 O 2223.21 0.387639 1.86821 0
M  V30 23702 C 2220.35 1.14627 3.25507 0
M  V30 23703 C 2219.46 2.3732 3.60975 0
M  V30 23704 C 2218.6 2.11541 4.87261 0
M  V30 23705 C 2217.64 3.30097 5.15463 0
M  V30 23706 N 2216.77 3.03864 6.32938 0
M  V30 23707 H 2221.61 2.28458 1.9134 0
M  V30 23708 H 2219.15 1.13525 0.935446 0
M  V30 23709 H 2221.11 1.01838 4.0458 0
M  V30 23710 H 2219.74 0.230893 3.21973 0
M  V30 23711 H 2218.79 2.60847 2.76881 0
M  V30 23712 H 2220.1 3.25736 3.77754 0
M  V30 23713 H 2219.26 1.95787 5.74241 0
M  V30 23714 H 2217.99 1.20465 4.72588 0
M  V30 23715 H 2217 3.46389 4.26959 0
M  V30 23716 H 2218.22 4.22025 5.32045 0
M  V30 23717 H 2216.17 2.15418 6.19622 0
M  V30 23718 H 2216.09 3.85823 6.50136 0
M  V30 23719 H 2217.36 2.91729 7.22852 0
M  V30 23720 N 2221.58 -0.997276 1.22033 0
M  V30 23721 C 2222.86 -1.70933 0.950853 0
M  V30 23722 C 2223.24 -2.04201 -0.535256 0
M  V30 23723 O 2222.59 -1.72186 -1.50214 0
M  V30 23724 C 2222.8 -2.96312 1.84391 0
M  V30 23725 C 2224.15 -3.69182 2.09738 0
M  V30 23726 O 2225.17 -3.0631 1.81803 0
M  V30 23727 O 2224.03 -4.82286 2.57026 0
M  V30 23728 H 2221.12 -0.745872 0.357217 0
M  V30 23729 H 2223.67 -1.05401 1.32999 0
M  V30 23730 H 2222.44 -2.68196 2.84932 0
M  V30 23731 H 2222.07 -3.69583 1.46608 0
M  V30 23732 N 2223.06 -1.02932 -1.19343 0
M  V30 23733 C 2223.99 -0.631145 -2.24808 0
M  V30 23734 C 2224.97 0.360075 -1.66245 0
M  V30 23735 O 2226.16 0.242692 -1.92678 0
M  V30 23736 C 2223.29 0.0183996 -3.47295 0
M  V30 23737 C 2222.24 -0.895147 -4.18534 0
M  V30 23738 C 2221.57 -0.110686 -5.34585 0
M  V30 23739 C 2222.87 -2.20909 -4.73283 0
M  V30 23740 H 2224.56 -1.5128 -2.5837 0
M  V30 23741 H 2222.11 -0.72884 -1.24193 0
M  V30 23742 H 2224.06 0.308601 -4.20269 0
M  V30 23743 H 2222.79 0.934852 -3.12935 0
M  V30 23744 H 2221.44 -1.16955 -3.47444 0
M  V30 23745 H 2221.09 0.807815 -4.96471 0
M  V30 23746 H 2220.79 -0.71919 -5.83182 0
M  V30 23747 H 2222.32 0.172764 -6.10356 0
M  V30 23748 H 2223.73 -1.98038 -5.38009 0
M  V30 23749 H 2222.13 -2.76955 -5.32368 0
M  V30 23750 H 2223.2 -2.86343 -3.91326 0
M  V30 23751 N 2224.54 1.35356 -0.807246 0
M  V30 23752 C 2225.79 1.9875 -0.387923 0
M  V30 23753 C 2226.12 1.64039 1.04506 0
M  V30 23754 O 2225.37 0.895977 1.73985 0
M  V30 23755 C 2225.67 3.5361 -0.519098 0
M  V30 23756 C 2225.34 4.08191 -1.91549 0
M  V30 23757 C 2224 4.22809 -2.29752 0
M  V30 23758 C 2226.35 4.37739 -2.82903 0
M  V30 23759 C 2223.68 4.64294 -3.58676 0
M  V30 23760 C 2226.03 4.80663 -4.11274 0
M  V30 23761 C 2224.69 4.93486 -4.49475 0
M  V30 23762 H 2223.96 0.727276 -0.141951 0
M  V30 23763 H 2226.61 1.61558 -1.02816 0
M  V30 23764 H 2224.92 3.91265 0.204589 0
M  V30 23765 H 2226.61 4.00616 -0.175415 0
M  V30 23766 H 2223.2 3.97265 -1.60869 0
M  V30 23767 H 2227.39 4.25997 -2.54637 0
M  V30 23768 H 2222.64 4.72411 -3.88121 0
M  V30 23769 H 2226.82 5.02487 -4.82161 0
M  V30 23770 H 2224.44 5.2539 -5.49427 0
M  V30 23771 N 2226.02 0.560807 1.47284 0
M  V30 23772 C 2227.43 0.128376 1.86258 0
M  V30 23773 C 2227.78 -1.30281 1.46701 0
M  V30 23774 O 2226.91 -1.98065 0.871733 0
M  V30 23775 C 2227.5 0.2262 3.38044 0
M  V30 23776 C 2226.06 -0.151217 3.76096 0
M  V30 23777 C 2225.21 0.572131 2.71334 0
M  V30 23778 H 2228.16 0.770322 1.38751 0
M  V30 23779 H 2228.18 -0.554256 3.76442 0
M  V30 23780 H 2227.69 1.26794 3.66804 0
M  V30 23781 H 2225.79 -1.19393 3.52953 0
M  V30 23782 H 2225.9 0.209849 4.7864 0
M  V30 23783 H 2224.27 0.01481 2.54696 0
M  V30 23784 H 2225.05 1.6151 3.02935 0
M  V30 23785 N 2227.5 -1.54768 0.297442 0
M  V30 23786 C 2228.72 -2.04479 -0.315587 0
M  V30 23787 C 2229.14 -1.17489 -1.4779 0
M  V30 23788 O 2228.5 -0.199742 -1.81404 0
M  V30 23789 C 2228.55 -3.5309 -0.775238 0
M  V30 23790 O 2228.27 -4.36772 0.340808 0
M  V30 23791 C 2229.77 -4.18784 -1.45379 0
M  V30 23792 H 2226.99 -0.667435 -0.0690769 0
M  V30 23793 H 2229.53 -1.99797 0.436038 0
M  V30 23794 H 2227.69 -3.58143 -1.47689 0
M  V30 23795 H 2228.1 -5.24497 -0.0164113 0
M  V30 23796 H 2229.58 -5.24302 -1.7266 0
M  V30 23797 H 2230.05 -3.68303 -2.39268 0
M  V30 23798 H 2230.66 -4.17796 -0.795401 0
M  V30 23799 N 2228.97 -0.0251005 -1.5758 0
M  V30 23800 C 2229.88 0.973867 -2.13431 0
M  V30 23801 C 2230.9 1.35982 -1.08559 0
M  V30 23802 O 2232.08 1.44205 -1.40595 0
M  V30 23803 C 2229.14 2.23899 -2.64707 0
M  V30 23804 C 2228.2 1.91384 -3.84279 0
M  V30 23805 C 2227.44 3.11865 -4.331 0
M  V30 23806 O 2227.66 4.24391 -3.81115 0
M  V30 23807 O 2226.59 2.94397 -5.24989 0
M  V30 23808 H 2230.42 0.528984 -2.99058 0
M  V30 23809 H 2228 0.195262 -1.48118 0
M  V30 23810 H 2229.89 2.98176 -2.97774 0
M  V30 23811 H 2228.56 2.67576 -1.82166 0
M  V30 23812 H 2227.47 1.14505 -3.56145 0
M  V30 23813 H 2228.8 1.52526 -4.67971 0
M  V30 23814 N 2230.45 1.55637 0.247999 0
M  V30 23815 C 2231.68 1.81471 0.993776 0
M  V30 23816 C 2232.1 0.600672 1.7899 0
M  V30 23817 O 2231.45 -0.430651 1.77346 0
M  V30 23818 C 2231.5 3.05509 1.93252 0
M  V30 23819 O 2231.22 4.22226 1.16862 0
M  V30 23820 C 2232.73 3.44135 2.79438 0
M  V30 23821 H 2229.95 0.603903 0.292476 0
M  V30 23822 H 2232.49 2.02694 0.271217 0
M  V30 23823 H 2230.64 2.8634 2.60938 0
M  V30 23824 H 2231.06 4.92518 1.80351 0
M  V30 23825 H 2232.53 4.34032 3.41058 0
M  V30 23826 H 2233.01 2.64671 3.50494 0
M  V30 23827 H 2233.62 3.65652 2.17207 0
M  V30 23828 N 2231.93 -0.513613 1.48996 0
M  V30 23829 C 2233.16 -1.29759 1.61794 0
M  V30 23830 C 2233.58 -1.85936 0.284508 0
M  V30 23831 O 2232.94 -1.65234 -0.746156 0
M  V30 23832 C 2232.99 -2.41268 2.67997 0
M  V30 23833 O 2232.09 -3.44768 2.26294 0
M  V30 23834 H 2231.43 -0.383621 0.54197 0
M  V30 23835 H 2233.96 -0.616273 1.95098 0
M  V30 23836 H 2233.97 -2.87216 2.89777 0
M  V30 23837 H 2232.65 -1.99743 3.64795 0
M  V30 23838 H 2231.22 -3.04825 2.14793 0
M  V30 23839 N 2233.41 -1.37859 -0.763727 0
M  V30 23840 C 2234.36 -1.3437 -1.89862 0
M  V30 23841 C 2235.35 -0.231173 -1.67815 0
M  V30 23842 O 2236.56 -0.399648 -1.75507 0
M  V30 23843 H 2232.93 -0.418941 -0.624494 0
M  V30 23844 H 2234.9 -2.30158 -1.89921 0
M  V30 23845 C 2233.65 -1.17556 -3.27225 0
M  V30 23846 H 2232.98 -2.0242 -3.4477 0
M  V30 23847 H 2234.42 -1.19167 -4.06909 0
M  V30 23848 C 2232.87 0.118252 -3.36692 0
M  V30 23849 O 2233.4 1.09895 -3.86375 0
M  V30 23850 N 2231.61 0.171666 -2.90093 0
M  V30 23851 H 2231.16 -0.627056 -2.49851 0
M  V30 23852 H 2231.12 1.03694 -2.96808 0
M  V30 23853 N 2234.89 0.990791 -1.22561 0
M  V30 23854 C 2236.14 1.72722 -1.04936 0
M  V30 23855 C 2236.46 1.90508 0.416125 0
M  V30 23856 O 2235.73 1.46624 1.29916 0
M  V30 23857 H 2234.31 0.639959 -0.385308 0
M  V30 23858 H 2236.97 1.19319 -1.54107 0
M  V30 23859 H 2236.06 2.72086 -1.52891 0
M  V30 23860 N 2236.37 1.03564 1.18795 0
M  V30 23861 C 2237.59 0.755798 1.93138 0
M  V30 23862 C 2238.02 -0.680189 1.75371 0
M  V30 23863 O 2237.37 -1.47049 1.06049 0
M  V30 23864 C 2237.42 1.12064 3.42745 0
M  V30 23865 O 2236.53 0.243197 4.11682 0
M  V30 23866 H 2235.87 0.278615 0.602719 0
M  V30 23867 H 2238.4 1.38413 1.50675 0
M  V30 23868 H 2238.41 1.08042 3.93435 0
M  V30 23869 H 2237.08 2.16678 3.54998 0
M  V30 23870 H 2235.66 0.342604 3.71323 0
M  V30 23871 N 2237.84 -1.34926 0.814413 0
M  V30 23872 C 2239.25 -1.80985 0.458396 0
M  V30 23873 C 2239.61 -1.67579 -1.02039 0
M  V30 23874 O 2238.73 -1.21089 -1.7935 0
M  V30 23875 C 2239.33 -3.28595 0.82527 0
M  V30 23876 C 2237.88 -3.72766 0.521743 0
M  V30 23877 C 2237.03 -2.56786 1.04672 0
M  V30 23878 H 2239.98 -1.22794 1.00536 0
M  V30 23879 H 2240 -3.80292 0.125777 0
M  V30 23880 H 2239.52 -3.38321 1.90159 0
M  V30 23881 H 2237.62 -3.68585 -0.545524 0
M  V30 23882 H 2237.73 -4.6723 1.05985 0
M  V30 23883 H 2236.09 -2.50351 0.468666 0
M  V30 23884 H 2236.88 -2.69286 2.12932 0
M  V30 23885 N 2239.32 -0.56861 -1.46985 0
M  V30 23886 C 2240.57 -0.0487377 -2.02041 0
M  V30 23887 C 2240.89 1.31037 -1.44411 0
M  V30 23888 O 2240.16 1.85713 -0.62351 0
M  V30 23889 H 2238.74 -0.0150271 -0.746849 0
M  V30 23890 H 2241.4 -0.7412 -1.80256 0
M  V30 23891 H 2240.5 0.0308412 -3.12085 0
M  V30 23892 N 2240.8 1.54608 -0.305646 0
M  V30 23893 C 2241.75 2.20406 0.583556 0
M  V30 23894 C 2242.73 1.17857 1.09537 0
M  V30 23895 O 2243.93 1.43559 1.03537 0
M  V30 23896 C 2241.05 2.95186 1.75272 0
M  V30 23897 C 2240.14 4.05055 1.25665 0
M  V30 23898 N 2240.53 5.03528 0.47891 0
M  V30 23899 C 2238.83 4.1868 1.53697 0
M  V30 23900 C 2239.53 5.81306 0.214167 0
M  V30 23901 N 2238.51 5.37751 0.79528 0
M  V30 23902 H 2242.31 2.93894 -0.0181462 0
M  V30 23903 H 2239.82 1.62023 -0.110629 0
M  V30 23904 H 2241.82 3.40795 2.40134 0
M  V30 23905 H 2240.48 2.23215 2.35808 0
M  V30 23906 H 2241.49 5.17753 0.123382 0
M  V30 23907 H 2238.17 3.57916 2.14947 0
M  V30 23908 H 2239.56 6.70643 -0.410774 0
M  V30 23909 N 2242.28 0.033457 1.57564 0
M  V30 23910 C 2243.21 -0.945228 2.13513 0
M  V30 23911 C 2244.19 -1.33642 1.05233 0
M  V30 23912 O 2245.37 -1.41427 1.33087 0
M  V30 23913 C 2242.5 -2.22611 2.66574 0
M  V30 23914 C 2241.46 -1.97554 3.79679 0
M  V30 23915 C 2240.78 -3.31945 4.19186 0
M  V30 23916 C 2242.08 -1.31126 5.05572 0
M  V30 23917 H 2243.78 -0.479273 2.95539 0
M  V30 23918 H 2241.32 -0.22909 1.42166 0
M  V30 23919 H 2243.28 -2.91461 3.04349 0
M  V30 23920 H 2242 -2.7138 1.81715 0
M  V30 23921 H 2240.66 -1.31121 3.42349 0
M  V30 23922 H 2240.31 -3.78481 3.31302 0
M  V30 23923 H 2240.01 -3.15983 4.95407 0
M  V30 23924 H 2241.53 -4.02055 4.59548 0
M  V30 23925 H 2242.95 -1.89982 5.40906 0
M  V30 23926 H 2241.34 -1.25548 5.8682 0
M  V30 23927 H 2242.41 -0.284809 4.84063 0
M  V30 23928 N 2243.76 -1.55766 -0.239741 0
M  V30 23929 C 2245.03 -1.68695 -0.990026 0
M  V30 23930 C 2245.41 -0.575436 -2.03106 0
M  V30 23931 O 2244.76 0.420131 -2.24604 0
M  V30 23932 C 2244.97 -3.09285 -1.61691 0
M  V30 23933 C 2246.32 -3.68114 -2.11606 0
M  V30 23934 O 2247.34 -3.1213 -1.71619 0
M  V30 23935 O 2246.2 -4.66272 -2.85049 0
M  V30 23936 H 2243.3 -0.686399 -0.461287 0
M  V30 23937 H 2245.84 -1.68093 -0.232961 0
M  V30 23938 H 2244.61 -3.81636 -0.86429 0
M  V30 23939 H 2244.24 -3.13927 -2.43999 0
M  V30 23940 N 2245.23 0.505704 -1.49266 0
M  V30 23941 C 2246.16 1.6165 -1.68498 0
M  V30 23942 C 2247.14 1.61511 -0.533688 0
M  V30 23943 O 2248.33 1.78326 -0.769002 0
M  V30 23944 C 2245.46 3.00154 -1.74714 0
M  V30 23945 C 2244.41 3.15157 -2.89586 0
M  V30 23946 C 2243.74 4.54965 -2.80911 0
M  V30 23947 C 2245.04 2.95627 -4.30584 0
M  V30 23948 H 2246.73 1.45809 -2.61496 0
M  V30 23949 H 2244.28 0.700028 -1.2584 0
M  V30 23950 H 2246.23 3.77757 -1.86755 0
M  V30 23951 H 2244.96 3.17072 -0.783123 0
M  V30 23952 H 2243.62 2.39977 -2.7714 0
M  V30 23953 H 2243.26 4.68753 -1.82427 0
M  V30 23954 H 2242.96 4.65945 -3.58007 0
M  V30 23955 H 2244.49 5.34636 -2.94953 0
M  V30 23956 H 2245.9 3.63003 -4.43736 0
M  V30 23957 H 2244.3 3.18082 -5.08866 0
M  V30 23958 H 2245.37 1.91798 -4.45356 0
M  V30 23959 N 2246.71 1.38262 0.756405 0
M  V30 23960 C 2247.96 1.34514 1.51769 0
M  V30 23961 C 2248.29 -0.065635 1.94089 0
M  V30 23962 O 2247.57 -1.02623 1.65223 0
M  V30 23963 C 2247.85 2.29826 2.77222 0
M  V30 23964 C 2247.7 3.79751 2.41058 0
M  V30 23965 C 2249.02 2.23319 3.79232 0
M  V30 23966 H 2246.14 0.489941 0.55057 0
M  V30 23967 H 2248.78 1.69087 0.866577 0
M  V30 23968 H 2246.93 2.00473 3.3278 0
M  V30 23969 H 2248.6 4.19766 1.91296 0
M  V30 23970 H 2246.85 3.9757 1.73553 0
M  V30 23971 H 2247.52 4.41898 3.30802 0
M  V30 23972 H 2249.99 2.49225 3.33206 0
M  V30 23973 H 2248.87 2.92124 4.64709 0
M  V30 23974 H 2249.13 1.2311 4.24613 0
M  V30 23975 N 2248.19 -0.984277 1.23084 0
M  V30 23976 C 2249.1 -2.11015 1.02518 0
M  V30 23977 C 2250.12 -1.73976 -0.0291397 0
M  V30 23978 O 2251.29 -2.00719 0.165469 0
M  V30 23979 C 2248.36 -3.41207 0.614733 0
M  V30 23980 C 2247.42 -3.92294 1.74366 0
M  V30 23981 C 2246.65 -5.16273 1.3527 0
M  V30 23982 O 2246.87 -5.69915 0.235236 0
M  V30 23983 O 2245.81 -5.6133 2.17237 0
M  V30 23984 H 2249.63 -2.31252 1.96866 0
M  V30 23985 H 2247.22 -1.0939 1.01755 0
M  V30 23986 H 2249.1 -4.1953 0.396591 0
M  V30 23987 H 2247.78 -3.22309 -0.299794 0
M  V30 23988 H 2246.68 -3.15106 2.01641 0
M  V30 23989 H 2248.02 -4.1564 2.63637 0
M  V30 23990 N 2249.67 -1.04192 -1.18244 0
M  V30 23991 C 2250.92 -0.744576 -1.87884 0
M  V30 23992 C 2251.24 0.729975 -1.80821 0
M  V30 23993 O 2250.51 1.52682 -1.22739 0
M  V30 23994 H 2249.09 -0.27243 -0.695551 0
M  V30 23995 H 2251.75 -1.31894 -1.43492 0
M  V30 23996 H 2250.85 -1.05054 -2.93888 0
M  V30 23997 N 2251.15 1.34492 -0.821557 0
M  V30 23998 C 2252.37 2.03084 -0.420909 0
M  V30 23999 C 2252.8 1.61467 0.964887 0
M  V30 24000 O 2252.15 0.798636 1.62762 0
M  V30 24001 C 2252.2 3.56692 -0.529477 0
M  V30 24002 O 2251.31 4.09924 0.45123 0
M  V30 24003 H 2250.65 0.640932 -0.173501 0
M  V30 24004 H 2253.18 1.71769 -1.1116 0
M  V30 24005 H 2253.19 4.05987 -0.404742 0
M  V30 24006 H 2251.86 3.8633 -1.54021 0
M  V30 24007 H 2250.44 3.71806 0.285493 0
M  V30 24008 N 2252.62 0.576397 1.46681 0
M  V30 24009 C 2253.55 -0.148356 2.33028 0
M  V30 24010 C 2254.54 -0.88993 1.44963 0
M  V30 24011 O 2255.72 -0.866632 1.7379 0
M  V30 24012 C 2252.85 -1.16664 3.27119 0
M  V30 24013 C 2251.8 -0.540311 4.24576 0
M  V30 24014 C 2251.13 -1.66461 5.08129 0
M  V30 24015 C 2252.43 0.518422 5.19721 0
M  V30 24016 H 2254.12 0.572561 2.93874 0
M  V30 24017 H 2251.67 0.276793 1.41315 0
M  V30 24018 H 2253.62 -1.68198 3.86377 0
M  V30 24019 H 2252.35 -1.91775 2.64367 0
M  V30 24020 H 2251.01 -0.0461124 3.66571 0
M  V30 24021 H 2250.65 -2.40523 4.41766 0
M  V30 24022 H 2250.35 -1.25121 5.74124 0
M  V30 24023 H 2251.88 -2.18283 5.7025 0
M  V30 24024 H 2253.29 0.0884066 5.73232 0
M  V30 24025 H 2251.69 0.851784 5.94024 0
M  V30 24026 H 2252.76 1.40711 4.64035 0
M  V30 24027 N 2254.1 -1.54444 0.313841 0
M  V30 24028 C 2255.03 -2.26944 -0.549415 0
M  V30 24029 C 2256.01 -1.27374 -1.12739 0
M  V30 24030 O 2257.2 -1.56169 -1.15433 0
M  V30 24031 C 2254.33 -3.01992 -1.71517 0
M  V30 24032 C 2253.28 -4.08818 -1.26696 0
M  V30 24033 C 2252.61 -4.71652 -2.5189 0
M  V30 24034 C 2253.91 -5.2085 -0.38887 0
M  V30 24035 H 2255.6 -2.99349 0.0553188 0
M  V30 24036 H 2253.15 -1.43973 0.028046 0
M  V30 24037 H 2255.1 -3.51437 -2.32529 0
M  V30 24038 H 2253.83 -2.27187 -2.34635 0
M  V30 24039 H 2252.48 -3.60241 -0.679833 0
M  V30 24040 H 2252.13 -3.93473 -3.13349 0
M  V30 24041 H 2251.83 -5.43806 -2.22595 0
M  V30 24042 H 2253.36 -5.23867 -3.13681 0
M  V30 24043 H 2254.77 -5.66112 -0.905007 0
M  V30 24044 H 2253.17 -5.99802 -0.189135 0
M  V30 24045 H 2254.24 -4.81385 0.582784 0
M  V30 24046 N 2255.58 -0.0418125 -1.57545 0
M  V30 24047 C 2256.51 0.964763 -2.07906 0
M  V30 24048 C 2257.53 1.28077 -1.005 0
M  V30 24049 O 2258.71 1.2432 -1.28089 0
M  V30 24050 C 2255.81 2.28883 -2.49932 0
M  V30 24051 C 2254.99 2.15612 -3.80566 0
M  V30 24052 C 2254.05 3.31062 -4.09005 0
M  V30 24053 O 2253.07 3.07382 -4.79067 0
M  V30 24054 N 2254.27 4.5525 -3.60178 0
M  V30 24055 H 2257.04 0.534977 -2.94887 0
M  V30 24056 H 2254.6 0.144652 -1.61252 0
M  V30 24057 H 2256.59 3.04967 -2.6604 0
M  V30 24058 H 2255.16 2.6346 -1.68249 0
M  V30 24059 H 2254.38 1.24177 -3.74131 0
M  V30 24060 H 2255.67 2.03963 -4.6613 0
M  V30 24061 H 2255.07 4.7738 -3.0352 0
M  V30 24062 H 2253.63 5.2846 -3.81541 0
M  V30 24063 N 2257.06 1.55891 0.231477 0
M  V30 24064 C 2258.31 1.7809 0.955429 0
M  V30 24065 C 2258.63 0.608565 1.85261 0
M  V30 24066 O 2257.9 -0.375001 1.92277 0
M  V30 24067 H 2256.48 0.656836 0.355775 0
M  V30 24068 H 2259.14 1.93345 0.245717 0
M  V30 24069 H 2258.24 2.69847 1.56809 0
M  V30 24070 N 2258.54 -0.497781 1.49532 0
M  V30 24071 C 2259.76 -1.27564 1.62896 0
M  V30 24072 C 2260.18 -1.86375 0.301618 0
M  V30 24073 O 2259.54 -1.67983 -0.713305 0
M  V30 24074 C 2259.59 -2.4036 2.70018 0
M  V30 24075 O 2259.31 -1.83965 3.97603 0
M  V30 24076 C 2260.81 -3.3168 2.94115 0
M  V30 24077 H 2258.03 -0.386785 0.548305 0
M  V30 24078 H 2260.57 -0.597211 1.95585 0
M  V30 24079 H 2258.73 -3.04027 2.40097 0
M  V30 24080 H 2259.14 -2.58039 4.56635 0
M  V30 24081 H 2260.62 -4.07097 3.72795 0
M  V30 24082 H 2261.09 -3.88868 2.04153 0
M  V30 24083 H 2261.7 -2.73775 3.25464 0
M  V30 24084 N 2260.01 -1.38661 -0.749062 0
M  V30 24085 C 2260.92 -1.38497 -1.89356 0
M  V30 24086 C 2261.94 -0.281506 -1.71708 0
M  V30 24087 O 2263.12 -0.520678 -1.94553 0
M  V30 24088 C 2260.18 -1.21322 -3.2478 0
M  V30 24089 C 2259.24 -2.41514 -3.54922 0
M  V30 24090 C 2258.48 -2.25148 -4.83884 0
M  V30 24091 O 2258.7 -1.24756 -5.5659 0
M  V30 24092 O 2257.63 -3.13835 -5.13606 0
M  V30 24093 H 2261.46 -2.34942 -1.92448 0
M  V30 24094 H 2259.04 -1.19628 -0.89496 0
M  V30 24095 H 2260.93 -1.13821 -4.05737 0
M  V30 24096 H 2259.6 -0.279649 -3.2249 0
M  V30 24097 H 2258.51 -2.5459 -2.74107 0
M  V30 24098 H 2259.84 -3.33516 -3.61977 0
M  V30 24099 N 2261.49 0.977736 -1.23605 0
M  V30 24100 C 2262.74 1.71599 -1.06762 0
M  V30 24101 C 2263.06 1.90939 0.395895 0
M  V30 24102 O 2262.33 1.47994 1.28353 0
M  V30 24103 H 2260.91 0.635836 -0.392074 0
M  V30 24104 H 2263.57 1.17678 -1.55364 0
M  V30 24105 H 2262.67 2.70449 -1.55768 0
M  V30 24106 N 2262.97 1.04818 1.1769 0
M  V30 24107 C 2263.93 0.650156 2.19785 0
M  V30 24108 C 2264.93 -0.296399 1.58045 0
M  V30 24109 O 2266.12 -0.0807791 1.74013 0
M  V30 24110 C 2263.26 -0.0456387 3.40869 0
M  V30 24111 H 2264.45 1.55374 2.56513 0
M  V30 24112 H 2262 0.841617 1.31706 0
M  V30 24113 H 2262.74 -0.962672 3.09682 0
M  V30 24114 H 2262.52 0.634795 3.86927 0
M  V30 24115 H 2264.01 -0.310358 4.16445 0
M  V30 24116 N 2264.45 -1.34055 0.828678 0
M  V30 24117 C 2265.7 -1.97366 0.415863 0
M  V30 24118 C 2266.01 -1.66412 -1.02793 0
M  V30 24119 O 2267.22 -2.23258 -1.54493 0
M  V30 24120 C 2265.67 -3.53172 0.692663 0
M  V30 24121 C 2265.28 -3.93013 2.15045 0
M  V30 24122 C 2267.03 -4.23085 0.346296 0
M  V30 24123 C 2264.93 -5.41754 2.37184 0
M  V30 24124 H 2263.86 -0.738568 0.151768 0
M  V30 24125 H 2266.51 -1.52817 1.01584 0
M  V30 24126 H 2264.9 -3.95994 0.022446 0
M  V30 24127 H 2266.07 -3.6128 2.8603 0
M  V30 24128 H 2264.38 -3.36053 2.45881 0
M  V30 24129 H 2266.98 -5.32455 0.489464 0
M  V30 24130 H 2267.32 -4.10205 -0.70977 0
M  V30 24131 H 2267.86 -3.85759 0.971326 0
M  V30 24132 H 2264.6 -5.59627 3.41317 0
M  V30 24133 H 2264.12 -5.74983 1.70749 0
M  V30 24134 H 2265.8 -6.0851 2.19829 0
M  V30 24135 N 2265.93 -0.584167 -1.46374 0
M  V30 24136 C 2266.87 0.148246 -2.30323 0
M  V30 24137 C 2267.84 0.882688 -1.40705 0
M  V30 24138 O 2269.03 0.873069 -1.69653 0
M  V30 24139 C 2266.17 1.15501 -3.25198 0
M  V30 24140 C 2265.28 0.423867 -4.29916 0
M  V30 24141 C 2264.42 1.41829 -5.11916 0
M  V30 24142 C 2263.46 0.673629 -6.08382 0
M  V30 24143 N 2262.59 1.61618 -6.83245 0
M  V30 24144 H 2267.43 -0.573695 -2.92426 0
M  V30 24145 H 2264.97 -0.294728 -1.44117 0
M  V30 24146 H 2266.93 1.7516 -3.78649 0
M  V30 24147 H 2265.56 1.84465 -2.64901 0
M  V30 24148 H 2264.61 -0.287781 -3.7931 0
M  V30 24149 H 2265.92 -0.158215 -4.98549 0
M  V30 24150 H 2265.08 2.08763 -5.69652 0
M  V30 24151 H 2263.82 2.0343 -4.43247 0
M  V30 24152 H 2262.82 -0.00948147 -5.49799 0
M  V30 24153 H 2264.05 0.0629888 -6.79071 0
M  V30 24154 H 2261.99 2.22027 -6.17284 0
M  V30 24155 H 2261.91 1.08694 -7.48145 0
M  V30 24156 H 2263.18 2.27583 -7.45538 0
M  V30 24157 N 2267.41 1.54275 -0.322027 0
M  V30 24158 C 2268.65 2.01543 0.274198 0
M  V30 24159 C 2269.01 1.20617 1.49898 0
M  V30 24160 O 2268.3 0.279837 1.89545 0
M  V30 24161 C 2268.49 3.51221 0.661707 0
M  V30 24162 C 2268.32 4.46637 -0.523971 0
M  V30 24163 C 2267.09 4.94845 -1.02259 0
M  V30 24164 C 2269.29 4.9556 -1.37567 0
M  V30 24165 N 2267.27 5.74161 -2.17284 0
M  V30 24166 C 2268.64 5.72786 -2.37311 0
M  V30 24167 C 2270.7 4.77706 -1.40361 0
M  V30 24168 C 2269.4 6.34058 -3.39651 0
M  V30 24169 C 2271.43 5.39812 -2.41571 0
M  V30 24170 C 2270.79 6.16888 -3.40042 0
M  V30 24171 H 2266.89 0.779358 0.064223 0
M  V30 24172 H 2269.47 1.89268 -0.456717 0
M  V30 24173 H 2267.64 3.63745 1.36176 0
M  V30 24174 H 2269.38 3.85259 1.23927 0
M  V30 24175 H 2266.13 4.69859 -0.594129 0
M  V30 24176 H 2266.55 6.18497 -2.753 0
M  V30 24177 H 2271.2 4.1768 -0.655981 0
M  V30 24178 H 2268.91 6.93205 -4.15321 0
M  V30 24179 H 2272.5 5.27916 -2.44533 0
M  V30 24180 H 2271.38 6.64092 -4.17075 0
M  V30 24181 N 2268.88 0.0501669 1.5752 0
M  V30 24182 C 2269.83 -0.942421 2.12653 0
M  V30 24183 C 2270.83 -1.32291 1.05809 0
M  V30 24184 O 2272.03 -1.30268 1.24219 0
M  V30 24185 H 2268.41 -0.321777 0.679679 0
M  V30 24186 H 2270.38 -0.452304 2.94952 0
M  V30 24187 C 2269.13 -2.20831 2.68568 0
M  V30 24188 H 2268.45 -1.92433 3.50442 0
M  V30 24189 H 2269.89 -2.88444 3.10767 0
M  V30 24190 C 2268.35 -2.95231 1.62297 0
M  V30 24191 O 2268.88 -3.88133 1.03515 0
M  V30 24192 N 2267.08 -2.57944 1.33841 0
M  V30 24193 H 2266.63 -1.82472 1.81829 0
M  V30 24194 H 2266.59 -3.0803 0.629649 0
M  V30 24195 N 2270.36 -1.56011 -0.223207 0
M  V30 24196 C 2271.27 -1.95445 -1.29762 0
M  V30 24197 C 2272.29 -0.858055 -1.51372 0
M  V30 24198 O 2273.46 -1.16148 -1.64534 0
M  V30 24199 C 2270.53 -2.26172 -2.62768 0
M  V30 24200 C 2269.59 -3.49371 -2.49476 0
M  V30 24201 C 2268.82 -3.78623 -3.76139 0
M  V30 24202 O 2269.05 -3.09576 -4.79081 0
M  V30 24203 O 2267.98 -4.72116 -3.7335 0
M  V30 24204 H 2271.81 -2.87006 -0.993039 0
M  V30 24205 H 2269.39 -1.432 -0.425933 0
M  V30 24206 H 2271.27 -2.47137 -3.41323 0
M  V30 24207 H 2269.95 -1.37786 -2.92911 0
M  V30 24208 H 2268.85 -3.33687 -1.69127 0
M  V30 24209 H 2270.19 -4.38135 -2.24273 0
M  V30 24210 N 2271.84 0.489844 -1.49794 0
M  V30 24211 C 2272.8 1.57243 -1.66755 0
M  V30 24212 C 2273.8 1.51501 -0.538894 0
M  V30 24213 O 2274.99 1.54454 -0.805572 0
M  V30 24214 C 2272.12 2.96893 -1.67533 0
M  V30 24215 H 2273.32 1.4353 -2.63323 0
M  V30 24216 H 2270.87 0.71489 -1.38993 0
M  V30 24217 H 2271.61 3.16072 -0.725893 0
M  V30 24218 H 2271.39 3.02469 -2.49509 0
M  V30 24219 H 2272.88 3.75526 -1.82674 0
M  V30 24220 N 2273.32 1.39056 0.741698 0
M  V30 24221 C 2274.27 1.37374 1.877 0
M  V30 24222 C 2275.26 0.257841 1.67426 0
M  V30 24223 O 2276.47 0.427519 1.74849 0
M  V30 24224 H 2272.84 0.428823 0.61775 0
M  V30 24225 H 2274.81 2.3315 1.86235 0
M  V30 24226 C 2273.56 1.22747 3.25313 0
M  V30 24227 H 2272.88 2.07879 3.41506 0
M  V30 24228 H 2274.32 1.25626 4.04962 0
M  V30 24229 C 2272.78 -0.0646724 3.36838 0
M  V30 24230 O 2273.31 -1.03734 3.88075 0
M  V30 24231 N 2271.52 -0.125493 2.90329 0
M  V30 24232 H 2271.07 0.666726 2.48822 0
M  V30 24233 H 2271.02 -0.989587 2.9842 0
M  V30 24234 N 2274.8 -0.971167 1.24121 0
M  V30 24235 C 2276.21 -1.23914 1.00586 0
M  V30 24236 C 2276.41 -1.99439 -0.287446 0
M  V30 24237 O 2275.47 -2.31659 -1.0045 0
M  V30 24238 C 2276.78 -2.02966 2.21867 0
M  V30 24239 C 2278.33 -2.16072 2.26455 0
M  V30 24240 C 2278.8 -2.98518 3.47348 0
M  V30 24241 N 2280.29 -3.06101 3.47644 0
M  V30 24242 C 2281.03 -3.70243 4.37844 0
M  V30 24243 N 2280.53 -4.36133 5.38294 0
M  V30 24244 N 2282.32 -3.67221 4.25565 0
M  V30 24245 H 2274.47 -0.465463 2.07237 0
M  V30 24246 H 2276.73 -0.268299 0.909241 0
M  V30 24247 H 2276.44 -1.54855 3.15773 0
M  V30 24248 H 2276.31 -3.03705 2.23704 0
M  V30 24249 H 2278.7 -2.63387 1.33083 0
M  V30 24250 H 2278.78 -1.14692 2.28647 0
M  V30 24251 H 2278.42 -2.51897 4.41033 0
M  V30 24252 H 2278.35 -4.00087 3.424 0
M  V30 24253 H 2280.85 -2.59228 2.74971 0
M  V30 24254 H 2281.16 -4.82883 6.03361 0
M  V30 24255 H 2279.5 -4.34812 5.42184 0
M  V30 24256 H 2282.69 -3.14921 3.46327 0
M  V30 24257 H 2282.87 -4.16926 4.96061 0
M  V30 24258 N 2276.27 -1.05441 -1.17133 0
M  V30 24259 C 2277.69 -0.791706 -1.69083 0
M  V30 24260 C 2278.04 0.685806 -1.83824 0
M  V30 24261 O 2277.16 1.53276 -1.5276 0
M  V30 24262 C 2277.76 -1.43055 -3.07117 0
M  V30 24263 C 2276.32 -1.21583 -3.56222 0
M  V30 24264 C 2275.46 -1.51251 -2.32419 0
M  V30 24265 H 2278.41 -1.21902 -1.01615 0
M  V30 24266 H 2278.43 -0.841185 -3.71085 0
M  V30 24267 H 2277.95 -2.50589 -2.96356 0
M  V30 24268 H 2276.05 -0.159853 -3.72257 0
M  V30 24269 H 2276.16 -1.92254 -4.38834 0
M  V30 24270 H 2274.52 -0.932695 -2.37008 0
M  V30 24271 H 2275.31 -2.59924 -2.24264 0
M  V30 24272 N 2277.75 1.33613 -0.835776 0
M  V30 24273 C 2279 1.97491 -0.429144 0
M  V30 24274 C 2279.32 1.66544 1.0143 0
M  V30 24275 O 2278.59 0.962774 1.70609 0
M  V30 24276 H 2277.17 0.730594 -0.155699 0
M  V30 24277 H 2279.83 1.6303 -1.06805 0
M  V30 24278 H 2278.93 3.07059 -0.558664 0
M  V30 24279 N 2279.23 0.591922 1.46062 0
M  V30 24280 C 2280.18 -0.136029 2.30399 0
M  V30 24281 C 2281.15 -0.875214 1.41171 0
M  V30 24282 O 2282.33 -0.86406 1.70114 0
M  V30 24283 C 2279.47 -1.13775 3.25806 0
M  V30 24284 C 2278.59 -0.401062 4.30134 0
M  V30 24285 C 2277.72 -1.39112 5.12661 0
M  V30 24286 C 2276.76 -0.641355 6.08731 0
M  V30 24287 N 2275.9 -1.57992 6.84093 0
M  V30 24288 H 2280.74 0.589195 2.92117 0
M  V30 24289 H 2278.27 0.302367 1.43959 0
M  V30 24290 H 2280.23 -1.73149 3.79572 0
M  V30 24291 H 2278.86 -1.83058 2.65875 0
M  V30 24292 H 2277.91 0.307893 3.79152 0
M  V30 24293 H 2279.23 0.184652 4.98458 0
M  V30 24294 H 2278.38 -2.05739 5.70751 0
M  V30 24295 H 2277.12 -2.01076 4.44319 0
M  V30 24296 H 2276.12 0.0386385 5.49786 0
M  V30 24297 H 2277.35 -0.0269751 6.79095 0
M  V30 24298 H 2275.29 -2.1875 6.18453 0
M  V30 24299 H 2275.21 -1.04725 7.48711 0
M  V30 24300 H 2276.48 -2.23626 7.46734 0
M  V30 24301 N 2280.71 -1.54102 0.330204 0
M  V30 24302 C 2281.95 -2.00984 -0.27077 0
M  V30 24303 C 2282.29 -1.21791 -1.51263 0
M  V30 24304 O 2281.56 -0.301961 -1.92142 0
M  V30 24305 C 2281.85 -3.55095 -0.598277 0
M  V30 24306 C 2281.7 -4.45009 0.654752 0
M  V30 24307 C 2283.02 -4.16791 -1.41327 0
M  V30 24308 H 2280.14 -0.730597 -0.0969403 0
M  V30 24309 H 2282.78 -1.8464 0.448098 0
M  V30 24310 H 2280.93 -3.69153 -1.21071 0
M  V30 24311 H 2282.6 -4.42811 1.29292 0
M  V30 24312 H 2280.84 -4.14414 1.28232 0
M  V30 24313 H 2281.51 -5.50683 0.381041 0
M  V30 24314 H 2283.99 -4.06349 -0.895525 0
M  V30 24315 H 2282.87 -5.24721 -1.61118 0
M  V30 24316 H 2283.13 -3.70546 -2.4114 0
M  V30 24317 N 2282.19 -0.0585199 -1.57491 0
M  V30 24318 C 2283.6 0.476106 -1.80527 0
M  V30 24319 C 2283.95 1.70467 -0.971364 0
M  V30 24320 O 2283.07 2.15564 -0.19005 0
M  V30 24321 C 2283.67 0.870529 -3.27425 0
M  V30 24322 C 2282.23 1.35009 -3.51354 0
M  V30 24323 C 2281.37 0.328822 -2.75344 0
M  V30 24324 H 2284.33 -0.284339 -1.56132 0
M  V30 24325 H 2284.35 1.73293 -3.38748 0
M  V30 24326 H 2283.86 -0.0238309 -3.88093 0
M  V30 24327 H 2281.96 2.2634 -2.95975 0
M  V30 24328 H 2282.07 1.33718 -4.60061 0
M  V30 24329 H 2280.44 0.803279 -2.41701 0
M  V30 24330 H 2281.22 -0.55758 -3.38742 0
M  V30 24331 N 2283.66 1.56128 0.21493 0
M  V30 24332 C 2284.91 1.79448 0.93834 0
M  V30 24333 C 2285.24 0.628411 1.84069 0
M  V30 24334 O 2284.49 -0.386891 1.91838 0
M  V30 24335 C 2284.79 3.08583 1.80308 0
M  V30 24336 C 2284.46 4.38422 1.05341 0
M  V30 24337 C 2283.12 4.73699 0.846352 0
M  V30 24338 C 2285.47 5.18554 0.524497 0
M  V30 24339 C 2282.8 5.86617 0.0985799 0
M  V30 24340 C 2285.15 6.32251 -0.209964 0
M  V30 24341 C 2283.82 6.66125 -0.428219 0
M  V30 24342 H 2283.09 0.656645 0.343363 0
M  V30 24343 H 2285.73 1.90388 0.206044 0
M  V30 24344 H 2284.04 2.92793 2.60345 0
M  V30 24345 H 2285.74 3.23829 2.36507 0
M  V30 24346 H 2282.33 4.10727 1.22478 0
M  V30 24347 H 2286.51 4.91731 0.671922 0
M  V30 24348 H 2281.77 6.11347 -0.0806828 0
M  V30 24349 H 2285.94 6.93569 -0.627279 0
M  V30 24350 H 2283.57 7.53466 -1.00957 0
M  V30 24351 N 2285.14 -0.481893 1.50052 0
M  V30 24352 C 2286.07 -1.58948 1.71049 0
M  V30 24353 C 2287.05 -1.60641 0.559316 0
M  V30 24354 O 2288.24 -1.7708 0.797274 0
M  V30 24355 C 2285.37 -2.97336 1.79467 0
M  V30 24356 C 2284.32 -3.1051 2.94563 0
M  V30 24357 C 2283.65 -4.50439 2.88113 0
M  V30 24358 C 2284.95 -2.88739 4.35232 0
M  V30 24359 H 2286.64 -1.41631 2.63782 0
M  V30 24360 H 2284.19 -0.67992 1.26937 0
M  V30 24361 H 2286.14 -3.74738 1.92741 0
M  V30 24362 H 2284.87 -3.15786 0.833467 0
M  V30 24363 H 2283.52 -2.35538 2.80923 0
M  V30 24364 H 2283.17 -4.65791 1.89861 0
M  V30 24365 H 2282.87 -4.6019 3.65375 0
M  V30 24366 H 2284.4 -5.29875 3.03421 0
M  V30 24367 H 2285.81 -3.55898 4.49455 0
M  V30 24368 H 2284.21 -3.09946 5.13862 0
M  V30 24369 H 2285.28 -1.84688 4.48351 0
M  V30 24370 N 2286.62 -1.39448 -0.734313 0
M  V30 24371 C 2288.04 -1.21067 -1.03995 0
M  V30 24372 C 2288.24 -0.0727373 -2.01369 0
M  V30 24373 O 2287.29 0.575383 -2.45857 0
M  V30 24374 C 2288.61 -2.54499 -1.60158 0
M  V30 24375 C 2290.15 -2.6135 -1.72235 0
M  V30 24376 C 2290.63 -3.95006 -2.31807 0
M  V30 24377 N 2292.12 -3.96648 -2.39216 0
M  V30 24378 C 2292.85 -4.96839 -2.86249 0
M  V30 24379 N 2292.35 -6.07427 -3.33173 0
M  V30 24380 N 2294.14 -4.84218 -2.85464 0
M  V30 24381 H 2286.29 -2.12215 -0.0885251 0
M  V30 24382 H 2288.56 -0.942508 -0.101893 0
M  V30 24383 H 2288.26 -3.38323 -0.960752 0
M  V30 24384 H 2288.14 -2.74267 -2.58955 0
M  V30 24385 H 2290.52 -1.7791 -2.3544 0
M  V30 24386 H 2290.61 -2.45432 -0.720896 0
M  V30 24387 H 2290.25 -4.78877 -1.6923 0
M  V30 24388 H 2290.18 -4.08245 -3.32631 0
M  V30 24389 H 2292.67 -3.16783 -2.06051 0
M  V30 24390 H 2292.98 -6.79786 -3.67574 0
M  V30 24391 H 2291.33 -6.11019 -3.3118 0
M  V30 24392 H 2294.52 -3.96925 -2.48129 0
M  V30 24393 H 2294.69 -5.62446 -3.21804 0
M  V30 24394 N 2288.1 0.964571 -1.24635 0
M  V30 24395 C 2289.34 1.71047 -1.08952 0
M  V30 24396 C 2289.68 1.90637 0.370268 0
M  V30 24397 O 2288.95 1.47014 1.27347 0
M  V30 24398 C 2289.24 3.09936 -1.83334 0
M  V30 24399 C 2289.09 2.97818 -3.37082 0
M  V30 24400 C 2290.41 4.09651 -1.60853 0
M  V30 24401 H 2287.53 0.620814 -0.397189 0
M  V30 24402 H 2290.17 1.12188 -1.53342 0
M  V30 24403 H 2288.32 3.60183 -1.45603 0
M  V30 24404 H 2289.99 2.54973 -3.8443 0
M  V30 24405 H 2288.23 2.33959 -3.65302 0
M  V30 24406 H 2288.9 3.96224 -3.84331 0
M  V30 24407 H 2291.38 3.68276 -1.93681 0
M  V30 24408 H 2290.26 5.04892 -2.15349 0
M  V30 24409 H 2290.52 4.38697 -0.547511 0
M  V30 24410 N 2289.58 1.0606 1.16572 0
M  V30 24411 C 2290.54 0.67343 2.19083 0
M  V30 24412 C 2291.54 -0.27962 1.5835 0
M  V30 24413 O 2292.73 -0.0623182 1.74088 0
M  V30 24414 C 2289.86 -0.00948241 3.40899 0
M  V30 24415 H 2291.05 1.58086 2.54851 0
M  V30 24416 H 2288.61 0.855539 1.30806 0
M  V30 24417 H 2289.34 -0.929772 3.10686 0
M  V30 24418 H 2289.13 0.675798 3.86232 0
M  V30 24419 H 2290.62 -0.266171 4.16751 0
M  V30 24420 N 2291.06 -1.33168 0.84285 0
M  V30 24421 C 2292.28 -2.01855 0.454091 0
M  V30 24422 C 2292.7 -1.63399 -0.945841 0
M  V30 24423 O 2292.06 -0.84933 -1.61532 0
M  V30 24424 C 2292.11 -3.56981 0.569777 0
M  V30 24425 O 2291.83 -3.94051 1.91455 0
M  V30 24426 C 2293.33 -4.42941 0.17849 0
M  V30 24427 H 2290.55 -0.646462 0.179801 0
M  V30 24428 H 2293.09 -1.7001 1.13653 0
M  V30 24429 H 2291.25 -3.87346 -0.0647906 0
M  V30 24430 H 2291.66 -4.88764 1.9029 0
M  V30 24431 H 2293.14 -5.51126 0.310473 0
M  V30 24432 H 2293.61 -4.30294 -0.879981 0
M  V30 24433 H 2294.22 -4.17943 0.787653 0
M  V30 24434 N 2292.53 -0.599659 -1.45746 0
M  V30 24435 C 2293.44 0.125847 -2.34262 0
M  V30 24436 C 2294.46 0.868598 -1.50769 0
M  V30 24437 O 2295.64 0.827971 -1.83594 0
M  V30 24438 C 2292.7 1.11581 -3.28254 0
M  V30 24439 C 2291.76 0.375881 -4.27651 0
M  V30 24440 C 2290.99 1.31868 -5.17152 0
M  V30 24441 O 2291.22 2.55612 -5.0992 0
M  V30 24442 O 2290.15 0.820052 -5.96287 0
M  V30 24443 H 2293.98 -0.601368 -2.97687 0
M  V30 24444 H 2291.56 -0.35996 -1.44999 0
M  V30 24445 H 2293.44 1.68619 -3.86194 0
M  V30 24446 H 2292.12 1.82419 -2.67404 0
M  V30 24447 H 2291.03 -0.236763 -3.7335 0
M  V30 24448 H 2292.36 -0.291856 -4.91334 0
M  V30 24449 N 2294.01 1.53925 -0.338371 0
M  V30 24450 C 2295.24 2.05714 0.263951 0
M  V30 24451 C 2295.66 1.21204 1.43845 0
M  V30 24452 O 2295.02 0.224567 1.79904 0
M  V30 24453 C 2295.07 3.54472 0.661938 0
M  V30 24454 O 2294.17 3.72836 1.76259 0
M  V30 24455 H 2293.51 0.662483 0.0448606 0
M  V30 24456 H 2296.04 1.98619 -0.491083 0
M  V30 24457 H 2296.05 3.97012 0.940524 0
M  V30 24458 H 2294.73 4.15433 -0.19701 0
M  V30 24459 H 2293.3 3.422 1.48167 0
M  V30 24460 N 2295.49 0.0668712 1.57458 0
M  V30 24461 C 2296.71 -0.615992 1.98041 0
M  V30 24462 C 2297.14 -1.6265 0.944799 0
M  V30 24463 O 2296.5 -1.81076 -0.0901776 0
M  V30 24464 C 2296.55 -1.26543 3.37667 0
M  V30 24465 O 2295.65 -2.38125 3.36705 0
M  V30 24466 H 2294.99 -0.158838 0.644722 0
M  V30 24467 H 2297.52 0.139927 2.04121 0
M  V30 24468 H 2297.53 -1.61343 3.74743 0
M  V30 24469 H 2296.21 -0.524944 4.12574 0
M  V30 24470 H 2294.78 -2.05155 3.11394 0
M  V30 24471 N 2296.97 -1.56239 -0.206647 0
M  V30 24472 C 2297.93 -1.92778 -1.23973 0
M  V30 24473 C 2298.93 -0.807754 -1.39039 0
M  V30 24474 O 2300.12 -1.07532 -1.37049 0
M  V30 24475 C 2297.25 -2.19169 -2.61108 0
M  V30 24476 H 2298.45 -2.8519 -0.927714 0
M  V30 24477 H 2296 -1.49751 -0.447692 0
M  V30 24478 H 2296.73 -1.29357 -2.97384 0
M  V30 24479 H 2296.52 -3.00777 -2.51547 0
M  V30 24480 H 2298.01 -2.48482 -3.35628 0
M  V30 24481 N 2298.45 0.473929 -1.50305 0
M  V30 24482 C 2299.39 1.57228 -1.68961 0
M  V30 24483 C 2300.36 1.57386 -0.530927 0
M  V30 24484 O 2301.55 1.7496 -0.761164 0
M  V30 24485 C 2298.69 2.9522 -1.78715 0
M  V30 24486 C 2297.8 3.04872 -3.06067 0
M  V30 24487 C 2296.94 4.33762 -3.06633 0
M  V30 24488 C 2295.97 4.37146 -4.2845 0
M  V30 24489 N 2295.11 5.57503 -4.26773 0
M  V30 24490 H 2299.95 1.40626 -2.62732 0
M  V30 24491 H 2297.49 0.683766 -1.30242 0
M  V30 24492 H 2299.45 3.75239 -1.82351 0
M  V30 24493 H 2298.08 3.10464 -0.88386 0
M  V30 24494 H 2297.13 2.17745 -3.11915 0
M  V30 24495 H 2298.44 3.03233 -3.96045 0
M  V30 24496 H 2297.59 5.22125 -3.08983 0
M  V30 24497 H 2296.33 4.38006 -2.1448 0
M  V30 24498 H 2295.34 3.47181 -4.26316 0
M  V30 24499 H 2296.56 4.34595 -5.21827 0
M  V30 24500 H 2294.51 5.62538 -3.37472 0
M  V30 24501 H 2294.43 5.57592 -5.10516 0
M  V30 24502 H 2295.69 6.47999 -4.33264 0
M  V30 24503 N 2299.92 1.39835 0.726907 0
M  V30 24504 C 2301.15 1.4079 1.51611 0
M  V30 24505 C 2301.57 0.00454824 1.88799 0
M  V30 24506 O 2300.92 -0.968782 1.54664 0
M  V30 24507 C 2300.97 2.28826 2.79859 0
M  V30 24508 O 2300.7 3.63697 2.44247 0
M  V30 24509 C 2302.2 2.38251 3.73833 0
M  V30 24510 H 2299.42 0.480602 0.468255 0
M  V30 24511 H 2301.96 1.83749 0.897575 0
M  V30 24512 H 2300.12 1.89258 3.38024 0
M  V30 24513 H 2300.53 4.10336 3.26688 0
M  V30 24514 H 2302 3.04081 4.60693 0
M  V30 24515 H 2302.48 1.40411 4.16151 0
M  V30 24516 H 2303.09 2.78323 3.21584 0
M  V30 24517 N 2301.4 -0.957948 1.25144 0
M  V30 24518 C 2302.81 -1.51683 1.08854 0
M  V30 24519 C 2303.16 -1.93287 -0.336836 0
M  V30 24520 O 2302.29 -1.78292 -1.22641 0
M  V30 24521 C 2302.88 -2.7565 1.96983 0
M  V30 24522 C 2301.44 -3.27862 1.84887 0
M  V30 24523 C 2300.59 -2.00717 1.91332 0
M  V30 24524 H 2303.54 -0.775196 1.38479 0
M  V30 24525 H 2303.56 -3.49348 1.50786 0
M  V30 24526 H 2303.07 -2.45339 3.00716 0
M  V30 24527 H 2301.17 -3.63002 0.840246 0
M  V30 24528 H 2301.29 -3.96103 2.69517 0
M  V30 24529 H 2299.65 -2.15868 1.35178 0
M  V30 24530 H 2300.43 -1.72758 2.96664 0
M  V30 24531 N 2302.88 -1.06677 -1.16008 0
M  V30 24532 C 2304.1 -0.80674 -1.91067 0
M  V30 24533 C 2304.53 0.633454 -1.77113 0
M  V30 24534 O 2303.89 1.44185 -1.0991 0
M  V30 24535 C 2303.94 -1.21112 -3.39653 0
M  V30 24536 O 2303.04 -0.352262 -4.10893 0
M  V30 24537 H 2302.38 -0.294497 -0.59512 0
M  V30 24538 H 2304.91 -1.42359 -1.46953 0
M  V30 24539 H 2304.92 -1.18435 -3.90432 0
M  V30 24540 H 2303.6 -2.26014 -3.49128 0
M  V30 24541 H 2302.17 -0.440933 -3.70284 0
M  V30 24542 N 2304.36 1.32719 -0.8499 0
M  V30 24543 C 2305.3 2.28983 -0.289073 0
M  V30 24544 C 2306.27 1.54834 0.601297 0
M  V30 24545 O 2307.46 1.83081 0.537221 0
M  V30 24546 C 2304.6 3.41151 0.520563 0
M  V30 24547 C 2303.71 4.3019 -0.395064 0
M  V30 24548 C 2302.85 5.29483 0.426741 0
M  V30 24549 C 2301.89 6.10163 -0.486583 0
M  V30 24550 N 2301.02 7.01468 0.297755 0
M  V30 24551 H 2305.86 2.76345 -1.11524 0
M  V30 24552 H 2303.4 1.35966 -0.561403 0
M  V30 24553 H 2305.36 4.049 1.00556 0
M  V30 24554 H 2303.99 2.94952 1.3116 0
M  V30 24555 H 2303.04 3.67064 -0.998425 0
M  V30 24556 H 2304.35 4.86605 -1.09621 0
M  V30 24557 H 2303.51 5.98813 0.9751 0
M  V30 24558 H 2302.25 4.73673 1.16127 0
M  V30 24559 H 2301.25 5.39741 -1.04686 0
M  V30 24560 H 2302.48 6.68058 -1.21965 0
M  V30 24561 H 2300.42 6.48093 1.01547 0
M  V30 24562 H 2300.34 7.55215 -0.34445 0
M  V30 24563 H 2301.61 7.7509 0.827994 0
M  V30 24564 N 2305.84 0.60738 1.45426 0
M  V30 24565 C 2306.77 -0.0988942 2.3329 0
M  V30 24566 C 2307.75 -0.858981 1.46818 0
M  V30 24567 O 2308.93 -0.829573 1.7559 0
M  V30 24568 C 2306.06 -1.09699 3.2952 0
M  V30 24569 C 2305.02 -0.450131 4.25626 0
M  V30 24570 C 2304.34 -1.55646 5.11545 0
M  V30 24571 C 2305.64 0.628546 5.18504 0
M  V30 24572 H 2307.34 0.634767 2.92594 0
M  V30 24573 H 2304.88 0.306706 1.40696 0
M  V30 24574 H 2306.84 -1.59964 3.89858 0
M  V30 24575 H 2305.56 -1.86124 2.68375 0
M  V30 24576 H 2304.22 0.0316531 3.66586 0
M  V30 24577 H 2303.87 -2.31099 4.46769 0
M  V30 24578 H 2303.57 -1.12915 5.76649 0
M  V30 24579 H 2305.09 -2.06138 5.74752 0
M  V30 24580 H 2306.5 0.209978 5.72915 0
M  V30 24581 H 2304.9 0.977593 5.92084 0
M  V30 24582 H 2305.97 1.50522 4.60946 0
M  V30 24583 N 2307.31 -1.53743 0.34653 0
M  V30 24584 C 2308.24 -2.28059 -0.501153 0
M  V30 24585 C 2309.23 -1.29736 -1.10011 0
M  V30 24586 O 2310.41 -1.58583 -1.12094 0
M  V30 24587 C 2307.54 -3.05562 -1.65073 0
M  V30 24588 C 2306.49 -4.11413 -1.17996 0
M  V30 24589 C 2305.82 -4.76889 -2.41829 0
M  V30 24590 C 2307.12 -5.21558 -0.278303 0
M  V30 24591 H 2308.81 -2.99164 0.118803 0
M  V30 24592 H 2306.36 -1.43881 0.0585784 0
M  V30 24593 H 2308.31 -3.56291 -2.25022 0
M  V30 24594 H 2307.04 -2.32113 -2.29763 0
M  V30 24595 H 2305.7 -3.61602 -0.603268 0
M  V30 24596 H 2305.34 -4.00031 -3.04933 0
M  V30 24597 H 2305.04 -5.48405 -2.1101 0
M  V30 24598 H 2306.57 -5.30403 -3.02499 0
M  V30 24599 H 2307.98 -5.67904 -0.784723 0
M  V30 24600 H 2306.38 -6.00068 -0.0618652 0
M  V30 24601 H 2307.45 -4.80041 0.684761 0
M  V30 24602 N 2308.79 -0.0752207 -1.5742 0
M  V30 24603 C 2310.07 0.634296 -1.8503 0
M  V30 24604 C 2310.45 1.8758 -0.968338 0
M  V30 24605 O 2309.8 2.28472 -0.035515 0
M  V30 24606 C 2310.01 0.968683 -3.35287 0
M  V30 24607 C 2311.36 1.3407 -4.02878 0
M  V30 24608 O 2312.38 1.06031 -3.40053 0
M  V30 24609 O 2311.24 1.86497 -5.13694 0
M  V30 24610 H 2308.33 0.315374 -0.764505 0
M  V30 24611 H 2310.88 -0.106412 -1.69366 0
M  V30 24612 H 2309.65 0.0870688 -3.91203 0
M  V30 24613 H 2309.27 1.76604 -3.56226 0
M  V30 24614 N 2310.27 1.56347 0.198358 0
M  V30 24615 C 2311.68 1.70382 0.763328 0
M  V30 24616 C 2312.03 0.681236 1.83994 0
M  V30 24617 O 2311.16 -0.163012 2.15785 0
M  V30 24618 C 2311.75 3.08911 1.39137 0
M  V30 24619 C 2310.31 3.24723 1.90347 0
M  V30 24620 C 2309.46 2.66332 0.772187 0
M  V30 24621 H 2312.41 1.58678 -0.0266656 0
M  V30 24622 H 2312.43 3.06059 2.2607 0
M  V30 24623 H 2311.94 3.83315 0.607571 0
M  V30 24624 H 2310.04 2.5523 2.71456 0
M  V30 24625 H 2310.16 4.32194 2.0675 0
M  V30 24626 H 2308.52 2.25422 1.18562 0
M  V30 24627 H 2309.3 3.433 0.000675217 0
M  V30 24628 N 2311.75 -0.465951 1.50554 0
M  V30 24629 C 2312.68 -1.57125 1.72725 0
M  V30 24630 C 2313.66 -1.60039 0.576322 0
M  V30 24631 O 2314.84 -1.76224 0.816011 0
M  V30 24632 C 2311.97 -2.95416 1.82611 0
M  V30 24633 C 2310.93 -3.07368 2.9784 0
M  V30 24634 C 2310.25 -4.47357 2.92875 0
M  V30 24635 C 2311.55 -2.84106 4.3827 0
M  V30 24636 H 2313.25 -1.38825 2.6527 0
M  V30 24637 H 2310.79 -0.666418 1.27651 0
M  V30 24638 H 2312.75 -3.72673 1.96705 0
M  V30 24639 H 2311.47 -3.14884 0.866914 0
M  V30 24640 H 2310.13 -2.32545 2.83405 0
M  V30 24641 H 2309.78 -4.63752 1.94791 0
M  V30 24642 H 2309.48 -4.56289 3.70235 0
M  V30 24643 H 2311 -5.26627 3.09024 0
M  V30 24644 H 2312.42 -3.5111 4.53205 0
M  V30 24645 H 2310.81 -3.04478 5.1712 0
M  V30 24646 H 2311.88 -1.79923 4.50284 0
M  V30 24647 N 2313.23 -1.40218 -0.719481 0
M  V30 24648 C 2314.19 -1.3993 -1.81527 0
M  V30 24649 C 2315.19 -0.29375 -1.58094 0
M  V30 24650 O 2316.38 -0.552458 -1.65208 0
M  V30 24651 C 2313.51 -1.18721 -3.19559 0
M  V30 24652 H 2314.7 -2.37454 -1.83182 0
M  V30 24653 H 2312.26 -1.2601 -0.924724 0
M  V30 24654 H 2312.99 -0.219423 -3.23557 0
M  V30 24655 H 2312.78 -1.98799 -3.37967 0
M  V30 24656 H 2314.27 -1.21298 -3.99595 0
M  V30 24657 N 2314.7 0.951297 -1.25651 0
M  V30 24658 C 2315.95 1.69939 -1.11769 0
M  V30 24659 C 2316.31 1.8942 0.337317 0
M  V30 24660 O 2315.6 1.45647 1.24489 0
M  V30 24661 C 2315.79 3.08228 -1.80915 0
M  V30 24662 C 2315.62 3.02239 -3.32989 0
M  V30 24663 C 2314.39 3.05812 -4.02253 0
M  V30 24664 C 2316.59 2.8315 -4.29337 0
M  V30 24665 N 2314.57 2.90015 -5.41077 0
M  V30 24666 C 2315.94 2.75819 -5.55269 0
M  V30 24667 C 2318 2.67856 -4.19712 0
M  V30 24668 C 2316.7 2.54755 -6.72675 0
M  V30 24669 C 2318.73 2.48164 -5.36813 0
M  V30 24670 C 2318.09 2.41556 -6.61687 0
M  V30 24671 H 2314.19 0.629673 -0.463719 0
M  V30 24672 H 2316.77 1.12656 -1.58798 0
M  V30 24673 H 2314.94 3.63671 -1.36376 0
M  V30 24674 H 2316.67 3.71838 -1.59745 0
M  V30 24675 H 2313.43 3.15133 -3.53537 0
M  V30 24676 H 2313.85 2.85312 -6.13943 0
M  V30 24677 H 2318.5 2.71737 -3.23912 0
M  V30 24678 H 2316.21 2.49616 -7.68582 0
M  V30 24679 H 2319.8 2.3725 -5.31229 0
M  V30 24680 H 2318.68 2.26518 -7.50772 0
M  V30 24681 N 2316.18 1.07291 1.1544 0
M  V30 24682 C 2317.46 0.708824 1.82305 0
M  V30 24683 C 2317.84 -0.808773 1.94992 0
M  V30 24684 O 2317.19 -1.72296 1.50088 0
M  V30 24685 C 2317.4 1.42253 3.18693 0
M  V30 24686 C 2318.75 1.57424 3.94339 0
M  V30 24687 O 2319.77 1.38325 3.28245 0
M  V30 24688 O 2318.63 1.88843 5.12836 0
M  V30 24689 H 2315.72 0.252146 0.787624 0
M  V30 24690 H 2318.27 1.1738 1.22557 0
M  V30 24691 H 2317.04 2.45689 3.04553 0
M  V30 24692 H 2316.66 0.948291 3.86126 0
M  V30 24693 N 2317.66 -1.32267 0.856927 0
M  V30 24694 C 2318.61 -2.3076 0.292027 0
M  V30 24695 C 2319.6 -1.58948 -0.585829 0
M  V30 24696 O 2320.81 -1.73664 -0.47338 0
M  V30 24697 H 2317.18 -0.748177 0.0757341 0
M  V30 24698 H 2319.15 -2.75893 1.13691 0
M  V30 24699 C 2317.9 -3.44045 -0.502809 0
M  V30 24700 H 2317.23 -3.99466 0.163398 0
M  V30 24701 H 2318.67 -4.15112 -0.863618 0
M  V30 24702 C 2317.13 -2.91508 -1.68893 0
M  V30 24703 O 2317.66 -2.89189 -2.78805 0
M  V30 24704 N 2315.86 -2.47877 -1.51675 0
M  V30 24705 H 2315.41 -2.49962 -0.622622 0
M  V30 24706 H 2315.37 -2.1308 -2.3118 0
M  V30 24707 N 2319.14 -0.615084 -1.45102 0
M  V30 24708 C 2320.09 0.120925 -2.27679 0
M  V30 24709 C 2321.07 0.831467 -1.37751 0
M  V30 24710 O 2322.26 0.72022 -1.61684 0
M  V30 24711 C 2319.39 1.11264 -3.24769 0
M  V30 24712 C 2318.48 0.402553 -4.22185 0
M  V30 24713 N 2318.87 -0.559972 -5.02691 0
M  V30 24714 C 2317.17 0.649124 -4.41251 0
M  V30 24715 C 2317.87 -0.978042 -5.73419 0
M  V30 24716 N 2316.85 -0.320199 -5.42656 0
M  V30 24717 H 2320.65 -0.618232 -2.87324 0
M  V30 24718 H 2318.16 -0.439331 -1.56345 0
M  V30 24719 H 2320.16 1.65439 -3.82669 0
M  V30 24720 H 2318.82 1.85227 -2.66685 0
M  V30 24721 H 2319.83 -0.937065 -5.09352 0
M  V30 24722 H 2316.51 1.37286 -3.94283 0
M  V30 24723 H 2317.9 -1.77233 -6.48103 0
M  V30 24724 N 2320.62 1.53557 -0.354678 0
M  V30 24725 C 2321.85 2.05211 0.239131 0
M  V30 24726 C 2322.26 1.22866 1.43877 0
M  V30 24727 O 2321.6 0.259597 1.81856 0
M  V30 24728 C 2321.66 3.52476 0.70719 0
M  V30 24729 C 2321.32 4.55465 -0.374293 0
M  V30 24730 C 2322.32 5.05368 -1.22063 0
M  V30 24731 C 2320.01 4.99481 -0.531411 0
M  V30 24732 C 2322 5.97878 -2.20953 0
M  V30 24733 C 2319.69 5.918 -1.52369 0
M  V30 24734 C 2320.69 6.40888 -2.36119 0
M  V30 24735 O 2320.37 7.31388 -3.33656 0
M  V30 24736 H 2320.11 0.674297 0.0479598 0
M  V30 24737 H 2322.66 1.99015 -0.508156 0
M  V30 24738 H 2320.89 3.56173 1.5059 0
M  V30 24739 H 2322.58 3.87044 1.22278 0
M  V30 24740 H 2323.34 4.72118 -1.11038 0
M  V30 24741 H 2319.22 4.60867 0.110657 0
M  V30 24742 H 2322.77 6.36116 -2.86359 0
M  V30 24743 H 2318.66 6.24465 -1.63445 0
M  V30 24744 H 2319.43 7.49354 -3.29257 0
M  V30 24745 N 2322.1 0.083568 1.57378 0
M  V30 24746 C 2323.34 -0.581684 1.93548 0
M  V30 24747 C 2323.66 -1.69433 0.96527 0
M  V30 24748 O 2322.93 -1.95894 0.0153713 0
M  V30 24749 H 2321.51 -0.217861 0.714525 0
M  V30 24750 H 2324.18 0.144192 1.94366 0
M  V30 24751 H 2323.27 -0.999371 2.95667 0
M  V30 24752 N 2323.57 -1.5645 -0.190064 0
M  V30 24753 C 2324.8 -1.85034 -0.92574 0
M  V30 24754 C 2325.22 -0.666689 -1.76637 0
M  V30 24755 O 2324.57 0.364534 -1.78822 0
M  V30 24756 C 2324.62 -3.12471 -1.8178 0
M  V30 24757 O 2324.35 -4.26272 -1.01111 0
M  V30 24758 C 2325.85 -3.54269 -2.66474 0
M  V30 24759 H 2323.07 -0.614342 -0.269861 0
M  V30 24760 H 2325.61 -2.0356 -0.195802 0
M  V30 24761 H 2323.77 -2.95827 -2.50131 0
M  V30 24762 H 2324.18 -4.98872 -1.61947 0
M  V30 24763 H 2325.65 -4.46391 -3.24714 0
M  V30 24764 H 2326.13 -2.77497 -3.40429 0
M  V30 24765 H 2326.74 -3.73461 -2.03487 0
M  V30 24766 N 2325.05 0.45796 -1.50799 0
M  V30 24767 C 2325.98 1.57208 -1.66788 0
M  V30 24768 C 2327 1.53264 -0.548989 0
M  V30 24769 O 2328.19 1.58414 -0.822628 0
M  V30 24770 C 2325.29 2.9611 -1.64839 0
M  V30 24771 C 2324.46 3.24782 -2.92977 0
M  V30 24772 C 2323.52 4.43304 -2.83493 0
M  V30 24773 O 2322.54 4.42967 -3.57448 0
M  V30 24774 N 2323.75 5.45711 -1.97939 0
M  V30 24775 H 2326.51 1.43904 -2.62891 0
M  V30 24776 H 2324.07 0.646591 -1.48428 0
M  V30 24777 H 2326.06 3.73387 -1.5609 0
M  V30 24778 H 2324.63 3.03116 -0.764171 0
M  V30 24779 H 2323.85 2.35995 -3.15753 0
M  V30 24780 H 2325.14 3.40756 -3.7784 0
M  V30 24781 H 2324.54 5.48812 -1.37192 0
M  V30 24782 H 2323.1 6.21921 -1.95084 0
M  V30 24783 N 2326.53 1.40598 0.712035 0
M  V30 24784 C 2327.78 1.38372 1.46752 0
M  V30 24785 C 2328.09 -0.00974952 1.95598 0
M  V30 24786 O 2329.3 -0.154629 2.71059 0
M  V30 24787 C 2327.75 2.43211 2.65285 0
M  V30 24788 C 2327.36 3.88386 2.23294 0
M  V30 24789 C 2329.11 2.50097 3.43004 0
M  V30 24790 C 2327.01 4.84814 3.38688 0
M  V30 24791 H 2325.94 0.514516 0.551171 0
M  V30 24792 H 2328.59 1.6635 0.774587 0
M  V30 24793 H 2326.98 2.08338 3.36766 0
M  V30 24794 H 2328.15 4.32422 1.5921 0
M  V30 24795 H 2326.46 3.85008 1.58611 0
M  V30 24796 H 2329.06 3.19327 4.28876 0
M  V30 24797 H 2329.4 1.5326 3.87062 0
M  V30 24798 H 2329.94 2.83979 2.78569 0
M  V30 24799 H 2326.68 5.82997 2.99658 0
M  V30 24800 H 2326.2 4.4544 4.01675 0
M  V30 24801 H 2327.88 5.04802 4.04703 0
M  V30 24802 N 2328.01 -0.94462 1.26153 0
M  V30 24803 C 2329.42 -1.5052 1.10456 0
M  V30 24804 C 2329.77 -1.93633 -0.316316 0
M  V30 24805 O 2328.89 -1.79583 -1.20743 0
M  V30 24806 C 2329.49 -2.73546 1.99896 0
M  V30 24807 C 2328.05 -3.25883 1.88354 0
M  V30 24808 C 2327.2 -1.98676 1.9345 0
M  V30 24809 H 2330.15 -0.760465 1.39293 0
M  V30 24810 H 2330.17 -3.47729 1.54483 0
M  V30 24811 H 2329.68 -2.42136 3.03301 0
M  V30 24812 H 2327.78 -3.62091 0.8787 0
M  V30 24813 H 2327.89 -3.93222 2.73703 0
M  V30 24814 H 2326.26 -2.14422 1.3746 0
M  V30 24815 H 2327.04 -1.69602 2.98479 0
M  V30 24816 N 2329.49 -1.07901 -1.1487 0
M  V30 24817 C 2330.43 -0.704357 -2.1979 0
M  V30 24818 C 2331.4 0.306958 -1.63239 0
M  V30 24819 O 2332.59 0.192137 -1.8983 0
M  V30 24820 C 2329.73 -0.114305 -3.44911 0
M  V30 24821 C 2328.84 -1.17777 -4.15635 0
M  V30 24822 C 2327.98 -0.55213 -5.28323 0
M  V30 24823 C 2327.01 -1.598 -5.90873 0
M  V30 24824 N 2326.15 -0.994526 -6.95021 0
M  V30 24825 H 2330.99 -1.6034 -2.51187 0
M  V30 24826 H 2328.53 -0.801373 -1.23355 0
M  V30 24827 H 2330.49 0.245471 -4.16477 0
M  V30 24828 H 2329.12 0.748075 -3.14012 0
M  V30 24829 H 2328.17 -1.65505 -3.42509 0
M  V30 24830 H 2329.48 -1.97054 -4.58226 0
M  V30 24831 H 2328.63 -0.140306 -6.06538 0
M  V30 24832 H 2327.37 0.272345 -4.86939 0
M  V30 24833 H 2326.38 -2.01954 -5.11366 0
M  V30 24834 H 2327.6 -2.42486 -6.34332 0
M  V30 24835 H 2325.55 -0.191054 -6.55722 0
M  V30 24836 H 2325.47 -1.72445 -7.3607 0
M  V30 24837 H 2326.73 -0.60839 -7.77122 0
M  V30 24838 N 2330.96 1.31811 -0.863929 0
M  V30 24839 C 2331.87 2.32428 -0.318502 0
M  V30 24840 C 2332.89 1.64452 0.568467 0
M  V30 24841 O 2334.07 1.9592 0.466625 0
M  V30 24842 C 2331.13 3.43413 0.476295 0
M  V30 24843 C 2330.19 4.27061 -0.437915 0
M  V30 24844 C 2329.42 5.32746 0.319045 0
M  V30 24845 O 2329.65 5.48996 1.54789 0
M  V30 24846 O 2328.58 6.01049 -0.319967 0
M  V30 24847 H 2332.41 2.80989 -1.15234 0
M  V30 24848 H 2329.99 1.356 -0.627126 0
M  V30 24849 H 2331.87 4.11076 0.927084 0
M  V30 24850 H 2330.55 2.97025 1.28678 0
M  V30 24851 H 2329.46 3.62174 -0.937077 0
M  V30 24852 H 2330.79 4.76998 -1.21383 0
M  V30 24853 N 2332.44 0.62277 1.44773 0
M  V30 24854 C 2333.35 -0.0885619 2.34433 0
M  V30 24855 C 2334.37 -0.844502 1.52132 0
M  V30 24856 O 2335.54 -0.798658 1.84888 0
M  V30 24857 C 2332.61 -1.06344 3.29987 0
M  V30 24858 C 2331.67 -0.307798 4.28195 0
M  V30 24859 C 2330.9 -1.23624 5.19185 0
M  V30 24860 O 2331.13 -2.47467 5.13922 0
M  V30 24861 O 2330.06 -0.725084 5.97517 0
M  V30 24862 H 2333.89 0.648651 2.96692 0
M  V30 24863 H 2331.47 0.382982 1.44408 0
M  V30 24864 H 2333.35 -1.62453 3.88828 0
M  V30 24865 H 2332.03 -1.78142 2.70272 0
M  V30 24866 H 2330.93 0.29613 3.72926 0
M  V30 24867 H 2332.27 0.369986 4.90807 0
M  V30 24868 N 2333.92 -1.53367 0.362817 0
M  V30 24869 C 2335.17 -2.02199 -0.220666 0
M  V30 24870 C 2335.52 -1.24549 -1.46647 0
M  V30 24871 O 2334.81 -0.329994 -1.88737 0
M  V30 24872 C 2335.01 -3.52852 -0.568355 0
M  V30 24873 C 2334.84 -4.45091 0.642204 0
M  V30 24874 C 2333.61 -4.91959 1.15343 0
M  V30 24875 C 2335.8 -4.91739 1.50658 0
M  V30 24876 N 2333.79 -5.68198 2.3243 0
M  V30 24877 C 2335.16 -5.66293 2.52414 0
M  V30 24878 C 2337.21 -4.73817 1.52978 0
M  V30 24879 C 2335.92 -6.2483 3.56342 0
M  V30 24880 C 2337.94 -5.33218 2.55798 0
M  V30 24881 C 2337.3 -6.07655 3.56278 0
M  V30 24882 H 2333.4 -0.780787 -0.0435371 0
M  V30 24883 H 2335.99 -1.8799 0.506737 0
M  V30 24884 H 2334.16 -3.67228 -1.26484 0
M  V30 24885 H 2335.89 -3.88409 -1.13669 0
M  V30 24886 H 2332.64 -4.68118 0.718494 0
M  V30 24887 H 2333.07 -6.10981 2.91602 0
M  V30 24888 H 2337.71 -4.15794 0.766491 0
M  V30 24889 H 2335.43 -6.8195 4.33555 0
M  V30 24890 H 2339.01 -5.21247 2.58444 0
M  V30 24891 H 2337.89 -6.52801 4.34536 0
M  V30 24892 N 2335.4 -0.091913 -1.57332 0
M  V30 24893 C 2336.35 0.868173 -2.13849 0
M  V30 24894 C 2337.32 1.28194 -1.0562 0
M  V30 24895 O 2338.5 1.36425 -1.3339 0
M  V30 24896 C 2335.64 2.12307 -2.72065 0
M  V30 24897 C 2334.75 1.76013 -3.94517 0
M  V30 24898 C 2333.89 2.96265 -4.40908 0
M  V30 24899 C 2332.93 2.56082 -5.55957 0
M  V30 24900 N 2332.06 3.69159 -5.97215 0
M  V30 24901 H 2336.9 0.379354 -2.95576 0
M  V30 24902 H 2334.44 0.17558 -1.46048 0
M  V30 24903 H 2336.4 2.85795 -3.03936 0
M  V30 24904 H 2335.03 2.58695 -1.93072 0
M  V30 24905 H 2334.08 0.92507 -3.68981 0
M  V30 24906 H 2335.39 1.42464 -4.78022 0
M  V30 24907 H 2334.55 3.78009 -4.74546 0
M  V30 24908 H 2333.29 3.33022 -3.56297 0
M  V30 24909 H 2332.29 1.72764 -5.21951 0
M  V30 24910 H 2333.52 2.20473 -6.42315 0
M  V30 24911 H 2331.46 4.0564 -5.1555 0
M  V30 24912 H 2331.38 3.39444 -6.7551 0
M  V30 24913 H 2332.65 4.51423 -6.35482 0
M  V30 24914 N 2336.88 1.56548 0.181765 0
M  V30 24915 C 2338.1 1.85879 0.919987 0
M  V30 24916 C 2338.53 0.677052 1.75493 0
M  V30 24917 O 2337.88 -0.374025 1.774 0
M  V30 24918 C 2337.93 3.13545 1.78107 0
M  V30 24919 O 2337.04 2.95034 2.88147 0
M  V30 24920 H 2336.38 0.61169 0.258323 0
M  V30 24921 H 2338.91 2.03779 0.183056 0
M  V30 24922 H 2338.92 3.44682 2.18308 0
M  V30 24923 H 2337.59 3.99171 1.1677 0
M  V30 24924 H 2336.17 2.75226 2.51604 0
M  V30 24925 N 2338.35 -0.449957 1.5104 0
M  V30 24926 C 2339.29 -1.56321 1.6762 0
M  V30 24927 C 2340.3 -1.52971 0.55711 0
M  V30 24928 O 2341.49 -1.57976 0.831017 0
M  V30 24929 C 2338.59 -2.95232 1.66407 0
M  V30 24930 C 2337.76 -3.23224 2.94695 0
M  V30 24931 C 2336.82 -4.41794 2.8584 0
M  V30 24932 O 2335.85 -4.41065 3.59792 0
M  V30 24933 N 2337.05 -5.44654 2.0083 0
M  V30 24934 H 2339.81 -1.42508 2.63651 0
M  V30 24935 H 2337.37 -0.638711 1.48769 0
M  V30 24936 H 2339.37 -3.72554 1.58068 0
M  V30 24937 H 2337.94 -3.02706 0.780236 0
M  V30 24938 H 2337.16 -2.34317 3.17 0
M  V30 24939 H 2338.44 -3.38747 3.79642 0
M  V30 24940 H 2337.84 -5.48077 1.401 0
M  V30 24941 H 2336.4 -6.20877 1.98379 0
M  V30 24942 N 2339.83 -1.40974 -0.704569 0
M  V30 24943 C 2340.74 -1.44452 -1.84854 0
M  V30 24944 C 2341.76 -0.335991 -1.70725 0
M  V30 24945 O 2342.93 -0.58231 -1.92798 0
M  V30 24946 C 2340 -1.31593 -3.20756 0
M  V30 24947 C 2339.06 -2.52683 -3.47058 0
M  V30 24948 C 2338.29 -2.40429 -4.76476 0
M  V30 24949 O 2338.52 -1.424 -5.52339 0
M  V30 24950 O 2337.45 -3.30016 -5.03362 0
M  V30 24951 H 2341.28 -2.40945 -1.84876 0
M  V30 24952 H 2338.86 -1.22415 -0.856449 0
M  V30 24953 H 2340.74 -1.26672 -4.01911 0
M  V30 24954 H 2339.42 -0.382105 -3.21437 0
M  V30 24955 H 2338.33 -2.63182 -2.65869 0
M  V30 24956 H 2339.66 -3.44864 -3.51184 0
M  V30 24957 N 2341.31 0.937917 -1.26653 0
M  V30 24958 C 2342.26 2.0371 -1.08493 0
M  V30 24959 C 2343.23 1.66096 0.0110038 0
M  V30 24960 O 2344.41 1.90214 -0.149387 0
M  V30 24961 C 2341.55 3.37347 -0.72741 0
M  V30 24962 C 2340.67 3.87978 -1.89993 0
M  V30 24963 C 2339.8 5.10014 -1.48522 0
M  V30 24964 C 2338.84 5.52915 -2.62585 0
M  V30 24965 N 2337.98 6.66154 -2.21773 0
M  V30 24966 H 2342.82 2.18576 -2.02555 0
M  V30 24967 H 2340.35 1.07091 -1.00846 0
M  V30 24968 H 2342.31 4.14181 -0.500993 0
M  V30 24969 H 2340.94 3.22319 0.176241 0
M  V30 24970 H 2339.99 3.07514 -2.23919 0
M  V30 24971 H 2341.31 4.15752 -2.75593 0
M  V30 24972 H 2340.46 5.94318 -1.21945 0
M  V30 24973 H 2339.2 4.83993 -0.600175 0
M  V30 24974 H 2338.2 4.67167 -2.89889 0
M  V30 24975 H 2339.43 5.80937 -3.51695 0
M  V30 24976 H 2337.37 6.4181 -1.35707 0
M  V30 24977 H 2337.29 6.93532 -3.00915 0
M  V30 24978 H 2338.56 7.53824 -1.98416 0
M  V30 24979 N 2342.79 1.08509 1.14296 0
M  V30 24980 C 2344.01 0.837035 1.89759 0
M  V30 24981 C 2344.44 -0.605196 1.78098 0
M  V30 24982 O 2343.8 -1.42418 1.1219 0
M  V30 24983 C 2343.84 1.26501 3.37683 0
M  V30 24984 O 2342.95 0.417587 4.1028 0
M  V30 24985 H 2342.29 0.303927 0.590359 0
M  V30 24986 H 2344.82 1.44679 1.44669 0
M  V30 24987 H 2344.83 1.24632 3.88498 0
M  V30 24988 H 2343.5 2.3154 3.45488 0
M  V30 24989 H 2342.08 0.499786 3.69536 0
M  V30 24990 N 2344.27 -1.31351 0.870907 0
M  V30 24991 C 2345.68 -1.78878 0.534745 0
M  V30 24992 C 2346.03 -1.71756 -0.948392 0
M  V30 24993 O 2345.15 -1.28587 -1.74053 0
M  V30 24994 C 2345.75 -3.24799 0.963896 0
M  V30 24995 C 2344.31 -3.70218 0.679376 0
M  V30 24996 C 2343.45 -2.52115 1.15469 0
M  V30 24997 H 2346.41 -1.18419 1.05653 0
M  V30 24998 H 2346.43 -3.79416 0.286958 0
M  V30 24999 H 2345.94 -3.29951 2.04338 0
M  V30 25000 H 2344.04 -3.70567 -0.388704 0
M  V30 25001 H 2344.15 -4.62315 1.25706 0
M  V30 25002 H 2342.52 -2.48138 0.574427 0
M  V30 25003 H 2343.3 -2.60012 2.24162 0
M  V30 25004 N 2345.74 -0.630439 -1.44441 0
M  V30 25005 C 2346.65 0.0761281 -2.34476 0
M  V30 25006 C 2347.67 0.836423 -1.52578 0
M  V30 25007 O 2348.85 0.788842 -1.85309 0
M  V30 25008 C 2345.91 1.04593 -3.30547 0
M  V30 25009 C 2344.97 0.285085 -4.28352 0
M  V30 25010 C 2344.21 1.20869 -5.19833 0
M  V30 25011 O 2344.43 2.44738 -5.15228 0
M  V30 25012 O 2343.36 0.693386 -5.97893 0
M  V30 25013 H 2347.19 -0.664376 -2.96344 0
M  V30 25014 H 2344.77 -0.390635 -1.44203 0
M  V30 25015 H 2346.66 1.60389 -3.89684 0
M  V30 25016 H 2345.33 1.76706 -2.71213 0
M  V30 25017 H 2344.24 -0.315903 -3.72764 0
M  V30 25018 H 2345.57 -0.39601 -4.90604 0
M  V30 25019 N 2347.22 1.53172 -0.370945 0
M  V30 25020 C 2348.17 2.25901 0.472995 0
M  V30 25021 C 2349.14 1.26783 1.07309 0
M  V30 25022 O 2350.32 1.55576 1.10457 0
M  V30 25023 C 2347.46 3.05558 1.604 0
M  V30 25024 C 2346.58 4.19577 1.02855 0
M  V30 25025 C 2345.71 4.86665 2.1291 0
M  V30 25026 C 2344.75 5.92706 1.52859 0
M  V30 25027 N 2343.89 6.53464 2.56768 0
M  V30 25028 H 2348.73 2.97603 -0.153701 0
M  V30 25029 H 2346.27 1.46839 -0.0876204 0
M  V30 25030 H 2348.22 3.5002 2.27028 0
M  V30 25031 H 2346.85 2.36101 2.20127 0
M  V30 25032 H 2345.91 3.79562 0.252398 0
M  V30 25033 H 2347.22 4.95763 0.549555 0
M  V30 25034 H 2346.37 5.34338 2.87347 0
M  V30 25035 H 2345.11 4.09962 2.64163 0
M  V30 25036 H 2344.12 5.4439 0.769383 0
M  V30 25037 H 2345.34 6.71332 1.02423 0
M  V30 25038 H 2343.29 5.79611 3.07224 0
M  V30 25039 H 2343.2 7.25206 2.1357 0
M  V30 25040 H 2344.47 7.05784 3.30891 0
M  V30 25041 N 2348.7 0.100255 1.57281 0
M  V30 25042 C 2349.93 -0.570474 1.9888 0
M  V30 25043 C 2350.34 -1.61404 0.979505 0
M  V30 25044 O 2349.7 -1.82475 -0.0301967 0
M  V30 25045 C 2349.75 -1.21354 3.40522 0
M  V30 25046 O 2349.47 -0.211709 4.37588 0
M  V30 25047 C 2350.97 -1.96939 3.97153 0
M  V30 25048 H 2348.19 -0.152544 0.65343 0
M  V30 25049 H 2350.74 0.181066 2.03697 0
M  V30 25050 H 2348.89 -1.91597 3.36703 0
M  V30 25051 H 2349.31 -0.676515 5.20119 0
M  V30 25052 H 2350.78 -2.37285 4.98397 0
M  V30 25053 H 2351.26 -2.83727 3.35255 0
M  V30 25054 H 2351.86 -1.31499 4.0446 0
M  V30 25055 N 2350.18 -1.56643 -0.17346 0
M  V30 25056 C 2351.14 -1.95364 -1.19856 0
M  V30 25057 C 2352.14 -0.837064 -1.37295 0
M  V30 25058 O 2353.33 -1.10415 -1.34737 0
M  V30 25059 C 2350.46 -2.24658 -2.56401 0
M  V30 25060 H 2351.66 -2.87094 -0.867012 0
M  V30 25061 H 2349.21 -1.50667 -0.415827 0
M  V30 25062 H 2349.95 -1.35636 -2.94573 0
M  V30 25063 H 2349.73 -3.06045 -2.4511 0
M  V30 25064 H 2351.22 -2.55546 -3.30282 0
M  V30 25065 N 2351.66 0.44194 -1.51277 0
M  V30 25066 C 2352.9 1.19176 -1.63717 0
M  V30 25067 C 2353.23 1.91303 -0.351208 0
M  V30 25068 O 2352.49 1.84073 0.664492 0
M  V30 25069 C 2352.79 2.23681 -2.7875 0
M  V30 25070 C 2352.45 1.686 -4.18192 0
M  V30 25071 C 2351.11 1.533 -4.56128 0
M  V30 25072 C 2353.47 1.28053 -5.05225 0
M  V30 25073 C 2350.79 0.959215 -5.78806 0
M  V30 25074 C 2353.15 0.721052 -6.28477 0
M  V30 25075 C 2351.81 0.554923 -6.65189 0
M  V30 25076 H 2351.08 0.436095 -0.599084 0
M  V30 25077 H 2353.73 0.483477 -1.85296 0
M  V30 25078 H 2352.03 3.0053 -2.51374 0
M  V30 25079 H 2353.73 2.8151 -2.85575 0
M  V30 25080 H 2350.32 1.81483 -3.88281 0
M  V30 25081 H 2354.5 1.38695 -4.76526 0
M  V30 25082 H 2349.76 0.818223 -6.059 0
M  V30 25083 H 2353.93 0.398336 -6.9526 0
M  V30 25084 H 2351.56 0.108177 -7.60123 0
M  V30 25085 N 2353.14 1.41345 0.697083 0
M  V30 25086 C 2354.08 1.43074 1.81103 0
M  V30 25087 C 2355.05 0.285303 1.63631 0
M  V30 25088 O 2356.24 0.486124 1.84503 0
M  V30 25089 C 2353.38 1.31721 3.18973 0
M  V30 25090 C 2352.49 2.56121 3.47888 0
M  V30 25091 C 2351.63 2.37072 4.75363 0
M  V30 25092 C 2350.66 3.56957 4.97241 0
M  V30 25093 N 2349.8 3.36988 6.15941 0
M  V30 25094 H 2354.64 2.3828 1.7896 0
M  V30 25095 H 2352.18 1.18324 0.873954 0
M  V30 25096 H 2354.14 1.2314 3.98613 0
M  V30 25097 H 2352.77 0.40124 3.20297 0
M  V30 25098 H 2351.82 2.75157 2.62665 0
M  V30 25099 H 2353.13 3.45301 3.59956 0
M  V30 25100 H 2352.28 2.25951 5.63055 0
M  V30 25101 H 2351.02 1.45346 4.65538 0
M  V30 25102 H 2350.03 3.68535 4.07998 0
M  V30 25103 H 2351.25 4.49634 5.08926 0
M  V30 25104 H 2349.2 2.4796 6.07332 0
M  V30 25105 H 2349.12 4.19743 6.2877 0
M  V30 25106 H 2350.38 3.29636 7.06371 0
M  V30 25107 N 2354.61 -0.931187 1.27148 0
M  V30 25108 C 2355.56 -2.03132 1.09572 0
M  V30 25109 C 2356.53 -1.661 -0.00219513 0
M  V30 25110 O 2357.72 -1.90132 0.159472 0
M  V30 25111 C 2354.86 -3.36956 0.74529 0
M  V30 25112 C 2353.97 -3.86964 1.92048 0
M  V30 25113 C 2353.1 -5.09219 1.51225 0
M  V30 25114 C 2352.14 -5.51515 2.65514 0
M  V30 25115 N 2351.28 -6.64968 2.25303 0
M  V30 25116 H 2356.12 -2.17498 2.03712 0
M  V30 25117 H 2353.66 -1.06555 1.01413 0
M  V30 25118 H 2355.61 -4.13909 0.522951 0
M  V30 25119 H 2354.24 -3.22407 -0.159145 0
M  V30 25120 H 2353.3 -3.06322 2.25546 0
M  V30 25121 H 2354.61 -4.14285 2.77794 0
M  V30 25122 H 2353.76 -5.93663 1.25095 0
M  V30 25123 H 2352.5 -4.83668 0.625834 0
M  V30 25124 H 2351.51 -4.65623 2.92362 0
M  V30 25125 H 2352.73 -5.79064 3.54771 0
M  V30 25126 H 2350.68 -6.41081 1.39109 0
M  V30 25127 H 2350.59 -6.91926 3.04589 0
M  V30 25128 H 2351.86 -7.52762 2.02411 0
M  V30 25129 N 2356.09 -1.09114 -1.13719 0
M  V30 25130 C 2357.04 -0.727629 -2.1903 0
M  V30 25131 C 2358.01 0.289627 -1.63555 0
M  V30 25132 O 2359.19 0.171992 -1.90023 0
M  V30 25133 C 2356.33 -0.150881 -3.4477 0
M  V30 25134 C 2355.45 -1.22179 -4.14363 0
M  V30 25135 C 2354.58 -0.608135 -5.27707 0
M  V30 25136 C 2353.62 -1.66058 -5.89145 0
M  V30 25137 N 2352.76 -1.06819 -6.93927 0
M  V30 25138 H 2357.6 -1.62996 -2.49472 0
M  V30 25139 H 2355.13 -0.814412 -1.22498 0
M  V30 25140 H 2357.09 0.201284 -4.16714 0
M  V30 25141 H 2355.72 0.714728 -3.14788 0
M  V30 25142 H 2354.77 -1.69128 -3.40734 0
M  V30 25143 H 2356.09 -2.01903 -4.5611 0
M  V30 25144 H 2355.24 -0.20463 -6.06355 0
M  V30 25145 H 2353.98 0.220683 -4.872 0
M  V30 25146 H 2352.98 -2.07366 -5.09195 0
M  V30 25147 H 2354.21 -2.492 -6.31725 0
M  V30 25148 H 2352.16 -0.260591 -6.55482 0
M  V30 25149 H 2352.07 -1.80243 -7.34199 0
M  V30 25150 H 2353.34 -0.69078 -7.76433 0
M  V30 25151 N 2357.57 1.30887 -0.877861 0
M  V30 25152 C 2358.85 1.91188 -0.413085 0
M  V30 25153 C 2359.23 1.79834 1.10557 0
M  V30 25154 O 2358.57 1.21102 1.93769 0
M  V30 25155 C 2358.78 3.37109 -0.90325 0
M  V30 25156 C 2360.13 4.14199 -0.934023 0
M  V30 25157 O 2361.16 3.45923 -0.849434 0
M  V30 25158 O 2360.02 5.36165 -1.05781 0
M  V30 25159 H 2357.11 0.817491 -0.12505 0
M  V30 25160 H 2359.66 1.39502 -0.966293 0
M  V30 25161 H 2358.43 3.39424 -1.94698 0
M  V30 25162 H 2358.05 3.96238 -0.328801 0
M  V30 25163 N 2359.05 0.638091 1.44105 0
M  V30 25164 C 2360.28 0.152651 2.06336 0
M  V30 25165 C 2360.69 -1.1756 1.47733 0
M  V30 25166 O 2360.05 -1.72256 0.602836 0
M  V30 25167 C 2360.1 0.0392126 3.61479 0
M  V30 25168 O 2359.82 1.31495 4.179 0
M  V30 25169 C 2361.32 -0.474099 4.40758 0
M  V30 25170 H 2358.54 0.0828893 0.665861 0
M  V30 25171 H 2361.08 0.874463 1.8486 0
M  V30 25172 H 2359.24 -0.633075 3.82192 0
M  V30 25173 H 2359.65 1.1643 5.11414 0
M  V30 25174 H 2361.13 -0.502466 5.49708 0
M  V30 25175 H 2361.6 -1.50251 4.127 0
M  V30 25176 H 2362.21 0.165176 4.24979 0
M  V30 25177 N 2360.53 -1.52973 0.379063 0
M  V30 25178 C 2361.77 -2.00629 -0.207577 0
M  V30 25179 C 2362.09 -1.27008 -1.48756 0
M  V30 25180 O 2363.29 -1.65322 -2.15362 0
M  V30 25181 C 2361.75 -3.57435 -0.420467 0
M  V30 25182 C 2361.36 -4.39946 0.845664 0
M  V30 25183 C 2363.1 -4.13409 -0.964029 0
M  V30 25184 C 2361.01 -5.88332 0.601616 0
M  V30 25185 H 2359.94 -0.749599 -0.0813459 0
M  V30 25186 H 2362.59 -1.7656 0.499884 0
M  V30 25187 H 2360.97 -3.77712 -1.18952 0
M  V30 25188 H 2362.15 -4.31439 1.61855 0
M  V30 25189 H 2360.46 -3.95143 1.31343 0
M  V30 25190 H 2363.06 -5.21918 -1.16216 0
M  V30 25191 H 2363.4 -3.68852 -1.93012 0
M  V30 25192 H 2363.93 -3.96983 -0.2548 0
M  V30 25193 H 2360.67 -6.37191 1.53842 0
M  V30 25194 H 2360.19 -5.99654 -0.132523 0
M  V30 25195 H 2361.87 -6.46583 0.232247 0
M  V30 25196 N 2362 -0.108595 -1.57225 0
M  V30 25197 C 2362.93 0.842282 -2.17779 0
M  V30 25198 C 2363.91 1.28469 -1.11489 0
M  V30 25199 O 2365.1 1.34916 -1.39683 0
M  V30 25200 C 2362.23 2.09639 -2.76891 0
M  V30 25201 C 2361.18 1.79214 -3.88673 0
M  V30 25202 C 2360.51 3.11567 -4.34546 0
M  V30 25203 C 2361.81 1.06855 -5.11253 0
M  V30 25204 H 2363.5 0.337721 -2.97489 0
M  V30 25205 H 2361.05 0.161 -1.43097 0
M  V30 25206 H 2363 2.76608 -3.17909 0
M  V30 25207 H 2361.73 2.62401 -1.94456 0
M  V30 25208 H 2360.39 1.14638 -3.48215 0
M  V30 25209 H 2360.03 3.62243 -3.48983 0
M  V30 25210 H 2359.73 2.91987 -5.09919 0
M  V30 25211 H 2361.26 3.79672 -4.78207 0
M  V30 25212 H 2362.67 1.63958 -5.49355 0
M  V30 25213 H 2361.07 0.974074 -5.92142 0
M  V30 25214 H 2362.14 0.0535316 -4.8487 0
M  V30 25215 N 2363.48 1.56732 0.16515 0
M  V30 25216 C 2364.71 1.86844 0.90022 0
M  V30 25217 C 2365.13 0.695627 1.74765 0
M  V30 25218 O 2364.49 -0.355188 1.77787 0
M  V30 25219 C 2364.54 3.15416 1.74771 0
M  V30 25220 O 2363.64 2.98073 2.85002 0
M  V30 25221 H 2362.98 0.614396 0.251821 0
M  V30 25222 H 2365.51 2.03962 0.161433 0
M  V30 25223 H 2365.52 3.46978 2.1464 0
M  V30 25224 H 2364.2 4.00387 1.12529 0
M  V30 25225 H 2362.77 2.7788 2.48671 0
M  V30 25226 N 2364.96 -0.433911 1.51509 0
M  V30 25227 C 2365.89 -1.53426 1.76019 0
M  V30 25228 C 2366.87 -1.58781 0.610139 0
M  V30 25229 O 2368.06 -1.74453 0.853207 0
M  V30 25230 C 2365.19 -2.91476 1.88836 0
M  V30 25231 C 2364.14 -3.00981 3.04293 0
M  V30 25232 C 2363.47 -4.41044 3.02298 0
M  V30 25233 C 2364.77 -2.74746 4.44198 0
M  V30 25234 H 2366.46 -1.33167 2.68155 0
M  V30 25235 H 2364.01 -0.639191 1.29036 0
M  V30 25236 H 2365.96 -3.68417 2.04565 0
M  V30 25237 H 2364.68 -3.12975 0.93351 0
M  V30 25238 H 2363.34 -2.26481 2.88274 0
M  V30 25239 H 2362.99 -4.59515 2.04584 0
M  V30 25240 H 2362.69 -4.48333 3.7983 0
M  V30 25241 H 2364.21 -5.19954 3.20125 0
M  V30 25242 H 2365.63 -3.41418 4.6055 0
M  V30 25243 H 2364.03 -2.93441 5.23462 0
M  V30 25244 H 2365.1 -1.70331 4.53999 0
M  V30 25245 N 2366.44 -1.41713 -0.689577 0
M  V30 25246 C 2367.39 -1.44245 -1.82472 0
M  V30 25247 C 2368.38 -0.319803 -1.66354 0
M  V30 25248 O 2369.59 -0.492119 -1.73142 0
M  V30 25249 H 2365.96 -0.451455 -0.601409 0
M  V30 25250 H 2367.93 -2.39902 -1.77453 0
M  V30 25251 C 2366.68 -1.34736 -3.20533 0
M  V30 25252 H 2366 -2.20411 -3.33555 0
M  V30 25253 H 2367.44 -1.40569 -4.0002 0
M  V30 25254 C 2365.9 -0.0603873 -3.36846 0
M  V30 25255 O 2366.43 0.892594 -3.91658 0
M  V30 25256 N 2364.64 0.0176528 -2.90595 0
M  V30 25257 H 2364.19 -0.758615 -2.46176 0
M  V30 25258 H 2364.14 0.878148 -3.01887 0
M  V30 25259 N 2367.92 0.924431 -1.2764 0
M  V30 25260 C 2368.88 2.00703 -1.10684 0
M  V30 25261 C 2369.88 1.60723 -0.0498106 0
M  V30 25262 O 2371.07 1.71689 -0.294684 0
M  V30 25263 C 2368.2 3.33901 -0.687223 0
M  V30 25264 H 2369.39 2.17175 -2.06821 0
M  V30 25265 H 2366.95 1.10567 -1.10475 0
M  V30 25266 H 2367.68 3.23129 0.275382 0
M  V30 25267 H 2367.47 3.64277 -1.45067 0
M  V30 25268 H 2368.96 4.13398 -0.590925 0
M  V30 25269 N 2369.39 1.09715 1.13139 0
M  V30 25270 C 2370.63 0.844716 1.86129 0
M  V30 25271 C 2371 -0.618459 1.81767 0
M  V30 25272 O 2372.2 -0.986946 2.50026 0
M  V30 25273 C 2370.47 1.36883 3.30148 0
M  V30 25274 S 2372.03 1.25071 4.20598 0
M  V30 25275 H 2368.85 0.305438 0.64205 0
M  V30 25276 H 2371.45 1.40112 1.36341 0
M  V30 25277 H 2370.15 2.42791 3.30878 0
M  V30 25278 H 2369.68 0.808681 3.84999 0
M  V30 25279 H 2371.7 0.203574 4.95782 0
M  V30 25280 N 2370.87 -1.30419 0.88479 0
M  V30 25281 C 2371.78 -2.31892 0.355439 0
M  V30 25282 C 2372.8 -1.65336 -0.542232 0
M  V30 25283 O 2373.97 -1.96637 -0.435397 0
M  V30 25284 C 2371.04 -3.44127 -0.421601 0
M  V30 25285 C 2370.1 -4.2631 0.505801 0
M  V30 25286 C 2369.33 -5.33186 -0.234249 0
M  V30 25287 O 2369.56 -5.51389 -1.46035 0
M  V30 25288 O 2368.49 -6.00464 0.415548 0
M  V30 25289 H 2372.32 -2.7912 1.1969 0
M  V30 25290 H 2369.9 -1.34586 0.64862 0
M  V30 25291 H 2371.78 -4.12498 -0.861568 0
M  V30 25292 H 2370.46 -2.99034 -1.23936 0
M  V30 25293 H 2369.37 -3.60637 0.994577 0
M  V30 25294 H 2370.7 -4.75006 1.28957 0
M  V30 25295 N 2372.35 -0.645724 -1.43764 0
M  V30 25296 C 2373.58 -0.16192 -2.06767 0
M  V30 25297 C 2374 1.16047 -1.48037 0
M  V30 25298 O 2373.36 1.71521 -0.587399 0
M  V30 25299 C 2373.41 -0.0762636 -3.60519 0
M  V30 25300 O 2372.51 0.96365 -4.00983 0
M  V30 25301 H 2371.85 -0.0914405 -0.657674 0
M  V30 25302 H 2374.38 -0.886531 -1.84396 0
M  V30 25303 H 2374.39 0.109532 -4.07853 0
M  V30 25304 H 2373.07 -1.04164 -4.02644 0
M  V30 25305 H 2371.64 0.751248 -3.65254 0
M  V30 25306 N 2373.83 1.5277 -0.38717 0
M  V30 25307 C 2374.78 2.27927 0.463912 0
M  V30 25308 C 2375.77 1.31743 1.0649 0
M  V30 25309 O 2376.98 1.49289 1.00562 0
M  V30 25310 H 2373.35 0.732912 0.168357 0
M  V30 25311 H 2375.32 2.97785 -0.191462 0
M  V30 25312 C 2374.07 3.09715 1.58024 0
M  V30 25313 H 2373.39 3.83583 1.12711 0
M  V30 25314 H 2374.83 3.65445 2.15002 0
M  V30 25315 C 2373.29 2.21894 2.53505 0
M  V30 25316 O 2373.82 1.84428 3.5686 0
M  V30 25317 N 2372.03 1.86097 2.23196 0
M  V30 25318 H 2371.58 2.16763 1.39181 0
M  V30 25319 H 2371.53 1.27626 2.87331 0
M  V30 25320 N 2375.31 0.116931 1.57166 0
M  V30 25321 C 2376.26 -0.845141 2.11758 0
M  V30 25322 C 2377.24 -1.22953 1.03785 0
M  V30 25323 O 2378.43 -1.20097 1.30022 0
M  V30 25324 C 2375.56 -2.09597 2.7189 0
M  V30 25325 C 2374.65 -1.73603 3.8694 0
M  V30 25326 N 2375.04 -1.08275 4.94075 0
M  V30 25327 C 2373.34 -2.03075 3.97085 0
M  V30 25328 C 2374.04 -0.913754 5.74478 0
M  V30 25329 N 2373.01 -1.43809 5.24233 0
M  V30 25330 H 2376.82 -0.336472 2.91968 0
M  V30 25331 H 2374.33 -0.0856047 1.62174 0
M  V30 25332 H 2376.33 -2.79486 3.09343 0
M  V30 25333 H 2374.99 -2.6101 1.93143 0
M  V30 25334 H 2376 -0.746977 5.12485 0
M  V30 25335 H 2372.67 -2.56549 3.29377 0
M  V30 25336 H 2374.06 -0.401132 6.70702 0
M  V30 25337 N 2376.78 -1.56818 -0.156836 0
M  V30 25338 C 2377.75 -1.96624 -1.17777 0
M  V30 25339 C 2378.75 -0.851579 -1.36399 0
M  V30 25340 O 2379.94 -1.11838 -1.33559 0
M  V30 25341 C 2377.07 -2.27365 -2.54004 0
M  V30 25342 H 2378.26 -2.87997 -0.836513 0
M  V30 25343 H 2375.82 -1.511 -0.399823 0
M  V30 25344 H 2376.55 -1.38753 -2.93118 0
M  V30 25345 H 2376.34 -3.08627 -2.4185 0
M  V30 25346 H 2377.83 -2.59034 -3.27553 0
M  V30 25347 N 2378.26 0.425871 -1.51737 0
M  V30 25348 C 2379.51 1.17133 -1.64203 0
M  V30 25349 C 2379.82 1.92074 -0.369739 0
M  V30 25350 O 2381.03 2.68912 -0.373945 0
M  V30 25351 C 2379.49 2.13086 -2.90039 0
M  V30 25352 C 2379.09 1.4374 -4.24315 0
M  V30 25353 C 2380.84 2.87994 -3.11865 0
M  V30 25354 C 2378.75 2.38243 -5.41289 0
M  V30 25355 H 2377.68 0.440933 -0.611632 0
M  V30 25356 H 2380.33 0.437296 -1.78213 0
M  V30 25357 H 2378.71 2.89972 -2.69689 0
M  V30 25358 H 2379.88 0.723328 -4.55087 0
M  V30 25359 H 2378.2 0.809393 -4.08458 0
M  V30 25360 H 2380.79 3.5881 -3.96433 0
M  V30 25361 H 2381.14 3.49995 -2.2541 0
M  V30 25362 H 2381.67 2.18212 -3.32609 0
M  V30 25363 H 2378.41 1.80914 -6.3004 0
M  V30 25364 H 2377.93 3.07671 -5.14878 0
M  V30 25365 H 2379.61 2.99129 -5.73699 0
M  V30 25366 N 2379.74 1.42077 0.682052 0
M  V30 25367 C 2380.7 1.44694 1.77753 0
M  V30 25368 C 2381.7 0.335563 1.5726 0
M  V30 25369 O 2382.89 0.596066 1.63685 0
M  V30 25370 C 2380.03 1.27152 3.16299 0
M  V30 25371 H 2381.22 2.42227 1.76822 0
M  V30 25372 H 2378.77 1.28418 0.890989 0
M  V30 25373 H 2379.51 0.305131 3.22861 0
M  V30 25374 H 2379.29 2.07689 3.32577 0
M  V30 25375 H 2380.78 1.3185 3.96239 0
M  V30 25376 N 2381.22 -0.917649 1.28129 0
M  V30 25377 C 2382.18 -2.00113 1.11747 0
M  V30 25378 C 2383.18 -1.60694 0.0583334 0
M  V30 25379 O 2384.37 -1.71531 0.303785 0
M  V30 25380 C 2381.5 -3.33532 0.704921 0
M  V30 25381 H 2382.7 -2.16076 2.0797 0
M  V30 25382 H 2380.25 -1.09979 1.1106 0
M  V30 25383 H 2380.99 -3.2327 -0.258242 0
M  V30 25384 H 2380.77 -3.63503 1.46997 0
M  V30 25385 H 2382.26 -4.13079 0.612841 0
M  V30 25386 N 2382.7 -1.10314 -1.12555 0
M  V30 25387 C 2383.95 -0.839621 -1.83394 0
M  V30 25388 C 2384.26 0.636897 -1.8494 0
M  V30 25389 O 2385.47 1.01627 -2.51762 0
M  V30 25390 C 2383.92 -1.4522 -3.29301 0
M  V30 25391 C 2383.53 -2.96192 -3.36116 0
M  V30 25392 C 2385.27 -1.26803 -4.05119 0
M  V30 25393 C 2383.18 -3.50491 -4.7635 0
M  V30 25394 H 2382.11 -0.310437 -0.687128 0
M  V30 25395 H 2384.76 -1.32697 -1.26743 0
M  V30 25396 H 2383.14 -0.892537 -3.85811 0
M  V30 25397 H 2384.32 -3.58463 -2.89553 0
M  V30 25398 H 2382.63 -3.1375 -2.7377 0
M  V30 25399 H 2385.23 -1.64815 -5.08665 0
M  V30 25400 H 2385.57 -0.209482 -4.15773 0
M  V30 25401 H 2386.11 -1.7957 -3.54964 0
M  V30 25402 H 2382.84 -4.56007 -4.70891 0
M  V30 25403 H 2382.36 -2.92987 -5.23372 0
M  V30 25404 H 2384.04 -3.48238 -5.45288 0
M  V30 25405 N 2384.18 1.29948 -0.891694 0
M  V30 25406 C 2385.12 2.29904 -0.353106 0
M  V30 25407 C 2386.12 1.60445 0.543481 0
M  V30 25408 O 2387.32 1.74858 0.427169 0
M  V30 25409 H 2383.7 0.745906 -0.0955441 0
M  V30 25410 H 2385.67 2.72781 -1.20966 0
M  V30 25411 C 2384.42 3.45257 0.411414 0
M  V30 25412 H 2383.74 3.98892 -0.269252 0
M  V30 25413 H 2385.18 4.17255 0.753254 0
M  V30 25414 C 2383.64 2.95883 1.61105 0
M  V30 25415 O 2384.17 2.9648 2.7104 0
M  V30 25416 N 2382.38 2.51812 1.45049 0
M  V30 25417 H 2381.92 2.51525 0.556131 0
M  V30 25418 H 2381.88 2.19134 2.2545 0
M  V30 25419 N 2385.65 0.653339 1.4342 0
M  V30 25420 C 2386.56 -0.0388153 2.34568 0
M  V30 25421 C 2387.58 -0.812043 1.53889 0
M  V30 25422 O 2388.76 -0.759261 1.8654 0
M  V30 25423 C 2385.82 -0.99321 3.32169 0
M  V30 25424 C 2384.88 -0.216902 4.28752 0
M  V30 25425 C 2384.11 -1.12584 5.2169 0
M  V30 25426 O 2384.34 -2.3651 5.19056 0
M  V30 25427 O 2383.27 -0.598179 5.9892 0
M  V30 25428 H 2387.1 0.711438 2.95249 0
M  V30 25429 H 2384.68 0.413527 1.43563 0
M  V30 25430 H 2386.56 -1.54169 3.92186 0
M  V30 25431 H 2385.24 -1.72369 2.7399 0
M  V30 25432 H 2384.15 0.375166 3.72214 0
M  V30 25433 H 2385.48 0.474011 4.89912 0
M  V30 25434 N 2387.13 -1.52563 0.395266 0
M  V30 25435 C 2388.38 -2.01255 -0.184643 0
M  V30 25436 C 2388.7 -1.28332 -1.4682 0
M  V30 25437 O 2387.97 -0.405128 -1.91665 0
M  V30 25438 H 2386.55 -0.743597 -0.0712225 0
M  V30 25439 H 2389.21 -1.87603 0.528326 0
M  V30 25440 H 2388.31 -3.09646 -0.390626 0
M  V30 25441 N 2388.61 -0.125265 -1.57101 0
M  V30 25442 C 2389.54 0.8532 -2.12728 0
M  V30 25443 C 2390.55 1.2257 -1.07147 0
M  V30 25444 O 2391.74 1.17355 -1.34499 0
M  V30 25445 C 2388.84 2.15313 -2.61713 0
M  V30 25446 C 2388.02 1.95136 -3.9146 0
M  V30 25447 C 2387.08 3.08916 -4.25978 0
M  V30 25448 O 2386.1 2.81555 -4.94687 0
M  V30 25449 N 2387.3 4.35518 -3.83803 0
M  V30 25450 H 2390.07 0.377912 -2.97308 0
M  V30 25451 H 2387.63 0.0589726 -1.61793 0
M  V30 25452 H 2389.62 2.90436 -2.81831 0
M  V30 25453 H 2388.19 2.54171 -1.81978 0
M  V30 25454 H 2387.41 1.0417 -3.80187 0
M  V30 25455 H 2388.7 1.78967 -4.76286 0
M  V30 25456 H 2388.1 4.6062 -3.28398 0
M  V30 25457 H 2386.65 5.07492 -4.09017 0
M  V30 25458 N 2390.09 1.56899 0.148518 0
M  V30 25459 C 2391.04 1.99098 1.20261 0
M  V30 25460 C 2392.03 0.883148 1.44557 0
M  V30 25461 O 2393.24 1.06833 1.44868 0
M  V30 25462 H 2389.61 0.633767 0.404775 0
M  V30 25463 H 2391.58 2.86912 0.81999 0
M  V30 25464 C 2390.33 2.38634 2.52882 0
M  V30 25465 H 2389.65 3.23431 2.35015 0
M  V30 25466 H 2391.09 2.71985 3.25269 0
M  V30 25467 C 2389.55 1.23842 3.13313 0
M  V30 25468 O 2390.08 0.538338 3.98076 0
M  V30 25469 N 2388.29 1.00306 2.7274 0
M  V30 25470 H 2387.84 1.57413 2.03909 0
M  V30 25471 H 2387.79 0.236893 3.13506 0
M  V30 25472 N 2391.57 -0.417818 1.51961 0
M  V30 25473 C 2392.51 -1.50849 1.7468 0
M  V30 25474 C 2393.48 -1.55307 0.588974 0
M  V30 25475 O 2394.67 -1.72014 0.825575 0
M  V30 25476 C 2391.81 -2.88384 1.89549 0
M  V30 25477 C 2390.92 -2.93303 3.17171 0
M  V30 25478 C 2390.06 -4.22083 3.22521 0
M  V30 25479 C 2389.09 -4.20943 4.4438 0
M  V30 25480 N 2388.23 -5.41279 4.4717 0
M  V30 25481 H 2393.07 -1.30778 2.67771 0
M  V30 25482 H 2390.61 -0.634957 1.3269 0
M  V30 25483 H 2392.57 -3.68212 1.96152 0
M  V30 25484 H 2391.2 -3.06969 0.998478 0
M  V30 25485 H 2390.25 -2.06019 3.19782 0
M  V30 25486 H 2391.56 -2.88325 4.07026 0
M  V30 25487 H 2390.71 -5.10298 3.28148 0
M  V30 25488 H 2389.45 -4.29744 2.30589 0
M  V30 25489 H 2388.46 -3.31119 4.38908 0
M  V30 25490 H 2389.68 -4.14929 5.37597 0
M  V30 25491 H 2387.63 -5.49625 3.58117 0
M  V30 25492 H 2387.55 -5.38261 5.30859 0
M  V30 25493 H 2388.81 -6.31472 4.57016 0
M  V30 25494 N 2393.04 -1.42436 -0.674508 0
M  V30 25495 C 2394.45 -1.38216 -1.25512 0
M  V30 25496 C 2394.81 -0.0755809 -1.96054 0
M  V30 25497 O 2393.93 0.825665 -2.00029 0
M  V30 25498 C 2394.53 -2.50361 -2.28265 0
M  V30 25499 C 2393.08 -2.49472 -2.81852 0
M  V30 25500 C 2392.23 -2.29137 -1.56178 0
M  V30 25501 H 2395.18 -1.51646 -0.467875 0
M  V30 25502 H 2395.2 -2.20629 -3.10005 0
M  V30 25503 H 2394.72 -3.45442 -1.76894 0
M  V30 25504 H 2392.82 -1.5821 -3.37343 0
M  V30 25505 H 2392.93 -3.46521 -3.30848 0
M  V30 25506 H 2391.29 -1.77403 -1.82758 0
M  V30 25507 H 2392.08 -3.26274 -1.06773 0
M  V30 25508 N 2394.52 0.910841 -1.28614 0
M  V30 25509 C 2395.43 2.04678 -1.14647 0
M  V30 25510 C 2396.45 1.7385 -0.0723427 0
M  V30 25511 O 2397.62 1.99413 -0.282213 0
M  V30 25512 C 2394.69 3.37042 -0.812621 0
M  V30 25513 C 2393.75 3.81461 -1.96941 0
M  V30 25514 C 2392.98 5.07508 -1.6514 0
M  V30 25515 O 2393.21 5.67574 -0.567113 0
M  V30 25516 O 2392.14 5.4771 -2.49594 0
M  V30 25517 H 2395.97 2.19381 -2.10014 0
M  V30 25518 H 2393.55 1.03272 -1.0796 0
M  V30 25519 H 2395.43 4.16504 -0.640515 0
M  V30 25520 H 2394.11 3.23508 0.111369 0
M  V30 25521 H 2393.01 3.02814 -2.19669 0
M  V30 25522 H 2394.35 3.99562 -2.87421 0
M  V30 25523 N 2396 1.10909 1.11969 0
M  V30 25524 C 2397.25 0.849335 1.82946 0
M  V30 25525 C 2397.56 -0.62708 1.85276 0
M  V30 25526 O 2398.77 -1.0029 2.52298 0
M  V30 25527 C 2397.22 1.46965 3.28526 0
M  V30 25528 C 2396.83 2.9797 3.34541 0
M  V30 25529 C 2398.58 1.28949 4.04441 0
M  V30 25530 C 2396.48 3.53013 4.74485 0
M  V30 25531 H 2395.41 0.314077 0.685472 0
M  V30 25532 H 2398.06 1.33367 1.26038 0
M  V30 25533 H 2396.45 0.912984 3.85332 0
M  V30 25534 H 2397.62 3.59994 2.87647 0
M  V30 25535 H 2395.94 3.15197 2.72102 0
M  V30 25536 H 2398.53 1.67511 5.07784 0
M  V30 25537 H 2398.88 0.231529 4.15656 0
M  V30 25538 H 2399.41 1.8145 3.54007 0
M  V30 25539 H 2396.15 4.58497 4.68466 0
M  V30 25540 H 2395.67 2.95759 5.21811 0
M  V30 25541 H 2397.35 3.51125 5.43434 0
M  V30 25542 N 2397.48 -1.29474 0.898573 0
M  V30 25543 C 2398.39 -2.31502 0.380014 0
M  V30 25544 C 2399.4 -1.65901 -0.524666 0
M  V30 25545 O 2400.58 -1.97088 -0.414517 0
M  V30 25546 C 2397.65 -3.44555 -0.385078 0
M  V30 25547 C 2396.71 -4.25749 0.550989 0
M  V30 25548 C 2395.94 -5.33404 -0.177685 0
M  V30 25549 O 2396.16 -5.52907 -1.40179 0
M  V30 25550 O 2395.1 -5.99989 0.479212 0
M  V30 25551 H 2398.92 -2.77835 1.22644 0
M  V30 25552 H 2396.51 -1.3389 0.662858 0
M  V30 25553 H 2398.39 -4.13389 -0.817769 0
M  V30 25554 H 2397.06 -3.00332 -1.20758 0
M  V30 25555 H 2395.97 -3.59562 1.03277 0
M  V30 25556 H 2397.3 -4.73612 1.33987 0
M  V30 25557 N 2398.96 -0.660936 -1.43071 0
M  V30 25558 C 2400.2 -0.177743 -2.0202 0
M  V30 25559 C 2400.54 1.20785 -1.52068 0
M  V30 25560 O 2399.81 1.80801 -0.717019 0
M  V30 25561 C 2400.09 -0.197082 -3.5956 0
M  V30 25562 C 2399.95 -1.61714 -4.19725 0
M  V30 25563 C 2401.27 0.462319 -4.37665 0
M  V30 25564 H 2398.38 -0.0660623 -0.734033 0
M  V30 25565 H 2401.03 -0.843088 -1.7027 0
M  V30 25566 H 2399.18 0.369459 -3.86739 0
M  V30 25567 H 2400.85 -2.23486 -4.03549 0
M  V30 25568 H 2399.09 -2.16208 -3.76081 0
M  V30 25569 H 2399.76 -1.58246 -5.28831 0
M  V30 25570 H 2402.24 -0.0197947 -4.16095 0
M  V30 25571 H 2401.11 0.418091 -5.47305 0
M  V30 25572 H 2401.38 1.5377 -4.14496 0
M  V30 25573 N 2400.43 1.52351 -0.403352 0
M  V30 25574 C 2401.66 2.06167 0.173976 0
M  V30 25575 C 2402.08 1.27391 1.39345 0
M  V30 25576 O 2401.43 0.324233 1.79597 0
M  V30 25577 C 2401.49 3.57591 0.53016 0
M  V30 25578 O 2401.21 4.33387 -0.640882 0
M  V30 25579 C 2402.71 4.27804 1.16184 0
M  V30 25580 H 2399.93 0.670608 0.0229346 0
M  V30 25581 H 2402.47 1.96319 -0.572638 0
M  V30 25582 H 2400.63 3.67466 1.22667 0
M  V30 25583 H 2401.04 5.23364 -0.344943 0
M  V30 25584 H 2402.51 5.34951 1.36132 0
M  V30 25585 H 2402.99 3.83911 2.13328 0
M  V30 25586 H 2403.6 4.22283 0.505701 0
M  V30 25587 N 2401.91 0.133594 1.57033 0
M  V30 25588 C 2403.16 -0.515291 1.96765 0
M  V30 25589 C 2403.51 -1.63352 1.01656 0
M  V30 25590 O 2402.81 -1.91537 0.049171 0
M  V30 25591 C 2403 -1.08051 3.40676 0
M  V30 25592 C 2402.83 -0.0185732 4.49696 0
M  V30 25593 C 2401.6 0.418262 5.03566 0
M  V30 25594 C 2403.8 0.767899 5.08535 0
M  V30 25595 N 2401.78 1.46444 5.96177 0
M  V30 25596 C 2403.15 1.66491 5.97228 0
M  V30 25597 C 2405.21 0.817173 4.91148 0
M  V30 25598 C 2403.91 2.60693 6.70397 0
M  V30 25599 C 2405.93 1.74697 5.65009 0
M  V30 25600 C 2405.3 2.63153 6.53399 0
M  V30 25601 H 2401.4 -0.157758 0.765922 0
M  V30 25602 H 2403.98 0.225094 1.93394 0
M  V30 25603 H 2402.15 -1.79055 3.44665 0
M  V30 25604 H 2403.88 -1.69491 3.67498 0
M  V30 25605 H 2400.64 0.0230636 4.73594 0
M  V30 25606 H 2401.06 1.98689 6.47188 0
M  V30 25607 H 2405.7 0.1474 4.22543 0
M  V30 25608 H 2403.42 3.28677 7.38239 0
M  V30 25609 H 2407.01 1.79072 5.53556 0
M  V30 25610 H 2405.89 3.33929 7.0955 0
M  V30 25611 N 2403.39 -1.56975 -0.140195 0
M  V30 25612 C 2404.35 -1.97863 -1.15685 0
M  V30 25613 C 2405.35 -0.865998 -1.35488 0
M  V30 25614 O 2406.54 -1.13248 -1.32365 0
M  V30 25615 C 2403.68 -2.30047 -2.51578 0
M  V30 25616 H 2404.87 -2.88868 -0.80592 0
M  V30 25617 H 2402.42 -1.51515 -0.383775 0
M  V30 25618 H 2403.16 -1.41854 -2.9163 0
M  V30 25619 H 2402.94 -3.11175 -2.38563 0
M  V30 25620 H 2404.43 -2.62494 -3.24787 0
M  V30 25621 N 2404.87 0.409753 -1.5218 0
M  V30 25622 C 2405.82 1.49921 -1.75478 0
M  V30 25623 C 2406.79 1.54993 -0.597202 0
M  V30 25624 O 2407.97 1.71574 -0.834685 0
M  V30 25625 C 2405.11 2.87375 -1.91076 0
M  V30 25626 C 2404.22 2.91617 -3.18722 0
M  V30 25627 C 2403.36 4.20366 -3.24755 0
M  V30 25628 C 2402.4 4.18581 -4.46606 0
M  V30 25629 N 2401.53 5.389 -4.50034 0
M  V30 25630 H 2406.37 1.29356 -2.6846 0
M  V30 25631 H 2403.91 0.627911 -1.33025 0
M  V30 25632 H 2405.87 3.67167 -1.98102 0
M  V30 25633 H 2404.5 3.06436 -1.01474 0
M  V30 25634 H 2403.55 2.0432 -3.2087 0
M  V30 25635 H 2404.86 2.86162 -4.08549 0
M  V30 25636 H 2404.02 5.0855 -3.3085 0
M  V30 25637 H 2402.76 4.28515 -2.32865 0
M  V30 25638 H 2401.76 3.28787 -4.40658 0
M  V30 25639 H 2402.99 4.12072 -5.3979 0
M  V30 25640 H 2400.93 5.47718 -3.61027 0
M  V30 25641 H 2400.85 5.35438 -5.33706 0
M  V30 25642 H 2402.12 6.2904 -4.60358 0
M  V30 25643 N 2406.35 1.42792 0.666944 0
M  V30 25644 C 2407.28 1.42839 1.79248 0
M  V30 25645 C 2408.29 0.326361 1.59495 0
M  V30 25646 O 2409.48 0.589946 1.68469 0
M  V30 25647 C 2406.58 1.21234 3.16473 0
M  V30 25648 C 2405.75 2.44019 3.63006 0
M  V30 25649 C 2404.81 2.17843 4.7899 0
M  V30 25650 O 2403.84 2.911 4.89132 0
M  V30 25651 N 2405.04 1.18645 5.68246 0
M  V30 25652 H 2407.81 2.39857 1.79691 0
M  V30 25653 H 2405.37 1.37773 0.850314 0
M  V30 25654 H 2407.36 1.01627 3.91732 0
M  V30 25655 H 2405.93 0.327115 3.10884 0
M  V30 25656 H 2405.15 2.79142 2.78341 0
M  V30 25657 H 2406.44 3.25764 3.90839 0
M  V30 25658 H 2405.83 0.580714 5.62711 0
M  V30 25659 H 2404.39 1.05024 6.43283 0
M  V30 25660 N 2407.82 -0.904008 1.29095 0
M  V30 25661 C 2409.07 -1.65083 1.16585 0
M  V30 25662 C 2409.39 -1.92922 -0.283899 0
M  V30 25663 O 2408.66 -1.55226 -1.19506 0
M  V30 25664 H 2407.24 -0.611895 0.428478 0
M  V30 25665 H 2409.91 -1.08419 1.61961 0
M  V30 25666 H 2409 -2.60907 1.71271 0
M  V30 25667 N 2409.3 -1.11501 -1.11379 0
M  V30 25668 C 2410.72 -0.849054 -1.35142 0
M  V30 25669 C 2410.92 0.525904 -1.94516 0
M  V30 25670 O 2409.97 1.27659 -2.17852 0
M  V30 25671 C 2411.29 -1.95766 -2.28246 0
M  V30 25672 C 2412.84 -1.9874 -2.41808 0
M  V30 25673 C 2413.31 -3.08806 -3.38235 0
M  V30 25674 N 2414.8 -3.08185 -3.45798 0
M  V30 25675 C 2415.54 -3.8999 -4.20352 0
M  V30 25676 N 2415.03 -4.81759 -4.97876 0
M  V30 25677 N 2416.83 -3.78165 -4.1587 0
M  V30 25678 H 2408.98 -2.0011 -0.712027 0
M  V30 25679 H 2411.24 -0.870242 -0.37601 0
M  V30 25680 H 2410.95 -2.9479 -1.91812 0
M  V30 25681 H 2410.82 -1.85439 -3.2847 0
M  V30 25682 H 2413.21 -1.00343 -2.77516 0
M  V30 25683 H 2413.29 -2.13144 -1.41434 0
M  V30 25684 H 2412.93 -4.0743 -3.03254 0
M  V30 25685 H 2412.86 -2.91643 -4.38466 0
M  V30 25686 H 2415.35 -2.41696 -2.90502 0
M  V30 25687 H 2415.67 -5.40712 -5.52133 0
M  V30 25688 H 2414.01 -4.8578 -4.97034 0
M  V30 25689 H 2417.2 -3.05814 -3.54394 0
M  V30 25690 H 2417.37 -4.42151 -4.73716 0
M  V30 25691 N 2410.78 1.28995 -0.905426 0
M  V30 25692 C 2412.01 1.99459 -0.549881 0
M  V30 25693 C 2412.42 1.67726 0.866804 0
M  V30 25694 O 2411.78 0.925432 1.57296 0
M  V30 25695 C 2411.83 3.53856 -0.739449 0
M  V30 25696 O 2411.55 3.84468 -2.10038 0
M  V30 25697 C 2413.05 4.41584 -0.389619 0
M  V30 25698 H 2410.27 0.637147 -0.21044 0
M  V30 25699 H 2412.82 1.64394 -1.21635 0
M  V30 25700 H 2410.97 3.87214 -0.120091 0
M  V30 25701 H 2411.39 4.79128 -2.13393 0
M  V30 25702 H 2412.86 5.49017 -0.573068 0
M  V30 25703 H 2413.34 4.34003 0.67368 0
M  V30 25704 H 2413.94 4.13709 -0.986162 0
M  V30 25705 N 2412.26 0.668514 1.42719 0
M  V30 25706 C 2413.17 -0.013934 2.34596 0
M  V30 25707 C 2414.19 -0.795675 1.54742 0
M  V30 25708 O 2415.36 -0.739433 1.87335 0
M  V30 25709 C 2412.43 -0.957924 3.33204 0
M  V30 25710 C 2411.49 -0.171415 4.28958 0
M  V30 25711 C 2410.72 -1.07044 5.22855 0
M  V30 25712 O 2410.94 -2.30991 5.21535 0
M  V30 25713 O 2409.88 -0.534621 5.99521 0
M  V30 25714 H 2413.7 0.742713 2.94478 0
M  V30 25715 H 2411.29 0.428731 1.43116 0
M  V30 25716 H 2413.17 -1.50001 3.93799 0
M  V30 25717 H 2411.85 -1.69453 2.75803 0
M  V30 25718 H 2410.75 0.414624 3.71795 0
M  V30 25719 H 2412.09 0.525946 4.89382 0
M  V30 25720 N 2413.74 -1.52135 0.411426 0
M  V30 25721 C 2415.15 -1.59478 0.0624145 0
M  V30 25722 C 2415.35 -1.42413 -1.42551 0
M  V30 25723 O 2414.41 -1.25224 -2.19261 0
M  V30 25724 C 2415.72 -2.95451 0.559383 0
M  V30 25725 C 2417.27 -3.08691 0.517558 0
M  V30 25726 C 2417.75 -4.47148 0.991073 0
M  V30 25727 N 2419.24 -4.53395 0.947987 0
M  V30 25728 C 2419.97 -5.58804 1.28553 0
M  V30 25729 N 2419.47 -6.71754 1.69465 0
M  V30 25730 N 2421.26 -5.49024 1.20536 0
M  V30 25731 H 2413.41 -1.61475 1.37985 0
M  V30 25732 H 2415.67 -0.759754 0.56699 0
M  V30 25733 H 2415.38 -3.13227 1.59944 0
M  V30 25734 H 2415.25 -3.77188 -0.0297351 0
M  V30 25735 H 2417.64 -2.90599 -0.513454 0
M  V30 25736 H 2417.72 -2.28855 1.14276 0
M  V30 25737 H 2417.37 -4.65984 2.02042 0
M  V30 25738 H 2417.3 -5.25484 0.342663 0
M  V30 25739 H 2419.79 -3.72316 0.647223 0
M  V30 25740 H 2420.1 -7.48176 1.93527 0
M  V30 25741 H 2418.45 -6.73029 1.73371 0
M  V30 25742 H 2421.64 -4.59666 0.884585 0
M  V30 25743 H 2421.81 -6.31066 1.47172 0
M  V30 25744 N 2415.22 -0.14192 -1.5696 0
M  V30 25745 C 2416.15 0.795898 -2.19517 0
M  V30 25746 C 2417.13 1.26075 -1.14189 0
M  V30 25747 O 2418.31 1.31923 -1.42513 0
M  V30 25748 C 2415.44 2.03718 -2.81276 0
M  V30 25749 C 2414.4 1.70929 -3.92387 0
M  V30 25750 C 2413.72 3.02279 -4.41057 0
M  V30 25751 C 2415.02 0.959864 -5.13404 0
M  V30 25752 H 2416.72 0.274543 -2.98139 0
M  V30 25753 H 2414.26 0.130611 -1.43406 0
M  V30 25754 H 2416.21 2.69802 -3.23705 0
M  V30 25755 H 2414.94 2.58218 -1.99978 0
M  V30 25756 H 2413.6 1.07226 -3.50568 0
M  V30 25757 H 2413.25 3.54759 -3.56588 0
M  V30 25758 H 2412.95 2.81105 -5.15998 0
M  V30 25759 H 2414.47 3.69443 -4.86153 0
M  V30 25760 H 2415.88 1.52269 -5.52709 0
M  V30 25761 H 2414.28 0.848253 -5.94075 0
M  V30 25762 H 2415.35 -0.0493287 -4.84875 0
M  V30 25763 N 2416.69 1.57047 0.131868 0
M  V30 25764 C 2417.93 1.85982 0.84794 0
M  V30 25765 C 2418.3 0.728231 1.77654 0
M  V30 25766 O 2419.5 0.899012 2.5332 0
M  V30 25767 C 2417.77 3.20127 1.58914 0
M  V30 25768 S 2419.33 3.70659 2.34855 0
M  V30 25769 H 2416.15 0.652138 0.283262 0
M  V30 25770 H 2418.75 1.95207 0.107023 0
M  V30 25771 H 2417.45 4.00439 0.8987 0
M  V30 25772 H 2416.98 3.13947 2.37068 0
M  V30 25773 H 2419 3.41132 3.60338 0
M  V30 25774 N 2418.17 -0.401677 1.52395 0
M  V30 25775 C 2419.4 -1.174 1.70974 0
M  V30 25776 C 2419.82 -1.83313 0.421647 0
M  V30 25777 O 2419.18 -1.70313 -0.621534 0
M  V30 25778 C 2419.23 -2.20723 2.85155 0
M  V30 25779 O 2418.33 -3.27032 2.51244 0
M  V30 25780 H 2417.67 -0.342362 0.568933 0
M  V30 25781 H 2420.2 -0.469856 1.99132 0
M  V30 25782 H 2420.21 -2.6493 3.10284 0
M  V30 25783 H 2418.89 -1.72133 3.78606 0
M  V30 25784 H 2417.46 -2.88052 2.36813 0
M  V30 25785 N 2419.65 -1.43144 -0.659362 0
M  V30 25786 C 2420.58 -1.43787 -1.78488 0
M  V30 25787 C 2421.59 -0.334815 -1.5932 0
M  V30 25788 O 2422.78 -0.598872 -1.68154 0
M  V30 25789 C 2419.88 -1.22911 -3.15826 0
M  V30 25790 C 2419.06 -2.45941 -3.61707 0
M  V30 25791 C 2418.12 -2.2038 -4.77828 0
M  V30 25792 O 2417.14 -2.9369 -4.87581 0
M  V30 25793 N 2418.34 -1.21657 -5.67609 0
M  V30 25794 H 2421.11 -2.40807 -1.78416 0
M  V30 25795 H 2418.67 -1.38222 -0.842996 0
M  V30 25796 H 2420.66 -1.03704 -3.91188 0
M  V30 25797 H 2419.23 -0.343597 -3.10706 0
M  V30 25798 H 2418.45 -2.80614 -2.76856 0
M  V30 25799 H 2419.74 -3.27832 -3.89106 0
M  V30 25800 H 2419.14 -0.610548 -5.62396 0
M  V30 25801 H 2417.69 -1.08434 -6.42717 0
M  V30 25802 N 2421.13 0.897149 -1.29572 0
M  V30 25803 C 2422.08 2.02293 -1.14805 0
M  V30 25804 C 2423.07 1.69283 -0.0629934 0
M  V30 25805 O 2424.28 1.78614 -0.222976 0
M  V30 25806 H 2420.65 0.663091 -0.354703 0
M  V30 25807 H 2422.62 2.11886 -2.10112 0
M  V30 25808 C 2421.37 3.373 -0.844025 0
M  V30 25809 H 2420.69 3.63205 -1.67099 0
M  V30 25810 H 2422.13 4.1675 -0.780745 0
M  V30 25811 C 2420.59 3.33843 0.452785 0
M  V30 25812 O 2421.12 3.73519 1.47806 0
M  V30 25813 N 2419.33 2.86943 0.459551 0
M  V30 25814 H 2418.88 2.54852 -0.375258 0
M  V30 25815 H 2418.83 2.85013 1.32721 0
M  V30 25816 N 2422.61 1.1209 1.10786 0
M  V30 25817 C 2424.02 0.888939 1.64179 0
M  V30 25818 C 2424.37 -0.577465 1.87509 0
M  V30 25819 O 2423.49 -1.44109 1.61436 0
M  V30 25820 C 2424.09 1.60717 2.98254 0
M  V30 25821 C 2422.65 1.42145 3.48528 0
M  V30 25822 C 2421.79 1.64544 2.23205 0
M  V30 25823 H 2424.74 1.27619 0.943346 0
M  V30 25824 H 2424.77 1.05611 3.6555 0
M  V30 25825 H 2424.28 2.67441 2.81242 0
M  V30 25826 H 2422.38 0.376617 3.70692 0
M  V30 25827 H 2422.49 2.17512 4.26879 0
M  V30 25828 H 2420.86 1.06929 2.31167 0
M  V30 25829 H 2421.64 2.72557 2.08728 0
M  V30 25830 N 2424.08 -1.28513 0.912254 0
M  V30 25831 C 2425.49 -1.77086 0.591383 0
M  V30 25832 C 2425.85 -1.74686 -0.89327 0
M  V30 25833 O 2424.97 -1.34059 -1.69874 0
M  V30 25834 C 2425.57 -3.21568 1.06674 0
M  V30 25835 C 2424.12 -3.67869 0.796814 0
M  V30 25836 C 2423.27 -2.48314 1.23432 0
M  V30 25837 H 2426.22 -1.14998 1.09367 0
M  V30 25838 H 2426.24 -3.78311 0.407522 0
M  V30 25839 H 2425.76 -3.23283 2.14731 0
M  V30 25840 H 2423.86 -3.71616 -0.270614 0
M  V30 25841 H 2423.97 -4.58081 1.40351 0
M  V30 25842 H 2422.33 -2.46185 0.653079 0
M  V30 25843 H 2423.12 -2.52749 2.3232 0
M  V30 25844 N 2425.56 -0.676073 -1.42362 0
M  V30 25845 C 2426.81 -0.19916 -2.0182 0
M  V30 25846 C 2427.14 1.19165 -1.53341 0
M  V30 25847 O 2426.42 1.80031 -0.736155 0
M  V30 25848 C 2426.7 -0.235207 -3.59331 0
M  V30 25849 C 2426.55 -1.66156 -4.17986 0
M  V30 25850 C 2427.87 0.415873 -4.38131 0
M  V30 25851 H 2424.99 -0.073844 -0.733291 0
M  V30 25852 H 2427.63 -0.8611 -1.69367 0
M  V30 25853 H 2425.78 0.328419 -3.87109 0
M  V30 25854 H 2427.45 -2.27754 -4.01156 0
M  V30 25855 H 2425.7 -2.20184 -3.73766 0
M  V30 25856 H 2426.37 -1.63846 -5.27123 0
M  V30 25857 H 2428.84 -0.063926 -4.16051 0
M  V30 25858 H 2427.72 0.360019 -5.47718 0
M  V30 25859 H 2427.98 1.49365 -4.16104 0
M  V30 25860 N 2427.04 1.51915 -0.419488 0
M  V30 25861 C 2427.97 2.3019 0.391772 0
M  V30 25862 C 2428.95 1.34837 1.03696 0
M  V30 25863 O 2430.14 1.6375 1.04401 0
M  V30 25864 C 2427.27 3.1309 1.50306 0
M  V30 25865 C 2426.22 4.16575 0.982327 0
M  V30 25866 C 2425.55 4.87884 2.18801 0
M  V30 25867 C 2426.85 5.22292 0.0291438 0
M  V30 25868 H 2428.54 2.98257 -0.261402 0
M  V30 25869 H 2426.09 1.43437 -0.127159 0
M  V30 25870 H 2428.04 3.66621 2.07767 0
M  V30 25871 H 2426.76 2.42811 2.18427 0
M  V30 25872 H 2425.42 3.64069 0.430055 0
M  V30 25873 H 2425.07 4.14124 2.855 0
M  V30 25874 H 2424.77 5.57848 1.84605 0
M  V30 25875 H 2426.29 5.44231 2.76848 0
M  V30 25876 H 2427.71 5.71001 0.512875 0
M  V30 25877 H 2426.11 5.9968 -0.224505 0
M  V30 25878 H 2427.18 4.76227 -0.913015 0
M  V30 25879 N 2428.52 0.150242 1.56882 0
M  V30 25880 C 2429.47 -0.788206 2.16924 0
M  V30 25881 C 2430.44 -1.24185 1.10305 0
M  V30 25882 O 2431.62 -1.3138 1.38361 0
M  V30 25883 C 2428.76 -2.02064 2.79758 0
M  V30 25884 C 2427.87 -1.6125 4.00777 0
M  V30 25885 C 2427.01 -2.79697 4.516 0
M  V30 25886 C 2426.05 -2.35272 5.65078 0
M  V30 25887 N 2425.18 -3.46739 6.10505 0
M  V30 25888 H 2430.02 -0.269392 2.9678 0
M  V30 25889 H 2427.56 -0.121254 1.46599 0
M  V30 25890 H 2429.52 -2.74318 3.14334 0
M  V30 25891 H 2428.15 -2.51351 2.02541 0
M  V30 25892 H 2427.2 -0.787488 3.7216 0
M  V30 25893 H 2428.51 -1.24624 4.82981 0
M  V30 25894 H 2427.67 -3.60136 4.88248 0
M  V30 25895 H 2426.41 -3.19569 3.68411 0
M  V30 25896 H 2425.41 -1.53273 5.28003 0
M  V30 25897 H 2426.64 -1.96482 6.50055 0
M  V30 25898 H 2424.58 -3.86226 5.3025 0
M  V30 25899 H 2424.5 -3.14139 6.87643 0
M  V30 25900 H 2425.77 -4.27526 6.51799 0
M  V30 25901 N 2430 -1.57115 -0.123538 0
M  V30 25902 C 2431.41 -1.52307 -0.476934 0
M  V30 25903 C 2431.61 -0.862512 -1.82107 0
M  V30 25904 O 2430.67 -0.442927 -2.48585 0
M  V30 25905 C 2431.98 -2.97073 -0.465609 0
M  V30 25906 C 2433.53 -3.08139 -0.54948 0
M  V30 25907 C 2434 -4.54457 -0.568589 0
M  V30 25908 N 2435.5 -4.58894 -0.630156 0
M  V30 25909 C 2436.23 -5.69515 -0.666315 0
M  V30 25910 N 2435.73 -6.89645 -0.660393 0
M  V30 25911 N 2437.52 -5.57611 -0.708979 0
M  V30 25912 H 2429.67 -1.98443 0.757233 0
M  V30 25913 H 2431.93 -0.906069 0.278824 0
M  V30 25914 H 2431.64 -3.48754 0.454294 0
M  V30 25915 H 2431.51 -3.54271 -1.29507 0
M  V30 25916 H 2433.9 -2.56464 -1.4598 0
M  V30 25917 H 2433.98 -2.53944 0.307577 0
M  V30 25918 H 2433.63 -5.06776 0.33767 0
M  V30 25919 H 2433.56 -5.06459 -1.44247 0
M  V30 25920 H 2436.05 -3.72423 -0.64108 0
M  V30 25921 H 2436.36 -7.69709 -0.690481 0
M  V30 25922 H 2434.7 -6.92158 -0.62789 0
M  V30 25923 H 2437.9 -4.6267 -0.710937 0
M  V30 25924 H 2438.07 -6.43833 -0.733691 0
M  V30 25925 N 2431.47 0.393589 -1.52606 0
M  V30 25926 C 2432.42 1.47997 -1.73439 0
M  V30 25927 C 2433.41 1.49755 -0.588412 0
M  V30 25928 O 2434.6 1.55469 -0.846074 0
M  V30 25929 C 2431.73 2.8576 -1.90252 0
M  V30 25930 C 2430.82 2.8859 -3.10768 0
M  V30 25931 N 2431.21 2.61095 -4.33201 0
M  V30 25932 C 2429.5 3.19758 -3.1092 0
M  V30 25933 C 2430.21 2.7089 -5.14775 0
M  V30 25934 N 2429.18 3.04427 -4.50361 0
M  V30 25935 H 2432.98 1.25559 -2.6573 0
M  V30 25936 H 2430.5 0.601486 -1.50851 0
M  V30 25937 H 2432.49 3.63972 -2.03297 0
M  V30 25938 H 2431.15 3.09185 -0.991717 0
M  V30 25939 H 2432.17 2.35201 -4.61412 0
M  V30 25940 H 2428.84 3.48676 -2.29632 0
M  V30 25941 H 2430.23 2.53217 -6.22359 0
M  V30 25942 N 2432.95 1.43492 0.651762 0
M  V30 25943 C 2433.88 1.44732 1.77723 0
M  V30 25944 C 2434.9 0.343259 1.5914 0
M  V30 25945 O 2436.09 0.607781 1.67834 0
M  V30 25946 C 2433.19 1.24584 3.1517 0
M  V30 25947 C 2432.36 2.47855 3.60398 0
M  V30 25948 C 2431.42 2.22911 4.76652 0
M  V30 25949 O 2430.44 2.96271 4.86016 0
M  V30 25950 N 2431.65 1.24666 5.66956 0
M  V30 25951 H 2434.41 2.41749 1.77136 0
M  V30 25952 H 2431.97 1.38667 0.835654 0
M  V30 25953 H 2433.96 1.05777 3.90632 0
M  V30 25954 H 2432.53 0.36007 3.10519 0
M  V30 25955 H 2431.75 2.82078 2.75364 0
M  V30 25956 H 2433.04 3.29891 3.87362 0
M  V30 25957 H 2432.44 0.640364 5.62064 0
M  V30 25958 H 2431 1.11841 6.42133 0
M  V30 25959 N 2434.43 -0.890264 1.30046 0
M  V30 25960 C 2435.85 -1.17266 1.08263 0
M  V30 25961 C 2436.05 -2.00864 -0.160028 0
M  V30 25962 O 2435.1 -2.37579 -0.855139 0
M  V30 25963 C 2436.42 -1.88446 2.34326 0
M  V30 25964 C 2437.96 -2.01232 2.39738 0
M  V30 25965 C 2438.44 -2.75824 3.6563 0
M  V30 25966 N 2439.93 -2.83373 3.66407 0
M  V30 25967 C 2440.66 -3.41649 4.60504 0
M  V30 25968 N 2440.16 -4.01016 5.6494 0
M  V30 25969 N 2441.95 -3.39413 4.48057 0
M  V30 25970 H 2434.1 -0.332726 2.09778 0
M  V30 25971 H 2436.37 -0.209932 0.924463 0
M  V30 25972 H 2436.07 -1.3446 3.24982 0
M  V30 25973 H 2435.95 -2.88863 2.42565 0
M  V30 25974 H 2438.33 -2.54391 1.49564 0
M  V30 25975 H 2438.42 -0.99919 2.35478 0
M  V30 25976 H 2438.06 -2.23339 4.5616 0
M  V30 25977 H 2437.99 -3.77502 3.67151 0
M  V30 25978 H 2440.48 -2.41217 2.909 0
M  V30 25979 H 2440.79 -4.43534 6.32849 0
M  V30 25980 H 2439.14 -3.99451 5.68739 0
M  V30 25981 H 2442.33 -2.92258 3.65654 0
M  V30 25982 H 2442.5 -3.84535 5.21572 0
M  V30 25983 N 2435.91 -1.12676 -1.1019 0
M  V30 25984 C 2436.82 -0.810065 -2.20171 0
M  V30 25985 C 2437.83 0.202158 -1.72822 0
M  V30 25986 O 2439.01 0.0351337 -2.01369 0
M  V30 25987 C 2436.08 -0.272068 -3.45631 0
M  V30 25988 C 2435.14 -1.34454 -4.07702 0
M  V30 25989 C 2434.37 -0.832122 -5.27173 0
M  V30 25990 O 2434.59 0.333184 -5.69426 0
M  V30 25991 O 2433.53 -1.60287 -5.80165 0
M  V30 25992 H 2437.35 -1.72871 -2.49698 0
M  V30 25993 H 2434.94 -0.903618 -1.18975 0
M  V30 25994 H 2436.82 0.0229478 -4.21394 0
M  V30 25995 H 2435.49 0.619108 -3.17724 0
M  V30 25996 H 2434.4 -1.69276 -3.33611 0
M  V30 25997 H 2435.73 -2.20958 -4.39817 0
M  V30 25998 N 2437.39 1.28028 -0.919057 0
M  V30 25999 C 2438.64 1.94033 -0.550836 0
M  V30 26000 C 2438.95 1.73098 0.910847 0
M  V30 26001 O 2440.15 2.3337 1.38746 0
M  V30 26002 C 2438.61 3.47561 -0.93431 0
M  V30 26003 C 2438.22 3.77266 -2.41608 0
M  V30 26004 C 2439.96 4.19695 -0.636928 0
M  V30 26005 C 2437.87 5.24128 -2.73941 0
M  V30 26006 H 2436.8 0.726358 -0.202286 0
M  V30 26007 H 2439.45 1.45456 -1.1187 0
M  V30 26008 H 2437.83 3.94898 -0.295184 0
M  V30 26009 H 2439.01 3.40718 -3.10239 0
M  V30 26010 H 2437.32 3.18316 -2.68447 0
M  V30 26011 H 2439.92 5.27818 -0.855098 0
M  V30 26012 H 2440.26 4.1412 0.425502 0
M  V30 26013 H 2440.79 3.78151 -1.23476 0
M  V30 26014 H 2437.53 5.34785 -3.79058 0
M  V30 26015 H 2437.05 5.61854 -2.09952 0
M  V30 26016 H 2438.73 5.91921 -2.61225 0
M  V30 26017 N 2438.86 0.683613 1.42002 0
M  V30 26018 C 2440.09 0.218218 2.05746 0
M  V30 26019 C 2440.51 -1.12801 1.51398 0
M  V30 26020 O 2439.86 -1.70251 0.657333 0
M  V30 26021 C 2439.92 0.154194 3.61171 0
M  V30 26022 O 2439.64 1.44723 4.13505 0
M  V30 26023 C 2441.14 -0.333635 4.42043 0
M  V30 26024 H 2438.36 0.104031 0.662886 0
M  V30 26025 H 2440.9 0.932832 1.81985 0
M  V30 26026 H 2439.06 -0.511163 3.84013 0
M  V30 26027 H 2439.47 1.32641 5.07451 0
M  V30 26028 H 2440.94 -0.327326 5.51029 0
M  V30 26029 H 2441.42 -1.37045 4.17271 0
M  V30 26030 H 2442.03 0.300297 4.24239 0
M  V30 26031 N 2440.34 -1.5169 0.427538 0
M  V30 26032 C 2441.76 -1.59403 0.0793258 0
M  V30 26033 C 2441.96 -1.43917 -1.41033 0
M  V30 26034 O 2441.02 -1.27543 -2.1792 0
M  V30 26035 C 2442.33 -2.94841 0.590688 0
M  V30 26036 C 2443.88 -3.08125 0.550269 0
M  V30 26037 C 2444.35 -4.46072 1.03844 0
M  V30 26038 N 2445.84 -4.52364 0.996023 0
M  V30 26039 C 2446.58 -5.57409 1.34473 0
M  V30 26040 N 2446.07 -6.69919 1.76581 0
M  V30 26041 N 2447.87 -5.47715 1.26352 0
M  V30 26042 H 2440.02 -1.60002 1.39689 0
M  V30 26043 H 2442.28 -0.753698 0.575016 0
M  V30 26044 H 2441.99 -3.11513 1.63257 0
M  V30 26045 H 2441.86 -3.77199 0.0102724 0
M  V30 26046 H 2444.25 -2.91127 -0.482603 0
M  V30 26047 H 2444.33 -2.2763 1.16697 0
M  V30 26048 H 2443.97 -4.63815 2.06973 0
M  V30 26049 H 2443.9 -5.25091 0.398378 0
M  V30 26050 H 2446.39 -3.71609 0.686675 0
M  V30 26051 H 2446.71 -7.46081 2.01451 0
M  V30 26052 H 2445.05 -6.71152 1.80499 0
M  V30 26053 H 2448.24 -4.58702 0.933289 0
M  V30 26054 H 2448.42 -6.2947 1.53857 0
M  V30 26055 N 2441.82 -0.15856 -1.568 0
M  V30 26056 C 2443.05 0.496268 -2.0086 0
M  V30 26057 C 2443.46 1.57657 -1.03873 0
M  V30 26058 O 2442.82 1.82461 -0.0375485 0
M  V30 26059 C 2442.87 1.08632 -3.44792 0
M  V30 26060 O 2442.59 0.0491552 -4.38072 0
M  V30 26061 C 2444.09 1.82063 -4.04188 0
M  V30 26062 H 2441.31 0.128187 -0.658642 0
M  V30 26063 H 2443.86 -0.256542 -2.02884 0
M  V30 26064 H 2442.01 1.78969 -3.43582 0
M  V30 26065 H 2442.43 0.48301 -5.22271 0
M  V30 26066 H 2443.9 2.18624 -5.0686 0
M  V30 26067 H 2444.38 2.71089 -3.45554 0
M  V30 26068 H 2444.98 1.16397 -4.09062 0
M  V30 26069 N 2443.3 1.57178 0.115204 0
M  V30 26070 C 2444.53 1.8924 0.836403 0
M  V30 26071 C 2444.94 0.750206 1.73255 0
M  V30 26072 O 2444.3 -0.2788 1.80358 0
M  V30 26073 C 2444.35 3.20788 1.66665 0
M  V30 26074 O 2444.07 4.30611 0.806576 0
M  V30 26075 C 2445.57 3.6658 2.49267 0
M  V30 26076 H 2442.79 0.626518 0.240242 0
M  V30 26077 H 2445.34 2.04263 0.0984573 0
M  V30 26078 H 2443.49 3.07424 2.35731 0
M  V30 26079 H 2443.91 5.06031 1.37961 0
M  V30 26080 H 2445.38 4.61375 3.03046 0
M  V30 26081 H 2445.86 2.93423 3.26802 0
M  V30 26082 H 2446.46 3.82745 1.85436 0
M  V30 26083 N 2444.78 -0.38549 1.52813 0
M  V30 26084 C 2445.71 -1.47749 1.80811 0
M  V30 26085 C 2446.69 -1.56759 0.660346 0
M  V30 26086 O 2447.87 -1.71651 0.908277 0
M  V30 26087 C 2445 -2.85321 1.98013 0
M  V30 26088 C 2443.96 -2.91148 3.13714 0
M  V30 26089 C 2443.28 -4.31204 3.16176 0
M  V30 26090 C 2444.58 -2.60475 4.52714 0
M  V30 26091 H 2446.28 -1.24568 2.72256 0
M  V30 26092 H 2443.82 -0.597816 1.31004 0
M  V30 26093 H 2445.78 -3.61722 2.16183 0
M  V30 26094 H 2444.5 -3.09846 1.03261 0
M  V30 26095 H 2443.16 -2.17195 2.95333 0
M  V30 26096 H 2442.81 -4.52774 2.191 0
M  V30 26097 H 2442.51 -4.36022 3.93901 0
M  V30 26098 H 2444.03 -5.09506 3.36505 0
M  V30 26099 H 2445.45 -3.26593 4.71179 0
M  V30 26100 H 2443.84 -2.76639 5.32533 0
M  V30 26101 H 2444.91 -1.55801 4.59188 0
M  V30 26102 N 2446.26 -1.43835 -0.644143 0
M  V30 26103 C 2447.19 -1.45672 -1.76953 0
M  V30 26104 C 2448.2 -0.351694 -1.58956 0
M  V30 26105 O 2449.39 -0.616673 -1.67509 0
M  V30 26106 C 2446.49 -1.26254 -3.14505 0
M  V30 26107 C 2445.66 -2.49763 -3.59078 0
M  V30 26108 C 2444.72 -2.25435 -4.75463 0
M  V30 26109 O 2443.75 -2.98844 -4.84438 0
M  V30 26110 N 2444.95 -1.27671 -5.66287 0
M  V30 26111 H 2447.71 -2.42685 -1.75852 0
M  V30 26112 H 2445.28 -1.39108 -0.828288 0
M  V30 26113 H 2447.27 -1.07847 -3.90066 0
M  V30 26114 H 2445.84 -0.376532 -3.10324 0
M  V30 26115 H 2445.06 -2.83535 -2.73865 0
M  V30 26116 H 2446.35 -3.3194 -3.85607 0
M  V30 26117 H 2445.74 -0.670163 -5.61716 0
M  V30 26118 H 2444.3 -1.15245 -6.41531 0
M  V30 26119 N 2447.73 0.883355 -1.30517 0
M  V30 26120 C 2448.96 1.67365 -1.2249 0
M  V30 26121 C 2449.38 1.86938 0.208734 0
M  V30 26122 O 2448.74 1.4015 1.15012 0
M  V30 26123 C 2448.79 3.02652 -1.96047 0
M  V30 26124 O 2447.89 3.91749 -1.28866 0
M  V30 26125 H 2447.23 0.511345 -0.423582 0
M  V30 26126 H 2449.76 1.10236 -1.72364 0
M  V30 26127 H 2449.77 3.52683 -2.05131 0
M  V30 26128 H 2448.45 2.87724 -3.00312 0
M  V30 26129 H 2447.03 3.5019 -1.28147 0
M  V30 26130 N 2449.21 1.13259 1.09591 0
M  V30 26131 C 2450.49 0.804463 1.78291 0
M  V30 26132 C 2450.87 -0.704275 1.99005 0
M  V30 26133 O 2450.22 -1.64098 1.5901 0
M  V30 26134 C 2450.43 1.58946 3.10704 0
M  V30 26135 C 2451.77 1.78106 3.85439 0
M  V30 26136 O 2452.8 1.5553 3.20451 0
M  V30 26137 O 2451.66 2.15762 5.02105 0
M  V30 26138 H 2448.75 0.293541 0.773151 0
M  V30 26139 H 2451.3 1.23711 1.16162 0
M  V30 26140 H 2450.07 2.61487 2.91101 0
M  V30 26141 H 2449.69 1.15164 3.80556 0
M  V30 26142 N 2450.69 -1.27539 0.925834 0
M  V30 26143 C 2451.62 -2.26015 0.380793 0
M  V30 26144 C 2452.63 -1.55331 -0.487458 0
M  V30 26145 O 2453.82 -1.75954 -0.300382 0
M  V30 26146 C 2450.92 -3.3558 -0.4732 0
M  V30 26147 C 2450.1 -4.35787 0.375326 0
M  V30 26148 C 2449.16 -5.24555 -0.415717 0
M  V30 26149 O 2448.18 -5.68928 0.175934 0
M  V30 26150 N 2449.38 -5.54558 -1.71597 0
M  V30 26151 H 2452.15 -2.73418 1.22729 0
M  V30 26152 H 2449.71 -1.41146 0.793062 0
M  V30 26153 H 2451.7 -3.91909 -1.00942 0
M  V30 26154 H 2450.27 -2.87791 -1.22045 0
M  V30 26155 H 2449.49 -3.78748 1.09286 0
M  V30 26156 H 2450.78 -4.99748 0.955487 0
M  V30 26157 H 2450.18 -5.20362 -2.21901 0
M  V30 26158 H 2448.73 -6.13594 -2.19876 0
M  V30 26159 N 2452.17 -0.691135 -1.41637 0
M  V30 26160 C 2453.08 -0.0233899 -2.34588 0
M  V30 26161 C 2454.09 0.770957 -1.55988 0
M  V30 26162 O 2455.27 0.709536 -1.88488 0
M  V30 26163 C 2452.33 0.904792 -3.34686 0
M  V30 26164 C 2451.4 0.10315 -4.29176 0
M  V30 26165 C 2450.63 0.987124 -5.24492 0
M  V30 26166 O 2450.85 2.22665 -5.25144 0
M  V30 26167 O 2449.79 0.439175 -6.00296 0
M  V30 26168 H 2453.61 -0.789468 -2.93259 0
M  V30 26169 H 2451.2 -0.451445 -1.42416 0
M  V30 26170 H 2453.08 1.43717 -3.96136 0
M  V30 26171 H 2451.75 1.65044 -2.78464 0
M  V30 26172 H 2450.66 -0.473721 -3.71089 0
M  V30 26173 H 2451.99 -0.603735 -4.88483 0
M  V30 26174 N 2453.65 1.51461 -0.435577 0
M  V30 26175 C 2454.56 2.31453 0.38296 0
M  V30 26176 C 2455.57 1.40291 1.02929 0
M  V30 26177 O 2456.75 1.73363 1.02504 0
M  V30 26178 C 2453.81 3.13976 1.47037 0
M  V30 26179 C 2452.87 4.20915 0.844359 0
M  V30 26180 C 2452.11 4.99493 1.87995 0
M  V30 26181 O 2452.33 4.78684 3.10191 0
M  V30 26182 O 2451.26 5.83636 1.47147 0
M  V30 26183 H 2455.09 3.02497 -0.270017 0
M  V30 26184 H 2452.67 1.4808 -0.198156 0
M  V30 26185 H 2454.56 3.65285 2.10107 0
M  V30 26186 H 2453.23 2.45698 2.10746 0
M  V30 26187 H 2452.14 3.73687 0.175663 0
M  V30 26188 H 2453.47 4.91561 0.250782 0
M  V30 26189 N 2455.12 0.166873 1.56714 0
M  V30 26190 C 2456.37 -0.479284 1.95923 0
M  V30 26191 C 2456.69 -1.64689 1.05532 0
M  V30 26192 O 2457.89 -2.35898 1.34403 0
M  V30 26193 C 2456.35 -0.904059 3.4836 0
M  V30 26194 C 2455.96 0.2377 4.47369 0
M  V30 26195 C 2457.7 -1.51889 3.96396 0
M  V30 26196 C 2455.61 -0.206458 5.9104 0
M  V30 26197 H 2454.54 -0.182827 0.731499 0
M  V30 26198 H 2457.19 0.254395 1.81728 0
M  V30 26199 H 2455.57 -1.69359 3.57958 0
M  V30 26200 H 2456.74 1.01497 4.49483 0
M  V30 26201 H 2455.06 0.7622 4.09365 0
M  V30 26202 H 2457.66 -1.86316 5.01189 0
M  V30 26203 H 2458 -2.41518 3.39079 0
M  V30 26204 H 2458.53 -0.793882 3.89798 0
M  V30 26205 H 2455.27 0.654949 6.5222 0
M  V30 26206 H 2454.79 -0.949178 5.92242 0
M  V30 26207 H 2456.47 -0.651826 6.43708 0
M  V30 26208 N 2456.6 -1.57237 -0.106866 0
M  V30 26209 C 2457.88 -1.76478 -0.843495 0
M  V30 26210 C 2458.26 -0.745499 -1.97498 0
M  V30 26211 O 2457.61 0.228266 -2.27357 0
M  V30 26212 C 2457.82 -3.21875 -1.34897 0
M  V30 26213 C 2459.17 -3.84723 -1.79647 0
M  V30 26214 O 2460.19 -3.25552 -1.44548 0
M  V30 26215 O 2459.05 -4.88752 -2.44506 0
M  V30 26216 H 2456.14 -0.723024 -0.401455 0
M  V30 26217 H 2458.69 -1.69463 -0.0896629 0
M  V30 26218 H 2457.46 -3.87587 -0.537742 0
M  V30 26219 H 2457.08 -3.33477 -2.16516 0
M  V30 26220 N 2458.08 0.377381 -1.53015 0
M  V30 26221 C 2459.31 1.14051 -1.72267 0
M  V30 26222 C 2459.72 1.83867 -0.446042 0
M  V30 26223 O 2459.06 1.73965 0.590065 0
M  V30 26224 C 2459.12 2.22343 -2.82496 0
M  V30 26225 C 2458.79 1.72394 -4.23237 0
M  V30 26226 C 2459.78 1.19439 -5.05994 0
M  V30 26227 C 2457.47 1.78265 -4.69603 0
M  V30 26228 C 2459.46 0.730157 -6.33204 0
M  V30 26229 C 2457.15 1.31454 -5.96794 0
M  V30 26230 C 2458.15 0.789177 -6.78425 0
M  V30 26231 O 2457.84 0.327936 -8.03231 0
M  V30 26232 H 2457.57 0.347443 -0.579879 0
M  V30 26233 H 2460.12 0.445847 -2.00503 0
M  V30 26234 H 2458.35 2.95268 -2.49708 0
M  V30 26235 H 2460.04 2.83958 -2.90039 0
M  V30 26236 H 2460.81 1.14251 -4.71351 0
M  V30 26237 H 2456.69 2.18098 -4.06145 0
M  V30 26238 H 2460.23 0.31942 -6.96868 0
M  V30 26239 H 2456.13 1.36331 -6.30939 0
M  V30 26240 H 2456.9 0.44835 -8.17271 0
M  V30 26241 N 2459.56 1.44175 0.636506 0
M  V30 26242 C 2460.84 1.3715 1.3946 0
M  V30 26243 C 2461.22 0.0275441 2.11082 0
M  V30 26244 O 2460.56 -0.98968 2.05955 0
M  V30 26245 C 2460.77 2.56605 2.36548 0
M  V30 26246 C 2462.12 3.00433 3.00042 0
M  V30 26247 O 2463.15 2.56772 2.46874 0
M  V30 26248 O 2462 3.76118 3.96481 0
M  V30 26249 H 2459.1 0.54285 0.623893 0
M  V30 26250 H 2461.64 1.56255 0.662012 0
M  V30 26251 H 2460.42 3.46037 1.82686 0
M  V30 26252 H 2460.04 2.39687 3.17232 0
M  V30 26253 N 2461.04 -0.876421 1.30983 0
M  V30 26254 C 2462.31 -1.61092 1.10945 0
M  V30 26255 C 2462.69 -2.08373 -0.338187 0
M  V30 26256 O 2462.04 -1.85719 -1.33119 0
M  V30 26257 C 2462.25 -2.77388 2.11794 0
M  V30 26258 C 2463.6 -3.4751 2.43971 0
M  V30 26259 O 2464.62 -2.87587 2.10171 0
M  V30 26260 O 2463.48 -4.55592 3.01825 0
M  V30 26261 H 2460.58 -0.708429 0.426682 0
M  V30 26262 H 2463.12 -0.922449 1.42439 0
M  V30 26263 H 2461.89 -2.39817 3.09198 0
M  V30 26264 H 2461.52 -3.53927 1.81167 0
M  V30 26265 N 2462.51 -1.13839 -1.08989 0
M  V30 26266 C 2463.74 -0.926235 -1.85009 0
M  V30 26267 C 2464.16 0.525096 -1.81351 0
M  V30 26268 O 2463.51 1.36364 -1.21289 0
M  V30 26269 C 2463.57 -1.41161 -3.328 0
M  V30 26270 O 2463.29 -2.80607 -3.36439 0
M  V30 26271 C 2464.79 -1.23855 -4.25647 0
M  V30 26272 H 2462.01 -0.330001 -0.584244 0
M  V30 26273 H 2464.55 -1.51205 -1.37686 0
M  V30 26274 H 2462.71 -0.868697 -3.77535 0
M  V30 26275 H 2463.12 -3.02255 -4.28651 0
M  V30 26276 H 2464.59 -1.62685 -5.27482 0
M  V30 26277 H 2465.07 -0.180728 -4.38828 0
M  V30 26278 H 2465.68 -1.76971 -3.86732 0
M  V30 26279 N 2463.99 1.27046 -0.932584 0
M  V30 26280 C 2465.24 1.93438 -0.571385 0
M  V30 26281 C 2465.55 1.74054 0.892436 0
M  V30 26282 O 2466.76 2.34829 1.36263 0
M  V30 26283 C 2465.22 3.46551 -0.971121 0
M  V30 26284 C 2464.82 3.74682 -2.45596 0
M  V30 26285 C 2466.57 4.18995 -0.681406 0
M  V30 26286 C 2464.48 5.21193 -2.79484 0
M  V30 26287 H 2463.41 0.724172 -0.209978 0
M  V30 26288 H 2466.06 1.44261 -1.13406 0
M  V30 26289 H 2464.44 3.94563 -0.337052 0
M  V30 26290 H 2465.61 3.37408 -3.13835 0
M  V30 26291 H 2463.93 3.15451 -2.71808 0
M  V30 26292 H 2466.52 5.26882 -0.911032 0
M  V30 26293 H 2466.87 4.14548 0.381555 0
M  V30 26294 H 2467.4 3.76821 -1.2748 0
M  V30 26295 H 2464.14 5.30735 -3.84709 0
M  V30 26296 H 2463.66 5.59596 -2.159 0
M  V30 26297 H 2465.34 5.89117 -2.67489 0
M  V30 26298 N 2465.47 0.698636 1.41269 0
M  V30 26299 C 2466.7 0.238548 2.06024 0
M  V30 26300 C 2467.12 -1.10472 1.52242 0
M  V30 26301 O 2466.48 -1.69222 0.650653 0
M  V30 26302 C 2466.53 0.210016 3.59988 0
M  V30 26303 O 2465.63 -0.814164 4.04283 0
M  V30 26304 H 2464.97 0.115787 0.653827 0
M  V30 26305 H 2467.5 0.954357 1.80978 0
M  V30 26306 H 2467.51 0.0419154 4.07978 0
M  V30 26307 H 2466.19 1.19037 3.98501 0
M  V30 26308 H 2464.76 -0.615169 3.67791 0
M  V30 26309 N 2466.95 -1.51228 0.443603 0
M  V30 26310 C 2468.19 -2.02439 -0.120939 0
M  V30 26311 C 2468.53 -1.32676 -1.41812 0
M  V30 26312 O 2467.8 -0.443655 -1.89373 0
M  V30 26313 C 2468.09 -3.58555 -0.333228 0
M  V30 26314 C 2467.94 -4.38926 0.983045 0
M  V30 26315 C 2469.26 -4.26126 -1.10021 0
M  V30 26316 H 2466.38 -0.735775 -0.0424793 0
M  V30 26317 H 2469.02 -1.80808 0.583826 0
M  V30 26318 H 2467.17 -3.77117 -0.933548 0
M  V30 26319 H 2468.84 -4.32 1.61783 0
M  V30 26320 H 2467.08 -4.03761 1.58618 0
M  V30 26321 H 2467.75 -5.4634 0.788475 0
M  V30 26322 H 2470.23 -4.11872 -0.591638 0
M  V30 26323 H 2469.11 -5.35227 -1.21751 0
M  V30 26324 H 2469.37 -3.87412 -2.12989 0
M  V30 26325 N 2468.43 -0.175182 -1.56623 0
M  V30 26326 C 2469.34 0.766003 -2.21742 0
M  V30 26327 C 2470.35 1.25015 -1.21025 0
M  V30 26328 O 2471.53 1.30148 -1.537 0
M  V30 26329 C 2468.59 1.9765 -2.84843 0
M  V30 26330 C 2467.65 1.53885 -4.00772 0
M  V30 26331 C 2466.89 2.69165 -4.60854 0
M  V30 26332 O 2467.11 3.86134 -4.1983 0
M  V30 26333 O 2466.04 2.43018 -5.50659 0
M  V30 26334 H 2469.87 0.241532 -3.02738 0
M  V30 26335 H 2467.46 0.0531958 -1.49305 0
M  V30 26336 H 2469.34 2.68436 -3.24838 0
M  V30 26337 H 2468.01 2.48995 -2.06841 0
M  V30 26338 H 2466.92 0.800376 -3.65438 0
M  V30 26339 H 2468.25 1.07227 -4.80378 0
M  V30 26340 N 2469.91 1.57292 0.0985263 0
M  V30 26341 C 2470.84 1.97059 1.15079 0
M  V30 26342 C 2471.82 0.84328 1.39024 0
M  V30 26343 O 2473 1.10327 1.5284 0
M  V30 26344 C 2470.13 2.28441 2.50065 0
M  V30 26345 C 2469.17 3.50904 2.42422 0
M  V30 26346 S 2470.01 5.02747 1.84405 0
M  V30 26347 C 2471.16 5.37304 3.21023 0
M  V30 26348 H 2471.4 2.86003 0.811764 0
M  V30 26349 H 2468.93 1.51336 0.306076 0
M  V30 26350 H 2470.89 2.47198 3.27724 0
M  V30 26351 H 2469.55 1.40074 2.81137 0
M  V30 26352 H 2468.74 3.70294 3.41904 0
M  V30 26353 H 2468.34 3.3164 1.7289 0
M  V30 26354 H 2470.63 5.33739 4.17288 0
M  V30 26355 H 2471.58 6.38357 3.06441 0
M  V30 26356 H 2471.99 4.64765 3.20396 0
M  V30 26357 N 2471.38 -0.369261 1.53213 0
M  V30 26358 C 2472.33 -1.45215 1.79391 0
M  V30 26359 C 2473.3 -1.53355 0.638086 0
M  V30 26360 O 2474.49 -1.69301 0.879882 0
M  V30 26361 C 2471.63 -2.82208 1.98628 0
M  V30 26362 C 2470.74 -2.83064 3.26342 0
M  V30 26363 C 2469.87 -4.11608 3.35786 0
M  V30 26364 C 2468.91 -4.06593 4.57547 0
M  V30 26365 N 2468.05 -5.26779 4.64164 0
M  V30 26366 H 2472.89 -1.22193 2.71796 0
M  V30 26367 H 2470.43 -0.592421 1.34643 0
M  V30 26368 H 2472.38 -3.61785 2.07767 0
M  V30 26369 H 2471.01 -3.03638 1.09563 0
M  V30 26370 H 2470.07 -1.95741 3.26174 0
M  V30 26371 H 2471.38 -2.7523 4.15993 0
M  V30 26372 H 2470.53 -4.996 3.44217 0
M  V30 26373 H 2469.27 -4.22191 2.44144 0
M  V30 26374 H 2468.28 -3.16988 4.4922 0
M  V30 26375 H 2469.5 -3.97615 5.50526 0
M  V30 26376 H 2467.45 -5.37954 3.75422 0
M  V30 26377 H 2467.36 -5.21099 5.47715 0
M  V30 26378 H 2468.63 -6.16613 4.76874 0
M  V30 26379 N 2472.86 -1.4451 -0.628851 0
M  V30 26380 C 2473.81 -1.51552 -1.74071 0
M  V30 26381 C 2474.78 -0.363049 -1.62084 0
M  V30 26382 O 2475.96 -0.573599 -1.81974 0
M  V30 26383 C 2473.1 -1.46789 -3.12325 0
M  V30 26384 C 2472.22 -2.72428 -3.35272 0
M  V30 26385 C 2471.35 -2.59483 -4.63511 0
M  V30 26386 C 2470.39 -3.80274 -4.79644 0
M  V30 26387 N 2469.53 -3.65991 -5.99162 0
M  V30 26388 H 2474.37 -2.46547 -1.67388 0
M  V30 26389 H 2471.9 -1.22359 -0.816505 0
M  V30 26390 H 2473.86 -1.42019 -3.92284 0
M  V30 26391 H 2472.49 -0.5536 -3.18017 0
M  V30 26392 H 2471.54 -2.87376 -2.49237 0
M  V30 26393 H 2472.86 -3.62082 -3.43071 0
M  V30 26394 H 2472.01 -2.52558 -5.51633 0
M  V30 26395 H 2470.75 -1.67392 -4.58073 0
M  V30 26396 H 2469.75 -3.87581 -3.8995 0
M  V30 26397 H 2470.98 -4.73404 -4.86894 0
M  V30 26398 H 2468.93 -2.76654 -5.9481 0
M  V30 26399 H 2468.84 -4.49264 -6.08028 0
M  V30 26400 H 2470.11 -3.62962 -6.8984 0
M  V30 26401 N 2474.34 0.869463 -1.31446 0
M  V30 26402 C 2475.25 2.00927 -1.211 0
M  V30 26403 C 2476.27 1.73531 -0.127615 0
M  V30 26404 O 2477.44 1.98414 -0.345512 0
M  V30 26405 C 2474.51 3.34286 -0.919437 0
M  V30 26406 C 2473.57 3.75002 -2.08978 0
M  V30 26407 C 2472.8 5.01997 -1.81202 0
M  V30 26408 O 2473.02 5.65482 -0.747395 0
M  V30 26409 O 2471.96 5.39492 -2.66893 0
M  V30 26410 H 2475.78 2.12588 -2.16887 0
M  V30 26411 H 2473.37 0.997848 -1.11191 0
M  V30 26412 H 2475.25 4.14255 -0.772698 0
M  V30 26413 H 2473.93 3.23699 0.00839082 0
M  V30 26414 H 2472.83 2.95672 -2.29192 0
M  V30 26415 H 2474.17 3.90216 -2.99987 0
M  V30 26416 N 2475.82 1.14415 1.08383 0
M  V30 26417 C 2477.09 0.823328 1.77428 0
M  V30 26418 C 2477.47 -0.683128 1.99741 0
M  V30 26419 O 2476.82 -1.62402 1.60742 0
M  V30 26420 C 2477.03 1.62232 3.09001 0
M  V30 26421 C 2478.38 1.82184 3.83529 0
M  V30 26422 O 2479.4 1.5892 3.18783 0
M  V30 26423 O 2478.26 2.21075 4.99788 0
M  V30 26424 H 2475.36 0.301725 0.769994 0
M  V30 26425 H 2477.9 1.24936 1.14844 0
M  V30 26426 H 2476.68 2.6456 2.88312 0
M  V30 26427 H 2476.3 1.19193 3.79313 0
M  V30 26428 N 2477.3 -1.26549 0.939309 0
M  V30 26429 C 2478.54 -1.93839 0.585881 0
M  V30 26430 C 2478.87 -1.73719 -0.874753 0
M  V30 26431 O 2478.13 -1.06645 -1.6409 0
M  V30 26432 C 2478.42 -3.46595 0.872167 0
M  V30 26433 C 2478.09 -3.86852 2.31638 0
M  V30 26434 C 2476.75 -3.97553 2.71118 0
M  V30 26435 C 2479.1 -4.07061 3.25501 0
M  V30 26436 C 2476.43 -4.25859 4.03561 0
M  V30 26437 C 2478.78 -4.36854 4.57538 0
M  V30 26438 C 2477.45 -4.4577 4.96836 0
M  V30 26439 H 2476.72 -0.709308 0.214389 0
M  V30 26440 H 2479.37 -1.50396 1.18546 0
M  V30 26441 H 2477.67 -3.91339 0.190029 0
M  V30 26442 H 2479.37 -3.9682 0.577512 0
M  V30 26443 H 2475.96 -3.79068 2.00014 0
M  V30 26444 H 2480.14 -3.98222 2.96197 0
M  V30 26445 H 2475.4 -4.30973 4.33673 0
M  V30 26446 H 2479.57 -4.51437 5.30262 0
M  V30 26447 H 2477.2 -4.67457 5.9949 0
M  V30 26448 N 2478.77 -0.706118 -1.40896 0
M  V30 26449 C 2480.05 -0.169133 -1.94867 0
M  V30 26450 C 2480.43 1.32315 -1.64487 0
M  V30 26451 O 2479.78 2.07472 -0.957476 0
M  V30 26452 C 2479.99 -0.471715 -3.45797 0
M  V30 26453 C 2481.34 -0.405202 -4.22662 0
M  V30 26454 O 2482.36 -0.40723 -3.53864 0
M  V30 26455 O 2481.22 -0.374479 -5.45215 0
M  V30 26456 H 2478.31 -0.0211497 -0.82673 0
M  V30 26457 H 2480.86 -0.783002 -1.50556 0
M  V30 26458 H 2479.63 -1.50423 -3.61232 0
M  V30 26459 H 2479.25 0.172596 -3.97225 0
M  V30 26460 N 2480.25 1.50991 -0.451617 0
M  V30 26461 C 2481.5 2.01391 0.111618 0
M  V30 26462 C 2481.81 1.33961 1.42526 0
M  V30 26463 O 2483.02 1.75409 2.07229 0
M  V30 26464 C 2481.48 3.59034 0.249451 0
M  V30 26465 C 2481.08 4.3541 -1.05461 0
M  V30 26466 C 2482.83 4.17537 0.765688 0
M  V30 26467 C 2480.73 5.84792 -0.881632 0
M  V30 26468 H 2479.66 0.752627 0.045489 0
M  V30 26469 H 2482.32 1.73974 -0.583554 0
M  V30 26470 H 2480.7 3.82957 1.00796 0
M  V30 26471 H 2481.87 4.23225 -1.82255 0
M  V30 26472 H 2480.19 3.88427 -1.50046 0
M  V30 26473 H 2482.78 5.26868 0.91182 0
M  V30 26474 H 2483.13 3.77641 1.75194 0
M  V30 26475 H 2483.66 3.97747 0.0651044 0
M  V30 26476 H 2480.4 6.29126 -1.84068 0
M  V30 26477 H 2479.92 5.99603 -0.153731 0
M  V30 26478 H 2481.6 6.44739 -0.540476 0
M  V30 26479 N 2481.73 0.183486 1.56528 0
M  V30 26480 C 2482.96 -0.463577 2.01332 0
M  V30 26481 C 2483.37 -1.56528 1.06281 0
M  V30 26482 O 2482.71 -1.83609 0.0578299 0
M  V30 26483 C 2482.77 -1.0909 3.42549 0
M  V30 26484 C 2482.44 -0.129362 4.56817 0
M  V30 26485 C 2483.43 0.656898 5.15733 0
M  V30 26486 C 2481.12 -0.0216517 5.02295 0
M  V30 26487 C 2483.11 1.53795 6.18568 0
M  V30 26488 C 2480.8 0.86297 6.04976 0
M  V30 26489 C 2481.8 1.64135 6.62985 0
M  V30 26490 O 2481.49 2.51116 7.63673 0
M  V30 26491 H 2481.22 -0.121895 0.664919 0
M  V30 26492 H 2483.77 0.28599 2.03399 0
M  V30 26493 H 2482 -1.88883 3.37432 0
M  V30 26494 H 2483.69 -1.64141 3.71231 0
M  V30 26495 H 2484.46 0.583924 4.81472 0
M  V30 26496 H 2480.34 -0.617312 4.56848 0
M  V30 26497 H 2483.88 2.14595 6.63773 0
M  V30 26498 H 2479.78 0.937102 6.38662 0
M  V30 26499 H 2480.54 2.44767 7.81045 0
M  V30 26500 N 2483.21 -1.57342 -0.0901833 0
M  V30 26501 C 2484.48 -1.77363 -0.82473 0
M  V30 26502 C 2484.86 -0.766404 -1.96696 0
M  V30 26503 O 2484.21 0.204139 -2.27586 0
M  V30 26504 C 2484.42 -3.23288 -1.31476 0
M  V30 26505 C 2485.77 -3.86607 -1.75556 0
M  V30 26506 O 2486.79 -3.27067 -1.41087 0
M  V30 26507 O 2485.65 -4.91318 -2.39309 0
M  V30 26508 H 2482.75 -0.727241 -0.393764 0
M  V30 26509 H 2485.29 -1.69549 -0.071684 0
M  V30 26510 H 2484.07 -3.88136 -0.496603 0
M  V30 26511 H 2483.69 -3.35754 -2.12967 0
M  V30 26512 N 2484.69 0.36113 -1.53407 0
M  V30 26513 C 2485.6 1.46637 -1.83125 0
M  V30 26514 C 2486.61 1.58406 -0.719971 0
M  V30 26515 O 2487.79 1.74216 -1.01049 0
M  V30 26516 C 2484.85 2.81849 -2.01896 0
M  V30 26517 C 2483.91 2.79571 -3.25789 0
M  V30 26518 C 2483.15 4.08334 -3.43655 0
M  V30 26519 O 2483.37 5.04725 -2.65723 0
M  V30 26520 O 2482.3 4.13875 -4.37025 0
M  V30 26521 H 2486.13 1.24446 -2.77032 0
M  V30 26522 H 2483.72 0.551654 -1.38842 0
M  V30 26523 H 2485.6 3.61958 -2.15788 0
M  V30 26524 H 2484.27 3.04008 -1.11178 0
M  V30 26525 H 2483.18 1.98145 -3.17316 0
M  V30 26526 H 2484.51 2.62366 -4.16443 0
M  V30 26527 N 2486.16 1.44842 0.621179 0
M  V30 26528 C 2487.44 1.38622 1.37998 0
M  V30 26529 C 2487.82 0.0499306 2.11041 0
M  V30 26530 O 2487.17 -0.96778 2.06993 0
M  V30 26531 C 2487.38 2.591 2.33813 0
M  V30 26532 C 2488.73 3.03598 2.96839 0
M  V30 26533 O 2489.75 2.59376 2.44137 0
M  V30 26534 O 2488.61 3.80302 3.92469 0
M  V30 26535 H 2485.7 0.549437 0.618101 0
M  V30 26536 H 2488.25 1.56948 0.645402 0
M  V30 26537 H 2487.02 3.47955 1.79006 0
M  V30 26538 H 2486.65 2.43038 3.14672 0
M  V30 26539 N 2487.64 -0.862479 1.31905 0
M  V30 26540 C 2488.55 -2.00282 1.22164 0
M  V30 26541 C 2489.57 -1.73461 0.136816 0
M  V30 26542 O 2490.74 -1.98228 0.356029 0
M  V30 26543 C 2487.81 -3.33794 0.937152 0
M  V30 26544 C 2486.87 -3.73889 2.10963 0
M  V30 26545 C 2486.1 -5.01029 1.83862 0
M  V30 26546 O 2486.33 -5.65078 0.777373 0
M  V30 26547 O 2485.26 -5.38069 2.6975 0
M  V30 26548 H 2489.09 -2.11435 2.18011 0
M  V30 26549 H 2486.67 -0.991937 1.11718 0
M  V30 26550 H 2488.55 -4.1384 0.794656 0
M  V30 26551 H 2487.23 -3.23699 0.00877584 0
M  V30 26552 H 2486.14 -2.94452 2.30757 0
M  V30 26553 H 2487.47 -3.88619 3.02053 0
M  V30 26554 N 2489.12 -1.14988 -1.07775 0
M  V30 26555 C 2490.07 -0.838444 -2.16963 0
M  V30 26556 C 2491.06 0.186356 -1.68372 0
M  V30 26557 O 2492.27 0.0418149 -1.79951 0
M  V30 26558 H 2488.64 -0.253451 -0.708002 0
M  V30 26559 H 2490.61 -1.76708 -2.40451 0
M  V30 26560 C 2489.36 -0.339396 -3.4604 0
M  V30 26561 H 2488.69 -1.11934 -3.83811 0
M  V30 26562 H 2490.13 -0.160096 -4.23698 0
M  V30 26563 C 2488.59 0.938268 -3.23571 0
M  V30 26564 O 2489.12 2.0107 -3.47755 0
M  V30 26565 N 2487.32 0.876068 -2.7708 0
M  V30 26566 H 2486.87 0.00317509 -2.576 0
M  V30 26567 H 2486.83 1.73148 -2.62426 0
M  V30 26568 N 2490.6 1.26049 -0.946007 0
M  V30 26569 C 2491.53 2.2538 -0.416702 0
M  V30 26570 C 2492.54 1.56087 0.462684 0
M  V30 26571 O 2493.73 1.7641 0.272352 0
M  V30 26572 C 2490.83 3.3629 0.419753 0
M  V30 26573 C 2490.01 4.35134 -0.444608 0
M  V30 26574 C 2489.06 5.2515 0.332212 0
M  V30 26575 O 2488.09 5.68576 -0.266423 0
M  V30 26576 N 2489.29 5.57218 1.62753 0
M  V30 26577 H 2492.06 2.71431 -1.27064 0
M  V30 26578 H 2489.62 1.39866 -0.815417 0
M  V30 26579 H 2491.61 3.93465 0.946944 0
M  V30 26580 H 2490.18 2.89696 1.17451 0
M  V30 26581 H 2489.4 3.76962 -1.15297 0
M  V30 26582 H 2490.69 4.98164 -1.03487 0
M  V30 26583 H 2490.09 5.23826 2.13594 0
M  V30 26584 H 2488.64 6.17015 2.10086 0
M  V30 26585 N 2492.08 0.71358 1.4052 0
M  V30 26586 C 2493.3 0.260386 2.05759 0
M  V30 26587 C 2493.73 -1.08851 1.53405 0
M  V30 26588 O 2493.08 -1.68523 0.668565 0
M  V30 26589 C 2493.13 0.248185 3.59745 0
M  V30 26590 O 2492.24 -0.771239 4.05124 0
M  V30 26591 H 2491.58 0.122715 0.652562 0
M  V30 26592 H 2494.11 0.973499 1.79956 0
M  V30 26593 H 2494.12 0.0851846 4.07911 0
M  V30 26594 H 2492.79 1.23256 3.97216 0
M  V30 26595 H 2491.37 -0.576125 3.68423 0
M  V30 26596 N 2493.55 -1.50749 0.459618 0
M  V30 26597 C 2494.97 -1.867 0.00174828 0
M  V30 26598 C 2495.32 -1.37527 -1.39931 0
M  V30 26599 O 2494.44 -0.735385 -2.03522 0
M  V30 26600 C 2495.04 -3.388 -0.00360343 0
M  V30 26601 C 2493.6 -3.74204 -0.40596 0
M  V30 26602 C 2492.74 -2.74589 0.386778 0
M  V30 26603 H 2495.69 -1.43656 0.674438 0
M  V30 26604 H 2495.71 -3.71815 -0.808306 0
M  V30 26605 H 2495.23 -3.74559 1.01623 0
M  V30 26606 H 2493.33 -3.44043 -1.43057 0
M  V30 26607 H 2493.44 -4.78961 -0.115278 0
M  V30 26608 H 2491.8 -2.5421 -0.157974 0
M  V30 26609 H 2492.59 -3.13192 1.40591 0
M  V30 26610 N 2495.03 -0.191784 -1.56429 0
M  V30 26611 C 2496.45 0.164109 -1.58754 0
M  V30 26612 C 2496.65 1.61286 -1.20785 0
M  V30 26613 O 2495.7 2.34787 -0.92904 0
M  V30 26614 C 2497.02 -0.135248 -3.00396 0
M  V30 26615 C 2498.57 -0.0750901 -3.1291 0
M  V30 26616 C 2499.04 -0.347712 -4.56678 0
M  V30 26617 N 2500.53 -0.296212 -4.62252 0
M  V30 26618 C 2501.27 -0.481048 -5.71379 0
M  V30 26619 N 2500.76 -0.726054 -6.88985 0
M  V30 26620 N 2502.56 -0.415534 -5.60562 0
M  V30 26621 H 2494.71 -1.13721 -1.79391 0
M  V30 26622 H 2496.97 -0.453657 -0.832406 0
M  V30 26623 H 2496.68 -1.13964 -3.32724 0
M  V30 26624 H 2496.55 0.563708 -3.72964 0
M  V30 26625 H 2498.94 0.919899 -2.80396 0
M  V30 26626 H 2499.02 -0.807071 -2.42734 0
M  V30 26627 H 2498.66 -1.34 -4.89904 0
M  V30 26628 H 2498.59 0.40512 -5.25039 0
M  V30 26629 H 2501.08 -0.113326 -3.7773 0
M  V30 26630 H 2501.4 -0.855992 -7.68045 0
M  V30 26631 H 2499.74 -0.762909 -6.908 0
M  V30 26632 H 2502.93 -0.224568 -4.67561 0
M  V30 26633 H 2503.1 -0.563002 -6.4555 0
M  V30 26634 N 2496.51 1.57387 0.0818378 0
M  V30 26635 C 2497.74 1.91354 0.799912 0
M  V30 26636 C 2498.16 0.787288 1.70831 0
M  V30 26637 O 2497.52 -0.260448 1.7942 0
M  V30 26638 C 2497.57 3.24237 1.57806 0
M  V30 26639 O 2496.67 3.12762 2.68801 0
M  V30 26640 H 2496.01 0.626881 0.218899 0
M  V30 26641 H 2498.54 2.04531 0.0530896 0
M  V30 26642 H 2498.55 3.57868 1.95946 0
M  V30 26643 H 2497.23 4.05789 0.911476 0
M  V30 26644 H 2495.8 2.9067 2.33592 0
M  V30 26645 N 2497.99 -0.35299 1.53596 0
M  V30 26646 C 2499.24 -1.09428 1.70387 0
M  V30 26647 C 2499.56 -1.8893 0.462146 0
M  V30 26648 O 2498.82 -1.87634 -0.556041 0
M  V30 26649 C 2499.12 -2.07049 2.91317 0
M  V30 26650 C 2498.78 -1.43931 4.27311 0
M  V30 26651 C 2497.45 -1.26446 4.6429 0
M  V30 26652 C 2499.8 -0.983793 5.11831 0
M  V30 26653 C 2497.13 -0.620123 5.83414 0
M  V30 26654 C 2499.48 -0.353405 6.31612 0
M  V30 26655 C 2498.14 -0.166154 6.67293 0
M  V30 26656 H 2497.41 -0.400425 0.623491 0
M  V30 26657 H 2500.06 -0.374622 1.878 0
M  V30 26658 H 2498.36 -2.85363 2.68468 0
M  V30 26659 H 2500.06 -2.64381 3.01502 0
M  V30 26660 H 2496.65 -1.58536 3.98201 0
M  V30 26661 H 2500.83 -1.10677 4.83802 0
M  V30 26662 H 2496.09 -0.463574 6.0964 0
M  V30 26663 H 2500.26 0.00769796 6.964 0
M  V30 26664 H 2497.89 0.335181 7.59461 0
M  V30 26665 N 2499.47 -1.45169 -0.613489 0
M  V30 26666 C 2500.4 -1.49393 -1.73823 0
M  V30 26667 C 2501.41 -0.385332 -1.58174 0
M  V30 26668 O 2502.6 -0.652065 -1.66164 0
M  V30 26669 C 2499.7 -1.32897 -3.11756 0
M  V30 26670 C 2498.87 -2.57324 -3.537 0
M  V30 26671 C 2497.93 -2.3547 -4.70575 0
M  V30 26672 O 2496.96 -3.09053 -4.77991 0
M  V30 26673 N 2498.16 -1.39654 -5.63451 0
M  V30 26674 H 2500.93 -2.46361 -1.70665 0
M  V30 26675 H 2498.49 -1.40833 -0.798595 0
M  V30 26676 H 2500.48 -1.16096 -3.8769 0
M  V30 26677 H 2499.05 -0.442272 -3.09456 0
M  V30 26678 H 2498.27 -2.8928 -2.67789 0
M  V30 26679 H 2499.56 -3.40045 -3.7848 0
M  V30 26680 H 2498.96 -0.78916 -5.60169 0
M  V30 26681 H 2497.51 -1.28827 -6.38942 0
M  V30 26682 N 2500.95 0.855472 -1.32361 0
M  V30 26683 C 2501.89 1.96398 -1.21229 0
M  V30 26684 C 2502.86 1.6583 -0.0946496 0
M  V30 26685 O 2504.05 1.88879 -0.270054 0
M  V30 26686 C 2501.19 3.32038 -0.940477 0
M  V30 26687 C 2500.3 3.75109 -2.14283 0
M  V30 26688 C 2499.44 4.99536 -1.80657 0
M  V30 26689 C 2498.47 5.35097 -2.97217 0
M  V30 26690 N 2497.61 6.50701 -2.63689 0
M  V30 26691 H 2502.45 2.05251 -2.16046 0
M  V30 26692 H 2499.99 1.00461 -1.07453 0
M  V30 26693 H 2501.95 4.10156 -0.763383 0
M  V30 26694 H 2500.58 3.22787 -0.029098 0
M  V30 26695 H 2499.63 2.92651 -2.43022 0
M  V30 26696 H 2500.94 3.97384 -3.01475 0
M  V30 26697 H 2500.09 5.8536 -1.59494 0
M  V30 26698 H 2498.83 4.79196 -0.906762 0
M  V30 26699 H 2497.84 4.47785 -3.19012 0
M  V30 26700 H 2499.06 5.57394 -3.87928 0
M  V30 26701 H 2497.01 6.3188 -1.76249 0
M  V30 26702 H 2496.93 6.7299 -3.44412 0
M  V30 26703 H 2498.19 7.3968 -2.45955 0
M  V30 26704 N 2502.42 1.15558 1.07164 0
M  V30 26705 C 2503.37 0.854092 2.14415 0
M  V30 26706 C 2504.34 -0.193777 1.64966 0
M  V30 26707 O 2505.53 -0.0609108 1.90703 0
M  V30 26708 C 2502.67 0.351635 3.43304 0
M  V30 26709 C 2501.78 1.4613 4.06534 0
M  V30 26710 C 2500.91 0.914769 5.23264 0
M  V30 26711 C 2499.95 2.00124 5.78461 0
M  V30 26712 N 2499.09 1.47095 6.86518 0
M  V30 26713 H 2503.93 1.77263 2.39545 0
M  V30 26714 H 2501.47 0.884446 1.17541 0
M  V30 26715 H 2503.42 0.0420143 4.17179 0
M  V30 26716 H 2502.05 -0.529981 3.1842 0
M  V30 26717 H 2501.11 1.88706 3.30294 0
M  V30 26718 H 2502.42 2.28152 4.43563 0
M  V30 26719 H 2501.57 0.557804 6.0413 0
M  V30 26720 H 2500.31 0.063744 4.87658 0
M  V30 26721 H 2499.32 2.36701 4.96239 0
M  V30 26722 H 2500.54 2.85607 6.16121 0
M  V30 26723 H 2498.49 0.642313 6.52848 0
M  V30 26724 H 2498.4 2.22742 7.22442 0
M  V30 26725 H 2499.67 1.14229 7.71085 0
M  V30 26726 N 2503.9 -1.25546 0.952678 0
M  V30 26727 C 2505.13 -1.97281 0.62353 0
M  V30 26728 C 2505.54 -1.70827 -0.803957 0
M  V30 26729 O 2504.9 -0.983174 -1.53753 0
M  V30 26730 C 2504.95 -3.50868 0.870271 0
M  V30 26731 O 2504.67 -3.76408 2.24162 0
M  V30 26732 C 2506.17 -4.39834 0.553242 0
M  V30 26733 H 2503.39 -0.628898 0.233942 0
M  V30 26734 H 2505.94 -1.59766 1.27652 0
M  V30 26735 H 2504.09 -3.86501 0.26372 0
M  V30 26736 H 2504.51 -4.70878 2.31029 0
M  V30 26737 H 2505.98 -5.46512 0.776438 0
M  V30 26738 H 2506.46 -4.36204 -0.512138 0
M  V30 26739 H 2507.06 -4.09764 1.13903 0
M  V30 26740 N 2505.38 -0.721022 -1.40139 0
M  V30 26741 C 2506.8 -0.39514 -1.54631 0
M  V30 26742 C 2507 1.09552 -1.69117 0
M  V30 26743 O 2506.05 1.8816 -1.68381 0
M  V30 26744 C 2507.36 -1.16595 -2.77175 0
M  V30 26745 C 2508.91 -1.15279 -2.90998 0
M  V30 26746 C 2509.39 -1.90587 -4.16462 0
M  V30 26747 N 2510.88 -1.87683 -4.23473 0
M  V30 26748 C 2511.61 -2.42771 -5.1947 0
M  V30 26749 N 2511.11 -3.06439 -6.21343 0
M  V30 26750 N 2512.9 -2.32883 -5.11588 0
M  V30 26751 H 2505.05 -1.68752 -1.28983 0
M  V30 26752 H 2507.32 -0.713578 -0.624108 0
M  V30 26753 H 2507.02 -2.22016 -2.72767 0
M  V30 26754 H 2506.9 -0.761145 -3.69441 0
M  V30 26755 H 2509.28 -0.106754 -2.94907 0
M  V30 26756 H 2509.36 -1.59686 -1.99835 0
M  V30 26757 H 2509.01 -2.95184 -4.13315 0
M  V30 26758 H 2508.94 -1.43596 -5.06644 0
M  V30 26759 H 2511.43 -1.41287 -3.50494 0
M  V30 26760 H 2511.74 -3.45977 -6.91028 0
M  V30 26761 H 2510.09 -3.10525 -6.21771 0
M  V30 26762 H 2513.28 -1.82797 -4.30933 0
M  V30 26763 H 2513.45 -2.76116 -5.86228 0
M  V30 26764 N 2506.86 1.50503 -0.467606 0
M  V30 26765 C 2507.81 2.25345 0.34694 0
M  V30 26766 C 2508.79 1.28791 0.964446 0
M  V30 26767 O 2509.98 1.53713 0.877573 0
M  V30 26768 C 2507.11 3.12082 1.43037 0
M  V30 26769 C 2506.2 4.16082 0.820767 0
M  V30 26770 N 2506.59 5.05768 -0.0568491 0
M  V30 26771 C 2504.89 4.32599 1.08509 0
M  V30 26772 C 2505.59 5.80306 -0.402445 0
M  V30 26773 N 2504.56 5.43148 0.221512 0
M  V30 26774 H 2508.37 2.92051 -0.32918 0
M  V30 26775 H 2505.88 1.59941 -0.281536 0
M  V30 26776 H 2507.88 3.64302 2.02706 0
M  V30 26777 H 2506.54 2.46924 2.10852 0
M  V30 26778 H 2507.55 5.1615 -0.425439 0
M  V30 26779 H 2504.23 3.7866 1.75848 0
M  V30 26780 H 2505.62 6.62526 -1.11845 0
M  V30 26781 N 2508.34 0.200077 1.56325 0
M  V30 26782 C 2509.57 -0.442197 2.01812 0
M  V30 26783 C 2509.97 -1.55392 1.07935 0
M  V30 26784 O 2509.32 -1.83537 0.0773008 0
M  V30 26785 C 2509.38 -1.05451 3.43686 0
M  V30 26786 C 2509.04 -0.080903 4.56928 0
M  V30 26787 C 2510.04 0.711562 5.15008 0
M  V30 26788 C 2507.72 0.0316246 5.0229 0
M  V30 26789 C 2509.72 1.60347 6.16902 0
M  V30 26790 C 2507.41 0.927087 6.04027 0
M  V30 26791 C 2508.4 1.71157 6.61207 0
M  V30 26792 O 2508.09 2.59202 7.60966 0
M  V30 26793 H 2507.82 -0.114836 0.666175 0
M  V30 26794 H 2510.38 0.307547 2.03084 0
M  V30 26795 H 2508.61 -1.85293 3.39416 0
M  V30 26796 H 2510.3 -1.60195 3.72951 0
M  V30 26797 H 2511.06 0.634958 4.80826 0
M  V30 26798 H 2506.94 -0.568822 4.57477 0
M  V30 26799 H 2510.49 2.21623 6.6146 0
M  V30 26800 H 2506.38 1.00479 6.37632 0
M  V30 26801 H 2507.15 2.53037 7.78405 0
M  V30 26802 N 2509.81 -1.57429 -0.0734901 0
M  V30 26803 C 2511.06 -1.87167 -0.772966 0
M  V30 26804 C 2511.39 -0.791582 -1.77663 0
M  V30 26805 O 2510.64 0.212602 -1.94542 0
M  V30 26806 C 2510.94 -3.23564 -1.51793 0
M  V30 26807 C 2510.61 -4.46126 -0.654406 0
M  V30 26808 C 2509.27 -4.79395 -0.416427 0
M  V30 26809 C 2511.62 -5.2117 -0.0554946 0
M  V30 26810 C 2508.95 -5.85122 0.429972 0
M  V30 26811 C 2511.3 -6.27793 0.778349 0
M  V30 26812 C 2509.97 -6.59564 1.02622 0
M  V30 26813 H 2509.24 -0.684893 -0.282848 0
M  V30 26814 H 2511.88 -1.9147 -0.0337935 0
M  V30 26815 H 2510.19 -3.15044 -2.32926 0
M  V30 26816 H 2511.89 -3.43808 -2.06391 0
M  V30 26817 H 2508.48 -4.20087 -0.850017 0
M  V30 26818 H 2512.66 -4.95783 -0.226471 0
M  V30 26819 H 2507.92 -6.08138 0.630772 0
M  V30 26820 H 2512.09 -6.85105 1.24918 0
M  V30 26821 H 2509.72 -7.41317 1.68384 0
M  V30 26822 N 2511.29 0.344839 -1.53781 0
M  V30 26823 C 2512.54 1.08264 -1.70181 0
M  V30 26824 C 2512.85 1.89844 -0.471033 0
M  V30 26825 O 2514.06 2.66552 -0.515964 0
M  V30 26826 C 2512.52 1.97412 -3.00926 0
M  V30 26827 C 2512.12 1.21046 -4.31337 0
M  V30 26828 C 2513.87 2.71058 -3.26693 0
M  V30 26829 C 2511.77 2.09216 -5.53157 0
M  V30 26830 H 2510.7 0.407892 -0.634145 0
M  V30 26831 H 2513.36 0.342215 -1.80281 0
M  V30 26832 H 2511.74 2.75269 -2.84681 0
M  V30 26833 H 2512.91 0.481079 -4.58282 0
M  V30 26834 H 2511.23 0.59174 -4.12174 0
M  V30 26835 H 2513.82 3.37292 -4.14895 0
M  V30 26836 H 2514.17 3.37554 -2.43645 0
M  V30 26837 H 2514.7 2.00274 -3.43708 0
M  V30 26838 H 2511.44 1.47263 -6.38744 0
M  V30 26839 H 2510.96 2.79946 -5.30463 0
M  V30 26840 H 2512.64 2.68298 -5.88749 0
M  V30 26841 N 2512.77 1.45492 0.605781 0
M  V30 26842 C 2513.73 1.53913 1.69834 0
M  V30 26843 C 2514.73 0.418451 1.5526 0
M  V30 26844 O 2515.92 0.681993 1.60295 0
M  V30 26845 C 2513.05 1.4374 3.09114 0
M  V30 26846 H 2514.25 2.5126 1.63734 0
M  V30 26847 H 2511.8 1.3296 0.821665 0
M  V30 26848 H 2512.54 0.475844 3.2079 0
M  V30 26849 H 2512.32 2.25027 3.211 0
M  V30 26850 H 2513.81 1.52668 3.88693 0
M  V30 26851 N 2514.25 -0.848441 1.32813 0
M  V30 26852 C 2515.21 -1.93908 1.22198 0
M  V30 26853 C 2516.21 -1.60159 0.143432 0
M  V30 26854 O 2517.4 -1.69679 0.394283 0
M  V30 26855 C 2514.53 -3.29327 0.880728 0
M  V30 26856 H 2515.73 -2.04748 2.19131 0
M  V30 26857 H 2513.28 -1.03938 1.16733 0
M  V30 26858 H 2514.01 -3.24185 -0.0865206 0
M  V30 26859 H 2513.8 -3.552 1.66059 0
M  V30 26860 H 2515.29 -4.09249 0.830943 0
M  V30 26861 N 2515.73 -1.16125 -1.06549 0
M  V30 26862 C 2516.97 -0.942552 -1.79566 0
M  V30 26863 C 2517.31 0.528514 -1.8687 0
M  V30 26864 O 2516.58 1.39204 -1.3584 0
M  V30 26865 C 2516.86 -1.56752 -3.24192 0
M  V30 26866 C 2516.72 -3.10975 -3.24984 0
M  V30 26867 C 2518.04 -1.26005 -4.21676 0
M  V30 26868 H 2515.15 -0.343839 -0.651877 0
M  V30 26869 H 2517.8 -1.43415 -1.24628 0
M  V30 26870 H 2515.95 -1.14948 -3.71105 0
M  V30 26871 H 2517.62 -3.61742 -2.86252 0
M  V30 26872 H 2515.86 -3.44441 -2.6371 0
M  V30 26873 H 2516.53 -3.49823 -4.26999 0
M  V30 26874 H 2519.01 -1.6218 -3.83193 0
M  V30 26875 H 2517.88 -1.72339 -5.21143 0
M  V30 26876 H 2518.15 -0.178445 -4.4174 0
M  V30 26877 N 2517.2 1.25039 -0.959323 0
M  V30 26878 C 2518.11 2.29425 -0.490034 0
M  V30 26879 C 2519.13 1.68216 0.444915 0
M  V30 26880 O 2520.31 1.98841 0.320011 0
M  V30 26881 C 2517.37 3.46 0.220248 0
M  V30 26882 C 2516.43 4.22636 -0.753492 0
M  V30 26883 C 2515.67 5.33644 -0.0770118 0
M  V30 26884 O 2515.89 5.58965 1.13639 0
M  V30 26885 O 2514.82 5.9702 -0.764929 0
M  V30 26886 H 2518.65 2.71667 -1.3576 0
M  V30 26887 H 2516.23 1.30575 -0.725984 0
M  V30 26888 H 2518.12 4.1682 0.619604 0
M  V30 26889 H 2516.79 3.05751 1.06291 0
M  V30 26890 H 2515.7 3.54225 -1.20315 0
M  V30 26891 H 2517.03 4.6668 -1.56431 0
M  V30 26892 N 2518.68 0.728444 1.39755 0
M  V30 26893 C 2520.1 0.403335 1.54419 0
M  V30 26894 C 2520.3 -1.08653 1.69696 0
M  V30 26895 O 2519.35 -1.87264 1.69376 0
M  V30 26896 C 2520.67 1.18063 2.76553 0
M  V30 26897 C 2522.22 1.16821 2.90382 0
M  V30 26898 C 2522.69 1.92793 4.15446 0
M  V30 26899 N 2524.18 1.89926 4.22472 0
M  V30 26900 C 2524.92 2.45523 5.18176 0
M  V30 26901 N 2524.41 3.0973 6.19709 0
M  V30 26902 N 2526.21 2.35593 5.10345 0
M  V30 26903 H 2518.36 1.69433 1.28086 0
M  V30 26904 H 2520.62 0.716878 0.620314 0
M  V30 26905 H 2520.33 2.23459 2.71586 0
M  V30 26906 H 2520.2 0.780727 3.69032 0
M  V30 26907 H 2522.59 0.122392 2.94846 0
M  V30 26908 H 2522.67 1.60743 1.98986 0
M  V30 26909 H 2522.31 2.97371 4.11744 0
M  V30 26910 H 2522.24 1.46281 5.05875 0
M  V30 26911 H 2524.73 1.43144 3.4974 0
M  V30 26912 H 2525.05 3.49637 6.89184 0
M  V30 26913 H 2523.39 3.13818 6.20116 0
M  V30 26914 H 2526.58 1.8508 4.29957 0
M  V30 26915 H 2526.75 2.79221 5.84756 0
M  V30 26916 N 2520.16 -1.50253 0.475581 0
M  V30 26917 C 2521.09 -2.31485 -0.306069 0
M  V30 26918 C 2522.07 -1.38593 -0.986204 0
M  V30 26919 O 2523.26 -1.67512 -0.982511 0
M  V30 26920 C 2520.39 -3.18453 -1.38583 0
M  V30 26921 C 2519.34 -4.19933 -0.827041 0
M  V30 26922 C 2518.67 -4.95668 -2.00542 0
M  V30 26923 C 2519.97 -5.2204 0.164722 0
M  V30 26924 H 2521.66 -2.97081 0.371918 0
M  V30 26925 H 2519.21 -1.42867 0.180307 0
M  V30 26926 H 2521.16 -3.74079 -1.94017 0
M  V30 26927 H 2519.88 -2.50751 -2.09265 0
M  V30 26928 H 2518.54 -3.65414 -0.294637 0
M  V30 26929 H 2518.19 -4.24435 -2.69933 0
M  V30 26930 H 2517.89 -5.64315 -1.63774 0
M  V30 26931 H 2519.41 -5.54131 -2.56459 0
M  V30 26932 H 2520.83 -5.72511 -0.300598 0
M  V30 26933 H 2519.23 -5.98433 0.446918 0
M  V30 26934 H 2520.3 -4.7251 1.08913 0
M  V30 26935 N 2521.64 -0.208365 -1.56217 0
M  V30 26936 C 2522.88 0.420825 -1.98999 0
M  V30 26937 C 2523.24 1.58316 -1.09334 0
M  V30 26938 O 2522.53 1.91084 -0.1405 0
M  V30 26939 C 2522.73 0.916736 -3.45443 0
M  V30 26940 C 2522.56 -0.196004 -4.49273 0
M  V30 26941 C 2521.33 -0.658044 -5.00997 0
M  V30 26942 C 2523.52 -1.00965 -5.04292 0
M  V30 26943 N 2521.51 -1.74722 -5.88511 0
M  V30 26944 C 2522.88 -1.94795 -5.88604 0
M  V30 26945 C 2524.93 -1.05058 -4.8669 0
M  V30 26946 C 2523.63 -2.92382 -6.57195 0
M  V30 26947 C 2525.66 -2.01455 -5.5603 0
M  V30 26948 C 2525.02 -2.94027 -6.40099 0
M  V30 26949 H 2521.12 0.121035 -0.772577 0
M  V30 26950 H 2523.71 -0.317109 -1.921 0
M  V30 26951 H 2521.88 1.62407 -3.52815 0
M  V30 26952 H 2523.61 1.51764 -3.75166 0
M  V30 26953 H 2520.36 -0.248995 -4.72945 0
M  V30 26954 H 2520.79 -2.29341 -6.36971 0
M  V30 26955 H 2525.43 -0.348833 -4.21359 0
M  V30 26956 H 2523.15 -3.63525 -7.21717 0
M  V30 26957 H 2526.73 -2.05279 -5.44382 0
M  V30 26958 H 2525.61 -3.67403 -6.92809 0
M  V30 26959 N 2523.12 1.57465 0.0651402 0
M  V30 26960 C 2524.39 1.78652 0.796408 0
M  V30 26961 C 2524.77 0.7976 1.95452 0
M  V30 26962 O 2524.12 -0.167906 2.27882 0
M  V30 26963 C 2524.33 3.25339 1.26316 0
M  V30 26964 C 2525.68 3.89351 1.69384 0
M  V30 26965 O 2526.7 3.2927 1.35866 0
M  V30 26966 O 2525.56 4.95063 2.31462 0
M  V30 26967 H 2522.66 0.733413 0.382144 0
M  V30 26968 H 2525.2 1.69641 0.0447013 0
M  V30 26969 H 2523.97 3.88877 0.434791 0
M  V30 26970 H 2523.6 3.391 2.07598 0
M  V30 26971 N 2524.59 -0.336679 1.53962 0
M  V30 26972 C 2525.82 -1.09443 1.75231 0
M  V30 26973 C 2526.23 -1.8262 0.494634 0
M  V30 26974 O 2525.58 -1.75469 -0.543734 0
M  V30 26975 C 2525.64 -2.14775 2.88292 0
M  V30 26976 C 2525.3 -1.61113 4.27658 0
M  V30 26977 C 2526.3 -1.05981 5.08983 0
M  V30 26978 C 2523.98 -1.65752 4.74164 0
M  V30 26979 C 2525.98 -0.562017 6.34917 0
M  V30 26980 C 2523.66 -1.15585 6.0007 0
M  V30 26981 C 2524.66 -0.609028 6.80279 0
M  V30 26982 O 2524.35 -0.114858 8.03818 0
M  V30 26983 H 2524.08 -0.331946 0.588887 0
M  V30 26984 H 2526.64 -0.39253 2.01614 0
M  V30 26985 H 2524.87 -2.88543 2.57448 0
M  V30 26986 H 2526.56 -2.76168 2.97466 0
M  V30 26987 H 2527.32 -1.01714 4.74214 0
M  V30 26988 H 2523.2 -2.07253 4.11785 0
M  V30 26989 H 2526.74 -0.134545 6.9747 0
M  V30 26990 H 2522.64 -1.19555 6.34332 0
M  V30 26991 H 2523.41 -0.231507 8.18173 0
M  V30 26992 N 2526.07 -1.45812 -0.598057 0
M  V30 26993 C 2527.32 -1.50028 -1.3541 0
M  V30 26994 C 2527.64 -0.147211 -1.94444 0
M  V30 26995 O 2526.91 0.82454 -1.77702 0
M  V30 26996 H 2525.49 -0.552526 -0.502717 0
M  V30 26997 H 2528.15 -1.81835 -0.701574 0
M  V30 26998 H 2527.25 -2.24444 -2.16867 0
M  V30 26999 N 2527.55 0.841385 -1.33261 0
M  V30 27000 C 2528.48 1.95539 -1.17643 0
M  V30 27001 C 2529.46 1.62438 -0.0725295 0
M  V30 27002 O 2530.65 1.87038 -0.234303 0
M  V30 27003 C 2527.77 3.29023 -0.803852 0
M  V30 27004 C 2526.82 3.81096 -1.91489 0
M  V30 27005 S 2527.65 4.03079 -3.52545 0
M  V30 27006 C 2528.81 5.39517 -3.17288 0
M  V30 27007 H 2529.04 2.08487 -2.11944 0
M  V30 27008 H 2526.57 0.994879 -1.18074 0
M  V30 27009 H 2528.53 4.06155 -0.595663 0
M  V30 27010 H 2527.19 3.13869 0.120519 0
M  V30 27011 H 2526.39 4.77677 -1.60751 0
M  V30 27012 H 2525.99 3.10851 -2.07961 0
M  V30 27013 H 2528.28 6.22258 -2.67957 0
M  V30 27014 H 2529.22 5.75227 -4.1294 0
M  V30 27015 H 2529.63 5.04151 -2.53952 0
M  V30 27016 N 2529.03 1.16688 1.05932 0
M  V30 27017 C 2530.25 0.975487 1.83027 0
M  V30 27018 C 2530.68 -0.47142 1.82097 0
M  V30 27019 O 2530.04 -1.33704 1.22446 0
M  V30 27020 C 2530.09 1.51201 3.27369 0
M  V30 27021 O 2529.19 0.720772 4.06053 0
M  V30 27022 H 2528.53 0.346882 0.566188 0
M  V30 27023 H 2531.06 1.55011 1.33539 0
M  V30 27024 H 2531.07 1.53106 3.78183 0
M  V30 27025 H 2529.75 2.56529 3.27362 0
M  V30 27026 H 2528.32 0.772522 3.6481 0
M  V30 27027 N 2530.51 -1.24529 0.96594 0
M  V30 27028 C 2531.73 -1.97148 0.644006 0
M  V30 27029 C 2532.16 -1.7119 -0.779457 0
M  V30 27030 O 2531.52 -0.97458 -1.52878 0
M  V30 27031 C 2531.56 -3.48597 0.922618 0
M  V30 27032 O 2530.67 -4.12399 0.00714921 0
M  V30 27033 H 2530.01 -0.617678 0.243658 0
M  V30 27034 H 2532.54 -1.58351 1.29561 0
M  V30 27035 H 2532.55 -3.98974 0.853443 0
M  V30 27036 H 2531.22 -3.66819 1.96002 0
M  V30 27037 H 2529.8 -3.72675 0.129495 0
M  V30 27038 N 2531.99 -0.735845 -1.39367 0
M  V30 27039 C 2533.21 -0.293088 -2.05319 0
M  V30 27040 C 2533.64 1.06397 -1.55117 0
M  V30 27041 O 2532.99 1.67438 -0.695291 0
M  V30 27042 C 2533.04 -0.305386 -3.59305 0
M  V30 27043 O 2532.15 0.706689 -4.063 0
M  V30 27044 H 2531.49 -0.133081 -0.650527 0
M  V30 27045 H 2534.02 -1.00201 -1.78384 0
M  V30 27046 H 2534.03 -0.150069 -4.07724 0
M  V30 27047 H 2532.7 -1.2956 -3.95205 0
M  V30 27048 H 2531.28 0.517439 -3.69293 0
M  V30 27049 N 2533.46 1.49999 -0.483543 0
M  V30 27050 C 2534.87 1.86674 -0.0314504 0
M  V30 27051 C 2535.23 1.39736 1.37726 0
M  V30 27052 O 2534.35 0.767671 2.02326 0
M  V30 27053 C 2534.95 3.38763 -0.0502971 0
M  V30 27054 C 2533.5 3.74803 0.346376 0
M  V30 27055 C 2532.65 2.73939 -0.430414 0
M  V30 27056 H 2535.6 1.42565 -0.697207 0
M  V30 27057 H 2535.62 3.73054 0.749051 0
M  V30 27058 H 2535.14 3.72895 -1.07569 0
M  V30 27059 H 2533.24 3.46275 1.37566 0
M  V30 27060 H 2533.35 4.79084 0.0390643 0
M  V30 27061 H 2531.71 2.54429 0.117512 0
M  V30 27062 H 2532.5 3.10915 -1.45556 0
M  V30 27063 N 2534.94 0.216646 1.56104 0
M  V30 27064 C 2535.89 -0.70876 2.16704 0
M  V30 27065 C 2536.88 -1.16104 1.11394 0
M  V30 27066 O 2538.07 -1.11585 1.37397 0
M  V30 27067 C 2535.2 -1.91881 2.84669 0
M  V30 27068 C 2534.28 -1.48644 3.97197 0
M  V30 27069 N 2534.67 -0.766346 4.99961 0
M  V30 27070 C 2532.97 -1.77411 4.09196 0
M  V30 27071 C 2533.67 -0.546557 5.79127 0
M  V30 27072 N 2532.65 -1.10179 5.32317 0
M  V30 27073 H 2536.45 -0.15011 2.93516 0
M  V30 27074 H 2533.96 0.0177054 1.6239 0
M  V30 27075 H 2535.96 -2.59248 3.26491 0
M  V30 27076 H 2534.62 -2.48198 2.09351 0
M  V30 27077 H 2535.63 -0.419543 5.16198 0
M  V30 27078 H 2532.31 -2.35082 3.45025 0
M  V30 27079 H 2533.7 0.0262211 6.71895 0
M  V30 27080 N 2536.42 -1.57498 -0.0567885 0
M  V30 27081 C 2537.67 -1.88255 -0.754187 0
M  V30 27082 C 2538 -0.810896 -1.7646 0
M  V30 27083 O 2537.27 0.177225 -1.93691 0
M  V30 27084 C 2537.56 -3.29672 -1.44873 0
M  V30 27085 C 2537.41 -4.47506 -0.45371 0
M  V30 27086 C 2538.73 -3.69558 -2.38987 0
M  V30 27087 H 2535.85 -0.684688 -0.272712 0
M  V30 27088 H 2538.49 -1.89992 -0.0171779 0
M  V30 27089 H 2536.64 -3.28322 -2.07694 0
M  V30 27090 H 2538.31 -4.60985 0.170452 0
M  V30 27091 H 2536.55 -4.33192 0.229628 0
M  V30 27092 H 2537.23 -5.43274 -0.977603 0
M  V30 27093 H 2539.7 -3.72098 -1.86232 0
M  V30 27094 H 2538.58 -4.69368 -2.84579 0
M  V30 27095 H 2538.84 -3.00301 -3.24456 0
M  V30 27096 N 2537.9 0.328509 -1.54138 0
M  V30 27097 C 2538.83 1.40936 -1.8617 0
M  V30 27098 C 2539.81 1.542 -0.718071 0
M  V30 27099 O 2540.99 1.68161 -0.971358 0
M  V30 27100 C 2538.12 2.77775 -2.08466 0
M  V30 27101 C 2537.08 2.79304 -3.24304 0
M  V30 27102 C 2536.4 4.19172 -3.31962 0
M  V30 27103 C 2537.7 2.43494 -4.62069 0
M  V30 27104 H 2539.4 1.14378 -2.76691 0
M  V30 27105 H 2536.94 0.548783 -1.33133 0
M  V30 27106 H 2538.9 3.5345 -2.29459 0
M  V30 27107 H 2537.62 3.058 -1.14689 0
M  V30 27108 H 2536.28 2.06085 -3.03191 0
M  V30 27109 H 2535.93 4.4433 -2.35753 0
M  V30 27110 H 2535.63 4.21103 -4.09813 0
M  V30 27111 H 2537.15 4.96666 -3.55183 0
M  V30 27112 H 2538.57 3.08881 -4.82976 0
M  V30 27113 H 2536.96 2.56683 -5.42433 0
M  V30 27114 H 2538.03 1.38651 -4.64655 0
M  V30 27115 N 2539.38 1.46127 0.590316 0
M  V30 27116 C 2540.79 1.30914 0.912894 0
M  V30 27117 C 2540.99 0.274928 1.99616 0
M  V30 27118 O 2540.05 -0.325153 2.50398 0
M  V30 27119 C 2541.36 2.69319 1.33745 0
M  V30 27120 C 2542.91 2.7735 1.45072 0
M  V30 27121 C 2543.38 4.1632 1.90897 0
M  V30 27122 N 2544.87 4.187 1.98103 0
M  V30 27123 C 2545.61 5.23113 2.34819 0
M  V30 27124 N 2545.11 6.3786 2.70381 0
M  V30 27125 N 2546.9 5.10477 2.35308 0
M  V30 27126 H 2539.05 2.1203 -0.125395 0
M  V30 27127 H 2541.31 0.947977 0.00656814 0
M  V30 27128 H 2541.02 3.46271 0.615554 0
M  V30 27129 H 2540.89 2.98924 2.30053 0
M  V30 27130 H 2543.28 2.00691 2.1635 0
M  V30 27131 H 2543.36 2.51438 0.470355 0
M  V30 27132 H 2543 4.93472 1.202 0
M  V30 27133 H 2542.93 4.39634 2.89878 0
M  V30 27134 H 2545.43 3.35903 1.7314 0
M  V30 27135 H 2545.74 7.13313 2.97329 0
M  V30 27136 H 2544.08 6.41234 2.68037 0
M  V30 27137 H 2547.27 4.19872 2.06943 0
M  V30 27138 H 2547.45 5.91964 2.63595 0
M  V30 27139 N 2540.85 -0.834306 1.33705 0
M  V30 27140 C 2541.8 -1.96585 1.24326 0
M  V30 27141 C 2542.8 -1.6879 0.143689 0
M  V30 27142 O 2544 -1.77346 0.307941 0
M  V30 27143 H 2540.38 -0.645413 0.385936 0
M  V30 27144 H 2542.35 -2.0162 2.19982 0
M  V30 27145 C 2541.1 -3.32889 1.00399 0
M  V30 27146 H 2540.42 -3.54819 1.84238 0
M  V30 27147 H 2541.86 -4.1255 0.978693 0
M  V30 27148 C 2540.32 -3.35624 -0.292988 0
M  V30 27149 O 2540.85 -3.80145 -1.29817 0
M  V30 27150 N 2539.05 -2.88809 -0.322123 0
M  V30 27151 H 2538.6 -2.52771 0.496424 0
M  V30 27152 H 2538.56 -2.91021 -1.18971 0
M  V30 27153 N 2542.33 -1.17248 -1.05312 0
M  V30 27154 C 2543.75 -0.919496 -1.30451 0
M  V30 27155 C 2543.95 0.422056 -1.9703 0
M  V30 27156 O 2543 1.15931 -2.24313 0
M  V30 27157 C 2544.32 -2.0759 -2.17547 0
M  V30 27158 C 2545.86 -2.11279 -2.30934 0
M  V30 27159 C 2546.34 -3.26301 -3.2139 0
M  V30 27160 N 2547.83 -3.26082 -3.28976 0
M  V30 27161 C 2548.57 -4.11723 -3.99088 0
M  V30 27162 N 2548.06 -5.07473 -4.71639 0
M  V30 27163 N 2549.85 -3.99677 -3.9524 0
M  V30 27164 H 2542.01 -2.03603 -0.604952 0
M  V30 27165 H 2544.27 -0.88895 -0.329352 0
M  V30 27166 H 2543.97 -3.04543 -1.75916 0
M  V30 27167 H 2543.85 -2.02589 -3.18178 0
M  V30 27168 H 2546.24 -1.14912 -2.71807 0
M  V30 27169 H 2546.32 -2.20341 -1.29936 0
M  V30 27170 H 2545.96 -4.22932 -2.8123 0
M  V30 27171 H 2545.89 -3.14475 -4.2239 0
M  V30 27172 H 2548.38 -2.56755 -2.77282 0
M  V30 27173 H 2548.69 -5.69219 -5.22695 0
M  V30 27174 H 2547.04 -5.11444 -4.70585 0
M  V30 27175 H 2550.23 -3.2417 -3.37685 0
M  V30 27176 H 2550.4 -4.6664 -4.49612 0
M  V30 27177 N 2543.81 1.24015 -0.972531 0
M  V30 27178 C 2544.77 2.23421 -0.511442 0
M  V30 27179 C 2545.77 1.55882 0.394651 0
M  V30 27180 O 2546.96 1.73167 0.189438 0
M  V30 27181 C 2544.1 3.39917 0.258709 0
M  V30 27182 H 2545.29 2.65727 -1.39029 0
M  V30 27183 H 2542.84 1.36711 -0.757609 0
M  V30 27184 H 2543.58 3.03056 1.15445 0
M  V30 27185 H 2543.36 3.9014 -0.391591 0
M  V30 27186 H 2544.85 4.13689 0.570172 0
M  V30 27187 N 2545.29 0.743226 1.38974 0
M  V30 27188 C 2546.22 0.0689631 2.29096 0
M  V30 27189 C 2547.23 -0.694765 1.47231 0
M  V30 27190 O 2548.42 -0.537567 1.70213 0
M  V30 27191 C 2545.52 -0.92649 3.2599 0
M  V30 27192 C 2544.7 -0.22257 4.36833 0
M  V30 27193 C 2543.75 -1.1273 5.13983 0
M  V30 27194 O 2542.78 -0.601695 5.66011 0
M  V30 27195 N 2543.98 -2.45632 5.25971 0
M  V30 27196 H 2546.75 0.842897 2.87603 0
M  V30 27197 H 2544.31 0.593136 1.50644 0
M  V30 27198 H 2546.3 -1.53453 3.74479 0
M  V30 27199 H 2544.87 -1.60157 2.68456 0
M  V30 27200 H 2544.09 0.566052 3.90115 0
M  V30 27201 H 2545.38 0.26493 5.0811 0
M  V30 27202 H 2544.78 -2.90802 4.85233 0
M  V30 27203 H 2543.33 -3.01512 5.7787 0
M  V30 27204 N 2546.77 -1.4974 0.491491 0
M  V30 27205 C 2547.99 -2.07325 -0.0556813 0
M  V30 27206 C 2548.42 -1.35059 -1.30923 0
M  V30 27207 O 2547.77 -0.404396 -1.76732 0
M  V30 27208 C 2547.82 -3.59333 -0.302011 0
M  V30 27209 O 2546.93 -3.88675 -1.37861 0
M  V30 27210 H 2546.27 -0.663635 0.0220072 0
M  V30 27211 H 2548.8 -1.92672 0.688386 0
M  V30 27212 H 2548.81 -4.04459 -0.536393 0
M  V30 27213 H 2547.48 -4.11344 0.613902 0
M  V30 27214 H 2546.06 -3.55369 -1.12993 0
M  V30 27215 N 2548.24 -0.224922 -1.55987 0
M  V30 27216 C 2549.49 0.405064 -1.97999 0
M  V30 27217 C 2549.81 1.60054 -1.1139 0
M  V30 27218 O 2549.08 1.9496 -0.191679 0
M  V30 27219 H 2547.66 0.152645 -0.731238 0
M  V30 27220 H 2550.33 -0.318601 -1.92278 0
M  V30 27221 H 2549.42 0.729113 -3.03464 0
M  V30 27222 N 2549.72 1.57526 0.0484352 0
M  V30 27223 C 2550.95 1.93007 0.759143 0
M  V30 27224 C 2551.37 0.823347 1.69123 0
M  V30 27225 O 2550.73 -0.222332 1.79932 0
M  V30 27226 C 2550.78 3.27511 1.50893 0
M  V30 27227 O 2549.88 3.18393 2.62106 0
M  V30 27228 H 2549.22 0.631383 0.205553 0
M  V30 27229 H 2551.75 2.04598 0.00969363 0
M  V30 27230 H 2551.76 3.61943 1.88311 0
M  V30 27231 H 2550.44 4.07631 0.825197 0
M  V30 27232 H 2549.02 2.9556 2.27374 0
M  V30 27233 N 2551.2 -0.32033 1.5431 0
M  V30 27234 C 2552.45 -1.05946 1.72926 0
M  V30 27235 C 2552.78 -1.87567 0.503218 0
M  V30 27236 O 2552.05 -1.87969 -0.499806 0
M  V30 27237 C 2552.34 -1.9815 3.0068 0
M  V30 27238 C 2552.19 -1.19838 4.33542 0
M  V30 27239 C 2553.51 -2.97625 3.24203 0
M  V30 27240 H 2550.63 -0.383763 0.629202 0
M  V30 27241 H 2553.27 -0.335821 1.87009 0
M  V30 27242 H 2551.42 -2.59854 2.88804 0
M  V30 27243 H 2553.09 -0.605693 4.57306 0
M  V30 27244 H 2551.34 -0.500708 4.30901 0
M  V30 27245 H 2552.01 -1.87558 5.19159 0
M  V30 27246 H 2554.48 -2.46044 3.35562 0
M  V30 27247 H 2553.36 -3.59322 4.14945 0
M  V30 27248 H 2553.62 -3.70256 2.41584 0
M  V30 27249 N 2552.68 -1.46438 -0.582558 0
M  V30 27250 C 2554.09 -1.45918 -1.16468 0
M  V30 27251 C 2554.44 -0.200111 -1.95177 0
M  V30 27252 O 2553.57 0.696783 -2.04875 0
M  V30 27253 C 2554.16 -2.64371 -2.11881 0
M  V30 27254 C 2552.72 -2.66892 -2.65416 0
M  V30 27255 C 2551.87 -2.38605 -1.4129 0
M  V30 27256 H 2554.82 -1.54315 -0.370487 0
M  V30 27257 H 2554.84 -2.39898 -2.95346 0
M  V30 27258 H 2554.35 -3.55993 -1.54567 0
M  V30 27259 H 2552.45 -1.79343 -3.26599 0
M  V30 27260 H 2552.56 -3.6686 -3.08141 0
M  V30 27261 H 2550.93 -1.88666 -1.71105 0
M  V30 27262 H 2551.71 -3.32404 -0.858067 0
M  V30 27263 N 2554.16 0.827204 -1.34146 0
M  V30 27264 C 2555.09 1.94528 -1.21209 0
M  V30 27265 C 2556.1 1.62195 -0.140204 0
M  V30 27266 O 2557.29 1.7415 -0.391678 0
M  V30 27267 C 2554.39 3.28345 -0.839199 0
M  V30 27268 C 2553.56 3.88731 -2.00517 0
M  V30 27269 C 2552.62 5.00921 -1.61137 0
M  V30 27270 O 2551.65 5.19445 -2.32735 0
M  V30 27271 N 2552.85 5.78139 -0.52306 0
M  V30 27272 H 2555.62 2.06159 -2.17529 0
M  V30 27273 H 2553.18 1.00356 -1.27044 0
M  V30 27274 H 2555.17 4.0084 -0.557627 0
M  V30 27275 H 2553.74 3.12582 0.0336744 0
M  V30 27276 H 2552.96 3.08682 -2.45172 0
M  V30 27277 H 2554.25 4.25807 -2.78506 0
M  V30 27278 H 2553.64 5.65654 0.0722524 0
M  V30 27279 H 2552.2 6.51104 -0.301203 0
M  V30 27280 N 2555.63 1.17805 1.04688 0
M  V30 27281 C 2556.88 0.969564 1.7778 0
M  V30 27282 C 2557.21 -0.501368 1.87927 0
M  V30 27283 O 2556.46 -1.38839 1.37921 0
M  V30 27284 C 2556.76 1.56191 3.21464 0
M  V30 27285 C 2556.43 3.05792 3.31364 0
M  V30 27286 C 2555.09 3.46625 3.33773 0
M  V30 27287 C 2557.44 4.01803 3.31969 0
M  V30 27288 C 2554.77 4.82057 3.34422 0
M  V30 27289 C 2557.12 5.37142 3.34157 0
M  V30 27290 C 2555.79 5.77432 3.34856 0
M  V30 27291 H 2555.06 0.354788 0.650543 0
M  V30 27292 H 2557.7 1.46774 1.23003 0
M  V30 27293 H 2556.01 0.985582 3.79201 0
M  V30 27294 H 2557.71 1.37609 3.76649 0
M  V30 27295 H 2554.3 2.73244 3.30206 0
M  V30 27296 H 2558.48 3.71312 3.29304 0
M  V30 27297 H 2553.74 5.12579 3.33276 0
M  V30 27298 H 2557.91 6.11311 3.33574 0
M  V30 27299 H 2555.54 6.82352 3.35112 0
M  V30 27300 N 2557.11 -1.23497 0.979094 0
M  V30 27301 C 2558.06 -2.24913 0.517944 0
M  V30 27302 C 2559.03 -1.60097 -0.442496 0
M  V30 27303 O 2560.21 -1.87556 -0.350332 0
M  V30 27304 C 2557.35 -3.44657 -0.174753 0
M  V30 27305 C 2556.47 -4.24034 0.825795 0
M  V30 27306 C 2555.6 -5.3109 0.108039 0
M  V30 27307 C 2554.64 -6.02173 1.09789 0
M  V30 27308 N 2553.78 -7.00906 0.409374 0
M  V30 27309 H 2558.62 -2.63725 1.38756 0
M  V30 27310 H 2556.16 -1.29629 0.695326 0
M  V30 27311 H 2558.11 -4.12962 -0.59316 0
M  V30 27312 H 2556.74 -3.0665 -1.00825 0
M  V30 27313 H 2555.8 -3.55158 1.3626 0
M  V30 27314 H 2557.11 -4.7311 1.58013 0
M  V30 27315 H 2556.26 -6.05584 -0.367798 0
M  V30 27316 H 2555 -4.82951 -0.678909 0
M  V30 27317 H 2554.01 -5.26473 1.58449 0
M  V30 27318 H 2555.23 -6.52401 1.88548 0
M  V30 27319 H 2553.18 -6.5502 -0.35839 0
M  V30 27320 H 2553.09 -7.47919 1.10239 0
M  V30 27321 H 2554.36 -7.79488 -0.0441187 0
M  V30 27322 N 2558.59 -0.750586 -1.38578 0
M  V30 27323 C 2559.54 -0.120876 -2.30483 0
M  V30 27324 C 2560.51 0.712896 -1.50023 0
M  V30 27325 O 2561.69 0.669645 -1.78663 0
M  V30 27326 C 2558.83 0.768606 -3.36432 0
M  V30 27327 C 2557.95 -0.0794681 -4.31927 0
M  V30 27328 C 2557.08 0.812737 -5.24946 0
M  V30 27329 C 2556.12 -0.0391523 -6.12087 0
M  V30 27330 N 2555.26 0.809846 -6.97414 0
M  V30 27331 H 2560.1 -0.9102 -2.83759 0
M  V30 27332 H 2557.63 -0.460488 -1.39707 0
M  V30 27333 H 2559.59 1.29891 -3.96464 0
M  V30 27334 H 2558.22 1.52375 -2.84573 0
M  V30 27335 H 2557.27 -0.727369 -3.73381 0
M  V30 27336 H 2558.59 -0.737488 -4.93318 0
M  V30 27337 H 2557.74 1.41032 -5.9008 0
M  V30 27338 H 2556.48 1.5045 -4.63914 0
M  V30 27339 H 2555.48 -0.649424 -5.45951 0
M  V30 27340 H 2556.71 -0.727928 -6.75187 0
M  V30 27341 H 2554.66 1.48661 -6.38933 0
M  V30 27342 H 2554.57 0.208657 -7.55712 0
M  V30 27343 H 2555.84 1.3925 -7.66961 0
M  V30 27344 N 2560.07 1.49477 -0.499425 0
M  V30 27345 C 2561.32 2.02748 0.0457219 0
M  V30 27346 C 2561.65 1.37848 1.3679 0
M  V30 27347 O 2560.92 0.513634 1.87595 0
M  V30 27348 C 2561.21 3.59545 0.199923 0
M  V30 27349 C 2561.06 4.34975 -1.14527 0
M  V30 27350 C 2562.38 4.29916 0.941295 0
M  V30 27351 H 2559.5 0.736844 0.0151423 0
M  V30 27352 H 2562.14 1.78516 -0.650529 0
M  V30 27353 H 2560.29 3.80322 0.79294 0
M  V30 27354 H 2561.96 4.25698 -1.77705 0
M  V30 27355 H 2560.2 3.97595 -1.73495 0
M  V30 27356 H 2560.88 5.43037 -0.990702 0
M  V30 27357 H 2563.35 4.13784 0.438367 0
M  V30 27358 H 2562.23 5.39377 1.01803 0
M  V30 27359 H 2562.49 3.9505 1.98464 0
M  V30 27360 N 2561.55 0.233191 1.55865 0
M  V30 27361 C 2562.79 -0.395924 1.98898 0
M  V30 27362 C 2563.13 -1.58583 1.12094 0
M  V30 27363 O 2562.4 -1.93654 0.181216 0
M  V30 27364 C 2562.68 -0.819162 3.50659 0
M  V30 27365 C 2562.54 0.375187 4.48233 0
M  V30 27366 C 2563.86 -1.67114 4.07138 0
M  V30 27367 H 2560.98 -0.142438 0.723105 0
M  V30 27368 H 2563.62 0.331758 1.87081 0
M  V30 27369 H 2561.77 -1.43919 3.6086 0
M  V30 27370 H 2563.44 1.01349 4.50029 0
M  V30 27371 H 2561.68 1.02065 4.21622 0
M  V30 27372 H 2562.35 0.0359299 5.51988 0
M  V30 27373 H 2564.83 -1.14788 3.99954 0
M  V30 27374 H 2563.71 -1.93615 5.13619 0
M  V30 27375 H 2563.97 -2.6384 3.54741 0
M  V30 27376 N 2563.03 -1.57549 -0.0400806 0
M  V30 27377 C 2564.27 -1.88764 -0.733092 0
M  V30 27378 C 2564.6 -0.829089 -1.75944 0
M  V30 27379 O 2563.86 0.171289 -1.94949 0
M  V30 27380 C 2564.15 -3.26711 -1.44896 0
M  V30 27381 C 2563.82 -4.47414 -0.559629 0
M  V30 27382 C 2562.48 -4.8017 -0.314647 0
M  V30 27383 C 2564.83 -5.21171 0.0550659 0
M  V30 27384 C 2562.16 -5.84079 0.553989 0
M  V30 27385 C 2564.51 -6.26001 0.911339 0
M  V30 27386 C 2563.18 -6.57239 1.16589 0
M  V30 27387 H 2562.45 -0.690738 -0.268257 0
M  V30 27388 H 2565.1 -1.91499 0.00682774 0
M  V30 27389 H 2563.4 -3.19914 -2.26191 0
M  V30 27390 H 2565.1 -3.48108 -1.99052 0
M  V30 27391 H 2561.69 -4.21795 -0.760719 0
M  V30 27392 H 2565.87 -4.96152 -0.121257 0
M  V30 27393 H 2561.13 -6.06663 0.759625 0
M  V30 27394 H 2565.3 -6.82301 1.39422 0
M  V30 27395 H 2562.93 -7.37578 1.84071 0
M  V30 27396 N 2564.5 0.312142 -1.54478 0
M  V30 27397 C 2565.44 1.40595 -1.81013 0
M  V30 27398 C 2566.45 1.47334 -0.692572 0
M  V30 27399 O 2567.64 1.49852 -0.969873 0
M  V30 27400 C 2564.74 2.79051 -1.92312 0
M  V30 27401 C 2563.91 2.95378 -3.22599 0
M  V30 27402 C 2562.97 4.14264 -3.24455 0
M  V30 27403 O 2562 4.0688 -3.98042 0
M  V30 27404 N 2563.2 5.2436 -2.49052 0
M  V30 27405 H 2565.96 1.18192 -2.7541 0
M  V30 27406 H 2563.52 0.502175 -1.53915 0
M  V30 27407 H 2565.52 3.5681 -1.90968 0
M  V30 27408 H 2564.09 2.94452 -1.0496 0
M  V30 27409 H 2563.31 2.04825 -3.36809 0
M  V30 27410 H 2564.59 3.03191 -4.08599 0
M  V30 27411 H 2563.99 5.33237 -1.88877 0
M  V30 27412 H 2562.55 6.00495 -2.53473 0
M  V30 27413 N 2565.98 1.46745 0.574784 0
M  V30 27414 C 2566.89 1.60508 1.71098 0
M  V30 27415 C 2567.91 0.488336 1.67007 0
M  V30 27416 O 2569.08 0.753528 1.86772 0
M  V30 27417 C 2566.15 1.59937 3.07605 0
M  V30 27418 C 2565.21 2.82904 3.22899 0
M  V30 27419 C 2564.44 2.82351 4.52895 0
M  V30 27420 O 2564.67 1.91551 5.37275 0
M  V30 27421 O 2563.6 3.73995 4.71605 0
M  V30 27422 H 2567.43 2.56612 1.62432 0
M  V30 27423 H 2565.01 1.29628 0.742756 0
M  V30 27424 H 2566.89 1.62343 3.88874 0
M  V30 27425 H 2565.57 0.669954 3.16691 0
M  V30 27426 H 2564.47 2.8605 2.41094 0
M  V30 27427 H 2565.81 3.75081 3.18708 0
M  V30 27428 N 2567.46 -0.820078 1.34583 0
M  V30 27429 C 2568.71 -1.57645 1.27099 0
M  V30 27430 C 2569.03 -1.93855 -0.158283 0
M  V30 27431 O 2568.29 -1.60465 -1.12025 0
M  V30 27432 C 2568.59 -2.88466 2.11002 0
M  V30 27433 C 2568.25 -2.71536 3.59971 0
M  V30 27434 C 2566.92 -2.66627 4.00579 0
M  V30 27435 C 2569.27 -2.55013 4.54552 0
M  V30 27436 C 2566.6 -2.43119 5.33957 0
M  V30 27437 C 2568.95 -2.33037 5.88113 0
M  V30 27438 C 2567.61 -2.26541 6.27882 0
M  V30 27439 H 2566.88 -0.576865 0.465089 0
M  V30 27440 H 2569.53 -0.948642 1.66352 0
M  V30 27441 H 2567.83 -3.55554 1.64586 0
M  V30 27442 H 2569.53 -3.46081 2.02556 0
M  V30 27443 H 2566.12 -2.76199 3.27738 0
M  V30 27444 H 2570.31 -2.57828 4.24074 0
M  V30 27445 H 2565.56 -2.3655 5.63786 0
M  V30 27446 H 2569.74 -2.1924 6.60989 0
M  V30 27447 H 2567.36 -2.08087 7.31166 0
M  V30 27448 N 2568.94 -1.18359 -1.04062 0
M  V30 27449 C 2570.17 -1.00387 -1.80915 0
M  V30 27450 C 2570.58 0.447706 -1.83415 0
M  V30 27451 O 2569.94 1.31097 -1.26964 0
M  V30 27452 C 2569.99 -1.55149 -3.26513 0
M  V30 27453 O 2569.71 -2.94624 -3.24235 0
M  V30 27454 C 2571.21 -1.41796 -4.2001 0
M  V30 27455 H 2568.43 -0.354484 -0.569721 0
M  V30 27456 H 2570.97 -1.56909 -1.31149 0
M  V30 27457 H 2569.13 -1.02804 -3.7351 0
M  V30 27458 H 2569.54 -3.20164 -4.15446 0
M  V30 27459 H 2571.02 -1.84911 -5.20108 0
M  V30 27460 H 2571.49 -0.366687 -4.37667 0
M  V30 27461 H 2572.1 -1.93214 -3.78878 0
M  V30 27462 N 2570.42 1.22976 -0.98563 0
M  V30 27463 C 2571.69 1.87 -0.573632 0
M  V30 27464 C 2572.07 1.88557 0.949179 0
M  V30 27465 O 2571.42 1.37089 1.82808 0
M  V30 27466 C 2571.63 3.28241 -1.1857 0
M  V30 27467 C 2572.98 4.04793 -1.2817 0
M  V30 27468 O 2574 3.3748 -1.13955 0
M  V30 27469 O 2572.86 5.25271 -1.50841 0
M  V30 27470 H 2569.96 0.803952 -0.193883 0
M  V30 27471 H 2572.5 1.30811 -1.08105 0
M  V30 27472 H 2571.27 3.21702 -2.22764 0
M  V30 27473 H 2570.9 3.92026 -0.663432 0
M  V30 27474 N 2571.89 0.757924 1.38178 0
M  V30 27475 C 2573.14 0.315396 1.99624 0
M  V30 27476 C 2573.46 -1.10796 1.60465 0
M  V30 27477 O 2572.73 -1.7584 0.863538 0
M  V30 27478 H 2571.31 0.113624 0.738308 0
M  V30 27479 H 2573.97 0.972982 1.68876 0
M  V30 27480 H 2573.07 0.381986 3.09754 0
M  V30 27481 N 2573.37 -1.4921 0.507345 0
M  V30 27482 C 2574.6 -2.07373 -0.0336885 0
M  V30 27483 C 2575.02 -1.3644 -1.29483 0
M  V30 27484 O 2574.38 -0.423118 -1.76294 0
M  V30 27485 C 2574.43 -3.59633 -0.263882 0
M  V30 27486 O 2573.53 -3.90115 -1.33731 0
M  V30 27487 H 2572.87 -0.663364 0.0290447 0
M  V30 27488 H 2575.4 -1.91931 0.708783 0
M  V30 27489 H 2575.41 -4.05005 -0.493464 0
M  V30 27490 H 2574.09 -4.1067 0.657496 0
M  V30 27491 H 2572.67 -3.56547 -1.09217 0
M  V30 27492 N 2574.85 -0.241454 -1.55739 0
M  V30 27493 C 2576.1 0.384801 -1.9881 0
M  V30 27494 C 2576.43 1.58344 -1.12949 0
M  V30 27495 O 2575.68 1.94879 -0.179028 0
M  V30 27496 C 2575.98 0.843256 -3.4731 0
M  V30 27497 C 2575.65 -0.247025 -4.50223 0
M  V30 27498 C 2574.31 -0.546483 -4.78087 0
M  V30 27499 C 2576.66 -0.983372 -5.11839 0
M  V30 27500 C 2573.99 -1.58646 -5.64844 0
M  V30 27501 C 2576.34 -2.01283 -5.99723 0
M  V30 27502 C 2575 -2.31899 -6.25923 0
M  V30 27503 H 2574.27 0.140809 -0.727498 0
M  V30 27504 H 2576.92 -0.348139 -1.88309 0
M  V30 27505 H 2575.23 1.6553 -3.55115 0
M  V30 27506 H 2576.92 1.33799 -3.7802 0
M  V30 27507 H 2573.51 -0.00348172 -4.286 0
M  V30 27508 H 2577.7 -0.765268 -4.90364 0
M  V30 27509 H 2572.95 -1.82907 -5.834 0
M  V30 27510 H 2577.13 -2.58834 -6.46512 0
M  V30 27511 H 2574.75 -3.12624 -6.92943 0
M  V30 27512 N 2576.33 1.57568 0.0317248 0
M  V30 27513 C 2577.56 1.93408 0.734915 0
M  V30 27514 C 2577.97 0.84099 1.69035 0
M  V30 27515 O 2577.33 -0.182804 1.81582 0
M  V30 27516 C 2577.38 3.29172 1.49426 0
M  V30 27517 O 2577.1 4.34281 0.577184 0
M  V30 27518 C 2578.6 3.79277 2.29485 0
M  V30 27519 H 2575.82 0.638372 0.206694 0
M  V30 27520 H 2578.37 2.04498 -0.0099564 0
M  V30 27521 H 2576.52 3.19487 2.19104 0
M  V30 27522 H 2576.93 5.12632 1.10943 0
M  V30 27523 H 2578.41 4.7679 2.78164 0
M  V30 27524 H 2578.89 3.10334 3.10789 0
M  V30 27525 H 2579.49 3.92036 1.64887 0
M  V30 27526 N 2577.81 -0.303946 1.54641 0
M  V30 27527 C 2578.74 -1.39633 1.81756 0
M  V30 27528 C 2579.75 -1.46965 0.700376 0
M  V30 27529 O 2580.94 -1.49336 0.977807 0
M  V30 27530 C 2578.04 -2.78027 1.93789 0
M  V30 27531 C 2577.21 -2.93663 3.24161 0
M  V30 27532 C 2576.27 -4.12538 3.26648 0
M  V30 27533 O 2575.3 -4.04764 4.00194 0
M  V30 27534 N 2576.5 -5.23032 2.51829 0
M  V30 27535 H 2579.27 -1.16729 2.76033 0
M  V30 27536 H 2576.83 -0.494006 1.54179 0
M  V30 27537 H 2578.82 -3.55792 1.92858 0
M  V30 27538 H 2577.39 -2.93891 1.0652 0
M  V30 27539 H 2576.61 -2.03036 3.37891 0
M  V30 27540 H 2577.9 -3.0102 4.10201 0
M  V30 27541 H 2577.29 -5.32228 1.91702 0
M  V30 27542 H 2575.85 -5.99142 2.56654 0
M  V30 27543 N 2579.28 -1.47047 -0.566994 0
M  V30 27544 C 2580.7 -1.47145 -1.14914 0
M  V30 27545 C 2581.05 -0.220801 -1.94954 0
M  V30 27546 O 2580.17 0.675014 -2.05603 0
M  V30 27547 C 2580.77 -2.66604 -2.09065 0
M  V30 27548 C 2579.33 -2.69692 -2.6257 0
M  V30 27549 C 2578.47 -2.40091 -1.38751 0
M  V30 27550 H 2581.42 -1.54699 -0.354099 0
M  V30 27551 H 2581.44 -2.43017 -2.92785 0
M  V30 27552 H 2580.96 -3.57612 -1.50782 0
M  V30 27553 H 2579.06 -1.82797 -3.24678 0
M  V30 27554 H 2579.17 -3.70107 -3.04232 0
M  V30 27555 H 2577.53 -1.90471 -1.69095 0
M  V30 27556 H 2578.32 -3.33295 -0.822763 0
M  V30 27557 N 2580.76 0.812929 -1.35016 0
M  V30 27558 C 2581.69 1.93916 -1.30072 0
M  V30 27559 C 2582.67 1.69184 -0.176304 0
M  V30 27560 O 2583.86 1.90638 -0.370261 0
M  V30 27561 C 2580.99 3.30551 -1.06553 0
M  V30 27562 C 2579.94 3.69749 -2.15568 0
M  V30 27563 C 2579.27 5.04476 -1.77223 0
M  V30 27564 C 2580.57 3.80793 -3.57483 0
M  V30 27565 H 2582.26 1.9831 -2.24307 0
M  V30 27566 H 2579.81 0.952717 -1.07978 0
M  V30 27567 H 2581.76 4.08935 -1.01736 0
M  V30 27568 H 2580.49 3.26482 -0.0876293 0
M  V30 27569 H 2579.14 2.93646 -2.19471 0
M  V30 27570 H 2578.79 4.96905 -0.780676 0
M  V30 27571 H 2578.49 5.31674 -2.50194 0
M  V30 27572 H 2580.02 5.85307 -1.7392 0
M  V30 27573 H 2581.43 4.49424 -3.55937 0
M  V30 27574 H 2579.83 4.19455 -4.2916 0
M  V30 27575 H 2580.9 2.82518 -3.94096 0
M  V30 27576 N 2582.24 1.18909 1.03433 0
M  V30 27577 C 2583.47 1.01198 1.80118 0
M  V30 27578 C 2583.88 -0.44258 1.83951 0
M  V30 27579 O 2583.22 -1.3192 1.27839 0
M  V30 27580 C 2583.28 1.49829 3.2679 0
M  V30 27581 C 2582.95 2.9785 3.46604 0
M  V30 27582 C 2583.94 3.95656 3.37271 0
M  V30 27583 C 2581.63 3.36422 3.72995 0
M  V30 27584 C 2583.62 5.30029 3.54045 0
M  V30 27585 C 2581.31 4.70956 3.89415 0
M  V30 27586 C 2582.31 5.67568 3.79941 0
M  V30 27587 O 2582 6.99666 3.95883 0
M  V30 27588 H 2581.73 0.357299 0.573858 0
M  V30 27589 H 2584.28 1.58033 1.31205 0
M  V30 27590 H 2582.51 0.873644 3.76702 0
M  V30 27591 H 2584.2 1.28411 3.85053 0
M  V30 27592 H 2584.97 3.67202 3.1684 0
M  V30 27593 H 2580.85 2.61778 3.79464 0
M  V30 27594 H 2584.39 6.05423 3.46567 0
M  V30 27595 H 2580.29 4.99108 4.09342 0
M  V30 27596 H 2581.06 7.0666 4.13006 0
M  V30 27597 N 2583.72 -1.22452 0.992137 0
M  V30 27598 C 2585.13 -1.43296 0.702739 0
M  V30 27599 C 2585.33 -1.87933 -0.726876 0
M  V30 27600 O 2584.39 -2.03273 -1.49788 0
M  V30 27601 C 2585.7 -2.47506 1.70766 0
M  V30 27602 C 2587.25 -2.61306 1.72302 0
M  V30 27603 C 2587.73 -3.68737 2.71656 0
M  V30 27604 N 2589.22 -3.76194 2.70245 0
M  V30 27605 C 2589.95 -4.58911 3.43786 0
M  V30 27606 N 2589.45 -5.45626 4.26924 0
M  V30 27607 N 2591.24 -4.53214 3.32495 0
M  V30 27608 H 2583.39 -0.917837 1.91545 0
M  V30 27609 H 2585.66 -0.465148 0.82604 0
M  V30 27610 H 2585.36 -2.21652 2.73063 0
M  V30 27611 H 2585.24 -3.46096 1.49991 0
M  V30 27612 H 2587.62 -2.86505 0.707039 0
M  V30 27613 H 2587.7 -1.62994 1.97146 0
M  V30 27614 H 2587.35 -3.44286 3.73403 0
M  V30 27615 H 2587.28 -4.66617 2.44082 0
M  V30 27616 H 2589.77 -3.14234 2.09918 0
M  V30 27617 H 2590.08 -6.05763 4.79866 0
M  V30 27618 H 2588.43 -5.4521 4.31011 0
M  V30 27619 H 2591.62 -3.84494 2.66987 0
M  V30 27620 H 2591.79 -5.17448 3.90067 0
M  V30 27621 N 2585.2 -0.765242 -1.37774 0
M  V30 27622 C 2586.44 -0.325978 -1.99454 0
M  V30 27623 C 2586.77 1.09944 -1.61051 0
M  V30 27624 O 2586.04 1.7538 -0.872851 0
M  V30 27625 H 2584.62 -0.117538 -0.737695 0
M  V30 27626 H 2587.28 -0.981924 -1.68358 0
M  V30 27627 H 2586.37 -0.398407 -3.09547 0
M  V30 27628 N 2586.67 1.48939 -0.515251 0
M  V30 27629 C 2587.58 2.33158 0.259733 0
M  V30 27630 C 2588.6 1.4555 0.953475 0
M  V30 27631 O 2589.78 1.78553 0.931703 0
M  V30 27632 C 2586.84 3.21329 1.30187 0
M  V30 27633 C 2585.9 4.24799 0.620054 0
M  V30 27634 C 2585.14 5.08756 1.61254 0
M  V30 27635 O 2585.36 4.94453 2.84381 0
M  V30 27636 O 2584.29 5.90616 1.16003 0
M  V30 27637 H 2588.12 3.00641 -0.429984 0
M  V30 27638 H 2585.7 1.46821 -0.276372 0
M  V30 27639 H 2587.59 3.75909 1.90448 0
M  V30 27640 H 2586.26 2.56524 1.97426 0
M  V30 27641 H 2585.17 3.74093 -0.0226677 0
M  V30 27642 H 2586.5 4.92199 -0.0101358 0
M  V30 27643 N 2588.15 0.249709 1.55609 0
M  V30 27644 C 2589.08 -0.642787 2.24478 0
M  V30 27645 C 2590.06 -1.17909 1.22603 0
M  V30 27646 O 2591.25 -1.21792 1.51263 0
M  V30 27647 C 2588.38 -1.83858 2.94641 0
M  V30 27648 C 2587.33 -1.43493 4.03229 0
M  V30 27649 C 2586.66 -2.71178 4.60833 0
M  V30 27650 C 2587.96 -0.60391 5.18797 0
M  V30 27651 H 2589.65 -0.0685099 2.99322 0
M  V30 27652 H 2587.2 -0.031511 1.43966 0
M  V30 27653 H 2589.15 -2.46862 3.41522 0
M  V30 27654 H 2587.88 -2.43828 2.17291 0
M  V30 27655 H 2586.54 -0.828212 3.57122 0
M  V30 27656 H 2586.18 -3.29352 3.8018 0
M  V30 27657 H 2585.88 -2.44892 5.34137 0
M  V30 27658 H 2587.41 -3.35075 5.10448 0
M  V30 27659 H 2588.82 -1.13832 5.61885 0
M  V30 27660 H 2587.22 -0.436992 5.98507 0
M  V30 27661 H 2588.29 0.383232 4.83383 0
M  V30 27662 N 2589.63 -1.57583 -0.0233682 0
M  V30 27663 C 2590.58 -2.08025 -1.04059 0
M  V30 27664 C 2591.57 -0.995228 -1.37082 0
M  V30 27665 O 2592.78 -1.18007 -1.35921 0
M  V30 27666 H 2589.15 -0.663929 -0.353133 0
M  V30 27667 H 2591.13 -2.92521 -0.589402 0
M  V30 27668 C 2589.87 -2.57975 -2.33119 0
M  V30 27669 H 2589.2 -3.41084 -2.08571 0
M  V30 27670 H 2590.64 -2.96973 -3.02627 0
M  V30 27671 C 2589.1 -1.48348 -3.02481 0
M  V30 27672 O 2589.63 -0.852967 -3.9254 0
M  V30 27673 N 2587.83 -1.21662 -2.63906 0
M  V30 27674 H 2587.38 -1.73119 -1.90755 0
M  V30 27675 H 2587.34 -0.485272 -3.10632 0
M  V30 27676 N 2591.11 0.29574 -1.548 0
M  V30 27677 C 2592.02 1.38738 -1.89179 0
M  V30 27678 C 2593.04 1.5521 -0.786509 0
M  V30 27679 O 2594.21 1.69773 -1.08347 0
M  V30 27680 C 2591.28 2.73033 -2.13668 0
M  V30 27681 C 2590.34 2.65502 -3.37354 0
M  V30 27682 C 2589.57 3.93391 -3.60665 0
M  V30 27683 O 2589.79 4.93001 -2.86891 0
M  V30 27684 O 2588.73 3.94967 -4.54186 0
M  V30 27685 H 2592.55 1.12584 -2.82061 0
M  V30 27686 H 2590.14 0.49227 -1.41057 0
M  V30 27687 H 2592.02 3.5248 -2.30946 0
M  V30 27688 H 2590.7 2.99019 -1.23972 0
M  V30 27689 H 2589.6 1.84508 -3.25434 0
M  V30 27690 H 2590.94 2.44467 -4.27196 0
M  V30 27691 N 2592.59 1.47346 0.559187 0
M  V30 27692 C 2593.54 1.56093 1.66189 0
M  V30 27693 C 2594.52 0.419985 1.55322 0
M  V30 27694 O 2595.71 0.669791 1.63838 0
M  V30 27695 C 2592.84 1.57639 3.04967 0
M  V30 27696 C 2591.93 2.77111 3.21045 0
M  V30 27697 N 2592.32 4.01827 3.07196 0
M  V30 27698 C 2590.62 2.73831 3.52041 0
M  V30 27699 C 2591.32 4.81827 3.25911 0
M  V30 27700 N 2590.29 4.14112 3.52153 0
M  V30 27701 H 2594.1 2.50293 1.54047 0
M  V30 27702 H 2591.61 1.43313 0.763889 0
M  V30 27703 H 2593.61 1.61996 3.84139 0
M  V30 27704 H 2592.27 0.645337 3.18222 0
M  V30 27705 H 2593.28 4.32717 2.84564 0
M  V30 27706 H 2589.96 1.89854 3.71835 0
M  V30 27707 H 2591.35 5.90703 3.20188 0
M  V30 27708 N 2594.07 -0.805758 1.35445 0
M  V30 27709 C 2595 -1.93224 1.31099 0
M  V30 27710 C 2595.98 -1.69088 0.185274 0
M  V30 27711 O 2597.16 -1.90439 0.380366 0
M  V30 27712 C 2594.29 -3.29981 1.08305 0
M  V30 27713 C 2593.25 -3.68601 2.17526 0
M  V30 27714 C 2592.57 -5.03529 1.79896 0
M  V30 27715 C 2593.87 -3.78892 3.59497 0
M  V30 27716 H 2595.57 -1.97118 2.25355 0
M  V30 27717 H 2593.11 -0.946977 1.08482 0
M  V30 27718 H 2595.06 -4.08389 1.03904 0
M  V30 27719 H 2593.79 -3.26431 0.104942 0
M  V30 27720 H 2592.45 -2.92478 2.21025 0
M  V30 27721 H 2592.1 -4.96484 0.807017 0
M  V30 27722 H 2591.8 -5.30339 2.5301 0
M  V30 27723 H 2593.32 -5.84376 1.77022 0
M  V30 27724 H 2594.73 -4.4753 3.58315 0
M  V30 27725 H 2593.13 -4.17173 4.31378 0
M  V30 27726 H 2594.2 -2.80424 3.95589 0
M  V30 27727 N 2595.54 -1.19456 -1.02801 0
M  V30 27728 C 2596.79 -0.995753 -1.75867 0
M  V30 27729 C 2597.11 0.47451 -1.89139 0
M  V30 27730 O 2596.38 1.34363 -1.4256 0
M  V30 27731 H 2594.96 -0.365446 -0.651504 0
M  V30 27732 H 2597.62 -1.50365 -1.24001 0
M  V30 27733 H 2596.72 -1.44452 -2.76659 0
M  V30 27734 N 2597.02 1.21924 -0.998617 0
M  V30 27735 C 2597.95 2.26342 -0.573728 0
M  V30 27736 C 2598.93 1.65275 0.402267 0
M  V30 27737 O 2600.12 1.91998 0.291649 0
M  V30 27738 C 2597.25 3.47136 0.106778 0
M  V30 27739 C 2596.2 4.20677 -0.788342 0
M  V30 27740 C 2595.53 5.34694 0.0253987 0
M  V30 27741 C 2596.83 4.78752 -2.08792 0
M  V30 27742 H 2598.52 2.62136 -1.44655 0
M  V30 27743 H 2596.07 1.26008 -0.696998 0
M  V30 27744 H 2598.02 4.19347 0.415457 0
M  V30 27745 H 2596.74 3.10454 1.01419 0
M  V30 27746 H 2595.4 3.50308 -1.08075 0
M  V30 27747 H 2595.05 4.94254 0.933902 0
M  V30 27748 H 2594.75 5.84824 -0.57054 0
M  V30 27749 H 2596.28 6.09718 0.32804 0
M  V30 27750 H 2597.69 5.42875 -1.84282 0
M  V30 27751 H 2596.09 5.39244 -2.63317 0
M  V30 27752 H 2597.16 3.98486 -2.76291 0
M  V30 27753 N 2598.5 0.772537 1.37367 0
M  V30 27754 C 2599.43 0.173345 2.32856 0
M  V30 27755 C 2600.41 -0.682234 1.55819 0
M  V30 27756 O 2601.6 -0.619534 1.84053 0
M  V30 27757 C 2598.73 -0.705947 3.4005 0
M  V30 27758 C 2597.68 0.0483896 4.27973 0
M  V30 27759 C 2597.01 -0.950399 5.26186 0
M  V30 27760 C 2598.31 1.22785 5.07662 0
M  V30 27761 H 2600 0.971052 2.83215 0
M  V30 27762 H 2597.55 0.468401 1.36169 0
M  V30 27763 H 2599.5 -1.13494 4.05829 0
M  V30 27764 H 2598.22 -1.53618 2.88217 0
M  V30 27765 H 2596.88 0.458171 3.63726 0
M  V30 27766 H 2596.53 -1.7752 4.70633 0
M  V30 27767 H 2596.23 -0.450211 5.85873 0
M  V30 27768 H 2597.75 -1.37832 5.9484 0
M  V30 27769 H 2599.17 0.875466 5.66576 0
M  V30 27770 H 2597.56 1.66018 5.76679 0
M  V30 27771 H 2598.63 2.03157 4.4029 0
M  V30 27772 N 2599.98 -1.48664 0.523142 0
M  V30 27773 C 2601.23 -2.02096 -0.0134142 0
M  V30 27774 C 2601.55 -1.40313 -1.35415 0
M  V30 27775 O 2600.82 -0.566107 -1.87542 0
M  V30 27776 H 2599.4 -0.746958 -0.00794602 0
M  V30 27777 H 2602.06 -1.8245 0.68542 0
M  V30 27778 H 2601.15 -3.11842 -0.126795 0
M  V30 27779 N 2601.46 -0.257958 -1.55475 0
M  V30 27780 C 2602.87 0.243103 -1.85111 0
M  V30 27781 C 2603.22 1.56758 -1.17989 0
M  V30 27782 O 2602.34 2.11408 -0.462139 0
M  V30 27783 C 2602.94 0.44787 -3.35827 0
M  V30 27784 C 2601.5 0.893181 -3.65649 0
M  V30 27785 C 2600.64 -0.0233453 -2.7729 0
M  V30 27786 H 2603.59 -0.480225 -1.5126 0
M  V30 27787 H 2603.62 1.28892 -3.58004 0
M  V30 27788 H 2603.13 -0.516264 -3.84651 0
M  V30 27789 H 2601.23 1.86939 -3.22311 0
M  V30 27790 H 2601.34 0.742386 -4.73313 0
M  V30 27791 H 2599.71 0.489977 -2.49943 0
M  V30 27792 H 2600.49 -0.983052 -3.28924 0
M  V30 27793 N 2602.93 1.57593 0.0150108 0
M  V30 27794 C 2604.16 1.93895 0.713325 0
M  V30 27795 C 2604.57 0.857319 1.68661 0
M  V30 27796 O 2603.92 -0.173756 1.82876 0
M  V30 27797 C 2603.98 3.26092 1.51342 0
M  V30 27798 C 2603.64 4.51555 0.703371 0
M  V30 27799 C 2604.64 5.199 -0.00247062 0
M  V30 27800 C 2602.32 4.98027 0.653766 0
M  V30 27801 C 2604.32 6.33007 -0.747066 0
M  V30 27802 C 2602 6.11027 -0.0945652 0
M  V30 27803 C 2603 6.78372 -0.793728 0
M  V30 27804 O 2602.69 7.89208 -1.52988 0
M  V30 27805 H 2602.42 0.644286 0.204626 0
M  V30 27806 H 2604.98 2.05381 -0.0276772 0
M  V30 27807 H 2603.21 3.10971 2.29856 0
M  V30 27808 H 2604.9 3.47616 2.09566 0
M  V30 27809 H 2605.66 4.84993 0.0267951 0
M  V30 27810 H 2601.54 4.45444 1.18748 0
M  V30 27811 H 2605.08 6.85506 -1.29333 0
M  V30 27812 H 2600.98 6.45378 -0.125705 0
M  V30 27813 H 2601.75 8.05643 -1.44502 0
M  V30 27814 N 2604.41 -0.287527 1.54955 0
M  V30 27815 C 2605.66 -1.01874 1.74082 0
M  V30 27816 C 2605.97 -1.87965 0.541168 0
M  V30 27817 O 2607.18 -2.64454 0.614538 0
M  V30 27818 C 2605.64 -1.86107 3.08046 0
M  V30 27819 C 2605.24 -1.04953 4.35533 0
M  V30 27820 C 2606.99 -2.58746 3.36528 0
M  V30 27821 C 2604.9 -1.88541 5.60541 0
M  V30 27822 H 2603.83 -0.384075 0.648847 0
M  V30 27823 H 2606.48 -0.275069 1.81427 0
M  V30 27824 H 2604.86 -2.64513 2.94701 0
M  V30 27825 H 2606.03 -0.310659 4.59752 0
M  V30 27826 H 2604.35 -0.438357 4.14086 0
M  V30 27827 H 2606.94 -3.21661 4.27128 0
M  V30 27828 H 2607.29 -3.28279 2.56005 0
M  V30 27829 H 2607.82 -1.87379 3.50904 0
M  V30 27830 H 2604.56 -1.23455 6.43769 0
M  V30 27831 H 2604.08 -2.60065 5.40487 0
M  V30 27832 H 2605.76 -2.46262 5.98301 0
M  V30 27833 N 2605.89 -1.47641 -0.551365 0
M  V30 27834 C 2607.31 -1.33288 -0.877864 0
M  V30 27835 C 2607.51 -0.327756 -1.98817 0
M  V30 27836 O 2606.56 0.25865 -2.51172 0
M  V30 27837 C 2607.88 -2.7277 -1.26558 0
M  V30 27838 C 2609.42 -2.81099 -1.37668 0
M  V30 27839 C 2609.9 -4.21235 -1.79792 0
M  V30 27840 N 2611.39 -4.23805 -1.86932 0
M  V30 27841 C 2612.12 -5.29155 -2.20867 0
M  V30 27842 N 2611.62 -6.44805 -2.53375 0
M  V30 27843 N 2613.41 -5.16536 -2.21691 0
M  V30 27844 H 2605.56 -2.11623 0.181567 0
M  V30 27845 H 2607.83 -0.947818 0.0185681 0
M  V30 27846 H 2607.53 -3.47782 -0.52353 0
M  V30 27847 H 2607.41 -3.04919 -2.22046 0
M  V30 27848 H 2609.79 -2.06356 -2.10953 0
M  V30 27849 H 2609.88 -2.52597 -0.403526 0
M  V30 27850 H 2609.52 -4.96485 -1.07075 0
M  V30 27851 H 2609.45 -4.47165 -2.7812 0
M  V30 27852 H 2611.94 -3.40376 -1.64173 0
M  V30 27853 H 2612.25 -7.20945 -2.78312 0
M  V30 27854 H 2610.6 -6.48115 -2.50942 0
M  V30 27855 H 2613.79 -4.25211 -1.95738 0
M  V30 27856 H 2613.96 -5.98745 -2.47807 0
M  V30 27857 N 2607.37 0.798563 -1.3587 0
M  V30 27858 C 2608.33 1.89239 -1.2931 0
M  V30 27859 C 2609.33 1.59516 -0.202775 0
M  V30 27860 O 2610.52 1.68099 -0.456986 0
M  V30 27861 C 2607.65 3.25831 -1.00235 0
M  V30 27862 H 2608.85 1.96474 -2.26579 0
M  V30 27863 H 2606.4 0.995336 -1.2051 0
M  V30 27864 H 2607.13 3.24282 -0.033858 0
M  V30 27865 H 2606.92 3.48792 -1.79127 0
M  V30 27866 H 2608.41 4.05883 -0.982261 0
M  V30 27867 N 2608.85 1.19999 1.02166 0
M  V30 27868 C 2609.76 0.959811 2.14067 0
M  V30 27869 C 2610.77 -0.0826244 1.73804 0
M  V30 27870 O 2611.95 0.103669 2.01133 0
M  V30 27871 C 2609.01 0.509519 3.42936 0
M  V30 27872 C 2608.07 1.6222 3.97471 0
M  V30 27873 C 2607.31 1.1933 5.20188 0
M  V30 27874 O 2607.53 0.0598729 5.70369 0
M  V30 27875 O 2606.46 1.99873 5.67745 0
M  V30 27876 H 2610.29 1.89662 2.37196 0
M  V30 27877 H 2607.88 0.983431 1.12468 0
M  V30 27878 H 2609.76 0.267396 4.20551 0
M  V30 27879 H 2608.43 -0.398764 3.21234 0
M  V30 27880 H 2607.34 1.91856 3.21158 0
M  V30 27881 H 2608.67 2.50731 4.2355 0
M  V30 27882 N 2610.32 -1.21392 1.00507 0
M  V30 27883 C 2611.57 -1.90743 0.688826 0
M  V30 27884 C 2611.9 -1.77915 -0.778455 0
M  V30 27885 O 2611.18 -1.15584 -1.56431 0
M  V30 27886 C 2611.46 -3.42543 1.11069 0
M  V30 27887 C 2611.31 -3.64362 2.63743 0
M  V30 27888 C 2612.63 -4.34922 0.673135 0
M  V30 27889 H 2609.75 -0.692683 0.251714 0
M  V30 27890 H 2612.39 -1.43024 1.25076 0
M  V30 27891 H 2610.54 -3.83315 0.632575 0
M  V30 27892 H 2612.22 -3.32916 3.19319 0
M  V30 27893 H 2610.46 -3.08225 3.05253 0
M  V30 27894 H 2611.13 -4.70722 2.88313 0
M  V30 27895 H 2613.61 -4.01732 1.08399 0
M  V30 27896 H 2612.48 -5.39779 0.996478 0
M  V30 27897 H 2612.74 -4.40045 -0.425731 0
M  V30 27898 N 2611.8 -0.779811 -1.36955 0
M  V30 27899 C 2612.71 -0.172532 -2.33965 0
M  V30 27900 C 2613.73 0.670193 -1.60575 0
M  V30 27901 O 2614.9 0.588229 -1.92618 0
M  V30 27902 C 2611.97 0.690113 -3.39762 0
M  V30 27903 C 2611.03 -0.169999 -4.28963 0
M  V30 27904 C 2610.26 0.651569 -5.29708 0
M  V30 27905 O 2610.49 1.88817 -5.38242 0
M  V30 27906 O 2609.42 0.0565206 -6.01873 0
M  V30 27907 H 2613.25 -0.974372 -2.87645 0
M  V30 27908 H 2610.83 -0.541102 -1.39257 0
M  V30 27909 H 2612.71 1.18233 -4.04474 0
M  V30 27910 H 2611.39 1.47 -2.88397 0
M  V30 27911 H 2610.3 -0.70876 -3.67325 0
M  V30 27912 H 2611.63 -0.91317 -4.83655 0
M  V30 27913 N 2613.28 1.48384 -0.531019 0
M  V30 27914 C 2614.56 1.95485 0.0671445 0
M  V30 27915 C 2614.94 1.47327 1.51189 0
M  V30 27916 O 2614.29 0.70024 2.17506 0
M  V30 27917 C 2614.5 3.48962 -0.0511819 0
M  V30 27918 C 2615.84 4.24464 0.107557 0
M  V30 27919 O 2616.87 3.56193 0.0225622 0
M  V30 27920 O 2615.73 5.45752 0.285876 0
M  V30 27921 H 2612.82 0.823245 0.078722 0
M  V30 27922 H 2615.37 1.58901 -0.59569 0
M  V30 27923 H 2614.14 3.76738 -1.05754 0
M  V30 27924 H 2613.76 3.92243 0.650456 0
M  V30 27925 N 2614.76 0.2662 1.55336 0
M  V30 27926 C 2615.71 -0.641189 2.23588 0
M  V30 27927 C 2616.7 -1.16492 1.22988 0
M  V30 27928 O 2617.91 -1.11958 1.40945 0
M  V30 27929 H 2614.28 -0.225302 0.717456 0
M  V30 27930 H 2616.25 -0.0426037 2.9837 0
M  V30 27931 C 2615 -1.81821 2.96372 0
M  V30 27932 H 2614.32 -1.42439 3.73566 0
M  V30 27933 H 2615.76 -2.42992 3.47463 0
M  V30 27934 C 2614.22 -2.70122 2.01335 0
M  V30 27935 O 2614.75 -3.70222 1.55881 0
M  V30 27936 N 2612.96 -2.37099 1.68024 0
M  V30 27937 H 2612.51 -1.55748 2.05184 0
M  V30 27938 H 2612.46 -2.96453 1.04706 0
M  V30 27939 N 2616.24 -1.57599 -0.0066531 0
M  V30 27940 C 2617.49 -1.89456 -0.692045 0
M  V30 27941 C 2617.8 -0.867617 -1.75305 0
M  V30 27942 O 2619 -1.07618 -2.4926 0
M  V30 27943 C 2617.46 -3.36291 -1.28204 0
M  V30 27944 C 2617.07 -4.47267 -0.256213 0
M  V30 27945 C 2618.81 -3.77267 -1.94601 0
M  V30 27946 C 2616.72 -5.85175 -0.855825 0
M  V30 27947 H 2615.65 -0.706927 -0.26224 0
M  V30 27948 H 2618.3 -1.83424 0.0528012 0
M  V30 27949 H 2616.68 -3.37139 -2.07734 0
M  V30 27950 H 2617.86 -4.57924 0.514003 0
M  V30 27951 H 2616.17 -4.15267 0.306935 0
M  V30 27952 H 2618.77 -4.77633 -2.40355 0
M  V30 27953 H 2619.11 -3.10432 -2.77376 0
M  V30 27954 H 2619.64 -3.7869 -1.21815 0
M  V30 27955 H 2616.38 -6.55466 -0.0670009 0
M  V30 27956 H 2615.9 -5.78194 -1.59535 0
M  V30 27957 H 2617.58 -6.32621 -1.35646 0
M  V30 27958 N 2617.72 0.279305 -1.55105 0
M  V30 27959 C 2618.65 1.37041 -1.82469 0
M  V30 27960 C 2619.63 1.47823 -0.677287 0
M  V30 27961 O 2620.81 1.64546 -0.919607 0
M  V30 27962 C 2617.94 2.74746 -1.98071 0
M  V30 27963 C 2616.98 2.81281 -3.20599 0
M  V30 27964 S 2617.82 2.41166 -4.7812 0
M  V30 27965 C 2618.97 3.80858 -4.96687 0
M  V30 27966 H 2619.21 1.13625 -2.7473 0
M  V30 27967 H 2616.74 0.478599 -1.46795 0
M  V30 27968 H 2618.7 3.54051 -2.07745 0
M  V30 27969 H 2617.36 2.95418 -1.0671 0
M  V30 27970 H 2616.55 3.82336 -3.28383 0
M  V30 27971 H 2616.15 2.09991 -3.09483 0
M  V30 27972 H 2618.44 4.7607 -4.82042 0
M  V30 27973 H 2619.39 3.7803 -5.98748 0
M  V30 27974 H 2619.8 3.71868 -4.24705 0
M  V30 27975 N 2619.19 1.47931 0.543528 0
M  V30 27976 C 2620.44 1.55487 1.30198 0
M  V30 27977 C 2620.77 0.222235 1.92924 0
M  V30 27978 O 2620.05 -0.770498 1.78588 0
M  V30 27979 C 2620.33 2.68311 2.40169 0
M  V30 27980 C 2620.18 4.11236 1.82222 0
M  V30 27981 C 2621.5 2.76967 3.42019 0
M  V30 27982 H 2618.62 0.566004 0.472026 0
M  V30 27983 H 2621.26 1.80047 0.606883 0
M  V30 27984 H 2619.41 2.47501 2.99459 0
M  V30 27985 H 2621.09 4.43448 1.27088 0
M  V30 27986 H 2619.33 4.18871 1.12824 0
M  V30 27987 H 2620 4.85976 2.61785 0
M  V30 27988 H 2622.48 2.95779 2.92667 0
M  V30 27989 H 2621.35 3.57661 4.16377 0
M  V30 27990 H 2621.61 1.84575 4.01727 0
M  V30 27991 N 2620.67 -0.791347 1.36292 0
M  V30 27992 C 2621.9 -1.58013 1.33564 0
M  V30 27993 C 2622.31 -1.88615 -0.0835285 0
M  V30 27994 O 2621.67 -1.49976 -1.03988 0
M  V30 27995 C 2621.72 -2.90229 2.15522 0
M  V30 27996 O 2621.44 -2.60946 3.51907 0
M  V30 27997 C 2622.94 -3.8454 2.20553 0
M  V30 27998 H 2620.16 -0.490165 0.458235 0
M  V30 27999 H 2622.71 -0.982314 1.79362 0
M  V30 28000 H 2620.86 -3.46484 1.73284 0
M  V30 28001 H 2621.28 -3.45474 3.9465 0
M  V30 28002 H 2622.75 -4.74377 2.8226 0
M  V30 28003 H 2623.23 -4.22248 1.20845 0
M  V30 28004 H 2623.83 -3.34218 2.63018 0
M  V30 28005 N 2622.15 -1.2054 -1.01528 0
M  V30 28006 C 2623.4 -1.01636 -1.75147 0
M  V30 28007 C 2623.72 0.451366 -1.8919 0
M  V30 28008 O 2622.98 1.35134 -1.41553 0
M  V30 28009 C 2623.28 -1.64659 -3.1721 0
M  V30 28010 C 2622.94 -3.1447 -3.2314 0
M  V30 28011 C 2621.61 -3.55352 -3.24466 0
M  V30 28012 C 2623.96 -4.10464 -3.21199 0
M  V30 28013 C 2621.29 -4.90754 -3.21524 0
M  V30 28014 C 2623.64 -5.45813 -3.19798 0
M  V30 28015 C 2622.3 -5.86107 -3.19428 0
M  V30 28016 H 2621.57 -0.371912 -0.640908 0
M  V30 28017 H 2624.22 -1.49983 -1.19068 0
M  V30 28018 H 2622.52 -1.08577 -3.76455 0
M  V30 28019 H 2624.22 -1.47547 -3.72869 0
M  V30 28020 H 2620.81 -2.81903 -3.22845 0
M  V30 28021 H 2625 -3.79912 -3.19344 0
M  V30 28022 H 2620.25 -5.21235 -3.19569 0
M  V30 28023 H 2624.43 -6.1994 -3.17249 0
M  V30 28024 H 2622.05 -6.90997 -3.16903 0
M  V30 28025 N 2623.63 1.20858 -1.01149 0
M  V30 28026 C 2625.04 1.4216 -0.725447 0
M  V30 28027 C 2625.24 1.89065 0.696886 0
M  V30 28028 O 2624.3 2.0563 1.46535 0
M  V30 28029 C 2625.61 2.44758 -1.74682 0
M  V30 28030 C 2627.16 2.58532 -1.76438 0
M  V30 28031 C 2627.64 3.64369 -2.77488 0
M  V30 28032 N 2629.13 3.71847 -2.76196 0
M  V30 28033 C 2629.86 4.53383 -3.51043 0
M  V30 28034 N 2629.36 5.38765 -4.3555 0
M  V30 28035 N 2631.15 4.47867 -3.39663 0
M  V30 28036 H 2623.3 0.887248 -1.92981 0
M  V30 28037 H 2625.56 0.451947 -0.833335 0
M  V30 28038 H 2625.27 2.1728 -2.76555 0
M  V30 28039 H 2625.14 3.43666 -1.55478 0
M  V30 28040 H 2627.53 2.85344 -0.75253 0
M  V30 28041 H 2627.61 1.59837 -1.99714 0
M  V30 28042 H 2627.26 3.38302 -3.78833 0
M  V30 28043 H 2627.19 4.62675 -2.51474 0
M  V30 28044 H 2629.68 3.10854 -2.14891 0
M  V30 28045 H 2629.99 5.98052 -4.89442 0
M  V30 28046 H 2628.34 5.38284 -4.3963 0
M  V30 28047 H 2631.53 3.80198 -2.7307 0
M  V30 28048 H 2631.7 5.11177 -3.98249 0
M  V30 28049 N 2625.11 0.787064 1.3654 0
M  V30 28050 C 2626.05 0.171765 2.31965 0
M  V30 28051 C 2627.05 -0.667604 1.5569 0
M  V30 28052 O 2628.25 -0.562951 1.7097 0
M  V30 28053 H 2624.63 0.0367677 0.751101 0
M  V30 28054 H 2626.6 0.992066 2.81426 0
M  V30 28055 C 2625.35 -0.680845 3.40969 0
M  V30 28056 H 2624.67 -0.0443259 3.99775 0
M  V30 28057 H 2626.11 -1.07808 4.10065 0
M  V30 28058 C 2624.57 -1.83808 2.82341 0
M  V30 28059 O 2625.1 -2.93451 2.74316 0
M  V30 28060 N 2623.31 -1.64346 2.39664 0
M  V30 28061 H 2622.85 -0.751625 2.46391 0
M  V30 28062 H 2622.81 -2.41937 2.00783 0
M  V30 28063 N 2626.58 -1.48101 0.53888 0
M  V30 28064 C 2627.52 -2.27763 -0.256238 0
M  V30 28065 C 2628.53 -1.35905 -0.896306 0
M  V30 28066 O 2629.72 -1.60882 -0.773247 0
M  V30 28067 C 2626.82 -3.0958 -1.3789 0
M  V30 28068 C 2625.99 -4.29276 -0.839084 0
M  V30 28069 C 2625.05 -4.92833 -1.84397 0
M  V30 28070 O 2624.08 -5.51781 -1.39736 0
M  V30 28071 N 2625.28 -4.85875 -3.17657 0
M  V30 28072 H 2628.04 -2.96642 0.42702 0
M  V30 28073 H 2625.6 -1.57526 0.373774 0
M  V30 28074 H 2627.6 -3.48967 -2.04949 0
M  V30 28075 H 2626.17 -2.43063 -1.96568 0
M  V30 28076 H 2625.39 -3.94199 0.00776216 0
M  V30 28077 H 2626.67 -5.06739 -0.457459 0
M  V30 28078 H 2626.07 -4.3915 -3.56601 0
M  V30 28079 H 2624.63 -5.29336 -3.80325 0
M  V30 28080 N 2628.06 -0.274434 -1.55192 0
M  V30 28081 C 2629.02 0.60024 -2.21201 0
M  V30 28082 C 2630.02 1.08185 -1.18965 0
M  V30 28083 O 2631.21 0.982132 -1.43874 0
M  V30 28084 C 2628.35 1.82804 -2.87742 0
M  V30 28085 H 2629.54 0.0239155 -2.9989 0
M  V30 28086 H 2627.09 -0.0250467 -1.5628 0
M  V30 28087 H 2627.83 2.44489 -2.13062 0
M  V30 28088 H 2627.61 1.49063 -3.62661 0
M  V30 28089 H 2629.1 2.45005 -3.38175 0
M  V30 28090 N 2629.54 1.576 -0.00170483 0
M  V30 28091 C 2630.76 1.95325 0.697355 0
M  V30 28092 C 2631.19 0.876735 1.66418 0
M  V30 28093 O 2630.55 -0.164976 1.80548 0
M  V30 28094 C 2630.6 3.32146 1.40397 0
M  V30 28095 O 2629.7 3.2657 2.51844 0
M  V30 28096 H 2629.04 0.637603 0.185362 0
M  V30 28097 H 2631.57 2.04525 -0.0554025 0
M  V30 28098 H 2631.58 3.67751 1.76701 0
M  V30 28099 H 2630.26 4.1005 0.695095 0
M  V30 28100 H 2628.83 3.02644 2.17856 0
M  V30 28101 N 2631.02 -0.271076 1.55251 0
M  V30 28102 C 2632.43 -0.618367 1.47134 0
M  V30 28103 C 2632.63 -1.89426 0.687028 0
M  V30 28104 O 2631.69 -2.51653 0.206653 0
M  V30 28105 C 2633 -0.743541 2.91362 0
M  V30 28106 C 2634.55 -0.837469 3.01588 0
M  V30 28107 C 2635.03 -0.994404 4.47074 0
M  V30 28108 N 2636.52 -1.05988 4.50911 0
M  V30 28109 C 2637.25 -1.20014 5.607 0
M  V30 28110 N 2636.75 -1.30748 6.80351 0
M  V30 28111 N 2638.54 -1.2314 5.48446 0
M  V30 28112 H 2630.69 0.56682 2.04697 0
M  V30 28113 H 2632.95 0.192182 0.928316 0
M  V30 28114 H 2632.66 0.123555 3.51483 0
M  V30 28115 H 2632.53 -1.62322 3.40487 0
M  V30 28116 H 2634.92 -1.69503 2.41563 0
M  V30 28117 H 2635 0.0668536 2.55713 0
M  V30 28118 H 2634.65 -0.141492 5.07703 0
M  V30 28119 H 2634.58 -1.9134 4.90608 0
M  V30 28120 H 2637.07 -0.989252 3.64722 0
M  V30 28121 H 2637.38 -1.41289 7.59774 0
M  V30 28122 H 2635.73 -1.27749 6.83158 0
M  V30 28123 H 2638.92 -1.14386 4.53909 0
M  V30 28124 H 2639.09 -1.33727 6.34051 0
M  V30 28125 N 2632.5 -1.48217 -0.535675 0
M  V30 28126 C 2633.91 -1.4955 -1.11767 0
M  V30 28127 C 2634.26 -0.262104 -1.94441 0
M  V30 28128 O 2633.38 0.63125 -2.06988 0
M  V30 28129 C 2633.98 -2.70978 -2.03363 0
M  V30 28130 C 2632.54 -2.75201 -2.56791 0
M  V30 28131 C 2631.68 -2.4298 -1.33627 0
M  V30 28132 H 2634.64 -1.55415 -0.321205 0
M  V30 28133 H 2634.66 -2.49172 -2.87565 0
M  V30 28134 H 2634.17 -3.6073 -1.43163 0
M  V30 28135 H 2632.27 -1.89643 -3.20728 0
M  V30 28136 H 2632.38 -3.76477 -2.96313 0
M  V30 28137 H 2630.75 -1.94015 -1.65017 0
M  V30 28138 H 2631.53 -3.34965 -0.751881 0
M  V30 28139 N 2633.97 0.784108 -1.3671 0
M  V30 28140 C 2635.2 1.57075 -1.34206 0
M  V30 28141 C 2635.61 1.89041 0.0774613 0
M  V30 28142 O 2634.96 1.50994 1.04626 0
M  V30 28143 C 2635.02 2.91531 -2.10356 0
M  V30 28144 C 2634.68 2.82265 -3.5941 0
M  V30 28145 C 2635.68 2.54143 -4.5355 0
M  V30 28146 C 2633.36 3.00676 -4.02367 0
M  V30 28147 C 2635.36 2.44541 -5.88624 0
M  V30 28148 C 2633.04 2.90695 -5.37531 0
M  V30 28149 C 2634.04 2.62666 -6.30473 0
M  V30 28150 O 2633.73 2.52689 -7.63154 0
M  V30 28151 H 2633.46 0.493677 -0.461799 0
M  V30 28152 H 2636.02 0.980681 -1.80477 0
M  V30 28153 H 2634.25 3.52609 -1.58756 0
M  V30 28154 H 2635.94 3.52842 -2.00643 0
M  V30 28155 H 2636.7 2.39617 -4.21673 0
M  V30 28156 H 2632.58 3.21497 -3.30395 0
M  V30 28157 H 2636.12 2.22584 -6.61137 0
M  V30 28158 H 2632.02 3.04785 -5.69014 0
M  V30 28159 H 2632.79 2.68131 -7.73336 0
M  V30 28160 N 2635.45 1.21076 1.00888 0
M  V30 28161 C 2636.68 1.05224 1.78725 0
M  V30 28162 C 2637.1 -0.393762 1.83932 0
M  V30 28163 O 2636.46 -1.2839 1.28006 0
M  V30 28164 C 2636.51 1.64949 3.20662 0
M  V30 28165 O 2635.61 0.892344 4.0263 0
M  V30 28166 H 2634.95 0.370583 0.550966 0
M  V30 28167 H 2637.48 1.60536 1.26844 0
M  V30 28168 H 2637.49 1.69008 3.71349 0
M  V30 28169 H 2636.17 2.70183 3.16187 0
M  V30 28170 H 2634.75 0.926555 3.61205 0
M  V30 28171 N 2636.93 -1.2032 1.01789 0
M  V30 28172 C 2638.18 -1.89721 0.70797 0
M  V30 28173 C 2638.51 -1.78931 -0.762504 0
M  V30 28174 O 2637.76 -1.16864 -1.56975 0
M  V30 28175 C 2638.06 -3.40347 1.09082 0
M  V30 28176 C 2637.73 -3.71338 2.55772 0
M  V30 28177 C 2636.39 -3.79506 2.95852 0
M  V30 28178 C 2638.74 -3.85536 3.5073 0
M  V30 28179 C 2636.07 -3.99332 4.29827 0
M  V30 28180 C 2638.42 -4.06872 4.84394 0
M  V30 28181 C 2637.08 -4.1327 5.24179 0
M  V30 28182 H 2636.35 -0.694238 0.259064 0
M  V30 28183 H 2639 -1.42553 1.27871 0
M  V30 28184 H 2637.31 -3.89338 0.438521 0
M  V30 28185 H 2639 -3.92344 0.828705 0
M  V30 28186 H 2635.59 -3.6558 2.23717 0
M  V30 28187 H 2639.78 -3.78579 3.20923 0
M  V30 28188 H 2635.03 -4.02521 4.60203 0
M  V30 28189 H 2639.21 -4.16801 5.57898 0
M  V30 28190 H 2636.83 -4.28385 6.28005 0
M  V30 28191 N 2638.41 -0.794293 -1.3612 0
M  V30 28192 C 2639.64 -0.380472 -2.03066 0
M  V30 28193 C 2640.05 1.00946 -1.6002 0
M  V30 28194 O 2639.39 1.65966 -0.787454 0
M  V30 28195 C 2639.45 -0.370403 -3.57587 0
M  V30 28196 C 2639.12 -1.70875 -4.23852 0
M  V30 28197 C 2640.11 -2.66503 -4.46399 0
M  V30 28198 C 2637.8 -1.98938 -4.61225 0
M  V30 28199 C 2639.79 -3.88387 -5.05405 0
M  V30 28200 C 2637.48 -3.21088 -5.19948 0
M  V30 28201 C 2638.48 -4.15631 -5.41978 0
M  V30 28202 O 2638.16 -5.35627 -5.99466 0
M  V30 28203 H 2637.9 -0.154255 -0.658165 0
M  V30 28204 H 2640.45 -1.07573 -1.74978 0
M  V30 28205 H 2638.68 0.381377 -3.84815 0
M  V30 28206 H 2640.37 0.019418 -4.05895 0
M  V30 28207 H 2641.14 -2.4611 -4.17917 0
M  V30 28208 H 2637.01 -1.26166 -4.434 0
M  V30 28209 H 2640.56 -4.62194 -5.22516 0
M  V30 28210 H 2636.46 -3.41357 -5.47856 0
M  V30 28211 H 2637.22 -5.36756 -6.17928 0
M  V30 28212 N 2639.89 1.47813 -0.546727 0
M  V30 28213 C 2641.11 2.07389 -0.0213045 0
M  V30 28214 C 2641.54 1.39825 1.2582 0
M  V30 28215 O 2640.89 0.469711 1.7511 0
M  V30 28216 C 2640.94 3.60206 0.168439 0
M  V30 28217 O 2640.05 3.93524 1.2334 0
M  V30 28218 H 2639.39 0.662361 -0.0466225 0
M  V30 28219 H 2641.92 1.89984 -0.759421 0
M  V30 28220 H 2641.93 4.06171 0.385911 0
M  V30 28221 H 2640.6 4.08782 -0.766147 0
M  V30 28222 H 2639.18 3.59318 0.997256 0
M  V30 28223 N 2641.36 0.28266 1.55044 0
M  V30 28224 C 2642.59 -0.337941 2.04628 0
M  V30 28225 C 2643.01 -1.48121 1.15939 0
M  V30 28226 O 2642.37 -1.80596 0.159564 0
M  V30 28227 C 2642.42 -0.789298 3.51856 0
M  V30 28228 O 2641.52 -1.89585 3.66239 0
M  V30 28229 H 2640.87 -0.0687145 0.660435 0
M  V30 28230 H 2643.4 0.41916 2.0026 0
M  V30 28231 H 2643.41 -1.08304 3.93363 0
M  V30 28232 H 2642.08 0.047115 4.15873 0
M  V30 28233 H 2640.66 -1.60407 3.36636 0
M  V30 28234 N 2642.84 -1.57597 0.0100627 0
M  V30 28235 C 2643.77 -2.12086 -0.97682 0
M  V30 28236 C 2644.75 -1.03237 -1.35189 0
M  V30 28237 O 2645.94 -1.30973 -1.43387 0
M  V30 28238 C 2643.07 -2.6324 -2.26544 0
M  V30 28239 C 2642.02 -3.76705 -2.03169 0
M  V30 28240 C 2641.35 -4.14212 -3.38131 0
M  V30 28241 C 2642.65 -5.0357 -1.38617 0
M  V30 28242 H 2644.34 -2.94795 -0.523093 0
M  V30 28243 H 2641.89 -1.4181 -0.25017 0
M  V30 28244 H 2643.84 -2.99989 -2.95947 0
M  V30 28245 H 2642.57 -1.77666 -2.74048 0
M  V30 28246 H 2641.22 -3.40365 -1.36189 0
M  V30 28247 H 2640.87 -3.25647 -3.83357 0
M  V30 28248 H 2640.57 -4.90662 -3.23303 0
M  V30 28249 H 2642.1 -4.53529 -4.08833 0
M  V30 28250 H 2643.51 -5.38026 -1.97991 0
M  V30 28251 H 2641.91 -5.84891 -1.34246 0
M  V30 28252 H 2642.98 -4.83587 -0.356637 0
M  V30 28253 N 2644.32 0.262839 -1.55393 0
M  V30 28254 C 2645.57 0.990912 -1.75681 0
M  V30 28255 C 2645.88 1.8708 -0.571003 0
M  V30 28256 O 2647.09 2.63442 -0.656532 0
M  V30 28257 C 2645.54 1.81183 -3.10968 0
M  V30 28258 C 2645.15 0.980111 -4.37147 0
M  V30 28259 C 2646.9 2.53359 -3.40602 0
M  V30 28260 C 2644.8 1.796 -5.6347 0
M  V30 28261 H 2643.73 0.373704 -0.654875 0
M  V30 28262 H 2646.38 0.246171 -1.81841 0
M  V30 28263 H 2644.77 2.59792 -2.98872 0
M  V30 28264 H 2645.94 0.237477 -4.60188 0
M  V30 28265 H 2644.26 0.372424 -4.14731 0
M  V30 28266 H 2646.85 3.14825 -4.32191 0
M  V30 28267 H 2647.2 3.24164 -2.61196 0
M  V30 28268 H 2647.73 1.81773 -3.53841 0
M  V30 28269 H 2644.47 1.13197 -6.45652 0
M  V30 28270 H 2643.99 2.51433 -5.44556 0
M  V30 28271 H 2645.67 2.36713 -6.02143 0
M  V30 28272 N 2645.8 1.48499 0.527807 0
M  V30 28273 C 2647.02 1.60549 1.31297 0
M  V30 28274 C 2647.45 0.266753 1.86199 0
M  V30 28275 O 2646.81 -0.761889 1.64514 0
M  V30 28276 C 2646.85 2.65682 2.43814 0
M  V30 28277 O 2645.96 2.22993 3.46912 0
M  V30 28278 H 2645.3 0.538284 0.388775 0
M  V30 28279 H 2647.83 1.94501 0.634862 0
M  V30 28280 H 2647.84 2.87023 2.89968 0
M  V30 28281 H 2646.51 3.62872 2.03215 0
M  V30 28282 H 2645.09 2.11875 3.06861 0
M  V30 28283 N 2647.28 -0.776847 1.37123 0
M  V30 28284 C 2648.51 -1.56361 1.35037 0
M  V30 28285 C 2648.92 -1.8908 -0.0674349 0
M  V30 28286 O 2648.26 -1.51547 -1.03823 0
M  V30 28287 C 2648.32 -2.90412 2.11899 0
M  V30 28288 C 2647.98 -2.80355 3.60901 0
M  V30 28289 C 2648.98 -2.51734 4.54891 0
M  V30 28290 C 2646.67 -2.98538 4.03956 0
M  V30 28291 C 2648.66 -2.41416 5.89913 0
M  V30 28292 C 2646.35 -2.8784 5.39065 0
M  V30 28293 C 2647.35 -2.59319 6.31857 0
M  V30 28294 O 2647.03 -2.48638 7.64483 0
M  V30 28295 H 2646.77 -0.491221 0.464411 0
M  V30 28296 H 2649.32 -0.971096 1.80994 0
M  V30 28297 H 2647.55 -3.51763 1.60624 0
M  V30 28298 H 2649.24 -3.51773 2.02511 0
M  V30 28299 H 2650 -2.37378 4.22938 0
M  V30 28300 H 2645.88 -3.1974 3.32095 0
M  V30 28301 H 2649.43 -2.19075 6.62308 0
M  V30 28302 H 2645.32 -3.01763 5.70622 0
M  V30 28303 H 2646.09 -2.64026 7.74747 0
M  V30 28304 N 2648.76 -1.2161 -1.00244 0
M  V30 28305 C 2649.67 -0.993746 -2.12513 0
M  V30 28306 C 2650.68 0.0549633 -1.73913 0
M  V30 28307 O 2651.86 -0.135654 -2.00943 0
M  V30 28308 C 2648.92 -0.564013 -3.42082 0
M  V30 28309 C 2647.98 -1.68523 -3.9484 0
M  V30 28310 C 2647.22 -1.27591 -5.18224 0
M  V30 28311 O 2647.44 -0.150606 -5.70201 0
M  V30 28312 O 2646.37 -2.0888 -5.64493 0
M  V30 28313 H 2650.2 -1.93412 -2.34149 0
M  V30 28314 H 2647.78 -1.0012 -1.10889 0
M  V30 28315 H 2649.67 -0.334268 -4.20072 0
M  V30 28316 H 2648.34 0.347608 -3.21828 0
M  V30 28317 H 2647.25 -1.96941 -3.18065 0
M  V30 28318 H 2648.58 -2.57437 -4.19508 0
M  V30 28319 N 2650.23 1.19778 -1.02425 0
M  V30 28320 C 2651.14 2.26505 -0.610958 0
M  V30 28321 C 2652.16 1.70338 0.355122 0
M  V30 28322 O 2653.34 2.00258 0.21416 0
M  V30 28323 C 2650.4 3.46681 0.0365312 0
M  V30 28324 C 2649.46 4.18047 -0.976463 0
M  V30 28325 C 2648.69 5.32486 -0.359777 0
M  V30 28326 O 2648.92 5.64203 0.838501 0
M  V30 28327 O 2647.85 5.92126 -1.08032 0
M  V30 28328 H 2651.68 2.64089 -1.49969 0
M  V30 28329 H 2649.26 1.26543 -0.794178 0
M  V30 28330 H 2651.14 4.19518 0.397786 0
M  V30 28331 H 2649.82 3.10956 0.899344 0
M  V30 28332 H 2648.73 3.47349 -1.38922 0
M  V30 28333 H 2650.06 4.57732 -1.80949 0
M  V30 28334 N 2651.71 0.801501 1.35697 0
M  V30 28335 C 2652.99 0.302971 1.93239 0
M  V30 28336 C 2653.37 -1.20669 1.73211 0
M  V30 28337 O 2652.72 -2.00383 1.09812 0
M  V30 28338 C 2652.93 0.708807 3.41726 0
M  V30 28339 C 2654.27 0.695402 4.18867 0
M  V30 28340 O 2655.3 0.650033 3.50219 0
M  V30 28341 O 2654.16 0.749176 5.41341 0
M  V30 28342 H 2651.25 0.0780511 0.823309 0
M  V30 28343 H 2653.8 0.884857 1.44805 0
M  V30 28344 H 2652.57 1.7495 3.50012 0
M  V30 28345 H 2652.19 0.101454 3.97471 0
M  V30 28346 N 2653.19 -1.47521 0.554558 0
M  V30 28347 C 2654.12 -2.28022 -0.232066 0
M  V30 28348 C 2655.13 -1.36848 -0.881841 0
M  V30 28349 O 2656.32 -1.61693 -0.75614 0
M  V30 28350 C 2653.42 -3.11025 -1.34599 0
M  V30 28351 C 2652.6 -4.30142 -0.793506 0
M  V30 28352 C 2651.66 -4.94761 -1.79159 0
M  V30 28353 O 2650.68 -5.53232 -1.33876 0
M  V30 28354 N 2651.88 -4.89216 -3.12486 0
M  V30 28355 H 2654.65 -2.96173 0.458459 0
M  V30 28356 H 2652.21 -1.57121 0.390461 0
M  V30 28357 H 2654.2 -3.51121 -2.01236 0
M  V30 28358 H 2652.77 -2.45134 -1.93979 0
M  V30 28359 H 2651.99 -3.94169 0.0495718 0
M  V30 28360 H 2653.28 -5.07196 -0.403686 0
M  V30 28361 H 2652.68 -4.42907 -3.51923 0
M  V30 28362 H 2651.23 -5.3334 -3.74689 0
M  V30 28363 N 2654.67 -0.290879 -1.54892 0
M  V30 28364 C 2656.08 0.0628152 -1.59476 0
M  V30 28365 C 2656.28 1.53278 -1.30798 0
M  V30 28366 O 2655.34 2.28404 -1.07648 0
M  V30 28367 C 2656.65 -0.326014 -2.98927 0
M  V30 28368 C 2658.2 -0.273937 -3.11799 0
M  V30 28369 C 2658.68 -0.637438 -4.53542 0
M  V30 28370 N 2660.17 -0.589587 -4.59432 0
M  V30 28371 C 2660.9 -0.84345 -5.67163 0
M  V30 28372 N 2660.4 -1.16275 -6.82973 0
M  V30 28373 N 2662.19 -0.771189 -5.56785 0
M  V30 28374 H 2654.34 -1.24899 -1.71796 0
M  V30 28375 H 2656.6 -0.505677 -0.80187 0
M  V30 28376 H 2656.31 -1.34893 -3.24803 0
M  V30 28377 H 2656.18 0.325375 -3.75794 0
M  V30 28378 H 2658.57 0.739715 -2.85679 0
M  V30 28379 H 2658.65 -0.959808 -2.3711 0
M  V30 28380 H 2658.3 -1.64885 -4.80391 0
M  V30 28381 H 2658.23 0.070394 -5.26553 0
M  V30 28382 H 2660.72 -0.353318 -3.76245 0
M  V30 28383 H 2661.03 -1.34271 -7.61046 0
M  V30 28384 H 2659.38 -1.20069 -6.8455 0
M  V30 28385 H 2662.57 -0.521465 -4.65186 0
M  V30 28386 H 2662.74 -0.972408 -6.40662 0
M  V30 28387 N 2656.15 1.57589 -0.0184203 0
M  V30 28388 C 2657.08 2.06451 0.99552 0
M  V30 28389 C 2658.09 0.985871 1.29555 0
M  V30 28390 O 2659.28 1.26229 1.26208 0
M  V30 28391 C 2656.38 2.46506 2.32568 0
M  V30 28392 C 2655.55 3.77323 2.21238 0
M  V30 28393 C 2654.61 4.04045 3.37097 0
M  V30 28394 O 2653.64 4.74451 3.1446 0
M  V30 28395 N 2654.84 3.5338 4.60547 0
M  V30 28396 H 2657.6 2.9406 0.578694 0
M  V30 28397 H 2655.17 1.6102 0.168575 0
M  V30 28398 H 2657.16 2.61483 3.08883 0
M  V30 28399 H 2655.73 1.6432 2.65928 0
M  V30 28400 H 2654.95 3.72246 1.29717 0
M  V30 28401 H 2656.24 4.6305 2.1086 0
M  V30 28402 H 2655.63 2.964 4.81834 0
M  V30 28403 H 2654.19 3.73654 5.34066 0
M  V30 28404 N 2657.62 -0.254594 1.5553 0
M  V30 28405 C 2658.87 -0.981762 1.76652 0
M  V30 28406 C 2659.19 -1.86144 0.580996 0
M  V30 28407 O 2658.46 -1.91699 -0.403503 0
M  V30 28408 H 2657.04 -0.365487 0.651482 0
M  V30 28409 H 2659.7 -0.274392 1.92959 0
M  V30 28410 H 2658.8 -1.60798 2.67489 0
M  V30 28411 N 2659.1 -1.48777 -0.519925 0
M  V30 28412 C 2660.06 -1.63553 -1.60571 0
M  V30 28413 C 2661.06 -0.50826 -1.52556 0
M  V30 28414 O 2662.25 -0.77429 -1.56046 0
M  V30 28415 C 2659.39 -1.61517 -3.00208 0
M  V30 28416 H 2660.58 -2.60378 -1.48806 0
M  V30 28417 H 2658.13 -1.37524 -0.742748 0
M  V30 28418 H 2658.87 -0.662065 -3.1747 0
M  V30 28419 H 2658.65 -2.43365 -3.07435 0
M  V30 28420 H 2660.14 -1.75071 -3.79131 0
M  V30 28421 N 2660.58 0.769564 -1.37534 0
M  V30 28422 C 2661.49 1.91391 -1.35671 0
M  V30 28423 C 2662.51 1.72107 -0.255985 0
M  V30 28424 O 2663.68 1.95305 -0.491739 0
M  V30 28425 C 2660.75 3.26545 -1.16487 0
M  V30 28426 C 2659.81 3.58468 -2.36219 0
M  V30 28427 C 2659.04 4.87173 -2.1794 0
M  V30 28428 O 2659.26 5.5838 -1.1648 0
M  V30 28429 O 2658.2 5.18208 -3.06176 0
M  V30 28430 H 2662.02 1.95914 -2.32059 0
M  V30 28431 H 2659.61 0.912621 -1.18286 0
M  V30 28432 H 2661.49 4.07382 -1.07785 0
M  V30 28433 H 2660.17 3.22869 -0.231744 0
M  V30 28434 H 2659.07 2.77856 -2.50493 0
M  V30 28435 H 2660.41 3.66889 -3.28106 0
M  V30 28436 N 2662.06 1.22139 0.995977 0
M  V30 28437 C 2663.47 1.04138 1.54959 0
M  V30 28438 C 2663.82 -0.396114 1.9216 0
M  V30 28439 O 2662.95 -1.28066 1.74437 0
M  V30 28440 C 2663.54 1.88413 2.81577 0
M  V30 28441 C 2662.1 1.74718 3.33393 0
M  V30 28442 C 2661.25 1.8507 2.06506 0
M  V30 28443 H 2664.2 1.3603 0.817412 0
M  V30 28444 H 2664.22 1.39972 3.53819 0
M  V30 28445 H 2663.73 2.9303 2.5447 0
M  V30 28446 H 2661.83 0.728223 3.65414 0
M  V30 28447 H 2661.94 2.57209 4.04203 0
M  V30 28448 H 2660.31 1.28476 2.19923 0
M  V30 28449 H 2661.09 2.91211 1.81799 0
M  V30 28450 N 2663.54 -1.19233 1.03059 0
M  V30 28451 C 2664.95 -1.40988 0.747971 0
M  V30 28452 C 2665.15 -1.9015 -0.666719 0
M  V30 28453 O 2664.21 -2.07935 -1.43245 0
M  V30 28454 C 2665.52 -2.41948 1.78554 0
M  V30 28455 C 2667.07 -2.55692 1.80528 0
M  V30 28456 C 2667.54 -3.59908 2.83249 0
M  V30 28457 N 2669.04 -3.67406 2.82077 0
M  V30 28458 C 2669.77 -4.47741 3.58211 0
M  V30 28459 N 2669.27 -5.31767 4.44067 0
M  V30 28460 N 2671.06 -4.42407 3.46746 0
M  V30 28461 H 2663.21 -0.856434 1.94368 0
M  V30 28462 H 2665.47 -0.438633 0.84042 0
M  V30 28463 H 2665.18 -2.12852 2.79976 0
M  V30 28464 H 2665.05 -3.41149 1.60926 0
M  V30 28465 H 2667.44 -2.8411 0.79783 0
M  V30 28466 H 2667.52 -1.56639 2.02232 0
M  V30 28467 H 2667.17 -3.32232 3.84167 0
M  V30 28468 H 2667.1 -4.58616 2.58803 0
M  V30 28469 H 2669.59 -3.07396 2.19809 0
M  V30 28470 H 2669.9 -5.9019 4.98895 0
M  V30 28471 H 2668.24 -5.31222 4.48138 0
M  V30 28472 H 2671.44 -3.75806 2.79084 0
M  V30 28473 H 2671.61 -5.04776 4.06331 0
M  V30 28474 N 2665.01 -0.808686 -1.3527 0
M  V30 28475 C 2665.96 -0.218523 -2.29763 0
M  V30 28476 C 2666.93 0.648625 -1.52912 0
M  V30 28477 O 2668.12 0.593265 -1.81342 0
M  V30 28478 C 2665.26 0.625222 -3.39389 0
M  V30 28479 C 2664.37 -0.262592 -4.31201 0
M  V30 28480 C 2663.5 0.589359 -5.2792 0
M  V30 28481 C 2662.54 -0.298724 -6.11371 0
M  V30 28482 N 2661.68 0.51332 -7.00221 0
M  V30 28483 H 2666.52 -1.02973 -2.79644 0
M  V30 28484 H 2664.06 -0.519328 -1.37628 0
M  V30 28485 H 2666.02 1.12959 -4.01617 0
M  V30 28486 H 2664.65 1.40168 -2.9078 0
M  V30 28487 H 2663.7 -0.885078 -3.6996 0
M  V30 28488 H 2665.01 -0.946057 -4.89746 0
M  V30 28489 H 2664.16 1.15878 -5.95531 0
M  V30 28490 H 2662.9 1.30638 -4.69878 0
M  V30 28491 H 2661.91 -0.880396 -5.42705 0
M  V30 28492 H 2663.13 -1.01364 -6.71492 0
M  V30 28493 H 2661.08 1.21428 -6.44664 0
M  V30 28494 H 2661 -0.112055 -7.55917 0
M  V30 28495 H 2662.26 1.06595 -7.72177 0
M  V30 28496 N 2666.49 1.47225 -0.562374 0
M  V30 28497 C 2667.44 2.31778 0.195435 0
M  V30 28498 C 2668.43 1.43243 0.904305 0
M  V30 28499 O 2669.64 1.5998 0.825003 0
M  V30 28500 H 2666.02 0.747527 0.0818963 0
M  V30 28501 H 2667.99 2.93532 -0.536804 0
M  V30 28502 C 2666.74 3.26005 1.20897 0
M  V30 28503 H 2666.06 3.94096 0.672928 0
M  V30 28504 H 2667.5 3.87989 1.71 0
M  V30 28505 C 2665.96 2.49895 2.25951 0
M  V30 28506 O 2666.49 2.24715 3.32965 0
M  V30 28507 N 2664.69 2.10813 2.00015 0
M  V30 28508 H 2664.24 2.31491 1.13002 0
M  V30 28509 H 2664.2 1.60206 2.70521 0
M  V30 28510 N 2667.97 0.299089 1.54736 0
M  V30 28511 C 2669.22 -0.310748 2.00101 0
M  V30 28512 C 2669.55 -1.54042 1.18748 0
M  V30 28513 O 2668.8 -1.94081 0.251232 0
M  V30 28514 C 2669.1 -0.713773 3.502 0
M  V30 28515 C 2668.77 0.413952 4.48996 0
M  V30 28516 C 2667.43 0.723546 4.75729 0
M  V30 28517 C 2669.78 1.17266 5.07837 0
M  V30 28518 C 2667.11 1.795 5.58566 0
M  V30 28519 C 2669.46 2.23402 5.9184 0
M  V30 28520 C 2668.12 2.5497 6.16885 0
M  V30 28521 H 2667.39 -0.113711 0.732223 0
M  V30 28522 H 2670.04 0.417789 1.86887 0
M  V30 28523 H 2668.35 -1.52237 3.61014 0
M  V30 28524 H 2670.04 -1.19677 3.82725 0
M  V30 28525 H 2666.63 0.162551 4.28292 0
M  V30 28526 H 2670.82 0.946737 4.87186 0
M  V30 28527 H 2666.07 2.04433 5.76209 0
M  V30 28528 H 2670.25 2.82651 6.3646 0
M  V30 28529 H 2667.87 3.38126 6.80863 0
M  V30 28530 N 2669.45 -1.57577 0.0267774 0
M  V30 28531 C 2670.69 -1.91988 -0.653337 0
M  V30 28532 C 2671.03 -0.903293 -1.71913 0
M  V30 28533 O 2670.3 0.0743045 -1.94358 0
M  V30 28534 C 2670.59 -3.36888 -1.27194 0
M  V30 28535 C 2670.44 -4.49282 -0.215859 0
M  V30 28536 C 2671.76 -3.81707 -2.19062 0
M  V30 28537 H 2668.88 -0.698181 -0.236035 0
M  V30 28538 H 2671.52 -1.89816 0.083557 0
M  V30 28539 H 2669.67 -3.3887 -1.89999 0
M  V30 28540 H 2671.34 -4.59433 0.414571 0
M  V30 28541 H 2669.58 -4.31366 0.458931 0
M  V30 28542 H 2670.25 -5.47693 -0.688251 0
M  V30 28543 H 2672.73 -3.81447 -1.66246 0
M  V30 28544 H 2671.61 -4.83793 -2.59299 0
M  V30 28545 H 2671.87 -3.17078 -3.08081 0
M  V30 28546 N 2670.93 0.246342 -1.55663 0
M  V30 28547 C 2671.87 1.30501 -1.90363 0
M  V30 28548 C 2672.84 1.47799 -0.757931 0
M  V30 28549 O 2674.03 1.61773 -1.01163 0
M  V30 28550 C 2671.17 2.65531 -2.20425 0
M  V30 28551 C 2670.28 2.56236 -3.47803 0
M  V30 28552 C 2669.42 3.83623 -3.67433 0
M  V30 28553 C 2668.46 3.68948 -4.8841 0
M  V30 28554 N 2667.59 4.88228 -5.04557 0
M  V30 28555 H 2672.43 1.00208 -2.80646 0
M  V30 28556 H 2669.97 0.483553 -1.38925 0
M  V30 28557 H 2671.93 3.44131 -2.35859 0
M  V30 28558 H 2670.56 2.93971 -1.33345 0
M  V30 28559 H 2669.61 1.69202 -3.40697 0
M  V30 28560 H 2670.92 2.41302 -4.36549 0
M  V30 28561 H 2670.08 4.70666 -3.82829 0
M  V30 28562 H 2668.81 4.01455 -2.76921 0
M  V30 28563 H 2667.82 2.80288 -4.72989 0
M  V30 28564 H 2669.04 3.5261 -5.80381 0
M  V30 28565 H 2666.99 5.0642 -4.16983 0
M  V30 28566 H 2666.91 4.75927 -5.87392 0
M  V30 28567 H 2668.18 5.76768 -5.24365 0
M  V30 28568 N 2672.4 1.4905 0.512027 0
M  V30 28569 C 2673.82 1.51309 1.09373 0
M  V30 28570 C 2674.17 0.293005 1.94 0
M  V30 28571 O 2673.29 -0.59824 2.07966 0
M  V30 28572 C 2673.89 2.74179 1.99026 0
M  V30 28573 C 2672.45 2.79251 2.5238 0
M  V30 28574 C 2671.59 2.45075 1.29744 0
M  V30 28575 H 2674.54 1.55907 0.296439 0
M  V30 28576 H 2674.56 2.53716 2.83564 0
M  V30 28577 H 2674.08 3.62962 1.37406 0
M  V30 28578 H 2672.18 1.94722 3.1767 0
M  V30 28579 H 2672.29 3.81144 2.90286 0
M  V30 28580 H 2670.65 1.96615 1.61909 0
M  V30 28581 H 2671.44 3.36119 0.698496 0
M  V30 28582 N 2673.88 -0.762259 1.3794 0
M  V30 28583 C 2674.83 -1.89719 1.34572 0
M  V30 28584 C 2675.82 -1.67791 0.232958 0
M  V30 28585 O 2677.03 -1.75465 0.401516 0
M  V30 28586 H 2673.41 -0.624047 0.419605 0
M  V30 28587 H 2675.38 -1.89675 2.3036 0
M  V30 28588 C 2674.13 -3.27099 1.17904 0
M  V30 28589 H 2673.45 -3.44554 2.02787 0
M  V30 28590 H 2674.89 -4.06782 1.196 0
M  V30 28591 C 2673.35 -3.36705 -0.114669 0
M  V30 28592 O 2673.88 -3.86492 -1.09484 0
M  V30 28593 N 2672.08 -2.90111 -0.168579 0
M  V30 28594 H 2671.63 -2.49785 0.629714 0
M  V30 28595 H 2671.59 -2.96918 -1.03378 0
M  V30 28596 N 2675.36 -1.22666 -0.989486 0
M  V30 28597 C 2676.27 -1.01623 -2.11447 0
M  V30 28598 C 2677.29 0.0365144 -1.73962 0
M  V30 28599 O 2678.46 -0.156959 -2.00787 0
M  V30 28600 C 2675.53 -0.600264 -3.41464 0
M  V30 28601 C 2674.59 -1.72702 -3.9303 0
M  V30 28602 C 2673.82 -1.3308 -5.16842 0
M  V30 28603 O 2674.04 -0.211075 -5.70009 0
M  V30 28604 O 2672.98 -2.14855 -5.62246 0
M  V30 28605 H 2676.8 -1.95884 -2.32084 0
M  V30 28606 H 2674.39 -1.0129 -1.09821 0
M  V30 28607 H 2676.27 -0.378804 -4.19694 0
M  V30 28608 H 2674.95 0.313454 -3.22179 0
M  V30 28609 H 2673.85 -2.00303 -3.15958 0
M  V30 28610 H 2675.19 -2.61872 -4.16754 0
M  V30 28611 N 2676.84 1.18685 -1.0369 0
M  V30 28612 C 2678.07 1.92517 -0.757952 0
M  V30 28613 C 2678.48 1.7596 0.684368 0
M  V30 28614 O 2677.84 1.08676 1.46615 0
M  V30 28615 C 2677.89 3.4404 -1.10991 0
M  V30 28616 O 2677.61 3.60071 -2.4956 0
M  V30 28617 C 2679.11 4.34978 -0.85492 0
M  V30 28618 H 2676.33 0.611288 -0.27671 0
M  V30 28619 H 2678.88 1.50593 -1.38355 0
M  V30 28620 H 2677.03 3.83766 -0.529346 0
M  V30 28621 H 2677.45 4.53844 -2.62918 0
M  V30 28622 H 2678.92 5.39865 -1.15107 0
M  V30 28623 H 2679.4 4.38696 0.21043 0
M  V30 28624 H 2680 4.00944 -1.4186 0
M  V30 28625 N 2678.32 0.815849 1.34839 0
M  V30 28626 C 2679.26 0.230705 2.29644 0
M  V30 28627 C 2680.23 -0.640506 1.53254 0
M  V30 28628 O 2681.42 -0.58364 1.81654 0
M  V30 28629 C 2678.56 -0.607215 3.39716 0
M  V30 28630 C 2677.67 0.285455 4.31056 0
M  V30 28631 C 2676.81 -0.561353 5.28226 0
M  V30 28632 C 2675.85 0.331143 6.11204 0
M  V30 28633 N 2674.98 -0.476179 7.00483 0
M  V30 28634 H 2679.82 1.04455 2.79094 0
M  V30 28635 H 2677.36 0.526619 1.3735 0
M  V30 28636 H 2679.32 -1.10828 4.0221 0
M  V30 28637 H 2677.95 -1.38624 2.91519 0
M  V30 28638 H 2677 0.904686 3.69486 0
M  V30 28639 H 2678.31 0.972016 4.89237 0
M  V30 28640 H 2677.47 -1.12718 5.96137 0
M  V30 28641 H 2676.21 -1.28145 4.70564 0
M  V30 28642 H 2675.21 0.909165 5.42231 0
M  V30 28643 H 2676.44 1.04924 6.70945 0
M  V30 28644 H 2674.38 -1.18008 6.45299 0
M  V30 28645 H 2674.3 0.152141 7.55847 0
M  V30 28646 H 2675.57 -1.02498 7.72732 0
M  V30 28647 N 2679.8 -1.46924 0.570174 0
M  V30 28648 C 2681.02 -2.06824 0.056233 0
M  V30 28649 C 2681.44 -1.42088 -1.24324 0
M  V30 28650 O 2680.8 -0.521825 -1.74881 0
M  V30 28651 C 2680.85 -3.61268 -0.129454 0
M  V30 28652 O 2680.57 -4.23579 1.11857 0
M  V30 28653 C 2682.07 -4.38066 -0.679189 0
M  V30 28654 H 2679.29 -0.669002 0.0517378 0
M  V30 28655 H 2681.83 -1.88738 0.787277 0
M  V30 28656 H 2679.99 -3.78823 -0.810672 0
M  V30 28657 H 2680.4 -5.16289 0.924466 0
M  V30 28658 H 2681.88 -5.46766 -0.758348 0
M  V30 28659 H 2682.35 -4.05242 -1.69339 0
M  V30 28660 H 2682.96 -4.25287 -0.0332489 0
M  V30 28661 N 2681.27 -0.307291 -1.54575 0
M  V30 28662 C 2682.5 0.302122 -2.04379 0
M  V30 28663 C 2682.91 1.47587 -1.18383 0
M  V30 28664 O 2682.25 1.82569 -0.203552 0
M  V30 28665 C 2682.32 0.815243 -3.50134 0
M  V30 28666 C 2681.98 -0.234057 -4.564 0
M  V30 28667 C 2682.98 -1.06465 -5.08882 0
M  V30 28668 C 2680.66 -0.377566 -5.00879 0
M  V30 28669 C 2682.66 -2.02463 -6.0439 0
M  V30 28670 C 2680.34 -1.34099 -5.96205 0
M  V30 28671 C 2681.34 -2.163 -6.47845 0
M  V30 28672 O 2681.03 -3.11007 -7.41303 0
M  V30 28673 H 2680.76 0.0686721 -0.672503 0
M  V30 28674 H 2683.32 -0.446717 -2.00483 0
M  V30 28675 H 2681.55 1.61472 -3.51374 0
M  V30 28676 H 2683.23 1.34122 -3.831 0
M  V30 28677 H 2684 -0.96468 -4.75309 0
M  V30 28678 H 2679.88 0.252324 -4.60309 0
M  V30 28679 H 2683.42 -2.66663 -6.44621 0
M  V30 28680 H 2679.32 -1.44165 -6.29195 0
M  V30 28681 H 2680.09 -3.06058 -7.59125 0
M  V30 28682 N 2682.75 1.57561 -0.0351337 0
M  V30 28683 C 2684 1.92047 0.642195 0
M  V30 28684 C 2684.33 0.91209 1.71788 0
M  V30 28685 O 2683.58 -0.0780809 1.95544 0
M  V30 28686 C 2683.88 3.33252 1.29143 0
M  V30 28687 C 2683.55 4.49574 0.345525 0
M  V30 28688 C 2682.21 4.81125 0.0851929 0
M  V30 28689 C 2684.56 5.20315 -0.303661 0
M  V30 28690 C 2681.89 5.8077 -0.832029 0
M  V30 28691 C 2684.24 6.2094 -1.20897 0
M  V30 28692 C 2682.9 6.50928 -1.47814 0
M  V30 28693 H 2682.17 0.70275 0.234996 0
M  V30 28694 H 2684.82 1.91248 -0.0981865 0
M  V30 28695 H 2683.13 3.30341 2.1067 0
M  V30 28696 H 2684.82 3.57209 1.82217 0
M  V30 28697 H 2681.41 4.24944 0.558609 0
M  V30 28698 H 2685.6 4.96165 -0.115602 0
M  V30 28699 H 2680.85 6.02348 -1.04821 0
M  V30 28700 H 2685.03 6.74872 -1.71816 0
M  V30 28701 H 2682.65 7.27956 -2.19052 0
M  V30 28702 N 2684.23 -0.238084 1.55791 0
M  V30 28703 C 2685.48 -0.962003 1.79212 0
M  V30 28704 C 2685.83 -1.82624 0.605495 0
M  V30 28705 O 2685.12 -1.87357 -0.401007 0
M  V30 28706 C 2685.32 -1.8487 3.05873 0
M  V30 28707 C 2685.15 -1.07178 4.36741 0
M  V30 28708 C 2683.92 -0.773336 4.99347 0
M  V30 28709 C 2686.11 -0.445078 5.12371 0
M  V30 28710 N 2684.1 0.0267116 6.13894 0
M  V30 28711 C 2685.47 0.219131 6.19613 0
M  V30 28712 C 2687.52 -0.356435 4.96623 0
M  V30 28713 C 2686.23 0.963483 7.12818 0
M  V30 28714 C 2688.25 0.374408 5.90214 0
M  V30 28715 C 2687.61 1.02722 6.9687 0
M  V30 28716 H 2683.71 -0.332836 0.707633 0
M  V30 28717 H 2686.3 -0.234334 1.93285 0
M  V30 28718 H 2684.47 -2.54832 2.93113 0
M  V30 28719 H 2686.2 -2.50884 3.17552 0
M  V30 28720 H 2682.95 -1.0873 4.6095 0
M  V30 28721 H 2683.38 0.415087 6.75726 0
M  V30 28722 H 2688.02 -0.846805 4.14233 0
M  V30 28723 H 2685.74 1.46543 7.94702 0
M  V30 28724 H 2689.32 0.44378 5.80105 0
M  V30 28725 H 2688.2 1.58371 7.68042 0
M  V30 28726 N 2685.71 -1.4932 -0.504115 0
M  V30 28727 C 2686.65 -1.65759 -1.606 0
M  V30 28728 C 2687.62 -0.49911 -1.58424 0
M  V30 28729 O 2688.81 -0.725759 -1.76458 0
M  V30 28730 C 2685.95 -1.72731 -2.98761 0
M  V30 28731 C 2685.06 -2.99862 -3.10977 0
M  V30 28732 C 2684.2 -2.97832 -4.39852 0
M  V30 28733 C 2683.24 -4.19556 -4.4569 0
M  V30 28734 N 2682.37 -4.15454 -5.65988 0
M  V30 28735 H 2687.21 -2.59846 -1.45891 0
M  V30 28736 H 2684.75 -1.28838 -0.709868 0
M  V30 28737 H 2686.71 -1.74754 -3.78836 0
M  V30 28738 H 2685.34 -0.82113 -3.12182 0
M  V30 28739 H 2684.39 -3.07465 -2.23985 0
M  V30 28740 H 2685.7 -3.89855 -3.1115 0
M  V30 28741 H 2684.86 -2.984 -5.28244 0
M  V30 28742 H 2683.6 -2.05612 -4.42239 0
M  V30 28743 H 2682.6 -4.19235 -3.55699 0
M  V30 28744 H 2683.83 -5.12965 -4.45021 0
M  V30 28745 H 2681.77 -3.26069 -5.69223 0
M  V30 28746 H 2681.69 -4.99179 -5.67765 0
M  V30 28747 H 2682.96 -4.20121 -6.56597 0
M  V30 28748 N 2687.19 0.754933 -1.38342 0
M  V30 28749 C 2688.43 1.51626 -1.34675 0
M  V30 28750 C 2688.76 1.94096 0.0635695 0
M  V30 28751 O 2688.04 1.65332 1.02447 0
M  V30 28752 C 2688.32 2.76977 -2.30121 0
M  V30 28753 C 2688.18 2.40654 -3.80008 0
M  V30 28754 C 2689.49 3.78994 -2.23722 0
M  V30 28755 H 2686.61 0.550048 -0.490527 0
M  V30 28756 H 2689.26 0.864777 -1.69179 0
M  V30 28757 H 2687.41 3.32567 -2.00827 0
M  V30 28758 H 2689.08 1.90849 -4.19969 0
M  V30 28759 H 2687.32 1.7313 -3.97754 0
M  V30 28760 H 2687.99 3.30332 -4.4225 0
M  V30 28761 H 2690.47 3.3294 -2.4958 0
M  V30 28762 H 2689.34 4.64398 -2.92618 0
M  V30 28763 H 2689.6 4.24482 -1.23561 0
M  V30 28764 N 2688.66 1.23189 0.982967 0
M  V30 28765 C 2689.6 0.968608 2.07727 0
M  V30 28766 C 2690.61 -0.0564535 1.62702 0
M  V30 28767 O 2691.8 0.178765 1.77603 0
M  V30 28768 C 2688.9 0.437033 3.3607 0
M  V30 28769 C 2688.07 1.52166 4.10078 0
M  V30 28770 C 2687.13 0.995411 5.16699 0
M  V30 28771 O 2686.16 1.68382 5.43724 0
M  V30 28772 N 2687.36 -0.17809 5.80227 0
M  V30 28773 H 2690.12 1.91074 2.30891 0
M  V30 28774 H 2687.68 1.14012 1.14947 0
M  V30 28775 H 2689.68 0.0700762 4.04639 0
M  V30 28776 H 2688.25 -0.410454 3.09894 0
M  V30 28777 H 2687.47 2.0615 3.36 0
M  V30 28778 H 2688.75 2.25113 4.56291 0
M  V30 28779 H 2688.15 -0.753997 5.60653 0
M  V30 28780 H 2686.71 -0.486335 6.49983 0
M  V30 28781 N 2690.14 -1.18133 1.04318 0
M  V30 28782 C 2691.09 -2.19778 0.606769 0
M  V30 28783 C 2692.08 -1.57 -0.352116 0
M  V30 28784 O 2693.27 -1.76174 -0.170764 0
M  V30 28785 C 2690.4 -3.4329 -0.026184 0
M  V30 28786 C 2689.48 -4.13185 0.956001 0
M  V30 28787 N 2689.87 -4.59041 2.12403 0
M  V30 28788 C 2688.17 -4.39081 0.782551 0
M  V30 28789 C 2688.87 -5.12877 2.74467 0
M  V30 28790 N 2687.85 -5.04545 2.02325 0
M  V30 28791 H 2691.65 -2.52927 1.49684 0
M  V30 28792 H 2689.16 -1.34366 0.912112 0
M  V30 28793 H 2691.16 -4.15373 -0.356544 0
M  V30 28794 H 2689.82 -3.11636 -0.911757 0
M  V30 28795 H 2690.83 -4.5341 2.5028 0
M  V30 28796 H 2687.51 -4.17467 -0.0527172 0
M  V30 28797 H 2688.9 -5.58543 3.73469 0
M  V30 28798 N 2691.62 -0.822988 -1.34405 0
M  V30 28799 C 2692.57 -0.217248 -2.26963 0
M  V30 28800 C 2693.55 0.618519 -1.48537 0
M  V30 28801 O 2694.75 0.473088 -1.7056 0
M  V30 28802 C 2691.88 0.619914 -3.37657 0
M  V30 28803 C 2690.96 -0.226485 -4.23495 0
M  V30 28804 N 2691.35 -1.29752 -4.88874 0
M  V30 28805 C 2689.65 -0.0108338 -4.45999 0
M  V30 28806 C 2690.35 -1.81563 -5.52639 0
M  V30 28807 N 2689.33 -1.11952 -5.31947 0
M  V30 28808 H 2693.13 -1.03651 -2.75016 0
M  V30 28809 H 2690.64 -0.665803 -1.48124 0
M  V30 28810 H 2692.64 1.07004 -4.02934 0
M  V30 28811 H 2691.3 1.43734 -2.91154 0
M  V30 28812 H 2692.31 -1.68032 -4.89883 0
M  V30 28813 H 2688.99 0.774422 -4.10255 0
M  V30 28814 H 2690.38 -2.71167 -6.1475 0
M  V30 28815 N 2693.1 1.4662 -0.577957 0
M  V30 28816 C 2694.03 2.27266 0.206272 0
M  V30 28817 C 2695.01 1.35335 0.901282 0
M  V30 28818 O 2696.19 1.64741 0.916122 0
M  V30 28819 C 2693.32 3.12942 1.29557 0
M  V30 28820 C 2692.37 4.20601 0.706907 0
M  V30 28821 S 2693.2 5.33499 -0.462552 0
M  V30 28822 C 2694.36 6.22741 0.628062 0
M  V30 28823 H 2694.59 2.93432 -0.478012 0
M  V30 28824 H 2692.12 1.5003 -0.364741 0
M  V30 28825 H 2694.08 3.62869 1.91928 0
M  V30 28826 H 2692.74 2.46098 1.95178 0
M  V30 28827 H 2691.93 4.80357 1.52556 0
M  V30 28828 H 2691.54 3.73662 0.158957 0
M  V30 28829 H 2693.83 6.60345 1.51494 0
M  V30 28830 H 2694.77 7.08068 0.0673716 0
M  V30 28831 H 2695.18 5.56785 0.93007 0
M  V30 28832 N 2694.58 0.315484 1.5441 0
M  V30 28833 C 2695.54 -0.541381 2.22714 0
M  V30 28834 C 2696.54 -1.04993 1.21792 0
M  V30 28835 O 2697.73 -0.943641 1.46428 0
M  V30 28836 C 2694.86 -1.75111 2.92488 0
M  V30 28837 H 2696.05 0.0556036 2.99848 0
M  V30 28838 H 2693.61 0.0664727 1.56159 0
M  V30 28839 H 2694.34 -2.38754 2.1947 0
M  V30 28840 H 2694.13 -1.39395 3.66485 0
M  V30 28841 H 2695.62 -2.35953 3.44552 0
M  V30 28842 N 2696.05 -1.5754 0.0434891 0
M  V30 28843 C 2697.47 -1.80065 -0.493311 0
M  V30 28844 C 2697.82 -0.955053 -1.71386 0
M  V30 28845 O 2696.94 -0.169472 -2.15735 0
M  V30 28846 C 2697.54 -3.2658 -0.901733 0
M  V30 28847 C 2696.1 -3.50049 -1.38356 0
M  V30 28848 C 2695.24 -2.75017 -0.355081 0
M  V30 28849 H 2698.19 -1.56396 0.269428 0
M  V30 28850 H 2698.21 -3.37079 -1.76517 0
M  V30 28851 H 2697.73 -3.88098 -0.0132028 0
M  V30 28852 H 2695.83 -2.93802 -2.29154 0
M  V30 28853 H 2695.94 -4.58764 -1.38102 0
M  V30 28854 H 2694.3 -2.40924 -0.826306 0
M  V30 28855 H 2695.09 -3.39258 0.525231 0
M  V30 28856 N 2697.53 0.229818 -1.55915 0
M  V30 28857 C 2698.76 0.97253 -1.82618 0
M  V30 28858 C 2699.18 1.78277 -0.62152 0
M  V30 28859 O 2698.53 1.77837 0.409925 0
M  V30 28860 C 2698.58 1.89674 -3.07744 0
M  V30 28861 O 2698.3 1.11926 -4.23561 0
M  V30 28862 C 2699.81 2.75403 -3.47373 0
M  V30 28863 H 2697.03 0.285408 -0.607275 0
M  V30 28864 H 2699.57 0.247543 -2.02996 0
M  V30 28865 H 2697.72 2.57578 -2.89365 0
M  V30 28866 H 2698.14 1.7459 -4.94589 0
M  V30 28867 H 2699.61 3.35969 -4.37982 0
M  V30 28868 H 2700.09 3.47381 -2.68743 0
M  V30 28869 H 2700.7 2.12925 -3.68162 0
M  V30 28870 N 2699.01 1.49585 0.49619 0
M  V30 28871 C 2699.96 1.66609 1.59719 0
M  V30 28872 C 2700.93 0.507504 1.58157 0
M  V30 28873 O 2702.11 0.735107 1.7607 0
M  V30 28874 C 2699.25 1.74313 2.97841 0
M  V30 28875 C 2698.37 3.01507 3.09382 0
M  V30 28876 C 2697.5 3.0016 4.38266 0
M  V30 28877 C 2696.54 4.21914 4.43458 0
M  V30 28878 N 2695.68 4.1845 5.63777 0
M  V30 28879 H 2700.52 2.60616 1.44511 0
M  V30 28880 H 2698.05 1.29213 0.703026 0
M  V30 28881 H 2700.01 1.7676 3.77904 0
M  V30 28882 H 2698.64 0.837674 3.11742 0
M  V30 28883 H 2697.69 3.08648 2.22352 0
M  V30 28884 H 2699.01 3.915 3.09079 0
M  V30 28885 H 2698.16 3.01198 5.26654 0
M  V30 28886 H 2696.9 2.07954 4.41142 0
M  V30 28887 H 2695.9 4.21116 3.53471 0
M  V30 28888 H 2697.13 5.15318 4.42294 0
M  V30 28889 H 2695.07 3.29084 5.67486 0
M  V30 28890 H 2694.99 5.02183 5.65109 0
M  V30 28891 H 2696.26 4.23597 6.54359 0
M  V30 28892 N 2700.49 -0.747586 1.3874 0
M  V30 28893 C 2701.77 -1.49784 1.25794 0
M  V30 28894 C 2702.15 -2.10648 -0.138038 0
M  V30 28895 O 2701.49 -1.97562 -1.14811 0
M  V30 28896 C 2701.7 -2.55938 2.37269 0
M  V30 28897 C 2703.05 -3.22674 2.75983 0
M  V30 28898 O 2704.08 -2.66246 2.36625 0
M  V30 28899 O 2702.93 -4.2475 3.43875 0
M  V30 28900 H 2700.03 -0.664535 0.492263 0
M  V30 28901 H 2702.57 -0.782484 1.50583 0
M  V30 28902 H 2701.35 -2.09255 3.30648 0
M  V30 28903 H 2700.97 -3.35048 2.14077 0
M  V30 28904 N 2701.97 -1.23709 -0.97642 0
M  V30 28905 C 2702.88 -1.0386 -2.10357 0
M  V30 28906 C 2703.89 0.0180614 -1.73991 0
M  V30 28907 O 2705.07 -0.178247 -2.0061 0
M  V30 28908 C 2702.13 -0.636447 -3.40808 0
M  V30 28909 C 2701.19 -1.76861 -3.91176 0
M  V30 28910 C 2700.43 -1.38555 -5.15401 0
M  V30 28911 O 2700.65 -0.27152 -5.69753 0
M  V30 28912 O 2699.58 -2.20806 -5.59936 0
M  V30 28913 H 2703.41 -1.98335 -2.29994 0
M  V30 28914 H 2701 -1.0245 -1.0874 0
M  V30 28915 H 2702.88 -0.423296 -4.19269 0
M  V30 28916 H 2701.55 0.279265 -3.22493 0
M  V30 28917 H 2700.46 -2.03643 -3.13816 0
M  V30 28918 H 2701.79 -2.66278 -4.13953 0
M  V30 28919 N 2703.44 1.17579 -1.04943 0
M  V30 28920 C 2704.69 1.87777 -0.758022 0
M  V30 28921 C 2705.02 1.80889 0.714796 0
M  V30 28922 O 2704.27 1.20985 1.53822 0
M  V30 28923 C 2704.57 3.37335 -1.18068 0
M  V30 28924 C 2704.24 3.64426 -2.65527 0
M  V30 28925 C 2702.9 3.71529 -3.0581 0
M  V30 28926 C 2705.25 3.76101 -3.60828 0
M  V30 28927 C 2702.58 3.87795 -4.40263 0
M  V30 28928 C 2704.93 3.93886 -4.95012 0
M  V30 28929 C 2703.6 3.99228 -5.34952 0
M  V30 28930 H 2702.87 0.687125 -0.27738 0
M  V30 28931 H 2705.51 1.39112 -1.31606 0
M  V30 28932 H 2703.82 3.88039 -0.541593 0
M  V30 28933 H 2705.52 3.90008 -0.932437 0
M  V30 28934 H 2702.11 3.5952 -2.33331 0
M  V30 28935 H 2706.29 3.69937 -3.30848 0
M  V30 28936 H 2701.55 3.90178 -4.70714 0
M  V30 28937 H 2705.72 4.01862 -5.68753 0
M  V30 28938 H 2703.35 4.11584 -6.39142 0
M  V30 28939 N 2704.92 0.830104 1.33967 0
M  V30 28940 C 2706.2 0.343892 1.92553 0
M  V30 28941 C 2706.58 -1.16968 1.75732 0
M  V30 28942 O 2705.93 -1.98009 1.14038 0
M  V30 28943 C 2706.14 0.781133 3.40146 0
M  V30 28944 C 2707.49 0.784093 4.17297 0
M  V30 28945 O 2708.51 0.724173 3.48761 0
M  V30 28946 O 2707.37 0.863834 5.3963 0
M  V30 28947 H 2704.46 0.0954972 0.821468 0
M  V30 28948 H 2707.01 0.915373 1.42895 0
M  V30 28949 H 2705.78 1.82335 3.46222 0
M  V30 28950 H 2705.4 0.18574 3.97166 0
M  V30 28951 N 2706.4 -1.46311 0.585725 0
M  V30 28952 C 2707.64 -2.04262 0.0751791 0
M  V30 28953 C 2708.01 -1.44699 -1.26199 0
M  V30 28954 O 2709.21 -1.93868 -1.86195 0
M  V30 28955 C 2707.48 -3.57397 0.0135408 0
M  V30 28956 S 2709.04 -4.36599 -0.438992 0
M  V30 28957 H 2705.85 -0.709933 0.0389353 0
M  V30 28958 H 2708.46 -1.79314 0.778902 0
M  V30 28959 H 2707.16 -3.98265 0.990628 0
M  V30 28960 H 2706.69 -3.86887 -0.712859 0
M  V30 28961 H 2708.71 -4.6642 -1.69312 0
M  V30 28962 N 2707.88 -0.323668 -1.54241 0
M  V30 28963 C 2708.83 0.542237 -2.2434 0
M  V30 28964 C 2709.8 1.11157 -1.23423 0
M  V30 28965 O 2710.98 1.15189 -1.52106 0
M  V30 28966 C 2708.12 1.6972 -3.00482 0
M  V30 28967 C 2707.23 1.15709 -4.16216 0
M  V30 28968 C 2706.37 2.27774 -4.79888 0
M  V30 28969 C 2705.41 1.71012 -5.87725 0
M  V30 28970 N 2704.55 2.76741 -6.45259 0
M  V30 28971 H 2709.39 -0.0621137 -2.97935 0
M  V30 28972 H 2706.92 -0.0424252 -1.47039 0
M  V30 28973 H 2708.88 2.37684 -3.42874 0
M  V30 28974 H 2707.51 2.27283 -2.29221 0
M  V30 28975 H 2706.56 0.368996 -3.78606 0
M  V30 28976 H 2707.87 0.701745 -4.93839 0
M  V30 28977 H 2707.03 3.03642 -5.25249 0
M  V30 28978 H 2705.77 2.76645 -4.01645 0
M  V30 28979 H 2704.77 0.936422 -5.41767 0
M  V30 28980 H 2706 1.23018 -6.67865 0
M  V30 28981 H 2703.94 3.24902 -5.6989 0
M  V30 28982 H 2703.86 2.3577 -7.18296 0
M  V30 28983 H 2705.13 3.52437 -6.95276 0
M  V30 28984 N 2709.36 1.57515 -0.0518432 0
M  V30 28985 C 2710.32 2.10468 0.90751 0
M  V30 28986 C 2711.32 1.02442 1.23945 0
M  V30 28987 O 2712.51 1.28512 1.17602 0
M  V30 28988 C 2709.64 2.58948 2.21718 0
M  V30 28989 H 2710.84 2.96528 0.448457 0
M  V30 28990 H 2708.39 1.55059 0.19657 0
M  V30 28991 H 2709.12 1.76283 2.72203 0
M  V30 28992 H 2708.91 3.3789 1.98929 0
M  V30 28993 H 2710.4 3.00061 2.90436 0
M  V30 28994 N 2710.84 -0.221546 1.56035 0
M  V30 28995 C 2712.08 -0.942942 1.80223 0
M  V30 28996 C 2712.44 -1.81971 0.624831 0
M  V30 28997 O 2711.73 -1.87771 -0.381112 0
M  V30 28998 C 2711.92 -1.81615 3.07816 0
M  V30 28999 C 2711.75 -1.0254 4.37853 0
M  V30 29000 C 2710.52 -0.720331 5.00139 0
M  V30 29001 C 2712.72 -0.390709 5.12814 0
M  V30 29002 N 2710.7 0.0918218 6.13831 0
M  V30 29003 C 2712.07 0.284837 6.19345 0
M  V30 29004 C 2714.13 -0.303741 4.96973 0
M  V30 29005 C 2712.83 1.03903 7.11756 0
M  V30 29006 C 2714.86 0.436987 5.89783 0
M  V30 29007 C 2714.22 1.10108 6.95741 0
M  V30 29008 H 2710.32 -0.325312 0.711123 0
M  V30 29009 H 2712.9 -0.21382 1.93522 0
M  V30 29010 H 2711.07 -2.51709 2.95799 0
M  V30 29011 H 2712.81 -2.47502 3.20195 0
M  V30 29012 H 2709.56 -1.03835 4.62077 0
M  V30 29013 H 2709.98 0.486733 6.75248 0
M  V30 29014 H 2714.63 -0.802823 4.15108 0
M  V30 29015 H 2712.34 1.54963 7.93103 0
M  V30 29016 H 2715.93 0.505282 5.79602 0
M  V30 29017 H 2714.81 1.66508 7.66319 0
M  V30 29018 N 2712.31 -1.49846 -0.48825 0
M  V30 29019 C 2713.28 -1.66922 -1.57066 0
M  V30 29020 C 2714.28 -0.540505 -1.51444 0
M  V30 29021 O 2715.47 -0.807215 -1.54369 0
M  V30 29022 C 2712.6 -1.67849 -2.96715 0
M  V30 29023 H 2713.79 -2.63476 -1.43249 0
M  V30 29024 H 2711.34 -1.39069 -0.71341 0
M  V30 29025 H 2712.08 -0.729256 -3.15994 0
M  V30 29026 H 2711.86 -2.49831 -3.02203 0
M  V30 29027 H 2713.35 -1.83073 -3.75332 0
M  V30 29028 N 2713.79 0.740218 -1.39135 0
M  V30 29029 C 2715.02 1.52725 -1.39135 0
M  V30 29030 C 2715.43 1.89192 0.01728 0
M  V30 29031 O 2714.77 1.54246 0.997688 0
M  V30 29032 C 2714.83 2.84691 -2.19525 0
M  V30 29033 C 2714.5 2.70688 -3.68208 0
M  V30 29034 C 2715.5 2.39585 -4.61405 0
M  V30 29035 C 2713.18 2.87722 -4.11729 0
M  V30 29036 C 2715.17 2.2569 -5.96106 0
M  V30 29037 C 2712.86 2.73446 -5.46507 0
M  V30 29038 C 2713.86 2.42475 -6.3851 0
M  V30 29039 O 2713.55 2.28282 -7.70807 0
M  V30 29040 H 2713.28 0.478736 -0.477272 0
M  V30 29041 H 2715.83 0.922767 -1.83505 0
M  V30 29042 H 2714.06 3.4738 -1.69894 0
M  V30 29043 H 2715.75 3.4628 -2.11766 0
M  V30 29044 H 2716.52 2.26081 -4.29083 0
M  V30 29045 H 2712.4 3.10823 -3.40456 0
M  V30 29046 H 2715.94 2.01438 -6.67884 0
M  V30 29047 H 2711.84 2.86528 -5.78422 0
M  V30 29048 H 2712.61 2.43392 -7.81475 0
M  V30 29049 N 2715.27 1.24225 0.969846 0
M  V30 29050 C 2716.52 1.08066 1.71254 0
M  V30 29051 C 2716.84 -0.380838 1.90735 0
M  V30 29052 O 2716.1 -1.29787 1.46471 0
M  V30 29053 C 2716.4 1.76319 3.1088 0
M  V30 29054 C 2716.06 3.26246 3.11246 0
M  V30 29055 C 2714.73 3.6715 3.11054 0
M  V30 29056 C 2717.08 4.22102 3.05744 0
M  V30 29057 C 2714.41 5.02349 3.03088 0
M  V30 29058 C 2716.76 5.57306 2.9932 0
M  V30 29059 C 2715.42 5.97559 2.97455 0
M  V30 29060 H 2714.69 0.395442 0.626663 0
M  V30 29061 H 2717.34 1.54299 1.1342 0
M  V30 29062 H 2715.64 1.22474 3.72166 0
M  V30 29063 H 2717.34 1.61284 3.67136 0
M  V30 29064 H 2713.93 2.93691 3.1216 0
M  V30 29065 H 2718.12 3.91502 3.05024 0
M  V30 29066 H 2713.37 5.32736 3.00004 0
M  V30 29067 H 2717.55 6.31288 2.94022 0
M  V30 29068 H 2715.17 7.02283 2.91038 0
M  V30 29069 N 2716.75 -1.1702 1.05565 0
M  V30 29070 C 2717.97 -1.91828 0.788471 0
M  V30 29071 C 2718.4 -1.765 -0.650325 0
M  V30 29072 O 2717.76 -1.0853 -1.45227 0
M  V30 29073 C 2717.8 -3.40793 1.17866 0
M  V30 29074 O 2716.91 -4.1121 0.313037 0
M  V30 29075 H 2716.25 -0.597903 0.288805 0
M  V30 29076 H 2718.78 -1.48304 1.4095 0
M  V30 29077 H 2718.79 -3.91544 1.14704 0
M  V30 29078 H 2717.46 -3.51269 2.22672 0
M  V30 29079 H 2716.04 -3.70688 0.40558 0
M  V30 29080 N 2718.23 -0.837197 -1.33524 0
M  V30 29081 C 2719.5 -0.354099 -1.92368 0
M  V30 29082 C 2719.88 1.16034 -1.7635 0
M  V30 29083 O 2719.23 1.97401 -1.15087 0
M  V30 29084 C 2719.44 -0.79916 -3.39727 0
M  V30 29085 C 2720.79 -0.806213 -4.16876 0
M  V30 29086 O 2721.81 -0.742658 -3.48372 0
M  V30 29087 O 2720.67 -0.89244 -5.39164 0
M  V30 29088 H 2717.77 -0.0998523 -0.82095 0
M  V30 29089 H 2720.31 -0.922938 -1.42408 0
M  V30 29090 H 2719.08 -1.84168 -3.4525 0
M  V30 29091 H 2718.71 -0.2068 -3.97062 0
M  V30 29092 N 2719.7 1.45999 -0.593476 0
M  V30 29093 C 2720.95 2.02629 -0.0833111 0
M  V30 29094 C 2721.28 1.46268 1.27747 0
M  V30 29095 O 2720.56 0.631898 1.83949 0
M  V30 29096 C 2720.84 3.60088 -0.0291389 0
M  V30 29097 C 2720.69 4.26811 -1.41958 0
M  V30 29098 C 2722.01 4.35032 0.665979 0
M  V30 29099 H 2719.13 0.736316 -0.031749 0
M  V30 29100 H 2721.77 1.74018 -0.762742 0
M  V30 29101 H 2719.92 3.84595 0.549464 0
M  V30 29102 H 2721.6 4.13535 -2.04418 0
M  V30 29103 H 2719.84 3.85757 -1.98429 0
M  V30 29104 H 2720.51 5.35637 -1.33405 0
M  V30 29105 H 2722.99 4.15735 0.174328 0
M  V30 29106 H 2721.86 5.44759 0.672945 0
M  V30 29107 H 2722.12 4.06872 1.72938 0
M  V30 29108 N 2721.18 0.331843 1.54067 0
M  V30 29109 C 2722.46 -0.322921 1.92916 0
M  V30 29110 C 2722.84 -1.69203 1.26228 0
M  V30 29111 O 2722.19 -2.24811 0.408958 0
M  V30 29112 C 2722.4 -0.406885 3.4662 0
M  V30 29113 C 2723.75 -0.663265 4.19388 0
M  V30 29114 O 2724.77 -0.489474 3.52821 0
M  V30 29115 O 2723.63 -0.999099 5.3729 0
M  V30 29116 H 2720.72 -0.186001 0.805812 0
M  V30 29117 H 2723.27 0.382164 1.65341 0
M  V30 29118 H 2722.04 0.554355 3.87353 0
M  V30 29119 H 2721.66 -1.15922 3.80326 0
M  V30 29120 N 2722.66 -1.57485 0.0601958 0
M  V30 29121 C 2723.59 -2.15086 -0.908852 0
M  V30 29122 C 2724.57 -1.07486 -1.31836 0
M  V30 29123 O 2725.76 -1.35468 -1.39147 0
M  V30 29124 C 2722.89 -2.70314 -2.18054 0
M  V30 29125 C 2721.84 -3.82978 -1.91081 0
M  V30 29126 C 2721.17 -4.2476 -3.24782 0
M  V30 29127 C 2722.47 -5.07725 -1.22526 0
M  V30 29128 H 2724.16 -2.9631 -0.429041 0
M  V30 29129 H 2721.71 -1.42534 -0.204927 0
M  V30 29130 H 2723.66 -3.09253 -2.86253 0
M  V30 29131 H 2722.38 -1.86295 -2.68257 0
M  V30 29132 H 2721.04 -3.44525 -1.25291 0
M  V30 29133 H 2720.69 -3.37679 -3.72803 0
M  V30 29134 H 2720.39 -5.00699 -3.07529 0
M  V30 29135 H 2721.91 -4.66306 -3.94197 0
M  V30 29136 H 2723.33 -5.44053 -1.80774 0
M  V30 29137 H 2721.73 -5.88866 -1.1557 0
M  V30 29138 H 2722.8 -4.84477 -0.202607 0
M  V30 29139 N 2724.14 0.213268 -1.5615 0
M  V30 29140 C 2725.05 1.28515 -1.96268 0
M  V30 29141 C 2726.06 1.50822 -0.867676 0
M  V30 29142 O 2727.24 1.63791 -1.17194 0
M  V30 29143 C 2724.31 2.61323 -2.27841 0
M  V30 29144 C 2723.37 2.47246 -3.50953 0
M  V30 29145 C 2722.6 3.7372 -3.8101 0
M  V30 29146 O 2722.82 4.771 -3.1262 0
M  V30 29147 O 2721.76 3.70336 -4.74484 0
M  V30 29148 H 2725.58 0.974744 -2.87632 0
M  V30 29149 H 2723.17 0.416807 -1.43468 0
M  V30 29150 H 2725.05 3.39742 -2.49305 0
M  V30 29151 H 2723.72 2.92028 -1.39648 0
M  V30 29152 H 2722.63 1.66999 -3.34757 0
M  V30 29153 H 2723.96 2.21478 -4.39554 0
M  V30 29154 N 2725.62 1.50103 0.480296 0
M  V30 29155 C 2726.56 1.68293 1.57943 0
M  V30 29156 C 2727.53 0.524251 1.5761 0
M  V30 29157 O 2728.72 0.75374 1.75281 0
M  V30 29158 C 2725.86 1.77462 2.95975 0
M  V30 29159 C 2724.97 3.04771 3.06167 0
M  V30 29160 C 2724.11 3.04792 4.35058 0
M  V30 29161 C 2723.15 4.26593 4.38958 0
M  V30 29162 N 2722.28 4.24406 5.59307 0
M  V30 29163 H 2727.12 2.62134 1.41738 0
M  V30 29164 H 2724.66 1.29951 0.689281 0
M  V30 29165 H 2726.62 1.80759 3.76008 0
M  V30 29166 H 2725.25 0.870691 3.10836 0
M  V30 29167 H 2724.3 3.10989 2.19066 0
M  V30 29168 H 2725.61 3.94756 3.04909 0
M  V30 29169 H 2724.77 3.06767 5.2343 0
M  V30 29170 H 2723.5 2.12622 4.38912 0
M  V30 29171 H 2722.51 4.24841 3.48985 0
M  V30 29172 H 2723.73 5.1998 4.36804 0
M  V30 29173 H 2721.68 3.35084 5.63963 0
M  V30 29174 H 2721.6 5.08148 5.59751 0
M  V30 29175 H 2722.87 4.30513 6.4983 0
M  V30 29176 N 2727.09 -0.732829 1.39526 0
M  V30 29177 C 2728.37 -1.48441 1.27376 0
M  V30 29178 C 2728.75 -2.10783 -0.115688 0
M  V30 29179 O 2728.1 -1.98768 -1.12709 0
M  V30 29180 C 2728.31 -2.53407 2.3997 0
M  V30 29181 C 2729.66 -3.19729 2.7939 0
M  V30 29182 O 2730.68 -2.63721 2.39436 0
M  V30 29183 O 2729.54 -4.21079 3.4836 0
M  V30 29184 H 2726.63 -0.659276 0.499283 0
M  V30 29185 H 2729.18 -0.766469 1.51405 0
M  V30 29186 H 2727.95 -2.05736 3.32849 0
M  V30 29187 H 2727.58 -3.32758 2.17618 0
M  V30 29188 N 2728.57 -1.24737 -0.963244 0
M  V30 29189 C 2729.82 -1.09134 -1.70931 0
M  V30 29190 C 2730.15 0.368239 -1.90677 0
M  V30 29191 O 2729.43 1.2719 -1.47149 0
M  V30 29192 C 2729.71 -1.83664 -3.09741 0
M  V30 29193 C 2729.56 -3.37399 -2.97459 0
M  V30 29194 C 2730.88 -1.61289 -4.0948 0
M  V30 29195 H 2728 -0.397849 -0.620391 0
M  V30 29196 H 2730.64 -1.53461 -1.12025 0
M  V30 29197 H 2728.79 -1.45986 -3.60028 0
M  V30 29198 H 2730.46 -3.84701 -2.54564 0
M  V30 29199 H 2728.71 -3.65551 -2.3357 0
M  V30 29200 H 2729.38 -3.84752 -3.95815 0
M  V30 29201 H 2731.85 -1.94073 -3.68069 0
M  V30 29202 H 2730.73 -2.15886 -5.04662 0
M  V30 29203 H 2730.99 -0.552179 -4.38638 0
M  V30 29204 N 2730.05 1.16459 -1.06184 0
M  V30 29205 C 2731 2.18785 -0.641657 0
M  V30 29206 C 2731.98 1.5754 0.327094 0
M  V30 29207 O 2733.18 1.76424 0.142715 0
M  V30 29208 C 2730.31 3.43288 -0.0284338 0
M  V30 29209 C 2729.39 4.11611 -1.02161 0
M  V30 29210 N 2729.78 4.55604 -2.19679 0
M  V30 29211 C 2728.08 4.3778 -0.852306 0
M  V30 29212 C 2728.78 5.08445 -2.82592 0
M  V30 29213 N 2727.76 5.01262 -2.10326 0
M  V30 29214 H 2731.56 2.50514 -1.53689 0
M  V30 29215 H 2729.07 1.32898 -0.933373 0
M  V30 29216 H 2731.07 4.15887 0.290417 0
M  V30 29217 H 2729.73 3.13047 0.862063 0
M  V30 29218 H 2730.74 4.49371 -2.57461 0
M  V30 29219 H 2727.42 4.17498 -0.0137048 0
M  V30 29220 H 2728.81 5.52531 -3.82307 0
M  V30 29221 N 2731.53 0.844266 1.33079 0
M  V30 29222 C 2732.75 0.455318 2.0234 0
M  V30 29223 C 2733.18 -0.937342 1.63081 0
M  V30 29224 O 2732.54 -1.61383 0.826147 0
M  V30 29225 C 2732.58 0.589942 3.55742 0
M  V30 29226 O 2731.69 -0.381588 4.10631 0
M  V30 29227 H 2731.03 0.184354 0.637895 0
M  V30 29228 H 2733.56 1.14059 1.69858 0
M  V30 29229 H 2733.57 0.473593 4.05242 0
M  V30 29230 H 2732.24 1.60556 3.8366 0
M  V30 29231 H 2730.82 -0.222344 3.72237 0
M  V30 29232 N 2733.01 -1.45682 0.60121 0
M  V30 29233 C 2734.25 -2.01883 0.0937311 0
M  V30 29234 C 2734.58 -1.47294 -1.27787 0
M  V30 29235 O 2733.85 -0.664724 -1.84278 0
M  V30 29236 H 2732.43 -0.746329 0.0316598 0
M  V30 29237 H 2735.09 -1.7856 0.781169 0
M  V30 29238 H 2734.18 -3.12076 0.0386845 0
M  V30 29239 N 2734.48 -0.340009 -1.53889 0
M  V30 29240 C 2735.41 0.510816 -2.27844 0
M  V30 29241 C 2736.4 1.1056 -1.29269 0
M  V30 29242 O 2737.58 1.12766 -1.58106 0
M  V30 29243 C 2734.71 1.66367 -3.0486 0
M  V30 29244 C 2733.66 1.19739 -4.10909 0
M  V30 29245 C 2732.99 2.43848 -4.75859 0
M  V30 29246 C 2734.29 0.30041 -5.21435 0
M  V30 29247 H 2735.98 -0.10612 -2.99212 0
M  V30 29248 H 2733.53 -0.0524786 -1.43904 0
M  V30 29249 H 2735.48 2.26531 -3.55333 0
M  V30 29250 H 2734.21 2.30745 -2.31137 0
M  V30 29251 H 2732.87 0.618591 -3.61343 0
M  V30 29252 H 2732.51 3.06626 -3.98735 0
M  V30 29253 H 2732.21 2.13333 -5.47506 0
M  V30 29254 H 2733.74 3.04744 -5.29115 0
M  V30 29255 H 2735.15 0.80879 -5.67566 0
M  V30 29256 H 2733.55 0.0873021 -6.00036 0
M  V30 29257 H 2734.62 -0.664406 -4.80327 0
M  V30 29258 N 2735.96 1.57451 -0.0685468 0
M  V30 29259 C 2737.21 1.92542 0.600864 0
M  V30 29260 C 2737.53 0.950269 1.70966 0
M  V30 29261 O 2738.73 1.19388 2.43842 0
M  V30 29262 C 2737.19 3.42025 1.12013 0
M  V30 29263 C 2736.8 4.4798 0.042524 0
M  V30 29264 C 2738.54 3.86122 1.7638 0
M  V30 29265 C 2736.45 5.88592 0.575655 0
M  V30 29266 H 2735.38 0.718634 0.228213 0
M  V30 29267 H 2738.03 1.82963 -0.140255 0
M  V30 29268 H 2736.41 3.46666 1.91412 0
M  V30 29269 H 2737.58 4.5495 -0.7319 0
M  V30 29270 H 2735.9 4.1333 -0.504715 0
M  V30 29271 H 2738.5 4.88557 2.17293 0
M  V30 29272 H 2738.84 3.23313 2.62249 0
M  V30 29273 H 2739.37 3.8407 1.03608 0
M  V30 29274 H 2736.11 6.55039 -0.245807 0
M  V30 29275 H 2735.63 5.85147 1.31767 0
M  V30 29276 H 2737.31 6.38372 1.05309 0
M  V30 29277 N 2737.44 -0.204984 1.56261 0
M  V30 29278 C 2738.69 -0.925064 1.79686 0
M  V30 29279 C 2739.01 -1.84201 0.639922 0
M  V30 29280 O 2738.28 -1.92886 -0.342311 0
M  V30 29281 H 2736.86 -0.344575 0.66278 0
M  V30 29282 H 2739.52 -0.212865 1.93734 0
M  V30 29283 H 2738.62 -1.52206 2.72469 0
M  V30 29284 N 2738.92 -1.50356 -0.472329 0
M  V30 29285 C 2740.33 -1.54156 -1.05323 0
M  V30 29286 C 2740.68 -0.344337 -1.93155 0
M  V30 29287 O 2739.81 0.542892 -2.09479 0
M  V30 29288 C 2740.4 -2.7936 -1.91686 0
M  V30 29289 C 2738.96 -2.85845 -2.44887 0
M  V30 29290 C 2738.11 -2.48429 -1.23201 0
M  V30 29291 H 2741.06 -1.56638 -0.254999 0
M  V30 29292 H 2741.08 -2.61145 -2.76738 0
M  V30 29293 H 2740.59 -3.66477 -1.27734 0
M  V30 29294 H 2738.69 -2.03076 -3.12396 0
M  V30 29295 H 2738.81 -3.88706 -2.80079 0
M  V30 29296 H 2737.17 -2.00839 -1.56639 0
M  V30 29297 H 2737.95 -3.37853 -0.609134 0
M  V30 29298 N 2740.4 0.725419 -1.39912 0
M  V30 29299 C 2741.33 1.85252 -1.42141 0
M  V30 29300 C 2742.31 1.6772 -0.283542 0
M  V30 29301 O 2743.49 1.87897 -0.49075 0
M  V30 29302 C 2740.62 3.23105 -1.27359 0
M  V30 29303 C 2739.58 3.55291 -2.38646 0
M  V30 29304 C 2738.9 4.92184 -2.08947 0
M  V30 29305 C 2740.2 3.57288 -3.80976 0
M  V30 29306 H 2741.9 1.83644 -2.36464 0
M  V30 29307 H 2739.44 0.882118 -1.13819 0
M  V30 29308 H 2741.4 4.01637 -1.27537 0
M  V30 29309 H 2740.12 3.25264 -0.295083 0
M  V30 29310 H 2738.78 2.79094 -2.37701 0
M  V30 29311 H 2738.43 4.90934 -1.09511 0
M  V30 29312 H 2738.13 5.14686 -2.835 0
M  V30 29313 H 2739.65 5.73061 -2.10791 0
M  V30 29314 H 2741.07 4.25878 -3.83798 0
M  V30 29315 H 2739.46 3.91312 -4.54967 0
M  V30 29316 H 2740.53 2.56883 -4.11265 0
M  V30 29317 N 2741.88 1.25246 0.956615 0
M  V30 29318 C 2742.81 1.07935 2.07056 0
M  V30 29319 C 2743.79 -0.0110062 1.70096 0
M  V30 29320 O 2744.97 0.158155 1.93555 0
M  V30 29321 C 2742.1 0.695184 3.40271 0
M  V30 29322 C 2741.06 1.73555 3.91232 0
M  V30 29323 C 2740.38 1.20613 5.20919 0
M  V30 29324 C 2741.68 3.13392 4.17831 0
M  V30 29325 H 2743.38 2.01113 2.21797 0
M  V30 29326 H 2740.92 0.968345 1.06579 0
M  V30 29327 H 2742.87 0.561023 4.17649 0
M  V30 29328 H 2741.6 -0.272298 3.25463 0
M  V30 29329 H 2740.26 1.85812 3.16021 0
M  V30 29330 H 2739.91 0.228934 5.02479 0
M  V30 29331 H 2739.61 1.90146 5.55984 0
M  V30 29332 H 2741.13 1.08432 6.00895 0
M  V30 29333 H 2742.54 3.043 4.85875 0
M  V30 29334 H 2740.94 3.80377 4.64148 0
M  V30 29335 H 2742.01 3.60601 3.24183 0
M  V30 29336 N 2743.35 -1.15894 1.068 0
M  V30 29337 C 2744.6 -1.86824 0.788967 0
M  V30 29338 C 2744.93 -1.81791 -0.683052 0
M  V30 29339 O 2744.21 -1.23714 -1.50084 0
M  V30 29340 C 2744.49 -3.36174 1.29071 0
M  V30 29341 C 2744.34 -3.49869 2.82686 0
M  V30 29342 C 2745.66 -4.30742 0.902731 0
M  V30 29343 H 2742.78 -0.678366 0.288077 0
M  V30 29344 H 2745.42 -1.36193 1.32482 0
M  V30 29345 H 2743.57 -3.79423 0.834873 0
M  V30 29346 H 2745.25 -3.15522 3.36517 0
M  V30 29347 H 2743.49 -2.91611 3.21162 0
M  V30 29348 H 2744.16 -4.54778 3.1286 0
M  V30 29349 H 2746.64 -3.95421 1.29542 0
M  V30 29350 H 2745.51 -5.33738 1.2812 0
M  V30 29351 H 2745.77 -4.41683 -0.191874 0
M  V30 29352 N 2744.83 -0.851312 -1.32629 0
M  V30 29353 C 2746.07 -0.459301 -1.99173 0
M  V30 29354 C 2746.44 0.966244 -1.65915 0
M  V30 29355 O 2747.64 1.46263 -2.25523 0
M  V30 29356 C 2745.91 -0.68776 -3.5072 0
M  V30 29357 S 2747.47 -0.392823 -4.37038 0
M  V30 29358 H 2744.28 -0.172211 -0.689829 0
M  V30 29359 H 2746.89 -1.1033 -1.61393 0
M  V30 29360 H 2745.59 -1.72441 -3.72414 0
M  V30 29361 H 2745.12 -0.030064 -3.93389 0
M  V30 29362 H 2747.14 0.782491 -4.89991 0
M  V30 29363 N 2746.31 1.45361 -0.608928 0
M  V30 29364 C 2747.26 2.27626 0.130576 0
M  V30 29365 C 2748.24 1.37398 0.837299 0
M  V30 29366 O 2749.44 1.61378 0.727068 0
M  V30 29367 C 2746.56 3.24295 1.1264 0
M  V30 29368 C 2745.65 4.22011 0.420446 0
M  V30 29369 N 2746.04 5.02924 -0.538658 0
M  V30 29370 C 2744.34 4.40972 0.667824 0
M  V30 29371 C 2745.04 5.73828 -0.953726 0
M  V30 29372 N 2744.02 5.42787 -0.297193 0
M  V30 29373 H 2747.82 2.87584 -0.606047 0
M  V30 29374 H 2745.33 1.56529 -0.4327 0
M  V30 29375 H 2747.33 3.81964 1.6706 0
M  V30 29376 H 2745.99 2.65897 1.86356 0
M  V30 29377 H 2747 5.09745 -0.915465 0
M  V30 29378 H 2743.68 3.93697 1.38956 0
M  V30 29379 H 2745.07 6.48849 -1.74484 0
M  V30 29380 N 2747.79 0.348166 1.53706 0
M  V30 29381 C 2749.02 -0.248188 2.05406 0
M  V30 29382 C 2749.43 -1.43847 1.22284 0
M  V30 29383 O 2748.79 -1.80649 0.259276 0
M  V30 29384 C 2748.84 -0.65873 3.55448 0
M  V30 29385 O 2748.56 0.484226 4.35416 0
M  V30 29386 C 2750.06 -1.31531 4.23337 0
M  V30 29387 H 2747.28 -0.0470958 0.669345 0
M  V30 29388 H 2749.82 0.501491 1.98256 0
M  V30 29389 H 2747.98 -1.35835 3.62805 0
M  V30 29390 H 2748.39 0.156041 5.24268 0
M  V30 29391 H 2749.87 -1.55329 5.29695 0
M  V30 29392 H 2750.34 -2.2703 3.75971 0
M  V30 29393 H 2750.95 -0.657609 4.20185 0
M  V30 29394 N 2749.27 -1.57412 0.0768958 0
M  V30 29395 C 2750.21 -2.14222 -0.906192 0
M  V30 29396 C 2751.21 -1.08039 -1.30476 0
M  V30 29397 O 2752.41 -1.26412 -1.28141 0
M  V30 29398 H 2748.79 -0.685043 -0.310195 0
M  V30 29399 H 2750.76 -2.95677 -0.402176 0
M  V30 29400 C 2749.51 -2.72278 -2.16241 0
M  V30 29401 H 2748.83 -3.53658 -1.86457 0
M  V30 29402 H 2750.27 -3.15618 -2.83128 0
M  V30 29403 C 2748.73 -1.67284 -2.92434 0
M  V30 29404 O 2749.26 -1.10088 -3.8632 0
M  V30 29405 N 2747.47 -1.382 -2.55635 0
M  V30 29406 H 2747.01 -1.849 -1.79359 0
M  V30 29407 H 2746.97 -0.681841 -3.06917 0
M  V30 29408 N 2750.74 0.196695 -1.56368 0
M  V30 29409 C 2751.97 0.933575 -1.8464 0
M  V30 29410 C 2752.39 1.76918 -0.659195 0
M  V30 29411 O 2751.74 1.78666 0.372111 0
M  V30 29412 C 2751.8 1.83103 -3.11698 0
M  V30 29413 O 2751.52 1.02917 -4.2584 0
M  V30 29414 C 2753.02 2.67973 -3.53137 0
M  V30 29415 H 2750.24 0.272463 -0.613193 0
M  V30 29416 H 2752.78 0.204429 -2.03476 0
M  V30 29417 H 2750.94 2.51382 -2.94764 0
M  V30 29418 H 2751.35 1.6406 -4.98181 0
M  V30 29419 H 2752.82 3.26604 -4.4501 0
M  V30 29420 H 2753.3 3.41603 -2.76051 0
M  V30 29421 H 2753.91 2.05068 -3.72595 0
M  V30 29422 N 2752.22 1.50604 0.464349 0
M  V30 29423 C 2753.15 1.72892 1.56941 0
M  V30 29424 C 2754.13 0.578025 1.59978 0
M  V30 29425 O 2755.32 0.817886 1.76137 0
M  V30 29426 C 2752.45 1.82925 2.95222 0
M  V30 29427 C 2751.4 2.98167 3.07051 0
M  V30 29428 C 2750.73 2.9335 4.47045 0
M  V30 29429 C 2752.03 4.38572 2.8364 0
M  V30 29430 H 2753.72 2.65417 1.38542 0
M  V30 29431 H 2751.27 1.27722 0.665059 0
M  V30 29432 H 2753.22 1.97101 3.72464 0
M  V30 29433 H 2751.95 0.870264 3.14792 0
M  V30 29434 H 2750.6 2.83652 2.32243 0
M  V30 29435 H 2750.25 1.95284 4.63544 0
M  V30 29436 H 2749.95 3.7072 4.55895 0
M  V30 29437 H 2751.48 3.09584 5.26298 0
M  V30 29438 H 2752.89 4.53578 3.50628 0
M  V30 29439 H 2751.29 5.17444 3.03928 0
M  V30 29440 H 2752.36 4.50475 1.79443 0
M  V30 29441 N 2753.7 -0.717989 1.40295 0
M  V30 29442 C 2754.65 -1.85341 1.4054 0
M  V30 29443 C 2755.64 -1.66964 0.286222 0
M  V30 29444 O 2756.85 -1.74098 0.457135 0
M  V30 29445 H 2753.22 -0.610382 0.439247 0
M  V30 29446 H 2755.19 -1.82251 2.36278 0
M  V30 29447 C 2753.94 -3.23183 1.28251 0
M  V30 29448 H 2753.27 -3.37928 2.13646 0
M  V30 29449 H 2754.71 -4.02771 1.32481 0
M  V30 29450 C 2753.17 -3.36899 -0.00749108 0
M  V30 29451 O 2753.7 -3.8978 -0.971323 0
M  V30 29452 N 2751.9 -2.905 -0.0761969 0
M  V30 29453 H 2751.45 -2.47655 0.708863 0
M  V30 29454 H 2751.41 -3.00057 -0.938793 0
M  V30 29455 N 2755.18 -1.25752 -0.94996 0
M  V30 29456 C 2756.59 -1.09817 -1.50987 0
M  V30 29457 C 2756.94 0.324522 -1.93498 0
M  V30 29458 O 2756.07 1.21503 -1.7907 0
M  V30 29459 C 2756.66 -1.98734 -2.74391 0
M  V30 29460 C 2755.22 -1.86971 -3.26678 0
M  V30 29461 C 2754.37 -1.92606 -1.99495 0
M  V30 29462 H 2757.32 -1.3897 -0.766362 0
M  V30 29463 H 2757.34 -1.53007 -3.48381 0
M  V30 29464 H 2756.85 -3.02272 -2.4342 0
M  V30 29465 H 2754.95 -0.863343 -3.6246 0
M  V30 29466 H 2755.06 -2.72034 -3.94379 0
M  V30 29467 H 2753.43 -1.3655 -2.15003 0
M  V30 29468 H 2754.21 -2.97758 -1.70866 0
M  V30 29469 N 2756.66 1.15326 -1.07413 0
M  V30 29470 C 2757.62 2.18283 -0.698952 0
M  V30 29471 C 2758.62 1.58666 0.261121 0
M  V30 29472 O 2759.81 1.74149 0.0419971 0
M  V30 29473 C 2756.94 3.40887 -0.0303026 0
M  V30 29474 H 2758.13 2.52988 -1.61049 0
M  V30 29475 H 2755.69 1.29799 -0.870747 0
M  V30 29476 H 2756.42 3.1175 0.89345 0
M  V30 29477 H 2756.21 3.85417 -0.720827 0
M  V30 29478 H 2757.7 4.17033 0.217517 0
M  V30 29479 N 2758.13 0.858334 1.32176 0
M  V30 29480 C 2759.08 0.277347 2.26307 0
M  V30 29481 C 2760.07 -0.57892 1.50124 0
M  V30 29482 O 2761.26 -0.427701 1.71755 0
M  V30 29483 C 2758.39 -0.530172 3.39181 0
M  V30 29484 C 2757.48 0.338688 4.22745 0
M  V30 29485 N 2757.87 1.42668 4.85262 0
M  V30 29486 C 2756.16 0.129079 4.45813 0
M  V30 29487 C 2756.87 1.96152 5.47631 0
M  V30 29488 N 2755.84 1.26016 5.28792 0
M  V30 29489 H 2759.64 1.10907 2.72171 0
M  V30 29490 H 2757.16 0.704842 1.46307 0
M  V30 29491 H 2759.15 -0.962833 4.05629 0
M  V30 29492 H 2757.81 -1.35964 2.94862 0
M  V30 29493 H 2758.83 1.80961 4.85256 0
M  V30 29494 H 2755.5 -0.665378 4.12164 0
M  V30 29495 H 2756.89 2.87371 6.07345 0
M  V30 29496 N 2759.61 -1.45036 0.616628 0
M  V30 29497 C 2760.86 -2.01772 0.115138 0
M  V30 29498 C 2761.18 -1.48641 -1.26218 0
M  V30 29499 O 2760.45 -0.684231 -1.83562 0
M  V30 29500 H 2759.03 -0.745951 0.0395738 0
M  V30 29501 H 2761.69 -1.77722 0.800064 0
M  V30 29502 H 2760.79 -3.12017 0.0717822 0
M  V30 29503 N 2761.09 -0.356312 -1.53519 0
M  V30 29504 C 2762.51 -0.00488072 -1.59599 0
M  V30 29505 C 2762.71 1.47593 -1.37181 0
M  V30 29506 O 2761.76 2.23632 -1.17238 0
M  V30 29507 C 2763.08 -0.452506 -2.97276 0
M  V30 29508 C 2764.62 -0.405935 -3.10357 0
M  V30 29509 C 2765.1 -0.829228 -4.50431 0
M  V30 29510 N 2766.59 -0.783918 -4.56518 0
M  V30 29511 C 2767.32 -1.08324 -5.63075 0
M  V30 29512 N 2766.82 -1.45138 -6.77427 0
M  V30 29513 N 2768.61 -1.00665 -5.53013 0
M  V30 29514 H 2760.76 -1.32074 -1.66344 0
M  V30 29515 H 2763.03 -0.539232 -0.779701 0
M  V30 29516 H 2762.73 -1.48547 -3.18789 0
M  V30 29517 H 2762.61 0.165696 -3.76836 0
M  V30 29518 H 2764.99 0.617883 -2.88559 0
M  V30 29519 H 2765.08 -1.05951 -2.32826 0
M  V30 29520 H 2764.72 -1.85112 -4.72965 0
M  V30 29521 H 2764.65 -0.152998 -5.26378 0
M  V30 29522 H 2767.14 -0.512579 -3.74408 0
M  V30 29523 H 2767.45 -1.66428 -7.54666 0
M  V30 29524 H 2765.8 -1.48995 -6.78841 0
M  V30 29525 H 2768.99 -0.718297 -4.62556 0
M  V30 29526 H 2769.16 -1.24326 -6.35962 0
M  V30 29527 N 2762.57 1.57369 -0.0852427 0
M  V30 29528 C 2763.5 2.10488 0.907062 0
M  V30 29529 C 2764.51 1.03993 1.25257 0
M  V30 29530 O 2765.7 1.31469 1.2074 0
M  V30 29531 C 2762.8 2.56149 2.21903 0
M  V30 29532 C 2761.98 3.86367 2.05035 0
M  V30 29533 C 2761.03 4.17979 3.19657 0
M  V30 29534 O 2760.06 4.87361 2.94054 0
M  V30 29535 N 2761.26 3.72595 4.45144 0
M  V30 29536 H 2764.03 2.9625 0.453453 0
M  V30 29537 H 2761.59 1.6159 0.100129 0
M  V30 29538 H 2763.58 2.74349 2.97515 0
M  V30 29539 H 2762.15 1.75451 2.5872 0
M  V30 29540 H 2761.37 3.77413 1.13812 0
M  V30 29541 H 2762.66 4.71577 1.91031 0
M  V30 29542 H 2762.06 3.16569 4.68829 0
M  V30 29543 H 2760.61 3.95969 5.17737 0
M  V30 29544 N 2764.05 -0.188399 1.5647 0
M  V30 29545 C 2765.29 -0.909092 1.81283 0
M  V30 29546 C 2765.63 -1.82627 0.660372 0
M  V30 29547 O 2764.9 -1.91528 -0.338703 0
M  V30 29548 C 2765.18 -1.71955 3.16391 0
M  V30 29549 C 2765.04 -0.826637 4.42139 0
M  V30 29550 C 2766.36 -2.69077 3.48261 0
M  V30 29551 H 2763.47 -0.329057 0.659462 0
M  V30 29552 H 2766.12 -0.176122 1.89182 0
M  V30 29553 H 2764.27 -2.34443 3.09788 0
M  V30 29554 H 2765.94 -0.215944 4.60794 0
M  V30 29555 H 2764.18 -0.133716 4.33594 0
M  V30 29556 H 2764.85 -1.42884 5.33187 0
M  V30 29557 H 2767.33 -2.1672 3.55207 0
M  V30 29558 H 2766.2 -3.22862 4.43905 0
M  V30 29559 H 2766.47 -3.4845 2.72094 0
M  V30 29560 N 2765.53 -1.50848 -0.456355 0
M  V30 29561 C 2766.75 -1.66351 -1.23024 0
M  V30 29562 C 2767.17 -0.3529 -1.85473 0
M  V30 29563 O 2766.53 0.666709 -1.69886 0
M  V30 29564 C 2766.58 -2.76543 -2.32822 0
M  V30 29565 O 2766.3 -4.02525 -1.72931 0
M  V30 29566 C 2767.8 -3.0315 -3.23443 0
M  V30 29567 H 2765.02 -0.558763 -0.371517 0
M  V30 29568 H 2767.56 -1.97158 -0.543047 0
M  V30 29569 H 2765.72 -2.4839 -2.9729 0
M  V30 29570 H 2766.13 -4.63578 -2.45349 0
M  V30 29571 H 2767.61 -3.83879 -3.96662 0
M  V30 29572 H 2768.08 -2.148 -3.8309 0
M  V30 29573 H 2768.69 -3.32891 -2.64696 0
M  V30 29574 N 2767 0.710538 -1.40674 0
M  V30 29575 C 2768.25 1.47265 -1.39431 0
M  V30 29576 C 2768.58 1.942 0.00178716 0
M  V30 29577 O 2767.86 1.68508 0.971357 0
M  V30 29578 C 2768.14 2.69516 -2.38817 0
M  V30 29579 C 2767.99 2.28442 -3.87471 0
M  V30 29580 C 2769.31 3.71685 -2.35666 0
M  V30 29581 H 2766.43 0.534164 -0.507778 0
M  V30 29582 H 2769.07 0.810517 -1.71845 0
M  V30 29583 H 2767.22 3.26009 -2.11306 0
M  V30 29584 H 2768.9 1.77391 -4.25829 0
M  V30 29585 H 2767.14 1.60388 -4.03061 0
M  V30 29586 H 2767.81 3.16095 -4.52535 0
M  V30 29587 H 2770.29 3.24831 -2.60046 0
M  V30 29588 H 2769.16 4.54854 -3.07245 0
M  V30 29589 H 2769.42 4.20336 -1.37003 0
M  V30 29590 N 2768.48 1.26254 0.943277 0
M  V30 29591 C 2769.41 1.0342 2.04541 0
M  V30 29592 C 2770.43 -0.00466249 1.62799 0
M  V30 29593 O 2771.62 0.235177 1.76944 0
M  V30 29594 C 2768.72 0.54373 3.3451 0
M  V30 29595 C 2767.89 1.65135 4.0503 0
M  V30 29596 C 2766.95 1.15929 5.13271 0
M  V30 29597 O 2765.97 1.85595 5.38092 0
M  V30 29598 N 2767.18 0.00659483 5.805 0
M  V30 29599 H 2769.94 1.98323 2.24695 0
M  V30 29600 H 2767.5 1.17612 1.11262 0
M  V30 29601 H 2769.49 0.198774 4.04212 0
M  V30 29602 H 2768.06 -0.311656 3.11043 0
M  V30 29603 H 2767.28 2.16735 3.29271 0
M  V30 29604 H 2768.57 2.39516 4.48898 0
M  V30 29605 H 2767.97 -0.575248 5.62768 0
M  V30 29606 H 2766.53 -0.279302 6.51201 0
M  V30 29607 N 2769.96 -1.14755 1.08024 0
M  V30 29608 C 2770.87 -2.23332 0.718331 0
M  V30 29609 C 2771.89 -1.71838 -0.273447 0
M  V30 29610 O 2773.06 -2.01052 -0.11837 0
M  V30 29611 C 2770.13 -3.4646 0.128916 0
M  V30 29612 C 2769.19 -4.12913 1.17481 0
M  V30 29613 C 2768.42 -5.30163 0.613423 0
M  V30 29614 O 2768.64 -5.67561 -0.568358 0
M  V30 29615 O 2767.58 -5.86297 1.3616 0
M  V30 29616 H 2771.4 -2.56633 1.62399 0
M  V30 29617 H 2768.99 -1.2261 0.853649 0
M  V30 29618 H 2770.87 -4.20938 -0.197175 0
M  V30 29619 H 2769.55 -3.14893 -0.749959 0
M  V30 29620 H 2768.45 -3.40325 1.55336 0
M  V30 29621 H 2769.79 -4.48577 2.02582 0
M  V30 29622 N 2771.44 -0.865331 -1.31719 0
M  V30 29623 C 2772.68 -0.473966 -1.96875 0
M  V30 29624 C 2773.01 0.972757 -1.68427 0
M  V30 29625 O 2772.27 1.69925 -0.970772 0
M  V30 29626 C 2772.57 -0.672345 -3.51019 0
M  V30 29627 C 2772.23 -2.09115 -3.99477 0
M  V30 29628 C 2770.89 -2.47917 -4.1242 0
M  V30 29629 C 2773.25 -3.01667 -4.25025 0
M  V30 29630 C 2770.57 -3.78523 -4.48261 0
M  V30 29631 C 2772.93 -4.31782 -4.62328 0
M  V30 29632 C 2771.59 -4.70505 -4.73478 0
M  V30 29633 H 2770.86 -0.173436 -0.720417 0
M  V30 29634 H 2773.51 -1.09743 -1.56935 0
M  V30 29635 H 2771.81 0.0342871 -3.91785 0
M  V30 29636 H 2773.51 -0.349424 -3.99475 0
M  V30 29637 H 2770.1 -1.77988 -3.89895 0
M  V30 29638 H 2774.28 -2.72917 -4.14524 0
M  V30 29639 H 2769.54 -4.08293 -4.5509 0
M  V30 29640 H 2773.71 -5.03552 -4.81049 0
M  V30 29641 H 2771.34 -5.71749 -5.01006 0
M  V30 29642 N 2772.92 1.44707 -0.624311 0
M  V30 29643 C 2773.88 2.29078 0.0749235 0
M  V30 29644 C 2774.88 1.40674 0.77894 0
M  V30 29645 O 2776.07 1.62619 0.624563 0
M  V30 29646 C 2773.2 3.22095 1.11657 0
M  V30 29647 H 2774.39 2.92387 -0.667064 0
M  V30 29648 H 2771.95 1.51506 -0.384125 0
M  V30 29649 H 2772.68 2.63621 1.88877 0
M  V30 29650 H 2772.47 3.87235 0.615762 0
M  V30 29651 H 2773.96 3.85492 1.60578 0
M  V30 29652 N 2774.39 0.364449 1.53328 0
M  V30 29653 C 2775.32 -0.474503 2.28628 0
M  V30 29654 C 2776.3 -1.0849 1.31011 0
M  V30 29655 O 2777.49 -1.10236 1.5988 0
M  V30 29656 C 2774.62 -1.61496 3.07468 0
M  V30 29657 C 2773.57 -1.13187 4.12762 0
M  V30 29658 C 2772.9 -2.36247 4.79678 0
M  V30 29659 C 2774.2 -0.217416 5.21847 0
M  V30 29660 H 2775.89 0.153708 2.99005 0
M  V30 29661 H 2773.44 0.0753659 1.43803 0
M  V30 29662 H 2775.39 -2.20849 3.58892 0
M  V30 29663 H 2774.12 -2.27038 2.34779 0
M  V30 29664 H 2772.78 -0.561026 3.62282 0
M  V30 29665 H 2772.42 -3.00243 4.03563 0
M  V30 29666 H 2772.12 -2.04596 5.50831 0
M  V30 29667 H 2773.65 -2.96288 5.33897 0
M  V30 29668 H 2775.06 -0.718393 5.68781 0
M  V30 29669 H 2773.46 0.00816956 6.00099 0
M  V30 29670 H 2774.53 0.740738 4.79209 0
M  V30 29671 N 2775.87 -1.57322 0.0935872 0
M  V30 29672 C 2777.12 -1.94298 -0.570475 0
M  V30 29673 C 2777.45 -0.975219 -1.68285 0
M  V30 29674 O 2776.7 0.00545215 -1.95699 0
M  V30 29675 C 2777 -3.37815 -1.16686 0
M  V30 29676 C 2776.67 -4.50547 -0.17843 0
M  V30 29677 C 2775.33 -4.81109 0.0934321 0
M  V30 29678 C 2777.68 -5.18829 0.496563 0
M  V30 29679 C 2775.01 -5.77282 1.04701 0
M  V30 29680 C 2777.36 -6.16025 1.4386 0
M  V30 29681 C 2776.02 -6.44994 1.71871 0
M  V30 29682 H 2775.29 -0.710988 -0.208752 0
M  V30 29683 H 2777.94 -1.90752 0.169099 0
M  V30 29684 H 2776.25 -3.37932 -1.98265 0
M  V30 29685 H 2777.94 -3.63725 -1.68834 0
M  V30 29686 H 2774.53 -4.26725 -0.400509 0
M  V30 29687 H 2778.72 -4.95394 0.299671 0
M  V30 29688 H 2773.97 -5.98042 1.27104 0
M  V30 29689 H 2778.15 -6.6803 1.96745 0
M  V30 29690 H 2775.77 -7.19325 2.45919 0
M  V30 29691 N 2777.35 0.180099 -1.56568 0
M  V30 29692 C 2778.6 0.898135 -1.81493 0
M  V30 29693 C 2778.92 1.82623 -0.669257 0
M  V30 29694 O 2778.18 1.92652 0.344062 0
M  V30 29695 C 2778.48 1.7339 -3.12523 0
M  V30 29696 C 2778.14 0.955489 -4.4066 0
M  V30 29697 C 2776.81 0.740623 -4.75466 0
M  V30 29698 C 2779.16 0.408857 -5.19594 0
M  V30 29699 C 2776.49 -0.0321159 -5.86691 0
M  V30 29700 C 2778.84 -0.350749 -6.31627 0
M  V30 29701 C 2777.5 -0.576495 -6.65006 0
M  V30 29702 H 2776.77 0.328651 -0.664131 0
M  V30 29703 H 2779.42 0.163583 -1.908 0
M  V30 29704 H 2777.72 2.53758 -2.9852 0
M  V30 29705 H 2779.42 2.29235 -3.29017 0
M  V30 29706 H 2776.01 1.13299 -4.13354 0
M  V30 29707 H 2780.2 0.56222 -4.93105 0
M  V30 29708 H 2775.45 -0.216843 -6.11015 0
M  V30 29709 H 2779.63 -0.781619 -6.92 0
M  V30 29710 H 2777.25 -1.17716 -7.51031 0
M  V30 29711 N 2778.83 1.51088 0.448349 0
M  V30 29712 C 2780.06 1.67002 1.2214 0
M  V30 29713 C 2780.47 0.362731 1.85283 0
M  V30 29714 O 2779.83 -0.65769 1.70237 0
M  V30 29715 C 2779.88 2.77774 2.31352 0
M  V30 29716 O 2779.6 4.03437 1.70794 0
M  V30 29717 C 2781.1 3.04861 3.2183 0
M  V30 29718 H 2778.32 0.560725 0.368549 0
M  V30 29719 H 2780.86 1.97443 0.532584 0
M  V30 29720 H 2779.02 2.49963 2.95969 0
M  V30 29721 H 2779.43 4.64872 2.42887 0
M  V30 29722 H 2780.91 3.85978 3.9462 0
M  V30 29723 H 2781.38 2.16828 3.81945 0
M  V30 29724 H 2781.99 3.3429 2.62927 0
M  V30 29725 N 2780.31 -0.703068 1.41049 0
M  V30 29726 C 2781.56 -1.45868 1.39303 0
M  V30 29727 C 2781.87 -1.956 0.00270515 0
M  V30 29728 O 2783.07 -2.71152 -0.137366 0
M  V30 29729 C 2781.53 -2.63731 2.44896 0
M  V30 29730 C 2781.14 -2.20817 3.898 0
M  V30 29731 C 2782.88 -3.41404 2.52276 0
M  V30 29732 C 2780.79 -3.35594 4.86961 0
M  V30 29733 H 2779.72 -0.547884 0.518015 0
M  V30 29734 H 2782.37 -0.763979 1.6684 0
M  V30 29735 H 2780.75 -3.35432 2.10478 0
M  V30 29736 H 2781.93 -1.56454 4.33427 0
M  V30 29737 H 2780.24 -1.56156 3.86011 0
M  V30 29738 H 2782.84 -4.26834 3.22051 0
M  V30 29739 H 2783.18 -3.86078 1.55721 0
M  V30 29740 H 2783.71 -2.76755 2.85747 0
M  V30 29741 H 2780.45 -2.95939 5.84893 0
M  V30 29742 H 2779.97 -3.98831 4.47989 0
M  V30 29743 H 2781.65 -4.0148 5.07368 0
M  V30 29744 N 2781.78 -1.26752 -0.936569 0
M  V30 29745 C 2783.03 -1.12569 -1.68329 0
M  V30 29746 C 2783.36 0.330134 -1.91678 0
M  V30 29747 O 2782.61 1.25858 -1.49861 0
M  V30 29748 C 2782.91 -1.84499 -3.06096 0
M  V30 29749 C 2782.58 -3.34384 -3.02487 0
M  V30 29750 C 2781.24 -3.75268 -3.0121 0
M  V30 29751 C 2783.59 -4.3006 -2.94445 0
M  V30 29752 C 2780.92 -5.10208 -2.89663 0
M  V30 29753 C 2783.27 -5.65046 -2.84439 0
M  V30 29754 C 2781.94 -6.05235 -2.81508 0
M  V30 29755 H 2781.21 -0.411918 -0.615958 0
M  V30 29756 H 2783.85 -1.57252 -1.09289 0
M  V30 29757 H 2782.16 -1.32299 -3.68788 0
M  V30 29758 H 2783.86 -1.70961 -3.6273 0
M  V30 29759 H 2780.45 -3.01864 -3.04263 0
M  V30 29760 H 2784.63 -3.99452 -2.94537 0
M  V30 29761 H 2779.89 -5.40503 -2.85774 0
M  V30 29762 H 2784.06 -6.38861 -2.77181 0
M  V30 29763 H 2781.69 -7.09752 -2.72316 0
M  V30 29764 N 2783.26 1.1418 -1.08631 0
M  V30 29765 C 2784.54 1.81465 -0.730051 0
M  V30 29766 C 2784.92 1.95923 0.785961 0
M  V30 29767 O 2784.27 1.52089 1.70532 0
M  V30 29768 C 2784.48 3.17011 -1.45962 0
M  V30 29769 C 2785.83 3.92475 -1.62015 0
M  V30 29770 O 2786.85 3.26608 -1.42147 0
M  V30 29771 O 2785.71 5.10597 -1.94815 0
M  V30 29772 H 2782.8 0.784628 -0.26132 0
M  V30 29773 H 2785.35 1.21178 -1.18802 0
M  V30 29774 H 2784.12 3.01665 -2.49227 0
M  V30 29775 H 2783.74 3.84993 -0.993289 0
M  V30 29776 N 2784.74 0.872304 1.31258 0
M  V30 29777 C 2785.65 0.333295 2.3222 0
M  V30 29778 C 2786.67 -0.557984 1.64811 0
M  V30 29779 O 2787.84 -0.454141 1.96213 0
M  V30 29780 C 2784.91 -0.454419 3.43709 0
M  V30 29781 C 2783.97 0.465099 4.26773 0
M  V30 29782 C 2783.2 -0.285116 5.32938 0
M  V30 29783 O 2783.42 -1.5129 5.4997 0
M  V30 29784 O 2782.36 0.358232 6.00833 0
M  V30 29785 H 2786.18 1.17021 2.8025 0
M  V30 29786 H 2783.77 0.635748 1.35198 0
M  V30 29787 H 2785.65 -0.90089 4.11658 0
M  V30 29788 H 2784.33 -1.26784 2.97838 0
M  V30 29789 H 2783.23 0.960119 3.6157 0
M  V30 29790 H 2784.57 1.24418 4.76215 0
M  V30 29791 N 2786.22 -1.44374 0.631976 0
M  V30 29792 C 2787.45 -2.06399 0.143903 0
M  V30 29793 C 2787.86 -1.47233 -1.18186 0
M  V30 29794 O 2787.22 -0.595528 -1.7251 0
M  V30 29795 C 2787.27 -3.61492 0.0238889 0
M  V30 29796 O 2786.99 -4.18454 1.29722 0
M  V30 29797 C 2788.49 -4.40553 -0.492779 0
M  V30 29798 H 2785.71 -0.666206 0.0800659 0
M  V30 29799 H 2788.26 -1.8523 0.866619 0
M  V30 29800 H 2786.41 -3.8192 -0.649271 0
M  V30 29801 H 2786.82 -5.11903 1.14261 0
M  V30 29802 H 2788.3 -5.4949 -0.525764 0
M  V30 29803 H 2788.78 -4.12059 -1.51999 0
M  V30 29804 H 2789.38 -4.25045 0.14716 0
M  V30 29805 N 2787.7 -0.372575 -1.53133 0
M  V30 29806 C 2788.64 0.470591 -2.25952 0
M  V30 29807 C 2789.61 1.07174 -1.26897 0
M  V30 29808 O 2790.8 1.10292 -1.55693 0
M  V30 29809 C 2787.94 1.60074 -3.05729 0
M  V30 29810 C 2787.05 1.02409 -4.19686 0
M  V30 29811 C 2786.19 2.12392 -4.86891 0
M  V30 29812 C 2785.23 1.52228 -5.92869 0
M  V30 29813 N 2784.36 2.56072 -6.53737 0
M  V30 29814 H 2789.2 -0.156868 -2.97587 0
M  V30 29815 H 2786.74 -0.089183 -1.46829 0
M  V30 29816 H 2788.7 2.26655 -3.50262 0
M  V30 29817 H 2787.33 2.19876 -2.36335 0
M  V30 29818 H 2786.38 0.248359 -3.79588 0
M  V30 29819 H 2787.69 0.544279 -4.95822 0
M  V30 29820 H 2786.85 2.86778 -5.34643 0
M  V30 29821 H 2785.58 2.63727 -4.10243 0
M  V30 29822 H 2784.59 0.763589 -5.44472 0
M  V30 29823 H 2785.81 1.01709 -6.7144 0
M  V30 29824 H 2783.76 3.06607 -5.79938 0
M  V30 29825 H 2783.68 2.12798 -7.25433 0
M  V30 29826 H 2784.95 3.30139 -7.06136 0
M  V30 29827 N 2789.17 1.5727 -0.101929 0
M  V30 29828 C 2790.4 1.99364 0.571724 0
M  V30 29829 C 2790.82 0.980796 1.60505 0
M  V30 29830 O 2790.18 -0.0498199 1.81232 0
M  V30 29831 C 2790.23 3.40402 1.1899 0
M  V30 29832 O 2789.33 3.41926 2.30566 0
M  V30 29833 H 2788.68 0.6481 0.144437 0
M  V30 29834 H 2791.21 2.03759 -0.185361 0
M  V30 29835 H 2791.22 3.78244 1.52955 0
M  V30 29836 H 2789.89 4.13641 0.432911 0
M  V30 29837 H 2788.47 3.15886 1.98167 0
M  V30 29838 N 2790.65 -0.171793 1.56661 0
M  V30 29839 C 2791.9 -0.885128 1.83131 0
M  V30 29840 C 2792.25 -1.79892 0.682408 0
M  V30 29841 O 2791.55 -1.88889 -0.321181 0
M  V30 29842 C 2791.74 -1.7173 3.13438 0
M  V30 29843 C 2791.57 -0.885581 4.40894 0
M  V30 29844 C 2790.34 -0.56085 5.02178 0
M  V30 29845 C 2792.54 -0.227363 5.13797 0
M  V30 29846 N 2790.52 0.287061 6.13228 0
M  V30 29847 C 2791.89 0.481733 6.18126 0
M  V30 29848 C 2793.95 -0.145479 4.97687 0
M  V30 29849 C 2792.65 1.26495 7.0809 0
M  V30 29850 C 2794.67 0.624401 5.88095 0
M  V30 29851 C 2794.04 1.32186 6.91886 0
M  V30 29852 H 2790.14 -0.302524 0.721113 0
M  V30 29853 H 2792.72 -0.152144 1.94105 0
M  V30 29854 H 2790.89 -2.42171 3.03657 0
M  V30 29855 H 2792.62 -2.3719 3.27907 0
M  V30 29856 H 2789.38 -0.89082 4.65147 0
M  V30 29857 H 2789.8 0.701312 6.73358 0
M  V30 29858 H 2794.44 -0.670353 4.17452 0
M  V30 29859 H 2792.16 1.80117 7.87771 0
M  V30 29860 H 2795.75 0.689423 5.77701 0
M  V30 29861 H 2794.63 1.90804 7.60634 0
M  V30 29862 N 2792.13 -1.51324 -0.44033 0
M  V30 29863 C 2793.36 -1.67404 -1.21076 0
M  V30 29864 C 2793.77 -0.369631 -1.85554 0
M  V30 29865 O 2793.11 0.661495 -1.71377 0
M  V30 29866 C 2793.17 -2.7306 -2.33834 0
M  V30 29867 C 2792.84 -4.15746 -1.89748 0
M  V30 29868 C 2793.83 -5.00623 -1.4026 0
M  V30 29869 C 2791.52 -4.6183 -1.97531 0
M  V30 29870 C 2793.51 -6.29643 -0.991363 0
M  V30 29871 C 2791.2 -5.90848 -1.56019 0
M  V30 29872 C 2792.2 -6.74582 -1.06903 0
M  V30 29873 O 2791.89 -8.01188 -0.659793 0
M  V30 29874 H 2791.62 -0.565016 -0.371123 0
M  V30 29875 H 2794.17 -1.98488 -0.528374 0
M  V30 29876 H 2792.4 -2.37285 -3.05341 0
M  V30 29877 H 2794.09 -2.78049 -2.95708 0
M  V30 29878 H 2794.86 -4.66223 -1.33644 0
M  V30 29879 H 2790.74 -3.9678 -2.34706 0
M  V30 29880 H 2794.28 -6.94952 -0.607303 0
M  V30 29881 H 2790.18 -6.24762 -1.62304 0
M  V30 29882 H 2790.95 -8.14718 -0.785909 0
M  V30 29883 N 2793.61 0.695578 -1.41419 0
M  V30 29884 C 2794.86 1.45562 -1.40776 0
M  V30 29885 C 2795.18 1.94493 -0.0168946 0
M  V30 29886 O 2794.44 1.69899 0.971229 0
M  V30 29887 C 2794.74 2.68298 -2.36117 0
M  V30 29888 C 2794.4 2.38024 -3.82956 0
M  V30 29889 C 2793.07 2.29478 -4.22958 0
M  V30 29890 C 2795.42 2.13053 -4.75666 0
M  V30 29891 C 2792.75 1.94058 -5.53677 0
M  V30 29892 C 2795.1 1.79141 -6.06705 0
M  V30 29893 C 2793.76 1.69091 -6.45728 0
M  V30 29894 H 2793.03 0.532649 -0.515137 0
M  V30 29895 H 2795.68 0.795016 -1.74218 0
M  V30 29896 H 2793.98 3.39292 -1.9593 0
M  V30 29897 H 2795.68 3.26438 -2.32893 0
M  V30 29898 H 2792.27 2.4557 -3.51274 0
M  V30 29899 H 2796.45 2.186 -4.45565 0
M  V30 29900 H 2791.71 1.84829 -5.82793 0
M  V30 29901 H 2795.88 1.58838 -6.78044 0
M  V30 29902 H 2793.51 1.41413 -7.46931 0
M  V30 29903 N 2795.09 1.27247 0.929833 0
M  V30 29904 C 2796.32 1.16268 1.71142 0
M  V30 29905 C 2796.73 -0.280753 1.86701 0
M  V30 29906 O 2796.09 -1.19134 1.38251 0
M  V30 29907 C 2796.14 1.83916 3.11219 0
M  V30 29908 O 2795.86 3.22619 2.96392 0
M  V30 29909 C 2797.36 1.79035 4.05538 0
M  V30 29910 H 2794.58 0.404338 0.535492 0
M  V30 29911 H 2797.12 1.68079 1.16489 0
M  V30 29912 H 2795.28 1.36015 3.62738 0
M  V30 29913 H 2795.69 3.56268 3.84933 0
M  V30 29914 H 2797.17 2.30987 5.01347 0
M  V30 29915 H 2797.64 0.759244 4.32588 0
M  V30 29916 H 2798.25 2.26541 3.59943 0
M  V30 29917 N 2796.57 -1.13603 1.09235 0
M  V30 29918 C 2797.48 -2.22558 0.741978 0
M  V30 29919 C 2798.49 -1.72118 -0.255206 0
M  V30 29920 O 2799.67 -2.01166 -0.0970394 0
M  V30 29921 C 2796.73 -3.46304 0.165656 0
M  V30 29922 C 2795.79 -4.11643 1.21854 0
M  V30 29923 C 2795.03 -5.29483 0.669619 0
M  V30 29924 O 2795.25 -5.68132 -0.508128 0
M  V30 29925 O 2794.18 -5.8482 1.42371 0
M  V30 29926 H 2798.01 -2.54896 1.65111 0
M  V30 29927 H 2795.59 -1.21698 0.866605 0
M  V30 29928 H 2797.48 -4.21124 -0.152518 0
M  V30 29929 H 2796.15 -3.1567 -0.716518 0
M  V30 29930 H 2795.06 -3.38659 1.58937 0
M  V30 29931 H 2796.39 -4.46403 2.07328 0
M  V30 29932 N 2798.04 -0.879253 -1.30793 0
M  V30 29933 C 2798.99 -0.331152 -2.30231 0
M  V30 29934 C 2799.99 0.558766 -1.59919 0
M  V30 29935 O 2801.19 0.443835 -1.74442 0
M  V30 29936 H 2797.57 -0.0884221 -0.746783 0
M  V30 29937 H 2799.54 -1.18358 -2.73923 0
M  V30 29938 C 2798.29 0.444341 -3.44849 0
M  V30 29939 H 2797.61 -0.231176 -3.99131 0
M  V30 29940 H 2799.05 0.793036 -4.16518 0
M  V30 29941 C 2797.51 1.63921 -2.94332 0
M  V30 29942 O 2798.04 2.73857 -2.9388 0
M  V30 29943 N 2796.24 1.47445 -2.50416 0
M  V30 29944 H 2795.79 0.580106 -2.50983 0
M  V30 29945 H 2795.75 2.2753 -2.16973 0
M  V30 29946 N 2799.52 1.44037 -0.639624 0
M  V30 29947 C 2800.45 2.27936 0.109695 0
M  V30 29948 C 2801.43 1.39036 0.843071 0
M  V30 29949 O 2802.62 1.68478 0.845426 0
M  V30 29950 C 2799.74 3.18155 1.16168 0
M  V30 29951 C 2798.79 4.23221 0.52788 0
M  V30 29952 S 2799.62 5.31057 -0.688411 0
M  V30 29953 C 2800.78 6.24844 0.363371 0
M  V30 29954 H 2801.01 2.91141 -0.602037 0
M  V30 29955 H 2798.54 1.48348 -0.428046 0
M  V30 29956 H 2800.5 3.70683 1.76365 0
M  V30 29957 H 2799.16 2.54155 1.84565 0
M  V30 29958 H 2798.36 4.86395 1.32045 0
M  V30 29959 H 2797.96 3.74 0.000330704 0
M  V30 29960 H 2800.25 6.66176 1.23351 0
M  V30 29961 H 2801.19 7.07717 -0.233005 0
M  V30 29962 H 2801.6 5.60229 0.693081 0
M  V30 29963 N 2801 0.380691 1.52933 0
M  V30 29964 C 2801.91 -0.466152 2.29922 0
M  V30 29965 C 2802.93 -1.0792 1.36489 0
M  V30 29966 O 2804.1 -1.08687 1.69555 0
M  V30 29967 C 2801.17 -1.58261 3.08471 0
M  V30 29968 C 2800.23 -0.995553 4.17597 0
M  V30 29969 C 2799.46 -2.0588 4.92391 0
M  V30 29970 O 2799.68 -3.27246 4.6719 0
M  V30 29971 O 2798.62 -1.68092 5.77952 0
M  V30 29972 H 2802.44 0.160788 3.03274 0
M  V30 29973 H 2800.03 0.144643 1.48698 0
M  V30 29974 H 2801.91 -2.23139 3.57473 0
M  V30 29975 H 2800.59 -2.19467 2.37941 0
M  V30 29976 H 2799.49 -0.310266 3.72811 0
M  V30 29977 H 2800.83 -0.427831 4.90337 0
M  V30 29978 N 2802.48 -1.57214 0.110268 0
M  V30 29979 C 2803.89 -1.57687 -0.246352 0
M  V30 29980 C 2804.09 -1.12244 -1.67343 0
M  V30 29981 O 2803.15 -0.805825 -2.39296 0
M  V30 29982 C 2804.46 -3.00693 -0.020976 0
M  V30 29983 C 2806.01 -3.12878 -0.0875527 0
M  V30 29984 C 2806.49 -4.57868 0.11002 0
M  V30 29985 N 2807.98 -4.63167 0.0556949 0
M  V30 29986 C 2808.71 -5.73106 0.183596 0
M  V30 29987 N 2808.21 -6.91826 0.36718 0
M  V30 29988 N 2810 -5.61964 0.123788 0
M  V30 29989 H 2802.15 -1.85057 1.04249 0
M  V30 29990 H 2804.41 -0.854847 0.409805 0
M  V30 29991 H 2804.12 -3.38195 0.965263 0
M  V30 29992 H 2803.99 -3.69532 -0.756683 0
M  V30 29993 H 2806.38 -2.75239 -1.06431 0
M  V30 29994 H 2806.46 -2.46599 0.679893 0
M  V30 29995 H 2806.11 -4.96204 1.08371 0
M  V30 29996 H 2806.04 -5.22226 -0.677305 0
M  V30 29997 H 2808.53 -3.77809 -0.0830398 0
M  V30 29998 H 2808.84 -7.71454 0.455874 0
M  V30 29999 H 2807.19 -6.9383 0.403042 0
M  V30 30000 H 2810.38 -4.68096 -0.0186105 0
M  V30 30001 H 2810.55 -6.47603 0.226911 0
M  V30 30002 N 2803.96 0.163482 -1.5675 0
M  V30 30003 C 2804.9 1.22155 -1.97941 0
M  V30 30004 C 2805.9 1.45394 -0.869314 0
M  V30 30005 O 2807.1 1.45881 -1.05445 0
M  V30 30006 H 2803.48 0.410804 -0.629876 0
M  V30 30007 H 2805.45 0.84733 -2.86117 0
M  V30 30008 C 2804.2 2.55147 -2.3621 0
M  V30 30009 H 2803.52 2.38091 -3.21174 0
M  V30 30010 H 2804.96 3.2785 -2.68869 0
M  V30 30011 C 2803.42 3.1448 -1.20847 0
M  V30 30012 O 2803.95 3.98572 -0.500328 0
M  V30 30013 N 2802.16 2.73685 -0.976991 0
M  V30 30014 H 2801.7 2.05402 -1.5546 0
M  V30 30015 H 2801.66 3.13718 -0.206967 0
M  V30 30016 N 2805.43 1.51555 0.432299 0
M  V30 30017 C 2806.67 1.66135 1.19073 0
M  V30 30018 C 2807.04 0.371906 1.88364 0
M  V30 30019 O 2808.24 0.393537 2.65904 0
M  V30 30020 C 2806.51 2.83465 2.17675 0
M  V30 30021 S 2808.07 3.18402 3.01937 0
M  V30 30022 H 2804.89 0.585258 0.403725 0
M  V30 30023 H 2807.49 1.89477 0.481521 0
M  V30 30024 H 2806.19 3.75586 1.65418 0
M  V30 30025 H 2805.72 2.62327 2.93169 0
M  V30 30026 H 2807.74 2.65226 4.19368 0
M  V30 30027 N 2806.91 -0.688069 1.41786 0
M  V30 30028 C 2808.33 -0.999586 1.2442 0
M  V30 30029 C 2808.53 -2.01021 0.138904 0
M  V30 30030 O 2807.58 -2.47616 -0.49424 0
M  V30 30031 C 2808.9 -1.51704 2.59627 0
M  V30 30032 C 2810.44 -1.6355 2.66872 0
M  V30 30033 C 2810.92 -2.18695 4.02413 0
M  V30 30034 N 2812.41 -2.26046 4.04299 0
M  V30 30035 C 2813.15 -2.69759 5.05982 0
M  V30 30036 N 2812.64 -3.13022 6.18052 0
M  V30 30037 N 2814.43 -2.6939 4.93341 0
M  V30 30038 H 2806.59 -0.0187054 2.12392 0
M  V30 30039 H 2808.85 -0.0708507 0.945349 0
M  V30 30040 H 2808.55 -0.848999 3.41299 0
M  V30 30041 H 2808.43 -2.49798 2.82632 0
M  V30 30042 H 2810.82 -2.29464 1.85554 0
M  V30 30043 H 2810.9 -0.639813 2.47669 0
M  V30 30044 H 2810.54 -1.53394 4.84183 0
M  V30 30045 H 2810.47 -3.19029 4.1896 0
M  V30 30046 H 2812.96 -1.95524 3.23386 0
M  V30 30047 H 2813.27 -3.45025 6.91504 0
M  V30 30048 H 2811.62 -3.10912 6.21577 0
M  V30 30049 H 2814.81 -2.34945 4.04869 0
M  V30 30050 H 2814.98 -3.03138 5.72723 0
M  V30 30051 N 2808.39 -1.27739 -0.923072 0
M  V30 30052 C 2809.35 -1.10898 -2.00585 0
M  V30 30053 C 2810.35 -0.0515209 -1.60717 0
M  V30 30054 O 2811.54 -0.296511 -1.71658 0
M  V30 30055 C 2808.67 -0.690776 -3.33828 0
M  V30 30056 H 2809.87 -2.07052 -2.16955 0
M  V30 30057 H 2807.42 -1.10592 -1.10449 0
M  V30 30058 H 2808.16 0.271944 -3.23158 0
M  V30 30059 H 2807.94 -1.45455 -3.64123 0
M  V30 30060 H 2809.43 -0.595324 -4.13335 0
M  V30 30061 N 2809.87 1.13022 -1.09836 0
M  V30 30062 C 2811.28 1.65937 -0.85568 0
M  V30 30063 C 2811.63 1.86308 0.615126 0
M  V30 30064 O 2810.76 1.585 1.47332 0
M  V30 30065 C 2811.35 3.01431 -1.54676 0
M  V30 30066 C 2809.91 3.51321 -1.35095 0
M  V30 30067 C 2809.06 2.26475 -1.60014 0
M  V30 30068 H 2812.01 0.968867 -1.25693 0
M  V30 30069 H 2812.03 3.67603 -0.982244 0
M  V30 30070 H 2811.54 2.86573 -2.6172 0
M  V30 30071 H 2809.64 3.71375 -0.301856 0
M  V30 30072 H 2809.75 4.31174 -2.08867 0
M  V30 30073 H 2808.12 2.33275 -1.0225 0
M  V30 30074 H 2808.9 2.14177 -2.68297 0
M  V30 30075 N 2811.35 0.886177 1.30325 0
M  V30 30076 C 2812.59 0.511946 1.97885 0
M  V30 30077 C 2812.95 -0.921915 1.68418 0
M  V30 30078 O 2814.15 -1.40233 2.29321 0
M  V30 30079 C 2812.42 0.780506 3.48773 0
M  V30 30080 S 2813.98 0.508558 4.35843 0
M  V30 30081 H 2810.8 0.19044 0.685021 0
M  V30 30082 H 2813.4 1.1457 1.58411 0
M  V30 30083 H 2812.11 1.82255 3.67711 0
M  V30 30084 H 2811.64 0.134353 3.93171 0
M  V30 30085 H 2813.65 -0.652304 4.91894 0
M  V30 30086 N 2812.82 -1.43695 0.647253 0
M  V30 30087 C 2813.77 -2.32523 -0.0599696 0
M  V30 30088 C 2814.77 -1.48272 -0.819251 0
M  V30 30089 O 2815.97 -1.64518 -0.730327 0
M  V30 30090 H 2812.35 -0.75103 -0.038174 0
M  V30 30091 H 2814.32 -2.89903 0.707029 0
M  V30 30092 C 2813.07 -3.32499 -1.01684 0
M  V30 30093 H 2812.39 -3.97349 -0.442014 0
M  V30 30094 H 2813.83 -3.97298 -1.48088 0
M  V30 30095 C 2812.29 -2.62644 -2.10997 0
M  V30 30096 O 2812.82 -2.43746 -3.19297 0
M  V30 30097 N 2811.03 -2.22116 -1.87384 0
M  V30 30098 H 2810.57 -2.37686 -0.993132 0
M  V30 30099 H 2810.53 -1.75706 -2.6072 0
M  V30 30100 N 2814.3 -0.388796 -1.52729 0
M  V30 30101 C 2815.55 0.194798 -2.00757 0
M  V30 30102 C 2815.86 1.47944 -1.27953 0
M  V30 30103 O 2817.07 2.14305 -1.6669 0
M  V30 30104 C 2815.53 0.397699 -3.57696 0
M  V30 30105 C 2815.13 -0.87366 -4.39399 0
M  V30 30106 C 2816.88 0.937686 -4.14014 0
M  V30 30107 C 2814.79 -0.639065 -5.87937 0
M  V30 30108 H 2813.72 0.0765713 -0.750102 0
M  V30 30109 H 2816.37 -0.511117 -1.76238 0
M  V30 30110 H 2814.75 1.16545 -3.78462 0
M  V30 30111 H 2815.92 -1.64599 -4.304 0
M  V30 30112 H 2814.24 -1.33856 -3.94299 0
M  V30 30113 H 2816.83 1.1289 -5.22647 0
M  V30 30114 H 2817.18 1.9066 -3.70074 0
M  V30 30115 H 2817.71 0.229518 -3.97137 0
M  V30 30116 H 2814.45 -1.57896 -6.36199 0
M  V30 30117 H 2813.97 0.0943376 -5.99726 0
M  V30 30118 H 2815.65 -0.273413 -6.46422 0
M  V30 30119 N 2815.78 1.57153 -0.118604 0
M  V30 30120 C 2816.71 2.12364 0.86221 0
M  V30 30121 C 2817.73 1.06627 1.23023 0
M  V30 30122 O 2818.91 1.34 1.17924 0
M  V30 30123 C 2816.01 2.60798 2.1642 0
M  V30 30124 C 2815.19 3.90629 1.96794 0
M  V30 30125 C 2814.25 4.24665 3.10719 0
M  V30 30126 O 2813.27 4.93489 2.8365 0
M  V30 30127 N 2814.47 3.81953 4.37141 0
M  V30 30128 H 2817.24 2.97145 0.390512 0
M  V30 30129 H 2814.8 1.61766 0.0658306 0
M  V30 30130 H 2816.79 2.80598 2.91628 0
M  V30 30131 H 2815.36 1.80899 2.5494 0
M  V30 30132 H 2814.58 3.79742 1.05781 0
M  V30 30133 H 2815.87 4.75523 1.80985 0
M  V30 30134 H 2815.27 3.26443 4.62008 0
M  V30 30135 H 2813.83 4.06862 5.09221 0
M  V30 30136 N 2817.26 -0.155167 1.56834 0
M  V30 30137 C 2818.19 -1.22108 1.92782 0
M  V30 30138 C 2819.17 -1.41973 0.792613 0
M  V30 30139 O 2820.35 -1.56718 1.04746 0
M  V30 30140 C 2817.48 -2.58138 2.19277 0
M  V30 30141 C 2816.53 -2.54915 3.41937 0
M  V30 30142 S 2817.36 -2.0241 4.95773 0
M  V30 30143 C 2818.52 -3.40185 5.25381 0
M  V30 30144 H 2818.75 -0.914343 2.82891 0
M  V30 30145 H 2816.28 -0.360435 1.50134 0
M  V30 30146 H 2818.24 -3.36423 2.35223 0
M  V30 30147 H 2816.9 -2.86004 1.29848 0
M  V30 30148 H 2816.09 -3.55031 3.57727 0
M  V30 30149 H 2815.7 -1.84734 3.25191 0
M  V30 30150 H 2817.99 -4.36259 5.18348 0
M  V30 30151 H 2818.93 -3.29255 6.26895 0
M  V30 30152 H 2819.34 -3.36943 4.52912 0
M  V30 30153 N 2818.74 -1.51782 -0.424256 0
M  V30 30154 C 2819.65 -1.76905 -1.54084 0
M  V30 30155 C 2820.66 -0.653854 -1.61247 0
M  V30 30156 O 2821.84 -0.937583 -1.78245 0
M  V30 30157 C 2818.9 -1.90068 -2.89957 0
M  V30 30158 C 2817.96 -3.1395 -2.92803 0
M  V30 30159 C 2817.2 -3.26476 -4.22195 0
M  V30 30160 O 2817.42 -2.44625 -5.15281 0
M  V30 30161 O 2816.35 -4.19538 -4.31592 0
M  V30 30162 H 2820.18 -2.71649 -1.35795 0
M  V30 30163 H 2817.77 -1.36442 -0.608594 0
M  V30 30164 H 2819.65 -2.00637 -3.70571 0
M  V30 30165 H 2818.32 -0.985121 -3.08346 0
M  V30 30166 H 2817.23 -3.08851 -2.11097 0
M  V30 30167 H 2818.56 -4.05238 -2.79361 0
M  V30 30168 N 2820.21 0.68054 -1.42149 0
M  V30 30169 C 2821.49 1.43612 -1.32797 0
M  V30 30170 C 2821.87 2.11067 0.0373779 0
M  V30 30171 O 2821.22 2.02815 1.05254 0
M  V30 30172 C 2821.43 2.44326 -2.4921 0
M  V30 30173 C 2822.78 3.09139 -2.91064 0
M  V30 30174 O 2823.8 2.54653 -2.49059 0
M  V30 30175 O 2822.66 4.07859 -3.63748 0
M  V30 30176 H 2819.75 0.640291 -0.523408 0
M  V30 30177 H 2822.3 0.709748 -1.54145 0
M  V30 30178 H 2821.07 1.93241 -3.40255 0
M  V30 30179 H 2820.7 3.24452 -2.29818 0
M  V30 30180 N 2821.69 1.28226 0.916285 0
M  V30 30181 C 2823.1 1.13782 1.48022 0
M  V30 30182 C 2823.45 -0.273105 1.9429 0
M  V30 30183 O 2822.58 -1.16713 1.82228 0
M  V30 30184 C 2823.17 2.05939 2.69025 0
M  V30 30185 C 2821.73 1.95567 3.21606 0
M  V30 30186 C 2820.88 1.97828 1.94318 0
M  V30 30187 H 2823.83 1.40953 0.729248 0
M  V30 30188 H 2823.85 1.6219 3.44201 0
M  V30 30189 H 2823.36 3.0862 2.3532 0
M  V30 30190 H 2821.47 0.959139 3.60043 0
M  V30 30191 H 2821.58 2.82394 3.87027 0
M  V30 30192 H 2819.94 1.42202 2.11307 0
M  V30 30193 H 2820.73 3.02183 1.62911 0
M  V30 30194 N 2823.17 -1.12438 1.10433 0
M  V30 30195 C 2824.4 -1.8777 0.868905 0
M  V30 30196 C 2824.81 -1.79651 -0.580614 0
M  V30 30197 O 2824.17 -1.17039 -1.40029 0
M  V30 30198 C 2824.22 -3.36983 1.30861 0
M  V30 30199 O 2823.94 -3.44909 2.70129 0
M  V30 30200 C 2825.44 -4.29254 1.10707 0
M  V30 30201 H 2822.66 -0.594115 0.311879 0
M  V30 30202 H 2825.21 -1.4227 1.46899 0
M  V30 30203 H 2823.36 -3.80027 0.752192 0
M  V30 30204 H 2823.78 -4.37743 2.88931 0
M  V30 30205 H 2825.25 -5.32236 1.46387 0
M  V30 30206 H 2825.73 -4.39176 0.0456999 0
M  V30 30207 H 2826.33 -3.91991 1.64995 0
M  V30 30208 N 2824.65 -0.893076 -1.29853 0
M  V30 30209 C 2825.9 -0.515619 -1.95825 0
M  V30 30210 C 2826.22 0.936812 -1.70453 0
M  V30 30211 O 2825.48 1.67828 -1.0066 0
M  V30 30212 C 2825.78 -0.74665 -3.49514 0
M  V30 30213 C 2825.44 -2.17542 -3.94951 0
M  V30 30214 C 2824.11 -2.5661 -4.07069 0
M  V30 30215 C 2826.46 -3.10615 -4.18531 0
M  V30 30216 C 2823.79 -3.87946 -4.40131 0
M  V30 30217 C 2826.14 -4.41492 -4.53065 0
M  V30 30218 C 2824.8 -4.80442 -4.63391 0
M  V30 30219 H 2824.07 -0.188678 -0.716576 0
M  V30 30220 H 2826.72 -1.13047 -1.54572 0
M  V30 30221 H 2825.02 -0.048824 -3.9177 0
M  V30 30222 H 2826.72 -0.43408 -3.98644 0
M  V30 30223 H 2823.31 -1.86218 -3.86032 0
M  V30 30224 H 2827.5 -2.81648 -4.08642 0
M  V30 30225 H 2822.75 -4.17854 -4.46327 0
M  V30 30226 H 2826.93 -5.13642 -4.7026 0
M  V30 30227 H 2824.55 -5.82248 -4.88765 0
M  V30 30228 N 2826.13 1.4335 -0.654865 0
M  V30 30229 C 2827.07 2.30772 0.0357308 0
M  V30 30230 C 2828.04 1.44843 0.81301 0
M  V30 30231 O 2829.23 1.73709 0.789283 0
M  V30 30232 C 2826.37 3.30444 0.995025 0
M  V30 30233 C 2825.48 4.31471 0.213675 0
M  V30 30234 C 2824.62 5.18224 1.16692 0
M  V30 30235 C 2823.66 6.10943 0.376094 0
M  V30 30236 N 2822.79 6.90315 1.28101 0
M  V30 30237 H 2827.63 2.89279 -0.71564 0
M  V30 30238 H 2825.17 1.42508 -0.36467 0
M  V30 30239 H 2827.13 3.86741 1.56483 0
M  V30 30240 H 2825.76 2.73583 1.71325 0
M  V30 30241 H 2824.81 3.77455 -0.472444 0
M  V30 30242 H 2826.12 4.97184 -0.401191 0
M  V30 30243 H 2825.28 5.79156 1.8073 0
M  V30 30244 H 2824.02 4.52641 1.81569 0
M  V30 30245 H 2823.02 5.49099 -0.27763 0
M  V30 30246 H 2824.25 6.7857 -0.268298 0
M  V30 30247 H 2822.19 6.27379 1.91655 0
M  V30 30248 H 2822.11 7.52556 0.720747 0
M  V30 30249 H 2823.38 7.5575 1.90949 0
M  V30 30250 N 2827.61 0.39689 1.52521 0
M  V30 30251 C 2828.52 -0.44174 2.30404 0
M  V30 30252 C 2829.53 -1.06466 1.37626 0
M  V30 30253 O 2830.71 -1.06883 1.70699 0
M  V30 30254 C 2827.77 -1.5498 3.10132 0
M  V30 30255 C 2826.83 -0.951206 4.18629 0
M  V30 30256 C 2826.07 -2.00646 4.94547 0
M  V30 30257 O 2826.29 -3.22272 4.70634 0
M  V30 30258 O 2825.22 -1.61952 5.79703 0
M  V30 30259 H 2829.05 0.192946 3.03086 0
M  V30 30260 H 2826.63 0.160406 1.48536 0
M  V30 30261 H 2828.52 -2.19335 3.5982 0
M  V30 30262 H 2827.19 -2.16931 2.40255 0
M  V30 30263 H 2826.1 -0.270707 3.73119 0
M  V30 30264 H 2827.43 -0.375801 4.90763 0
M  V30 30265 N 2829.08 -1.57088 0.126936 0
M  V30 30266 C 2830.03 -2.16996 -0.83758 0
M  V30 30267 C 2831.03 -1.12136 -1.26972 0
M  V30 30268 O 2832.23 -1.30425 -1.24054 0
M  V30 30269 H 2828.61 -0.694564 -0.288243 0
M  V30 30270 H 2830.58 -2.96807 -0.307905 0
M  V30 30271 C 2829.33 -2.7902 -2.07469 0
M  V30 30272 H 2828.65 -3.59411 -1.75111 0
M  V30 30273 H 2830.09 -3.24465 -2.72944 0
M  V30 30274 C 2828.55 -1.76503 -2.86964 0
M  V30 30275 O 2829.08 -1.22323 -3.82623 0
M  V30 30276 N 2827.28 -1.46262 -2.51109 0
M  V30 30277 H 2826.83 -1.90513 -1.73386 0
M  V30 30278 H 2826.79 -0.779139 -3.04593 0
M  V30 30279 N 2830.56 0.146848 -1.56914 0
M  V30 30280 C 2831.79 0.873093 -1.87245 0
M  V30 30281 C 2832.2 1.75245 -0.713158 0
M  V30 30282 O 2831.54 1.80781 0.326196 0
M  V30 30283 C 2831.6 1.78102 -3.12282 0
M  V30 30284 C 2831.27 1.07881 -4.44084 0
M  V30 30285 C 2832.27 0.432643 -5.18097 0
M  V30 30286 C 2829.95 1.06827 -4.90809 0
M  V30 30287 C 2831.94 -0.214681 -6.37038 0
M  V30 30288 C 2829.63 0.417136 -6.09675 0
M  V30 30289 C 2830.63 -0.223213 -6.82635 0
M  V30 30290 O 2830.32 -0.864024 -7.99243 0
M  V30 30291 H 2830.05 0.257828 -0.624901 0
M  V30 30292 H 2832.6 0.144304 -2.04892 0
M  V30 30293 H 2830.83 2.55075 -2.90643 0
M  V30 30294 H 2832.52 2.37923 -3.28858 0
M  V30 30295 H 2833.29 0.432592 -4.83067 0
M  V30 30296 H 2829.17 1.55611 -4.33943 0
M  V30 30297 H 2832.71 -0.715087 -6.93925 0
M  V30 30298 H 2828.61 0.414854 -6.44166 0
M  V30 30299 H 2829.38 -0.765708 -8.14911 0
M  V30 30300 N 2832.04 1.52005 0.4162 0
M  V30 30301 C 2833.46 1.4065 0.754295 0
M  V30 30302 C 2833.66 0.505427 1.95058 0
M  V30 30303 O 2832.71 -0.0314613 2.5248 0
M  V30 30304 C 2834.02 2.83057 1.01485 0
M  V30 30305 C 2835.57 2.92352 1.118 0
M  V30 30306 C 2836.05 4.35711 1.41137 0
M  V30 30307 N 2837.54 4.38914 1.48016 0
M  V30 30308 C 2838.27 5.46892 1.72328 0
M  V30 30309 N 2837.77 6.64998 1.94292 0
M  V30 30310 N 2839.56 5.34398 1.74285 0
M  V30 30311 H 2831.71 2.09128 -0.37136 0
M  V30 30312 H 2833.98 0.942297 -0.103828 0
M  V30 30313 H 2833.68 3.51083 0.208283 0
M  V30 30314 H 2833.56 3.23672 1.93692 0
M  V30 30315 H 2835.94 2.24511 1.91517 0
M  V30 30316 H 2836.02 2.55204 0.174465 0
M  V30 30317 H 2835.67 5.04109 0.619395 0
M  V30 30318 H 2835.6 4.70389 2.36731 0
M  V30 30319 H 2838.09 3.53774 1.32861 0
M  V30 30320 H 2838.4 7.43075 2.12272 0
M  V30 30321 H 2836.75 6.68076 1.91571 0
M  V30 30322 H 2839.94 4.41107 1.5666 0
M  V30 30323 H 2840.11 6.18624 1.92894 0
M  V30 30324 N 2833.52 -0.672992 1.42508 0
M  V30 30325 C 2834.76 -1.43304 1.43074 0
M  V30 30326 C 2835.09 -1.94441 0.0478345 0
M  V30 30327 O 2834.35 -1.71423 -0.944076 0
M  V30 30328 C 2834.65 -2.64507 2.40355 0
M  V30 30329 C 2834.31 -2.31901 3.86694 0
M  V30 30330 C 2832.97 -2.2272 4.26555 0
M  V30 30331 C 2835.33 -2.05459 4.78995 0
M  V30 30332 C 2832.65 -1.85225 5.56695 0
M  V30 30333 C 2835.01 -1.69466 6.09479 0
M  V30 30334 C 2833.67 -1.58796 6.48336 0
M  V30 30335 H 2832.94 -0.524386 0.523546 0
M  V30 30336 H 2835.59 -0.767199 1.7546 0
M  V30 30337 H 2833.89 -3.36132 2.01303 0
M  V30 30338 H 2835.59 -3.22692 2.38057 0
M  V30 30339 H 2832.18 -2.3995 3.55136 0
M  V30 30340 H 2836.36 -2.11484 4.48986 0
M  V30 30341 H 2831.62 -1.75534 5.8566 0
M  V30 30342 H 2835.79 -1.48031 6.80485 0
M  V30 30343 H 2833.42 -1.29512 7.49087 0
M  V30 30344 N 2835 -1.2871 -0.909472 0
M  V30 30345 C 2835.95 -1.0964 -1.99908 0
M  V30 30346 C 2836.93 -0.0187483 -1.60889 0
M  V30 30347 O 2838.12 -0.239369 -1.75374 0
M  V30 30348 C 2835.25 -0.764761 -3.34673 0
M  V30 30349 C 2834.34 -1.88146 -3.80081 0
M  V30 30350 N 2834.73 -3.12368 -3.97819 0
M  V30 30351 C 2833.03 -1.77228 -4.09275 0
M  V30 30352 C 2833.73 -3.85159 -4.35922 0
M  V30 30353 N 2832.7 -3.13036 -4.4442 0
M  V30 30354 H 2836.5 -2.03887 -2.11678 0
M  V30 30355 H 2834.02 -1.19692 -1.09761 0
M  V30 30356 H 2836.02 -0.609205 -4.12425 0
M  V30 30357 H 2834.68 0.169895 -3.24255 0
M  V30 30358 H 2835.69 -3.47931 -3.8362 0
M  V30 30359 H 2832.36 -0.909692 -4.07469 0
M  V30 30360 H 2833.75 -4.92014 -4.57572 0
M  V30 30361 N 2836.47 1.1185 -1.11028 0
M  V30 30362 C 2837.44 2.15948 -0.768044 0
M  V30 30363 C 2838.44 1.59416 0.21051 0
M  V30 30364 O 2839.63 1.74195 -0.0134285 0
M  V30 30365 C 2836.76 3.40618 -0.138738 0
M  V30 30366 H 2837.95 2.47737 -1.69017 0
M  V30 30367 H 2835.5 1.26963 -0.9116 0
M  V30 30368 H 2836.24 3.14434 0.793817 0
M  V30 30369 H 2836.02 3.82929 -0.84308 0
M  V30 30370 H 2837.51 4.17514 0.0847305 0
M  V30 30371 N 2837.95 0.89995 1.29378 0
M  V30 30372 C 2839.2 0.521971 1.94829 0
M  V30 30373 C 2839.51 -0.936443 1.71727 0
M  V30 30374 O 2840.72 -1.42195 2.31285 0
M  V30 30375 C 2839.18 0.882611 3.4891 0
M  V30 30376 C 2838.78 2.35981 3.80811 0
M  V30 30377 C 2840.53 0.574554 4.20594 0
M  V30 30378 C 2838.43 2.6613 5.28137 0
M  V30 30379 H 2837.36 0.191481 0.729281 0
M  V30 30380 H 2840.02 1.09698 1.47101 0
M  V30 30381 H 2838.4 0.236529 3.95293 0
M  V30 30382 H 2839.57 3.05147 3.45286 0
M  V30 30383 H 2837.89 2.63692 3.22266 0
M  V30 30384 H 2840.48 0.776649 5.2903 0
M  V30 30385 H 2840.83 -0.486932 4.13442 0
M  V30 30386 H 2841.36 1.17849 3.79943 0
M  V30 30387 H 2838.1 3.71077 5.40353 0
M  V30 30388 H 2837.62 2.01588 5.64909 0
M  V30 30389 H 2839.3 2.5241 5.95734 0
M  V30 30390 N 2839.43 -1.43001 0.662458 0
M  V30 30391 C 2840.38 -2.32573 -0.0353041 0
M  V30 30392 C 2841.37 -1.49133 -0.803479 0
M  V30 30393 O 2842.58 -1.65284 -0.712836 0
M  V30 30394 H 2838.95 -0.751393 -0.0302062 0
M  V30 30395 H 2840.92 -2.89137 0.737737 0
M  V30 30396 C 2839.67 -3.33559 -0.981517 0
M  V30 30397 H 2839 -3.97796 -0.399845 0
M  V30 30398 H 2840.44 -3.98847 -1.43866 0
M  V30 30399 C 2838.9 -2.64867 -2.082 0
M  V30 30400 O 2839.43 -2.47119 -3.16694 0
M  V30 30401 N 2837.63 -2.24091 -1.85018 0
M  V30 30402 H 2837.18 -2.38726 -0.967867 0
M  V30 30403 H 2837.14 -1.78461 -2.58842 0
M  V30 30404 N 2840.91 -0.404973 -1.52308 0
M  V30 30405 C 2842.16 0.171824 -2.01368 0
M  V30 30406 C 2842.48 1.46 -1.29264 0
M  V30 30407 O 2841.75 1.91403 -0.417324 0
M  V30 30408 H 2840.33 0.0664863 -0.744035 0
M  V30 30409 H 2842.99 -0.540261 -1.87262 0
M  V30 30410 H 2842.09 0.370902 -3.09888 0
M  V30 30411 N 2842.39 1.57018 -0.135265 0
M  V30 30412 C 2843.62 1.99811 0.525268 0
M  V30 30413 C 2844.02 1.01417 1.59722 0
M  V30 30414 O 2843.37 0.00134167 1.837 0
M  V30 30415 C 2843.43 3.39032 1.19572 0
M  V30 30416 C 2843.09 4.56203 0.269775 0
M  V30 30417 C 2844.09 5.17509 -0.497996 0
M  V30 30418 C 2841.78 5.01991 0.1761 0
M  V30 30419 C 2843.77 6.23004 -1.34701 0
M  V30 30420 C 2841.46 6.07344 -0.676528 0
M  V30 30421 C 2842.45 6.67719 -1.4367 0
M  V30 30422 O 2842.14 7.71033 -2.27514 0
M  V30 30423 H 2841.87 0.660856 0.142285 0
M  V30 30424 H 2844.43 2.04183 -0.223308 0
M  V30 30425 H 2842.66 3.31464 1.9917 0
M  V30 30426 H 2844.35 3.66008 1.75479 0
M  V30 30427 H 2845.11 4.8304 -0.435592 0
M  V30 30428 H 2840.99 4.54734 0.757503 0
M  V30 30429 H 2844.54 6.70058 -1.94082 0
M  V30 30430 H 2840.43 6.41241 -0.740267 0
M  V30 30431 H 2841.2 7.88203 -2.20633 0
M  V30 30432 N 2843.86 -0.138524 1.5699 0
M  V30 30433 C 2845.11 -0.848173 1.83 0
M  V30 30434 C 2845.43 -1.81951 0.717861 0
M  V30 30435 O 2846.63 -2.57392 0.863801 0
M  V30 30436 C 2845.09 -1.55899 3.24382 0
M  V30 30437 C 2844.7 -0.629632 4.43553 0
M  V30 30438 C 2846.44 -2.25492 3.59658 0
M  V30 30439 C 2844.35 -1.34256 5.7596 0
M  V30 30440 H 2843.28 -0.320483 0.6825 0
M  V30 30441 H 2845.93 -0.100892 1.83222 0
M  V30 30442 H 2844.31 -2.3522 3.18571 0
M  V30 30443 H 2845.48 0.128963 4.6062 0
M  V30 30444 H 2843.8 -0.0416794 4.16379 0
M  V30 30445 H 2846.4 -2.79485 4.55842 0
M  V30 30446 H 2846.74 -3.02383 2.86129 0
M  V30 30447 H 2847.27 -1.5308 3.67167 0
M  V30 30448 H 2844.01 -0.615326 6.52606 0
M  V30 30449 H 2843.53 -2.07365 5.62814 0
M  V30 30450 H 2845.21 -1.88115 6.19049 0
M  V30 30451 N 2845.34 -1.52224 -0.408133 0
M  V30 30452 C 2846.28 -1.7036 -1.51831 0
M  V30 30453 C 2847.25 -0.551198 -1.52972 0
M  V30 30454 O 2848.44 -0.778672 -1.71665 0
M  V30 30455 C 2845.56 -1.74383 -2.90359 0
M  V30 30456 C 2844.61 -2.95934 -3.07125 0
M  V30 30457 S 2845.44 -4.5626 -2.80334 0
M  V30 30458 C 2846.6 -4.6307 -4.2109 0
M  V30 30459 H 2846.83 -2.64257 -1.36219 0
M  V30 30460 H 2844.37 -1.42275 -0.599773 0
M  V30 30461 H 2846.32 -1.77386 -3.70195 0
M  V30 30462 H 2844.98 -0.816117 -3.03312 0
M  V30 30463 H 2844.18 -2.95233 -4.08477 0
M  V30 30464 H 2843.78 -2.90823 -2.35155 0
M  V30 30465 H 2846.07 -4.40508 -5.14742 0
M  V30 30466 H 2847.01 -5.6501 -4.26813 0
M  V30 30467 H 2847.42 -3.92093 -4.06107 0
M  V30 30468 N 2846.82 0.665425 -1.42863 0
M  V30 30469 C 2848.1 1.42195 -1.34313 0
M  V30 30470 C 2848.48 2.11095 0.0149894 0
M  V30 30471 O 2847.83 2.0392 1.03097 0
M  V30 30472 C 2848.04 2.41669 -2.51787 0
M  V30 30473 C 2849.38 3.06034 -2.94327 0
M  V30 30474 O 2850.41 2.51997 -2.51746 0
M  V30 30475 O 2849.27 4.03978 -3.68054 0
M  V30 30476 H 2846.36 0.634704 -0.53017 0
M  V30 30477 H 2848.91 0.693359 -1.54889 0
M  V30 30478 H 2847.68 1.89621 -3.42286 0
M  V30 30479 H 2847.3 3.21997 -2.33247 0
M  V30 30480 N 2848.3 1.29191 0.902633 0
M  V30 30481 C 2849.53 1.19872 1.68637 0
M  V30 30482 C 2849.94 -0.241088 1.87254 0
M  V30 30483 O 2849.3 -1.16174 1.40747 0
M  V30 30484 C 2849.35 1.90476 3.07247 0
M  V30 30485 O 2849.07 3.28834 2.89482 0
M  V30 30486 C 2850.57 1.87597 4.01649 0
M  V30 30487 H 2847.79 0.415606 0.526795 0
M  V30 30488 H 2850.34 1.70512 1.12898 0
M  V30 30489 H 2848.49 1.43679 3.59771 0
M  V30 30490 H 2848.9 3.64352 3.7729 0
M  V30 30491 H 2850.38 2.41569 4.96335 0
M  V30 30492 H 2850.86 0.850832 4.3088 0
M  V30 30493 H 2851.46 2.34125 3.55057 0
M  V30 30494 N 2849.78 -1.1126 1.1162 0
M  V30 30495 C 2850.71 -2.19423 0.798499 0
M  V30 30496 C 2851.69 -1.68483 -0.233973 0
M  V30 30497 O 2852.87 -1.93957 -0.0970363 0
M  V30 30498 C 2850 -3.46449 0.242953 0
M  V30 30499 C 2848.96 -4.10613 1.20751 0
M  V30 30500 C 2848.28 -5.32237 0.512588 0
M  V30 30501 C 2849.58 -4.55321 2.55892 0
M  V30 30502 H 2851.28 -2.46255 1.7029 0
M  V30 30503 H 2848.82 -1.18357 0.820216 0
M  V30 30504 H 2850.78 -4.21399 0.00847854 0
M  V30 30505 H 2849.5 -3.19081 -0.696754 0
M  V30 30506 H 2848.16 -3.37659 1.42765 0
M  V30 30507 H 2847.81 -5.01142 -0.431987 0
M  V30 30508 H 2847.51 -5.76118 1.15593 0
M  V30 30509 H 2849.03 -6.09925 0.28695 0
M  V30 30510 H 2850.44 -5.21584 2.37956 0
M  V30 30511 H 2848.84 -5.10021 3.16225 0
M  V30 30512 H 2849.91 -3.68672 3.14974 0
M  V30 30513 N 2851.25 -0.906798 -1.28899 0
M  V30 30514 C 2852.67 -0.583871 -1.77335 0
M  V30 30515 C 2853.02 0.900667 -1.74306 0
M  V30 30516 O 2852.14 1.7044 -1.33338 0
M  V30 30517 C 2852.74 -1.0531 -3.22017 0
M  V30 30518 C 2851.3 -0.781213 -3.68204 0
M  V30 30519 C 2850.44 -1.22378 -2.48835 0
M  V30 30520 H 2853.39 -1.08879 -1.1546 0
M  V30 30521 H 2853.41 -0.391481 -3.78481 0
M  V30 30522 H 2852.93 -2.13359 -3.24191 0
M  V30 30523 H 2851.03 0.286365 -3.71498 0
M  V30 30524 H 2851.14 -1.38408 -4.58672 0
M  V30 30525 H 2849.5 -0.642637 -2.46459 0
M  V30 30526 H 2850.29 -2.31247 -2.53732 0
M  V30 30527 N 2852.73 1.42648 -0.670032 0
M  V30 30528 C 2853.98 2.01205 -0.189945 0
M  V30 30529 C 2854.3 1.53223 1.20614 0
M  V30 30530 O 2853.57 0.751888 1.80896 0
M  V30 30531 H 2852.15 0.743968 -0.067232 0
M  V30 30532 H 2854.81 1.7463 -0.865473 0
M  V30 30533 H 2853.91 3.11536 -0.187536 0
M  V30 30534 N 2854.21 0.413044 1.52091 0
M  V30 30535 C 2855.14 -0.401527 2.30022 0
M  V30 30536 C 2856.12 -1.04267 1.34397 0
M  V30 30537 O 2857.31 -1.05094 1.63306 0
M  V30 30538 C 2854.44 -1.51632 3.1245 0
M  V30 30539 C 2853.39 -0.999977 4.16154 0
M  V30 30540 C 2852.72 -2.20867 4.86952 0
M  V30 30541 C 2854.02 -0.0512839 5.22275 0
M  V30 30542 H 2855.71 0.248757 2.98365 0
M  V30 30543 H 2853.26 0.121077 1.4349 0
M  V30 30544 H 2855.21 -2.09319 3.65737 0
M  V30 30545 H 2853.93 -2.19454 2.41883 0
M  V30 30546 H 2852.59 -0.445485 3.63883 0
M  V30 30547 H 2852.24 -2.87252 4.1291 0
M  V30 30548 H 2851.94 -1.86968 5.57061 0
M  V30 30549 H 2853.47 -2.79153 5.43053 0
M  V30 30550 H 2854.88 -0.537076 5.70779 0
M  V30 30551 H 2853.28 0.199082 5.9977 0
M  V30 30552 H 2854.35 0.892819 4.7661 0
M  V30 30553 N 2855.69 -1.56945 0.143591 0
M  V30 30554 C 2856.94 -1.96305 -0.509125 0
M  V30 30555 C 2857.27 -1.02833 -1.64739 0
M  V30 30556 O 2856.54 -0.0700702 -1.94374 0
M  V30 30557 C 2856.83 -3.45395 -1.01854 0
M  V30 30558 C 2856.68 -4.49645 0.118002 0
M  V30 30559 C 2858 -3.96904 -1.90144 0
M  V30 30560 H 2855.12 -0.713766 -0.183595 0
M  V30 30561 H 2857.76 -1.88673 0.224128 0
M  V30 30562 H 2855.91 -3.5203 -1.64339 0
M  V30 30563 H 2857.58 -4.55092 0.754225 0
M  V30 30564 H 2855.82 -4.26773 0.777643 0
M  V30 30565 H 2856.5 -5.51289 -0.28009 0
M  V30 30566 H 2858.97 -3.92727 -1.37493 0
M  V30 30567 H 2857.85 -5.01694 -2.22698 0
M  V30 30568 H 2858.11 -3.39057 -2.83712 0
M  V30 30569 N 2857.17 0.130197 -1.57061 0
M  V30 30570 C 2858.1 1.19025 -1.947 0
M  V30 30571 C 2859.08 1.40694 -0.815099 0
M  V30 30572 O 2860.26 1.55032 -1.07226 0
M  V30 30573 C 2857.39 2.54617 -2.23356 0
M  V30 30574 C 2856.44 2.49442 -3.45949 0
M  V30 30575 S 2857.27 1.94497 -4.9893 0
M  V30 30576 C 2858.42 3.31783 -5.30727 0
M  V30 30577 H 2858.66 0.869222 -2.84309 0
M  V30 30578 H 2856.19 0.336504 -1.50688 0
M  V30 30579 H 2858.15 3.32638 -2.40545 0
M  V30 30580 H 2856.81 2.83902 -1.34381 0
M  V30 30581 H 2856 3.49295 -3.6333 0
M  V30 30582 H 2855.6 1.79537 -3.28089 0
M  V30 30583 H 2857.9 4.27957 -5.25223 0
M  V30 30584 H 2858.84 3.1924 -6.32053 0
M  V30 30585 H 2859.25 3.29695 -4.58216 0
M  V30 30586 N 2858.65 1.52438 0.400055 0
M  V30 30587 C 2859.61 1.75795 1.47067 0
M  V30 30588 C 2860.61 0.627882 1.48035 0
M  V30 30589 O 2861.8 0.895843 1.494 0
M  V30 30590 C 2858.93 1.84863 2.86424 0
M  V30 30591 H 2860.12 2.7138 1.27644 0
M  V30 30592 H 2857.68 1.42992 0.631116 0
M  V30 30593 H 2858.41 0.912249 3.11205 0
M  V30 30594 H 2858.2 2.67026 2.87123 0
M  V30 30595 H 2859.69 2.04645 3.6402 0
M  V30 30596 N 2860.12 -0.657839 1.43214 0
M  V30 30597 C 2861.06 -1.78335 1.43977 0
M  V30 30598 C 2862.07 -1.59284 0.33651 0
M  V30 30599 O 2863.26 -1.6809 0.600661 0
M  V30 30600 C 2860.36 -3.15695 1.23247 0
M  V30 30601 C 2859.53 -3.61445 2.46325 0
M  V30 30602 C 2858.59 -4.77593 2.20888 0
M  V30 30603 O 2857.62 -4.87268 2.94208 0
M  V30 30604 N 2858.82 -5.67479 1.22261 0
M  V30 30605 H 2861.58 -1.7816 2.40996 0
M  V30 30606 H 2859.14 -0.841524 1.38311 0
M  V30 30607 H 2861.14 -3.91077 1.0412 0
M  V30 30608 H 2859.71 -3.10669 0.346903 0
M  V30 30609 H 2858.93 -2.76558 2.80908 0
M  V30 30610 H 2860.21 -3.88757 3.28246 0
M  V30 30611 H 2859.61 -5.6233 0.616532 0
M  V30 30612 H 2858.17 -6.42601 1.09118 0
M  V30 30613 N 2861.6 -1.29668 -0.895769 0
M  V30 30614 C 2862.88 -1.08541 -1.62721 0
M  V30 30615 C 2863.26 0.369083 -2.07848 0
M  V30 30616 O 2862.61 1.35861 -1.83723 0
M  V30 30617 C 2862.82 -2.07653 -2.80502 0
M  V30 30618 C 2864.16 -2.38786 -3.51093 0
M  V30 30619 O 2865.19 -2.05879 -2.90676 0
M  V30 30620 O 2864.05 -2.95028 -4.60023 0
M  V30 30621 H 2861.14 -0.416119 -0.714685 0
M  V30 30622 H 2863.69 -1.41054 -0.943492 0
M  V30 30623 H 2862.46 -3.05604 -2.44381 0
M  V30 30624 H 2862.08 -1.75893 -3.56577 0
M  V30 30625 N 2863.08 1.10667 -1.12208 0
M  V30 30626 C 2864.01 2.16735 -0.745558 0
M  V30 30627 C 2865.02 1.61214 0.226668 0
M  V30 30628 O 2866.21 1.78498 0.00836223 0
M  V30 30629 C 2863.31 3.388 -0.0823963 0
M  V30 30630 C 2862.49 4.23768 -1.08348 0
M  V30 30631 C 2861.55 5.24286 -0.448385 0
M  V30 30632 O 2860.57 5.58378 -1.10468 0
M  V30 30633 N 2861.77 5.75165 0.785235 0
M  V30 30634 H 2864.54 2.49646 -1.65823 0
M  V30 30635 H 2862.1 1.26263 -1.01337 0
M  V30 30636 H 2864.09 4.03145 0.354406 0
M  V30 30637 H 2862.66 3.03885 0.732988 0
M  V30 30638 H 2861.88 3.55756 -1.69799 0
M  V30 30639 H 2863.17 4.77372 -1.7605 0
M  V30 30640 H 2862.57 5.49662 1.33746 0
M  V30 30641 H 2861.12 6.41306 1.16489 0
M  V30 30642 N 2864.56 0.913621 1.28416 0
M  V30 30643 C 2865.97 0.611754 1.4741 0
M  V30 30644 C 2866.17 -0.842976 1.8302 0
M  V30 30645 O 2865.23 -1.62207 1.93508 0
M  V30 30646 C 2866.54 1.54954 2.57701 0
M  V30 30647 C 2868.09 1.55624 2.7157 0
M  V30 30648 C 2868.57 2.48065 3.85003 0
M  V30 30649 N 2870.06 2.46191 3.92357 0
M  V30 30650 C 2870.79 3.14415 4.79511 0
M  V30 30651 N 2870.29 3.91968 5.71255 0
M  V30 30652 N 2872.08 3.03503 4.7312 0
M  V30 30653 H 2864.23 1.85431 1.03582 0
M  V30 30654 H 2866.49 0.795335 0.515893 0
M  V30 30655 H 2866.2 2.58668 2.38294 0
M  V30 30656 H 2866.07 1.28055 3.54798 0
M  V30 30657 H 2868.46 0.526492 2.90365 0
M  V30 30658 H 2868.54 1.86568 1.75003 0
M  V30 30659 H 2868.19 3.51142 3.66962 0
M  V30 30660 H 2868.12 2.14424 4.80967 0
M  V30 30661 H 2870.61 1.89857 3.26746 0
M  V30 30662 H 2870.92 4.41046 6.34585 0
M  V30 30663 H 2869.27 3.96073 5.71096 0
M  V30 30664 H 2872.46 2.4242 4.00438 0
M  V30 30665 H 2872.63 3.56945 5.40827 0
M  V30 30666 N 2866.04 -1.4229 0.677588 0
M  V30 30667 C 2867.28 -2.00724 0.198209 0
M  V30 30668 C 2867.6 -1.54214 -1.20323 0
M  V30 30669 O 2868.8 -2.05084 -1.77912 0
M  V30 30670 C 2867.26 -3.58618 0.303495 0
M  V30 30671 C 2866.87 -4.14116 1.70916 0
M  V30 30672 C 2868.61 -4.24339 -0.117029 0
M  V30 30673 C 2866.52 -5.64384 1.76706 0
M  V30 30674 H 2865.45 -0.750712 0.0703422 0
M  V30 30675 H 2868.1 -1.62981 0.843176 0
M  V30 30676 H 2866.48 -3.93878 -0.409413 0
M  V30 30677 H 2867.66 -3.9031 2.44938 0
M  V30 30678 H 2865.97 -3.60857 2.07778 0
M  V30 30679 H 2868.57 -5.34617 -0.0939531 0
M  V30 30680 H 2868.91 -4.00021 -1.15276 0
M  V30 30681 H 2869.44 -3.94049 0.544969 0
M  V30 30682 H 2866.18 -5.93503 2.78271 0
M  V30 30683 H 2865.7 -5.90171 1.07044 0
M  V30 30684 H 2867.38 -6.28849 1.52177 0
M  V30 30685 N 2867.51 -0.421104 -1.5187 0
M  V30 30686 C 2868.93 -0.0725678 -1.59435 0
M  V30 30687 C 2869.13 1.41641 -1.43318 0
M  V30 30688 O 2868.19 2.18459 -1.26618 0
M  V30 30689 C 2869.5 -0.578184 -2.95089 0
M  V30 30690 C 2871.05 -0.537203 -3.08356 0
M  V30 30691 C 2871.52 -1.01952 -4.46508 0
M  V30 30692 N 2873.01 -0.976837 -4.52783 0
M  V30 30693 C 2873.75 -1.32109 -5.57974 0
M  V30 30694 N 2873.24 -1.73739 -6.70661 0
M  V30 30695 N 2875.04 -1.24029 -5.48246 0
M  V30 30696 H 2867.19 -1.3901 -1.60593 0
M  V30 30697 H 2869.45 -0.571816 -0.756128 0
M  V30 30698 H 2869.16 -1.61935 -3.12202 0
M  V30 30699 H 2869.03 0.00571743 -3.772 0
M  V30 30700 H 2871.42 0.49494 -2.9092 0
M  V30 30701 H 2871.5 -1.15731 -2.28123 0
M  V30 30702 H 2871.14 -2.05005 -4.64688 0
M  V30 30703 H 2871.07 -0.376116 -5.25255 0
M  V30 30704 H 2873.56 -0.670916 -3.71897 0
M  V30 30705 H 2873.88 -1.98287 -7.46929 0
M  V30 30706 H 2872.22 -1.77653 -6.71911 0
M  V30 30707 H 2875.41 -0.913836 -4.59093 0
M  V30 30708 H 2875.59 -1.51187 -6.30116 0
M  V30 30709 N 2868.99 1.56866 -0.151912 0
M  V30 30710 C 2870.24 1.97353 0.492293 0
M  V30 30711 C 2870.59 1.03556 1.62154 0
M  V30 30712 O 2869.89 0.0715209 1.91466 0
M  V30 30713 C 2870.08 3.41913 1.04068 0
M  V30 30714 C 2869.91 4.49687 -0.0339096 0
M  V30 30715 C 2868.68 5.03044 -0.477002 0
M  V30 30716 C 2870.88 5.07604 -0.827195 0
M  V30 30717 N 2868.86 5.94428 -1.53392 0
M  V30 30718 C 2870.23 5.95244 -1.73449 0
M  V30 30719 C 2872.29 4.90161 -0.874437 0
M  V30 30720 C 2870.99 6.67308 -2.68499 0
M  V30 30721 C 2873.01 5.62931 -1.81279 0
M  V30 30722 C 2872.38 6.50283 -2.7076 0
M  V30 30723 H 2868.48 0.767711 0.148808 0
M  V30 30724 H 2871.06 1.93119 -0.247649 0
M  V30 30725 H 2869.23 3.46731 1.75021 0
M  V30 30726 H 2870.96 3.69451 1.6519 0
M  V30 30727 H 2867.72 4.73535 -0.0783326 0
M  V30 30728 H 2868.14 6.44825 -2.06228 0
M  V30 30729 H 2872.78 4.22342 -0.196703 0
M  V30 30730 H 2870.5 7.34353 -3.3727 0
M  V30 30731 H 2874.09 5.51428 -1.85521 0
M  V30 30732 H 2872.97 7.05604 -3.42187 0
M  V30 30733 N 2870.47 -0.121866 1.57128 0
M  V30 30734 C 2871.7 -0.843193 1.8861 0
M  V30 30735 C 2872.11 -1.74088 0.740948 0
M  V30 30736 O 2871.45 -1.81277 -0.297394 0
M  V30 30737 C 2871.51 -1.73111 3.15076 0
M  V30 30738 C 2871.18 -1.00802 4.45744 0
M  V30 30739 C 2872.17 -0.350163 5.18719 0
M  V30 30740 C 2869.86 -0.990053 4.92446 0
M  V30 30741 C 2871.85 0.316001 6.36616 0
M  V30 30742 C 2869.54 -0.320089 6.10261 0
M  V30 30743 C 2870.54 0.331786 6.82194 0
M  V30 30744 O 2870.23 0.991068 7.97768 0
M  V30 30745 H 2869.96 -0.247854 0.628923 0
M  V30 30746 H 2872.51 -0.111689 2.05096 0
M  V30 30747 H 2870.74 -2.50419 2.94665 0
M  V30 30748 H 2872.43 -2.32661 3.32601 0
M  V30 30749 H 2873.2 -0.355685 4.83694 0
M  V30 30750 H 2869.08 -1.48687 4.36364 0
M  V30 30751 H 2872.62 0.825394 6.927 0
M  V30 30752 H 2868.52 -0.31232 6.44744 0
M  V30 30753 H 2869.29 0.895256 8.13589 0
M  V30 30754 N 2871.95 -1.52648 -0.391965 0
M  V30 30755 C 2872.88 -1.80183 -1.48514 0
M  V30 30756 C 2873.86 -0.653694 -1.57038 0
M  V30 30757 O 2875.04 -0.900992 -1.72034 0
M  V30 30758 C 2872.17 -1.96802 -2.86158 0
M  V30 30759 C 2871.13 -3.12477 -2.92476 0
M  V30 30760 C 2870.45 -3.14345 -4.3254 0
M  V30 30761 C 2871.75 -4.51606 -2.62392 0
M  V30 30762 H 2873.45 -2.71725 -1.25721 0
M  V30 30763 H 2870.99 -1.3075 -0.603364 0
M  V30 30764 H 2872.95 -2.14647 -3.62635 0
M  V30 30765 H 2871.67 -1.01946 -3.10281 0
M  V30 30766 H 2870.33 -2.9441 -2.18445 0
M  V30 30767 H 2869.98 -2.17178 -4.53699 0
M  V30 30768 H 2869.68 -3.92049 -4.37688 0
M  V30 30769 H 2871.2 -3.34342 -5.10928 0
M  V30 30770 H 2872.62 -4.6979 -3.28588 0
M  V30 30771 H 2871.01 -5.31355 -2.78894 0
M  V30 30772 H 2872.08 -4.58524 -1.57746 0
M  V30 30773 N 2873.43 0.650235 -1.43561 0
M  V30 30774 C 2874.36 1.77457 -1.51761 0
M  V30 30775 C 2875.34 1.65981 -0.372048 0
M  V30 30776 O 2876.52 1.85031 -0.58966 0
M  V30 30777 C 2873.65 3.159 -1.44307 0
M  V30 30778 C 2872.61 3.42142 -2.57144 0
M  V30 30779 C 2871.93 4.80416 -2.34743 0
M  V30 30780 C 2873.23 3.36591 -3.99379 0
M  V30 30781 H 2874.93 1.70851 -2.45866 0
M  V30 30782 H 2872.47 0.820545 -1.18335 0
M  V30 30783 H 2874.43 3.94312 -1.48648 0
M  V30 30784 H 2873.15 3.23243 -0.467083 0
M  V30 30785 H 2871.81 2.66102 -2.52161 0
M  V30 30786 H 2871.46 4.84439 -1.3538 0
M  V30 30787 H 2871.16 4.98935 -3.10384 0
M  V30 30788 H 2872.68 5.61082 -2.40872 0
M  V30 30789 H 2874.09 4.04935 -4.05833 0
M  V30 30790 H 2872.49 3.66646 -4.7507 0
M  V30 30791 H 2873.56 2.34721 -4.24304 0
M  V30 30792 N 2874.9 1.30141 0.88888 0
M  V30 30793 C 2876.13 1.2178 1.67882 0
M  V30 30794 C 2876.55 -0.216657 1.86848 0
M  V30 30795 O 2875.91 -1.15605 1.39661 0
M  V30 30796 C 2875.96 1.94762 3.0348 0
M  V30 30797 O 2875.06 1.27204 3.92292 0
M  V30 30798 H 2874.41 0.421411 0.513136 0
M  V30 30799 H 2876.94 1.71895 1.10965 0
M  V30 30800 H 2876.95 2.03634 3.5355 0
M  V30 30801 H 2875.62 2.9909 2.88995 0
M  V30 30802 H 2874.2 1.26662 3.5073 0
M  V30 30803 N 2876.38 -1.1007 1.12794 0
M  V30 30804 C 2877.32 -2.15767 0.742959 0
M  V30 30805 C 2878.29 -1.60381 -0.267686 0
M  V30 30806 O 2879.48 -1.87813 -0.160749 0
M  V30 30807 C 2876.6 -3.38551 0.100303 0
M  V30 30808 C 2875.65 -4.12642 1.07838 0
M  V30 30809 S 2876.48 -4.67715 2.60773 0
M  V30 30810 C 2877.64 -5.93807 1.97849 0
M  V30 30811 H 2877.87 -2.48089 1.63826 0
M  V30 30812 H 2875.41 -1.21916 0.947407 0
M  V30 30813 H 2877.36 -4.0965 -0.264103 0
M  V30 30814 H 2876.02 -3.04461 -0.772169 0
M  V30 30815 H 2875.22 -5.00693 0.576413 0
M  V30 30816 H 2874.82 -3.47373 1.38592 0
M  V30 30817 H 2877.11 -6.64446 1.32352 0
M  V30 30818 H 2878.05 -6.48672 2.83955 0
M  V30 30819 H 2878.46 -5.46015 1.43276 0
M  V30 30820 N 2877.86 -0.920419 -1.2793 0
M  V30 30821 C 2879.11 -0.55594 -1.94303 0
M  V30 30822 C 2879.43 0.904489 -1.72754 0
M  V30 30823 O 2878.7 1.64027 -1.07107 0
M  V30 30824 H 2877.28 -0.202612 -0.718998 0
M  V30 30825 H 2879.94 -1.17123 -1.55783 0
M  V30 30826 H 2879.04 -0.756034 -3.02804 0
M  V30 30827 N 2879.34 1.41929 -0.685124 0
M  V30 30828 C 2880.56 2.06242 -0.218878 0
M  V30 30829 C 2880.99 1.5118 1.1192 0
M  V30 30830 O 2880.35 0.634476 1.69835 0
M  V30 30831 C 2880.39 3.60172 -0.175655 0
M  V30 30832 O 2879.5 4.03488 0.852705 0
M  V30 30833 H 2878.84 0.654902 -0.109542 0
M  V30 30834 H 2881.37 1.81881 -0.937045 0
M  V30 30835 H 2881.38 4.08 -0.00298323 0
M  V30 30836 H 2880.05 3.99619 -1.15229 0
M  V30 30837 H 2878.63 3.67187 0.650236 0
M  V30 30838 N 2880.82 0.429152 1.51644 0
M  V30 30839 C 2881.76 -0.400881 2.29119 0
M  V30 30840 C 2882.76 -1.02817 1.34629 0
M  V30 30841 O 2883.96 -0.964071 1.52005 0
M  V30 30842 H 2880.34 -0.148082 0.737276 0
M  V30 30843 H 2882.31 0.27351 2.97144 0
M  V30 30844 C 2881.06 -1.49423 3.13955 0
M  V30 30845 H 2880.38 -1.0209 3.86546 0
M  V30 30846 H 2881.82 -2.04842 3.71235 0
M  V30 30847 C 2880.28 -2.47289 2.28801 0
M  V30 30848 O 2880.81 -3.51638 1.94199 0
M  V30 30849 N 2879.02 -2.17979 1.92181 0
M  V30 30850 H 2878.56 -1.33151 2.20519 0
M  V30 30851 H 2878.52 -2.83702 1.35502 0
M  V30 30852 N 2882.29 -1.56783 0.160229 0
M  V30 30853 C 2883.2 -2.21001 -0.787128 0
M  V30 30854 C 2884.22 -1.19827 -1.26165 0
M  V30 30855 O 2885.4 -1.52451 -1.31608 0
M  V30 30856 C 2882.46 -2.82944 -2.00359 0
M  V30 30857 C 2881.52 -3.99285 -1.57703 0
M  V30 30858 C 2880.76 -4.58264 -2.7355 0
M  V30 30859 O 2880.98 -4.16126 -3.90122 0
M  V30 30860 O 2879.91 -5.48315 -2.48262 0
M  V30 30861 H 2883.74 -3.02494 -0.270409 0
M  V30 30862 H 2881.32 -1.49248 -0.0674404 0
M  V30 30863 H 2883.21 -3.22262 -2.71524 0
M  V30 30864 H 2881.88 -2.04455 -2.50958 0
M  V30 30865 H 2880.79 -3.64657 -0.83521 0
M  V30 30866 H 2882.12 -4.79333 -1.11806 0
M  V30 30867 N 2883.77 0.113531 -1.57191 0
M  V30 30868 C 2884.72 1.15796 -2.01728 0
M  V30 30869 C 2885.72 1.42554 -0.91513 0
M  V30 30870 O 2886.92 1.42452 -1.10033 0
M  V30 30871 H 2883.3 0.390557 -0.642627 0
M  V30 30872 H 2885.27 0.755876 -2.88668 0
M  V30 30873 C 2884.02 2.47503 -2.44208 0
M  V30 30874 H 2883.34 2.27753 -3.28586 0
M  V30 30875 H 2884.78 3.1913 -2.79163 0
M  V30 30876 C 2883.24 3.10476 -1.3079 0
M  V30 30877 O 2883.77 3.96778 -0.626877 0
M  V30 30878 N 2881.97 2.70438 -1.06357 0
M  V30 30879 H 2881.52 2.00352 -1.61916 0
M  V30 30880 H 2881.48 3.12901 -0.306669 0
M  V30 30881 N 2885.25 1.52854 0.383864 0
M  V30 30882 C 2886.5 1.67371 1.1256 0
M  V30 30883 C 2886.81 0.422567 1.90981 0
M  V30 30884 O 2888.02 0.447961 2.67779 0
M  V30 30885 C 2886.48 2.95805 2.05006 0
M  V30 30886 C 2886.08 4.28117 1.31984 0
M  V30 30887 C 2887.83 3.19689 2.79284 0
M  V30 30888 C 2885.73 5.47654 2.23225 0
M  V30 30889 H 2884.66 0.623559 0.423899 0
M  V30 30890 H 2887.32 1.79351 0.387984 0
M  V30 30891 H 2885.7 2.77583 2.82425 0
M  V30 30892 H 2886.87 4.56909 0.597553 0
M  V30 30893 H 2885.19 4.10535 0.696445 0
M  V30 30894 H 2887.78 4.06177 3.47742 0
M  V30 30895 H 2888.13 2.34976 3.43645 0
M  V30 30896 H 2888.66 3.385 2.08956 0
M  V30 30897 H 2885.4 6.34789 1.63471 0
M  V30 30898 H 2884.92 5.23166 2.93355 0
M  V30 30899 H 2886.6 5.8173 2.83195 0
M  V30 30900 N 2886.73 -0.642612 1.43904 0
M  V30 30901 C 2887.68 -1.74852 1.46324 0
M  V30 30902 C 2888.66 -1.57471 0.330389 0
M  V30 30903 O 2889.86 -1.67403 0.574911 0
M  V30 30904 C 2886.98 -3.1349 1.39924 0
M  V30 30905 C 2886.07 -3.36381 2.5828 0
M  V30 30906 N 2886.46 -3.29693 3.83584 0
M  V30 30907 C 2884.76 -3.67138 2.53231 0
M  V30 30908 C 2885.46 -3.52956 4.62381 0
M  V30 30909 N 2884.44 -3.7528 3.93276 0
M  V30 30910 H 2888.24 -1.68122 2.41065 0
M  V30 30911 H 2885.75 -0.844669 1.38705 0
M  V30 30912 H 2887.75 -3.92782 1.39742 0
M  V30 30913 H 2886.41 -3.21395 0.462127 0
M  V30 30914 H 2887.42 -3.08867 4.15718 0
M  V30 30915 H 2884.1 -3.82093 1.68259 0
M  V30 30916 H 2885.49 -3.53475 5.71406 0
M  V30 30917 N 2888.21 -1.30611 -0.881966 0
M  V30 30918 C 2889.43 -1.22668 -1.67234 0
M  V30 30919 C 2889.86 0.206745 -1.8696 0
M  V30 30920 O 2889.22 1.14863 -1.40272 0
M  V30 30921 C 2889.26 -1.96369 -3.02443 0
M  V30 30922 O 2888.37 -1.29283 -3.91612 0
M  V30 30923 H 2887.71 -0.424126 -0.510894 0
M  V30 30924 H 2890.24 -1.72481 -1.10052 0
M  V30 30925 H 2890.25 -2.05506 -3.52465 0
M  V30 30926 H 2888.92 -3.00618 -2.87405 0
M  V30 30927 H 2887.5 -1.2852 -3.50053 0
M  V30 30928 N 2889.69 1.0947 -1.13376 0
M  V30 30929 C 2890.93 1.81009 -0.889876 0
M  V30 30930 C 2891.25 1.86627 0.585653 0
M  V30 30931 O 2892.45 2.54469 0.946452 0
M  V30 30932 C 2890.91 3.25171 -1.54246 0
M  V30 30933 C 2890.52 3.2782 -3.05349 0
M  V30 30934 C 2892.26 4.01468 -1.37926 0
M  V30 30935 C 2890.17 4.66504 -3.63495 0
M  V30 30936 H 2889.1 0.678306 -0.329268 0
M  V30 30937 H 2891.75 1.23036 -1.36141 0
M  V30 30938 H 2890.13 3.83202 -0.998592 0
M  V30 30939 H 2891.31 2.79557 -3.66312 0
M  V30 30940 H 2889.62 2.65014 -3.2118 0
M  V30 30941 H 2892.22 5.03926 -1.7878 0
M  V30 30942 H 2892.56 4.15037 -0.32406 0
M  V30 30943 H 2893.09 3.49877 -1.8929 0
M  V30 30944 H 2889.83 4.58137 -4.68819 0
M  V30 30945 H 2889.35 5.15093 -3.07309 0
M  V30 30946 H 2891.03 5.35478 -3.63143 0
M  V30 30947 N 2891.16 0.92719 1.2744 0
M  V30 30948 C 2892.11 0.396917 2.24519 0
M  V30 30949 C 2893.1 -0.498528 1.52982 0
M  V30 30950 O 2894.29 -0.336056 1.7378 0
M  V30 30951 C 2891.42 -0.349634 3.41515 0
M  V30 30952 C 2890.5 0.5623 4.20356 0
M  V30 30953 N 2890.9 1.6819 4.77017 0
M  V30 30954 C 2889.19 0.365213 4.44502 0
M  V30 30955 C 2889.89 2.24905 5.36463 0
M  V30 30956 N 2888.87 1.53869 5.21369 0
M  V30 30957 H 2892.67 1.25178 2.65909 0
M  V30 30958 H 2890.19 0.781405 1.42365 0
M  V30 30959 H 2892.18 -0.746464 4.10163 0
M  V30 30960 H 2890.84 -1.20143 3.01655 0
M  V30 30961 H 2891.85 2.06429 4.74981 0
M  V30 30962 H 2888.53 -0.445964 4.15111 0
M  V30 30963 H 2889.92 3.19161 5.91258 0
M  V30 30964 N 2892.64 -1.41564 0.692641 0
M  V30 30965 C 2893.89 -2.01275 0.22237 0
M  V30 30966 C 2894.22 -1.54842 -1.17703 0
M  V30 30967 O 2893.47 -0.74915 -1.80793 0
M  V30 30968 C 2893.77 -3.5669 0.225136 0
M  V30 30969 C 2893.44 -4.22622 1.57166 0
M  V30 30970 C 2892.1 -4.40347 1.9403 0
M  V30 30971 C 2894.45 -4.59618 2.45766 0
M  V30 30972 C 2891.78 -4.92343 3.19085 0
M  V30 30973 C 2894.13 -5.13003 3.7015 0
M  V30 30974 C 2892.79 -5.28939 4.07161 0
M  V30 30975 H 2892.06 -0.736519 0.0813711 0
M  V30 30976 H 2894.71 -1.69501 0.891153 0
M  V30 30977 H 2893.02 -3.88237 -0.527191 0
M  V30 30978 H 2894.71 -4.00696 -0.156212 0
M  V30 30979 H 2891.3 -4.09199 1.27493 0
M  V30 30980 H 2895.49 -4.45581 2.18566 0
M  V30 30981 H 2890.74 -5.02866 3.47758 0
M  V30 30982 H 2894.92 -5.4061 4.38992 0
M  V30 30983 H 2892.54 -5.68992 5.04135 0
M  V30 30984 N 2894.12 -0.437188 -1.51415 0
M  V30 30985 C 2895.34 0.130388 -2.0699 0
M  V30 30986 C 2895.77 1.35707 -1.30251 0
M  V30 30987 O 2895.13 1.78075 -0.34042 0
M  V30 30988 C 2895.18 0.431357 -3.58011 0
M  V30 30989 O 2894.28 1.51783 -3.83452 0
M  V30 30990 H 2893.62 0.00193172 -0.663997 0
M  V30 30991 H 2896.15 -0.618479 -1.95028 0
M  V30 30992 H 2896.16 0.681855 -4.02262 0
M  V30 30993 H 2894.84 -0.46521 -4.1329 0
M  V30 30994 H 2893.41 1.25731 -3.51064 0
M  V30 30995 N 2895.6 1.56696 -0.168541 0
M  V30 30996 C 2896.85 1.9641 0.476181 0
M  V30 30997 C 2897.17 1.05547 1.63966 0
M  V30 30998 O 2896.44 0.12127 1.95524 0
M  V30 30999 H 2895.02 0.725259 0.178908 0
M  V30 31000 H 2897.68 1.93302 -0.249076 0
M  V30 31001 H 2896.77 3.00638 0.838041 0
M  V30 31002 N 2897.08 -0.105193 1.57249 0
M  V30 31003 C 2898.03 -1.13446 1.97772 0
M  V30 31004 C 2899.01 -1.36323 0.854678 0
M  V30 31005 O 2900.2 -1.37184 1.11846 0
M  V30 31006 C 2897.33 -2.45741 2.39721 0
M  V30 31007 C 2896.42 -2.2628 3.58689 0
M  V30 31008 N 2896.81 -1.76663 4.73945 0
M  V30 31009 C 2895.11 -2.56885 3.6459 0
M  V30 31010 C 2895.81 -1.71235 5.55926 0
M  V30 31011 N 2894.78 -2.16084 4.98807 0
M  V30 31012 H 2898.58 -0.743614 2.84337 0
M  V30 31013 H 2896.1 -0.312759 1.5936 0
M  V30 31014 H 2898.1 -3.20202 2.66977 0
M  V30 31015 H 2896.76 -2.85571 1.54528 0
M  V30 31016 H 2897.77 -1.46007 4.96893 0
M  V30 31017 H 2894.44 -3.00308 2.90036 0
M  V30 31018 H 2895.83 -1.3401 6.584 0
M  V30 31019 N 2898.55 -1.53055 -0.375752 0
M  V30 31020 C 2899.8 -1.68994 -1.12111 0
M  V30 31021 C 2900.13 -0.435272 -1.89259 0
M  V30 31022 O 2899.41 0.567245 -1.86045 0
M  V30 31023 C 2899.69 -2.93341 -2.08861 0
M  V30 31024 C 2899.54 -4.2894 -1.35389 0
M  V30 31025 C 2900.86 -3.13263 -3.09119 0
M  V30 31026 H 2897.98 -0.614958 -0.406197 0
M  V30 31027 H 2900.62 -1.85676 -0.403021 0
M  V30 31028 H 2898.77 -2.79249 -2.70097 0
M  V30 31029 H 2900.45 -4.54825 -0.770162 0
M  V30 31030 H 2898.69 -4.28815 -0.655726 0
M  V30 31031 H 2899.36 -5.1206 -2.06152 0
M  V30 31032 H 2901.84 -3.26473 -2.57981 0
M  V30 31033 H 2900.71 -4.01721 -3.74047 0
M  V30 31034 H 2900.97 -2.28079 -3.78725 0
M  V30 31035 N 2900.03 0.634971 -1.44242 0
M  V30 31036 C 2901.28 1.3946 -1.46823 0
M  V30 31037 C 2901.61 1.94246 -0.0993704 0
M  V30 31038 O 2900.86 1.73865 0.898295 0
M  V30 31039 C 2901.16 2.58042 -2.47284 0
M  V30 31040 C 2900.83 2.21567 -3.92707 0
M  V30 31041 C 2899.49 2.11333 -4.3231 0
M  V30 31042 C 2901.84 1.92687 -4.84274 0
M  V30 31043 C 2899.17 1.704 -5.6141 0
M  V30 31044 C 2901.52 1.53247 -6.13757 0
M  V30 31045 C 2900.19 1.41551 -6.52319 0
M  V30 31046 H 2899.46 0.510321 -0.537265 0
M  V30 31047 H 2902.1 0.720409 -1.77433 0
M  V30 31048 H 2900.41 3.30676 -2.10144 0
M  V30 31049 H 2902.1 3.16267 -2.46528 0
M  V30 31050 H 2898.69 2.3045 -3.61373 0
M  V30 31051 H 2902.88 1.99505 -4.54435 0
M  V30 31052 H 2898.13 1.59945 -5.90108 0
M  V30 31053 H 2902.31 1.29937 -6.84171 0
M  V30 31054 H 2899.94 1.09605 -7.52257 0
M  V30 31055 N 2901.51 1.31076 0.875027 0
M  V30 31056 C 2902.74 1.23422 1.66056 0
M  V30 31057 C 2903.15 -0.201314 1.87724 0
M  V30 31058 O 2902.51 -1.13163 1.4318 0
M  V30 31059 C 2902.56 1.96951 3.03138 0
M  V30 31060 O 2902.28 3.349 2.82442 0
M  V30 31061 C 2903.78 1.96074 3.9758 0
M  V30 31062 H 2901 0.426686 0.517861 0
M  V30 31063 H 2903.55 1.72868 1.09255 0
M  V30 31064 H 2901.7 1.51278 3.56642 0
M  V30 31065 H 2902.12 3.72273 3.69476 0
M  V30 31066 H 2903.59 2.52043 4.91099 0
M  V30 31067 H 2904.07 0.942036 4.28978 0
M  V30 31068 H 2904.67 2.41604 3.50011 0
M  V30 31069 N 2902.99 -1.08867 1.13955 0
M  V30 31070 C 2904.23 -1.81428 0.906183 0
M  V30 31071 C 2904.57 -1.85767 -0.566057 0
M  V30 31072 O 2903.84 -1.33008 -1.41912 0
M  V30 31073 C 2904.13 -3.27285 1.50189 0
M  V30 31074 C 2903.98 -3.31183 3.04364 0
M  V30 31075 C 2905.3 -4.24129 1.17484 0
M  V30 31076 H 2902.42 -0.658672 0.330636 0
M  V30 31077 H 2905.06 -1.27492 1.40875 0
M  V30 31078 H 2903.21 -3.73346 1.07448 0
M  V30 31079 H 2904.88 -2.93482 3.55902 0
M  V30 31080 H 2903.12 -2.70596 3.39058 0
M  V30 31081 H 2903.79 -4.3396 3.41149 0
M  V30 31082 H 2906.27 -3.86383 1.54427 0
M  V30 31083 H 2905.15 -5.2451 1.61805 0
M  V30 31084 H 2905.41 -4.4201 0.0894089 0
M  V30 31085 N 2904.47 -0.933936 -1.26946 0
M  V30 31086 C 2905.88 -0.635128 -1.46418 0
M  V30 31087 C 2906.08 0.813753 -1.84338 0
M  V30 31088 O 2905.14 1.59107 -1.96064 0
M  V30 31089 C 2906.45 -1.59034 -2.55203 0
M  V30 31090 C 2908 -1.59925 -2.69059 0
M  V30 31091 C 2908.47 -2.54159 -3.81008 0
M  V30 31092 N 2909.97 -2.52402 -3.88391 0
M  V30 31093 C 2910.7 -3.22004 -4.74448 0
M  V30 31094 N 2910.2 -4.01007 -5.64947 0
M  V30 31095 N 2911.99 -3.10992 -4.68231 0
M  V30 31096 H 2904.14 -1.87055 -1.00619 0
M  V30 31097 H 2906.4 -0.803442 -0.503175 0
M  V30 31098 H 2906.11 -2.62426 -2.34149 0
M  V30 31099 H 2905.98 -1.33683 -3.52716 0
M  V30 31100 H 2908.37 -0.57262 -2.89491 0
M  V30 31101 H 2908.45 -1.89328 -1.72013 0
M  V30 31102 H 2908.1 -3.56936 -3.6133 0
M  V30 31103 H 2908.03 -2.22049 -4.77495 0
M  V30 31104 H 2910.52 -1.95031 -3.23684 0
M  V30 31105 H 2910.83 -4.51085 -6.27488 0
M  V30 31106 H 2909.17 -4.05109 -5.64723 0
M  V30 31107 H 2912.37 -2.4876 -3.9653 0
M  V30 31108 H 2912.54 -3.65504 -5.3508 0
M  V30 31109 N 2905.94 1.41194 -0.700139 0
M  V30 31110 C 2906.89 2.30769 -0.0377058 0
M  V30 31111 C 2907.86 1.47356 0.766518 0
M  V30 31112 O 2909.05 1.76133 0.733619 0
M  V30 31113 C 2906.19 3.33442 0.889394 0
M  V30 31114 C 2905.3 4.31933 0.0762971 0
M  V30 31115 C 2904.43 5.21675 1.00146 0
M  V30 31116 C 2903.47 6.11831 0.181536 0
M  V30 31117 N 2902.61 6.94041 1.06074 0
M  V30 31118 H 2907.45 2.86856 -0.80731 0
M  V30 31119 H 2904.99 1.41276 -0.409823 0
M  V30 31120 H 2906.95 3.91524 1.441 0
M  V30 31121 H 2905.58 2.78895 1.62535 0
M  V30 31122 H 2904.63 3.75761 -0.592289 0
M  V30 31123 H 2905.94 4.95656 -0.559163 0
M  V30 31124 H 2905.09 5.84613 1.62213 0
M  V30 31125 H 2903.83 4.58189 1.67077 0
M  V30 31126 H 2902.84 5.47937 -0.452181 0
M  V30 31127 H 2904.06 6.77373 -0.484044 0
M  V30 31128 H 2902.01 6.33159 1.71599 0
M  V30 31129 H 2901.93 7.54469 0.480962 0
M  V30 31130 H 2903.19 7.61443 1.66809 0
M  V30 31131 N 2907.42 0.445212 1.51181 0
M  V30 31132 C 2908.37 -0.36225 2.27939 0
M  V30 31133 C 2909.34 -1.00998 1.31866 0
M  V30 31134 O 2910.52 -1.02738 1.60778 0
M  V30 31135 C 2907.66 -1.45305 3.13018 0
M  V30 31136 C 2906.78 -0.822682 4.24094 0
M  V30 31137 C 2905.91 -1.8892 4.9647 0
M  V30 31138 C 2904.95 -1.23768 5.99456 0
M  V30 31139 N 2904.09 -2.2459 6.6521 0
M  V30 31140 H 2908.93 0.298672 2.96499 0
M  V30 31141 H 2906.47 0.159136 1.46237 0
M  V30 31142 H 2908.42 -2.09686 3.60677 0
M  V30 31143 H 2907.05 -2.0835 2.46557 0
M  V30 31144 H 2906.11 -0.0669696 3.80341 0
M  V30 31145 H 2907.42 -0.307096 4.97854 0
M  V30 31146 H 2906.57 -2.60943 5.47717 0
M  V30 31147 H 2905.31 -2.43853 4.22359 0
M  V30 31148 H 2904.32 -0.502945 5.47495 0
M  V30 31149 H 2905.54 -0.695575 6.75528 0
M  V30 31150 H 2903.49 -2.78589 5.93906 0
M  V30 31151 H 2903.4 -1.77945 7.3476 0
M  V30 31152 H 2904.67 -2.96073 7.21083 0
M  V30 31153 N 2908.9 -1.56605 0.176849 0
M  V30 31154 C 2909.81 -2.21823 -0.763643 0
M  V30 31155 C 2910.83 -1.21158 -1.24887 0
M  V30 31156 O 2912 -1.53838 -1.29984 0
M  V30 31157 C 2909.07 -2.85053 -1.97347 0
M  V30 31158 C 2908.13 -4.00935 -1.53459 0
M  V30 31159 C 2907.36 -4.6114 -2.68674 0
M  V30 31160 O 2907.58 -4.2024 -3.85687 0
M  V30 31161 O 2906.52 -5.50918 -2.42432 0
M  V30 31162 H 2910.34 -3.02764 -0.23831 0
M  V30 31163 H 2907.93 -1.49311 -0.0516069 0
M  V30 31164 H 2909.81 -3.25124 -2.6809 0
M  V30 31165 H 2908.49 -2.07105 -2.48775 0
M  V30 31166 H 2907.39 -3.65523 -0.796487 0
M  V30 31167 H 2908.73 -4.80492 -1.06716 0
M  V30 31168 N 2910.38 0.0968524 -1.57302 0
M  V30 31169 C 2911.29 1.13602 -2.0526 0
M  V30 31170 C 2912.3 1.43971 -0.977162 0
M  V30 31171 O 2913.48 1.54647 -1.2902 0
M  V30 31172 C 2910.55 2.43702 -2.46597 0
M  V30 31173 C 2909.61 2.20532 -3.68326 0
M  V30 31174 C 2908.84 3.44428 -4.07682 0
M  V30 31175 O 2909.06 4.52597 -3.47149 0
M  V30 31176 O 2908 3.3412 -5.00647 0
M  V30 31177 H 2911.82 0.7587 -2.9407 0
M  V30 31178 H 2909.41 0.309237 -1.46165 0
M  V30 31179 H 2911.29 3.20313 -2.7382 0
M  V30 31180 H 2909.96 2.80864 -1.60925 0
M  V30 31181 H 2908.87 1.41707 -3.46222 0
M  V30 31182 H 2910.2 1.88263 -4.54772 0
M  V30 31183 N 2911.86 1.53252 0.36763 0
M  V30 31184 C 2913.09 1.7299 1.12951 0
M  V30 31185 C 2913.49 0.457741 1.83579 0
M  V30 31186 O 2912.84 -0.578976 1.74337 0
M  V30 31187 C 2912.9 2.83906 2.2054 0
M  V30 31188 C 2912.56 4.24326 1.69696 0
M  V30 31189 C 2913.56 5.06745 1.16214 0
M  V30 31190 C 2911.25 4.70728 1.75271 0
M  V30 31191 C 2913.24 6.33656 0.689824 0
M  V30 31192 C 2910.93 5.97619 1.27651 0
M  V30 31193 C 2911.92 6.78914 0.745963 0
M  V30 31194 O 2911.61 8.03423 0.276784 0
M  V30 31195 H 2911.34 0.58208 0.343743 0
M  V30 31196 H 2913.9 2.00783 0.433071 0
M  V30 31197 H 2912.13 2.51583 2.93672 0
M  V30 31198 H 2913.82 2.91841 2.82105 0
M  V30 31199 H 2914.58 4.72069 1.11248 0
M  V30 31200 H 2910.46 4.07526 2.15508 0
M  V30 31201 H 2914.01 6.97058 0.275041 0
M  V30 31202 H 2909.9 6.31794 1.32311 0
M  V30 31203 H 2910.67 8.1754 0.396302 0
M  V30 31204 N 2913.34 -0.627313 1.44577 0
M  V30 31205 C 2914.28 -1.73909 1.51737 0
M  V30 31206 C 2915.25 -1.62045 0.364774 0
M  V30 31207 O 2916.44 -1.81913 0.575535 0
M  V30 31208 C 2913.58 -3.12169 1.47121 0
M  V30 31209 C 2912.69 -3.34982 2.72784 0
M  V30 31210 C 2911.83 -4.63234 2.59976 0
M  V30 31211 C 2910.86 -4.79239 3.80784 0
M  V30 31212 N 2910 -5.98772 3.66629 0
M  V30 31213 H 2914.84 -1.67126 2.46725 0
M  V30 31214 H 2912.38 -0.815203 1.22445 0
M  V30 31215 H 2914.34 -3.92132 1.42436 0
M  V30 31216 H 2912.97 -3.17958 0.556984 0
M  V30 31217 H 2912.02 -2.48931 2.87641 0
M  V30 31218 H 2913.33 -3.42686 3.62447 0
M  V30 31219 H 2912.48 -5.51364 2.53145 0
M  V30 31220 H 2911.22 -4.57895 1.6788 0
M  V30 31221 H 2910.23 -3.89537 3.87996 0
M  V30 31222 H 2911.45 -4.8639 4.73922 0
M  V30 31223 H 2909.4 -5.94515 2.77287 0
M  V30 31224 H 2909.32 -6.07549 4.49911 0
M  V30 31225 H 2910.58 -6.89453 3.63696 0
M  V30 31226 N 2914.81 -1.31539 -0.868063 0
M  V30 31227 C 2915.75 -1.13679 -1.97869 0
M  V30 31228 C 2916.72 -0.0397875 -1.62551 0
M  V30 31229 O 2917.91 -0.196572 -1.87472 0
M  V30 31230 C 2915.04 -0.737398 -3.30575 0
M  V30 31231 C 2914.08 -1.83772 -3.84877 0
M  V30 31232 S 2914.91 -3.44352 -4.101 0
M  V30 31233 C 2916.07 -3.06354 -5.458 0
M  V30 31234 H 2916.3 -2.07701 -2.12715 0
M  V30 31235 H 2913.84 -1.16046 -1.01847 0
M  V30 31236 H 2915.79 -0.513712 -4.07273 0
M  V30 31237 H 2914.46 0.183731 -3.13562 0
M  V30 31238 H 2913.65 -1.51094 -4.80819 0
M  V30 31239 H 2913.25 -2.01656 -3.14977 0
M  V30 31240 H 2915.54 -2.55365 -6.27531 0
M  V30 31241 H 2916.49 -4.01267 -5.8343 0
M  V30 31242 H 2916.89 -2.43743 -5.09165 0
M  V30 31243 N 2916.29 1.08262 -1.1453 0
M  V30 31244 C 2917.25 2.13396 -0.836357 0
M  V30 31245 C 2918.25 1.60005 0.159687 0
M  V30 31246 O 2919.44 1.74064 -0.0688404 0
M  V30 31247 C 2916.58 3.40004 -0.247032 0
M  V30 31248 H 2917.77 2.42234 -1.76813 0
M  V30 31249 H 2915.32 1.23998 -0.951531 0
M  V30 31250 H 2916.06 3.16801 0.69338 0
M  V30 31251 H 2915.84 3.80053 -0.964479 0
M  V30 31252 H 2917.33 4.17572 -0.0481413 0
M  V30 31253 N 2917.77 0.940655 1.26449 0
M  V30 31254 C 2918.7 0.467519 2.28772 0
M  V30 31255 C 2919.68 -0.478927 1.63219 0
M  V30 31256 O 2920.87 -0.380895 1.90428 0
M  V30 31257 C 2918 -0.268595 3.4626 0
M  V30 31258 C 2916.95 0.591246 4.23897 0
M  V30 31259 C 2916.28 -0.274797 5.33993 0
M  V30 31260 C 2917.58 1.86232 4.8797 0
M  V30 31261 H 2919.27 1.3227 2.68598 0
M  V30 31262 H 2916.82 0.637458 1.29122 0
M  V30 31263 H 2918.77 -0.610623 4.16952 0
M  V30 31264 H 2917.49 -1.15791 3.05385 0
M  V30 31265 H 2916.15 0.916161 3.54968 0
M  V30 31266 H 2915.8 -1.16345 4.8936 0
M  V30 31267 H 2915.5 0.297109 5.86848 0
M  V30 31268 H 2917.02 -0.612106 6.07524 0
M  V30 31269 H 2918.44 1.58757 5.5088 0
M  V30 31270 H 2916.83 2.37875 5.5094 0
M  V30 31271 H 2917.9 2.57402 4.10941 0
M  V30 31272 N 2919.25 -1.40821 0.707617 0
M  V30 31273 C 2920.48 -2.05048 0.252742 0
M  V30 31274 C 2920.89 -1.53394 -1.10755 0
M  V30 31275 O 2920.23 -0.682127 -1.70566 0
M  V30 31276 C 2920.29 -3.59203 0.146064 0
M  V30 31277 C 2919.95 -4.33708 1.44035 0
M  V30 31278 C 2920.95 -4.62191 2.38067 0
M  V30 31279 C 2918.64 -4.72763 1.69706 0
M  V30 31280 C 2920.63 -5.28703 3.56022 0
M  V30 31281 C 2918.32 -5.39009 2.87945 0
M  V30 31282 C 2919.32 -5.66908 3.80925 0
M  V30 31283 O 2919 -6.31788 4.97091 0
M  V30 31284 H 2918.74 -0.666523 0.112795 0
M  V30 31285 H 2921.29 -1.81362 0.964202 0
M  V30 31286 H 2919.52 -3.81677 -0.621271 0
M  V30 31287 H 2921.21 -4.0498 -0.273204 0
M  V30 31288 H 2921.97 -4.32489 2.19495 0
M  V30 31289 H 2917.85 -4.50421 0.981915 0
M  V30 31290 H 2921.4 -5.50396 4.28614 0
M  V30 31291 H 2917.29 -5.6813 3.06429 0
M  V30 31292 H 2918.06 -6.50284 4.97064 0
M  V30 31293 N 2920.73 -0.453223 -1.50943 0
M  V30 31294 C 2921.67 0.364379 -2.29728 0
M  V30 31295 C 2922.67 1.00662 -1.36248 0
M  V30 31296 O 2923.87 0.939767 -1.5352 0
M  V30 31297 H 2920.25 0.136334 -0.739538 0
M  V30 31298 H 2922.22 -0.320748 -2.96671 0
M  V30 31299 C 2920.97 1.44409 -3.16293 0
M  V30 31300 H 2920.29 0.959275 -3.88121 0
M  V30 31301 H 2921.73 1.9891 -3.74447 0
M  V30 31302 C 2920.19 2.43618 -2.32706 0
M  V30 31303 O 2920.72 3.48504 -1.99769 0
M  V30 31304 N 2918.93 2.14894 -1.95625 0
M  V30 31305 H 2918.47 1.29625 -2.2261 0
M  V30 31306 H 2918.43 2.8151 -1.39998 0
M  V30 31307 N 2922.2 1.56509 -0.185151 0
M  V30 31308 C 2923.13 2.21628 0.735059 0
M  V30 31309 C 2924.11 1.17622 1.22878 0
M  V30 31310 O 2925.3 1.46097 1.27942 0
M  V30 31311 C 2922.43 2.86787 1.95884 0
M  V30 31312 C 2921.38 3.96951 1.60043 0
M  V30 31313 C 2920.71 4.49225 2.90001 0
M  V30 31314 C 2922.01 5.15856 0.817917 0
M  V30 31315 H 2923.7 2.98782 0.192221 0
M  V30 31316 H 2921.25 1.43712 0.0910141 0
M  V30 31317 H 2923.2 3.31022 2.60773 0
M  V30 31318 H 2921.93 2.07023 2.52605 0
M  V30 31319 H 2920.59 3.53392 0.975174 0
M  V30 31320 H 2920.23 3.66236 3.4479 0
M  V30 31321 H 2919.93 5.23553 2.66769 0
M  V30 31322 H 2921.46 4.96156 3.55896 0
M  V30 31323 H 2922.87 5.56698 1.36969 0
M  V30 31324 H 2921.27 5.96188 0.684102 0
M  V30 31325 H 2922.34 4.84554 -0.183024 0
M  V30 31326 N 2923.68 -0.0885089 1.57351 0
M  V30 31327 C 2924.91 -0.802997 1.90356 0
M  V30 31328 C 2925.32 -1.72477 0.777708 0
M  V30 31329 O 2924.66 -1.81867 -0.258876 0
M  V30 31330 C 2924.72 -1.66389 3.18677 0
M  V30 31331 C 2924.39 -0.913248 4.47782 0
M  V30 31332 C 2925.39 -0.240057 5.19345 0
M  V30 31333 C 2923.07 -0.885376 4.94435 0
M  V30 31334 C 2925.06 0.450966 6.35803 0
M  V30 31335 C 2922.75 -0.190571 6.10803 0
M  V30 31336 C 2923.75 0.476415 6.81336 0
M  V30 31337 O 2923.44 1.16006 7.95486 0
M  V30 31338 H 2923.17 -0.234458 0.634039 0
M  V30 31339 H 2925.72 -0.0681598 2.05287 0
M  V30 31340 H 2923.95 -2.44112 2.9991 0
M  V30 31341 H 2925.64 -2.25554 3.37462 0
M  V30 31342 H 2926.41 -0.253007 4.8434 0
M  V30 31343 H 2922.29 -1.39398 4.39419 0
M  V30 31344 H 2925.83 0.97214 6.90793 0
M  V30 31345 H 2921.73 -0.17549 6.45261 0
M  V30 31346 H 2922.5 1.06763 8.11507 0
M  V30 31347 N 2925.16 -1.53445 -0.359498 0
M  V30 31348 C 2926.57 -1.61543 -0.935981 0
M  V30 31349 C 2926.92 -0.486666 -1.90068 0
M  V30 31350 O 2926.05 0.386009 -2.12929 0
M  V30 31351 C 2926.64 -2.92809 -1.70436 0
M  V30 31352 C 2925.2 -3.03222 -2.23009 0
M  V30 31353 C 2924.35 -2.56883 -1.04434 0
M  V30 31354 H 2927.3 -1.58098 -0.138106 0
M  V30 31355 H 2927.32 -2.80953 -2.56604 0
M  V30 31356 H 2926.83 -3.74943 -1.00198 0
M  V30 31357 H 2924.93 -2.25689 -2.96471 0
M  V30 31358 H 2925.05 -4.08411 -2.50474 0
M  V30 31359 H 2923.41 -2.11905 -1.4131 0
M  V30 31360 H 2924.19 -3.4144 -0.356845 0
M  V30 31361 N 2926.64 0.619637 -1.44908 0
M  V30 31362 C 2927.89 1.37623 -1.48001 0
M  V30 31363 C 2928.21 1.94641 -0.118329 0
M  V30 31364 O 2927.48 1.76459 0.850829 0
M  V30 31365 H 2926.06 0.510864 -0.545002 0
M  V30 31366 H 2928.72 0.728491 -1.80773 0
M  V30 31367 H 2927.81 2.20175 -2.212 0
M  V30 31368 N 2928.12 1.31997 0.861075 0
M  V30 31369 C 2929.36 1.22372 1.61718 0
M  V30 31370 C 2929.7 -0.215553 1.93 0
M  V30 31371 O 2928.97 -1.15095 1.56791 0
M  V30 31372 C 2929.25 2.07697 2.94167 0
M  V30 31373 C 2929.11 3.5997 2.69707 0
M  V30 31374 C 2930.43 1.93319 3.95368 0
M  V30 31375 H 2927.54 0.445891 0.586814 0
M  V30 31376 H 2930.19 1.61878 0.994759 0
M  V30 31377 H 2928.34 1.74134 3.47289 0
M  V30 31378 H 2930.01 4.03713 2.23189 0
M  V30 31379 H 2928.25 3.82956 2.03783 0
M  V30 31380 H 2928.92 4.14989 3.63989 0
M  V30 31381 H 2931.4 2.22708 3.51483 0
M  V30 31382 H 2930.27 2.55307 4.85911 0
M  V30 31383 H 2930.54 0.898998 4.32863 0
M  V30 31384 N 2929.59 -1.07653 1.15103 0
M  V30 31385 C 2930.84 -1.8019 0.924006 0
M  V30 31386 C 2931.17 -1.8659 -0.549032 0
M  V30 31387 O 2930.42 -1.34343 -1.42304 0
M  V30 31388 C 2930.72 -3.25335 1.4796 0
M  V30 31389 C 2930.39 -3.39039 2.97259 0
M  V30 31390 C 2929.05 -3.42487 3.38018 0
M  V30 31391 C 2931.4 -3.42087 3.93225 0
M  V30 31392 C 2928.73 -3.46582 4.7339 0
M  V30 31393 C 2931.08 -3.47719 5.28464 0
M  V30 31394 C 2929.75 -3.49443 5.68723 0
M  V30 31395 H 2929.02 -0.659361 0.338118 0
M  V30 31396 H 2931.66 -1.26698 1.43596 0
M  V30 31397 H 2929.97 -3.81587 0.888758 0
M  V30 31398 H 2931.67 -3.80029 1.27979 0
M  V30 31399 H 2928.26 -3.37052 2.64752 0
M  V30 31400 H 2932.44 -3.38647 3.62811 0
M  V30 31401 H 2927.7 -3.46213 5.03931 0
M  V30 31402 H 2931.87 -3.49023 6.02624 0
M  V30 31403 H 2929.5 -3.52369 6.73603 0
M  V30 31404 N 2931.07 -0.947348 -1.25949 0
M  V30 31405 C 2931.98 -0.46812 -2.29882 0
M  V30 31406 C 2933 0.460946 -1.67783 0
M  V30 31407 O 2934.17 0.338971 -1.98527 0
M  V30 31408 C 2931.24 0.253254 -3.45774 0
M  V30 31409 C 2930.3 -0.713129 -4.23336 0
M  V30 31410 C 2929.53 -0.0260868 -5.33694 0
M  V30 31411 O 2929.76 1.18968 -5.57856 0
M  V30 31412 O 2928.69 -0.707925 -5.97722 0
M  V30 31413 H 2932.52 -1.33161 -2.7295 0
M  V30 31414 H 2930.1 -0.713491 -1.31262 0
M  V30 31415 H 2931.98 0.65935 -4.1621 0
M  V30 31416 H 2930.66 1.09204 -3.04723 0
M  V30 31417 H 2929.57 -1.16929 -3.55357 0
M  V30 31418 H 2930.9 -1.51971 -4.68151 0
M  V30 31419 N 2932.55 1.40444 -0.715075 0
M  V30 31420 C 2933.78 2.05209 -0.263995 0
M  V30 31421 C 2934.19 1.53873 1.094 0
M  V30 31422 O 2933.55 0.695094 1.68744 0
M  V30 31423 C 2933.6 3.60738 -0.234608 0
M  V30 31424 O 2933.32 4.10179 -1.53898 0
M  V30 31425 C 2934.82 4.42676 0.235086 0
M  V30 31426 H 2932.04 0.660405 -0.118771 0
M  V30 31427 H 2934.59 1.79862 -0.973139 0
M  V30 31428 H 2932.74 3.85056 0.425496 0
M  V30 31429 H 2933.16 5.0437 -1.43912 0
M  V30 31430 H 2934.63 5.51621 0.204501 0
M  V30 31431 H 2935.11 4.2022 1.27716 0
M  V30 31432 H 2935.71 4.23464 -0.394723 0
M  V30 31433 N 2934.03 0.461222 1.507 0
M  V30 31434 C 2935.27 -0.0973054 2.02566 0
M  V30 31435 C 2935.61 -1.40254 1.34322 0
M  V30 31436 O 2934.88 -1.88842 0.465726 0
M  V30 31437 C 2935.17 -0.29136 3.58919 0
M  V30 31438 C 2935.02 1.0342 4.37749 0
M  V30 31439 C 2936.34 -1.0504 4.27381 0
M  V30 31440 H 2933.46 -0.0338896 0.73622 0
M  V30 31441 H 2936.1 0.604887 1.80114 0
M  V30 31442 H 2934.25 -0.889473 3.78181 0
M  V30 31443 H 2935.92 1.66813 4.30083 0
M  V30 31444 H 2934.16 1.6332 4.01882 0
M  V30 31445 H 2934.83 0.852181 5.45382 0
M  V30 31446 H 2937.31 -0.543531 4.12535 0
M  V30 31447 H 2936.19 -1.15497 5.36611 0
M  V30 31448 H 2936.45 -2.08453 3.89871 0
M  V30 31449 N 2935.51 -1.56408 0.193449 0
M  V30 31450 C 2936.42 -2.22621 -0.740073 0
M  V30 31451 C 2937.43 -1.22476 -1.23594 0
M  V30 31452 O 2938.61 -1.55208 -1.28345 0
M  V30 31453 C 2935.67 -2.8713 -1.94312 0
M  V30 31454 C 2934.73 -4.0254 -1.49198 0
M  V30 31455 C 2933.97 -4.63964 -2.63768 0
M  V30 31456 O 2934.19 -4.24308 -3.81208 0
M  V30 31457 O 2933.12 -5.53458 -2.36575 0
M  V30 31458 H 2936.95 -3.02999 -0.206184 0
M  V30 31459 H 2934.54 -1.49357 -0.0357676 0
M  V30 31460 H 2936.42 -3.27949 -2.64627 0
M  V30 31461 H 2935.09 -2.09732 -2.46564 0
M  V30 31462 H 2934 -3.66347 -0.757673 0
M  V30 31463 H 2935.33 -4.81597 -1.01614 0
M  V30 31464 N 2936.98 0.0801629 -1.57396 0
M  V30 31465 C 2937.92 1.12771 -1.98388 0
M  V30 31466 C 2938.9 1.3803 -0.859447 0
M  V30 31467 O 2940.08 1.51542 -1.12104 0
M  V30 31468 C 2937.21 2.47382 -2.31344 0
M  V30 31469 C 2936.25 2.3831 -3.5371 0
M  V30 31470 S 2937.09 1.78525 -5.04865 0
M  V30 31471 C 2938.24 3.14731 -5.41013 0
M  V30 31472 H 2938.47 0.778331 -2.86931 0
M  V30 31473 H 2936.01 0.288393 -1.51683 0
M  V30 31474 H 2937.97 3.24817 -2.51006 0
M  V30 31475 H 2936.63 2.79483 -1.43345 0
M  V30 31476 H 2935.82 3.37559 -3.74259 0
M  V30 31477 H 2935.42 1.69008 -3.33635 0
M  V30 31478 H 2937.71 4.11031 -5.38572 0
M  V30 31479 H 2938.66 2.9897 -6.4189 0
M  V30 31480 H 2939.06 3.1495 -4.68473 0
M  V30 31481 N 2938.46 1.53634 0.351355 0
M  V30 31482 C 2939.39 1.84057 1.43684 0
M  V30 31483 C 2940.37 0.6951 1.55249 0
M  V30 31484 O 2941.56 0.946287 1.69585 0
M  V30 31485 C 2938.69 2.0432 2.80839 0
M  V30 31486 C 2937.64 3.20122 2.84088 0
M  V30 31487 C 2936.97 3.25703 4.24054 0
M  V30 31488 C 2938.27 4.58404 2.50326 0
M  V30 31489 H 2939.96 2.74963 1.18473 0
M  V30 31490 H 2937.51 1.32304 0.568486 0
M  V30 31491 H 2939.46 2.24187 3.56817 0
M  V30 31492 H 2938.19 1.10137 3.07469 0
M  V30 31493 H 2936.84 3.00098 2.10563 0
M  V30 31494 H 2936.49 2.29131 4.47781 0
M  V30 31495 H 2936.19 4.03516 4.2714 0
M  V30 31496 H 2937.72 3.47771 5.01884 0
M  V30 31497 H 2939.13 4.78337 3.16017 0
M  V30 31498 H 2937.53 5.38563 2.64708 0
M  V30 31499 H 2938.6 4.62545 1.45534 0
M  V30 31500 N 2939.94 -0.611943 1.45234 0
M  V30 31501 C 2941.35 -1.19384 1.43542 0
M  V30 31502 C 2941.7 -1.9554 0.160747 0
M  V30 31503 O 2940.83 -2.0343 -0.737919 0
M  V30 31504 C 2941.42 -2.17164 2.60049 0
M  V30 31505 C 2939.98 -2.70739 2.6149 0
M  V30 31506 C 2939.13 -1.46068 2.3571 0
M  V30 31507 H 2942.08 -0.401502 1.53537 0
M  V30 31508 H 2942.1 -3.0012 2.33898 0
M  V30 31509 H 2941.61 -1.61708 3.52806 0
M  V30 31510 H 2939.71 -3.30146 1.72727 0
M  V30 31511 H 2939.83 -3.15469 3.60577 0
M  V30 31512 H 2938.19 -1.74872 1.85181 0
M  V30 31513 H 2938.97 -0.924864 3.30607 0
M  V30 31514 N 2941.42 -1.32452 -0.854063 0
M  V30 31515 C 2942.64 -1.26188 -1.64594 0
M  V30 31516 C 2943.07 0.167041 -1.87357 0
M  V30 31517 O 2942.43 1.11862 -1.42677 0
M  V30 31518 C 2942.47 -2.0274 -2.9821 0
M  V30 31519 O 2941.58 -1.37561 -3.88781 0
M  V30 31520 H 2940.92 -0.434868 -0.501783 0
M  V30 31521 H 2943.45 -1.74777 -1.06369 0
M  V30 31522 H 2943.46 -2.12936 -3.48026 0
M  V30 31523 H 2942.13 -3.06647 -2.80964 0
M  V30 31524 H 2940.71 -1.35916 -3.47248 0
M  V30 31525 N 2942.9 1.07041 -1.15672 0
M  V30 31526 C 2943.84 2.14324 -0.856374 0
M  V30 31527 C 2944.81 1.64986 0.192022 0
M  V30 31528 O 2946 1.90709 0.0588813 0
M  V30 31529 C 2943.14 3.43266 -0.355288 0
M  V30 31530 C 2942.25 4.06379 -1.46562 0
M  V30 31531 C 2941.39 5.23167 -0.920337 0
M  V30 31532 C 2940.43 5.78247 -2.00739 0
M  V30 31533 N 2939.56 6.86361 -1.47825 0
M  V30 31534 H 2944.4 2.39356 -1.77518 0
M  V30 31535 H 2941.94 1.17447 -0.885696 0
M  V30 31536 H 2943.9 4.17174 -0.0464537 0
M  V30 31537 H 2942.53 3.18476 0.526593 0
M  V30 31538 H 2941.58 3.30093 -1.89058 0
M  V30 31539 H 2942.89 4.4332 -2.28624 0
M  V30 31540 H 2942.05 6.04071 -0.564233 0
M  V30 31541 H 2940.79 4.87651 -0.0689335 0
M  V30 31542 H 2939.79 4.95986 -2.37229 0
M  V30 31543 H 2941.02 6.15817 -2.86263 0
M  V30 31544 H 2938.96 6.52779 -0.64926 0
M  V30 31545 H 2938.88 7.22204 -2.23511 0
M  V30 31546 H 2940.15 7.70963 -1.15049 0
M  V30 31547 N 2944.38 0.954014 1.25445 0
M  V30 31548 C 2945.34 0.478219 2.24156 0
M  V30 31549 C 2946.34 -0.417749 1.55279 0
M  V30 31550 O 2947.53 -0.215124 1.72867 0
M  V30 31551 C 2944.66 -0.309142 3.39495 0
M  V30 31552 H 2945.85 1.35069 2.67762 0
M  V30 31553 H 2943.41 0.737231 1.37821 0
M  V30 31554 H 2944.14 -1.19931 3.01309 0
M  V30 31555 H 2943.93 0.333631 3.90678 0
M  V30 31556 H 2945.42 -0.631521 4.12797 0
M  V30 31557 N 2945.85 -1.40063 0.722513 0
M  V30 31558 C 2947.1 -2.00362 0.26449 0
M  V30 31559 C 2947.42 -1.57594 -1.14844 0
M  V30 31560 O 2946.69 -0.818508 -1.77981 0
M  V30 31561 H 2945.27 -0.74096 0.0947976 0
M  V30 31562 H 2947.93 -1.71297 0.929689 0
M  V30 31563 H 2947.03 -3.10625 0.303031 0
M  V30 31564 N 2947.33 -0.469207 -1.50453 0
M  V30 31565 C 2948.58 0.0881071 -2.01507 0
M  V30 31566 C 2948.89 1.40953 -1.35615 0
M  V30 31567 O 2950.1 2.05168 -1.77816 0
M  V30 31568 C 2948.56 0.207533 -3.59301 0
M  V30 31569 C 2948.16 -1.10535 -4.3415 0
M  V30 31570 C 2949.91 0.716908 -4.18403 0
M  V30 31571 C 2947.81 -0.94982 -5.83723 0
M  V30 31572 H 2946.74 0.0367024 -0.753106 0
M  V30 31573 H 2949.4 -0.603818 -1.73281 0
M  V30 31574 H 2947.78 0.963197 -3.84107 0
M  V30 31575 H 2948.95 -1.87182 -4.21069 0
M  V30 31576 H 2947.27 -1.54569 -3.86649 0
M  V30 31577 H 2949.86 0.85027 -5.27896 0
M  V30 31578 H 2950.21 1.70775 -3.7966 0
M  V30 31579 H 2950.74 0.0186812 -3.97796 0
M  V30 31580 H 2947.48 -1.91398 -6.26935 0
M  V30 31581 H 2947 -0.223697 -5.99383 0
M  V30 31582 H 2948.68 -0.615683 -6.44064 0
M  V30 31583 N 2948.81 1.56303 -0.201741 0
M  V30 31584 C 2950.06 1.98819 0.429257 0
M  V30 31585 C 2950.41 1.08662 1.58778 0
M  V30 31586 O 2949.7 0.132398 1.91142 0
M  V30 31587 C 2949.9 3.45051 0.931371 0
M  V30 31588 C 2949.73 4.49352 -0.176957 0
M  V30 31589 C 2948.5 5.01271 -0.6368 0
M  V30 31590 C 2950.69 5.04716 -0.988266 0
M  V30 31591 N 2948.68 5.89247 -1.72226 0
M  V30 31592 C 2950.05 5.89425 -1.92299 0
M  V30 31593 C 2952.1 4.87131 -1.02994 0
M  V30 31594 C 2950.81 6.58429 -2.89593 0
M  V30 31595 C 2952.83 5.56879 -1.99097 0
M  V30 31596 C 2952.19 6.4134 -2.91311 0
M  V30 31597 H 2948.29 0.772057 0.124309 0
M  V30 31598 H 2950.88 1.92233 -0.308963 0
M  V30 31599 H 2949.05 3.52124 1.63901 0
M  V30 31600 H 2950.78 3.7452 1.53353 0
M  V30 31601 H 2947.53 4.73046 -0.228945 0
M  V30 31602 H 2947.96 6.37937 -2.26639 0
M  V30 31603 H 2952.6 4.21503 -0.330968 0
M  V30 31604 H 2950.32 7.23251 -3.60462 0
M  V30 31605 H 2953.9 5.45247 -2.0297 0
M  V30 31606 H 2952.78 6.94361 -3.64462 0
M  V30 31607 N 2950.29 -0.0718147 1.57436 0
M  V30 31608 C 2951.7 -0.426601 1.53793 0
M  V30 31609 C 2951.9 -1.79173 0.921918 0
M  V30 31610 O 2950.96 -2.46994 0.524417 0
M  V30 31611 C 2952.27 -0.367686 2.98444 0
M  V30 31612 C 2953.82 -0.447874 3.09779 0
M  V30 31613 C 2954.3 -0.418866 4.56081 0
M  V30 31614 N 2955.79 -0.478941 4.60717 0
M  V30 31615 C 2956.52 -0.47871 5.71398 0
M  V30 31616 N 2956.02 -0.433295 6.91444 0
M  V30 31617 N 2957.81 -0.525265 5.5964 0
M  V30 31618 H 2949.96 0.822068 1.95846 0
M  V30 31619 H 2952.22 0.308463 0.896412 0
M  V30 31620 H 2951.93 0.568711 3.47071 0
M  V30 31621 H 2951.8 -1.17789 3.58337 0
M  V30 31622 H 2954.19 -1.37469 2.61125 0
M  V30 31623 H 2954.27 0.390902 2.52796 0
M  V30 31624 H 2953.92 0.504105 5.05392 0
M  V30 31625 H 2953.85 -1.27517 5.10927 0
M  V30 31626 H 2956.34 -0.518289 3.74329 0
M  V30 31627 H 2956.65 -0.437044 7.71563 0
M  V30 31628 H 2955 -0.399984 6.93848 0
M  V30 31629 H 2958.19 -0.558437 4.64757 0
M  V30 31630 H 2958.36 -0.521616 6.45897 0
M  V30 31631 N 2951.77 -1.53818 -0.343203 0
M  V30 31632 C 2953.01 -1.71334 -1.08501 0
M  V30 31633 C 2953.34 -0.475318 -1.88293 0
M  V30 31634 O 2952.62 0.527655 -1.87206 0
M  V30 31635 C 2952.9 -2.97705 -2.02592 0
M  V30 31636 C 2952.76 -4.31716 -1.26261 0
M  V30 31637 C 2954.07 -3.19749 -3.02405 0
M  V30 31638 H 2951.19 -0.623436 -0.393061 0
M  V30 31639 H 2953.84 -1.8649 -0.363546 0
M  V30 31640 H 2951.99 -2.84915 -2.64113 0
M  V30 31641 H 2953.66 -4.56357 -0.673514 0
M  V30 31642 H 2951.9 -4.3011 -0.56462 0
M  V30 31643 H 2952.57 -5.16317 -1.95244 0
M  V30 31644 H 2955.05 -3.31872 -2.50998 0
M  V30 31645 H 2953.92 -4.09565 -3.65442 0
M  V30 31646 H 2954.18 -2.36061 -3.73802 0
M  V30 31647 N 2953.24 0.604233 -1.45557 0
M  V30 31648 C 2954.15 1.74297 -1.57028 0
M  V30 31649 C 2955.17 1.67957 -0.454589 0
M  V30 31650 O 2956.35 1.88253 -0.715745 0
M  V30 31651 C 2953.41 3.10765 -1.53707 0
M  V30 31652 C 2952.47 3.28533 -2.76341 0
M  V30 31653 C 2951.7 4.58491 -2.73169 0
M  V30 31654 O 2951.93 5.41025 -1.80687 0
M  V30 31655 O 2950.86 4.79044 -3.64418 0
M  V30 31656 H 2954.69 1.67569 -2.53287 0
M  V30 31657 H 2952.27 0.768722 -1.28105 0
M  V30 31658 H 2954.15 3.92066 -1.54475 0
M  V30 31659 H 2952.83 3.17977 -0.606013 0
M  V30 31660 H 2951.74 2.46808 -2.81134 0
M  V30 31661 H 2953.07 3.262 -3.68584 0
M  V30 31662 N 2954.72 1.32903 0.847027 0
M  V30 31663 C 2955.96 1.25221 1.61552 0
M  V30 31664 C 2956.33 -0.181396 1.91141 0
M  V30 31665 O 2957.53 -0.382059 2.66071 0
M  V30 31666 C 2955.8 2.09514 2.89549 0
M  V30 31667 S 2957.36 2.18937 3.80279 0
M  V30 31668 H 2954.17 0.445623 0.554023 0
M  V30 31669 H 2956.78 1.67841 1.00248 0
M  V30 31670 H 2955.48 3.12721 2.6577 0
M  V30 31671 H 2955.01 1.677 3.55865 0
M  V30 31672 H 2957.03 1.34446 4.77639 0
M  V30 31673 N 2956.2 -1.06426 1.16238 0
M  V30 31674 C 2957.13 -2.15838 0.890845 0
M  V30 31675 C 2958.11 -1.69324 -0.162303 0
M  V30 31676 O 2959.3 -1.94194 -0.014685 0
M  V30 31677 C 2956.43 -3.45107 0.389675 0
M  V30 31678 C 2955.38 -4.05122 1.38058 0
M  V30 31679 C 2954.71 -5.29584 0.737867 0
M  V30 31680 C 2956.01 -4.44058 2.74973 0
M  V30 31681 H 2957.7 -2.38811 1.80582 0
M  V30 31682 H 2955.25 -1.14772 0.869677 0
M  V30 31683 H 2957.2 -4.20984 0.187201 0
M  V30 31684 H 2955.92 -3.21749 -0.560794 0
M  V30 31685 H 2954.58 -3.313 1.56958 0
M  V30 31686 H 2954.23 -5.02523 -0.219047 0
M  V30 31687 H 2953.93 -5.70697 1.39924 0
M  V30 31688 H 2955.45 -6.08159 0.545381 0
M  V30 31689 H 2956.87 -5.11022 2.59864 0
M  V30 31690 H 2955.26 -4.9615 3.37572 0
M  V30 31691 H 2956.33 -3.54982 3.30327 0
M  V30 31692 N 2957.68 -0.960653 -1.24937 0
M  V30 31693 C 2958.93 -0.614332 -1.92117 0
M  V30 31694 C 2959.24 0.853443 -1.75999 0
M  V30 31695 O 2960.45 1.30998 -2.37806 0
M  V30 31696 C 2958.9 -1.04808 -3.44301 0
M  V30 31697 C 2958.51 -2.53881 -3.69118 0
M  V30 31698 C 2960.25 -0.77457 -4.17374 0
M  V30 31699 C 2958.16 -2.91025 -5.14838 0
M  V30 31700 H 2957.09 -0.226057 -0.719315 0
M  V30 31701 H 2959.74 -1.16591 -1.41699 0
M  V30 31702 H 2958.12 -0.424859 -3.93714 0
M  V30 31703 H 2959.3 -3.21273 -3.30333 0
M  V30 31704 H 2957.61 -2.78767 -3.09318 0
M  V30 31705 H 2960.21 -1.02817 -5.24722 0
M  V30 31706 H 2960.55 0.289119 -4.15295 0
M  V30 31707 H 2961.09 -1.35842 -3.73887 0
M  V30 31708 H 2957.83 -3.96436 -5.22033 0
M  V30 31709 H 2957.35 -2.28311 -5.54648 0
M  V30 31710 H 2959.02 -2.80545 -5.83012 0
M  V30 31711 N 2959.16 1.39677 -0.729931 0
M  V30 31712 C 2960.4 2.00219 -0.275112 0
M  V30 31713 C 2960.73 1.58201 1.14007 0
M  V30 31714 O 2960 0.827935 1.77544 0
M  V30 31715 H 2958.58 0.740447 -0.0987258 0
M  V30 31716 H 2961.24 1.70802 -0.93876 0
M  V30 31717 H 2960.33 3.1046 -0.3195 0
M  V30 31718 N 2960.63 0.47718 1.50202 0
M  V30 31719 C 2961.54 -0.318987 2.32421 0
M  V30 31720 C 2962.56 -0.990208 1.43076 0
M  V30 31721 O 2963.74 -0.976842 1.76124 0
M  V30 31722 C 2960.8 -1.38323 3.17911 0
M  V30 31723 C 2959.86 -0.727962 4.23083 0
M  V30 31724 C 2959.1 -1.74149 5.04488 0
M  V30 31725 O 2959.32 -2.96872 4.87056 0
M  V30 31726 O 2958.25 -1.30996 5.87472 0
M  V30 31727 H 2962.08 0.353334 3.01638 0
M  V30 31728 H 2959.66 0.238917 1.47477 0
M  V30 31729 H 2961.55 -1.99953 3.7094 0
M  V30 31730 H 2960.22 -2.03891 2.51417 0
M  V30 31731 H 2959.13 -0.0725442 3.7403 0
M  V30 31732 H 2960.46 -0.115129 4.92065 0
M  V30 31733 N 2962.11 -1.56194 0.210027 0
M  V30 31734 C 2963.06 -2.16402 -0.71794 0
M  V30 31735 C 2964.05 -1.10901 -1.16575 0
M  V30 31736 O 2965.24 -1.36922 -1.12166 0
M  V30 31737 C 2962.37 -2.83853 -1.93086 0
M  V30 31738 C 2961.45 -3.96564 -1.50327 0
M  V30 31739 N 2961.84 -4.99631 -0.787533 0
M  V30 31740 C 2960.14 -4.0844 -1.79144 0
M  V30 31741 C 2960.84 -5.7889 -0.571102 0
M  V30 31742 N 2959.82 -5.31845 -1.12434 0
M  V30 31743 H 2963.62 -2.9345 -0.162551 0
M  V30 31744 H 2961.14 -1.62396 0.0108214 0
M  V30 31745 H 2963.13 -3.25389 -2.60629 0
M  V30 31746 H 2961.79 -2.08297 -2.49083 0
M  V30 31747 H 2962.8 -5.16015 -0.441422 0
M  V30 31748 H 2959.48 -3.44026 -2.36543 0
M  V30 31749 H 2960.87 -6.719 -0.00226131 0
M  V30 31750 N 2963.59 0.0634645 -1.57472 0
M  V30 31751 C 2964.52 1.07469 -2.07298 0
M  V30 31752 C 2965.5 1.39858 -0.968186 0
M  V30 31753 O 2966.69 1.4934 -1.24141 0
M  V30 31754 C 2963.82 2.38577 -2.52385 0
M  V30 31755 C 2962.77 2.2052 -3.66817 0
M  V30 31756 C 2962.1 3.57085 -3.97988 0
M  V30 31757 C 2963.4 1.61956 -4.96556 0
M  V30 31758 H 2965.09 0.66004 -2.92034 0
M  V30 31759 H 2962.64 0.316049 -1.40489 0
M  V30 31760 H 2964.59 3.09619 -2.85857 0
M  V30 31761 H 2963.31 2.82037 -1.64689 0
M  V30 31762 H 2961.97 1.51918 -3.33641 0
M  V30 31763 H 2961.62 3.98131 -3.0741 0
M  V30 31764 H 2961.32 3.4584 -4.75046 0
M  V30 31765 H 2962.84 4.29544 -4.33963 0
M  V30 31766 H 2964.26 2.22873 -5.28205 0
M  V30 31767 H 2962.66 1.61384 -5.77992 0
M  V30 31768 H 2963.73 0.581834 -4.81397 0
M  V30 31769 N 2965.07 1.53998 0.33504 0
M  V30 31770 C 2966.02 1.78963 1.41267 0
M  V30 31771 C 2967 0.645156 1.47399 0
M  V30 31772 O 2968.19 0.904812 1.52125 0
M  V30 31773 C 2965.32 2.01023 2.78289 0
M  V30 31774 C 2964.41 3.21559 2.76515 0
M  V30 31775 N 2964.8 4.42853 2.44366 0
M  V30 31776 C 2963.1 3.22901 3.07654 0
M  V30 31777 C 2963.8 5.24742 2.5104 0
M  V30 31778 N 2962.78 4.61655 2.87012 0
M  V30 31779 H 2966.58 2.70329 1.15322 0
M  V30 31780 H 2964.09 1.53037 0.543456 0
M  V30 31781 H 2966.09 2.17045 3.55945 0
M  V30 31782 H 2964.75 1.10903 3.05173 0
M  V30 31783 H 2965.76 4.70055 2.17414 0
M  V30 31784 H 2962.44 2.42777 3.39655 0
M  V30 31785 H 2963.83 6.31573 2.29272 0
M  V30 31786 N 2966.55 -0.596505 1.45875 0
M  V30 31787 C 2967.51 -1.6885 1.54991 0
M  V30 31788 C 2968.51 -1.5499 0.428329 0
M  V30 31789 O 2969.7 -1.59858 0.692186 0
M  V30 31790 C 2966.83 -3.08193 1.45705 0
M  V30 31791 H 2968.02 -1.6213 2.52297 0
M  V30 31792 H 2965.58 -0.813183 1.3348 0
M  V30 31793 H 2966.31 -3.2048 0.496261 0
M  V30 31794 H 2966.1 -3.19661 2.27067 0
M  V30 31795 H 2967.59 -3.87713 1.5514 0
M  V30 31796 N 2968.02 -1.3335 -0.839967 0
M  V30 31797 C 2969.27 -1.24498 -1.592 0
M  V30 31798 C 2969.59 0.189465 -1.94077 0
M  V30 31799 O 2968.86 1.11793 -1.6087 0
M  V30 31800 H 2967.44 -0.457812 -0.590268 0
M  V30 31801 H 2970.11 -1.67056 -1.00391 0
M  V30 31802 H 2969.2 -1.83793 -2.52243 0
M  V30 31803 N 2969.5 1.05808 -1.16801 0
M  V30 31804 C 2970.44 2.12861 -0.822528 0
M  V30 31805 C 2971.41 1.61264 0.207977 0
M  V30 31806 O 2972.6 1.88281 0.0909321 0
M  V30 31807 C 2969.72 3.37946 -0.225885 0
M  V30 31808 C 2968.77 4.08355 -1.23079 0
M  V30 31809 S 2969.6 4.57715 -2.77952 0
M  V30 31810 C 2970.76 5.86055 -2.19751 0
M  V30 31811 H 2970.99 2.41838 -1.72921 0
M  V30 31812 H 2968.53 1.18316 -0.992002 0
M  V30 31813 H 2970.48 4.10348 0.111883 0
M  V30 31814 H 2969.14 3.07117 0.658638 0
M  V30 31815 H 2968.34 4.98209 -0.761845 0
M  V30 31816 H 2967.94 3.4199 -1.51389 0
M  V30 31817 H 2970.23 6.59076 -1.56922 0
M  V30 31818 H 2971.17 6.37686 -3.07834 0
M  V30 31819 H 2971.58 5.40321 -1.63443 0
M  V30 31820 N 2970.98 0.967265 1.24426 0
M  V30 31821 C 2972.21 0.646103 1.97079 0
M  V30 31822 C 2972.63 -0.777635 1.71273 0
M  V30 31823 O 2971.99 -1.52774 0.976206 0
M  V30 31824 C 2972.04 0.926328 3.48499 0
M  V30 31825 O 2971.14 0.0115378 4.12398 0
M  V30 31826 H 2970.48 0.244315 0.617419 0
M  V30 31827 H 2973.01 1.2973 1.58213 0
M  V30 31828 H 2973.02 0.857689 3.98883 0
M  V30 31829 H 2971.7 1.96393 3.6661 0
M  V30 31830 H 2970.27 0.133461 3.72661 0
M  V30 31831 N 2972.46 -1.39288 0.737328 0
M  V30 31832 C 2973.69 -2.04763 0.296609 0
M  V30 31833 C 2974.1 -1.55594 -1.06939 0
M  V30 31834 O 2973.46 -0.721852 -1.67617 0
M  V30 31835 C 2973.51 -3.60319 0.291969 0
M  V30 31836 O 2973.23 -4.07679 1.60404 0
M  V30 31837 C 2974.73 -4.42994 -0.16463 0
M  V30 31838 H 2971.95 -0.658432 0.129263 0
M  V30 31839 H 2974.5 -1.78291 1.00163 0
M  V30 31840 H 2972.65 -3.85684 -0.364183 0
M  V30 31841 H 2973.07 -5.02017 1.51918 0
M  V30 31842 H 2974.54 -5.51877 -0.116717 0
M  V30 31843 H 2975.02 -4.22199 -1.21015 0
M  V30 31844 H 2975.62 -4.22783 0.462043 0
M  V30 31845 N 2973.94 -0.485139 -1.49947 0
M  V30 31846 C 2974.87 0.291323 -2.31676 0
M  V30 31847 C 2975.85 0.977359 -1.39218 0
M  V30 31848 O 2977.03 0.971825 -1.68134 0
M  V30 31849 C 2974.16 1.36552 -3.19329 0
M  V30 31850 C 2973.12 0.800285 -4.20451 0
M  V30 31851 C 2972.44 1.97382 -4.96935 0
M  V30 31852 C 2973.74 -0.197959 -5.21925 0
M  V30 31853 H 2975.44 -0.390827 -2.96838 0
M  V30 31854 H 2972.98 -0.189401 -1.42749 0
M  V30 31855 H 2974.94 1.91631 -3.75307 0
M  V30 31856 H 2973.66 2.07664 -2.52078 0
M  V30 31857 H 2972.32 0.271364 -3.65594 0
M  V30 31858 H 2971.97 2.67225 -4.26145 0
M  V30 31859 H 2971.67 1.60177 -5.65347 0
M  V30 31860 H 2973.19 2.52925 -5.55753 0
M  V30 31861 H 2974.61 0.264138 -5.72691 0
M  V30 31862 H 2973 -0.485014 -5.98137 0
M  V30 31863 H 2974.07 -1.1192 -4.71807 0
M  V30 31864 N 2975.42 1.56081 -0.218307 0
M  V30 31865 C 2976.66 1.98217 0.414272 0
M  V30 31866 C 2976.99 1.10586 1.60003 0
M  V30 31867 O 2976.25 0.150078 1.95124 0
M  V30 31868 C 2976.54 3.46019 0.894722 0
M  V30 31869 C 2976.21 4.5054 -0.180162 0
M  V30 31870 C 2974.87 4.78845 -0.475451 0
M  V30 31871 C 2977.22 5.13242 -0.907281 0
M  V30 31872 C 2974.55 5.67137 -1.50243 0
M  V30 31873 C 2976.9 6.02645 -1.92357 0
M  V30 31874 C 2975.57 6.29296 -2.22582 0
M  V30 31875 H 2974.84 0.725328 0.151593 0
M  V30 31876 H 2977.49 1.88805 -0.320146 0
M  V30 31877 H 2975.79 3.52619 1.70784 0
M  V30 31878 H 2977.49 3.75992 1.39396 0
M  V30 31879 H 2974.08 4.28558 0.0601447 0
M  V30 31880 H 2978.26 4.91447 -0.692389 0
M  V30 31881 H 2973.52 5.86051 -1.74226 0
M  V30 31882 H 2977.69 6.50283 -2.49208 0
M  V30 31883 H 2975.32 6.97508 -3.02302 0
M  V30 31884 N 2976.89 -0.0551124 1.57504 0
M  V30 31885 C 2977.82 -1.06368 2.07865 0
M  V30 31886 C 2978.8 -1.39342 0.97559 0
M  V30 31887 O 2979.99 -1.4868 1.24932 0
M  V30 31888 C 2977.12 -2.37235 2.53647 0
M  V30 31889 C 2976.07 -2.18572 3.67982 0
M  V30 31890 C 2975.4 -3.54969 3.99876 0
M  V30 31891 C 2976.7 -1.59321 4.97407 0
M  V30 31892 H 2978.39 -0.644544 2.9238 0
M  V30 31893 H 2975.94 -0.308595 1.40655 0
M  V30 31894 H 2977.89 -3.08098 2.87495 0
M  V30 31895 H 2976.62 -2.8116 1.66182 0
M  V30 31896 H 2975.28 -1.50146 3.34442 0
M  V30 31897 H 2974.92 -3.96495 3.09517 0
M  V30 31898 H 2974.62 -3.43315 4.76873 0
M  V30 31899 H 2976.15 -4.27237 4.36235 0
M  V30 31900 H 2977.56 -2.20069 5.29379 0
M  V30 31901 H 2975.96 -1.58316 5.7884 0
M  V30 31902 H 2977.03 -0.556296 4.81698 0
M  V30 31903 N 2978.37 -1.54173 -0.326869 0
M  V30 31904 C 2979.62 -1.72475 -1.06678 0
M  V30 31905 C 2979.95 -0.495263 -1.87779 0
M  V30 31906 O 2979.23 0.50777 -1.87755 0
M  V30 31907 C 2979.51 -2.99837 -1.99423 0
M  V30 31908 C 2979.36 -4.3303 -1.21674 0
M  V30 31909 C 2980.68 -3.22939 -2.98996 0
M  V30 31910 H 2977.8 -0.62757 -0.386427 0
M  V30 31911 H 2980.44 -1.86865 -0.343746 0
M  V30 31912 H 2978.59 -2.877 -2.61076 0
M  V30 31913 H 2980.26 -4.57045 -0.625073 0
M  V30 31914 H 2978.51 -4.30685 -0.51897 0
M  V30 31915 H 2979.18 -5.18359 -1.89757 0
M  V30 31916 H 2981.65 -3.34516 -2.47464 0
M  V30 31917 H 2980.53 -4.13418 -3.61077 0
M  V30 31918 H 2980.79 -2.40012 -3.71277 0
M  V30 31919 N 2979.85 0.58876 -1.4619 0
M  V30 31920 C 2981.08 1.37137 -1.54522 0
M  V30 31921 C 2981.49 1.88312 -0.183108 0
M  V30 31922 O 2980.83 1.63942 0.828786 0
M  V30 31923 C 2980.89 2.59851 -2.4843 0
M  V30 31924 C 2980.56 2.30186 -3.94795 0
M  V30 31925 C 2981.55 1.89391 -4.84176 0
M  V30 31926 C 2979.24 2.42517 -4.39876 0
M  V30 31927 C 2981.23 1.61314 -6.16649 0
M  V30 31928 C 2978.92 2.14053 -5.72385 0
M  V30 31929 C 2979.92 1.73515 -6.60592 0
M  V30 31930 O 2979.61 1.45396 -7.90642 0
M  V30 31931 H 2979.34 0.425518 -0.525272 0
M  V30 31932 H 2981.89 0.72331 -1.92243 0
M  V30 31933 H 2980.12 3.27442 -2.05715 0
M  V30 31934 H 2981.81 3.21915 -2.47236 0
M  V30 31935 H 2982.58 1.79385 -4.50606 0
M  V30 31936 H 2978.46 2.73033 -3.71448 0
M  V30 31937 H 2982 1.29599 -6.85456 0
M  V30 31938 H 2977.9 2.23682 -6.05505 0
M  V30 31939 H 2978.66 1.59292 -8.0285 0
M  V30 31940 N 2981.33 1.33794 0.832883 0
M  V30 31941 C 2982.55 1.28791 1.62566 0
M  V30 31942 C 2982.98 -0.137213 1.87599 0
M  V30 31943 O 2982.34 -1.09578 1.44438 0
M  V30 31944 C 2982.38 2.07458 2.94946 0
M  V30 31945 O 2981.49 1.43728 3.86544 0
M  V30 31946 H 2980.83 0.442796 0.494801 0
M  V30 31947 H 2983.36 1.76447 1.03575 0
M  V30 31948 H 2983.37 2.18446 3.44595 0
M  V30 31949 H 2982.04 3.11078 2.76049 0
M  V30 31950 H 2980.62 1.41423 3.45042 0
M  V30 31951 N 2982.81 -1.05187 1.1736 0
M  V30 31952 C 2983.75 -2.15041 0.886565 0
M  V30 31953 C 2984.75 -1.68745 -0.148804 0
M  V30 31954 O 2985.95 -1.8 -0.00171959 0
M  V30 31955 H 2982.33 -0.70218 0.26916 0
M  V30 31956 H 2984.3 -2.36455 1.8202 0
M  V30 31957 C 2983.05 -3.45198 0.416394 0
M  V30 31958 H 2982.37 -3.81222 1.20456 0
M  V30 31959 H 2983.81 -4.23236 0.254436 0
M  V30 31960 C 2982.27 -3.25581 -0.865959 0
M  V30 31961 O 2982.8 -3.52148 -1.93274 0
M  V30 31962 N 2981.01 -2.78963 -0.81413 0
M  V30 31963 H 2980.55 -2.57543 0.0542071 0
M  V30 31964 H 2980.51 -2.66217 -1.67259 0
M  V30 31965 N 2984.28 -0.97385 -1.23911 0
M  V30 31966 C 2985.23 -0.508405 -2.25131 0
M  V30 31967 C 2986.2 0.449279 -1.59908 0
M  V30 31968 O 2987.39 0.35828 -1.87406 0
M  V30 31969 C 2984.53 0.189361 -3.4458 0
M  V30 31970 C 2983.64 -0.807813 -4.2438 0
M  V30 31971 C 2982.77 -0.0855248 -5.31131 0
M  V30 31972 C 2981.81 -1.07235 -6.02633 0
M  V30 31973 N 2980.95 -0.379658 -7.01073 0
M  V30 31974 H 2985.79 -1.37637 -2.64311 0
M  V30 31975 H 2983.33 -0.689825 -1.29922 0
M  V30 31976 H 2985.28 0.610661 -4.12707 0
M  V30 31977 H 2983.91 1.02124 -3.0622 0
M  V30 31978 H 2982.97 -1.34753 -3.55733 0
M  V30 31979 H 2984.28 -1.56006 -4.73776 0
M  V30 31980 H 2983.43 0.393466 -6.05423 0
M  V30 31981 H 2982.17 0.699376 -4.82659 0
M  V30 31982 H 2981.18 -1.56216 -5.2714 0
M  V30 31983 H 2982.4 -1.8578 -6.53194 0
M  V30 31984 H 2980.35 0.386154 -6.54862 0
M  V30 31985 H 2980.26 -1.07067 -7.4838 0
M  V30 31986 H 2981.53 0.0771614 -7.79462 0
M  V30 31987 N 2985.76 1.38895 -0.744705 0
M  V30 31988 C 2987 2.02161 -0.301727 0
M  V30 31989 C 2987.37 1.57828 1.09335 0
M  V30 31990 O 2988.57 2.13361 1.63495 0
M  V30 31991 C 2986.84 3.55033 -0.410663 0
M  V30 31992 S 2988.4 4.38773 -0.0489573 0
M  V30 31993 H 2985.21 0.701208 -0.117595 0
M  V30 31994 H 2987.82 1.69546 -0.973364 0
M  V30 31995 H 2986.52 3.84788 -1.42712 0
M  V30 31996 H 2986.05 3.92413 0.278462 0
M  V30 31997 H 2988.07 4.82348 1.16426 0
M  V30 31998 N 2987.24 0.493084 1.49688 0
M  V30 31999 C 2988.17 -0.326155 2.26868 0
M  V30 32000 C 2989.19 -0.937674 1.33085 0
M  V30 32001 O 2990.37 -0.822354 1.58429 0
M  V30 32002 C 2987.47 -1.47345 3.05193 0
M  V30 32003 C 2986.65 -0.970692 4.26493 0
M  V30 32004 C 2985.71 -1.99464 4.8693 0
M  V30 32005 O 2984.73 -1.56638 5.47223 0
M  V30 32006 N 2985.93 -3.32448 4.75877 0
M  V30 32007 H 2988.7 0.335599 2.97815 0
M  V30 32008 H 2986.26 0.325157 1.58601 0
M  V30 32009 H 2988.25 -2.15583 3.425 0
M  V30 32010 H 2986.82 -2.0395 2.36904 0
M  V30 32011 H 2986.04 -0.11346 3.94037 0
M  V30 32012 H 2987.33 -0.613068 5.05093 0
M  V30 32013 H 2986.73 -3.69936 4.27976 0
M  V30 32014 H 2985.29 -3.96422 5.1739 0
M  V30 32015 N 2988.72 -1.55963 0.226582 0
M  V30 32016 C 2989.95 -2.02828 -0.408471 0
M  V30 32017 C 2990.36 -1.1063 -1.52992 0
M  V30 32018 O 2989.72 -0.116841 -1.82126 0
M  V30 32019 C 2989.77 -3.49189 -0.935389 0
M  V30 32020 O 2989.49 -4.37872 0.14135 0
M  V30 32021 C 2990.99 -4.11721 -1.64318 0
M  V30 32022 H 2988.21 -0.663592 -0.0994303 0
M  V30 32023 H 2990.76 -2.01577 0.344506 0
M  V30 32024 H 2988.91 -3.51038 -1.63862 0
M  V30 32025 H 2989.32 -5.23877 -0.255488 0
M  V30 32026 H 2990.8 -5.15886 -1.96381 0
M  V30 32027 H 2991.28 -3.57013 -2.55809 0
M  V30 32028 H 2991.88 -4.13736 -0.985028 0
M  V30 32029 N 2990.2 0.0467589 -1.57531 0
M  V30 32030 C 2991.61 0.595572 -1.76946 0
M  V30 32031 C 2991.96 1.76572 -0.855385 0
M  V30 32032 O 2991.08 2.16352 -0.045706 0
M  V30 32033 C 2991.68 1.08719 -3.20883 0
M  V30 32034 C 2990.24 1.58166 -3.41556 0
M  V30 32035 C 2989.38 0.51192 -2.72534 0
M  V30 32036 H 2992.34 -0.179464 -1.57682 0
M  V30 32037 H 2992.36 1.95522 -3.26422 0
M  V30 32038 H 2991.87 0.23533 -3.87386 0
M  V30 32039 H 2989.97 2.45595 -2.80203 0
M  V30 32040 H 2990.08 1.64135 -4.50107 0
M  V30 32041 H 2988.45 0.962857 -2.35799 0
M  V30 32042 H 2989.23 -0.330177 -3.41709 0
M  V30 32043 N 2991.67 1.54344 0.318688 0
M  V30 32044 C 2992.6 1.87064 1.39748 0
M  V30 32045 C 2993.59 0.727875 1.5374 0
M  V30 32046 O 2994.77 0.982046 1.6754 0
M  V30 32047 C 2991.9 2.10231 2.76442 0
M  V30 32048 C 2990.85 3.26076 2.77234 0
M  V30 32049 C 2990.18 3.34625 4.1705 0
M  V30 32050 C 2991.48 4.6361 2.40546 0
M  V30 32051 H 2993.17 2.77414 1.12614 0
M  V30 32052 H 2990.72 1.3348 0.540294 0
M  V30 32053 H 2992.67 2.31705 3.51981 0
M  V30 32054 H 2991.4 1.16634 3.05064 0
M  V30 32055 H 2990.06 3.04497 2.0415 0
M  V30 32056 H 2989.7 2.38577 4.4282 0
M  V30 32057 H 2989.4 4.12486 4.18485 0
M  V30 32058 H 2990.93 3.58339 4.94394 0
M  V30 32059 H 2992.34 4.84933 3.05799 0
M  V30 32060 H 2990.74 5.44056 2.53224 0
M  V30 32061 H 2991.81 4.65528 1.3569 0
M  V30 32062 N 2993.15 -0.580999 1.465 0
M  V30 32063 C 2994.4 -1.3365 1.51598 0
M  V30 32064 C 2994.72 -1.94258 0.169893 0
M  V30 32065 O 2993.99 -1.78653 -0.803745 0
M  V30 32066 H 2992.57 -0.496234 0.558355 0
M  V30 32067 H 2995.23 -0.680306 1.82641 0
M  V30 32068 H 2994.33 -2.14233 2.26959 0
M  V30 32069 N 2994.63 -1.34234 -0.825776 0
M  V30 32070 C 2995.56 -1.19917 -1.94152 0
M  V30 32071 C 2996.54 -0.0914818 -1.62342 0
M  V30 32072 O 2997.73 -0.256115 -1.86752 0
M  V30 32073 C 2994.85 -0.842195 -3.28062 0
M  V30 32074 C 2993.9 -1.95924 -3.78835 0
M  V30 32075 S 2994.73 -3.57225 -3.98937 0
M  V30 32076 C 2995.89 -3.23563 -5.35778 0
M  V30 32077 H 2996.12 -2.14363 -2.05999 0
M  V30 32078 H 2993.65 -1.19227 -0.981032 0
M  V30 32079 H 2995.61 -0.643023 -4.05432 0
M  V30 32080 H 2994.27 0.0838811 -3.13988 0
M  V30 32081 H 2993.47 -1.66314 -4.75768 0
M  V30 32082 H 2993.07 -2.11575 -3.08403 0
M  V30 32083 H 2995.36 -2.752 -6.19089 0
M  V30 32084 H 2996.3 -4.19625 -5.70369 0
M  V30 32085 H 2996.71 -2.59819 -5.01153 0
M  V30 32086 N 2996.11 1.04563 -1.17917 0
M  V30 32087 C 2997.07 2.10627 -0.903824 0
M  V30 32088 C 2998.07 1.60432 0.108702 0
M  V30 32089 O 2999.26 1.73757 -0.124183 0
M  V30 32090 C 2996.39 3.39046 -0.355077 0
M  V30 32091 H 2997.59 2.36486 -1.8443 0
M  V30 32092 H 2995.14 1.20908 -0.990499 0
M  V30 32093 H 2995.87 3.18846 0.592241 0
M  V30 32094 H 2995.66 3.76792 -1.0849 0
M  V30 32095 H 2997.15 4.17208 -0.180964 0
M  V30 32096 N 2997.59 0.980408 1.23393 0
M  V30 32097 C 2998.81 0.66697 1.96383 0
M  V30 32098 C 2999.24 -0.759426 1.72088 0
M  V30 32099 O 2998.59 -1.5173 0.992355 0
M  V30 32100 C 2998.64 0.963238 3.47497 0
M  V30 32101 O 2997.75 0.0552775 4.12363 0
M  V30 32102 H 2997.09 0.25085 0.614793 0
M  V30 32103 H 2999.62 1.314 1.56828 0
M  V30 32104 H 2999.63 0.899947 3.97951 0
M  V30 32105 H 2998.3 2.0027 3.64506 0
M  V30 32106 H 2996.88 0.172979 3.72499 0
M  V30 32107 N 2999.06 -1.38498 0.75206 0
M  V30 32108 C 3000.31 -1.99756 0.306931 0
M  V30 32109 C 3000.63 -1.59994 -1.11476 0
M  V30 32110 O 2999.9 -0.856076 -1.76205 0
M  V30 32111 H 2998.48 -0.738783 0.110493 0
M  V30 32112 H 3001.15 -1.69287 0.965815 0
M  V30 32113 H 3000.24 -3.09913 0.368851 0
M  V30 32114 N 3000.54 -0.501015 -1.49424 0
M  V30 32115 C 3001.49 0.296658 -2.26062 0
M  V30 32116 C 3002.48 0.935518 -1.30908 0
M  V30 32117 O 3003.67 0.843115 -1.5563 0
M  V30 32118 C 3000.8 1.3605 -3.15191 0
M  V30 32119 C 2999.88 0.727879 -4.17807 0
M  V30 32120 N 3000.27 -0.169497 -5.05516 0
M  V30 32121 C 2998.57 0.988458 -4.34909 0
M  V30 32122 C 2999.27 -0.531611 -5.79266 0
M  V30 32123 N 2998.25 0.100468 -5.43507 0
M  V30 32124 H 3002.05 -0.394154 -2.91245 0
M  V30 32125 H 2999.57 -0.317093 -1.59274 0
M  V30 32126 H 3001.56 1.9454 -3.68727 0
M  V30 32127 H 3000.22 2.05299 -2.5156 0
M  V30 32128 H 3001.23 -0.540308 -5.15074 0
M  V30 32129 H 2997.91 1.6737 -3.82484 0
M  V30 32130 H 2999.3 -1.26576 -6.5987 0
M  V30 32131 N 3002.02 1.5584 -0.234849 0
M  V30 32132 C 3003.27 1.97821 0.39365 0
M  V30 32133 C 3003.58 1.12592 1.59945 0
M  V30 32134 O 3004.79 1.44532 2.29832 0
M  V30 32135 C 3003.25 3.51961 0.751749 0
M  V30 32136 C 3002.85 4.45913 -0.431976 0
M  V30 32137 C 3004.6 4.02625 1.34511 0
M  V30 32138 C 3002.5 5.91378 -0.0507016 0
M  V30 32139 H 3001.43 0.738756 0.150851 0
M  V30 32140 H 3004.09 1.8045 -0.333164 0
M  V30 32141 H 3002.47 3.64982 1.53636 0
M  V30 32142 H 3003.64 4.44645 -1.20943 0
M  V30 32143 H 3001.96 4.05664 -0.939457 0
M  V30 32144 H 3004.55 5.08815 1.6435 0
M  V30 32145 H 3004.9 3.49259 2.26547 0
M  V30 32146 H 3005.43 3.92881 0.62366 0
M  V30 32147 H 3002.17 6.48756 -0.937893 0
M  V30 32148 H 3001.69 5.95809 0.690793 0
M  V30 32149 H 3003.37 6.45933 0.371347 0
M  V30 32150 N 3003.5 -0.038404 1.57553 0
M  V30 32151 C 3004.92 -0.393883 1.54663 0
M  V30 32152 C 3005.12 -1.77177 0.959716 0
M  V30 32153 O 3004.17 -2.45826 0.57669 0
M  V30 32154 C 3005.48 -0.304299 2.99156 0
M  V30 32155 C 3007.03 -0.382064 3.10659 0
M  V30 32156 C 3007.51 -0.322031 4.56866 0
M  V30 32157 N 3009 -0.381108 4.6163 0
M  V30 32158 C 3009.73 -0.3574 5.72285 0
M  V30 32159 N 3009.23 -0.286533 6.92207 0
M  V30 32160 N 3011.02 -0.406439 5.60629 0
M  V30 32161 H 3003.17 0.863425 1.94059 0
M  V30 32162 H 3005.44 0.327408 0.889667 0
M  V30 32163 H 3005.14 0.642202 3.45787 0
M  V30 32164 H 3005.02 -1.10162 3.60755 0
M  V30 32165 H 3007.4 -1.319 2.63982 0
M  V30 32166 H 3007.48 0.444436 2.5191 0
M  V30 32167 H 3007.13 0.611193 5.04209 0
M  V30 32168 H 3007.06 -1.16651 5.13517 0
M  V30 32169 H 3009.55 -0.438772 3.75344 0
M  V30 32170 H 3009.86 -0.273286 7.72317 0
M  V30 32171 H 3008.21 -0.252719 6.9454 0
M  V30 32172 H 3011.4 -0.45973 4.65837 0
M  V30 32173 H 3011.57 -0.384494 6.46858 0
M  V30 32174 N 3004.98 -1.54511 -0.310498 0
M  V30 32175 C 3006.25 -1.64006 -1.0659 0
M  V30 32176 C 3006.63 -0.482252 -2.05518 0
M  V30 32177 O 3005.98 0.522081 -2.22456 0
M  V30 32178 C 3006.19 -3.01592 -1.75622 0
M  V30 32179 C 3007.54 -3.58085 -2.28167 0
M  V30 32180 O 3008.56 -3.03983 -1.85669 0
M  V30 32181 O 3007.42 -4.52793 -3.06008 0
M  V30 32182 H 3004.52 -0.664657 -0.492097 0
M  V30 32183 H 3007.06 -1.66857 -0.309345 0
M  V30 32184 H 3005.84 -3.77299 -1.03736 0
M  V30 32185 H 3005.46 -3.02478 -2.58056 0
M  V30 32186 N 3006.46 0.573222 -1.46806 0
M  V30 32187 C 3007.7 1.33107 -1.52606 0
M  V30 32188 C 3008.03 1.9365 -0.181667 0
M  V30 32189 O 3007.29 1.77519 0.823744 0
M  V30 32190 C 3007.58 2.47321 -2.58006 0
M  V30 32191 C 3007.25 2.04712 -4.01751 0
M  V30 32192 C 3005.91 1.92807 -4.40884 0
M  V30 32193 C 3008.26 1.71973 -4.92011 0
M  V30 32194 C 3005.59 1.46435 -5.68132 0
M  V30 32195 C 3007.94 1.27078 -6.19705 0
M  V30 32196 C 3006.61 1.13757 -6.57735 0
M  V30 32197 H 3005.88 0.487075 -0.558426 0
M  V30 32198 H 3008.53 0.644506 -1.80329 0
M  V30 32199 H 3006.83 3.21466 -2.2398 0
M  V30 32200 H 3008.53 3.05526 -2.59721 0
M  V30 32201 H 3005.12 2.14915 -3.70822 0
M  V30 32202 H 3009.3 1.80052 -4.62488 0
M  V30 32203 H 3004.56 1.34772 -5.96361 0
M  V30 32204 H 3008.73 1.00802 -6.89066 0
M  V30 32205 H 3006.36 0.77601 -7.56229 0
M  V30 32206 N 3007.93 1.3467 0.818645 0
M  V30 32207 C 3008.87 1.22445 1.93752 0
M  V30 32208 C 3009.88 0.150529 1.62103 0
M  V30 32209 O 3011.07 0.402759 1.73897 0
M  V30 32210 C 3008.17 0.860089 3.27804 0
M  V30 32211 C 3007.34 2.02988 3.87446 0
M  V30 32212 C 3006.4 1.64323 4.99884 0
M  V30 32213 O 3005.43 2.36038 5.17953 0
M  V30 32214 N 3006.63 0.559862 5.77794 0
M  V30 32215 H 3009.39 2.18837 2.04769 0
M  V30 32216 H 3006.95 1.27681 0.995449 0
M  V30 32217 H 3008.95 0.583139 4.00477 0
M  V30 32218 H 3007.52 -0.0137704 3.12597 0
M  V30 32219 H 3006.74 2.47132 3.07114 0
M  V30 32220 H 3008.02 2.81211 4.24025 0
M  V30 32221 H 3007.42 -0.0362335 5.65688 0
M  V30 32222 H 3005.98 0.342655 6.50899 0
M  V30 32223 N 3009.41 -1.03936 1.1847 0
M  V30 32224 C 3010.66 -1.76557 0.975224 0
M  V30 32225 C 3010.97 -1.89208 -0.495944 0
M  V30 32226 O 3012.18 -2.58695 -0.823964 0
M  V30 32227 C 3010.64 -3.17441 1.69585 0
M  V30 32228 C 3010.24 -3.12879 3.20642 0
M  V30 32229 C 3011.99 -3.9443 1.56924 0
M  V30 32230 C 3009.89 -4.4863 3.85338 0
M  V30 32231 H 3008.82 -0.661823 0.361256 0
M  V30 32232 H 3011.48 -1.164 1.41857 0
M  V30 32233 H 3009.86 -3.78002 1.18029 0
M  V30 32234 H 3011.03 -2.61761 3.79233 0
M  V30 32235 H 3009.35 -2.49388 3.33458 0
M  V30 32236 H 3011.94 -4.94823 2.0262 0
M  V30 32237 H 3012.29 -4.13018 0.521711 0
M  V30 32238 H 3012.82 -3.40447 2.05768 0
M  V30 32239 H 3009.56 -4.35247 4.90143 0
M  V30 32240 H 3009.08 -4.99845 3.31535 0
M  V30 32241 H 3010.76 -5.17542 3.88278 0
M  V30 32242 N 3010.89 -0.986938 -1.22871 0
M  V30 32243 C 3012.12 -0.677697 -1.95486 0
M  V30 32244 C 3012.53 0.756542 -1.72979 0
M  V30 32245 O 3011.89 1.50983 -1.0252 0
M  V30 32246 C 3011.94 -0.966699 -3.48335 0
M  V30 32247 O 3011.66 -2.34457 -3.70083 0
M  V30 32248 C 3013.16 -0.674325 -4.38141 0
M  V30 32249 H 3010.38 -0.251196 -0.622207 0
M  V30 32250 H 3012.93 -1.32009 -1.56185 0
M  V30 32251 H 3011.08 -0.370205 -3.85627 0
M  V30 32252 H 3011.5 -2.43926 -4.64328 0
M  V30 32253 H 3012.97 -0.926854 -5.44163 0
M  V30 32254 H 3013.45 0.391652 -4.3745 0
M  V30 32255 H 3014.05 -1.2516 -4.06467 0
M  V30 32256 N 3012.37 1.38098 -0.759394 0
M  V30 32257 C 3013.33 2.28749 -0.14376 0
M  V30 32258 C 3014.33 1.47458 0.641312 0
M  V30 32259 O 3015.52 1.67831 0.466721 0
M  V30 32260 C 3012.65 3.31272 0.804486 0
M  V30 32261 H 3013.85 2.84698 -0.942713 0
M  V30 32262 H 3011.4 1.47155 -0.526783 0
M  V30 32263 H 3012.13 2.80423 1.6289 0
M  V30 32264 H 3011.92 3.91341 0.24387 0
M  V30 32265 H 3013.41 3.99043 1.23104 0
M  V30 32266 N 3013.85 0.508932 1.49156 0
M  V30 32267 C 3015.07 -0.0314817 2.07376 0
M  V30 32268 C 3015.5 -1.29338 1.36577 0
M  V30 32269 O 3014.85 -1.76248 0.424994 0
M  V30 32270 C 3014.9 -0.260054 3.59661 0
M  V30 32271 O 3014.01 -1.33315 3.90257 0
M  V30 32272 H 3013.35 0.0297506 0.663333 0
M  V30 32273 H 3015.88 0.710825 1.91855 0
M  V30 32274 H 3015.89 -0.489154 4.05057 0
M  V30 32275 H 3014.56 0.661866 4.106 0
M  V30 32276 H 3013.14 -1.08838 3.56663 0
M  V30 32277 N 3015.32 -1.55714 0.243111 0
M  V30 32278 C 3016.57 -1.98458 -0.381929 0
M  V30 32279 C 3016.89 -1.1325 -1.58743 0
M  V30 32280 O 3016.16 -0.214419 -1.94723 0
M  V30 32281 H 3014.74 -0.732969 -0.144101 0
M  V30 32282 H 3017.4 -1.91893 0.341019 0
M  V30 32283 H 3016.5 -3.04294 -0.693648 0
M  V30 32284 N 3016.8 0.030048 -1.57571 0
M  V30 32285 C 3017.73 1.05853 -2.03292 0
M  V30 32286 C 3018.75 1.32525 -0.945566 0
M  V30 32287 O 3019.94 1.3003 -1.22289 0
M  V30 32288 C 3017.04 2.40038 -2.39238 0
M  V30 32289 C 3016.21 2.32736 -3.70341 0
M  V30 32290 C 3015.27 3.49362 -3.93488 0
M  V30 32291 O 3014.29 3.28901 -4.64557 0
M  V30 32292 N 3015.5 4.71195 -3.3905 0
M  V30 32293 H 3018.26 0.668846 -2.92141 0
M  V30 32294 H 3015.82 0.218009 -1.60425 0
M  V30 32295 H 3017.81 3.16778 -2.51861 0
M  V30 32296 H 3016.38 2.70855 -1.56065 0
M  V30 32297 H 3015.6 1.41102 -3.68081 0
M  V30 32298 H 3016.89 2.24999 -4.56347 0
M  V30 32299 H 3016.29 4.9072 -2.81443 0
M  V30 32300 H 3014.85 5.45303 -3.57054 0
M  V30 32301 N 3018.28 1.54674 0.3023 0
M  V30 32302 C 3019.51 1.77625 1.05513 0
M  V30 32303 C 3019.92 0.535191 1.81473 0
M  V30 32304 O 3019.26 -0.504512 1.76636 0
M  V30 32305 C 3019.32 2.93004 2.083 0
M  V30 32306 C 3018.99 4.31141 1.51546 0
M  V30 32307 C 3019.98 5.11218 0.946171 0
M  V30 32308 C 3017.67 4.77739 1.55148 0
M  V30 32309 C 3019.66 6.36012 0.420448 0
M  V30 32310 C 3017.35 6.02495 1.02189 0
M  V30 32311 C 3018.35 6.81467 0.457342 0
M  V30 32312 O 3018.04 8.03874 -0.0642243 0
M  V30 32313 H 3017.77 0.596135 0.318746 0
M  V30 32314 H 3020.32 2.02439 0.347522 0
M  V30 32315 H 3018.55 2.63812 2.82737 0
M  V30 32316 H 3020.24 3.03544 2.69474 0
M  V30 32317 H 3021.01 4.76362 0.911254 0
M  V30 32318 H 3016.89 4.163 1.98029 0
M  V30 32319 H 3020.43 6.97597 -0.0208524 0
M  V30 32320 H 3016.33 6.36838 1.05395 0
M  V30 32321 H 3017.1 8.18485 0.0491983 0
M  V30 32322 N 3019.76 -0.565428 1.47108 0
M  V30 32323 C 3021.01 -1.32035 1.53007 0
M  V30 32324 C 3021.33 -1.94067 0.190487 0
M  V30 32325 O 3020.6 -1.79495 -0.784751 0
M  V30 32326 H 3019.18 -0.490284 0.563587 0
M  V30 32327 H 3021.84 -0.660896 1.83353 0
M  V30 32328 H 3020.94 -2.11814 2.29219 0
M  V30 32329 N 3021.24 -1.35102 -0.811492 0
M  V30 32330 C 3022.17 -1.23471 -1.931 0
M  V30 32331 C 3023.18 -0.159124 -1.6202 0
M  V30 32332 O 3024.37 -0.411975 -1.73681 0
M  V30 32333 C 3021.47 -0.877461 -3.27344 0
M  V30 32334 C 3020.64 -2.0504 -3.86364 0
M  V30 32335 C 3019.7 -1.66972 -4.99006 0
M  V30 32336 O 3018.73 -2.38781 -5.16693 0
M  V30 32337 N 3019.93 -0.590496 -5.77489 0
M  V30 32338 H 3022.7 -2.1992 -2.03606 0
M  V30 32339 H 3020.26 -1.28207 -0.988664 0
M  V30 32340 H 3022.25 -0.604369 -4.00162 0
M  V30 32341 H 3020.82 -0.00280762 -3.126 0
M  V30 32342 H 3020.04 -2.48758 -3.058 0
M  V30 32343 H 3021.33 -2.83456 -4.22528 0
M  V30 32344 H 3020.72 0.00623316 -5.657 0
M  V30 32345 H 3019.28 -0.377169 -6.50708 0
M  V30 32346 N 3022.71 1.03306 -1.19019 0
M  V30 32347 C 3023.96 1.77022 -1.00174 0
M  V30 32348 C 3024.32 1.86745 0.463029 0
M  V30 32349 O 3023.61 1.37011 1.33935 0
M  V30 32350 C 3023.8 3.19619 -1.59932 0
M  V30 32351 C 3023.63 3.23796 -3.12067 0
M  V30 32352 C 3022.4 3.31986 -3.80938 0
M  V30 32353 C 3024.6 3.11183 -4.09475 0
M  V30 32354 N 3022.58 3.25493 -5.20507 0
M  V30 32355 C 3023.95 3.12275 -5.35616 0
M  V30 32356 C 3026.01 2.9528 -4.00892 0
M  V30 32357 C 3024.71 2.99098 -6.54166 0
M  V30 32358 C 3026.74 2.8345 -5.19047 0
M  V30 32359 C 3026.1 2.85194 -6.44084 0
M  V30 32360 H 3022.2 0.659228 -0.420645 0
M  V30 32361 H 3024.78 1.23007 -1.50922 0
M  V30 32362 H 3022.95 3.71964 -1.11791 0
M  V30 32363 H 3024.68 3.81674 -1.34563 0
M  V30 32364 H 3021.44 3.38033 -3.31708 0
M  V30 32365 H 3021.86 3.25665 -5.93525 0
M  V30 32366 H 3026.51 2.92756 -3.05047 0
M  V30 32367 H 3024.22 3.00372 -7.50201 0
M  V30 32368 H 3027.81 2.72188 -5.14203 0
M  V30 32369 H 3026.69 2.76137 -7.33974 0
M  V30 32370 N 3024.19 0.99344 1.22346 0
M  V30 32371 C 3025.16 0.54929 2.22521 0
M  V30 32372 C 3026.16 -0.368136 1.56529 0
M  V30 32373 O 3027.35 -0.160019 1.73463 0
M  V30 32374 C 3024.48 -0.200978 3.40307 0
M  V30 32375 H 3025.67 1.43519 2.63329 0
M  V30 32376 H 3023.22 0.780704 1.35406 0
M  V30 32377 H 3023.96 -1.10284 3.04972 0
M  V30 32378 H 3023.74 0.457753 3.89419 0
M  V30 32379 H 3025.23 -0.499873 4.14597 0
M  V30 32380 N 3025.67 -1.37693 0.766707 0
M  V30 32381 C 3027.08 -1.82478 0.394793 0
M  V30 32382 C 3027.43 -1.63906 -1.07839 0
M  V30 32383 O 3026.56 -1.1474 -1.83477 0
M  V30 32384 C 3027.15 -3.31281 0.709798 0
M  V30 32385 C 3025.71 -3.74364 0.391002 0
M  V30 32386 C 3024.86 -2.60291 0.956238 0
M  V30 32387 H 3027.81 -1.26236 0.961778 0
M  V30 32388 H 3027.83 -3.80499 -0.00735456 0
M  V30 32389 H 3027.34 -3.44767 1.78206 0
M  V30 32390 H 3025.44 -3.66451 -0.674148 0
M  V30 32391 H 3025.56 -4.70652 0.895728 0
M  V30 32392 H 3023.92 -2.51837 0.380788 0
M  V30 32393 H 3024.7 -2.76571 2.0338 0
M  V30 32394 N 3027.15 -0.516835 -1.48884 0
M  V30 32395 C 3028.1 0.253085 -2.29408 0
M  V30 32396 C 3029.07 0.945911 -1.36535 0
M  V30 32397 O 3030.25 0.949498 -1.65497 0
M  V30 32398 C 3027.39 1.30205 -3.19594 0
M  V30 32399 C 3026.5 0.619404 -4.27536 0
M  V30 32400 C 3025.64 1.65017 -5.04919 0
M  V30 32401 C 3024.68 0.950261 -6.04679 0
M  V30 32402 N 3023.81 1.92596 -6.75168 0
M  V30 32403 H 3028.65 -0.439796 -2.94737 0
M  V30 32404 H 3026.19 -0.228726 -1.45311 0
M  V30 32405 H 3028.15 1.92238 -3.7027 0
M  V30 32406 H 3026.78 1.96349 -2.56217 0
M  V30 32407 H 3025.83 -0.114572 -3.80227 0
M  V30 32408 H 3027.14 0.069214 -4.98752 0
M  V30 32409 H 3026.3 2.34514 -5.59543 0
M  V30 32410 H 3025.04 2.23424 -4.33512 0
M  V30 32411 H 3024.04 0.241156 -5.49271 0
M  V30 32412 H 3025.27 0.37248 -6.78078 0
M  V30 32413 H 3023.21 2.49935 -6.06521 0
M  V30 32414 H 3023.13 1.42686 -7.42413 0
M  V30 32415 H 3024.4 2.61332 -7.34388 0
M  V30 32416 N 3028.63 1.55583 -0.251365 0
M  V30 32417 C 3029.56 2.24547 0.640397 0
M  V30 32418 C 3030.54 1.22728 1.17778 0
M  V30 32419 O 3031.72 1.51392 1.21631 0
M  V30 32420 C 3028.85 2.94837 1.83544 0
M  V30 32421 C 3027.81 4.03382 1.43063 0
M  V30 32422 C 3027.13 4.61121 2.70687 0
M  V30 32423 C 3028.43 5.18861 0.598389 0
M  V30 32424 H 3030.13 2.99329 0.0653245 0
M  V30 32425 H 3027.67 1.43969 0.0299789 0
M  V30 32426 H 3029.63 3.41784 2.46499 0
M  V30 32427 H 3028.35 2.1755 2.43597 0
M  V30 32428 H 3027.01 3.5721 0.824411 0
M  V30 32429 H 3026.66 3.8053 3.28947 0
M  V30 32430 H 3026.36 5.34397 2.44323 0
M  V30 32431 H 3027.88 5.10804 3.34532 0
M  V30 32432 H 3029.29 5.62006 1.13234 0
M  V30 32433 H 3027.69 5.98553 0.430623 0
M  V30 32434 H 3028.76 4.83342 -0.388375 0
M  V30 32435 N 3030.1 -0.0216912 1.57585 0
M  V30 32436 C 3031.07 -1.0047 2.06006 0
M  V30 32437 C 3032.07 -1.28589 0.965483 0
M  V30 32438 O 3033.26 -1.23469 1.22886 0
M  V30 32439 C 3030.39 -2.33556 2.48323 0
M  V30 32440 H 3031.58 -0.586295 2.94113 0
M  V30 32441 H 3029.14 -0.268689 1.53973 0
M  V30 32442 H 3029.87 -2.8013 1.63394 0
M  V30 32443 H 3029.66 -2.14475 3.28242 0
M  V30 32444 H 3031.15 -3.04117 2.86186 0
M  V30 32445 N 3031.58 -1.54832 -0.294093 0
M  V30 32446 C 3033 -1.462 -0.640141 0
M  V30 32447 C 3033.2 -0.658832 -1.90425 0
M  V30 32448 O 3032.26 -0.169272 -2.51932 0
M  V30 32449 C 3033.57 -2.90226 -0.786712 0
M  V30 32450 C 3035.12 -3.00312 -0.882148 0
M  V30 32451 C 3035.59 -4.45549 -1.06066 0
M  V30 32452 N 3037.08 -4.49288 -1.1267 0
M  V30 32453 C 3037.82 -5.58856 -1.28325 0
M  V30 32454 N 3037.31 -6.78335 -1.40833 0
M  V30 32455 N 3039.11 -5.46558 -1.31268 0
M  V30 32456 H 3031.26 -2.05516 0.53637 0
M  V30 32457 H 3033.52 -0.931066 0.178379 0
M  V30 32458 H 3033.23 -3.51628 0.0713636 0
M  V30 32459 H 3033.1 -3.3804 -1.67358 0
M  V30 32460 H 3035.49 -2.3902 -1.73071 0
M  V30 32461 H 3035.57 -2.55784 0.0288854 0
M  V30 32462 H 3035.21 -5.07437 -0.216846 0
M  V30 32463 H 3035.14 -4.87714 -1.98603 0
M  V30 32464 H 3037.63 -3.63213 -1.04329 0
M  V30 32465 H 3037.95 -7.57593 -1.52553 0
M  V30 32466 H 3036.29 -6.81187 -1.37876 0
M  V30 32467 H 3039.48 -4.52161 -1.21112 0
M  V30 32468 H 3039.66 -6.31996 -1.43124 0
M  V30 32469 N 3033.06 0.557619 -1.47405 0
M  V30 32470 C 3033.99 1.67446 -1.62739 0
M  V30 32471 C 3034.97 1.63279 -0.476853 0
M  V30 32472 O 3036.16 1.80907 -0.706139 0
M  V30 32473 C 3033.29 3.06083 -1.64105 0
M  V30 32474 C 3032.24 3.25096 -2.78382 0
M  V30 32475 C 3031.57 4.64515 -2.64821 0
M  V30 32476 C 3032.87 3.10511 -4.19977 0
M  V30 32477 H 3034.56 1.54869 -2.56234 0
M  V30 32478 H 3032.11 0.743628 -1.23313 0
M  V30 32479 H 3034.06 3.8406 -1.73424 0
M  V30 32480 H 3032.78 3.19618 -0.671708 0
M  V30 32481 H 3031.44 2.49527 -2.68574 0
M  V30 32482 H 3031.09 4.74849 -1.65915 0
M  V30 32483 H 3030.79 4.78185 -3.41486 0
M  V30 32484 H 3032.32 5.44628 -2.76067 0
M  V30 32485 H 3033.73 3.78306 -4.30764 0
M  V30 32486 H 3032.13 3.35691 -4.97425 0
M  V30 32487 H 3033.2 2.07262 -4.38372 0
M  V30 32488 N 3034.54 1.35531 0.804316 0
M  V30 32489 C 3035.49 1.25178 1.90563 0
M  V30 32490 C 3036.47 0.14654 1.60231 0
M  V30 32491 O 3037.67 0.377973 1.72917 0
M  V30 32492 C 3034.79 1.02829 3.27538 0
M  V30 32493 C 3033.88 2.17755 3.63928 0
M  V30 32494 N 3034.27 3.42993 3.71738 0
M  V30 32495 C 3032.57 2.09191 3.93897 0
M  V30 32496 C 3033.27 4.18581 4.03936 0
M  V30 32497 N 3032.25 3.47362 4.18139 0
M  V30 32498 H 3036.05 2.20063 1.94806 0
M  V30 32499 H 3033.56 1.28036 0.999028 0
M  V30 32500 H 3035.56 0.935012 4.0628 0
M  V30 32501 H 3034.22 0.0883121 3.2458 0
M  V30 32502 H 3035.23 3.77316 3.54758 0
M  V30 32503 H 3031.91 1.23061 3.98951 0
M  V30 32504 H 3033.3 5.26819 4.17027 0
M  V30 32505 N 3036.02 -1.02674 1.19565 0
M  V30 32506 C 3037.25 -1.7947 1.02343 0
M  V30 32507 C 3037.66 -1.84229 -0.430859 0
M  V30 32508 O 3037 -1.28676 -1.31104 0
M  V30 32509 C 3037.06 -3.25829 1.51907 0
M  V30 32510 C 3036.72 -3.447 3.00051 0
M  V30 32511 C 3037.72 -3.34745 3.97796 0
M  V30 32512 C 3035.41 -3.70845 3.3879 0
M  V30 32513 C 3037.4 -3.50663 5.32273 0
M  V30 32514 C 3035.09 -3.86408 4.73426 0
M  V30 32515 C 3036.09 -3.7632 5.69976 0
M  V30 32516 O 3035.77 -3.9142 7.02172 0
M  V30 32517 H 3035.51 -0.571572 0.360946 0
M  V30 32518 H 3038.06 -1.30196 1.58866 0
M  V30 32519 H 3036.29 -3.76138 0.897612 0
M  V30 32520 H 3037.98 -3.84227 1.3086 0
M  V30 32521 H 3038.74 -3.14495 3.69212 0
M  V30 32522 H 3034.62 -3.7779 2.64189 0
M  V30 32523 H 3038.17 -3.42705 6.07618 0
M  V30 32524 H 3034.06 -4.06156 5.01705 0
M  V30 32525 H 3034.83 -4.08498 7.09275 0
M  V30 32526 N 3037.5 -0.999914 -1.21817 0
M  V30 32527 C 3038.72 -0.698128 -1.95297 0
M  V30 32528 C 3039.15 0.731952 -1.73275 0
M  V30 32529 O 3038.5 1.50132 -1.01637 0
M  V30 32530 C 3038.55 -1.0184 -3.4592 0
M  V30 32531 O 3037.66 -0.120874 -4.12223 0
M  V30 32532 H 3037 -0.260599 -0.610724 0
M  V30 32533 H 3039.53 -1.33879 -1.54718 0
M  V30 32534 H 3039.54 -0.963144 -3.96469 0
M  V30 32535 H 3038.21 -2.06044 -3.61274 0
M  V30 32536 H 3036.79 -0.232219 -3.72176 0
M  V30 32537 N 3038.97 1.37284 -0.773999 0
M  V30 32538 C 3040.22 1.99242 -0.338671 0
M  V30 32539 C 3040.54 1.61748 1.08916 0
M  V30 32540 O 3039.81 0.884001 1.74821 0
M  V30 32541 H 3038.39 0.736932 -0.122233 0
M  V30 32542 H 3041.05 1.67729 -0.992624 0
M  V30 32543 H 3040.15 3.09287 -0.418109 0
M  V30 32544 N 3040.45 0.524724 1.48608 0
M  V30 32545 C 3041.68 -0.00948494 2.07398 0
M  V30 32546 C 3042.1 -1.27882 1.37941 0
M  V30 32547 O 3041.46 -1.75788 0.443664 0
M  V30 32548 C 3041.51 -0.221893 3.59917 0
M  V30 32549 O 3040.61 -1.29169 3.91649 0
M  V30 32550 H 3039.95 0.0367845 0.66298 0
M  V30 32551 H 3042.48 0.731134 1.91091 0
M  V30 32552 H 3042.49 -0.446165 4.05553 0
M  V30 32553 H 3041.17 0.705378 4.09875 0
M  V30 32554 H 3039.74 -1.05049 3.57798 0
M  V30 32555 N 3041.93 -1.55447 0.259613 0
M  V30 32556 C 3043.18 -1.98423 -0.362128 0
M  V30 32557 C 3043.49 -1.15123 -1.58133 0
M  V30 32558 O 3044.7 -1.4817 -2.27504 0
M  V30 32559 C 3043.15 -3.53113 -0.69566 0
M  V30 32560 C 3042.76 -4.45169 0.502862 0
M  V30 32561 C 3044.51 -4.04714 -1.28089 0
M  V30 32562 C 3042.41 -5.91223 0.144778 0
M  V30 32563 H 3041.34 -0.741062 -0.139079 0
M  V30 32564 H 3043.99 -1.79897 0.36183 0
M  V30 32565 H 3042.38 -3.6738 -1.4781 0
M  V30 32566 H 3043.55 -4.42665 1.28001 0
M  V30 32567 H 3041.86 -4.04118 1.00388 0
M  V30 32568 H 3044.46 -5.11366 -1.56234 0
M  V30 32569 H 3044.8 -3.52819 -2.20962 0
M  V30 32570 H 3045.34 -3.93823 -0.561077 0
M  V30 32571 H 3042.08 -6.47181 1.04099 0
M  V30 32572 H 3041.6 -5.96832 -0.595918 0
M  V30 32573 H 3043.28 -6.46442 -0.268537 0
M  V30 32574 N 3043.41 0.0133338 -1.57594 0
M  V30 32575 C 3044.36 1.02733 -2.08683 0
M  V30 32576 C 3045.35 1.36446 -1.00394 0
M  V30 32577 O 3046.56 1.35166 -1.1887 0
M  V30 32578 H 3042.93 0.348898 -0.666164 0
M  V30 32579 H 3044.9 0.570764 -2.92891 0
M  V30 32580 C 3043.65 2.31471 -2.59454 0
M  V30 32581 H 3042.97 2.06395 -3.42405 0
M  V30 32582 H 3044.41 3.0073 -2.98894 0
M  V30 32583 C 3042.87 3.0153 -1.50271 0
M  V30 32584 O 3043.4 3.91989 -0.877944 0
M  V30 32585 N 3041.61 2.63126 -1.2334 0
M  V30 32586 H 3041.16 1.89649 -1.7433 0
M  V30 32587 H 3041.11 3.10317 -0.505042 0
M  V30 32588 N 3044.89 1.54985 0.285878 0
M  V30 32589 C 3045.85 1.8622 1.33621 0
M  V30 32590 C 3046.85 0.735961 1.42969 0
M  V30 32591 O 3048.04 1.0042 1.42343 0
M  V30 32592 C 3045.17 2.056 2.71922 0
M  V30 32593 H 3046.36 2.801 1.07162 0
M  V30 32594 H 3043.92 1.47279 0.523309 0
M  V30 32595 H 3044.65 1.14058 3.03581 0
M  V30 32596 H 3044.44 2.87588 2.66525 0
M  V30 32597 H 3045.93 2.31083 3.47837 0
M  V30 32598 N 3046.36 -0.549794 1.47699 0
M  V30 32599 C 3047.61 -1.30621 1.55916 0
M  V30 32600 C 3047.97 -1.91119 0.22163 0
M  V30 32601 O 3047.26 -1.75294 -0.773479 0
M  V30 32602 C 3047.45 -2.43185 2.61908 0
M  V30 32603 C 3047.28 -1.93718 4.05837 0
M  V30 32604 C 3046.05 -1.77223 4.73202 0
M  V30 32605 C 3048.25 -1.47729 4.92626 0
M  V30 32606 N 3046.23 -1.22172 6.0162 0
M  V30 32607 C 3047.6 -1.04495 6.11131 0
M  V30 32608 C 3049.66 -1.35849 4.79009 0
M  V30 32609 C 3048.36 -0.505596 7.17521 0
M  V30 32610 C 3050.39 -0.833151 5.85502 0
M  V30 32611 C 3049.75 -0.41077 7.03201 0
M  V30 32612 H 3045.85 -0.46973 0.625202 0
M  V30 32613 H 3048.43 -0.622336 1.84486 0
M  V30 32614 H 3046.6 -3.09094 2.35193 0
M  V30 32615 H 3048.33 -3.10196 2.59924 0
M  V30 32616 H 3045.09 -2.00159 4.29224 0
M  V30 32617 H 3045.51 -0.967146 6.70056 0
M  V30 32618 H 3050.16 -1.67115 3.88372 0
M  V30 32619 H 3047.87 -0.180579 8.07898 0
M  V30 32620 H 3051.46 -0.74468 5.77015 0
M  V30 32621 H 3050.34 -0.0105708 7.84199 0
M  V30 32622 N 3047.84 -1.35955 -0.797117 0
M  V30 32623 C 3049.07 -1.33055 -1.59094 0
M  V30 32624 C 3049.49 0.0874262 -1.87897 0
M  V30 32625 O 3048.85 1.0571 -1.47293 0
M  V30 32626 C 3048.9 -2.15205 -2.89342 0
M  V30 32627 O 3048 -1.53926 -3.82597 0
M  V30 32628 H 3047.34 -0.455759 -0.482887 0
M  V30 32629 H 3049.87 -1.79131 -0.988601 0
M  V30 32630 H 3049.88 -2.27505 -3.38682 0
M  V30 32631 H 3048.56 -3.18288 -2.67705 0
M  V30 32632 H 3047.14 -1.50522 -3.41171 0
M  V30 32633 N 3049.32 1.02038 -1.20108 0
M  V30 32634 C 3050.55 1.79185 -1.03443 0
M  V30 32635 C 3050.96 1.84148 0.41651 0
M  V30 32636 O 3050.32 1.29171 1.28923 0
M  V30 32637 C 3050.37 3.23833 -1.60669 0
M  V30 32638 O 3050.09 3.19188 -3.00085 0
M  V30 32639 C 3051.59 4.17543 -1.48905 0
M  V30 32640 H 3048.81 0.563623 -0.364102 0
M  V30 32641 H 3051.36 1.28467 -1.59112 0
M  V30 32642 H 3049.51 3.71712 -1.09129 0
M  V30 32643 H 3049.93 4.09952 -3.27169 0
M  V30 32644 H 3051.4 5.16894 -1.93712 0
M  V30 32645 H 3051.88 4.36981 -0.44092 0
M  V30 32646 H 3052.48 3.75544 -1.99617 0
M  V30 32647 N 3050.8 1.00636 1.21285 0
M  V30 32648 C 3051.75 0.567916 2.23704 0
M  V30 32649 C 3052.72 -0.406724 1.61043 0
M  V30 32650 O 3053.9 -0.308466 1.8829 0
M  V30 32651 C 3051.04 -0.0979354 3.44961 0
M  V30 32652 C 3050.15 0.920046 4.22089 0
M  V30 32653 C 3049.29 0.226315 5.30718 0
M  V30 32654 C 3048.33 1.23175 5.99578 0
M  V30 32655 N 3047.46 0.565401 6.9982 0
M  V30 32656 H 3052.3 1.44596 2.60568 0
M  V30 32657 H 3049.84 0.724029 1.28048 0
M  V30 32658 H 3051.8 -0.501024 4.14181 0
M  V30 32659 H 3050.43 -0.93969 3.0882 0
M  V30 32660 H 3049.48 1.44137 3.52035 0
M  V30 32661 H 3050.79 1.68513 4.69473 0
M  V30 32662 H 3049.95 -0.23281 6.06253 0
M  V30 32663 H 3048.69 -0.571161 4.84344 0
M  V30 32664 H 3047.69 1.70137 5.22813 0
M  V30 32665 H 3048.92 2.03033 6.48039 0
M  V30 32666 H 3046.86 -0.212393 6.55656 0
M  V30 32667 H 3046.78 1.26872 7.45278 0
M  V30 32668 H 3048.05 0.129526 7.79392 0
M  V30 32669 N 3052.28 -1.36872 0.781268 0
M  V30 32670 C 3053.19 -2.33946 0.175022 0
M  V30 32671 C 3054.2 -1.60646 -0.668484 0
M  V30 32672 O 3055.38 -1.92681 -0.586179 0
M  V30 32673 C 3052.44 -3.39835 -0.686497 0
M  V30 32674 C 3051.5 -4.28945 0.174564 0
M  V30 32675 C 3050.74 -5.29777 -0.645931 0
M  V30 32676 O 3050.96 -5.38442 -1.88244 0
M  V30 32677 O 3049.89 -6.01879 -0.0501156 0
M  V30 32678 H 3053.72 -2.87541 0.977432 0
M  V30 32679 H 3051.31 -1.39199 0.542584 0
M  V30 32680 H 3053.19 -4.04599 -1.17803 0
M  V30 32681 H 3051.86 -2.88553 -1.46693 0
M  V30 32682 H 3050.77 -3.67249 0.712669 0
M  V30 32683 H 3052.1 -4.83557 0.918317 0
M  V30 32684 N 3053.75 -0.532597 -1.48328 0
M  V30 32685 C 3055.17 -0.0928076 -1.86469 0
M  V30 32686 C 3055.52 1.33057 -1.44188 0
M  V30 32687 O 3054.64 1.99693 -0.833776 0
M  V30 32688 C 3055.24 -0.161648 -3.38414 0
M  V30 32689 C 3053.8 0.222962 -3.75739 0
M  V30 32690 C 3052.94 -0.520247 -2.72376 0
M  V30 32691 H 3055.89 -0.743703 -1.40195 0
M  V30 32692 H 3055.91 0.625994 -3.75315 0
M  V30 32693 H 3055.43 -1.19771 -3.69156 0
M  V30 32694 H 3053.53 1.26107 -3.50611 0
M  V30 32695 H 3053.64 -0.118469 -4.78954 0
M  V30 32696 H 3052 0.0337977 -2.54678 0
M  V30 32697 H 3052.79 -1.55699 -3.05962 0
M  V30 32698 N 3055.23 1.55307 -0.267853 0
M  V30 32699 C 3056.48 1.99435 0.351001 0
M  V30 32700 C 3056.81 1.15621 1.56404 0
M  V30 32701 O 3056.06 0.212079 1.94547 0
M  V30 32702 C 3056.36 3.48691 0.784185 0
M  V30 32703 C 3056.03 4.49739 -0.323407 0
M  V30 32704 C 3054.69 4.7709 -0.627551 0
M  V30 32705 C 3057.04 5.10096 -1.07011 0
M  V30 32706 C 3054.37 5.6207 -1.6821 0
M  V30 32707 C 3056.72 5.96221 -2.11433 0
M  V30 32708 C 3055.39 6.21896 -2.4249 0
M  V30 32709 H 3054.66 0.729784 0.12844 0
M  V30 32710 H 3057.3 1.87691 -0.380051 0
M  V30 32711 H 3055.61 3.57874 1.59479 0
M  V30 32712 H 3057.3 3.80236 1.27364 0
M  V30 32713 H 3053.89 4.28532 -0.0762282 0
M  V30 32714 H 3058.08 4.88995 -0.848388 0
M  V30 32715 H 3053.33 5.80211 -1.92782 0
M  V30 32716 H 3057.51 6.42026 -2.6977 0
M  V30 32717 H 3055.14 6.87537 -3.2434 0
M  V30 32718 N 3056.71 -0.00497598 1.57599 0
M  V30 32719 C 3057.94 -0.705629 1.95027 0
M  V30 32720 C 3058.36 -1.66788 0.869673 0
M  V30 32721 O 3057.72 -1.80476 -0.172628 0
M  V30 32722 C 3057.77 -1.41804 3.31548 0
M  V30 32723 O 3056.87 -2.53226 3.255 0
M  V30 32724 H 3056.21 -0.188063 0.636811 0
M  V30 32725 H 3058.74 0.046732 2.04547 0
M  V30 32726 H 3058.75 -1.78258 3.66999 0
M  V30 32727 H 3057.43 -0.712471 4.09752 0
M  V30 32728 H 3056 -2.19136 3.01718 0
M  V30 32729 N 3058.19 -1.55135 -0.277654 0
M  V30 32730 C 3059.43 -1.76706 -1.0073 0
M  V30 32731 C 3059.79 -0.558823 -1.84106 0
M  V30 32732 O 3059.08 0.448558 -1.86275 0
M  V30 32733 C 3059.28 -3.01069 -1.92594 0
M  V30 32734 C 3059.11 -4.33872 -1.18258 0
M  V30 32735 C 3057.88 -4.97217 -0.900167 0
M  V30 32736 C 3060.07 -5.11072 -0.575329 0
M  V30 32737 N 3058.06 -6.13763 -0.12953 0
M  V30 32738 C 3059.43 -6.1997 0.0613726 0
M  V30 32739 C 3061.48 -4.95555 -0.482707 0
M  V30 32740 C 3060.18 -7.15039 0.781763 0
M  V30 32741 C 3062.21 -5.90975 0.224081 0
M  V30 32742 C 3061.57 -6.99258 0.849539 0
M  V30 32743 H 3057.67 -0.698933 -0.350737 0
M  V30 32744 H 3060.26 -1.92626 -0.283448 0
M  V30 32745 H 3058.43 -2.86533 -2.62209 0
M  V30 32746 H 3060.16 -3.11064 -2.58884 0
M  V30 32747 H 3056.91 -4.58033 -1.20426 0
M  V30 32748 H 3057.34 -6.76564 0.242984 0
M  V30 32749 H 3061.98 -4.11944 -0.951951 0
M  V30 32750 H 3059.7 -7.98174 1.2627 0
M  V30 32751 H 3063.28 -5.81047 0.296002 0
M  V30 32752 H 3062.16 -7.71823 1.38774 0
M  V30 32753 N 3059.67 0.541953 -1.47989 0
M  V30 32754 C 3060.92 1.29482 -1.54652 0
M  V30 32755 C 3061.23 1.94358 -0.220075 0
M  V30 32756 O 3062.43 2.70999 -0.164839 0
M  V30 32757 C 3060.89 2.3488 -2.72689 0
M  V30 32758 C 3060.5 1.76127 -4.11926 0
M  V30 32759 C 3062.24 3.11252 -2.88657 0
M  V30 32760 C 3060.15 2.79395 -5.21241 0
M  V30 32761 H 3059.08 0.486918 -0.575697 0
M  V30 32762 H 3061.73 0.573823 -1.74297 0
M  V30 32763 H 3060.11 3.09962 -2.46454 0
M  V30 32764 H 3061.29 1.07314 -4.4813 0
M  V30 32765 H 3059.6 1.12288 -4.00974 0
M  V30 32766 H 3062.2 3.88397 -3.67494 0
M  V30 32767 H 3062.54 3.6638 -1.97665 0
M  V30 32768 H 3063.07 2.43283 -3.14735 0
M  V30 32769 H 3059.81 2.29102 -6.1416 0
M  V30 32770 H 3059.33 3.46571 -4.89539 0
M  V30 32771 H 3061.01 3.42605 -5.48845 0
M  V30 32772 N 3061.15 1.36376 0.789896 0
M  V30 32773 C 3062.09 1.30664 1.90252 0
M  V30 32774 C 3063.06 0.175419 1.65171 0
M  V30 32775 O 3064.25 0.361856 1.87337 0
M  V30 32776 C 3061.39 1.10131 3.27055 0
M  V30 32777 C 3060.5 2.32323 3.64211 0
M  V30 32778 C 3059.64 2.04806 4.9013 0
M  V30 32779 C 3058.67 3.22962 5.19963 0
M  V30 32780 N 3057.81 2.95113 6.37066 0
M  V30 32781 H 3062.65 2.258 1.9447 0
M  V30 32782 H 3060.19 1.12225 0.951002 0
M  V30 32783 H 3062.15 0.962525 4.05945 0
M  V30 32784 H 3060.78 0.1865 3.22261 0
M  V30 32785 H 3059.83 2.57007 2.80449 0
M  V30 32786 H 3061.14 3.20499 3.82207 0
M  V30 32787 H 3060.29 1.87855 5.76884 0
M  V30 32788 H 3059.03 1.13941 4.74203 0
M  V30 32789 H 3058.04 3.40473 4.31693 0
M  V30 32790 H 3059.26 4.14653 5.3781 0
M  V30 32791 H 3057.21 2.06859 6.22532 0
M  V30 32792 H 3057.13 3.76827 6.55391 0
M  V30 32793 H 3058.39 2.8174 7.26803 0
M  V30 32794 N 3062.62 -1.014 1.20647 0
M  V30 32795 C 3063.87 -1.75298 1.01973 0
M  V30 32796 C 3064.2 -1.88991 -0.44677 0
M  V30 32797 O 3063.48 -1.41764 -1.33166 0
M  V30 32798 C 3063.76 -3.17071 1.70699 0
M  V30 32799 C 3063.61 -3.11156 3.2481 0
M  V30 32800 C 3064.93 -4.15799 1.44219 0
M  V30 32801 H 3062.05 -0.636312 0.371856 0
M  V30 32802 H 3064.69 -1.18275 1.48698 0
M  V30 32803 H 3062.84 -3.65757 1.30974 0
M  V30 32804 H 3064.52 -2.70254 3.73846 0
M  V30 32805 H 3062.76 -2.48486 3.5558 0
M  V30 32806 H 3063.43 -4.11386 3.68056 0
M  V30 32807 H 3065.91 -3.75779 1.78687 0
M  V30 32808 H 3064.78 -5.13158 1.94834 0
M  V30 32809 H 3065.04 -4.40546 0.37033 0
M  V30 32810 N 3064.1 -1.01278 -1.2075 0
M  V30 32811 C 3065.38 -0.615145 -1.85675 0
M  V30 32812 C 3065.76 0.906942 -1.90625 0
M  V30 32813 O 3065.11 1.79709 -1.41127 0
M  V30 32814 C 3065.32 -1.25852 -3.25518 0
M  V30 32815 C 3066.66 -1.37155 -4.01838 0
M  V30 32816 O 3067.69 -1.21444 -3.34858 0
M  V30 32817 O 3066.55 -1.62504 -5.2178 0
M  V30 32818 H 3063.64 -0.211743 -0.799434 0
M  V30 32819 H 3066.19 -1.10992 -1.2837 0
M  V30 32820 H 3064.96 -2.29874 -3.1666 0
M  V30 32821 H 3064.58 -0.750593 -3.90451 0
M  V30 32822 N 3065.58 1.36456 -0.788516 0
M  V30 32823 C 3066.51 2.32638 -0.200509 0
M  V30 32824 C 3067.49 1.56605 0.664003 0
M  V30 32825 O 3068.68 1.84763 0.598012 0
M  V30 32826 C 3065.81 3.4085 0.666214 0
M  V30 32827 C 3064.76 4.27887 -0.0983326 0
M  V30 32828 C 3064.09 5.27259 0.888926 0
M  V30 32829 C 3065.39 5.06195 -1.28701 0
M  V30 32830 H 3067.08 2.82063 -1.00404 0
M  V30 32831 H 3064.63 1.35613 -0.484261 0
M  V30 32832 H 3066.58 4.07126 1.0875 0
M  V30 32833 H 3065.3 2.8999 1.50244 0
M  V30 32834 H 3063.96 3.63166 -0.500589 0
M  V30 32835 H 3063.61 4.72673 1.72016 0
M  V30 32836 H 3063.31 5.86358 0.381806 0
M  V30 32837 H 3064.83 5.96408 1.3088 0
M  V30 32838 H 3066.25 5.65516 -0.941528 0
M  V30 32839 H 3064.64 5.74702 -1.72736 0
M  V30 32840 H 3065.71 4.37889 -2.08281 0
M  V30 32841 N 3067.06 0.540456 1.48043 0
M  V30 32842 C 3067.99 -0.205138 2.32597 0
M  V30 32843 C 3068.97 -0.925015 1.4275 0
M  V30 32844 O 3070.15 -0.908754 1.71625 0
M  V30 32845 C 3067.28 -1.24606 3.24177 0
M  V30 32846 C 3066.24 -0.643686 4.23132 0
M  V30 32847 C 3065.56 -1.78803 5.03918 0
M  V30 32848 C 3066.86 0.391531 5.2083 0
M  V30 32849 H 3068.56 0.500727 2.95183 0
M  V30 32850 H 3066.1 0.24225 1.41948 0
M  V30 32851 H 3068.06 -1.7757 3.82161 0
M  V30 32852 H 3066.78 -1.98165 2.59612 0
M  V30 32853 H 3065.44 -0.135489 3.6635 0
M  V30 32854 H 3065.09 -2.51225 4.3577 0
M  V30 32855 H 3064.79 -1.39084 5.70902 0
M  V30 32856 H 3066.31 -2.32124 5.64757 0
M  V30 32857 H 3067.73 -0.0514056 5.73277 0
M  V30 32858 H 3066.12 0.706674 5.95925 0
M  V30 32859 H 3067.19 1.29354 4.67328 0
M  V30 32860 N 3068.54 -1.55163 0.276085 0
M  V30 32861 C 3069.5 -2.21264 -0.597886 0
M  V30 32862 C 3070.5 -1.1908 -1.08058 0
M  V30 32863 O 3071.69 -1.43979 -0.980601 0
M  V30 32864 C 3068.82 -2.87937 -1.82497 0
M  V30 32865 H 3070.01 -2.99893 -0.0207242 0
M  V30 32866 H 3067.57 -1.56277 0.0267097 0
M  V30 32867 H 3068.3 -2.13323 -2.44262 0
M  V30 32868 H 3068.09 -3.62819 -1.48677 0
M  V30 32869 H 3069.58 -3.38436 -2.44645 0
M  V30 32870 N 3070.01 -0.00338196 -1.576 0
M  V30 32871 C 3071.42 0.538977 -1.78751 0
M  V30 32872 C 3071.78 1.73761 -0.911127 0
M  V30 32873 O 3070.9 2.16097 -0.114514 0
M  V30 32874 C 3071.5 0.984554 -3.24179 0
M  V30 32875 C 3070.05 1.4722 -3.46415 0
M  V30 32876 C 3069.2 0.424956 -2.74024 0
M  V30 32877 H 3072.15 -0.229539 -1.57031 0
M  V30 32878 H 3072.17 1.85038 -3.32477 0
M  V30 32879 H 3071.69 0.111967 -3.87938 0
M  V30 32880 H 3069.79 2.36557 -2.87875 0
M  V30 32881 H 3069.9 1.49733 -4.55101 0
M  V30 32882 H 3068.26 0.887352 -2.38743 0
M  V30 32883 H 3069.05 -0.438722 -3.40485 0
M  V30 32884 N 3071.49 1.5528 0.269423 0
M  V30 32885 C 3072.42 1.83338 1.35877 0
M  V30 32886 C 3073.4 0.686685 1.47389 0
M  V30 32887 O 3074.59 0.930066 1.63957 0
M  V30 32888 C 3071.71 1.99817 2.7348 0
M  V30 32889 C 3070.76 3.22383 2.79233 0
M  V30 32890 S 3071.59 4.79646 2.38117 0
M  V30 32891 C 3072.75 4.99102 3.77688 0
M  V30 32892 H 3072.98 2.75448 1.11874 0
M  V30 32893 H 3070.51 1.47097 0.469242 0
M  V30 32894 H 3072.47 2.09995 3.52721 0
M  V30 32895 H 3071.13 1.08588 2.94733 0
M  V30 32896 H 3070.33 3.30811 3.80237 0
M  V30 32897 H 3069.93 3.10814 2.08016 0
M  V30 32898 H 3072.22 4.85063 4.72991 0
M  V30 32899 H 3073.16 6.01143 3.7421 0
M  V30 32900 H 3073.57 4.27064 3.69156 0
M  V30 32901 N 3072.97 -0.534097 1.48274 0
M  V30 32902 C 3074.22 -1.2866 1.55337 0
M  V30 32903 C 3074.53 -1.94239 0.230379 0
M  V30 32904 O 3075.74 -2.70908 0.179209 0
M  V30 32905 C 3074.19 -2.33431 2.73931 0
M  V30 32906 C 3073.8 -1.7394 4.12855 0
M  V30 32907 C 3075.55 -3.09717 2.90303 0
M  V30 32908 C 3073.45 -2.76626 5.22716 0
M  V30 32909 H 3072.38 -0.483858 0.578271 0
M  V30 32910 H 3075.03 -0.564571 1.74599 0
M  V30 32911 H 3073.42 -3.08651 2.48094 0
M  V30 32912 H 3074.59 -1.04936 4.48693 0
M  V30 32913 H 3072.9 -1.1016 4.01564 0
M  V30 32914 H 3075.5 -3.86443 3.69549 0
M  V30 32915 H 3075.84 -3.65327 1.99605 0
M  V30 32916 H 3076.38 -2.4161 3.16021 0
M  V30 32917 H 3073.12 -2.25841 6.15366 0
M  V30 32918 H 3072.64 -3.4397 4.9137 0
M  V30 32919 H 3074.32 -3.39689 5.50654 0
M  V30 32920 N 3074.45 -1.36793 -0.782652 0
M  V30 32921 C 3075.7 -1.30726 -1.53603 0
M  V30 32922 C 3076.01 0.109262 -1.95295 0
M  V30 32923 O 3077.22 0.29235 -2.69921 0
M  V30 32924 C 3075.67 -2.29398 -2.77317 0
M  V30 32925 C 3075.28 -3.76521 -2.42767 0
M  V30 32926 C 3077.02 -2.3232 -3.55285 0
M  V30 32927 C 3074.93 -4.66953 -3.62917 0
M  V30 32928 H 3073.86 -0.485804 -0.576637 0
M  V30 32929 H 3076.51 -1.62193 -0.858227 0
M  V30 32930 H 3074.89 -1.90933 -3.4693 0
M  V30 32931 H 3076.07 -4.23761 -1.81007 0
M  V30 32932 H 3074.38 -3.76439 -1.77996 0
M  V30 32933 H 3076.98 -2.97091 -4.44568 0
M  V30 32934 H 3077.32 -1.33367 -3.94359 0
M  V30 32935 H 3077.86 -2.69437 -2.92658 0
M  V30 32936 H 3074.59 -5.66995 -3.28934 0
M  V30 32937 H 3074.11 -4.24425 -4.2382 0
M  V30 32938 H 3075.79 -4.83555 -4.29864 0
M  V30 32939 N 3075.93 1.00759 -1.21184 0
M  V30 32940 C 3076.88 2.07889 -0.936283 0
M  V30 32941 C 3077.86 1.60541 0.107453 0
M  V30 32942 O 3079.05 1.76711 -0.101131 0
M  V30 32943 C 3076.18 3.39639 -0.500008 0
M  V30 32944 C 3075.27 3.93663 -1.57767 0
M  V30 32945 N 3075.66 4.21085 -2.80216 0
M  V30 32946 C 3073.96 4.21911 -1.44594 0
M  V30 32947 C 3074.66 4.64778 -3.49795 0
M  V30 32948 N 3073.63 4.67596 -2.77228 0
M  V30 32949 H 3077.44 2.27012 -1.86663 0
M  V30 32950 H 3074.95 1.18808 -1.10718 0
M  V30 32951 H 3076.95 4.15932 -0.28397 0
M  V30 32952 H 3075.61 3.21925 0.423602 0
M  V30 32953 H 3076.62 4.09718 -3.16783 0
M  V30 32954 H 3073.29 4.13347 -0.587419 0
M  V30 32955 H 3074.68 4.94739 -4.54623 0
M  V30 32956 N 3077.4 1.01917 1.20211 0
M  V30 32957 C 3078.65 0.708586 1.89271 0
M  V30 32958 C 3078.97 -0.764349 1.79395 0
M  V30 32959 O 3078.24 -1.54997 1.19803 0
M  V30 32960 H 3076.82 0.259106 0.700623 0
M  V30 32961 H 3079.49 1.29132 1.45983 0
M  V30 32962 H 3078.58 0.994267 2.95839 0
M  V30 32963 N 3078.88 -1.36036 0.795742 0
M  V30 32964 C 3080.13 -1.98322 0.36761 0
M  V30 32965 C 3080.44 -1.63856 -1.0682 0
M  V30 32966 O 3081.65 -2.19424 -1.59891 0
M  V30 32967 C 3080.11 -3.54756 0.606334 0
M  V30 32968 C 3079.71 -3.98141 2.05397 0
M  V30 32969 C 3081.46 -4.23804 0.243022 0
M  V30 32970 C 3079.37 -5.47377 2.23902 0
M  V30 32971 H 3078.3 -0.742049 0.133712 0
M  V30 32972 H 3080.95 -1.55249 0.978269 0
M  V30 32973 H 3079.33 -3.95931 -0.0741261 0
M  V30 32974 H 3080.5 -3.68148 2.77135 0
M  V30 32975 H 3078.82 -3.41949 2.37613 0
M  V30 32976 H 3081.41 -5.3349 0.359476 0
M  V30 32977 H 3081.76 -4.08352 -0.80959 0
M  V30 32978 H 3082.29 -3.88013 0.876967 0
M  V30 32979 H 3079.03 -5.67784 3.27569 0
M  V30 32980 H 3078.55 -5.78975 1.56676 0
M  V30 32981 H 3080.23 -6.1369 2.04924 0
M  V30 32982 N 3080.36 -0.5483 -1.47755 0
M  V30 32983 C 3081.31 0.204367 -2.29893 0
M  V30 32984 C 3082.28 0.916737 -1.3851 0
M  V30 32985 O 3083.46 0.91418 -1.67474 0
M  V30 32986 C 3080.6 1.23397 -3.22284 0
M  V30 32987 C 3079.72 0.528578 -4.28754 0
M  V30 32988 C 3078.85 1.5427 -5.08305 0
M  V30 32989 C 3077.89 0.821786 -6.06558 0
M  V30 32990 N 3077.03 1.78231 -6.79101 0
M  V30 32991 H 3081.87 -0.502215 -2.93738 0
M  V30 32992 H 3079.4 -0.259497 -1.44793 0
M  V30 32993 H 3081.36 1.84341 -3.74265 0
M  V30 32994 H 3079.99 1.9087 -2.60324 0
M  V30 32995 H 3079.04 -0.195198 -3.79899 0
M  V30 32996 H 3080.36 -0.0365943 -4.98787 0
M  V30 32997 H 3079.51 2.22592 -5.64391 0
M  V30 32998 H 3078.25 2.14178 -4.38154 0
M  V30 32999 H 3077.25 0.124593 -5.49659 0
M  V30 33000 H 3078.48 0.228565 -6.78715 0
M  V30 33001 H 3076.42 2.37014 -6.11687 0
M  V30 33002 H 3076.34 1.26906 -7.45272 0
M  V30 33003 H 3077.61 2.45696 -7.39766 0
M  V30 33004 N 3081.84 1.55014 -0.28431 0
M  V30 33005 C 3083.07 2.04204 0.332912 0
M  V30 33006 C 3083.48 1.16232 1.48781 0
M  V30 33007 O 3082.84 0.184355 1.81566 0
M  V30 33008 C 3082.89 3.5242 0.805145 0
M  V30 33009 O 3082.61 4.37046 -0.303766 0
M  V30 33010 C 3084.11 4.17536 1.48924 0
M  V30 33011 H 3081.33 0.666825 0.074733 0
M  V30 33012 H 3083.88 2.0016 -0.419083 0
M  V30 33013 H 3082.03 3.56878 1.5072 0
M  V30 33014 H 3082.44 5.24465 0.0608781 0
M  V30 33015 H 3083.92 5.22819 1.77099 0
M  V30 33016 H 3084.4 3.66262 2.42382 0
M  V30 33017 H 3085 4.17107 0.830794 0
M  V30 33018 N 3083.32 0.0117398 1.57596 0
M  V30 33019 C 3084.25 -1.00426 2.06027 0
M  V30 33020 C 3085.26 -1.29971 0.980371 0
M  V30 33021 O 3086.45 -1.26742 1.25693 0
M  V30 33022 C 3083.55 -2.33611 2.45518 0
M  V30 33023 C 3082.72 -2.22835 3.76382 0
M  V30 33024 C 3081.78 -3.38807 4.02612 0
M  V30 33025 O 3080.81 -3.16468 4.73114 0
M  V30 33026 N 3082.01 -4.6204 3.51424 0
M  V30 33027 H 3084.78 -0.591155 2.93812 0
M  V30 33028 H 3082.34 -0.175399 1.60947 0
M  V30 33029 H 3084.33 -3.09989 2.60171 0
M  V30 33030 H 3082.9 -2.66622 1.63191 0
M  V30 33031 H 3082.12 -1.31294 3.71693 0
M  V30 33032 H 3083.41 -2.12821 4.62152 0
M  V30 33033 H 3082.8 -4.83086 2.94355 0
M  V30 33034 H 3081.36 -5.35645 3.71387 0
M  V30 33035 N 3084.79 -1.55421 -0.261185 0
M  V30 33036 C 3086.04 -1.76234 -0.989241 0
M  V30 33037 C 3086.36 -0.5731 -1.86388 0
M  V30 33038 O 3085.63 0.411626 -1.91527 0
M  V30 33039 H 3084.21 -0.649927 -0.368245 0
M  V30 33040 H 3086.88 -1.92841 -0.282569 0
M  V30 33041 H 3085.97 -2.66805 -1.6193 0
M  V30 33042 N 3086.27 0.526227 -1.48555 0
M  V30 33043 C 3087.24 1.61263 -1.62871 0
M  V30 33044 C 3088.24 1.5277 -0.501789 0
M  V30 33045 O 3089.43 1.56373 -0.767668 0
M  V30 33046 C 3086.56 3.0089 -1.60243 0
M  V30 33047 H 3087.75 1.49908 -2.59745 0
M  V30 33048 H 3085.3 0.748571 -1.37208 0
M  V30 33049 H 3086.04 3.17748 -0.648601 0
M  V30 33050 H 3085.82 3.08463 -2.42059 0
M  V30 33051 H 3087.31 3.79869 -1.73462 0
M  V30 33052 N 3087.75 1.37206 0.775387 0
M  V30 33053 C 3089.17 1.17926 1.07543 0
M  V30 33054 C 3089.37 0.0129251 2.01496 0
M  V30 33055 O 3088.42 -0.648117 2.4404 0
M  V30 33056 C 3089.74 2.49632 1.67643 0
M  V30 33057 C 3091.28 2.56122 1.79918 0
M  V30 33058 C 3091.76 3.8795 2.43431 0
M  V30 33059 N 3093.25 3.89372 2.50886 0
M  V30 33060 C 3093.98 4.88122 3.00872 0
M  V30 33061 N 3093.48 5.97268 3.51059 0
M  V30 33062 N 3095.27 4.7553 2.99713 0
M  V30 33063 H 3087.42 2.11859 0.151486 0
M  V30 33064 H 3089.69 0.939068 0.129829 0
M  V30 33065 H 3089.39 3.35322 1.06077 0
M  V30 33066 H 3089.27 2.66458 2.66983 0
M  V30 33067 H 3091.65 1.70842 2.40618 0
M  V30 33068 H 3091.74 2.43183 0.793439 0
M  V30 33069 H 3091.38 4.73643 1.83372 0
M  V30 33070 H 3091.31 3.9819 3.44604 0
M  V30 33071 H 3093.8 3.10526 2.15364 0
M  V30 33072 H 3094.11 6.68574 3.87593 0
M  V30 33073 H 3092.46 6.00918 3.49174 0
M  V30 33074 H 3095.65 3.89384 2.59803 0
M  V30 33075 H 3095.82 5.52645 3.3836 0
M  V30 33076 N 3089.23 -1.00115 1.21716 0
M  V30 33077 C 3090.16 -2.09142 0.937664 0
M  V30 33078 C 3091.17 -1.626 -0.0806005 0
M  V30 33079 O 3092.36 -1.77848 0.15238 0
M  V30 33080 C 3089.46 -3.36682 0.387095 0
M  V30 33081 C 3088.64 -4.12292 1.46061 0
M  V30 33082 C 3087.69 -5.1812 0.918597 0
M  V30 33083 O 3086.72 -5.46164 1.60292 0
M  V30 33084 N 3087.92 -5.79898 -0.264206 0
M  V30 33085 H 3090.69 -2.33702 1.87626 0
M  V30 33086 H 3088.25 -1.16627 1.12293 0
M  V30 33087 H 3090.24 -4.04699 0.00999939 0
M  V30 33088 H 3088.81 -3.0925 -0.456413 0
M  V30 33089 H 3088.03 -3.39023 2.01139 0
M  V30 33090 H 3089.32 -4.59583 2.18314 0
M  V30 33091 H 3088.72 -5.59472 -0.837144 0
M  V30 33092 H 3087.27 -6.4919 -0.582772 0
M  V30 33093 N 3090.71 -1.02553 -1.19669 0
M  V30 33094 C 3091.65 -0.603433 -2.22772 0
M  V30 33095 C 3092.62 0.381052 -1.6167 0
M  V30 33096 O 3093.81 0.278472 -1.88757 0
M  V30 33097 C 3090.95 0.0430427 -3.45073 0
M  V30 33098 C 3090.06 -0.98708 -4.20572 0
M  V30 33099 C 3089.2 -0.310719 -5.3029 0
M  V30 33100 C 3088.24 -1.32698 -5.97543 0
M  V30 33101 N 3087.37 -0.676665 -6.98832 0
M  V30 33102 H 3092.21 -1.48723 -2.58235 0
M  V30 33103 H 3089.75 -0.744308 -1.2688 0
M  V30 33104 H 3091.71 0.435068 -4.14925 0
M  V30 33105 H 3090.34 0.890441 -3.10276 0
M  V30 33106 H 3089.39 -1.49719 -3.49697 0
M  V30 33107 H 3090.7 -1.7596 -4.66733 0
M  V30 33108 H 3089.86 0.136331 -6.06547 0
M  V30 33109 H 3088.6 0.494034 -4.85191 0
M  V30 33110 H 3087.6 -1.78433 -5.2004 0
M  V30 33111 H 3088.83 -2.13317 -6.44727 0
M  V30 33112 H 3086.77 0.108057 -6.55911 0
M  V30 33113 H 3086.69 -1.38712 -7.43165 0
M  V30 33114 H 3087.96 -0.253504 -7.79088 0
M  V30 33115 N 3092.19 1.35612 -0.802945 0
M  V30 33116 C 3093.43 1.98872 -0.381611 0
M  V30 33117 C 3093.76 1.63706 1.05027 0
M  V30 33118 O 3093.02 0.890448 1.74268 0
M  V30 33119 C 3093.31 3.53773 -0.507868 0
M  V30 33120 C 3092.98 4.08797 -1.90253 0
M  V30 33121 C 3091.64 4.23536 -2.28409 0
M  V30 33122 C 3093.99 4.38635 -2.81512 0
M  V30 33123 C 3091.32 4.6543 -3.572 0
M  V30 33124 C 3093.67 4.81966 -4.09745 0
M  V30 33125 C 3092.34 4.94911 -4.47906 0
M  V30 33126 H 3091.61 0.727723 -0.139641 0
M  V30 33127 H 3094.26 1.61884 -1.02303 0
M  V30 33128 H 3092.56 3.91199 0.217011 0
M  V30 33129 H 3094.26 4.0067 -0.162695 0
M  V30 33130 H 3090.85 3.97773 -1.59607 0
M  V30 33131 H 3095.03 4.26804 -2.53283 0
M  V30 33132 H 3090.29 4.73641 -3.86619 0
M  V30 33133 H 3094.46 5.04015 -4.80564 0
M  V30 33134 H 3092.09 5.27131 -5.47756 0
M  V30 33135 N 3093.66 0.556128 1.47462 0
M  V30 33136 C 3094.89 0.0345093 2.07371 0
M  V30 33137 C 3095.31 -1.24927 1.40623 0
M  V30 33138 O 3094.67 -1.74807 0.480851 0
M  V30 33139 C 3094.72 -0.145499 3.60306 0
M  V30 33140 O 3093.82 -1.20832 3.94301 0
M  V30 33141 H 3093.16 0.050839 0.662051 0
M  V30 33142 H 3095.69 0.771502 1.89497 0
M  V30 33143 H 3095.7 -0.360041 4.06408 0
M  V30 33144 H 3094.38 0.79216 4.08286 0
M  V30 33145 H 3092.96 -0.974357 3.59945 0
M  V30 33146 N 3095.14 -1.54861 0.292527 0
M  V30 33147 C 3096.37 -2.04839 -0.324904 0
M  V30 33148 C 3096.79 -1.1688 -1.47379 0
M  V30 33149 O 3096.15 -0.17106 -1.80491 0
M  V30 33150 C 3096.2 -3.52351 -0.766878 0
M  V30 33151 O 3095.3 -3.67439 -1.8725 0
M  V30 33152 H 3094.64 -0.660859 -0.0645079 0
M  V30 33153 H 3097.17 -1.99989 0.431902 0
M  V30 33154 H 3097.18 -3.94044 -1.05797 0
M  V30 33155 H 3095.86 -4.15835 0.0735943 0
M  V30 33156 H 3094.43 -3.37651 -1.5826 0
M  V30 33157 N 3096.62 -0.0200973 -1.57587 0
M  V30 33158 C 3097.55 0.963296 -2.12704 0
M  V30 33159 C 3098.53 1.34529 -1.04096 0
M  V30 33160 O 3099.72 1.4255 -1.31883 0
M  V30 33161 C 3096.85 2.24863 -2.64677 0
M  V30 33162 C 3095.8 2.00766 -3.77991 0
M  V30 33163 C 3095.13 3.35487 -4.16357 0
M  V30 33164 C 3096.43 1.35407 -5.04442 0
M  V30 33165 H 3098.12 0.504311 -2.95122 0
M  V30 33166 H 3095.67 0.241135 -1.41967 0
M  V30 33167 H 3097.62 2.94031 -3.01867 0
M  V30 33168 H 3096.34 2.72911 -1.79408 0
M  V30 33169 H 3095 1.34019 -3.41225 0
M  V30 33170 H 3094.65 3.81276 -3.28082 0
M  V30 33171 H 3094.35 3.20172 -4.9271 0
M  V30 33172 H 3095.87 4.05937 -4.56123 0
M  V30 33173 H 3097.29 1.94561 -5.39276 0
M  V30 33174 H 3095.68 1.30519 -5.85734 0
M  V30 33175 H 3096.75 0.325838 -4.83804 0
M  V30 33176 N 3098.1 1.55557 0.252939 0
M  V30 33177 C 3099.33 1.80892 0.998083 0
M  V30 33178 C 3099.74 0.592654 1.79678 0
M  V30 33179 O 3099.08 -0.448061 1.78152 0
M  V30 33180 C 3099.14 2.99483 1.98873 0
M  V30 33181 C 3098.8 4.35744 1.37753 0
M  V30 33182 C 3099.8 5.13969 0.783052 0
M  V30 33183 C 3097.49 4.82433 1.39871 0
M  V30 33184 C 3099.48 6.37027 0.217892 0
M  V30 33185 C 3097.17 6.05441 0.829694 0
M  V30 33186 C 3098.17 6.82577 0.240306 0
M  V30 33187 O 3097.85 8.03263 -0.319938 0
M  V30 33188 H 3097.59 0.605974 0.299619 0
M  V30 33189 H 3100.14 2.03442 0.282942 0
M  V30 33190 H 3098.37 2.72673 2.74201 0
M  V30 33191 H 3100.06 3.11963 2.5968 0
M  V30 33192 H 3100.82 4.7902 0.759242 0
M  V30 33193 H 3096.7 4.22389 1.84685 0
M  V30 33194 H 3100.25 6.97177 -0.242777 0
M  V30 33195 H 3096.14 6.39868 0.850811 0
M  V30 33196 H 3096.91 8.18227 -0.211221 0
M  V30 33197 N 3099.58 -0.518341 1.48832 0
M  V30 33198 C 3100.82 -1.27005 1.56692 0
M  V30 33199 C 3101.14 -1.93983 0.250968 0
M  V30 33200 O 3102.34 -2.70703 0.207932 0
M  V30 33201 C 3100.8 -2.30512 2.76391 0
M  V30 33202 C 3100.41 -1.69551 4.14676 0
M  V30 33203 C 3102.15 -3.0662 2.93572 0
M  V30 33204 C 3100.06 -2.71067 5.2562 0
M  V30 33205 H 3098.99 -0.477698 0.58337 0
M  V30 33206 H 3101.64 -0.546021 1.75188 0
M  V30 33207 H 3100.02 -3.06002 2.51354 0
M  V30 33208 H 3101.2 -1.00171 4.4978 0
M  V30 33209 H 3099.51 -1.05895 4.0271 0
M  V30 33210 H 3102.11 -3.82501 3.73627 0
M  V30 33211 H 3102.45 -3.63189 2.03468 0
M  V30 33212 H 3102.98 -2.38245 3.18566 0
M  V30 33213 H 3099.72 -2.19302 6.17727 0
M  V30 33214 H 3099.24 -3.38739 4.94991 0
M  V30 33215 H 3100.92 -3.3383 5.54226 0
M  V30 33216 N 3101.05 -1.37615 -0.7681 0
M  V30 33217 C 3102.28 -1.364 -1.56236 0
M  V30 33218 C 3102.7 0.0475508 -1.8804 0
M  V30 33219 O 3102.06 1.02561 -1.49502 0
M  V30 33220 C 3102.11 -2.21294 -2.84712 0
M  V30 33221 O 3101.21 -1.62007 -3.79246 0
M  V30 33222 H 3100.55 -0.465899 -0.473111 0
M  V30 33223 H 3103.08 -1.81187 -0.950383 0
M  V30 33224 H 3103.09 -2.34638 -3.3378 0
M  V30 33225 H 3101.77 -3.23894 -2.60893 0
M  V30 33226 H 3100.35 -1.57725 -3.37901 0
M  V30 33227 N 3102.53 0.994677 -1.22245 0
M  V30 33228 C 3103.46 2.08642 -0.948742 0
M  V30 33229 C 3104.48 1.62641 0.0719763 0
M  V30 33230 O 3105.67 1.77765 -0.161809 0
M  V30 33231 C 3102.77 3.36472 -0.404945 0
M  V30 33232 C 3101.94 4.11512 -1.48246 0
M  V30 33233 C 3101 5.17625 -0.946061 0
M  V30 33234 O 3100.02 5.45306 -1.63186 0
M  V30 33235 N 3101.23 5.8003 0.233448 0
M  V30 33236 H 3103.99 2.32704 -1.88862 0
M  V30 33237 H 3101.55 1.1603 -1.1291 0
M  V30 33238 H 3103.54 4.04688 -0.0314614 0
M  V30 33239 H 3102.11 3.09488 0.440006 0
M  V30 33240 H 3101.33 3.37952 -2.02934 0
M  V30 33241 H 3102.62 4.58418 -2.20749 0
M  V30 33242 H 3102.02 5.59908 0.807462 0
M  V30 33243 H 3100.58 6.49489 0.548336 0
M  V30 33244 N 3104.01 1.03186 1.19123 0
M  V30 33245 C 3105.26 0.730063 1.88882 0
M  V30 33246 C 3105.58 -0.74157 1.79808 0
M  V30 33247 O 3104.84 -1.55601 1.18688 0
M  V30 33248 C 3105.14 1.13047 3.3905 0
M  V30 33249 C 3104.8 2.60088 3.68327 0
M  V30 33250 C 3103.47 3.00261 3.76028 0
M  V30 33251 C 3105.82 3.55205 3.81416 0
M  V30 33252 C 3103.15 4.34458 3.94288 0
M  V30 33253 C 3105.5 4.8911 4.01191 0
M  V30 33254 C 3104.16 5.28966 4.07125 0
M  V30 33255 H 3103.43 0.267149 0.691167 0
M  V30 33256 H 3106.08 1.29526 1.41051 0
M  V30 33257 H 3104.38 0.483929 3.888 0
M  V30 33258 H 3106.08 0.874437 3.9135 0
M  V30 33259 H 3102.67 2.27968 3.62944 0
M  V30 33260 H 3106.86 3.25319 3.74808 0
M  V30 33261 H 3102.11 4.64869 3.97123 0
M  V30 33262 H 3106.29 5.62724 4.10261 0
M  V30 33263 H 3103.91 6.32961 4.21027 0
M  V30 33264 N 3105.49 -1.35184 0.810125 0
M  V30 33265 C 3106.74 -1.97921 0.388624 0
M  V30 33266 C 3107.05 -1.6498 -1.05076 0
M  V30 33267 O 3108.26 -2.21108 -1.57555 0
M  V30 33268 C 3106.71 -3.54093 0.643926 0
M  V30 33269 C 3106.32 -3.9594 2.09609 0
M  V30 33270 C 3108.06 -4.23522 0.287958 0
M  V30 33271 C 3105.97 -5.44972 2.29695 0
M  V30 33272 H 3104.9 -0.740589 0.141575 0
M  V30 33273 H 3107.55 -1.54202 0.99468 0
M  V30 33274 H 3105.93 -3.95987 -0.0321282 0
M  V30 33275 H 3107.11 -3.65187 2.81025 0
M  V30 33276 H 3105.42 -3.3941 2.41226 0
M  V30 33277 H 3108.02 -5.33079 0.416039 0
M  V30 33278 H 3108.36 -4.09188 -0.766233 0
M  V30 33279 H 3108.9 -3.87061 0.918072 0
M  V30 33280 H 3105.64 -5.64278 3.33573 0
M  V30 33281 H 3105.16 -5.77281 1.62808 0
M  V30 33282 H 3106.83 -6.11482 2.11422 0
M  V30 33283 N 3106.97 -0.56394 -1.47165 0
M  V30 33284 C 3108.22 -0.0402225 -2.0166 0
M  V30 33285 C 3108.53 1.32043 -1.44305 0
M  V30 33286 O 3109.73 1.93444 -1.90504 0
M  V30 33287 C 3108.19 -0.021389 -3.59894 0
M  V30 33288 C 3107.8 -1.37921 -4.26241 0
M  V30 33289 C 3109.54 0.449368 -4.22115 0
M  V30 33290 C 3107.45 -1.31912 -5.76501 0
M  V30 33291 H 3106.38 -0.0112667 -0.753916 0
M  V30 33292 H 3109.03 -0.712796 -1.6909 0
M  V30 33293 H 3107.41 0.716969 -3.89455 0
M  V30 33294 H 3108.59 -2.13582 -4.08313 0
M  V30 33295 H 3106.9 -1.78845 -3.76036 0
M  V30 33296 H 3109.5 0.512827 -5.32235 0
M  V30 33297 H 3109.84 1.46284 -3.89752 0
M  V30 33298 H 3110.37 -0.23434 -3.97109 0
M  V30 33299 H 3107.11 -2.30881 -6.13494 0
M  V30 33300 H 3106.63 -0.604429 -5.96747 0
M  V30 33301 H 3108.31 -1.02404 -6.38845 0
M  V30 33302 N 3108.44 1.54704 -0.300735 0
M  V30 33303 C 3109.38 2.19687 0.617475 0
M  V30 33304 C 3110.36 1.16619 1.13308 0
M  V30 33305 O 3111.54 1.4526 1.20133 0
M  V30 33306 C 3108.67 2.8405 1.84481 0
M  V30 33307 C 3107.71 4.00642 1.46246 0
M  V30 33308 S 3108.55 5.32983 0.518624 0
M  V30 33309 C 3109.7 6.00828 1.75376 0
M  V30 33310 H 3109.93 2.97228 0.0654025 0
M  V30 33311 H 3107.47 1.54167 -0.0848763 0
M  V30 33312 H 3109.43 3.21759 2.54915 0
M  V30 33313 H 3108.09 2.06355 2.36805 0
M  V30 33314 H 3107.28 4.44458 2.3764 0
M  V30 33315 H 3106.88 3.64489 0.838065 0
M  V30 33316 H 3109.17 6.21619 2.69437 0
M  V30 33317 H 3110.12 6.94953 1.35817 0
M  V30 33318 H 3110.52 5.30469 1.93036 0
M  V30 33319 N 3109.92 0.0284543 1.57574 0
M  V30 33320 C 3111.15 -0.659583 1.95788 0
M  V30 33321 C 3111.56 -1.66233 0.903505 0
M  V30 33322 O 3110.9 -1.83286 -0.123258 0
M  V30 33323 C 3110.97 -1.42292 3.30141 0
M  V30 33324 C 3110.63 -0.578578 4.53323 0
M  V30 33325 C 3111.63 0.145843 5.19695 0
M  V30 33326 C 3109.31 -0.516176 4.99641 0
M  V30 33327 C 3111.31 0.921346 6.30706 0
M  V30 33328 C 3108.99 0.263032 6.10534 0
M  V30 33329 C 3109.99 0.980501 6.75925 0
M  V30 33330 O 3109.68 1.74694 7.84689 0
M  V30 33331 H 3109.41 -0.18678 0.649684 0
M  V30 33332 H 3111.96 0.0843048 2.05227 0
M  V30 33333 H 3110.19 -2.21193 3.17192 0
M  V30 33334 H 3111.88 -1.999 3.53263 0
M  V30 33335 H 3112.65 0.106962 4.84882 0
M  V30 33336 H 3108.53 -1.06419 4.48549 0
M  V30 33337 H 3112.07 1.48188 6.81679 0
M  V30 33338 H 3107.97 0.303633 6.44785 0
M  V30 33339 H 3108.74 1.66664 8.01352 0
M  V30 33340 N 3111.4 -1.55689 -0.244686 0
M  V30 33341 C 3112.63 -1.82022 -0.994125 0
M  V30 33342 C 3113.05 -0.605802 -1.78078 0
M  V30 33343 O 3112.41 0.44519 -1.75749 0
M  V30 33344 C 3112.46 -3.06115 -1.90594 0
M  V30 33345 O 3111.56 -2.83186 -2.99799 0
M  V30 33346 H 3110.9 -0.600787 -0.282756 0
M  V30 33347 H 3113.43 -2.02877 -0.265004 0
M  V30 33348 H 3113.44 -3.35607 -2.32017 0
M  V30 33349 H 3112.12 -3.94143 -1.32756 0
M  V30 33350 H 3110.69 -2.64867 -2.62488 0
M  V30 33351 N 3112.88 0.510441 -1.49105 0
M  V30 33352 C 3113.81 1.62184 -1.67984 0
M  V30 33353 C 3114.79 1.6168 -0.528558 0
M  V30 33354 O 3115.97 1.78569 -0.763336 0
M  V30 33355 C 3113.1 3.00707 -1.7376 0
M  V30 33356 C 3112.06 3.16075 -2.88584 0
M  V30 33357 C 3111.38 4.55855 -2.79465 0
M  V30 33358 C 3112.68 2.96992 -4.29643 0
M  V30 33359 H 3114.38 1.46639 -2.61032 0
M  V30 33360 H 3111.92 0.70402 -1.25617 0
M  V30 33361 H 3113.88 3.78348 -1.85554 0
M  V30 33362 H 3112.6 3.17319 -0.773052 0
M  V30 33363 H 3111.26 2.40856 -2.76376 0
M  V30 33364 H 3110.91 4.6933 -1.80938 0
M  V30 33365 H 3110.61 4.67079 -3.56526 0
M  V30 33366 H 3112.13 5.35569 -2.93254 0
M  V30 33367 H 3113.55 3.6441 -4.42581 0
M  V30 33368 H 3111.94 3.19696 -5.07853 0
M  V30 33369 H 3113.01 1.93211 -4.44744 0
M  V30 33370 N 3114.36 1.38021 0.760791 0
M  V30 33371 C 3115.63 1.24359 1.50978 0
M  V30 33372 C 3116.01 -0.158132 2.10507 0
M  V30 33373 O 3115.36 -1.16691 1.96457 0
M  V30 33374 C 3115.57 2.34816 2.58191 0
M  V30 33375 C 3116.92 2.72892 3.25293 0
M  V30 33376 O 3117.94 2.34074 2.68492 0
M  V30 33377 O 3116.8 3.39806 4.28012 0
M  V30 33378 H 3113.9 0.485899 0.669202 0
M  V30 33379 H 3116.44 1.4983 0.796818 0
M  V30 33380 H 3115.21 3.28636 2.124 0
M  V30 33381 H 3114.84 2.1087 3.37075 0
M  V30 33382 N 3115.83 -0.98818 1.22771 0
M  V30 33383 C 3117.08 -1.72498 1.05304 0
M  V30 33384 C 3117.4 -1.90596 -0.412069 0
M  V30 33385 O 3116.67 -1.46901 -1.29603 0
M  V30 33386 H 3115.25 -0.639137 0.386669 0
M  V30 33387 H 3117.92 -1.18991 1.54361 0
M  V30 33388 H 3117.01 -2.7176 1.53469 0
M  V30 33389 N 3117.31 -1.03816 -1.18575 0
M  V30 33390 C 3118.26 -0.627027 -2.22119 0
M  V30 33391 C 3119.23 0.363884 -1.62065 0
M  V30 33392 O 3120.41 0.258436 -1.89042 0
M  V30 33393 C 3117.55 0.00644067 -3.45099 0
M  V30 33394 C 3116.67 -1.03163 -4.19501 0
M  V30 33395 C 3115.8 -0.366946 -5.29931 0
M  V30 33396 C 3114.84 -1.39029 -5.96102 0
M  V30 33397 N 3113.98 -0.750748 -6.98075 0
M  V30 33398 H 3118.82 -1.51454 -2.56643 0
M  V30 33399 H 3116.36 -0.757724 -1.26083 0
M  V30 33400 H 3118.31 0.391035 -4.15363 0
M  V30 33401 H 3116.94 0.857482 -3.11203 0
M  V30 33402 H 3116 -1.5342 -3.4809 0
M  V30 33403 H 3117.31 -1.80901 -4.6484 0
M  V30 33404 H 3116.46 0.0719913 -6.06657 0
M  V30 33405 H 3115.2 0.442545 -4.85688 0
M  V30 33406 H 3114.21 -1.83939 -5.18118 0
M  V30 33407 H 3115.43 -2.20144 -6.42428 0
M  V30 33408 H 3113.38 0.0384828 -6.55989 0
M  V30 33409 H 3113.29 -1.46587 -7.41652 0
M  V30 33410 H 3114.56 -0.336123 -7.78775 0
M  V30 33411 N 3118.79 1.34753 -0.817283 0
M  V30 33412 C 3119.74 2.29619 -0.233148 0
M  V30 33413 C 3120.71 1.53322 0.638875 0
M  V30 33414 O 3121.89 1.81716 0.581707 0
M  V30 33415 C 3119.03 3.3978 0.6036 0
M  V30 33416 C 3118.15 4.31025 -0.290042 0
M  V30 33417 C 3117.28 5.28285 0.555732 0
M  V30 33418 C 3116.32 6.11168 -0.337647 0
M  V30 33419 N 3115.46 7.00534 0.468724 0
M  V30 33420 H 3120.3 2.78982 -1.04752 0
M  V30 33421 H 3117.83 1.37294 -0.52808 0
M  V30 33422 H 3119.79 4.02328 1.104 0
M  V30 33423 H 3118.42 2.91666 1.38313 0
M  V30 33424 H 3117.47 3.69389 -0.908617 0
M  V30 33425 H 3118.79 4.89134 -0.977222 0
M  V30 33426 H 3117.94 5.96257 1.12083 0
M  V30 33427 H 3116.68 4.707 1.27644 0
M  V30 33428 H 3115.68 5.42134 -0.914934 0
M  V30 33429 H 3116.91 6.70833 -1.05638 0
M  V30 33430 H 3114.85 6.45424 1.17321 0
M  V30 33431 H 3114.77 7.5583 -0.160184 0
M  V30 33432 H 3116.04 7.7284 1.01676 0
M  V30 33433 N 3120.27 0.571737 1.46864 0
M  V30 33434 C 3121.52 0.0615117 2.03307 0
M  V30 33435 C 3121.87 -1.27983 1.43659 0
M  V30 33436 O 3121.16 -1.82347 0.588218 0
M  V30 33437 C 3121.36 -0.0741683 3.57323 0
M  V30 33438 C 3121.19 1.25248 4.31906 0
M  V30 33439 C 3119.96 1.82369 4.71243 0
M  V30 33440 C 3122.15 2.17312 4.66133 0
M  V30 33441 N 3120.14 3.08887 5.3053 0
M  V30 33442 C 3121.51 3.28414 5.25875 0
M  V30 33443 C 3123.56 2.17128 4.48062 0
M  V30 33444 C 3122.27 4.39449 5.69454 0
M  V30 33445 C 3124.29 3.27185 4.9265 0
M  V30 33446 C 3123.65 4.37006 5.52453 0
M  V30 33447 H 3119.75 0.0650235 0.779292 0
M  V30 33448 H 3122.34 0.762224 1.7916 0
M  V30 33449 H 3120.51 -0.744028 3.81207 0
M  V30 33450 H 3122.24 -0.587779 4.00409 0
M  V30 33451 H 3118.99 1.35992 4.53655 0
M  V30 33452 H 3119.42 3.73413 5.64705 0
M  V30 33453 H 3124.06 1.33499 4.01171 0
M  V30 33454 H 3121.78 5.23828 6.15329 0
M  V30 33455 H 3125.36 3.28147 4.80428 0
M  V30 33456 H 3124.24 5.20762 5.86325 0
M  V30 33457 N 3121.75 -1.54542 0.308935 0
M  V30 33458 C 3122.68 -2.21277 -0.597414 0
M  V30 33459 C 3123.69 -1.20803 -1.09135 0
M  V30 33460 O 3124.88 -1.47353 -1.00744 0
M  V30 33461 C 3121.98 -2.85193 -1.8308 0
M  V30 33462 C 3121.15 -4.11671 -1.47803 0
M  V30 33463 C 3120.21 -4.59316 -2.5674 0
M  V30 33464 O 3119.24 -5.24335 -2.21498 0
M  V30 33465 N 3120.44 -4.32304 -3.87419 0
M  V30 33466 H 3123.21 -2.99689 -0.0260656 0
M  V30 33467 H 3120.77 -1.61365 0.131484 0
M  V30 33468 H 3122.76 -3.13996 -2.5532 0
M  V30 33469 H 3121.33 -2.10574 -2.31035 0
M  V30 33470 H 3120.55 -3.89791 -0.587905 0
M  V30 33471 H 3121.84 -4.94011 -1.21782 0
M  V30 33472 H 3121.24 -3.80231 -4.18856 0
M  V30 33473 H 3119.79 -4.65798 -4.55934 0
M  V30 33474 N 3123.23 -0.0368104 -1.57557 0
M  V30 33475 C 3124.45 0.650133 -1.9642 0
M  V30 33476 C 3124.87 1.65219 -0.913685 0
M  V30 33477 O 3124.23 1.82205 0.103686 0
M  V30 33478 C 3124.28 1.34974 -3.35357 0
M  V30 33479 O 3124 0.387828 -4.3638 0
M  V30 33480 C 3125.5 2.12779 -3.88896 0
M  V30 33481 H 3122.72 0.178745 -0.646754 0
M  V30 33482 H 3125.26 -0.0988556 -2.04261 0
M  V30 33483 H 3123.42 2.05007 -3.28711 0
M  V30 33484 H 3123.83 0.885506 -5.16971 0
M  V30 33485 H 3125.31 2.57172 -4.88433 0
M  V30 33486 H 3125.78 2.97003 -3.23552 0
M  V30 33487 H 3126.39 1.47687 -3.98834 0
M  V30 33488 N 3124.7 1.55817 0.236426 0
M  V30 33489 C 3125.93 1.8194 0.978841 0
M  V30 33490 C 3126.34 0.611678 1.79039 0
M  V30 33491 O 3125.68 -0.429141 1.78617 0
M  V30 33492 C 3125.75 3.01575 1.95685 0
M  V30 33493 C 3125.41 4.37181 1.33124 0
M  V30 33494 C 3126.41 5.14771 0.728495 0
M  V30 33495 C 3124.09 4.83889 1.34746 0
M  V30 33496 C 3126.09 6.37223 0.150315 0
M  V30 33497 C 3123.77 6.06287 0.765432 0
M  V30 33498 C 3124.77 6.82794 0.167896 0
M  V30 33499 O 3124.46 8.02879 -0.405117 0
M  V30 33500 H 3124.19 0.609118 0.293175 0
M  V30 33501 H 3126.75 2.03731 0.261349 0
M  V30 33502 H 3124.98 2.75566 2.71293 0
M  V30 33503 H 3126.66 3.147 2.56357 0
M  V30 33504 H 3127.43 4.79799 0.708392 0
M  V30 33505 H 3123.31 4.24324 1.80195 0
M  V30 33506 H 3126.85 6.96881 -0.316708 0
M  V30 33507 H 3122.75 6.40735 0.782897 0
M  V30 33508 H 3123.52 8.17957 -0.297993 0
M  V30 33509 N 3126.18 -0.502526 1.49373 0
M  V30 33510 C 3127.6 -0.833567 1.36102 0
M  V30 33511 C 3127.8 -1.97631 0.392946 0
M  V30 33512 O 3126.85 -2.51886 -0.175931 0
M  V30 33513 C 3128.17 -1.17521 2.76784 0
M  V30 33514 C 3129.71 -1.28351 2.85473 0
M  V30 33515 C 3130.19 -1.65845 4.26918 0
M  V30 33516 N 3131.68 -1.72897 4.29722 0
M  V30 33517 C 3132.42 -2.0335 5.36131 0
M  V30 33518 N 3131.91 -2.32038 6.52787 0
M  V30 33519 N 3133.7 -2.04588 5.23546 0
M  V30 33520 H 3125.86 0.251046 2.10911 0
M  V30 33521 H 3128.12 0.0497203 0.946695 0
M  V30 33522 H 3127.82 -0.408903 3.49315 0
M  V30 33523 H 3127.7 -2.11901 3.12054 0
M  V30 33524 H 3130.09 -2.04054 2.1318 0
M  V30 33525 H 3130.17 -0.320259 2.53787 0
M  V30 33526 H 3129.81 -0.906934 4.99737 0
M  V30 33527 H 3129.74 -2.63268 4.56068 0
M  V30 33528 H 3132.23 -1.52894 3.45589 0
M  V30 33529 H 3132.54 -2.54458 7.29706 0
M  V30 33530 H 3130.89 -2.29497 6.56015 0
M  V30 33531 H 3134.08 -1.81652 4.31416 0
M  V30 33532 H 3134.25 -2.27988 6.06569 0
M  V30 33533 N 3127.66 -1.38422 -0.75346 0
M  V30 33534 C 3128.91 -1.34371 -1.5096 0
M  V30 33535 C 3129.23 0.0656552 -1.94889 0
M  V30 33536 O 3128.5 1.01336 -1.67654 0
M  V30 33537 H 3127.08 -0.494425 -0.559958 0
M  V30 33538 H 3129.74 -1.73102 -0.895635 0
M  V30 33539 H 3128.84 -1.99462 -2.40044 0
M  V30 33540 N 3129.14 0.981655 -1.23294 0
M  V30 33541 C 3130.09 2.09507 -1.01043 0
M  V30 33542 C 3131.08 1.69326 0.0501679 0
M  V30 33543 O 3132.29 1.79704 -0.103228 0
M  V30 33544 H 3128.66 0.685293 -0.309641 0
M  V30 33545 H 3130.63 2.25441 -1.95497 0
M  V30 33546 C 3129.38 3.42183 -0.616945 0
M  V30 33547 H 3128.7 3.73551 -1.42477 0
M  V30 33548 H 3130.14 4.21033 -0.500762 0
M  V30 33549 C 3128.6 3.30076 0.674663 0
M  V30 33550 O 3129.13 3.62817 1.72414 0
M  V30 33551 N 3127.34 2.83235 0.650102 0
M  V30 33552 H 3126.89 2.56789 -0.20427 0
M  V30 33553 H 3126.84 2.75516 1.51454 0
M  V30 33554 N 3130.62 1.04444 1.18022 0
M  V30 33555 C 3131.84 0.770131 1.92571 0
M  V30 33556 C 3132.27 -0.667138 1.75872 0
M  V30 33557 O 3131.62 -1.46256 1.07139 0
M  V30 33558 C 3131.67 1.14608 3.41902 0
M  V30 33559 O 3130.78 0.273784 4.1149 0
M  V30 33560 H 3130.12 0.283086 0.600631 0
M  V30 33561 H 3132.65 1.39529 1.49643 0
M  V30 33562 H 3132.66 1.10963 3.92621 0
M  V30 33563 H 3131.33 2.1931 3.53378 0
M  V30 33564 H 3129.91 0.37019 3.71058 0
M  V30 33565 N 3132.09 -1.34317 0.824418 0
M  V30 33566 C 3133.32 -2.02462 0.42623 0
M  V30 33567 C 3133.74 -1.6208 -0.96827 0
M  V30 33568 O 3133.09 -0.826989 -1.62687 0
M  V30 33569 C 3133.14 -3.57733 0.520527 0
M  V30 33570 O 3132.87 -3.96652 1.86007 0
M  V30 33571 C 3134.37 -4.43144 0.117431 0
M  V30 33572 H 3131.59 -0.648878 0.170875 0
M  V30 33573 H 3134.13 -1.7156 1.11299 0
M  V30 33574 H 3132.29 -3.8722 -0.118165 0
M  V30 33575 H 3132.7 -4.9134 1.83537 0
M  V30 33576 H 3134.17 -5.51502 0.234492 0
M  V30 33577 H 3134.65 -4.2904 -0.939196 0
M  V30 33578 H 3135.26 -4.18988 0.729981 0
M  V30 33579 N 3133.57 -0.579517 -1.46558 0
M  V30 33580 C 3134.82 -0.0637512 -2.01999 0
M  V30 33581 C 3135.14 1.2996 -1.4538 0
M  V30 33582 O 3134.41 1.85244 -0.637294 0
M  V30 33583 H 3132.99 -0.0205769 -0.746717 0
M  V30 33584 H 3135.65 -0.754575 -1.797 0
M  V30 33585 H 3134.75 0.00764768 -3.12099 0
M  V30 33586 N 3135.05 1.54376 -0.317127 0
M  V30 33587 C 3136.28 2.04864 0.289522 0
M  V30 33588 C 3136.69 1.19361 1.46282 0
M  V30 33589 O 3136.05 0.222827 1.81135 0
M  V30 33590 C 3136.1 3.54048 0.73021 0
M  V30 33591 O 3135.82 4.36303 -0.396402 0
M  V30 33592 C 3137.32 4.20601 1.40034 0
M  V30 33593 H 3134.54 0.66826 0.0605719 0
M  V30 33594 H 3137.09 1.99226 -0.461446 0
M  V30 33595 H 3135.24 3.59995 1.43117 0
M  V30 33596 H 3135.66 5.24476 -0.0503823 0
M  V30 33597 H 3137.13 5.26458 1.65969 0
M  V30 33598 H 3137.61 3.7132 2.34559 0
M  V30 33599 H 3138.21 4.18775 0.742132 0
M  V30 33600 N 3136.53 0.0451655 1.57535 0
M  V30 33601 C 3137.46 -0.929334 2.14209 0
M  V30 33602 C 3138.44 -1.32856 1.06223 0
M  V30 33603 O 3139.62 -1.40434 1.34134 0
M  V30 33604 C 3136.75 -2.20624 2.68221 0
M  V30 33605 C 3135.71 -1.94727 3.81137 0
M  V30 33606 C 3135.03 -3.2882 4.21641 0
M  V30 33607 C 3136.33 -1.27365 5.06533 0
M  V30 33608 H 3138.03 -0.457296 2.95887 0
M  V30 33609 H 3135.57 -0.218519 1.42332 0
M  V30 33610 H 3137.53 -2.89191 3.06507 0
M  V30 33611 H 3136.25 -2.70022 1.83727 0
M  V30 33612 H 3134.91 -1.28573 3.43314 0
M  V30 33613 H 3134.56 -3.76008 3.34106 0
M  V30 33614 H 3134.26 -3.12293 4.97742 0
M  V30 33615 H 3135.78 -3.98629 4.62523 0
M  V30 33616 H 3137.2 -1.85957 5.42303 0
M  V30 33617 H 3135.59 -1.21184 5.87737 0
M  V30 33618 H 3136.66 -0.248827 4.84261 0
M  V30 33619 N 3138.01 -1.5594 -0.228159 0
M  V30 33620 C 3138.94 -1.86876 -1.30968 0
M  V30 33621 C 3139.92 -0.725522 -1.45516 0
M  V30 33622 O 3141.1 -0.973209 -1.61434 0
M  V30 33623 C 3138.23 -2.06997 -2.68086 0
M  V30 33624 C 3137.27 -3.29673 -2.70588 0
M  V30 33625 S 3138.11 -4.85791 -2.25316 0
M  V30 33626 C 3139.26 -5.0894 -3.64322 0
M  V30 33627 H 3139.5 -2.78317 -1.04531 0
M  V30 33628 H 3137.03 -1.48289 -0.430077 0
M  V30 33629 H 3138.99 -2.19273 -3.4703 0
M  V30 33630 H 3137.65 -1.16365 -2.9175 0
M  V30 33631 H 3136.84 -3.40776 -3.71332 0
M  V30 33632 H 3136.44 -3.1622 -1.99702 0
M  V30 33633 H 3138.74 -4.97433 -4.59964 0
M  V30 33634 H 3139.68 -6.10853 -3.5814 0
M  V30 33635 H 3140.09 -4.36702 -3.57704 0
M  V30 33636 N 3139.48 0.494597 -1.49638 0
M  V30 33637 C 3140.73 1.25016 -1.59684 0
M  V30 33638 C 3141.06 1.92089 -0.285544 0
M  V30 33639 O 3140.34 1.81024 0.711366 0
M  V30 33640 C 3140.62 2.31218 -2.76062 0
M  V30 33641 C 3140.47 1.68603 -4.17005 0
M  V30 33642 C 3141.79 3.32728 -2.88062 0
M  V30 33643 H 3138.91 0.453162 -0.581217 0
M  V30 33644 H 3141.55 0.547359 -1.81945 0
M  V30 33645 H 3139.7 2.9116 -2.57212 0
M  V30 33646 H 3141.38 1.12439 -4.47387 0
M  V30 33647 H 3139.62 0.989917 -4.22354 0
M  V30 33648 H 3140.29 2.45665 -4.9432 0
M  V30 33649 H 3142.77 2.82784 -3.05242 0
M  V30 33650 H 3141.64 4.04392 -3.71158 0
M  V30 33651 H 3141.9 3.95441 -1.97683 0
M  V30 33652 N 3140.96 1.3882 0.746109 0
M  V30 33653 C 3142.21 1.35437 1.50542 0
M  V30 33654 C 3142.54 -0.0532327 1.94427 0
M  V30 33655 O 3141.79 -1.03185 1.66287 0
M  V30 33656 C 3142.09 2.26291 2.76635 0
M  V30 33657 C 3141.76 3.74126 2.51675 0
M  V30 33658 C 3140.42 4.1441 2.44577 0
M  V30 33659 C 3142.77 4.67676 2.30063 0
M  V30 33660 C 3140.1 5.46321 2.13892 0
M  V30 33661 C 3142.45 5.99853 2.00897 0
M  V30 33662 C 3141.12 6.39212 1.9226 0
M  V30 33663 H 3140.39 0.4956 0.550874 0
M  V30 33664 H 3143.03 1.71238 0.857307 0
M  V30 33665 H 3141.34 1.83571 3.46134 0
M  V30 33666 H 3143.03 2.20973 3.34622 0
M  V30 33667 H 3139.62 3.42193 2.58074 0
M  V30 33668 H 3143.81 4.37394 2.34521 0
M  V30 33669 H 3139.06 5.75751 2.05719 0
M  V30 33670 H 3143.24 6.71877 1.83179 0
M  V30 33671 H 3140.87 7.41348 1.68248 0
M  V30 33672 N 3142.44 -0.975103 1.23812 0
M  V30 33673 C 3143.69 -1.71711 1.07339 0
M  V30 33674 C 3144.02 -1.90572 -0.38892 0
M  V30 33675 O 3143.27 -1.4592 -1.30407 0
M  V30 33676 C 3143.57 -3.11625 1.75 0
M  V30 33677 C 3143.24 -3.12627 3.24924 0
M  V30 33678 C 3141.9 -3.12607 3.65828 0
M  V30 33679 C 3144.25 -3.07531 4.20802 0
M  V30 33680 C 3141.58 -3.05215 5.0106 0
M  V30 33681 C 3143.93 -3.0168 5.56032 0
M  V30 33682 C 3142.59 -2.99986 5.96293 0
M  V30 33683 H 3141.86 -0.628334 0.392782 0
M  V30 33684 H 3144.51 -1.14073 1.53817 0
M  V30 33685 H 3142.82 -3.72681 1.20896 0
M  V30 33686 H 3144.51 -3.67816 1.59726 0
M  V30 33687 H 3141.1 -3.13402 2.92365 0
M  V30 33688 H 3145.29 -3.06681 3.90206 0
M  V30 33689 H 3140.54 -3.02259 5.3146 0
M  V30 33690 H 3144.72 -2.96695 6.30036 0
M  V30 33691 H 3142.34 -2.94013 7.01042 0
M  V30 33692 N 3143.92 -1.05068 -1.17467 0
M  V30 33693 C 3145.17 -0.758518 -1.87326 0
M  V30 33694 C 3145.49 0.716517 -1.81359 0
M  V30 33695 O 3144.76 1.51766 -1.2387 0
M  V30 33696 H 3143.34 -0.277591 -0.693507 0
M  V30 33697 H 3146 -1.32957 -1.42508 0
M  V30 33698 H 3145.1 -1.07235 -2.93099 0
M  V30 33699 N 3145.4 1.33878 -0.831529 0
M  V30 33700 C 3146.34 2.31275 -0.247937 0
M  V30 33701 C 3147.34 1.57801 0.616055 0
M  V30 33702 O 3148.54 1.72729 0.506435 0
M  V30 33703 H 3144.92 0.749486 -0.0614424 0
M  V30 33704 H 3146.89 2.78012 -1.08406 0
M  V30 33705 C 3145.64 3.43023 0.568373 0
M  V30 33706 H 3144.96 3.99705 -0.0871357 0
M  V30 33707 H 3146.4 4.13388 0.942678 0
M  V30 33708 C 3144.86 2.88231 1.74426 0
M  V30 33709 O 3145.39 2.83816 2.84273 0
M  V30 33710 N 3143.6 2.44938 1.56377 0
M  V30 33711 H 3143.14 2.48729 0.670211 0
M  V30 33712 H 3143.1 2.08629 2.35205 0
M  V30 33713 N 3146.87 0.587281 1.46249 0
M  V30 33714 C 3148.12 0.0747207 2.02662 0
M  V30 33715 C 3148.45 -1.28366 1.45725 0
M  V30 33716 O 3147.73 -1.84215 0.624095 0
M  V30 33717 C 3148.01 0.0138741 3.60097 0
M  V30 33718 C 3147.86 1.40148 4.27409 0
M  V30 33719 C 3149.18 -0.684414 4.34746 0
M  V30 33720 H 3146.3 0.0286274 0.736444 0
M  V30 33721 H 3148.94 0.755358 1.7434 0
M  V30 33722 H 3147.09 -0.565763 3.84358 0
M  V30 33723 H 3148.77 2.02663 4.14398 0
M  V30 33724 H 3147.01 1.96792 3.86595 0
M  V30 33725 H 3147.68 1.31133 5.36198 0
M  V30 33726 H 3150.16 -0.19195 4.15657 0
M  V30 33727 H 3149.03 -0.696032 5.44469 0
M  V30 33728 H 3149.29 -1.74662 4.06135 0
M  V30 33729 N 3148.35 -1.54206 0.325309 0
M  V30 33730 C 3149.63 -1.92777 -0.331096 0
M  V30 33731 C 3150.01 -1.25509 -1.69737 0
M  V30 33732 O 3149.36 -0.399424 -2.24982 0
M  V30 33733 C 3149.57 -3.46444 -0.421575 0
M  V30 33734 C 3150.92 -4.19103 -0.681037 0
M  V30 33735 O 3151.94 -3.5261 -0.504426 0
M  V30 33736 O 3150.8 -5.36861 -1.02187 0
M  V30 33737 H 3147.89 -0.805016 -0.189416 0
M  V30 33738 H 3150.44 -1.65501 0.375152 0
M  V30 33739 H 3149.21 -3.87585 0.53793 0
M  V30 33740 H 3148.83 -3.79831 -1.17533 0
M  V30 33741 N 3149.83 -0.0535194 -1.57509 0
M  V30 33742 C 3151.06 0.63276 -1.97512 0
M  V30 33743 C 3151.48 1.63446 -0.930976 0
M  V30 33744 O 3150.84 1.80993 0.105526 0
M  V30 33745 C 3150.89 1.29401 -3.36582 0
M  V30 33746 O 3149.99 2.40971 -3.34674 0
M  V30 33747 H 3149.33 0.164298 -0.643352 0
M  V30 33748 H 3151.86 -0.122616 -2.04232 0
M  V30 33749 H 3151.87 1.64514 -3.73362 0
M  V30 33750 H 3150.55 0.559903 -4.12114 0
M  V30 33751 H 3149.12 2.07787 -3.09643 0
M  V30 33752 N 3151.31 1.56059 0.219886 0
M  V30 33753 C 3152.53 1.8358 0.965041 0
M  V30 33754 C 3152.96 0.634055 1.77091 0
M  V30 33755 O 3152.32 -0.417174 1.76435 0
M  V30 33756 C 3152.37 3.09108 1.857 0
M  V30 33757 O 3151.47 2.87919 2.95256 0
M  V30 33758 H 3150.81 0.605209 0.273163 0
M  V30 33759 H 3153.34 2.03272 0.232695 0
M  V30 33760 H 3153.35 3.39256 2.26649 0
M  V30 33761 H 3152.03 3.96205 1.26469 0
M  V30 33762 H 3150.6 2.69009 2.58241 0
M  V30 33763 N 3152.79 -0.486655 1.49898 0
M  V30 33764 C 3154.04 -1.23739 1.59791 0
M  V30 33765 C 3154.36 -1.92785 0.29309 0
M  V30 33766 O 3153.63 -1.83402 -0.688502 0
M  V30 33767 H 3152.21 -0.459721 0.588783 0
M  V30 33768 H 3154.87 -0.562775 1.86598 0
M  V30 33769 H 3153.96 -1.99366 2.40124 0
M  V30 33770 N 3154.27 -1.39214 -0.738737 0
M  V30 33771 C 3155.51 -1.35546 -1.49366 0
M  V30 33772 C 3155.83 0.0470747 -1.95543 0
M  V30 33773 O 3157.03 0.206329 -2.70715 0
M  V30 33774 C 3155.49 -2.38105 -2.69878 0
M  V30 33775 C 3155.1 -3.84054 -2.30665 0
M  V30 33776 C 3156.84 -2.43506 -3.47714 0
M  V30 33777 C 3154.75 -4.78262 -3.47878 0
M  V30 33778 H 3153.68 -0.503904 -0.56089 0
M  V30 33779 H 3156.33 -1.64842 -0.806192 0
M  V30 33780 H 3154.71 -2.01873 -3.4068 0
M  V30 33781 H 3155.89 -4.29305 -1.67434 0
M  V30 33782 H 3154.2 -3.81911 -1.6593 0
M  V30 33783 H 3156.8 -3.11084 -4.34891 0
M  V30 33784 H 3157.14 -1.45845 -3.89916 0
M  V30 33785 H 3157.67 -2.78611 -2.83937 0
M  V30 33786 H 3154.41 -5.77172 -3.10729 0
M  V30 33787 H 3153.93 -4.37694 -4.10103 0
M  V30 33788 H 3155.61 -4.96986 -4.14263 0
M  V30 33789 N 3155.74 0.968523 -1.24328 0
M  V30 33790 C 3156.69 2.06295 -1.03493 0
M  V30 33791 C 3157.66 1.6602 0.0515041 0
M  V30 33792 O 3158.85 1.90522 -0.102957 0
M  V30 33793 C 3155.99 3.3902 -0.644929 0
M  V30 33794 C 3155.1 3.92495 -1.80476 0
M  V30 33795 C 3154.23 5.13484 -1.36041 0
M  V30 33796 C 3153.27 5.59154 -2.49024 0
M  V30 33797 N 3152.41 6.71364 -2.05463 0
M  V30 33798 H 3157.25 2.2345 -1.97165 0
M  V30 33799 H 3154.79 1.09518 -0.982047 0
M  V30 33800 H 3156.74 4.1528 -0.399844 0
M  V30 33801 H 3155.37 3.21793 0.254788 0
M  V30 33802 H 3154.43 3.12883 -2.16353 0
M  V30 33803 H 3155.74 4.22349 -2.65373 0
M  V30 33804 H 3154.89 5.97115 -1.07416 0
M  V30 33805 H 3153.63 4.85313 -0.481972 0
M  V30 33806 H 3152.64 4.74097 -2.7841 0
M  V30 33807 H 3153.86 5.8934 -3.37424 0
M  V30 33808 H 3151.81 6.44928 -1.20016 0
M  V30 33809 H 3151.72 7.00663 -2.83914 0
M  V30 33810 H 3152.99 7.58439 -1.79975 0
M  V30 33811 N 3157.22 1.0569 1.16908 0
M  V30 33812 C 3158.17 0.632377 2.19055 0
M  V30 33813 C 3159.16 -0.33377 1.574 0
M  V30 33814 O 3160.35 -0.150192 1.76362 0
M  V30 33815 C 3157.48 0.0138812 3.43297 0
M  V30 33816 C 3156.56 1.00416 4.12041 0
M  V30 33817 N 3156.95 2.17745 4.56531 0
M  V30 33818 C 3155.25 0.83374 4.38138 0
M  V30 33819 C 3155.95 2.80434 5.09639 0
M  V30 33820 N 3154.93 2.082 5.02149 0
M  V30 33821 H 3158.73 1.52625 2.51163 0
M  V30 33822 H 3156.24 0.927731 1.33293 0
M  V30 33823 H 3158.24 -0.308044 4.1576 0
M  V30 33824 H 3156.9 -0.875325 3.12679 0
M  V30 33825 H 3157.91 2.55554 4.50458 0
M  V30 33826 H 3154.59 -0.00399345 4.175 0
M  V30 33827 H 3155.98 3.79962 5.54147 0
M  V30 33828 N 3158.7 -1.33435 0.838617 0
M  V30 33829 C 3159.65 -2.3114 0.260198 0
M  V30 33830 C 3160.64 -1.58125 -0.607678 0
M  V30 33831 O 3161.85 -1.72995 -0.497268 0
M  V30 33832 H 3158.22 -0.749149 0.0654163 0
M  V30 33833 H 3160.19 -2.77433 1.09879 0
M  V30 33834 C 3158.94 -3.4332 -0.550174 0
M  V30 33835 H 3158.27 -3.99653 0.108332 0
M  V30 33836 H 3159.71 -4.13882 -0.920742 0
M  V30 33837 C 3158.16 -2.89152 -1.72895 0
M  V30 33838 O 3158.69 -2.8532 -2.82764 0
M  V30 33839 N 3156.9 -2.45764 -1.55076 0
M  V30 33840 H 3156.45 -2.49081 -0.657011 0
M  V30 33841 H 3156.41 -2.09874 -2.34095 0
M  V30 33842 N 3160.18 -0.595029 -1.45935 0
M  V30 33843 C 3161.43 -0.0829885 -2.01529 0
M  V30 33844 C 3161.74 1.28953 -1.47073 0
M  V30 33845 O 3162.95 1.8936 -1.94564 0
M  V30 33846 C 3161.4 -0.0977229 -3.59767 0
M  V30 33847 C 3161.01 -1.46932 -4.2322 0
M  V30 33848 C 3162.75 0.35973 -4.22973 0
M  V30 33849 C 3160.66 -1.44111 -5.73573 0
M  V30 33850 H 3159.59 -0.0272558 -0.753507 0
M  V30 33851 H 3162.24 -0.748502 -1.6754 0
M  V30 33852 H 3160.62 0.634199 -3.90889 0
M  V30 33853 H 3161.8 -2.22194 -4.03691 0
M  V30 33854 H 3160.11 -1.86781 -3.72158 0
M  V30 33855 H 3162.71 0.399817 -5.33203 0
M  V30 33856 H 3163.05 1.37984 -3.92767 0
M  V30 33857 H 3163.59 -0.31852 -3.96523 0
M  V30 33858 H 3160.32 -2.43842 -6.08458 0
M  V30 33859 H 3159.84 -0.730872 -5.9533 0
M  V30 33860 H 3161.52 -1.15932 -6.36529 0
M  V30 33861 N 3161.66 1.54031 -0.333483 0
M  V30 33862 C 3162.9 2.00744 0.266098 0
M  V30 33863 C 3163.23 1.2215 1.51359 0
M  V30 33864 O 3162.49 0.294402 1.93473 0
M  V30 33865 C 3162.78 3.51703 0.635588 0
M  V30 33866 C 3162.45 4.47962 -0.513865 0
M  V30 33867 C 3161.11 4.73999 -0.829337 0
M  V30 33868 C 3163.46 5.05099 -1.28549 0
M  V30 33869 C 3160.79 5.54429 -1.91898 0
M  V30 33870 C 3163.14 5.86716 -2.3653 0
M  V30 33871 C 3161.81 6.11052 -2.68648 0
M  V30 33872 H 3161.08 0.734574 0.0973721 0
M  V30 33873 H 3163.73 1.8591 -0.459315 0
M  V30 33874 H 3162.03 3.64316 1.44157 0
M  V30 33875 H 3163.73 3.85296 1.11122 0
M  V30 33876 H 3160.32 4.27823 -0.257915 0
M  V30 33877 H 3164.5 4.84957 -1.05502 0
M  V30 33878 H 3159.76 5.71512 -2.17218 0
M  V30 33879 H 3163.93 6.30006 -2.96758 0
M  V30 33880 H 3161.56 6.73162 -3.53209 0
M  V30 33881 N 3163.13 0.0618717 1.57479 0
M  V30 33882 C 3164.08 -0.926592 2.13347 0
M  V30 33883 C 3165.08 -1.31501 1.06789 0
M  V30 33884 O 3166.28 -1.29341 1.25183 0
M  V30 33885 H 3162.66 -0.316717 0.682051 0
M  V30 33886 H 3164.63 -0.430372 2.9528 0
M  V30 33887 C 3163.38 -2.18829 2.70202 0
M  V30 33888 H 3162.7 -1.89823 3.51863 0
M  V30 33889 H 3164.14 -2.86127 3.12902 0
M  V30 33890 C 3162.6 -2.94017 1.64486 0
M  V30 33891 O 3163.13 -3.87353 1.06397 0
M  V30 33892 N 3161.33 -2.56942 1.35754 0
M  V30 33893 H 3160.88 -1.81116 1.8318 0
M  V30 33894 H 3160.84 -3.07554 0.652523 0
M  V30 33895 N 3164.61 -1.56173 -0.211607 0
M  V30 33896 C 3166.02 -1.69729 -0.777746 0
M  V30 33897 C 3166.37 -0.665612 -1.84564 0
M  V30 33898 O 3165.5 0.1813 -2.15639 0
M  V30 33899 C 3166.09 -3.07721 -1.41751 0
M  V30 33900 C 3164.65 -3.23098 -1.93093 0
M  V30 33901 C 3163.8 -2.65667 -0.794739 0
M  V30 33902 H 3166.75 -1.58695 0.0132118 0
M  V30 33903 H 3166.77 -3.04132 -2.28657 0
M  V30 33904 H 3166.28 -3.82786 -0.640047 0
M  V30 33905 H 3164.39 -2.52919 -2.7361 0
M  V30 33906 H 3164.5 -4.30425 -2.10406 0
M  V30 33907 H 3162.86 -2.24409 -1.20469 0
M  V30 33908 H 3163.65 -3.43287 -0.0297805 0
M  V30 33909 N 3166.09 0.478699 -1.50154 0
M  V30 33910 C 3167.5 1.05976 -1.53708 0
M  V30 33911 C 3167.85 1.93299 -0.336146 0
M  V30 33912 O 3166.98 2.09247 0.551767 0
M  V30 33913 C 3167.57 1.92869 -2.78544 0
M  V30 33914 C 3166.13 2.46097 -2.84804 0
M  V30 33915 C 3165.28 1.24253 -2.47904 0
M  V30 33916 H 3168.23 0.261637 -1.56528 0
M  V30 33917 H 3168.25 2.77842 -2.59969 0
M  V30 33918 H 3167.76 1.29287 -3.65932 0
M  V30 33919 H 3165.86 3.13254 -2.0175 0
M  V30 33920 H 3165.98 2.81724 -3.87516 0
M  V30 33921 H 3164.34 1.57489 -2.00173 0
M  V30 33922 H 3165.12 0.623451 -3.37591 0
M  V30 33923 N 3167.57 1.39603 0.731343 0
M  V30 33924 C 3168.82 1.36336 1.48645 0
M  V30 33925 C 3169.13 -0.0367039 1.95566 0
M  V30 33926 O 3170.34 -0.191969 2.7082 0
M  V30 33927 C 3168.79 2.39532 2.68612 0
M  V30 33928 C 3168.4 3.85272 2.28625 0
M  V30 33929 C 3170.14 2.45347 3.46418 0
M  V30 33930 C 3168.05 4.80101 3.45337 0
M  V30 33931 H 3166.98 0.506871 0.558209 0
M  V30 33932 H 3169.63 1.65267 0.797438 0
M  V30 33933 H 3168.01 2.03677 3.39605 0
M  V30 33934 H 3169.19 4.30187 1.65154 0
M  V30 33935 H 3167.5 3.82786 1.63902 0
M  V30 33936 H 3170.1 3.13386 4.33236 0
M  V30 33937 H 3170.44 1.47911 3.89138 0
M  V30 33938 H 3170.98 2.80113 2.82456 0
M  V30 33939 H 3167.72 5.78812 3.07663 0
M  V30 33940 H 3167.24 4.39862 4.07776 0
M  V30 33941 H 3168.91 4.99176 4.11621 0
M  V30 33942 N 3169.05 -0.961916 1.2484 0
M  V30 33943 C 3170.3 -1.69997 1.08553 0
M  V30 33944 C 3170.61 -1.91979 -0.374611 0
M  V30 33945 O 3171.81 -2.63411 -0.657775 0
M  V30 33946 C 3170.27 -3.06014 1.8943 0
M  V30 33947 C 3169.88 -2.91854 3.3989 0
M  V30 33948 C 3171.62 -3.83652 1.81691 0
M  V30 33949 C 3169.53 -4.23215 4.13089 0
M  V30 33950 H 3168.46 -0.637509 0.402614 0
M  V30 33951 H 3171.11 -1.07143 1.48972 0
M  V30 33952 H 3169.49 -3.6973 1.41829 0
M  V30 33953 H 3170.67 -2.37114 3.95112 0
M  V30 33954 H 3168.98 -2.27677 3.48644 0
M  V30 33955 H 3171.58 -4.80935 2.33678 0
M  V30 33956 H 3171.92 -4.08864 0.783319 0
M  V30 33957 H 3172.45 -3.26672 2.27002 0
M  V30 33958 H 3169.19 -4.03194 5.16831 0
M  V30 33959 H 3168.71 -4.77749 3.62652 0
M  V30 33960 H 3170.39 -4.91801 4.20405 0
M  V30 33961 N 3170.52 -1.06308 -1.16346 0
M  V30 33962 C 3171.49 -0.678092 -2.1894 0
M  V30 33963 C 3172.49 0.276249 -1.58409 0
M  V30 33964 O 3173.68 0.0586129 -1.74101 0
M  V30 33965 C 3170.81 0.00222692 -3.409 0
M  V30 33966 H 3172 -1.58628 -2.54514 0
M  V30 33967 H 3169.56 -0.858321 -1.30624 0
M  V30 33968 H 3170.29 0.923157 -3.10883 0
M  V30 33969 H 3170.08 -0.684017 -3.86088 0
M  V30 33970 H 3171.57 0.257301 -4.16807 0
M  V30 33971 N 3172 1.32989 -0.845682 0
M  V30 33972 C 3173.42 1.50389 -0.534356 0
M  V30 33973 C 3173.62 1.78394 0.936908 0
M  V30 33974 O 3172.67 1.84821 1.72039 0
M  V30 33975 C 3173.99 2.65402 -1.41359 0
M  V30 33976 C 3175.54 2.79287 -1.41308 0
M  V30 33977 C 3176.01 3.97369 -2.27731 0
M  V30 33978 N 3177.5 4.04616 -2.25478 0
M  V30 33979 C 3178.24 4.95196 -2.89082 0
M  V30 33980 N 3177.73 5.90845 -3.61765 0
M  V30 33981 N 3179.53 4.88247 -2.78517 0
M  V30 33982 H 3171.68 1.13075 -1.798 0
M  V30 33983 H 3173.94 0.556511 -0.767463 0
M  V30 33984 H 3173.65 2.51409 -2.4594 0
M  V30 33985 H 3173.52 3.60971 -1.09452 0
M  V30 33986 H 3175.91 2.92708 -0.37495 0
M  V30 33987 H 3175.99 1.84458 -1.77225 0
M  V30 33988 H 3175.63 3.84707 -3.31606 0
M  V30 33989 H 3175.56 4.91456 -1.89151 0
M  V30 33990 H 3178.05 3.36167 -1.72628 0
M  V30 33991 H 3178.37 6.56639 -4.07486 0
M  V30 33992 H 3176.71 5.90899 -3.65873 0
M  V30 33993 H 3179.9 4.12489 -2.21292 0
M  V30 33994 H 3180.07 5.58639 -3.2837 0
M  V30 33995 N 3173.48 0.60276 1.45618 0
M  V30 33996 C 3174.71 0.102141 2.06347 0
M  V30 33997 C 3175.12 -1.21675 1.44886 0
M  V30 33998 O 3174.46 -1.75097 0.55559 0
M  V30 33999 C 3174.52 -0.116963 3.5931 0
M  V30 34000 C 3174.19 1.11938 4.43079 0
M  V30 34001 C 3175.18 2.03636 4.7836 0
M  V30 34002 C 3172.87 1.34686 4.83906 0
M  V30 34003 C 3174.86 3.16412 5.53319 0
M  V30 34004 C 3172.55 2.47764 5.5862 0
M  V30 34005 C 3173.55 3.38456 5.93243 0
M  V30 34006 O 3173.24 4.49567 6.66442 0
M  V30 34007 H 3172.97 0.0637596 0.672986 0
M  V30 34008 H 3175.52 0.829016 1.87927 0
M  V30 34009 H 3173.75 -0.898676 3.76113 0
M  V30 34010 H 3175.44 -0.568578 4.01898 0
M  V30 34011 H 3176.21 1.87285 4.4738 0
M  V30 34012 H 3172.09 0.649955 4.56395 0
M  V30 34013 H 3175.63 3.87224 5.80261 0
M  V30 34014 H 3171.53 2.64069 5.89014 0
M  V30 34015 H 3172.3 4.48187 6.84887 0
M  V30 34016 N 3174.96 -1.53852 0.341647 0
M  V30 34017 C 3176.21 -2.00063 -0.25644 0
M  V30 34018 C 3176.52 -1.23343 -1.51808 0
M  V30 34019 O 3177.73 -1.60021 -2.1933 0
M  V30 34020 C 3176.18 -3.56304 -0.507505 0
M  V30 34021 C 3175.79 -4.41877 0.738129 0
M  V30 34022 C 3177.53 -4.10935 -1.06455 0
M  V30 34023 C 3175.44 -5.89624 0.457969 0
M  V30 34024 H 3174.37 -0.747393 -0.0996012 0
M  V30 34025 H 3177.02 -1.77726 0.456681 0
M  V30 34026 H 3175.4 -3.74699 -1.28128 0
M  V30 34027 H 3176.58 -4.35258 1.51286 0
M  V30 34028 H 3174.89 -3.98228 1.21668 0
M  V30 34029 H 3177.49 -5.18928 -1.28908 0
M  V30 34030 H 3177.83 -3.64036 -2.0195 0
M  V30 34031 H 3178.37 -3.96244 -0.351531 0
M  V30 34032 H 3175.11 -6.40753 1.38258 0
M  V30 34033 H 3174.63 -5.99152 -0.278712 0
M  V30 34034 H 3176.3 -6.46957 0.0745051 0
M  V30 34035 N 3176.44 -0.0702223 -1.57443 0
M  V30 34036 C 3177.85 0.286403 -1.57009 0
M  V30 34037 C 3178.05 1.70145 -1.07949 0
M  V30 34038 O 3177.11 2.4127 -0.744665 0
M  V30 34039 C 3178.42 0.0974937 -3.00542 0
M  V30 34040 C 3179.97 0.16715 -3.12553 0
M  V30 34041 C 3180.44 0.00653997 -4.58 0
M  V30 34042 N 3181.94 0.0621964 -4.63158 0
M  V30 34043 C 3182.67 -0.0376839 -5.73388 0
M  V30 34044 N 3182.17 -0.190995 -6.92537 0
M  V30 34045 N 3183.96 0.0192684 -5.62097 0
M  V30 34046 H 3176.11 -0.995056 -1.8765 0
M  V30 34047 H 3178.37 -0.387917 -0.865 0
M  V30 34048 H 3178.08 -0.878882 -3.40542 0
M  V30 34049 H 3177.95 0.850482 -3.67487 0
M  V30 34050 H 3180.34 1.13401 -2.72441 0
M  V30 34051 H 3180.42 -0.616915 -2.48249 0
M  V30 34052 H 3180.07 -0.95708 -4.98801 0
M  V30 34053 H 3180 0.809989 -5.20333 0
M  V30 34054 H 3182.49 0.179163 -3.77475 0
M  V30 34055 H 3182.8 -0.259396 -7.72365 0
M  V30 34056 H 3181.14 -0.226336 -6.94631 0
M  V30 34057 H 3184.34 0.137732 -4.67897 0
M  V30 34058 H 3184.51 -0.062026 -6.4797 0
M  V30 34059 N 3177.91 1.56283 0.203321 0
M  V30 34060 C 3178.84 1.96914 1.25487 0
M  V30 34061 C 3179.83 0.83991 1.47917 0
M  V30 34062 O 3181.01 1.10362 1.59793 0
M  V30 34063 C 3178.14 2.30157 2.60086 0
M  V30 34064 C 3177.09 3.45742 2.52282 0
M  V30 34065 C 3176.42 3.64638 3.91079 0
M  V30 34066 C 3177.72 4.80176 2.05494 0
M  V30 34067 H 3179.41 2.85003 0.917256 0
M  V30 34068 H 3176.96 1.3712 0.439794 0
M  V30 34069 H 3178.91 2.57176 3.33824 0
M  V30 34070 H 3177.64 1.38942 2.95572 0
M  V30 34071 H 3176.3 3.18801 1.81001 0
M  V30 34072 H 3175.94 2.70767 4.23903 0
M  V30 34073 H 3175.64 4.42391 3.86735 0
M  V30 34074 H 3177.17 3.94024 4.66452 0
M  V30 34075 H 3178.58 5.0628 2.68986 0
M  V30 34076 H 3176.98 5.61341 2.1217 0
M  V30 34077 H 3178.05 4.74311 1.00784 0
M  V30 34078 N 3179.39 -0.470729 1.50406 0
M  V30 34079 C 3180.34 -1.5663 1.65684 0
M  V30 34080 C 3181.33 -1.52555 0.511451 0
M  V30 34081 O 3182.52 -1.59573 0.765872 0
M  V30 34082 C 3179.65 -2.95071 1.75466 0
M  V30 34083 C 3178.73 -3.04028 2.95682 0
M  V30 34084 N 3179.13 -2.82799 4.19355 0
M  V30 34085 C 3177.42 -3.35164 2.94247 0
M  V30 34086 C 3178.12 -2.96732 5.00325 0
M  V30 34087 N 3177.1 -3.26948 4.34288 0
M  V30 34088 H 3180.9 -1.38917 2.58997 0
M  V30 34089 H 3178.42 -0.677464 1.47595 0
M  V30 34090 H 3180.41 -3.73845 1.84514 0
M  V30 34091 H 3179.07 -3.1383 0.833112 0
M  V30 34092 H 3180.08 -2.58374 4.48847 0
M  V30 34093 H 3176.76 -3.59909 2.11593 0
M  V30 34094 H 3178.15 -2.84556 6.08669 0
M  V30 34095 N 3180.87 -1.39989 -0.72393 0
M  V30 34096 C 3182.28 -1.3374 -1.30271 0
M  V30 34097 C 3182.63 -0.0069403 -1.96199 0
M  V30 34098 O 3181.76 0.895145 -1.97018 0
M  V30 34099 C 3182.35 -2.42221 -2.36884 0
M  V30 34100 C 3180.91 -2.39458 -2.90408 0
M  V30 34101 C 3180.06 -2.23532 -1.64099 0
M  V30 34102 H 3183.01 -1.49917 -0.520646 0
M  V30 34103 H 3183.03 -2.09648 -3.17534 0
M  V30 34104 H 3182.54 -3.39041 -1.88872 0
M  V30 34105 H 3180.64 -1.4631 -3.42672 0
M  V30 34106 H 3180.76 -3.34733 -3.42769 0
M  V30 34107 H 3179.12 -1.709 -1.88852 0
M  V30 34108 H 3179.9 -3.22338 -1.18123 0
M  V30 34109 N 3182.35 0.955282 -1.25348 0
M  V30 34110 C 3183.58 1.73449 -1.12796 0
M  V30 34111 C 3183.99 1.86097 0.318311 0
M  V30 34112 O 3183.35 1.35823 1.21895 0
M  V30 34113 C 3183.4 3.14861 -1.77609 0
M  V30 34114 O 3183.12 3.02832 -3.16582 0
M  V30 34115 C 3184.62 4.09063 -1.70828 0
M  V30 34116 H 3181.84 0.54353 -0.393467 0
M  V30 34117 H 3184.39 1.19852 -1.65698 0
M  V30 34118 H 3182.54 3.65404 -1.28679 0
M  V30 34119 H 3182.96 3.92033 -3.4844 0
M  V30 34120 H 3184.43 5.05899 -2.20839 0
M  V30 34121 H 3184.91 4.3403 -0.671934 0
M  V30 34122 H 3185.51 3.64435 -2.19243 0
M  V30 34123 N 3183.83 1.06924 1.1578 0
M  V30 34124 C 3184.78 0.655575 2.18372 0
M  V30 34125 C 3185.76 -0.317057 1.57745 0
M  V30 34126 O 3186.95 -0.131478 1.76511 0
M  V30 34127 C 3184.08 0.0502917 3.43263 0
M  V30 34128 C 3183.17 1.0478 4.10952 0
M  V30 34129 N 3183.56 2.22575 4.54196 0
M  V30 34130 C 3181.86 0.880164 4.37229 0
M  V30 34131 C 3182.56 2.85824 5.06636 0
M  V30 34132 N 3181.53 2.13514 4.99913 0
M  V30 34133 H 3185.34 1.55281 2.4953 0
M  V30 34134 H 3182.85 0.941816 1.32301 0
M  V30 34135 H 3184.85 -0.263929 4.16064 0
M  V30 34136 H 3183.51 -0.842112 3.1359 0
M  V30 34137 H 3184.52 2.60317 4.47722 0
M  V30 34138 H 3181.2 0.0402882 4.17481 0
M  V30 34139 H 3182.59 3.85818 5.50086 0
M  V30 34140 N 3185.31 -1.32538 0.852723 0
M  V30 34141 C 3186.54 -2.0122 0.468399 0
M  V30 34142 C 3186.94 -1.64258 -0.938937 0
M  V30 34143 O 3186.29 -0.858866 -1.62386 0
M  V30 34144 C 3186.35 -3.55638 0.525519 0
M  V30 34145 C 3186.01 -4.16023 1.89141 0
M  V30 34146 C 3187.01 -4.3439 2.85659 0
M  V30 34147 C 3184.69 -4.5214 2.18803 0
M  V30 34148 C 3186.69 -4.88041 4.09993 0
M  V30 34149 C 3184.38 -5.05496 3.4339 0
M  V30 34150 C 3185.37 -5.23395 4.38801 0
M  V30 34151 O 3185.06 -5.75612 5.61183 0
M  V30 34152 H 3184.79 -0.650836 0.182724 0
M  V30 34153 H 3187.35 -1.70136 1.15079 0
M  V30 34154 H 3185.58 -3.86109 -0.213712 0
M  V30 34155 H 3187.27 -4.05596 0.15707 0
M  V30 34156 H 3188.03 -4.06822 2.64047 0
M  V30 34157 H 3183.91 -4.37495 1.45324 0
M  V30 34158 H 3187.46 -5.01927 4.84474 0
M  V30 34159 H 3183.35 -5.32497 3.64853 0
M  V30 34160 H 3184.12 -5.94007 5.63114 0
M  V30 34161 N 3186.78 -0.610474 -1.45296 0
M  V30 34162 C 3188.01 -0.11145 -2.071 0
M  V30 34163 C 3188.43 1.19622 -1.45163 0
M  V30 34164 O 3187.79 1.72902 -0.545398 0
M  V30 34165 C 3187.84 0.0116738 -3.60598 0
M  V30 34166 O 3186.94 1.06115 -3.98514 0
M  V30 34167 H 3186.28 -0.0753756 -0.659708 0
M  V30 34168 H 3188.81 -0.841301 -1.86503 0
M  V30 34169 H 3188.82 0.208957 -4.07465 0
M  V30 34170 H 3187.5 -0.943147 -4.05065 0
M  V30 34171 H 3186.08 0.840094 -3.63314 0
M  V30 34172 N 3188.26 1.53669 -0.349801 0
M  V30 34173 C 3189.51 2.00196 0.245826 0
M  V30 34174 C 3189.82 1.24147 1.51152 0
M  V30 34175 O 3191.03 1.61182 2.18478 0
M  V30 34176 C 3189.49 3.56568 0.488602 0
M  V30 34177 C 3189.09 4.4148 -0.761553 0
M  V30 34178 C 3190.84 4.11494 1.04275 0
M  V30 34179 C 3188.74 5.89373 -0.489232 0
M  V30 34180 H 3187.67 0.74791 0.0956362 0
M  V30 34181 H 3190.33 1.77482 -0.466099 0
M  V30 34182 H 3188.71 3.75373 1.26139 0
M  V30 34183 H 3189.88 4.34449 -1.53592 0
M  V30 34184 H 3188.2 3.97578 -1.23778 0
M  V30 34185 H 3190.79 5.19605 1.26155 0
M  V30 34186 H 3191.14 3.65102 2.00016 0
M  V30 34187 H 3191.67 3.96425 0.330513 0
M  V30 34188 H 3188.41 6.40011 -1.41654 0
M  V30 34189 H 3187.93 5.99291 0.246934 0
M  V30 34190 H 3189.61 6.46908 -0.108814 0
M  V30 34191 N 3189.74 0.0785709 1.57404 0
M  V30 34192 C 3191.16 -0.278073 1.57159 0
M  V30 34193 C 3191.36 -1.6957 1.0885 0
M  V30 34194 O 3190.41 -2.40871 0.757449 0
M  V30 34195 C 3191.72 -0.0815539 3.00589 0
M  V30 34196 C 3193.27 -0.150572 3.12638 0
M  V30 34197 C 3193.75 0.017749 4.57997 0
M  V30 34198 N 3195.24 -0.0376331 4.63185 0
M  V30 34199 C 3195.97 0.0680915 5.7336 0
M  V30 34200 N 3195.47 0.227719 6.92426 0
M  V30 34201 N 3197.26 0.0105412 5.62099 0
M  V30 34202 H 3189.41 1.00499 1.87119 0
M  V30 34203 H 3191.68 0.392499 0.86293 0
M  V30 34204 H 3191.38 0.896929 3.40071 0
M  V30 34205 H 3191.26 -0.830981 3.67933 0
M  V30 34206 H 3193.64 -1.11955 2.73039 0
M  V30 34207 H 3193.72 0.630071 2.47919 0
M  V30 34208 H 3193.37 0.983519 4.98286 0
M  V30 34209 H 3193.3 -0.782383 5.20756 0
M  V30 34210 H 3195.79 -0.159142 3.77565 0
M  V30 34211 H 3196.1 0.300353 7.72216 0
M  V30 34212 H 3194.45 0.263171 6.94502 0
M  V30 34213 H 3197.64 -0.112917 4.67964 0
M  V30 34214 H 3197.81 0.0963886 6.47928 0
M  V30 34215 N 3191.22 -1.56389 -0.19503 0
M  V30 34216 C 3192.44 -1.85092 -0.935713 0
M  V30 34217 C 3192.87 -0.662149 -1.7606 0
M  V30 34218 O 3192.23 0.389052 -1.77076 0
M  V30 34219 C 3192.27 -3.12023 -1.80759 0
M  V30 34220 O 3191.38 -2.9258 -2.90638 0
M  V30 34221 H 3190.72 -0.609478 -0.2635 0
M  V30 34222 H 3193.25 -2.03617 -0.200326 0
M  V30 34223 H 3193.26 -3.42818 -2.21223 0
M  V30 34224 H 3191.93 -3.98167 -1.2015 0
M  V30 34225 H 3190.51 -2.73083 -2.53929 0
M  V30 34226 N 3192.7 0.462746 -1.50653 0
M  V30 34227 C 3193.92 1.23728 -1.65828 0
M  V30 34228 C 3194.34 1.8562 -0.345035 0
M  V30 34229 O 3193.7 1.69602 0.673905 0
M  V30 34230 C 3193.75 2.33992 -2.75554 0
M  V30 34231 O 3193.47 1.74636 -4.01789 0
M  V30 34232 C 3194.97 3.24725 -3.01776 0
M  V30 34233 H 3192.19 0.373882 -0.557183 0
M  V30 34234 H 3194.73 0.5514 -1.96926 0
M  V30 34235 H 3192.89 2.9834 -2.47127 0
M  V30 34236 H 3193.3 2.47311 -4.62534 0
M  V30 34237 H 3194.78 3.98286 -3.82195 0
M  V30 34238 H 3195.25 3.83997 -2.13174 0
M  V30 34239 H 3195.86 2.66105 -3.31766 0
M  V30 34240 N 3194.17 1.40371 0.716495 0
M  V30 34241 C 3195.1 1.43318 1.84343 0
M  V30 34242 C 3196.09 0.294216 1.67536 0
M  V30 34243 O 3197.27 0.502704 1.87581 0
M  V30 34244 C 3194.4 1.29414 3.22288 0
M  V30 34245 C 3193.35 2.40904 3.53765 0
M  V30 34246 C 3192.68 2.12077 4.90844 0
M  V30 34247 C 3193.98 3.83243 3.54855 0
M  V30 34248 H 3195.67 2.37629 1.82134 0
M  V30 34249 H 3193.22 1.14378 0.874853 0
M  V30 34250 H 3195.17 1.30092 4.00817 0
M  V30 34251 H 3193.9 0.315787 3.2507 0
M  V30 34252 H 3192.56 2.39474 2.77575 0
M  V30 34253 H 3192.2 1.12635 4.90227 0
M  V30 34254 H 3191.9 2.86771 5.1287 0
M  V30 34255 H 3193.43 2.14436 5.71708 0
M  V30 34256 H 3194.84 3.86502 4.23426 0
M  V30 34257 H 3193.24 4.57449 3.88408 0
M  V30 34258 H 3194.31 4.12893 2.54259 0
M  V30 34259 N 3195.65 -0.948621 1.25853 0
M  V30 34260 C 3197.07 -1.22079 1.02805 0
M  V30 34261 C 3197.27 -1.99925 -0.251426 0
M  V30 34262 O 3196.32 -2.33434 -0.962551 0
M  V30 34263 C 3197.64 -1.98932 2.25492 0
M  V30 34264 C 3199.19 -2.11952 2.30316 0
M  V30 34265 C 3199.66 -2.92204 3.52676 0
M  V30 34266 N 3201.15 -2.99781 3.53109 0
M  V30 34267 C 3201.89 -3.62286 4.44451 0
M  V30 34268 N 3201.38 -4.26352 5.46073 0
M  V30 34269 N 3203.18 -3.59485 4.32119 0
M  V30 34270 H 3195.33 -0.428007 2.08043 0
M  V30 34271 H 3197.59 -0.251856 0.913933 0
M  V30 34272 H 3197.3 -1.49134 3.18515 0
M  V30 34273 H 3197.17 -2.9962 2.29145 0
M  V30 34274 H 3199.56 -2.60944 1.37812 0
M  V30 34275 H 3199.64 -1.10549 2.30678 0
M  V30 34276 H 3199.28 -2.43901 4.45505 0
M  V30 34277 H 3199.21 -3.93846 3.49561 0
M  V30 34278 H 3201.7 -2.54227 2.79602 0
M  V30 34279 H 3202.02 -4.71921 6.11972 0
M  V30 34280 H 3200.36 -4.24962 5.49939 0
M  V30 34281 H 3203.55 -3.08623 3.51951 0
M  V30 34282 H 3203.72 -4.07911 5.035 0
M  V30 34283 N 3197.13 -1.07536 -1.15212 0
M  V30 34284 C 3198.06 -0.641499 -2.18998 0
M  V30 34285 C 3199.04 0.34221 -1.58958 0
M  V30 34286 O 3200.23 0.248185 -1.86859 0
M  V30 34287 C 3197.35 0.0577344 -3.38651 0
M  V30 34288 C 3196.4 -0.884715 -4.17223 0
M  V30 34289 S 3197.23 -2.38671 -4.79371 0
M  V30 34290 C 3198.39 -1.69933 -6.0239 0
M  V30 34291 H 3198.62 -1.52075 -2.55461 0
M  V30 34292 H 3196.15 -0.889503 -1.26203 0
M  V30 34293 H 3198.11 0.45491 -4.07972 0
M  V30 34294 H 3196.77 0.913354 -3.00527 0
M  V30 34295 H 3195.97 -0.342221 -5.02837 0
M  V30 34296 H 3195.57 -1.22236 -3.5346 0
M  V30 34297 H 3197.86 -1.01213 -6.69897 0
M  V30 34298 H 3198.8 -2.53386 -6.61212 0
M  V30 34299 H 3199.21 -1.1765 -5.52104 0
M  V30 34300 N 3198.61 1.32084 -0.85974 0
M  V30 34301 C 3199.52 2.32528 -0.311121 0
M  V30 34302 C 3200.53 1.64271 0.573686 0
M  V30 34303 O 3201.71 1.95771 0.472843 0
M  V30 34304 C 3198.78 3.4326 0.487196 0
M  V30 34305 C 3197.84 4.27198 -0.424354 0
M  V30 34306 C 3197.07 5.32642 0.335957 0
M  V30 34307 O 3197.29 5.48502 1.56531 0
M  V30 34308 O 3196.23 6.01147 -0.300882 0
M  V30 34309 H 3200.05 2.81353 -1.14341 0
M  V30 34310 H 3197.64 1.35799 -0.622818 0
M  V30 34311 H 3199.52 4.10779 0.940131 0
M  V30 34312 H 3198.19 2.96615 1.2962 0
M  V30 34313 H 3197.1 3.62469 -0.925573 0
M  V30 34314 H 3198.43 4.77381 -1.19868 0
M  V30 34315 N 3200.09 0.618171 1.4497 0
M  V30 34316 C 3201.02 -0.0815544 2.33358 0
M  V30 34317 C 3202 -0.848047 1.47452 0
M  V30 34318 O 3203.18 -0.816501 1.76201 0
M  V30 34319 C 3200.31 -1.07247 3.30326 0
M  V30 34320 C 3199.27 -0.418488 4.25949 0
M  V30 34321 C 3198.59 -1.5184 5.12688 0
M  V30 34322 C 3199.89 0.667062 5.18023 0
M  V30 34323 H 3201.59 0.656494 2.92114 0
M  V30 34324 H 3199.13 0.317153 1.40464 0
M  V30 34325 H 3201.09 -1.57062 3.91036 0
M  V30 34326 H 3199.81 -1.84125 2.69751 0
M  V30 34327 H 3198.47 0.0588952 3.66553 0
M  V30 34328 H 3198.12 -2.27772 4.48474 0
M  V30 34329 H 3197.82 -1.08626 5.77472 0
M  V30 34330 H 3199.34 -2.01861 5.76268 0
M  V30 34331 H 3200.75 0.252548 5.72743 0
M  V30 34332 H 3199.15 1.02157 5.91341 0
M  V30 34333 H 3200.22 1.53944 4.59814 0
M  V30 34334 N 3201.56 -1.53481 0.357946 0
M  V30 34335 C 3202.5 -2.21828 -0.535514 0
M  V30 34336 C 3203.48 -1.20744 -1.08902 0
M  V30 34337 O 3204.66 -1.49618 -1.14659 0
M  V30 34338 C 3201.79 -2.90701 -1.73812 0
M  V30 34339 C 3200.83 -4.05794 -1.31276 0
M  V30 34340 S 3201.67 -5.3454 -0.320454 0
M  V30 34341 C 3202.82 -6.06923 -1.52956 0
M  V30 34342 H 3203.05 -2.97266 0.0449568 0
M  V30 34343 H 3200.59 -1.53745 0.142036 0
M  V30 34344 H 3202.55 -3.30998 -2.42797 0
M  V30 34345 H 3201.21 -2.15002 -2.28983 0
M  V30 34346 H 3200.4 -4.52972 -2.20981 0
M  V30 34347 H 3200 -3.67349 -0.70221 0
M  V30 34348 H 3202.29 -6.31191 -2.4618 0
M  V30 34349 H 3203.24 -6.99515 -1.09931 0
M  V30 34350 H 3203.64 -5.37268 -1.73215 0
M  V30 34351 N 3203.04 -0.0869173 -1.5736 0
M  V30 34352 C 3204.29 0.577564 -1.93671 0
M  V30 34353 C 3204.61 1.69227 -0.968874 0
M  V30 34354 O 3203.88 1.9589 -0.0195405 0
M  V30 34355 H 3202.46 0.21634 -0.714987 0
M  V30 34356 H 3205.12 -0.148329 -1.94335 0
M  V30 34357 H 3204.22 0.993076 -2.95879 0
M  V30 34358 N 3204.52 1.5649 0.186734 0
M  V30 34359 C 3205.76 1.82902 0.912491 0
M  V30 34360 C 3206.12 0.665629 1.80093 0
M  V30 34361 O 3207.33 0.809832 2.56311 0
M  V30 34362 C 3205.6 3.14371 1.70017 0
M  V30 34363 S 3207.16 3.62215 2.4768 0
M  V30 34364 H 3203.97 0.641828 0.305905 0
M  V30 34365 H 3206.58 1.94713 0.175255 0
M  V30 34366 H 3205.28 3.9705 1.03825 0
M  V30 34367 H 3204.81 3.0546 2.47907 0
M  V30 34368 H 3206.83 3.28316 3.72053 0
M  V30 34369 N 3206 -0.45475 1.50897 0
M  V30 34370 C 3207.28 -1.21573 1.53229 0
M  V30 34371 C 3207.66 -2.09148 0.286395 0
M  V30 34372 O 3207 -2.16545 -0.729431 0
M  V30 34373 C 3207.21 -2.03266 2.83697 0
M  V30 34374 C 3208.56 -2.60902 3.34985 0
M  V30 34375 O 3209.59 -2.13494 2.85129 0
M  V30 34376 O 3208.44 -3.47323 4.21935 0
M  V30 34377 H 3205.54 -0.552553 0.615316 0
M  V30 34378 H 3208.08 -0.465237 1.63198 0
M  V30 34379 H 3206.86 -1.38836 3.65842 0
M  V30 34380 H 3206.48 -2.85417 2.76808 0
M  V30 34381 N 3207.48 -1.40749 -0.709041 0
M  V30 34382 C 3208.41 -1.44293 -1.8358 0
M  V30 34383 C 3209.39 -0.303096 -1.67378 0
M  V30 34384 O 3210.57 -0.512645 -1.87311 0
M  V30 34385 C 3207.7 -1.31121 -3.21597 0
M  V30 34386 C 3206.66 -2.42776 -3.52482 0
M  V30 34387 C 3205.98 -2.14677 -4.89712 0
M  V30 34388 C 3207.28 -3.8512 -3.52817 0
M  V30 34389 H 3208.98 -2.38591 -1.80871 0
M  V30 34390 H 3206.52 -1.1484 -0.868775 0
M  V30 34391 H 3208.48 -1.32216 -4.00121 0
M  V30 34392 H 3207.2 -0.333022 -3.24898 0
M  V30 34393 H 3205.86 -2.40942 -2.76301 0
M  V30 34394 H 3205.51 -1.15233 -4.89623 0
M  V30 34395 H 3205.21 -2.89487 -5.11342 0
M  V30 34396 H 3206.73 -2.17465 -5.70562 0
M  V30 34397 H 3208.14 -3.88742 -4.2137 0
M  V30 34398 H 3206.54 -4.59502 -3.85976 0
M  V30 34399 H 3207.61 -4.14235 -2.52066 0
M  V30 34400 N 3208.96 0.941933 -1.26354 0
M  V30 34401 C 3209.9 2.06186 -1.07657 0
M  V30 34402 C 3210.9 1.694 -0.00372719 0
M  V30 34403 O 3212.1 1.79284 -0.160348 0
M  V30 34404 H 3208.48 0.675095 -0.331286 0
M  V30 34405 H 3210.45 2.19107 -2.0257 0
M  V30 34406 C 3209.2 3.40047 -0.725496 0
M  V30 34407 H 3208.52 3.68829 -1.54289 0
M  V30 34408 H 3209.96 4.19226 -0.634457 0
M  V30 34409 C 3208.42 3.32055 0.56931 0
M  V30 34410 O 3208.95 3.68119 1.60784 0
M  V30 34411 N 3207.16 2.8516 0.559663 0
M  V30 34412 H 3206.7 2.56009 -0.285862 0
M  V30 34413 H 3206.66 2.80195 1.42612 0
M  V30 34414 N 3210.43 1.08146 1.1464 0
M  V30 34415 C 3211.66 0.831006 1.90024 0
M  V30 34416 C 3212.08 -0.610848 1.77905 0
M  V30 34417 O 3211.44 -1.42774 1.11738 0
M  V30 34418 C 3211.49 1.25428 3.38083 0
M  V30 34419 O 3210.59 0.404558 4.10411 0
M  V30 34420 H 3209.93 0.302052 0.591321 0
M  V30 34421 H 3212.46 1.44219 1.45128 0
M  V30 34422 H 3212.47 1.23397 3.88892 0
M  V30 34423 H 3211.15 2.30442 3.46222 0
M  V30 34424 H 3209.73 0.488051 3.69692 0
M  V30 34425 N 3211.91 -1.31626 0.866732 0
M  V30 34426 C 3213.15 -1.98623 0.482514 0
M  V30 34427 C 3213.52 -1.67031 -0.946815 0
M  V30 34428 O 3214.72 -2.27214 -1.43622 0
M  V30 34429 C 3212.99 -3.49894 0.728644 0
M  V30 34430 S 3214.55 -4.3655 0.443801 0
M  V30 34431 H 3211.36 -0.687773 0.18025 0
M  V30 34432 H 3213.97 -1.60094 1.12206 0
M  V30 34433 H 3212.67 -3.70376 1.76776 0
M  V30 34434 H 3212.2 -3.93327 0.0759722 0
M  V30 34435 H 3214.22 -4.90871 -0.725254 0
M  V30 34436 N 3213.39 -0.62585 -1.4464 0
M  V30 34437 C 3214.61 -0.13341 -2.0697 0
M  V30 34438 C 3215.04 1.18076 -1.46423 0
M  V30 34439 O 3214.4 1.72314 -0.563706 0
M  V30 34440 C 3214.45 -0.0265731 -3.6059 0
M  V30 34441 O 3213.55 1.01882 -3.99617 0
M  V30 34442 H 3212.89 -0.0823684 -0.658871 0
M  V30 34443 H 3215.42 -0.861035 -1.856 0
M  V30 34444 H 3215.43 0.165728 -4.07663 0
M  V30 34445 H 3214.11 -0.986057 -4.04042 0
M  V30 34446 H 3212.68 0.801513 -3.64184 0
M  V30 34447 N 3214.87 1.53289 -0.36608 0
M  V30 34448 C 3215.8 2.22108 0.523742 0
M  V30 34449 C 3216.78 1.2132 1.0826 0
M  V30 34450 O 3217.96 1.50224 1.13864 0
M  V30 34451 C 3215.09 2.91619 1.72268 0
M  V30 34452 C 3214.14 4.06485 1.29122 0
M  V30 34453 S 3214.97 5.34703 0.292101 0
M  V30 34454 C 3216.12 6.07725 1.49735 0
M  V30 34455 H 3216.36 2.97238 -0.0607209 0
M  V30 34456 H 3213.89 1.53668 -0.150187 0
M  V30 34457 H 3215.85 3.32281 2.41039 0
M  V30 34458 H 3214.51 2.16213 2.27839 0
M  V30 34459 H 3213.7 4.54137 2.18575 0
M  V30 34460 H 3213.3 3.67716 0.682719 0
M  V30 34461 H 3215.6 6.32487 2.42829 0
M  V30 34462 H 3216.54 7.00088 1.06219 0
M  V30 34463 H 3216.95 5.38179 1.70363 0
M  V30 34464 N 3216.35 0.0952613 1.57312 0
M  V30 34465 C 3217.76 -0.433843 1.81589 0
M  V30 34466 C 3218.11 -1.68153 1.01088 0
M  V30 34467 O 3217.23 -2.15062 0.240309 0
M  V30 34468 C 3217.83 -0.793873 3.29368 0
M  V30 34469 C 3216.39 -1.26772 3.54409 0
M  V30 34470 C 3215.53 -0.264469 2.76036 0
M  V30 34471 H 3218.48 0.320702 1.55426 0
M  V30 34472 H 3218.51 -1.65339 3.427 0
M  V30 34473 H 3218.02 0.114403 3.87931 0
M  V30 34474 H 3216.12 -2.1937 3.01177 0
M  V30 34475 H 3216.23 -1.22944 4.63057 0
M  V30 34476 H 3214.6 -0.746649 2.4351 0
M  V30 34477 H 3215.38 0.636488 3.37348 0
M  V30 34478 N 3217.82 -1.56587 -0.178432 0
M  V30 34479 C 3218.75 -1.98886 -1.22338 0
M  V30 34480 C 3219.73 -0.863336 -1.46562 0
M  V30 34481 O 3220.92 -1.1289 -1.58017 0
M  V30 34482 C 3218.05 -2.34266 -2.56392 0
M  V30 34483 C 3217 -3.49712 -2.4675 0
M  V30 34484 C 3216.33 -3.70814 -3.85229 0
M  V30 34485 C 3217.63 -4.83385 -1.97829 0
M  V30 34486 H 3219.32 -2.86426 -0.871798 0
M  V30 34487 H 3216.87 -1.37802 -0.417924 0
M  V30 34488 H 3218.82 -2.62454 -3.29691 0
M  V30 34489 H 3217.55 -1.43627 -2.93324 0
M  V30 34490 H 3216.21 -3.21641 -1.75906 0
M  V30 34491 H 3215.85 -2.77477 -4.19542 0
M  V30 34492 H 3215.55 -4.48488 -3.79648 0
M  V30 34493 H 3217.08 -4.01395 -4.60124 0
M  V30 34494 H 3218.49 -5.10495 -2.60897 0
M  V30 34495 H 3216.89 -5.64646 -2.03213 0
M  V30 34496 H 3217.96 -4.75854 -0.932255 0
M  V30 34497 N 3219.3 0.446741 -1.51136 0
M  V30 34498 C 3220.55 1.19459 -1.63015 0
M  V30 34499 C 3220.87 1.9194 -0.344101 0
M  V30 34500 O 3220.14 1.85163 0.639634 0
M  V30 34501 H 3218.72 0.443948 -0.600765 0
M  V30 34502 H 3221.38 0.513104 -1.88025 0
M  V30 34503 H 3220.48 1.92929 -2.45326 0
M  V30 34504 N 3220.78 1.41123 0.701567 0
M  V30 34505 C 3221.71 1.3691 1.82567 0
M  V30 34506 C 3222.69 0.237273 1.60859 0
M  V30 34507 O 3223.87 0.423214 1.83688 0
M  V30 34508 C 3221 1.13414 3.19147 0
M  V30 34509 C 3220.05 2.29236 3.59657 0
M  V30 34510 S 3220.88 3.91692 3.65154 0
M  V30 34511 C 3222.04 3.70487 5.0447 0
M  V30 34512 H 3222.27 2.32039 1.85863 0
M  V30 34513 H 3219.8 1.27576 0.869703 0
M  V30 34514 H 3221.76 1.00544 3.97997 0
M  V30 34515 H 3220.42 0.199154 3.13468 0
M  V30 34516 H 3219.61 2.08474 4.58862 0
M  V30 34517 H 3219.22 2.38482 2.88101 0
M  V30 34518 H 3221.51 3.29822 5.91797 0
M  V30 34519 H 3222.45 4.69273 5.30272 0
M  V30 34520 H 3222.86 3.03884 4.75726 0
M  V30 34521 N 3222.26 -0.935219 1.26852 0
M  V30 34522 C 3223.17 -2.06829 1.1072 0
M  V30 34523 C 3224.18 -1.73956 0.0391528 0
M  V30 34524 O 3225.36 -1.99915 0.244106 0
M  V30 34525 C 3222.42 -3.38531 0.748153 0
M  V30 34526 C 3221.49 -3.8515 1.89626 0
M  V30 34527 C 3220.72 -5.10567 1.55425 0
M  V30 34528 O 3220.94 -5.68553 0.458696 0
M  V30 34529 O 3219.88 -5.52373 2.39097 0
M  V30 34530 H 3223.7 -2.23348 2.05789 0
M  V30 34531 H 3221.29 -1.05313 1.05969 0
M  V30 34532 H 3223.17 -4.1765 0.560914 0
M  V30 34533 H 3221.84 -3.23237 -0.173086 0
M  V30 34534 H 3220.75 -3.06951 2.13851 0
M  V30 34535 H 3222.08 -4.04974 2.79744 0
M  V30 34536 N 3223.74 -1.08752 -1.14065 0
M  V30 34537 C 3224.96 -0.841072 -1.8958 0
M  V30 34538 C 3225.39 0.601404 -1.78227 0
M  V30 34539 O 3224.74 1.42179 -1.12493 0
M  V30 34540 C 3224.79 -1.27219 -3.37413 0
M  V30 34541 O 3223.9 -0.426318 -4.10191 0
M  V30 34542 H 3223.24 -0.305183 -0.589711 0
M  V30 34543 H 3225.77 -1.44986 -1.44361 0
M  V30 34544 H 3225.78 -1.25458 -3.88232 0
M  V30 34545 H 3224.45 -2.32274 -3.44995 0
M  V30 34546 H 3223.03 -0.50765 -3.69428 0
M  V30 34547 N 3225.21 1.31165 -0.873701 0
M  V30 34548 C 3226.16 2.28424 -0.330328 0
M  V30 34549 C 3227.13 1.55894 0.573271 0
M  V30 34550 O 3228.32 1.8402 0.504111 0
M  V30 34551 C 3225.46 3.42035 0.458944 0
M  V30 34552 C 3224.57 4.29407 -0.472594 0
M  V30 34553 C 3223.7 5.30167 0.331168 0
M  V30 34554 C 3222.74 6.09186 -0.59656 0
M  V30 34555 N 3221.88 7.01891 0.171182 0
M  V30 34556 H 3226.72 2.74288 -1.1649 0
M  V30 34557 H 3224.26 1.34931 -0.585836 0
M  V30 34558 H 3226.22 4.06648 0.932361 0
M  V30 34559 H 3224.85 2.9727 1.25818 0
M  V30 34560 H 3223.9 3.65203 -1.06447 0
M  V30 34561 H 3225.21 4.84549 -1.1838 0
M  V30 34562 H 3224.36 6.00474 0.866932 0
M  V30 34563 H 3223.1 4.7569 1.07565 0
M  V30 34564 H 3222.11 5.37765 -1.14405 0
M  V30 34565 H 3223.33 6.65749 -1.33995 0
M  V30 34566 H 3221.28 6.49819 0.898406 0
M  V30 34567 H 3221.2 7.54471 -0.480614 0
M  V30 34568 H 3222.46 7.76457 0.688055 0
M  V30 34569 N 3226.69 0.633512 1.44307 0
M  V30 34570 C 3227.66 -0.0603357 2.29121 0
M  V30 34571 C 3228.66 -0.769967 1.41167 0
M  V30 34572 O 3229.85 -0.614196 1.63013 0
M  V30 34573 C 3226.98 -1.09604 3.228 0
M  V30 34574 H 3228.17 0.685668 2.91957 0
M  V30 34575 H 3225.72 0.393764 1.51259 0
M  V30 34576 H 3226.46 -1.87194 2.64818 0
M  V30 34577 H 3226.24 -0.591093 3.87619 0
M  V30 34578 H 3227.73 -1.5812 3.86507 0
M  V30 34579 N 3228.17 -1.53093 0.374204 0
M  V30 34580 C 3229.42 -2.00562 -0.213946 0
M  V30 34581 C 3229.73 -1.26536 -1.49158 0
M  V30 34582 O 3230.94 -1.64638 -2.15886 0
M  V30 34583 C 3229.39 -3.573 -0.431813 0
M  V30 34584 C 3229 -4.40212 0.831692 0
M  V30 34585 C 3230.75 -4.13101 -0.977149 0
M  V30 34586 C 3228.65 -5.8852 0.582934 0
M  V30 34587 H 3227.58 -0.749337 -0.0837255 0
M  V30 34588 H 3230.23 -1.76718 0.494276 0
M  V30 34589 H 3228.62 -3.77332 -1.20151 0
M  V30 34590 H 3229.79 -4.31951 1.60484 0
M  V30 34591 H 3228.11 -3.95558 1.30087 0
M  V30 34592 H 3230.7 -5.21546 -1.17872 0
M  V30 34593 H 3231.05 -3.68238 -1.94182 0
M  V30 34594 H 3231.58 -3.969 -0.267403 0
M  V30 34595 H 3228.32 -6.37677 1.51818 0
M  V30 34596 H 3227.84 -5.99608 -0.15156 0
M  V30 34597 H 3229.52 -6.46654 0.211718 0
M  V30 34598 N 3229.65 -0.103603 -1.57259 0
M  V30 34599 C 3230.87 0.569603 -1.99425 0
M  V30 34600 C 3231.3 1.60401 -0.982503 0
M  V30 34601 O 3230.66 1.81237 0.0478912 0
M  V30 34602 C 3230.7 1.18627 -3.40529 0
M  V30 34603 O 3229.81 2.30202 -3.42171 0
M  V30 34604 H 3229.15 0.143747 -0.648254 0
M  V30 34605 H 3231.68 -0.187529 -2.03739 0
M  V30 34606 H 3231.69 1.52553 -3.78407 0
M  V30 34607 H 3230.36 0.428509 -4.13687 0
M  V30 34608 H 3228.94 1.97831 -3.16097 0
M  V30 34609 N 3231.13 1.56679 0.170126 0
M  V30 34610 C 3232.4 1.72937 0.913908 0
M  V30 34611 C 3232.78 0.665328 2.00341 0
M  V30 34612 O 3232.13 -0.319676 2.26253 0
M  V30 34613 C 3232.34 3.16179 1.47755 0
M  V30 34614 C 3233.69 3.77174 1.95001 0
M  V30 34615 O 3234.71 3.19465 1.57546 0
M  V30 34616 O 3233.57 4.78505 2.63998 0
M  V30 34617 H 3230.67 0.706263 0.430257 0
M  V30 34618 H 3233.21 1.68964 0.157861 0
M  V30 34619 H 3231.98 3.85106 0.693452 0
M  V30 34620 H 3231.61 3.24483 2.29775 0
M  V30 34621 N 3232.6 -0.43872 1.5137 0
M  V30 34622 C 3233.57 -1.51493 1.71996 0
M  V30 34623 C 3234.57 -1.49585 0.590005 0
M  V30 34624 O 3235.76 -1.51631 0.857532 0
M  V30 34625 C 3232.89 -2.91036 1.77513 0
M  V30 34626 H 3234.08 -1.34509 2.68043 0
M  V30 34627 H 3231.64 -0.667302 1.41339 0
M  V30 34628 H 3232.37 -3.13426 0.832754 0
M  V30 34629 H 3232.16 -2.93826 2.59632 0
M  V30 34630 H 3233.65 -3.6911 1.95314 0
M  V30 34631 N 3234.08 -1.41493 -0.694073 0
M  V30 34632 C 3235.01 -1.39392 -1.81941 0
M  V30 34633 C 3236.03 -0.295864 -1.60089 0
M  V30 34634 O 3237.22 -0.557688 -1.69564 0
M  V30 34635 C 3234.32 -1.15173 -3.18729 0
M  V30 34636 C 3233.49 -2.37047 -3.67597 0
M  V30 34637 C 3232.55 -2.08662 -4.8306 0
M  V30 34638 O 3231.57 -2.81712 -4.94598 0
M  V30 34639 N 3232.78 -1.0778 -5.70407 0
M  V30 34640 H 3235.54 -2.36384 -1.84235 0
M  V30 34641 H 3233.1 -1.36125 -0.876451 0
M  V30 34642 H 3235.09 -0.941333 -3.936 0
M  V30 34643 H 3233.66 -0.267727 -3.11451 0
M  V30 34644 H 3232.88 -2.73779 -2.83617 0
M  V30 34645 H 3234.17 -3.18246 -3.96985 0
M  V30 34646 H 3233.57 -0.473223 -5.63717 0
M  V30 34647 H 3232.13 -0.927291 -6.4517 0
M  V30 34648 N 3235.56 0.928479 -1.27346 0
M  V30 34649 C 3236.81 1.67059 -1.13022 0
M  V30 34650 C 3237.12 1.92905 0.32358 0
M  V30 34651 O 3238.33 2.65063 0.587705 0
M  V30 34652 C 3236.78 3.00884 -1.97477 0
M  V30 34653 C 3236.39 2.82739 -3.47509 0
M  V30 34654 C 3238.14 3.787 -1.91798 0
M  V30 34655 C 3236.04 4.12114 -4.24165 0
M  V30 34656 H 3234.97 0.62661 -0.419375 0
M  V30 34657 H 3237.62 1.03155 -1.5176 0
M  V30 34658 H 3236.01 3.6584 -1.51582 0
M  V30 34659 H 3237.18 2.26555 -4.0126 0
M  V30 34660 H 3235.5 2.18353 -3.54557 0
M  V30 34661 H 3238.09 4.7457 -2.46347 0
M  V30 34662 H 3238.44 4.06643 -0.891446 0
M  V30 34663 H 3238.97 3.20539 -2.35584 0
M  V30 34664 H 3235.71 3.8935 -5.27339 0
M  V30 34665 H 3235.23 4.67965 -3.75191 0
M  V30 34666 H 3236.91 4.80482 -4.33297 0
M  V30 34667 N 3237.04 1.09355 1.13486 0
M  V30 34668 C 3238.27 0.850948 1.88591 0
M  V30 34669 C 3238.68 -0.59773 1.79088 0
M  V30 34670 O 3238.04 -1.4114 1.15697 0
M  V30 34671 C 3238.09 1.27639 3.38217 0
M  V30 34672 O 3237.81 2.66825 3.47471 0
M  V30 34673 C 3239.31 1.06606 4.30291 0
M  V30 34674 H 3236.53 0.306195 0.597064 0
M  V30 34675 H 3239.08 1.45535 1.43665 0
M  V30 34676 H 3237.23 0.715895 3.80728 0
M  V30 34677 H 3237.64 2.84741 4.4048 0
M  V30 34678 H 3239.12 1.41302 5.33608 0
M  V30 34679 H 3239.6 0.0037907 4.392 0
M  V30 34680 H 3240.2 1.61247 3.93547 0
M  V30 34681 N 3238.52 -1.307 0.880644 0
M  V30 34682 C 3239.48 -2.26525 0.349127 0
M  V30 34683 C 3240.48 -1.52633 -0.505946 0
M  V30 34684 O 3241.67 -1.71352 -0.313721 0
M  V30 34685 C 3238.8 -3.37169 -0.502964 0
M  V30 34686 H 3240 -2.75054 1.19521 0
M  V30 34687 H 3237.55 -1.41815 0.657132 0
M  V30 34688 H 3238.28 -2.9395 -1.36981 0
M  V30 34689 H 3238.07 -3.91947 0.109458 0
M  V30 34690 H 3239.56 -4.08506 -0.866773 0
M  V30 34691 N 3240 -0.641156 -1.43969 0
M  V30 34692 C 3241.22 -0.155354 -2.06817 0
M  V30 34693 C 3241.65 1.16516 -1.47667 0
M  V30 34694 O 3241 1.71706 -0.58195 0
M  V30 34695 C 3241.05 -0.064817 -3.60542 0
M  V30 34696 O 3240.16 0.976377 -4.00675 0
M  V30 34697 H 3239.5 -0.089352 -0.657961 0
M  V30 34698 H 3242.03 -0.880672 -1.84676 0
M  V30 34699 H 3242.04 0.122481 -4.07816 0
M  V30 34700 H 3240.71 -1.02886 -4.02973 0
M  V30 34701 H 3239.29 0.762841 -3.65014 0
M  V30 34702 N 3241.47 1.52892 -0.382318 0
M  V30 34703 C 3242.7 2.06385 0.204925 0
M  V30 34704 C 3243.12 1.25274 1.40314 0
M  V30 34705 O 3242.48 0.276001 1.79187 0
M  V30 34706 C 3242.53 3.56223 0.560143 0
M  V30 34707 O 3241.63 3.77731 1.65508 0
M  V30 34708 H 3240.97 0.663496 0.0258682 0
M  V30 34709 H 3243.5 1.97131 -0.547767 0
M  V30 34710 H 3243.51 3.99542 0.826431 0
M  V30 34711 H 3242.19 4.14698 -0.315913 0
M  V30 34712 H 3240.77 3.46303 1.38305 0
M  V30 34713 N 3242.95 0.111941 1.57202 0
M  V30 34714 C 3244.18 -0.554872 1.99009 0
M  V30 34715 C 3244.59 -1.6121 0.990351 0
M  V30 34716 O 3243.93 -1.83682 -0.0259289 0
M  V30 34717 C 3243.99 -1.24592 3.3722 0
M  V30 34718 C 3243.66 -0.337469 4.55752 0
M  V30 34719 C 3244.66 0.421117 5.18192 0
M  V30 34720 C 3242.34 -0.250602 5.01674 0
M  V30 34721 C 3244.33 1.25437 6.24935 0
M  V30 34722 C 3242.02 0.586293 6.08281 0
M  V30 34723 C 3243.02 1.33742 6.69778 0
M  V30 34724 O 3242.71 2.16043 7.74326 0
M  V30 34725 H 3242.44 -0.152079 0.658671 0
M  V30 34726 H 3244.99 0.192973 2.04492 0
M  V30 34727 H 3243.22 -2.04068 3.28471 0
M  V30 34728 H 3244.91 -1.80893 3.63363 0
M  V30 34729 H 3245.68 0.363837 4.83633 0
M  V30 34730 H 3241.56 -0.824925 4.53559 0
M  V30 34731 H 3245.1 1.84114 6.72865 0
M  V30 34732 H 3241 0.644992 6.42269 0
M  V30 34733 H 3241.77 2.08908 7.91391 0
M  V30 34734 N 3244.43 -1.56767 -0.161814 0
M  V30 34735 C 3245.68 -1.82529 -0.876892 0
M  V30 34736 C 3246 -0.690524 -1.8183 0
M  V30 34737 O 3245.26 0.321556 -1.9304 0
M  V30 34738 C 3245.56 -3.14525 -1.69731 0
M  V30 34739 C 3245.22 -4.41745 -0.903997 0
M  V30 34740 C 3243.89 -4.76298 -0.685084 0
M  V30 34741 C 3246.24 -5.20036 -0.34819 0
M  V30 34742 C 3243.57 -5.86614 0.100583 0
M  V30 34743 C 3245.92 -6.31175 0.424438 0
M  V30 34744 C 3244.58 -6.64288 0.654065 0
M  V30 34745 H 3243.85 -0.667921 -0.320878 0
M  V30 34746 H 3246.5 -1.90978 -0.141304 0
M  V30 34747 H 3244.8 -3.01461 -2.50257 0
M  V30 34748 H 3246.5 -3.3167 -2.2538 0
M  V30 34749 H 3243.09 -4.14648 -1.08467 0
M  V30 34750 H 3247.28 -4.93728 -0.504634 0
M  V30 34751 H 3242.53 -6.10721 0.288136 0
M  V30 34752 H 3246.71 -6.9104 0.862325 0
M  V30 34753 H 3244.33 -7.49606 1.26473 0
M  V30 34754 N 3245.91 0.430686 -1.51601 0
M  V30 34755 C 3247.14 1.20182 -1.68416 0
M  V30 34756 C 3247.55 1.84847 -0.38433 0
M  V30 34757 O 3246.91 1.70993 0.637778 0
M  V30 34758 C 3246.96 2.28095 -2.80455 0
M  V30 34759 O 3246.68 1.66074 -4.05402 0
M  V30 34760 C 3248.18 3.18251 -3.08596 0
M  V30 34761 H 3245.4 0.36198 -0.564988 0
M  V30 34762 H 3247.94 0.509505 -1.98051 0
M  V30 34763 H 3246.1 2.93031 -2.534 0
M  V30 34764 H 3246.51 2.37445 -4.67675 0
M  V30 34765 H 3247.99 3.90089 -3.90557 0
M  V30 34766 H 3248.46 3.79389 -2.21271 0
M  V30 34767 H 3249.07 2.59008 -3.37335 0
M  V30 34768 N 3247.39 1.4186 0.686559 0
M  V30 34769 C 3248.33 1.44633 1.82165 0
M  V30 34770 C 3249.33 0.323343 1.66285 0
M  V30 34771 O 3250.53 0.495803 1.73037 0
M  V30 34772 H 3246.91 0.452734 0.600446 0
M  V30 34773 H 3248.88 2.40279 1.76942 0
M  V30 34774 C 3247.63 1.35418 3.20246 0
M  V30 34775 H 3246.95 2.2112 3.33085 0
M  V30 34776 H 3248.39 1.4142 3.9972 0
M  V30 34777 C 3246.85 0.0675564 3.36832 0
M  V30 34778 O 3247.38 -0.884257 3.91847 0
M  V30 34779 N 3245.59 -0.0114679 2.90598 0
M  V30 34780 H 3245.13 0.763853 2.46014 0
M  V30 34781 H 3245.09 -0.871721 3.02073 0
M  V30 34782 N 3248.86 -0.921712 1.27837 0
M  V30 34783 C 3249.8 -2.02401 1.054 0
M  V30 34784 C 3250.77 -1.62577 -0.0274618 0
M  V30 34785 O 3251.96 -1.88125 0.118883 0
M  V30 34786 C 3249.09 -3.33342 0.600074 0
M  V30 34787 C 3248.13 -3.92147 1.677 0
M  V30 34788 S 3248.96 -4.23988 3.271 0
M  V30 34789 C 3250.12 -5.58001 2.83523 0
M  V30 34790 H 3250.35 -2.21122 1.98727 0
M  V30 34791 H 3247.89 -1.06558 1.11735 0
M  V30 34792 H 3249.84 -4.09049 0.344865 0
M  V30 34793 H 3248.51 -3.12534 -0.313233 0
M  V30 34794 H 3247.7 -4.86655 1.31083 0
M  V30 34795 H 3247.3 -3.23047 1.88459 0
M  V30 34796 H 3249.59 -6.37553 2.29198 0
M  V30 34797 H 3250.54 -5.99523 3.76799 0
M  V30 34798 H 3250.94 -5.18809 2.22481 0
M  V30 34799 N 3250.34 -1.09956 -1.12905 0
M  V30 34800 C 3251.59 -0.838944 -1.84304 0
M  V30 34801 C 3251.92 0.635475 -1.83826 0
M  V30 34802 O 3251.17 1.48416 -1.27558 0
M  V30 34803 C 3251.47 -1.32622 -3.31883 0
M  V30 34804 C 3251.14 -2.8112 -3.52537 0
M  V30 34805 C 3249.8 -3.21674 -3.57882 0
M  V30 34806 C 3252.15 -3.76839 -3.60058 0
M  V30 34807 C 3249.48 -4.56707 -3.68288 0
M  V30 34808 C 3251.83 -5.11668 -3.71992 0
M  V30 34809 C 3250.49 -5.51803 -3.75592 0
M  V30 34810 H 3249.76 -0.306991 -0.674416 0
M  V30 34811 H 3252.41 -1.37529 -1.33259 0
M  V30 34812 H 3250.72 -0.709787 -3.85317 0
M  V30 34813 H 3252.41 -1.10112 -3.85586 0
M  V30 34814 H 3249 -2.48741 -3.49036 0
M  V30 34815 H 3253.19 -3.46618 -3.55203 0
M  V30 34816 H 3248.44 -4.87232 -3.69344 0
M  V30 34817 H 3252.62 -5.85687 -3.76755 0
M  V30 34818 H 3250.24 -6.56432 -3.83407 0
M  V30 34819 N 3251.82 1.30231 -0.887563 0
M  V30 34820 C 3252.78 2.26337 -0.361135 0
M  V30 34821 C 3253.78 1.52899 0.497844 0
M  V30 34822 O 3254.97 1.71516 0.30463 0
M  V30 34823 C 3252.1 3.37431 0.485076 0
M  V30 34824 H 3253.3 2.74416 -1.20978 0
M  V30 34825 H 3250.85 1.41464 -0.664644 0
M  V30 34826 H 3251.59 2.94672 1.3542 0
M  V30 34827 H 3251.37 3.91884 -0.130242 0
M  V30 34828 H 3252.86 4.0896 0.845097 0
M  V30 34829 N 3253.3 0.648782 1.43627 0
M  V30 34830 C 3254.53 0.167981 2.06217 0
M  V30 34831 C 3254.94 -1.16459 1.48602 0
M  V30 34832 O 3254.3 -1.71803 0.615621 0
M  V30 34833 C 3254.35 0.066075 3.6144 0
M  V30 34834 O 3254.07 1.34597 4.16912 0
M  V30 34835 C 3255.57 -0.441331 4.41098 0
M  V30 34836 H 3252.79 0.0878354 0.665226 0
M  V30 34837 H 3255.34 0.888177 1.84206 0
M  V30 34838 H 3253.49 -0.604655 3.82652 0
M  V30 34839 H 3253.9 1.20227 5.10535 0
M  V30 34840 H 3255.38 -0.4616 5.50067 0
M  V30 34841 H 3255.86 -1.4718 4.13805 0
M  V30 34842 H 3256.46 0.196754 4.24845 0
M  V30 34843 N 3254.78 -1.52688 0.390421 0
M  V30 34844 C 3256.02 -2.02565 -0.184159 0
M  V30 34845 C 3256.38 -1.27174 -1.44377 0
M  V30 34846 O 3255.67 -0.363983 -1.88111 0
M  V30 34847 C 3255.86 -3.5382 -0.504618 0
M  V30 34848 C 3255.69 -4.4386 0.722382 0
M  V30 34849 C 3254.46 -4.89799 1.24198 0
M  V30 34850 C 3256.66 -4.88941 1.59503 0
M  V30 34851 N 3254.64 -5.63913 2.42641 0
M  V30 34852 C 3256.01 -5.61648 2.62587 0
M  V30 34853 C 3258.07 -4.7098 1.61499 0
M  V30 34854 C 3256.77 -6.18301 3.67555 0
M  V30 34855 C 3258.8 -5.28517 2.65374 0
M  V30 34856 C 3258.16 -6.0113 3.67181 0
M  V30 34857 H 3254.26 -0.781445 -0.0294468 0
M  V30 34858 H 3256.84 -1.87045 0.540563 0
M  V30 34859 H 3255.01 -3.6945 -1.19839 0
M  V30 34860 H 3256.75 -3.90396 -1.06645 0
M  V30 34861 H 3253.5 -4.66746 0.802813 0
M  V30 34862 H 3253.93 -6.05622 3.02575 0
M  V30 34863 H 3258.57 -4.14344 0.841363 0
M  V30 34864 H 3256.29 -6.74019 4.45784 0
M  V30 34865 H 3259.87 -5.165 2.67804 0
M  V30 34866 H 3258.75 -6.44857 4.46239 0
M  V30 34867 N 3256.25 -0.120276 -1.5714 0
M  V30 34868 C 3257.48 0.548419 -2.00018 0
M  V30 34869 C 3257.9 1.5935 -0.999461 0
M  V30 34870 O 3257.26 1.81277 0.028666 0
M  V30 34871 C 3257.31 1.15009 -3.41768 0
M  V30 34872 O 3256.41 2.2656 -3.44593 0
M  V30 34873 H 3255.76 0.136864 -0.649742 0
M  V30 34874 H 3258.29 -0.209127 -2.03528 0
M  V30 34875 H 3258.3 1.48531 -3.80003 0
M  V30 34876 H 3256.97 0.384608 -4.14118 0
M  V30 34877 H 3255.55 1.94467 -3.18177 0
M  V30 34878 N 3257.73 1.56851 0.153498 0
M  V30 34879 C 3259.14 1.72499 0.714216 0
M  V30 34880 C 3259.49 0.733653 1.81967 0
M  V30 34881 O 3258.62 -0.101142 2.16164 0
M  V30 34882 C 3259.21 3.1277 1.30233 0
M  V30 34883 C 3257.77 3.30042 1.80968 0
M  V30 34884 C 3256.92 2.68434 0.69559 0
M  V30 34885 H 3259.87 1.58536 -0.0721011 0
M  V30 34886 H 3259.89 3.12409 2.17212 0
M  V30 34887 H 3259.4 3.84898 0.497537 0
M  V30 34888 H 3257.51 2.629 2.64035 0
M  V30 34889 H 3257.62 4.37938 1.94287 0
M  V30 34890 H 3255.98 2.28725 1.12057 0
M  V30 34891 H 3256.77 3.43161 -0.0976488 0
M  V30 34892 N 3259.21 -0.42264 1.51827 0
M  V30 34893 C 3260.44 -1.19745 1.69339 0
M  V30 34894 C 3260.86 -1.83877 0.396344 0
M  V30 34895 O 3260.22 -1.69441 -0.644946 0
M  V30 34896 C 3260.27 -2.24632 2.82086 0
M  V30 34897 O 3259.37 -3.30464 2.46713 0
M  V30 34898 H 3258.71 -0.35017 0.56416 0
M  V30 34899 H 3261.24 -0.497254 1.98465 0
M  V30 34900 H 3261.25 -2.69181 3.06603 0
M  V30 34901 H 3259.93 -1.77335 3.76198 0
M  V30 34902 H 3258.5 -2.91289 2.32821 0
M  V30 34903 N 3260.69 -1.42222 -0.679027 0
M  V30 34904 C 3261.64 -1.45369 -1.79267 0
M  V30 34905 C 3262.61 -0.306118 -1.63255 0
M  V30 34906 O 3263.79 -0.50958 -1.83869 0
M  V30 34907 C 3260.93 -1.35772 -3.1727 0
M  V30 34908 C 3260.04 -2.60531 -3.44598 0
M  V30 34909 C 3259.18 -2.43107 -4.72306 0
M  V30 34910 C 3258.22 -3.6326 -4.92655 0
M  V30 34911 N 3257.35 -3.44804 -6.116 0
M  V30 34912 H 3262.19 -2.40539 -1.75912 0
M  V30 34913 H 3259.73 -1.19427 -0.858815 0
M  V30 34914 H 3261.69 -1.28207 -3.97012 0
M  V30 34915 H 3260.32 -0.441995 -3.1976 0
M  V30 34916 H 3259.37 -2.7848 -2.59139 0
M  V30 34917 H 3260.68 -3.49857 -3.5553 0
M  V30 34918 H 3259.84 -2.33103 -5.60132 0
M  V30 34919 H 3258.58 -1.51263 -4.63649 0
M  V30 34920 H 3257.58 -3.737 -4.03272 0
M  V30 34921 H 3258.81 -4.56079 -5.03159 0
M  V30 34922 H 3256.75 -2.55674 -6.04125 0
M  V30 34923 H 3256.67 -4.27716 -6.23374 0
M  V30 34924 H 3257.94 -3.38604 -7.02116 0
M  V30 34925 N 3262.17 0.91492 -1.28324 0
M  V30 34926 C 3263.13 1.99875 -1.12173 0
M  V30 34927 C 3264.13 1.60681 -0.0617534 0
M  V30 34928 O 3265.32 1.71466 -0.307435 0
M  V30 34929 C 3262.45 3.33381 -0.712018 0
M  V30 34930 H 3263.64 2.15632 -2.08429 0
M  V30 34931 H 3261.2 1.09743 -1.11293 0
M  V30 34932 H 3261.93 3.23324 0.251361 0
M  V30 34933 H 3261.72 3.63189 -1.4777 0
M  V30 34934 H 3263.21 4.12947 -0.621631 0
M  V30 34935 N 3263.64 1.10553 1.1232 0
M  V30 34936 C 3265.06 0.837567 1.35856 0
M  V30 34937 C 3265.26 -0.542376 1.94063 0
M  V30 34938 O 3264.32 -1.29501 2.16762 0
M  V30 34939 C 3265.63 1.93824 2.29897 0
M  V30 34940 C 3267.18 1.96683 2.43485 0
M  V30 34941 C 3267.65 3.05928 3.40841 0
M  V30 34942 N 3269.14 3.05242 3.48398 0
M  V30 34943 C 3269.88 3.86412 4.23643 0
M  V30 34944 N 3269.37 4.77521 5.01942 0
M  V30 34945 N 3271.17 3.74625 4.19061 0
M  V30 34946 H 3263.32 1.99499 0.728967 0
M  V30 34947 H 3265.58 0.867022 0.383375 0
M  V30 34948 H 3265.29 2.93153 1.94304 0
M  V30 34949 H 3265.16 1.82647 3.3003 0
M  V30 34950 H 3267.55 0.979862 2.78357 0
M  V30 34951 H 3267.63 2.11937 1.43235 0
M  V30 34952 H 3267.27 4.04845 3.06697 0
M  V30 34953 H 3267.2 2.87915 4.40922 0
M  V30 34954 H 3269.69 2.39225 2.92541 0
M  V30 34955 H 3270.01 5.36011 5.56697 0
M  V30 34956 H 3268.35 4.81549 5.01135 0
M  V30 34957 H 3271.54 3.02799 3.56974 0
M  V30 34958 H 3271.72 4.38119 4.77447 0
M  V30 34959 N 3265.12 -1.29758 0.894457 0
M  V30 34960 C 3266.05 -2.30308 0.384741 0
M  V30 34961 C 3267.03 -1.61386 -0.537457 0
M  V30 34962 O 3268.22 -1.88931 -0.449299 0
M  V30 34963 C 3265.35 -3.45066 -0.39325 0
M  V30 34964 C 3264.3 -4.25752 0.438043 0
M  V30 34965 C 3263.63 -5.32656 -0.467127 0
M  V30 34966 C 3264.93 -4.94367 1.68519 0
M  V30 34967 H 3266.62 -2.73192 1.22501 0
M  V30 34968 H 3264.17 -1.31336 0.590494 0
M  V30 34969 H 3266.12 -4.1448 -0.760541 0
M  V30 34970 H 3264.85 -3.01012 -1.26725 0
M  V30 34971 H 3263.5 -3.5804 0.787596 0
M  V30 34972 H 3263.15 -4.84847 -1.33911 0
M  V30 34973 H 3262.85 -5.87538 0.0853515 0
M  V30 34974 H 3264.38 -6.04923 -0.830726 0
M  V30 34975 H 3265.79 -5.56246 1.38794 0
M  V30 34976 H 3264.19 -5.59158 2.17859 0
M  V30 34977 H 3265.26 -4.19953 2.42419 0
M  V30 34978 N 3266.6 -0.65639 -1.4328 0
M  V30 34979 C 3267.55 0.0556669 -2.27932 0
M  V30 34980 C 3268.53 0.791673 -1.40076 0
M  V30 34981 O 3269.73 0.673617 -1.63681 0
M  V30 34982 C 3266.86 1.01917 -3.27823 0
M  V30 34983 C 3265.94 0.28147 -4.23165 0
M  V30 34984 N 3266.33 -0.703717 -5.00881 0
M  V30 34985 C 3264.63 0.522481 -4.42929 0
M  V30 34986 C 3265.33 -1.14187 -5.70382 0
M  V30 34987 N 3264.31 -0.475489 -5.41516 0
M  V30 34988 H 3268.11 -0.70027 -2.85436 0
M  V30 34989 H 3265.62 -0.48393 -1.55022 0
M  V30 34990 H 3267.62 1.54411 -3.8725 0
M  V30 34991 H 3266.28 1.77513 -2.71881 0
M  V30 34992 H 3267.29 -1.08256 -5.06459 0
M  V30 34993 H 3263.97 1.25937 -3.98053 0
M  V30 34994 H 3265.36 -1.95722 -6.42762 0
M  V30 34995 N 3268.08 1.52478 -0.398513 0
M  V30 34996 C 3269.01 2.29628 0.423458 0
M  V30 34997 C 3269.99 1.33395 1.05545 0
M  V30 34998 O 3271.18 1.62296 1.06647 0
M  V30 34999 C 3268.31 3.10989 1.54607 0
M  V30 35000 C 3267.26 4.15181 1.03964 0
M  V30 35001 C 3266.59 4.84822 2.25503 0
M  V30 35002 C 3267.89 5.22202 0.101118 0
M  V30 35003 H 3269.58 2.98589 -0.220275 0
M  V30 35004 H 3267.13 1.43599 -0.10738 0
M  V30 35005 H 3269.08 3.63723 2.128 0
M  V30 35006 H 3267.8 2.39778 2.21752 0
M  V30 35007 H 3266.46 3.63442 0.480187 0
M  V30 35008 H 3266.11 4.10151 2.91179 0
M  V30 35009 H 3265.81 5.55251 1.92275 0
M  V30 35010 H 3267.33 5.40364 2.84322 0
M  V30 35011 H 3268.75 5.7024 0.591516 0
M  V30 35012 H 3267.14 5.99932 -0.141842 0
M  V30 35013 H 3268.21 4.7744 -0.8473 0
M  V30 35014 N 3269.56 0.128608 1.57074 0
M  V30 35015 C 3270.49 -0.84867 2.12909 0
M  V30 35016 C 3271.5 -1.22341 1.07408 0
M  V30 35017 O 3272.69 -1.17069 1.34748 0
M  V30 35018 C 3269.79 -2.14755 2.62171 0
M  V30 35019 C 3268.96 -1.94302 3.91874 0
M  V30 35020 C 3268.02 -3.08008 4.26635 0
M  V30 35021 O 3267.05 -2.80502 4.95285 0
M  V30 35022 N 3268.25 -4.347 3.84729 0
M  V30 35023 H 3271.02 -0.371584 2.97388 0
M  V30 35024 H 3268.58 -0.055529 1.61805 0
M  V30 35025 H 3270.57 -2.89836 2.82449 0
M  V30 35026 H 3269.14 -2.53783 1.82519 0
M  V30 35027 H 3268.36 -1.03361 3.80408 0
M  V30 35028 H 3269.65 -1.77953 4.76666 0
M  V30 35029 H 3269.05 -4.5992 3.29378 0
M  V30 35030 H 3267.6 -5.0662 4.10096 0
M  V30 35031 N 3271.04 -1.5693 -0.145178 0
M  V30 35032 C 3272.28 -1.83086 -0.85579 0
M  V30 35033 C 3272.6 -0.709779 -1.81624 0
M  V30 35034 O 3271.87 0.268422 -1.94052 0
M  V30 35035 H 3270.45 -0.675452 -0.31902 0
M  V30 35036 H 3273.12 -1.94406 -0.138746 0
M  V30 35037 H 3272.21 -2.78082 -1.41693 0
M  V30 35038 N 3272.51 0.414582 -1.52049 0
M  V30 35039 C 3273.93 0.752798 -1.40731 0
M  V30 35040 C 3274.13 1.95004 -0.507502 0
M  V30 35041 O 3273.19 2.52484 0.0287745 0
M  V30 35042 C 3274.5 1.01184 -2.83165 0
M  V30 35043 C 3276.05 1.11489 -2.92471 0
M  V30 35044 C 3276.52 1.40673 -4.35861 0
M  V30 35045 N 3278.01 1.47549 -4.39071 0
M  V30 35046 C 3278.75 1.71746 -5.47075 0
M  V30 35047 N 3278.24 1.93584 -6.65205 0
M  V30 35048 N 3280.04 1.73716 -5.34583 0
M  V30 35049 H 3272.19 -0.373586 -2.09089 0
M  V30 35050 H 3274.45 -0.104831 -0.942186 0
M  V30 35051 H 3274.16 0.204547 -3.51105 0
M  V30 35052 H 3274.03 1.93347 -3.23878 0
M  V30 35053 H 3276.42 1.91278 -2.24715 0
M  V30 35054 H 3276.5 0.171749 -2.55223 0
M  V30 35055 H 3276.14 0.614031 -5.04175 0
M  V30 35056 H 3276.07 2.3623 -4.70641 0
M  V30 35057 H 3278.56 1.32485 -3.53915 0
M  V30 35058 H 3278.88 2.11482 -7.433 0
M  V30 35059 H 3277.22 1.9086 -6.6828 0
M  V30 35060 H 3280.41 1.5619 -4.41273 0
M  V30 35061 H 3280.59 1.92235 -6.18829 0
M  V30 35062 N 3273.99 1.4258 0.671475 0
M  V30 35063 C 3275.22 1.46839 1.46469 0
M  V30 35064 C 3275.64 0.0820988 1.87921 0
M  V30 35065 O 3275 -0.920189 1.56212 0
M  V30 35066 C 3275.05 2.40382 2.68792 0
M  V30 35067 O 3274.15 1.87748 3.67185 0
M  V30 35068 H 3273.49 0.497384 0.439892 0
M  V30 35069 H 3276.02 1.87304 0.823309 0
M  V30 35070 H 3276.03 2.57074 3.16823 0
M  V30 35071 H 3274.71 3.41097 2.37961 0
M  V30 35072 H 3273.28 1.80627 3.26233 0
M  V30 35073 N 3275.47 -0.908102 1.28807 0
M  V30 35074 C 3276.42 -2.03259 1.13086 0
M  V30 35075 C 3277.41 -1.6933 0.0486392 0
M  V30 35076 O 3278.62 -1.78796 0.207825 0
M  V30 35077 H 3274.99 -0.666074 0.349069 0
M  V30 35078 H 3276.96 -2.13659 2.08308 0
M  V30 35079 C 3275.71 -3.38004 0.815398 0
M  V30 35080 H 3275.04 -3.64609 1.64014 0
M  V30 35081 H 3276.48 -4.17397 0.745385 0
M  V30 35082 C 3274.93 -3.33448 -0.481072 0
M  V30 35083 O 3275.46 -3.72252 -1.50968 0
M  V30 35084 N 3273.67 -2.86543 -0.483862 0
M  V30 35085 H 3273.22 -2.55161 0.353638 0
M  V30 35086 H 3273.18 -2.83878 -1.35133 0
M  V30 35087 N 3276.95 -1.11147 -1.11732 0
M  V30 35088 C 3277.91 -0.770341 -2.15867 0
M  V30 35089 C 3278.91 0.208814 -1.59438 0
M  V30 35090 O 3280.1 -0.0152822 -1.74193 0
M  V30 35091 C 3277.23 -0.142362 -3.40603 0
M  V30 35092 H 3278.43 -1.6928 -2.47557 0
M  V30 35093 H 3275.98 -0.912951 -1.26866 0
M  V30 35094 H 3276.71 0.79047 -3.14519 0
M  V30 35095 H 3276.5 -0.847154 -3.82839 0
M  V30 35096 H 3277.99 0.0802874 -4.17523 0
M  V30 35097 N 3278.43 1.29282 -0.901326 0
M  V30 35098 C 3279.67 1.96148 -0.538275 0
M  V30 35099 C 3280.03 1.69745 0.905774 0
M  V30 35100 O 3279.32 1.00086 1.63381 0
M  V30 35101 C 3279.51 3.49031 -0.76889 0
M  V30 35102 C 3279.34 3.90296 -2.2338 0
M  V30 35103 C 3278.11 4.15084 -2.88155 0
M  V30 35104 C 3280.31 4.01894 -3.20914 0
M  V30 35105 N 3278.29 4.42929 -4.25073 0
M  V30 35106 C 3279.66 4.33809 -4.42955 0
M  V30 35107 C 3281.72 3.84374 -3.16482 0
M  V30 35108 C 3280.42 4.50032 -5.61128 0
M  V30 35109 C 3282.45 4.01807 -4.33941 0
M  V30 35110 C 3281.81 4.34084 -5.54753 0
M  V30 35111 H 3277.91 0.742098 -0.246606 0
M  V30 35112 H 3280.49 1.56188 -1.16247 0
M  V30 35113 H 3278.66 3.8801 -0.174058 0
M  V30 35114 H 3280.4 4.02995 -0.371111 0
M  V30 35115 H 3277.15 4.08905 -2.38942 0
M  V30 35116 H 3277.57 4.60958 -4.9583 0
M  V30 35117 H 3282.22 3.58482 -2.24166 0
M  V30 35118 H 3279.93 4.74759 -6.53934 0
M  V30 35119 H 3283.52 3.89702 -4.32 0
M  V30 35120 H 3282.4 4.47291 -6.44128 0
M  V30 35121 N 3279.9 0.663979 1.4293 0
M  V30 35122 C 3281.32 0.332523 1.56098 0
M  V30 35123 C 3281.52 -1.16276 1.64567 0
M  V30 35124 O 3280.58 -1.94791 1.60664 0
M  V30 35125 C 3281.89 1.05334 2.81648 0
M  V30 35126 C 3283.44 1.03462 2.95406 0
M  V30 35127 C 3283.91 1.73654 4.23802 0
M  V30 35128 N 3285.4 1.7047 4.3069 0
M  V30 35129 C 3286.14 2.21647 5.28829 0
M  V30 35130 N 3285.63 2.81158 6.33184 0
M  V30 35131 N 3287.43 2.12084 5.20554 0
M  V30 35132 H 3279.58 1.63418 1.35677 0
M  V30 35133 H 3281.84 0.687855 0.652349 0
M  V30 35134 H 3281.55 2.10847 2.8149 0
M  V30 35135 H 3281.42 0.611691 3.72207 0
M  V30 35136 H 3283.81 -0.0121417 2.95098 0
M  V30 35137 H 3283.89 1.51505 2.06106 0
M  V30 35138 H 3283.53 2.78293 4.24871 0
M  V30 35139 H 3283.46 1.23069 5.12017 0
M  V30 35140 H 3285.95 1.27052 3.55902 0
M  V30 35141 H 3286.27 3.17857 7.04405 0
M  V30 35142 H 3284.61 2.85223 6.33776 0
M  V30 35143 H 3287.8 1.65287 4.37947 0
M  V30 35144 H 3287.98 2.52275 5.96876 0
M  V30 35145 N 3281.38 -1.52265 0.406593 0
M  V30 35146 C 3282.79 -1.86592 -0.0635742 0
M  V30 35147 C 3283.14 -1.32547 -1.44657 0
M  V30 35148 O 3282.27 -0.663728 -2.0597 0
M  V30 35149 C 3282.86 -3.3858 -0.122138 0
M  V30 35150 C 3281.42 -3.72555 -0.536636 0
M  V30 35151 C 3280.57 -2.75774 0.29047 0
M  V30 35152 H 3283.52 -1.45928 0.623764 0
M  V30 35153 H 3283.54 -3.6876 -0.937899 0
M  V30 35154 H 3283.05 -3.77885 0.884561 0
M  V30 35155 H 3281.15 -3.38827 -1.55007 0
M  V30 35156 H 3281.27 -4.78265 -0.282783 0
M  V30 35157 H 3279.63 -2.53501 -0.246819 0
M  V30 35158 H 3280.41 -3.17919 1.29547 0
M  V30 35159 N 3282.86 -0.136936 -1.57004 0
M  V30 35160 C 3283.79 0.837367 -2.13356 0
M  V30 35161 C 3284.81 1.2177 -1.08055 0
M  V30 35162 O 3285.99 1.16353 -1.35367 0
M  V30 35163 C 3283.09 2.13362 -2.63306 0
M  V30 35164 C 3282.27 1.92222 -3.92899 0
M  V30 35165 C 3281.33 3.05741 -4.28262 0
M  V30 35166 O 3280.35 2.77871 -4.96766 0
M  V30 35167 N 3281.55 4.32653 -3.87029 0
M  V30 35168 H 3284.32 0.355807 -2.9758 0
M  V30 35169 H 3281.88 0.0469473 -1.61832 0
M  V30 35170 H 3283.87 2.88334 -2.83982 0
M  V30 35171 H 3282.44 2.52811 -1.83862 0
M  V30 35172 H 3281.66 1.01342 -3.80951 0
M  V30 35173 H 3282.95 1.75423 -4.77603 0
M  V30 35174 H 3282.35 4.58167 -3.31812 0
M  V30 35175 H 3280.91 5.04439 -4.12777 0
M  V30 35176 N 3284.34 1.57005 0.136853 0
M  V30 35177 C 3285.58 1.84173 0.848999 0
M  V30 35178 C 3285.92 0.720059 1.80357 0
M  V30 35179 O 3285.19 -0.27555 1.92538 0
M  V30 35180 C 3285.48 3.21874 1.61459 0
M  V30 35181 C 3285.33 4.44618 0.680824 0
M  V30 35182 C 3286.65 3.56919 2.57482 0
M  V30 35183 H 3283.77 0.669925 0.307197 0
M  V30 35184 H 3286.41 1.89659 0.113828 0
M  V30 35185 H 3284.56 3.17329 2.24131 0
M  V30 35186 H 3286.23 4.61255 0.0643284 0
M  V30 35187 H 3284.47 4.33799 -0.00891254 0
M  V30 35188 H 3285.14 5.37596 1.25277 0
M  V30 35189 H 3287.62 3.6214 2.04924 0
M  V30 35190 H 3286.5 4.5428 3.08093 0
M  V30 35191 H 3286.76 2.83403 3.39316 0
M  V30 35192 N 3285.82 -0.406513 1.52267 0
M  V30 35193 C 3286.76 -1.51597 1.76412 0
M  V30 35194 C 3287.76 -1.57196 0.631338 0
M  V30 35195 O 3288.96 -1.60571 0.813441 0
M  V30 35196 H 3285.34 -0.50422 0.557913 0
M  V30 35197 H 3287.31 -1.28419 2.69353 0
M  V30 35198 C 3286.06 -2.88936 1.9342 0
M  V30 35199 H 3285.38 -2.85372 2.80005 0
M  V30 35200 H 3286.82 -3.6585 2.14312 0
M  V30 35201 C 3285.28 -3.29505 0.701996 0
M  V30 35202 O 3285.81 -4.01493 -0.128895 0
M  V30 35203 N 3284.02 -2.85593 0.53714 0
M  V30 35204 H 3283.56 -2.27179 1.21439 0
M  V30 35205 H 3283.52 -3.13096 -0.286 0
M  V30 35206 N 3287.29 -1.42934 -0.663904 0
M  V30 35207 C 3288.24 -1.47513 -1.79841 0
M  V30 35208 C 3289.24 -0.349756 -1.6575 0
M  V30 35209 O 3290.44 -0.523269 -1.72226 0
M  V30 35210 H 3286.82 -0.462229 -0.593168 0
M  V30 35211 H 3288.79 -2.43064 -1.73097 0
M  V30 35212 C 3287.54 -1.40496 -3.18051 0
M  V30 35213 H 3286.86 -2.26392 -3.29525 0
M  V30 35214 H 3288.3 -1.47761 -3.9742 0
M  V30 35215 C 3286.76 -0.121135 -3.36682 0
M  V30 35216 O 3287.29 0.821805 -3.93204 0
M  V30 35217 N 3285.5 -0.0347651 -2.90579 0
M  V30 35218 H 3285.04 -0.802895 -2.44768 0
M  V30 35219 H 3285 0.823553 -3.03422 0
M  V30 35220 N 3288.77 0.901258 -1.29287 0
M  V30 35221 C 3290.18 1.46684 -1.15501 0
M  V30 35222 C 3290.53 1.94595 0.250412 0
M  V30 35223 O 3289.66 1.83578 1.14578 0
M  V30 35224 C 3290.25 2.66603 -2.09065 0
M  V30 35225 C 3288.81 3.19302 -1.99307 0
M  V30 35226 C 3287.96 1.91996 -2.00082 0
M  V30 35227 H 3290.91 0.712748 -1.41794 0
M  V30 35228 H 3290.93 3.42285 -1.66196 0
M  V30 35229 H 3290.44 2.31702 -3.11345 0
M  V30 35230 H 3288.55 3.589 -1.00109 0
M  V30 35231 H 3288.66 3.83705 -2.86892 0
M  V30 35232 H 3287.02 2.09633 -1.44658 0
M  V30 35233 H 3287.81 1.59374 -3.04064 0
M  V30 35234 N 3290.25 1.11738 1.11141 0
M  V30 35235 C 3291.2 0.778551 2.17272 0
M  V30 35236 C 3292.17 -0.251376 1.64187 0
M  V30 35237 O 3293.35 -0.127595 1.90373 0
M  V30 35238 C 3290.49 0.231306 3.44324 0
M  V30 35239 C 3289.61 1.31817 4.11398 0
M  V30 35240 C 3288.74 0.731132 5.26144 0
M  V30 35241 C 3287.78 1.79763 5.85108 0
M  V30 35242 N 3286.92 1.22985 6.91245 0
M  V30 35243 H 3291.76 1.68774 2.456 0
M  V30 35244 H 3289.29 0.84278 1.20564 0
M  V30 35245 H 3291.25 -0.103971 4.1707 0
M  V30 35246 H 3289.88 -0.641064 3.1637 0
M  V30 35247 H 3288.93 1.77035 3.36694 0
M  V30 35248 H 3290.25 2.12493 4.51274 0
M  V30 35249 H 3289.4 0.346093 6.05712 0
M  V30 35250 H 3288.14 -0.106914 4.87583 0
M  V30 35251 H 3287.14 2.19194 5.04216 0
M  V30 35252 H 3288.37 2.63876 6.25737 0
M  V30 35253 H 3286.31 0.413505 6.54695 0
M  V30 35254 H 3286.23 1.97329 7.29793 0
M  V30 35255 H 3287.5 0.871806 7.74609 0
M  V30 35256 N 3291.73 -1.28802 0.90817 0
M  V30 35257 C 3292.64 -2.31213 0.397208 0
M  V30 35258 C 3293.65 -1.66287 -0.512322 0
M  V30 35259 O 3294.83 -1.97391 -0.399859 0
M  V30 35260 C 3291.9 -3.44832 -0.359462 0
M  V30 35261 C 3290.96 -4.25328 0.582613 0
M  V30 35262 C 3290.19 -5.33521 -0.13804 0
M  V30 35263 O 3290.41 -5.53933 -1.36066 0
M  V30 35264 O 3289.35 -5.99617 0.523787 0
M  V30 35265 H 3293.17 -2.76916 1.24705 0
M  V30 35266 H 3290.76 -1.33394 0.67279 0
M  V30 35267 H 3292.64 -4.13985 -0.787025 0
M  V30 35268 H 3291.31 -3.01221 -1.18523 0
M  V30 35269 H 3290.22 -3.58784 1.05946 0
M  V30 35270 H 3291.55 -4.72603 1.37503 0
M  V30 35271 N 3293.21 -0.67155 -1.42576 0
M  V30 35272 C 3294.45 -0.201419 -2.024 0
M  V30 35273 C 3294.81 1.17783 -1.52135 0
M  V30 35274 O 3294.1 1.77862 -0.712436 0
M  V30 35275 C 3294.29 -0.17216 -3.56985 0
M  V30 35276 C 3294.12 -1.54703 -4.22252 0
M  V30 35277 C 3292.89 -2.14399 -4.5756 0
M  V30 35278 C 3295.09 -2.48907 -4.50055 0
M  V30 35279 N 3293.07 -3.447 -5.07991 0
M  V30 35280 C 3294.44 -3.6386 -5.02002 0
M  V30 35281 C 3296.5 -2.47478 -4.3204 0
M  V30 35282 C 3295.2 -4.77633 -5.37828 0
M  V30 35283 C 3297.23 -3.60345 -4.68941 0
M  V30 35284 C 3296.59 -4.74025 -5.21037 0
M  V30 35285 H 3292.69 -0.118553 -0.772961 0
M  V30 35286 H 3295.27 -0.883833 -1.73483 0
M  V30 35287 H 3293.44 0.479655 -3.85427 0
M  V30 35288 H 3295.18 0.310549 -4.03507 0
M  V30 35289 H 3291.93 -1.66921 -4.43209 0
M  V30 35290 H 3292.36 -4.11428 -5.37639 0
M  V30 35291 H 3297 -1.60817 -3.91021 0
M  V30 35292 H 3294.72 -5.64972 -5.77782 0
M  V30 35293 H 3298.3 -3.60463 -4.56681 0
M  V30 35294 H 3297.18 -5.59916 -5.49058 0
M  V30 35295 N 3294.68 1.52047 -0.414663 0
M  V30 35296 C 3295.61 2.30064 0.399079 0
M  V30 35297 C 3296.6 1.34507 1.04124 0
M  V30 35298 O 3297.78 1.63418 1.0492 0
M  V30 35299 C 3294.91 3.12611 1.513 0
M  V30 35300 C 3293.86 4.16261 0.995548 0
M  V30 35301 C 3293.19 4.87186 2.20348 0
M  V30 35302 C 3294.49 5.2228 0.045726 0
M  V30 35303 H 3296.18 2.98338 -0.251932 0
M  V30 35304 H 3293.73 1.43477 -0.122604 0
M  V30 35305 H 3295.68 3.65959 2.0893 0
M  V30 35306 H 3294.41 2.42117 2.19197 0
M  V30 35307 H 3293.07 3.6393 0.441612 0
M  V30 35308 H 3292.71 4.13216 2.86813 0
M  V30 35309 H 3292.41 5.57259 1.86375 0
M  V30 35310 H 3293.94 5.43349 2.78575 0
M  V30 35311 H 3295.35 5.70836 0.531001 0
M  V30 35312 H 3293.75 5.99748 -0.205465 0
M  V30 35313 H 3294.82 4.76514 -0.897891 0
M  V30 35314 N 3296.16 0.145261 1.56929 0
M  V30 35315 C 3297.09 -0.826041 2.13797 0
M  V30 35316 C 3298.11 -1.21195 1.08699 0
M  V30 35317 O 3299.3 -1.15633 1.35983 0
M  V30 35318 C 3296.4 -2.11962 2.64434 0
M  V30 35319 C 3295.57 -1.90135 3.93913 0
M  V30 35320 C 3294.63 -3.03466 4.29878 0
M  V30 35321 O 3293.65 -2.75233 4.98232 0
M  V30 35322 N 3294.86 -4.30595 3.89318 0
M  V30 35323 H 3297.62 -0.340021 2.97765 0
M  V30 35324 H 3295.18 -0.0383643 1.61855 0
M  V30 35325 H 3297.17 -2.86824 2.85507 0
M  V30 35326 H 3295.74 -2.51833 1.852 0
M  V30 35327 H 3294.96 -0.993201 3.81483 0
M  V30 35328 H 3296.25 -1.72888 4.78526 0
M  V30 35329 H 3295.65 -4.56401 3.34237 0
M  V30 35330 H 3294.21 -5.02242 4.15447 0
M  V30 35331 N 3297.64 -1.57075 -0.128525 0
M  V30 35332 C 3298.89 -1.84621 -0.83922 0
M  V30 35333 C 3299.22 -0.729613 -1.79973 0
M  V30 35334 O 3298.5 0.265335 -1.92682 0
M  V30 35335 C 3298.78 -3.22726 -1.5975 0
M  V30 35336 C 3298.63 -4.44972 -0.657235 0
M  V30 35337 C 3299.95 -3.58279 -2.55585 0
M  V30 35338 H 3297.07 -0.671544 -0.30364 0
M  V30 35339 H 3299.71 -1.89716 -0.103769 0
M  V30 35340 H 3297.86 -3.18513 -2.22445 0
M  V30 35341 H 3299.53 -4.61283 -0.039866 0
M  V30 35342 H 3297.78 -4.33788 0.0319178 0
M  V30 35343 H 3298.45 -5.38253 -1.22424 0
M  V30 35344 H 3300.92 -3.63222 -2.03001 0
M  V30 35345 H 3299.8 -4.55907 -3.05679 0
M  V30 35346 H 3300.06 -2.85199 -3.37808 0
M  V30 35347 N 3299.12 0.398432 -1.5248 0
M  V30 35348 C 3300.4 1.15803 -1.57636 0
M  V30 35349 C 3300.78 2.07941 -0.363822 0
M  V30 35350 O 3300.12 2.19103 0.648559 0
M  V30 35351 C 3300.33 1.92597 -2.91045 0
M  V30 35352 C 3301.68 2.4829 -3.44438 0
M  V30 35353 O 3302.71 2.02765 -2.92857 0
M  V30 35354 O 3301.57 3.31424 -4.34535 0
M  V30 35355 H 3298.66 0.529336 -0.6354 0
M  V30 35356 H 3301.21 0.404347 -1.64812 0
M  V30 35357 H 3299.98 1.25163 -3.70742 0
M  V30 35358 H 3299.6 2.74947 -2.87211 0
M  V30 35359 N 3300.6 1.43284 0.656314 0
M  V30 35360 C 3301.84 1.44737 1.41624 0
M  V30 35361 C 3302.17 0.0705234 1.94372 0
M  V30 35362 O 3301.43 -0.924006 1.72513 0
M  V30 35363 C 3301.73 2.43426 2.61684 0
M  V30 35364 C 3301.39 3.89374 2.27373 0
M  V30 35365 C 3300.05 4.29125 2.17727 0
M  V30 35366 C 3302.41 4.8136 1.99854 0
M  V30 35367 C 3299.73 5.58818 1.78715 0
M  V30 35368 C 3302.09 6.11415 1.62342 0
M  V30 35369 C 3300.75 6.50145 1.51219 0
M  V30 35370 H 3300.02 0.52963 0.518241 0
M  V30 35371 H 3302.67 1.76344 0.74667 0
M  V30 35372 H 3300.97 2.05212 3.33759 0
M  V30 35373 H 3302.67 2.41806 3.19892 0
M  V30 35374 H 3299.26 3.57913 2.35789 0
M  V30 35375 H 3303.44 4.51423 2.06229 0
M  V30 35376 H 3298.7 5.87669 1.68687 0
M  V30 35377 H 3302.87 6.82166 1.40079 0
M  V30 35378 H 3300.5 7.50547 1.20761 0
M  V30 35379 N 3302.08 -0.894389 1.29763 0
M  V30 35380 C 3303.01 -2.00443 1.11154 0
M  V30 35381 C 3304.02 -1.62698 0.0574941 0
M  V30 35382 O 3305.21 -1.75917 0.302559 0
M  V30 35383 C 3302.31 -3.3219 0.671042 0
M  V30 35384 C 3301.48 -3.9843 1.80478 0
M  V30 35385 C 3300.54 -5.08471 1.3544 0
M  V30 35386 O 3299.57 -5.30614 2.06003 0
M  V30 35387 N 3300.77 -5.80051 0.228212 0
M  V30 35388 H 3303.53 -2.1696 2.06757 0
M  V30 35389 H 3301.1 -1.0669 1.21774 0
M  V30 35390 H 3303.09 -4.03158 0.352948 0
M  V30 35391 H 3301.66 -3.12006 -0.19268 0
M  V30 35392 H 3300.88 -3.20757 2.29148 0
M  V30 35393 H 3302.17 -4.39427 2.56479 0
M  V30 35394 H 3301.56 -5.64554 -0.359977 0
M  V30 35395 H 3300.12 -6.51793 -0.0304839 0
M  V30 35396 N 3303.55 -1.12326 -1.10547 0
M  V30 35397 C 3304.5 -0.790063 -2.16856 0
M  V30 35398 C 3305.47 0.242665 -1.64318 0
M  V30 35399 O 3306.66 0.117498 -1.90438 0
M  V30 35400 C 3303.8 -0.249563 -3.44196 0
M  V30 35401 C 3302.91 -1.33997 -4.10693 0
M  V30 35402 C 3302.04 -0.759025 -5.25749 0
M  V30 35403 C 3301.08 -1.82863 -5.84147 0
M  V30 35404 N 3300.22 -1.26649 -6.90583 0
M  V30 35405 H 3305.06 -1.70074 -2.44702 0
M  V30 35406 H 3302.6 -0.849162 -1.20115 0
M  V30 35407 H 3304.55 0.0818518 -4.1712 0
M  V30 35408 H 3303.18 0.624277 -3.16706 0
M  V30 35409 H 3302.24 -1.78818 -3.3575 0
M  V30 35410 H 3303.55 -2.14883 -4.50141 0
M  V30 35411 H 3302.7 -0.378211 -6.0552 0
M  V30 35412 H 3301.44 0.0810548 -4.87633 0
M  V30 35413 H 3300.45 -2.21865 -5.03047 0
M  V30 35414 H 3301.67 -2.67191 -6.24328 0
M  V30 35415 H 3299.62 -0.44822 -6.54467 0
M  V30 35416 H 3299.53 -2.01197 -7.28736 0
M  V30 35417 H 3300.8 -0.912873 -7.74136 0
M  V30 35418 N 3305.03 1.28319 -0.914988 0
M  V30 35419 C 3306.26 1.99045 -0.564689 0
M  V30 35420 C 3306.67 1.68365 0.854316 0
M  V30 35421 O 3306.03 0.937096 1.56604 0
M  V30 35422 C 3306.08 3.53297 -0.765725 0
M  V30 35423 O 3305.8 3.82897 -2.12889 0
M  V30 35424 C 3307.3 4.41283 -0.422425 0
M  V30 35425 H 3304.52 0.635565 -0.215169 0
M  V30 35426 H 3307.07 1.63485 -1.22853 0
M  V30 35427 H 3305.22 3.87114 -0.148863 0
M  V30 35428 H 3305.64 4.77529 -2.16948 0
M  V30 35429 H 3307.11 5.48576 -0.613853 0
M  V30 35430 H 3307.59 4.34491 0.641408 0
M  V30 35431 H 3308.19 4.12964 -1.01688 0
M  V30 35432 N 3306.51 0.679102 1.42218 0
M  V30 35433 C 3307.44 -0.0467958 2.28152 0
M  V30 35434 C 3308.42 -0.804408 1.41308 0
M  V30 35435 O 3309.6 -0.798643 1.70745 0
M  V30 35436 C 3306.73 -1.0735 3.21238 0
M  V30 35437 C 3305.78 -0.410968 4.24515 0
M  V30 35438 S 3306.61 0.834599 5.28956 0
M  V30 35439 C 3307.77 -0.190919 6.25609 0
M  V30 35440 H 3308 0.682096 2.8937 0
M  V30 35441 H 3305.53 0.468793 1.47111 0
M  V30 35442 H 3307.49 -1.66076 3.75405 0
M  V30 35443 H 3306.15 -1.77486 2.59148 0
M  V30 35444 H 3305.34 -1.18582 4.89851 0
M  V30 35445 H 3304.95 0.102807 3.73859 0
M  V30 35446 H 3307.24 -1.04932 6.69325 0
M  V30 35447 H 3308.18 0.428083 7.06805 0
M  V30 35448 H 3308.59 -0.538323 5.61927 0
M  V30 35449 N 3307.99 -1.51825 0.42272 0
M  V30 35450 C 3308.93 -2.27377 -0.396048 0
M  V30 35451 C 3309.9 -1.30352 -1.02944 0
M  V30 35452 O 3311.09 -1.59235 -1.05113 0
M  V30 35453 C 3308.23 -3.10827 -1.49936 0
M  V30 35454 C 3307.34 -4.22826 -0.885549 0
M  V30 35455 C 3306.48 -4.93611 -1.96269 0
M  V30 35456 C 3305.52 -5.97553 -1.32653 0
M  V30 35457 N 3304.65 -6.61802 -2.3444 0
M  V30 35458 H 3309.49 -2.9691 0.254623 0
M  V30 35459 H 3307.03 -1.46457 0.137409 0
M  V30 35460 H 3308.99 -3.57524 -2.15017 0
M  V30 35461 H 3307.62 -2.43437 -2.11987 0
M  V30 35462 H 3306.67 -3.802 -0.123424 0
M  V30 35463 H 3307.98 -4.97343 -0.380969 0
M  V30 35464 H 3307.14 -5.43783 -2.69045 0
M  V30 35465 H 3305.88 -4.18692 -2.50096 0
M  V30 35466 H 3304.88 -5.46688 -0.584166 0
M  V30 35467 H 3306.11 -6.74421 -0.795781 0
M  V30 35468 H 3304.05 -5.89705 -2.87375 0
M  V30 35469 H 3303.97 -7.32037 -1.88833 0
M  V30 35470 H 3305.24 -7.16609 -3.06745 0
M  V30 35471 N 3309.47 -0.153581 -1.5685 0
M  V30 35472 C 3310.71 0.496615 -1.96625 0
M  V30 35473 C 3311.04 1.64081 -1.03879 0
M  V30 35474 O 3310.32 1.94325 -0.0824454 0
M  V30 35475 C 3310.6 0.996525 -3.46037 0
M  V30 35476 C 3310.46 -0.14663 -4.49561 0
M  V30 35477 C 3311.77 1.87613 -3.98107 0
M  V30 35478 H 3308.89 0.179047 -0.71492 0
M  V30 35479 H 3311.54 -0.236137 -1.88527 0
M  V30 35480 H 3309.69 1.62094 -3.53069 0
M  V30 35481 H 3311.36 -0.783187 -4.54603 0
M  V30 35482 H 3309.6 -0.804802 -4.26269 0
M  V30 35483 H 3310.27 0.244981 -5.51456 0
M  V30 35484 H 3312.75 1.3499 -3.93595 0
M  V30 35485 H 3311.62 2.19499 -5.03102 0
M  V30 35486 H 3311.88 2.81548 -3.40857 0
M  V30 35487 N 3310.94 1.57141 0.120193 0
M  V30 35488 C 3312.17 1.88974 0.842407 0
M  V30 35489 C 3312.59 0.744701 1.73492 0
M  V30 35490 O 3311.94 -0.284525 1.80268 0
M  V30 35491 C 3311.99 3.20257 1.67683 0
M  V30 35492 O 3311.72 4.30353 0.820244 0
M  V30 35493 C 3313.22 3.65786 2.5043 0
M  V30 35494 H 3310.44 0.625752 0.24223 0
M  V30 35495 H 3312.98 2.04231 0.104942 0
M  V30 35496 H 3311.14 3.06674 2.36706 0
M  V30 35497 H 3311.55 5.0559 1.39566 0
M  V30 35498 H 3313.02 4.6041 3.0451 0
M  V30 35499 H 3313.5 2.92384 3.27732 0
M  V30 35500 H 3314.11 3.82154 1.86651 0
M  V30 35501 N 3312.42 -0.39034 1.5269 0
M  V30 35502 C 3313.67 -1.13326 1.67337 0
M  V30 35503 C 3313.99 -1.90531 0.415101 0
M  V30 35504 O 3313.26 -1.8741 -0.570471 0
M  V30 35505 H 3311.84 -0.421346 0.616828 0
M  V30 35506 H 3314.5 -0.442967 1.89799 0
M  V30 35507 H 3313.6 -1.83691 2.52317 0
M  V30 35508 N 3313.9 -1.4363 -0.648706 0
M  V30 35509 C 3315.15 -1.45701 -1.41064 0
M  V30 35510 C 3315.48 -0.0826461 -1.94024 0
M  V30 35511 O 3314.75 0.897177 -1.72572 0
M  V30 35512 C 3315.04 -2.50308 -2.58878 0
M  V30 35513 C 3314.89 -3.97037 -2.1138 0
M  V30 35514 C 3316.21 -2.51603 -3.61087 0
M  V30 35515 H 3313.33 -0.530521 -0.511582 0
M  V30 35516 H 3315.97 -1.75206 -0.735038 0
M  V30 35517 H 3314.12 -2.2528 -3.16514 0
M  V30 35518 H 3315.79 -4.33138 -1.5871 0
M  V30 35519 H 3314.04 -4.09653 -1.42713 0
M  V30 35520 H 3314.71 -4.6585 -2.96121 0
M  V30 35521 H 3317.18 -2.73922 -3.13218 0
M  V30 35522 H 3316.06 -3.2673 -4.41066 0
M  V30 35523 H 3316.32 -1.55149 -4.13982 0
M  V30 35524 N 3315.38 0.887495 -1.30236 0
M  V30 35525 C 3316.61 1.67226 -1.21832 0
M  V30 35526 C 3317.02 1.87523 0.219218 0
M  V30 35527 O 3316.38 1.42093 1.14524 0
M  V30 35528 C 3316.43 3.05004 -1.94049 0
M  V30 35529 O 3316.15 2.85625 -3.3219 0
M  V30 35530 C 3317.65 3.99433 -1.92272 0
M  V30 35531 H 3314.87 0.521909 -0.421725 0
M  V30 35532 H 3317.42 1.109 -1.71818 0
M  V30 35533 H 3315.57 3.5807 -1.47868 0
M  V30 35534 H 3315.98 3.73012 -3.68731 0
M  V30 35535 H 3317.46 4.93482 -2.47345 0
M  V30 35536 H 3317.94 4.29858 -0.901059 0
M  V30 35537 H 3318.54 3.52301 -2.38253 0
M  V30 35538 N 3316.86 1.12911 1.0995 0
M  V30 35539 C 3318.08 0.910516 1.85788 0
M  V30 35540 C 3318.5 -0.540452 1.80899 0
M  V30 35541 O 3317.86 -1.37387 1.20129 0
M  V30 35542 C 3317.91 1.38335 3.33985 0
M  V30 35543 O 3317.63 2.77745 3.38806 0
M  V30 35544 C 3319.13 1.20241 4.26681 0
M  V30 35545 H 3316.35 0.325036 0.58702 0
M  V30 35546 H 3318.89 1.50032 1.38963 0
M  V30 35547 H 3317.05 0.836658 3.78258 0
M  V30 35548 H 3317.46 2.9861 4.31199 0
M  V30 35549 H 3318.94 1.58207 5.28843 0
M  V30 35550 H 3319.41 0.143517 4.38965 0
M  V30 35551 H 3320.02 1.73686 3.88218 0
M  V30 35552 N 3318.33 -1.27832 0.92178 0
M  V30 35553 C 3319.27 -2.26134 0.373615 0
M  V30 35554 C 3320.28 -1.55175 -0.492387 0
M  V30 35555 O 3321.47 -1.75858 -0.305967 0
M  V30 35556 C 3318.57 -3.35428 -0.483852 0
M  V30 35557 C 3317.74 -4.35904 0.361488 0
M  V30 35558 C 3316.8 -5.24421 -0.432369 0
M  V30 35559 O 3315.83 -5.68981 0.15787 0
M  V30 35560 N 3317.03 -5.5401 -1.73357 0
M  V30 35561 H 3319.79 -2.73807 1.21861 0
M  V30 35562 H 3317.35 -1.41397 0.788577 0
M  V30 35563 H 3319.35 -3.91587 -1.02186 0
M  V30 35564 H 3317.92 -2.87402 -1.22958 0
M  V30 35565 H 3317.14 -3.79093 1.08083 0
M  V30 35566 H 3318.42 -5.00049 0.939616 0
M  V30 35567 H 3317.82 -5.19655 -2.23552 0
M  V30 35568 H 3316.38 -6.12893 -2.21823 0
M  V30 35569 N 3319.81 -0.686634 -1.41856 0
M  V30 35570 C 3321.06 -0.213414 -2.0097 0
M  V30 35571 C 3321.38 1.18818 -1.5462 0
M  V30 35572 O 3320.65 1.80006 -0.772948 0
M  V30 35573 H 3319.23 -0.0759099 -0.743133 0
M  V30 35574 H 3321.89 -0.885794 -1.73608 0
M  V30 35575 H 3320.99 -0.223881 -3.11296 0
M  V30 35576 N 3321.29 1.51599 -0.430766 0
M  V30 35577 C 3322.54 2.02329 0.138098 0
M  V30 35578 C 3322.87 1.31469 1.42932 0
M  V30 35579 O 3322.14 0.427584 1.89742 0
M  V30 35580 C 3322.43 3.58259 0.363614 0
M  V30 35581 C 3322.28 4.39744 -0.945797 0
M  V30 35582 C 3323.6 4.25178 1.13629 0
M  V30 35583 H 3320.72 0.735388 0.0487158 0
M  V30 35584 H 3323.36 1.81296 -0.568476 0
M  V30 35585 H 3321.51 3.76312 0.965486 0
M  V30 35586 H 3323.18 4.33356 -1.58114 0
M  V30 35587 H 3321.43 4.05091 -1.5519 0
M  V30 35588 H 3322.1 5.46989 -0.742127 0
M  V30 35589 H 3324.57 4.11356 0.626536 0
M  V30 35590 H 3323.45 5.34175 1.26285 0
M  V30 35591 H 3323.71 3.85592 2.16266 0
M  V30 35592 N 3322.77 0.161897 1.56766 0
M  V30 35593 C 3323.72 -0.772064 2.17504 0
M  V30 35594 C 3324.69 -1.23362 1.11225 0
M  V30 35595 O 3325.87 -1.30348 1.39334 0
M  V30 35596 C 3323.01 -1.99979 2.81252 0
M  V30 35597 C 3322.12 -1.58267 4.01965 0
M  V30 35598 C 3321.26 -2.76333 4.53667 0
M  V30 35599 C 3320.3 -2.31066 5.66811 0
M  V30 35600 N 3319.43 -3.42193 6.13065 0
M  V30 35601 H 3324.27 -0.247329 2.96972 0
M  V30 35602 H 3321.81 -0.110357 1.46685 0
M  V30 35603 H 3323.77 -2.71974 3.16364 0
M  V30 35604 H 3322.4 -2.49839 2.04403 0
M  V30 35605 H 3321.45 -0.759809 3.72735 0
M  V30 35606 H 3322.76 -1.21032 4.83893 0
M  V30 35607 H 3321.92 -3.56498 4.90911 0
M  V30 35608 H 3320.66 -3.16822 3.70776 0
M  V30 35609 H 3319.66 -1.49345 5.29128 0
M  V30 35610 H 3320.89 -1.91646 6.51497 0
M  V30 35611 H 3318.83 -3.82275 5.33106 0
M  V30 35612 H 3318.75 -3.09021 6.89958 0
M  V30 35613 H 3320.02 -4.2267 6.54958 0
M  V30 35614 N 3324.25 -1.57203 -0.111858 0
M  V30 35615 C 3325.47 -1.89792 -0.836284 0
M  V30 35616 C 3325.9 -0.754544 -1.72303 0
M  V30 35617 O 3325.25 0.29464 -1.7889 0
M  V30 35618 C 3325.3 -3.21166 -1.63965 0
M  V30 35619 O 3324.41 -3.07575 -2.74721 0
M  V30 35620 H 3323.75 -0.622589 -0.230822 0
M  V30 35621 H 3326.28 -2.04393 -0.0921118 0
M  V30 35622 H 3326.29 -3.54063 -2.0274 0
M  V30 35623 H 3324.96 -4.03976 -0.988749 0
M  V30 35624 H 3323.54 -2.8616 -2.39096 0
M  V30 35625 N 3325.72 0.382237 -1.52894 0
M  V30 35626 C 3326.65 1.47363 -1.81125 0
M  V30 35627 C 3327.64 1.56618 -0.66368 0
M  V30 35628 O 3328.82 1.71457 -0.911928 0
M  V30 35629 C 3325.95 2.84899 -1.9862 0
M  V30 35630 C 3324.9 2.9048 -3.14333 0
M  V30 35631 C 3324.23 4.3053 -3.17093 0
M  V30 35632 C 3325.53 2.59511 -4.53267 0
M  V30 35633 H 3327.22 1.23988 -2.7252 0
M  V30 35634 H 3324.77 0.595026 -1.31131 0
M  V30 35635 H 3326.72 3.61261 -2.16952 0
M  V30 35636 H 3325.45 3.09626 -1.0392 0
M  V30 35637 H 3324.11 2.16566 -2.95795 0
M  V30 35638 H 3323.75 4.52307 -2.20063 0
M  V30 35639 H 3323.45 4.35183 -3.94828 0
M  V30 35640 H 3324.98 5.08789 -3.37589 0
M  V30 35641 H 3326.39 3.2559 -4.71873 0
M  V30 35642 H 3324.79 2.75505 -5.3312 0
M  V30 35643 H 3325.86 1.54823 -4.59519 0
M  V30 35644 N 3327.2 1.43972 0.64108 0
M  V30 35645 C 3328.13 1.52888 1.76487 0
M  V30 35646 C 3329.11 0.382609 1.65741 0
M  V30 35647 O 3330.3 0.60143 1.84652 0
M  V30 35648 C 3327.43 1.46316 3.14975 0
M  V30 35649 C 3326.38 2.59317 3.40498 0
M  V30 35650 C 3325.71 2.37797 4.78912 0
M  V30 35651 C 3327.01 4.01514 3.34041 0
M  V30 35652 H 3328.7 2.46949 1.69282 0
M  V30 35653 H 3326.25 1.18855 0.812994 0
M  V30 35654 H 3328.2 1.51156 3.93357 0
M  V30 35655 H 3326.93 0.487656 3.22939 0
M  V30 35656 H 3325.59 2.53851 2.64491 0
M  V30 35657 H 3325.23 1.38462 4.83567 0
M  V30 35658 H 3324.93 3.13554 4.96948 0
M  V30 35659 H 3326.46 2.44439 5.59537 0
M  V30 35660 H 3327.87 4.08403 4.02343 0
M  V30 35661 H 3326.27 4.77394 3.63613 0
M  V30 35662 H 3327.34 4.2579 2.32015 0
M  V30 35663 N 3328.68 -0.880575 1.30704 0
M  V30 35664 C 3329.91 -1.66578 1.22717 0
M  V30 35665 C 3330.32 -1.87637 -0.20927 0
M  V30 35666 O 3329.68 -1.42699 -1.13769 0
M  V30 35667 C 3329.73 -3.0397 1.95664 0
M  V30 35668 O 3329.45 -2.83859 3.337 0
M  V30 35669 C 3330.95 -3.98407 1.94387 0
M  V30 35670 H 3328.17 -0.519665 0.424487 0
M  V30 35671 H 3330.72 -1.09987 1.72404 0
M  V30 35672 H 3328.87 -3.57281 1.49764 0
M  V30 35673 H 3329.29 -3.71051 3.70704 0
M  V30 35674 H 3330.76 -4.92163 2.49959 0
M  V30 35675 H 3331.24 -4.29374 0.923843 0
M  V30 35676 H 3331.84 -3.51032 2.40118 0
M  V30 35677 N 3330.16 -1.13492 -1.09349 0
M  V30 35678 C 3331.38 -0.920722 -1.85843 0
M  V30 35679 C 3331.81 0.525271 -1.80617 0
M  V30 35680 O 3331.17 1.3728 -1.18422 0
M  V30 35681 C 3331.22 -1.41415 -3.31714 0
M  V30 35682 O 3330.32 -0.59991 -4.08013 0
M  V30 35683 H 3329.66 -0.32992 -0.576237 0
M  V30 35684 H 3332.19 -1.50979 -1.38082 0
M  V30 35685 H 3332.2 -1.41812 -3.82562 0
M  V30 35686 H 3330.88 -2.46698 -3.34833 0
M  V30 35687 H 3329.45 -0.663881 -3.66943 0
M  V30 35688 N 3331.64 1.27341 -0.928546 0
M  V30 35689 C 3332.57 2.25136 -0.372668 0
M  V30 35690 C 3333.55 1.5367 0.531441 0
M  V30 35691 O 3334.73 1.82501 0.471756 0
M  V30 35692 C 3331.86 3.35482 0.465782 0
M  V30 35693 C 3330.91 4.24848 -0.375015 0
M  V30 35694 S 3331.74 5.04659 -1.79108 0
M  V30 35695 C 3332.89 6.18489 -0.960342 0
M  V30 35696 H 3333.13 2.71939 -1.20152 0
M  V30 35697 H 3330.66 1.3601 -0.730788 0
M  V30 35698 H 3332.62 3.99506 0.943671 0
M  V30 35699 H 3331.28 2.87317 1.26917 0
M  V30 35700 H 3330.47 5.03293 0.266782 0
M  V30 35701 H 3330.07 3.65624 -0.787109 0
M  V30 35702 H 3332.37 6.77214 -0.196734 0
M  V30 35703 H 3333.31 6.86947 -1.71783 0
M  V30 35704 H 3333.72 5.62264 -0.50198 0
M  V30 35705 N 3333.12 0.694147 1.4149 0
M  V30 35706 C 3334.35 0.233164 2.0528 0
M  V30 35707 C 3334.75 -1.12214 1.52331 0
M  V30 35708 O 3334.1 -1.71209 0.66582 0
M  V30 35709 C 3334.16 0.111782 3.59326 0
M  V30 35710 C 3333.82 1.3989 4.35063 0
M  V30 35711 C 3334.82 2.33645 4.64441 0
M  V30 35712 C 3332.5 1.65188 4.74361 0
M  V30 35713 C 3334.5 3.50961 5.32076 0
M  V30 35714 C 3332.19 2.82789 5.41732 0
M  V30 35715 C 3333.18 3.75498 5.70517 0
M  V30 35716 O 3332.87 4.9104 6.36502 0
M  V30 35717 H 3332.6 0.10643 0.667569 0
M  V30 35718 H 3335.16 0.946852 1.82274 0
M  V30 35719 H 3333.39 -0.657663 3.81067 0
M  V30 35720 H 3335.08 -0.311835 4.047 0
M  V30 35721 H 3335.84 2.15358 4.34564 0
M  V30 35722 H 3331.72 0.93889 4.51338 0
M  V30 35723 H 3335.27 4.23343 5.54461 0
M  V30 35724 H 3331.16 3.00994 5.71028 0
M  V30 35725 H 3331.93 4.90836 6.54998 0
M  V30 35726 N 3334.59 -1.51368 0.438799 0
M  V30 35727 C 3335.84 -2.024 -0.127366 0
M  V30 35728 C 3336.17 -1.32225 -1.42233 0
M  V30 35729 O 3335.45 -0.437641 -1.89512 0
M  V30 35730 C 3335.73 -3.58447 -0.34461 0
M  V30 35731 C 3335.58 -4.39236 0.969104 0
M  V30 35732 C 3336.9 -4.25775 -1.11373 0
M  V30 35733 H 3334.02 -0.735636 -0.0448151 0
M  V30 35734 H 3336.66 -1.80992 0.578082 0
M  V30 35735 H 3334.81 -3.76819 -0.945516 0
M  V30 35736 H 3336.49 -4.32511 1.6041 0
M  V30 35737 H 3334.73 -4.04262 1.57336 0
M  V30 35738 H 3335.4 -5.46587 0.771125 0
M  V30 35739 H 3337.88 -4.11682 -0.604712 0
M  V30 35740 H 3336.75 -5.34838 -1.2345 0
M  V30 35741 H 3337.01 -3.86734 -2.14218 0
M  V30 35742 N 3336.07 -0.170208 -1.56678 0
M  V30 35743 C 3337.02 0.760518 -2.1791 0
M  V30 35744 C 3337.99 1.22771 -1.11877 0
M  V30 35745 O 3339.17 1.29608 -1.40023 0
M  V30 35746 C 3336.31 1.98485 -2.82308 0
M  V30 35747 C 3335.43 1.56133 -4.02798 0
M  V30 35748 C 3334.56 2.73924 -4.55126 0
M  V30 35749 C 3333.6 2.28057 -5.68029 0
M  V30 35750 N 3332.74 3.38937 -6.14871 0
M  V30 35751 H 3337.58 0.231577 -2.97099 0
M  V30 35752 H 3335.11 0.102576 -1.46742 0
M  V30 35753 H 3337.07 2.70293 -3.17801 0
M  V30 35754 H 3335.7 2.48751 -2.05725 0
M  V30 35755 H 3334.75 0.740031 -3.73132 0
M  V30 35756 H 3336.07 1.18464 -4.84528 0
M  V30 35757 H 3335.22 3.5389 -4.92795 0
M  V30 35758 H 3333.96 3.14852 -3.72451 0
M  V30 35759 H 3332.96 1.46537 -5.29912 0
M  V30 35760 H 3334.19 1.88188 -6.52505 0
M  V30 35761 H 3332.14 3.79443 -5.35126 0
M  V30 35762 H 3332.05 3.05357 -6.91587 0
M  V30 35763 H 3333.32 4.19191 -6.5719 0
M  V30 35764 N 3337.55 1.5726 0.10352 0
M  V30 35765 C 3338.46 2.04777 1.14472 0
M  V30 35766 C 3339.48 0.97105 1.44384 0
M  V30 35767 O 3340.65 1.28364 1.55192 0
M  V30 35768 C 3337.72 2.45562 2.44745 0
M  V30 35769 C 3336.78 3.67388 2.22091 0
M  V30 35770 C 3336.01 4.06219 3.46153 0
M  V30 35771 O 3336.23 3.45227 4.54064 0
M  V30 35772 O 3335.17 4.99226 3.36239 0
M  V30 35773 H 3338.99 2.93746 0.771159 0
M  V30 35774 H 3336.58 1.46032 0.31543 0
M  V30 35775 H 3338.46 2.7246 3.21471 0
M  V30 35776 H 3337.14 1.59733 2.81544 0
M  V30 35777 H 3336.04 3.45619 1.43173 0
M  V30 35778 H 3337.38 4.5397 1.90189 0
M  V30 35779 N 3339.03 -0.374123 1.53095 0
M  V30 35780 C 3340.27 -1.11766 1.68863 0
M  V30 35781 C 3340.6 -1.89549 0.436066 0
M  V30 35782 O 3339.86 -1.8685 -0.581846 0
M  V30 35783 C 3340.16 -2.11044 2.88436 0
M  V30 35784 C 3339.82 -1.49806 4.25287 0
M  V30 35785 C 3338.48 -1.32833 4.62503 0
M  V30 35786 C 3340.84 -1.05424 5.10427 0
M  V30 35787 C 3338.16 -0.700465 5.82504 0
M  V30 35788 C 3340.52 -0.440414 6.31065 0
M  V30 35789 C 3339.18 -0.258098 6.67001 0
M  V30 35790 H 3338.45 -0.40898 0.617913 0
M  V30 35791 H 3341.1 -0.400467 1.87266 0
M  V30 35792 H 3339.4 -2.89036 2.6451 0
M  V30 35793 H 3341.1 -2.68511 2.9783 0
M  V30 35794 H 3337.69 -1.64009 3.95979 0
M  V30 35795 H 3341.87 -1.17333 4.82231 0
M  V30 35796 H 3337.13 -0.547545 6.08943 0
M  V30 35797 H 3341.3 -0.0882738 6.96344 0
M  V30 35798 H 3338.93 0.230487 7.59851 0
M  V30 35799 N 3340.51 -1.4431 -0.633436 0
M  V30 35800 C 3341.44 -1.53822 -1.75673 0
M  V30 35801 C 3342.42 -0.391394 -1.65536 0
M  V30 35802 O 3343.6 -0.611214 -1.84331 0
M  V30 35803 C 3340.73 -1.47984 -3.14194 0
M  V30 35804 C 3339.69 -2.61119 -3.39118 0
M  V30 35805 C 3339.01 -2.40334 -4.77644 0
M  V30 35806 C 3340.31 -4.0328 -3.31907 0
M  V30 35807 H 3342.01 -2.47844 -1.6797 0
M  V30 35808 H 3339.55 -1.19284 -0.806679 0
M  V30 35809 H 3341.5 -1.5324 -3.9255 0
M  V30 35810 H 3340.23 -0.504775 -3.22676 0
M  V30 35811 H 3338.89 -2.5525 -2.63141 0
M  V30 35812 H 3338.54 -1.41025 -4.82826 0
M  V30 35813 H 3338.24 -3.16185 -4.95278 0
M  V30 35814 H 3339.76 -2.47403 -5.58233 0
M  V30 35815 H 3341.17 -4.10531 -4.00171 0
M  V30 35816 H 3339.57 -4.79316 -3.61076 0
M  V30 35817 H 3340.64 -4.27014 -2.29754 0
M  V30 35818 N 3341.98 0.873632 -1.3117 0
M  V30 35819 C 3343.23 1.62115 -1.20006 0
M  V30 35820 C 3343.55 1.94104 0.241471 0
M  V30 35821 O 3344.75 2.67317 0.474754 0
M  V30 35822 C 3343.21 2.92237 -2.1006 0
M  V30 35823 C 3342.82 2.67746 -3.59188 0
M  V30 35824 C 3344.56 3.70224 -2.07688 0
M  V30 35825 C 3342.47 3.93753 -4.41262 0
M  V30 35826 H 3341.4 0.608259 -0.445574 0
M  V30 35827 H 3344.05 0.96626 -1.55999 0
M  V30 35828 H 3342.43 3.59082 -1.66962 0
M  V30 35829 H 3343.6 2.09332 -4.10508 0
M  V30 35830 H 3341.92 2.03118 -3.635 0
M  V30 35831 H 3344.52 4.63695 -2.66254 0
M  V30 35832 H 3344.86 4.02497 -1.06312 0
M  V30 35833 H 3345.39 3.10259 -2.48967 0
M  V30 35834 H 3342.13 3.66633 -5.43379 0
M  V30 35835 H 3341.65 4.51631 -3.94701 0
M  V30 35836 H 3343.33 4.61672 -4.53286 0
M  V30 35837 N 3343.46 1.1407 1.08746 0
M  V30 35838 C 3344.69 0.930565 1.85352 0
M  V30 35839 C 3345.11 -0.515685 1.80893 0
M  V30 35840 O 3344.47 -1.3665 1.19149 0
M  V30 35841 C 3344.52 1.43173 3.30959 0
M  V30 35842 O 3343.62 0.621539 4.07689 0
M  V30 35843 H 3342.96 0.332972 0.574479 0
M  V30 35844 H 3345.49 1.51709 1.37279 0
M  V30 35845 H 3345.5 1.43838 3.81804 0
M  V30 35846 H 3344.18 2.4847 3.3352 0
M  V30 35847 H 3342.76 0.683331 3.66586 0
M  V30 35848 N 3344.94 -1.26847 0.935286 0
M  V30 35849 C 3346.17 -1.9866 0.595739 0
M  V30 35850 C 3346.59 -1.69239 -0.820971 0
M  V30 35851 O 3345.95 -0.93701 -1.55209 0
M  V30 35852 C 3346 -3.50744 0.837337 0
M  V30 35853 O 3345.1 -4.12294 -0.0934189 0
M  V30 35854 H 3344.44 -0.623437 0.228523 0
M  V30 35855 H 3346.97 -1.61463 1.25661 0
M  V30 35856 H 3346.98 -4.00937 0.755897 0
M  V30 35857 H 3345.66 -3.71489 1.86999 0
M  V30 35858 H 3344.23 -3.7288 0.0385779 0
M  V30 35859 N 3346.42 -0.701641 -1.4112 0
M  V30 35860 C 3347.64 -0.242933 -2.05972 0
M  V30 35861 C 3348.07 1.10148 -1.52476 0
M  V30 35862 O 3347.43 1.69083 -0.654253 0
M  V30 35863 C 3347.47 -0.217677 -3.59942 0
M  V30 35864 O 3346.58 0.805558 -4.04456 0
M  V30 35865 H 3345.92 -0.117178 -0.653579 0
M  V30 35866 H 3348.45 -0.958207 -1.80775 0
M  V30 35867 H 3348.46 -0.0505984 -4.07969 0
M  V30 35868 H 3347.13 -1.19884 -3.98247 0
M  V30 35869 H 3345.71 0.60734 -3.67921 0
M  V30 35870 N 3347.9 1.51133 -0.446821 0
M  V30 35871 C 3348.83 2.25757 0.395764 0
M  V30 35872 C 3349.84 1.30138 0.978155 0
M  V30 35873 O 3351.03 1.55825 0.870682 0
M  V30 35874 C 3348.13 3.00518 1.5666 0
M  V30 35875 C 3347.3 4.23306 1.10138 0
M  V30 35876 C 3346.36 4.80566 2.14343 0
M  V30 35877 O 3345.39 5.42148 1.73391 0
M  V30 35878 N 3346.59 4.65429 3.46924 0
M  V30 35879 H 3349.36 2.98706 -0.24386 0
M  V30 35880 H 3346.92 1.59526 -0.276233 0
M  V30 35881 H 3348.91 3.35708 2.26013 0
M  V30 35882 H 3347.48 2.3052 2.11138 0
M  V30 35883 H 3346.7 3.93501 0.234575 0
M  V30 35884 H 3347.99 5.02969 0.768097 0
M  V30 35885 H 3347.38 4.16398 3.82922 0
M  V30 35886 H 3345.94 5.04955 4.12145 0
M  V30 35887 N 3349.37 0.178515 1.56586 0
M  V30 35888 C 3350.65 -0.511323 1.88798 0
M  V30 35889 C 3351.03 -1.80811 1.08952 0
M  V30 35890 O 3350.38 -2.27745 0.185591 0
M  V30 35891 C 3350.59 -0.746238 3.40929 0
M  V30 35892 C 3351.94 -1.07303 4.10818 0
M  V30 35893 O 3352.96 -0.834532 3.46286 0
M  V30 35894 O 3351.82 -1.52333 5.2484 0
M  V30 35895 H 3348.91 -0.264449 0.783579 0
M  V30 35896 H 3351.46 0.217489 1.68301 0
M  V30 35897 H 3350.23 0.170219 3.9093 0
M  V30 35898 H 3349.86 -1.52811 3.67062 0
M  V30 35899 N 3350.85 -1.57312 -0.0951784 0
M  V30 35900 C 3352.1 -1.85716 -0.797109 0
M  V30 35901 C 3352.42 -0.767202 -1.79274 0
M  V30 35902 O 3351.69 0.20655 -1.94808 0
M  V30 35903 H 3350.27 -0.685259 -0.29737 0
M  V30 35904 H 3352.93 -1.94749 -0.0768275 0
M  V30 35905 H 3352.03 -2.82449 -1.32774 0
M  V30 35906 N 3352.33 0.365999 -1.53291 0
M  V30 35907 C 3353.28 1.44844 -1.7608 0
M  V30 35908 C 3354.26 1.48669 -0.615328 0
M  V30 35909 O 3355.46 1.53918 -0.873979 0
M  V30 35910 C 3352.59 2.82282 -1.95376 0
M  V30 35911 C 3351.67 2.82937 -3.15923 0
M  V30 35912 N 3352.06 2.53239 -4.3784 0
M  V30 35913 C 3350.36 3.14098 -3.16637 0
M  V30 35914 C 3351.06 2.61561 -5.19577 0
M  V30 35915 N 3350.04 2.96255 -4.55779 0
M  V30 35916 H 3353.84 1.20745 -2.67951 0
M  V30 35917 H 3351.35 0.574179 -1.51911 0
M  V30 35918 H 3353.35 3.60246 -2.09829 0
M  V30 35919 H 3352.01 3.07345 -1.04732 0
M  V30 35920 H 3353.02 2.2684 -4.65579 0
M  V30 35921 H 3349.7 3.44478 -2.35884 0
M  V30 35922 H 3351.09 2.4195 -6.26825 0
M  V30 35923 N 3353.81 1.44644 0.625774 0
M  V30 35924 C 3354.74 1.47914 1.75083 0
M  V30 35925 C 3355.75 0.371908 1.58495 0
M  V30 35926 O 3356.94 0.637955 1.6671 0
M  V30 35927 C 3354.04 1.30249 3.12871 0
M  V30 35928 C 3353.22 2.54316 3.55868 0
M  V30 35929 C 3352.27 2.31472 4.72554 0
M  V30 35930 O 3351.3 3.04989 4.80594 0
M  V30 35931 N 3352.5 1.34872 5.64615 0
M  V30 35932 H 3355.27 2.44905 1.72747 0
M  V30 35933 H 3352.83 1.40151 0.810506 0
M  V30 35934 H 3354.82 1.12805 3.88661 0
M  V30 35935 H 3353.39 0.41602 3.09819 0
M  V30 35936 H 3352.61 2.86999 2.70232 0
M  V30 35937 H 3353.9 3.36824 3.81349 0
M  V30 35938 H 3353.3 0.74164 5.60817 0
M  V30 35939 H 3351.85 1.23405 6.40011 0
M  V30 35940 N 3355.29 -0.866663 1.31631 0
M  V30 35941 C 3356.53 -1.62226 1.22696 0
M  V30 35942 C 3356.89 -1.91227 -0.2121 0
M  V30 35943 O 3356.18 -1.53514 -1.14647 0
M  V30 35944 C 3356.37 -2.95672 2.0078 0
M  V30 35945 C 3356.2 -2.79701 3.52132 0
M  V30 35946 C 3354.97 -2.78715 4.21481 0
M  V30 35947 C 3357.17 -2.54322 4.47018 0
M  V30 35948 N 3355.15 -2.53828 5.58967 0
M  V30 35949 C 3356.52 -2.3873 5.72196 0
M  V30 35950 C 3358.58 -2.39693 4.36408 0
M  V30 35951 C 3357.28 -2.09996 6.87964 0
M  V30 35952 C 3359.31 -2.12348 5.51962 0
M  V30 35953 C 3358.67 -1.97547 6.76132 0
M  V30 35954 H 3354.77 -0.597836 0.504099 0
M  V30 35955 H 3357.35 -1.01976 1.65858 0
M  V30 35956 H 3355.52 -3.53922 1.59981 0
M  V30 35957 H 3357.26 -3.60536 1.83837 0
M  V30 35958 H 3354.01 -2.91217 3.73483 0
M  V30 35959 H 3354.44 -2.44347 6.31367 0
M  V30 35960 H 3359.08 -2.49862 3.4107 0
M  V30 35961 H 3356.8 -1.98565 7.83325 0
M  V30 35962 H 3360.38 -2.01824 5.45672 0
M  V30 35963 H 3359.26 -1.76687 7.64036 0
M  V30 35964 N 3356.77 -1.14645 -1.0814 0
M  V30 35965 C 3357.99 -0.939958 -1.84316 0
M  V30 35966 C 3358.41 0.511604 -1.81736 0
M  V30 35967 O 3357.77 1.35459 -1.22299 0
M  V30 35968 C 3357.82 -1.4363 -3.31742 0
M  V30 35969 O 3357.54 -2.831 -3.34345 0
M  V30 35970 C 3359.04 -1.27014 -4.24714 0
M  V30 35971 H 3356.26 -0.334333 -0.581775 0
M  V30 35972 H 3358.8 -1.52224 -1.36558 0
M  V30 35973 H 3356.96 -0.89673 -3.76879 0
M  V30 35974 H 3357.37 -3.05432 -4.26393 0
M  V30 35975 H 3358.85 -1.666 -5.26259 0
M  V30 35976 H 3359.32 -0.213334 -4.38682 0
M  V30 35977 H 3359.93 -1.7984 -3.85406 0
M  V30 35978 N 3358.24 1.26349 -0.942 0
M  V30 35979 C 3359.17 2.28722 -0.469953 0
M  V30 35980 C 3360.15 1.63269 0.47719 0
M  V30 35981 O 3361.34 1.90468 0.378869 0
M  V30 35982 C 3358.47 3.46288 0.26491 0
M  V30 35983 C 3357.42 4.23833 -0.595756 0
M  V30 35984 C 3356.75 5.34022 0.269114 0
M  V30 35985 C 3358.05 4.87772 -1.86751 0
M  V30 35986 H 3359.74 2.68457 -1.32555 0
M  V30 35987 H 3357.29 1.29054 -0.638832 0
M  V30 35988 H 3359.24 4.17017 0.606185 0
M  V30 35989 H 3357.97 3.05508 1.15466 0
M  V30 35990 H 3356.63 3.5487 -0.919938 0
M  V30 35991 H 3356.27 4.89483 1.15824 0
M  V30 35992 H 3355.97 5.86816 -0.303354 0
M  V30 35993 H 3357.5 6.07589 0.605641 0
M  V30 35994 H 3358.91 5.50711 -1.59343 0
M  V30 35995 H 3357.31 5.50687 -2.38462 0
M  V30 35996 H 3358.38 4.10667 -2.57839 0
M  V30 35997 N 3359.72 0.709115 1.40746 0
M  V30 35998 C 3360.97 0.245845 2.01002 0
M  V30 35999 C 3361.3 -1.15888 1.56205 0
M  V30 36000 O 3360.55 -1.79907 0.770198 0
M  V30 36001 C 3360.85 0.266748 3.56403 0
M  V30 36002 C 3360.52 1.62087 4.20759 0
M  V30 36003 C 3359.18 1.99156 4.38053 0
M  V30 36004 C 3361.53 2.51113 4.56718 0
M  V30 36005 C 3358.86 3.24809 4.88586 0
M  V30 36006 C 3361.21 3.76112 5.08648 0
M  V30 36007 C 3359.87 4.13306 5.24151 0
M  V30 36008 H 3359.14 0.0899611 0.735519 0
M  V30 36009 H 3361.79 0.910874 1.6845 0
M  V30 36010 H 3360.1 -0.481846 3.88826 0
M  V30 36011 H 3361.79 -0.109439 4.00851 0
M  V30 36012 H 3358.38 1.3226 4.07683 0
M  V30 36013 H 3362.57 2.23751 4.43 0
M  V30 36014 H 3357.82 3.53603 4.98773 0
M  V30 36015 H 3362 4.45271 5.3545 0
M  V30 36016 H 3359.62 5.10741 5.6307 0
M  V30 36017 N 3361.2 -1.50894 0.454829 0
M  V30 36018 C 3362.45 -2.02224 -0.105735 0
M  V30 36019 C 3362.77 -1.33792 -1.41174 0
M  V30 36020 O 3362.03 -0.447215 -1.90522 0
M  V30 36021 C 3362.33 -3.55642 -0.354097 0
M  V30 36022 C 3361.99 -4.42462 0.868214 0
M  V30 36023 C 3360.66 -4.6591 1.20338 0
M  V30 36024 C 3363.01 -4.93286 1.6828 0
M  V30 36025 C 3360.34 -5.37427 2.35349 0
M  V30 36026 C 3362.69 -5.66065 2.82406 0
M  V30 36027 C 3361.35 -5.87771 3.16356 0
M  V30 36028 H 3360.62 -0.739989 -0.0386911 0
M  V30 36029 H 3363.27 -1.81672 0.605596 0
M  V30 36030 H 3361.57 -3.74619 -1.14751 0
M  V30 36031 H 3363.27 -3.92908 -0.801531 0
M  V30 36032 H 3359.86 -4.24421 0.597069 0
M  V30 36033 H 3364.05 -4.75039 1.43706 0
M  V30 36034 H 3359.3 -5.52444 2.61946 0
M  V30 36035 H 3363.48 -6.04432 3.45883 0
M  V30 36036 H 3361.1 -6.42966 4.05585 0
M  V30 36037 N 3362.68 -0.186817 -1.56489 0
M  V30 36038 C 3363.61 0.769066 -2.15912 0
M  V30 36039 C 3364.62 1.18271 -1.11875 0
M  V30 36040 O 3365.81 1.11987 -1.39001 0
M  V30 36041 C 3362.91 2.04877 -2.6996 0
M  V30 36042 C 3362.08 1.79624 -3.98816 0
M  V30 36043 C 3361.14 2.91962 -4.37772 0
M  V30 36044 O 3360.17 2.61927 -5.05354 0
M  V30 36045 N 3361.37 4.20121 -4.00598 0
M  V30 36046 H 3364.14 0.260954 -2.98562 0
M  V30 36047 H 3361.7 -0.00456203 -1.61899 0
M  V30 36048 H 3363.69 2.79153 -2.93011 0
M  V30 36049 H 3362.26 2.46834 -1.91812 0
M  V30 36050 H 3361.48 0.891709 -3.83982 0
M  V30 36051 H 3362.77 1.60139 -4.82942 0
M  V30 36052 H 3362.17 4.47379 -3.46221 0
M  V30 36053 H 3360.72 4.91051 -4.28617 0
M  V30 36054 N 3364.16 1.57361 0.0868344 0
M  V30 36055 C 3365.1 2.03664 1.12356 0
M  V30 36056 C 3366.1 0.939194 1.40981 0
M  V30 36057 O 3367.3 1.12435 1.40564 0
M  V30 36058 H 3363.68 0.649163 0.379594 0
M  V30 36059 H 3365.65 2.89909 0.706771 0
M  V30 36060 C 3364.4 2.48374 2.43323 0
M  V30 36061 H 3363.72 3.32404 2.22143 0
M  V30 36062 H 3365.16 2.8454 3.14346 0
M  V30 36063 C 3363.62 1.36041 3.08212 0
M  V30 36064 O 3364.15 0.694133 3.95657 0
M  V30 36065 N 3362.36 1.10932 2.68594 0
M  V30 36066 H 3361.9 1.65294 1.97575 0
M  V30 36067 H 3361.86 0.359734 3.12335 0
M  V30 36068 N 3365.63 -0.357865 1.53483 0
M  V30 36069 C 3366.88 -1.09751 1.69703 0
M  V30 36070 C 3367.2 -1.89607 0.455422 0
M  V30 36071 O 3366.47 -1.88578 -0.53059 0
M  V30 36072 H 3365.05 -0.408167 0.625627 0
M  V30 36073 H 3367.71 -0.402608 1.90696 0
M  V30 36074 H 3366.81 -1.78298 2.56157 0
M  V30 36075 N 3367.11 -1.44974 -0.618094 0
M  V30 36076 C 3368.06 -1.52841 -1.7294 0
M  V30 36077 C 3369.03 -0.375084 -1.6181 0
M  V30 36078 O 3370.21 -0.587107 -1.81543 0
M  V30 36079 C 3367.35 -1.49106 -3.11226 0
M  V30 36080 C 3366.47 -2.74912 -3.33238 0
M  V30 36081 C 3365.6 -2.6292 -4.6157 0
M  V30 36082 C 3364.64 -3.83828 -4.76804 0
M  V30 36083 N 3363.78 -3.70434 -5.96425 0
M  V30 36084 H 3368.62 -2.47784 -1.65551 0
M  V30 36085 H 3366.15 -1.22962 -0.807389 0
M  V30 36086 H 3368.11 -1.4493 -3.91218 0
M  V30 36087 H 3366.74 -0.577219 -3.17597 0
M  V30 36088 H 3365.79 -2.8922 -2.47095 0
M  V30 36089 H 3367.11 -3.64622 -3.40371 0
M  V30 36090 H 3366.26 -2.5665 -5.49741 0
M  V30 36091 H 3365 -1.70792 -4.56817 0
M  V30 36092 H 3364 -3.90468 -3.87059 0
M  V30 36093 H 3365.23 -4.77009 -4.83362 0
M  V30 36094 H 3363.18 -2.81067 -5.92737 0
M  V30 36095 H 3363.09 -4.53771 -6.04672 0
M  V30 36096 H 3364.36 -3.68079 -6.87123 0
M  V30 36097 N 3368.59 0.85967 -1.32089 0
M  V30 36098 C 3369.84 1.61588 -1.22544 0
M  V30 36099 C 3370.17 1.93023 0.213499 0
M  V30 36100 O 3369.44 1.56913 1.14928 0
M  V30 36101 C 3369.73 2.93946 -2.0801 0
M  V30 36102 C 3369.58 2.69324 -3.60256 0
M  V30 36103 C 3370.9 3.95162 -1.93739 0
M  V30 36104 H 3368.02 0.586339 -0.446515 0
M  V30 36105 H 3370.66 0.993036 -1.61984 0
M  V30 36106 H 3368.81 3.47103 -1.74504 0
M  V30 36107 H 3370.48 2.22759 -4.03951 0
M  V30 36108 H 3368.72 2.03375 -3.83172 0
M  V30 36109 H 3369.4 3.63547 -4.15376 0
M  V30 36110 H 3371.87 3.51246 -2.23081 0
M  V30 36111 H 3370.75 4.85639 -2.55824 0
M  V30 36112 H 3371.01 4.32767 -0.903604 0
M  V30 36113 N 3370.07 1.15217 1.0753 0
M  V30 36114 C 3371.01 0.84728 2.14685 0
M  V30 36115 C 3371.98 -0.199014 1.64903 0
M  V30 36116 O 3373.17 -0.0669651 1.90682 0
M  V30 36117 C 3370.31 0.340733 3.43414 0
M  V30 36118 C 3369.42 1.44838 4.06996 0
M  V30 36119 C 3368.56 0.898151 5.23552 0
M  V30 36120 C 3367.6 1.98286 5.79093 0
M  V30 36121 N 3366.73 1.44914 6.86982 0
M  V30 36122 H 3371.57 1.76502 2.40106 0
M  V30 36123 H 3369.11 0.88071 1.17822 0
M  V30 36124 H 3371.07 0.0287689 4.1719 0
M  V30 36125 H 3369.7 -0.540088 3.1825 0
M  V30 36126 H 3368.75 1.87657 3.30891 0
M  V30 36127 H 3370.06 2.26742 4.44285 0
M  V30 36128 H 3369.22 0.538621 6.04304 0
M  V30 36129 H 3367.96 0.0482609 4.87676 0
M  V30 36130 H 3366.96 2.35124 4.96988 0
M  V30 36131 H 3368.19 2.8365 6.17025 0
M  V30 36132 H 3366.13 0.621582 6.53049 0
M  V30 36133 H 3366.05 2.20447 7.23145 0
M  V30 36134 H 3367.32 1.1178 7.71444 0
M  V30 36135 N 3371.55 -1.25848 0.948687 0
M  V30 36136 C 3372.79 -1.93685 0.601159 0
M  V30 36137 C 3373.13 -1.74181 -0.858749 0
M  V30 36138 O 3372.4 -1.08333 -1.61537 0
M  V30 36139 C 3372.68 -3.4725 0.953391 0
M  V30 36140 C 3372.54 -3.76006 2.46859 0
M  V30 36141 C 3373.86 -4.37538 0.474175 0
M  V30 36142 H 3370.97 -0.703437 0.219876 0
M  V30 36143 H 3373.62 -1.48577 1.18426 0
M  V30 36144 H 3371.77 -3.85801 0.457182 0
M  V30 36145 H 3373.44 -3.47127 3.03811 0
M  V30 36146 H 3371.68 -3.2182 2.90885 0
M  V30 36147 H 3372.35 -4.83376 2.66555 0
M  V30 36148 H 3374.83 -4.06256 0.899736 0
M  V30 36149 H 3373.7 -5.4376 0.749382 0
M  V30 36150 H 3373.97 -4.37647 -0.625884 0
M  V30 36151 N 3373.02 -0.716569 -1.40368 0
M  V30 36152 C 3374.27 -0.256501 -2.00869 0
M  V30 36153 C 3374.6 1.15058 -1.56818 0
M  V30 36154 O 3373.85 1.79496 -0.779728 0
M  V30 36155 C 3374.15 -0.285645 -3.56257 0
M  V30 36156 C 3373.82 -1.64316 -4.19894 0
M  V30 36157 C 3372.48 -2.01476 -4.36991 0
M  V30 36158 C 3374.83 -2.53532 -4.5538 0
M  V30 36159 C 3372.16 -3.27395 -4.86856 0
M  V30 36160 C 3374.51 -3.78804 -5.06646 0
M  V30 36161 C 3373.18 -4.1608 -5.21952 0
M  V30 36162 H 3372.45 -0.0938604 -0.735031 0
M  V30 36163 H 3375.09 -0.919794 -1.67964 0
M  V30 36164 H 3373.4 0.461219 -3.89076 0
M  V30 36165 H 3375.1 0.0881791 -4.00903 0
M  V30 36166 H 3371.69 -1.3442 -4.06976 0
M  V30 36167 H 3375.87 -2.26098 -4.41807 0
M  V30 36168 H 3371.13 -3.56244 -4.96891 0
M  V30 36169 H 3375.3 -4.48105 -5.33081 0
M  V30 36170 H 3372.93 -5.1372 -5.60353 0
M  V30 36171 N 3374.5 1.50651 -0.462825 0
M  V30 36172 C 3375.43 2.26164 0.371797 0
M  V30 36173 C 3376.45 1.31168 0.964297 0
M  V30 36174 O 3377.64 1.5674 0.854106 0
M  V30 36175 C 3374.74 3.02162 1.53464 0
M  V30 36176 C 3373.91 4.24451 1.05642 0
M  V30 36177 C 3372.97 4.82812 2.09234 0
M  V30 36178 O 3371.99 5.43956 1.67631 0
M  V30 36179 N 3373.2 4.69082 3.41968 0
M  V30 36180 H 3375.96 2.98431 -0.275528 0
M  V30 36181 H 3373.52 1.59224 -0.293137 0
M  V30 36182 H 3375.51 3.38087 2.2244 0
M  V30 36183 H 3374.08 2.32746 2.08681 0
M  V30 36184 H 3373.3 3.93728 0.192826 0
M  V30 36185 H 3374.59 5.03755 0.714707 0
M  V30 36186 H 3373.99 4.20436 3.78484 0
M  V30 36187 H 3372.55 5.09298 4.06766 0
M  V30 36188 N 3375.98 0.195113 1.56388 0
M  V30 36189 C 3377.23 -0.442775 1.9719 0
M  V30 36190 C 3377.55 -1.62151 1.08315 0
M  V30 36191 O 3376.82 -1.9529 0.154439 0
M  V30 36192 H 3375.4 -0.166572 0.728191 0
M  V30 36193 H 3378.06 0.281849 1.92851 0
M  V30 36194 H 3377.16 -0.786892 3.02017 0
M  V30 36195 N 3377.46 -1.57404 -0.0784879 0
M  V30 36196 C 3378.41 -2.04257 -1.11274 0
M  V30 36197 C 3379.4 -0.946657 -1.4048 0
M  V30 36198 O 3380.61 -1.13179 -1.39966 0
M  V30 36199 H 3376.98 -0.651167 -0.376146 0
M  V30 36200 H 3378.95 -2.9028 -0.691386 0
M  V30 36201 C 3377.7 -2.4966 -2.42002 0
M  V30 36202 H 3377.02 -3.33578 -2.20377 0
M  V30 36203 H 3378.46 -2.86203 -3.12832 0
M  V30 36204 C 3376.92 -1.37674 -3.07486 0
M  V30 36205 O 3377.45 -0.715106 -3.95284 0
M  V30 36206 N 3375.66 -1.12354 -2.68002 0
M  V30 36207 H 3375.21 -1.66339 -1.96695 0
M  V30 36208 H 3375.16 -0.376293 -3.1214 0
M  V30 36209 N 3378.94 0.34972 -1.53671 0
M  V30 36210 C 3379.87 1.44967 -1.77531 0
M  V30 36211 C 3380.88 1.48979 -0.656438 0
M  V30 36212 O 3382.07 1.52173 -0.933042 0
M  V30 36213 C 3379.17 2.83657 -1.8545 0
M  V30 36214 C 3378.34 3.03157 -3.153 0
M  V30 36215 C 3377.4 4.22053 -3.14257 0
M  V30 36216 O 3376.43 4.16466 -3.88001 0
M  V30 36217 N 3377.63 5.30277 -2.36191 0
M  V30 36218 H 3380.4 1.24873 -2.72446 0
M  V30 36219 H 3377.96 0.539559 -1.52645 0
M  V30 36220 H 3379.95 3.6136 -1.82211 0
M  V30 36221 H 3378.52 2.96924 -0.977488 0
M  V30 36222 H 3377.74 2.12977 -3.31714 0
M  V30 36223 H 3379.03 3.13065 -4.01084 0
M  V30 36224 H 3378.42 5.37685 -1.75817 0
M  V30 36225 H 3376.98 6.06498 -2.38755 0
M  V30 36226 N 3380.41 1.45299 0.610397 0
M  V30 36227 C 3381.69 1.39644 1.36964 0
M  V30 36228 C 3382.07 0.0656128 2.10998 0
M  V30 36229 O 3381.42 -0.95237 2.07707 0
M  V30 36230 C 3381.63 2.6083 2.31881 0
M  V30 36231 C 3382.98 3.05796 2.94575 0
M  V30 36232 O 3384 2.61183 2.42202 0
M  V30 36233 O 3382.86 3.83209 3.89632 0
M  V30 36234 H 3379.95 0.554015 0.614 0
M  V30 36235 H 3382.5 1.57423 0.63372 0
M  V30 36236 H 3381.27 3.49276 1.76415 0
M  V30 36237 H 3380.9 2.4537 3.12857 0
M  V30 36238 N 3381.89 -0.852653 1.32543 0
M  V30 36239 C 3383.12 -1.6446 1.26363 0
M  V30 36240 C 3383.54 -1.87375 -0.165047 0
M  V30 36241 O 3382.9 -1.42796 -1.1171 0
M  V30 36242 C 3382.95 -2.97994 2.03057 0
M  V30 36243 O 3382.05 -3.88635 1.37974 0
M  V30 36244 H 3381.39 -0.50132 0.435402 0
M  V30 36245 H 3383.92 -1.06183 1.7489 0
M  V30 36246 H 3383.93 -3.478 2.13306 0
M  V30 36247 H 3382.61 -2.80637 3.06946 0
M  V30 36248 H 3381.19 -3.47103 1.36286 0
M  V30 36249 N 3383.37 -1.15786 -1.06918 0
M  V30 36250 C 3384.62 -0.93546 -1.79598 0
M  V30 36251 C 3384.95 0.53714 -1.86936 0
M  V30 36252 O 3384.2 1.41446 -1.35246 0
M  V30 36253 C 3384.5 -1.50028 -3.24386 0
M  V30 36254 C 3384.17 -2.99412 -3.3714 0
M  V30 36255 C 3382.83 -3.40192 -3.40328 0
M  V30 36256 C 3385.18 -3.95395 -3.39577 0
M  V30 36257 C 3382.51 -4.75587 -3.43561 0
M  V30 36258 C 3384.86 -5.30667 -3.44347 0
M  V30 36259 C 3383.52 -5.70937 -3.45814 0
M  V30 36260 H 3382.79 -0.342309 -0.657195 0
M  V30 36261 H 3385.44 -1.444 -1.25782 0
M  V30 36262 H 3383.75 -0.913037 -3.81013 0
M  V30 36263 H 3385.44 -1.30396 -3.79207 0
M  V30 36264 H 3382.03 -2.66893 -3.3536 0
M  V30 36265 H 3386.22 -3.6496 -3.3633 0
M  V30 36266 H 3381.47 -5.06125 -3.42997 0
M  V30 36267 H 3385.65 -6.04834 -3.45179 0
M  V30 36268 H 3383.27 -6.75833 -3.48072 0
M  V30 36269 N 3384.85 1.25343 -0.955348 0
M  V30 36270 C 3386.08 1.97148 -0.627728 0
M  V30 36271 C 3386.49 1.70998 0.800319 0
M  V30 36272 O 3385.85 0.986444 1.53543 0
M  V30 36273 C 3385.9 3.50682 -0.877737 0
M  V30 36274 O 3385.62 3.7593 -2.24963 0
M  V30 36275 C 3387.12 4.39715 -0.562602 0
M  V30 36276 H 3384.34 0.628398 -0.23528 0
M  V30 36277 H 3386.89 1.59494 -1.27992 0
M  V30 36278 H 3385.04 3.86444 -0.271945 0
M  V30 36279 H 3385.45 4.70385 -2.3203 0
M  V30 36280 H 3386.93 5.46346 -0.788068 0
M  V30 36281 H 3387.41 4.36312 0.502853 0
M  V30 36282 H 3388.01 4.0952 -1.14775 0
M  V30 36283 N 3386.33 0.724003 1.39986 0
M  V30 36284 C 3387.74 0.338494 1.83606 0
M  V30 36285 C 3388.09 -1.12829 1.60512 0
M  V30 36286 O 3387.21 -1.86918 1.09044 0
M  V30 36287 C 3387.81 0.607591 3.33307 0
M  V30 36288 C 3386.37 0.275698 3.75389 0
M  V30 36289 C 3385.52 0.875745 2.63108 0
M  V30 36290 H 3388.47 0.922505 1.29134 0
M  V30 36291 H 3388.49 -0.124357 3.80297 0
M  V30 36292 H 3388 1.6752 3.50084 0
M  V30 36293 H 3386.1 -0.786515 3.64204 0
M  V30 36294 H 3386.21 0.750576 4.73184 0
M  V30 36295 H 3384.58 0.303166 2.52889 0
M  V30 36296 H 3385.36 1.94779 2.82694 0
M  V30 36297 N 3387.81 -1.50403 0.470808 0
M  V30 36298 C 3389.05 -2.02624 -0.0844053 0
M  V30 36299 C 3389.38 -1.35212 -1.39396 0
M  V30 36300 O 3388.66 -0.477741 -1.88541 0
M  V30 36301 C 3388.94 -3.59098 -0.2685 0
M  V30 36302 C 3388.8 -4.37082 1.06205 0
M  V30 36303 C 3390.11 -4.28041 -1.02317 0
M  V30 36304 H 3387.23 -0.736421 -0.0292011 0
M  V30 36305 H 3389.88 -1.79725 0.616343 0
M  V30 36306 H 3388.03 -3.78739 -0.865374 0
M  V30 36307 H 3389.7 -4.29012 1.69549 0
M  V30 36308 H 3387.94 -4.00834 1.65875 0
M  V30 36309 H 3388.61 -5.44829 0.886891 0
M  V30 36310 H 3391.09 -4.12873 -0.517252 0
M  V30 36311 H 3389.96 -5.37336 -1.12078 0
M  V30 36312 H 3390.22 -3.91191 -2.05967 0
M  V30 36313 N 3389.28 -0.203404 -1.56282 0
M  V30 36314 C 3390.53 0.433809 -1.98106 0
M  V30 36315 C 3390.86 1.60693 -1.09047 0
M  V30 36316 O 3390.14 1.93965 -0.144227 0
M  V30 36317 C 3390.42 0.885931 -3.49032 0
M  V30 36318 C 3390.27 -0.28958 -4.48867 0
M  V30 36319 C 3391.59 1.74853 -4.03874 0
M  V30 36320 H 3388.71 0.156211 -0.720255 0
M  V30 36321 H 3391.35 -0.295996 -1.8768 0
M  V30 36322 H 3389.5 1.50779 -3.58047 0
M  V30 36323 H 3391.18 -0.92742 -4.51881 0
M  V30 36324 H 3389.42 -0.940008 -4.23493 0
M  V30 36325 H 3390.09 0.0694158 -5.51956 0
M  V30 36326 H 3392.57 1.224 -3.9769 0
M  V30 36327 H 3391.44 2.03382 -5.0983 0
M  V30 36328 H 3391.7 2.70561 -3.49641 0
M  V30 36329 N 3390.76 1.57444 0.0701393 0
M  V30 36330 C 3391.71 2.04844 1.10189 0
M  V30 36331 C 3392.7 0.954094 1.39976 0
M  V30 36332 O 3393.91 1.1392 1.39364 0
M  V30 36333 H 3390.28 0.653153 0.372687 0
M  V30 36334 H 3392.26 2.90642 0.675982 0
M  V30 36335 C 3391 2.5094 2.40675 0
M  V30 36336 H 3390.33 3.34742 2.18605 0
M  V30 36337 H 3391.77 2.87858 3.1131 0
M  V30 36338 C 3390.23 1.39303 3.06751 0
M  V30 36339 O 3390.76 0.736058 3.94899 0
M  V30 36340 N 3388.96 1.13774 2.67402 0
M  V30 36341 H 3388.51 1.6738 1.95811 0
M  V30 36342 H 3388.47 0.392841 3.11936 0
M  V30 36343 N 3392.24 -0.341566 1.53854 0
M  V30 36344 C 3393.46 -1.106 1.75449 0
M  V30 36345 C 3393.89 -1.81517 0.493256 0
M  V30 36346 O 3393.25 -1.72621 -0.554222 0
M  V30 36347 C 3393.3 -2.09364 2.93597 0
M  V30 36348 O 3392.4 -3.16921 2.63884 0
M  V30 36349 H 3391.74 -0.319773 0.581929 0
M  V30 36350 H 3394.27 -0.391353 2.00822 0
M  V30 36351 H 3394.28 -2.5255 3.20441 0
M  V30 36352 H 3392.96 -1.57144 3.8507 0
M  V30 36353 H 3391.53 -2.78538 2.47934 0
M  V30 36354 N 3393.72 -1.45621 -0.602683 0
M  V30 36355 C 3394.65 -1.57513 -1.72371 0
M  V30 36356 C 3395.63 -0.426418 -1.64668 0
M  V30 36357 O 3396.81 -0.650176 -1.82993 0
M  V30 36358 C 3393.94 -1.54615 -3.10984 0
M  V30 36359 C 3392.9 -2.68254 -3.33502 0
M  V30 36360 C 3392.22 -2.50411 -4.72439 0
M  V30 36361 C 3393.52 -4.1023 -3.23278 0
M  V30 36362 H 3395.22 -2.51351 -1.62675 0
M  V30 36363 H 3392.76 -1.20968 -0.781196 0
M  V30 36364 H 3394.72 -1.61532 -3.89211 0
M  V30 36365 H 3393.44 -0.573106 -3.21532 0
M  V30 36366 H 3392.1 -2.60774 -2.57668 0
M  V30 36367 H 3391.75 -1.51234 -4.79726 0
M  V30 36368 H 3391.45 -3.2662 -4.8846 0
M  V30 36369 H 3392.97 -2.59189 -5.52859 0
M  V30 36370 H 3394.39 -4.18927 -3.91373 0
M  V30 36371 H 3392.78 -4.86867 -3.50828 0
M  V30 36372 H 3393.85 -4.31792 -2.20644 0
M  V30 36373 N 3395.2 0.845612 -1.32993 0
M  V30 36374 C 3396.47 1.58459 -1.14674 0
M  V30 36375 C 3396.85 2.09106 0.289462 0
M  V30 36376 O 3396.2 1.88776 1.28748 0
M  V30 36377 C 3396.41 2.72369 -2.18211 0
M  V30 36378 C 3397.76 3.41721 -2.52016 0
M  V30 36379 O 3398.78 2.82604 -2.16826 0
M  V30 36380 O 3397.64 4.48424 -3.12376 0
M  V30 36381 H 3394.74 0.698277 -0.4431 0
M  V30 36382 H 3397.28 0.888953 -1.44554 0
M  V30 36383 H 3396.05 2.32536 -3.14711 0
M  V30 36384 H 3395.68 3.49602 -1.89378 0
M  V30 36385 N 3396.67 1.16351 1.06302 0
M  V30 36386 C 3398.08 0.95268 1.60564 0
M  V30 36387 C 3398.44 -0.50344 1.89631 0
M  V30 36388 O 3397.56 -1.37663 1.66967 0
M  V30 36389 C 3398.16 1.72297 2.91717 0
M  V30 36390 C 3396.71 1.55713 3.42681 0
M  V30 36391 C 3395.86 1.73176 2.16576 0
M  V30 36392 H 3398.81 1.31223 0.89254 0
M  V30 36393 H 3398.83 1.19874 3.61124 0
M  V30 36394 H 3398.35 2.78271 2.7053 0
M  V30 36395 H 3396.45 0.521791 3.68928 0
M  V30 36396 H 3396.56 2.34096 4.18014 0
M  V30 36397 H 3394.92 1.15918 2.26793 0
M  V30 36398 H 3395.71 2.80538 1.97872 0
M  V30 36399 N 3398.15 -1.24835 0.961982 0
M  V30 36400 C 3399.56 -1.74629 0.660419 0
M  V30 36401 C 3399.91 -1.78057 -0.824033 0
M  V30 36402 O 3399.04 -1.40622 -1.64482 0
M  V30 36403 C 3399.63 -3.17134 1.19211 0
M  V30 36404 C 3398.19 -3.64459 0.940557 0
M  V30 36405 C 3397.34 -2.43279 1.33081 0
M  V30 36406 H 3400.29 -1.10618 1.13796 0
M  V30 36407 H 3400.31 -3.76421 0.555661 0
M  V30 36408 H 3399.82 -3.14608 2.27252 0
M  V30 36409 H 3397.92 -3.72392 -0.124579 0
M  V30 36410 H 3398.04 -4.52221 1.58218 0
M  V30 36411 H 3396.4 -2.43432 0.749182 0
M  V30 36412 H 3397.18 -2.43438 2.42059 0
M  V30 36413 N 3399.63 -0.731417 -1.396 0
M  V30 36414 C 3400.56 -0.104141 -2.33268 0
M  V30 36415 C 3401.54 0.728191 -1.53725 0
M  V30 36416 O 3402.73 0.673901 -1.82132 0
M  V30 36417 C 3399.86 0.806586 -3.37804 0
M  V30 36418 C 3398.81 0.0786835 -4.27928 0
M  V30 36419 C 3398.14 1.10619 -5.23132 0
M  V30 36420 C 3399.44 -1.0766 -5.11084 0
M  V30 36421 H 3401.13 -0.886546 -2.85973 0
M  V30 36422 H 3398.68 -0.42777 -1.375 0
M  V30 36423 H 3400.63 1.25492 -4.02281 0
M  V30 36424 H 3399.35 1.62107 -2.83529 0
M  V30 36425 H 3398.01 -0.349991 -3.64926 0
M  V30 36426 H 3397.66 1.91414 -4.65156 0
M  V30 36427 H 3397.36 0.62394 -5.84278 0
M  V30 36428 H 3398.88 1.5543 -5.90486 0
M  V30 36429 H 3400.3 -0.706881 -5.68925 0
M  V30 36430 H 3398.69 -1.48825 -5.81353 0
M  V30 36431 H 3399.76 -1.89996 -4.46127 0
M  V30 36432 N 3401.11 1.50152 -0.478778 0
M  V30 36433 C 3402.04 2.3155 0.301141 0
M  V30 36434 C 3403.02 1.38803 0.983252 0
M  V30 36435 O 3404.2 1.67721 0.978944 0
M  V30 36436 C 3401.33 3.18747 1.37904 0
M  V30 36437 C 3400.29 4.20108 0.818101 0
M  V30 36438 C 3399.61 4.96094 1.99487 0
M  V30 36439 C 3400.91 5.22004 -0.175832 0
M  V30 36440 H 3402.61 2.97001 -0.37824 0
M  V30 36441 H 3400.15 1.42828 -0.183348 0
M  V30 36442 H 3402.11 3.74492 1.9322 0
M  V30 36443 H 3400.83 2.51196 2.0873 0
M  V30 36444 H 3399.49 3.65476 0.28686 0
M  V30 36445 H 3399.14 4.25009 2.69029 0
M  V30 36446 H 3398.84 5.64663 1.62572 0
M  V30 36447 H 3400.36 5.54676 2.55279 0
M  V30 36448 H 3401.78 5.72574 0.288413 0
M  V30 36449 H 3400.17 5.98337 -0.459654 0
M  V30 36450 H 3401.24 4.72277 -1.09919 0
M  V30 36451 N 3402.59 0.211689 1.56172 0
M  V30 36452 C 3403.81 -0.427807 2.02429 0
M  V30 36453 C 3404.23 -1.54041 1.09165 0
M  V30 36454 O 3403.59 -1.82229 0.0994569 0
M  V30 36455 C 3403.64 -0.968666 3.4828 0
M  V30 36456 O 3403.36 0.0995611 4.37987 0
M  V30 36457 C 3404.86 -1.68239 4.10135 0
M  V30 36458 H 3402.08 -0.105758 0.662613 0
M  V30 36459 H 3404.62 0.325256 2.01897 0
M  V30 36460 H 3402.78 -1.67204 3.49459 0
M  V30 36461 H 3403.19 -0.305466 5.2361 0
M  V30 36462 H 3404.67 -2.01295 5.13989 0
M  V30 36463 H 3405.14 -2.59204 3.54556 0
M  V30 36464 H 3405.75 -1.02446 4.12777 0
M  V30 36465 N 3404.06 -1.57479 -0.0617887 0
M  V30 36466 C 3405.48 -1.54061 -0.4168 0
M  V30 36467 C 3405.68 -0.933308 -1.78582 0
M  V30 36468 O 3404.74 -0.540134 -2.46655 0
M  V30 36469 C 3406.05 -2.98672 -0.348676 0
M  V30 36470 C 3407.6 -3.10058 -0.42814 0
M  V30 36471 C 3408.07 -4.56338 -0.389817 0
M  V30 36472 N 3409.56 -4.61013 -0.449596 0
M  V30 36473 C 3410.3 -5.71691 -0.442317 0
M  V30 36474 N 3409.79 -6.91706 -0.38926 0
M  V30 36475 N 3411.59 -5.59964 -0.48962 0
M  V30 36476 H 3403.74 -1.95319 0.834521 0
M  V30 36477 H 3406 -0.89443 0.314164 0
M  V30 36478 H 3405.71 -3.46702 0.590799 0
M  V30 36479 H 3405.58 -3.5908 -1.15505 0
M  V30 36480 H 3407.97 -2.61995 -1.35804 0
M  V30 36481 H 3408.05 -2.52542 0.40699 0
M  V30 36482 H 3407.69 -5.05061 0.536275 0
M  V30 36483 H 3407.62 -5.11729 -1.24262 0
M  V30 36484 H 3410.11 -3.74651 -0.494444 0
M  V30 36485 H 3410.43 -7.71826 -0.387907 0
M  V30 36486 H 3408.77 -6.94089 -0.355796 0
M  V30 36487 H 3411.96 -4.65103 -0.528833 0
M  V30 36488 H 3412.14 -6.46216 -0.480479 0
M  V30 36489 N 3405.54 0.333401 -1.54033 0
M  V30 36490 C 3406.77 1.0907 -1.75463 0
M  V30 36491 C 3407.18 1.82514 -0.49852 0
M  V30 36492 O 3406.52 1.75584 0.539998 0
M  V30 36493 C 3406.59 2.14161 -2.88748 0
M  V30 36494 C 3406.25 1.60202 -4.28 0
M  V30 36495 C 3407.25 1.04898 -5.09208 0
M  V30 36496 C 3404.93 1.64742 -4.74516 0
M  V30 36497 C 3406.93 0.548503 -6.35036 0
M  V30 36498 C 3404.61 1.14307 -6.00314 0
M  V30 36499 C 3405.61 0.594548 -6.80407 0
M  V30 36500 O 3405.3 0.0977497 -8.03841 0
M  V30 36501 H 3405.03 0.330692 -0.589592 0
M  V30 36502 H 3407.58 0.388238 -2.01697 0
M  V30 36503 H 3405.81 2.87995 -2.58062 0
M  V30 36504 H 3407.5 2.75535 -2.98053 0
M  V30 36505 H 3408.27 1.00704 -4.7443 0
M  V30 36506 H 3404.15 2.06377 -4.12225 0
M  V30 36507 H 3407.69 0.1197 -6.97497 0
M  V30 36508 H 3403.59 1.18204 -6.34585 0
M  V30 36509 H 3404.36 0.214093 -8.1822 0
M  V30 36510 N 3407.02 1.45939 0.594952 0
M  V30 36511 C 3407.95 1.58425 1.71533 0
M  V30 36512 C 3408.93 0.435145 1.6444 0
M  V30 36513 O 3410.12 0.659871 1.82645 0
M  V30 36514 C 3407.25 1.56263 3.1016 0
M  V30 36515 C 3406.2 2.70019 3.32075 0
M  V30 36516 C 3405.53 2.52913 4.71104 0
M  V30 36517 C 3406.83 4.11938 3.21098 0
M  V30 36518 H 3408.52 2.5221 1.6134 0
M  V30 36519 H 3406.07 1.21381 0.774769 0
M  V30 36520 H 3408.02 1.63593 3.88349 0
M  V30 36521 H 3406.74 0.590149 3.21224 0
M  V30 36522 H 3405.4 2.62137 2.56281 0
M  V30 36523 H 3405.05 1.53776 4.78917 0
M  V30 36524 H 3404.75 3.29205 4.86721 0
M  V30 36525 H 3406.27 2.62117 5.51477 0
M  V30 36526 H 3407.69 4.20997 3.89146 0
M  V30 36527 H 3406.09 4.88721 3.48241 0
M  V30 36528 H 3407.16 4.32956 2.18351 0
M  V30 36529 N 3408.5 -0.838547 1.3344 0
M  V30 36530 C 3409.91 -1.12927 1.12781 0
M  V30 36531 C 3410.11 -2.01337 -0.0810834 0
M  V30 36532 O 3409.17 -2.40751 -0.761252 0
M  V30 36533 C 3410.48 -1.79105 2.4154 0
M  V30 36534 C 3412.03 -1.9167 2.4745 0
M  V30 36535 C 3412.51 -2.61264 3.76172 0
M  V30 36536 N 3414 -2.68776 3.77245 0
M  V30 36537 C 3414.73 -3.23315 4.73556 0
M  V30 36538 N 3414.23 -3.78539 5.80242 0
M  V30 36539 N 3416.02 -3.2157 4.61031 0
M  V30 36540 H 3408.17 -0.25015 2.10922 0
M  V30 36541 H 3410.44 -0.173493 0.931989 0
M  V30 36542 H 3410.14 -1.21603 3.30008 0
M  V30 36543 H 3410.02 -2.79122 2.53714 0
M  V30 36544 H 3412.4 -2.48326 1.59432 0
M  V30 36545 H 3412.48 -0.906016 2.39217 0
M  V30 36546 H 3412.13 -2.05267 4.64573 0
M  V30 36547 H 3412.06 -3.62804 3.81682 0
M  V30 36548 H 3414.55 -2.29616 3.00142 0
M  V30 36549 H 3414.86 -4.18359 6.49766 0
M  V30 36550 H 3413.21 -3.76825 5.83976 0
M  V30 36551 H 3416.4 -2.77684 3.76841 0
M  V30 36552 H 3416.57 -3.63771 5.3626 0
M  V30 36553 N 3409.98 -1.16914 -1.05683 0
M  V30 36554 C 3411.23 -0.948906 -1.77985 0
M  V30 36555 C 3411.54 0.523978 -1.88451 0
M  V30 36556 O 3412.74 0.862276 -2.57443 0
M  V30 36557 C 3411.2 -1.64854 -3.19924 0
M  V30 36558 C 3410.81 -3.15961 -3.17604 0
M  V30 36559 C 3412.55 -1.51051 -3.96716 0
M  V30 36560 C 3410.46 -3.78636 -4.54301 0
M  V30 36561 H 3409.39 -0.351391 -0.667113 0
M  V30 36562 H 3412.04 -1.40113 -1.18493 0
M  V30 36563 H 3410.42 -1.12404 -3.79712 0
M  V30 36564 H 3411.6 -3.75305 -2.67362 0
M  V30 36565 H 3409.91 -3.2972 -2.54311 0
M  V30 36566 H 3412.51 -1.95252 -4.97776 0
M  V30 36567 H 3412.85 -0.46034 -4.13747 0
M  V30 36568 H 3413.38 -2.00691 -3.43465 0
M  V30 36569 H 3410.12 -4.83628 -4.42475 0
M  V30 36570 H 3409.64 -3.24078 -5.04711 0
M  V30 36571 H 3411.32 -3.80552 -5.23249 0
M  V30 36572 N 3411.45 1.24323 -0.968589 0
M  V30 36573 C 3412.4 2.23092 -0.47052 0
M  V30 36574 C 3413.39 1.54538 0.447961 0
M  V30 36575 O 3414.58 1.74791 0.278739 0
M  V30 36576 C 3411.71 3.4248 0.237162 0
M  V30 36577 C 3410.8 4.1828 -0.7002 0
M  V30 36578 N 3411.19 4.7123 -1.83783 0
M  V30 36579 C 3409.48 4.43061 -0.511158 0
M  V30 36580 C 3410.19 5.28779 -2.42421 0
M  V30 36581 N 3409.16 5.16028 -1.70927 0
M  V30 36582 H 3412.96 2.6165 -1.33853 0
M  V30 36583 H 3410.48 1.39719 -0.827789 0
M  V30 36584 H 3412.47 4.12395 0.611208 0
M  V30 36585 H 3411.13 3.05442 1.1016 0
M  V30 36586 H 3412.15 4.67938 -2.21934 0
M  V30 36587 H 3408.82 4.16353 0.309243 0
M  V30 36588 H 3410.21 5.80445 -3.38428 0
M  V30 36589 N 3412.93 0.73881 1.3921 0
M  V30 36590 C 3414.34 0.357948 1.83237 0
M  V30 36591 C 3414.69 -1.1112 1.617 0
M  V30 36592 O 3413.82 -1.85751 1.1102 0
M  V30 36593 C 3414.41 0.642909 3.32644 0
M  V30 36594 C 3412.97 0.315498 3.75075 0
M  V30 36595 C 3412.12 0.903602 2.62165 0
M  V30 36596 H 3415.07 0.93615 1.28148 0
M  V30 36597 H 3415.09 -0.0840143 3.80407 0
M  V30 36598 H 3414.6 1.71224 3.48287 0
M  V30 36599 H 3412.71 -0.747842 3.65018 0
M  V30 36600 H 3412.82 0.800721 4.72361 0
M  V30 36601 H 3411.18 0.329972 2.52554 0
M  V30 36602 H 3411.97 1.97766 2.80612 0
M  V30 36603 N 3414.41 -1.49895 0.486734 0
M  V30 36604 C 3415.34 -2.26727 -0.33577 0
M  V30 36605 C 3416.36 -1.32686 -0.943307 0
M  V30 36606 O 3417.54 -1.58078 -0.829062 0
M  V30 36607 C 3414.64 -3.04566 -1.48637 0
M  V30 36608 C 3413.82 -4.26078 -0.988762 0
M  V30 36609 C 3412.88 -4.8608 -2.01527 0
M  V30 36610 O 3411.9 -5.46554 -1.58956 0
M  V30 36611 N 3413.1 -4.74463 -3.34462 0
M  V30 36612 H 3415.87 -2.97955 0.322971 0
M  V30 36613 H 3413.43 -1.58738 0.318431 0
M  V30 36614 H 3415.42 -3.41583 -2.17033 0
M  V30 36615 H 3413.99 -2.36037 -2.04952 0
M  V30 36616 H 3413.21 -3.93985 -0.130163 0
M  V30 36617 H 3414.5 -5.04829 -0.634473 0
M  V30 36618 H 3413.9 -4.26404 -3.71747 0
M  V30 36619 H 3412.46 -5.15705 -3.98612 0
M  V30 36620 N 3415.89 -0.219968 -1.56057 0
M  V30 36621 C 3417.11 0.420105 -2.03101 0
M  V30 36622 C 3417.54 1.52671 -1.09878 0
M  V30 36623 O 3416.9 1.81093 -0.0866777 0
M  V30 36624 C 3416.95 0.930409 -3.4839 0
M  V30 36625 O 3416.05 2.04186 -3.58304 0
M  V30 36626 H 3415.39 0.0952656 -0.65713 0
M  V30 36627 H 3417.92 -0.338141 -2.01786 0
M  V30 36628 H 3417.93 1.24063 -3.8868 0
M  V30 36629 H 3416.61 0.120466 -4.15725 0
M  V30 36630 H 3415.18 1.73839 -3.29901 0
M  V30 36631 N 3417.37 1.57509 0.0534363 0
M  V30 36632 C 3418.61 1.89272 0.744833 0
M  V30 36633 C 3418.97 0.815821 1.74247 0
M  V30 36634 O 3418.26 -0.178153 1.9077 0
M  V30 36635 C 3418.46 3.25471 1.47661 0
M  V30 36636 C 3418.28 4.46307 0.551348 0
M  V30 36637 C 3417.05 5.04974 0.181428 0
M  V30 36638 C 3419.25 5.14052 -0.159856 0
M  V30 36639 N 3417.23 6.09331 -0.747633 0
M  V30 36640 C 3418.61 6.12749 -0.945438 0
M  V30 36641 C 3420.66 4.97371 -0.229387 0
M  V30 36642 C 3419.36 6.96566 -1.79412 0
M  V30 36643 C 3421.39 5.8173 -1.06511 0
M  V30 36644 C 3420.75 6.79979 -1.83868 0
M  V30 36645 H 3416.85 0.74183 0.24741 0
M  V30 36646 H 3419.43 1.94699 0.0056712 0
M  V30 36647 H 3417.61 3.21017 2.18638 0
M  V30 36648 H 3419.34 3.44823 2.11846 0
M  V30 36649 H 3416.09 4.70531 0.538325 0
M  V30 36650 H 3416.52 6.66173 -1.20595 0
M  V30 36651 H 3421.16 4.21312 0.354367 0
M  V30 36652 H 3418.88 7.71987 -2.38877 0
M  V30 36653 H 3422.46 5.70876 -1.12212 0
M  V30 36654 H 3421.34 7.44122 -2.47492 0
M  V30 36655 N 3418.85 -0.325228 1.54208 0
M  V30 36656 C 3420.09 -1.06494 1.72588 0
M  V30 36657 C 3420.42 -1.87726 0.497261 0
M  V30 36658 O 3419.7 -1.87809 -0.505771 0
M  V30 36659 C 3419.98 -1.99104 3.00049 0
M  V30 36660 C 3419.84 -1.21214 4.3316 0
M  V30 36661 C 3421.15 -2.98652 3.23257 0
M  V30 36662 H 3418.27 -0.385758 0.62798 0
M  V30 36663 H 3420.92 -0.341757 1.86901 0
M  V30 36664 H 3419.07 -2.6077 2.87978 0
M  V30 36665 H 3420.74 -0.620209 4.57112 0
M  V30 36666 H 3418.98 -0.514386 4.30739 0
M  V30 36667 H 3419.65 -1.89205 5.18561 0
M  V30 36668 H 3422.13 -2.47108 3.34779 0
M  V30 36669 H 3421 -3.60637 4.13802 0
M  V30 36670 H 3421.26 -3.71021 2.40407 0
M  V30 36671 N 3420.32 -1.46252 -0.587204 0
M  V30 36672 C 3421.27 -1.52893 -1.69138 0
M  V30 36673 C 3422.26 -0.390267 -1.56095 0
M  V30 36674 O 3423.45 -0.638402 -1.65086 0
M  V30 36675 C 3420.58 -1.51791 -3.0792 0
M  V30 36676 C 3419.66 -2.70934 -3.26275 0
M  V30 36677 N 3420.06 -3.95891 -3.14808 0
M  V30 36678 C 3418.35 -2.67063 -3.57202 0
M  V30 36679 C 3419.05 -4.75519 -3.35046 0
M  V30 36680 N 3418.03 -4.07317 -3.59992 0
M  V30 36681 H 3421.83 -2.47308 -1.58796 0
M  V30 36682 H 3419.35 -1.41829 -0.791099 0
M  V30 36683 H 3421.34 -1.54635 -3.87161 0
M  V30 36684 H 3420 -0.584491 -3.19396 0
M  V30 36685 H 3421.01 -4.27207 -2.9277 0
M  V30 36686 H 3417.69 -1.82724 -3.75391 0
M  V30 36687 H 3419.08 -5.84485 -3.31402 0
M  V30 36688 N 3421.8 0.831459 -1.33883 0
M  V30 36689 C 3422.73 1.94912 -1.20591 0
M  V30 36690 C 3423.75 1.62239 -0.135054 0
M  V30 36691 O 3424.94 1.74273 -0.386147 0
M  V30 36692 C 3422.04 3.2861 -0.82877 0
M  V30 36693 C 3421.21 3.89365 -1.99282 0
M  V30 36694 C 3420.27 5.0143 -1.59546 0
M  V30 36695 O 3419.29 5.20181 -2.31085 0
M  V30 36696 N 3420.5 5.78302 -0.504702 0
M  V30 36697 H 3423.26 2.06848 -2.16873 0
M  V30 36698 H 3420.82 1.00759 -1.26725 0
M  V30 36699 H 3422.81 4.01015 -0.544898 0
M  V30 36700 H 3421.38 3.1257 0.0435984 0
M  V30 36701 H 3420.6 3.09459 -2.4419 0
M  V30 36702 H 3421.89 4.2669 -2.77152 0
M  V30 36703 H 3421.29 5.65628 0.0902111 0
M  V30 36704 H 3419.85 6.51196 -0.28053 0
M  V30 36705 N 3423.28 1.17472 1.05062 0
M  V30 36706 C 3424.53 0.958332 1.77479 0
M  V30 36707 C 3424.84 -0.513977 1.88726 0
M  V30 36708 O 3426.05 -0.848611 2.57897 0
M  V30 36709 C 3424.5 1.66548 3.19045 0
M  V30 36710 C 3424.11 3.17641 3.15924 0
M  V30 36711 C 3425.86 1.53153 3.9591 0
M  V30 36712 C 3423.76 3.8104 4.52286 0
M  V30 36713 H 3422.69 0.354924 0.66524 0
M  V30 36714 H 3425.34 1.40739 1.17748 0
M  V30 36715 H 3423.73 1.14416 3.79111 0
M  V30 36716 H 3424.9 3.76718 2.65368 0
M  V30 36717 H 3423.21 3.31064 2.52559 0
M  V30 36718 H 3425.81 1.97889 4.96734 0
M  V30 36719 H 3426.15 0.482276 4.13497 0
M  V30 36720 H 3426.69 2.0251 3.42395 0
M  V30 36721 H 3423.43 4.85968 4.39904 0
M  V30 36722 H 3422.95 3.2675 5.02986 0
M  V30 36723 H 3424.63 3.83322 5.21223 0
M  V30 36724 N 3424.76 -1.23807 0.975168 0
M  V30 36725 C 3425.72 -2.23312 0.516196 0
M  V30 36726 C 3426.72 -1.55965 -0.391333 0
M  V30 36727 O 3427.91 -1.73207 -0.185752 0
M  V30 36728 C 3425.04 -3.39971 -0.251474 0
M  V30 36729 H 3426.24 -2.65431 1.39594 0
M  V30 36730 H 3423.79 -1.3655 0.760517 0
M  V30 36731 H 3424.52 -3.03301 -1.14799 0
M  V30 36732 H 3424.31 -3.90055 0.399893 0
M  V30 36733 H 3425.8 -4.1381 -0.561366 0
M  V30 36734 N 3426.24 -0.746182 -1.38816 0
M  V30 36735 C 3427.17 -0.128877 -2.33144 0
M  V30 36736 C 3428.15 0.711846 -1.54489 0
M  V30 36737 O 3429.33 0.654545 -1.82837 0
M  V30 36738 C 3426.46 0.770712 -3.3864 0
M  V30 36739 C 3425.42 0.0332917 -4.27987 0
M  V30 36740 C 3424.74 1.05064 -5.24276 0
M  V30 36741 C 3426.04 -1.13075 -5.09913 0
M  V30 36742 H 3427.74 -0.916828 -2.85017 0
M  V30 36743 H 3425.28 -0.44233 -1.37038 0
M  V30 36744 H 3427.23 1.21218 -4.03589 0
M  V30 36745 H 3425.96 1.5909 -2.85233 0
M  V30 36746 H 3424.62 -0.388676 -3.64534 0
M  V30 36747 H 3424.27 1.8647 -4.6716 0
M  V30 36748 H 3423.97 0.561934 -5.84907 0
M  V30 36749 H 3425.49 1.49158 -5.92102 0
M  V30 36750 H 3426.9 -0.767183 -5.68144 0
M  V30 36751 H 3425.3 -1.54982 -5.79742 0
M  V30 36752 H 3426.37 -1.94717 -4.44087 0
M  V30 36753 N 3427.71 1.49635 -0.494676 0
M  V30 36754 C 3429.13 1.58891 -0.150245 0
M  V30 36755 C 3429.33 1.50056 1.34483 0
M  V30 36756 O 3428.39 1.37122 2.12023 0
M  V30 36757 C 3429.7 2.91918 -0.721423 0
M  V30 36758 C 3431.25 3.05368 -0.686961 0
M  V30 36759 C 3431.72 4.41004 -1.23609 0
M  V30 36760 N 3433.21 4.47479 -1.19652 0
M  V30 36761 C 3433.95 5.50866 -1.59166 0
M  V30 36762 N 3433.44 6.61389 -2.06243 0
M  V30 36763 N 3435.24 5.41544 -1.50622 0
M  V30 36764 H 3427.39 1.53621 -1.46677 0
M  V30 36765 H 3429.65 0.727339 -0.608015 0
M  V30 36766 H 3429.36 3.03932 -1.76969 0
M  V30 36767 H 3429.23 3.76779 -0.178266 0
M  V30 36768 H 3431.62 2.92988 0.352457 0
M  V30 36769 H 3431.7 2.22207 -1.26719 0
M  V30 36770 H 3431.34 4.54136 -2.27426 0
M  V30 36771 H 3431.27 5.22795 -0.631857 0
M  V30 36772 H 3433.76 3.68182 -0.851508 0
M  V30 36773 H 3434.08 7.36368 -2.34482 0
M  V30 36774 H 3432.42 6.62447 -2.10213 0
M  V30 36775 H 3435.61 4.5409 -1.13667 0
M  V30 36776 H 3435.79 6.21992 -1.81741 0
M  V30 36777 N 3429.19 0.228241 1.55939 0
M  V30 36778 C 3430.12 -0.719283 2.16568 0
M  V30 36779 C 3431.1 -1.18625 1.11206 0
M  V30 36780 O 3432.29 -1.26778 1.39498 0
M  V30 36781 C 3429.41 -1.97531 2.75135 0
M  V30 36782 C 3428.46 -1.64776 3.93384 0
M  V30 36783 S 3429.29 -0.766687 5.29983 0
M  V30 36784 C 3430.45 -2.03213 5.91993 0
M  V30 36785 H 3430.68 -0.203983 2.96599 0
M  V30 36786 H 3428.21 0.0128678 1.54395 0
M  V30 36787 H 3430.17 -2.69647 3.09517 0
M  V30 36788 H 3428.83 -2.46173 1.95084 0
M  V30 36789 H 3428.03 -2.58115 4.32889 0
M  V30 36790 H 3427.63 -1.00718 3.60183 0
M  V30 36791 H 3429.92 -2.98141 6.08373 0
M  V30 36792 H 3430.86 -1.68087 6.87861 0
M  V30 36793 H 3431.27 -2.17571 5.20887 0
M  V30 36794 N 3430.67 -1.57536 -0.0450825 0
M  V30 36795 C 3431.58 -2.08884 -1.06793 0
M  V30 36796 C 3432.6 -1.02397 -1.4068 0
M  V30 36797 O 3433.77 -1.34035 -1.50321 0
M  V30 36798 C 3430.84 -2.54476 -2.35463 0
M  V30 36799 C 3429.9 -3.75378 -2.08303 0
M  V30 36800 C 3429.13 -4.18786 -3.30838 0
M  V30 36801 O 3429.35 -3.61842 -4.40938 0
M  V30 36802 O 3428.29 -5.11362 -3.17479 0
M  V30 36803 H 3432.11 -2.96406 -0.661606 0
M  V30 36804 H 3429.7 -1.47102 -0.261014 0
M  V30 36805 H 3431.58 -2.84203 -3.11138 0
M  V30 36806 H 3430.26 -1.70072 -2.75422 0
M  V30 36807 H 3429.16 -3.50694 -1.30247 0
M  V30 36808 H 3430.5 -4.60716 -1.73209 0
M  V30 36809 N 3432.15 0.317045 -1.54378 0
M  V30 36810 C 3433.39 1.05578 -1.73151 0
M  V30 36811 C 3433.73 1.87459 -0.507209 0
M  V30 36812 O 3433 1.88075 0.495804 0
M  V30 36813 C 3433.29 1.9751 -3.01101 0
M  V30 36814 C 3433.14 1.18915 -4.33796 0
M  V30 36815 C 3434.46 2.96934 -3.24836 0
M  V30 36816 H 3431.58 0.382423 -0.630017 0
M  V30 36817 H 3434.22 0.33184 -1.8708 0
M  V30 36818 H 3432.37 2.59239 -2.89357 0
M  V30 36819 H 3434.04 0.595959 -4.57434 0
M  V30 36820 H 3432.28 0.491536 -4.31006 0
M  V30 36821 H 3432.95 1.86452 -5.19557 0
M  V30 36822 H 3435.43 2.45329 -3.36085 0
M  V30 36823 H 3434.31 3.58438 -4.15709 0
M  V30 36824 H 3434.57 3.69741 -2.42371 0
M  V30 36825 N 3433.63 1.46561 0.57944 0
M  V30 36826 C 3434.56 1.60236 1.69843 0
M  V30 36827 C 3435.54 0.452562 1.63969 0
M  V30 36828 O 3436.72 0.679206 1.81935 0
M  V30 36829 C 3433.85 1.59543 3.08485 0
M  V30 36830 C 3432.81 2.73526 3.29193 0
M  V30 36831 C 3432.13 2.57896 4.68395 0
M  V30 36832 C 3433.43 4.15321 3.16711 0
M  V30 36833 H 3435.13 2.53907 1.58656 0
M  V30 36834 H 3432.67 1.22196 0.761852 0
M  V30 36835 H 3434.63 1.67703 3.86592 0
M  V30 36836 H 3433.35 0.624186 3.2058 0
M  V30 36837 H 3432.01 2.6484 2.53486 0
M  V30 36838 H 3431.66 1.58847 4.77259 0
M  V30 36839 H 3431.36 3.34349 4.83202 0
M  V30 36840 H 3432.88 2.67951 5.48666 0
M  V30 36841 H 3434.29 4.251 3.84659 0
M  V30 36842 H 3432.69 4.92387 3.43038 0
M  V30 36843 H 3433.76 4.35247 2.13747 0
M  V30 36844 N 3435.1 -0.824347 1.34322 0
M  V30 36845 C 3436.35 -1.57736 1.26348 0
M  V30 36846 C 3436.67 -1.94285 -0.166802 0
M  V30 36847 O 3435.94 -1.62164 -1.09908 0
M  V30 36848 H 3434.52 -0.584885 0.46467 0
M  V30 36849 H 3437.19 -0.984344 1.68216 0
M  V30 36850 H 3436.28 -2.50081 1.86724 0
M  V30 36851 N 3436.58 -1.18028 -1.04437 0
M  V30 36852 C 3437.82 -0.98427 -1.79141 0
M  V30 36853 C 3438.19 0.477969 -1.85956 0
M  V30 36854 O 3439.39 0.7933 -2.56827 0
M  V30 36855 C 3437.66 -1.61674 -3.18742 0
M  V30 36856 S 3439.22 -1.56798 -4.09829 0
M  V30 36857 H 3436.04 -0.353536 -0.616874 0
M  V30 36858 H 3438.64 -1.50106 -1.25253 0
M  V30 36859 H 3437.34 -2.6733 -3.11389 0
M  V30 36860 H 3436.87 -1.10008 -3.77706 0
M  V30 36861 H 3438.89 -0.581261 -4.92784 0
M  V30 36862 N 3438.06 1.23288 -0.98172 0
M  V30 36863 C 3438.97 2.28504 -0.531336 0
M  V30 36864 C 3439.99 1.68991 0.414501 0
M  V30 36865 O 3441.16 1.99386 0.284094 0
M  V30 36866 C 3438.23 3.46341 0.157803 0
M  V30 36867 C 3437.29 4.21208 -0.829601 0
M  V30 36868 C 3436.52 5.33419 -0.173254 0
M  V30 36869 O 3436.74 5.60924 1.03539 0
M  V30 36870 O 3435.68 5.95543 -0.87249 0
M  V30 36871 H 3439.5 2.69174 -1.40638 0
M  V30 36872 H 3437.09 1.29244 -0.749418 0
M  V30 36873 H 3438.97 4.1787 0.544321 0
M  V30 36874 H 3437.65 3.07619 1.00759 0
M  V30 36875 H 3436.55 3.51997 -1.26684 0
M  V30 36876 H 3437.89 4.63782 -1.64824 0
M  V30 36877 N 3439.54 0.753533 1.38418 0
M  V30 36878 C 3440.5 0.134062 2.28808 0
M  V30 36879 C 3441.5 -0.647557 1.47185 0
M  V30 36880 O 3442.69 -0.473831 1.67632 0
M  V30 36881 C 3439.82 -0.818522 3.30928 0
M  V30 36882 H 3441.02 0.930636 2.85095 0
M  V30 36883 H 3438.57 0.52054 1.47377 0
M  V30 36884 H 3439.3 -1.64077 2.7973 0
M  V30 36885 H 3439.09 -0.260457 3.91234 0
M  V30 36886 H 3440.58 -1.24795 3.98517 0
M  V30 36887 N 3441.02 -1.49371 0.502605 0
M  V30 36888 C 3441.95 -2.27071 -0.311703 0
M  V30 36889 C 3442.96 -1.33679 -0.929181 0
M  V30 36890 O 3444.15 -1.58949 -0.812249 0
M  V30 36891 C 3441.25 -3.06125 -1.45398 0
M  V30 36892 C 3440.42 -4.27102 -0.943516 0
M  V30 36893 C 3439.48 -4.8819 -1.9636 0
M  V30 36894 O 3438.51 -5.4821 -1.5315 0
M  V30 36895 N 3439.71 -4.77984 -3.29411 0
M  V30 36896 H 3442.48 -2.97595 0.354555 0
M  V30 36897 H 3440.04 -1.58391 0.335249 0
M  V30 36898 H 3442.03 -3.43865 -2.13398 0
M  V30 36899 H 3440.6 -2.38197 -2.02437 0
M  V30 36900 H 3439.82 -3.94101 -0.0883679 0
M  V30 36901 H 3441.11 -5.05473 -0.580894 0
M  V30 36902 H 3440.5 -4.30323 -3.67204 0
M  V30 36903 H 3439.06 -5.19904 -3.9312 0
M  V30 36904 N 3442.49 -0.236508 -1.55815 0
M  V30 36905 C 3443.77 0.4409 -1.90566 0
M  V30 36906 C 3444.15 1.76643 -1.15588 0
M  V30 36907 O 3443.5 2.26899 -0.269989 0
M  V30 36908 C 3443.71 0.61919 -3.43463 0
M  V30 36909 C 3445.06 0.919817 -4.14517 0
M  V30 36910 O 3446.08 0.705435 -3.49145 0
M  V30 36911 O 3444.94 1.32749 -5.30132 0
M  V30 36912 H 3442.03 0.235185 -0.792854 0
M  V30 36913 H 3444.58 -0.279803 -1.67377 0
M  V30 36914 H 3443.35 -0.315192 -3.90028 0
M  V30 36915 H 3442.98 1.39082 -3.72481 0
M  V30 36916 N 3443.97 1.57557 0.0367273 0
M  V30 36917 C 3444.9 2.09093 1.03935 0
M  V30 36918 C 3445.88 0.991785 1.38194 0
M  V30 36919 O 3447.07 1.26658 1.47212 0
M  V30 36920 C 3444.2 2.56398 2.34259 0
M  V30 36921 C 3443.15 3.70507 2.14262 0
M  V30 36922 C 3442.48 4.03991 3.50278 0
M  V30 36923 C 3443.78 4.99233 1.53505 0
M  V30 36924 H 3445.47 2.93112 0.610378 0
M  V30 36925 H 3443.02 1.41005 0.292159 0
M  V30 36926 H 3444.97 2.91071 3.04722 0
M  V30 36927 H 3443.7 1.69452 2.79202 0
M  V30 36928 H 3442.35 3.36172 1.46233 0
M  V30 36929 H 3442 3.14123 3.92856 0
M  V30 36930 H 3441.7 4.80848 3.37727 0
M  V30 36931 H 3443.23 4.41192 4.22116 0
M  V30 36932 H 3444.64 5.31912 2.13876 0
M  V30 36933 H 3443.04 5.80648 1.5155 0
M  V30 36934 H 3444.11 4.82315 0.500041 0
M  V30 36935 N 3445.45 -0.308854 1.54544 0
M  V30 36936 C 3446.68 -1.06265 1.77176 0
M  V30 36937 C 3447.09 -1.81698 0.527493 0
M  V30 36938 O 3446.43 -1.76421 -0.511996 0
M  V30 36939 C 3446.49 -2.0954 2.92119 0
M  V30 36940 C 3446.16 -1.53373 4.30495 0
M  V30 36941 C 3447.16 -0.967833 5.10812 0
M  V30 36942 C 3444.84 -1.57172 4.77077 0
M  V30 36943 C 3446.83 -0.447405 6.35828 0
M  V30 36944 C 3444.52 -1.04742 6.02057 0
M  V30 36945 C 3445.52 -0.486225 6.81267 0
M  V30 36946 O 3445.21 0.0301468 8.03894 0
M  V30 36947 H 3444.94 -0.32127 0.594779 0
M  V30 36948 H 3447.49 -0.356101 2.0229 0
M  V30 36949 H 3445.72 -2.83853 2.62611 0
M  V30 36950 H 3447.41 -2.70758 3.02399 0
M  V30 36951 H 3448.18 -0.931439 4.75972 0
M  V30 36952 H 3444.06 -1.99792 4.15456 0
M  V30 36953 H 3447.6 -0.0087195 6.97599 0
M  V30 36954 H 3443.5 -1.08094 6.36385 0
M  V30 36955 H 3444.27 -0.0838942 8.18457 0
M  V30 36956 O 3446.97 -1.54965 -0.454772 0
M  V30 36957 H 3447.66 -1.58826 -1.10878 0
M  V30 END ATOM
M  V30 BEGIN BOND
M  V30 END BOND
M  V30 END CTAB
M  END
$$$$
