drugbank_target|A0A0H2Z368 Arylsulfate sulfotransferase AssT (DB07118)
 OpenBabel12092120393D

  0  0  0     0  0            999 V3000
M  V30 BEGIN CTAB
M  V30 COUNTS 9310 9423 0 0 0
M  V30 BEGIN ATOM
M  V30 1 H -0.908 1.98254 -0.117106 0
M  V30 2 N 0 1.576 0 0
M  V30 3 C 0.933 2.03868 1.02534 0
M  V30 4 C 1.911 0.928543 1.3348 0
M  V30 5 O 3.095 1.19667 1.45644 0
M  V30 6 C 0.222 2.43627 2.35294 0
M  V30 7 C -0.732 3.65373 2.2001 0
M  V30 8 S 0.101 5.13292 1.52614 0
M  V30 9 C 1.257 5.56322 2.86805 0
M  V30 10 H 1.49 2.90518 0.631377 0
M  V30 11 H -0.977 1.52953 0.210867 0
M  V30 12 H 0.981 2.67203 3.11629 0
M  V30 13 H -0.358 1.57376 2.7183 0
M  V30 14 H -1.165 3.90944 3.18086 0
M  V30 15 H -1.563 3.418 1.51819 0
M  V30 16 H 0.729 5.58782 3.83104 0
M  V30 17 H 1.672 6.56266 2.65933 0
M  V30 18 H 2.08 4.83886 2.90714 0
M  V30 19 N 1.4781 -0.272755 1.55222 0
M  V30 20 C 2.7251 -1.00433 1.7584 0
M  V30 21 C 3.0531 -1.86275 0.559629 0
M  V30 22 O 2.3081 -1.90269 -0.457857 0
M  V30 23 C 2.6071 -1.91642 3.01675 0
M  V30 24 C 2.2731 -1.21548 4.34208 0
M  V30 25 C 0.9351 -1.02166 4.70229 0
M  V30 26 C 3.2871 -0.716684 5.16249 0
M  V30 27 C 0.6151 -0.316334 5.85847 0
M  V30 28 C 2.9671 -0.0249476 6.32595 0
M  V30 29 C 1.6311 0.180579 6.67256 0
M  V30 30 H 0.9011 -0.367509 0.643443 0
M  V30 31 H 3.5481 -0.276596 1.89492 0
M  V30 32 H 1.8531 -2.71037 2.82924 0
M  V30 33 H 3.5501 -2.48369 3.14824 0
M  V30 34 H 0.1401 -1.37645 4.05896 0
M  V30 35 H 4.3241 -0.854047 4.88896 0
M  V30 36 H -0.4199 -0.146378 6.11225 0
M  V30 37 H 3.7541 0.369311 6.9542 0
M  V30 38 H 1.3811 0.729098 7.56696 0
M  V30 39 N 2.9562 -1.48159 -0.537278 0
M  V30 40 C 4.2332 -1.46291 -1.29839 0
M  V30 41 C 4.6132 -0.170613 -2.10409 0
M  V30 42 O 3.9612 0.847746 -2.12192 0
M  V30 43 C 4.1712 -2.72055 -2.18603 0
M  V30 44 C 5.5192 -3.20087 -2.7898 0
M  V30 45 O 6.5432 -2.72921 -2.28894 0
M  V30 46 O 5.4022 -4.02138 -3.70064 0
M  V30 47 H 2.4962 -0.583906 -0.585647 0
M  V30 48 H 5.0422 -1.60384 -0.554534 0
M  V30 49 H 3.8142 -3.57628 -1.58801 0
M  V30 50 H 3.4372 -2.60646 -3.00249 0
M  V30 51 N 4.4343 0.785586 -1.36625 0
M  V30 52 C 5.3813 1.89838 -1.31264 0
M  V30 53 C 6.3513 1.65115 -0.180633 0
M  V30 54 O 7.5363 1.87222 -0.36777 0
M  V30 55 C 4.6763 3.26706 -1.11163 0
M  V30 56 C 3.7893 3.63476 -2.33472 0
M  V30 57 C 2.9243 4.89481 -2.06353 0
M  V30 58 C 1.9633 5.18941 -3.24602 0
M  V30 59 N 1.1003 6.36131 -2.97123 0
M  V30 60 H 5.9403 1.93756 -2.26413 0
M  V30 61 H 3.4773 0.947454 -1.12524 0
M  V30 62 H 5.4353 4.05639 -0.975337 0
M  V30 63 H 4.0653 3.222 -0.196674 0
M  V30 64 H 3.1173 2.79636 -2.57891 0
M  V30 65 H 4.4293 3.81193 -3.21704 0
M  V30 66 H 3.5833 5.76288 -1.89675 0
M  V30 67 H 2.3223 4.73841 -1.15437 0
M  V30 68 H 1.3273 4.30615 -3.41834 0
M  V30 69 H 2.5523 5.36498 -4.16349 0
M  V30 70 H 0.4983 6.21875 -2.08823 0
M  V30 71 H 0.4153 6.54198 -3.78894 0
M  V30 72 H 1.6833 7.2591 -2.84033 0
M  V30 73 N 5.9124 1.20967 1.01018 0
M  V30 74 C 7.1424 1.04803 1.78044 0
M  V30 75 C 7.5504 -0.405462 1.84804 0
M  V30 76 O 6.8934 -1.2932 1.30468 0
M  V30 77 C 6.9554 1.56377 3.23707 0
M  V30 78 C 6.6194 3.04767 3.40538 0
M  V30 79 C 7.6164 4.02366 3.29239 0
M  V30 80 C 5.3014 3.43862 3.66147 0
M  V30 81 C 7.2954 5.37049 3.43304 0
M  V30 82 C 4.9824 4.78699 3.79855 0
M  V30 83 C 5.9804 5.75101 3.68439 0
M  V30 84 O 5.6684 7.07493 3.81719 0
M  V30 85 H 5.4004 0.368778 0.56655 0
M  V30 86 H 7.9544 1.60642 1.27997 0
M  V30 87 H 6.1844 0.949297 3.74867 0
M  V30 88 H 7.8734 1.36136 3.8239 0
M  V30 89 H 8.6394 3.73506 3.09384 0
M  V30 90 H 4.5184 2.69364 3.74118 0
M  V30 91 H 8.0624 6.12277 3.34309 0
M  V30 92 H 3.9594 5.07247 3.99213 0
M  V30 93 H 4.7274 7.1483 3.98697 0
M  V30 94 N 7.3905 -1.2043 1.01659 0
M  V30 95 C 8.8065 -1.41852 0.731442 0
M  V30 96 C 9.0065 -1.89358 -0.688898 0
M  V30 97 O 8.0625 -2.06247 -1.45666 0
M  V30 98 C 9.3755 -2.44019 1.75714 0
M  V30 99 C 10.9235 -2.57785 1.77527 0
M  V30 100 C 11.3985 -3.63194 2.79023 0
M  V30 101 N 12.8895 -3.70678 2.77763 0
M  V30 102 C 13.6245 -4.51897 3.52954 0
M  V30 103 N 13.1205 -5.36921 4.37821 0
M  V30 104 N 14.9135 -4.4643 3.41551 0
M  V30 105 H 7.0645 -0.879093 1.93354 0
M  V30 106 H 9.3275 -0.448425 0.835236 0
M  V30 107 H 9.0335 -2.1611 2.77469 0
M  V30 108 H 8.9075 -3.43007 1.56927 0
M  V30 109 H 11.2945 -2.85023 0.764569 0
M  V30 110 H 11.3755 -1.58992 2.00387 0
M  V30 111 H 11.0195 -3.36699 3.80258 0
M  V30 112 H 10.9495 -4.61609 2.53425 0
M  V30 113 H 13.4405 -3.09944 2.16201 0
M  V30 114 H 13.7535 -5.95981 4.91962 0
M  V30 115 H 12.0985 -5.36424 4.41899 0
M  V30 116 H 15.2895 -3.79042 2.74672 0
M  V30 117 H 15.4625 -5.09491 4.00404 0
M  V30 118 N 8.8686 -0.792821 -1.36206 0
M  V30 119 C 9.8156 -0.191653 -2.30003 0
M  V30 120 C 10.7856 0.666453 -1.52143 0
M  V30 121 O 11.9706 0.61442 -1.80636 0
M  V30 122 C 9.1106 0.664848 -3.38635 0
M  V30 123 C 8.2236 -0.212175 -4.31479 0
M  V30 124 C 7.3586 0.651022 -5.27196 0
M  V30 125 C 6.3976 -0.227247 -6.11678 0
M  V30 126 N 5.5346 0.595127 -6.99573 0
M  V30 127 H 10.3746 -0.996978 -2.80828 0
M  V30 128 H 7.9116 -0.503206 -1.38225 0
M  V30 129 H 9.8696 1.17645 -4.00269 0
M  V30 130 H 8.4996 1.43557 -2.89122 0
M  V30 131 H 7.5516 -0.841777 -3.70969 0
M  V30 132 H 8.8636 -0.888751 -4.90818 0
M  V30 133 H 8.0176 1.2283 -5.94136 0
M  V30 134 H 6.7566 1.36121 -4.68319 0
M  V30 135 H 5.7616 -0.816904 -5.43697 0
M  V30 136 H 6.9866 -0.93509 -6.72631 0
M  V30 137 H 4.9326 1.28955 -6.432 0
M  V30 138 H 4.8496 -0.0236952 -7.55996 0
M  V30 139 H 6.1176 1.15613 -7.70879 0
M  V30 140 N 10.3467 1.47872 -0.545128 0
M  V30 141 C 11.5747 2.06889 -0.021084 0
M  V30 142 C 11.9897 1.39955 1.2672 0
M  V30 143 O 11.3467 0.492036 1.75742 0
M  V30 144 C 11.3977 3.60996 0.190817 0
M  V30 145 O 11.1187 4.25419 -1.04644 0
M  V30 146 C 12.6197 4.36849 0.753521 0
M  V30 147 H 9.8397 0.669785 -0.0403635 0
M  V30 148 H 12.3837 1.90049 -0.755095 0
M  V30 149 H 10.5387 3.77391 0.87492 0
M  V30 150 H 10.9527 5.17785 -0.836611 0
M  V30 151 H 12.4267 5.45399 0.851139 0
M  V30 152 H 12.9037 4.02306 1.762 0
M  V30 153 H 13.5097 4.25169 0.105503 0
M  V30 154 N 11.8248 0.280983 1.55075 0
M  V30 155 C 12.7548 -0.597469 2.25727 0
M  V30 156 C 13.7358 -1.15417 1.24952 0
M  V30 157 O 14.9208 -1.18722 1.53684 0
M  V30 158 C 12.0508 -1.7789 2.98283 0
M  V30 159 C 11.0048 -1.35347 4.06036 0
M  V30 160 C 10.3308 -2.61846 4.66198 0
M  V30 161 C 11.6308 -0.499354 5.19907 0
M  V30 162 H 13.3248 -0.00824265 2.99399 0
M  V30 163 H 10.8708 -0.0025244 1.44 0
M  V30 164 H 12.8238 -2.39937 3.46422 0
M  V30 165 H 11.5478 -2.39405 2.22155 0
M  V30 166 H 10.2068 -0.756156 3.58717 0
M  V30 167 H 9.8548 -3.21632 3.86732 0
M  V30 168 H 9.5548 -2.3409 5.38958 0
M  V30 169 H 11.0788 -3.24732 5.1709 0
M  V30 170 H 12.4928 -1.02498 5.64063 0
M  V30 171 H 10.8898 -0.316424 5.99265 0
M  V30 172 H 11.9598 0.480459 4.82514 0
M  V30 173 N 13.3029 -1.57598 0.00835791 0
M  V30 174 C 14.5489 -1.91211 -0.675732 0
M  V30 175 C 14.8819 -0.883139 -1.72958 0
M  V30 176 O 14.1569 0.097016 -1.94258 0
M  V30 177 C 14.4399 -3.35379 -1.31123 0
M  V30 178 C 14.2929 -4.48999 -0.268356 0
M  V30 179 C 15.6119 -3.7912 -2.23508 0
M  V30 180 H 12.7309 -0.695374 -0.244179 0
M  V30 181 H 15.3729 -1.89901 0.0613655 0
M  V30 182 H 13.5229 -3.36626 -1.93946 0
M  V30 183 H 15.1949 -4.59887 0.360844 0
M  V30 184 H 13.4379 -4.31873 0.408482 0
M  V30 185 H 14.1089 -5.46851 -0.752218 0
M  V30 186 H 16.5849 -3.79477 -1.70693 0
M  V30 187 H 15.4609 -4.80729 -2.64936 0
M  V30 188 H 15.7219 -3.13455 -3.11766 0
M  V30 189 N 14.781 0.264519 -1.55364 0
M  V30 190 C 15.744 1.31046 -1.88042 0
M  V30 191 C 16.744 1.41943 -0.755569 0
M  V30 192 O 17.934 1.40947 -1.02369 0
M  V30 193 C 15.066 2.69067 -2.09323 0
M  V30 194 H 16.259 1.03297 -2.81549 0
M  V30 195 H 13.812 0.502989 -1.47986 0
M  V30 196 H 14.547 3.01982 -1.18226 0
M  V30 197 H 14.332 2.62542 -2.91229 0
M  V30 198 H 15.822 3.44623 -2.35848 0
M  V30 199 N 16.2591 1.48442 0.529413 0
M  V30 200 C 17.5071 1.56179 1.28267 0
M  V30 201 C 17.8281 0.237721 1.93546 0
M  V30 202 O 17.0981 -0.740779 1.81354 0
M  V30 203 H 15.6781 0.575367 0.476405 0
M  V30 204 H 18.3401 1.84909 0.61602 0
M  V30 205 H 17.4361 2.34312 2.06165 0
M  V30 206 N 17.7372 -0.778329 1.37039 0
M  V30 207 C 18.9652 -1.56734 1.35063 0
M  V30 208 C 19.3802 -1.88686 -0.0655597 0
M  V30 209 O 18.7372 -1.5096 -1.02554 0
M  V30 210 C 18.7882 -2.88163 2.18276 0
M  V30 211 O 18.5092 -2.57583 3.54376 0
M  V30 212 C 20.0102 -3.82422 2.24206 0
M  V30 213 H 17.2302 -0.485778 0.462883 0
M  V30 214 H 19.7742 -0.965185 1.8029 0
M  V30 215 H 17.9292 -3.44818 1.76576 0
M  V30 216 H 18.3432 -3.41699 3.97922 0
M  V30 217 H 19.8172 -4.71667 2.86765 0
M  V30 218 H 20.2942 -4.21078 1.24861 0
M  V30 219 H 20.9002 -3.31697 2.6619 0
M  V30 220 N 19.2153 -1.21501 -1.00376 0
M  V30 221 C 20.4613 -1.03452 -1.74429 0
M  V30 222 C 20.7943 0.430764 -1.89362 0
M  V30 223 O 20.0693 1.31962 -1.42886 0
M  V30 224 C 20.3523 -1.73375 -3.15615 0
M  V30 225 C 20.2053 -3.27431 -3.08397 0
M  V30 226 C 21.5243 -1.47732 -4.14564 0
M  V30 227 H 18.6433 -0.377226 -0.633143 0
M  V30 228 H 21.2853 -1.49693 -1.17013 0
M  V30 229 H 19.4353 -1.34064 -3.64636 0
M  V30 230 H 21.1073 -3.76119 -2.67081 0
M  V30 231 H 19.3503 -3.5767 -2.45468 0
M  V30 232 H 20.0213 -3.71524 -4.08258 0
M  V30 233 H 22.4973 -1.8186 -3.74254 0
M  V30 234 H 21.3733 -1.99169 -5.11491 0
M  V30 235 H 21.6343 -0.407589 -4.40217 0
M  V30 236 N 20.6934 1.19889 -1.02296 0
M  V30 237 C 21.6564 2.21116 -0.603351 0
M  V30 238 C 22.6564 1.5738 0.329884 0
M  V30 239 O 23.8464 1.73802 0.117702 0
M  V30 240 C 20.9784 3.40696 0.117992 0
M  V30 241 H 22.1714 2.59754 -1.49893 0
M  V30 242 H 19.7244 1.33463 -0.813468 0
M  V30 243 H 20.4594 3.07569 1.0282 0
M  V30 244 H 20.2444 3.88188 -0.552511 0
M  V30 245 H 21.7344 4.15692 0.398696 0
M  V30 246 N 22.1715 0.800033 1.35784 0
M  V30 247 C 23.4205 0.37387 1.98205 0
M  V30 248 C 23.7335 -1.06302 1.64193 0
M  V30 249 O 24.9395 -1.59198 2.19928 0
M  V30 250 C 23.3955 0.617532 3.54562 0
M  V30 251 C 23.0035 2.06654 3.9749 0
M  V30 252 C 24.7475 0.256401 4.23725 0
M  V30 253 C 22.6545 2.2563 5.46667 0
M  V30 254 H 21.5845 0.136055 0.741623 0
M  V30 255 H 24.2355 0.983166 1.54939 0
M  V30 256 H 22.6175 -0.0616248 3.95952 0
M  V30 257 H 23.7915 2.78296 3.67271 0
M  V30 258 H 22.1065 2.38691 3.41197 0
M  V30 259 H 24.7035 0.376318 5.33374 0
M  V30 260 H 25.0465 -0.796692 4.08606 0
M  V30 261 H 25.5795 0.889214 3.87734 0
M  V30 262 H 22.3185 3.2936 5.66747 0
M  V30 263 H 21.8385 1.58504 5.78478 0
M  V30 264 H 23.5175 2.06861 6.1304 0
M  V30 265 N 23.6496 -1.47581 0.552962 0
M  V30 266 C 24.8776 -2.06875 0.0320556 0
M  V30 267 C 25.2926 -1.40625 -1.25976 0
M  V30 268 O 24.6496 -0.501349 -1.75479 0
M  V30 269 C 24.7006 -3.61092 -0.17167 0
M  V30 270 O 24.4216 -4.24858 1.06899 0
M  V30 271 C 25.9226 -4.37242 -0.730344 0
M  V30 272 H 23.1426 -0.669561 0.043915 0
M  V30 273 H 25.6866 -1.89646 0.765163 0
M  V30 274 H 23.8416 -3.7785 -0.854894 0
M  V30 275 H 24.2556 -5.17334 0.864059 0
M  V30 276 H 25.7296 -5.45842 -0.822203 0
M  V30 277 H 26.2066 -4.03235 -1.74064 0
M  V30 278 H 26.8126 -4.25219 -0.0829543 0
M  V30 279 N 25.1277 -0.289203 -1.54924 0
M  V30 280 C 26.0577 0.58549 -2.2604 0
M  V30 281 C 27.0387 1.14753 -1.25562 0
M  V30 282 O 28.2237 1.17906 -1.54311 0
M  V30 283 C 25.3537 1.76305 -2.99222 0
M  V30 284 C 24.3077 1.33191 -4.06748 0
M  V30 285 C 23.6337 2.5937 -4.6758 0
M  V30 286 C 24.9337 0.471775 -5.20165 0
M  V30 287 H 26.6277 -0.00763532 -2.99399 0
M  V30 288 H 24.1737 -0.00511229 -1.43999 0
M  V30 289 H 26.1267 2.38097 -3.47689 0
M  V30 290 H 24.8507 2.38223 -2.23422 0
M  V30 291 H 23.5097 0.737121 -3.59113 0
M  V30 292 H 23.1577 3.19576 -3.88433 0
M  V30 293 H 22.8577 2.31228 -5.40192 0
M  V30 294 H 24.3817 3.21985 -5.18804 0
M  V30 295 H 25.7957 0.995056 -5.64599 0
M  V30 296 H 24.1927 0.284639 -5.99425 0
M  V30 297 H 25.2627 -0.506041 -4.82252 0
M  V30 298 N 26.6058 1.57591 -0.0167156 0
M  V30 299 C 27.8538 1.90906 0.663285 0
M  V30 300 C 28.1748 0.892509 1.73376 0
M  V30 301 O 27.4448 -0.0677623 1.95783 0
M  V30 302 H 26.0248 0.704637 0.247983 0
M  V30 303 H 28.6868 1.94803 -0.0615909 0
M  V30 304 H 27.7828 2.9116 1.12393 0
M  V30 305 N 28.0839 -0.256276 1.55502 0
M  V30 306 C 29.0139 -1.32102 1.92539 0
M  V30 307 C 29.9949 -1.50684 0.789194 0
M  V30 308 O 31.1799 -1.63449 1.04872 0
M  V30 309 C 28.3099 -2.67752 2.21192 0
M  V30 310 C 27.2639 -2.63878 3.36975 0
M  V30 311 C 26.5899 -4.03236 3.51147 0
M  V30 312 C 27.8899 -2.21682 4.72921 0
M  V30 313 H 29.5839 -1.01351 2.81724 0
M  V30 314 H 27.1299 -0.486105 1.35547 0
M  V30 315 H 29.0829 -3.42365 2.45691 0
M  V30 316 H 27.8069 -3.0012 1.28824 0
M  V30 317 H 26.4659 -1.91722 3.12471 0
M  V30 318 H 26.1139 -4.32854 2.56216 0
M  V30 319 H 25.8139 -4.01535 4.29003 0
M  V30 320 H 27.3379 -4.79563 3.77957 0
M  V30 321 H 28.7519 -2.86023 4.96854 0
M  V30 322 H 27.1489 -2.3111 5.53812 0
M  V30 323 H 28.2189 -1.16833 4.70615 0
M  V30 324 N 29.562 -1.4872 -0.521534 0
M  V30 325 C 30.787 -1.61101 -1.30618 0
M  V30 326 C 31.212 -0.274611 -1.86085 0
M  V30 327 O 30.57 0.754937 -1.64834 0
M  V30 328 C 30.618 -2.66709 -2.4269 0
M  V30 329 O 29.722 -2.24456 -3.45967 0
M  V30 330 H 29.063 -0.539921 -0.386499 0
M  V30 331 H 31.593 -1.94767 -0.626645 0
M  V30 332 H 31.603 -2.88245 -2.88754 0
M  V30 333 H 30.278 -3.63727 -2.01682 0
M  V30 334 H 28.855 -2.13168 -3.05964 0
M  V30 335 N 31.0401 0.771051 -1.3745 0
M  V30 336 C 32.0031 1.86598 -1.33093 0
M  V30 337 C 33.0031 1.59076 -0.234845 0
M  V30 338 O 34.1931 1.67145 -0.490732 0
M  V30 339 C 31.3251 3.23747 -1.06773 0
M  V30 340 H 32.5181 1.91873 -2.30488 0
M  V30 341 H 30.0711 0.970876 -1.2249 0
M  V30 342 H 30.8061 3.24148 -0.099129 0
M  V30 343 H 30.5911 3.45115 -1.86112 0
M  V30 344 H 32.0811 4.03824 -1.06377 0
M  V30 345 N 32.5182 1.22032 0.997298 0
M  V30 346 C 33.7432 1.06921 1.77715 0
M  V30 347 C 34.1682 -0.376226 1.84299 0
M  V30 348 O 33.5262 -1.27165 1.29223 0
M  V30 349 C 33.5742 1.67996 3.19076 0
M  V30 350 O 32.6782 0.930653 4.01762 0
M  V30 351 H 32.0192 0.375814 0.547412 0
M  V30 352 H 34.5492 1.61737 1.25309 0
M  V30 353 H 34.5592 1.72538 3.69723 0
M  V30 354 H 33.2342 2.73182 3.13599 0
M  V30 355 H 31.8112 0.960917 3.60307 0
M  V30 356 N 33.9963 -1.19345 1.0293 0
M  V30 357 C 35.2443 -1.88665 0.724574 0
M  V30 358 C 35.5653 -1.80036 -0.749144 0
M  V30 359 O 34.8353 -1.2111 -1.53978 0
M  V30 360 H 33.4153 -0.698406 0.265025 0
M  V30 361 H 36.0773 -1.44885 1.30362 0
M  V30 362 H 35.1733 -2.94987 1.01926 0
M  V30 363 N 35.4744 -0.807222 -1.35358 0
M  V30 364 C 36.7204 -0.388463 -1.99045 0
M  V30 365 C 37.0534 1.04184 -1.63888 0
M  V30 366 O 36.3284 1.72292 -0.902535 0
M  V30 367 C 36.6114 -0.572783 -3.55515 0
M  V30 368 C 36.4644 -2.04807 -4.00468 0
M  V30 369 C 37.7834 0.00114064 -4.401 0
M  V30 370 H 34.9024 -0.142619 -0.723069 0
M  V30 371 H 37.5444 -1.01687 -1.60498 0
M  V30 372 H 35.6944 -0.0378425 -3.88482 0
M  V30 373 H 37.3664 -2.64544 -3.77908 0
M  V30 374 H 35.6094 -2.54427 -3.51353 0
M  V30 375 H 36.2804 -2.12792 -5.09337 0
M  V30 376 H 38.7564 -0.455716 -4.13597 0
M  V30 377 H 37.6324 -0.157737 -5.48673 0
M  V30 378 H 37.8934 1.09488 -4.28328 0
M  V30 379 N 36.9525 1.47285 -0.560781 0
M  V30 380 C 37.8855 2.27009 0.232821 0
M  V30 381 C 38.8635 1.34273 0.917039 0
M  V30 382 O 40.0475 1.63659 0.935315 0
M  V30 383 C 37.1745 3.11406 1.33206 0
M  V30 384 C 36.2205 4.19746 0.756019 0
M  V30 385 S 37.0535 5.34003 -0.400165 0
M  V30 386 C 38.2095 6.21964 0.700805 0
M  V30 387 H 38.4425 2.93971 -0.443683 0
M  V30 388 H 35.9755 1.50446 -0.347181 0
M  V30 389 H 37.9335 3.60601 1.96156 0
M  V30 390 H 36.5945 2.438 1.98041 0
M  V30 391 H 35.7875 4.78541 1.5816 0
M  V30 392 H 35.3895 3.73451 0.202619 0
M  V30 393 H 37.6815 6.58529 1.59202 0
M  V30 394 H 38.6245 7.07941 0.150126 0
M  V30 395 H 39.0325 5.5566 0.995083 0
M  V30 396 N 38.4306 0.297415 1.54768 0
M  V30 397 C 39.3936 -0.567375 2.22066 0
M  V30 398 C 40.3936 -1.06409 1.20556 0
M  V30 399 O 41.5836 -0.960691 1.45315 0
M  V30 400 C 38.7156 -1.78517 2.90421 0
M  V30 401 H 39.9086 0.0205534 2.99893 0
M  V30 402 H 37.4616 0.0482163 1.56226 0
M  V30 403 H 38.1966 -2.41303 2.16664 0
M  V30 404 H 37.9816 -1.43669 3.64831 0
M  V30 405 H 39.4716 -2.39964 3.41771 0
M  V30 406 N 39.9087 -1.5758 0.0250728 0
M  V30 407 C 40.8717 -2.08896 -0.943139 0
M  V30 408 C 41.8717 -1.00321 -1.25668 0
M  V30 409 O 43.0617 -1.26495 -1.19769 0
M  V30 410 C 40.1937 -2.55143 -2.26086 0
M  V30 411 H 41.3867 -2.95723 -0.498775 0
M  V30 412 H 38.9397 -1.54703 -0.222888 0
M  V30 413 H 39.6747 -1.71633 -2.75159 0
M  V30 414 H 39.4597 -3.34461 -2.04641 0
M  V30 415 H 40.9497 -2.95083 -2.95492 0
M  V30 416 N 41.3868 0.248026 -1.55636 0
M  V30 417 C 42.6348 0.974295 -1.77065 0
M  V30 418 C 42.9558 1.85897 -0.588849 0
M  V30 419 O 42.2258 1.91868 0.395407 0
M  V30 420 H 40.8058 0.362733 -0.653019 0
M  V30 421 H 43.4678 0.266244 -1.93073 0
M  V30 422 H 42.5638 1.59667 -2.68166 0
M  V30 423 N 42.8649 1.48995 0.513639 0
M  V30 424 C 44.1119 1.57843 1.26854 0
M  V30 425 C 44.4399 0.259501 1.92761 0
M  V30 426 O 43.6949 -0.75159 1.80692 0
M  V30 427 C 43.9939 2.67756 2.36731 0
M  V30 428 C 43.6599 4.09669 1.88368 0
M  V30 429 C 42.3219 4.48291 1.74896 0
M  V30 430 C 44.6739 4.98537 1.52021 0
M  V30 431 C 42.0019 5.73568 1.23438 0
M  V30 432 C 44.3539 6.24319 1.0202 0
M  V30 433 C 43.0179 6.61783 0.871778 0
M  V30 434 H 42.2879 0.577587 0.464192 0
M  V30 435 H 44.9349 1.82778 0.571366 0
M  V30 436 H 43.2399 2.36743 3.12185 0
M  V30 437 H 44.9369 2.71813 2.9482 0
M  V30 438 H 41.5269 3.79176 1.99808 0
M  V30 439 H 45.7109 4.69363 1.61281 0
M  V30 440 H 40.9669 6.01304 1.10648 0
M  V30 441 H 45.1409 6.92566 0.729722 0
M  V30 442 H 42.7679 7.5874 0.470852 0
M  V30 443 N 44.343 -0.763751 1.37857 0
M  V30 444 C 45.29 -1.87726 1.34267 0
M  V30 445 C 46.26 -1.64807 0.206879 0
M  V30 446 O 47.445 -1.86613 0.397508 0
M  V30 447 C 44.585 -3.24896 1.16346 0
M  V30 448 C 43.698 -3.59716 2.39225 0
M  V30 449 C 42.833 -4.86137 2.14114 0
M  V30 450 C 41.872 -5.13711 3.32817 0
M  V30 451 N 41.009 -6.31323 3.07206 0
M  V30 452 H 45.849 -1.90129 2.29466 0
M  V30 453 H 43.386 -0.929433 1.14017 0
M  V30 454 H 45.344 -4.04036 1.03975 0
M  V30 455 H 43.974 -3.21847 0.247909 0
M  V30 456 H 43.026 -2.75498 2.62307 0
M  V30 457 H 44.338 -3.76027 3.27728 0
M  V30 458 H 43.492 -5.73198 1.9882 0
M  V30 459 H 42.231 -4.71945 1.22961 0
M  V30 460 H 41.236 -4.25123 3.48641 0
M  V30 461 H 42.461 -5.29807 4.24832 0
M  V30 462 H 40.407 -6.18474 2.1869 0
M  V30 463 H 40.324 -6.48087 3.89254 0
M  V30 464 H 41.592 -7.213 2.95546 0
M  V30 465 N 45.8211 -1.22559 -0.990812 0
M  V30 466 C 47.2321 -1.04791 -1.54518 0
M  V30 467 C 47.5831 0.387998 -1.92325 0
M  V30 468 O 46.7081 1.27328 -1.74976 0
M  V30 469 C 47.3031 -1.896 -2.80779 0
M  V30 470 C 45.8621 -1.76124 -3.32652 0
M  V30 471 C 45.0091 -1.8594 -2.05722 0
M  V30 472 H 47.9601 -1.36374 -0.811662 0
M  V30 473 H 47.9811 -1.41464 -3.53225 0
M  V30 474 H 47.4931 -2.94101 -2.53231 0
M  V30 475 H 45.5941 -0.743643 -3.65104 0
M  V30 476 H 45.7071 -2.58913 -4.03114 0
M  V30 477 H 44.0711 -1.29403 -2.19379 0
M  V30 478 H 44.8541 -2.91976 -1.80568 0
M  V30 479 N 47.2992 1.18797 -1.03562 0
M  V30 480 C 48.2622 2.20464 -0.626769 0
M  V30 481 C 49.2622 1.57721 0.313173 0
M  V30 482 O 50.4522 1.73917 0.0992615 0
M  V30 483 C 47.5842 3.40802 0.0818498 0
M  V30 484 H 48.7772 2.58149 -1.5264 0
M  V30 485 H 46.3302 1.32593 -0.827578 0
M  V30 486 H 47.0652 3.08642 0.995518 0
M  V30 487 H 46.8502 3.8758 -0.593652 0
M  V30 488 H 48.3402 4.16092 0.354584 0
M  V30 489 N 48.7773 0.814389 1.34928 0
M  V30 490 C 50.1883 0.458364 1.80986 0
M  V30 491 C 50.5393 -1.02042 1.67577 0
M  V30 492 O 49.6643 -1.79352 1.21086 0
M  V30 493 C 50.2593 0.825212 3.28597 0
M  V30 494 C 48.8183 0.521677 3.72767 0
M  V30 495 C 47.9653 1.04668 2.56788 0
M  V30 496 H 50.9163 1.00533 1.22795 0
M  V30 497 H 50.9373 0.12571 3.80292 0
M  V30 498 H 50.4493 1.90154 3.38324 0
M  V30 499 H 48.5503 -0.545589 3.68584 0
M  V30 500 H 48.6633 1.05977 4.67232 0
M  V30 501 H 47.0273 0.468622 2.50352 0
M  V30 502 H 47.8103 2.12927 2.6929 0
M  V30 503 N 50.2554 -1.46986 0.568584 0
M  V30 504 C 51.6664 -1.86188 0.138219 0
M  V30 505 C 52.0174 -1.47388 -1.29504 0
M  V30 506 O 51.1424 -0.88219 -1.97602 0
M  V30 507 C 51.7374 -3.3792 0.244065 0
M  V30 508 C 50.2964 -3.76171 -0.131335 0
M  V30 509 C 49.4434 -2.71027 0.586465 0
M  V30 510 H 52.3944 -1.38342 0.777645 0
M  V30 511 H 52.4154 -3.76729 -0.534351 0
M  V30 512 H 51.9274 -3.66128 1.28731 0
M  V30 513 H 50.0284 -3.5358 -1.17526 0
M  V30 514 H 50.1414 -4.78523 0.235146 0
M  V30 515 H 48.5054 -2.54684 0.0282722 0
M  V30 516 H 49.2884 -3.02077 1.63109 0
M  V30 517 N 51.7335 -0.305618 -1.54608 0
M  V30 518 C 52.6965 0.555591 -2.22364 0
M  V30 519 C 53.6965 1.05768 -1.21119 0
M  V30 520 O 54.8865 0.952972 -1.45822 0
M  V30 521 C 52.0185 1.76974 -2.91364 0
M  V30 522 H 53.2115 -0.0364572 -2.99878 0
M  V30 523 H 50.7645 -0.0565007 -1.56198 0
M  V30 524 H 51.4995 2.40151 -2.17941 0
M  V30 525 H 51.2845 1.41732 -3.65588 0
M  V30 526 H 52.7745 2.38148 -3.43038 0
M  V30 527 N 53.2116 1.57565 -0.0334293 0
M  V30 528 C 54.4596 1.91598 0.642999 0
M  V30 529 C 54.7806 0.910847 1.7242 0
M  V30 530 O 54.0506 -0.0469931 1.95844 0
M  V30 531 H 52.6306 0.707228 0.240496 0
M  V30 532 H 55.2926 1.94726 -0.0822488 0
M  V30 533 H 54.3886 2.92336 1.09298 0
M  V30 534 N 54.6897 -0.239769 1.55765 0
M  V30 535 C 55.6217 -1.32001 1.87372 0
M  V30 536 C 56.6347 -1.43944 0.760522 0
M  V30 537 O 57.8237 -1.45167 1.0387 0
M  V30 538 C 54.9237 -2.69779 2.05115 0
M  V30 539 C 54.0967 -2.80014 3.36022 0
M  V30 540 C 53.1557 -3.98684 3.4342 0
M  V30 541 O 52.1817 -3.87877 4.16582 0
M  V30 542 N 53.3837 -5.12176 2.73232 0
M  V30 543 H 56.1487 -1.0522 2.80622 0
M  V30 544 H 53.7097 -0.429857 1.56089 0
M  V30 545 H 55.7017 -3.47517 2.07399 0
M  V30 546 H 54.2717 -2.89237 1.18577 0
M  V30 547 H 53.4917 -1.88896 3.45994 0
M  V30 548 H 54.7797 -2.83808 4.22292 0
M  V30 549 H 54.1777 -5.2385 2.13536 0
M  V30 550 H 52.7347 -5.88022 2.81199 0
M  V30 551 N 56.1678 -1.49265 -0.50573 0
M  V30 552 C 57.0978 -1.68495 -1.61653 0
M  V30 553 C 58.0788 -0.53366 -1.61512 0
M  V30 554 O 59.2638 -0.76897 -1.78327 0
M  V30 555 C 56.3938 -1.74709 -3.00157 0
M  V30 556 C 55.3478 -2.89581 -3.15162 0
M  V30 557 C 54.6738 -2.80903 -4.5497 0
M  V30 558 C 55.9738 -4.30578 -2.95634 0
M  V30 559 H 57.6678 -2.61493 -1.45814 0
M  V30 560 H 55.2138 -1.25838 -0.70005 0
M  V30 561 H 57.1668 -1.86748 -3.77761 0
M  V30 562 H 55.8908 -0.783067 -3.17074 0
M  V30 563 H 54.5498 -2.77136 -2.39982 0
M  V30 564 H 54.1978 -1.82419 -4.68756 0
M  V30 565 H 53.8978 -3.57999 -4.65951 0
M  V30 566 H 55.4218 -2.94944 -5.34641 0
M  V30 567 H 56.8358 -4.4373 -3.63011 0
M  V30 568 H 55.2328 -5.0886 -3.18091 0
M  V30 569 H 56.3028 -4.45352 -1.91806 0
M  V30 570 N 57.6459 0.756429 -1.3826 0
M  V30 571 C 58.8939 1.51248 -1.34047 0
M  V30 572 C 59.2149 1.94875 0.0698372 0
M  V30 573 O 58.4849 1.67436 1.01696 0
M  V30 574 H 57.0649 0.561018 -0.493222 0
M  V30 575 H 59.7269 0.899347 -1.7291 0
M  V30 576 H 58.8229 2.40472 -1.98947 0
M  V30 577 N 59.124 1.23083 0.984299 0
M  V30 578 C 60.087 1.00979 2.05757 0
M  V30 579 C 61.087 -0.0269573 1.60777 0
M  V30 580 O 62.277 0.212403 1.729 0
M  V30 581 C 59.409 0.527072 3.36801 0
M  V30 582 H 60.602 1.9622 2.26799 0
M  V30 583 H 58.155 1.05072 1.15714 0
M  V30 584 H 58.89 -0.429294 3.21446 0
M  V30 585 H 58.675 1.27515 3.70786 0
M  V30 586 H 60.165 0.392942 4.15747 0
M  V30 587 N 60.6021 -1.18246 1.0419 0
M  V30 588 C 61.8481 -1.88536 0.747122 0
M  V30 589 C 62.1811 -1.80223 -0.723409 0
M  V30 590 O 61.4561 -1.20337 -1.52804 0
M  V30 591 C 61.7391 -3.38968 1.21544 0
M  V30 592 C 61.5921 -3.56084 2.74816 0
M  V30 593 C 62.9111 -4.32648 0.806482 0
M  V30 594 H 60.0301 -0.684619 0.272883 0
M  V30 595 H 62.6721 -1.39113 1.29413 0
M  V30 596 H 60.8221 -3.8119 0.750081 0
M  V30 597 H 62.4941 -3.22946 3.29399 0
M  V30 598 H 60.7371 -2.98699 3.14582 0
M  V30 599 H 61.4081 -4.61639 3.02644 0
M  V30 600 H 63.8841 -3.98211 1.20695 0
M  V30 601 H 62.7601 -5.36462 1.1619 0
M  V30 602 H 63.0211 -4.41146 -0.29029 0
M  V30 603 N 62.0802 -0.821533 -1.34494 0
M  V30 604 C 63.3292 -0.405355 -1.97585 0
M  V30 605 C 63.6422 1.03677 -1.65863 0
M  V30 606 O 64.8482 1.55679 -2.22433 0
M  V30 607 C 63.3042 -0.673861 -3.53535 0
M  V30 608 C 62.9122 -2.12951 -3.94152 0
M  V30 609 C 64.6562 -0.32378 -4.23263 0
M  V30 610 C 62.5632 -2.34298 -5.43009 0
M  V30 611 H 61.4932 -0.147836 -0.739365 0
M  V30 612 H 64.1442 -1.00769 -1.53355 0
M  V30 613 H 62.5262 -0.00137554 -3.96 0
M  V30 614 H 63.7002 -2.84104 -3.62797 0
M  V30 615 H 62.0152 -2.44089 -3.37356 0
M  V30 616 H 64.6122 -0.461126 -5.32708 0
M  V30 617 H 64.9552 0.731586 -4.09821 0
M  V30 618 H 65.4882 -0.950786 -3.8627 0
M  V30 619 H 62.2272 -3.38335 -5.61435 0
M  V30 620 H 61.7472 -1.67687 -5.75883 0
M  V30 621 H 63.4262 -2.16588 -6.09671 0
M  V30 622 N 63.5583 1.46682 -0.576371 0
M  V30 623 C 64.8043 2.02712 -0.0596221 0
M  V30 624 C 65.1373 1.44765 1.29448 0
M  V30 625 O 64.4123 0.610355 1.84675 0
M  V30 626 C 64.6953 3.60098 0.0129503 0
M  V30 627 C 64.5483 4.28441 -1.3696 0
M  V30 628 C 65.8673 4.34224 0.71678 0
M  V30 629 H 62.9863 0.736637 -0.0231407 0
M  V30 630 H 65.6283 1.74898 -0.742351 0
M  V30 631 H 63.7783 3.83926 0.594378 0
M  V30 632 H 65.4503 4.15896 -1.9957 0
M  V30 633 H 63.6933 3.8805 -1.93907 0
M  V30 634 H 64.3643 5.3716 -1.27135 0
M  V30 635 H 66.8403 4.15503 0.222908 0
M  V30 636 H 65.7163 5.43936 0.73657 0
M  V30 637 H 65.9773 4.04823 1.77682 0
M  V30 638 N 65.0364 0.313813 1.54444 0
M  V30 639 C 66.3134 -0.345447 1.92525 0
M  V30 640 C 66.6934 -1.70667 1.24242 0
M  V30 641 O 66.0414 -2.25273 0.382654 0
M  V30 642 C 66.2514 -0.44737 3.46121 0
M  V30 643 C 67.5994 -0.712238 4.18584 0
M  V30 644 O 68.6234 -0.530678 3.52225 0
M  V30 645 O 67.4824 -1.06183 5.36085 0
M  V30 646 H 64.5764 -0.195407 0.803583 0
M  V30 647 H 67.1224 0.362813 1.65776 0
M  V30 648 H 65.8944 0.509043 3.87975 0
M  V30 649 H 65.5174 -1.20359 3.78945 0
M  V30 650 N 66.5145 -1.57545 0.0417849 0
M  V30 651 C 67.9255 -1.80011 -0.495259 0
M  V30 652 C 68.2765 -0.953199 -1.71489 0
M  V30 653 O 67.4015 -0.167138 -2.15754 0
M  V30 654 C 67.9965 -3.26482 -0.905265 0
M  V30 655 C 66.5555 -3.499 -1.38734 0
M  V30 656 C 65.7025 -2.74979 -0.358056 0
M  V30 657 H 68.6535 -1.56425 0.267736 0
M  V30 658 H 68.6745 -3.36887 -1.76882 0
M  V30 659 H 68.1865 -3.88096 -0.017401 0
M  V30 660 H 66.2875 -2.93553 -2.29471 0
M  V30 661 H 66.4005 -4.58615 -1.38598 0
M  V30 662 H 64.7645 -2.40834 -0.828912 0
M  V30 663 H 65.5475 -3.39315 0.521561 0
M  V30 664 N 67.9926 0.231505 -1.5589 0
M  V30 665 C 69.2226 0.973092 -1.82248 0
M  V30 666 C 69.6306 1.78845 -0.617328 0
M  V30 667 O 68.9736 1.78752 0.423499 0
M  V30 668 C 69.0356 1.94732 -3.02192 0
M  V30 669 C 68.6996 1.31743 -4.37599 0
M  V30 670 C 69.6966 0.712238 -5.14998 0
M  V30 671 C 67.3816 1.33218 -4.84312 0
M  V30 672 C 69.3756 0.130195 -6.37267 0
M  V30 673 C 67.0626 0.746286 -6.06526 0
M  V30 674 C 68.0606 0.146337 -6.82843 0
M  V30 675 O 67.7486 -0.430465 -8.02747 0
M  V30 676 H 67.4806 0.29125 -0.61004 0
M  V30 677 H 70.0346 0.254915 -2.03812 0
M  V30 678 H 68.2646 2.70422 -2.76422 0
M  V30 679 H 69.9536 2.55362 -3.15508 0
M  V30 680 H 70.7196 0.69324 -4.8002 0
M  V30 681 H 66.5986 1.78854 -4.24891 0
M  V30 682 H 70.1426 -0.33871 -6.96777 0
M  V30 683 H 66.0396 0.762663 -6.40979 0
M  V30 684 H 66.8076 -0.323818 -8.17859 0
M  V30 685 N 69.4707 1.49531 0.497807 0
M  V30 686 C 70.7187 1.58865 1.24926 0
M  V30 687 C 71.0397 0.278721 1.92998 0
M  V30 688 O 70.3097 -0.702144 1.82885 0
M  V30 689 H 68.8897 0.585343 0.464094 0
M  V30 690 H 71.5517 1.86174 0.57666 0
M  V30 691 H 70.6477 2.38633 2.01149 0
M  V30 692 N 70.9488 -0.749086 1.3866 0
M  V30 693 C 71.8968 -1.88428 1.36373 0
M  V30 694 C 72.8908 -1.67561 0.248929 0
M  V30 695 O 74.0968 -1.75074 0.41821 0
M  V30 696 H 70.4718 -0.620023 0.42553 0
M  V30 697 H 72.4428 -1.87473 2.32156 0
M  V30 698 C 71.1918 -3.25961 1.21014 0
M  V30 699 H 70.5148 -3.42607 2.06059 0
M  V30 700 H 71.9548 -4.05625 1.23469 0
M  V30 701 C 70.4138 -3.36799 -0.0825941 0
M  V30 702 O 70.9438 -3.87517 -1.05797 0
M  V30 703 N 69.1498 -2.90258 -0.140939 0
M  V30 704 H 68.6968 -2.49174 0.653477 0
M  V30 705 H 68.6548 -2.97889 -1.00545 0
M  V30 706 N 72.4269 -1.23603 -0.977757 0
M  V30 707 C 73.3899 -1.02069 -2.05218 0
M  V30 708 C 74.3899 0.0184305 -1.60789 0
M  V30 709 O 75.5799 -0.221569 -1.72785 0
M  V30 710 C 72.7119 -0.544926 -3.36517 0
M  V30 711 H 73.9049 -1.9742 -2.25755 0
M  V30 712 H 71.4579 -1.05684 -1.15155 0
M  V30 713 H 72.1929 0.412241 -3.21669 0
M  V30 714 H 71.9779 -1.2948 -3.70105 0
M  V30 715 H 73.4679 -0.414985 -4.15533 0
M  V30 716 N 73.905 1.17692 -1.04816 0
M  V30 717 C 75.316 1.69501 -0.782698 0
M  V30 718 C 75.667 1.83456 0.695577 0
M  V30 719 O 74.792 1.51942 1.54086 0
M  V30 720 C 75.387 3.07874 -1.41419 0
M  V30 721 C 73.946 3.56864 -1.19686 0
M  V30 722 C 73.093 2.3322 -1.50012 0
M  V30 723 H 76.044 1.02262 -1.2136 0
M  V30 724 H 76.065 3.71528 -0.821428 0
M  V30 725 H 75.577 2.97685 -2.49009 0
M  V30 726 H 73.678 3.72337 -0.140043 0
M  V30 727 H 73.791 4.39851 -1.89916 0
M  V30 728 H 72.155 2.37501 -0.920071 0
M  V30 729 H 72.938 2.25644 -2.58727 0
M  V30 730 N 75.3831 0.828654 1.34056 0
M  V30 731 C 76.3131 0.269443 2.3194 0
M  V30 732 C 77.2941 -0.617247 1.58506 0
M  V30 733 O 78.4791 -0.542931 1.86456 0
M  V30 734 C 75.6091 -0.564793 3.42677 0
M  V30 735 C 74.5631 0.225241 4.27407 0
M  V30 736 C 73.8891 -0.7321 5.29664 0
M  V30 737 C 75.1891 1.43663 5.02154 0
M  V30 738 H 76.8831 1.08728 2.7896 0
M  V30 739 H 74.4291 0.524283 1.34117 0
M  V30 740 H 76.3821 -0.966233 4.10173 0
M  V30 741 H 75.1061 -1.41574 2.9432 0
M  V30 742 H 73.7651 0.608117 3.61521 0
M  V30 743 H 73.4131 -1.57916 4.77568 0
M  V30 744 H 73.1131 -0.20767 5.87233 0
M  V30 745 H 74.6371 -1.13128 6.00029 0
M  V30 746 H 76.0511 1.1089 5.62473 0
M  V30 747 H 74.4481 1.89711 5.69324 0
M  V30 748 H 75.5181 2.21181 4.31517 0
M  V30 749 N 76.8612 -1.46375 0.584142 0
M  V30 750 C 78.0892 -2.06761 0.0759296 0
M  V30 751 C 78.5042 -1.43266 -1.22965 0
M  V30 752 O 77.8612 -0.538458 -1.74376 0
M  V30 753 C 77.9122 -3.61375 -0.0950384 0
M  V30 754 O 77.6332 -4.22495 1.15887 0
M  V30 755 C 79.1342 -4.38693 -0.637434 0
M  V30 756 H 76.3542 -0.668479 0.0581075 0
M  V30 757 H 78.8982 -1.8798 0.805218 0
M  V30 758 H 77.0532 -3.79578 -0.774554 0
M  V30 759 H 77.4672 -5.15385 0.973598 0
M  V30 760 H 78.9412 -5.47464 -0.706237 0
M  V30 761 H 79.4182 -4.06836 -1.65472 0
M  V30 762 H 80.0242 -4.25299 0.00725967 0
M  V30 763 N 78.3393 -0.321999 -1.54275 0
M  V30 764 C 79.3023 0.531975 -2.22941 0
M  V30 765 C 80.3023 1.04478 -1.22234 0
M  V30 766 O 81.4923 0.937452 -1.46825 0
M  V30 767 C 78.6243 1.73874 -2.93224 0
M  V30 768 H 79.8173 -0.0682612 -2.99822 0
M  V30 769 H 77.3703 -0.0730644 -1.56129 0
M  V30 770 H 78.1053 2.37825 -2.20476 0
M  V30 771 H 77.8903 1.37847 -3.6707 0
M  V30 772 H 79.3803 2.34496 -3.45545 0
M  V30 773 N 79.8174 1.5752 -0.0501392 0
M  V30 774 C 80.7474 2.14502 0.922566 0
M  V30 775 C 81.7284 1.06642 1.3252 0
M  V30 776 O 82.9134 1.34577 1.4001 0
M  V30 777 C 80.0434 2.68916 2.19776 0
M  V30 778 C 78.9974 3.8175 1.93523 0
M  V30 779 C 78.3234 4.22677 3.27487 0
M  V30 780 C 79.6234 5.06932 1.25765 0
M  V30 781 H 81.3174 2.9603 0.447952 0
M  V30 782 H 78.8634 1.42401 0.214024 0
M  V30 783 H 80.8164 3.07419 2.88222 0
M  V30 784 H 79.5404 1.84578 2.69441 0
M  V30 785 H 78.1994 3.43718 1.27489 0
M  V30 786 H 77.8474 3.35291 3.74952 0
M  V30 787 H 77.5474 4.98725 3.1072 0
M  V30 788 H 79.0714 4.63779 3.97166 0
M  V30 789 H 80.4854 5.42888 1.84244 0
M  V30 790 H 78.8824 5.88116 1.19328 0
M  V30 791 H 79.9524 4.84337 0.233536 0
M  V30 792 N 81.2955 -0.223234 1.56011 0
M  V30 793 C 82.5415 -0.949279 1.79211 0
M  V30 794 C 82.8745 -1.84054 0.619494 0
M  V30 795 O 82.1495 -1.90726 -0.381317 0
M  V30 796 C 82.4325 -1.78965 3.12479 0
M  V30 797 C 82.2855 -0.924997 4.40186 0
M  V30 798 C 83.6045 -2.76774 3.42175 0
M  V30 799 H 80.7235 -0.343676 0.651963 0
M  V30 800 H 83.3655 -0.218253 1.88742 0
M  V30 801 H 81.5155 -2.41291 3.04485 0
M  V30 802 H 83.1875 -0.318615 4.60198 0
M  V30 803 H 81.4305 -0.230344 4.33188 0
M  V30 804 H 82.1015 -1.54735 5.29869 0
M  V30 805 H 84.5775 -2.24584 3.50287 0
M  V30 806 H 83.4535 -3.32678 4.36597 0
M  V30 807 H 83.7145 -3.54429 2.64258 0
M  V30 808 N 82.7736 -1.49793 -0.48987 0
M  V30 809 C 84.0506 -1.50348 -1.25119 0
M  V30 810 C 84.4306 -0.237466 -2.0976 0
M  V30 811 O 83.7786 0.77981 -2.14782 0
M  V30 812 C 83.9886 -2.78872 -2.09837 0
M  V30 813 C 85.3366 -3.288 -2.68655 0
M  V30 814 O 86.3606 -2.80065 -2.20096 0
M  V30 815 O 85.2196 -4.13707 -3.57083 0
M  V30 816 H 82.3136 -0.602242 -0.566775 0
M  V30 817 H 84.8596 -1.62067 -0.503229 0
M  V30 818 H 83.6316 -3.62499 -1.47343 0
M  V30 819 H 83.2546 -2.70066 -2.91805 0
M  V30 820 N 84.2517 0.741722 -1.39055 0
M  V30 821 C 85.1817 1.869 -1.39966 0
M  V30 822 C 86.1627 1.6804 -0.26392 0
M  V30 823 O 87.3477 1.88458 -0.468755 0
M  V30 824 C 84.4777 3.24572 -1.23574 0
M  V30 825 C 83.4317 3.58056 -2.34477 0
M  V30 826 C 82.7577 4.94593 -2.0318 0
M  V30 827 C 84.0577 3.61716 -3.76774 0
M  V30 828 H 85.7517 1.86395 -2.34302 0
M  V30 829 H 83.2977 0.895361 -1.1278 0
M  V30 830 H 85.2507 4.031 -1.22834 0
M  V30 831 H 83.9747 3.25587 -0.257045 0
M  V30 832 H 82.6337 2.81854 -2.34423 0
M  V30 833 H 82.2817 4.92181 -1.03765 0
M  V30 834 H 81.9817 5.17964 -2.77465 0
M  V30 835 H 83.5057 5.75486 -2.04079 0
M  V30 836 H 84.9197 4.30335 -3.78794 0
M  V30 837 H 83.3167 3.96603 -4.50362 0
M  V30 838 H 84.3867 2.61672 -4.08235 0
M  V30 839 N 85.7298 1.2412 0.971189 0
M  V30 840 C 87.0068 0.986867 1.6888 0
M  V30 841 C 87.3868 -0.491857 2.0529 0
M  V30 842 O 86.7348 -1.46531 1.75331 0
M  V30 843 C 86.9448 1.9063 2.92338 0
M  V30 844 C 88.2928 2.17515 3.64654 0
M  V30 845 O 89.3168 1.88254 3.02388 0
M  V30 846 O 88.1758 2.6719 4.7673 0
M  V30 847 H 85.2698 0.372944 0.738134 0
M  V30 848 H 87.8158 1.35203 1.02559 0
M  V30 849 H 86.5878 2.90552 2.62097 0
M  V30 850 H 86.2108 1.54408 3.66393 0
M  V30 851 N 87.2079 -1.17134 1.05439 0
M  V30 852 C 88.4329 -1.91913 0.786396 0
M  V30 853 C 88.8579 -1.7643 -0.652234 0
M  V30 854 O 88.2159 -1.08372 -1.45345 0
M  V30 855 C 88.2639 -3.40921 1.17497 0
M  V30 856 O 87.3679 -4.11244 0.308589 0
M  V30 857 H 86.7089 -0.598215 0.288158 0
M  V30 858 H 89.2389 -1.48457 1.4079 0
M  V30 859 H 89.2489 -3.91668 1.14281 0
M  V30 860 H 87.9239 -3.5151 2.22292 0
M  V30 861 H 86.5009 -3.70731 0.40157 0
M  V30 862 N 88.686 -0.835752 -1.33615 0
M  V30 863 C 89.636 -0.238856 -2.26745 0
M  V30 864 C 90.62 0.604343 -1.49119 0
M  V30 865 O 91.812 0.456822 -1.71003 0
M  V30 866 C 88.941 0.587725 -3.38232 0
M  V30 867 C 88.027 -0.266811 -4.2326 0
M  V30 868 N 88.418 -1.34403 -4.87616 0
M  V30 869 C 86.716 -0.0533131 -4.45968 0
M  V30 870 C 87.417 -1.86819 -5.50884 0
M  V30 871 N 86.393 -1.17013 -5.30857 0
M  V30 872 H 90.195 -1.06266 -2.74016 0
M  V30 873 H 87.709 -0.679881 -1.47483 0
M  V30 874 H 89.706 1.03161 -4.03935 0
M  V30 875 H 88.366 1.40954 -2.9251 0
M  V30 876 H 89.377 -1.7269 -4.88261 0
M  V30 877 H 86.054 0.735312 -4.10974 0
M  V30 878 H 87.444 -2.7701 -6.1214 0
M  V30 879 N 90.1641 1.46063 -0.591896 0
M  V30 880 C 91.4101 2.02638 -0.0811191 0
M  V30 881 C 91.7431 1.4613 1.27905 0
M  V30 882 O 91.0181 0.629908 1.84017 0
M  V30 883 C 91.3011 3.60091 -0.0252436 0
M  V30 884 C 91.1541 4.26965 -1.41496 0
M  V30 885 C 92.4731 4.3496 0.670685 0
M  V30 886 H 89.5921 0.73635 -0.0309524 0
M  V30 887 H 92.2341 1.741 -0.760859 0
M  V30 888 H 90.3841 3.84535 0.553624 0
M  V30 889 H 92.0561 4.13756 -2.0397 0
M  V30 890 H 90.2991 3.85971 -1.98011 0
M  V30 891 H 90.9701 5.35781 -1.32825 0
M  V30 892 H 93.4461 4.15716 0.178825 0
M  V30 893 H 92.3221 5.44686 0.678837 0
M  V30 894 H 92.5831 4.06685 1.73379 0
M  V30 895 N 91.6422 0.330177 1.54103 0
M  V30 896 C 92.8912 -0.271336 1.99867 0
M  V30 897 C 93.2042 -1.52723 1.22209 0
M  V30 898 O 94.4102 -2.20515 1.58383 0
M  V30 899 C 92.8662 -0.534032 3.55916 0
M  V30 900 C 92.4742 0.705193 4.42415 0
M  V30 901 C 94.2182 -1.09514 4.1013 0
M  V30 902 C 92.1252 0.414035 5.89949 0
M  V30 903 H 91.0552 -0.105166 0.74663 0
M  V30 904 H 93.7062 0.443429 1.78062 0
M  V30 905 H 92.0882 -1.30915 3.73734 0
M  V30 906 H 93.2622 1.4804 4.36372 0
M  V30 907 H 91.5772 1.18698 3.99124 0
M  V30 908 H 94.1742 -1.3277 5.17954 0
M  V30 909 H 94.5172 -2.04656 3.62521 0
M  V30 910 H 95.0502 -0.381038 3.95971 0
M  V30 911 H 91.7892 1.33481 6.41766 0
M  V30 912 H 91.3092 -0.323336 5.98928 0
M  V30 913 H 92.9882 0.0263105 6.46995 0
M  V30 914 N 93.1203 -1.57491 0.0584922 0
M  V30 915 C 94.3453 -1.97711 -0.62652 0
M  V30 916 C 94.7703 -0.936132 -1.63151 0
M  V30 917 O 94.1283 0.099811 -1.81025 0
M  V30 918 C 94.1763 -3.36989 -1.28338 0
M  V30 919 O 93.2803 -3.35433 -2.39913 0
M  V30 920 H 92.6213 -0.643868 -0.162266 0
M  V30 921 H 95.1513 -2.04193 0.129064 0
M  V30 922 H 95.1613 -3.73879 -1.63335 0
M  V30 923 H 93.8363 -4.12289 -0.546889 0
M  V30 924 H 92.4133 -3.10298 -2.06809 0
M  V30 925 N 94.5984 0.214957 -1.56127 0
M  V30 926 C 95.8754 0.963093 -1.70247 0
M  V30 927 C 96.2554 2.02166 -0.60764 0
M  V30 928 O 95.6034 2.25244 0.384385 0
M  V30 929 C 95.8134 1.56756 -3.11815 0
M  V30 930 C 97.1614 2.0573 -3.7143 0
M  V30 931 O 98.1854 1.66637 -3.14818 0
M  V30 932 O 97.0444 2.77603 -4.70743 0
M  V30 933 H 94.1384 0.450321 -0.693643 0
M  V30 934 H 96.6844 0.206219 -1.68442 0
M  V30 935 H 95.4564 0.803533 -3.82961 0
M  V30 936 H 95.0794 2.3898 -3.17765 0
M  V30 937 N 96.0765 1.50051 0.48192 0
M  V30 938 C 97.3225 1.60736 1.2366 0
M  V30 939 C 97.6555 0.301786 1.91841 0
M  V30 940 O 96.9305 -0.696025 1.8162 0
M  V30 941 C 97.2135 2.78009 2.28874 0
M  V30 942 C 97.0665 4.18416 1.65069 0
M  V30 943 C 98.3855 2.90867 3.30279 0
M  V30 944 H 95.5045 0.585031 0.448228 0
M  V30 945 H 98.1465 1.82402 0.531946 0
M  V30 946 H 96.2965 2.59667 2.88973 0
M  V30 947 H 97.9685 4.48322 1.0865 0
M  V30 948 H 96.2115 4.23177 0.954148 0
M  V30 949 H 96.8825 4.96381 2.41474 0
M  V30 950 H 99.3585 3.07623 2.80191 0
M  V30 951 H 98.2345 3.74566 4.01238 0
M  V30 952 H 98.4955 2.01021 3.93755 0
M  V30 953 N 97.5546 -0.734337 1.39446 0
M  V30 954 C 98.5016 -1.84835 1.38219 0
M  V30 955 C 99.4716 -1.64331 0.24179 0
M  V30 956 O 100.657 -1.85728 0.437002 0
M  V30 957 C 97.7966 -3.22355 1.23212 0
M  V30 958 C 96.9096 -3.5456 2.46801 0
M  V30 959 C 96.0446 -4.81485 2.24377 0
M  V30 960 C 95.0836 -5.06536 3.43639 0
M  V30 961 N 94.2206 -6.24665 3.20528 0
M  V30 962 H 99.0606 -1.85219 2.33448 0
M  V30 963 H 96.5976 -0.905039 1.15963 0
M  V30 964 H 98.5556 -4.0174 1.12522 0
M  V30 965 H 97.1856 -3.21248 0.316121 0
M  V30 966 H 96.2376 -2.69872 2.68092 0
M  V30 967 H 97.5496 -3.6899 3.3563 0
M  V30 968 H 96.7036 -5.68852 2.10933 0
M  V30 969 H 95.4426 -4.6923 1.32944 0
M  V30 970 H 94.4476 -4.17632 3.5758 0
M  V30 971 H 95.6726 -5.20676 4.35974 0
M  V30 972 H 93.6186 -6.13696 2.3176 0
M  V30 973 H 93.5356 -6.39685 4.02913 0
M  V30 974 H 94.8036 -7.14868 3.10779 0
M  V30 975 N 99.0327 -1.24633 -0.964593 0
M  V30 976 C 100.279 -1.08949 -1.71049 0
M  V30 977 C 100.612 0.370302 -1.90637 0
M  V30 978 O 99.8867 1.27349 -1.47011 0
M  V30 979 C 100.17 -1.83329 -3.0994 0
M  V30 980 C 100.023 -3.37077 -2.97824 0
M  V30 981 C 101.342 -1.60846 -4.09654 0
M  V30 982 H 98.4607 -0.397178 -0.620821 0
M  V30 983 H 101.103 -1.5334 -1.12191 0
M  V30 984 H 99.2527 -1.45597 -3.60186 0
M  V30 985 H 100.925 -3.84425 -2.5498 0
M  V30 986 H 99.1677 -3.65298 -2.33965 0
M  V30 987 H 99.8387 -3.84324 -3.96231 0
M  V30 988 H 102.315 -1.93674 -3.68279 0
M  V30 989 H 101.191 -2.1534 -5.04896 0
M  V30 990 H 101.452 -0.547434 -4.38698 0
M  V30 991 N 100.511 1.16574 -1.06058 0
M  V30 992 C 101.739 1.90952 -0.796552 0
M  V30 993 C 102.154 1.77302 0.648808 0
M  V30 994 O 101.511 1.11605 1.44397 0
M  V30 995 C 101.562 3.41736 -1.17894 0
M  V30 996 O 101.283 3.54975 -2.56758 0
M  V30 997 C 102.784 4.33169 -0.942308 0
M  V30 998 H 100.004 0.605594 -0.288959 0
M  V30 999 H 102.548 1.47777 -1.41358 0
M  V30 1000 H 100.703 3.82623 -0.606491 0
M  V30 1001 H 101.117 4.4846 -2.72 0
M  V30 1002 H 102.591 5.37439 -1.25952 0
M  V30 1003 H 103.068 4.3903 0.122078 0
M  V30 1004 H 103.674 3.98007 -1.49902 0
M  V30 1005 N 101.989 0.842826 1.3317 0
M  V30 1006 C 103.235 0.441099 1.97945 0
M  V30 1007 C 103.568 -0.998024 1.66593 0
M  V30 1008 O 102.843 -1.69839 0.947898 0
M  V30 1009 C 103.126 0.666841 3.53872 0
M  V30 1010 C 102.979 2.15352 3.94897 0
M  V30 1011 C 104.298 0.115544 4.39948 0
M  V30 1012 H 101.417 0.161739 0.719034 0
M  V30 1013 H 104.059 1.05907 1.57746 0
M  V30 1014 H 102.209 0.140828 3.88245 0
M  V30 1015 H 103.881 2.7447 3.70761 0
M  V30 1016 H 102.124 2.63653 3.44484 0
M  V30 1017 H 102.795 2.26221 5.03516 0
M  V30 1018 H 105.271 0.565213 4.12243 0
M  V30 1019 H 104.147 0.303152 5.48062 0
M  V30 1020 H 104.408 -0.980935 4.3108 0
M  V30 1021 N 103.467 -1.45747 0.599634 0
M  V30 1022 C 104.417 -2.27538 -0.145107 0
M  V30 1023 C 105.401 -1.3686 -0.846055 0
M  V30 1024 O 106.593 -1.6091 -0.737357 0
M  V30 1025 C 103.722 -3.23569 -1.14708 0
M  V30 1026 C 102.808 -4.21734 -0.447383 0
M  V30 1027 N 103.199 -5.03257 0.506535 0
M  V30 1028 C 101.497 -4.40536 -0.695966 0
M  V30 1029 C 102.198 -5.74426 0.917068 0
M  V30 1030 N 101.174 -5.42966 0.26253 0
M  V30 1031 H 104.976 -2.87965 0.587672 0
M  V30 1032 H 102.49 -1.56803 0.422697 0
M  V30 1033 H 104.487 -3.8089 -1.69495 0
M  V30 1034 H 103.147 -2.64702 -1.8805 0
M  V30 1035 H 104.158 -5.10319 0.882899 0
M  V30 1036 H 100.835 -3.92802 -1.41467 0
M  V30 1037 H 102.225 -6.4995 1.70338 0
M  V30 1038 N 104.945 -0.338344 -1.53925 0
M  V30 1039 C 106.193 0.259245 -2.0043 0
M  V30 1040 C 106.514 1.51484 -1.22791 0
M  V30 1041 O 105.784 1.93037 -0.33368 0
M  V30 1042 H 104.364 0.0987845 -0.740439 0
M  V30 1043 H 107.026 -0.458302 -1.89435 0
M  V30 1044 H 106.122 0.505334 -3.07982 0
M  V30 1045 N 106.423 1.57458 -0.0668435 0
M  V30 1046 C 107.37 2.12439 0.902122 0
M  V30 1047 C 108.34 1.03565 1.2986 0
M  V30 1048 O 109.525 1.312 1.38532 0
M  V30 1049 C 106.665 2.6865 2.16614 0
M  V30 1050 C 105.778 3.91663 1.82274 0
M  V30 1051 C 104.913 4.36134 3.0325 0
M  V30 1052 C 103.952 5.51808 2.64904 0
M  V30 1053 N 103.089 5.9126 3.78624 0
M  V30 1054 H 107.929 2.94934 0.426382 0
M  V30 1055 H 105.466 1.4575 0.198819 0
M  V30 1056 H 107.424 2.99346 2.90599 0
M  V30 1057 H 106.054 1.88928 2.61737 0
M  V30 1058 H 105.106 3.6746 0.983719 0
M  V30 1059 H 106.418 4.75693 1.50059 0
M  V30 1060 H 105.572 4.68465 3.85519 0
M  V30 1061 H 104.311 3.50948 3.38655 0
M  V30 1062 H 103.316 5.19133 1.81055 0
M  V30 1063 H 104.541 6.38722 2.30675 0
M  V30 1064 H 102.487 5.09024 4.138 0
M  V30 1065 H 102.404 6.70018 3.5016 0
M  V30 1066 H 103.672 6.28212 4.61486 0
M  V30 1067 N 107.901 -0.206675 1.56239 0
M  V30 1068 C 109.149 -0.927007 1.79586 0
M  V30 1069 C 109.47 -1.8427 0.637929 0
M  V30 1070 O 108.74 -1.92849 -0.344398 0
M  V30 1071 H 107.32 -0.345292 0.662407 0
M  V30 1072 H 109.982 -0.21496 1.93711 0
M  V30 1073 H 109.078 -1.52501 2.72305 0
M  V30 1074 N 109.379 -1.50304 -0.473955 0
M  V30 1075 C 110.289 -1.7174 -1.5982 0
M  V30 1076 C 111.305 -0.600457 -1.63311 0
M  V30 1077 O 112.481 -0.878441 -1.81233 0
M  V30 1078 C 109.546 -1.80427 -2.96052 0
M  V30 1079 C 108.607 -3.04148 -3.02972 0
M  V30 1080 C 107.84 -3.12411 -4.32706 0
M  V30 1081 O 108.063 -2.27542 -5.23049 0
M  V30 1082 O 106.997 -4.05113 -4.45159 0
M  V30 1083 H 110.823 -2.67035 -1.44657 0
M  V30 1084 H 108.408 -1.34366 -0.653148 0
M  V30 1085 H 110.29 -1.88338 -3.7697 0
M  V30 1086 H 108.965 -0.883156 -3.11419 0
M  V30 1087 H 107.872 -3.0174 -2.21142 0
M  V30 1088 H 109.205 -3.95829 -2.92541 0
M  V30 1089 N 110.857 0.726932 -1.39834 0
M  V30 1090 C 111.804 1.841 -1.39197 0
M  V30 1091 C 112.774 1.642 -0.250502 0
M  V30 1092 O 113.959 1.85494 -0.446846 0
M  V30 1093 C 111.099 3.21697 -1.24919 0
M  V30 1094 C 110.212 3.53247 -2.48678 0
M  V30 1095 C 109.347 4.80289 -2.26928 0
M  V30 1096 C 108.386 5.04707 -3.4632 0
M  V30 1097 N 107.523 6.22956 -3.23836 0
M  V30 1098 H 112.363 1.83979 -2.34427 0
M  V30 1099 H 109.9 0.898876 -1.16442 0
M  V30 1100 H 111.858 4.01137 -1.1465 0
M  V30 1101 H 110.488 3.21076 -0.333153 0
M  V30 1102 H 109.54 2.68447 -2.69519 0
M  V30 1103 H 110.852 3.67205 -3.37582 0
M  V30 1104 H 110.006 5.67725 -2.13947 0
M  V30 1105 H 108.745 4.68519 -1.35431 0
M  V30 1106 H 107.75 4.1573 -3.5979 0
M  V30 1107 H 108.975 5.18357 -4.38729 0
M  V30 1108 H 106.921 6.12459 -2.35011 0
M  V30 1109 H 106.838 6.37539 -4.063 0
M  V30 1110 H 108.106 7.1321 -3.14566 0
M  V30 1111 N 112.336 1.25143 0.95797 0
M  V30 1112 C 113.584 1.09476 1.69881 0
M  V30 1113 C 113.905 -0.365502 1.91544 0
M  V30 1114 O 113.175 -1.25985 1.50015 0
M  V30 1115 H 111.755 0.402128 0.629525 0
M  V30 1116 H 114.417 1.57214 1.15194 0
M  V30 1117 H 113.513 1.60046 2.6794 0
M  V30 1118 N 113.814 -1.1601 1.06675 0
M  V30 1119 C 115.06 -1.86909 0.786945 0
M  V30 1120 C 115.393 -1.81717 -0.685018 0
M  V30 1121 O 114.668 -1.23551 -1.50218 0
M  V30 1122 C 114.951 -3.36313 1.28707 0
M  V30 1123 C 114.804 -3.50175 2.82308 0
M  V30 1124 C 116.123 -4.3084 0.898071 0
M  V30 1125 H 113.242 -0.678677 0.287343 0
M  V30 1126 H 115.884 -1.36336 1.32334 0
M  V30 1127 H 114.034 -3.79513 0.830768 0
M  V30 1128 H 115.706 -3.15886 3.36175 0
M  V30 1129 H 113.949 -2.91959 3.20847 0
M  V30 1130 H 114.62 -4.55116 3.12368 0
M  V30 1131 H 117.096 -3.95561 1.29114 0
M  V30 1132 H 115.972 -5.33876 1.27543 0
M  V30 1133 H 116.233 -4.41662 -0.196651 0
M  V30 1134 N 115.292 -0.849877 -1.32721 0
M  V30 1135 C 116.202 -0.293791 -2.32753 0
M  V30 1136 C 117.218 0.585906 -1.63839 0
M  V30 1137 O 118.394 0.487413 -1.95413 0
M  V30 1138 C 115.459 0.512752 -3.42887 0
M  V30 1139 C 114.52 -0.39252 -4.27502 0
M  V30 1140 C 113.753 0.375625 -5.32377 0
M  V30 1141 O 113.976 1.60613 -5.4732 0
M  V30 1142 O 112.91 -0.256094 -6.01355 0
M  V30 1143 H 116.736 -1.12242 -2.82197 0
M  V30 1144 H 114.321 -0.612685 -1.36259 0
M  V30 1145 H 116.203 0.970704 -4.10067 0
M  V30 1146 H 114.878 1.31826 -2.95641 0
M  V30 1147 H 113.785 -0.898547 -3.63149 0
M  V30 1148 H 115.118 -1.16309 -4.7826 0
M  V30 1149 N 116.77 1.45427 -0.607355 0
M  V30 1150 C 118.019 2.01452 -0.100036 0
M  V30 1151 C 118.332 1.48159 1.27704 0
M  V30 1152 O 119.538 1.96159 1.87707 0
M  V30 1153 C 117.994 3.59672 -0.128158 0
M  V30 1154 C 117.602 4.21962 -1.50507 0
M  V30 1155 C 119.346 4.23262 0.323932 0
M  V30 1156 C 117.253 5.72333 -1.48959 0
M  V30 1157 H 116.183 0.75325 -0.0336299 0
M  V30 1158 H 118.834 1.66901 -0.76265 0
M  V30 1159 H 117.216 3.91411 0.601105 0
M  V30 1160 H 118.39 4.01796 -2.25602 0
M  V30 1161 H 116.705 3.70565 -1.89923 0
M  V30 1162 H 119.302 5.33522 0.354691 0
M  V30 1163 H 119.645 3.93921 1.34656 0
M  V30 1164 H 120.178 3.96239 -0.352056 0
M  V30 1165 H 116.917 6.06373 -2.48981 0
M  V30 1166 H 116.437 5.94691 -0.781214 0
M  V30 1167 H 118.116 6.35525 -1.21313 0
M  V30 1168 N 118.248 0.346503 1.53744 0
M  V30 1169 C 119.473 -0.253074 2.0585 0
M  V30 1170 C 119.898 -1.43202 1.21962 0
M  V30 1171 O 119.256 -1.79783 0.234073 0
M  V30 1172 C 119.304 -0.643193 3.54817 0
M  V30 1173 O 118.408 -1.74286 3.73762 0
M  V30 1174 H 117.749 -0.0413583 0.662711 0
M  V30 1175 H 120.279 0.501574 1.98357 0
M  V30 1176 H 120.289 -0.919526 3.97503 0
M  V30 1177 H 118.964 0.218966 4.15323 0
M  V30 1178 H 117.541 -1.46356 3.42979 0
M  V30 1179 N 119.726 -1.57421 0.075193 0
M  V30 1180 C 120.956 -1.97659 -0.601203 0
M  V30 1181 C 121.364 -0.952427 -1.63479 0
M  V30 1182 O 120.707 0.0688241 -1.83571 0
M  V30 1183 C 120.769 -3.34218 -1.32434 0
M  V30 1184 C 120.433 -4.5484 -0.443826 0
M  V30 1185 C 121.43 -5.19034 0.299969 0
M  V30 1186 C 119.115 -5.00952 -0.367709 0
M  V30 1187 C 121.109 -6.27695 1.10807 0
M  V30 1188 C 118.796 -6.09484 0.444058 0
M  V30 1189 C 119.794 -6.72719 1.18061 0
M  V30 1190 O 119.482 -7.79161 1.97898 0
M  V30 1191 H 119.214 -0.65494 -0.167422 0
M  V30 1192 H 121.768 -2.04886 0.145157 0
M  V30 1193 H 119.998 -3.23615 -2.11685 0
M  V30 1194 H 121.687 -3.59038 -1.89331 0
M  V30 1195 H 122.453 -4.84351 0.250776 0
M  V30 1196 H 118.332 -4.51509 -0.930638 0
M  V30 1197 H 121.876 -6.76982 1.68347 0
M  V30 1198 H 117.773 -6.43601 0.494803 0
M  V30 1199 H 118.541 -7.96055 1.90367 0
M  V30 1200 N 121.204 0.198386 -1.56346 0
M  V30 1201 C 122.615 0.763358 -1.70381 0
M  V30 1202 C 122.966 1.83995 -0.681203 0
M  V30 1203 O 122.091 2.15785 0.16305 0
M  V30 1204 C 122.686 1.39143 -3.08909 0
M  V30 1205 C 121.245 1.90352 -3.2472 0
M  V30 1206 C 120.392 0.772233 -2.6633 0
M  V30 1207 H 123.343 -0.0266377 -1.58678 0
M  V30 1208 H 123.364 2.26076 -3.06055 0
M  V30 1209 H 122.876 0.607638 -3.83314 0
M  V30 1210 H 120.977 2.71461 -2.55225 0
M  V30 1211 H 121.09 2.06757 -4.3219 0
M  V30 1212 H 119.454 1.18566 -2.2542 0
M  V30 1213 H 120.237 0.00073556 -3.433 0
M  V30 1214 N 122.682 1.50554 0.465978 0
M  V30 1215 C 123.928 1.62038 1.21949 0
M  V30 1216 C 124.261 0.322116 1.9151 0
M  V30 1217 O 123.536 -0.676723 1.82348 0
M  V30 1218 C 123.819 2.80421 2.25912 0
M  V30 1219 C 123.672 4.20144 1.60622 0
M  V30 1220 C 124.991 2.94354 3.27176 0
M  V30 1221 H 122.11 0.589752 0.441998 0
M  V30 1222 H 124.752 1.82956 0.51257 0
M  V30 1223 H 122.902 2.62717 2.86203 0
M  V30 1224 H 124.574 4.49449 1.03889 0
M  V30 1225 H 122.817 4.24165 0.909211 0
M  V30 1226 H 123.488 4.98914 2.36196 0
M  V30 1227 H 125.964 3.10578 2.76913 0
M  V30 1228 H 124.84 3.788 3.97242 0
M  V30 1229 H 125.101 2.05186 3.916 0
M  V30 1230 N 124.16 -0.719506 1.40217 0
M  V30 1231 C 125.408 -1.47641 1.3801 0
M  V30 1232 C 125.729 -1.94992 -0.018145 0
M  V30 1233 O 124.999 -1.70073 -0.972207 0
M  V30 1234 H 123.579 -0.547744 0.507923 0
M  V30 1235 H 126.241 -0.853187 1.75233 0
M  V30 1236 H 125.337 -2.35112 2.05253 0
M  V30 1237 N 125.638 -1.25649 -0.95132 0
M  V30 1238 C 126.57 -1.02112 -2.05197 0
M  V30 1239 C 127.583 0.0150571 -1.62793 0
M  V30 1240 O 128.772 -0.223874 -1.77091 0
M  V30 1241 C 125.872 -0.522361 -3.3485 0
M  V30 1242 C 125.045 -1.62546 -4.06076 0
M  V30 1243 C 124.104 -1.12649 -5.14001 0
M  V30 1244 O 123.13 -1.82156 -5.39266 0
M  V30 1245 N 124.332 0.03047 -5.80492 0
M  V30 1246 H 127.097 -1.96885 -2.25957 0
M  V30 1247 H 124.658 -1.16899 -1.1201 0
M  V30 1248 H 126.65 -0.172961 -4.0433 0
M  V30 1249 H 125.22 0.33151 -3.10837 0
M  V30 1250 H 124.44 -2.14628 -3.30649 0
M  V30 1251 H 125.728 -2.36644 -4.50419 0
M  V30 1252 H 125.126 0.611169 -5.62389 0
M  V30 1253 H 123.683 0.320875 -6.5101 0
M  V30 1254 N 127.117 1.15442 -1.07289 0
M  V30 1255 C 128.027 2.23786 -0.704057 0
M  V30 1256 C 129.043 1.7166 0.284413 0
M  V30 1257 O 130.219 2.00972 0.131205 0
M  V30 1258 C 127.284 3.46535 -0.106792 0
M  V30 1259 C 126.345 4.13654 -1.14842 0
M  V30 1260 C 125.578 5.30544 -0.57956 0
M  V30 1261 O 125.801 5.67187 0.604585 0
M  V30 1262 O 124.735 5.87154 -1.32414 0
M  V30 1263 H 128.561 2.57664 -1.60757 0
M  V30 1264 H 126.146 1.23152 -0.845803 0
M  V30 1265 H 128.028 4.20804 0.224048 0
M  V30 1266 H 126.703 3.14407 0.770049 0
M  V30 1267 H 125.61 3.4131 -1.5316 0
M  V30 1268 H 126.943 4.49861 -1.99714 0
M  V30 1269 N 128.595 0.856903 1.32268 0
M  V30 1270 C 129.82 0.474569 2.01897 0
M  V30 1271 C 130.245 -0.921766 1.63967 0
M  V30 1272 O 129.603 -1.60589 0.84148 0
M  V30 1273 C 129.651 0.623799 3.55164 0
M  V30 1274 O 128.755 -0.342459 4.10976 0
M  V30 1275 H 128.096 0.190422 0.63611 0
M  V30 1276 H 130.626 1.15672 1.68764 0
M  V30 1277 H 130.636 0.512169 4.04773 0
M  V30 1278 H 129.311 1.64202 3.82113 0
M  V30 1279 H 127.888 -0.18688 3.72431 0
M  V30 1280 N 130.073 -1.45103 0.615059 0
M  V30 1281 C 131.003 -2.33339 -0.0865619 0
M  V30 1282 C 131.984 -1.4727 -0.851209 0
M  V30 1283 O 133.169 -1.76026 -0.820281 0
M  V30 1284 C 130.299 -3.30095 -1.07956 0
M  V30 1285 C 129.253 -4.25858 -0.427628 0
M  V30 1286 C 128.579 -5.12361 -1.5294 0
M  V30 1287 C 129.879 -5.18165 0.655944 0
M  V30 1288 H 131.573 -2.92254 0.650224 0
M  V30 1289 H 129.119 -1.40532 0.314138 0
M  V30 1290 H 131.072 -3.90698 -1.57901 0
M  V30 1291 H 129.796 -2.69355 -1.84703 0
M  V30 1292 H 128.455 -3.66564 0.0510292 0
M  V30 1293 H 128.103 -4.47984 -2.28734 0
M  V30 1294 H 127.803 -5.77238 -1.09865 0
M  V30 1295 H 129.327 -5.75833 -2.03098 0
M  V30 1296 H 130.741 -5.72796 0.240257 0
M  V30 1297 H 129.138 -5.91559 1.00888 0
M  V30 1298 H 130.208 -4.60144 1.52957 0
M  V30 1299 N 131.551 -0.354651 -1.53558 0
M  V30 1300 C 132.498 0.496968 -2.25386 0
M  V30 1301 C 133.468 1.0865 -1.25636 0
M  V30 1302 O 134.653 1.12104 -1.54394 0
M  V30 1303 C 131.793 1.63637 -3.03837 0
M  V30 1304 C 130.906 1.07307 -4.18461 0
M  V30 1305 C 130.041 2.18068 -4.84376 0
M  V30 1306 C 129.08 1.59147 -5.91049 0
M  V30 1307 N 128.217 2.63695 -6.50699 0
M  V30 1308 H 133.057 -0.122075 -2.9775 0
M  V30 1309 H 130.594 -0.0720154 -1.46924 0
M  V30 1310 H 132.552 2.30734 -3.47589 0
M  V30 1311 H 131.182 2.22623 -2.33749 0
M  V30 1312 H 130.234 0.292708 -3.79272 0
M  V30 1313 H 131.546 0.602193 -4.95152 0
M  V30 1314 H 130.7 2.93007 -5.31255 0
M  V30 1315 H 129.439 2.68504 -4.07133 0
M  V30 1316 H 128.444 0.827175 -5.43542 0
M  V30 1317 H 129.669 1.09549 -6.70206 0
M  V30 1318 H 127.615 3.13365 -5.76315 0
M  V30 1319 H 127.532 2.21263 -7.22896 0
M  V30 1320 H 128.8 3.3837 -7.02229 0
M  V30 1321 N 133.029 1.57378 -0.0835403 0
M  V30 1322 C 134.257 1.98263 0.59157 0
M  V30 1323 C 134.672 0.962302 1.62435 0
M  V30 1324 O 134.029 -0.049581 1.82433 0
M  V30 1325 C 134.08 3.39214 1.24965 0
M  V30 1326 O 133.801 4.37339 0.258186 0
M  V30 1327 C 135.302 3.95038 2.01147 0
M  V30 1328 H 132.522 0.651773 0.159477 0
M  V30 1329 H 135.066 2.03878 -0.159415 0
M  V30 1330 H 133.221 3.34649 1.95164 0
M  V30 1331 H 133.635 5.19371 0.731734 0
M  V30 1332 H 135.109 4.95848 2.42567 0
M  V30 1333 H 135.586 3.32222 2.87272 0
M  V30 1334 H 136.192 4.0304 1.35789 0
M  V30 1335 N 134.507 -0.190092 1.56449 0
M  V30 1336 C 135.737 -0.92443 1.84764 0
M  V30 1337 C 136.145 -1.77146 0.664529 0
M  V30 1338 O 135.488 -1.79812 -0.375957 0
M  V30 1339 C 135.55 -1.86651 3.07248 0
M  V30 1340 C 135.214 -1.20094 4.40938 0
M  V30 1341 C 136.211 -0.575445 5.16706 0
M  V30 1342 C 133.896 -1.2033 4.87674 0
M  V30 1343 C 135.89 0.0388111 6.37388 0
M  V30 1344 C 133.577 -0.585214 6.08291 0
M  V30 1345 C 134.575 0.0347578 6.82991 0
M  V30 1346 O 134.263 0.643147 8.01323 0
M  V30 1347 H 133.995 -0.274974 0.617548 0
M  V30 1348 H 136.549 -0.200788 2.04416 0
M  V30 1349 H 134.779 -2.62998 2.83494 0
M  V30 1350 H 136.468 -2.46907 3.22167 0
M  V30 1351 H 137.234 -0.565728 4.81689 0
M  V30 1352 H 133.113 -1.67526 4.29484 0
M  V30 1353 H 136.657 0.523329 6.95634 0
M  V30 1354 H 132.554 -0.592451 6.42775 0
M  V30 1355 H 133.322 0.540545 8.16713 0
M  V30 1356 N 135.985 -1.50799 -0.457987 0
M  V30 1357 C 137.262 -1.52968 -1.21902 0
M  V30 1358 C 137.642 -0.281906 -2.09209 0
M  V30 1359 O 136.99 0.734076 -2.16388 0
M  V30 1360 C 137.2 -2.8326 -2.03875 0
M  V30 1361 C 138.548 -3.34425 -2.6162 0
M  V30 1362 O 139.572 -2.8467 -2.14106 0
M  V30 1363 O 138.431 -4.21188 -3.48228 0
M  V30 1364 H 135.525 -0.614129 -0.553873 0
M  V30 1365 H 138.071 -1.63098 -0.468739 0
M  V30 1366 H 136.843 -3.65543 -1.39621 0
M  V30 1367 H 136.466 -2.76195 -2.8601 0
M  V30 1368 N 137.463 0.71206 -1.40597 0
M  V30 1369 C 138.711 1.46907 -1.38791 0
M  V30 1370 C 139.032 1.94998 0.00780391 0
M  V30 1371 O 138.302 1.70587 0.963174 0
M  V30 1372 H 136.882 0.545043 -0.51082 0
M  V30 1373 H 139.544 0.843882 -1.75683 0
M  V30 1374 H 138.64 2.34021 -2.06496 0
M  V30 1375 N 138.941 1.26152 0.944643 0
M  V30 1376 C 140.187 1.11657 1.69294 0
M  V30 1377 C 140.52 -0.339926 1.91202 0
M  V30 1378 O 139.795 -1.24994 1.49019 0
M  V30 1379 C 140.078 1.88236 3.06984 0
M  V30 1380 C 139.931 3.41772 2.92424 0
M  V30 1381 C 141.25 1.67343 4.07043 0
M  V30 1382 H 138.369 0.407004 0.614424 0
M  V30 1383 H 141.011 1.55106 1.09737 0
M  V30 1384 H 139.161 1.51308 3.57824 0
M  V30 1385 H 140.833 3.88433 2.48832 0
M  V30 1386 H 139.076 3.68974 2.28124 0
M  V30 1387 H 139.747 3.90579 3.90067 0
M  V30 1388 H 142.223 1.99509 3.65151 0
M  V30 1389 H 141.099 2.23346 5.01406 0
M  V30 1390 H 141.36 0.617158 4.37771 0
M  V30 1391 N 140.419 -1.14872 1.07899 0
M  V30 1392 C 141.83 -1.67367 0.827363 0
M  V30 1393 C 142.181 -1.85236 -0.646693 0
M  V30 1394 O 141.306 -1.55974 -1.50004 0
M  V30 1395 C 141.901 -3.04016 1.49532 0
M  V30 1396 C 140.46 -3.53566 1.29106 0
M  V30 1397 C 139.607 -2.29161 1.56143 0
M  V30 1398 H 142.558 -0.990083 1.24028 0
M  V30 1399 H 142.579 -3.69219 0.919643 0
M  V30 1400 H 142.091 -2.90978 2.56814 0
M  V30 1401 H 140.192 -3.71835 0.238713 0
M  V30 1402 H 140.305 -4.34661 2.01511 0
M  V30 1403 H 138.669 -2.34978 0.982717 0
M  V30 1404 H 139.452 -2.18705 2.64619 0
M  V30 1405 N 141.898 -0.863906 -1.31812 0
M  V30 1406 C 143.147 -0.46801 -1.96195 0
M  V30 1407 C 143.46 0.983474 -1.69077 0
M  V30 1408 O 144.666 1.48523 -2.27273 0
M  V30 1409 C 143.122 -0.785995 -3.51212 0
M  V30 1410 C 142.73 -2.25383 -3.87178 0
M  V30 1411 C 144.474 -0.458274 -4.22019 0
M  V30 1412 C 142.381 -2.51455 -5.3528 0
M  V30 1413 H 141.311 -0.171283 -0.734287 0
M  V30 1414 H 143.962 -1.05597 -1.50072 0
M  V30 1415 H 142.344 -0.127359 -3.95795 0
M  V30 1416 H 143.518 -2.95502 -3.53575 0
M  V30 1417 H 141.833 -2.54698 -3.2942 0
M  V30 1418 H 144.43 -0.630369 -5.30971 0
M  V30 1419 H 144.773 0.600834 -4.11941 0
M  V30 1420 H 145.306 -1.07319 -3.8305 0
M  V30 1421 H 142.045 -3.56025 -5.50387 0
M  V30 1422 H 141.565 -1.85923 -5.70257 0
M  V30 1423 H 143.244 -2.35874 -6.02472 0
M  V30 1424 N 143.376 1.44774 -0.622745 0
M  V30 1425 C 144.623 2.02121 -0.1239 0
M  V30 1426 C 144.951 1.48915 1.25118 0
M  V30 1427 O 144.206 0.660045 1.84233 0
M  V30 1428 C 144.505 3.57364 -0.0508323 0
M  V30 1429 C 144.171 4.29787 -1.36358 0
M  V30 1430 C 142.833 4.4929 -1.72314 0
M  V30 1431 C 145.185 4.71062 -2.23048 0
M  V30 1432 C 142.513 5.07325 -2.94682 0
M  V30 1433 C 144.865 5.30452 -3.44679 0
M  V30 1434 C 143.529 5.48175 -3.80868 0
M  V30 1435 H 142.799 0.739612 -0.0453381 0
M  V30 1436 H 145.446 1.73648 -0.807389 0
M  V30 1437 H 143.751 3.85202 0.715991 0
M  V30 1438 H 145.448 3.99456 0.351533 0
M  V30 1439 H 142.038 4.14932 -1.07375 0
M  V30 1440 H 146.222 4.55715 -1.96565 0
M  V30 1441 H 141.478 5.19235 -3.22809 0
M  V30 1442 H 145.652 5.61385 -4.12092 0
M  V30 1443 H 143.279 5.92912 -4.75773 0
M  V30 1444 N 144.854 0.36279 1.53368 0
M  V30 1445 C 146.102 -0.227326 2.00817 0
M  V30 1446 C 146.423 -1.49511 1.25186 0
M  V30 1447 O 145.693 -1.92482 0.364348 0
M  V30 1448 H 144.273 -0.0869923 0.741917 0
M  V30 1449 H 146.935 0.488381 1.88682 0
M  V30 1450 H 146.031 -0.456273 3.08747 0
M  V30 1451 N 146.332 -1.57332 0.0918853 0
M  V30 1452 C 147.262 -2.16872 -0.865371 0
M  V30 1453 C 148.243 -1.10118 -1.29646 0
M  V30 1454 O 149.428 -1.38242 -1.36392 0
M  V30 1455 C 146.558 -2.74649 -2.12569 0
M  V30 1456 C 145.512 -3.86747 -1.83333 0
M  V30 1457 C 144.838 -4.31212 -3.16166 0
M  V30 1458 C 146.138 -5.10089 -1.1228 0
M  V30 1459 H 147.832 -2.97114 -0.369307 0
M  V30 1460 H 145.378 -1.42918 -0.176194 0
M  V30 1461 H 147.331 -3.14952 -2.7997 0
M  V30 1462 H 146.055 -1.91657 -2.64452 0
M  V30 1463 H 144.714 -3.46978 -1.18331 0
M  V30 1464 H 144.362 -3.45115 -3.6593 0
M  V30 1465 H 144.062 -5.06788 -2.97388 0
M  V30 1466 H 145.586 -4.74146 -3.84731 0
M  V30 1467 H 147 -5.47582 -1.69785 0
M  V30 1468 H 145.397 -5.91073 -1.03693 0
M  V30 1469 H 146.467 -4.84786 -0.105041 0
M  V30 1470 N 147.81 0.181792 -1.56548 0
M  V30 1471 C 149.04 0.914618 -1.85252 0
M  V30 1472 C 149.448 1.76791 -0.673914 0
M  V30 1473 O 148.791 1.80009 0.366416 0
M  V30 1474 C 148.853 1.85019 -3.08234 0
M  V30 1475 C 148.517 1.17754 -4.41569 0
M  V30 1476 C 149.514 0.548035 -5.17003 0
M  V30 1477 C 147.199 1.17742 -4.88305 0
M  V30 1478 C 149.193 -0.0726128 -6.37359 0
M  V30 1479 C 146.88 0.552946 -6.08593 0
M  V30 1480 C 147.878 -0.070978 -6.82963 0
M  V30 1481 O 147.566 -0.685635 -8.00971 0
M  V30 1482 H 147.298 0.271695 -0.618998 0
M  V30 1483 H 149.852 0.189944 -2.0452 0
M  V30 1484 H 148.082 2.61491 -2.84885 0
M  V30 1485 H 149.771 2.45195 -3.23472 0
M  V30 1486 H 150.537 0.540174 -4.81982 0
M  V30 1487 H 146.416 1.65246 -4.30366 0
M  V30 1488 H 149.96 -0.560213 -6.95347 0
M  V30 1489 H 145.857 0.558354 -6.43081 0
M  V30 1490 H 146.625 -0.58385 -8.16415 0
M  V30 1491 N 149.288 1.51039 0.449983 0
M  V30 1492 C 150.22 1.67617 1.56324 0
M  V30 1493 C 151.233 0.557083 1.52972 0
M  V30 1494 O 152.422 0.830989 1.57977 0
M  V30 1495 C 149.522 1.66402 2.95235 0
M  V30 1496 C 148.695 2.9469 3.23229 0
M  V30 1497 C 147.754 2.85832 4.41799 0
M  V30 1498 O 146.78 3.59785 4.41071 0
M  V30 1499 N 147.982 2.00821 5.44657 0
M  V30 1500 H 150.747 2.63648 1.42512 0
M  V30 1501 H 148.308 1.48767 0.638737 0
M  V30 1502 H 150.3 1.58062 3.72557 0
M  V30 1503 H 148.87 0.780182 3.02708 0
M  V30 1504 H 148.09 3.16996 2.34323 0
M  V30 1505 H 149.378 3.79636 3.38754 0
M  V30 1506 H 148.776 1.40091 5.48079 0
M  V30 1507 H 147.333 1.98368 6.20881 0
M  V30 1508 N 150.766 -0.704594 1.40972 0
M  V30 1509 C 151.713 -1.81862 1.42109 0
M  V30 1510 C 152.683 -1.63781 0.276593 0
M  V30 1511 O 153.868 -1.84759 0.4763 0
M  V30 1512 C 151.008 -3.19669 1.30022 0
M  V30 1513 C 150.121 -3.49246 2.54267 0
M  V30 1514 C 149.256 -4.76618 2.3454 0
M  V30 1515 C 148.295 -4.99133 3.54306 0
M  V30 1516 N 147.432 -6.17726 3.33706 0
M  V30 1517 H 152.272 -1.80226 2.37324 0
M  V30 1518 H 149.809 -0.880238 1.17857 0
M  V30 1519 H 151.767 -3.99263 1.21018 0
M  V30 1520 H 150.397 -3.20506 0.384192 0
M  V30 1521 H 149.449 -2.64125 2.73756 0
M  V30 1522 H 150.761 -3.61788 3.43381 0
M  V30 1523 H 149.915 -5.64249 2.22952 0
M  V30 1524 H 148.654 -4.66305 1.42867 0
M  V30 1525 H 147.659 -4.09953 3.66359 0
M  V30 1526 H 148.884 -5.11311 4.4692 0
M  V30 1527 H 146.83 -6.08642 2.44725 0
M  V30 1528 H 146.747 -6.30995 4.16391 0
M  V30 1529 H 148.015 -7.08115 3.25873 0
M  V30 1530 N 152.244 -1.26651 -0.937939 0
M  V30 1531 C 153.491 -1.12387 -1.6845 0
M  V30 1532 C 153.819 0.332208 -1.91642 0
M  V30 1533 O 153.074 1.2602 -1.49725 0
M  V30 1534 C 153.373 -1.84168 -3.06295 0
M  V30 1535 C 153.039 -3.34056 -3.02849 0
M  V30 1536 C 151.701 -3.74942 -3.01616 0
M  V30 1537 C 154.053 -4.29741 -2.9491 0
M  V30 1538 C 151.381 -5.09894 -2.90215 0
M  V30 1539 C 153.733 -5.64738 -2.8505 0
M  V30 1540 C 152.397 -6.0493 -2.82162 0
M  V30 1541 H 151.667 -0.411252 -0.616403 0
M  V30 1542 H 154.314 -1.57134 -1.09459 0
M  V30 1543 H 152.619 -1.319 -3.6893 0
M  V30 1544 H 154.316 -1.70569 -3.62915 0
M  V30 1545 H 150.906 -3.01534 -3.0459 0
M  V30 1546 H 155.09 -3.99133 -2.94969 0
M  V30 1547 H 150.346 -5.40194 -2.86358 0
M  V30 1548 H 154.52 -6.38561 -2.77872 0
M  V30 1549 H 152.147 -7.09457 -2.73084 0
M  V30 1550 N 153.722 1.14298 -1.08507 0
M  V30 1551 C 154.685 2.17607 -0.719711 0
M  V30 1552 C 155.685 1.58907 0.245997 0
M  V30 1553 O 156.875 1.74181 0.0254081 0
M  V30 1554 C 154.007 3.40842 -0.0627695 0
M  V30 1555 H 155.2 2.51443 -1.63452 0
M  V30 1556 H 152.753 1.28963 -0.88307 0
M  V30 1557 H 153.488 3.12587 0.863716 0
M  V30 1558 H 153.273 3.84713 -0.757504 0
M  V30 1559 H 154.763 4.17221 0.177786 0
M  V30 1560 N 155.201 0.870884 1.31352 0
M  V30 1561 C 156.149 0.316445 2.30437 0
M  V30 1562 C 157.143 -0.568965 1.59559 0
M  V30 1563 O 158.349 -0.454964 1.74155 0
M  V30 1564 H 154.724 0.0836521 0.747333 0
M  V30 1565 H 156.695 1.16606 2.74673 0
M  V30 1566 C 155.444 -0.46635 3.44558 0
M  V30 1567 H 154.767 0.205687 3.99271 0
M  V30 1568 H 156.207 -0.819614 4.16003 0
M  V30 1569 C 154.666 -1.65797 2.9328 0
M  V30 1570 O 155.196 -2.75728 2.92125 0
M  V30 1571 N 153.402 -1.49041 2.4947 0
M  V30 1572 H 152.949 -0.59612 2.50608 0
M  V30 1573 H 152.907 -2.28911 2.15516 0
M  V30 1574 N 156.679 -1.44442 0.630414 0
M  V30 1575 C 157.626 -2.30678 -0.0749355 0
M  V30 1576 C 158.596 -1.4344 -0.837502 0
M  V30 1577 O 159.781 -1.72343 -0.818684 0
M  V30 1578 C 156.921 -3.28706 -1.05103 0
M  V30 1579 C 156.034 -4.31046 -0.286954 0
M  V30 1580 C 155.169 -5.16167 -1.2548 0
M  V30 1581 C 154.208 -6.10216 -0.479843 0
M  V30 1582 N 153.345 -6.88039 -1.39811 0
M  V30 1583 H 158.185 -2.90454 0.666386 0
M  V30 1584 H 155.722 -1.43107 0.340404 0
M  V30 1585 H 157.68 -3.84027 -1.63031 0
M  V30 1586 H 156.31 -2.70632 -1.75949 0
M  V30 1587 H 155.362 -3.78203 0.408243 0
M  V30 1588 H 156.674 -4.97794 0.316657 0
M  V30 1589 H 155.828 -5.76002 -1.90544 0
M  V30 1590 H 154.567 -4.49491 -1.89233 0
M  V30 1591 H 153.572 -5.49491 0.184295 0
M  V30 1592 H 154.797 -6.78928 0.152965 0
M  V30 1593 H 152.743 -6.24032 -2.02287 0
M  V30 1594 H 152.66 -7.51223 -0.848508 0
M  V30 1595 H 153.928 -7.52397 -2.03762 0
M  V30 1596 N 158.157 -0.370918 -1.53173 0
M  V30 1597 C 159.403 0.217423 -2.01631 0
M  V30 1598 C 159.736 1.47983 -1.25756 0
M  V30 1599 O 159.011 1.91274 -0.352764 0
M  V30 1600 C 159.294 0.503982 -3.56556 0
M  V30 1601 C 159.147 -0.77243 -4.43118 0
M  V30 1602 C 160.466 1.30234 -4.20389 0
M  V30 1603 H 157.585 0.0775486 -0.732909 0
M  V30 1604 H 160.227 -0.496863 -1.83388 0
M  V30 1605 H 158.377 1.11248 -3.72231 0
M  V30 1606 H 160.049 -1.4098 -4.39229 0
M  V30 1607 H 158.292 -1.39167 -4.10871 0
M  V30 1608 H 158.963 -0.526815 -5.4948 0
M  V30 1609 H 161.439 0.787546 -4.08579 0
M  V30 1610 H 160.315 1.47158 -5.28806 0
M  V30 1611 H 160.576 2.31237 -3.76805 0
M  V30 1612 N 159.635 1.57281 -0.100228 0
M  V30 1613 C 160.863 1.98879 0.570509 0
M  V30 1614 C 161.278 0.979476 1.61405 0
M  V30 1615 O 160.635 -0.0302288 1.82475 0
M  V30 1616 C 160.686 3.4052 1.2136 0
M  V30 1617 O 160.407 4.37588 0.211786 0
M  V30 1618 C 161.908 3.97149 1.96945 0
M  V30 1619 H 159.128 0.653428 0.152555 0
M  V30 1620 H 161.672 2.03697 -0.18103 0
M  V30 1621 H 159.827 3.367 1.91603 0
M  V30 1622 H 160.241 5.20118 0.676607 0
M  V30 1623 H 161.715 4.98393 2.37294 0
M  V30 1624 H 162.192 3.3525 2.83733 0
M  V30 1625 H 162.798 4.04458 1.31506 0
M  V30 1626 N 161.113 -0.173488 1.56642 0
M  V30 1627 C 162.359 -0.891784 1.8214 0
M  V30 1628 C 162.692 -1.8199 0.677736 0
M  V30 1629 O 161.967 -1.91842 -0.320446 0
M  V30 1630 C 162.25 -1.68933 3.18015 0
M  V30 1631 C 162.103 -0.784487 4.42906 0
M  V30 1632 C 163.422 -2.65748 3.50808 0
M  V30 1633 H 160.541 -0.322761 0.662567 0
M  V30 1634 H 163.183 -0.158095 1.89341 0
M  V30 1635 H 161.333 -2.31482 3.12007 0
M  V30 1636 H 163.005 -0.172046 4.60979 0
M  V30 1637 H 161.248 -0.0924117 4.33702 0
M  V30 1638 H 161.919 -1.37799 5.34524 0
M  V30 1639 H 164.395 -2.13327 3.57255 0
M  V30 1640 H 163.271 -3.18619 4.4696 0
M  V30 1641 H 163.532 -3.45842 2.75401 0
M  V30 1642 N 162.591 -1.51276 -0.441967 0
M  V30 1643 C 163.501 -1.75092 -1.56141 0
M  V30 1644 C 164.517 -0.634963 -1.62001 0
M  V30 1645 O 165.693 -0.916686 -1.79329 0
M  V30 1646 C 162.758 -1.86666 -2.92158 0
M  V30 1647 C 161.819 -3.10506 -2.96453 0
M  V30 1648 C 161.052 -3.21519 -4.25982 0
M  V30 1649 O 161.275 -2.38586 -5.18105 0
M  V30 1650 O 160.209 -4.14465 -4.36466 0
M  V30 1651 H 164.035 -2.70044 -1.38961 0
M  V30 1652 H 161.62 -1.35722 -0.624499 0
M  V30 1653 H 163.502 -1.96292 -3.72891 0
M  V30 1654 H 162.177 -0.949014 -3.09476 0
M  V30 1655 H 161.084 -3.06363 -2.14692 0
M  V30 1656 H 162.417 -4.01945 -2.84079 0
M  V30 1657 N 164.069 0.697108 -1.41344 0
M  V30 1658 C 165.315 1.45796 -1.41828 0
M  V30 1659 C 165.67 1.92382 -0.0261743 0
M  V30 1660 O 164.963 1.66522 0.947688 0
M  V30 1661 C 165.157 2.68553 -2.35826 0
M  V30 1662 C 164.986 2.33975 -3.84039 0
M  V30 1663 C 163.756 2.24414 -4.52732 0
M  V30 1664 C 165.954 1.97048 -4.75054 0
M  V30 1665 N 163.936 1.82705 -5.86082 0
M  V30 1666 C 165.307 1.66086 -5.9734 0
M  V30 1667 C 167.362 1.83845 -4.62715 0
M  V30 1668 C 166.065 1.23246 -7.08663 0
M  V30 1669 C 168.091 1.4241 -5.73998 0
M  V30 1670 C 167.453 1.12357 -6.95381 0
M  V30 1671 H 163.552 0.530859 -0.574206 0
M  V30 1672 H 166.136 0.806674 -1.77203 0
M  V30 1673 H 164.307 3.31404 -2.02549 0
M  V30 1674 H 166.039 3.35015 -2.2704 0
M  V30 1675 H 162.794 2.4276 -4.0665 0
M  V30 1676 H 163.218 1.64337 -6.56751 0
M  V30 1677 H 167.86 2.05734 -3.69369 0
M  V30 1678 H 165.578 1.00102 -8.01876 0
M  V30 1679 H 169.164 1.32746 -5.66454 0
M  V30 1680 H 168.044 0.807795 -7.80028 0
M  V30 1681 N 165.547 1.27147 0.931209 0
M  V30 1682 C 166.494 1.09568 2.03134 0
M  V30 1683 C 167.464 -0.00222433 1.661 0
M  V30 1684 O 168.649 0.159439 1.90133 0
M  V30 1685 C 165.789 0.745231 3.36957 0
M  V30 1686 C 164.902 1.92041 3.86968 0
M  V30 1687 C 164.037 1.51216 5.09222 0
M  V30 1688 C 163.076 2.65504 5.5152 0
M  V30 1689 N 162.213 2.25291 6.64972 0
M  V30 1690 H 167.053 2.03708 2.17502 0
M  V30 1691 H 164.59 1.01411 1.06556 0
M  V30 1692 H 166.548 0.522878 4.1391 0
M  V30 1693 H 165.178 -0.159202 3.22407 0
M  V30 1694 H 164.23 2.25541 3.06326 0
M  V30 1695 H 165.542 2.77787 4.1429 0
M  V30 1696 H 164.696 1.25084 5.93666 0
M  V30 1697 H 163.435 0.625749 4.83669 0
M  V30 1698 H 162.44 2.92354 4.65628 0
M  V30 1699 H 163.665 3.54761 5.7907 0
M  V30 1700 H 161.611 1.39098 6.41083 0
M  V30 1701 H 161.528 3.04577 6.91931 0
M  V30 1702 H 162.796 2.02398 7.52765 0
M  V30 1703 N 167.025 -1.13721 1.09112 0
M  V30 1704 C 167.935 -2.22638 0.73957 0
M  V30 1705 C 168.951 -1.72091 -0.257068 0
M  V30 1706 O 170.127 -2.01155 -0.0992154 0
M  V30 1707 C 167.192 -3.46322 0.16191 0
M  V30 1708 C 166.253 -4.11775 1.21408 0
M  V30 1709 C 165.486 -5.29555 0.663891 0
M  V30 1710 O 165.709 -5.68077 -0.514274 0
M  V30 1711 O 164.643 -5.84973 1.41738 0
M  V30 1712 H 168.469 -2.55074 1.64836 0
M  V30 1713 H 166.054 -1.21791 0.865289 0
M  V30 1714 H 167.936 -4.21107 -0.157073 0
M  V30 1715 H 166.611 -3.15593 -0.719932 0
M  V30 1716 H 165.518 -3.3883 1.58571 0
M  V30 1717 H 166.851 -4.46627 2.06845 0
M  V30 1718 N 168.503 -0.877838 -1.30888 0
M  V30 1719 C 169.451 -0.328662 -2.30266 0
M  V30 1720 C 170.445 0.560496 -1.59859 0
M  V30 1721 O 171.651 0.445722 -1.74394 0
M  V30 1722 H 168.026 -0.0876142 -0.746879 0
M  V30 1723 H 169.997 -1.18061 -2.74051 0
M  V30 1724 C 168.746 0.448071 -3.44801 0
M  V30 1725 H 168.069 -0.226859 -3.99156 0
M  V30 1726 H 169.509 0.797541 -4.16432 0
M  V30 1727 C 167.968 1.64239 -2.94155 0
M  V30 1728 O 168.498 2.74175 -2.93583 0
M  V30 1729 N 166.704 1.47716 -2.50256 0
M  V30 1730 H 166.251 0.582821 -2.5092 0
M  V30 1731 H 166.209 2.27765 -2.16727 0
M  V30 1732 N 169.982 1.44106 -0.638065 0
M  V30 1733 C 171.23 2.01579 -0.145043 0
M  V30 1734 C 171.551 1.50496 1.24 0
M  V30 1735 O 170.821 0.711374 1.82527 0
M  V30 1736 H 169.401 0.745282 -0.05063 0
M  V30 1737 H 172.063 1.76516 -0.826327 0
M  V30 1738 H 171.159 3.11877 -0.118039 0
M  V30 1739 N 171.46 0.379036 1.52974 0
M  V30 1740 C 172.407 -0.461048 2.26148 0
M  V30 1741 C 173.377 -1.06637 1.27349 0
M  V30 1742 O 174.562 -1.09633 1.56157 0
M  V30 1743 C 171.702 -1.58782 3.06402 0
M  V30 1744 C 170.815 -1.00636 4.20115 0
M  V30 1745 C 169.95 -2.10334 4.87784 0
M  V30 1746 C 168.989 -1.49724 5.93506 0
M  V30 1747 N 168.126 -2.5331 6.54812 0
M  V30 1748 H 172.966 0.169429 2.97518 0
M  V30 1749 H 170.503 0.0953806 1.4679 0
M  V30 1750 H 172.461 -2.25174 3.51215 0
M  V30 1751 H 171.091 -2.18876 2.37261 0
M  V30 1752 H 170.143 -0.232332 3.7969 0
M  V30 1753 H 171.455 -0.523343 4.96047 0
M  V30 1754 H 170.609 -2.84519 5.35849 0
M  V30 1755 H 169.348 -2.61992 4.11353 0
M  V30 1756 H 168.353 -0.740598 5.44789 0
M  V30 1757 H 169.578 -0.988732 6.71864 0
M  V30 1758 H 167.524 -3.04156 5.81227 0
M  V30 1759 H 167.441 -2.09734 7.26325 0
M  V30 1760 H 168.709 -3.27155 7.07524 0
M  V30 1761 N 172.938 -1.57226 0.108567 0
M  V30 1762 C 174.184 -1.95121 -0.552761 0
M  V30 1763 C 174.517 -0.991345 -1.66991 0
M  V30 1764 O 173.792 -0.0267211 -1.94482 0
M  V30 1765 C 174.075 -3.43039 -1.09528 0
M  V30 1766 C 173.928 -4.49797 0.0177332 0
M  V30 1767 C 175.247 -3.92567 -1.98945 0
M  V30 1768 H 172.366 -0.709496 -0.199461 0
M  V30 1769 H 175.008 -1.89126 0.182011 0
M  V30 1770 H 173.158 -3.48279 -1.72146 0
M  V30 1771 H 174.83 -4.56661 0.652584 0
M  V30 1772 H 173.073 -4.284 0.682309 0
M  V30 1773 H 173.744 -5.50528 -0.402919 0
M  V30 1774 H 176.22 -3.89565 -1.46214 0
M  V30 1775 H 175.096 -4.96605 -2.33827 0
M  V30 1776 H 175.357 -3.32648 -2.91201 0
M  V30 1777 N 174.416 0.165178 -1.56732 0
M  V30 1778 C 175.349 1.23336 -1.91998 0
M  V30 1779 C 176.327 1.42476 -0.783531 0
M  V30 1780 O 177.511 1.57384 -1.03743 0
M  V30 1781 C 174.638 2.59533 -2.17625 0
M  V30 1782 C 173.684 2.57093 -3.40302 0
M  V30 1783 S 174.517 2.05571 -4.9447 0
M  V30 1784 C 175.673 3.43532 -5.23198 0
M  V30 1785 H 175.906 0.932387 -2.82301 0
M  V30 1786 H 173.439 0.370013 -1.49901 0
M  V30 1787 H 175.397 3.37918 -2.3307 0
M  V30 1788 H 174.058 2.86827 -1.28019 0
M  V30 1789 H 173.251 3.57308 -3.55453 0
M  V30 1790 H 172.853 1.86806 -3.24005 0
M  V30 1791 H 175.145 4.39559 -5.15552 0
M  V30 1792 H 176.088 3.33251 -6.2478 0
M  V30 1793 H 176.496 3.39828 -4.50752 0
M  V30 1794 N 175.894 1.51508 0.433938 0
M  V30 1795 C 176.841 1.73068 1.52696 0
M  V30 1796 C 177.811 0.572441 1.55924 0
M  V30 1797 O 178.996 0.807253 1.72882 0
M  V30 1798 C 176.136 1.86474 2.90381 0
M  V30 1799 C 175.249 3.14037 2.96656 0
M  V30 1800 C 174.384 3.18019 4.25485 0
M  V30 1801 C 173.423 4.39882 4.2564 0
M  V30 1802 N 172.56 4.41394 5.45999 0
M  V30 1803 H 177.4 2.66366 1.33615 0
M  V30 1804 H 174.937 1.32008 0.649018 0
M  V30 1805 H 176.895 1.92229 3.70275 0
M  V30 1806 H 175.525 0.965809 3.08013 0
M  V30 1807 H 174.577 3.17575 2.09404 0
M  V30 1808 H 175.889 4.0394 2.92633 0
M  V30 1809 H 175.043 3.22708 5.13755 0
M  V30 1810 H 173.782 2.2601 4.3217 0
M  V30 1811 H 172.787 4.35366 3.35763 0
M  V30 1812 H 174.012 5.33159 4.20617 0
M  V30 1813 H 171.958 3.52258 5.53399 0
M  V30 1814 H 171.875 5.25111 5.4387 0
M  V30 1815 H 173.143 4.50281 6.36292 0
M  V30 1816 N 177.372 -0.689602 1.41712 0
M  V30 1817 C 178.649 -1.44457 1.31877 0
M  V30 1818 C 179.029 -2.11039 -0.0508537 0
M  V30 1819 O 178.377 -2.02138 -1.06547 0
M  V30 1820 C 178.587 -2.45913 2.47645 0
M  V30 1821 C 179.935 -3.10991 2.89084 0
M  V30 1822 O 180.959 -2.56238 2.47428 0
M  V30 1823 O 179.818 -4.10174 3.61137 0
M  V30 1824 H 176.912 -0.64362 0.519309 0
M  V30 1825 H 179.458 -0.719576 1.53689 0
M  V30 1826 H 178.23 -1.95409 3.39015 0
M  V30 1827 H 177.853 -3.25913 2.27742 0
M  V30 1828 N 178.85 -1.27639 -0.924453 0
M  V30 1829 C 180.127 -1.04887 -1.651 0
M  V30 1830 C 180.507 0.415327 -2.06974 0
M  V30 1831 O 179.855 1.39923 -1.80648 0
M  V30 1832 C 180.065 -2.01348 -2.85061 0
M  V30 1833 C 181.413 -2.30899 -3.56329 0
M  V30 1834 O 182.437 -1.99348 -2.95193 0
M  V30 1835 O 181.296 -2.84699 -4.66485 0
M  V30 1836 H 178.39 -0.400083 -0.723784 0
M  V30 1837 H 180.936 -1.38916 -0.974703 0
M  V30 1838 H 179.708 -3.0008 -2.51133 0
M  V30 1839 H 179.331 -1.679 -3.6041 0
M  V30 1840 N 180.328 1.1314 -1.09713 0
M  V30 1841 C 181.558 1.88048 -0.855656 0
M  V30 1842 C 181.966 1.79537 0.596919 0
M  V30 1843 O 181.309 1.16196 1.42282 0
M  V30 1844 C 181.371 3.38314 -1.21589 0
M  V30 1845 C 181.035 3.70605 -2.67397 0
M  V30 1846 C 182.032 3.69596 -3.65643 0
M  V30 1847 C 179.717 4.0017 -3.03593 0
M  V30 1848 C 181.711 3.977 -4.9811 0
M  V30 1849 C 179.398 4.27935 -4.36251 0
M  V30 1850 C 180.396 4.26685 -5.33318 0
M  V30 1851 O 180.084 4.53767 -6.63589 0
M  V30 1852 H 179.816 0.60208 -0.307368 0
M  V30 1853 H 182.37 1.44128 -1.46343 0
M  V30 1854 H 180.6 3.82752 -0.551177 0
M  V30 1855 H 182.289 3.94552 -0.953083 0
M  V30 1856 H 183.055 3.46826 -3.39023 0
M  V30 1857 H 178.934 4.00289 -2.2867 0
M  V30 1858 H 182.478 3.9664 -5.73866 0
M  V30 1859 H 178.375 4.50178 -4.62613 0
M  V30 1860 H 179.143 4.71422 -6.69107 0
M  V30 1861 N 181.806 0.884767 1.30421 0
M  V30 1862 C 183.052 0.503851 1.96441 0
M  V30 1863 C 183.385 -0.944518 1.69684 0
M  V30 1864 O 182.66 -1.66737 1.00145 0
M  V30 1865 C 182.943 0.779085 3.51571 0
M  V30 1866 C 182.796 2.27807 3.87846 0
M  V30 1867 C 184.115 0.255452 4.39358 0
M  V30 1868 H 181.234 0.184533 0.713524 0
M  V30 1869 H 183.876 1.10872 1.54297 0
M  V30 1870 H 182.026 0.264274 3.876 0
M  V30 1871 H 183.698 2.86127 3.61841 0
M  V30 1872 H 181.941 2.74479 3.35922 0
M  V30 1873 H 182.612 2.42125 4.96064 0
M  V30 1874 H 185.088 0.696079 4.10236 0
M  V30 1875 H 183.964 0.477361 5.4682 0
M  V30 1876 H 184.225 -0.843293 4.33983 0
M  V30 1877 N 183.284 -1.43765 0.645699 0
M  V30 1878 C 184.53 -2.02197 0.156271 0
M  V30 1879 C 184.863 -1.50776 -1.22393 0
M  V30 1880 O 184.138 -0.697771 -1.81553 0
M  V30 1881 C 184.421 -3.59749 0.158872 0
M  V30 1882 C 184.274 -4.21419 1.57245 0
M  V30 1883 C 185.593 -4.37149 -0.50879 0
M  V30 1884 H 182.712 -0.734694 0.0582602 0
M  V30 1885 H 185.354 -1.71157 0.824951 0
M  V30 1886 H 183.504 -3.86325 -0.410525 0
M  V30 1887 H 185.176 -4.059 2.19186 0
M  V30 1888 H 183.419 -3.78356 2.122 0
M  V30 1889 H 184.09 -5.30482 1.52619 0
M  V30 1890 H 186.566 -4.16093 -0.024412 0
M  V30 1891 H 185.442 -5.4683 -0.476213 0
M  V30 1892 H 185.703 -4.12839 -1.58165 0
M  V30 1893 N 184.763 -0.387143 -1.52771 0
M  V30 1894 C 185.713 0.465942 -2.23188 0
M  V30 1895 C 186.697 1.03138 -1.23496 0
M  V30 1896 O 187.889 0.957845 -1.48843 0
M  V30 1897 C 185.018 1.59384 -3.04059 0
M  V30 1898 C 184.104 1.04024 -4.11144 0
M  V30 1899 N 184.495 0.211416 -5.05358 0
M  V30 1900 C 182.793 1.31295 -4.26237 0
M  V30 1901 C 183.494 -0.0941698 -5.81624 0
M  V30 1902 N 182.47 0.509207 -5.4121 0
M  V30 1903 H 186.272 -0.173856 -2.93385 0
M  V30 1904 H 183.786 -0.19633 -1.61209 0
M  V30 1905 H 185.783 2.21738 -3.53041 0
M  V30 1906 H 184.443 2.23648 -2.35397 0
M  V30 1907 H 185.454 -0.151151 -5.17679 0
M  V30 1908 H 182.131 1.95679 -3.68803 0
M  V30 1909 H 183.521 -0.765572 -6.67524 0
M  V30 1910 N 186.241 1.57166 -0.116904 0
M  V30 1911 C 187.469 1.99473 0.549383 0
M  V30 1912 C 187.884 0.996541 1.60357 0
M  V30 1913 O 187.241 -0.0108731 1.82497 0
M  V30 1914 C 187.292 3.41788 1.17741 0
M  V30 1915 O 187.013 4.37788 0.165362 0
M  V30 1916 C 188.514 3.99216 1.92722 0
M  V30 1917 H 185.734 0.655009 0.145616 0
M  V30 1918 H 188.278 2.03494 -0.202625 0
M  V30 1919 H 186.433 3.38713 1.88021 0
M  V30 1920 H 186.847 5.20806 0.621403 0
M  V30 1921 H 188.321 5.00882 2.31995 0
M  V30 1922 H 188.798 3.3824 2.80161 0
M  V30 1923 H 189.404 4.0583 1.27209 0
M  V30 1924 N 187.719 -0.156864 1.56817 0
M  V30 1925 C 188.944 -0.890331 1.87318 0
M  V30 1926 C 189.369 -1.74394 0.704855 0
M  V30 1927 O 188.727 -1.77972 -0.345786 0
M  V30 1928 C 188.775 -1.73102 3.16336 0
M  V30 1929 O 187.879 -2.83422 2.99576 0
M  V30 1930 H 187.22 -0.24857 0.615718 0
M  V30 1931 H 189.75 -0.150649 2.04045 0
M  V30 1932 H 189.76 -2.12803 3.48107 0
M  V30 1933 H 188.435 -1.10412 4.00976 0
M  V30 1934 H 187.012 -2.47199 2.7919 0
M  V30 1935 N 189.197 -1.51736 -0.425897 0
M  V30 1936 C 190.16 -1.73271 -1.50032 0
M  V30 1937 C 191.16 -0.602639 -1.4908 0
M  V30 1938 O 192.35 -0.87033 -1.509 0
M  V30 1939 C 189.482 -1.79969 -2.89523 0
M  V30 1940 H 190.675 -2.69172 -1.32237 0
M  V30 1941 H 188.228 -1.41899 -0.65532 0
M  V30 1942 H 188.963 -0.859241 -3.1271 0
M  V30 1943 H 188.748 -2.62109 -2.91619 0
M  V30 1944 H 190.238 -1.9843 -3.67444 0
M  V30 1945 N 190.675 0.682077 -1.42076 0
M  V30 1946 C 191.924 1.43786 -1.41451 0
M  V30 1947 C 192.237 1.95574 -0.0317074 0
M  V30 1948 O 193.443 2.71326 0.0971462 0
M  V30 1949 C 191.899 2.60071 -2.48779 0
M  V30 1950 C 191.507 2.15013 -3.93031 0
M  V30 1951 C 193.251 3.37626 -2.57311 0
M  V30 1952 C 191.158 3.28336 -4.91883 0
M  V30 1953 H 190.088 0.540143 -0.526082 0
M  V30 1954 H 192.739 0.739157 -1.67955 0
M  V30 1955 H 191.121 3.32275 -2.15429 0
M  V30 1956 H 192.295 1.5001 -4.35699 0
M  V30 1957 H 190.61 1.50416 -3.88284 0
M  V30 1958 H 193.207 4.22012 -3.28345 0
M  V30 1959 H 193.55 3.83727 -1.61429 0
M  V30 1960 H 194.083 2.72488 -2.89819 0
M  V30 1961 H 190.822 2.87234 -5.89217 0
M  V30 1962 H 190.342 3.92145 -4.53853 0
M  V30 1963 H 192.021 3.93913 -5.13265 0
M  V30 1964 N 192.153 1.28127 0.917671 0
M  V30 1965 C 193.399 1.15223 1.66888 0
M  V30 1966 C 193.732 -0.299293 1.9188 0
M  V30 1967 O 193.007 -1.21805 1.51637 0
M  V30 1968 C 193.29 1.94706 3.02922 0
M  V30 1969 C 193.143 3.47898 2.85109 0
M  V30 1970 C 194.462 1.75939 4.03402 0
M  V30 1971 H 191.581 0.419946 0.605652 0
M  V30 1972 H 194.223 1.57398 1.06423 0
M  V30 1973 H 192.373 1.58864 3.54534 0
M  V30 1974 H 194.045 3.93624 2.40537 0
M  V30 1975 H 192.288 3.7373 2.20246 0
M  V30 1976 H 192.959 3.98765 3.81694 0
M  V30 1977 H 195.435 2.07209 3.60837 0
M  V30 1978 H 194.311 2.33931 4.96556 0
M  V30 1979 H 194.572 0.709877 4.36364 0
M  V30 1980 N 193.631 -1.12557 1.10312 0
M  V30 1981 C 194.579 -2.20325 0.745629 0
M  V30 1982 C 195.573 -1.67429 -0.25763 0
M  V30 1983 O 196.779 -1.79612 -0.118132 0
M  V30 1984 H 193.154 -0.718118 0.223182 0
M  V30 1985 H 195.125 -2.47733 1.66346 0
M  V30 1986 C 193.874 -3.47168 0.192262 0
M  V30 1987 H 193.197 -3.88215 0.955475 0
M  V30 1988 H 194.637 -4.23995 -0.0198274 0
M  V30 1989 C 193.096 -3.19298 -1.07472 0
M  V30 1990 O 193.626 -3.3891 -2.15645 0
M  V30 1991 N 191.832 -2.73113 -0.992847 0
M  V30 1992 H 191.379 -2.57354 -0.112474 0
M  V30 1993 H 191.337 -2.54842 -1.84127 0
M  V30 1994 N 195.109 -0.891671 -1.2995 0
M  V30 1995 C 196.057 -0.353066 -2.29905 0
M  V30 1996 C 197.051 0.543509 -1.60444 0
M  V30 1997 O 198.257 0.4272 -1.74857 0
M  V30 1998 H 194.632 -0.095531 -0.745907 0
M  V30 1999 H 196.603 -1.20961 -2.72784 0
M  V30 2000 C 195.352 0.411475 -3.45257 0
M  V30 2001 H 194.675 -0.269182 -3.98893 0
M  V30 2002 H 196.115 0.753328 -4.17254 0
M  V30 2003 C 194.574 1.6111 -2.9588 0
M  V30 2004 O 195.104 2.71045 -2.96475 0
M  V30 2005 N 193.31 1.45054 -2.51809 0
M  V30 2006 H 192.857 0.556175 -2.51524 0
M  V30 2007 H 192.815 2.25453 -2.1913 0
M  V30 2008 N 196.587 1.43421 -0.653314 0
M  V30 2009 C 197.817 2.05864 -0.174238 0
M  V30 2010 C 198.225 1.49052 1.16534 0
M  V30 2011 O 197.568 0.616481 1.73047 0
M  V30 2012 C 197.63 3.59499 -0.00875873 0
M  V30 2013 C 197.294 4.38893 -1.27364 0
M  V30 2014 C 198.291 4.70947 -2.20239 0
M  V30 2015 C 195.976 4.789 -1.51525 0
M  V30 2016 C 197.97 5.41916 -3.35568 0
M  V30 2017 C 195.657 5.49614 -2.67147 0
M  V30 2018 C 196.655 5.81044 -3.58994 0
M  V30 2019 O 196.343 6.50313 -4.72597 0
M  V30 2020 H 196.075 0.670345 -0.0872549 0
M  V30 2021 H 198.629 1.84913 -0.894226 0
M  V30 2022 H 196.859 3.79025 0.7666 0
M  V30 2023 H 198.548 4.0364 0.427687 0
M  V30 2024 H 199.314 4.40558 -2.02815 0
M  V30 2025 H 195.193 4.53843 -0.809158 0
M  V30 2026 H 198.737 5.66365 -4.07279 0
M  V30 2027 H 194.634 5.79419 -2.84505 0
M  V30 2028 H 195.402 6.68795 -4.71864 0
M  V30 2029 N 198.065 0.39524 1.52563 0
M  V30 2030 C 198.998 -0.4813 2.23067 0
M  V30 2031 C 199.976 -1.05927 1.23362 0
M  V30 2032 O 201.16 -1.10979 1.52368 0
M  V30 2033 C 198.287 -1.66676 2.9485 0
M  V30 2034 C 197.333 -1.21348 4.08873 0
M  V30 2035 S 198.166 -0.190102 5.35162 0
M  V30 2036 C 199.322 -1.38121 6.1047 0
M  V30 2037 H 199.555 0.117381 2.97068 0
M  V30 2038 H 197.088 0.179458 1.53354 0
M  V30 2039 H 199.046 -2.3466 3.36816 0
M  V30 2040 H 197.707 -2.23676 2.20518 0
M  V30 2041 H 196.9 -2.09877 4.58222 0
M  V30 2042 H 196.502 -0.612486 3.68951 0
M  V30 2043 H 198.794 -2.30726 6.37002 0
M  V30 2044 H 199.737 -0.928521 7.01986 0
M  V30 2045 H 200.145 -1.60071 5.41329 0
M  V30 2046 N 199.544 -1.57102 0.125237 0
M  V30 2047 C 200.821 -1.86953 -0.575142 0
M  V30 2048 C 201.201 -1.02749 -1.84407 0
M  V30 2049 O 200.549 -0.108144 -2.28244 0
M  V30 2050 C 200.759 -3.38198 -0.861583 0
M  V30 2051 C 202.107 -4.06937 -1.21192 0
M  V30 2052 O 203.131 -3.43252 -0.951645 0
M  V30 2053 O 201.99 -5.19364 -1.70068 0
M  V30 2054 H 199.084 -0.774147 -0.290906 0
M  V30 2055 H 201.63 -1.68942 0.160211 0
M  V30 2056 H 200.402 -3.91282 0.0373647 0
M  V30 2057 H 200.025 -3.61661 -1.65188 0
M  V30 2058 N 201.022 0.148545 -1.56898 0
M  V30 2059 C 201.97 1.20265 -1.99096 0
M  V30 2060 C 202.964 1.44559 -0.883123 0
M  V30 2061 O 204.17 1.4487 -1.0683 0
M  V30 2062 H 200.545 0.404786 -0.63376 0
M  V30 2063 H 202.516 0.82004 -2.86911 0
M  V30 2064 C 201.265 2.52886 -2.3863 0
M  V30 2065 H 200.588 2.35021 -3.23427 0
M  V30 2066 H 202.028 3.25274 -2.7198 0
M  V30 2067 C 200.487 3.13315 -1.23837 0
M  V30 2068 O 201.017 3.98077 -0.538268 0
M  V30 2069 N 199.223 2.72742 -1.00301 0
M  V30 2070 H 198.77 2.03912 -1.5741 0
M  V30 2071 H 198.728 3.13507 -0.236838 0
M  V30 2072 N 202.5 1.5196 0.417844 0
M  V30 2073 C 203.916 1.40569 0.755816 0
M  V30 2074 C 204.116 0.503316 1.95113 0
M  V30 2075 O 203.172 -0.0341925 2.52477 0
M  V30 2076 C 204.485 2.82947 1.01791 0
M  V30 2077 C 206.033 2.92231 1.12116 0
M  V30 2078 C 206.508 4.35559 1.41608 0
M  V30 2079 N 207.999 4.38753 1.48491 0
M  V30 2080 C 208.734 5.46705 1.7292 0
M  V30 2081 N 208.23 6.64788 1.95011 0
M  V30 2082 N 210.023 5.34209 1.74863 0
M  V30 2083 H 202.174 2.09168 -0.369098 0
M  V30 2084 H 204.437 0.942409 -0.102809 0
M  V30 2085 H 204.143 3.5106 0.212081 0
M  V30 2086 H 204.017 3.23462 1.94042 0
M  V30 2087 H 206.404 2.24304 1.9176 0
M  V30 2088 H 206.485 2.55185 0.177225 0
M  V30 2089 H 206.129 5.04042 0.624848 0
M  V30 2090 H 206.059 4.70133 2.37239 0
M  V30 2091 H 208.55 3.5363 1.33244 0
M  V30 2092 H 208.863 7.42845 2.13076 0
M  V30 2093 H 207.208 6.67869 1.92293 0
M  V30 2094 H 210.399 4.40937 1.57137 0
M  V30 2095 H 210.572 6.18415 1.93563 0
M  V30 2096 N 203.978 -0.674533 1.42435 0
M  V30 2097 C 205.203 -1.46784 1.46524 0
M  V30 2098 C 205.628 -1.87938 0.078066 0
M  V30 2099 O 204.986 -1.56014 -0.92354 0
M  V30 2100 C 205.034 -2.69307 2.39805 0
M  V30 2101 O 204.138 -3.67587 1.86959 0
M  V30 2102 H 203.479 -0.440959 0.496439 0
M  V30 2103 H 206.009 -0.827326 1.87127 0
M  V30 2104 H 206.019 -3.17374 2.56393 0
M  V30 2105 H 204.694 -2.38692 3.40586 0
M  V30 2106 H 203.271 -3.2662 1.79927 0
M  V30 2107 N 205.456 -1.28612 -0.910864 0
M  V30 2108 C 206.705 -1.15311 -1.65488 0
M  V30 2109 C 207.018 0.296999 -1.93332 0
M  V30 2110 O 208.224 0.551168 -2.65847 0
M  V30 2111 C 206.68 -2.01599 -2.98137 0
M  V30 2112 C 206.288 -3.51367 -2.7793 0
M  V30 2113 C 208.032 -1.96993 -3.76024 0
M  V30 2114 C 205.939 -4.29797 -4.06237 0
M  V30 2115 H 204.869 -0.42796 -0.620779 0
M  V30 2116 H 207.52 -1.53166 -1.01057 0
M  V30 2117 H 205.902 -1.56603 -3.63719 0
M  V30 2118 H 207.076 -4.0434 -2.21011 0
M  V30 2119 H 205.391 -3.57529 -2.13452 0
M  V30 2120 H 207.988 -2.52856 -4.71135 0
M  V30 2121 H 208.331 -0.94733 -4.05378 0
M  V30 2122 H 208.864 -2.39973 -3.17266 0
M  V30 2123 H 205.603 -5.32648 -3.82055 0
M  V30 2124 H 205.123 -3.81596 -4.62757 0
M  V30 2125 H 206.802 -4.39869 -4.74473 0
M  V30 2126 N 206.934 1.1197 -1.10907 0
M  V30 2127 C 208.159 1.87942 -0.877064 0
M  V30 2128 C 208.584 1.79341 0.567314 0
M  V30 2129 O 207.942 1.15184 1.40009 0
M  V30 2130 C 207.99 3.34926 -1.33629 0
M  V30 2131 O 207.094 4.09303 -0.504447 0
M  V30 2132 H 206.435 0.583785 -0.316371 0
M  V30 2133 H 208.965 1.4157 -1.47712 0
M  V30 2134 H 208.975 3.8577 -1.32837 0
M  V30 2135 H 207.65 3.40504 -2.3881 0
M  V30 2136 H 206.227 3.68393 -0.577993 0
M  V30 2137 N 208.412 0.89855 1.29475 0
M  V30 2138 C 209.689 0.443416 1.90508 0
M  V30 2139 C 210.069 -1.07685 1.81569 0
M  V30 2140 O 209.417 -1.9182 1.24166 0
M  V30 2141 C 209.627 0.956708 3.35631 0
M  V30 2142 C 210.975 0.999728 4.12663 0
M  V30 2143 O 211.999 0.904299 3.4453 0
M  V30 2144 O 210.858 1.14289 5.34416 0
M  V30 2145 H 207.952 0.138025 0.815401 0
M  V30 2146 H 210.498 0.98834 1.37949 0
M  V30 2147 H 209.27 2.00067 3.36287 0
M  V30 2148 H 208.893 0.391728 3.95666 0
M  V30 2149 N 209.89 -1.43072 0.660911 0
M  V30 2150 C 210.82 -2.33497 -0.0122829 0
M  V30 2151 C 211.801 -1.49903 -0.803925 0
M  V30 2152 O 212.986 -1.78546 -0.763864 0
M  V30 2153 C 210.116 -3.33363 -0.973994 0
M  V30 2154 C 209.07 -4.27003 -0.291928 0
M  V30 2155 C 208.396 -5.16967 -1.36562 0
M  V30 2156 C 209.696 -5.15816 0.820462 0
M  V30 2157 H 211.39 -2.90038 0.742873 0
M  V30 2158 H 208.936 -1.39461 0.358688 0
M  V30 2159 H 210.889 -3.95524 -1.45392 0
M  V30 2160 H 209.613 -2.75095 -1.7604 0
M  V30 2161 H 208.272 -3.66217 0.167623 0
M  V30 2162 H 207.92 -4.55034 -2.14366 0
M  V30 2163 H 207.62 -5.80441 -0.914454 0
M  V30 2164 H 209.144 -5.82003 -1.84675 0
M  V30 2165 H 210.558 -5.71742 0.422366 0
M  V30 2166 H 208.955 -5.8805 1.19656 0
M  V30 2167 H 210.025 -4.55045 1.67518 0
M  V30 2168 N 211.368 -0.403325 -1.52352 0
M  V30 2169 C 212.3 0.4603 -2.2453 0
M  V30 2170 C 213.313 1.01505 -1.27282 0
M  V30 2171 O 214.502 0.914982 -1.53266 0
M  V30 2172 C 211.602 1.65208 -2.95905 0
M  V30 2173 C 210.775 1.22224 -4.19976 0
M  V30 2174 C 209.834 2.28028 -4.74226 0
M  V30 2175 O 208.86 1.88857 -5.36956 0
M  V30 2176 N 210.062 3.6012 -4.55295 0
M  V30 2177 H 212.827 -0.158156 -2.99282 0
M  V30 2178 H 210.388 -0.230402 -1.60252 0
M  V30 2179 H 212.38 2.35541 -3.29093 0
M  V30 2180 H 210.95 2.17658 -2.24374 0
M  V30 2181 H 210.17 0.34725 -3.92668 0
M  V30 2182 H 211.458 0.911924 -5.00561 0
M  V30 2183 H 210.856 3.94698 -4.05253 0
M  V30 2184 H 209.413 4.26447 -4.92936 0
M  V30 2185 N 212.846 1.57033 -0.133567 0
M  V30 2186 C 213.778 2.13176 0.841944 0
M  V30 2187 C 214.791 1.07794 1.22001 0
M  V30 2188 O 215.98 1.35117 1.16643 0
M  V30 2189 C 213.08 2.62847 2.13926 0
M  V30 2190 C 212.253 3.92486 1.93064 0
M  V30 2191 C 211.312 4.27605 3.0666 0
M  V30 2192 O 210.338 4.96168 2.78937 0
M  V30 2193 N 211.54 3.861 4.33483 0
M  V30 2194 H 214.305 2.97503 0.362192 0
M  V30 2195 H 211.866 1.61821 0.05042 0
M  V30 2196 H 213.858 2.83363 2.88942 0
M  V30 2197 H 212.428 1.83319 2.53205 0
M  V30 2198 H 211.648 3.80732 1.02159 0
M  V30 2199 H 212.936 4.77225 1.76447 0
M  V30 2200 H 212.334 3.30828 4.58878 0
M  V30 2201 H 210.891 4.11694 5.05323 0
M  V30 2202 N 214.325 -0.140222 1.56975 0
M  V30 2203 C 215.553 -0.866437 1.87884 0
M  V30 2204 C 215.968 -1.74428 0.722517 0
M  V30 2205 O 215.325 -1.79891 -0.30749 0
M  V30 2206 C 215.376 -1.71753 3.18093 0
M  V30 2207 O 215.097 -0.875056 4.29272 0
M  V30 2208 C 216.598 -2.55074 3.62563 0
M  V30 2209 H 213.818 -0.25019 0.622612 0
M  V30 2210 H 216.362 -0.130977 2.0408 0
M  V30 2211 H 214.517 -2.40598 3.03631 0
M  V30 2212 H 214.931 -1.46002 5.03769 0
M  V30 2213 H 216.405 -3.10356 4.5649 0
M  V30 2214 H 216.882 -3.31434 2.88181 0
M  V30 2215 H 217.488 -1.91509 3.79743 0
M  V30 2216 N 215.803 -1.52179 -0.40978 0
M  V30 2217 C 216.75 -1.75475 -1.49924 0
M  V30 2218 C 217.72 -0.597175 -1.54994 0
M  V30 2219 O 218.905 -0.834655 -1.71575 0
M  V30 2220 C 216.045 -1.9107 -2.87378 0
M  V30 2221 C 215.158 -3.18717 -2.91622 0
M  V30 2222 C 214.293 -3.24747 -4.20372 0
M  V30 2223 C 213.332 -4.46598 -4.18588 0
M  V30 2224 N 212.469 -4.50025 -5.38908 0
M  V30 2225 H 217.309 -2.68458 -1.29361 0
M  V30 2226 H 214.846 -1.33024 -0.627934 0
M  V30 2227 H 216.804 -1.98096 -3.6717 0
M  V30 2228 H 215.434 -1.01469 -3.06437 0
M  V30 2229 H 214.486 -3.20866 -2.04326 0
M  V30 2230 H 215.798 -4.08544 -2.86169 0
M  V30 2231 H 214.952 -3.30841 -5.08556 0
M  V30 2232 H 213.691 -2.32857 -4.28519 0
M  V30 2233 H 212.696 -4.40652 -3.28794 0
M  V30 2234 H 213.921 -5.39783 -4.12081 0
M  V30 2235 H 211.867 -3.61017 -5.47725 0
M  V30 2236 H 211.784 -5.33697 -5.35447 0
M  V30 2237 H 213.052 -4.60347 -6.29048 0
M  V30 2238 N 217.281 0.66697 -1.42791 0
M  V30 2239 C 218.527 1.4291 -1.43891 0
M  V30 2240 C 218.86 1.94114 -0.0578972 0
M  V30 2241 O 218.135 1.71414 0.91911 0
M  V30 2242 C 218.418 2.62049 -2.46987 0
M  V30 2243 C 218.271 2.16426 -3.94309 0
M  V30 2244 C 219.59 3.64266 -2.46978 0
M  V30 2245 H 216.709 0.518306 -0.523954 0
M  V30 2246 H 219.351 0.757321 -1.74255 0
M  V30 2247 H 217.501 3.19361 -2.21225 0
M  V30 2248 H 219.173 1.64221 -4.31079 0
M  V30 2249 H 217.416 1.47925 -4.078 0
M  V30 2250 H 218.087 3.02038 -4.62036 0
M  V30 2251 H 220.563 3.16686 -2.69906 0
M  V30 2252 H 219.439 4.45196 -3.21079 0
M  V30 2253 H 219.7 4.15927 -1.49857 0
M  V30 2254 N 218.759 1.29093 0.90403 0
M  V30 2255 C 220.008 1.16187 1.64874 0
M  V30 2256 C 220.321 -0.286742 1.93487 0
M  V30 2257 O 221.527 -0.537062 2.66135 0
M  V30 2258 C 219.983 2.03177 2.97064 0
M  V30 2259 C 219.591 3.52836 2.76062 0
M  V30 2260 C 221.335 1.98984 3.74974 0
M  V30 2261 C 219.242 4.31945 4.03952 0
M  V30 2262 H 218.172 0.431246 0.618501 0
M  V30 2263 H 220.823 1.53699 1.00243 0
M  V30 2264 H 219.205 1.5853 3.62883 0
M  V30 2265 H 220.379 4.05507 2.18863 0
M  V30 2266 H 218.694 3.58656 2.11553 0
M  V30 2267 H 221.291 2.55351 4.69787 0
M  V30 2268 H 221.634 0.968815 4.0487 0
M  V30 2269 H 222.167 2.41652 3.15989 0
M  V30 2270 H 218.906 5.34667 3.79225 0
M  V30 2271 H 218.426 3.84045 4.60727 0
M  V30 2272 H 220.105 4.42379 4.72133 0
M  V30 2273 N 220.237 -1.11381 1.11499 0
M  V30 2274 C 221.184 -2.17439 0.773887 0
M  V30 2275 C 222.154 -1.64132 -0.254899 0
M  V30 2276 O 223.339 -1.90345 -0.13168 0
M  V30 2277 C 220.479 -3.44373 0.223917 0
M  V30 2278 C 219.592 -4.1168 1.30934 0
M  V30 2279 C 218.727 -5.263 0.71984 0
M  V30 2280 C 217.766 -5.85493 1.78507 0
M  V30 2281 N 216.903 -6.91507 1.21502 0
M  V30 2282 H 221.743 -2.45962 1.68246 0
M  V30 2283 H 219.28 -1.20744 0.840191 0
M  V30 2284 H 221.238 -4.17047 -0.112921 0
M  V30 2285 H 219.868 -3.16232 -0.647851 0
M  V30 2286 H 218.92 -3.37073 1.76312 0
M  V30 2287 H 220.232 -4.51729 2.11524 0
M  V30 2288 H 219.386 -6.05785 0.333094 0
M  V30 2289 H 218.125 -4.87559 -0.117377 0
M  V30 2290 H 217.13 -5.04686 2.18111 0
M  V30 2291 H 218.355 -6.26301 2.62533 0
M  V30 2292 H 216.301 -6.54783 0.399455 0
M  V30 2293 H 216.218 -7.30214 1.95763 0
M  V30 2294 H 217.486 -7.74795 0.855181 0
M  V30 2295 N 221.715 -0.905404 -1.28997 0
M  V30 2296 C 222.961 -0.535039 -1.95615 0
M  V30 2297 C 223.294 0.917404 -1.71165 0
M  V30 2298 O 222.569 1.65123 -1.02785 0
M  V30 2299 C 222.852 -0.834918 -3.50287 0
M  V30 2300 C 222.705 -2.33948 -3.84172 0
M  V30 2301 C 224.024 -0.325318 -4.38896 0
M  V30 2302 H 221.143 -0.195861 -0.710498 0
M  V30 2303 H 223.785 -1.13313 -1.52513 0
M  V30 2304 H 221.935 -0.325904 -3.87131 0
M  V30 2305 H 223.607 -2.91847 -3.57243 0
M  V30 2306 H 221.85 -2.79789 -3.31513 0
M  V30 2307 H 222.521 -2.49987 -4.92149 0
M  V30 2308 H 224.997 -0.761256 -4.09077 0
M  V30 2309 H 223.873 -0.564295 -5.45992 0
M  V30 2310 H 224.134 0.774144 -4.35269 0
M  V30 2311 N 223.193 1.4272 -0.668489 0
M  V30 2312 C 224.156 2.292 0.00448567 0
M  V30 2313 C 225.156 1.43001 0.735339 0
M  V30 2314 O 226.346 1.64461 0.57429 0
M  V30 2315 C 223.478 3.25375 1.01705 0
M  V30 2316 H 224.671 2.90199 -0.756608 0
M  V30 2317 H 222.224 1.50254 -0.430506 0
M  V30 2318 H 222.959 2.69301 1.80686 0
M  V30 2319 H 222.744 3.88944 0.496463 0
M  V30 2320 H 224.234 3.90245 1.48655 0
M  V30 2321 N 224.671 0.411399 1.52136 0
M  V30 2322 C 226.082 -0.0576826 1.86611 0
M  V30 2323 C 226.433 -1.44238 1.33003 0
M  V30 2324 O 225.558 -2.05759 0.670228 0
M  V30 2325 C 226.153 -0.111448 3.38617 0
M  V30 2326 C 224.712 -0.52487 3.72723 0
M  V30 2327 C 223.859 0.299176 2.75681 0
M  V30 2328 H 226.81 0.628368 1.4573 0
M  V30 2329 H 226.831 -0.926252 3.69054 0
M  V30 2330 H 226.343 0.896488 3.77604 0
M  V30 2331 H 224.444 -1.53936 3.39315 0
M  V30 2332 H 224.557 -0.267681 4.78352 0
M  V30 2333 H 222.921 -0.238814 2.53578 0
M  V30 2334 H 223.704 1.3055 3.17508 0
M  V30 2335 N 226.149 -1.5696 0.141893 0
M  V30 2336 C 227.397 -1.95573 -0.509484 0
M  V30 2337 C 227.718 -1.02746 -1.65736 0
M  V30 2338 O 226.988 -0.0880311 -1.95702 0
M  V30 2339 H 225.568 -0.722115 -0.191205 0
M  V30 2340 H 228.23 -1.93697 0.216196 0
M  V30 2341 H 227.326 -2.99171 -0.889 0
M  V30 2342 N 227.627 0.131896 -1.57047 0
M  V30 2343 C 228.874 0.841932 -1.84168 0
M  V30 2344 C 229.202 1.8048 -0.725066 0
M  V30 2345 O 228.457 1.93618 0.284692 0
M  V30 2346 C 228.756 1.63703 -3.17704 0
M  V30 2347 C 228.422 0.81961 -4.43388 0
M  V30 2348 C 227.084 0.594148 -4.77518 0
M  V30 2349 C 229.436 0.248977 -5.20605 0
M  V30 2350 C 226.764 -0.212409 -5.86315 0
M  V30 2351 C 229.116 -0.544701 -6.30251 0
M  V30 2352 C 227.78 -0.780599 -6.6292 0
M  V30 2353 H 227.05 0.308085 -0.673917 0
M  V30 2354 H 229.697 0.104867 -1.91213 0
M  V30 2355 H 228.002 2.44464 -3.06177 0
M  V30 2356 H 229.699 2.19015 -3.35907 0
M  V30 2357 H 226.289 1.00542 -4.16641 0
M  V30 2358 H 230.473 0.410408 -4.946 0
M  V30 2359 H 225.729 -0.404524 -6.1006 0
M  V30 2360 H 229.903 -0.993922 -6.89271 0
M  V30 2361 H 227.53 -1.40742 -7.47058 0
M  V30 2362 N 229.106 1.52395 0.401703 0
M  V30 2363 C 230.016 1.7917 1.51444 0
M  V30 2364 C 231.032 0.677691 1.6026 0
M  V30 2365 O 232.208 0.963909 1.76835 0
M  V30 2366 C 229.273 1.94347 2.87107 0
M  V30 2367 C 228.334 3.18257 2.88116 0
M  V30 2368 C 227.567 3.32701 4.17308 0
M  V30 2369 O 227.79 2.52238 5.11598 0
M  V30 2370 O 226.724 4.25891 4.25324 0
M  V30 2371 H 230.55 2.73633 1.31752 0
M  V30 2372 H 228.135 1.3733 0.588296 0
M  V30 2373 H 230.017 2.06109 3.67555 0
M  V30 2374 H 228.692 1.03073 3.06851 0
M  V30 2375 H 227.599 3.11947 2.06494 0
M  V30 2376 H 228.932 4.09336 2.73322 0
M  V30 2377 N 230.584 -0.659388 1.43143 0
M  V30 2378 C 231.861 -1.41627 1.34912 0
M  V30 2379 C 232.241 -2.11099 -0.00607785 0
M  V30 2380 O 231.589 -2.04353 -1.02236 0
M  V30 2381 C 231.799 -2.40604 2.52805 0
M  V30 2382 C 233.147 -3.04789 2.95616 0
M  V30 2383 O 234.171 -2.50932 2.52807 0
M  V30 2384 O 233.03 -4.02421 3.69756 0
M  V30 2385 H 230.124 -0.63246 0.532844 0
M  V30 2386 H 232.67 -0.686814 1.5518 0
M  V30 2387 H 231.442 -1.88174 3.43083 0
M  V30 2388 H 231.065 -3.21009 2.34604 0
M  V30 2389 N 232.062 -1.29571 -0.897171 0
M  V30 2390 C 233.478 -1.07637 -1.17841 0
M  V30 2391 C 233.678 0.170713 -2.00776 0
M  V30 2392 O 232.734 0.867768 -2.3712 0
M  V30 2393 C 234.047 -2.3332 -1.8969 0
M  V30 2394 C 235.595 -2.38664 -2.02505 0
M  V30 2395 C 236.07 -3.64157 -2.77765 0
M  V30 2396 N 237.561 -3.64894 -2.85318 0
M  V30 2397 C 238.296 -4.58679 -3.44094 0
M  V30 2398 N 237.792 -5.62799 -4.04017 0
M  V30 2399 N 239.585 -4.46245 -3.41793 0
M  V30 2400 H 231.736 -2.09598 -0.343883 0
M  V30 2401 H 233.999 -0.923333 -0.214848 0
M  V30 2402 H 233.705 -3.24262 -1.36187 0
M  V30 2403 H 233.579 -2.41025 -2.9015 0
M  V30 2404 H 235.966 -1.48208 -2.55183 0
M  V30 2405 H 236.047 -2.34943 -1.01171 0
M  V30 2406 H 235.691 -4.54965 -2.25763 0
M  V30 2407 H 235.621 -3.65137 -3.7945 0
M  V30 2408 H 238.112 -2.89613 -2.42761 0
M  V30 2409 H 238.425 -6.3048 -4.46895 0
M  V30 2410 H 236.77 -5.66605 -4.02472 0
M  V30 2411 H 239.961 -3.64094 -2.94199 0
M  V30 2412 H 240.134 -5.19518 -3.87304 0
M  V30 2413 N 233.54 1.10788 -1.12088 0
M  V30 2414 C 234.47 2.19083 -0.807755 0
M  V30 2415 C 235.451 1.6858 0.226859 0
M  V30 2416 O 236.636 1.93997 0.0888475 0
M  V30 2417 C 233.766 3.46344 -0.257576 0
M  V30 2418 C 232.72 4.101 -1.22483 0
M  V30 2419 C 232.046 5.32016 -0.535052 0
M  V30 2420 C 233.346 4.54236 -2.57811 0
M  V30 2421 H 235.04 2.45534 -1.71328 0
M  V30 2422 H 232.586 1.1801 -0.825205 0
M  V30 2423 H 234.539 4.21392 -0.0262679 0
M  V30 2424 H 233.263 3.19373 0.683278 0
M  V30 2425 H 231.922 3.37054 -1.44189 0
M  V30 2426 H 231.57 5.01319 0.410827 0
M  V30 2427 H 231.27 5.75625 -1.18024 0
M  V30 2428 H 232.794 6.09799 -0.312695 0
M  V30 2429 H 234.208 5.20575 -2.40155 0
M  V30 2430 H 232.605 5.08682 -3.18375 0
M  V30 2431 H 233.675 3.6734 -3.16528 0
M  V30 2432 N 235.018 0.912232 1.28515 0
M  V30 2433 C 236.248 0.559604 1.98877 0
M  V30 2434 C 236.656 -0.863113 1.68366 0
M  V30 2435 O 235.999 -1.58304 0.931969 0
M  V30 2436 C 236.061 0.68703 3.52874 0
M  V30 2437 C 235.725 2.07901 4.06972 0
M  V30 2438 C 236.722 3.05157 4.20922 0
M  V30 2439 C 234.407 2.39178 4.417 0
M  V30 2440 C 236.401 4.31806 4.68852 0
M  V30 2441 C 234.088 3.66068 4.89324 0
M  V30 2442 C 235.086 4.62195 5.02856 0
M  V30 2443 O 234.774 5.86829 5.49442 0
M  V30 2444 H 234.506 0.212191 0.641834 0
M  V30 2445 H 237.06 1.22712 1.64715 0
M  V30 2446 H 235.29 -0.0375486 3.86682 0
M  V30 2447 H 236.979 0.341727 4.04459 0
M  V30 2448 H 237.745 2.82311 3.94367 0
M  V30 2449 H 233.624 1.65109 4.30418 0
M  V30 2450 H 237.168 5.06842 4.79329 0
M  V30 2451 H 233.065 3.88739 5.15318 0
M  V30 2452 H 233.833 5.89597 5.6773 0
M  V30 2453 N 236.496 -1.42363 0.676048 0
M  V30 2454 C 237.426 -2.33497 0.0124832 0
M  V30 2455 C 238.407 -1.50748 -0.787981 0
M  V30 2456 O 239.592 -1.79346 -0.744884 0
M  V30 2457 C 236.722 -3.34377 -0.938582 0
M  V30 2458 C 235.676 -4.27289 -0.246622 0
M  V30 2459 C 235.002 -5.18386 -1.31071 0
M  V30 2460 C 236.302 -5.14916 0.875125 0
M  V30 2461 H 237.996 -2.89233 0.773593 0
M  V30 2462 H 235.542 -1.39073 0.37346 0
M  V30 2463 H 237.495 -3.97044 -1.41188 0
M  V30 2464 H 236.219 -2.76947 -1.73113 0
M  V30 2465 H 234.878 -3.66018 0.206456 0
M  V30 2466 H 234.526 -4.57282 -2.09528 0
M  V30 2467 H 234.226 -5.81378 -0.852839 0
M  V30 2468 H 235.75 -5.83929 -1.78492 0
M  V30 2469 H 237.164 -5.71262 0.482983 0
M  V30 2470 H 235.561 -5.86747 1.25887 0
M  V30 2471 H 236.631 -4.53242 1.72335 0
M  V30 2472 N 237.974 -0.419461 -1.51915 0
M  V30 2473 C 239.22 0.153166 -2.02221 0
M  V30 2474 C 239.553 1.43907 -1.30401 0
M  V30 2475 O 238.828 1.90055 -0.413438 0
M  V30 2476 C 239.111 0.390291 -3.57979 0
M  V30 2477 C 238.964 -0.913014 -4.40436 0
M  V30 2478 C 240.283 1.16794 -4.2432 0
M  V30 2479 H 237.402 0.0541924 -0.735005 0
M  V30 2480 H 240.044 -0.554955 -1.81715 0
M  V30 2481 H 238.194 0.993491 -3.75582 0
M  V30 2482 H 239.866 -1.54882 -4.34522 0
M  V30 2483 H 238.109 -1.52168 -4.06236 0
M  V30 2484 H 238.78 -0.701361 -5.47526 0
M  V30 2485 H 241.256 0.657161 -4.10878 0
M  V30 2486 H 240.132 1.3026 -5.3322 0
M  V30 2487 H 240.393 2.19132 -3.83971 0
M  V30 2488 N 239.452 1.56882 -0.150215 0
M  V30 2489 C 240.4 2.18214 0.805313 0
M  V30 2490 C 241.394 1.14006 1.25296 0
M  V30 2491 O 242.6 1.3225 1.22107 0
M  V30 2492 H 238.975 0.698762 0.277913 0
M  V30 2493 H 240.946 2.97231 0.263862 0
M  V30 2494 C 239.695 2.82065 2.03309 0
M  V30 2495 H 239.018 3.61968 1.69763 0
M  V30 2496 H 240.458 3.28477 2.68103 0
M  V30 2497 C 238.917 1.80739 2.84315 0
M  V30 2498 O 239.447 1.27983 3.80767 0
M  V30 2499 N 237.653 1.4997 2.48913 0
M  V30 2500 H 237.2 1.93062 1.70542 0
M  V30 2501 H 237.158 0.824217 3.03404 0
M  V30 2502 N 240.93 -0.123565 1.57115 0
M  V30 2503 C 242.158 -0.846461 1.88793 0
M  V30 2504 C 242.573 -1.73652 0.740976 0
M  V30 2505 O 241.93 -1.80207 -0.288393 0
M  V30 2506 C 241.981 -1.6837 3.19897 0
M  V30 2507 O 241.702 -0.829477 4.30176 0
M  V30 2508 C 243.203 -2.51214 3.65248 0
M  V30 2509 H 240.423 -0.243573 0.625231 0
M  V30 2510 H 242.967 -0.109324 2.04208 0
M  V30 2511 H 241.122 -2.37364 3.06165 0
M  V30 2512 H 241.536 -1.40651 5.0529 0
M  V30 2513 H 243.01 -3.05497 4.59756 0
M  V30 2514 H 243.487 -3.28359 2.9168 0
M  V30 2515 H 244.093 -1.8747 3.81752 0
M  V30 2516 N 242.408 -1.52605 -0.393616 0
M  V30 2517 C 243.358 -1.73436 -1.48 0
M  V30 2518 C 244.342 -0.588386 -1.49756 0
M  V30 2519 O 245.534 -0.846047 -1.5547 0
M  V30 2520 C 242.663 -1.90247 -2.85764 0
M  V30 2521 C 241.749 -3.10763 -2.88595 0
M  V30 2522 N 242.14 -4.33196 -2.61103 0
M  V30 2523 C 240.438 -3.10914 -3.19763 0
M  V30 2524 C 241.139 -5.1477 -2.70899 0
M  V30 2525 N 240.115 -4.50356 -3.04435 0
M  V30 2526 H 243.917 -2.65727 -1.25563 0
M  V30 2527 H 241.431 -1.5085 -0.601513 0
M  V30 2528 H 243.428 -2.03291 -3.63976 0
M  V30 2529 H 242.088 -0.991663 -3.09186 0
M  V30 2530 H 243.099 -4.61408 -2.35209 0
M  V30 2531 H 239.776 -2.29626 -3.4868 0
M  V30 2532 H 241.166 -6.22355 -2.53227 0
M  V30 2533 N 243.887 0.651787 -1.4349 0
M  V30 2534 C 245.115 1.43937 -1.48626 0
M  V30 2535 C 245.53 1.8851 -0.104587 0
M  V30 2536 O 244.887 1.5958 0.885464 0
M  V30 2537 C 244.938 2.6734 -2.43334 0
M  V30 2538 O 244.659 2.24631 -3.76128 0
M  V30 2539 C 246.16 3.60683 -2.57726 0
M  V30 2540 H 243.38 0.44213 -0.504739 0
M  V30 2541 H 245.924 0.798944 -1.88248 0
M  V30 2542 H 244.079 3.2752 -2.06904 0
M  V30 2543 H 244.493 3.04485 -4.2707 0
M  V30 2544 H 245.967 4.43933 -3.28067 0
M  V30 2545 H 246.444 4.08126 -1.62265 0
M  V30 2546 H 247.05 3.06384 -2.94973 0
M  V30 2547 N 245.365 1.30045 0.890287 0
M  V30 2548 C 246.612 1.18561 1.64163 0
M  V30 2549 C 246.94 -0.260852 1.92743 0
M  V30 2550 O 246.195 -1.20376 1.54299 0
M  V30 2551 C 246.494 1.95409 2.99249 0
M  V30 2552 C 246.16 3.45066 2.90242 0
M  V30 2553 C 244.822 3.85878 2.87492 0
M  V30 2554 C 247.174 4.4039 2.78758 0
M  V30 2555 C 244.502 5.20314 2.7109 0
M  V30 2556 C 246.854 5.74928 2.63894 0
M  V30 2557 C 245.518 6.14986 2.59516 0
M  V30 2558 H 244.788 0.433846 0.600715 0
M  V30 2559 H 247.435 1.61088 1.03552 0
M  V30 2560 H 245.74 1.45501 3.63781 0
M  V30 2561 H 247.437 1.8392 3.56334 0
M  V30 2562 H 244.027 3.12631 2.93189 0
M  V30 2563 H 248.211 4.09806 2.79952 0
M  V30 2564 H 243.467 5.50449 2.66112 0
M  V30 2565 H 247.641 6.48434 2.53981 0
M  V30 2566 H 245.268 7.19104 2.46565 0
M  V30 2567 N 246.843 -1.10192 1.12674 0
M  V30 2568 C 248.071 -1.85983 0.906527 0
M  V30 2569 C 248.486 -1.80783 -0.544333 0
M  V30 2570 O 247.843 -1.19834 -1.37645 0
M  V30 2571 C 247.894 -3.34281 1.37618 0
M  V30 2572 O 247.615 -3.39401 2.77017 0
M  V30 2573 C 249.116 -4.26938 1.19325 0
M  V30 2574 H 246.336 -0.587716 0.323775 0
M  V30 2575 H 248.88 -1.39284 1.49734 0
M  V30 2576 H 247.035 -3.78436 0.828539 0
M  V30 2577 H 247.449 -4.31838 2.97684 0
M  V30 2578 H 248.923 -5.29181 1.57071 0
M  V30 2579 H 249.4 -4.38995 0.134097 0
M  V30 2580 H 250.006 -3.8859 1.72852 0
M  V30 2581 N 248.321 -0.919034 -1.28029 0
M  V30 2582 C 249.284 -0.416182 -2.2539 0
M  V30 2583 C 250.284 0.460438 -1.54067 0
M  V30 2584 O 251.474 0.262744 -1.72207 0
M  V30 2585 C 248.606 0.402707 -3.38513 0
M  V30 2586 H 249.799 -1.27629 -2.71387 0
M  V30 2587 H 247.352 -0.698919 -1.39803 0
M  V30 2588 H 248.087 1.282 -2.97885 0
M  V30 2589 H 247.872 -0.225698 -3.9145 0
M  V30 2590 H 249.362 0.745191 -4.10897 0
M  V30 2591 N 249.799 1.42003 -0.683588 0
M  V30 2592 C 250.731 2.29183 0.0283068 0
M  V30 2593 C 251.744 1.4415 0.756611 0
M  V30 2594 O 252.933 1.67779 0.609306 0
M  V30 2595 C 250.033 3.21765 1.06398 0
M  V30 2596 C 249.206 4.35496 0.407723 0
M  V30 2597 C 248.265 5.08737 1.34437 0
M  V30 2598 O 247.291 5.62948 0.841318 0
M  V30 2599 N 248.493 5.15075 2.67728 0
M  V30 2600 H 251.258 2.9092 -0.720105 0
M  V30 2601 H 248.819 1.53025 -0.528682 0
M  V30 2602 H 250.811 3.6763 1.69204 0
M  V30 2603 H 249.381 2.61418 1.71404 0
M  V30 2604 H 248.601 3.92165 -0.400012 0
M  V30 2605 H 249.889 5.08776 -0.0490956 0
M  V30 2606 H 249.287 4.72457 3.11129 0
M  V30 2607 H 247.844 5.64556 3.2576 0
M  V30 2608 N 251.277 0.427512 1.51691 0
M  V30 2609 C 252.525 -0.141948 2.01601 0
M  V30 2610 C 252.846 -1.44067 1.31414 0
M  V30 2611 O 252.116 -1.90763 0.445658 0
M  V30 2612 H 250.696 -0.0554468 0.744939 0
M  V30 2613 H 253.358 0.567968 1.86441 0
M  V30 2614 H 252.454 -0.324913 3.10404 0
M  V30 2615 N 252.755 -1.56801 0.158532 0
M  V30 2616 C 253.98 -2.01295 -0.499516 0
M  V30 2617 C 254.405 -1.03799 -1.56867 0
M  V30 2618 O 253.763 -0.0155162 -1.81293 0
M  V30 2619 C 253.811 -3.44469 -1.06647 0
M  V30 2620 O 252.915 -3.50012 -2.18095 0
M  V30 2621 H 252.256 -0.652884 -0.12099 0
M  V30 2622 H 254.786 -2.02958 0.258661 0
M  V30 2623 H 254.796 -3.8351 -1.39227 0
M  V30 2624 H 253.471 -4.14932 -0.283581 0
M  V30 2625 H 252.048 -3.22822 -1.86656 0
M  V30 2626 N 254.233 0.115231 -1.57178 0
M  V30 2627 C 255.51 0.852873 -1.76027 0
M  V30 2628 C 255.89 1.97892 -0.73498 0
M  V30 2629 O 255.238 2.27232 0.24036 0
M  V30 2630 C 255.448 1.36608 -3.21153 0
M  V30 2631 C 256.796 1.81692 -3.83762 0
M  V30 2632 O 257.82 1.46278 -3.24779 0
M  V30 2633 O 256.679 2.47104 -4.87444 0
M  V30 2634 H 253.773 0.405296 -0.720877 0
M  V30 2635 H 256.319 0.0986785 -1.69413 0
M  V30 2636 H 255.091 0.558357 -3.87296 0
M  V30 2637 H 254.714 2.18287 -3.3232 0
M  V30 2638 N 255.711 1.52812 0.385517 0
M  V30 2639 C 256.641 1.80808 1.47752 0
M  V30 2640 C 257.622 0.660318 1.5676 0
M  V30 2641 O 258.807 0.908246 1.71652 0
M  V30 2642 C 255.937 1.98008 2.85324 0
M  V30 2643 C 254.891 3.13709 2.91154 0
M  V30 2644 C 254.217 3.16169 4.31209 0
M  V30 2645 C 255.517 4.52709 2.60483 0
M  V30 2646 H 257.211 2.72253 1.24573 0
M  V30 2647 H 254.757 1.31003 0.597839 0
M  V30 2648 H 256.71 2.16176 3.61726 0
M  V30 2649 H 255.434 1.03255 3.09848 0
M  V30 2650 H 254.093 2.95329 2.17201 0
M  V30 2651 H 253.741 2.19092 4.52778 0
M  V30 2652 H 253.441 3.93894 4.36029 0
M  V30 2653 H 254.965 3.36496 5.09512 0
M  V30 2654 H 256.379 4.71173 3.26602 0
M  V30 2655 H 254.776 5.32528 2.76648 0
M  V30 2656 H 255.846 4.59186 1.55809 0
M  V30 2657 N 257.189 -0.644168 1.43834 0
M  V30 2658 C 258.139 -1.7501 1.46135 0
M  V30 2659 C 259.123 -1.57507 0.328685 0
M  V30 2660 O 260.315 -1.67465 0.5731 0
M  V30 2661 C 257.444 -3.13641 1.39585 0
M  V30 2662 C 256.53 -3.3666 2.57916 0
M  V30 2663 N 256.921 -3.30107 3.83227 0
M  V30 2664 C 255.219 -3.67411 2.52834 0
M  V30 2665 C 255.92 -3.53456 4.61999 0
M  V30 2666 N 254.896 -3.75705 3.9287 0
M  V30 2667 H 258.698 -1.68382 2.40883 0
M  V30 2668 H 256.212 -0.846169 1.38614 0
M  V30 2669 H 258.209 -3.92933 1.39317 0
M  V30 2670 H 256.869 -3.21444 0.45865 0
M  V30 2671 H 257.88 -3.09316 4.15384 0
M  V30 2672 H 254.557 -3.82275 1.67845 0
M  V30 2673 H 255.947 -3.54093 5.71024 0
M  V30 2674 N 258.668 -1.30515 -0.883378 0
M  V30 2675 C 259.914 -1.20617 -1.63778 0
M  V30 2676 C 260.269 0.236469 -1.90941 0
M  V30 2677 O 259.562 1.16596 -1.52039 0
M  V30 2678 C 259.756 -1.96994 -2.98209 0
M  V30 2679 C 259.585 -3.48537 -2.84169 0
M  V30 2680 C 258.355 -4.17893 -2.84067 0
M  V30 2681 C 260.553 -4.43738 -2.60001 0
M  V30 2682 N 258.535 -5.55685 -2.60936 0
M  V30 2683 C 259.906 -5.69105 -2.46007 0
M  V30 2684 C 261.961 -4.33316 -2.45239 0
M  V30 2685 C 260.664 -6.8523 -2.18752 0
M  V30 2686 C 262.69 -5.4921 -2.19369 0
M  V30 2687 C 262.052 -6.73558 -2.06153 0
M  V30 2688 H 258.151 -0.496434 -0.604216 0
M  V30 2689 H 260.735 -1.64544 -1.04083 0
M  V30 2690 H 258.906 -1.55455 -3.55933 0
M  V30 2691 H 260.638 -1.79225 -3.62851 0
M  V30 2692 H 257.393 -3.69739 -2.95956 0
M  V30 2693 H 257.817 -6.28199 -2.52378 0
M  V30 2694 H 262.459 -3.37856 -2.54191 0
M  V30 2695 H 260.177 -7.80729 -2.08537 0
M  V30 2696 H 263.763 -5.43054 -2.08766 0
M  V30 2697 H 262.643 -7.61721 -1.86416 0
M  V30 2698 N 260.146 1.09593 -1.13257 0
M  V30 2699 C 261.096 2.14345 -0.777179 0
M  V30 2700 C 262.08 1.59277 0.227966 0
M  V30 2701 O 263.272 1.76971 0.0321413 0
M  V30 2702 C 260.401 3.42439 -0.242991 0
M  V30 2703 C 259.487 4.04419 -1.27694 0
M  V30 2704 N 259.878 4.40979 -2.47732 0
M  V30 2705 C 258.176 4.31596 -1.12432 0
M  V30 2706 C 258.877 4.89784 -3.13826 0
M  V30 2707 N 257.853 4.87133 -2.41252 0
M  V30 2708 H 261.655 2.40415 -1.69049 0
M  V30 2709 H 259.169 1.26803 -1.01463 0
M  V30 2710 H 261.166 4.16889 0.0298496 0
M  V30 2711 H 259.826 3.17824 0.66467 0
M  V30 2712 H 260.837 4.32396 -2.85051 0
M  V30 2713 H 257.514 4.16595 -0.274684 0
M  V30 2714 H 258.904 5.2755 -4.16102 0
M  V30 2715 N 261.624 0.925811 1.2754 0
M  V30 2716 C 262.872 0.564138 1.94067 0
M  V30 2717 C 263.193 -0.897188 1.73134 0
M  V30 2718 O 262.463 -1.63573 1.07799 0
M  V30 2719 H 261.043 0.205645 0.718136 0
M  V30 2720 H 263.705 1.1778 1.55287 0
M  V30 2721 H 262.801 0.76881 3.02483 0
M  V30 2722 N 263.102 -1.41638 0.69111 0
M  V30 2723 C 264.012 -2.34588 0.0233487 0
M  V30 2724 C 265.028 -1.55987 -0.770984 0
M  V30 2725 O 266.204 -1.88486 -0.709569 0
M  V30 2726 C 263.269 -3.34684 -0.904851 0
M  V30 2727 C 262.33 -4.29176 -0.103225 0
M  V30 2728 C 261.563 -5.2449 -0.987216 0
M  V30 2729 O 261.786 -5.2514 -2.22674 0
M  V30 2730 O 260.72 -6.00295 -0.439281 0
M  V30 2731 H 264.546 -2.93261 0.789416 0
M  V30 2732 H 262.131 -1.42417 0.45142 0
M  V30 2733 H 264.013 -3.96133 -1.43724 0
M  V30 2734 H 262.688 -2.78461 -1.65049 0
M  V30 2735 H 261.595 -3.71089 0.473655 0
M  V30 2736 H 262.928 -4.88484 0.60365 0
M  V30 2737 N 264.58 -0.43555 -1.51462 0
M  V30 2738 C 265.527 0.376797 -2.27703 0
M  V30 2739 C 266.497 1.01838 -1.31219 0
M  V30 2740 O 267.682 1.03762 -1.60119 0
M  V30 2741 C 264.822 1.47301 -3.12084 0
M  V30 2742 C 263.935 0.849744 -4.2356 0
M  V30 2743 C 263.07 1.92086 -4.95254 0
M  V30 2744 C 262.109 1.27593 -5.98654 0
M  V30 2745 N 261.246 2.28833 -6.63762 0
M  V30 2746 H 266.086 -0.279734 -2.96684 0
M  V30 2747 H 263.623 -0.149795 -1.46335 0
M  V30 2748 H 265.581 2.11984 -3.59331 0
M  V30 2749 H 264.211 2.0992 -2.45221 0
M  V30 2750 H 263.263 0.0912529 -3.80291 0
M  V30 2751 H 264.575 0.338878 -4.97648 0
M  V30 2752 H 263.729 2.64435 -5.46039 0
M  V30 2753 H 262.468 2.46545 -4.20793 0
M  V30 2754 H 261.473 0.537893 -5.47162 0
M  V30 2755 H 262.698 0.738693 -6.7507 0
M  V30 2756 H 260.644 2.82375 -5.92115 0
M  V30 2757 H 260.561 1.82632 -7.33608 0
M  V30 2758 H 261.829 3.00671 -7.19178 0
M  V30 2759 N 266.058 1.56714 -0.166846 0
M  V30 2760 C 267.335 1.88412 0.525373 0
M  V30 2761 C 267.715 1.07602 1.81618 0
M  V30 2762 O 267.063 0.168621 2.27877 0
M  V30 2763 C 267.273 3.40363 0.771613 0
M  V30 2764 C 268.621 4.10007 1.1036 0
M  V30 2765 O 269.645 3.45655 0.860304 0
M  V30 2766 O 268.504 5.2369 1.56239 0
M  V30 2767 H 265.598 0.781587 0.270278 0
M  V30 2768 H 268.144 1.68458 -0.204946 0
M  V30 2769 H 266.916 3.91046 -0.141093 0
M  V30 2770 H 266.539 3.65914 1.55541 0
M  V30 2771 N 267.536 -0.106894 1.57237 0
M  V30 2772 C 268.483 -1.13049 2.01217 0
M  V30 2773 C 269.453 -1.40471 0.886403 0
M  V30 2774 O 270.638 -1.52133 1.15153 0
M  V30 2775 C 267.778 -2.4487 2.43172 0
M  V30 2776 C 266.891 -2.24281 3.69218 0
M  V30 2777 C 266.026 -3.49417 4.00101 0
M  V30 2778 C 265.065 -3.24038 5.19294 0
M  V30 2779 N 264.202 -4.41409 5.45988 0
M  V30 2780 H 269.042 -0.748456 2.88448 0
M  V30 2781 H 266.579 -0.358054 1.42676 0
M  V30 2782 H 268.537 -3.21786 2.65537 0
M  V30 2783 H 267.167 -2.80944 1.58967 0
M  V30 2784 H 266.219 -1.38224 3.54398 0
M  V30 2785 H 267.531 -2.01512 4.56283 0
M  V30 2786 H 266.685 -4.34746 4.2318 0
M  V30 2787 H 265.424 -3.75229 3.11535 0
M  V30 2788 H 264.429 -2.37102 4.96047 0
M  V30 2789 H 265.654 -2.99584 6.09447 0
M  V30 2790 H 263.6 -4.67319 4.60379 0
M  V30 2791 H 263.517 -4.21788 6.274 0
M  V30 2792 H 264.785 -5.27836 5.73593 0
M  V30 2793 N 269.014 -1.53014 -0.377408 0
M  V30 2794 C 269.962 -1.7927 -1.48206 0
M  V30 2795 C 270.956 -0.661195 -1.55963 0
M  V30 2796 O 272.162 -0.843908 -1.58991 0
M  V30 2797 H 268.537 -0.567425 -0.493491 0
M  V30 2798 H 270.508 -2.71753 -1.2326 0
M  V30 2799 C 269.257 -1.98894 -2.85196 0
M  V30 2800 H 268.58 -2.85395 -2.79981 0
M  V30 2801 H 270.02 -2.21249 -3.61698 0
M  V30 2802 C 268.479 -0.764691 -3.28107 0
M  V30 2803 O 269.009 0.0523226 -4.01666 0
M  V30 2804 N 267.215 -0.591493 -2.84517 0
M  V30 2805 H 266.762 -1.25749 -2.24822 0
M  V30 2806 H 266.72 0.226253 -3.13585 0
M  V30 2807 N 270.492 0.636531 -1.44174 0
M  V30 2808 C 271.455 1.73063 -1.50273 0
M  V30 2809 C 272.455 1.56113 -0.385397 0
M  V30 2810 O 273.645 1.61707 -0.64781 0
M  V30 2811 C 270.777 3.12096 -1.37145 0
M  V30 2812 H 271.97 1.69031 -2.47727 0
M  V30 2813 H 269.523 0.849706 -1.31186 0
M  V30 2814 H 270.258 3.21728 -0.407636 0
M  V30 2815 H 270.043 3.25805 -2.18159 0
M  V30 2816 H 271.533 3.91846 -1.44382 0
M  V30 2817 N 271.97 1.30982 0.876444 0
M  V30 2818 C 273.218 1.20058 1.62575 0
M  V30 2819 C 273.539 -0.242947 1.93481 0
M  V30 2820 O 272.809 -1.1619 1.57724 0
M  V30 2821 H 271.389 0.44135 0.602677 0
M  V30 2822 H 274.051 1.64222 1.04962 0
M  V30 2823 H 273.147 1.76762 2.57219 0
M  V30 2824 N 273.449 -1.08991 1.13837 0
M  V30 2825 C 274.698 -1.80631 0.897509 0
M  V30 2826 C 275.011 -1.86872 -0.57777 0
M  V30 2827 O 276.217 -2.54866 -0.935701 0
M  V30 2828 C 274.673 -3.24517 1.55618 0
M  V30 2829 C 274.281 -3.26529 3.0673 0
M  V30 2830 C 276.025 -4.00882 1.3962 0
M  V30 2831 C 273.932 -4.64965 3.65461 0
M  V30 2832 H 272.862 -0.67691 0.332129 0
M  V30 2833 H 275.513 -1.2246 1.3666 0
M  V30 2834 H 273.895 -3.82778 1.01476 0
M  V30 2835 H 275.069 -2.78008 3.67489 0
M  V30 2836 H 273.384 -2.63656 3.22296 0
M  V30 2837 H 275.981 -5.03167 1.80906 0
M  V30 2838 H 276.324 -4.14896 0.341578 0
M  V30 2839 H 276.857 -3.49075 1.90766 0
M  V30 2840 H 273.596 -4.56153 4.70749 0
M  V30 2841 H 273.116 -5.13792 3.09481 0
M  V30 2842 H 274.795 -5.3394 3.654 0
M  V30 2843 N 274.927 -0.932562 -1.27047 0
M  V30 2844 C 275.857 -0.452902 -2.29066 0
M  V30 2845 C 276.838 0.489338 -1.62909 0
M  V30 2846 O 278.023 0.393046 -1.90181 0
M  V30 2847 C 275.153 0.290698 -3.46081 0
M  V30 2848 C 274.107 -0.564168 -4.24265 0
M  V30 2849 C 273.433 0.308886 -5.33807 0
M  V30 2850 C 274.733 -1.83112 -4.89149 0
M  V30 2851 H 276.427 -1.30552 -2.69437 0
M  V30 2852 H 273.973 -0.629201 -1.29526 0
M  V30 2853 H 275.926 0.637233 -4.16554 0
M  V30 2854 H 274.65 1.17738 -3.0464 0
M  V30 2855 H 273.309 -0.893477 -3.55545 0
M  V30 2856 H 272.957 1.19467 -4.88607 0
M  V30 2857 H 272.657 -0.259633 -5.87026 0
M  V30 2858 H 274.181 0.650884 -6.07121 0
M  V30 2859 H 275.595 -1.55236 -5.51883 0
M  V30 2860 H 273.992 -2.34353 -5.52448 0
M  V30 2861 H 275.062 -2.54772 -4.12576 0
M  V30 2862 N 276.405 1.4127 -0.698611 0
M  V30 2863 C 277.682 1.94955 -0.158762 0
M  V30 2864 C 278.062 1.63781 1.33188 0
M  V30 2865 O 277.41 0.946423 2.07979 0
M  V30 2866 C 277.62 3.46044 -0.453309 0
M  V30 2867 C 278.968 4.22872 -0.382707 0
M  V30 2868 O 279.992 3.54076 -0.388396 0
M  V30 2869 O 278.851 5.45407 -0.345463 0
M  V30 2870 H 275.945 0.82683 -0.0167505 0
M  V30 2871 H 278.491 1.50971 -0.77498 0
M  V30 2872 H 277.263 3.62028 -1.48498 0
M  V30 2873 H 276.886 3.97128 0.19373 0
M  V30 2874 N 277.883 0.443576 1.51229 0
M  V30 2875 C 278.846 -0.353132 2.26463 0
M  V30 2876 C 279.846 -0.944338 1.3015 0
M  V30 2877 O 281.036 -0.817813 1.5381 0
M  V30 2878 C 278.168 -1.50023 3.06114 0
M  V30 2879 H 279.361 0.3063 2.98332 0
M  V30 2880 H 276.914 0.196902 1.55055 0
M  V30 2881 H 277.649 -2.19553 2.38677 0
M  V30 2882 H 277.434 -1.08241 3.76864 0
M  V30 2883 H 278.924 -2.06296 3.63087 0
M  V30 2884 N 279.361 -1.56624 0.175154 0
M  V30 2885 C 280.609 -1.96609 -0.467885 0
M  V30 2886 C 280.93 -1.06238 -1.63519 0
M  V30 2887 O 280.2 -0.129523 -1.95471 0
M  V30 2888 H 278.78 -0.726008 -0.175845 0
M  V30 2889 H 281.442 -1.93195 0.257234 0
M  V30 2890 H 280.538 -3.00989 -0.825342 0
M  V30 2891 N 280.839 0.0985539 -1.57292 0
M  V30 2892 C 282.25 0.653457 -1.74891 0
M  V30 2893 C 282.601 1.7929 -0.796838 0
M  V30 2894 O 281.726 2.16385 0.0254886 0
M  V30 2895 C 282.321 1.19216 -3.17133 0
M  V30 2896 C 280.88 1.69316 -3.36168 0
M  V30 2897 C 280.027 0.601294 -2.70702 0
M  V30 2898 H 282.978 -0.127497 -1.58187 0
M  V30 2899 H 282.999 2.06154 -3.19814 0
M  V30 2900 H 282.511 0.362635 -3.86402 0
M  V30 2901 H 280.612 2.5468 -2.71972 0
M  V30 2902 H 280.725 1.78853 -4.44464 0
M  V30 2903 H 279.089 1.0399 -2.32504 0
M  V30 2904 H 279.872 -0.217592 -3.4261 0
M  V30 2905 N 282.317 1.53212 0.369288 0
M  V30 2906 C 283.28 1.7872 1.43498 0
M  V30 2907 C 284.28 0.657554 1.46741 0
M  V30 2908 O 285.47 0.925736 1.47566 0
M  V30 2909 C 282.602 1.90591 2.82645 0
M  V30 2910 H 283.795 2.73894 1.22156 0
M  V30 2911 H 281.348 1.44233 0.602203 0
M  V30 2912 H 282.083 0.974709 3.09306 0
M  V30 2913 H 281.868 2.72751 2.8169 0
M  V30 2914 H 283.358 2.11931 3.59826 0
M  V30 2915 N 283.795 -0.628877 1.44509 0
M  V30 2916 C 285.023 -1.41554 1.50897 0
M  V30 2917 C 285.438 -1.8832 0.134564 0
M  V30 2918 O 284.795 -1.60969 -0.859965 0
M  V30 2919 C 284.846 -2.63435 2.47556 0
M  V30 2920 O 284.567 -2.18619 3.79654 0
M  V30 2921 C 286.068 -3.56537 2.63431 0
M  V30 2922 H 283.288 -0.434044 0.511709 0
M  V30 2923 H 285.832 -0.768895 1.89495 0
M  V30 2924 H 283.987 -3.24187 2.12089 0
M  V30 2925 H 284.401 -2.97652 4.31861 0
M  V30 2926 H 285.875 -4.38657 3.35088 0
M  V30 2927 H 286.352 -4.05493 1.68738 0
M  V30 2928 H 286.958 -3.01653 2.9981 0
M  V30 2929 N 285.273 -1.31445 -0.869486 0
M  V30 2930 C 286.521 -1.20918 -1.61936 0
M  V30 2931 C 286.842 0.232683 -1.93607 0
M  V30 2932 O 286.112 1.15352 -1.58338 0
M  V30 2933 H 284.692 -0.44454 -0.600328 0
M  V30 2934 H 287.354 -1.64776 -1.0409 0
M  V30 2935 H 286.45 -1.78124 -2.56278 0
M  V30 2936 N 286.751 1.08385 -1.14413 0
M  V30 2937 C 287.714 2.13486 -0.834048 0
M  V30 2938 C 288.714 1.59988 0.161418 0
M  V30 2939 O 289.904 1.74071 -0.0669575 0
M  V30 2940 C 287.036 3.4003 -0.243354 0
M  V30 2941 H 288.229 2.42425 -1.7655 0
M  V30 2942 H 285.782 1.24101 -0.950189 0
M  V30 2943 H 286.517 3.16726 0.696807 0
M  V30 2944 H 286.302 3.80157 -0.960367 0
M  V30 2945 H 287.792 4.17577 -0.0436242 0
M  V30 2946 N 288.23 0.939286 1.26551 0
M  V30 2947 C 289.16 0.465044 2.28822 0
M  V30 2948 C 290.141 -0.480692 1.63167 0
M  V30 2949 O 291.326 -0.382955 1.90387 0
M  V30 2950 C 288.456 -0.27234 3.46231 0
M  V30 2951 C 287.41 0.58666 4.2396 0
M  V30 2952 C 286.736 -0.280573 5.33963 0
M  V30 2953 C 288.036 1.85704 4.88171 0
M  V30 2954 H 289.73 1.31979 2.68741 0
M  V30 2955 H 287.276 0.636061 1.29191 0
M  V30 2956 H 289.229 -0.615133 4.16886 0
M  V30 2957 H 287.953 -1.16121 3.0526 0
M  V30 2958 H 286.612 0.91232 3.55067 0
M  V30 2959 H 286.26 -1.16874 4.89234 0
M  V30 2960 H 285.96 0.29076 5.8688 0
M  V30 2961 H 287.484 -0.618678 6.07458 0
M  V30 2962 H 288.898 1.58161 5.51052 0
M  V30 2963 H 287.295 2.37279 5.51197 0
M  V30 2964 H 288.365 2.56957 4.11219 0
M  V30 2965 N 289.708 -1.40897 0.706093 0
M  V30 2966 C 291.119 -1.84023 0.315052 0
M  V30 2967 C 291.47 -1.5906 -1.14866 0
M  V30 2968 O 290.595 -1.06651 -1.88293 0
M  V30 2969 C 291.19 -3.34055 0.565038 0
M  V30 2970 C 289.749 -3.7571 0.227806 0
M  V30 2971 C 288.896 -2.64204 0.842122 0
M  V30 2972 H 291.847 -1.303 0.905963 0
M  V30 2973 H 291.868 -3.80107 -0.172843 0
M  V30 2974 H 291.38 -3.52192 1.63042 0
M  V30 2975 H 289.481 -3.63172 -0.832895 0
M  V30 2976 H 289.594 -4.74103 0.690174 0
M  V30 2977 H 287.958 -2.53255 0.270893 0
M  V30 2978 H 288.741 -2.85155 1.91158 0
M  V30 2979 N 291.186 -0.45159 -1.50991 0
M  V30 2980 C 292.433 0.110074 -2.02201 0
M  V30 2981 C 292.761 1.4146 -1.33489 0
M  V30 2982 O 292.016 1.90617 -0.443125 0
M  V30 2983 C 292.315 0.361728 -3.55565 0
M  V30 2984 C 291.981 -0.858717 -4.42648 0
M  V30 2985 C 290.643 -1.19338 -4.66167 0
M  V30 2986 C 292.995 -1.67221 -4.93646 0
M  V30 2987 C 290.323 -2.34195 -5.37931 0
M  V30 2988 C 292.675 -2.8119 -5.6667 0
M  V30 2989 C 291.339 -3.15094 -5.88449 0
M  V30 2990 H 290.609 0.040279 -0.739904 0
M  V30 2991 H 293.256 -0.601696 -1.81802 0
M  V30 2992 H 291.561 1.15554 -3.74372 0
M  V30 2993 H 293.258 0.80996 -3.92735 0
M  V30 2994 H 289.848 -0.58796 -4.24548 0
M  V30 2995 H 294.032 -1.42686 -4.75347 0
M  V30 2996 H 289.288 -2.6076 -5.53005 0
M  V30 2997 H 293.462 -3.44585 -6.05173 0
M  V30 2998 H 291.089 -4.04204 -6.43835 0
M  V30 2999 N 292.664 1.56529 -0.183458 0
M  V30 3000 C 293.941 1.88959 0.50536 0
M  V30 3001 C 294.321 1.09523 1.80466 0
M  V30 3002 O 293.669 0.19278 2.27685 0
M  V30 3003 C 293.879 3.41162 0.73547 0
M  V30 3004 C 295.227 4.11155 1.06005 0
M  V30 3005 O 296.251 3.46548 0.823594 0
M  V30 3006 O 295.11 5.25318 1.50675 0
M  V30 3007 H 292.204 0.78441 0.261973 0
M  V30 3008 H 294.75 1.68231 -0.222802 0
M  V30 3009 H 293.522 3.90874 -0.182561 0
M  V30 3010 H 293.145 3.67543 1.51651 0
M  V30 3011 N 294.142 -0.090211 1.57342 0
M  V30 3012 C 295.391 -0.791531 1.8552 0
M  V30 3013 C 295.704 -1.79659 0.773441 0
M  V30 3014 O 296.91 -2.54616 0.942497 0
M  V30 3015 C 295.366 -1.45856 3.2902 0
M  V30 3016 C 294.974 -0.493017 4.45279 0
M  V30 3017 C 296.718 -2.14332 3.66418 0
M  V30 3018 C 294.625 -1.16491 5.79814 0
M  V30 3019 H 293.555 -0.299356 0.692027 0
M  V30 3020 H 296.206 -0.0445343 1.83446 0
M  V30 3021 H 294.588 -2.25318 3.2565 0
M  V30 3022 H 295.762 0.270464 4.60006 0
M  V30 3023 H 294.077 0.0863061 4.16311 0
M  V30 3024 H 296.674 -2.65344 4.64216 0
M  V30 3025 H 297.017 -2.93447 2.95287 0
M  V30 3026 H 297.55 -1.41724 3.71698 0
M  V30 3027 H 294.289 -0.41447 6.54188 0
M  V30 3028 H 293.809 -1.8997 5.68921 0
M  V30 3029 H 295.488 -1.69001 6.24538 0
M  V30 3030 N 295.62 -1.53406 -0.361157 0
M  V30 3031 C 296.583 -1.79479 -1.42548 0
M  V30 3032 C 297.583 -0.665327 -1.4639 0
M  V30 3033 O 298.773 -0.933549 -1.47073 0
M  V30 3034 C 295.905 -1.92087 -2.8163 0
M  V30 3035 H 297.098 -2.74538 -1.20701 0
M  V30 3036 H 294.651 -1.4455 -0.594546 0
M  V30 3037 H 295.386 -0.991099 -3.08784 0
M  V30 3038 H 295.171 -2.74241 -2.80239 0
M  V30 3039 H 296.661 -2.13836 -3.58697 0
M  V30 3040 N 297.098 0.621204 -1.44841 0
M  V30 3041 C 298.509 1.20298 -1.42777 0
M  V30 3042 C 298.86 1.95639 -0.148259 0
M  V30 3043 O 297.985 2.02955 0.750892 0
M  V30 3044 C 298.58 2.1882 -2.58657 0
M  V30 3045 C 297.139 2.72403 -2.59756 0
M  V30 3046 C 296.286 1.4757 -2.34773 0
M  V30 3047 H 299.237 0.411297 -1.53278 0
M  V30 3048 H 299.258 3.01607 -2.31977 0
M  V30 3049 H 298.77 1.63957 -3.51766 0
M  V30 3050 H 296.871 3.31242 -1.70615 0
M  V30 3051 H 296.984 3.17765 -3.58556 0
M  V30 3052 H 295.348 1.76051 -1.8406 0
M  V30 3053 H 296.131 0.945954 -3.3001 0
M  V30 3054 N 298.576 1.31904 0.862503 0
M  V30 3055 C 299.823 1.22017 1.61611 0
M  V30 3056 C 300.151 -0.21991 1.93253 0
M  V30 3057 O 299.406 -1.17076 1.56817 0
M  V30 3058 C 299.705 2.01713 2.95037 0
M  V30 3059 C 299.371 3.51145 2.82857 0
M  V30 3060 C 298.033 3.91889 2.79243 0
M  V30 3061 C 300.385 4.46204 2.69353 0
M  V30 3062 C 297.713 5.25947 2.59993 0
M  V30 3063 C 300.065 5.80397 2.5164 0
M  V30 3064 C 298.729 6.20352 2.46413 0
M  V30 3065 H 297.999 0.44649 0.591378 0
M  V30 3066 H 300.646 1.63248 1.00111 0
M  V30 3067 H 298.951 1.53185 3.60613 0
M  V30 3068 H 300.648 1.91437 3.52353 0
M  V30 3069 H 297.238 3.1878 2.86491 0
M  V30 3070 H 301.422 4.15652 2.71196 0
M  V30 3071 H 296.678 5.5597 2.54376 0
M  V30 3072 H 300.852 6.53676 2.40169 0
M  V30 3073 H 298.479 7.24172 2.31256 0
M  V30 3074 N 300.054 -1.07777 1.14986 0
M  V30 3075 C 301.282 -1.84018 0.945773 0
M  V30 3076 C 301.697 -1.81897 -0.505863 0
M  V30 3077 O 301.054 -1.22726 -1.35072 0
M  V30 3078 C 301.105 -3.31287 1.44677 0
M  V30 3079 O 300.826 -3.33449 2.84154 0
M  V30 3080 C 302.327 -4.24311 1.28355 0
M  V30 3081 H 299.547 -0.580716 0.336169 0
M  V30 3082 H 302.091 -1.36077 1.52654 0
M  V30 3083 H 300.246 -3.76594 0.908625 0
M  V30 3084 H 300.66 -4.25427 3.06777 0
M  V30 3085 H 302.134 -5.2573 1.68261 0
M  V30 3086 H 302.611 -4.38612 0.227184 0
M  V30 3087 H 303.217 -3.84836 1.81056 0
M  V30 3088 N 301.532 -0.945985 -1.26051 0
M  V30 3089 C 302.779 -0.596118 -1.93527 0
M  V30 3090 C 303.107 0.865559 -1.74179 0
M  V30 3091 O 302.362 1.63524 -1.0751 0
M  V30 3092 C 302.661 -0.890475 -3.46129 0
M  V30 3093 C 302.327 -2.3368 -3.85622 0
M  V30 3094 C 300.989 -2.73216 -3.96114 0
M  V30 3095 C 303.341 -3.27648 -4.05334 0
M  V30 3096 C 300.669 -4.05806 -4.2372 0
M  V30 3097 C 303.021 -4.59841 -4.3443 0
M  V30 3098 C 301.685 -4.99185 -4.43137 0
M  V30 3099 H 300.955 -0.218135 -0.708165 0
M  V30 3100 H 303.602 -1.1934 -1.49768 0
M  V30 3101 H 301.907 -0.210711 -3.91233 0
M  V30 3102 H 303.604 -0.598478 -3.96509 0
M  V30 3103 H 300.194 -2.02015 -3.78005 0
M  V30 3104 H 304.378 -2.98298 -3.96651 0
M  V30 3105 H 299.634 -4.35945 -4.28675 0
M  V30 3106 H 303.808 -5.32641 -4.48628 0
M  V30 3107 H 301.435 -6.01952 -4.64282 0
M  V30 3108 N 303.011 1.40521 -0.713556 0
M  V30 3109 C 304.26 2.00155 -0.249192 0
M  V30 3110 C 304.573 1.57224 1.16362 0
M  V30 3111 O 305.779 2.09542 1.72639 0
M  V30 3112 C 304.235 3.5773 -0.3946 0
M  V30 3113 C 303.843 4.09635 -1.81392 0
M  V30 3114 C 305.587 4.24499 0.00907364 0
M  V30 3115 C 303.494 5.59707 -1.91003 0
M  V30 3116 H 302.424 0.74868 -0.0894114 0
M  V30 3117 H 305.075 1.60784 -0.884352 0
M  V30 3118 H 303.457 3.94792 0.30911 0
M  V30 3119 H 304.631 3.83955 -2.54785 0
M  V30 3120 H 302.946 3.55456 -2.16888 0
M  V30 3121 H 305.543 5.34683 -0.0420404 0
M  V30 3122 H 305.886 4.02824 1.05065 0
M  V30 3123 H 306.419 3.92536 -0.645007 0
M  V30 3124 H 303.158 5.86234 -2.93275 0
M  V30 3125 H 302.678 5.87258 -1.22019 0
M  V30 3126 H 304.357 6.24776 -1.6812 0
M  V30 3127 N 304.489 0.459591 1.5075 0
M  V30 3128 C 305.735 -0.0994966 2.02556 0
M  V30 3129 C 306.068 -1.40399 1.3417 0
M  V30 3130 O 305.343 -1.88892 0.463683 0
M  V30 3131 C 305.626 -0.295242 3.58888 0
M  V30 3132 C 305.479 1.02947 4.37861 0
M  V30 3133 C 306.798 -1.05502 4.27267 0
M  V30 3134 H 303.917 -0.034686 0.736183 0
M  V30 3135 H 306.559 0.602938 1.8018 0
M  V30 3136 H 304.709 -0.893563 3.78084 0
M  V30 3137 H 306.381 1.66348 4.30263 0
M  V30 3138 H 304.624 1.62885 4.02058 0
M  V30 3139 H 305.295 0.846281 5.45474 0
M  V30 3140 H 307.771 -0.547993 4.12476 0
M  V30 3141 H 306.647 -1.16077 5.36486 0
M  V30 3142 H 306.908 -2.08875 3.89645 0
M  V30 3143 N 305.967 -1.56429 0.191757 0
M  V30 3144 C 307.244 -1.89224 -0.495332 0
M  V30 3145 C 307.624 -1.10478 -1.79883 0
M  V30 3146 O 306.972 -0.204852 -2.2758 0
M  V30 3147 C 307.182 -3.41548 -0.717367 0
M  V30 3148 C 308.53 -4.11711 -1.03823 0
M  V30 3149 O 309.554 -3.4698 -0.805204 0
M  V30 3150 O 308.413 -5.2611 -1.47887 0
M  V30 3151 H 305.507 -0.785788 -0.25781 0
M  V30 3152 H 308.053 -1.68111 0.231721 0
M  V30 3153 H 306.825 -3.90772 0.203287 0
M  V30 3154 H 306.448 -3.68342 -1.497 0
M  V30 3155 N 307.445 0.0818655 -1.57387 0
M  V30 3156 C 308.673 0.796108 -1.9097 0
M  V30 3157 C 309.088 1.71626 -0.786757 0
M  V30 3158 O 308.445 1.80908 0.240513 0
M  V30 3159 C 308.496 1.59829 -3.24248 0
M  V30 3160 O 308.217 0.715131 -4.32224 0
M  V30 3161 C 309.718 2.41442 -3.7178 0
M  V30 3162 H 306.938 0.22691 -0.631469 0
M  V30 3163 H 309.482 0.0551439 -2.04426 0
M  V30 3164 H 307.637 2.29163 -3.12351 0
M  V30 3165 H 308.051 1.27205 -5.08841 0
M  V30 3166 H 309.525 2.932 -4.67694 0
M  V30 3167 H 310.002 3.2051 -3.00283 0
M  V30 3168 H 310.608 1.77283 -3.86589 0
M  V30 3169 N 308.923 1.53595 0.353017 0
M  V30 3170 C 309.833 1.83897 1.45667 0
M  V30 3171 C 310.849 0.728334 1.58023 0
M  V30 3172 O 312.025 1.01968 1.73679 0
M  V30 3173 C 309.09 2.03383 2.80778 0
M  V30 3174 C 308.151 3.27262 2.77845 0
M  V30 3175 C 307.384 3.45809 4.06512 0
M  V30 3176 O 307.607 2.68387 5.03314 0
M  V30 3177 O 306.541 4.39207 4.11559 0
M  V30 3178 H 310.367 2.77686 1.2298 0
M  V30 3179 H 307.952 1.39132 0.544308 0
M  V30 3180 H 309.834 2.17698 3.60812 0
M  V30 3181 H 308.509 1.12783 3.03417 0
M  V30 3182 H 307.416 3.18359 1.96465 0
M  V30 3183 H 308.749 4.17824 2.60161 0
M  V30 3184 N 310.401 -0.613514 1.45168 0
M  V30 3185 C 311.649 -1.36997 1.48581 0
M  V30 3186 C 311.97 -1.94589 0.126545 0
M  V30 3187 O 311.24 -1.76816 -0.843372 0
M  V30 3188 H 309.82 -0.508558 0.547154 0
M  V30 3189 H 312.482 -0.720853 1.81079 0
M  V30 3190 H 311.578 -2.1924 2.22127 0
M  V30 3191 N 311.879 -1.3236 -0.855495 0
M  V30 3192 C 312.789 -1.23221 -1.99634 0
M  V30 3193 C 313.805 -0.145983 -1.73387 0
M  V30 3194 O 314.981 -0.366502 -1.98037 0
M  V30 3195 C 312.046 -0.954782 -3.33294 0
M  V30 3196 C 311.107 -2.12937 -3.72769 0
M  V30 3197 C 310.34 -1.86508 -5.00051 0
M  V30 3198 O 310.563 -0.807231 -5.64659 0
M  V30 3199 O 309.497 -2.72591 -5.36636 0
M  V30 3200 H 313.323 -2.19126 -2.1028 0
M  V30 3201 H 310.908 -1.12241 -0.986018 0
M  V30 3202 H 312.79 -0.816519 -4.13414 0
M  V30 3203 H 311.465 -0.0258854 -3.2369 0
M  V30 3204 H 310.372 -2.3231 -2.93228 0
M  V30 3205 H 311.705 -3.04102 -3.87018 0
M  V30 3206 N 313.357 1.07166 -1.15556 0
M  V30 3207 C 314.587 1.83248 -0.954133 0
M  V30 3208 C 314.995 1.82449 0.500911 0
M  V30 3209 O 314.338 1.23575 1.35923 0
M  V30 3210 C 314.4 3.31393 -1.39351 0
M  V30 3211 C 314.064 3.5591 -2.86666 0
M  V30 3212 C 315.061 3.49695 -3.8472 0
M  V30 3213 C 312.746 3.83515 -3.24379 0
M  V30 3214 C 314.74 3.70737 -5.18491 0
M  V30 3215 C 312.427 4.04209 -4.58321 0
M  V30 3216 C 313.425 3.97815 -5.55186 0
M  V30 3217 O 313.113 4.17954 -6.86709 0
M  V30 3218 H 312.845 0.584941 -0.338851 0
M  V30 3219 H 315.399 1.36169 -1.53777 0
M  V30 3220 H 313.629 3.79292 -0.75329 0
M  V30 3221 H 315.318 3.88945 -1.16089 0
M  V30 3222 H 316.084 3.28368 -3.56931 0
M  V30 3223 H 311.963 3.87605 -2.49567 0
M  V30 3224 H 315.507 3.65663 -5.94085 0
M  V30 3225 H 311.404 4.25023 -4.85825 0
M  V30 3226 H 312.172 4.35291 -6.93155 0
M  V30 3227 N 314.835 0.952656 1.25548 0
M  V30 3228 C 316.251 0.656769 1.4546 0
M  V30 3229 C 316.451 -0.78633 1.85524 0
M  V30 3230 O 315.507 -1.56183 1.98402 0
M  V30 3231 C 316.82 1.62801 2.52817 0
M  V30 3232 C 318.368 1.63897 2.66659 0
M  V30 3233 C 318.843 2.5978 3.77198 0
M  V30 3234 N 320.334 2.58133 3.84606 0
M  V30 3235 C 321.069 3.29003 4.69621 0
M  V30 3236 N 320.565 4.09339 5.58939 0
M  V30 3237 N 322.358 3.179 4.63569 0
M  V30 3238 H 314.509 1.88526 0.978344 0
M  V30 3239 H 316.772 0.810815 0.491206 0
M  V30 3240 H 316.478 2.65869 2.30232 0
M  V30 3241 H 316.352 1.38898 3.50695 0
M  V30 3242 H 318.739 0.615481 2.8861 0
M  V30 3243 H 318.82 1.91858 1.69187 0
M  V30 3244 H 318.464 3.62254 3.55997 0
M  V30 3245 H 318.394 2.29105 4.7415 0
M  V30 3246 H 320.885 1.99809 3.20757 0
M  V30 3247 H 321.198 4.6034 6.20731 0
M  V30 3248 H 319.543 4.13438 5.58654 0
M  V30 3249 H 322.734 2.54612 3.92798 0
M  V30 3250 H 322.907 3.73398 5.29602 0
M  V30 3251 N 316.313 -1.40141 0.720998 0
M  V30 3252 C 317.559 -2.01572 0.272075 0
M  V30 3253 C 317.914 -1.5616 -1.12391 0
M  V30 3254 O 317.207 -0.774198 -1.75262 0
M  V30 3255 C 317.401 -3.56165 0.296892 0
M  V30 3256 C 317.23 -4.16584 1.69375 0
M  V30 3257 C 316 -4.49783 2.30269 0
M  V30 3258 C 318.198 -4.41076 2.64493 0
M  V30 3259 N 316.18 -4.95626 3.62254 0
M  V30 3260 C 317.551 -4.88971 3.81192 0
M  V30 3261 C 319.606 -4.23122 2.62435 0
M  V30 3262 C 318.309 -5.20796 4.96149 0
M  V30 3263 C 320.335 -4.56052 3.76524 0
M  V30 3264 C 319.697 -5.04141 4.91956 0
M  V30 3265 H 315.796 -0.768343 0.145511 0
M  V30 3266 H 318.38 -1.70287 0.943959 0
M  V30 3267 H 316.551 -3.86868 -0.344578 0
M  V30 3268 H 318.283 -4.04346 -0.169254 0
M  V30 3269 H 315.038 -4.37101 1.82318 0
M  V30 3270 H 315.462 -5.22923 4.29977 0
M  V30 3271 H 320.104 -3.85158 1.74393 0
M  V30 3272 H 317.822 -5.57672 5.84831 0
M  V30 3273 H 321.408 -4.43796 3.76213 0
M  V30 3274 H 320.288 -5.29142 5.78774 0
M  V30 3275 N 317.792 -0.46758 -1.50504 0
M  V30 3276 C 319.038 0.0808869 -2.03239 0
M  V30 3277 C 319.393 1.37721 -1.34353 0
M  V30 3278 O 318.686 1.86016 -0.459194 0
M  V30 3279 C 318.88 0.323995 -3.55928 0
M  V30 3280 C 318.709 -0.947215 -4.39611 0
M  V30 3281 C 317.479 -1.48951 -4.82848 0
M  V30 3282 C 319.677 -1.84166 -4.80195 0
M  V30 3283 N 317.659 -2.71011 -5.50842 0
M  V30 3284 C 319.03 -2.90815 -5.47564 0
M  V30 3285 C 321.085 -1.85246 -4.62156 0
M  V30 3286 C 319.788 -3.98529 -5.98805 0
M  V30 3287 C 321.814 -2.91914 -5.14335 0
M  V30 3288 C 321.176 -3.97282 -5.81676 0
M  V30 3289 H 317.275 -0.0103394 -0.781932 0
M  V30 3290 H 319.859 -0.635003 -1.84054 0
M  V30 3291 H 318.03 1.00892 -3.75067 0
M  V30 3292 H 319.762 0.866492 -3.95315 0
M  V30 3293 H 316.517 -1.03918 -4.62058 0
M  V30 3294 H 316.941 -3.32988 -5.89447 0
M  V30 3295 H 321.583 -1.05103 -4.09528 0
M  V30 3296 H 319.301 -4.79491 -6.50472 0
M  V30 3297 H 322.887 -2.93729 -5.0221 0
M  V30 3298 H 321.767 -4.78462 -6.21324 0
M  V30 3299 N 319.27 1.56325 -0.20005 0
M  V30 3300 C 320.2 2.22318 0.713916 0
M  V30 3301 C 321.181 1.18788 1.21752 0
M  V30 3302 O 322.366 1.47309 1.26545 0
M  V30 3303 C 319.496 2.88639 1.93144 0
M  V30 3304 C 318.45 3.98457 1.56255 0
M  V30 3305 C 317.776 4.51967 2.85709 0
M  V30 3306 C 319.076 5.16612 0.768747 0
M  V30 3307 H 320.77 2.98952 0.163755 0
M  V30 3308 H 318.316 1.43792 0.0773219 0
M  V30 3309 H 320.269 3.33491 2.57608 0
M  V30 3310 H 318.993 2.09419 2.50621 0
M  V30 3311 H 317.652 3.54305 0.941471 0
M  V30 3312 H 317.3 3.69503 3.41287 0
M  V30 3313 H 317 5.26071 2.6177 0
M  V30 3314 H 318.524 4.99523 3.51154 0
M  V30 3315 H 319.938 5.57977 1.3166 0
M  V30 3316 H 318.335 5.96812 0.627286 0
M  V30 3317 H 319.405 4.84358 -0.229168 0
M  V30 3318 N 320.748 -0.0735177 1.57428 0
M  V30 3319 C 322.025 -0.805903 1.78226 0
M  V30 3320 C 322.405 -1.95874 0.787189 0
M  V30 3321 O 321.753 -2.2779 -0.180029 0
M  V30 3322 C 321.963 -1.28045 3.24662 0
M  V30 3323 C 323.311 -1.71453 3.88444 0
M  V30 3324 O 324.335 -1.37616 3.28543 0
M  V30 3325 O 323.194 -2.34093 4.93825 0
M  V30 3326 H 320.288 -0.386041 0.73137 0
M  V30 3327 H 322.834 -0.0537269 1.69615 0
M  V30 3328 H 321.606 -0.455476 3.8864 0
M  V30 3329 H 321.229 -2.094 3.37991 0
M  V30 3330 N 322.226 -1.5378 -0.344866 0
M  V30 3331 C 323.158 -1.77988 -1.44406 0
M  V30 3332 C 324.171 -0.661138 -1.48771 0
M  V30 3333 O 325.36 -0.937842 -1.51877 0
M  V30 3334 C 322.46 -1.86345 -2.8307 0
M  V30 3335 C 321.633 -3.16256 -3.0216 0
M  V30 3336 C 320.692 -3.15588 -4.21059 0
M  V30 3337 O 319.718 -3.89314 -4.15239 0
M  V30 3338 N 320.92 -2.37864 -5.29529 0
M  V30 3339 H 323.685 -2.72839 -1.24012 0
M  V30 3340 H 321.246 -1.52814 -0.534737 0
M  V30 3341 H 323.238 -1.83351 -3.60783 0
M  V30 3342 H 321.808 -0.986858 -2.96614 0
M  V30 3343 H 321.028 -3.32385 -2.11929 0
M  V30 3344 H 322.316 -4.0207 -3.11797 0
M  V30 3345 H 321.714 -1.77514 -5.37127 0
M  V30 3346 H 320.271 -2.40668 -6.05741 0
M  V30 3347 N 323.704 0.605807 -1.45491 0
M  V30 3348 C 324.981 1.36522 -1.40075 0
M  V30 3349 C 325.361 2.10976 -0.0722744 0
M  V30 3350 O 324.709 2.08007 0.945808 0
M  V30 3351 C 324.919 2.31056 -2.61561 0
M  V30 3352 C 326.267 2.93608 -3.06724 0
M  V30 3353 O 327.291 2.41376 -2.61946 0
M  V30 3354 O 326.15 3.88421 -3.84437 0
M  V30 3355 H 323.244 0.612248 -0.555951 0
M  V30 3356 H 325.79 0.628747 -1.57623 0
M  V30 3357 H 324.562 1.75311 -3.49831 0
M  V30 3358 H 324.185 3.12081 -2.46356 0
M  V30 3359 N 325.182 1.32811 0.848464 0
M  V30 3360 C 326.41 1.26739 1.63538 0
M  V30 3361 C 326.825 -0.163484 1.88091 0
M  V30 3362 O 326.182 -1.10258 1.45429 0
M  V30 3363 C 326.233 2.03013 2.99112 0
M  V30 3364 O 325.954 3.40518 2.75643 0
M  V30 3365 C 327.455 2.04038 3.93552 0
M  V30 3366 H 324.675 0.437024 0.509167 0
M  V30 3367 H 327.219 1.75033 1.05753 0
M  V30 3368 H 325.374 1.58426 3.53525 0
M  V30 3369 H 325.788 3.79635 3.61908 0
M  V30 3370 H 327.262 2.61877 4.85926 0
M  V30 3371 H 327.739 1.0282 4.26995 0
M  V30 3372 H 328.345 2.486 3.45077 0
M  V30 3373 N 326.66 -1.06551 1.16123 0
M  V30 3374 C 327.907 -1.79302 0.941126 0
M  V30 3375 C 328.235 -1.87105 -0.531235 0
M  V30 3376 O 327.49 -1.35692 -1.41018 0
M  V30 3377 C 327.789 -3.23911 1.51052 0
M  V30 3378 C 327.455 -3.36193 3.00475 0
M  V30 3379 C 326.117 -3.39252 3.41265 0
M  V30 3380 C 328.469 -3.38326 3.96465 0
M  V30 3381 C 325.797 -3.42057 4.76669 0
M  V30 3382 C 328.149 -3.4267 5.31752 0
M  V30 3383 C 326.813 -3.4401 5.72026 0
M  V30 3384 H 326.083 -0.656111 0.344382 0
M  V30 3385 H 328.73 -1.25325 1.44796 0
M  V30 3386 H 327.035 -3.80723 0.925063 0
M  V30 3387 H 328.732 -3.78793 1.31593 0
M  V30 3388 H 325.322 -3.34516 2.6795 0
M  V30 3389 H 329.506 -3.35176 3.6602 0
M  V30 3390 H 324.762 -3.41398 5.07206 0
M  V30 3391 H 328.936 -3.43268 6.05921 0
M  V30 3392 H 326.563 -3.45937 6.76928 0
M  V30 3393 N 328.138 -0.959301 -1.25041 0
M  V30 3394 C 329.368 -0.63303 -1.96663 0
M  V30 3395 C 329.776 0.800031 -1.71453 0
M  V30 3396 O 329.119 1.54736 -0.99008 0
M  V30 3397 C 329.181 -0.817523 -3.50081 0
M  V30 3398 C 328.845 -2.22863 -3.98975 0
M  V30 3399 C 329.842 -3.20569 -4.09306 0
M  V30 3400 C 327.527 -2.55407 -4.32519 0
M  V30 3401 C 329.521 -4.4891 -4.52503 0
M  V30 3402 C 327.208 -3.83976 -4.754 0
M  V30 3403 C 328.206 -4.8054 -4.85356 0
M  V30 3404 O 327.894 -6.06817 -5.27284 0
M  V30 3405 H 327.626 -0.235866 -0.633516 0
M  V30 3406 H 330.18 -1.2874 -1.60047 0
M  V30 3407 H 328.41 -0.105992 -3.86555 0
M  V30 3408 H 330.099 -0.491604 -4.02912 0
M  V30 3409 H 330.865 -2.96753 -3.83618 0
M  V30 3410 H 326.744 -1.8097 -4.23994 0
M  V30 3411 H 330.288 -5.24283 -4.60188 0
M  V30 3412 H 326.185 -4.07596 -5.00535 0
M  V30 3413 H 326.953 -6.10262 -5.45457 0
M  V30 3414 N 329.616 1.39756 -0.72842 0
M  V30 3415 C 330.893 1.94574 -0.200079 0
M  V30 3416 C 331.273 1.66569 1.29684 0
M  V30 3417 O 330.621 0.990326 2.05924 0
M  V30 3418 C 330.831 3.45004 -0.526608 0
M  V30 3419 C 332.179 4.21965 -0.472318 0
M  V30 3420 O 333.203 3.53173 -0.463413 0
M  V30 3421 O 332.062 5.44552 -0.461075 0
M  V30 3422 H 329.156 0.826289 -0.0342851 0
M  V30 3423 H 331.702 1.49293 -0.806829 0
M  V30 3424 H 330.474 3.58796 -1.56144 0
M  V30 3425 H 330.097 3.97449 0.109449 0
M  V30 3426 N 331.094 0.475555 1.50254 0
M  V30 3427 C 332.342 -0.077738 2.0195 0
M  V30 3428 C 332.663 -1.39813 1.35931 0
M  V30 3429 O 331.933 -1.89249 0.506123 0
M  V30 3430 H 330.513 -0.031719 0.746326 0
M  V30 3431 H 333.175 0.626995 1.84539 0
M  V30 3432 H 332.271 -0.225995 3.11281 0
M  V30 3433 N 332.573 -1.56217 0.208337 0
M  V30 3434 C 333.989 -1.58919 -0.14729 0
M  V30 3435 C 334.189 -1.22486 -1.59998 0
M  V30 3436 O 333.245 -0.953849 -2.3379 0
M  V30 3437 C 334.558 -3.00236 0.167048 0
M  V30 3438 C 336.106 -3.12813 0.108219 0
M  V30 3439 C 336.581 -4.56284 0.396049 0
M  V30 3440 N 338.072 -4.61912 0.345142 0
M  V30 3441 C 338.807 -5.70837 0.541523 0
M  V30 3442 N 338.303 -6.88178 0.798968 0
M  V30 3443 N 340.096 -5.60091 0.474867 0
M  V30 3444 H 332.247 -1.78177 1.15614 0
M  V30 3445 H 334.51 -0.827555 0.462446 0
M  V30 3446 H 334.216 -3.31499 1.1748 0
M  V30 3447 H 334.09 -3.7354 -0.524184 0
M  V30 3448 H 336.477 -2.81354 -0.890157 0
M  V30 3449 H 336.558 -2.41866 0.832729 0
M  V30 3450 H 336.202 -4.88458 1.3918 0
M  V30 3451 H 336.132 -5.25439 -0.349502 0
M  V30 3452 H 338.623 -3.77589 0.153316 0
M  V30 3453 H 338.936 -7.67095 0.93727 0
M  V30 3454 H 337.281 -6.89953 0.836013 0
M  V30 3455 H 340.472 -4.67297 0.274064 0
M  V30 3456 H 340.645 -6.44917 0.631326 0
M  V30 3457 N 334.051 0.0651679 -1.57465 0
M  V30 3458 C 335.328 0.79644 -1.78651 0
M  V30 3459 C 335.708 1.95454 -0.797566 0
M  V30 3460 O 335.056 2.27882 0.167946 0
M  V30 3461 C 335.266 1.26322 -3.25337 0
M  V30 3462 C 336.614 1.6939 -3.89348 0
M  V30 3463 O 337.638 1.35872 -3.29268 0
M  V30 3464 O 336.497 2.31471 -4.95059 0
M  V30 3465 H 333.591 0.382157 -0.733407 0
M  V30 3466 H 336.137 0.0447311 -1.69641 0
M  V30 3467 H 334.909 0.434859 -3.88876 0
M  V30 3468 H 334.532 2.07604 -3.39096 0
M  V30 3469 N 335.529 1.53961 0.336706 0
M  V30 3470 C 336.945 1.44378 0.680241 0
M  V30 3471 C 337.145 0.606034 1.9217 0
M  V30 3472 O 336.201 0.099688 2.52303 0
M  V30 3473 C 337.514 2.87945 0.8665 0
M  V30 3474 C 339.062 2.97763 0.964682 0
M  V30 3475 C 339.537 4.42453 1.18321 0
M  V30 3476 N 341.028 4.46008 1.25025 0
M  V30 3477 C 341.763 5.55102 1.43697 0
M  V30 3478 N 341.259 6.7419 1.59498 0
M  V30 3479 N 343.052 5.42727 1.463 0
M  V30 3480 H 335.203 2.06918 -0.479455 0
M  V30 3481 H 337.466 0.935634 -0.152619 0
M  V30 3482 H 337.172 3.51691 0.0256937 0
M  V30 3483 H 337.046 3.33293 1.76623 0
M  V30 3484 H 339.433 2.34153 1.796 0
M  V30 3485 H 339.514 2.55766 0.041708 0
M  V30 3486 H 339.158 5.06645 0.356788 0
M  V30 3487 H 339.088 4.82048 2.11985 0
M  V30 3488 H 341.579 3.60196 1.14312 0
M  V30 3489 H 341.892 7.53095 1.734 0
M  V30 3490 H 340.237 6.77123 1.56621 0
M  V30 3491 H 343.428 4.48647 1.33543 0
M  V30 3492 H 343.601 6.27806 1.6051 0
M  V30 3493 N 337.007 -0.598083 1.45811 0
M  V30 3494 C 338.284 -1.35777 1.40797 0
M  V30 3495 C 338.664 -2.10935 0.083462 0
M  V30 3496 O 338.012 -2.08505 -0.934763 0
M  V30 3497 C 338.222 -2.29666 2.62783 0
M  V30 3498 C 339.57 -2.91977 3.08277 0
M  V30 3499 O 340.594 -2.39984 2.63223 0
M  V30 3500 O 339.453 -3.86376 3.86491 0
M  V30 3501 H 336.547 -0.609291 0.55919 0
M  V30 3502 H 339.093 -0.620379 1.57954 0
M  V30 3503 H 337.865 -1.73454 3.50756 0
M  V30 3504 H 337.488 -3.1077 2.48008 0
M  V30 3505 N 338.485 -1.33259 -0.841409 0
M  V30 3506 C 339.734 -1.23921 -1.59143 0
M  V30 3507 C 340.047 0.1941 -1.94635 0
M  V30 3508 O 341.253 0.409474 -2.68394 0
M  V30 3509 C 339.709 -2.17119 -2.87032 0
M  V30 3510 C 339.317 -3.65606 -2.58914 0
M  V30 3511 C 341.061 -2.16648 -3.65053 0
M  V30 3512 C 338.968 -4.50726 -3.82884 0
M  V30 3513 H 337.898 -0.460264 -0.597221 0
M  V30 3514 H 340.549 -1.58307 -0.927959 0
M  V30 3515 H 338.931 -1.75663 -3.54906 0
M  V30 3516 H 340.105 -4.15487 -1.99267 0
M  V30 3517 H 338.42 -3.68341 -1.942 0
M  V30 3518 H 341.017 -2.77474 -4.57069 0
M  V30 3519 H 341.36 -1.16088 -3.99787 0
M  V30 3520 H 341.893 -2.56453 -3.041 0
M  V30 3521 H 338.632 -5.52151 -3.53283 0
M  V30 3522 H 338.152 -4.0559 -4.41879 0
M  V30 3523 H 339.831 -4.64401 -4.50489 0
M  V30 3524 N 339.963 1.05934 -1.16686 0
M  V30 3525 C 340.911 2.15603 -0.872817 0
M  V30 3526 C 341.905 1.68647 0.159576 0
M  V30 3527 O 343.111 1.79995 0.0132125 0
M  V30 3528 H 339.486 0.703885 -0.264671 0
M  V30 3529 H 341.457 2.37613 -1.80507 0
M  V30 3530 C 340.206 3.45457 -0.394344 0
M  V30 3531 H 339.529 3.81984 -1.18019 0
M  V30 3532 H 340.969 4.2339 -0.227408 0
M  V30 3533 C 339.428 3.25021 0.88673 0
M  V30 3534 O 339.958 3.50906 1.95519 0
M  V30 3535 N 338.164 2.78437 0.831925 0
M  V30 3536 H 337.711 2.57572 -0.0377619 0
M  V30 3537 H 337.669 2.65144 1.68956 0
M  V30 3538 N 341.441 0.965919 1.2453 0
M  V30 3539 C 342.388 0.49402 2.25451 0
M  V30 3540 C 343.358 -0.45948 1.59618 0
M  V30 3541 O 344.543 -0.370238 1.87173 0
M  V30 3542 C 341.683 -0.211359 3.44452 0
M  V30 3543 C 340.796 0.7807 4.24887 0
M  V30 3544 C 339.931 0.0516105 5.31175 0
M  V30 3545 C 338.97 1.03385 6.03306 0
M  V30 3546 N 338.107 0.334887 7.01301 0
M  V30 3547 H 342.947 1.35946 2.65184 0
M  V30 3548 H 340.484 0.681515 1.3036 0
M  V30 3549 H 342.442 -0.637 4.12308 0
M  V30 3550 H 341.072 -1.04077 3.05562 0
M  V30 3551 H 340.124 1.32479 3.56586 0
M  V30 3552 H 341.436 1.52978 4.74762 0
M  V30 3553 H 340.59 -0.432114 6.05159 0
M  V30 3554 H 339.329 -0.730179 4.82203 0
M  V30 3555 H 338.334 1.52847 5.28127 0
M  V30 3556 H 339.559 1.81606 6.54367 0
M  V30 3557 H 337.505 -0.427959 6.54603 0
M  V30 3558 H 337.422 1.02287 7.49048 0
M  V30 3559 H 338.69 -0.126928 7.79397 0
M  V30 3560 N 342.919 -1.39368 0.735821 0
M  V30 3561 C 344.335 -1.54204 0.411492 0
M  V30 3562 C 344.535 -1.70268 -1.07755 0
M  V30 3563 O 343.591 -1.70364 -1.86366 0
M  V30 3564 C 344.904 -2.75925 1.19523 0
M  V30 3565 C 346.452 -2.89761 1.18354 0
M  V30 3566 C 346.927 -4.14421 1.94986 0
M  V30 3567 N 348.418 -4.21462 1.92156 0
M  V30 3568 C 349.153 -5.16871 2.48258 0
M  V30 3569 N 348.649 -6.18063 3.13001 0
M  V30 3570 N 350.442 -5.09093 2.38287 0
M  V30 3571 H 342.593 -1.27189 1.70108 0
M  V30 3572 H 344.856 -0.616517 0.720147 0
M  V30 3573 H 344.562 -2.70401 2.24892 0
M  V30 3574 H 344.436 -3.68614 0.800222 0
M  V30 3575 H 346.823 -2.94777 0.137975 0
M  V30 3576 H 346.904 -1.98133 1.61793 0
M  V30 3577 H 346.548 -4.10166 2.99543 0
M  V30 3578 H 346.478 -5.05095 1.48953 0
M  V30 3579 H 348.969 -3.48979 1.44991 0
M  V30 3580 H 349.282 -6.87326 3.53275 0
M  V30 3581 H 347.627 -6.18448 3.17091 0
M  V30 3582 H 350.818 -4.28973 1.8735 0
M  V30 3583 H 350.991 -5.83272 2.82308 0
M  V30 3584 N 344.397 -0.483516 -1.5 0
M  V30 3585 C 345.645 0.067027 -2.01989 0
M  V30 3586 C 345.966 1.3909 -1.36671 0
M  V30 3587 O 345.236 1.88978 -0.516152 0
M  V30 3588 H 343.816 0.0277606 -0.746484 0
M  V30 3589 H 346.478 -0.636773 -1.84204 0
M  V30 3590 H 345.574 0.209484 -3.11396 0
M  V30 3591 N 345.875 1.56104 -0.216619 0
M  V30 3592 C 347.105 2.02269 0.420802 0
M  V30 3593 C 347.513 1.09575 1.5424 0
M  V30 3594 O 346.856 0.0967308 1.83445 0
M  V30 3595 C 346.918 3.44784 1.01806 0
M  V30 3596 C 346.582 4.56988 0.0325154 0
M  V30 3597 C 347.579 5.14225 -0.766055 0
M  V30 3598 C 345.264 5.02228 -0.0848092 0
M  V30 3599 C 347.258 6.15169 -1.6687 0
M  V30 3600 C 344.945 6.03011 -0.990994 0
M  V30 3601 C 345.943 6.59357 -1.78149 0
M  V30 3602 O 345.631 7.58179 -2.67245 0
M  V30 3603 H 345.363 0.667353 0.107776 0
M  V30 3604 H 347.917 2.02747 -0.329034 0
M  V30 3605 H 346.147 3.41359 1.81689 0
M  V30 3606 H 347.836 3.74626 1.56237 0
M  V30 3607 H 348.602 4.80126 -0.685836 0
M  V30 3608 H 344.481 4.58054 0.520349 0
M  V30 3609 H 348.025 6.59076 -2.28615 0
M  V30 3610 H 343.922 6.36532 -1.07225 0
M  V30 3611 H 344.69 7.75682 -2.61265 0
M  V30 3612 N 347.353 -0.0568162 1.57498 0
M  V30 3613 C 348.283 -1.06593 2.0775 0
M  V30 3614 C 349.264 -1.39448 0.974082 0
M  V30 3615 O 350.449 -1.48815 1.24771 0
M  V30 3616 C 347.579 -2.37509 2.5339 0
M  V30 3617 C 346.533 -2.1897 3.67745 0
M  V30 3618 C 345.859 -3.55402 3.99492 0
M  V30 3619 C 347.159 -1.59859 4.97235 0
M  V30 3620 H 348.853 -0.647706 2.9231 0
M  V30 3621 H 346.399 -0.310116 1.40621 0
M  V30 3622 H 348.352 -3.08409 2.87162 0
M  V30 3623 H 347.076 -2.8134 1.65878 0
M  V30 3624 H 345.735 -1.50508 3.3428 0
M  V30 3625 H 345.383 -3.9683 3.09088 0
M  V30 3626 H 345.083 -3.43831 4.76502 0
M  V30 3627 H 346.607 -4.27708 4.35773 0
M  V30 3628 H 348.021 -2.20642 5.29141 0
M  V30 3629 H 346.418 -1.58942 5.78669 0
M  V30 3630 H 347.488 -0.561506 4.81638 0
M  V30 3631 N 348.832 -1.54138 -0.328536 0
M  V30 3632 C 349.765 -1.78014 -1.4278 0
M  V30 3633 C 350.743 -0.629889 -1.49904 0
M  V30 3634 O 351.927 -0.866763 -1.6739 0
M  V30 3635 C 349.054 -1.89225 -2.80912 0
M  V30 3636 C 348.1 -3.11483 -2.91343 0
M  V30 3637 S 348.933 -4.70201 -2.56263 0
M  V30 3638 C 350.089 -4.84312 -3.96476 0
M  V30 3639 H 350.322 -2.70974 -1.22313 0
M  V30 3640 H 347.855 -1.45197 -0.525084 0
M  V30 3641 H 349.813 -1.9637 -3.60485 0
M  V30 3642 H 348.474 -0.972518 -2.98665 0
M  V30 3643 H 347.667 -3.16046 -3.92595 0
M  V30 3644 H 347.269 -3.02642 -2.19736 0
M  V30 3645 H 349.561 -4.66643 -4.91173 0
M  V30 3646 H 350.504 -5.86411 -3.96898 0
M  V30 3647 H 350.912 -4.12652 -3.85199 0
M  V30 3648 N 350.31 0.590341 -1.46126 0
M  V30 3649 C 351.558 1.34616 -1.50742 0
M  V30 3650 C 351.879 1.94363 -0.157486 0
M  V30 3651 O 351.149 1.78136 0.815136 0
M  V30 3652 H 349.729 0.499789 -0.555175 0
M  V30 3653 H 352.391 0.691953 -1.82203 0
M  V30 3654 H 351.487 2.15678 -2.25587 0
M  V30 3655 N 351.788 1.33704 0.83433 0
M  V30 3656 C 353.037 1.24763 1.58484 0
M  V30 3657 C 353.35 -0.183775 1.94735 0
M  V30 3658 O 354.556 -0.395234 2.68608 0
M  V30 3659 C 353.012 2.18638 2.85876 0
M  V30 3660 C 352.62 3.66974 2.56971 0
M  V30 3661 C 354.364 2.18581 3.63899 0
M  V30 3662 C 352.271 4.5275 3.80488 0
M  V30 3663 H 351.201 0.463425 0.594772 0
M  V30 3664 H 353.852 1.58797 0.919551 0
M  V30 3665 H 352.234 1.77542 3.5397 0
M  V30 3666 H 353.408 4.16538 1.9706 0
M  V30 3667 H 351.723 3.69366 1.92244 0
M  V30 3668 H 354.32 2.79894 4.55591 0
M  V30 3669 H 354.663 1.18207 3.99165 0
M  V30 3670 H 355.196 2.58062 3.02735 0
M  V30 3671 H 351.935 5.54017 3.5035 0
M  V30 3672 H 351.455 4.07927 4.39722 0
M  V30 3673 H 353.134 4.66784 4.4802 0
M  V30 3674 N 353.266 -1.05314 1.17247 0
M  V30 3675 C 354.682 -1.30452 0.919473 0
M  V30 3676 C 354.882 -1.9703 -0.42209 0
M  V30 3677 O 353.938 -2.24311 -1.15935 0
M  V30 3678 C 355.251 -2.17551 2.07586 0
M  V30 3679 C 356.799 -2.30937 2.11275 0
M  V30 3680 C 357.274 -3.21396 3.26296 0
M  V30 3681 N 358.765 -3.28981 3.26076 0
M  V30 3682 C 359.5 -3.99095 4.11716 0
M  V30 3683 N 358.996 -4.71648 5.07465 0
M  V30 3684 N 360.789 -3.95247 3.9967 0
M  V30 3685 H 352.94 -0.604988 2.03602 0
M  V30 3686 H 355.203 -0.329368 0.888944 0
M  V30 3687 H 354.909 -1.75921 3.0454 0
M  V30 3688 H 354.783 -3.18182 2.02584 0
M  V30 3689 H 357.17 -2.71809 1.14907 0
M  V30 3690 H 357.251 -1.2994 2.20339 0
M  V30 3691 H 356.895 -2.81238 4.22927 0
M  V30 3692 H 356.825 -4.22395 3.14467 0
M  V30 3693 H 359.316 -2.77286 2.5675 0
M  V30 3694 H 359.629 -5.22705 5.6921 0
M  V30 3695 H 357.974 -4.70594 5.11435 0
M  V30 3696 H 361.165 -3.37691 3.24164 0
M  V30 3697 H 361.338 -4.4962 4.66632 0
M  V30 3698 N 354.744 -0.972509 -1.24016 0
M  V30 3699 C 355.654 -0.5143 -2.28893 0
M  V30 3700 C 356.67 0.427078 -1.68677 0
M  V30 3701 O 357.846 0.298939 -1.99169 0
M  V30 3702 C 354.911 0.183598 -3.46214 0
M  V30 3703 C 353.972 -0.798202 -4.21814 0
M  V30 3704 C 353.205 -0.133514 -5.33533 0
M  V30 3705 O 353.428 1.07714 -5.60137 0
M  V30 3706 O 352.362 -0.828103 -5.96176 0
M  V30 3707 H 356.188 -1.38629 -2.70214 0
M  V30 3708 H 353.773 -0.739769 -1.29799 0
M  V30 3709 H 355.655 0.575433 -4.17453 0
M  V30 3710 H 354.33 1.03048 -3.0686 0
M  V30 3711 H 353.237 -1.24059 -3.52931 0
M  V30 3712 H 354.57 -1.61364 -4.64997 0
M  V30 3713 N 356.222 1.38976 -0.743202 0
M  V30 3714 C 357.45 2.04636 -0.30525 0
M  V30 3715 C 357.865 1.56044 1.06281 0
M  V30 3716 O 357.222 0.728921 1.67311 0
M  V30 3717 C 357.273 3.60193 -0.307177 0
M  V30 3718 O 356.994 4.06998 -1.62124 0
M  V30 3719 C 358.495 4.4306 0.145928 0
M  V30 3720 H 355.715 0.65788 -0.132041 0
M  V30 3721 H 358.259 1.77866 -1.00915 0
M  V30 3722 H 356.414 3.85835 0.347898 0
M  V30 3723 H 356.828 5.01371 -1.54036 0
M  V30 3724 H 358.302 5.51921 0.0934183 0
M  V30 3725 H 358.779 4.22706 1.19231 0
M  V30 3726 H 359.385 4.22584 -0.479886 0
M  V30 3727 N 357.7 0.491464 1.49741 0
M  V30 3728 C 359.111 0.0413169 1.86654 0
M  V30 3729 C 359.462 -1.36985 1.40462 0
M  V30 3730 O 358.587 -2.01917 0.778354 0
M  V30 3731 C 359.182 0.0682023 3.38731 0
M  V30 3732 C 357.741 -0.32656 3.74981 0
M  V30 3733 C 356.888 0.444888 2.73708 0
M  V30 3734 H 359.839 0.704733 1.42194 0
M  V30 3735 H 359.86 -0.729322 3.73445 0
M  V30 3736 H 359.372 1.09539 3.72321 0
M  V30 3737 H 357.473 -1.35734 3.46997 0
M  V30 3738 H 357.586 -0.013741 4.79098 0
M  V30 3739 H 355.95 -0.104062 2.54487 0
M  V30 3740 H 356.733 1.47197 3.10142 0
M  V30 3741 N 359.178 -1.55987 0.224894 0
M  V30 3742 C 360.594 -1.59066 -0.130426 0
M  V30 3743 C 360.794 -1.24176 -1.5869 0
M  V30 3744 O 359.85 -0.978592 -2.32766 0
M  V30 3745 C 361.163 -3.00042 0.198883 0
M  V30 3746 C 362.711 -3.1268 0.141391 0
M  V30 3747 C 363.186 -4.55839 0.444422 0
M  V30 3748 N 364.677 -4.6152 0.394115 0
M  V30 3749 C 365.412 -5.70231 0.602038 0
M  V30 3750 N 364.908 -6.87291 0.871914 0
M  V30 3751 N 366.701 -5.59555 0.534245 0
M  V30 3752 H 358.852 -1.76941 1.17497 0
M  V30 3753 H 361.115 -0.822604 0.471197 0
M  V30 3754 H 360.821 -3.30234 1.2099 0
M  V30 3755 H 360.695 -3.74075 -0.484535 0
M  V30 3756 H 363.082 -2.82283 -0.860265 0
M  V30 3757 H 363.163 -2.40969 0.858335 0
M  V30 3758 H 362.807 -4.86954 1.44353 0
M  V30 3759 H 362.737 -5.2578 -0.293752 0
M  V30 3760 H 365.228 -3.77405 0.193356 0
M  V30 3761 H 365.541 -7.66058 1.01858 0
M  V30 3762 H 363.886 -6.89028 0.909145 0
M  V30 3763 H 367.077 -4.6698 0.323612 0
M  V30 3764 H 367.25 -6.44211 0.699693 0
M  V30 3765 N 360.656 0.0484629 -1.57525 0
M  V30 3766 C 361.904 0.741657 -1.88 0
M  V30 3767 C 362.225 1.76918 -0.820054 0
M  V30 3768 O 361.495 1.95335 0.148661 0
M  V30 3769 H 360.075 0.276908 -0.69378 0
M  V30 3770 H 362.737 0.019013 -1.94891 0
M  V30 3771 H 361.833 1.24336 -2.86264 0
M  V30 3772 N 362.134 1.5431 0.320358 0
M  V30 3773 C 363.362 1.76636 1.07738 0
M  V30 3774 C 363.777 0.51649 1.81598 0
M  V30 3775 O 363.134 -0.512942 1.75143 0
M  V30 3776 C 363.185 2.96158 2.07299 0
M  V30 3777 O 362.906 4.16313 1.36438 0
M  V30 3778 C 364.407 3.3072 2.95193 0
M  V30 3779 H 361.627 0.589597 0.320339 0
M  V30 3780 H 364.171 2.01207 0.36551 0
M  V30 3781 H 362.326 2.73851 2.74016 0
M  V30 3782 H 362.74 4.83565 2.03138 0
M  V30 3783 H 364.214 4.17643 3.60941 0
M  V30 3784 H 364.691 2.48026 3.62463 0
M  V30 3785 H 365.297 3.55117 2.34034 0
M  V30 3786 N 363.613 -0.582584 1.46437 0
M  V30 3787 C 364.86 -1.34079 1.51753 0
M  V30 3788 C 365.188 -1.93762 0.169299 0
M  V30 3789 O 364.443 -1.76989 -0.835062 0
M  V30 3790 C 364.742 -2.48964 2.56421 0
M  V30 3791 C 364.408 -2.07273 4.00436 0
M  V30 3792 C 363.07 -1.95618 4.39644 0
M  V30 3793 C 365.422 -1.75111 4.90903 0
M  V30 3794 C 362.75 -1.5006 5.67185 0
M  V30 3795 C 365.102 -1.31032 6.18881 0
M  V30 3796 C 363.766 -1.17954 6.56996 0
M  V30 3797 H 363.036 -0.49063 0.555304 0
M  V30 3798 H 365.683 -0.656007 1.79913 0
M  V30 3799 H 363.988 -3.22889 2.21923 0
M  V30 3800 H 365.685 -3.07178 2.57765 0
M  V30 3801 H 362.275 -2.17279 3.69443 0
M  V30 3802 H 366.459 -1.83001 4.61329 0
M  V30 3803 H 361.715 -1.38577 5.95488 0
M  V30 3804 H 365.889 -1.052 6.88408 0
M  V30 3805 H 363.516 -0.824279 7.55718 0
M  V30 3806 N 365.091 -1.34144 -0.827227 0
M  V30 3807 C 366.319 -1.29325 -1.61501 0
M  V30 3808 C 366.734 0.13354 -1.88327 0
M  V30 3809 O 366.091 1.0793 -1.47164 0
M  V30 3810 C 366.142 -2.07746 -2.95844 0
M  V30 3811 O 365.863 -3.4486 -2.70191 0
M  V30 3812 C 367.364 -2.10273 -3.90256 0
M  V30 3813 H 364.584 -0.445069 -0.50215 0
M  V30 3814 H 367.128 -1.76693 -1.02955 0
M  V30 3815 H 365.283 -1.6403 -3.5096 0
M  V30 3816 H 365.697 -3.85345 -3.55822 0
M  V30 3817 H 367.171 -2.69575 -4.81698 0
M  V30 3818 H 367.648 -1.096 -4.25305 0
M  V30 3819 H 368.254 -2.54059 -3.41078 0
M  V30 3820 N 366.569 1.04691 -1.17803 0
M  V30 3821 C 367.532 2.10724 -0.901545 0
M  V30 3822 C 368.532 1.6042 0.110437 0
M  V30 3823 O 369.722 1.7377 -0.122303 0
M  V30 3824 C 366.854 3.39084 -0.351409 0
M  V30 3825 H 368.047 2.36686 -1.84174 0
M  V30 3826 H 365.6 1.21015 -0.98919 0
M  V30 3827 H 366.335 3.18782 0.59569 0
M  V30 3828 H 366.12 3.76909 -1.08083 0
M  V30 3829 H 367.61 4.17227 -0.176451 0
M  V30 3830 N 368.047 0.979072 1.23499 0
M  V30 3831 C 369.293 0.648178 1.92163 0
M  V30 3832 C 369.626 -0.816049 1.76222 0
M  V30 3833 O 368.901 -1.58849 1.12237 0
M  V30 3834 C 369.184 1.03773 3.44824 0
M  V30 3835 C 369.037 2.55948 3.69879 0
M  V30 3836 C 370.356 0.580653 4.36253 0
M  V30 3837 H 367.475 0.236952 0.69787 0
M  V30 3838 H 370.117 1.22012 1.45647 0
M  V30 3839 H 368.267 0.551058 3.84572 0
M  V30 3840 H 369.939 3.12179 3.3962 0
M  V30 3841 H 368.182 2.98641 3.14636 0
M  V30 3842 H 368.853 2.78255 4.76737 0
M  V30 3843 H 371.329 0.998465 4.03943 0
M  V30 3844 H 370.205 0.881663 5.41773 0
M  V30 3845 H 370.466 -0.519052 4.39042 0
M  V30 3846 N 369.525 -1.3858 0.750561 0
M  V30 3847 C 370.457 -2.29057 0.0810714 0
M  V30 3848 C 371.47 -1.47596 -0.686973 0
M  V30 3849 O 372.659 -1.70495 -0.528563 0
M  V30 3850 C 369.759 -3.26475 -0.909247 0
M  V30 3851 C 368.932 -4.36945 -0.199478 0
M  V30 3852 C 367.991 -5.14572 -1.10011 0
M  V30 3853 O 367.017 -5.66321 -0.57177 0
M  V30 3854 N 368.219 -5.27262 -2.42849 0
M  V30 3855 H 370.984 -2.87153 0.858087 0
M  V30 3856 H 368.545 -1.50328 0.60109 0
M  V30 3857 H 370.537 -3.75285 -1.51471 0
M  V30 3858 H 369.107 -2.69298 -1.58736 0
M  V30 3859 H 368.327 -3.8981 0.586664 0
M  V30 3860 H 369.615 -5.07963 0.291783 0
M  V30 3861 H 369.013 -4.86763 -2.88233 0
M  V30 3862 H 367.57 -5.79456 -2.98453 0
M  V30 3863 N 371.003 -0.499398 -1.49478 0
M  V30 3864 C 372.251 0.0455996 -2.02049 0
M  V30 3865 C 372.572 1.37633 -1.38138 0
M  V30 3866 O 371.842 1.8842 -0.536166 0
M  V30 3867 H 370.422 0.0198416 -0.746736 0
M  V30 3868 H 373.084 -0.656274 -1.83519 0
M  V30 3869 H 372.18 0.176445 -3.11601 0
M  V30 3870 N 372.481 1.55866 -0.233164 0
M  V30 3871 C 373.413 2.18099 0.704668 0
M  V30 3872 C 374.426 1.15334 1.14899 0
M  V30 3873 O 375.615 1.42262 1.07814 0
M  V30 3874 C 372.715 2.7592 1.96777 0
M  V30 3875 C 371.888 4.03969 1.67713 0
M  V30 3876 C 370.947 4.46242 2.78845 0
M  V30 3877 O 369.973 5.12903 2.46818 0
M  V30 3878 N 371.175 4.12886 4.08051 0
M  V30 3879 H 373.94 2.99205 0.172258 0
M  V30 3880 H 371.501 1.61815 -0.0525945 0
M  V30 3881 H 373.493 3.01165 2.70337 0
M  V30 3882 H 372.063 1.99051 2.41034 0
M  V30 3883 H 371.283 3.86459 0.777391 0
M  V30 3884 H 372.571 4.8748 1.4574 0
M  V30 3885 H 371.969 3.59342 4.3691 0
M  V30 3886 H 370.526 4.42997 4.78118 0
M  V30 3887 N 373.959 -0.0401083 1.57549 0
M  V30 3888 C 374.909 -1.05175 2.02292 0
M  V30 3889 C 375.893 -1.32674 0.910294 0
M  V30 3890 O 377.085 -1.32444 1.17421 0
M  V30 3891 C 374.214 -2.35622 2.49674 0
M  V30 3892 C 373.3 -2.11261 3.67736 0
M  V30 3893 N 373.691 -1.56923 4.80842 0
M  V30 3894 C 371.989 -2.41596 3.74897 0
M  V30 3895 C 372.69 -1.48111 5.62528 0
M  V30 3896 N 371.666 -1.95282 5.07312 0
M  V30 3897 H 375.468 -0.625455 2.87168 0
M  V30 3898 H 372.982 -0.246624 1.60516 0
M  V30 3899 H 374.979 -3.08893 2.79983 0
M  V30 3900 H 373.639 -2.7894 1.662 0
M  V30 3901 H 374.65 -1.25345 5.02503 0
M  V30 3902 H 371.327 -2.88064 3.02201 0
M  V30 3903 H 372.717 -1.06683 6.63377 0
M  V30 3904 N 375.437 -1.54477 -0.31217 0
M  V30 3905 C 376.683 -1.74417 -1.04644 0
M  V30 3906 C 377.038 -0.517641 -1.85306 0
M  V30 3907 O 376.331 0.489973 -1.85229 0
M  V30 3908 C 376.525 -2.967 -1.99258 0
M  V30 3909 C 376.354 -4.31128 -1.27901 0
M  V30 3910 C 375.124 -4.95087 -1.01079 0
M  V30 3911 C 377.322 -5.09662 -0.689119 0
M  V30 3912 N 375.304 -6.13322 -0.266323 0
M  V30 3913 C 376.675 -6.19952 -0.0768523 0
M  V30 3914 C 378.73 -4.94355 -0.593061 0
M  V30 3915 C 377.433 -7.16604 0.622165 0
M  V30 3916 C 379.459 -5.91328 0.0922792 0
M  V30 3917 C 378.821 -7.00978 0.693443 0
M  V30 3918 H 374.92 -0.69094 -0.366231 0
M  V30 3919 H 377.504 -1.91946 -0.326319 0
M  V30 3920 H 375.675 -2.80616 -2.68532 0
M  V30 3921 H 377.407 -3.05216 -2.65755 0
M  V30 3922 H 374.162 -4.55235 -1.30607 0
M  V30 3923 H 374.586 -6.76937 0.0920973 0
M  V30 3924 H 379.228 -4.09719 -1.04355 0
M  V30 3925 H 376.946 -8.0079 1.08445 0
M  V30 3926 H 380.532 -5.81562 0.166396 0
M  V30 3927 H 379.412 -7.74725 1.21533 0
M  V30 3928 N 376.915 0.57481 -1.46744 0
M  V30 3929 C 378.145 1.35659 -1.55821 0
M  V30 3930 C 378.553 1.88129 -0.201036 0
M  V30 3931 O 377.896 1.64723 0.813134 0
M  V30 3932 C 377.958 2.57473 -2.50894 0
M  V30 3933 C 377.622 2.26415 -3.9697 0
M  V30 3934 C 378.619 1.84771 -4.85958 0
M  V30 3935 C 376.304 2.38316 -4.42166 0
M  V30 3936 C 378.298 1.55434 -6.18158 0
M  V30 3937 C 375.985 2.08591 -5.74398 0
M  V30 3938 C 376.983 1.67216 -6.62214 0
M  V30 3939 O 376.671 1.37859 -7.91991 0
M  V30 3940 H 376.403 0.420496 -0.529301 0
M  V30 3941 H 378.957 0.704967 -1.92923 0
M  V30 3942 H 377.187 3.25468 -2.08824 0
M  V30 3943 H 378.876 3.19546 -2.50291 0
M  V30 3944 H 379.642 1.75085 -4.52295 0
M  V30 3945 H 375.521 2.69483 -3.74032 0
M  V30 3946 H 379.065 1.23065 -6.86659 0
M  V30 3947 H 374.962 2.17905 -6.07608 0
M  V30 3948 H 375.73 1.51638 -8.04331 0
M  V30 3949 N 378.394 1.34581 0.820102 0
M  V30 3950 C 379.304 1.28471 1.96297 0
M  V30 3951 C 380.32 0.191902 1.72939 0
M  V30 3952 O 381.496 0.418879 1.96996 0
M  V30 3953 C 378.561 1.04281 3.30645 0
M  V30 3954 C 377.622 2.22745 3.66992 0
M  V30 3955 C 376.855 1.997 4.9493 0
M  V30 3956 O 377.078 0.956656 5.6232 0
M  V30 3957 O 376.012 2.86723 5.2922 0
M  V30 3958 H 379.838 2.24624 2.04396 0
M  V30 3959 H 377.423 1.14816 0.955913 0
M  V30 3960 H 379.305 0.925841 4.11104 0
M  V30 3961 H 377.98 0.111697 3.23507 0
M  V30 3962 H 376.887 2.40003 2.86966 0
M  V30 3963 H 378.22 3.14257 3.78819 0
M  V30 3964 N 379.872 -1.04064 1.18357 0
M  V30 3965 C 381.119 -1.77265 0.978947 0
M  V30 3966 C 381.447 -1.88189 -0.491428 0
M  V30 3967 O 380.702 -1.38653 -1.38108 0
M  V30 3968 C 381.001 -3.20634 1.57888 0
M  V30 3969 C 380.667 -3.29743 3.07539 0
M  V30 3970 C 379.329 -3.31937 3.48384 0
M  V30 3971 C 381.681 -3.29841 4.03552 0
M  V30 3972 C 379.009 -3.3187 4.83818 0
M  V30 3973 C 381.361 -3.31313 5.38901 0
M  V30 3974 C 380.025 -3.31799 5.79194 0
M  V30 3975 H 379.295 -0.648659 0.358222 0
M  V30 3976 H 381.942 -1.22225 1.47422 0
M  V30 3977 H 380.247 -3.78675 1.00561 0
M  V30 3978 H 381.944 -3.75917 1.39598 0
M  V30 3979 H 378.534 -3.28757 2.74986 0
M  V30 3980 H 382.718 -3.27337 3.73047 0
M  V30 3981 H 377.974 -3.30562 5.14333 0
M  V30 3982 H 382.148 -3.30338 6.13066 0
M  V30 3983 H 379.775 -3.315 6.84114 0
M  V30 3984 N 381.35 -0.985608 -1.22978 0
M  V30 3985 C 382.627 -0.573599 -1.87001 0
M  V30 3986 C 383.007 0.949213 -1.88555 0
M  V30 3987 O 382.355 1.82811 -1.37086 0
M  V30 3988 C 382.565 -1.18564 -3.28243 0
M  V30 3989 C 383.913 -1.28163 -4.04796 0
M  V30 3990 O 384.937 -1.13949 -3.37482 0
M  V30 3991 O 383.796 -1.50832 -5.25273 0
M  V30 3992 H 380.89 -0.193868 -0.803955 0
M  V30 3993 H 383.436 -1.08102 -1.30813 0
M  V30 3994 H 382.208 -2.22758 -3.21706 0
M  V30 3995 H 381.831 -0.663363 -3.92027 0
M  V30 3996 N 382.828 1.3818 -0.7579 0
M  V30 3997 C 383.761 2.28055 -0.0814093 0
M  V30 3998 C 384.739 1.45603 0.723779 0
M  V30 3999 O 385.923 1.74961 0.701491 0
M  V30 4000 C 383.05 3.2676 0.891394 0
M  V30 4001 C 382.096 4.26153 0.171909 0
M  V30 4002 S 382.929 5.23434 -1.13035 0
M  V30 4003 C 384.085 6.25694 -0.160727 0
M  V30 4004 H 384.318 2.85082 -0.84353 0
M  V30 4005 H 381.851 1.44246 -0.550671 0
M  V30 4006 H 383.809 3.8414 1.44731 0
M  V30 4007 H 382.47 2.68706 1.62652 0
M  V30 4008 H 381.663 4.95738 0.908843 0
M  V30 4009 H 381.265 3.72691 -0.312606 0
M  V30 4010 H 383.557 6.74161 0.671773 0
M  V30 4011 H 384.5 7.03285 -0.824353 0
M  V30 4012 H 384.908 5.64064 0.221892 0
M  V30 4013 N 384.306 0.507319 1.49211 0
M  V30 4014 C 385.239 -0.314509 2.26022 0
M  V30 4015 C 386.217 -0.964849 1.30879 0
M  V30 4016 O 387.401 -0.993707 1.6018 0
M  V30 4017 C 384.528 -1.44346 3.06402 0
M  V30 4018 C 383.574 -0.90685 4.16748 0
M  V30 4019 S 384.407 0.207392 5.35098 0
M  V30 4020 C 385.563 -0.924573 6.19033 0
M  V30 4021 H 385.796 0.337416 2.95379 0
M  V30 4022 H 383.329 0.292718 1.516 0
M  V30 4023 H 385.287 -2.09029 3.53295 0
M  V30 4024 H 383.948 -2.06702 2.36502 0
M  V30 4025 H 383.141 -1.75309 4.72528 0
M  V30 4026 H 382.743 -0.33712 3.72478 0
M  V30 4027 H 385.035 -1.82839 6.52362 0
M  V30 4028 H 385.978 -0.405248 7.06939 0
M  V30 4029 H 386.386 -1.19476 5.51712 0
M  V30 4030 N 385.784 -1.5574 0.241426 0
M  V30 4031 C 387.032 -1.98417 -0.384075 0
M  V30 4032 C 387.353 -1.13078 -1.58866 0
M  V30 4033 O 386.623 -0.212312 -1.94746 0
M  V30 4034 H 385.203 -0.732813 -0.144894 0
M  V30 4035 H 387.865 -1.9193 0.338943 0
M  V30 4036 H 386.961 -3.04219 -0.696939 0
M  V30 4037 N 387.262 0.0317525 -1.57568 0
M  V30 4038 C 388.194 1.06073 -2.03178 0
M  V30 4039 C 389.207 1.32627 -0.944132 0
M  V30 4040 O 390.396 1.30162 -1.22148 0
M  V30 4041 C 387.496 2.40297 -2.38978 0
M  V30 4042 C 386.669 2.33137 -3.70089 0
M  V30 4043 C 385.728 3.49787 -3.9311 0
M  V30 4044 O 384.754 3.29403 -4.64201 0
M  V30 4045 N 385.956 4.71562 -3.38541 0
M  V30 4046 H 388.721 0.672006 -2.92069 0
M  V30 4047 H 386.282 0.219745 -1.60402 0
M  V30 4048 H 388.274 3.1705 -2.51518 0
M  V30 4049 H 386.844 2.71024 -1.55771 0
M  V30 4050 H 386.064 1.415 -3.67928 0
M  V30 4051 H 387.352 2.25493 -4.56104 0
M  V30 4052 H 386.75 4.91024 -2.80912 0
M  V30 4053 H 385.307 5.45689 -3.56464 0
M  V30 4054 N 388.74 1.54641 0.303973 0
M  V30 4055 C 389.986 1.74038 1.04109 0
M  V30 4056 C 390.319 0.523051 1.87024 0
M  V30 4057 O 389.594 -0.479874 1.88487 0
M  V30 4058 C 389.877 3.02761 1.94955 0
M  V30 4059 C 389.73 4.34787 1.1524 0
M  V30 4060 C 391.049 3.27336 2.94175 0
M  V30 4061 H 388.168 0.63323 0.377079 0
M  V30 4062 H 390.81 1.87354 0.316001 0
M  V30 4063 H 388.96 2.9154 2.56782 0
M  V30 4064 H 390.632 4.57922 0.557236 0
M  V30 4065 H 388.875 4.31407 0.455053 0
M  V30 4066 H 389.546 5.21116 1.8205 0
M  V30 4067 H 392.022 3.38148 2.42477 0
M  V30 4068 H 390.898 4.18726 3.54908 0
M  V30 4069 H 391.159 2.45491 3.67677 0
M  V30 4070 N 390.218 -0.567019 1.47046 0
M  V30 4071 C 391.148 -1.68482 1.61667 0
M  V30 4072 C 392.129 -1.6358 0.466418 0
M  V30 4073 O 393.314 -1.81354 0.694574 0
M  V30 4074 C 390.444 -3.07124 1.62148 0
M  V30 4075 C 389.398 -3.26867 2.76301 0
M  V30 4076 C 388.724 -4.66196 2.61849 0
M  V30 4077 C 390.024 -3.13186 4.17986 0
M  V30 4078 H 391.718 -1.56502 2.5524 0
M  V30 4079 H 389.264 -0.751486 1.22836 0
M  V30 4080 H 391.217 -3.8516 1.70968 0
M  V30 4081 H 389.941 -3.2004 0.651287 0
M  V30 4082 H 388.6 -2.51237 2.66975 0
M  V30 4083 H 388.248 -4.75898 1.62879 0
M  V30 4084 H 387.948 -4.80356 3.38425 0
M  V30 4085 H 389.472 -5.46379 2.72584 0
M  V30 4086 H 390.886 -3.81049 4.2834 0
M  V30 4087 H 389.283 -3.3886 4.95272 0
M  V30 4088 H 390.353 -2.10057 4.3704 0
M  V30 4089 N 391.696 -1.35014 -0.812953 0
M  V30 4090 C 392.606 -1.2951 -1.95613 0
M  V30 4091 C 393.622 -0.20107 -1.72834 0
M  V30 4092 O 394.798 -0.42932 -1.96771 0
M  V30 4093 C 391.863 -1.06033 -3.30088 0
M  V30 4094 C 390.924 -2.24688 -3.65805 0
M  V30 4095 C 390.157 -2.02322 -4.93864 0
M  V30 4096 O 390.38 -0.986464 -5.61805 0
M  V30 4097 O 389.314 -2.89525 -5.27692 0
M  V30 4098 H 393.14 -2.25705 -2.03202 0
M  V30 4099 H 390.725 -1.15321 -0.949811 0
M  V30 4100 H 392.607 -0.94763 -4.10607 0
M  V30 4101 H 391.282 -0.128852 -3.23443 0
M  V30 4102 H 390.189 -2.41521 -2.85689 0
M  V30 4103 H 391.522 -3.16261 -3.77147 0
M  V30 4104 N 393.175 1.03435 -1.18907 0
M  V30 4105 C 394.452 1.73778 -0.89781 0
M  V30 4106 C 394.832 2.02458 0.597832 0
M  V30 4107 O 394.18 1.67482 1.55441 0
M  V30 4108 C 394.39 3.01845 -1.75187 0
M  V30 4109 C 395.738 3.7546 -1.9828 0
M  V30 4110 O 396.762 3.11759 -1.72293 0
M  V30 4111 O 395.621 4.89966 -2.42065 0
M  V30 4112 H 392.715 0.75651 -0.334098 0
M  V30 4113 H 395.261 1.09444 -1.29693 0
M  V30 4114 H 394.033 2.76836 -2.76545 0
M  V30 4115 H 393.656 3.73919 -1.35167 0
M  V30 4116 N 394.653 0.992116 1.22453 0
M  V30 4117 C 395.603 0.512969 2.22155 0
M  V30 4118 C 396.587 -0.418416 1.55364 0
M  V30 4119 O 397.779 -0.245363 1.75291 0
M  V30 4120 C 394.908 -0.171822 3.4287 0
M  V30 4121 C 393.994 0.779822 4.16869 0
M  V30 4122 N 394.385 1.92734 4.6764 0
M  V30 4123 C 392.683 0.59554 4.42006 0
M  V30 4124 C 393.384 2.52458 5.24061 0
M  V30 4125 N 392.36 1.80735 5.12675 0
M  V30 4126 H 396.162 1.38817 2.5905 0
M  V30 4127 H 393.676 0.854277 1.38115 0
M  V30 4128 H 395.673 -0.532469 4.13486 0
M  V30 4129 H 394.333 -1.04317 3.07487 0
M  V30 4130 H 395.344 2.30816 4.63621 0
M  V30 4131 H 392.021 -0.229805 4.16867 0
M  V30 4132 H 393.411 3.49433 5.73887 0
M  V30 4133 N 396.131 -1.37776 0.765217 0
M  V30 4134 C 397.078 -2.30342 0.145274 0
M  V30 4135 C 398.048 -1.5077 -0.696971 0
M  V30 4136 O 399.233 -1.79362 -0.650689 0
M  V30 4137 C 396.373 -3.37227 -0.732939 0
M  V30 4138 C 395.486 -4.31819 0.125199 0
M  V30 4139 C 394.621 -5.25777 -0.757107 0
M  V30 4140 C 393.66 -6.12012 0.103963 0
M  V30 4141 N 392.797 -6.98232 -0.735953 0
M  V30 4142 H 397.637 -2.8278 0.940195 0
M  V30 4143 H 395.174 -1.39211 0.475255 0
M  V30 4144 H 397.132 -3.97818 -1.25686 0
M  V30 4145 H 395.762 -2.86171 -1.49353 0
M  V30 4146 H 394.814 -3.7259 0.766865 0
M  V30 4147 H 396.126 -4.92509 0.789683 0
M  V30 4148 H 395.28 -5.91541 -1.34776 0
M  V30 4149 H 394.019 -4.65481 -1.45529 0
M  V30 4150 H 393.024 -5.45233 0.707197 0
M  V30 4151 H 394.249 -6.74379 0.799381 0
M  V30 4152 H 392.195 -6.40472 -1.41887 0
M  V30 4153 H 392.112 -7.55891 -0.128624 0
M  V30 4154 H 393.38 -7.68393 -1.31121 0
M  V30 4155 N 397.609 -0.515225 -1.4894 0
M  V30 4156 C 398.539 0.244628 -2.32215 0
M  V30 4157 C 399.52 0.949136 -1.41157 0
M  V30 4158 O 400.705 0.937783 -1.70057 0
M  V30 4159 C 397.835 1.30096 -3.22013 0
M  V30 4160 C 396.789 0.715486 -4.21977 0
M  V30 4161 C 396.115 1.87339 -5.00808 0
M  V30 4162 C 397.415 -0.302982 -5.2142 0
M  V30 4163 H 399.109 -0.450501 -2.95991 0
M  V30 4164 H 396.655 -0.218098 -1.42339 0
M  V30 4165 H 398.608 1.84037 -3.79089 0
M  V30 4166 H 397.332 2.02547 -2.56207 0
M  V30 4167 H 395.991 0.197715 -3.66066 0
M  V30 4168 H 395.639 2.58592 -4.31438 0
M  V30 4169 H 395.339 1.48764 -5.68457 0
M  V30 4170 H 396.863 2.41686 -5.60732 0
M  V30 4171 H 398.277 0.148802 -5.73107 0
M  V30 4172 H 396.674 -0.60532 -5.97039 0
M  V30 4173 H 397.744 -1.21395 -4.69459 0
M  V30 4174 N 399.087 1.5561 -0.249682 0
M  V30 4175 C 400.498 1.84979 0.252949 0
M  V30 4176 C 400.849 1.17153 1.57384 0
M  V30 4177 O 399.974 0.450884 2.11651 0
M  V30 4178 C 400.569 3.35584 0.465732 0
M  V30 4179 C 399.128 3.65169 0.912624 0
M  V30 4180 C 398.275 2.77299 -0.00859085 0
M  V30 4181 H 401.226 1.51513 -0.47217 0
M  V30 4182 H 401.247 3.57313 1.30795 0
M  V30 4183 H 400.759 3.8492 -0.49579 0
M  V30 4184 H 398.86 3.21312 1.88652 0
M  V30 4185 H 398.973 4.72912 0.767559 0
M  V30 4186 H 397.337 2.49678 0.50327 0
M  V30 4187 H 398.12 3.29442 -0.965537 0
M  V30 4188 N 400.565 -0.0233959 1.57583 0
M  V30 4189 C 401.981 -0.379134 1.55031 0
M  V30 4190 C 402.181 -1.76255 0.976548 0
M  V30 4191 O 401.237 -2.45266 0.600078 0
M  V30 4192 C 402.55 -0.275792 2.99433 0
M  V30 4193 C 404.098 -0.352458 3.11009 0
M  V30 4194 C 404.573 -0.278501 4.57152 0
M  V30 4195 N 406.064 -0.337123 4.61972 0
M  V30 4196 C 406.799 -0.302876 5.726 0
M  V30 4197 N 406.295 -0.220589 6.92449 0
M  V30 4198 N 408.088 -0.353023 5.6099 0
M  V30 4199 H 400.239 0.881869 1.93227 0
M  V30 4200 H 402.502 0.335867 0.886509 0
M  V30 4201 H 402.208 0.675108 3.4516 0
M  V30 4202 H 402.082 -1.06721 3.61788 0
M  V30 4203 H 404.469 -1.29379 2.65226 0
M  V30 4204 H 404.55 0.468409 2.51475 0
M  V30 4205 H 404.194 0.659189 5.03604 0
M  V30 4206 H 404.124 -1.11755 5.14605 0
M  V30 4207 H 406.615 -0.403002 3.75745 0
M  V30 4208 H 406.928 -0.199713 7.72542 0
M  V30 4209 H 405.273 -0.186555 6.9475 0
M  V30 4210 H 408.464 -0.415339 4.66254 0
M  V30 4211 H 408.637 -0.322866 6.47195 0
M  V30 4212 N 402.043 -1.548 -0.295768 0
M  V30 4213 C 403.291 -1.73985 -1.02828 0
M  V30 4214 C 403.612 -0.531406 -1.87619 0
M  V30 4215 O 402.882 0.454221 -1.90561 0
M  V30 4216 H 401.462 -0.641556 -0.382642 0
M  V30 4217 H 404.124 -1.92163 -0.325489 0
M  V30 4218 H 403.22 -2.63129 -1.67838 0
M  V30 4219 N 403.521 0.559213 -1.47345 0
M  V30 4220 C 404.768 1.31648 -1.53867 0
M  V30 4221 C 405.096 1.93468 -0.200104 0
M  V30 4222 O 404.351 1.78295 0.806799 0
M  V30 4223 C 404.65 2.44853 -2.6035 0
M  V30 4224 C 404.316 2.00876 -4.03683 0
M  V30 4225 C 402.978 1.88599 -4.42701 0
M  V30 4226 C 405.33 1.67279 -4.93626 0
M  V30 4227 C 402.658 1.41017 -5.69501 0
M  V30 4228 C 405.01 1.21169 -6.20887 0
M  V30 4229 C 403.674 1.07487 -6.58789 0
M  V30 4230 H 402.944 0.481734 -0.56304 0
M  V30 4231 H 405.591 0.627301 -1.80934 0
M  V30 4232 H 403.896 3.19318 -2.27032 0
M  V30 4233 H 405.593 3.03039 -2.62619 0
M  V30 4234 H 402.183 2.11374 -3.72853 0
M  V30 4235 H 406.367 1.75638 -4.64182 0
M  V30 4236 H 401.623 1.29086 -5.97618 0
M  V30 4237 H 405.797 0.942345 -6.89995 0
M  V30 4238 H 403.424 0.703946 -7.56934 0
M  V30 4239 N 404.999 1.35443 0.805782 0
M  V30 4240 C 405.962 1.28301 1.89925 0
M  V30 4241 C 406.962 0.194285 1.59622 0
M  V30 4242 O 408.152 0.448036 1.6834 0
M  V30 4243 C 405.284 0.984997 3.2636 0
M  V30 4244 H 406.477 2.2553 1.97677 0
M  V30 4245 H 404.03 1.19979 1.00173 0
M  V30 4246 H 404.765 0.016603 3.24296 0
M  V30 4247 H 404.55 1.77269 3.4974 0
M  V30 4248 H 406.04 0.960651 4.064 0
M  V30 4249 N 406.477 -1.02803 1.19454 0
M  V30 4250 C 407.754 -1.73299 0.907013 0
M  V30 4251 C 408.134 -2.02772 -0.587086 0
M  V30 4252 O 407.482 -1.68304 -1.54551 0
M  V30 4253 C 407.692 -3.00912 1.76785 0
M  V30 4254 C 409.04 -3.74403 2.00268 0
M  V30 4255 O 410.064 -3.10841 1.73943 0
M  V30 4256 O 408.923 -4.88675 2.4466 0
M  V30 4257 H 406.017 -0.754727 0.338106 0
M  V30 4258 H 408.563 -1.08754 1.30271 0
M  V30 4259 H 407.335 -2.75366 2.7801 0
M  V30 4260 H 406.958 -3.73197 1.37149 0
M  V30 4261 N 407.956 -0.998596 -1.21925 0
M  V30 4262 C 408.919 -0.558679 -2.22287 0
M  V30 4263 C 409.919 0.361525 -1.56683 0
M  V30 4264 O 411.109 0.152695 -1.73529 0
M  V30 4265 C 408.241 0.18661 -3.40389 0
M  V30 4266 H 409.434 -1.4463 -2.62721 0
M  V30 4267 H 406.987 -0.786413 -1.35075 0
M  V30 4268 H 407.722 1.08996 -3.05435 0
M  V30 4269 H 407.507 -0.474188 -3.89222 0
M  V30 4270 H 408.997 0.482367 -4.14805 0
M  V30 4271 N 409.434 1.37368 -0.772513 0
M  V30 4272 C 410.662 2.03942 -0.348588 0
M  V30 4273 C 411.077 1.58264 1.02947 0
M  V30 4274 O 410.434 0.764246 1.65727 0
M  V30 4275 C 410.485 3.5946 -0.38351 0
M  V30 4276 O 410.206 4.03468 -1.70721 0
M  V30 4277 C 411.707 4.4327 0.0519152 0
M  V30 4278 H 408.927 0.654931 -0.145966 0
M  V30 4279 H 411.471 1.75686 -1.04665 0
M  V30 4280 H 409.626 3.86486 0.265978 0
M  V30 4281 H 410.04 4.97991 -1.64636 0
M  V30 4282 H 411.514 5.51995 -0.0236733 0
M  V30 4283 H 411.991 4.2514 1.10238 0
M  V30 4284 H 412.597 4.21471 -0.569415 0
M  V30 4285 N 410.912 0.523116 1.48665 0
M  V30 4286 C 411.862 -0.263106 2.26477 0
M  V30 4287 C 412.846 -0.916005 1.32281 0
M  V30 4288 O 414.038 -0.819946 1.56863 0
M  V30 4289 C 411.167 -1.31361 3.17174 0
M  V30 4290 C 410.253 -0.665849 4.1884 0
M  V30 4291 N 410.644 0.244434 5.05209 0
M  V30 4292 C 408.942 -0.923863 4.36326 0
M  V30 4293 C 409.643 0.617443 5.78414 0
M  V30 4294 N 408.619 -0.0198686 5.43596 0
M  V30 4295 H 412.421 0.437295 2.90629 0
M  V30 4296 H 409.935 0.340675 1.58787 0
M  V30 4297 H 411.932 -1.89052 3.71571 0
M  V30 4298 H 410.592 -2.01546 2.54576 0
M  V30 4299 H 411.603 0.616621 5.14216 0
M  V30 4300 H 408.28 -1.6168 3.84923 0
M  V30 4301 H 409.67 1.36346 6.57921 0
M  V30 4302 N 412.39 -1.55475 0.257931 0
M  V30 4303 C 413.3 -2.2549 -0.647425 0
M  V30 4304 C 414.316 -1.2748 -1.18427 0
M  V30 4305 O 415.492 -1.6038 -1.2182 0
M  V30 4306 C 412.557 -2.94916 -1.82278 0
M  V30 4307 C 411.618 -4.08363 -1.32432 0
M  V30 4308 C 410.851 -4.74469 -2.44366 0
M  V30 4309 O 411.074 -4.39701 -3.63344 0
M  V30 4310 O 410.008 -5.62763 -2.13497 0
M  V30 4311 H 413.834 -3.03593 -0.0807707 0
M  V30 4312 H 411.419 -1.49377 0.0259962 0
M  V30 4313 H 413.301 -3.38606 -2.50846 0
M  V30 4314 H 411.976 -2.19744 -2.37685 0
M  V30 4315 H 410.883 -3.69166 -0.605605 0
M  V30 4316 H 412.216 -4.85385 -0.816211 0
M  V30 4317 N 413.868 0.0150385 -1.57593 0
M  V30 4318 C 415.093 0.718067 -1.94573 0
M  V30 4319 C 415.518 1.6734 -0.859005 0
M  V30 4320 O 414.876 1.80362 0.184147 0
M  V30 4321 C 414.924 1.43918 -3.30636 0
M  V30 4322 O 414.028 2.55299 -3.23876 0
M  V30 4323 H 413.369 0.192125 -0.635597 0
M  V30 4324 H 415.899 -0.0336708 -2.04572 0
M  V30 4325 H 415.909 1.80598 -3.65853 0
M  V30 4326 H 414.584 0.738619 -4.09289 0
M  V30 4327 H 413.161 2.21058 -3.00312 0
M  V30 4328 N 415.346 1.54954 0.287554 0
M  V30 4329 C 416.595 1.74081 1.01877 0
M  V30 4330 C 416.908 0.541135 1.87966 0
M  V30 4331 O 418.114 0.614491 2.64455 0
M  V30 4332 C 416.57 3.08042 1.86113 0
M  V30 4333 C 416.178 4.35531 1.04961 0
M  V30 4334 C 417.922 3.36523 2.58752 0
M  V30 4335 C 415.829 5.60538 1.88551 0
M  V30 4336 H 414.759 0.64884 0.384087 0
M  V30 4337 H 417.41 1.81426 0.275101 0
M  V30 4338 H 415.792 2.94696 2.64519 0
M  V30 4339 H 416.966 4.59751 0.31074 0
M  V30 4340 H 415.281 4.14085 0.43843 0
M  V30 4341 H 417.878 4.27122 3.21668 0
M  V30 4342 H 418.221 2.56 3.28283 0
M  V30 4343 H 418.754 3.50901 1.87386 0
M  V30 4344 H 415.493 6.43767 1.23466 0
M  V30 4345 H 415.013 5.40483 2.60074 0
M  V30 4346 H 416.692 5.98297 2.46273 0
M  V30 4347 N 416.824 -0.551391 1.4764 0
M  V30 4348 C 417.734 -1.68525 1.63207 0
M  V30 4349 C 418.75 -1.6621 0.514815 0
M  V30 4350 O 419.926 -1.85551 0.783113 0
M  V30 4351 C 416.991 -3.05025 1.64805 0
M  V30 4352 C 416.052 -3.18362 2.88 0
M  V30 4353 C 415.285 -4.4835 2.89513 0
M  V30 4354 O 415.508 -5.34163 2.00065 0
M  V30 4355 O 414.442 -4.65602 3.81443 0
M  V30 4356 H 418.268 -1.58333 2.59161 0
M  V30 4357 H 415.853 -0.722063 1.30792 0
M  V30 4358 H 417.735 -3.86245 1.68502 0
M  V30 4359 H 416.41 -3.15587 0.720197 0
M  V30 4360 H 415.317 -2.36518 2.89845 0
M  V30 4361 H 416.65 -3.12707 3.80099 0
M  V30 4362 N 418.302 -1.35869 -0.798587 0
M  V30 4363 C 419.53 -1.32722 -1.58722 0
M  V30 4364 C 419.945 0.0935631 -1.88568 0
M  V30 4365 O 419.302 1.04784 -1.49421 0
M  V30 4366 C 419.353 -2.13974 -2.91371 0
M  V30 4367 O 419.074 -3.50514 -2.62815 0
M  V30 4368 C 420.575 -2.18504 -3.85708 0
M  V30 4369 H 417.795 -0.45562 -0.492596 0
M  V30 4370 H 420.339 -1.78837 -0.991843 0
M  V30 4371 H 418.494 -1.71438 -3.47402 0
M  V30 4372 H 418.908 -3.92806 -3.47568 0
M  V30 4373 H 420.382 -2.79732 -4.75872 0
M  V30 4374 H 420.859 -1.18597 -4.22885 0
M  V30 4375 H 421.465 -2.61236 -3.35612 0
M  V30 4376 N 419.78 1.02168 -1.19998 0
M  V30 4377 C 421.191 1.57135 -1.00825 0
M  V30 4378 C 421.542 1.91276 0.436818 0
M  V30 4379 O 420.667 1.71679 1.3174 0
M  V30 4380 C 421.262 2.85514 -1.82393 0
M  V30 4381 C 419.821 3.37027 -1.67601 0
M  V30 4382 C 418.968 2.10388 -1.80644 0
M  V30 4383 H 421.919 0.846106 -1.34264 0
M  V30 4384 H 421.94 3.56711 -1.32429 0
M  V30 4385 H 421.452 2.60634 -2.87561 0
M  V30 4386 H 419.553 3.66878 -0.650485 0
M  V30 4387 H 419.666 4.09572 -2.4857 0
M  V30 4388 H 418.03 2.22601 -1.23778 0
M  V30 4389 H 418.813 1.8794 -2.87286 0
M  V30 4390 N 421.258 1.00505 1.21394 0
M  V30 4391 C 422.206 0.558623 2.25792 0
M  V30 4392 C 423.2 -0.396848 1.64686 0
M  V30 4393 O 424.406 -0.268035 1.77993 0
M  V30 4394 H 420.781 0.1623 0.734277 0
M  V30 4395 H 422.752 1.4503 2.60785 0
M  V30 4396 C 421.501 -0.0989574 3.47559 0
M  V30 4397 H 420.824 0.627225 3.94849 0
M  V30 4398 H 422.264 -0.3746 4.22342 0
M  V30 4399 C 420.723 -1.33817 3.09184 0
M  V30 4400 O 421.253 -2.43252 3.19674 0
M  V30 4401 N 419.459 -1.21793 2.63846 0
M  V30 4402 H 419.006 -0.32746 2.5551 0
M  V30 4403 H 418.964 -2.04809 2.38539 0
M  V30 4404 N 422.737 -1.36956 0.779787 0
M  V30 4405 C 423.985 -1.99097 0.347079 0
M  V30 4406 C 424.306 -1.62206 -1.08232 0
M  V30 4407 O 423.576 -0.891373 -1.74446 0
M  V30 4408 H 422.156 -0.736409 0.125342 0
M  V30 4409 H 424.818 -1.67308 0.999696 0
M  V30 4410 H 423.914 -3.09107 0.431162 0
M  V30 4411 N 424.215 -0.530993 -1.48385 0
M  V30 4412 C 425.443 -0.00134122 -2.069 0
M  V30 4413 C 425.858 1.2805 -1.3874 0
M  V30 4414 O 425.215 1.76204 -0.475244 0
M  V30 4415 C 425.266 0.225256 -3.60798 0
M  V30 4416 O 424.987 -1.0058 -4.26398 0
M  V30 4417 C 426.488 0.795172 -4.3611 0
M  V30 4418 H 423.708 -0.0339704 -0.67014 0
M  V30 4419 H 426.252 -0.736926 -1.90761 0
M  V30 4420 H 424.407 0.910891 -3.76539 0
M  V30 4421 H 424.821 -0.787165 -5.1856 0
M  V30 4422 H 426.295 0.903143 -5.44562 0
M  V30 4423 H 426.772 1.80031 -4.00606 0
M  V30 4424 H 427.378 0.146069 -4.25049 0
M  V30 4425 N 425.693 1.55336 -0.266172 0
M  V30 4426 C 426.939 1.99692 0.353681 0
M  V30 4427 C 427.272 1.1543 1.56172 0
M  V30 4428 O 426.547 0.222218 1.93226 0
M  V30 4429 C 426.83 3.52316 0.74466 0
M  V30 4430 C 426.683 4.47337 -0.470101 0
M  V30 4431 C 428.002 4.10588 1.58447 0
M  V30 4432 H 425.121 0.725961 0.12708 0
M  V30 4433 H 427.763 1.86336 -0.371333 0
M  V30 4434 H 425.913 3.63829 1.36239 0
M  V30 4435 H 427.585 4.4778 -1.10864 0
M  V30 4436 H 425.828 4.19364 -1.10978 0
M  V30 4437 H 426.499 5.51788 -0.15291 0
M  V30 4438 H 428.975 4.02297 1.06286 0
M  V30 4439 H 427.851 5.17607 1.82686 0
M  V30 4440 H 428.112 3.60253 2.56262 0
M  V30 4441 N 427.171 -0.0066808 1.57599 0
M  V30 4442 C 428.101 -0.999296 2.11036 0
M  V30 4443 C 429.082 -1.36278 1.01795 0
M  V30 4444 O 430.267 -1.4477 1.29442 0
M  V30 4445 C 427.397 -2.29328 2.60818 0
M  V30 4446 C 426.351 -2.07159 3.74525 0
M  V30 4447 C 425.677 -3.42512 4.10596 0
M  V30 4448 C 426.977 -1.43959 5.02069 0
M  V30 4449 H 428.671 -0.554382 2.94223 0
M  V30 4450 H 426.217 -0.265221 1.41536 0
M  V30 4451 H 428.17 -2.99117 2.96828 0
M  V30 4452 H 426.894 -2.7592 1.74745 0
M  V30 4453 H 425.553 -1.39797 3.38899 0
M  V30 4454 H 425.201 -3.86795 3.21556 0
M  V30 4455 H 424.901 -3.28498 4.87199 0
M  V30 4456 H 426.425 -4.13628 4.4916 0
M  V30 4457 H 427.839 -2.03696 5.35893 0
M  V30 4458 H 426.236 -1.40452 5.83432 0
M  V30 4459 H 427.306 -0.407992 4.83181 0
M  V30 4460 N 428.649 -1.55105 -0.279332 0
M  V30 4461 C 429.579 -1.90557 -1.34945 0
M  V30 4462 C 430.56 -0.766738 -1.51839 0
M  V30 4463 O 431.745 -1.02434 -1.64988 0
M  V30 4464 C 428.875 -2.17193 -2.71006 0
M  V30 4465 C 427.829 -3.33021 -2.68851 0
M  V30 4466 C 427.155 -3.45123 -4.08405 0
M  V30 4467 C 428.455 -4.69578 -2.28678 0
M  V30 4468 H 430.149 -2.80188 -1.05522 0
M  V30 4469 H 427.695 -1.34811 -0.506173 0
M  V30 4470 H 429.648 -2.40581 -3.45975 0
M  V30 4471 H 428.372 -1.24355 -3.01999 0
M  V30 4472 H 427.031 -3.0959 -1.9634 0
M  V30 4473 H 426.679 -2.49762 -4.3661 0
M  V30 4474 H 426.379 -4.22995 -4.07859 0
M  V30 4475 H 427.903 -3.70796 -4.85121 0
M  V30 4476 H 429.317 -4.92553 -2.93368 0
M  V30 4477 H 427.714 -5.5032 -2.39306 0
M  V30 4478 H 428.784 -4.68828 -1.23807 0
M  V30 4479 N 430.127 0.543554 -1.4793 0
M  V30 4480 C 431.543 0.870806 -1.3375 0
M  V30 4481 C 431.743 1.9864 -0.338261 0
M  V30 4482 O 430.799 2.51305 0.245371 0
M  V30 4483 C 432.112 1.25114 -2.73435 0
M  V30 4484 C 433.66 1.3618 -2.81823 0
M  V30 4485 C 434.135 1.77563 -4.22179 0
M  V30 4486 N 435.626 1.8469 -4.24787 0
M  V30 4487 C 436.361 2.18067 -5.30315 0
M  V30 4488 N 435.857 2.49963 -6.46135 0
M  V30 4489 N 437.65 2.18958 -5.17701 0
M  V30 4490 H 429.801 -0.19275 -2.11524 0
M  V30 4491 H 432.064 -0.0235777 -0.947707 0
M  V30 4492 H 431.77 0.50514 -3.48053 0
M  V30 4493 H 431.644 2.20431 -3.06088 0
M  V30 4494 H 434.031 2.09859 -2.07468 0
M  V30 4495 H 434.112 0.390169 -2.52807 0
M  V30 4496 H 433.756 1.04449 -4.97044 0
M  V30 4497 H 433.686 2.75753 -4.48629 0
M  V30 4498 H 436.177 1.62372 -3.41239 0
M  V30 4499 H 436.49 2.74497 -7.22406 0
M  V30 4500 H 434.835 2.47513 -6.49432 0
M  V30 4501 H 438.026 1.93488 -4.2624 0
M  V30 4502 H 438.199 2.44639 -6.00047 0
M  V30 4503 N 431.605 1.3629 0.791371 0
M  V30 4504 C 432.851 1.30605 1.55146 0
M  V30 4505 C 433.184 -0.115042 1.93859 0
M  V30 4506 O 432.459 -1.06798 1.62556 0
M  V30 4507 C 432.742 2.22692 2.82985 0
M  V30 4508 C 432.595 3.73489 2.50651 0
M  V30 4509 C 433.914 2.13588 3.84796 0
M  V30 4510 H 431.033 0.475761 0.562868 0
M  V30 4511 H 433.675 1.66825 0.909358 0
M  V30 4512 H 431.825 1.91933 3.37778 0
M  V30 4513 H 433.497 4.14758 2.01924 0
M  V30 4514 H 431.74 3.93021 1.83622 0
M  V30 4515 H 432.411 4.3333 3.41949 0
M  V30 4516 H 434.887 2.40659 3.39445 0
M  V30 4517 H 433.763 2.80195 4.71998 0
M  V30 4518 H 434.024 1.12256 4.27611 0
M  V30 4519 N 433.083 -1.0153 1.20538 0
M  V30 4520 C 434.331 -1.74803 1.01432 0
M  V30 4521 C 434.652 -1.8963 -0.454456 0
M  V30 4522 O 433.922 -1.43975 -1.32846 0
M  V30 4523 H 432.502 -0.647598 0.372324 0
M  V30 4524 H 435.164 -1.22402 1.5167 0
M  V30 4525 H 434.26 -2.75114 1.47373 0
M  V30 4526 N 434.561 -1.01147 -1.20859 0
M  V30 4527 C 435.508 -0.577354 -2.23462 0
M  V30 4528 C 436.478 0.399922 -1.61214 0
M  V30 4529 O 437.663 0.300515 -1.88419 0
M  V30 4530 C 434.803 0.083372 -3.44999 0
M  V30 4531 C 433.916 -0.937856 -4.21697 0
M  V30 4532 C 433.051 -0.248717 -5.30617 0
M  V30 4533 C 432.09 -1.25705 -5.99053 0
M  V30 4534 N 431.227 -0.594939 -6.99575 0
M  V30 4535 H 436.067 -1.45695 -2.59956 0
M  V30 4536 H 433.604 -0.729428 -1.27741 0
M  V30 4537 H 435.562 0.483535 -4.14388 0
M  V30 4538 H 434.192 0.926645 -3.09214 0
M  V30 4539 H 433.244 -1.45622 -3.51423 0
M  V30 4540 H 434.556 -1.70493 -4.68757 0
M  V30 4541 H 433.71 0.207215 -6.06346 0
M  V30 4542 H 432.449 0.55071 -4.84581 0
M  V30 4543 H 431.454 -1.72343 -5.2209 0
M  V30 4544 H 432.679 -2.05767 -6.47176 0
M  V30 4545 H 430.625 0.184713 -6.5574 0
M  V30 4546 H 430.542 -1.30017 -7.44736 0
M  V30 4547 H 431.81 -0.162427 -7.79331 0
M  V30 4548 N 436.039 1.36541 -0.78704 0
M  V30 4549 C 437.264 2.0409 -0.369053 0
M  V30 4550 C 437.689 1.58957 1.00569 0
M  V30 4551 O 437.047 0.756926 1.64743 0
M  V30 4552 C 437.095 3.57924 -0.438466 0
M  V30 4553 O 436.199 4.08642 0.555479 0
M  V30 4554 H 435.54 0.645142 -0.157122 0
M  V30 4555 H 438.07 1.74545 -1.06749 0
M  V30 4556 H 438.08 4.06887 -0.301218 0
M  V30 4557 H 436.755 3.90127 -1.44132 0
M  V30 4558 H 435.332 3.70958 0.380088 0
M  V30 4559 N 437.518 0.538854 1.48102 0
M  V30 4560 C 438.466 -0.232325 2.31437 0
M  V30 4561 C 439.46 -0.927004 1.41785 0
M  V30 4562 O 440.666 -0.850378 1.58646 0
M  V30 4563 H 437.041 -0.0937916 0.746128 0
M  V30 4564 H 439.012 0.489986 2.9435 0
M  V30 4565 C 437.761 -1.26074 3.24038 0
M  V30 4566 H 437.084 -0.735609 3.92974 0
M  V30 4567 H 438.524 -1.77157 3.85216 0
M  V30 4568 C 436.983 -2.29902 2.46265 0
M  V30 4569 O 437.513 -3.36502 2.19384 0
M  V30 4570 N 435.719 -2.03348 2.07601 0
M  V30 4571 H 435.266 -1.16675 2.29662 0
M  V30 4572 H 435.224 -2.73038 1.55877 0
M  V30 4573 N 438.996 -1.55193 0.274407 0
M  V30 4574 C 440.226 -2.03692 -0.345442 0
M  V30 4575 C 440.634 -1.15224 -1.50067 0
M  V30 4576 O 439.977 -0.164749 -1.8296 0
M  V30 4577 C 440.039 -3.48325 -0.88939 0
M  V30 4578 C 439.703 -4.56794 0.137115 0
M  V30 4579 C 440.7 -5.11028 0.956378 0
M  V30 4580 C 438.385 -5.01568 0.27115 0
M  V30 4581 C 440.379 -6.08552 1.89587 0
M  V30 4582 C 438.066 -5.98918 1.21412 0
M  V30 4583 C 439.064 -6.52291 2.02498 0
M  V30 4584 O 438.752 -7.47738 2.952 0
M  V30 4585 H 438.484 -0.670893 -0.0829332 0
M  V30 4586 H 441.038 -2.01387 0.404056 0
M  V30 4587 H 439.268 -3.47867 -1.68895 0
M  V30 4588 H 440.957 -3.80167 -1.42225 0
M  V30 4589 H 441.723 -4.7725 0.863559 0
M  V30 4590 H 437.602 -4.5967 -0.349987 0
M  V30 4591 H 441.146 -6.50137 2.52918 0
M  V30 4592 H 437.043 -6.32114 1.30776 0
M  V30 4593 H 437.811 -7.65451 2.89874 0
M  V30 4594 N 440.474 -0.00167713 -1.576 0
M  V30 4595 C 441.89 0.354422 -1.55615 0
M  V30 4596 C 442.09 1.74679 -1.00447 0
M  V30 4597 O 441.146 2.4428 -0.639022 0
M  V30 4598 C 442.459 0.22812 -2.99833 0
M  V30 4599 C 444.007 0.302934 -3.11531 0
M  V30 4600 C 444.482 0.205737 -4.57538 0
M  V30 4601 N 445.973 0.263584 -4.62449 0
M  V30 4602 C 446.708 0.211742 -5.73009 0
M  V30 4603 N 446.204 0.110399 -6.92712 0
M  V30 4604 N 447.997 0.263729 -5.61481 0
M  V30 4605 H 440.148 -0.912498 -1.918 0
M  V30 4606 H 442.411 -0.349928 -0.881053 0
M  V30 4607 H 442.117 -0.729934 -3.44042 0
M  V30 4608 H 441.991 1.00951 -3.6344 0
M  V30 4609 H 444.378 1.25143 -2.67251 0
M  V30 4610 H 444.459 -0.508357 -2.50698 0
M  V30 4611 H 444.103 -0.739225 -5.02492 0
M  V30 4612 H 444.033 1.03554 -5.16318 0
M  V30 4613 H 446.524 0.343173 -3.76339 0
M  V30 4614 H 446.837 0.0767828 -7.72762 0
M  V30 4615 H 445.182 0.0760025 -6.94958 0
M  V30 4616 H 448.373 0.34111 -4.66855 0
M  V30 4617 H 448.546 0.219862 -6.47627 0
M  V30 4618 N 441.952 1.55251 0.271103 0
M  V30 4619 C 443.368 1.47133 0.618393 0
M  V30 4620 C 443.568 0.686994 1.89427 0
M  V30 4621 O 442.624 0.206609 2.51653 0
M  V30 4622 C 443.937 2.91361 0.743593 0
M  V30 4623 C 445.485 3.01587 0.837522 0
M  V30 4624 C 445.96 4.47073 0.994483 0
M  V30 4625 N 447.451 4.50909 1.05996 0
M  V30 4626 C 448.186 5.60698 1.20024 0
M  V30 4627 N 447.682 6.80348 1.30759 0
M  V30 4628 N 449.475 5.48444 1.23149 0
M  V30 4629 H 441.626 2.04698 -0.566784 0
M  V30 4630 H 443.889 0.928319 -0.192165 0
M  V30 4631 H 443.595 3.51483 -0.123493 0
M  V30 4632 H 443.469 3.40484 1.62328 0
M  V30 4633 H 445.856 2.4156 1.69507 0
M  V30 4634 H 445.937 2.55713 -0.0668086 0
M  V30 4635 H 445.581 5.07703 0.141582 0
M  V30 4636 H 445.511 4.90605 1.91349 0
M  V30 4637 H 448.002 3.6472 0.989316 0
M  V30 4638 H 448.315 7.59772 1.41303 0
M  V30 4639 H 446.66 6.83156 1.27761 0
M  V30 4640 H 449.851 4.53907 1.14394 0
M  V30 4641 H 450.024 6.34049 1.33738 0
M  V30 4642 N 443.43 -0.535701 1.48216 0
M  V30 4643 C 444.707 -1.29683 1.46429 0
M  V30 4644 C 445.087 -2.10391 0.172852 0
M  V30 4645 O 444.435 -2.12282 -0.845488 0
M  V30 4646 C 444.645 -2.18313 2.72287 0
M  V30 4647 C 445.993 -2.78639 3.20383 0
M  V30 4648 O 447.017 -2.28604 2.73164 0
M  V30 4649 O 445.876 -3.69636 4.02531 0
M  V30 4650 H 442.97 -0.585026 0.584529 0
M  V30 4651 H 445.516 -0.552827 1.60443 0
M  V30 4652 H 444.288 -1.58421 3.57797 0
M  V30 4653 H 443.911 -2.99971 2.60966 0
M  V30 4654 N 444.908 -1.36708 -0.784132 0
M  V30 4655 C 446.185 -1.21776 -1.53069 0
M  V30 4656 C 446.565 0.193876 -2.10208 0
M  V30 4657 O 445.913 1.20012 -1.94446 0
M  V30 4658 C 446.123 -2.30395 -2.62143 0
M  V30 4659 C 447.471 -2.67325 -3.29882 0
M  V30 4660 O 448.495 -2.29478 -2.7243 0
M  V30 4661 O 447.354 -3.32485 -4.33724 0
M  V30 4662 H 444.448 -0.474459 -0.677361 0
M  V30 4663 H 446.994 -1.48454 -0.82216 0
M  V30 4664 H 445.766 -3.2498 -2.17953 0
M  V30 4665 H 445.389 -2.05112 -3.40609 0
M  V30 4666 N 446.386 1.0089 -1.21074 0
M  V30 4667 C 447.634 1.74262 -1.02358 0
M  V30 4668 C 447.955 1.89869 0.444393 0
M  V30 4669 O 447.225 1.44677 1.32081 0
M  V30 4670 H 445.805 0.645615 -0.375754 0
M  V30 4671 H 448.467 1.21596 -1.52317 0
M  V30 4672 H 447.563 2.74328 -1.4883 0
M  V30 4673 N 447.864 1.01787 1.20321 0
M  V30 4674 C 449.11 0.708985 1.90003 0
M  V30 4675 C 449.443 -0.759572 1.78729 0
M  V30 4676 O 448.718 -1.55198 1.17234 0
M  V30 4677 C 449.001 1.1469 3.41348 0
M  V30 4678 C 448.854 2.67586 3.61549 0
M  V30 4679 C 450.173 0.71915 4.34185 0
M  V30 4680 H 447.292 0.259034 0.689978 0
M  V30 4681 H 449.934 1.26584 1.41692 0
M  V30 4682 H 448.084 0.673128 3.82624 0
M  V30 4683 H 449.756 3.22826 3.29517 0
M  V30 4684 H 447.999 3.085 3.04976 0
M  V30 4685 H 448.67 2.93281 4.67643 0
M  V30 4686 H 451.146 1.12647 4.00562 0
M  V30 4687 H 450.022 1.05358 5.38694 0
M  V30 4688 H 450.283 -0.379111 4.40472 0
M  V30 4689 N 449.342 -1.36122 0.79427 0
M  V30 4690 C 450.292 -2.27373 0.169017 0
M  V30 4691 C 451.276 -1.4719 -0.649913 0
M  V30 4692 O 452.468 -1.69518 -0.50919 0
M  V30 4693 C 449.597 -3.36264 -0.691455 0
M  V30 4694 C 448.683 -4.2388 0.13653 0
M  V30 4695 N 449.074 -4.91519 1.19345 0
M  V30 4696 C 447.372 -4.45921 -0.0838499 0
M  V30 4697 C 448.073 -5.56369 1.6979 0
M  V30 4698 N 447.049 -5.34204 1.00634 0
M  V30 4699 H 450.851 -2.77154 0.977897 0
M  V30 4700 H 448.365 -1.49504 0.634208 0
M  V30 4701 H 450.362 -4.00572 -1.15534 0
M  V30 4702 H 449.022 -2.88037 -1.49883 0
M  V30 4703 H 450.033 -4.9334 1.57594 0
M  V30 4704 H 446.71 -4.08518 -0.861341 0
M  V30 4705 H 448.1 -6.20368 2.58055 0
M  V30 4706 N 450.82 -0.546701 -1.47814 0
M  V30 4707 C 452.066 -0.0187684 -2.02791 0
M  V30 4708 C 452.399 1.32338 -1.42128 0
M  V30 4709 O 451.674 1.85867 -0.573023 0
M  V30 4710 C 451.957 0.0854985 -3.59998 0
M  V30 4711 C 451.81 -1.283 -4.31114 0
M  V30 4712 C 453.129 0.80412 -4.32691 0
M  V30 4713 H 450.248 -0.0082946 -0.736953 0
M  V30 4714 H 452.89 -0.706962 -1.76358 0
M  V30 4715 H 451.04 0.671609 -3.82651 0
M  V30 4716 H 452.712 -1.91151 -4.19832 0
M  V30 4717 H 450.955 -1.86049 -3.91878 0
M  V30 4718 H 451.626 -1.16287 -5.39612 0
M  V30 4719 H 454.102 0.306576 -4.14969 0
M  V30 4720 H 452.978 0.846011 -5.42341 0
M  V30 4721 H 453.239 1.85802 -4.01161 0
M  V30 4722 N 452.299 1.55045 -0.282633 0
M  V30 4723 C 453.527 2.04168 0.33512 0
M  V30 4724 C 453.942 1.16071 1.48906 0
M  V30 4725 O 453.299 0.182391 1.81586 0
M  V30 4726 C 453.35 3.52332 0.808957 0
M  V30 4727 O 453.071 4.37078 -0.299038 0
M  V30 4728 C 454.572 4.17375 1.49375 0
M  V30 4729 H 451.792 0.666744 0.0754543 0
M  V30 4730 H 454.336 2.00205 -0.416918 0
M  V30 4731 H 452.491 3.56715 1.51106 0
M  V30 4732 H 452.905 5.24458 0.0665514 0
M  V30 4733 H 454.379 5.22627 1.77664 0
M  V30 4734 H 454.856 3.65999 2.42778 0
M  V30 4735 H 455.462 4.17016 0.835305 0
M  V30 4736 N 453.777 0.010035 1.57597 0
M  V30 4737 C 455.005 -0.683413 1.95287 0
M  V30 4738 C 455.42 -1.66747 0.885481 0
M  V30 4739 O 454.777 -1.82003 -0.134629 0
M  V30 4740 C 454.828 -1.40652 3.33015 0
M  V30 4741 O 454.549 -0.461916 4.35658 0
M  V30 4742 C 456.05 -2.19356 3.85225 0
M  V30 4743 H 453.27 -0.189708 0.643624 0
M  V30 4744 H 455.814 0.0641359 2.04399 0
M  V30 4745 H 453.969 -2.10562 3.2518 0
M  V30 4746 H 454.383 -0.973215 5.15392 0
M  V30 4747 H 455.857 -2.65433 4.83993 0
M  V30 4748 H 456.334 -3.02457 3.18459 0
M  V30 4749 H 456.94 -1.54442 3.96267 0
M  V30 4750 N 455.255 -1.55392 -0.262866 0
M  V30 4751 C 456.504 -1.75679 -0.990943 0
M  V30 4752 C 456.817 -0.57097 -1.87081 0
M  V30 4753 O 458.023 -0.656486 -2.63444 0
M  V30 4754 C 456.479 -3.10964 -1.81188 0
M  V30 4755 C 456.087 -4.37146 -0.980188 0
M  V30 4756 C 457.831 -3.40597 -2.53365 0
M  V30 4757 C 455.738 -5.63466 -1.7961 0
M  V30 4758 H 454.668 -0.654868 -0.373716 0
M  V30 4759 H 457.319 -1.81841 -0.246203 0
M  V30 4760 H 455.701 -2.98867 -2.59797 0
M  V30 4761 H 456.875 -4.60187 -0.237558 0
M  V30 4762 H 455.19 -4.14731 -0.372497 0
M  V30 4763 H 457.787 -4.32186 -3.14833 0
M  V30 4764 H 458.13 -2.6119 -3.24169 0
M  V30 4765 H 458.663 -3.53838 -1.81779 0
M  V30 4766 H 455.402 -6.4565 -1.13209 0
M  V30 4767 H 454.922 -5.44552 -2.51443 0
M  V30 4768 H 456.601 -6.02139 -2.36723 0
M  V30 4769 N 456.733 0.527833 -1.48498 0
M  V30 4770 C 458.149 0.856571 -1.34666 0
M  V30 4771 C 458.349 1.98271 -0.35931 0
M  V30 4772 O 457.405 2.51551 0.218703 0
M  V30 4773 C 458.718 1.22207 -2.74747 0
M  V30 4774 C 460.266 1.33183 -2.83251 0
M  V30 4775 C 460.741 1.73075 -4.24039 0
M  V30 4776 N 462.232 1.80174 -4.26722 0
M  V30 4777 C 462.967 2.1243 -5.32598 0
M  V30 4778 N 462.463 2.43096 -6.4875 0
M  V30 4779 N 464.256 2.13454 -5.19994 0
M  V30 4780 H 456.407 -0.215174 -2.11307 0
M  V30 4781 H 458.67 -0.0336281 -0.947403 0
M  V30 4782 H 458.376 0.468195 -3.4857 0
M  V30 4783 H 458.25 2.17173 -3.08409 0
M  V30 4784 H 460.637 2.07647 -2.09683 0
M  V30 4785 H 460.718 0.363333 -2.53206 0
M  V30 4786 H 460.362 0.991712 -4.98124 0
M  V30 4787 H 460.292 2.70979 -4.51529 0
M  V30 4788 H 462.783 1.58744 -3.42942 0
M  V30 4789 H 463.096 2.6682 -7.25277 0
M  V30 4790 H 461.441 2.40611 -6.52021 0
M  V30 4791 H 464.632 1.88956 -4.28268 0
M  V30 4792 H 464.805 2.38261 -6.02608 0
M  V30 4793 N 458.211 1.37122 0.776871 0
M  V30 4794 C 459.488 1.22586 1.52421 0
M  V30 4795 C 459.868 -0.182726 2.10308 0
M  V30 4796 O 459.216 -1.18979 1.9508 0
M  V30 4797 C 459.426 2.31782 2.60918 0
M  V30 4798 C 460.774 2.69071 3.2846 0
M  V30 4799 O 461.798 2.3092 2.71209 0
M  V30 4800 O 460.657 3.3478 4.31954 0
M  V30 4801 H 457.751 0.478045 0.674835 0
M  V30 4802 H 460.297 1.48888 0.814275 0
M  V30 4803 H 459.069 3.26131 2.16227 0
M  V30 4804 H 458.692 2.06916 3.39517 0
M  V30 4805 N 459.689 -1.00246 1.21608 0
M  V30 4806 C 460.639 -2.07492 0.945051 0
M  V30 4807 C 461.623 -1.60585 -0.100675 0
M  V30 4808 O 462.815 -1.76667 0.10859 0
M  V30 4809 C 459.944 -3.39425 0.514342 0
M  V30 4810 C 459.03 -3.92993 1.59428 0
M  V30 4811 N 459.421 -4.19898 2.81991 0
M  V30 4812 C 457.719 -4.21297 1.46374 0
M  V30 4813 C 458.42 -4.63297 3.51754 0
M  V30 4814 N 457.396 -4.66421 2.79199 0
M  V30 4815 H 461.198 -2.26222 1.87619 0
M  V30 4816 H 458.712 -1.18339 1.11219 0
M  V30 4817 H 460.709 -4.15808 0.301527 0
M  V30 4818 H 459.369 -3.22101 -0.410008 0
M  V30 4819 H 460.38 -4.08377 3.1851 0
M  V30 4820 H 457.057 -4.13095 0.604863 0
M  V30 4821 H 458.447 -4.92816 4.56708 0
M  V30 4822 N 461.167 -1.02423 -1.1978 0
M  V30 4823 C 462.416 -0.713265 -1.88667 0
M  V30 4824 C 462.729 0.7609 -1.80193 0
M  V30 4825 O 463.935 1.18473 -2.44288 0
M  V30 4826 C 462.391 -1.22545 -3.38394 0
M  V30 4827 C 461.999 -2.72706 -3.55437 0
M  V30 4828 C 463.743 -0.990257 -4.12788 0
M  V30 4829 C 461.65 -3.17367 -4.99031 0
M  V30 4830 H 460.58 -0.263105 -0.706606 0
M  V30 4831 H 463.231 -1.23792 -1.35454 0
M  V30 4832 H 461.613 -0.628732 -3.90977 0
M  V30 4833 H 462.787 -3.37993 -3.13205 0
M  V30 4834 H 461.102 -2.94453 -2.94425 0
M  V30 4835 H 463.699 -1.29926 -5.18675 0
M  V30 4836 H 464.042 0.0730761 -4.16236 0
M  V30 4837 H 464.575 -1.55074 -3.66329 0
M  V30 4838 H 461.314 -4.23009 -5.00743 0
M  V30 4839 H 460.834 -2.56805 -5.42044 0
M  V30 4840 H 462.513 -3.10441 -5.67658 0
M  V30 4841 N 462.645 1.35699 -0.801477 0
M  V30 4842 C 463.575 2.32436 -0.222658 0
M  V30 4843 C 464.556 1.5723 0.649057 0
M  V30 4844 O 465.741 1.85324 0.580387 0
M  V30 4845 C 462.871 3.41469 0.633719 0
M  V30 4846 C 461.825 4.27774 -0.139083 0
M  V30 4847 C 461.151 5.28082 0.838666 0
M  V30 4848 C 462.451 5.04946 -1.33517 0
M  V30 4849 H 464.145 2.81094 -1.03086 0
M  V30 4850 H 461.691 1.35146 -0.497155 0
M  V30 4851 H 463.644 4.08143 1.04868 0
M  V30 4852 H 462.368 2.91408 1.47475 0
M  V30 4853 H 461.027 3.62673 -0.535156 0
M  V30 4854 H 460.675 4.7429 1.67506 0
M  V30 4855 H 460.375 5.86695 0.32594 0
M  V30 4856 H 461.899 5.97628 1.25194 0
M  V30 4857 H 463.313 5.64593 -0.995349 0
M  V30 4858 H 461.71 5.7303 -1.78202 0
M  V30 4859 H 462.78 4.35886 -2.12442 0
M  V30 4860 N 464.123 0.554532 1.47522 0
M  V30 4861 C 465.033 -0.197865 2.33764 0
M  V30 4862 C 466.049 -0.914576 1.48025 0
M  V30 4863 O 467.225 -0.884067 1.80959 0
M  V30 4864 C 464.29 -1.21628 3.24665 0
M  V30 4865 C 463.351 -0.507283 4.26292 0
M  V30 4866 C 462.584 -1.47718 5.1285 0
M  V30 4867 O 462.807 -2.7118 5.01814 0
M  V30 4868 O 461.741 -1.00313 5.93482 0
M  V30 4869 H 465.567 0.50949 2.99396 0
M  V30 4870 H 463.152 0.315176 1.46038 0
M  V30 4871 H 465.034 -1.80421 3.80823 0
M  V30 4872 H 463.709 -1.9056 2.61665 0
M  V30 4873 H 462.616 0.121778 3.73902 0
M  V30 4874 H 463.949 0.140544 4.91999 0
M  V30 4875 N 465.601 -1.54893 0.290851 0
M  V30 4876 C 466.847 -2.0023 -0.321867 0
M  V30 4877 C 467.18 -1.179 -1.54316 0
M  V30 4878 O 466.455 -0.25293 -1.92848 0
M  V30 4879 C 466.738 -3.53456 -0.688515 0
M  V30 4880 C 466.591 -4.46532 0.541209 0
M  V30 4881 C 467.91 -4.13057 -1.51895 0
M  V30 4882 H 465.029 -0.727891 -0.115515 0
M  V30 4883 H 467.671 -1.85722 0.400931 0
M  V30 4884 H 465.821 -3.6595 -1.30433 0
M  V30 4885 H 467.493 -4.4596 1.17973 0
M  V30 4886 H 465.736 -4.17545 1.17636 0
M  V30 4887 H 466.407 -5.51475 0.240675 0
M  V30 4888 H 468.883 -4.03937 -0.99872 0
M  V30 4889 H 467.759 -5.20448 -1.74429 0
M  V30 4890 H 468.02 -3.64284 -2.50498 0
M  V30 4891 N 467.08 -0.0183926 -1.57589 0
M  V30 4892 C 468.357 0.700621 -1.82622 0
M  V30 4893 C 468.737 1.90951 -0.90005 0
M  V30 4894 O 468.085 2.28452 0.0469145 0
M  V30 4895 C 468.295 1.08899 -3.31575 0
M  V30 4896 C 469.643 1.48514 -3.9778 0
M  V30 4897 O 470.667 1.18227 -3.36007 0
M  V30 4898 O 469.526 2.04903 -5.06633 0
M  V30 4899 H 466.62 0.342743 -0.752633 0
M  V30 4900 H 469.166 -0.0452548 -1.6964 0
M  V30 4901 H 467.938 0.228113 -3.90635 0
M  V30 4902 H 467.561 1.89338 -3.49624 0
M  V30 4903 N 468.558 1.5553 0.254621 0
M  V30 4904 C 469.505 1.89666 1.31512 0
M  V30 4905 C 470.475 0.750057 1.482 0
M  V30 4906 O 471.66 1.00301 1.62309 0
M  V30 4907 C 468.8 2.19009 2.667 0
M  V30 4908 C 467.913 3.46435 2.58083 0
M  V30 4909 C 467.048 3.65386 3.85573 0
M  V30 4910 C 466.087 4.8644 3.71541 0
M  V30 4911 N 465.224 5.01952 4.90906 0
M  V30 4912 H 470.064 2.80109 1.017 0
M  V30 4913 H 467.601 1.38666 0.490938 0
M  V30 4914 H 469.559 2.34025 3.45381 0
M  V30 4915 H 468.189 1.31779 2.94676 0
M  V30 4916 H 467.241 3.39792 1.71013 0
M  V30 4917 H 468.553 4.35258 2.43622 0
M  V30 4918 H 467.707 3.80319 4.72697 0
M  V30 4919 H 466.446 2.74781 4.02922 0
M  V30 4920 H 465.451 4.71491 2.82801 0
M  V30 4921 H 466.676 5.78497 3.55694 0
M  V30 4922 H 464.622 4.14283 5.08631 0
M  V30 4923 H 464.539 5.84851 4.79046 0
M  V30 4924 H 465.807 5.21289 5.7955 0
M  V30 4925 N 470.036 -0.519951 1.48776 0
M  V30 4926 C 471.261 -1.30447 1.6124 0
M  V30 4927 C 471.686 -1.86055 0.276591 0
M  V30 4928 O 471.044 -1.64915 -0.753183 0
M  V30 4929 C 471.092 -2.42406 2.66967 0
M  V30 4930 O 470.196 -3.45728 2.24824 0
M  V30 4931 H 469.537 -0.385924 0.540332 0
M  V30 4932 H 472.067 -0.624572 1.94834 0
M  V30 4933 H 472.077 -2.88447 2.88552 0
M  V30 4934 H 470.752 -2.01294 3.63941 0
M  V30 4935 H 469.329 -3.05737 2.13494 0
M  V30 4936 N 471.514 -1.37532 -0.769588 0
M  V30 4937 C 472.762 -1.32597 -1.5252 0
M  V30 4938 C 473.083 0.0884294 -1.94799 0
M  V30 4939 O 472.353 1.03289 -1.66458 0
M  V30 4940 H 470.933 -0.487846 -0.565699 0
M  V30 4941 H 473.595 -1.72044 -0.915806 0
M  V30 4942 H 472.691 -1.96643 -2.42359 0
M  V30 4943 N 472.992 0.995999 -1.22138 0
M  V30 4944 C 474.408 1.25917 -0.980667 0
M  V30 4945 C 474.608 1.98819 0.327604 0
M  V30 4946 O 473.664 2.29587 1.05101 0
M  V30 4947 C 474.977 2.07399 -2.17729 0
M  V30 4948 C 476.525 2.20594 -2.22052 0
M  V30 4949 C 477 3.05462 -3.41258 0
M  V30 4950 N 478.491 3.13049 -3.41401 0
M  V30 4951 C 479.226 3.78997 -4.30289 0
M  V30 4952 N 478.722 4.46899 -5.2939 0
M  V30 4953 N 480.515 3.75728 -4.18073 0
M  V30 4954 H 472.666 0.507158 -2.06256 0
M  V30 4955 H 474.929 0.28658 -0.903646 0
M  V30 4956 H 474.635 1.61191 -3.12586 0
M  V30 4957 H 474.509 3.08154 -2.17534 0
M  V30 4958 H 476.896 2.66017 -1.27745 0
M  V30 4959 H 476.977 1.1928 -2.26287 0
M  V30 4960 H 476.621 2.60739 -4.35864 0
M  V30 4961 H 476.551 4.06911 -3.34262 0
M  V30 4962 H 479.042 2.64721 -2.69688 0
M  V30 4963 H 479.355 4.94952 -5.935 0
M  V30 4964 H 477.7 4.45657 -5.33306 0
M  V30 4965 H 480.891 3.2184 -3.39907 0
M  V30 4966 H 481.064 4.26845 -4.87553 0
M  V30 4967 N 474.47 1.03057 1.19235 0
M  V30 4968 C 475.716 0.729098 1.89241 0
M  V30 4969 C 476.049 -0.740573 1.79525 0
M  V30 4970 O 475.324 -1.53946 1.18874 0
M  V30 4971 C 475.607 1.18304 3.40112 0
M  V30 4972 C 475.46 2.71406 3.5869 0
M  V30 4973 C 476.779 0.765161 4.33397 0
M  V30 4974 H 473.898 0.266338 0.687192 0
M  V30 4975 H 476.54 1.28079 1.40341 0
M  V30 4976 H 474.69 0.713672 3.81889 0
M  V30 4977 H 476.362 3.26303 3.26074 0
M  V30 4978 H 474.605 3.11717 3.01687 0
M  V30 4979 H 475.276 2.98225 4.64506 0
M  V30 4980 H 477.752 1.16889 3.99345 0
M  V30 4981 H 476.628 1.11065 5.37546 0
M  V30 4982 H 476.889 -0.332372 4.40849 0
M  V30 4983 N 475.948 -1.35272 0.808662 0
M  V30 4984 C 477.194 -1.99003 0.390581 0
M  V30 4985 C 477.527 -1.63999 -1.0401 0
M  V30 4986 O 476.802 -0.904368 -1.72196 0
M  V30 4987 C 477.085 -3.55454 0.576566 0
M  V30 4988 C 476.938 -4.00249 2.05233 0
M  V30 4989 C 478.257 -4.401 0.00354277 0
M  V30 4990 H 475.376 -0.722917 0.143388 0
M  V30 4991 H 478.018 -1.6039 1.01858 0
M  V30 4992 H 476.168 -3.88477 0.0419766 0
M  V30 4993 H 477.84 -3.77626 2.64946 0
M  V30 4994 H 476.083 -3.51082 2.54801 0
M  V30 4995 H 476.754 -5.0911 2.13333 0
M  V30 4996 H 479.23 -4.13548 0.460117 0
M  V30 4997 H 478.106 -5.48656 0.163575 0
M  V30 4998 H 478.367 -4.28444 -1.09032 0
M  V30 4999 N 477.426 -0.562348 -1.47226 0
M  V30 5000 C 478.703 0.0256985 -1.95583 0
M  V30 5001 C 479.083 1.48032 -1.50498 0
M  V30 5002 O 478.431 2.15973 -0.746181 0
M  V30 5003 C 478.641 -0.125129 -3.48776 0
M  V30 5004 C 479.989 0.0175728 -4.24596 0
M  V30 5005 O 481.013 -0.0529341 -3.56161 0
M  V30 5006 O 479.872 0.170145 -5.46235 0
M  V30 5007 H 476.966 0.0612565 -0.824728 0
M  V30 5008 H 479.512 -0.629233 -1.57603 0
M  V30 5009 H 478.284 -1.13715 -3.74412 0
M  V30 5010 H 477.907 0.567178 -3.93534 0
M  V30 5011 N 478.904 1.54736 -0.299062 0
M  V30 5012 C 480.15 2.00397 0.311244 0
M  V30 5013 C 480.483 1.18716 1.53688 0
M  V30 5014 O 479.758 0.263154 1.92712 0
M  V30 5015 C 480.041 3.53817 0.669761 0
M  V30 5016 C 479.894 4.46239 -0.564882 0
M  V30 5017 C 481.213 4.13856 1.49702 0
M  V30 5018 H 478.332 0.728493 0.111653 0
M  V30 5019 H 480.974 1.85506 -0.410774 0
M  V30 5020 H 479.124 3.66637 1.28491 0
M  V30 5021 H 480.796 4.45328 -1.20337 0
M  V30 5022 H 479.039 4.16916 -1.19849 0
M  V30 5023 H 479.71 5.5134 -0.269918 0
M  V30 5024 H 482.186 4.04461 0.977284 0
M  V30 5025 H 481.062 5.21365 1.71666 0
M  V30 5026 H 481.323 3.65608 2.48563 0
M  V30 5027 N 480.382 0.0267497 1.57577 0
M  V30 5028 C 481.628 -0.647596 1.92815 0
M  V30 5029 C 481.983 -1.69872 0.903396 0
M  V30 5030 O 481.276 -1.91429 -0.0808881 0
M  V30 5031 C 481.47 -1.30914 3.3256 0
M  V30 5032 C 481.299 -0.323621 4.48534 0
M  V30 5033 C 480.069 0.0756607 5.05243 0
M  V30 5034 C 482.267 0.42112 5.12573 0
M  V30 5035 N 480.249 1.0566 6.04739 0
M  V30 5036 C 481.62 1.25589 6.07147 0
M  V30 5037 C 483.675 0.482077 4.95561 0
M  V30 5038 C 482.378 2.1461 6.86538 0
M  V30 5039 C 484.404 1.35962 5.75559 0
M  V30 5040 C 483.766 2.18217 6.69747 0
M  V30 5041 H 479.865 -0.209357 0.753454 0
M  V30 5042 H 482.449 0.0933695 1.94476 0
M  V30 5043 H 480.62 -2.02026 3.31723 0
M  V30 5044 H 482.352 -1.94033 3.55153 0
M  V30 5045 H 479.107 -0.298294 4.7266 0
M  V30 5046 H 479.531 1.54324 6.59176 0
M  V30 5047 H 484.173 -0.139609 4.22569 0
M  V30 5048 H 481.891 2.77835 7.58837 0
M  V30 5049 H 485.477 1.41105 5.6443 0
M  V30 5050 H 484.357 2.85022 7.3057 0
M  V30 5051 N 481.861 -1.55662 -0.24637 0
M  V30 5052 C 483.138 -1.68272 -0.997198 0
M  V30 5053 C 483.518 -0.566785 -2.03349 0
M  V30 5054 O 482.866 0.429688 -2.24424 0
M  V30 5055 C 483.076 -3.08594 -1.63006 0
M  V30 5056 C 484.424 -3.6721 -2.13171 0
M  V30 5057 O 485.448 -3.11397 -1.72946 0
M  V30 5058 O 484.307 -4.65054 -2.87031 0
M  V30 5059 H 481.401 -0.684429 -0.464205 0
M  V30 5060 H 483.947 -1.67993 -0.240114 0
M  V30 5061 H 482.719 -3.81264 -0.880527 0
M  V30 5062 H 482.342 -3.12886 -2.45333 0
M  V30 5063 N 483.339 0.512053 -1.4905 0
M  V30 5064 C 484.269 1.62365 -1.67809 0
M  V30 5065 C 485.25 1.61737 -0.526809 0
M  V30 5066 O 486.435 1.78651 -0.761404 0
M  V30 5067 C 483.565 3.00895 -1.73435 0
M  V30 5068 C 482.519 3.16387 -2.88242 0
M  V30 5069 C 481.845 4.56157 -2.78971 0
M  V30 5070 C 483.145 2.97457 -4.29321 0
M  V30 5071 H 484.839 1.46921 -2.60873 0
M  V30 5072 H 482.385 0.705379 -1.2554 0
M  V30 5073 H 484.338 3.78549 -1.85145 0
M  V30 5074 H 483.062 3.17403 -0.769619 0
M  V30 5075 H 481.721 2.41155 -2.76116 0
M  V30 5076 H 481.369 4.69525 -1.8043 0
M  V30 5077 H 481.069 4.67465 -3.5602 0
M  V30 5078 H 482.593 5.35886 -2.92675 0
M  V30 5079 H 484.007 3.64888 -4.42187 0
M  V30 5080 H 482.404 3.20245 -5.07507 0
M  V30 5081 H 483.474 1.93692 -4.44535 0
M  V30 5082 N 484.817 1.37938 0.762283 0
M  V30 5083 C 486.045 1.36883 1.55147 0
M  V30 5084 C 486.46 -0.0435348 1.8875 0
M  V30 5085 O 485.817 -1.00786 1.52146 0
M  V30 5086 C 485.868 2.21624 2.85596 0
M  V30 5087 O 485.589 3.57358 2.5343 0
M  V30 5088 C 487.09 2.28653 3.7978 0
M  V30 5089 H 484.31 0.468521 0.480343 0
M  V30 5090 H 486.854 1.81404 0.944079 0
M  V30 5091 H 485.009 1.80588 3.42734 0
M  V30 5092 H 485.423 4.01883 3.37032 0
M  V30 5093 H 486.897 2.9225 4.68288 0
M  V30 5094 H 487.374 1.29767 4.19592 0
M  V30 5095 H 487.98 2.70043 3.28568 0
M  V30 5096 N 486.295 -0.989507 1.22664 0
M  V30 5097 C 487.242 -2.08024 0.999733 0
M  V30 5098 C 488.212 -1.65909 -0.0797047 0
M  V30 5099 O 489.397 -1.90669 0.0705715 0
M  V30 5100 C 486.537 -3.40067 0.587234 0
M  V30 5101 C 485.65 -3.95505 1.73781 0
M  V30 5102 C 484.785 -5.15722 1.27297 0
M  V30 5103 C 483.824 -5.63305 2.39488 0
M  V30 5104 N 482.961 -6.74758 1.94026 0
M  V30 5105 H 487.801 -2.26768 1.9334 0
M  V30 5106 H 485.338 -1.11171 0.963297 0
M  V30 5107 H 487.296 -4.15899 0.329227 0
M  V30 5108 H 485.926 -3.21314 -0.309426 0
M  V30 5109 H 484.978 -3.16513 2.11006 0
M  V30 5110 H 486.29 -4.26797 2.58158 0
M  V30 5111 H 485.444 -5.98854 0.972546 0
M  V30 5112 H 484.183 -4.86061 0.399445 0
M  V30 5113 H 483.188 -4.78759 2.70315 0
M  V30 5114 H 484.413 -5.94988 3.27362 0
M  V30 5115 H 482.359 -6.46874 1.09041 0
M  V30 5116 H 482.276 -7.05386 2.71968 0
M  V30 5117 H 483.544 -7.61387 1.67062 0
M  V30 5118 N 487.773 -1.03688 -1.18687 0
M  V30 5119 C 489.022 -0.733235 -1.879 0
M  V30 5120 C 489.335 0.741745 -1.8099 0
M  V30 5121 O 490.541 1.15875 -2.4553 0
M  V30 5122 C 488.997 -1.26127 -3.37076 0
M  V30 5123 C 488.605 -2.76461 -3.52524 0
M  V30 5124 C 490.349 -1.03398 -4.11715 0
M  V30 5125 C 488.256 -3.22642 -4.95637 0
M  V30 5126 H 487.186 -0.270584 -0.703776 0
M  V30 5127 H 489.837 -1.25222 -1.34133 0
M  V30 5128 H 488.219 -0.670165 -3.90288 0
M  V30 5129 H 489.393 -3.41296 -3.09602 0
M  V30 5130 H 487.708 -2.97559 -2.91286 0
M  V30 5131 H 490.305 -1.3542 -5.17267 0
M  V30 5132 H 490.648 0.0289246 -4.1629 0
M  V30 5133 H 491.181 -1.5895 -3.64664 0
M  V30 5134 H 487.92 -4.28296 -4.96228 0
M  V30 5135 H 487.44 -2.62539 -5.39289 0
M  V30 5136 H 489.119 -3.16444 -5.64333 0
M  V30 5137 N 489.251 1.34841 -0.815825 0
M  V30 5138 C 490.181 2.32187 -0.247298 0
M  V30 5139 C 491.162 1.5791 0.632344 0
M  V30 5140 O 492.347 1.8593 0.560698 0
M  V30 5141 C 489.477 3.42122 0.597466 0
M  V30 5142 C 488.431 4.27602 -0.184446 0
M  V30 5143 C 487.757 5.28942 0.782609 0
M  V30 5144 C 489.057 5.03502 -1.38865 0
M  V30 5145 H 490.751 2.79985 -1.06061 0
M  V30 5146 H 488.297 1.34611 -0.511461 0
M  V30 5147 H 490.25 4.09232 1.00533 0
M  V30 5148 H 488.974 2.92956 1.44376 0
M  V30 5149 H 487.633 3.62085 -0.573592 0
M  V30 5150 H 487.281 4.7604 1.62466 0
M  V30 5151 H 486.981 5.87008 0.263695 0
M  V30 5152 H 488.505 5.98922 1.18848 0
M  V30 5153 H 489.919 5.63506 -1.05518 0
M  V30 5154 H 488.316 5.71108 -1.8427 0
M  V30 5155 H 489.386 4.33608 -2.17054 0
M  V30 5156 N 490.729 0.570148 1.46925 0
M  V30 5157 C 492.006 -0.0153259 1.95594 0
M  V30 5158 C 492.386 -1.47232 1.51281 0
M  V30 5159 O 491.734 -2.15574 0.757624 0
M  V30 5160 C 491.944 0.143624 3.48704 0
M  V30 5161 C 493.292 0.00494484 4.246 0
M  V30 5162 O 494.316 0.0718214 3.56128 0
M  V30 5163 O 493.175 -0.141175 5.46318 0
M  V30 5164 H 490.269 -0.0568819 0.825041 0
M  V30 5165 H 492.815 0.637583 1.57267 0
M  V30 5166 H 491.587 1.15699 3.73804 0
M  V30 5167 H 491.21 -0.5463 3.93829 0
M  V30 5168 N 492.207 -1.54576 0.307264 0
M  V30 5169 C 493.618 -1.8579 -0.184121 0
M  V30 5170 C 493.969 -1.22914 -1.52927 0
M  V30 5171 O 493.094 -0.529126 -2.09831 0
M  V30 5172 C 493.689 -3.37081 -0.340862 0
M  V30 5173 C 492.248 -3.68304 -0.776465 0
M  V30 5174 C 491.395 -2.77076 0.111503 0
M  V30 5175 H 494.346 -1.49656 0.528078 0
M  V30 5176 H 494.367 -3.61922 -1.17443 0
M  V30 5177 H 493.879 -3.82815 0.638309 0
M  V30 5178 H 491.98 -3.28092 -1.76596 0
M  V30 5179 H 492.093 -4.75434 -0.591512 0
M  V30 5180 H 490.457 -2.51374 -0.410256 0
M  V30 5181 H 491.24 -3.25632 1.08714 0
M  V30 5182 N 493.685 -0.035106 -1.57561 0
M  V30 5183 C 494.632 0.94474 -2.10578 0
M  V30 5184 C 495.602 1.3192 -1.00927 0
M  V30 5185 O 496.787 1.41147 -1.28382 0
M  V30 5186 C 493.927 2.21982 -2.64231 0
M  V30 5187 C 493.04 1.90128 -3.87911 0
M  V30 5188 C 492.175 3.11975 -4.29936 0
M  V30 5189 C 491.214 2.75968 -5.46359 0
M  V30 5190 N 490.351 3.90459 -5.83512 0
M  V30 5191 H 495.191 0.485717 -2.94015 0
M  V30 5192 H 492.728 0.228143 -1.4532 0
M  V30 5193 H 494.686 2.96572 -2.9343 0
M  V30 5194 H 493.316 2.6549 -1.83616 0
M  V30 5195 H 492.368 1.05755 -3.65404 0
M  V30 5196 H 493.68 1.59613 -4.72573 0
M  V30 5197 H 492.834 3.9488 -4.60603 0
M  V30 5198 H 491.573 3.45657 -3.44053 0
M  V30 5199 H 490.578 1.91478 -5.1538 0
M  V30 5200 H 491.803 2.43497 -6.33945 0
M  V30 5201 H 489.749 4.23971 -5.00584 0
M  V30 5202 H 489.666 3.63588 -6.62827 0
M  V30 5203 H 490.934 4.7405 -6.18787 0
M  V30 5204 N 495.163 1.55791 0.238111 0
M  V30 5205 C 496.579 1.48411 0.587045 0
M  V30 5206 C 496.779 0.72702 1.87927 0
M  V30 5207 O 495.835 0.259942 2.51158 0
M  V30 5208 C 497.148 2.92873 0.681623 0
M  V30 5209 C 498.696 3.03295 0.773363 0
M  V30 5210 C 499.171 4.49082 0.899428 0
M  V30 5211 N 500.662 4.53056 0.964075 0
M  V30 5212 C 501.397 5.63117 1.08104 0
M  V30 5213 N 500.893 6.82969 1.16299 0
M  V30 5214 N 502.686 5.50933 1.11488 0
M  V30 5215 H 494.837 2.0345 -0.610076 0
M  V30 5216 H 497.1 0.924034 -0.211813 0
M  V30 5217 H 496.806 3.51142 -0.19802 0
M  V30 5218 H 496.68 3.43851 1.55069 0
M  V30 5219 H 499.067 2.45101 1.64346 0
M  V30 5220 H 499.148 2.55513 -0.121034 0
M  V30 5221 H 498.792 5.07889 0.0338586 0
M  V30 5222 H 498.722 4.94553 1.809 0
M  V30 5223 H 501.213 3.66737 0.91173 0
M  V30 5224 H 501.526 7.62598 1.25155 0
M  V30 5225 H 499.871 6.85712 1.13241 0
M  V30 5226 H 503.062 4.56231 1.0474 0
M  V30 5227 H 503.235 6.36743 1.20259 0
M  V30 5228 N 496.642 -0.504142 1.49319 0
M  V30 5229 C 497.919 -1.26548 1.49147 0
M  V30 5230 C 498.299 -2.09977 0.21744 0
M  V30 5231 O 497.647 -2.14028 -0.800269 0
M  V30 5232 C 497.857 -2.12489 2.76857 0
M  V30 5233 C 499.205 -2.7178 3.26222 0
M  V30 5234 O 500.229 -2.22758 2.77952 0
M  V30 5235 O 499.088 -3.61015 4.10281 0
M  V30 5236 H 496.182 -0.572495 0.596806 0
M  V30 5237 H 498.728 -0.51867 1.61579 0
M  V30 5238 H 497.5 -1.50796 3.61077 0
M  V30 5239 H 497.123 -2.94368 2.6727 0
M  V30 5240 N 498.12 -1.38341 -0.754957 0
M  V30 5241 C 499.083 -1.35262 -1.85032 0
M  V30 5242 C 500.083 -0.253393 -1.58791 0
M  V30 5243 O 501.273 -0.510205 -1.66561 0
M  V30 5244 C 498.405 -1.10544 -3.22479 0
M  V30 5245 H 499.598 -2.32712 -1.8917 0
M  V30 5246 H 497.151 -1.23614 -0.956515 0
M  V30 5247 H 497.886 -0.136952 -3.24011 0
M  V30 5248 H 497.671 -1.90127 -3.4292 0
M  V30 5249 H 499.161 -1.11082 -4.02555 0
M  V30 5250 N 499.598 0.982988 -1.23187 0
M  V30 5251 C 500.528 2.09301 -1.03515 0
M  V30 5252 C 501.509 1.70035 0.0471136 0
M  V30 5253 O 502.694 1.93847 -0.117029 0
M  V30 5254 C 499.824 3.4167 -0.622791 0
M  V30 5255 C 498.778 3.94828 -1.65211 0
M  V30 5256 C 498.104 5.23362 -1.09527 0
M  V30 5257 C 499.404 4.2439 -3.04451 0
M  V30 5258 H 501.098 2.26016 -1.96359 0
M  V30 5259 H 498.644 1.08611 -0.945501 0
M  V30 5260 H 500.597 4.18746 -0.472233 0
M  V30 5261 H 499.321 3.24811 0.341329 0
M  V30 5262 H 497.98 3.19895 -1.79061 0
M  V30 5263 H 497.628 5.02852 -0.122211 0
M  V30 5264 H 497.328 5.59895 -1.783 0
M  V30 5265 H 498.852 6.03062 -0.956511 0
M  V30 5266 H 500.266 4.92225 -2.93917 0
M  V30 5267 H 498.663 4.72118 -3.70438 0
M  V30 5268 H 499.733 3.31765 -3.53638 0
M  V30 5269 N 501.076 1.04316 1.18135 0
M  V30 5270 C 502.006 0.657299 2.24058 0
M  V30 5271 C 502.987 -0.340678 1.66654 0
M  V30 5272 O 504.172 -0.220223 1.92947 0
M  V30 5273 C 501.302 0.0220715 3.47293 0
M  V30 5274 C 500.256 0.943857 4.17463 0
M  V30 5275 C 499.582 0.172973 5.3442 0
M  V30 5276 C 500.882 2.26409 4.70677 0
M  V30 5277 H 502.576 1.5428 2.56589 0
M  V30 5278 H 500.122 0.743263 1.23335 0
M  V30 5279 H 502.075 -0.259607 4.206 0
M  V30 5280 H 500.799 -0.898323 3.14003 0
M  V30 5281 H 499.458 1.20996 3.46057 0
M  V30 5282 H 499.106 -0.749907 4.97379 0
M  V30 5283 H 498.806 0.787098 5.82304 0
M  V30 5284 H 500.33 -0.101628 6.10515 0
M  V30 5285 H 501.744 2.04294 5.35665 0
M  V30 5286 H 500.141 2.8314 5.29105 0
M  V30 5287 H 501.211 2.90883 3.87962 0
M  V30 5288 N 502.554 -1.34406 0.822964 0
M  V30 5289 C 503.802 -1.97892 0.410245 0
M  V30 5290 C 504.123 -1.65567 -1.03017 0
M  V30 5291 O 503.393 -0.94642 -1.71522 0
M  V30 5292 H 501.973 -0.732049 0.148707 0
M  V30 5293 H 504.635 -1.64043 1.05242 0
M  V30 5294 H 503.731 -3.07579 0.529284 0
M  V30 5295 N 504.032 -0.577932 -1.46621 0
M  V30 5296 C 504.995 0.147805 -2.28723 0
M  V30 5297 C 505.995 0.823325 -1.38123 0
M  V30 5298 O 507.185 0.676011 -1.60548 0
M  V30 5299 C 504.317 1.21853 -3.18378 0
M  V30 5300 H 505.51 -0.573654 -2.94362 0
M  V30 5301 H 503.063 -0.335703 -1.52652 0
M  V30 5302 H 503.798 1.97173 -2.57475 0
M  V30 5303 H 503.583 0.738714 -3.85078 0
M  V30 5304 H 505.073 1.72768 -3.80186 0
M  V30 5305 N 505.51 1.54411 -0.315457 0
M  V30 5306 C 506.44 2.27002 0.547039 0
M  V30 5307 C 507.421 1.27492 1.12605 0
M  V30 5308 O 508.606 1.5629 1.15269 0
M  V30 5309 C 505.736 3.02171 1.71201 0
M  V30 5310 C 504.69 4.0895 1.26268 0
M  V30 5311 C 504.016 4.71915 2.51396 0
M  V30 5312 C 505.316 5.20891 0.383419 0
M  V30 5313 H 507.01 2.99343 -0.0584517 0
M  V30 5314 H 504.556 1.4397 -0.0295527 0
M  V30 5315 H 506.509 3.51681 2.32161 0
M  V30 5316 H 505.233 2.27433 2.34397 0
M  V30 5317 H 503.892 3.60312 0.676062 0
M  V30 5318 H 503.54 3.93801 3.12937 0
M  V30 5319 H 503.24 5.44039 2.22026 0
M  V30 5320 H 504.764 5.24195 3.13133 0
M  V30 5321 H 506.178 5.66206 0.899082 0
M  V30 5322 H 504.575 5.99821 0.182857 0
M  V30 5323 H 505.645 4.81324 -0.587821 0
M  V30 5324 N 506.988 0.0434614 1.5754 0
M  V30 5325 C 508.265 -0.671479 1.83713 0
M  V30 5326 C 508.645 -1.89495 0.930315 0
M  V30 5327 O 507.993 -2.28498 -0.0105639 0
M  V30 5328 C 508.203 -1.0361 3.33266 0
M  V30 5329 C 509.551 -1.42167 4.00092 0
M  V30 5330 O 510.575 -1.12866 3.37846 0
M  V30 5331 O 509.434 -1.96817 5.09829 0
M  V30 5332 H 506.528 -0.330726 0.75799 0
M  V30 5333 H 509.074 0.0722373 1.69546 0
M  V30 5334 H 507.846 -0.165938 3.90948 0
M  V30 5335 H 507.469 -1.83751 3.52592 0
M  V30 5336 N 508.466 -1.55915 -0.229846 0
M  V30 5337 C 509.429 -1.90914 -1.26824 0
M  V30 5338 C 510.429 -0.786999 -1.40225 0
M  V30 5339 O 511.619 -1.05484 -1.38632 0
M  V30 5340 C 508.751 -2.15264 -2.64337 0
M  V30 5341 H 509.944 -2.8378 -0.969998 0
M  V30 5342 H 507.497 -1.49069 -0.4699 0
M  V30 5343 H 508.232 -1.24923 -2.99274 0
M  V30 5344 H 508.017 -2.97005 -2.55989 0
M  V30 5345 H 509.507 -2.43467 -3.39284 0
M  V30 5346 N 509.944 0.496216 -1.49584 0
M  V30 5347 C 511.192 1.24756 -1.58998 0
M  V30 5348 C 511.513 1.92968 -0.280775 0
M  V30 5349 O 510.783 1.82959 0.700198 0
M  V30 5350 H 509.363 0.463471 -0.585836 0
M  V30 5351 H 512.025 0.574678 -1.86235 0
M  V30 5352 H 511.121 2.00895 -2.38847 0
M  V30 5353 N 511.423 1.38739 0.74761 0
M  V30 5354 C 512.386 1.36241 1.84312 0
M  V30 5355 C 513.386 0.261811 1.58654 0
M  V30 5356 O 514.576 0.519031 1.66288 0
M  V30 5357 C 511.708 1.12253 3.21888 0
M  V30 5358 H 512.901 2.33712 1.87933 0
M  V30 5359 H 510.454 1.2412 0.949946 0
M  V30 5360 H 511.189 0.154133 3.23934 0
M  V30 5361 H 510.974 1.91943 3.41907 0
M  V30 5362 H 512.464 1.13215 4.0196 0
M  V30 5363 N 512.901 -0.976442 1.23707 0
M  V30 5364 C 514.147 -1.72081 1.07312 0
M  V30 5365 C 514.48 -1.90275 -0.388476 0
M  V30 5366 O 513.755 -1.4579 -1.28746 0
M  V30 5367 C 514.038 -3.11675 1.80363 0
M  V30 5368 C 513.891 -3.01027 3.3422 0
M  V30 5369 C 515.21 -4.1117 1.5693 0
M  V30 5370 H 512.329 -0.624583 0.391236 0
M  V30 5371 H 514.971 -1.13649 1.52263 0
M  V30 5372 H 513.121 -3.61559 1.42153 0
M  V30 5373 H 514.793 -2.58637 3.81975 0
M  V30 5374 H 513.036 -2.3744 3.63049 0
M  V30 5375 H 513.707 -3.9988 3.80525 0
M  V30 5376 H 516.183 -3.7011 1.90151 0
M  V30 5377 H 515.059 -5.06928 2.10513 0
M  V30 5378 H 515.32 -4.392 0.505548 0
M  V30 5379 N 514.379 -1.04941 -1.1758 0
M  V30 5380 C 515.619 -0.766996 -1.89464 0
M  V30 5381 C 515.983 0.693123 -1.79053 0
M  V30 5382 O 517.184 1.08953 -2.45729 0
M  V30 5383 C 515.455 -1.23108 -3.35528 0
M  V30 5384 S 517.014 -1.07565 -4.25412 0
M  V30 5385 H 513.832 -0.278616 -0.654136 0
M  V30 5386 H 516.434 -1.34352 -1.4202 0
M  V30 5387 H 515.138 -2.28896 -3.40639 0
M  V30 5388 H 514.669 -0.648724 -3.88014 0
M  V30 5389 H 516.684 0.00169467 -4.962 0
M  V30 5390 N 515.857 1.33968 -0.830081 0
M  V30 5391 C 517.103 1.98357 -0.422191 0
M  V30 5392 C 517.436 1.65633 1.01387 0
M  V30 5393 O 516.711 0.931648 1.70735 0
M  V30 5394 C 516.994 3.54492 -0.633043 0
M  V30 5395 C 516.847 3.96934 -2.11574 0
M  V30 5396 C 518.166 4.40039 -0.0735584 0
M  V30 5397 H 515.285 0.720544 -0.154871 0
M  V30 5398 H 517.927 1.58749 -1.04397 0
M  V30 5399 H 516.077 3.88361 -0.103775 0
M  V30 5400 H 517.749 3.73363 -2.7092 0
M  V30 5401 H 515.992 3.46984 -2.60354 0
M  V30 5402 H 516.663 5.05651 -2.21406 0
M  V30 5403 H 519.139 4.12764 -0.52585 0
M  V30 5404 H 518.015 5.48327 -0.250841 0
M  V30 5405 H 518.276 4.30124 1.02202 0
M  V30 5406 N 517.335 0.585699 1.46312 0
M  V30 5407 C 518.283 -0.158577 2.32059 0
M  V30 5408 C 519.277 -0.881427 1.44662 0
M  V30 5409 O 520.483 -0.799476 1.61271 0
M  V30 5410 H 516.858 -0.0700066 0.748734 0
M  V30 5411 H 518.829 0.583383 2.92642 0
M  V30 5412 C 517.578 -1.15701 3.27885 0
M  V30 5413 H 516.901 -0.610215 3.95116 0
M  V30 5414 H 518.341 -1.64812 3.90657 0
M  V30 5415 C 516.8 -2.21951 2.53455 0
M  V30 5416 O 517.33 -3.29352 2.29978 0
M  V30 5417 N 515.536 -1.9664 2.13965 0
M  V30 5418 H 515.083 -1.09309 2.33258 0
M  V30 5419 H 515.041 -2.6794 1.64485 0
M  V30 5420 N 518.813 -1.54241 0.323641 0
M  V30 5421 C 520.059 -2.00867 -0.279323 0
M  V30 5422 C 520.392 -1.21146 -1.5178 0
M  V30 5423 O 519.667 -0.29378 -1.92269 0
M  V30 5424 C 519.95 -3.54837 -0.613387 0
M  V30 5425 C 519.803 -4.45284 0.635803 0
M  V30 5426 C 521.122 -4.16186 -1.43099 0
M  V30 5427 H 518.241 -0.730177 -0.100049 0
M  V30 5428 H 520.883 -1.84829 0.440235 0
M  V30 5429 H 519.033 -3.68634 -1.22641 0
M  V30 5430 H 520.705 -4.43357 1.27406 0
M  V30 5431 H 518.948 -4.14956 1.26466 0
M  V30 5432 H 519.619 -5.5084 0.357597 0
M  V30 5433 H 522.095 -4.05964 -0.912814 0
M  V30 5434 H 520.971 -5.24031 -1.6335 0
M  V30 5435 H 521.232 -3.69516 -2.42715 0
M  V30 5436 N 520.291 -0.0518155 -1.57515 0
M  V30 5437 C 521.568 0.661727 -1.84067 0
M  V30 5438 C 521.948 1.88999 -0.940351 0
M  V30 5439 O 521.296 2.285 -0.00155404 0
M  V30 5440 C 521.506 1.01841 -3.3381 0
M  V30 5441 C 522.854 1.40043 -4.00841 0
M  V30 5442 O 523.878 1.11073 -3.38439 0
M  V30 5443 O 522.737 1.94111 -5.10865 0
M  V30 5444 H 519.831 0.326702 -0.759733 0
M  V30 5445 H 522.377 -0.0812277 -1.69505 0
M  V30 5446 H 521.149 0.145202 -3.91031 0
M  V30 5447 H 520.772 1.81879 -3.53562 0
M  V30 5448 N 521.769 1.56035 0.221574 0
M  V30 5449 C 522.699 1.95434 1.2778 0
M  V30 5450 C 523.68 0.822564 1.48889 0
M  V30 5451 O 524.865 1.08486 1.61072 0
M  V30 5452 C 521.995 2.27102 2.62759 0
M  V30 5453 C 520.949 3.4277 2.56306 0
M  V30 5454 C 520.275 3.60043 3.95314 0
M  V30 5455 C 521.575 4.77742 2.11093 0
M  V30 5456 H 523.269 2.83912 0.950504 0
M  V30 5457 H 520.815 1.36596 0.455791 0
M  V30 5458 H 522.768 2.53256 3.36807 0
M  V30 5459 H 521.492 1.35478 2.97176 0
M  V30 5460 H 520.151 3.16664 1.84715 0
M  V30 5461 H 519.799 2.65794 4.27039 0
M  V30 5462 H 519.499 4.37841 3.91879 0
M  V30 5463 H 521.023 3.88545 4.71025 0
M  V30 5464 H 522.437 5.03102 2.74885 0
M  V30 5465 H 520.834 5.58823 2.18716 0
M  V30 5466 H 521.904 4.731 1.06321 0
M  V30 5467 N 523.247 -0.488276 1.49845 0
M  V30 5468 C 524.21 -1.57069 1.66919 0
M  V30 5469 C 525.21 -1.51445 0.540479 0
M  V30 5470 O 526.4 -1.5437 0.807188 0
M  V30 5471 C 523.532 -2.96718 1.67844 0
M  V30 5472 H 524.725 -1.43254 2.63474 0
M  V30 5473 H 522.278 -0.713435 1.39068 0
M  V30 5474 H 523.013 -3.15996 0.7292 0
M  V30 5475 H 522.798 -3.02208 2.49826 0
M  V30 5476 H 524.288 -3.75335 1.83066 0
M  V30 5477 N 524.725 -1.39134 -0.740242 0
M  V30 5478 C 525.675 -1.33928 -1.84519 0
M  V30 5479 C 526.659 -0.221097 -1.59374 0
M  V30 5480 O 527.851 -0.458195 -1.70967 0
M  V30 5481 C 524.98 -1.17991 -3.22387 0
M  V30 5482 C 524.066 -2.34488 -3.53378 0
M  V30 5483 N 524.457 -3.59954 -3.5534 0
M  V30 5484 C 522.755 -2.27331 -3.83714 0
M  V30 5485 C 523.456 -4.36962 -3.83978 0
M  V30 5486 N 522.432 -3.66482 -4.01487 0
M  V30 5487 H 526.234 -2.28907 -1.84333 0
M  V30 5488 H 523.748 -1.32555 -0.938237 0
M  V30 5489 H 525.745 -1.12345 -4.01478 0
M  V30 5490 H 524.405 -0.23957 -3.23815 0
M  V30 5491 H 525.416 -3.93448 -3.36778 0
M  V30 5492 H 522.093 -1.41531 -3.92779 0
M  V30 5493 H 523.483 -5.45692 -3.92008 0
M  V30 5494 N 526.204 0.969867 -1.24223 0
M  V30 5495 C 527.167 2.04564 -1.03373 0
M  V30 5496 C 528.167 1.60798 0.00819206 0
M  V30 5497 O 529.357 1.72641 -0.232567 0
M  V30 5498 C 526.489 3.36163 -0.566343 0
M  V30 5499 H 527.682 2.24494 -1.98853 0
M  V30 5500 H 525.235 1.1448 -1.06415 0
M  V30 5501 H 525.97 3.21925 0.391751 0
M  V30 5502 H 525.755 3.69273 -1.31834 0
M  V30 5503 H 527.245 4.1526 -0.441435 0
M  V30 5504 N 527.682 1.05563 1.17022 0
M  V30 5505 C 528.93 0.76642 1.87004 0
M  V30 5506 C 529.251 -0.708854 1.8166 0
M  V30 5507 O 528.521 -1.51242 1.2451 0
M  V30 5508 H 527.101 0.280516 0.692329 0
M  V30 5509 H 529.763 1.33557 1.41945 0
M  V30 5510 H 528.859 1.08472 2.92644 0
M  V30 5511 N 529.16 -1.33526 0.837174 0
M  V30 5512 C 530.092 -2.28077 0.226579 0
M  V30 5513 C 531.105 -1.51666 -0.591717 0
M  V30 5514 O 532.294 -1.73511 -0.419064 0
M  V30 5515 C 529.394 -3.31597 -0.69978 0
M  V30 5516 C 528.567 -4.37329 0.0788067 0
M  V30 5517 C 527.626 -5.20526 -0.770637 0
M  V30 5518 O 526.652 -5.68811 -0.210453 0
M  V30 5519 N 527.854 -5.41639 -2.08825 0
M  V30 5520 H 530.619 -2.81115 1.03897 0
M  V30 5521 H 528.18 -1.46201 0.695476 0
M  V30 5522 H 530.172 -3.84158 -1.27298 0
M  V30 5523 H 528.742 -2.78848 -1.41288 0
M  V30 5524 H 527.962 -3.8529 0.833381 0
M  V30 5525 H 529.25 -5.05079 0.614238 0
M  V30 5526 H 528.648 -5.04108 -2.56693 0
M  V30 5527 H 527.205 -5.97263 -2.60998 0
M  V30 5528 N 530.638 -0.59345 -1.46 0
M  V30 5529 C 531.57 0.171569 -2.28557 0
M  V30 5530 C 532.583 0.845273 -1.39137 0
M  V30 5531 O 533.772 0.713033 -1.6364 0
M  V30 5532 C 530.872 1.26311 -3.14482 0
M  V30 5533 C 530.045 0.679258 -4.32094 0
M  V30 5534 C 529.104 1.65987 -4.99334 0
M  V30 5535 O 528.13 1.19171 -5.56585 0
M  V30 5536 N 529.332 2.99414 -4.97324 0
M  V30 5537 H 532.097 -0.536771 -2.94854 0
M  V30 5538 H 529.658 -0.431954 -1.56031 0
M  V30 5539 H 531.65 1.91863 -3.5633 0
M  V30 5540 H 530.22 1.87416 -2.50188 0
M  V30 5541 H 529.44 -0.153992 -3.93899 0
M  V30 5542 H 530.728 0.26916 -5.08088 0
M  V30 5543 H 530.126 3.40064 -4.52076 0
M  V30 5544 H 528.683 3.60426 -5.4308 0
M  V30 5545 N 532.116 1.54067 -0.331816 0
M  V30 5546 C 533.079 2.23275 0.517768 0
M  V30 5547 C 534.079 1.22897 1.03697 0
M  V30 5548 O 535.269 1.47419 0.928084 0
M  V30 5549 C 532.401 2.94326 1.72004 0
M  V30 5550 H 533.594 2.99773 -0.0873507 0
M  V30 5551 H 531.147 1.56079 -0.0830042 0
M  V30 5552 H 531.882 2.21986 2.36417 0
M  V30 5553 H 531.667 3.67941 1.35507 0
M  V30 5554 H 533.157 3.47031 2.32291 0
M  V30 5555 N 533.594 0.0601682 1.57485 0
M  V30 5556 C 534.541 -0.91112 2.12055 0
M  V30 5557 C 535.511 -1.30298 1.03013 0
M  V30 5558 O 536.696 -1.39087 1.30612 0
M  V30 5559 C 533.836 -2.1775 2.67729 0
M  V30 5560 C 532.949 -1.83933 3.90887 0
M  V30 5561 C 532.084 -3.05096 4.34845 0
M  V30 5562 C 531.123 -2.67241 5.5068 0
M  V30 5563 N 530.26 -3.81127 5.8965 0
M  V30 5564 H 535.1 -0.43888 2.9475 0
M  V30 5565 H 532.637 -0.204995 1.45665 0
M  V30 5566 H 534.595 -2.91866 2.98111 0
M  V30 5567 H 533.225 -2.62535 1.87816 0
M  V30 5568 H 532.277 -0.999287 3.6704 0
M  V30 5569 H 533.589 -1.52074 4.75052 0
M  V30 5570 H 532.743 -3.87502 4.66827 0
M  V30 5571 H 531.482 -3.40139 3.49509 0
M  V30 5572 H 530.487 -1.83254 5.18361 0
M  V30 5573 H 531.712 -2.3338 6.37738 0
M  V30 5574 H 529.658 -4.15954 5.07266 0
M  V30 5575 H 529.575 -3.52997 6.68528 0
M  V30 5576 H 530.843 -4.64145 6.2625 0
M  V30 5577 N 535.072 -1.5615 -0.213296 0
M  V30 5578 C 536.002 -1.96109 -1.26742 0
M  V30 5579 C 536.983 -0.830448 -1.48451 0
M  V30 5580 O 538.168 -1.09339 -1.60495 0
M  V30 5581 C 535.298 -2.28492 -2.61551 0
M  V30 5582 C 534.252 -3.44124 -2.54485 0
M  V30 5583 C 533.578 -3.62134 -3.93399 0
M  V30 5584 C 534.878 -4.78855 -2.08556 0
M  V30 5585 H 536.572 -2.84412 -0.935434 0
M  V30 5586 H 534.118 -1.36836 -0.44854 0
M  V30 5587 H 536.071 -2.55039 -3.3546 0
M  V30 5588 H 534.795 -1.37052 -2.96453 0
M  V30 5589 H 533.454 -3.17639 -1.83033 0
M  V30 5590 H 533.102 -2.68055 -4.25623 0
M  V30 5591 H 532.802 -4.39913 -3.89551 0
M  V30 5592 H 534.326 -3.91038 -4.68958 0
M  V30 5593 H 535.74 -5.04552 -2.72213 0
M  V30 5594 H 534.137 -5.59975 -2.1575 0
M  V30 5595 H 535.207 -4.73657 -1.03811 0
M  V30 5596 N 536.55 0.480323 -1.50102 0
M  V30 5597 C 537.46 1.60547 -1.71061 0
M  V30 5598 C 538.476 1.63564 -0.593529 0
M  V30 5599 O 539.652 1.81604 -0.870751 0
M  V30 5600 C 536.717 2.96814 -1.79171 0
M  V30 5601 C 535.778 3.04259 -3.02861 0
M  V30 5602 C 535.011 4.34027 -3.10574 0
M  V30 5603 O 535.234 5.24009 -2.25323 0
M  V30 5604 O 534.168 4.46873 -4.03223 0
M  V30 5605 H 537.994 1.45788 -2.6642 0
M  V30 5606 H 535.579 0.658838 -1.34088 0
M  V30 5607 H 537.461 3.77765 -1.86738 0
M  V30 5608 H 536.136 3.11791 -0.869947 0
M  V30 5609 H 535.043 2.22419 -3.008 0
M  V30 5610 H 536.376 2.94216 -3.94586 0
M  V30 5611 N 538.028 1.39524 0.732853 0
M  V30 5612 C 539.439 1.32905 1.31122 0
M  V30 5613 C 539.79 -0.00558708 1.96199 0
M  V30 5614 O 538.915 -0.907706 1.96443 0
M  V30 5615 C 539.51 2.40704 2.38426 0
M  V30 5616 C 538.069 2.37599 2.91931 0
M  V30 5617 C 537.216 2.2248 1.65523 0
M  V30 5618 H 540.167 1.49581 0.530207 0
M  V30 5619 H 540.188 2.07616 3.18867 0
M  V30 5620 H 539.7 3.37829 1.91033 0
M  V30 5621 H 537.801 1.44119 3.43599 0
M  V30 5622 H 537.914 3.32538 3.44899 0
M  V30 5623 H 536.278 1.69691 1.8994 0
M  V30 5624 H 537.061 3.21577 1.20178 0
M  V30 5625 N 539.506 -0.963266 1.24736 0
M  V30 5626 C 540.783 -1.68248 0.9976 0
M  V30 5627 C 541.163 -2.05599 -0.478776 0
M  V30 5628 O 540.511 -1.7626 -1.45412 0
M  V30 5629 C 540.721 -2.91118 1.92487 0
M  V30 5630 C 542.069 -3.63261 2.19833 0
M  V30 5631 O 543.093 -3.01184 1.90176 0
M  V30 5632 O 541.952 -4.75019 2.7022 0
M  V30 5633 H 539.046 -0.735744 0.377637 0
M  V30 5634 H 541.592 -1.01696 1.35853 0
M  V30 5635 H 540.364 -2.60242 2.92215 0
M  V30 5636 H 539.987 -3.65402 1.56738 0
M  V30 5637 N 540.985 -1.06182 -1.16461 0
M  V30 5638 C 542.213 -0.798583 -1.90867 0
M  V30 5639 C 542.628 0.646921 -1.77371 0
M  V30 5640 O 541.985 1.44279 -1.11758 0
M  V30 5641 C 542.036 -1.18258 -3.4161 0
M  V30 5642 O 541.757 -2.57135 -3.54701 0
M  V30 5643 C 543.258 -0.946917 -4.33069 0
M  V30 5644 H 540.478 -0.289603 -0.605286 0
M  V30 5645 H 543.022 -1.41515 -1.47627 0
M  V30 5646 H 541.177 -0.610562 -3.82558 0
M  V30 5647 H 541.591 -2.72477 -4.4817 0
M  V30 5648 H 543.065 -1.26523 -5.37304 0
M  V30 5649 H 543.542 0.117406 -4.39043 0
M  V30 5650 H 544.148 -1.50326 -3.97847 0
M  V30 5651 N 542.463 1.3308 -0.844243 0
M  V30 5652 C 543.874 1.7992 -0.498566 0
M  V30 5653 C 544.225 1.69808 0.982834 0
M  V30 5654 O 543.35 1.25051 1.7661 0
M  V30 5655 C 543.945 3.26677 -0.898204 0
M  V30 5656 C 542.504 3.71513 -0.604583 0
M  V30 5657 C 541.651 2.54393 -1.10362 0
M  V30 5658 H 544.602 1.20526 -1.03244 0
M  V30 5659 H 544.623 3.79918 -0.21039 0
M  V30 5660 H 544.135 3.34004 -1.97643 0
M  V30 5661 H 542.236 3.69708 0.46335 0
M  V30 5662 H 542.349 4.64755 -1.16358 0
M  V30 5663 H 540.713 2.49246 -0.524273 0
M  V30 5664 H 541.496 2.6448 -2.18873 0
M  V30 5665 N 543.941 0.601185 1.45683 0
M  V30 5666 C 545.188 0.0938811 2.02282 0
M  V30 5667 C 545.516 -1.27315 1.47041 0
M  V30 5668 O 544.771 -1.85193 0.632623 0
M  V30 5669 C 545.07 -0.00222425 3.574 0
M  V30 5670 C 544.736 1.29963 4.31764 0
M  V30 5671 C 543.398 1.65625 4.51798 0
M  V30 5672 C 545.75 2.1603 4.74321 0
M  V30 5673 C 543.078 2.87119 5.11644 0
M  V30 5674 C 545.43 3.36766 5.3551 0
M  V30 5675 C 544.094 3.72689 5.53768 0
M  V30 5676 H 543.364 0.0343535 0.740203 0
M  V30 5677 H 546.011 0.781522 1.74827 0
M  V30 5678 H 544.316 -0.773096 3.84097 0
M  V30 5679 H 546.013 -0.410794 3.9889 0
M  V30 5680 H 542.603 1.01204 4.1648 0
M  V30 5681 H 546.787 1.89778 4.58582 0
M  V30 5682 H 542.043 3.15065 5.2397 0
M  V30 5683 H 546.217 4.03713 5.67441 0
M  V30 5684 H 543.844 4.66918 5.99909 0
M  V30 5685 N 545.419 -1.53889 0.339982 0
M  V30 5686 C 546.667 -2.00458 -0.257112 0
M  V30 5687 C 546.988 -1.22953 -1.51353 0
M  V30 5688 O 546.258 -0.335734 -1.93002 0
M  V30 5689 H 544.838 -0.740544 -0.0979965 0
M  V30 5690 H 547.5 -1.89386 0.460317 0
M  V30 5691 H 546.596 -3.08035 -0.502057 0
M  V30 5692 N 546.897 -0.0685191 -1.57451 0
M  V30 5693 C 548.174 0.642167 -1.84758 0
M  V30 5694 C 548.554 1.87991 -0.960344 0
M  V30 5695 O 547.902 2.28485 -0.0257894 0
M  V30 5696 C 548.112 0.982946 -3.34872 0
M  V30 5697 C 549.46 1.35784 -4.02303 0
M  V30 5698 O 550.484 1.07477 -3.39598 0
M  V30 5699 O 549.343 1.88681 -5.12895 0
M  V30 5700 H 546.437 0.318625 -0.763156 0
M  V30 5701 H 548.983 -0.0992015 -1.6941 0
M  V30 5702 H 547.755 0.10372 -3.91163 0
M  V30 5703 H 547.378 1.78119 -3.55471 0
M  V30 5704 N 548.375 1.56261 0.205012 0
M  V30 5705 C 549.338 1.92908 1.23771 0
M  V30 5706 C 550.338 0.809208 1.38955 0
M  V30 5707 O 551.528 1.07676 1.36936 0
M  V30 5708 C 548.66 2.19442 2.60879 0
M  V30 5709 H 549.853 2.85287 0.924728 0
M  V30 5710 H 547.406 1.49798 0.446125 0
M  V30 5711 H 548.141 1.29668 2.97248 0
M  V30 5712 H 547.926 3.0104 2.51232 0
M  V30 5713 H 549.416 2.48833 3.35368 0
M  V30 5714 N 549.853 -0.472356 1.50355 0
M  V30 5715 C 550.783 -1.57859 1.72055 0
M  V30 5716 C 551.764 -1.60283 0.569505 0
M  V30 5717 O 552.949 -1.7657 0.808503 0
M  V30 5718 C 550.079 -2.96191 1.81351 0
M  V30 5719 C 549.033 -3.08633 2.96529 0
M  V30 5720 C 548.359 -4.486 2.90968 0
M  V30 5721 C 549.659 -2.85969 4.37057 0
M  V30 5722 H 551.353 -1.39953 2.64676 0
M  V30 5723 H 548.899 -0.671846 1.27367 0
M  V30 5724 H 550.852 -3.73507 1.95117 0
M  V30 5725 H 549.576 -3.15251 0.853502 0
M  V30 5726 H 548.235 -2.33749 2.82413 0
M  V30 5727 H 547.883 -4.64577 1.92815 0
M  V30 5728 H 547.583 -4.57861 3.68289 0
M  V30 5729 H 549.107 -5.27938 3.0678 0
M  V30 5730 H 550.521 -3.53036 4.51706 0
M  V30 5731 H 548.918 -3.06677 5.15819 0
M  V30 5732 H 549.988 -1.81838 4.49514 0
M  V30 5733 N 551.331 -1.39911 -0.725443 0
M  V30 5734 C 552.579 -1.37382 -1.48224 0
M  V30 5735 C 552.9 0.0264107 -1.94982 0
M  V30 5736 O 552.17 0.979408 -1.6966 0
M  V30 5737 H 550.75 -0.505596 -0.549892 0
M  V30 5738 H 553.412 -1.7487 -0.860608 0
M  V30 5739 H 552.508 -2.04254 -2.3598 0
M  V30 5740 N 552.809 0.956637 -1.25245 0
M  V30 5741 C 554.055 1.70352 -1.10036 0
M  V30 5742 C 554.388 1.90869 0.358156 0
M  V30 5743 O 553.663 1.47819 1.26411 0
M  V30 5744 C 553.946 3.08766 -1.85298 0
M  V30 5745 C 553.799 2.95672 -3.38966 0
M  V30 5746 C 555.118 4.08622 -1.63451 0
M  V30 5747 H 552.237 0.618279 -0.401123 0
M  V30 5748 H 554.879 1.11212 -1.54051 0
M  V30 5749 H 553.029 3.59252 -1.47887 0
M  V30 5750 H 554.701 2.52527 -3.86041 0
M  V30 5751 H 552.944 2.31634 -3.6678 0
M  V30 5752 H 553.615 3.93776 -3.86839 0
M  V30 5753 H 556.091 3.67038 -1.96015 0
M  V30 5754 H 554.967 5.03514 -2.18551 0
M  V30 5755 H 555.228 4.3834 -0.575357 0
M  V30 5756 N 554.287 1.06798 1.15896 0
M  V30 5757 C 555.535 0.786211 1.8618 0
M  V30 5758 C 555.856 -0.689547 1.82401 0
M  V30 5759 O 555.126 -1.49913 1.26107 0
M  V30 5760 H 553.706 0.287843 0.689315 0
M  V30 5761 H 556.368 1.35055 1.40521 0
M  V30 5762 H 555.464 1.1157 2.91477 0
M  V30 5763 N 555.766 -1.3263 0.851289 0
M  V30 5764 C 557.177 -1.79653 0.5081 0
M  V30 5765 C 557.528 -1.70327 -0.973815 0
M  V30 5766 O 556.653 -1.25986 -1.75944 0
M  V30 5767 C 557.248 -3.26196 0.915515 0
M  V30 5768 C 555.807 -3.71187 0.624277 0
M  V30 5769 C 554.954 -2.53804 1.11709 0
M  V30 5770 H 557.905 -1.19976 1.03882 0
M  V30 5771 H 557.926 -3.79801 0.230535 0
M  V30 5772 H 557.438 -3.32952 1.99411 0
M  V30 5773 H 555.539 -3.69948 -0.443737 0
M  V30 5774 H 555.652 -4.64132 1.18821 0
M  V30 5775 H 554.016 -2.48964 0.537484 0
M  V30 5776 H 554.799 -2.63315 2.20272 0
M  V30 5777 N 557.244 -0.608902 -1.45362 0
M  V30 5778 C 558.492 -0.104401 -2.0183 0
M  V30 5779 C 558.813 1.27007 -1.47967 0
M  V30 5780 O 558.083 1.83924 -0.674455 0
M  V30 5781 H 556.663 -0.0356042 -0.746151 0
M  V30 5782 H 559.325 -0.790596 -1.78145 0
M  V30 5783 H 558.421 -0.0551793 -3.12051 0
M  V30 5784 N 558.722 1.53707 -0.348139 0
M  V30 5785 C 560.138 1.596 0.00361134 0
M  V30 5786 C 560.338 1.36394 1.4832 0
M  V30 5787 O 559.394 1.16046 2.24253 0
M  V30 5788 C 560.707 2.97512 -0.436682 0
M  V30 5789 C 562.255 3.10568 -0.389416 0
M  V30 5790 C 562.73 4.50866 -0.805249 0
M  V30 5791 N 564.221 4.56929 -0.759616 0
M  V30 5792 C 564.956 5.63643 -1.05327 0
M  V30 5793 N 564.452 6.78189 -1.41531 0
M  V30 5794 N 566.245 5.5354 -0.977207 0
M  V30 5795 H 558.396 1.67044 -1.31187 0
M  V30 5796 H 560.659 0.782559 -0.535075 0
M  V30 5797 H 560.365 3.19575 -1.46849 0
M  V30 5798 H 560.239 3.76742 0.185744 0
M  V30 5799 H 562.626 2.88226 0.633228 0
M  V30 5800 H 562.707 2.33387 -1.04711 0
M  V30 5801 H 562.351 4.73943 -1.82593 0
M  V30 5802 H 562.281 5.26452 -0.124989 0
M  V30 5803 H 564.772 3.74675 -0.49265 0
M  V30 5804 H 565.085 7.55541 -1.62411 0
M  V30 5805 H 563.43 6.79624 -1.45381 0
M  V30 5806 H 566.621 4.62932 -0.693675 0
M  V30 5807 H 566.794 6.36614 -1.2094 0
M  V30 5808 N 560.2 0.0768682 1.57412 0
M  V30 5809 C 561.148 -0.906229 2.1422 0
M  V30 5810 C 562.142 -1.30477 1.08037 0
M  V30 5811 O 563.348 -1.28143 1.2641 0
M  V30 5812 H 559.723 -0.310207 0.685037 0
M  V30 5813 H 561.694 -0.402228 2.95677 0
M  V30 5814 C 560.443 -2.16245 2.72274 0
M  V30 5815 H 559.766 -1.86463 3.53655 0
M  V30 5816 H 561.206 -2.83134 3.15613 0
M  V30 5817 C 559.665 -2.92437 1.67279 0
M  V30 5818 O 560.195 -3.86322 1.10081 0
M  V30 5819 N 558.401 -2.55637 1.38195 0
M  V30 5820 H 557.948 -1.79363 1.84897 0
M  V30 5821 H 557.906 -3.06919 0.681787 0
M  V30 5822 N 561.678 -1.56367 -0.196722 0
M  V30 5823 C 562.924 -1.81698 -0.914182 0
M  V30 5824 C 563.279 -0.65367 -1.80956 0
M  V30 5825 O 562.572 0.351224 -1.88353 0
M  V30 5826 C 562.766 -3.10663 -1.767 0
M  V30 5827 C 562.595 -4.39428 -0.955689 0
M  V30 5828 C 561.365 -5.01221 -0.64076 0
M  V30 5829 C 563.563 -5.1337 -0.309165 0
M  V30 5830 N 561.545 -6.13608 0.189358 0
M  V30 5831 C 562.916 -6.18815 0.383225 0
M  V30 5832 C 564.971 -4.97393 -0.224726 0
M  V30 5833 C 563.674 -7.10015 1.15201 0
M  V30 5834 C 565.7 -5.89014 0.530658 0
M  V30 5835 C 565.062 -6.93903 1.2115 0
M  V30 5836 H 561.161 -0.716203 -0.31397 0
M  V30 5837 H 563.745 -1.93838 -0.18304 0
M  V30 5838 H 561.916 -2.99762 -2.46976 0
M  V30 5839 H 563.648 -3.24088 -2.42382 0
M  V30 5840 H 560.403 -4.63669 -0.96479 0
M  V30 5841 H 560.827 -6.74389 0.593979 0
M  V30 5842 H 565.469 -4.16331 -0.736754 0
M  V30 5843 H 563.187 -7.9054 1.67547 0
M  V30 5844 H 566.773 -5.78726 0.597326 0
M  V30 5845 H 565.653 -7.63576 1.78665 0
M  V30 5846 N 563.156 0.464375 -1.50603 0
M  V30 5847 C 564.119 1.54393 -1.69397 0
M  V30 5848 C 565.119 1.50566 -0.564504 0
M  V30 5849 O 566.309 1.53066 -0.831645 0
M  V30 5850 C 563.441 2.9401 -1.72543 0
M  V30 5851 H 564.634 1.39044 -2.65719 0
M  V30 5852 H 562.187 0.69122 -1.40185 0
M  V30 5853 H 562.922 3.14795 -0.77938 0
M  V30 5854 H 562.707 2.98195 -2.54602 0
M  V30 5855 H 564.197 3.72375 -1.89015 0
M  V30 5856 N 564.634 1.40294 0.718013 0
M  V30 5857 C 565.584 1.36847 1.82365 0
M  V30 5858 C 566.568 0.246424 1.59002 0
M  V30 5859 O 567.76 0.485336 1.70216 0
M  V30 5860 C 564.889 1.23105 3.20469 0
M  V30 5861 C 563.975 2.4008 3.49603 0
M  V30 5862 N 564.366 3.65562 3.49568 0
M  V30 5863 C 562.664 2.33407 3.80049 0
M  V30 5864 C 563.365 4.43015 3.76978 0
M  V30 5865 N 562.341 3.72823 3.95606 0
M  V30 5866 H 566.143 2.31811 1.80668 0
M  V30 5867 H 563.657 1.34031 0.91703 0
M  V30 5868 H 565.654 1.18718 3.9964 0
M  V30 5869 H 564.314 0.291056 3.23393 0
M  V30 5870 H 565.325 3.98756 3.30476 0
M  V30 5871 H 562.002 1.47762 3.90478 0
M  V30 5872 H 563.392 5.51859 3.83276 0
M  V30 5873 N 566.112 -0.949982 1.2575 0
M  V30 5874 C 567.358 -1.69766 1.10938 0
M  V30 5875 C 567.691 -1.91056 -0.348028 0
M  V30 5876 O 566.966 -1.48488 -1.25625 0
M  V30 5877 C 567.249 -3.07779 1.86933 0
M  V30 5878 C 567.102 -2.9387 3.4053 0
M  V30 5879 C 568.421 -4.07749 1.65616 0
M  V30 5880 H 565.54 -0.616144 0.404396 0
M  V30 5881 H 568.182 -1.10394 1.54639 0
M  V30 5882 H 566.332 -3.58462 1.4979 0
M  V30 5883 H 568.004 -2.50476 3.87375 0
M  V30 5884 H 566.247 -2.29686 3.68004 0
M  V30 5885 H 566.918 -3.91719 3.88922 0
M  V30 5886 H 569.394 -3.65994 1.97959 0
M  V30 5887 H 568.27 -5.02348 2.21218 0
M  V30 5888 H 568.531 -4.38029 0.598595 0
M  V30 5889 N 567.59 -1.07411 -1.15328 0
M  V30 5890 C 568.538 -0.689316 -2.22151 0
M  V30 5891 C 569.532 0.300156 -1.6672 0
M  V30 5892 O 570.738 0.163804 -1.79253 0
M  V30 5893 H 567.113 -0.204834 -0.723566 0
M  V30 5894 H 569.084 -1.59988 -2.51886 0
M  V30 5895 C 567.833 -0.103848 -3.47545 0
M  V30 5896 H 567.156 -0.856367 -3.90521 0
M  V30 5897 H 568.596 0.127725 -4.23808 0
M  V30 5898 C 567.055 1.15563 -3.1646 0
M  V30 5899 O 567.585 2.242 -3.33312 0
M  V30 5900 N 565.791 1.06203 -2.70498 0
M  V30 5901 H 565.338 0.177933 -2.56985 0
M  V30 5902 H 565.296 1.90553 -2.50074 0
M  V30 5903 N 569.068 1.32177 -0.85831 0
M  V30 5904 C 570.293 2.01847 -0.476718 0
M  V30 5905 C 570.718 1.64065 0.920021 0
M  V30 5906 O 570.076 0.843189 1.60499 0
M  V30 5907 C 570.124 3.55097 -0.627578 0
M  V30 5908 O 569.228 4.11012 0.338086 0
M  V30 5909 H 568.569 0.635907 -0.191099 0
M  V30 5910 H 571.099 1.68641 -1.15851 0
M  V30 5911 H 571.109 4.04718 -0.516476 0
M  V30 5912 H 569.784 3.81938 -1.64609 0
M  V30 5913 H 568.361 3.72451 0.182917 0
M  V30 5914 N 570.547 0.616602 1.45037 0
M  V30 5915 C 571.796 0.112861 2.01384 0
M  V30 5916 C 572.109 -1.26758 1.48969 0
M  V30 5917 O 573.315 -1.86454 1.9735 0
M  V30 5918 C 571.771 0.151057 3.59583 0
M  V30 5919 C 571.379 1.53191 4.20995 0
M  V30 5920 C 573.123 -0.296974 4.2346 0
M  V30 5921 C 571.03 1.526 5.71373 0
M  V30 5922 H 569.96 0.0384254 0.75302 0
M  V30 5923 H 572.611 0.773262 1.66412 0
M  V30 5924 H 570.993 -0.57617 3.91786 0
M  V30 5925 H 572.167 2.28156 4.00352 0
M  V30 5926 H 570.482 1.92279 3.69348 0
M  V30 5927 H 573.079 -0.320712 5.33737 0
M  V30 5928 H 573.422 -1.32145 3.9477 0
M  V30 5929 H 573.955 0.377279 3.96007 0
M  V30 5930 H 570.694 2.52837 6.04776 0
M  V30 5931 H 570.214 0.819064 5.94181 0
M  V30 5932 H 571.893 1.25357 6.3474 0
M  V30 5933 N 572.025 -1.5352 0.356285 0
M  V30 5934 C 572.988 -2.24071 -0.482182 0
M  V30 5935 C 573.988 -1.24531 -1.01729 0
M  V30 5936 O 575.178 -1.48876 -0.904513 0
M  V30 5937 C 572.31 -2.97025 -1.67299 0
M  V30 5938 H 573.503 -2.99596 0.135031 0
M  V30 5939 H 571.056 -1.55928 0.107825 0
M  V30 5940 H 571.791 -2.25719 -2.32855 0
M  V30 5941 H 571.576 -3.7005 -1.29636 0
M  V30 5942 H 573.066 -3.50683 -2.26741 0
M  V30 5943 N 573.503 -0.0852151 -1.57369 0
M  V30 5944 C 574.733 0.588605 -1.98038 0
M  V30 5945 C 575.141 1.62869 -0.962817 0
M  V30 5946 O 574.484 1.83611 0.057134 0
M  V30 5947 C 574.546 1.30303 -3.35054 0
M  V30 5948 C 574.21 0.414855 -4.55113 0
M  V30 5949 C 575.207 -0.333011 -5.18832 0
M  V30 5950 C 572.892 0.335804 -5.01176 0
M  V30 5951 C 574.886 -1.14801 -6.26976 0
M  V30 5952 C 572.573 -0.482857 -6.09189 0
M  V30 5953 C 573.571 -1.22342 -6.71953 0
M  V30 5954 O 573.259 -2.02855 -7.77885 0
M  V30 5955 H 572.991 0.163249 -0.655992 0
M  V30 5956 H 575.545 -0.1582 -2.0479 0
M  V30 5957 H 573.775 2.0962 -3.24956 0
M  V30 5958 H 575.464 1.87041 -3.60237 0
M  V30 5959 H 576.23 -0.281611 -4.84182 0
M  V30 5960 H 572.109 0.901869 -4.52092 0
M  V30 5961 H 575.653 -1.72654 -6.75897 0
M  V30 5962 H 571.55 -0.535773 -6.43273 0
M  V30 5963 H 572.318 -1.95432 -7.94826 0
M  V30 5964 N 574.981 1.5647 0.188427 0
M  V30 5965 C 576.258 1.71857 0.934058 0
M  V30 5966 C 576.638 0.641867 2.01105 0
M  V30 5967 O 575.986 -0.346098 2.25864 0
M  V30 5968 C 576.196 3.14431 1.5144 0
M  V30 5969 C 577.544 3.74869 1.99396 0
M  V30 5970 O 578.568 3.17601 1.61269 0
M  V30 5971 O 577.427 4.75387 2.69573 0
M  V30 5972 H 574.521 0.701186 0.438483 0
M  V30 5973 H 577.067 1.68768 0.177599 0
M  V30 5974 H 575.839 3.8427 0.738416 0
M  V30 5975 H 575.462 3.21775 2.33552 0
M  V30 5976 N 576.459 -0.456382 1.50847 0
M  V30 5977 C 577.422 -1.53493 1.70213 0
M  V30 5978 C 578.422 -1.50264 0.572481 0
M  V30 5979 O 579.612 -1.52623 0.839751 0
M  V30 5980 C 576.744 -2.93091 1.741 0
M  V30 5981 H 577.937 -1.37633 2.66453 0
M  V30 5982 H 575.49 -0.683776 1.4055 0
M  V30 5983 H 576.225 -3.14378 0.796063 0
M  V30 5984 H 576.01 -2.9684 2.5618 0
M  V30 5985 H 577.5 -3.71368 1.90987 0
M  V30 5986 N 577.937 -1.40673 -0.710563 0
M  V30 5987 C 578.884 -1.41336 -1.82463 0
M  V30 5988 C 579.854 -0.269648 -1.63897 0
M  V30 5989 O 581.039 -0.468463 -1.8496 0
M  V30 5990 C 578.179 -1.28665 -3.20218 0
M  V30 5991 C 577.292 -2.52784 -3.5032 0
M  V30 5992 C 576.427 -2.32517 -4.77608 0
M  V30 5993 C 575.466 -3.52187 -5.0063 0
M  V30 5994 N 574.603 -3.31084 -6.19135 0
M  V30 5995 H 579.443 -2.36558 -1.8123 0
M  V30 5996 H 576.98 -1.17483 -0.885226 0
M  V30 5997 H 578.938 -1.19324 -3.99772 0
M  V30 5998 H 577.568 -0.370602 -3.20666 0
M  V30 5999 H 576.62 -2.72634 -2.65283 0
M  V30 6000 H 577.932 -3.41845 -3.63241 0
M  V30 6001 H 577.086 -2.20558 -5.65189 0
M  V30 6002 H 575.825 -1.40889 -4.66906 0
M  V30 6003 H 574.83 -3.64617 -4.11502 0
M  V30 6004 H 576.055 -4.44749 -5.13201 0
M  V30 6005 H 574.001 -2.42143 -6.09674 0
M  V30 6006 H 573.918 -4.13713 -6.32754 0
M  V30 6007 H 575.186 -3.22868 -7.0949 0
M  V30 6008 N 579.415 0.9433 -1.26252 0
M  V30 6009 C 580.692 1.66639 -1.02424 0
M  V30 6010 C 581.072 2.06335 0.446006 0
M  V30 6011 O 580.42 1.78551 1.42589 0
M  V30 6012 C 580.63 2.88019 -1.97094 0
M  V30 6013 C 581.978 3.59718 -2.25584 0
M  V30 6014 O 583.002 2.9812 -1.94943 0
M  V30 6015 O 581.861 4.7066 -2.77743 0
M  V30 6016 H 578.955 0.729643 -0.389294 0
M  V30 6017 H 581.501 0.995218 -1.37454 0
M  V30 6018 H 580.273 2.5556 -2.96319 0
M  V30 6019 H 579.896 3.62863 -1.62532 0
M  V30 6020 N 580.893 1.08022 1.14757 0
M  V30 6021 C 582.17 0.720386 1.81851 0
M  V30 6022 C 582.55 -0.796375 1.95502 0
M  V30 6023 O 581.898 -1.71339 1.51179 0
M  V30 6024 C 582.108 1.44273 3.17783 0
M  V30 6025 C 583.456 1.59925 3.93331 0
M  V30 6026 O 584.48 1.40407 3.2736 0
M  V30 6027 O 583.339 1.92096 5.11626 0
M  V30 6028 H 580.433 0.257142 0.786007 0
M  V30 6029 H 582.979 1.18155 1.21809 0
M  V30 6030 H 581.751 2.47618 3.02987 0
M  V30 6031 H 581.374 0.97279 3.85516 0
M  V30 6032 N 582.371 -1.3172 0.865308 0
M  V30 6033 C 583.596 -2.01591 0.487415 0
M  V30 6034 C 584.021 -1.6455 -0.911307 0
M  V30 6035 O 583.379 -0.851689 -1.6005 0
M  V30 6036 C 583.427 -3.54759 0.646401 0
M  V30 6037 O 582.531 -4.11185 -0.316284 0
M  V30 6038 H 581.872 -0.634884 0.194468 0
M  V30 6039 H 584.402 -1.68024 1.16744 0
M  V30 6040 H 584.412 -4.04438 0.537932 0
M  V30 6041 H 583.087 -3.8106 1.66632 0
M  V30 6042 H 581.664 -3.72543 -0.163162 0
M  V30 6043 N 583.85 -0.624285 -1.44708 0
M  V30 6044 C 585.099 -0.123539 -2.01321 0
M  V30 6045 C 585.412 1.25966 -1.49639 0
M  V30 6046 O 586.618 1.85405 -1.98336 0
M  V30 6047 C 585.074 -0.170124 -3.59498 0
M  V30 6048 C 584.682 -1.55421 -4.20176 0
M  V30 6049 C 586.426 0.274513 -4.23611 0
M  V30 6050 C 584.332 -1.55628 -5.70556 0
M  V30 6051 H 583.263 -0.0424183 -0.752806 0
M  V30 6052 H 585.913 -0.782076 -1.65999 0
M  V30 6053 H 584.296 0.555385 -3.92086 0
M  V30 6054 H 585.47 -2.30276 -3.99136 0
M  V30 6055 H 583.784 -1.94235 -3.68323 0
M  V30 6056 H 586.382 0.292402 -5.339 0
M  V30 6057 H 586.725 1.3005 -3.95465 0
M  V30 6058 H 587.258 -0.398275 -3.95801 0
M  V30 6059 H 583.997 -2.56041 -6.03426 0
M  V30 6060 H 583.517 -0.850563 -5.93739 0
M  V30 6061 H 585.196 -1.28721 -6.34066 0
M  V30 6062 N 585.328 1.53329 -0.364422 0
M  V30 6063 C 586.577 2.00421 0.226747 0
M  V30 6064 C 586.89 1.25581 1.49963 0
M  V30 6065 O 588.096 1.63256 2.16933 0
M  V30 6066 C 586.552 3.57017 0.454618 0
M  V30 6067 C 586.16 4.40734 -0.803568 0
M  V30 6068 C 587.904 4.12468 1.00351 0
M  V30 6069 C 585.811 5.8888 -0.545345 0
M  V30 6070 H 584.741 0.748787 0.0885082 0
M  V30 6071 H 587.392 1.7703 -0.482983 0
M  V30 6072 H 585.774 3.76558 1.22558 0
M  V30 6073 H 586.948 4.32967 -1.57723 0
M  V30 6074 H 585.263 3.96381 -1.27559 0
M  V30 6075 H 587.86 5.20783 1.212 0
M  V30 6076 H 588.203 3.6699 1.9653 0
M  V30 6077 H 588.736 3.96721 0.29274 0
M  V30 6078 H 585.475 6.38633 -1.47743 0
M  V30 6079 H 584.995 5.99499 0.189842 0
M  V30 6080 H 586.674 6.46776 -0.170425 0
M  V30 6081 N 586.806 0.0935595 1.57322 0
M  V30 6082 C 587.736 -0.863062 2.16964 0
M  V30 6083 C 588.717 -1.29528 1.10256 0
M  V30 6084 O 589.902 -1.36245 1.38387 0
M  V30 6085 C 587.032 -2.12276 2.74875 0
M  V30 6086 C 585.986 -1.82921 3.86942 0
M  V30 6087 C 585.312 -3.15707 4.31548 0
M  V30 6088 C 586.612 -1.11737 5.10208 0
M  V30 6089 H 588.306 -0.366145 2.97153 0
M  V30 6090 H 585.852 -0.174673 1.42937 0
M  V30 6091 H 587.805 -2.79634 3.1525 0
M  V30 6092 H 586.529 -2.64248 1.91938 0
M  V30 6093 H 585.188 -1.17961 3.47103 0
M  V30 6094 H 584.836 -3.65563 3.45504 0
M  V30 6095 H 584.536 -2.96849 5.07104 0
M  V30 6096 H 586.06 -3.84226 4.74555 0
M  V30 6097 H 587.474 -1.69203 5.47762 0
M  V30 6098 H 585.871 -1.03064 5.91183 0
M  V30 6099 H 586.941 -0.0998818 4.84797 0
M  V30 6100 N 588.284 -1.56567 -0.180126 0
M  V30 6101 C 589.509 -1.85975 -0.918041 0
M  V30 6102 C 589.934 -0.678888 -1.75422 0
M  V30 6103 O 589.292 0.372168 -1.77439 0
M  V30 6104 C 589.34 -3.13731 -1.77779 0
M  V30 6105 O 588.444 -2.95335 -2.87838 0
M  V30 6106 H 587.785 -0.61196 -0.257683 0
M  V30 6107 H 590.315 -2.03798 -0.180923 0
M  V30 6108 H 590.325 -3.4491 -2.17948 0
M  V30 6109 H 589 -3.99293 -1.16352 0
M  V30 6110 H 587.577 -2.7549 -2.51316 0
M  V30 6111 N 589.762 0.448376 -1.51087 0
M  V30 6112 C 590.987 1.22605 -1.6728 0
M  V30 6113 C 591.412 1.84524 -0.365045 0
M  V30 6114 O 590.77 1.6832 0.673642 0
M  V30 6115 C 590.818 2.29393 -2.78229 0
M  V30 6116 O 589.922 3.34608 -2.41063 0
M  V30 6117 H 589.263 0.359705 -0.558129 0
M  V30 6118 H 591.793 0.530903 -1.97592 0
M  V30 6119 H 591.803 2.74352 -3.01986 0
M  V30 6120 H 590.478 1.83701 -3.73131 0
M  V30 6121 H 589.055 2.95202 -2.27838 0
M  V30 6122 N 591.24 1.41047 0.703093 0
M  V30 6123 C 592.656 1.23351 1.01275 0
M  V30 6124 C 592.856 0.11754 2.01157 0
M  V30 6125 O 591.912 -0.520518 2.47077 0
M  V30 6126 C 593.225 2.58001 1.54454 0
M  V30 6127 C 594.773 2.65119 1.66376 0
M  V30 6128 C 595.248 4.00067 2.22958 0
M  V30 6129 N 596.739 4.01875 2.30328 0
M  V30 6130 C 597.474 5.03087 2.75119 0
M  V30 6131 N 596.97 6.14692 3.19571 0
M  V30 6132 N 598.763 4.90451 2.74616 0
M  V30 6133 H 590.914 2.1236 0.0412686 0
M  V30 6134 H 593.177 0.944543 0.08089 0
M  V30 6135 H 592.883 3.40378 0.88521 0
M  V30 6136 H 592.757 2.79962 2.52786 0
M  V30 6137 H 595.144 1.83106 2.31422 0
M  V30 6138 H 595.225 2.46975 0.666089 0
M  V30 6139 H 594.869 4.82526 1.58529 0
M  V30 6140 H 594.799 4.15547 3.23462 0
M  V30 6141 H 597.29 3.21291 1.98949 0
M  V30 6142 H 597.603 6.87799 3.52352 0
M  V30 6143 H 595.948 6.18239 3.17498 0
M  V30 6144 H 599.139 4.0235 2.39233 0
M  V30 6145 H 599.312 5.6947 3.09206 0
M  V30 6146 N 592.718 -0.936591 1.26751 0
M  V30 6147 C 593.668 -2.0219 1.05371 0
M  V30 6148 C 594.652 -1.60893 -0.0154112 0
M  V30 6149 O 595.844 -1.75843 0.202085 0
M  V30 6150 C 592.973 -3.36222 0.693541 0
M  V30 6151 C 592.059 -3.8399 1.80035 0
M  V30 6152 N 592.45 -4.0436 3.03852 0
M  V30 6153 C 590.748 -4.12945 1.685 0
M  V30 6154 C 591.449 -4.44 3.75818 0
M  V30 6155 N 590.425 -4.50966 3.03531 0
M  V30 6156 H 594.227 -2.15958 1.99347 0
M  V30 6157 H 591.741 -1.12277 1.17335 0
M  V30 6158 H 593.738 -4.13625 0.521513 0
M  V30 6159 H 592.398 -3.23821 -0.238693 0
M  V30 6160 H 593.409 -3.9092 3.39709 0
M  V30 6161 H 590.086 -4.09308 0.822986 0
M  V30 6162 H 591.476 -4.67914 4.82189 0
M  V30 6163 N 594.196 -1.08629 -1.14182 0
M  V30 6164 C 595.128 -0.676189 -2.18998 0
M  V30 6165 C 596.141 0.277871 -1.60411 0
M  V30 6166 O 597.33 0.0651771 -1.78381 0
M  V30 6167 C 594.43 0.0254916 -3.3889 0
M  V30 6168 C 593.603 -0.948039 -4.27002 0
M  V30 6169 C 592.662 -0.281268 -5.25448 0
M  V30 6170 O 591.688 -0.926378 -5.61611 0
M  V30 6171 N 592.89 0.967923 -5.72374 0
M  V30 6172 H 595.655 -1.57792 -2.54798 0
M  V30 6173 H 593.216 -0.972665 -1.29425 0
M  V30 6174 H 595.208 0.482554 -4.01813 0
M  V30 6175 H 593.778 0.829348 -3.01398 0
M  V30 6176 H 592.998 -1.58388 -3.6098 0
M  V30 6177 H 594.286 -1.60765 -4.82734 0
M  V30 6178 H 593.684 1.51175 -5.45126 0
M  V30 6179 H 592.241 1.36844 -6.37273 0
M  V30 6180 N 595.674 1.31259 -0.872281 0
M  V30 6181 C 596.922 1.96233 -0.483409 0
M  V30 6182 C 597.243 1.69276 0.968012 0
M  V30 6183 O 596.513 1.00943 1.67891 0
M  V30 6184 H 595.093 0.726025 -0.175774 0
M  V30 6185 H 597.755 1.60024 -1.11258 0
M  V30 6186 H 596.851 3.05403 -0.643075 0
M  V30 6187 N 597.152 0.631951 1.44375 0
M  V30 6188 C 598.398 0.13697 2.02337 0
M  V30 6189 C 598.731 -1.23826 1.49602 0
M  V30 6190 O 598.006 -1.8221 0.680415 0
M  V30 6191 C 598.289 0.124536 3.59885 0
M  V30 6192 C 598.142 1.53217 4.229 0
M  V30 6193 C 599.461 -0.550481 4.36644 0
M  V30 6194 H 596.58 0.051247 0.735216 0
M  V30 6195 H 599.222 0.808581 1.71936 0
M  V30 6196 H 597.372 -0.44737 3.85916 0
M  V30 6197 H 599.044 2.15303 4.07973 0
M  V30 6198 H 597.287 2.0858 3.80364 0
M  V30 6199 H 597.958 1.4755 5.31914 0
M  V30 6200 H 600.434 -0.0641154 4.16051 0
M  V30 6201 H 599.31 -0.528371 5.46351 0
M  V30 6202 H 599.571 -1.62097 4.11311 0
M  V30 6203 N 598.631 -1.53133 0.372548 0
M  V30 6204 C 599.877 -2.01654 -0.215277 0
M  V30 6205 C 600.21 -1.25914 -1.47849 0
M  V30 6206 O 599.485 -0.3548 -1.91237 0
M  V30 6207 C 599.768 -3.56609 -0.500187 0
M  V30 6208 C 599.621 -4.43036 0.777145 0
M  V30 6209 C 600.94 -4.20528 -1.29786 0
M  V30 6210 H 598.059 -0.732991 -0.0767686 0
M  V30 6211 H 600.701 -1.83335 0.498814 0
M  V30 6212 H 598.851 -3.7235 -1.10852 0
M  V30 6213 H 600.523 -4.39079 1.41447 0
M  V30 6214 H 598.766 -4.10723 1.39604 0
M  V30 6215 H 599.437 -5.49424 0.532662 0
M  V30 6216 H 601.913 -4.08663 -0.783198 0
M  V30 6217 H 600.789 -5.28962 -1.46596 0
M  V30 6218 H 601.05 -3.77051 -2.30836 0
M  V30 6219 N 600.109 -0.101901 -1.5727 0
M  V30 6220 C 601.056 0.854577 -2.14396 0
M  V30 6221 C 602.026 1.27521 -1.06432 0
M  V30 6222 O 603.211 1.35575 -1.34253 0
M  V30 6223 C 600.351 2.10576 -2.73408 0
M  V30 6224 C 599.464 1.73504 -3.95626 0
M  V30 6225 C 598.599 2.9346 -4.42781 0
M  V30 6226 C 597.638 2.52547 -5.57572 0
M  V30 6227 N 596.775 3.65359 -5.99547 0
M  V30 6228 H 601.615 0.360578 -2.9581 0
M  V30 6229 H 599.152 0.166303 -1.46157 0
M  V30 6230 H 601.11 2.83859 -3.05745 0
M  V30 6231 H 599.74 2.57463 -1.94711 0
M  V30 6232 H 598.792 0.901622 -3.6956 0
M  V30 6233 H 600.104 1.39426 -4.78917 0
M  V30 6234 H 599.258 3.74988 -4.76937 0
M  V30 6235 H 597.997 3.30753 -3.58404 0
M  V30 6236 H 597.002 1.69446 -5.23037 0
M  V30 6237 H 598.227 2.1639 -6.43702 0
M  V30 6238 H 596.173 4.02358 -5.18116 0
M  V30 6239 H 596.09 3.35148 -6.77652 0
M  V30 6240 H 597.358 4.47378 -6.38336 0
M  V30 6241 N 601.587 1.56661 0.17182 0
M  V30 6242 C 602.836 1.81158 0.886831 0
M  V30 6243 C 603.149 0.679072 1.83434 0
M  V30 6244 O 604.355 0.808964 2.59168 0
M  V30 6245 C 602.811 3.20999 1.6275 0
M  V30 6246 C 602.419 4.42117 0.723652 0
M  V30 6247 C 604.163 3.5479 2.33076 0
M  V30 6248 C 602.07 5.7298 1.46452 0
M  V30 6249 H 601 0.675543 0.334899 0
M  V30 6250 H 603.651 1.82967 0.139765 0
M  V30 6251 H 602.033 3.13506 2.4193 0
M  V30 6252 H 603.207 4.60789 -0.0311485 0
M  V30 6253 H 601.522 4.16197 0.130063 0
M  V30 6254 H 604.119 4.49806 2.89099 0
M  V30 6255 H 604.462 2.79646 3.08389 0
M  V30 6256 H 604.995 3.63834 1.6084 0
M  V30 6257 H 601.734 6.51152 0.753729 0
M  V30 6258 H 601.254 5.58285 2.19266 0
M  V30 6259 H 602.933 6.14916 2.01214 0
M  V30 6260 N 603.065 -0.440357 1.51323 0
M  V30 6261 C 604.313 -1.18769 1.63518 0
M  V30 6262 C 604.634 -1.91793 0.352201 0
M  V30 6263 O 603.904 -1.85432 -0.631811 0
M  V30 6264 H 602.484 -0.441408 0.602634 0
M  V30 6265 H 605.146 -0.505162 1.8824 0
M  V30 6266 H 604.242 -1.91892 2.46138 0
M  V30 6267 N 604.543 -1.41418 -0.695603 0
M  V30 6268 C 605.959 -1.23887 -1.00619 0
M  V30 6269 C 606.159 -0.128206 -2.01092 0
M  V30 6270 O 605.215 0.507408 -2.47349 0
M  V30 6271 C 606.528 -2.58816 -1.53083 0
M  V30 6272 C 608.076 -2.65998 -1.64967 0
M  V30 6273 C 608.551 -4.01244 -2.20833 0
M  V30 6274 N 610.042 -4.0309 -2.28194 0
M  V30 6275 C 610.777 -5.04539 -2.72448 0
M  V30 6276 N 610.273 -6.16378 -3.16306 0
M  V30 6277 N 612.066 -4.91901 -2.72011 0
M  V30 6278 H 604.217 -2.12379 -0.0300061 0
M  V30 6279 H 606.48 -0.944958 -0.0758797 0
M  V30 6280 H 606.186 -3.40842 -0.867147 0
M  V30 6281 H 606.06 -2.81299 -2.51298 0
M  V30 6282 H 608.447 -1.84331 -2.30448 0
M  V30 6283 H 608.528 -2.47325 -0.652982 0
M  V30 6284 H 608.172 -4.83359 -1.55968 0
M  V30 6285 H 608.102 -4.17257 -3.21254 0
M  V30 6286 H 610.593 -3.22341 -1.97242 0
M  V30 6287 H 610.906 -6.89658 -3.487 0
M  V30 6288 H 609.251 -6.19914 -3.14215 0
M  V30 6289 H 612.442 -4.03613 -2.37095 0
M  V30 6290 H 612.615 -5.71102 -3.06181 0
M  V30 6291 N 606.021 0.929856 -1.27246 0
M  V30 6292 C 607.298 1.65544 -1.04186 0
M  V30 6293 C 607.678 2.06796 0.424097 0
M  V30 6294 O 607.026 1.80053 1.40688 0
M  V30 6295 C 607.236 2.85912 -2.00138 0
M  V30 6296 C 608.584 3.57305 -2.29387 0
M  V30 6297 O 609.608 2.96036 -1.98094 0
M  V30 6298 O 608.467 4.67688 -2.82719 0
M  V30 6299 H 605.561 0.725473 -0.397011 0
M  V30 6300 H 608.107 0.980583 -1.38501 0
M  V30 6301 H 606.879 2.52403 -2.99013 0
M  V30 6302 H 606.502 3.61118 -1.66371 0
M  V30 6303 N 607.499 1.09233 1.13605 0
M  V30 6304 C 608.446 0.729921 2.18954 0
M  V30 6305 C 609.416 -0.287916 1.63586 0
M  V30 6306 O 610.601 -0.170003 1.90041 0
M  V30 6307 C 607.741 0.154489 3.44754 0
M  V30 6308 C 606.854 1.22613 4.14234 0
M  V30 6309 C 605.989 0.613657 5.27644 0
M  V30 6310 C 605.028 1.66674 5.8897 0
M  V30 6311 N 604.165 1.07545 6.93814 0
M  V30 6312 H 609.005 1.63257 2.49302 0
M  V30 6313 H 606.542 0.815693 1.22413 0
M  V30 6314 H 608.5 -0.196923 4.16735 0
M  V30 6315 H 607.13 -0.711433 3.14863 0
M  V30 6316 H 606.182 1.69485 3.40557 0
M  V30 6317 H 607.494 2.0238 4.55899 0
M  V30 6318 H 606.648 0.210976 6.06333 0
M  V30 6319 H 605.387 -0.215584 4.87223 0
M  V30 6320 H 604.392 2.07899 5.08978 0
M  V30 6321 H 605.617 2.49861 6.31464 0
M  V30 6322 H 603.563 0.267451 6.55455 0
M  V30 6323 H 603.48 1.81011 7.3401 0
M  V30 6324 H 604.748 0.698906 7.7636 0
M  V30 6325 N 608.977 -1.30795 0.87923 0
M  V30 6326 C 609.909 -2.27241 0.299025 0
M  V30 6327 C 610.922 -1.53472 -0.543166 0
M  V30 6328 O 612.111 -1.74756 -0.363651 0
M  V30 6329 C 609.211 -3.33655 -0.593931 0
M  V30 6330 C 608.384 -4.36857 0.2179 0
M  V30 6331 C 607.443 -5.22715 -0.604646 0
M  V30 6332 O 606.469 -5.69192 -0.0293838 0
M  V30 6333 N 607.671 -5.48008 -1.91488 0
M  V30 6334 H 610.436 -2.77667 1.12788 0
M  V30 6335 H 607.997 -1.43914 0.741637 0
M  V30 6336 H 609.989 -3.88013 -1.15012 0
M  V30 6337 H 608.559 -2.83202 -1.32346 0
M  V30 6338 H 607.779 -3.82444 0.955536 0
M  V30 6339 H 609.067 -5.02869 0.774614 0
M  V30 6340 H 608.465 -5.1202 -2.40525 0
M  V30 6341 H 607.022 -6.05264 -2.41864 0
M  V30 6342 N 610.455 -0.639598 -1.44038 0
M  V30 6343 C 611.701 -0.147698 -2.02261 0
M  V30 6344 C 612.034 1.23031 -1.50256 0
M  V30 6345 O 611.309 1.81847 -0.690068 0
M  V30 6346 C 611.592 -0.14362 -3.59813 0
M  V30 6347 C 611.445 -1.55458 -4.22082 0
M  V30 6348 C 612.764 0.527317 -4.36929 0
M  V30 6349 H 609.883 -0.0551453 -0.734934 0
M  V30 6350 H 612.525 -0.817688 -1.71505 0
M  V30 6351 H 610.675 0.426898 -3.86147 0
M  V30 6352 H 612.347 -2.17464 -4.06826 0
M  V30 6353 H 610.59 -2.10594 -3.79253 0
M  V30 6354 H 611.261 -1.50369 -5.31124 0
M  V30 6355 H 613.737 0.0420504 -4.16079 0
M  V30 6356 H 612.613 0.499389 -5.46624 0
M  V30 6357 H 612.874 1.59914 -4.12165 0
M  V30 6358 N 611.933 1.52934 -0.380664 0
M  V30 6359 C 612.88 2.26197 0.458641 0
M  V30 6360 C 613.85 1.27462 1.06502 0
M  V30 6361 O 615.035 1.56274 1.09467 0
M  V30 6362 C 612.175 3.06571 1.58456 0
M  V30 6363 C 611.288 4.20222 1.00189 0
M  V30 6364 C 610.423 4.88007 2.09815 0
M  V30 6365 C 609.462 5.93665 1.49092 0
M  V30 6366 N 608.599 6.55081 2.52613 0
M  V30 6367 H 613.439 2.975 -0.172595 0
M  V30 6368 H 610.976 1.4678 -0.0969426 0
M  V30 6369 H 612.934 3.51455 2.24801 0
M  V30 6370 H 611.564 2.37494 2.18624 0
M  V30 6371 H 610.616 3.79714 0.228292 0
M  V30 6372 H 611.928 4.96102 0.518064 0
M  V30 6373 H 611.082 5.36151 2.83948 0
M  V30 6374 H 609.821 4.11632 2.61555 0
M  V30 6375 H 608.826 5.44868 0.7348 0
M  V30 6376 H 610.051 6.71969 0.981582 0
M  V30 6377 H 607.997 5.8155 3.03538 0
M  V30 6378 H 607.914 7.26548 2.08961 0
M  V30 6379 H 609.182 7.07871 3.26402 0
M  V30 6380 N 613.412 0.11024 1.57214 0
M  V30 6381 C 614.658 -0.544479 1.95977 0
M  V30 6382 C 615.013 -1.64845 0.992171 0
M  V30 6383 O 614.306 -1.91589 0.0206981 0
M  V30 6384 C 614.5 -1.13102 3.39032 0
M  V30 6385 C 614.329 -0.0854079 4.49619 0
M  V30 6386 C 613.099 0.343373 5.04132 0
M  V30 6387 C 615.297 0.692232 5.0962 0
M  V30 6388 N 613.279 1.37567 5.98288 0
M  V30 6389 C 614.65 1.57596 5.99636 0
M  V30 6390 C 616.705 0.744085 4.92309 0
M  V30 6391 C 615.408 2.50701 6.74197 0
M  V30 6392 C 617.434 1.6628 5.67543 0
M  V30 6393 C 616.796 2.53412 6.57238 0
M  V30 6394 H 612.895 -0.169124 0.763493 0
M  V30 6395 H 615.479 0.196326 1.93708 0
M  V30 6396 H 613.65 -1.84158 3.41965 0
M  V30 6397 H 615.382 -1.74934 3.64939 0
M  V30 6398 H 612.137 -0.0473277 4.73576 0
M  V30 6399 H 612.561 1.89048 6.50069 0
M  V30 6400 H 617.203 0.0845825 4.22715 0
M  V30 6401 H 614.921 3.17669 7.43043 0
M  V30 6402 H 618.507 1.70825 5.56156 0
M  V30 6403 H 617.387 3.23347 7.14434 0
M  V30 6404 N 614.89 -1.56749 -0.16351 0
M  V30 6405 C 616.139 -1.81626 -0.877211 0
M  V30 6406 C 616.452 -0.688791 -1.83071 0
M  V30 6407 O 617.658 -0.822697 -2.58735 0
M  V30 6408 C 616.114 -3.21858 -1.61045 0
M  V30 6409 C 615.722 -4.42494 -0.700195 0
M  V30 6410 C 617.466 -3.56021 -2.31192 0
M  V30 6411 C 615.373 -5.73748 -1.43412 0
M  V30 6412 H 614.303 -0.67731 -0.331312 0
M  V30 6413 H 616.954 -1.83039 -0.13006 0
M  V30 6414 H 615.336 -3.14784 -2.40264 0
M  V30 6415 H 616.51 -4.60766 0.0555849 0
M  V30 6416 H 614.825 -4.1626 -0.10799 0
M  V30 6417 H 617.422 -4.51333 -2.8671 0
M  V30 6418 H 617.765 -2.81277 -3.06902 0
M  V30 6419 H 618.298 -3.64682 -1.58909 0
M  V30 6420 H 615.037 -6.51543 -0.719186 0
M  V30 6421 H 614.557 -5.5944 -2.16302 0
M  V30 6422 H 616.236 -6.15975 -1.9795 0
M  V30 6423 N 616.368 0.432326 -1.51554 0
M  V30 6424 C 617.298 1.53242 -1.76179 0
M  V30 6425 C 618.279 1.58717 -0.611801 0
M  V30 6426 O 619.464 1.74364 -0.855033 0
M  V30 6427 C 616.594 2.91278 -1.89141 0
M  V30 6428 C 615.548 3.00663 -3.04608 0
M  V30 6429 C 614.874 4.40728 -3.02759 0
M  V30 6430 C 616.174 2.74281 -4.44485 0
M  V30 6431 H 617.868 1.32886 -2.68294 0
M  V30 6432 H 615.414 0.637841 -1.29103 0
M  V30 6433 H 617.367 3.68203 -2.04951 0
M  V30 6434 H 616.091 3.12877 -0.936785 0
M  V30 6435 H 614.75 2.26179 -2.88511 0
M  V30 6436 H 614.398 4.59301 -2.05065 0
M  V30 6437 H 614.098 4.47936 -3.80299 0
M  V30 6438 H 615.622 5.19619 -3.20669 0
M  V30 6439 H 617.036 3.40936 -4.60907 0
M  V30 6440 H 615.433 2.92893 -5.23769 0
M  V30 6441 H 616.503 1.69856 -4.54177 0
M  V30 6442 N 617.846 1.41785 0.688094 0
M  V30 6443 C 618.809 1.43936 1.78368 0
M  V30 6444 C 619.809 0.328866 1.57401 0
M  V30 6445 O 620.999 0.589093 1.63937 0
M  V30 6446 C 618.131 1.25804 3.16838 0
M  V30 6447 H 619.324 2.41472 1.77852 0
M  V30 6448 H 616.877 1.28037 0.896448 0
M  V30 6449 H 617.612 0.291386 3.22988 0
M  V30 6450 H 617.397 2.06272 3.33458 0
M  V30 6451 H 618.887 1.30162 3.96797 0
M  V30 6452 N 619.324 -0.923095 1.27737 0
M  V30 6453 C 620.735 -1.48626 1.12993 0
M  V30 6454 C 621.086 -1.94142 -0.283439 0
M  V30 6455 O 620.211 -1.81605 -1.17681 0
M  V30 6456 C 620.806 -2.70117 2.04505 0
M  V30 6457 C 619.365 -3.22642 1.93853 0
M  V30 6458 C 618.512 -1.95368 1.96791 0
M  V30 6459 H 621.463 -0.736737 1.40563 0
M  V30 6460 H 621.484 -3.4506 1.60356 0
M  V30 6461 H 620.996 -2.36959 3.07363 0
M  V30 6462 H 619.097 -3.60549 0.939968 0
M  V30 6463 H 619.21 -3.88525 2.80331 0
M  V30 6464 H 617.574 -2.12061 1.41076 0
M  V30 6465 H 618.357 -1.64517 3.01312 0
M  V30 6466 N 620.802 -1.09834 -1.13024 0
M  V30 6467 C 622.027 -0.85909 -1.88771 0
M  V30 6468 C 622.452 0.584402 -1.78791 0
M  V30 6469 O 621.81 1.41101 -1.13842 0
M  V30 6470 C 621.858 -1.30427 -3.36186 0
M  V30 6471 O 620.962 -0.465368 -4.09766 0
M  V30 6472 H 620.303 -0.310786 -0.586778 0
M  V30 6473 H 622.833 -1.46355 -1.42973 0
M  V30 6474 H 622.843 -1.2915 -3.8702 0
M  V30 6475 H 621.518 -2.3555 -3.42767 0
M  V30 6476 H 620.095 -0.542814 -3.68928 0
M  V30 6477 N 622.28 1.30327 -0.886154 0
M  V30 6478 C 623.227 2.28099 -0.352069 0
M  V30 6479 C 624.197 1.56433 0.558397 0
M  V30 6480 O 625.382 1.84492 0.486561 0
M  V30 6481 C 622.522 3.42456 0.426346 0
M  V30 6482 C 621.635 4.28938 -0.513472 0
M  V30 6483 C 620.77 5.30458 0.280657 0
M  V30 6484 C 619.809 6.0859 -0.654556 0
M  V30 6485 N 618.946 7.02022 0.104322 0
M  V30 6486 H 623.786 2.73166 -1.19097 0
M  V30 6487 H 621.323 1.34367 -0.598662 0
M  V30 6488 H 623.281 4.07518 0.893587 0
M  V30 6489 H 621.911 2.98455 1.22981 0
M  V30 6490 H 620.963 3.64173 -1.09921 0
M  V30 6491 H 622.275 4.83399 -1.2299 0
M  V30 6492 H 621.429 6.01273 0.8097 0
M  V30 6493 H 620.168 4.76693 1.03029 0
M  V30 6494 H 619.173 5.36651 -1.19522 0
M  V30 6495 H 620.398 6.64443 -1.4033 0
M  V30 6496 H 618.344 6.50645 0.836472 0
M  V30 6497 H 618.261 7.53979 -0.552453 0
M  V30 6498 H 619.529 7.77077 0.614069 0
M  V30 6499 N 623.758 0.647228 1.43697 0
M  V30 6500 C 625.006 0.157876 2.01482 0
M  V30 6501 C 625.327 -1.23039 1.51282 0
M  V30 6502 O 624.597 -1.82071 0.722982 0
M  V30 6503 H 623.177 0.0553745 0.744945 0
M  V30 6504 H 625.839 0.83755 1.75986 0
M  V30 6505 H 624.935 0.137895 3.11795 0
M  V30 6506 N 625.236 -1.5273 0.388769 0
M  V30 6507 C 626.482 -2.02545 -0.186351 0
M  V30 6508 C 626.837 -1.27017 -1.44514 0
M  V30 6509 O 626.13 -0.361948 -1.8815 0
M  V30 6510 C 626.324 -3.53765 -0.508445 0
M  V30 6511 C 626.153 -4.43938 0.71758 0
M  V30 6512 C 624.923 -4.89933 1.23668 0
M  V30 6513 C 627.121 -4.89113 1.58974 0
M  V30 6514 N 625.103 -5.64176 2.42031 0
M  V30 6515 C 626.474 -5.61931 2.61979 0
M  V30 6516 C 628.529 -4.71155 1.60989 0
M  V30 6517 C 627.232 -6.18698 3.66886 0
M  V30 6518 C 629.258 -5.28804 2.64803 0
M  V30 6519 C 628.62 -6.01527 3.6653 0
M  V30 6520 H 624.719 -0.781413 -0.0302921 0
M  V30 6521 H 627.303 -1.87104 0.538539 0
M  V30 6522 H 625.474 -3.6932 -1.20239 0
M  V30 6523 H 627.206 -3.9028 -1.07067 0
M  V30 6524 H 623.961 -4.66833 0.797763 0
M  V30 6525 H 624.385 -6.05949 3.01919 0
M  V30 6526 H 629.027 -4.14435 0.836881 0
M  V30 6527 H 626.745 -6.74501 4.45055 0
M  V30 6528 H 630.331 -5.1679 2.67245 0
M  V30 6529 H 629.211 -6.45339 4.45542 0
M  V30 6530 N 626.714 -0.118576 -1.57153 0
M  V30 6531 C 627.624 0.845484 -2.18835 0
M  V30 6532 C 628.64 1.29299 -1.16438 0
M  V30 6533 O 629.816 1.35607 -1.48905 0
M  V30 6534 C 626.881 2.07795 -2.77529 0
M  V30 6535 C 625.942 1.6824 -3.9496 0
M  V30 6536 C 625.175 2.85612 -4.50845 0
M  V30 6537 O 625.398 4.01025 -4.05629 0
M  V30 6538 O 624.332 2.62721 -5.41536 0
M  V30 6539 H 628.158 0.350568 -3.0167 0
M  V30 6540 H 625.743 0.107013 -1.49016 0
M  V30 6541 H 627.625 2.79978 -3.14945 0
M  V30 6542 H 626.3 2.56294 -1.97725 0
M  V30 6543 H 625.207 0.931663 -3.62313 0
M  V30 6544 H 626.54 1.24484 -4.76198 0
M  V30 6545 N 628.193 1.56834 0.155195 0
M  V30 6546 C 629.14 1.97646 1.19184 0
M  V30 6547 C 630.11 0.842788 1.4313 0
M  V30 6548 O 631.295 1.1042 1.55602 0
M  V30 6549 C 628.435 2.35527 2.52232 0
M  V30 6550 C 627.548 3.62147 2.35529 0
M  V30 6551 C 626.683 3.89167 3.61555 0
M  V30 6552 C 625.722 5.09084 3.39853 0
M  V30 6553 N 624.859 5.32156 4.5799 0
M  V30 6554 H 629.699 2.8601 0.836802 0
M  V30 6555 H 627.236 1.41507 0.401758 0
M  V30 6556 H 629.194 2.55516 3.29799 0
M  V30 6557 H 627.824 1.50253 2.85699 0
M  V30 6558 H 626.876 3.4998 1.49057 0
M  V30 6559 H 628.188 4.49871 2.15448 0
M  V30 6560 H 627.342 4.09611 4.47553 0
M  V30 6561 H 626.081 2.9985 3.84632 0
M  V30 6562 H 625.086 4.88522 2.52243 0
M  V30 6563 H 626.311 5.99947 3.18183 0
M  V30 6564 H 624.257 4.45791 4.81255 0
M  V30 6565 H 624.174 6.14133 4.40882 0
M  V30 6566 H 625.442 5.57091 5.45225 0
M  V30 6567 N 629.671 -0.424282 1.51781 0
M  V30 6568 C 631.082 -1.00368 1.57427 0
M  V30 6569 C 631.433 -1.91962 0.40558 0
M  V30 6570 O 630.558 -2.111 -0.47601 0
M  V30 6571 C 631.153 -1.82707 2.85313 0
M  V30 6572 C 629.712 -2.35675 2.93487 0
M  V30 6573 C 628.859 -1.1524 2.5222 0
M  V30 6574 H 631.81 -0.205064 1.5737 0
M  V30 6575 H 631.831 -2.68294 2.69812 0
M  V30 6576 H 631.343 -1.16017 3.70353 0
M  V30 6577 H 629.444 -3.05781 2.12906 0
M  V30 6578 H 629.557 -2.67578 3.97415 0
M  V30 6579 H 627.921 -1.50174 2.05718 0
M  V30 6580 H 628.704 -0.5014 3.39619 0
M  V30 6581 N 631.149 -1.42148 -0.680565 0
M  V30 6582 C 632.079 -1.4796 -1.80638 0
M  V30 6583 C 633.06 -0.336728 -1.66734 0
M  V30 6584 O 634.245 -0.550247 -1.86242 0
M  V30 6585 C 631.375 -1.37569 -3.18892 0
M  V30 6586 C 630.329 -2.49823 -3.47524 0
M  V30 6587 C 629.655 -2.24491 -4.85291 0
M  V30 6588 C 630.955 -3.92144 -3.44994 0
M  V30 6589 H 632.649 -2.42184 -1.76032 0
M  V30 6590 H 630.195 -1.16566 -0.845481 0
M  V30 6591 H 632.148 -1.40243 -3.97379 0
M  V30 6592 H 630.872 -0.398357 -3.24162 0
M  V30 6593 H 629.531 -2.46455 -2.71395 0
M  V30 6594 H 629.179 -1.25066 -4.87204 0
M  V30 6595 H 628.879 -2.99722 -5.05411 0
M  V30 6596 H 630.403 -2.28906 -5.66069 0
M  V30 6597 H 631.817 -3.97145 -4.13459 0
M  V30 6598 H 630.214 -4.67179 -3.76648 0
M  V30 6599 H 631.284 -4.19225 -2.43676 0
M  V30 6600 N 632.627 0.916307 -1.28225 0
M  V30 6601 C 633.59 1.99996 -1.11957 0
M  V30 6602 C 634.59 1.60688 -0.0600152 0
M  V30 6603 O 635.78 1.71499 -0.30558 0
M  V30 6604 C 632.912 3.33458 -0.708411 0
M  V30 6605 H 634.105 2.15858 -2.08196 0
M  V30 6606 H 631.658 1.09863 -1.11175 0
M  V30 6607 H 632.393 3.23297 0.254859 0
M  V30 6608 H 632.178 3.63349 -1.47377 0
M  V30 6609 H 633.668 4.13014 -0.617164 0
M  V30 6610 N 634.105 1.10431 1.1244 0
M  V30 6611 C 635.33 0.869089 1.88313 0
M  V30 6612 C 635.755 -0.574912 1.79099 0
M  V30 6613 O 635.113 -1.40496 1.14589 0
M  V30 6614 C 635.161 1.32208 3.3549 0
M  V30 6615 O 634.265 0.487092 4.09513 0
M  V30 6616 H 633.606 0.313894 0.585121 0
M  V30 6617 H 636.136 1.47111 1.42195 0
M  V30 6618 H 636.146 1.31201 3.86329 0
M  V30 6619 H 634.821 2.37364 3.41513 0
M  V30 6620 H 633.398 0.562372 3.68635 0
M  V30 6621 N 635.583 -1.29855 0.893053 0
M  V30 6622 C 636.53 -2.27909 0.364161 0
M  V30 6623 C 637.5 -1.56726 -0.550093 0
M  V30 6624 O 638.685 -1.84747 -0.47677 0
M  V30 6625 C 635.825 -3.42678 -0.408178 0
M  V30 6626 C 634.938 -4.28659 0.536212 0
M  V30 6627 C 634.073 -5.30599 -0.252521 0
M  V30 6628 C 633.112 -6.08234 0.686822 0
M  V30 6629 N 632.249 -7.02068 -0.0670902 0
M  V30 6630 H 637.089 -2.72531 1.20544 0
M  V30 6631 H 634.626 -1.34047 0.605779 0
M  V30 6632 H 636.584 -4.07986 -0.871962 0
M  V30 6633 H 635.214 -2.99103 -1.21397 0
M  V30 6634 H 634.266 -3.63584 1.1185 0
M  V30 6635 H 635.578 -4.8274 1.25552 0
M  V30 6636 H 634.732 -6.01694 -0.777801 0
M  V30 6637 H 633.471 -4.77233 -1.005 0
M  V30 6638 H 632.476 -5.3601 1.22366 0
M  V30 6639 H 633.701 -6.63689 1.43852 0
M  V30 6640 H 631.647 -6.5108 -0.801955 0
M  V30 6641 H 631.564 -7.53675 0.59243 0
M  V30 6642 H 632.832 -7.77392 -0.572851 0
M  V30 6643 N 637.061 -0.65484 -1.43351 0
M  V30 6644 C 637.991 0.0221809 -2.33489 0
M  V30 6645 C 638.972 0.810272 -1.49561 0
M  V30 6646 O 640.157 0.771426 -1.78221 0
M  V30 6647 C 637.287 0.988117 -3.32947 0
M  V30 6648 C 636.241 0.310026 -4.26876 0
M  V30 6649 C 635.567 1.38752 -5.16384 0
M  V30 6650 C 636.867 -0.798589 -5.16159 0
M  V30 6651 H 638.561 -0.730571 -2.9035 0
M  V30 6652 H 636.107 -0.352773 -1.39612 0
M  V30 6653 H 638.06 1.47067 -3.94904 0
M  V30 6654 H 636.784 1.77205 -2.74346 0
M  V30 6655 H 635.443 -0.152097 -3.66284 0
M  V30 6656 H 635.091 2.16293 -4.54121 0
M  V30 6657 H 634.791 0.939051 -5.80048 0
M  V30 6658 H 636.315 1.87141 -5.81215 0
M  V30 6659 H 637.729 -0.398126 -5.71916 0
M  V30 6660 H 636.126 -1.17163 -5.88552 0
M  V30 6661 H 637.196 -1.65588 -4.55751 0
M  V30 6662 N 638.539 1.52521 -0.396863 0
M  V30 6663 C 639.469 2.29582 0.425941 0
M  V30 6664 C 640.45 1.33281 1.05689 0
M  V30 6665 O 641.635 1.62181 1.06823 0
M  V30 6666 C 638.765 3.10821 1.54943 0
M  V30 6667 C 637.719 4.15069 1.04413 0
M  V30 6668 C 637.045 4.84578 2.26028 0
M  V30 6669 C 638.345 5.22191 0.106767 0
M  V30 6670 H 640.039 2.98612 -0.217045 0
M  V30 6671 H 637.585 1.43611 -0.105826 0
M  V30 6672 H 639.538 3.63492 2.13193 0
M  V30 6673 H 638.262 2.39538 2.22011 0
M  V30 6674 H 636.921 3.63389 0.484118 0
M  V30 6675 H 636.569 4.09835 2.91623 0
M  V30 6676 H 636.269 5.55043 1.92876 0
M  V30 6677 H 637.793 5.40056 2.84906 0
M  V30 6678 H 639.207 5.70176 0.597685 0
M  V30 6679 H 637.604 5.99947 -0.135352 0
M  V30 6680 H 638.674 4.77531 -0.842134 0
M  V30 6681 N 640.017 0.126909 1.57088 0
M  V30 6682 C 640.964 -0.82036 2.15728 0
M  V30 6683 C 641.934 -1.25811 1.08447 0
M  V30 6684 O 643.119 -1.33422 1.36393 0
M  V30 6685 C 640.259 -2.06199 2.76724 0
M  V30 6686 C 639.372 -1.67188 3.98337 0
M  V30 6687 C 638.507 -2.86378 4.47393 0
M  V30 6688 C 637.546 -2.43644 5.61519 0
M  V30 6689 N 636.683 -3.55775 6.05284 0
M  V30 6690 H 641.523 -0.313472 2.96347 0
M  V30 6691 H 639.06 -0.14303 1.46403 0
M  V30 6692 H 641.018 -2.78959 3.10222 0
M  V30 6693 H 639.648 -2.54333 1.98782 0
M  V30 6694 H 638.7 -0.842714 3.70948 0
M  V30 6695 H 640.012 -1.31789 4.81075 0
M  V30 6696 H 639.166 -3.67353 4.82842 0
M  V30 6697 H 637.905 -3.25009 3.63621 0
M  V30 6698 H 636.91 -1.61104 5.25667 0
M  V30 6699 H 638.135 -2.06122 6.47063 0
M  V30 6700 H 636.081 -3.94065 5.24451 0
M  V30 6701 H 635.998 -3.24325 6.82898 0
M  V30 6702 H 637.266 -4.37166 6.45373 0
M  V30 6703 N 641.495 -1.56914 -0.146875 0
M  V30 6704 C 642.906 -1.72799 -0.706928 0
M  V30 6705 C 643.257 -0.741329 -1.81656 0
M  V30 6706 O 642.382 0.0920162 -2.16204 0
M  V30 6707 C 642.977 -3.13317 -1.28911 0
M  V30 6708 C 641.536 -3.30803 -1.79573 0
M  V30 6709 C 640.683 -2.68725 -0.684252 0
M  V30 6710 H 643.634 -1.58504 0.0787931 0
M  V30 6711 H 643.655 -3.13323 -2.15891 0
M  V30 6712 H 643.167 -3.85104 -0.481284 0
M  V30 6713 H 641.268 -2.64012 -2.62923 0
M  V30 6714 H 641.381 -4.38754 -1.92436 0
M  V30 6715 H 639.745 -2.29196 -1.11091 0
M  V30 6716 H 640.528 -3.43117 0.112134 0
M  V30 6717 N 642.974 0.416227 -1.52004 0
M  V30 6718 C 644.22 1.16555 -1.6596 0
M  V30 6719 C 644.553 1.90347 -0.384906 0
M  V30 6720 O 643.828 1.84474 0.616405 0
M  V30 6721 C 644.111 2.1657 -2.87696 0
M  V30 6722 C 643.964 1.46722 -4.25197 0
M  V30 6723 C 645.283 3.17321 -3.04951 0
M  V30 6724 H 642.402 0.422369 -0.603965 0
M  V30 6725 H 645.044 0.452141 -1.84542 0
M  V30 6726 H 643.194 2.77411 -2.71985 0
M  V30 6727 H 644.866 0.89056 -4.52622 0
M  V30 6728 H 643.109 0.769263 -4.26925 0
M  V30 6729 H 643.78 2.19665 -5.0641 0
M  V30 6730 H 646.256 2.66552 -3.19514 0
M  V30 6731 H 645.132 3.84573 -3.91656 0
M  V30 6732 H 645.393 3.84643 -2.17951 0
M  V30 6733 N 644.452 1.42507 0.673017 0
M  V30 6734 C 645.729 1.33554 1.42908 0
M  V30 6735 C 646.109 -0.0262211 2.11084 0
M  V30 6736 O 645.457 -1.04181 2.03368 0
M  V30 6737 C 645.667 2.50498 2.43006 0
M  V30 6738 C 647.015 2.92694 3.07596 0
M  V30 6739 O 648.039 2.50401 2.53333 0
M  V30 6740 O 646.898 3.65899 4.05931 0
M  V30 6741 H 643.992 0.526785 0.637516 0
M  V30 6742 H 646.538 1.54518 0.701591 0
M  V30 6743 H 645.31 3.41272 1.9144 0
M  V30 6744 H 644.933 2.3153 3.23233 0
M  V30 6745 N 645.93 -0.909495 1.28709 0
M  V30 6746 C 646.893 -1.99399 1.13016 0
M  V30 6747 C 647.893 -1.60654 0.068536 0
M  V30 6748 O 649.083 -1.71334 0.314671 0
M  V30 6749 C 646.215 -3.33078 0.726085 0
M  V30 6750 H 647.408 -2.14751 2.09338 0
M  V30 6751 H 644.961 -1.09272 1.11756 0
M  V30 6752 H 645.696 -3.23428 -0.23771 0
M  V30 6753 H 645.481 -3.62562 1.49302 0
M  V30 6754 H 646.971 -4.12681 0.639058 0
M  V30 6755 N 647.408 -1.11026 -1.11852 0
M  V30 6756 C 648.356 -0.759643 -2.19846 0
M  V30 6757 C 649.35 0.246964 -1.6759 0
M  V30 6758 O 650.556 0.106693 -1.79684 0
M  V30 6759 H 646.931 -0.22775 -0.716683 0
M  V30 6760 H 648.902 -1.6792 -2.46669 0
M  V30 6761 C 647.651 -0.214364 -3.47039 0
M  V30 6762 H 646.974 -0.980175 -3.87599 0
M  V30 6763 H 648.414 -0.00717047 -4.23999 0
M  V30 6764 C 646.873 1.05436 -3.19976 0
M  V30 6765 O 647.403 2.13483 -3.40276 0
M  V30 6766 N 645.609 0.975436 -2.7374 0
M  V30 6767 H 645.156 0.0960853 -2.57421 0
M  V30 6768 H 645.114 1.82501 -2.5601 0
M  V30 6769 N 648.886 1.2938 -0.899927 0
M  V30 6770 C 650.134 1.95164 -0.524924 0
M  V30 6771 C 650.455 1.71292 0.931888 0
M  V30 6772 O 649.725 1.04481 1.65712 0
M  V30 6773 H 648.305 0.722133 -0.191135 0
M  V30 6774 H 650.967 1.57628 -1.14627 0
M  V30 6775 H 650.063 3.0397 -0.707711 0
M  V30 6776 N 650.364 0.662433 1.43002 0
M  V30 6777 C 651.311 -0.0235324 2.30788 0
M  V30 6778 C 652.281 -0.805342 1.4527 0
M  V30 6779 O 653.466 -0.78009 1.74124 0
M  V30 6780 C 650.606 -0.977545 3.30965 0
M  V30 6781 C 649.719 -0.190865 4.31578 0
M  V30 6782 C 648.854 -1.13951 5.18834 0
M  V30 6783 C 647.893 -0.343796 6.11134 0
M  V30 6784 N 647.03 -1.2445 6.90982 0
M  V30 6785 H 651.87 0.730921 2.88897 0
M  V30 6786 H 649.407 0.372197 1.42313 0
M  V30 6787 H 651.365 -1.54437 3.87563 0
M  V30 6788 H 649.995 -1.69877 2.74484 0
M  V30 6789 H 649.047 0.492388 3.772 0
M  V30 6790 H 650.359 0.427464 4.96965 0
M  V30 6791 H 649.513 -1.77666 5.80103 0
M  V30 6792 H 648.252 -1.79174 4.53595 0
M  V30 6793 H 647.257 0.30665 5.48944 0
M  V30 6794 H 648.482 0.304161 6.78419 0
M  V30 6795 H 646.428 -1.88336 6.28383 0
M  V30 6796 H 646.345 -0.680959 7.52927 0
M  V30 6797 H 647.613 -1.86952 7.56749 0
M  V30 6798 N 651.842 -1.52309 0.404946 0
M  V30 6799 C 653.253 -1.86585 -0.0655926 0
M  V30 6800 C 653.604 -1.3239 -1.44801 0
M  V30 6801 O 652.729 -0.6615 -2.06042 0
M  V30 6802 C 653.324 -3.38566 -0.125801 0
M  V30 6803 C 651.883 -3.72497 -0.540666 0
M  V30 6804 C 651.03 -2.75806 0.287487 0
M  V30 6805 H 653.981 -1.45995 0.622185 0
M  V30 6806 H 654.002 -3.68658 -0.941888 0
M  V30 6807 H 653.514 -3.77981 0.880473 0
M  V30 6808 H 651.615 -3.38659 -1.55373 0
M  V30 6809 H 651.728 -4.78234 -0.287956 0
M  V30 6810 H 650.092 -2.53474 -0.249561 0
M  V30 6811 H 650.875 -3.18059 1.29203 0
M  V30 6812 N 653.32 -0.135238 -1.57019 0
M  V30 6813 C 654.569 0.518694 -1.94917 0
M  V30 6814 C 654.882 1.66783 -1.0219 0
M  V30 6815 O 656.088 2.38561 -1.29619 0
M  V30 6816 C 654.544 0.974123 -3.46466 0
M  V30 6817 C 654.152 -0.147439 -4.47757 0
M  V30 6818 C 655.896 1.59851 -3.93253 0
M  V30 6819 C 653.803 0.325599 -5.90503 0
M  V30 6820 H 652.733 0.19754 -0.727663 0
M  V30 6821 H 655.384 -0.217698 -1.82204 0
M  V30 6822 H 653.766 1.76542 -3.5447 0
M  V30 6823 H 654.94 -0.924122 -4.51438 0
M  V30 6824 H 653.255 -0.679496 -4.10818 0
M  V30 6825 H 655.852 1.96385 -4.9733 0
M  V30 6826 H 656.195 2.48306 -3.3414 0
M  V30 6827 H 656.728 0.872323 -3.88118 0
M  V30 6828 H 653.467 -0.523295 -6.53408 0
M  V30 6829 H 652.987 1.06841 -5.90208 0
M  V30 6830 H 654.666 0.781498 -6.42263 0
M  V30 6831 N 654.798 1.5699 0.138552 0
M  V30 6832 C 656.026 1.87976 0.864437 0
M  V30 6833 C 656.441 0.724372 1.74351 0
M  V30 6834 O 655.798 -0.305575 1.79924 0
M  V30 6835 C 655.849 3.18276 1.71414 0
M  V30 6836 O 655.57 4.29365 0.870487 0
M  V30 6837 C 657.071 3.62834 2.54688 0
M  V30 6838 H 654.291 0.622878 0.249528 0
M  V30 6839 H 656.835 2.04094 0.128805 0
M  V30 6840 H 654.99 3.03886 2.40274 0
M  V30 6841 H 655.404 5.03924 1.45466 0
M  V30 6842 H 656.878 4.5682 3.0987 0
M  V30 6843 H 657.355 2.88533 3.31127 0
M  V30 6844 H 657.961 3.79946 1.91105 0
M  V30 6845 N 656.276 -0.40816 1.52223 0
M  V30 6846 C 657.516 -1.16418 1.68006 0
M  V30 6847 C 657.88 -1.87749 0.401793 0
M  V30 6848 O 659.081 -2.65245 0.435743 0
M  V30 6849 C 657.352 -2.13143 2.86889 0
M  V30 6850 S 658.911 -2.96839 3.2316 0
M  V30 6851 H 655.729 -0.394373 0.5916 0
M  V30 6852 H 658.331 -0.451349 1.90219 0
M  V30 6853 H 657.035 -1.59428 3.78168 0
M  V30 6854 H 656.566 -2.88963 2.66953 0
M  V30 6855 H 658.581 -4.151 2.71857 0
M  V30 6856 N 657.755 -1.42862 -0.66545 0
M  V30 6857 C 658.703 -1.47319 -1.8 0
M  V30 6858 C 659.697 -0.347963 -1.65788 0
M  V30 6859 O 660.903 -0.521406 -1.72283 0
M  V30 6860 H 657.278 -0.461588 -0.593667 0
M  V30 6861 H 659.249 -2.42876 -1.7336 0
M  V30 6862 C 657.998 -1.40152 -3.18203 0
M  V30 6863 H 657.321 -2.26035 -3.2977 0
M  V30 6864 H 658.761 -1.47331 -3.9758 0
M  V30 6865 C 657.22 -0.117493 -3.36695 0
M  V30 6866 O 657.75 0.826058 -3.93115 0
M  V30 6867 N 655.956 -0.0316218 -2.90583 0
M  V30 6868 H 655.503 -0.800247 -2.44855 0
M  V30 6869 H 655.461 0.826835 -3.03333 0
M  V30 6870 N 659.233 0.902656 -1.29189 0
M  V30 6871 C 660.143 2.03946 -1.15944 0
M  V30 6872 C 661.159 1.738 -0.0833803 0
M  V30 6873 O 662.335 1.9923 -0.29487 0
M  V30 6874 C 659.4 3.36519 -0.834006 0
M  V30 6875 C 658.461 3.80203 -1.9936 0
M  V30 6876 C 657.694 5.06449 -1.68359 0
M  V30 6877 O 657.917 5.67202 -0.603141 0
M  V30 6878 O 656.851 5.46114 -2.53067 0
M  V30 6879 H 660.677 2.18043 -2.11403 0
M  V30 6880 H 658.262 1.02584 -1.08613 0
M  V30 6881 H 660.144 4.16089 -0.666949 0
M  V30 6882 H 658.819 3.23573 0.0908245 0
M  V30 6883 H 657.726 3.01413 -2.21588 0
M  V30 6884 H 659.059 3.97729 -2.89952 0
M  V30 6885 N 660.711 1.11618 1.11262 0
M  V30 6886 C 661.659 0.771291 2.1944 0
M  V30 6887 C 662.653 -0.238073 1.67719 0
M  V30 6888 O 663.859 -0.0971628 1.79738 0
M  V30 6889 H 660.234 0.231548 0.715465 0
M  V30 6890 H 662.205 1.69226 2.45775 0
M  V30 6891 C 660.954 0.232765 3.4692 0
M  V30 6892 H 660.277 1.00072 3.87073 0
M  V30 6893 H 661.717 0.0296561 4.2399 0
M  V30 6894 C 660.176 -1.03738 3.20531 0
M  V30 6895 O 660.706 -2.11675 3.41404 0
M  V30 6896 N 658.912 -0.960906 2.74253 0
M  V30 6897 H 658.459 -0.0824323 2.57468 0
M  V30 6898 H 658.417 -1.8114 2.56974 0
M  V30 6899 N 662.189 -1.289 0.906776 0
M  V30 6900 C 663.437 -1.94883 0.535266 0
M  V30 6901 C 663.758 -1.71784 -0.922791 0
M  V30 6902 O 663.028 -1.05359 -1.65156 0
M  V30 6903 H 661.608 -0.721109 0.194962 0
M  V30 6904 H 664.27 -1.57018 1.15461 0
M  V30 6905 H 663.366 -3.03591 0.723821 0
M  V30 6906 N 663.667 -0.670007 -1.42649 0
M  V30 6907 C 664.597 -0.00258501 -2.335 0
M  V30 6908 C 665.578 0.794364 -1.50412 0
M  V30 6909 O 666.763 0.75248 -1.79029 0
M  V30 6910 C 663.893 0.952748 -3.33976 0
M  V30 6911 C 662.847 0.264733 -4.2718 0
M  V30 6912 C 662.173 1.33267 -5.17826 0
M  V30 6913 C 663.473 -0.853289 -5.15283 0
M  V30 6914 H 665.167 -0.761326 -2.89559 0
M  V30 6915 H 662.713 -0.367561 -1.3923 0
M  V30 6916 H 664.666 1.4287 -3.96442 0
M  V30 6917 H 663.39 1.74285 -2.7621 0
M  V30 6918 H 662.049 -0.190938 -3.66102 0
M  V30 6919 H 661.697 2.11464 -4.5639 0
M  V30 6920 H 661.397 0.877476 -5.81011 0
M  V30 6921 H 662.921 1.80965 -5.83167 0
M  V30 6922 H 664.335 -0.458763 -5.71462 0
M  V30 6923 H 662.732 -1.23398 -5.87276 0
M  V30 6924 H 663.802 -1.70412 -4.53969 0
M  V30 6925 N 665.145 1.52092 -0.413018 0
M  V30 6926 C 666.385 2.03765 0.160975 0
M  V30 6927 C 666.749 1.29174 1.4205 0
M  V30 6928 O 667.95 1.71093 2.07318 0
M  V30 6929 C 666.221 3.55167 0.398871 0
M  V30 6930 S 667.78 4.28619 0.939755 0
M  V30 6931 H 664.598 0.709685 0.0432281 0
M  V30 6932 H 667.2 1.87102 -0.566831 0
M  V30 6933 H 665.904 4.07034 -0.524544 0
M  V30 6934 H 665.435 3.7608 1.15444 0
M  V30 6935 H 667.45 4.43773 2.21991 0
M  V30 6936 N 666.623 0.143563 1.56945 0
M  V30 6937 C 667.533 -0.810562 2.20152 0
M  V30 6938 C 668.549 -1.27431 1.1848 0
M  V30 6939 O 669.725 -1.33221 1.51044 0
M  V30 6940 C 666.79 -2.03353 2.80799 0
M  V30 6941 C 665.851 -1.61936 3.97587 0
M  V30 6942 C 665.084 -2.78403 4.55332 0
M  V30 6943 O 665.307 -3.94521 4.11958 0
M  V30 6944 O 664.241 -2.54073 5.45647 0
M  V30 6945 H 668.067 -0.30253 3.02189 0
M  V30 6946 H 665.652 -0.0832925 1.49168 0
M  V30 6947 H 667.534 -2.74932 3.19359 0
M  V30 6948 H 666.209 -2.53116 2.01777 0
M  V30 6949 H 665.116 -0.873904 3.6375 0
M  V30 6950 H 666.449 -1.16892 4.78118 0
M  V30 6951 N 668.101 -1.57061 -0.130224 0
M  V30 6952 C 669.049 -2.00486 -1.17933 0
M  V30 6953 C 670.043 -0.899933 -1.43519 0
M  V30 6954 O 671.249 -1.08514 -1.43613 0
M  V30 6955 H 667.624 -0.638441 -0.397363 0
M  V30 6956 H 669.595 -2.87848 -0.786501 0
M  V30 6957 C 668.344 -2.41565 -2.50084 0
M  V30 6958 H 667.667 -3.26148 -2.31231 0
M  V30 6959 H 669.107 -2.75757 -3.22078 0
M  V30 6960 C 667.566 -1.27485 -3.11848 0
M  V30 6961 O 668.096 -0.584688 -3.97422 0
M  V30 6962 N 666.302 -1.03478 -2.71552 0
M  V30 6963 H 665.849 -1.59779 -2.02061 0
M  V30 6964 H 665.807 -0.27341 -3.13209 0
M  V30 6965 N 669.579 0.400081 -1.52437 0
M  V30 6966 C 670.804 1.17221 -1.71096 0
M  V30 6967 C 671.229 1.83269 -0.423565 0
M  V30 6968 O 670.587 1.70378 0.619751 0
M  V30 6969 C 670.635 2.20425 -2.85386 0
M  V30 6970 O 669.739 3.26769 -2.51586 0
M  V30 6971 H 669.08 0.341766 -0.569291 0
M  V30 6972 H 671.61 0.467772 -1.99181 0
M  V30 6973 H 671.62 2.64605 -3.10561 0
M  V30 6974 H 670.295 1.71737 -3.78786 0
M  V30 6975 H 668.872 2.87804 -2.37114 0
M  V30 6976 N 671.057 1.43213 0.657864 0
M  V30 6977 C 672.334 1.35063 1.41483 0
M  V30 6978 C 672.714 -0.0038314 2.111 0
M  V30 6979 O 672.062 -1.02018 2.04462 0
M  V30 6980 C 672.272 2.53061 2.40335 0
M  V30 6981 C 673.62 2.9594 3.04474 0
M  V30 6982 O 674.644 2.53074 2.50663 0
M  V30 6983 O 673.503 3.70184 4.02027 0
M  V30 6984 H 670.597 0.533517 0.631893 0
M  V30 6985 H 673.143 1.55253 0.685162 0
M  V30 6986 H 671.915 3.43283 1.87809 0
M  V30 6987 H 671.538 2.34945 3.20759 0
M  V30 6988 N 672.536 -0.895792 1.29666 0
M  V30 6989 C 673.783 -1.64664 1.17864 0
M  V30 6990 C 674.111 -1.92631 -0.26902 0
M  V30 6991 O 673.366 -1.53787 -1.21029 0
M  V30 6992 C 673.665 -3.00075 1.94139 0
M  V30 6993 C 673.331 -2.91702 3.43833 0
M  V30 6994 C 671.993 -2.89126 3.84656 0
M  V30 6995 C 674.345 -2.80622 4.39205 0
M  V30 6996 C 671.673 -2.73293 5.1916 0
M  V30 6997 C 674.025 -2.66329 5.73805 0
M  V30 6998 C 672.689 -2.62121 6.1388 0
M  V30 6999 H 671.959 -0.602549 0.431295 0
M  V30 7000 H 674.606 -1.04234 1.60648 0
M  V30 7001 H 672.911 -3.64394 1.43958 0
M  V30 7002 H 674.608 -3.57111 1.82408 0
M  V30 7003 H 671.198 -2.94511 3.11386 0
M  V30 7004 H 675.382 -2.81686 4.08615 0
M  V30 7005 H 670.638 -2.68443 5.49316 0
M  V30 7006 H 674.812 -2.56727 6.47352 0
M  V30 7007 H 672.439 -2.49611 7.18052 0
M  V30 7008 N 674.014 -1.12206 -1.10668 0
M  V30 7009 C 675.291 -0.787382 -1.79052 0
M  V30 7010 C 675.671 0.723267 -1.98323 0
M  V30 7011 O 675.019 1.6561 -1.57434 0
M  V30 7012 C 675.229 -1.55968 -3.1221 0
M  V30 7013 C 676.577 -1.74413 -3.87125 0
M  V30 7014 O 677.601 -1.5246 -3.21923 0
M  V30 7015 O 676.46 -2.10952 -5.04144 0
M  V30 7016 H 673.554 -0.286137 -0.775922 0
M  V30 7017 H 676.1 -1.22595 -1.1734 0
M  V30 7018 H 674.872 -2.58692 -2.93588 0
M  V30 7019 H 674.495 -1.1152 -3.8164 0
M  V30 7020 N 675.492 1.28418 -0.913599 0
M  V30 7021 C 676.739 1.94981 -0.546674 0
M  V30 7022 C 677.067 1.7192 0.909606 0
M  V30 7023 O 676.322 1.03314 1.66207 0
M  V30 7024 C 676.621 3.48283 -0.802099 0
M  V30 7025 C 676.287 3.91444 -2.2379 0
M  V30 7026 C 674.949 4.02939 -2.63046 0
M  V30 7027 C 677.301 4.13542 -3.17227 0
M  V30 7028 C 674.629 4.3391 -3.94891 0
M  V30 7029 C 676.981 4.45992 -4.48636 0
M  V30 7030 C 675.645 4.55698 -4.87746 0
M  V30 7031 H 674.915 0.713487 -0.200042 0
M  V30 7032 H 677.562 1.52756 -1.15489 0
M  V30 7033 H 675.867 3.91643 -0.111076 0
M  V30 7034 H 677.564 3.97903 -0.497375 0
M  V30 7035 H 674.154 3.83024 -1.9233 0
M  V30 7036 H 678.338 4.04114 -2.88107 0
M  V30 7037 H 673.594 4.39631 -4.24894 0
M  V30 7038 H 677.768 4.62038 -5.21051 0
M  V30 7039 H 675.395 4.79451 -5.89942 0
M  V30 7040 N 676.97 0.677563 1.42291 0
M  V30 7041 C 678.198 0.209459 2.05837 0
M  V30 7042 C 678.613 -1.13444 1.50917 0
M  V30 7043 O 677.97 -1.70529 0.65008 0
M  V30 7044 C 678.021 0.138819 3.61233 0
M  V30 7045 O 677.742 1.42962 4.14118 0
M  V30 7046 C 679.243 -0.352449 4.41897 0
M  V30 7047 H 676.463 0.101209 0.663323 0
M  V30 7048 H 679.007 0.925077 1.8238 0
M  V30 7049 H 677.162 -0.527505 3.83792 0
M  V30 7050 H 677.576 1.3048 5.08011 0
M  V30 7051 H 679.05 -0.350778 5.50884 0
M  V30 7052 H 679.527 -1.3882 4.16684 0
M  V30 7053 H 680.133 0.282236 4.24362 0
M  V30 7054 N 678.448 -1.51871 0.421078 0
M  V30 7055 C 679.678 -2.06057 -0.149723 0
M  V30 7056 C 680.086 -1.29002 -1.38402 0
M  V30 7057 O 679.429 -0.338385 -1.80556 0
M  V30 7058 C 679.491 -3.55216 -0.553339 0
M  V30 7059 C 679.155 -4.53408 0.571879 0
M  V30 7060 C 680.152 -4.99586 1.4391 0
M  V30 7061 C 677.837 -4.967 0.747979 0
M  V30 7062 C 679.831 -5.87711 2.46727 0
M  V30 7063 C 677.518 -5.84619 1.77944 0
M  V30 7064 C 678.516 -6.30021 2.63748 0
M  V30 7065 O 678.204 -7.16197 3.65126 0
M  V30 7066 H 677.936 -0.675744 -0.0186102 0
M  V30 7067 H 680.49 -1.96618 0.594166 0
M  V30 7068 H 678.72 -3.62381 -1.34969 0
M  V30 7069 H 680.409 -3.91992 -1.05342 0
M  V30 7070 H 681.175 -4.66846 1.31451 0
M  V30 7071 H 677.054 -4.60913 0.0897357 0
M  V30 7072 H 680.598 -6.2307 3.13734 0
M  V30 7073 H 676.495 -6.16771 1.90429 0
M  V30 7074 H 677.263 -7.34337 3.61512 0
M  V30 7075 N 679.926 -0.151884 -1.56866 0
M  V30 7076 C 681.154 0.504813 -2.00647 0
M  V30 7077 C 681.569 1.58098 -1.03201 0
M  V30 7078 O 680.926 1.82476 -0.0297814 0
M  V30 7079 C 680.977 1.10099 -3.44326 0
M  V30 7080 O 680.698 0.0678021 -4.38048 0
M  V30 7081 C 682.199 1.83782 -4.03409 0
M  V30 7082 H 679.419 0.130989 -0.65809 0
M  V30 7083 H 681.963 -0.247903 -2.02992 0
M  V30 7084 H 680.118 1.8043 -3.42817 0
M  V30 7085 H 680.532 0.505237 -5.22061 0
M  V30 7086 H 682.006 2.2078 -5.05925 0
M  V30 7087 H 682.483 2.72557 -3.44397 0
M  V30 7088 H 683.089 1.18138 -4.08563 0
M  V30 7089 N 681.404 1.57128 0.121893 0
M  V30 7090 C 682.336 1.96773 1.17529 0
M  V30 7091 C 683.349 0.866668 1.37814 0
M  V30 7092 O 684.538 1.14497 1.3694 0
M  V30 7093 C 681.638 2.24832 2.53582 0
M  V30 7094 C 680.811 3.56138 2.53939 0
M  V30 7095 C 679.87 3.72443 3.71716 0
M  V30 7096 O 678.896 4.44584 3.55434 0
M  V30 7097 N 680.098 3.10993 4.90167 0
M  V30 7098 H 682.863 2.87743 0.838086 0
M  V30 7099 H 680.424 1.58881 0.311199 0
M  V30 7100 H 682.416 2.32958 3.30927 0
M  V30 7101 H 680.986 1.40002 2.79496 0
M  V30 7102 H 680.206 3.59226 1.62329 0
M  V30 7103 H 681.494 4.42448 2.51231 0
M  V30 7104 H 680.892 2.52345 5.06299 0
M  V30 7105 H 679.449 3.24644 5.65198 0
M  V30 7106 N 682.882 -0.391992 1.52647 0
M  V30 7107 C 683.832 -1.47815 1.73594 0
M  V30 7108 C 684.816 -1.49693 0.589979 0
M  V30 7109 O 686.008 -1.5538 0.847701 0
M  V30 7110 C 683.137 -2.85561 1.90551 0
M  V30 7111 C 682.223 -2.88264 3.1107 0
M  V30 7112 N 682.614 -2.60642 4.33474 0
M  V30 7113 C 680.912 -3.19432 3.11254 0
M  V30 7114 C 681.613 -2.70351 5.15058 0
M  V30 7115 N 680.589 -3.03956 4.50679 0
M  V30 7116 H 684.391 -1.2528 2.65861 0
M  V30 7117 H 681.905 -0.599907 1.50913 0
M  V30 7118 H 683.902 -3.63759 2.03678 0
M  V30 7119 H 682.562 -3.09081 0.994952 0
M  V30 7120 H 683.573 -2.34718 4.61658 0
M  V30 7121 H 680.25 -3.48436 2.29997 0
M  V30 7122 H 681.64 -2.52565 6.22624 0
M  V30 7123 N 684.36 -1.4356 -0.65026 0
M  V30 7124 C 685.588 -1.48779 -1.43779 0
M  V30 7125 C 686.003 -0.106593 -1.88499 0
M  V30 7126 O 685.36 0.883766 -1.59674 0
M  V30 7127 C 685.411 -2.43618 -2.67081 0
M  V30 7128 O 685.132 -3.76367 -2.24231 0
M  V30 7129 C 686.633 -2.5811 -3.60409 0
M  V30 7130 H 683.853 -0.50521 -0.441593 0
M  V30 7131 H 686.397 -1.88332 -0.796941 0
M  V30 7132 H 684.552 -2.07253 -3.273 0
M  V30 7133 H 684.966 -4.27394 -3.0403 0
M  V30 7134 H 686.44 -3.28539 -4.43583 0
M  V30 7135 H 686.917 -1.627 -4.07953 0
M  V30 7136 H 687.523 -2.95298 -3.0607 0
M  V30 7137 N 685.838 0.888903 -1.30139 0
M  V30 7138 C 686.801 1.97576 -1.16174 0
M  V30 7139 C 687.801 1.60525 -0.094086 0
M  V30 7140 O 688.991 1.70812 -0.341889 0
M  V30 7141 C 686.123 3.3188 -0.778983 0
M  V30 7142 H 687.316 2.11393 -2.12728 0
M  V30 7143 H 684.869 1.0748 -1.1348 0
M  V30 7144 H 685.604 3.23765 0.186225 0
M  V30 7145 H 685.389 3.60141 -1.55051 0
M  V30 7146 H 686.879 4.11612 -0.704631 0
M  V30 7147 N 687.317 1.12792 1.10072 0
M  V30 7148 C 688.563 0.89679 1.82563 0
M  V30 7149 C 688.918 -0.571152 1.83727 0
M  V30 7150 O 688.211 -1.41697 1.28967 0
M  V30 7151 C 688.405 1.4102 3.28403 0
M  V30 7152 C 688.234 2.92652 3.41445 0
M  V30 7153 C 687.004 3.60928 3.53637 0
M  V30 7154 C 689.202 3.9063 3.34534 0
M  V30 7155 N 687.184 5.00638 3.55295 0
M  V30 7156 C 688.555 5.16492 3.42981 0
M  V30 7157 C 690.61 3.82989 3.18157 0
M  V30 7158 C 689.313 6.35609 3.3674 0
M  V30 7159 C 691.339 5.01633 3.13239 0
M  V30 7160 C 690.701 6.26355 3.22272 0
M  V30 7161 H 686.8 0.381482 0.682638 0
M  V30 7162 H 689.384 1.43491 1.31599 0
M  V30 7163 H 687.555 0.899077 3.77851 0
M  V30 7164 H 689.287 1.12075 3.88872 0
M  V30 7165 H 686.042 3.11429 3.56803 0
M  V30 7166 H 686.466 5.73521 3.59725 0
M  V30 7167 H 691.108 2.87454 3.10049 0
M  V30 7168 H 688.826 7.31407 3.43613 0
M  V30 7169 H 692.412 4.97454 3.01713 0
M  V30 7170 H 691.292 7.1662 3.18473 0
M  V30 7171 N 688.795 -1.27931 0.920396 0
M  V30 7172 C 690.044 -1.93975 0.552867 0
M  V30 7173 C 690.357 -1.73193 -0.909035 0
M  V30 7174 O 691.563 -2.33515 -1.38502 0
M  V30 7175 C 690.019 -3.47463 0.937947 0
M  V30 7176 C 689.627 -3.77013 2.42003 0
M  V30 7177 C 691.371 -4.19628 0.64132 0
M  V30 7178 C 689.278 -5.23841 2.74489 0
M  V30 7179 H 688.208 -0.726146 0.203046 0
M  V30 7180 H 690.859 -1.45339 1.12022 0
M  V30 7181 H 689.241 -3.94867 0.299317 0
M  V30 7182 H 690.415 -3.40393 3.10595 0
M  V30 7183 H 688.73 -3.18035 2.6878 0
M  V30 7184 H 691.327 -5.27729 0.860622 0
M  V30 7185 H 691.67 -4.14164 -0.421168 0
M  V30 7186 H 692.203 -3.78022 1.23872 0
M  V30 7187 H 688.942 -5.34388 3.79618 0
M  V30 7188 H 688.462 -5.61634 2.1054 0
M  V30 7189 H 690.141 -5.91647 2.61845 0
M  V30 7190 N 690.273 -0.685099 -1.4193 0
M  V30 7191 C 691.498 -0.218842 -2.06242 0
M  V30 7192 C 691.923 1.11923 -1.51178 0
M  V30 7193 O 691.281 1.69837 -0.634446 0
M  V30 7194 C 691.329 -0.175592 -3.60172 0
M  V30 7195 O 690.433 0.852776 -4.03487 0
M  V30 7196 H 689.774 -0.109531 -0.654904 0
M  V30 7197 H 692.304 -0.937013 -1.81882 0
M  V30 7198 H 692.314 -0.00291151 -4.08 0
M  V30 7199 H 690.989 -1.15222 -3.99621 0
M  V30 7200 H 689.566 0.650301 -3.67186 0
M  V30 7201 N 691.751 1.51645 -0.429126 0
M  V30 7202 C 692.976 2.06917 0.141399 0
M  V30 7203 C 693.401 1.29527 1.36398 0
M  V30 7204 O 692.759 0.33094 1.78254 0
M  V30 7205 C 692.807 3.57776 0.4504 0
M  V30 7206 O 691.911 3.82639 1.53821 0
M  V30 7207 H 691.252 0.663978 0.0054647 0
M  V30 7208 H 693.782 1.95355 -0.608093 0
M  V30 7209 H 693.792 4.01894 0.703249 0
M  V30 7210 H 692.467 4.13532 -0.443213 0
M  V30 7211 H 691.044 3.5039 1.27597 0
M  V30 7212 N 693.229 0.160201 1.56784 0
M  V30 7213 C 694.176 -0.774416 2.1742 0
M  V30 7214 C 695.146 -1.23483 1.11091 0
M  V30 7215 O 696.331 -1.30499 1.39193 0
M  V30 7216 C 693.471 -2.00283 2.81035 0
M  V30 7217 C 692.584 -1.58701 4.01793 0
M  V30 7218 C 691.719 -2.76824 4.53367 0
M  V30 7219 C 690.758 -2.31679 5.66561 0
M  V30 7220 N 689.895 -3.42856 6.12694 0
M  V30 7221 H 694.735 -0.250542 2.96945 0
M  V30 7222 H 692.272 -0.111943 1.46673 0
M  V30 7223 H 694.23 -2.72316 3.16069 0
M  V30 7224 H 692.86 -2.5006 2.04132 0
M  V30 7225 H 691.912 -0.76384 3.72652 0
M  V30 7226 H 693.224 -1.21555 4.83762 0
M  V30 7227 H 692.378 -3.57029 4.90525 0
M  V30 7228 H 691.117 -3.17223 3.70433 0
M  V30 7229 H 690.122 -1.49917 5.28966 0
M  V30 7230 H 691.347 -1.9235 6.5129 0
M  V30 7231 H 689.293 -3.82852 5.32692 0
M  V30 7232 H 689.21 -3.09767 6.89624 0
M  V30 7233 H 690.478 -4.23379 6.545 0
M  V30 7234 N 694.707 -1.5719 -0.113559 0
M  V30 7235 C 695.955 -1.84772 -0.818761 0
M  V30 7236 C 696.276 -0.746196 -1.80158 0
M  V30 7237 O 695.546 0.229305 -1.94553 0
M  V30 7238 H 694.126 -0.681737 -0.305359 0
M  V30 7239 H 696.788 -1.94645 -0.0995845 0
M  V30 7240 H 695.884 -2.80878 -1.36067 0
M  V30 7241 N 696.185 0.383891 -1.52853 0
M  V30 7242 C 697.413 1.1495 -1.7203 0
M  V30 7243 C 697.828 1.83578 -0.440957 0
M  V30 7244 O 697.185 1.72872 0.584925 0
M  V30 7245 C 697.236 2.19368 -2.87333 0
M  V30 7246 O 696.957 1.53536 -4.10315 0
M  V30 7247 C 698.458 3.08616 -3.18231 0
M  V30 7248 H 695.678 0.344445 -0.575846 0
M  V30 7249 H 698.222 0.448397 -1.99524 0
M  V30 7250 H 696.377 2.85105 -2.62286 0
M  V30 7251 H 696.791 2.2296 -4.74752 0
M  V30 7252 H 698.265 3.77902 -4.02361 0
M  V30 7253 H 698.742 3.72409 -2.32826 0
M  V30 7254 H 699.348 2.48518 -3.45136 0
M  V30 7255 N 697.663 1.43903 0.642637 0
M  V30 7256 C 698.593 1.52697 1.76652 0
M  V30 7257 C 699.574 0.380816 1.65782 0
M  V30 7258 O 700.759 0.599432 1.84717 0
M  V30 7259 C 697.889 1.45975 3.15133 0
M  V30 7260 C 696.843 2.58949 3.40778 0
M  V30 7261 C 696.169 2.37279 4.79169 0
M  V30 7262 C 697.469 4.01153 3.34475 0
M  V30 7263 H 699.163 2.46766 1.69549 0
M  V30 7264 H 696.709 1.18767 0.814279 0
M  V30 7265 H 698.662 1.5073 3.93521 0
M  V30 7266 H 697.386 0.484162 3.22991 0
M  V30 7267 H 696.045 2.53564 2.64765 0
M  V30 7268 H 695.693 1.37939 4.83717 0
M  V30 7269 H 695.393 3.13016 4.97287 0
M  V30 7270 H 696.917 2.43834 5.59801 0
M  V30 7271 H 698.331 4.07968 4.02784 0
M  V30 7272 H 696.728 4.77001 3.64129 0
M  V30 7273 H 697.798 4.25539 2.32475 0
M  V30 7274 N 699.141 -0.881989 1.30609 0
M  V30 7275 C 700.369 -1.66711 1.22536 0
M  V30 7276 C 700.784 -1.87614 -0.2113 0
M  V30 7277 O 700.141 -1.42576 -1.13923 0
M  V30 7278 C 700.192 -3.04182 1.95335 0
M  V30 7279 O 699.913 -2.8422 3.33393 0
M  V30 7280 C 701.414 -3.98617 1.93956 0
M  V30 7281 H 698.634 -0.520124 0.423925 0
M  V30 7282 H 701.178 -1.10174 1.72285 0
M  V30 7283 H 699.333 -3.57442 1.49378 0
M  V30 7284 H 699.747 -3.71452 3.70302 0
M  V30 7285 H 701.221 -4.92433 2.49426 0
M  V30 7286 H 701.698 -4.29473 0.919198 0
M  V30 7287 H 702.304 -3.51292 2.39738 0
M  V30 7288 N 700.619 -1.13374 -1.09472 0
M  V30 7289 C 701.868 -0.889844 -1.8101 0
M  V30 7290 C 702.181 0.585686 -1.86625 0
M  V30 7291 O 703.387 0.946497 -2.54467 0
M  V30 7292 C 701.843 -1.54241 -3.25174 0
M  V30 7293 C 701.451 -3.05343 -3.27826 0
M  V30 7294 C 703.195 -1.37919 -4.0147 0
M  V30 7295 C 701.102 -3.63486 -4.6651 0
M  V30 7296 H 700.032 -0.329256 -0.678311 0
M  V30 7297 H 702.683 -1.36139 -1.23038 0
M  V30 7298 H 701.065 -0.998525 -3.83204 0
M  V30 7299 H 702.239 -3.66307 -2.79563 0
M  V30 7300 H 700.554 -3.21175 -2.65019 0
M  V30 7301 H 703.151 -1.78771 -5.03929 0
M  V30 7302 H 703.494 -0.323987 -4.15037 0
M  V30 7303 H 704.027 -1.89284 -3.49881 0
M  V30 7304 H 700.766 -4.68811 -4.58145 0
M  V30 7305 H 700.286 -3.073 -5.15099 0
M  V30 7306 H 701.965 -3.63134 -5.35484 0
M  V30 7307 N 702.098 1.27442 -0.927168 0
M  V30 7308 C 703.345 1.94391 -0.567324 0
M  V30 7309 C 703.673 1.72875 0.891321 0
M  V30 7310 O 702.928 1.05071 1.65102 0
M  V30 7311 C 703.227 3.47413 -0.838994 0
M  V30 7312 C 702.893 3.89049 -2.2793 0
M  V30 7313 C 701.555 4.00127 -2.67305 0
M  V30 7314 C 703.907 4.10154 -3.21595 0
M  V30 7315 C 701.235 4.29697 -3.99471 0
M  V30 7316 C 703.587 4.41208 -4.53341 0
M  V30 7317 C 702.251 4.50499 -4.92551 0
M  V30 7318 H 701.521 0.711325 -0.207598 0
M  V30 7319 H 704.168 1.51523 -1.17103 0
M  V30 7320 H 702.473 3.91503 -0.152609 0
M  V30 7321 H 704.17 3.97354 -0.53955 0
M  V30 7322 H 700.76 3.80962 -1.96381 0
M  V30 7323 H 704.944 4.01036 -2.92377 0
M  V30 7324 H 700.2 4.35099 -4.29533 0
M  V30 7325 H 704.374 4.56486 -5.25922 0
M  V30 7326 H 702.001 4.73167 -5.94994 0
M  V30 7327 N 703.576 0.692616 1.41565 0
M  V30 7328 C 704.853 0.150496 1.9502 0
M  V30 7329 C 705.233 -1.33881 1.63215 0
M  V30 7330 O 704.581 -2.08378 0.937598 0
M  V30 7331 C 704.791 0.438636 3.46233 0
M  V30 7332 C 706.139 0.364777 4.2303 0
M  V30 7333 O 707.163 0.373383 3.54238 0
M  V30 7334 O 706.022 0.32234 5.45549 0
M  V30 7335 H 703.116 0.0132454 0.826894 0
M  V30 7336 H 705.662 0.768574 1.51298 0
M  V30 7337 H 704.434 1.46962 3.62654 0
M  V30 7338 H 704.057 -0.210562 3.97042 0
M  V30 7339 N 705.054 -1.51416 0.437162 0
M  V30 7340 C 706.002 -2.29328 -0.388765 0
M  V30 7341 C 706.996 -1.35171 -1.02104 0
M  V30 7342 O 708.202 -1.52513 -0.956024 0
M  V30 7343 H 704.577 -0.738048 -0.144183 0
M  V30 7344 H 706.548 -2.96995 0.289212 0
M  V30 7345 C 705.297 -3.14741 -1.47761 0
M  V30 7346 H 704.62 -3.8708 -1.00045 0
M  V30 7347 H 706.06 -3.72313 -2.02877 0
M  V30 7348 C 704.519 -2.30105 -2.46076 0
M  V30 7349 O 705.049 -1.96055 -3.50607 0
M  V30 7350 N 703.255 -1.93331 -2.1696 0
M  V30 7351 H 702.802 -2.2122 -1.31983 0
M  V30 7352 H 702.76 -1.36999 -2.82982 0
M  V30 7353 N 706.532 -0.168513 -1.56696 0
M  V30 7354 C 707.78 0.476216 -1.96409 0
M  V30 7355 C 708.101 1.63968 -1.05544 0
M  V30 7356 O 707.371 1.95525 -0.121235 0
M  V30 7357 H 705.951 0.178921 -0.725256 0
M  V30 7358 H 708.613 -0.249042 -1.93302 0
M  V30 7359 H 707.709 0.838094 -3.00637 0
M  V30 7360 N 708.01 1.57248 0.105221 0
M  V30 7361 C 709.287 1.76566 0.841647 0
M  V30 7362 C 709.667 0.747566 1.9742 0
M  V30 7363 O 709.015 -0.225886 2.27381 0
M  V30 7364 C 709.225 3.22016 1.3456 0
M  V30 7365 C 710.573 3.84911 1.79244 0
M  V30 7366 O 711.597 3.25703 1.44207 0
M  V30 7367 O 710.456 4.89008 2.43995 0
M  V30 7368 H 707.55 0.723443 0.400698 0
M  V30 7369 H 710.096 1.69472 0.0878893 0
M  V30 7370 H 708.868 3.87644 0.533685 0
M  V30 7371 H 708.491 3.33703 2.16167 0
M  V30 7372 N 709.488 -0.375779 1.53054 0
M  V30 7373 C 710.736 -1.11727 1.68409 0
M  V30 7374 C 711.057 -1.90127 0.43323 0
M  V30 7375 O 710.327 -1.87945 -0.552595 0
M  V30 7376 H 708.907 -0.415451 0.620813 0
M  V30 7377 H 711.569 -0.424869 1.90213 0
M  V30 7378 H 710.665 -1.8128 2.54055 0
M  V30 7379 N 710.966 -1.44241 -0.634997 0
M  V30 7380 C 712.382 -1.28043 -0.952742 0
M  V30 7381 C 712.582 -0.21338 -2.00367 0
M  V30 7382 O 711.638 0.402042 -2.49279 0
M  V30 7383 C 712.951 -2.65076 -1.41968 0
M  V30 7384 C 714.499 -2.72755 -1.53537 0
M  V30 7385 C 714.974 -4.10249 -2.03616 0
M  V30 7386 N 716.465 -4.12406 -2.10892 0
M  V30 7387 C 717.2 -5.15641 -2.50803 0
M  V30 7388 N 716.696 -6.29239 -2.89879 0
M  V30 7389 N 718.489 -5.02995 -2.50903 0
M  V30 7390 H 710.64 -2.12315 0.060098 0
M  V30 7391 H 712.903 -0.947326 -0.0357325 0
M  V30 7392 H 712.609 -3.44213 -0.721804 0
M  V30 7393 H 712.483 -2.91704 -2.39141 0
M  V30 7394 H 714.87 -1.93939 -2.22422 0
M  V30 7395 H 714.951 -2.49872 -0.547496 0
M  V30 7396 H 714.595 -4.8954 -1.35327 0
M  V30 7397 H 714.525 -4.30507 -3.03268 0
M  V30 7398 H 717.016 -3.30417 -1.83393 0
M  V30 7399 H 717.329 -7.03827 -3.19135 0
M  V30 7400 H 715.674 -6.32683 -2.8764 0
M  V30 7401 H 718.865 -4.13306 -2.19763 0
M  V30 7402 H 719.038 -5.83574 -2.81683 0
M  V30 7403 N 712.444 0.87505 -1.31075 0
M  V30 7404 C 713.394 1.96933 -1.14898 0
M  V30 7405 C 714.378 1.60783 -0.0613703 0
M  V30 7406 O 715.57 1.74678 -0.285751 0
M  V30 7407 C 712.699 3.3253 -0.853166 0
M  V30 7408 C 711.785 3.74963 -1.98151 0
M  V30 7409 N 712.176 3.89403 -3.22799 0
M  V30 7410 C 710.474 4.04436 -1.8801 0
M  V30 7411 C 711.175 4.25563 -3.96574 0
M  V30 7412 N 710.151 4.3597 -3.24701 0
M  V30 7413 H 713.953 2.06201 -2.09424 0
M  V30 7414 H 711.467 1.06551 -1.22558 0
M  V30 7415 H 713.464 4.10666 -0.718266 0
M  V30 7416 H 712.124 3.24592 0.0839218 0
M  V30 7417 H 713.135 3.74266 -3.57974 0
M  V30 7418 H 709.812 4.04915 -1.01733 0
M  V30 7419 H 711.202 4.44375 -5.03965 0
M  V30 7420 N 713.922 1.13953 1.08869 0
M  V30 7421 C 714.852 0.844824 2.17681 0
M  V30 7422 C 715.833 -0.198213 1.68941 0
M  V30 7423 O 717.018 -0.0559073 1.9412 0
M  V30 7424 C 714.148 0.316325 3.45856 0
M  V30 7425 C 713.102 1.29426 4.07962 0
M  V30 7426 C 712.428 0.625275 5.31031 0
M  V30 7427 C 713.728 2.65484 4.49795 0
M  V30 7428 H 715.422 1.75471 2.42591 0
M  V30 7429 H 712.968 0.845116 1.16592 0
M  V30 7430 H 714.921 0.0977876 4.21287 0
M  V30 7431 H 713.645 -0.628972 3.20486 0
M  V30 7432 H 712.304 1.49889 3.34558 0
M  V30 7433 H 711.952 -0.325678 5.01945 0
M  V30 7434 H 711.652 1.27777 5.73539 0
M  V30 7435 H 713.176 0.416152 6.0918 0
M  V30 7436 H 714.59 2.48957 5.16424 0
M  V30 7437 H 712.987 3.26963 5.03205 0
M  V30 7438 H 714.057 3.22717 3.61914 0
M  V30 7439 N 715.4 -1.26948 0.933913 0
M  V30 7440 C 716.31 -2.30366 0.443671 0
M  V30 7441 C 717.326 -1.67284 -0.478745 0
M  V30 7442 O 718.502 -1.98156 -0.360043 0
M  V30 7443 C 715.567 -3.45485 -0.289974 0
M  V30 7444 C 714.628 -4.24069 0.668114 0
M  V30 7445 C 713.861 -5.33691 -0.0306138 0
M  V30 7446 O 714.084 -5.5656 -1.24888 0
M  V30 7447 O 713.018 -5.98441 0.644384 0
M  V30 7448 H 716.844 -2.74349 1.30254 0
M  V30 7449 H 714.429 -1.32012 0.699506 0
M  V30 7450 H 716.311 -4.15486 -0.70353 0
M  V30 7451 H 714.986 -3.03546 -1.12435 0
M  V30 7452 H 713.893 -3.56579 1.13147 0
M  V30 7453 H 715.226 -4.69739 1.46989 0
M  V30 7454 N 716.879 -0.700114 -1.41195 0
M  V30 7455 C 717.811 0.00155823 -2.292 0
M  V30 7456 C 718.824 0.739736 -1.45023 0
M  V30 7457 O 720.013 0.589684 -1.68478 0
M  V30 7458 C 717.113 1.02635 -3.22985 0
M  V30 7459 C 716.286 0.356871 -4.35942 0
M  V30 7460 C 715.345 1.28491 -5.10271 0
M  V30 7461 O 714.371 0.775562 -5.63892 0
M  V30 7462 N 715.573 2.61699 -5.18164 0
M  V30 7463 H 718.338 -0.754008 -2.9006 0
M  V30 7464 H 715.899 -0.546504 -1.52397 0
M  V30 7465 H 717.891 1.64902 -3.6958 0
M  V30 7466 H 716.461 1.68341 -2.63401 0
M  V30 7467 H 715.681 -0.445753 -3.91672 0
M  V30 7468 H 716.969 -0.108469 -5.08684 0
M  V30 7469 H 716.367 3.05594 -4.76056 0
M  V30 7470 H 714.924 3.19149 -5.6832 0
M  V30 7471 N 718.357 1.51182 -0.445186 0
M  V30 7472 C 719.768 1.86693 0.0160999 0
M  V30 7473 C 720.119 1.36183 1.4124 0
M  V30 7474 O 719.244 0.715895 2.04215 0
M  V30 7475 C 719.839 3.38781 0.0359918 0
M  V30 7476 C 718.398 3.73799 0.441715 0
M  V30 7477 C 717.545 2.74947 -0.360511 0
M  V30 7478 H 720.496 1.44294 -0.660674 0
M  V30 7479 H 720.517 3.71026 0.843813 0
M  V30 7480 H 720.029 3.75513 -0.980378 0
M  V30 7481 H 718.13 3.42659 1.4634 0
M  V30 7482 H 718.243 4.78829 0.16106 0
M  V30 7483 H 716.607 2.54047 0.182269 0
M  V30 7484 H 717.39 3.14521 -1.3759 0
M  V30 7485 N 719.835 0.176821 1.56605 0
M  V30 7486 C 720.798 -0.737429 2.17013 0
M  V30 7487 C 721.798 -1.15414 1.11965 0
M  V30 7488 O 722.988 -1.0702 1.37449 0
M  V30 7489 C 720.12 -2.00445 2.75744 0
M  V30 7490 H 721.313 -0.211455 2.99154 0
M  V30 7491 H 718.866 -0.0727582 1.56131 0
M  V30 7492 H 719.601 -2.57338 1.97352 0
M  V30 7493 H 719.386 -1.71456 3.52626 0
M  V30 7494 H 720.876 -2.65679 3.22187 0
M  V30 7495 N 721.313 -1.57302 -0.09688 0
M  V30 7496 C 722.243 -2.0497 -1.11846 0
M  V30 7497 C 723.224 -0.938278 -1.41882 0
M  V30 7498 O 724.409 -1.20943 -1.51942 0
M  V30 7499 C 721.539 -2.47264 -2.43881 0
M  V30 7500 C 720.493 -3.62053 -2.28257 0
M  V30 7501 C 719.819 -3.90318 -3.65453 0
M  V30 7502 C 721.119 -4.93005 -1.72461 0
M  V30 7503 H 722.813 -2.90567 -0.721888 0
M  V30 7504 H 720.359 -1.39786 -0.345803 0
M  V30 7505 H 722.312 -2.7922 -3.15617 0
M  V30 7506 H 721.036 -1.58664 -2.8547 0
M  V30 7507 H 719.695 -3.30341 -1.58967 0
M  V30 7508 H 719.343 -2.98889 -4.04567 0
M  V30 7509 H 719.043 -4.67597 -3.55846 0
M  V30 7510 H 720.567 -4.24747 -4.3866 0
M  V30 7511 H 721.981 -5.23354 -2.34036 0
M  V30 7512 H 720.378 -5.74436 -1.73618 0
M  V30 7513 H 721.448 -4.80053 -0.683898 0
M  V30 7514 N 722.791 0.367657 -1.53252 0
M  V30 7515 C 724.202 0.944563 -1.61043 0
M  V30 7516 C 724.553 1.90325 -0.476546 0
M  V30 7517 O 723.678 2.12721 0.397333 0
M  V30 7518 C 724.273 1.71992 -2.91898 0
M  V30 7519 C 722.832 2.2462 -3.02031 0
M  V30 7520 C 721.979 1.05799 -2.56324 0
M  V30 7521 H 724.93 0.146516 -1.58022 0
M  V30 7522 H 724.951 2.58095 -2.79584 0
M  V30 7523 H 724.463 1.02192 -3.74404 0
M  V30 7524 H 722.564 2.97668 -2.24108 0
M  V30 7525 H 722.677 2.52644 -4.07073 0
M  V30 7526 H 721.041 1.42435 -2.1115 0
M  V30 7527 H 721.824 0.375008 -3.41246 0
M  V30 7528 N 724.269 1.44576 0.627338 0
M  V30 7529 C 725.497 1.51048 1.41394 0
M  V30 7530 C 725.912 0.136568 1.88305 0
M  V30 7531 O 725.269 -0.858251 1.6106 0
M  V30 7532 C 725.32 2.47837 2.63172 0
M  V30 7533 O 725.041 3.79887 2.18215 0
M  V30 7534 C 726.542 2.63811 3.56257 0
M  V30 7535 H 723.762 0.512171 0.4335 0
M  V30 7536 H 726.306 1.89576 0.766878 0
M  V30 7537 H 724.461 2.12433 3.23961 0
M  V30 7538 H 724.875 4.32177 2.97192 0
M  V30 7539 H 726.349 3.35554 4.38301 0
M  V30 7540 H 726.826 1.69169 4.05313 0
M  V30 7541 H 727.432 3.0013 3.01333 0
M  V30 7542 N 725.747 -0.868086 1.31537 0
M  V30 7543 C 726.68 -1.97871 1.13676 0
M  V30 7544 C 727.658 -1.62551 0.0397589 0
M  V30 7545 O 728.842 -1.87473 0.196539 0
M  V30 7546 C 725.969 -3.30577 0.73734 0
M  V30 7547 C 725.015 -3.8488 1.83765 0
M  V30 7548 S 725.848 -4.10106 3.44345 0
M  V30 7549 C 727.004 -5.45806 3.06344 0
M  V30 7550 H 727.237 -2.12719 2.07697 0
M  V30 7551 H 724.77 -1.01849 1.16044 0
M  V30 7552 H 726.728 -4.07274 0.513641 0
M  V30 7553 H 725.389 -3.13562 -0.183787 0
M  V30 7554 H 724.582 -4.80821 1.51085 0
M  V30 7555 H 724.184 -3.14981 2.01651 0
M  V30 7556 H 726.476 -6.27535 2.55354 0
M  V30 7557 H 727.419 -5.83437 4.01257 0
M  V30 7558 H 727.827 -5.0917 2.43734 0
M  V30 7559 N 727.225 -1.14528 -1.08264 0
M  V30 7560 C 728.172 -0.833556 -2.15222 0
M  V30 7561 C 729.142 0.209539 -1.64773 0
M  V30 7562 O 730.327 0.0791388 -1.90636 0
M  V30 7563 C 727.467 -0.318799 -3.43624 0
M  V30 7564 C 726.58 -1.42237 -4.07913 0
M  V30 7565 C 725.715 -0.864704 -5.24115 0
M  V30 7566 C 724.754 -1.94585 -5.80347 0
M  V30 7567 N 723.891 -1.40525 -6.87893 0
M  V30 7568 H 728.731 -1.74965 -2.41228 0
M  V30 7569 H 726.268 -0.873169 -1.18381 0
M  V30 7570 H 728.226 -0.00213088 -4.172 0
M  V30 7571 H 726.856 0.560397 -3.17898 0
M  V30 7572 H 725.908 -1.8554 -3.32083 0
M  V30 7573 H 727.22 -2.23901 -4.45724 0
M  V30 7574 H 726.374 -0.500025 -6.04636 0
M  V30 7575 H 725.113 -0.0171219 -4.87697 0
M  V30 7576 H 724.118 -2.31946 -4.98479 0
M  V30 7577 H 725.343 -2.79704 -6.18823 0
M  V30 7578 H 723.289 -0.579873 -6.53432 0
M  V30 7579 H 723.206 -2.15825 -7.24538 0
M  V30 7580 H 724.474 -1.06852 -7.72142 0
M  V30 7581 N 728.703 1.26451 -0.940633 0
M  V30 7582 C 729.933 1.97581 -0.603766 0
M  V30 7583 C 730.341 1.70246 0.825395 0
M  V30 7584 O 729.684 0.967001 1.56188 0
M  V30 7585 C 729.746 3.51256 -0.765463 0
M  V30 7586 C 729.41 4.0224 -2.16915 0
M  V30 7587 C 730.407 4.1402 -3.14457 0
M  V30 7588 C 728.092 4.36263 -2.48958 0
M  V30 7589 C 730.086 4.59117 -4.42143 0
M  V30 7590 C 727.773 4.81048 -3.76877 0
M  V30 7591 C 728.771 4.92436 -4.73282 0
M  V30 7592 O 728.459 5.36234 -5.98923 0
M  V30 7593 H 728.191 0.636948 -0.226436 0
M  V30 7594 H 730.745 1.61941 -1.2635 0
M  V30 7595 H 728.975 3.86669 -0.0485956 0
M  V30 7596 H 730.664 4.03597 -0.431738 0
M  V30 7597 H 731.43 3.87981 -2.91026 0
M  V30 7598 H 727.309 4.26634 -1.74656 0
M  V30 7599 H 730.853 4.6792 -5.17394 0
M  V30 7600 H 726.75 5.06531 -4.00121 0
M  V30 7601 H 727.518 5.54456 -6.02097 0
M  V30 7602 N 730.181 0.707592 1.40822 0
M  V30 7603 C 731.406 0.251626 2.05868 0
M  V30 7604 C 731.831 -1.09503 1.5294 0
M  V30 7605 O 731.189 -1.68806 0.661385 0
M  V30 7606 C 731.237 0.23287 3.59847 0
M  V30 7607 O 730.341 -0.788477 4.04792 0
M  V30 7608 H 729.682 0.119936 0.653078 0
M  V30 7609 H 732.212 0.96583 1.80369 0
M  V30 7610 H 732.222 0.0678204 4.07944 0
M  V30 7611 H 730.897 1.21565 3.97737 0
M  V30 7612 H 729.474 -0.591802 3.68174 0
M  V30 7613 N 731.66 -1.50943 0.453197 0
M  V30 7614 C 733.076 -1.59245 0.106342 0
M  V30 7615 C 733.276 -1.46287 -1.38572 0
M  V30 7616 O 732.332 -1.31219 -2.15726 0
M  V30 7617 C 733.645 -2.93797 0.640595 0
M  V30 7618 C 735.193 -3.07148 0.602435 0
M  V30 7619 C 735.668 -4.44247 1.11393 0
M  V30 7620 N 737.159 -4.50611 1.07258 0
M  V30 7621 C 737.894 -5.55049 1.43905 0
M  V30 7622 N 737.39 -6.66828 1.87914 0
M  V30 7623 N 739.183 -5.45494 1.35621 0
M  V30 7624 H 731.334 -1.5761 1.42382 0
M  V30 7625 H 733.597 -0.74384 0.587713 0
M  V30 7626 H 733.303 -3.087 1.68515 0
M  V30 7627 H 733.177 -3.77127 0.0742272 0
M  V30 7628 H 735.564 -2.91903 -0.433171 0
M  V30 7629 H 735.645 -2.25619 1.20539 0
M  V30 7630 H 735.289 -4.60239 2.14808 0
M  V30 7631 H 735.219 -5.2434 0.487353 0
M  V30 7632 H 737.71 -3.70391 0.749585 0
M  V30 7633 H 738.023 -7.42558 2.14072 0
M  V30 7634 H 736.368 -6.67995 1.91853 0
M  V30 7635 H 739.559 -4.57053 1.01093 0
M  V30 7636 H 739.732 -6.2677 1.64508 0
M  V30 7637 N 733.138 -0.185124 -1.56509 0
M  V30 7638 C 734.385 0.456258 -1.97293 0
M  V30 7639 C 734.713 1.62314 -1.07165 0
M  V30 7640 O 733.968 1.95398 -0.108621 0
M  V30 7641 C 734.267 0.967977 -3.44042 0
M  V30 7642 C 733.933 -0.084476 -4.50821 0
M  V30 7643 C 732.595 -0.373689 -4.79747 0
M  V30 7644 C 734.947 -0.79812 -5.15053 0
M  V30 7645 C 732.275 -1.3817 -5.70198 0
M  V30 7646 C 734.627 -1.79521 -6.06593 0
M  V30 7647 C 733.291 -2.09172 -6.3388 0
M  V30 7648 H 732.561 0.166957 -0.721946 0
M  V30 7649 H 735.208 -0.279992 -1.89442 0
M  V30 7650 H 733.513 1.78231 -3.48914 0
M  V30 7651 H 735.21 1.47347 -3.72948 0
M  V30 7652 H 731.8 0.15111 -4.28334 0
M  V30 7653 H 735.984 -0.587903 -4.92806 0
M  V30 7654 H 731.24 -1.61745 -5.89617 0
M  V30 7655 H 735.414 -2.35347 -6.55427 0
M  V30 7656 H 733.041 -2.87427 -7.03768 0
M  V30 7657 N 734.616 1.57351 0.0885366 0
M  V30 7658 C 735.862 1.86696 0.791996 0
M  V30 7659 C 736.195 0.775148 1.78059 0
M  V30 7660 O 735.47 -0.216247 1.93294 0
M  V30 7661 C 735.753 3.26684 1.51491 0
M  V30 7662 C 735.606 4.465 0.543858 0
M  V30 7663 C 736.925 3.64664 2.46391 0
M  V30 7664 H 734.044 0.679049 0.286463 0
M  V30 7665 H 736.686 1.89919 0.0554866 0
M  V30 7666 H 734.836 3.24067 2.14273 0
M  V30 7667 H 736.508 4.61235 -0.0774597 0
M  V30 7668 H 734.751 4.33567 -0.142228 0
M  V30 7669 H 735.422 5.41192 1.08696 0
M  V30 7670 H 737.898 3.68267 1.93698 0
M  V30 7671 H 736.774 4.63534 2.93986 0
M  V30 7672 H 737.035 2.93698 3.30445 0
M  V30 7673 N 736.094 -0.359525 1.53444 0
M  V30 7674 C 737.004 -1.46445 1.83278 0
M  V30 7675 C 738.02 -1.5833 0.721629 0
M  V30 7676 O 739.196 -1.7411 1.01231 0
M  V30 7677 C 736.261 -2.81638 2.02191 0
M  V30 7678 C 735.322 -2.7923 3.26082 0
M  V30 7679 C 734.555 -4.07974 3.44082 0
M  V30 7680 O 734.778 -5.04447 2.66251 0
M  V30 7681 O 733.712 -4.13417 4.37458 0
M  V30 7682 H 737.538 -1.24156 2.77162 0
M  V30 7683 H 735.123 -0.550201 1.389 0
M  V30 7684 H 737.005 -3.61732 2.16167 0
M  V30 7685 H 735.68 -3.03892 1.11496 0
M  V30 7686 H 734.587 -1.97813 3.17523 0
M  V30 7687 H 735.92 -2.6193 4.16718 0
M  V30 7688 N 737.572 -1.44907 -0.619662 0
M  V30 7689 C 738.802 -1.51575 -1.40387 0
M  V30 7690 C 739.21 -0.14309 -1.88658 0
M  V30 7691 O 738.553 0.863403 -1.62145 0
M  V30 7692 C 738.615 -2.42858 -2.65067 0
M  V30 7693 C 738.279 -3.8982 -2.38515 0
M  V30 7694 C 739.276 -4.80047 -1.99627 0
M  V30 7695 C 736.961 -4.34628 -2.51801 0
M  V30 7696 C 738.955 -6.13086 -1.74369 0
M  V30 7697 C 736.642 -5.67712 -2.26156 0
M  V30 7698 C 737.64 -6.56759 -1.875 0
M  V30 7699 O 737.328 -7.87377 -1.62148 0
M  V30 7700 H 737.06 -0.51612 -0.436573 0
M  V30 7701 H 739.614 -1.90664 -0.763959 0
M  V30 7702 H 737.844 -1.98717 -3.31735 0
M  V30 7703 H 739.533 -2.40346 -3.27091 0
M  V30 7704 H 740.299 -4.46697 -1.8891 0
M  V30 7705 H 736.178 -3.65568 -2.80857 0
M  V30 7706 H 739.722 -6.8255 -1.44122 0
M  V30 7707 H 735.619 -6.0062 -2.36486 0
M  V30 7708 H 736.387 -7.99288 -1.763 0
M  V30 7709 N 739.05 0.861098 -1.31996 0
M  V30 7710 C 739.997 1.96912 -1.20392 0
M  V30 7711 C 740.967 1.65869 -0.0875899 0
M  V30 7712 O 742.152 1.88992 -0.262011 0
M  V30 7713 C 739.292 3.32435 -0.926335 0
M  V30 7714 C 738.405 3.76018 -2.12684 0
M  V30 7715 C 737.54 5.00301 -1.78529 0
M  V30 7716 C 736.579 5.36357 -2.94937 0
M  V30 7717 N 735.716 6.51818 -2.60917 0
M  V30 7718 H 740.556 2.06169 -2.1517 0
M  V30 7719 H 738.093 1.00917 -1.07024 0
M  V30 7720 H 740.051 4.10478 -0.745917 0
M  V30 7721 H 738.681 3.22796 -0.0153578 0
M  V30 7722 H 737.733 2.93683 -2.41774 0
M  V30 7723 H 739.045 3.98664 -2.99781 0
M  V30 7724 H 738.199 5.86034 -1.57001 0
M  V30 7725 H 736.938 4.79578 -0.886356 0
M  V30 7726 H 735.943 4.49139 -3.17103 0
M  V30 7727 H 737.168 5.59041 -3.85552 0
M  V30 7728 H 735.114 6.32624 -1.73558 0
M  V30 7729 H 735.031 6.7445 -3.41544 0
M  V30 7730 H 736.299 7.4072 -2.42804 0
M  V30 7731 N 740.528 1.15101 1.07655 0
M  V30 7732 C 741.777 0.918528 1.79572 0
M  V30 7733 C 742.09 -0.555922 1.87534 0
M  V30 7734 O 743.296 -0.905893 2.55941 0
M  V30 7735 C 741.752 1.59394 3.22679 0
M  V30 7736 C 741.36 3.1052 3.22927 0
M  V30 7737 C 743.104 1.44289 3.99225 0
M  V30 7738 C 741.011 3.70862 4.60668 0
M  V30 7739 H 739.941 0.340006 0.672987 0
M  V30 7740 H 742.592 1.38079 1.20857 0
M  V30 7741 H 740.974 1.05936 3.81567 0
M  V30 7742 H 742.148 3.70708 2.737 0
M  V30 7743 H 740.463 3.25351 2.59876 0
M  V30 7744 H 743.06 1.86766 5.01022 0
M  V30 7745 H 743.403 0.389975 4.14469 0
M  V30 7746 H 743.936 1.94826 3.46825 0
M  V30 7747 H 740.675 4.7604 4.50628 0
M  V30 7748 H 740.195 3.15456 5.10145 0
M  V30 7749 H 741.874 3.71607 5.29639 0
M  V30 7750 N 742.006 -1.2595 0.947325 0
M  V30 7751 C 743.283 -1.88676 0.515824 0
M  V30 7752 C 743.663 -1.85547 -1.00675 0
M  V30 7753 O 743.011 -1.31399 -1.8694 0
M  V30 7754 C 743.221 -3.31734 1.08415 0
M  V30 7755 C 744.569 -4.08545 1.15654 0
M  V30 7756 O 745.593 -3.40826 1.03517 0
M  V30 7757 O 744.452 -5.29663 1.34608 0
M  V30 7758 H 741.546 -0.809537 0.169055 0
M  V30 7759 H 744.092 -1.34075 1.04029 0
M  V30 7760 H 742.864 -3.28404 2.1276 0
M  V30 7761 H 742.487 -3.93882 0.542499 0
M  V30 7762 N 743.484 -0.715051 -1.40445 0
M  V30 7763 C 744.394 -0.0631624 -2.34515 0
M  V30 7764 C 745.41 0.744397 -1.57273 0
M  V30 7765 O 746.586 0.677475 -1.89663 0
M  V30 7766 C 743.651 0.847915 -3.36172 0
M  V30 7767 C 742.712 0.0303655 -4.29289 0
M  V30 7768 C 741.945 0.898051 -5.2609 0
M  V30 7769 O 742.168 2.13729 -5.28844 0
M  V30 7770 O 741.102 0.337328 -6.00954 0
M  V30 7771 H 744.928 -0.839078 -2.91879 0
M  V30 7772 H 742.513 -0.475527 -1.4163 0
M  V30 7773 H 744.395 1.3698 -3.98515 0
M  V30 7774 H 743.07 1.60299 -2.81222 0
M  V30 7775 H 741.977 -0.536573 -3.70232 0
M  V30 7776 H 743.31 -0.686474 -4.87389 0
M  V30 7777 N 744.962 1.50701 -0.461195 0
M  V30 7778 C 745.909 2.2831 0.338094 0
M  V30 7779 C 746.879 1.32928 0.995957 0
M  V30 7780 O 748.064 1.61857 1.0103 0
M  V30 7781 C 745.204 3.14539 1.41983 0
M  V30 7782 C 744.317 4.24942 0.77773 0
M  V30 7783 C 743.452 4.98443 1.83652 0
M  V30 7784 C 742.491 6.00733 1.17413 0
M  V30 7785 N 741.628 6.6755 2.17533 0
M  V30 7786 H 746.468 2.96167 -0.330051 0
M  V30 7787 H 744.005 1.4606 -0.174611 0
M  V30 7788 H 745.963 3.62877 2.05855 0
M  V30 7789 H 744.593 2.48749 2.05727 0
M  V30 7790 H 743.645 3.80391 0.0266924 0
M  V30 7791 H 744.957 4.98151 0.254362 0
M  V30 7792 H 744.111 5.50449 2.55129 0
M  V30 7793 H 742.85 4.24917 2.39367 0
M  V30 7794 H 741.855 5.47997 0.444944 0
M  V30 7795 H 743.08 6.76227 0.624006 0
M  V30 7796 H 741.026 5.96823 2.72284 0
M  V30 7797 H 740.943 7.36603 1.70154 0
M  V30 7798 H 742.211 7.24178 2.88421 0
M  V30 7799 N 746.441 0.193421 1.56409 0
M  V30 7800 C 747.388 -0.728124 2.19014 0
M  V30 7801 C 748.358 -1.21098 1.13686 0
M  V30 7802 O 749.543 -1.27517 1.4193 0
M  V30 7803 C 746.683 -1.94277 2.8522 0
M  V30 7804 C 745.796 -1.50143 4.05069 0
M  V30 7805 C 744.931 -2.67145 4.59137 0
M  V30 7806 C 743.97 -2.19609 5.71348 0
M  V30 7807 N 743.107 -3.29782 6.19829 0
M  V30 7808 H 747.947 -0.187499 2.9741 0
M  V30 7809 H 745.484 -0.0808064 1.46878 0
M  V30 7810 H 747.442 -2.65551 3.21774 0
M  V30 7811 H 746.072 -2.45673 2.09391 0
M  V30 7812 H 745.124 -0.684624 3.74189 0
M  V30 7813 H 746.436 -1.11266 4.86232 0
M  V30 7814 H 745.59 -3.46544 4.97988 0
M  V30 7815 H 744.329 -3.09295 3.77078 0
M  V30 7816 H 743.334 -1.38664 5.32027 0
M  V30 7817 H 744.559 -1.78492 6.55223 0
M  V30 7818 H 742.505 -3.71466 5.40693 0
M  V30 7819 H 742.422 -2.95069 6.96039 0
M  V30 7820 H 743.69 -4.094 6.63334 0
M  V30 7821 N 747.919 -1.57396 -0.0801906 0
M  V30 7822 C 749.167 -1.86467 -0.779384 0
M  V30 7823 C 749.488 -0.784243 -1.78535 0
M  V30 7824 O 748.758 0.187986 -1.94996 0
M  V30 7825 H 747.338 -0.68806 -0.29083 0
M  V30 7826 H 750 -1.94813 -0.0582749 0
M  V30 7827 H 749.096 -2.83701 -1.30078 0
M  V30 7828 N 749.397 0.351382 -1.53633 0
M  V30 7829 C 750.625 1.11275 -1.74429 0
M  V30 7830 C 751.04 1.82602 -0.479798 0
M  V30 7831 O 750.397 1.74074 0.548125 0
M  V30 7832 C 750.448 2.13223 -2.91921 0
M  V30 7833 O 750.169 1.44798 -4.13479 0
M  V30 7834 C 751.67 3.01797 -3.24706 0
M  V30 7835 H 748.89 0.332153 -0.583023 0
M  V30 7836 H 751.434 0.405974 -2.0043 0
M  V30 7837 H 749.589 2.79477 -2.68274 0
M  V30 7838 H 750.003 2.12839 -4.79374 0
M  V30 7839 H 751.477 3.69282 -4.10286 0
M  V30 7840 H 751.954 3.67387 -2.40673 0
M  V30 7841 H 752.56 2.41141 -3.5033 0
M  V30 7842 N 750.875 1.45233 0.611969 0
M  V30 7843 C 752.121 1.49242 1.37312 0
M  V30 7844 C 752.454 0.131963 1.93751 0
M  V30 7845 O 751.729 -0.852999 1.74798 0
M  V30 7846 C 752.012 2.56811 2.52428 0
M  V30 7847 C 751.865 4.02284 2.01215 0
M  V30 7848 C 753.184 2.60705 3.54572 0
M  V30 7849 H 750.303 0.54336 0.497925 0
M  V30 7850 H 752.945 1.77019 0.690242 0
M  V30 7851 H 751.095 2.33256 3.10683 0
M  V30 7852 H 752.767 4.37035 1.47643 0
M  V30 7853 H 751.01 4.1315 1.32248 0
M  V30 7854 H 751.681 4.7323 2.84178 0
M  V30 7855 H 754.157 2.81799 3.06151 0
M  V30 7856 H 753.033 3.37841 4.32614 0
M  V30 7857 H 753.294 1.65627 4.09903 0
M  V30 7858 N 752.353 -0.854086 1.3245 0
M  V30 7859 C 753.285 -1.96932 1.17262 0
M  V30 7860 C 754.298 -1.62445 0.107469 0
M  V30 7861 O 755.487 -1.74904 0.356481 0
M  V30 7862 C 752.587 -3.29971 0.772817 0
M  V30 7863 C 751.76 -3.92695 1.92638 0
M  V30 7864 C 750.819 -5.04068 1.51003 0
M  V30 7865 O 749.845 -5.24032 2.22213 0
M  V30 7866 N 751.047 -5.79076 0.406371 0
M  V30 7867 H 753.812 -2.10503 2.13327 0
M  V30 7868 H 751.373 -1.02897 1.24995 0
M  V30 7869 H 753.365 -4.01883 0.476684 0
M  V30 7870 H 751.935 -3.1245 -0.0967 0
M  V30 7871 H 751.155 -3.13563 2.38897 0
M  V30 7872 H 752.443 -4.31337 2.69863 0
M  V30 7873 H 751.841 -5.65393 -0.186302 0
M  V30 7874 H 750.398 -6.51579 0.169846 0
M  V30 7875 N 753.831 -1.1567 -1.07043 0
M  V30 7876 C 754.763 -0.814095 -2.14255 0
M  V30 7877 C 755.776 0.175293 -1.61854 0
M  V30 7878 O 756.965 -0.0483984 -1.78434 0
M  V30 7879 C 754.065 -0.190082 -3.38367 0
M  V30 7880 C 753.238 -1.21768 -4.20109 0
M  V30 7881 C 752.297 -0.614863 -5.22595 0
M  V30 7882 O 751.323 -1.28167 -5.54583 0
M  V30 7883 N 752.525 0.601955 -5.77371 0
M  V30 7884 H 755.29 -1.73677 -2.44247 0
M  V30 7885 H 752.851 -1.05301 -1.22977 0
M  V30 7886 H 754.843 0.22604 -4.04068 0
M  V30 7887 H 753.413 0.635992 -3.06062 0
M  V30 7888 H 752.633 -1.81025 -3.50177 0
M  V30 7889 H 753.921 -1.9114 -4.71533 0
M  V30 7890 H 753.319 1.162 -5.53637 0
M  V30 7891 H 751.876 0.96039 -6.44686 0
M  V30 7892 N 755.309 1.25446 -0.953992 0
M  V30 7893 C 756.555 1.9343 -0.60933 0
M  V30 7894 C 756.888 1.74542 0.851388 0
M  V30 7895 O 756.163 1.09014 1.61078 0
M  V30 7896 C 756.446 3.46844 -0.968041 0
M  V30 7897 C 756.299 3.74961 -2.48444 0
M  V30 7898 C 757.618 4.37334 -0.492641 0
M  V30 7899 H 754.737 0.702502 -0.222844 0
M  V30 7900 H 757.379 1.48076 -1.19053 0
M  V30 7901 H 755.529 3.85604 -0.473465 0
M  V30 7902 H 757.201 3.45841 -3.05273 0
M  V30 7903 H 755.444 3.20589 -2.92241 0
M  V30 7904 H 756.115 4.82246 -2.68594 0
M  V30 7905 H 758.591 4.05873 -0.916878 0
M  V30 7906 H 757.467 5.43439 -0.772331 0
M  V30 7907 H 757.728 4.37908 0.607403 0
M  V30 7908 N 756.787 0.722489 1.40064 0
M  V30 7909 C 758.033 0.27422 2.01543 0
M  V30 7910 C 758.388 -1.12224 1.5628 0
M  V30 7911 O 757.681 -1.75179 0.776063 0
M  V30 7912 C 757.875 0.300682 3.56133 0
M  V30 7913 C 757.704 1.69818 4.16404 0
M  V30 7914 C 756.474 2.30747 4.49537 0
M  V30 7915 C 758.672 2.64962 4.40794 0
M  V30 7916 N 756.654 3.62781 4.9524 0
M  V30 7917 C 758.025 3.81712 4.88565 0
M  V30 7918 C 760.08 2.62885 4.22842 0
M  V30 7919 C 758.783 4.96703 5.20268 0
M  V30 7920 C 760.809 3.77009 4.55652 0
M  V30 7921 C 760.171 4.92492 5.03618 0
M  V30 7922 H 756.27 0.146328 0.768188 0
M  V30 7923 H 758.854 0.94577 1.70186 0
M  V30 7924 H 757.025 -0.340461 3.86905 0
M  V30 7925 H 758.757 -0.164951 4.04364 0
M  V30 7926 H 755.512 1.82783 4.36907 0
M  V30 7927 H 755.936 4.30533 5.22465 0
M  V30 7928 H 760.578 1.74803 3.84972 0
M  V30 7929 H 758.296 5.85425 5.57049 0
M  V30 7930 H 761.882 3.76685 4.43396 0
M  V30 7931 H 760.762 5.79336 5.28525 0
M  V30 7932 N 758.265 -1.50454 0.469181 0
M  V30 7933 C 759.175 -2.32248 -0.331349 0
M  V30 7934 C 760.191 -1.42548 -0.997807 0
M  V30 7935 O 761.367 -1.75602 -0.9862 0
M  V30 7936 C 758.432 -3.17171 -1.40012 0
M  V30 7937 C 757.493 -4.2269 -0.750463 0
M  V30 7938 C 756.726 -5.03554 -1.76831 0
M  V30 7939 O 756.949 -4.85469 -2.99459 0
M  V30 7940 O 755.883 -5.86767 -1.3412 0
M  V30 7941 H 759.709 -3.01821 0.337279 0
M  V30 7942 H 757.294 -1.47602 0.231066 0
M  V30 7943 H 759.176 -3.69871 -2.01924 0
M  V30 7944 H 757.851 -2.50328 -2.05226 0
M  V30 7945 H 756.758 -3.73986 -0.0924446 0
M  V30 7946 H 758.091 -4.91997 -0.14131 0
M  V30 7947 N 759.743 -0.201713 -1.56304 0
M  V30 7948 C 760.973 0.440084 -2.01858 0
M  V30 7949 C 761.381 1.55279 -1.08098 0
M  V30 7950 O 760.724 1.83529 -0.0792216 0
M  V30 7951 C 760.786 1.05091 -3.43797 0
M  V30 7952 C 760.45 0.0761208 -4.56937 0
M  V30 7953 C 761.447 -0.716951 -5.14933 0
M  V30 7954 C 759.132 -0.0368815 -5.02286 0
M  V30 7955 C 761.126 -1.60993 -6.16733 0
M  V30 7956 C 758.813 -0.933409 -6.03929 0
M  V30 7957 C 759.811 -1.71849 -6.61027 0
M  V30 7958 O 759.499 -2.59998 -7.60695 0
M  V30 7959 H 759.231 0.114139 -0.666294 0
M  V30 7960 H 761.785 -0.309672 -2.03052 0
M  V30 7961 H 760.015 1.84938 -3.3961 0
M  V30 7962 H 761.704 1.59804 -3.73118 0
M  V30 7963 H 762.47 -0.63999 -4.80759 0
M  V30 7964 H 758.349 0.564034 -4.57537 0
M  V30 7965 H 761.893 -2.22315 -6.61227 0
M  V30 7966 H 757.79 -1.01146 -6.37526 0
M  V30 7967 H 758.558 -2.53851 -7.7814 0
M  V30 7968 N 761.222 1.57436 0.0718424 0
M  V30 7969 C 762.47 1.86878 0.769484 0
M  V30 7970 C 762.791 0.7937 1.78116 0
M  V30 7971 O 762.061 -0.177642 1.95093 0
M  V30 7972 H 760.641 0.689593 0.287177 0
M  V30 7973 H 763.303 1.94841 0.0479427 0
M  V30 7974 H 762.399 2.84387 1.28572 0
M  V30 7975 N 762.7 -0.34323 1.53817 0
M  V30 7976 C 763.647 -1.42153 1.81827 0
M  V30 7977 C 764.617 -1.52251 0.663996 0
M  V30 7978 O 765.802 -1.67784 0.908461 0
M  V30 7979 C 762.942 -2.78799 2.03384 0
M  V30 7980 C 762.055 -2.7749 3.31094 0
M  V30 7981 C 761.19 -4.05856 3.42717 0
M  V30 7982 C 760.229 -3.98776 4.64375 0
M  V30 7983 N 759.366 -5.18833 4.73029 0
M  V30 7984 H 764.206 -1.17567 2.73829 0
M  V30 7985 H 761.743 -0.569506 1.35628 0
M  V30 7986 H 763.701 -3.58211 2.13872 0
M  V30 7987 H 762.331 -3.01736 1.14696 0
M  V30 7988 H 761.383 -1.90182 3.29446 0
M  V30 7989 H 762.695 -2.68137 4.206 0
M  V30 7990 H 761.849 -4.93691 3.52638 0
M  V30 7991 H 760.588 -4.1799 2.51267 0
M  V30 7992 H 759.593 -3.09325 4.5453 0
M  V30 7993 H 760.818 -3.88224 5.57189 0
M  V30 7994 H 758.764 -5.31511 3.84489 0
M  V30 7995 H 758.681 -5.11737 5.56472 0
M  V30 7996 H 759.949 -6.08439 4.87261 0
M  V30 7997 N 764.178 -1.45556 -0.604258 0
M  V30 7998 C 765.088 -1.57025 -1.74299 0
M  V30 7999 C 766.104 -0.45456 -1.67958 0
M  V30 8000 O 767.28 -0.715711 -1.88254 0
M  V30 8001 C 764.345 -1.53702 -3.10768 0
M  V30 8002 C 763.406 -2.76335 -3.28538 0
M  V30 8003 C 762.639 -2.73161 -4.58496 0
M  V30 8004 O 762.862 -1.80678 -5.41028 0
M  V30 8005 O 761.796 -3.64409 -4.79051 0
M  V30 8006 H 765.622 -2.53284 -1.67573 0
M  V30 8007 H 763.207 -1.28104 -0.768745 0
M  V30 8008 H 765.089 -1.54468 -3.92068 0
M  V30 8009 H 763.764 -0.605957 -3.17978 0
M  V30 8010 H 762.671 -2.8113 -2.46813 0
M  V30 8011 H 764.004 -3.68578 -3.26207 0
M  V30 8012 N 765.656 0.84705 -1.32902 0
M  V30 8013 C 767.072 1.13645 -1.12058 0
M  V30 8014 C 767.272 2.01281 0.093937 0
M  V30 8015 O 766.328 2.4026 0.776608 0
M  V30 8016 C 767.641 1.80644 -2.40392 0
M  V30 8017 C 769.189 1.93246 -2.46221 0
M  V30 8018 C 769.664 2.6366 -3.74496 0
M  V30 8019 N 771.155 2.71179 -3.75521 0
M  V30 8020 C 771.89 3.26332 -4.71482 0
M  V30 8021 N 771.386 3.82236 -5.77813 0
M  V30 8022 N 773.179 3.24507 -4.58968 0
M  V30 8023 H 765.33 0.263612 -2.10758 0
M  V30 8024 H 767.593 0.17944 -0.930863 0
M  V30 8025 H 767.299 1.23708 -3.29225 0
M  V30 8026 H 767.173 2.80736 -2.51926 0
M  V30 8027 H 769.56 2.49338 -1.57843 0
M  V30 8028 H 769.641 0.921272 -2.38634 0
M  V30 8029 H 769.285 2.08229 -4.63253 0
M  V30 8030 H 769.215 3.65234 -3.79357 0
M  V30 8031 H 771.706 2.31527 -2.9867 0
M  V30 8032 H 772.019 4.22499 -6.47082 0
M  V30 8033 H 770.364 3.80546 -5.81558 0
M  V30 8034 H 773.555 2.80085 -3.7506 0
M  V30 8035 H 773.728 3.67188 -5.33926 0
M  V30 8036 N 767.134 1.16236 1.06428 0
M  V30 8037 C 768.382 0.941171 1.78847 0
M  V30 8038 C 768.703 -0.53248 1.87589 0
M  V30 8039 O 767.973 -1.38686 1.38358 0
M  V30 8040 H 766.553 0.345228 0.66244 0
M  V30 8041 H 769.215 1.46479 1.28569 0
M  V30 8042 H 768.311 1.35871 2.80972 0
M  V30 8043 N 768.612 -1.24939 0.960631 0
M  V30 8044 C 769.842 -1.96595 0.635123 0
M  V30 8045 C 770.25 -1.71538 -0.798206 0
M  V30 8046 O 769.593 -0.991727 -1.5463 0
M  V30 8047 C 769.655 -3.49994 0.821248 0
M  V30 8048 C 769.319 -3.98738 2.23287 0
M  V30 8049 C 770.316 -4.08965 3.21004 0
M  V30 8050 C 768.001 -4.32247 2.55867 0
M  V30 8051 C 769.995 -4.52025 4.49391 0
M  V30 8052 C 767.682 -4.74991 3.84482 0
M  V30 8053 C 768.68 -4.84844 4.81056 0
M  V30 8054 O 768.368 -5.26638 6.07378 0
M  V30 8055 H 768.1 -0.633265 0.23654 0
M  V30 8056 H 770.654 -1.5991 1.28911 0
M  V30 8057 H 768.884 -3.86543 0.110105 0
M  V30 8058 H 770.573 -4.02859 0.495892 0
M  V30 8059 H 771.339 -3.83302 2.97161 0
M  V30 8060 H 767.218 -4.23801 1.81421 0
M  V30 8061 H 770.762 -4.5963 5.24773 0
M  V30 8062 H 766.659 -5.00101 4.08129 0
M  V30 8063 H 767.427 -5.44807 6.10842 0
M  V30 8064 N 770.09 -0.729906 -1.39679 0
M  V30 8065 C 771.367 -0.202149 -1.94553 0
M  V30 8066 C 771.747 1.29507 -1.66707 0
M  V30 8067 O 771.095 2.05819 -0.992517 0
M  V30 8068 C 771.305 -0.530279 -3.44948 0
M  V30 8069 C 772.653 -0.476808 -4.21914 0
M  V30 8070 O 773.677 -0.467171 -3.53123 0
M  V30 8071 O 772.536 -0.466869 -5.44502 0
M  V30 8072 H 769.63 -0.0351644 -0.826252 0
M  V30 8073 H 772.176 -0.808417 -1.49207 0
M  V30 8074 H 770.948 -1.56526 -3.5863 0
M  V30 8075 H 770.571 0.10522 -3.97461 0
M  V30 8076 N 771.568 1.50203 -0.477153 0
M  V30 8077 C 772.815 2.02358 0.0757385 0
M  V30 8078 C 773.143 1.3587 1.39174 0
M  V30 8079 O 772.398 0.475415 1.89838 0
M  V30 8080 C 772.697 3.56127 0.301325 0
M  V30 8081 C 772.363 4.41126 -0.933725 0
M  V30 8082 C 771.025 4.64075 -1.27233 0
M  V30 8083 C 773.377 4.90737 -1.75576 0
M  V30 8084 C 770.705 5.33878 -2.43292 0
M  V30 8085 C 773.057 5.61816 -2.90768 0
M  V30 8086 C 771.721 5.83016 -3.25036 0
M  V30 8087 H 770.991 0.740482 0.0277147 0
M  V30 8088 H 773.638 1.80754 -0.632467 0
M  V30 8089 H 771.943 3.76279 1.09183 0
M  V30 8090 H 773.64 3.94053 0.743184 0
M  V30 8091 H 770.23 4.23489 -0.659935 0
M  V30 8092 H 774.414 4.72856 -1.50734 0
M  V30 8093 H 769.67 5.48499 -2.70109 0
M  V30 8094 H 773.844 5.99237 -3.54807 0
M  V30 8095 H 771.471 6.36881 -4.15074 0
M  V30 8096 N 773.046 0.209999 1.56195 0
M  V30 8097 C 774.276 -0.429373 2.02089 0
M  V30 8098 C 774.684 -1.54703 1.0892 0
M  V30 8099 O 774.027 -1.83485 0.0889535 0
M  V30 8100 C 774.089 -1.03266 3.44349 0
M  V30 8101 C 773.753 -0.0518873 4.56971 0
M  V30 8102 C 774.75 0.744249 5.14545 0
M  V30 8103 C 772.435 0.0635185 5.0226 0
M  V30 8104 C 774.429 1.64261 6.15871 0
M  V30 8105 C 772.116 0.965423 6.03426 0
M  V30 8106 C 773.114 1.75352 6.60106 0
M  V30 8107 O 772.802 2.64029 7.59305 0
M  V30 8108 H 772.534 -0.110604 0.66689 0
M  V30 8109 H 775.088 0.320436 2.02885 0
M  V30 8110 H 773.318 -1.83134 3.40586 0
M  V30 8111 H 775.007 -1.57823 3.73961 0
M  V30 8112 H 775.773 0.665476 4.80413 0
M  V30 8113 H 771.652 -0.539762 4.57829 0
M  V30 8114 H 775.196 2.25819 6.60039 0
M  V30 8115 H 771.093 1.04526 6.36981 0
M  V30 8116 H 771.861 2.57974 7.76783 0
M  V30 8117 N 774.524 -1.57472 -0.0634922 0
M  V30 8118 C 775.749 -1.92273 -0.77756 0
M  V30 8119 C 776.174 -0.807141 -1.69902 0
M  V30 8120 O 775.532 0.239523 -1.79711 0
M  V30 8121 C 775.58 -3.26054 -1.54017 0
M  V30 8122 O 774.684 -3.15873 -2.65138 0
M  V30 8123 H 774.025 -0.629389 -0.211579 0
M  V30 8124 H 776.555 -2.04579 -0.0292523 0
M  V30 8125 H 776.565 -3.60127 -1.91763 0
M  V30 8126 H 775.24 -4.06824 -0.864128 0
M  V30 8127 H 773.817 -2.93373 -2.30189 0
M  V30 8128 N 776.003 0.335068 -1.53997 0
M  V30 8129 C 777.414 0.910191 -1.6301 0
M  V30 8130 C 777.765 1.89271 -0.516809 0
M  V30 8131 O 776.89 2.13516 0.352123 0
M  V30 8132 C 777.485 1.65761 -2.9548 0
M  V30 8133 C 776.044 2.18163 -3.06728 0
M  V30 8134 C 775.191 1.00338 -2.5851 0
M  V30 8135 H 778.142 0.112965 -1.58297 0
M  V30 8136 H 778.163 2.52107 -2.84995 0
M  V30 8137 H 777.675 0.94227 -3.76488 0
M  V30 8138 H 775.776 2.92847 -2.30372 0
M  V30 8139 H 775.889 2.43952 -4.1234 0
M  V30 8140 H 774.253 1.37925 -2.14124 0
M  V30 8141 H 775.036 0.30254 -3.41964 0
M  V30 8142 N 777.481 1.45874 0.596531 0
M  V30 8143 C 778.73 1.49737 1.35135 0
M  V30 8144 C 779.043 0.147755 1.95041 0
M  V30 8145 O 780.249 0.0640984 2.71424 0
M  V30 8146 C 778.705 2.6378 2.44843 0
M  V30 8147 C 778.313 4.05102 1.91301 0
M  V30 8148 C 780.057 2.769 3.21755 0
M  V30 8149 C 777.964 5.10508 2.98557 0
M  V30 8150 H 776.894 0.557219 0.507959 0
M  V30 8151 H 779.545 1.72046 0.638147 0
M  V30 8152 H 777.927 2.34774 3.189 0
M  V30 8153 H 779.101 4.43836 1.2388 0
M  V30 8154 H 777.416 3.96528 1.271 0
M  V30 8155 H 780.013 3.52819 4.01775 0
M  V30 8156 H 780.356 1.83924 3.73467 0
M  V30 8157 H 780.889 3.05485 2.54802 0
M  V30 8158 H 777.628 6.0523 2.51749 0
M  V30 8159 H 777.148 4.76332 3.6451 0
M  V30 8160 H 778.827 5.35745 3.62748 0
M  V30 8161 N 778.959 -0.83999 1.33349 0
M  V30 8162 C 780.187 -1.62728 1.27778 0
M  V30 8163 C 780.602 -1.88191 -0.151505 0
M  V30 8164 O 779.959 -1.46128 -1.09329 0
M  V30 8165 C 780.01 -2.97813 2.04913 0
M  V30 8166 O 779.731 -2.73469 3.42266 0
M  V30 8167 C 781.232 -3.92245 2.0654 0
M  V30 8168 H 778.452 -0.506374 0.440257 0
M  V30 8169 H 780.996 -1.04637 1.75703 0
M  V30 8170 H 779.151 -3.52509 1.60674 0
M  V30 8171 H 779.565 -3.59483 3.81932 0
M  V30 8172 H 781.039 -4.84249 2.64966 0
M  V30 8173 H 781.516 -4.26332 1.05537 0
M  V30 8174 H 782.122 -3.43487 2.50793 0
M  V30 8175 N 780.437 -1.16799 -1.0581 0
M  V30 8176 C 781.662 -0.977402 -1.82925 0
M  V30 8177 C 782.087 0.469514 -1.82146 0
M  V30 8178 O 781.445 1.33576 -1.22585 0
M  V30 8179 C 781.493 -1.51543 -3.27211 0
M  V30 8180 O 780.597 -0.725021 -4.05977 0
M  V30 8181 H 779.938 -0.347474 -0.565825 0
M  V30 8182 H 782.468 -1.55151 -1.33376 0
M  V30 8183 H 782.478 -1.53502 -3.78023 0
M  V30 8184 H 781.153 -2.56872 -3.27093 0
M  V30 8185 H 779.73 -0.77634 -3.64729 0
M  V30 8186 N 781.915 1.24427 -0.967243 0
M  V30 8187 C 783.164 1.91789 -0.624478 0
M  V30 8188 C 783.477 1.76448 0.844129 0
M  V30 8189 O 784.683 2.38495 1.2974 0
M  V30 8190 C 783.139 3.43743 -1.06626 0
M  V30 8191 C 782.747 3.67771 -2.55829 0
M  V30 8192 C 784.491 4.16958 -0.79662 0
M  V30 8193 C 782.398 5.13293 -2.93742 0
M  V30 8194 H 781.328 0.71811 -0.229856 0
M  V30 8195 H 783.979 1.41081 -1.17339 0
M  V30 8196 H 782.361 3.93484 -0.445663 0
M  V30 8197 H 783.535 3.28631 -3.23015 0
M  V30 8198 H 781.85 3.07841 -2.80398 0
M  V30 8199 H 784.447 5.24171 -1.05589 0
M  V30 8200 H 784.79 4.15442 0.267163 0
M  V30 8201 H 785.323 3.73164 -1.37816 0
M  V30 8202 H 782.062 5.19931 -3.9919 0
M  V30 8203 H 781.582 5.53433 -2.3124 0
M  V30 8204 H 783.261 5.81521 -2.83623 0
M  V30 8205 N 783.393 0.737304 1.3929 0
M  V30 8206 C 784.642 0.283129 1.99703 0
M  V30 8207 C 784.955 -1.13677 1.59176 0
M  V30 8208 O 786.161 -1.69058 2.12442 0
M  V30 8209 C 784.617 0.455262 3.57009 0
M  V30 8210 C 784.225 1.88319 4.06497 0
M  V30 8211 C 785.969 0.0629786 4.24453 0
M  V30 8212 C 783.876 2.00475 5.56385 0
M  V30 8213 H 782.806 0.102106 0.747054 0
M  V30 8214 H 785.457 0.911515 1.5926 0
M  V30 8215 H 783.839 -0.242057 3.9526 0
M  V30 8216 H 785.013 2.61265 3.79575 0
M  V30 8217 H 783.328 2.2289 3.51723 0
M  V30 8218 H 785.925 0.132787 5.34535 0
M  V30 8219 H 786.268 -0.982128 4.04549 0
M  V30 8220 H 786.801 0.71154 3.91385 0
M  V30 8221 H 783.54 3.03182 5.81172 0
M  V30 8222 H 783.06 1.31969 5.85102 0
M  V30 8223 H 784.739 1.787 6.21832 0
M  V30 8224 N 784.871 -1.49948 0.485112 0
M  V30 8225 C 785.781 -2.32587 -0.306697 0
M  V30 8226 C 786.797 -1.43598 -0.982632 0
M  V30 8227 O 787.973 -1.76638 -0.967519 0
M  V30 8228 C 785.038 -3.18638 -1.3664 0
M  V30 8229 C 784.099 -4.23462 -0.705589 0
M  V30 8230 C 783.332 -5.05401 -1.7148 0
M  V30 8231 O 783.555 -4.88618 -2.94293 0
M  V30 8232 O 782.489 -5.88157 -1.27889 0
M  V30 8233 H 786.315 -3.01447 0.369272 0
M  V30 8234 H 783.9 -1.47349 0.246709 0
M  V30 8235 H 785.782 -3.71992 -1.9799 0
M  V30 8236 H 784.457 -2.52491 -2.02559 0
M  V30 8237 H 783.364 -3.74063 -0.0527733 0
M  V30 8238 H 784.697 -4.92119 -0.0891187 0
M  V30 8239 N 786.349 -0.21828 -1.56081 0
M  V30 8240 C 787.579 0.41865 -2.02314 0
M  V30 8241 C 787.987 1.54124 -1.09739 0
M  V30 8242 O 787.33 1.83435 -0.0986829 0
M  V30 8243 C 787.392 1.01439 -3.44892 0
M  V30 8244 C 787.056 0.0276523 -4.56992 0
M  V30 8245 C 788.053 -0.771526 -5.14143 0
M  V30 8246 C 785.738 -0.0901537 -5.02219 0
M  V30 8247 C 787.732 -1.67525 -6.14991 0
M  V30 8248 C 785.419 -0.997411 -6.02905 0
M  V30 8249 C 786.417 -1.78851 -6.59167 0
M  V30 8250 O 786.105 -2.68052 -7.57894 0
M  V30 8251 H 785.837 0.107066 -0.667468 0
M  V30 8252 H 788.391 -0.331191 -2.02712 0
M  V30 8253 H 786.621 1.81326 -3.41552 0
M  V30 8254 H 788.31 1.55838 -3.74792 0
M  V30 8255 H 789.076 -0.690945 -4.80053 0
M  V30 8256 H 784.955 0.515474 -4.58109 0
M  V30 8257 H 788.499 -2.29316 -6.58832 0
M  V30 8258 H 784.396 -1.07902 -6.36418 0
M  V30 8259 H 785.164 -2.6209 -7.75404 0
M  V30 8260 N 787.827 1.57504 0.0551401 0
M  V30 8261 C 788.759 2.0158 1.09078 0
M  V30 8262 C 789.772 0.92434 1.34014 0
M  V30 8263 O 790.961 1.20202 1.31961 0
M  V30 8264 C 788.061 2.35385 2.43818 0
M  V30 8265 C 787.234 3.66588 2.38605 0
M  V30 8266 C 786.293 3.87874 3.55585 0
M  V30 8267 O 785.319 4.59259 3.36258 0
M  V30 8268 N 786.521 3.31503 4.76536 0
M  V30 8269 H 789.286 2.91039 0.71529 0
M  V30 8270 H 786.847 1.60058 0.243532 0
M  V30 8271 H 788.839 2.46784 3.20749 0
M  V30 8272 H 787.409 1.51731 2.73307 0
M  V30 8273 H 786.629 3.65787 1.46947 0
M  V30 8274 H 787.917 4.52706 2.32239 0
M  V30 8275 H 787.315 2.73592 4.9514 0
M  V30 8276 H 785.872 3.48324 5.50921 0
M  V30 8277 N 789.305 -0.326896 1.54172 0
M  V30 8278 C 790.268 -1.38515 1.8261 0
M  V30 8279 C 791.268 -1.44872 0.697771 0
M  V30 8280 O 792.458 -1.44957 0.966078 0
M  V30 8281 C 789.59 -2.77281 1.98313 0
M  V30 8282 H 790.783 -1.14556 2.77159 0
M  V30 8283 H 788.336 -0.562199 1.45839 0
M  V30 8284 H 789.071 -3.065 1.05964 0
M  V30 8285 H 788.856 -2.74061 2.80416 0
M  V30 8286 H 790.346 -3.53845 2.21773 0
M  V30 8287 N 790.784 -1.46188 -0.588786 0
M  V30 8288 C 792.061 -1.41659 -1.34878 0
M  V30 8289 C 792.441 -0.0968913 -2.10878 0
M  V30 8290 O 791.789 0.921468 -2.09096 0
M  V30 8291 C 791.999 -2.6424 -2.27988 0
M  V30 8292 C 793.347 -3.1013 -2.90008 0
M  V30 8293 O 794.371 -2.64745 -2.38303 0
M  V30 8294 O 793.23 -3.88944 -3.83908 0
M  V30 8295 H 790.324 -0.563058 -0.605718 0
M  V30 8296 H 792.87 -1.58346 -0.610309 0
M  V30 8297 H 791.642 -3.51853 -1.71217 0
M  V30 8298 H 791.265 -2.49982 -3.09184 0
M  V30 8299 N 792.262 0.832906 -1.33792 0
M  V30 8300 C 793.678 1.1245 -1.13257 0
M  V30 8301 C 793.878 2.01369 0.0725832 0
M  V30 8302 O 792.934 2.41071 0.751082 0
M  V30 8303 C 794.247 1.78084 -2.42294 0
M  V30 8304 C 795.795 1.90624 -2.48257 0
M  V30 8305 C 796.27 2.59673 -3.77271 0
M  V30 8306 N 797.761 2.67181 -3.78376 0
M  V30 8307 C 798.496 3.21313 -4.74916 0
M  V30 8308 N 797.992 3.76086 -5.81835 0
M  V30 8309 N 799.785 3.19621 -4.62384 0
M  V30 8310 H 791.936 0.241244 -2.11026 0
M  V30 8311 H 794.199 0.169557 -0.932713 0
M  V30 8312 H 793.905 1.20209 -3.30519 0
M  V30 8313 H 793.779 2.78049 -2.5489 0
M  V30 8314 H 796.166 2.4765 -1.60478 0
M  V30 8315 H 796.247 0.89591 -2.39598 0
M  V30 8316 H 795.891 2.03304 -4.65435 0
M  V30 8317 H 795.821 3.61189 -3.8321 0
M  V30 8318 H 798.312 2.28346 -3.01108 0
M  V30 8319 H 798.625 4.15612 -6.51526 0
M  V30 8320 H 796.97 3.74357 -5.85561 0
M  V30 8321 H 800.161 2.76091 -3.7801 0
M  V30 8322 H 800.334 3.61504 -5.37791 0
M  V30 8323 N 793.74 1.17359 1.05189 0
M  V30 8324 C 794.688 0.886527 2.15043 0
M  V30 8325 C 795.682 -0.148834 1.68745 0
M  V30 8326 O 796.888 -0.00175123 1.8 0
M  V30 8327 H 793.263 0.269147 0.702185 0
M  V30 8328 H 795.234 1.82016 2.36459 0
M  V30 8329 C 793.983 0.416333 3.45198 0
M  V30 8330 H 793.306 1.20449 3.81225 0
M  V30 8331 H 794.746 0.254362 4.23236 0
M  V30 8332 C 793.205 -0.866016 3.25579 0
M  V30 8333 O 793.735 -1.9328 3.52144 0
M  V30 8334 N 791.941 -0.814179 2.78961 0
M  V30 8335 H 791.488 0.0541618 2.57543 0
M  V30 8336 H 791.446 -1.67264 2.66214 0
M  V30 8337 N 795.218 -1.23913 0.973828 0
M  V30 8338 C 796.446 -1.96195 0.656891 0
M  V30 8339 C 796.861 -1.72166 -0.774876 0
M  V30 8340 O 796.218 -1.0091 -1.52064 0
M  V30 8341 C 796.269 -3.49342 0.929638 0
M  V30 8342 O 795.99 -3.72553 2.30512 0
M  V30 8343 C 797.491 -4.38833 0.627739 0
M  V30 8344 H 794.711 -0.624841 0.244572 0
M  V30 8345 H 797.255 -1.57579 1.30343 0
M  V30 8346 H 795.41 -3.85999 0.329216 0
M  V30 8347 H 795.824 -4.66893 2.3898 0
M  V30 8348 H 797.298 -5.45117 0.868991 0
M  V30 8349 H 797.775 -4.37009 -0.438104 0
M  V30 8350 H 798.381 -4.07773 1.20834 0
M  V30 8351 N 796.696 -0.74468 -1.38897 0
M  V30 8352 C 797.629 -0.0596441 -2.28122 0
M  V30 8353 C 798.607 0.73764 -1.44906 0
M  V30 8354 O 799.791 0.718155 -1.74284 0
M  V30 8355 C 796.918 0.922533 -3.25894 0
M  V30 8356 C 795.964 0.212566 -4.2597 0
M  V30 8357 S 796.797 -1.08035 -5.24489 0
M  V30 8358 C 797.953 -0.101014 -6.25818 0
M  V30 8359 H 798.186 -0.816289 -2.85874 0
M  V30 8360 H 795.719 -0.536882 -1.44765 0
M  V30 8361 H 797.677 1.4839 -3.82741 0
M  V30 8362 H 796.338 1.65209 -2.67142 0
M  V30 8363 H 795.531 0.956106 -4.94848 0
M  V30 8364 H 795.133 -0.277029 -3.72973 0
M  V30 8365 H 797.425 0.736072 -6.7349 0
M  V30 8366 H 798.368 -0.757206 -7.0404 0
M  V30 8367 H 798.776 0.275706 -5.63826 0
M  V30 8368 N 798.174 1.49689 -0.493057 0
M  V30 8369 C 799.421 2.02427 0.0542714 0
M  V30 8370 C 799.749 1.37339 1.37725 0
M  V30 8371 O 799.004 0.495523 1.89323 0
M  V30 8372 C 799.303 3.56427 0.263536 0
M  V30 8373 C 798.969 4.40111 -0.98046 0
M  V30 8374 C 797.631 4.62699 -1.32148 0
M  V30 8375 C 799.983 4.88847 -1.80771 0
M  V30 8376 C 797.311 5.31268 -2.48941 0
M  V30 8377 C 799.663 5.587 -2.96711 0
M  V30 8378 C 798.327 5.79536 -3.31202 0
M  V30 8379 H 797.597 0.740734 0.0198593 0
M  V30 8380 H 800.244 1.80073 -0.651603 0
M  V30 8381 H 798.549 3.77416 1.05186 0
M  V30 8382 H 800.246 3.94819 0.701348 0
M  V30 8383 H 796.836 4.22765 -0.704814 0
M  V30 8384 H 801.02 4.71231 -1.55741 0
M  V30 8385 H 796.276 5.45603 -2.75911 0
M  V30 8386 H 800.45 5.9544 -3.61143 0
M  V30 8387 H 798.077 6.32443 -4.21805 0
M  V30 8388 N 799.652 0.226554 1.55963 0
M  V30 8389 C 800.9 -0.402991 1.98041 0
M  V30 8390 C 801.221 -1.59938 1.11557 0
M  V30 8391 O 800.491 -1.9494 0.193719 0
M  V30 8392 H 799.071 -0.15188 0.731397 0
M  V30 8393 H 801.733 0.320613 1.92245 0
M  V30 8394 H 800.829 -0.725937 3.0354 0
M  V30 8395 N 801.13 -1.57531 -0.0467866 0
M  V30 8396 C 802.377 -1.88451 -0.74112 0
M  V30 8397 C 802.705 -0.821592 -1.76296 0
M  V30 8398 O 801.96 0.179585 -1.94874 0
M  V30 8399 C 802.259 -3.26091 -1.46285 0
M  V30 8400 C 801.925 -4.47171 -0.578669 0
M  V30 8401 C 800.587 -4.80032 -0.335083 0
M  V30 8402 C 802.939 -5.2119 0.0328809 0
M  V30 8403 C 800.267 -5.84309 0.529121 0
M  V30 8404 C 802.619 -6.26383 0.884684 0
M  V30 8405 C 801.283 -6.57729 1.1379 0
M  V30 8406 H 800.553 -0.68959 -0.271195 0
M  V30 8407 H 803.2 -1.915 -0.00132378 0
M  V30 8408 H 801.505 -3.18948 -2.27551 0
M  V30 8409 H 803.202 -3.47258 -2.00532 0
M  V30 8410 H 799.792 -4.21467 -0.778666 0
M  V30 8411 H 803.976 -4.96096 -0.142375 0
M  V30 8412 H 799.232 -6.06981 0.733794 0
M  V30 8413 H 803.406 -6.82888 1.36516 0
M  V30 8414 H 801.033 -7.38355 1.80929 0
M  V30 8415 N 802.608 0.318715 -1.54344 0
M  V30 8416 C 803.856 1.054 -1.72439 0
M  V30 8417 C 804.177 1.88388 -0.503495 0
M  V30 8418 O 803.447 1.89866 0.48246 0
M  V30 8419 H 802.027 0.392124 -0.635805 0
M  V30 8420 H 804.689 0.35398 -1.91659 0
M  V30 8421 H 803.785 1.71726 -2.60608 0
M  V30 8422 N 804.086 1.46499 0.581025 0
M  V30 8423 C 805.334 1.51596 1.33653 0
M  V30 8424 C 805.655 0.169859 1.94259 0
M  V30 8425 O 804.925 -0.803776 1.78651 0
M  V30 8426 H 803.505 0.558346 0.496244 0
M  V30 8427 H 806.167 1.8264 0.680338 0
M  V30 8428 H 805.263 2.26956 2.14237 0
M  V30 8429 N 805.565 -0.825799 1.34232 0
M  V30 8430 C 806.79 -1.61883 1.29648 0
M  V30 8431 C 807.215 -1.87669 -0.127295 0
M  V30 8432 O 806.573 -1.45016 -1.08813 0
M  V30 8433 C 806.621 -2.93846 2.09014 0
M  V30 8434 O 805.725 -3.85778 1.4577 0
M  V30 8435 H 805.066 -0.492454 0.445405 0
M  V30 8436 H 807.596 -1.02641 1.76992 0
M  V30 8437 H 807.606 -3.43435 2.20264 0
M  V30 8438 H 806.281 -2.74401 3.12533 0
M  V30 8439 H 804.858 -3.4429 1.43245 0
M  V30 8440 N 807.043 -1.17915 -1.04565 0
M  V30 8441 C 808.292 -0.965816 -1.77073 0
M  V30 8442 C 808.605 0.506005 -1.88942 0
M  V30 8443 O 809.811 0.837717 -2.58253 0
M  V30 8444 C 808.267 -1.67894 -3.18339 0
M  V30 8445 C 807.875 -3.18972 -3.1458 0
M  V30 8446 C 809.619 -1.54823 -3.9526 0
M  V30 8447 C 807.526 -3.82946 -4.50674 0
M  V30 8448 H 806.456 -0.357729 -0.663736 0
M  V30 8449 H 809.107 -1.41235 -1.17153 0
M  V30 8450 H 807.489 -1.16016 -3.78624 0
M  V30 8451 H 808.663 -3.77835 -2.63776 0
M  V30 8452 H 806.978 -3.32127 -2.51159 0
M  V30 8453 H 809.575 -1.99984 -4.95894 0
M  V30 8454 H 809.918 -0.499727 -4.1329 0
M  V30 8455 H 810.451 -2.03953 -3.41538 0
M  V30 8456 H 807.19 -4.8782 -4.37849 0
M  V30 8457 H 806.71 -3.2887 -5.01602 0
M  V30 8458 H 808.389 -3.85518 -5.196 0
M  V30 8459 N 808.521 1.23394 -0.980386 0
M  V30 8460 C 809.471 2.22634 -0.491747 0
M  V30 8461 C 810.455 1.54958 0.433222 0
M  V30 8462 O 811.647 1.75049 0.262078 0
M  V30 8463 C 808.776 3.4269 0.204531 0
M  V30 8464 C 807.862 4.17594 -0.740007 0
M  V30 8465 N 808.253 4.69458 -1.88263 0
M  V30 8466 C 806.551 4.42554 -0.553335 0
M  V30 8467 C 807.252 5.26446 -2.47446 0
M  V30 8468 N 806.228 5.14377 -1.75834 0
M  V30 8469 H 810.03 2.60363 -1.36339 0
M  V30 8470 H 807.544 1.38924 -0.841059 0
M  V30 8471 H 809.541 4.12959 0.571901 0
M  V30 8472 H 808.201 3.06477 1.07246 0
M  V30 8473 H 809.212 4.65803 -2.26381 0
M  V30 8474 H 805.889 4.16629 0.269573 0
M  V30 8475 H 807.279 5.77195 -3.43941 0
M  V30 8476 N 809.999 0.752036 1.385 0
M  V30 8477 C 810.929 0.138718 2.33088 0
M  V30 8478 C 811.91 -0.705318 1.54788 0
M  V30 8479 O 813.095 -0.646821 1.83112 0
M  V30 8480 C 810.225 -0.75641 3.38963 0
M  V30 8481 C 809.179 -0.0152239 4.27997 0
M  V30 8482 C 808.505 -1.0285 5.24715 0
M  V30 8483 C 809.805 1.15226 5.09431 0
M  V30 8484 H 811.499 0.928852 2.84627 0
M  V30 8485 H 809.045 0.448111 1.3685 0
M  V30 8486 H 810.998 -1.19513 4.04097 0
M  V30 8487 H 809.722 -1.57885 2.85902 0
M  V30 8488 H 808.381 0.404061 3.64366 0
M  V30 8489 H 808.029 -1.84496 4.67943 0
M  V30 8490 H 807.729 -0.537238 5.85139 0
M  V30 8491 H 809.253 -1.46657 5.92726 0
M  V30 8492 H 810.667 0.791161 5.67815 0
M  V30 8493 H 809.064 1.57428 5.79082 0
M  V30 8494 H 810.134 1.9659 4.43261 0
M  V30 8495 N 811.477 -1.49425 0.500989 0
M  V30 8496 C 812.724 -2.02453 -0.0435355 0
M  V30 8497 C 813.052 -1.38067 -1.36995 0
M  V30 8498 O 812.307 -0.505557 -1.89057 0
M  V30 8499 C 812.606 -3.56562 -0.24463 0
M  V30 8500 C 812.272 -4.39585 1.00379 0
M  V30 8501 C 810.934 -4.61992 1.346 0
M  V30 8502 C 813.286 -4.87881 1.83361 0
M  V30 8503 C 810.614 -5.2994 2.51755 0
M  V30 8504 C 812.966 -5.57119 2.99669 0
M  V30 8505 C 811.63 -5.77771 3.3427 0
M  V30 8506 H 810.9 -0.740829 -0.0159308 0
M  V30 8507 H 813.547 -1.79725 0.661143 0
M  V30 8508 H 811.852 -3.77969 -1.03183 0
M  V30 8509 H 813.549 -3.95185 -0.6804 0
M  V30 8510 H 810.139 -4.22385 0.727225 0
M  V30 8511 H 814.323 -4.70398 1.58237 0
M  V30 8512 H 809.579 -5.44133 2.788 0
M  V30 8513 H 813.753 -5.93516 3.64296 0
M  V30 8514 H 811.38 -6.30197 4.25154 0
M  V30 8515 N 812.955 -0.234822 -1.55841 0
M  V30 8516 C 814.232 0.442961 -1.90518 0
M  V30 8517 C 814.612 1.76768 -1.15397 0
M  V30 8518 O 813.96 2.26928 -0.267534 0
M  V30 8519 C 814.17 0.622905 -3.43396 0
M  V30 8520 C 815.518 0.9243 -4.14417 0
M  V30 8521 O 816.542 0.709211 -3.49068 0
M  V30 8522 O 815.401 1.33323 -5.29988 0
M  V30 8523 H 812.495 0.236042 -0.792599 0
M  V30 8524 H 815.041 -0.277992 -1.67408 0
M  V30 8525 H 813.813 -0.310973 -3.90062 0
M  V30 8526 H 813.436 1.39485 -3.7233 0
M  V30 8527 N 814.433 1.57553 0.0384317 0
M  V30 8528 C 815.679 1.89121 0.732199 0
M  V30 8529 C 816.012 0.831404 1.75503 0
M  V30 8530 O 815.287 -0.154642 1.93884 0
M  V30 8531 C 815.57 3.31338 1.41021 0
M  V30 8532 C 815.423 4.48004 0.401532 0
M  V30 8533 C 816.742 3.72318 2.34665 0
M  V30 8534 H 813.861 0.687819 0.264715 0
M  V30 8535 H 816.503 1.89999 -0.00496279 0
M  V30 8536 H 814.653 3.3072 2.03854 0
M  V30 8537 H 816.325 4.60755 -0.224159 0
M  V30 8538 H 814.568 4.32895 -0.280092 0
M  V30 8539 H 815.239 5.44377 0.91423 0
M  V30 8540 H 817.715 3.74243 1.81883 0
M  V30 8541 H 816.591 4.72652 2.7909 0
M  V30 8542 H 816.852 3.04062 3.20934 0
M  V30 8543 N 815.911 -0.310526 1.54511 0
M  V30 8544 C 817.159 -1.04484 1.72996 0
M  V30 8545 C 817.48 -1.88118 0.513479 0
M  V30 8546 O 816.75 -1.90119 -0.472384 0
M  V30 8547 H 815.33 -0.388747 0.637875 0
M  V30 8548 H 817.992 -0.343811 1.91844 0
M  V30 8549 H 817.088 -1.70341 2.61515 0
M  V30 8550 N 817.389 -1.46805 -0.573248 0
M  V30 8551 C 818.321 -1.54127 -1.6964 0
M  V30 8552 C 819.334 -0.428778 -1.57052 0
M  V30 8553 O 820.523 -0.697612 -1.64303 0
M  V30 8554 C 817.623 -1.41438 -3.07975 0
M  V30 8555 C 816.796 -2.66974 -3.46474 0
M  V30 8556 C 815.855 -2.48349 -4.63906 0
M  V30 8557 O 814.881 -3.22109 -4.69292 0
M  V30 8558 N 816.083 -1.55129 -5.59388 0
M  V30 8559 H 818.848 -2.50971 -1.6381 0
M  V30 8560 H 816.409 -1.42981 -0.759479 0
M  V30 8561 H 818.401 -1.26737 -3.84343 0
M  V30 8562 H 816.971 -0.527388 -3.08119 0
M  V30 8563 H 816.191 -2.9655 -2.59715 0
M  V30 8564 H 817.479 -3.50347 -3.68964 0
M  V30 8565 H 816.877 -0.94324 -5.57781 0
M  V30 8566 H 815.434 -1.46387 -6.35149 0
M  V30 8567 N 818.867 0.818669 -1.34668 0
M  V30 8568 C 820.278 1.39177 -1.24446 0
M  V30 8569 C 820.629 1.9578 0.128268 0
M  V30 8570 O 819.754 1.90382 1.02877 0
M  V30 8571 C 820.349 2.53012 -2.25323 0
M  V30 8572 C 818.908 3.06218 -2.18878 0
M  V30 8573 C 818.055 1.79112 -2.11694 0
M  V30 8574 H 821.006 0.622709 -1.45973 0
M  V30 8575 H 821.027 3.31226 -1.8727 0
M  V30 8576 H 820.539 2.11784 -3.25221 0
M  V30 8577 H 818.64 3.51939 -1.22351 0
M  V30 8578 H 818.753 3.65019 -3.10319 0
M  V30 8579 H 817.117 2.0018 -1.57481 0
M  V30 8580 H 817.9 1.40053 -3.13433 0
M  V30 8581 N 820.346 1.18468 1.03938 0
M  V30 8582 C 821.574 1.00576 1.80809 0
M  V30 8583 C 821.989 -0.445786 1.83462 0
M  V30 8584 O 821.346 -1.30964 1.27101 0
M  V30 8585 C 821.397 1.55491 3.26351 0
M  V30 8586 O 821.118 2.94963 3.23926 0
M  V30 8587 C 822.619 1.42236 4.19862 0
M  V30 8588 H 819.839 0.35508 0.56935 0
M  V30 8589 H 822.383 1.57046 1.30984 0
M  V30 8590 H 820.538 1.03195 3.73403 0
M  V30 8591 H 820.952 3.20598 4.15111 0
M  V30 8592 H 822.426 1.85455 5.19914 0
M  V30 8593 H 822.903 0.371267 4.37628 0
M  V30 8594 H 823.509 1.9361 3.78675 0
M  V30 8595 N 821.824 -1.22873 0.986916 0
M  V30 8596 C 823.07 -1.91746 0.660401 0
M  V30 8597 C 823.403 -1.76738 -0.804812 0
M  V30 8598 O 822.678 -1.13246 -1.58131 0
M  V30 8599 C 822.961 -3.44156 1.05966 0
M  V30 8600 C 822.814 -3.68242 2.58298 0
M  V30 8601 C 824.133 -4.35874 0.60842 0
M  V30 8602 H 821.252 -0.696347 0.241391 0
M  V30 8603 H 823.894 -1.44867 1.22937 0
M  V30 8604 H 822.044 -3.84213 0.575534 0
M  V30 8605 H 823.716 -3.37626 3.14335 0
M  V30 8606 H 821.959 -3.12728 3.00638 0
M  V30 8607 H 822.63 -4.74956 2.81285 0
M  V30 8608 H 825.106 -4.03299 1.02417 0
M  V30 8609 H 823.982 -5.41201 0.916142 0
M  V30 8610 H 824.243 -4.39364 -0.491086 0
M  V30 8611 N 823.302 -0.75937 -1.38099 0
M  V30 8612 C 824.55 -0.317485 -1.99591 0
M  V30 8613 C 824.871 1.10628 -1.60581 0
M  V30 8614 O 824.141 1.7575 -0.865378 0
M  V30 8615 H 822.721 -0.114397 -0.738189 0
M  V30 8616 H 825.383 -0.974749 -1.68774 0
M  V30 8617 H 824.479 -0.385227 -3.09713 0
M  V30 8618 N 824.78 1.49157 -0.508906 0
M  V30 8619 C 825.727 2.2927 0.265288 0
M  V30 8620 C 826.697 1.3603 0.953162 0
M  V30 8621 O 827.882 1.64989 0.958291 0
M  V30 8622 C 825.022 3.18897 1.31904 0
M  V30 8623 C 824.135 4.27201 0.642144 0
M  V30 8624 C 823.27 5.04033 1.67701 0
M  V30 8625 C 822.309 6.04165 0.982422 0
M  V30 8626 N 821.446 6.74133 1.96186 0
M  V30 8627 H 826.286 2.94967 -0.424107 0
M  V30 8628 H 823.823 1.45431 -0.220991 0
M  V30 8629 H 825.781 3.69242 1.94206 0
M  V30 8630 H 824.411 2.55168 1.97709 0
M  V30 8631 H 823.463 3.80283 -0.0943395 0
M  V30 8632 H 824.775 4.98708 0.0957507 0
M  V30 8633 H 823.929 5.58287 2.37487 0
M  V30 8634 H 822.668 4.32317 2.25728 0
M  V30 8635 H 821.673 5.49135 0.270378 0
M  V30 8636 H 822.898 6.7787 0.408554 0
M  V30 8637 H 820.844 6.05183 2.53159 0
M  V30 8638 H 820.761 7.41643 1.46634 0
M  V30 8639 H 822.029 7.32987 2.65236 0
M  V30 8640 N 826.258 0.243083 1.55714 0
M  V30 8641 C 827.188 -0.652336 2.24203 0
M  V30 8642 C 828.169 -1.1843 1.221 0
M  V30 8643 O 829.354 -1.22435 1.50743 0
M  V30 8644 C 826.484 -1.85111 2.93856 0
M  V30 8645 C 825.438 -1.45208 4.02615 0
M  V30 8646 C 824.764 -2.73137 4.59674 0
M  V30 8647 C 826.064 -0.625988 5.18535 0
M  V30 8648 H 827.758 -0.0812504 2.9929 0
M  V30 8649 H 825.304 -0.0376388 1.43951 0
M  V30 8650 H 827.257 -2.48314 3.40468 0
M  V30 8651 H 825.981 -2.44751 2.16251 0
M  V30 8652 H 824.64 -0.843406 3.56766 0
M  V30 8653 H 824.288 -3.30967 3.78774 0
M  V30 8654 H 823.988 -2.47163 5.33089 0
M  V30 8655 H 825.512 -3.37245 5.09017 0
M  V30 8656 H 826.926 -1.16223 5.61396 0
M  V30 8657 H 825.323 -0.462465 5.98315 0
M  V30 8658 H 826.393 0.362652 4.83542 0
M  V30 8659 N 827.736 -1.57571 -0.0300757 0
M  V30 8660 C 828.684 -2.0758 -1.04944 0
M  V30 8661 C 829.678 -0.989384 -1.37505 0
M  V30 8662 O 830.884 -1.17427 -1.36422 0
M  V30 8663 H 827.259 -0.662419 -0.355956 0
M  V30 8664 H 829.23 -2.92268 -0.601848 0
M  V30 8665 C 827.979 -2.5698 -2.34215 0
M  V30 8666 H 827.302 -3.40193 -2.10021 0
M  V30 8667 H 828.742 -2.95682 -3.03888 0
M  V30 8668 C 827.201 -1.47059 -3.03109 0
M  V30 8669 O 827.731 -0.83625 -3.92899 0
M  V30 8670 N 825.937 -1.20538 -2.64422 0
M  V30 8671 H 825.484 -1.72305 -1.9149 0
M  V30 8672 H 825.442 -0.472045 -3.10836 0
M  V30 8673 N 829.214 0.302327 -1.54673 0
M  V30 8674 C 830.124 1.39542 -1.88587 0
M  V30 8675 C 831.14 1.55543 -0.779895 0
M  V30 8676 O 832.316 1.70233 -1.07623 0
M  V30 8677 C 829.381 2.7394 -2.12504 0
M  V30 8678 C 828.442 2.66935 -3.3622 0
M  V30 8679 C 827.675 3.94923 -3.58987 0
M  V30 8680 O 827.898 4.94218 -2.84789 0
M  V30 8681 O 826.832 3.96896 -4.52501 0
M  V30 8682 H 830.658 1.13784 -2.81579 0
M  V30 8683 H 828.243 0.49827 -1.40846 0
M  V30 8684 H 830.125 3.5346 -2.29443 0
M  V30 8685 H 828.8 2.99544 -1.22698 0
M  V30 8686 H 827.707 1.85892 -3.24646 0
M  V30 8687 H 829.04 2.46283 -4.26152 0
M  V30 8688 N 830.692 1.47107 0.565454 0
M  V30 8689 C 831.941 1.5257 1.31929 0
M  V30 8690 C 832.254 0.189092 1.94684 0
M  V30 8691 O 833.46 0.121657 2.71227 0
M  V30 8692 C 831.916 2.68914 2.39193 0
M  V30 8693 C 831.524 4.09069 1.82665 0
M  V30 8694 C 833.268 2.83663 3.1581 0
M  V30 8695 C 831.175 5.16726 2.87661 0
M  V30 8696 H 830.105 0.567869 0.496025 0
M  V30 8697 H 832.756 1.73361 0.60151 0
M  V30 8698 H 831.138 2.41486 3.13848 0
M  V30 8699 H 832.312 4.46364 1.14438 0
M  V30 8700 H 830.627 3.99135 1.1866 0
M  V30 8701 H 833.224 3.61261 3.94201 0
M  V30 8702 H 833.567 1.91804 3.69482 0
M  V30 8703 H 834.1 3.10821 2.48265 0
M  V30 8704 H 830.839 6.10433 2.38854 0
M  V30 8705 H 830.359 4.83957 3.54324 0
M  V30 8706 H 832.038 5.43319 3.51303 0
M  V30 8707 N 832.17 -0.811516 1.35101 0
M  V30 8708 C 833.447 -1.55491 1.18667 0
M  V30 8709 C 833.827 -2.09775 -0.236189 0
M  V30 8710 O 833.175 -1.91989 -1.23905 0
M  V30 8711 C 833.385 -2.66732 2.25067 0
M  V30 8712 C 834.733 -3.35201 2.60625 0
M  V30 8713 O 835.757 -2.76998 2.23943 0
M  V30 8714 O 834.616 -4.40334 3.23679 0
M  V30 8715 H 831.71 -0.686783 0.460716 0
M  V30 8716 H 834.256 -0.851903 1.46768 0
M  V30 8717 H 833.028 -2.24457 3.20523 0
M  V30 8718 H 832.651 -3.44673 1.98208 0
M  V30 8719 N 833.648 -1.19017 -1.03309 0
M  V30 8720 C 834.878 -1.01387 -1.80012 0
M  V30 8721 C 835.286 0.440655 -1.83997 0
M  V30 8722 O 834.629 1.31786 -1.27977 0
M  V30 8723 C 834.691 -1.50171 -3.26633 0
M  V30 8724 C 834.355 -2.98213 -3.46292 0
M  V30 8725 C 835.352 -3.96009 -3.36857 0
M  V30 8726 C 833.037 -3.36812 -3.72643 0
M  V30 8727 C 835.031 -5.30399 -3.5349 0
M  V30 8728 C 832.718 -4.71363 -3.88922 0
M  V30 8729 C 833.716 -5.67966 -3.79347 0
M  V30 8730 O 833.404 -7.00079 -3.95151 0
M  V30 8731 H 833.136 -0.357899 -0.573484 0
M  V30 8732 H 835.69 -1.58171 -1.31039 0
M  V30 8733 H 833.92 -0.877586 -3.7661 0
M  V30 8734 H 835.609 -1.28814 -3.84918 0
M  V30 8735 H 836.375 -3.67534 -3.16455 0
M  V30 8736 H 832.254 -2.62175 -3.7919 0
M  V30 8737 H 835.798 -6.05786 -3.45933 0
M  V30 8738 H 831.695 -4.99536 -4.0882 0
M  V30 8739 H 832.463 -7.07092 -4.12266 0
M  V30 8740 N 835.127 1.22348 -0.993418 0
M  V30 8741 C 836.074 2.24294 -0.544118 0
M  V30 8742 C 837.044 1.60602 0.42381 0
M  V30 8743 O 838.229 1.87952 0.328453 0
M  V30 8744 C 835.369 3.44837 0.134578 0
M  V30 8745 C 834.482 4.23043 -0.875151 0
M  V30 8746 C 833.617 5.30928 -0.169919 0
M  V30 8747 C 832.656 6.00853 -1.16798 0
M  V30 8748 N 831.793 7.00381 -0.491021 0
M  V30 8749 H 836.633 2.6209 -1.4182 0
M  V30 8750 H 834.17 1.2881 -0.710384 0
M  V30 8751 H 836.128 4.13625 0.544998 0
M  V30 8752 H 834.758 3.07804 0.972446 0
M  V30 8753 H 833.81 3.53546 -1.40389 0
M  V30 8754 H 835.122 4.71237 -1.63516 0
M  V30 8755 H 834.276 6.05972 0.297205 0
M  V30 8756 H 833.015 4.8371 0.622586 0
M  V30 8757 H 832.02 5.24591 -1.64573 0
M  V30 8758 H 833.245 6.50159 -1.96137 0
M  V30 8759 H 831.191 6.55393 0.282037 0
M  V30 8760 H 831.108 7.46584 -1.18947 0
M  V30 8761 H 832.376 7.79486 -0.0467169 0
M  V30 8762 N 836.605 0.766683 1.37694 0
M  V30 8763 C 837.833 0.339939 2.04088 0
M  V30 8764 C 838.248 -1.03617 1.57826 0
M  V30 8765 O 837.605 -1.6605 0.757214 0
M  V30 8766 C 837.656 0.368269 3.59619 0
M  V30 8767 O 837.377 1.69009 4.04188 0
M  V30 8768 C 838.878 -0.0707053 4.43244 0
M  V30 8769 H 836.098 0.143189 0.655544 0
M  V30 8770 H 838.642 1.03919 1.76128 0
M  V30 8771 H 836.797 -0.282359 3.8637 0
M  V30 8772 H 837.211 1.62523 4.98685 0
M  V30 8773 H 838.685 0.000273538 5.52 0
M  V30 8774 H 839.162 -1.1204 4.24669 0
M  V30 8775 H 839.768 0.551543 4.21709 0
M  V30 8776 N 838.083 -1.48885 0.516809 0
M  V30 8777 C 839.03 -2.29408 -0.253125 0
M  V30 8778 C 840 -1.36533 -0.945935 0
M  V30 8779 O 841.185 -1.65495 -0.949527 0
M  V30 8780 C 838.325 -3.19592 -1.30211 0
M  V30 8781 C 837.438 -4.27535 -0.61948 0
M  V30 8782 C 836.573 -5.04916 -1.65026 0
M  V30 8783 C 835.612 -6.04677 -0.950368 0
M  V30 8784 N 834.749 -6.75164 -1.92608 0
M  V30 8785 H 839.589 -2.94738 0.439744 0
M  V30 8786 H 837.126 -1.45311 0.2287 0
M  V30 8787 H 839.084 -3.70267 -1.92245 0
M  V30 8788 H 837.714 -2.56213 -1.96353 0
M  V30 8789 H 836.766 -3.80228 0.114505 0
M  V30 8790 H 838.078 -4.98752 -0.0693016 0
M  V30 8791 H 837.232 -5.59539 -2.34523 0
M  V30 8792 H 835.971 -4.33508 -2.23432 0
M  V30 8793 H 834.976 -5.4927 -0.241252 0
M  V30 8794 H 836.201 -6.78077 -0.372599 0
M  V30 8795 H 834.147 -6.06517 -2.49946 0
M  V30 8796 H 834.064 -7.4241 -1.42699 0
M  V30 8797 H 835.332 -7.34384 -2.61345 0
M  V30 8798 N 839.561 -0.251338 -1.55583 0
M  V30 8799 C 840.471 0.656978 -2.25213 0
M  V30 8800 C 841.487 1.18966 -1.26977 0
M  V30 8801 O 842.663 1.22499 -1.59862 0
M  V30 8802 C 839.728 1.83527 -2.94141 0
M  V30 8803 C 838.789 1.34162 -4.07798 0
M  V30 8804 C 838.022 2.46375 -4.73429 0
M  V30 8805 O 838.245 3.65205 -4.38157 0
M  V30 8806 O 837.179 2.15881 -5.61853 0
M  V30 8807 H 841.005 0.0936395 -3.03556 0
M  V30 8808 H 838.59 -0.0196638 -1.49387 0
M  V30 8809 H 840.472 2.52279 -3.3754 0
M  V30 8810 H 839.147 2.38614 -2.18735 0
M  V30 8811 H 838.054 0.621249 -3.68906 0
M  V30 8812 H 839.387 0.836779 -4.85035 0
M  V30 8813 N 841.039 1.57585 0.0217189 0
M  V30 8814 C 842.285 1.89887 0.712099 0
M  V30 8815 C 842.618 0.849971 1.74611 0
M  V30 8816 O 841.893 -0.13407 1.94037 0
M  V30 8817 C 842.176 3.32815 1.37499 0
M  V30 8818 C 842.029 4.48405 0.353993 0
M  V30 8819 C 843.348 3.74786 2.30703 0
M  V30 8820 H 840.467 0.690588 0.257405 0
M  V30 8821 H 843.109 1.89983 -0.0251145 0
M  V30 8822 H 841.259 3.32863 2.00335 0
M  V30 8823 H 842.931 4.60491 -0.273015 0
M  V30 8824 H 841.174 4.32573 -0.32599 0
M  V30 8825 H 841.845 5.45316 0.85644 0
M  V30 8826 H 844.321 3.76151 1.77904 0
M  V30 8827 H 843.197 4.75585 2.74061 0
M  V30 8828 H 843.458 3.07449 3.17691 0
M  V30 8829 N 842.517 -0.29412 1.54831 0
M  V30 8830 C 843.464 -1.36296 1.86258 0
M  V30 8831 C 844.434 -1.50061 0.712097 0
M  V30 8832 O 845.619 -1.64809 0.961381 0
M  V30 8833 C 842.759 -2.72187 2.12151 0
M  V30 8834 C 841.872 -2.66816 3.39755 0
M  V30 8835 C 841.007 -3.94747 3.55455 0
M  V30 8836 C 840.046 -3.838 4.76827 0
M  V30 8837 N 839.183 -5.03521 4.89296 0
M  V30 8838 H 844.023 -1.08796 2.7743 0
M  V30 8839 H 841.56 -0.526069 1.37371 0
M  V30 8840 H 843.518 -3.51225 2.25159 0
M  V30 8841 H 842.148 -2.97934 1.24237 0
M  V30 8842 H 841.2 -1.79605 3.3533 0
M  V30 8843 H 842.512 -2.5462 4.28917 0
M  V30 8844 H 841.666 -4.82223 3.68166 0
M  V30 8845 H 840.405 -4.09785 2.64438 0
M  V30 8846 H 839.41 -2.94708 4.64141 0
M  V30 8847 H 840.635 -3.70301 5.69258 0
M  V30 8848 H 838.581 -5.1901 4.01204 0
M  V30 8849 H 838.498 -4.93775 5.72471 0
M  V30 8850 H 839.766 -5.92629 5.06371 0
M  V30 8851 N 843.995 -1.47404 -0.557645 0
M  V30 8852 C 845.241 -1.54235 -1.31679 0
M  V30 8853 C 845.574 -0.203782 -1.93128 0
M  V30 8854 O 844.849 0.787536 -1.77843 0
M  V30 8855 C 845.132 -2.66003 -2.42723 0
M  V30 8856 C 844.985 -4.09475 -1.86145 0
M  V30 8857 C 846.304 -2.73685 -3.44652 0
M  V30 8858 H 843.423 -0.561466 -0.477415 0
M  V30 8859 H 846.065 -1.79459 -0.624067 0
M  V30 8860 H 844.215 -2.44627 -3.01811 0
M  V30 8861 H 845.887 -4.42213 -1.31321 0
M  V30 8862 H 844.13 -4.17774 -1.16823 0
M  V30 8863 H 844.801 -4.83451 -2.66418 0
M  V30 8864 H 847.277 -2.92968 -2.95481 0
M  V30 8865 H 846.153 -3.53665 -4.19777 0
M  V30 8866 H 846.414 -1.80726 -4.03473 0
M  V30 8867 N 845.473 0.80434 -1.35529 0
M  V30 8868 C 846.383 1.94784 -1.30753 0
M  V30 8869 C 847.399 1.72703 -0.212071 0
M  V30 8870 O 848.575 1.96494 -0.441841 0
M  V30 8871 C 845.64 3.29406 -1.08133 0
M  V30 8872 C 844.701 3.64367 -2.27013 0
M  V30 8873 C 843.934 4.92566 -2.05463 0
M  V30 8874 O 844.157 5.61166 -1.02222 0
M  V30 8875 O 843.091 5.25838 -2.92879 0
M  V30 8876 H 846.917 2.01761 -2.26994 0
M  V30 8877 H 844.502 0.942448 -1.15924 0
M  V30 8878 H 846.384 4.09995 -0.973756 0
M  V30 8879 H 845.059 3.23355 -0.149444 0
M  V30 8880 H 843.966 2.84146 -2.43335 0
M  V30 8881 H 845.299 3.75125 -3.18656 0
M  V30 8882 N 846.951 1.19563 1.02676 0
M  V30 8883 C 848.2 0.993864 1.75514 0
M  V30 8884 C 848.513 -0.475882 1.89723 0
M  V30 8885 O 849.719 -0.796525 2.59553 0
M  V30 8886 C 848.175 1.72937 3.15628 0
M  V30 8887 C 847.783 3.23937 3.09466 0
M  V30 8888 C 849.527 1.61092 3.92746 0
M  V30 8889 C 847.434 3.90067 4.44524 0
M  V30 8890 H 846.364 0.368244 0.657961 0
M  V30 8891 H 849.015 1.43081 1.14891 0
M  V30 8892 H 847.397 1.22025 3.76731 0
M  V30 8893 H 848.571 3.81983 2.57731 0
M  V30 8894 H 846.886 3.3608 2.45843 0
M  V30 8895 H 849.483 2.07848 4.92649 0
M  V30 8896 H 849.826 0.565415 4.12442 0
M  V30 8897 H 850.359 2.09361 3.3825 0
M  V30 8898 H 847.098 4.94725 4.30032 0
M  V30 8899 H 846.618 3.36809 4.96306 0
M  V30 8900 H 848.297 3.93736 5.13401 0
M  V30 8901 N 848.429 -1.21819 0.999893 0
M  V30 8902 C 849.706 -1.86318 0.595384 0
M  V30 8903 C 850.086 -1.8965 -0.927143 0
M  V30 8904 O 849.434 -1.3921 -1.81199 0
M  V30 8905 C 849.644 -3.26837 1.22387 0
M  V30 8906 C 850.992 -4.03272 1.32878 0
M  V30 8907 O 852.016 -3.36129 1.1788 0
M  V30 8908 O 850.875 -5.23477 1.56952 0
M  V30 8909 H 847.969 -0.801638 0.203238 0
M  V30 8910 H 850.515 -1.29542 1.09622 0
M  V30 8911 H 849.287 -3.19084 2.26497 0
M  V30 8912 H 848.91 -3.91226 0.709069 0
M  V30 8913 N 849.908 -0.773975 -1.37286 0
M  V30 8914 C 851.154 -0.339809 -1.99933 0
M  V30 8915 C 851.487 1.0815 -1.61299 0
M  V30 8916 O 850.762 1.74442 -0.860252 0
M  V30 8917 C 851.045 -0.485919 -3.56806 0
M  V30 8918 C 850.898 -1.9498 -4.05343 0
M  V30 8919 C 852.217 0.108461 -4.39966 0
M  V30 8920 H 849.336 -0.124944 -0.726332 0
M  V30 8921 H 851.978 -0.977433 -1.6293 0
M  V30 8922 H 850.128 0.0569023 -3.88458 0
M  V30 8923 H 851.8 -2.5525 -3.84246 0
M  V30 8924 H 850.043 -2.45784 -3.57453 0
M  V30 8925 H 850.714 -2.00308 -5.14374 0
M  V30 8926 H 853.19 -0.354722 -4.14585 0
M  V30 8927 H 852.066 -0.0238926 -5.48895 0
M  V30 8928 H 852.327 1.19901 -4.25531 0
M  V30 8929 N 851.386 1.48609 -0.524698 0
M  V30 8930 C 852.316 2.32366 0.229837 0
M  V30 8931 C 853.297 1.41759 0.940129 0
M  V30 8932 O 854.482 1.7065 0.926936 0
M  V30 8933 C 851.612 3.22835 1.28043 0
M  V30 8934 C 850.566 4.22424 0.688603 0
M  V30 8935 C 849.892 5.0199 1.84146 0
M  V30 8936 C 851.192 5.21217 -0.336176 0
M  V30 8937 H 852.886 2.95698 -0.469339 0
M  V30 8938 H 850.432 1.42197 -0.227156 0
M  V30 8939 H 852.385 3.80253 1.8162 0
M  V30 8940 H 851.109 2.57492 2.00912 0
M  V30 8941 H 849.768 3.66185 0.174402 0
M  V30 8942 H 849.416 4.33076 2.5584 0
M  V30 8943 H 849.116 5.69392 1.45142 0
M  V30 8944 H 850.64 5.62259 2.38111 0
M  V30 8945 H 852.054 5.7319 0.112307 0
M  V30 8946 H 850.451 5.96642 -0.643324 0
M  V30 8947 H 851.521 4.68676 -1.24381 0
M  V30 8948 N 852.864 0.259585 1.55447 0
M  V30 8949 C 854.089 -0.368317 2.04103 0
M  V30 8950 C 854.514 -1.49827 1.13725 0
M  V30 8951 O 853.872 -1.80814 0.132705 0
M  V30 8952 C 853.92 -0.841506 3.50644 0
M  V30 8953 O 853.024 -1.95008 3.63381 0
M  V30 8954 H 852.365 -0.0785227 0.659341 0
M  V30 8955 H 854.895 0.389349 2.00861 0
M  V30 8956 H 854.905 -1.14138 3.9171 0
M  V30 8957 H 853.58 -0.0147001 4.15897 0
M  V30 8958 H 852.157 -1.65393 3.34215 0
M  V30 8959 N 854.342 -1.57594 -0.0133615 0
M  V30 8960 C 855.619 -1.81173 -0.737273 0
M  V30 8961 C 855.999 -0.861395 -1.92726 0
M  V30 8962 O 855.347 0.0929324 -2.28311 0
M  V30 8963 C 855.557 -3.29314 -1.15557 0
M  V30 8964 C 856.905 -3.94707 -1.56498 0
M  V30 8965 O 857.929 -3.33557 -1.24973 0
M  V30 8966 O 856.788 -5.02402 -2.15069 0
M  V30 8967 H 853.882 -0.745575 -0.357837 0
M  V30 8968 H 856.428 -1.69696 0.0110674 0
M  V30 8969 H 855.2 -3.90096 -0.30677 0
M  V30 8970 H 854.823 -3.45739 -1.96343 0
M  V30 8971 N 855.82 0.285905 -1.54985 0
M  V30 8972 C 856.767 1.35306 -1.86978 0
M  V30 8973 C 857.737 1.49682 -0.720046 0
M  V30 8974 O 858.922 1.64297 -0.970107 0
M  V30 8975 C 856.062 2.71059 -2.13591 0
M  V30 8976 C 855.175 2.6501 -3.41165 0
M  V30 8977 C 854.31 3.92856 -3.57544 0
M  V30 8978 C 853.349 3.81266 -4.78855 0
M  V30 8979 N 852.486 5.00919 -4.9196 0
M  V30 8980 H 857.326 1.07323 -2.78003 0
M  V30 8981 H 854.863 0.518776 -1.37649 0
M  V30 8982 H 856.821 3.50026 -2.27019 0
M  V30 8983 H 855.451 2.97271 -1.25816 0
M  V30 8984 H 854.503 1.77824 -3.36278 0
M  V30 8985 H 855.815 2.52342 -4.30262 0
M  V30 8986 H 854.969 4.80263 -3.70718 0
M  V30 8987 H 853.708 4.08377 -2.66608 0
M  V30 8988 H 852.713 2.92243 -4.65698 0
M  V30 8989 H 853.938 3.67277 -5.71213 0
M  V30 8990 H 851.884 5.16875 -4.03951 0
M  V30 8991 H 851.801 4.90732 -5.75081 0
M  V30 8992 H 853.069 5.89935 -5.09507 0
M  V30 8993 N 857.298 1.47698 0.54982 0
M  V30 8994 C 858.709 1.48474 1.13191 0
M  V30 8995 C 859.06 0.243504 1.94683 0
M  V30 8996 O 858.185 -0.651009 2.06375 0
M  V30 8997 C 858.78 2.69022 2.05944 0
M  V30 8998 C 857.339 2.72733 2.5941 0
M  V30 8999 C 856.486 2.41691 1.35944 0
M  V30 9000 H 859.437 1.55101 0.336048 0
M  V30 9001 H 859.458 2.46412 2.89934 0
M  V30 9002 H 858.97 3.59345 1.46605 0
M  V30 9003 H 857.071 1.86568 3.22526 0
M  V30 9004 H 857.184 3.73628 2.99899 0
M  V30 9005 H 855.548 1.92428 1.66864 0
M  V30 9006 H 856.331 3.34231 0.783869 0
M  V30 9007 N 858.776 -0.797141 1.35954 0
M  V30 9008 C 859.724 -1.93084 1.29697 0
M  V30 9009 C 860.718 -1.68329 0.190152 0
M  V30 9010 O 861.924 -1.7643 0.3567 0
M  V30 9011 H 858.299 -0.634531 0.403577 0
M  V30 9012 H 860.27 -1.95481 2.25455 0
M  V30 9013 C 859.019 -3.29996 1.09536 0
M  V30 9014 H 858.342 -3.49607 1.93946 0
M  V30 9015 H 859.782 -4.09696 1.09202 0
M  V30 9016 C 858.241 -3.36304 -0.200381 0
M  V30 9017 O 858.771 -3.83579 -1.19291 0
M  V30 9018 N 856.977 -2.89587 -0.242406 0
M  V30 9019 H 856.524 -2.51307 0.565897 0
M  V30 9020 H 856.482 -2.94189 -1.10906 0
M  V30 9021 N 860.254 -1.20106 -1.0204 0
M  V30 9022 C 861.186 -0.904236 -2.10609 0
M  V30 9023 C 862.199 0.106487 -1.62451 0
M  V30 9024 O 863.388 -0.124035 -1.78069 0
M  V30 9025 C 860.488 -0.333423 -3.37256 0
M  V30 9026 C 859.661 -1.39476 -4.14566 0
M  V30 9027 C 858.72 -0.835961 -5.19517 0
M  V30 9028 O 857.746 -1.51573 -5.48648 0
M  V30 9029 N 858.948 0.356531 -5.79404 0
M  V30 9030 H 861.713 -1.8388 -2.36661 0
M  V30 9031 H 859.274 -1.10422 -1.184 0
M  V30 9032 H 861.266 0.0544571 -4.04663 0
M  V30 9033 H 859.836 0.505608 -3.08484 0
M  V30 9034 H 859.056 -1.95714 -3.42184 0
M  V30 9035 H 860.344 -2.10967 -4.63001 0
M  V30 9036 H 859.742 0.926143 -5.58067 0
M  V30 9037 H 858.299 0.686093 -6.48179 0
M  V30 9038 N 861.732 1.21287 -1.00634 0
M  V30 9039 C 862.96 1.94385 -0.708678 0
M  V30 9040 C 863.375 1.7416 0.728957 0
M  V30 9041 O 862.732 1.04906 1.49335 0
M  V30 9042 C 862.783 3.46755 -1.02193 0
M  V30 9043 O 862.504 3.6631 -2.40309 0
M  V30 9044 C 864.005 4.37014 -0.743867 0
M  V30 9045 H 861.225 0.618136 -0.261052 0
M  V30 9046 H 863.769 1.54067 -1.34475 0
M  V30 9047 H 861.924 3.8499 -0.431441 0
M  V30 9048 H 862.338 4.60393 -2.51274 0
M  V30 9049 H 863.812 5.42621 -1.01321 0
M  V30 9050 H 864.289 4.38017 0.322084 0
M  V30 9051 H 864.895 4.04426 -1.31603 0
M  V30 9052 N 863.21 0.781244 1.36873 0
M  V30 9053 C 864.16 0.147313 2.27524 0
M  V30 9054 C 865.144 -0.663928 1.46563 0
M  V30 9055 O 866.336 -0.525343 1.69024 0
M  V30 9056 C 863.465 -0.723511 3.35589 0
M  V30 9057 C 862.551 0.0960763 4.23991 0
M  V30 9058 N 862.942 1.14649 4.92635 0
M  V30 9059 C 861.24 -0.126397 4.45821 0
M  V30 9060 C 861.941 1.64474 5.57964 0
M  V30 9061 N 860.917 0.955316 5.3514 0
M  V30 9062 H 864.719 0.951406 2.78075 0
M  V30 9063 H 862.233 0.619913 1.50103 0
M  V30 9064 H 864.23 -1.19351 3.99451 0
M  V30 9065 H 862.89 -1.52624 2.86594 0
M  V30 9066 H 863.901 1.5288 4.94821 0
M  V30 9067 H 860.578 -0.900284 4.07678 0
M  V30 9068 H 861.968 2.52124 6.22803 0
M  V30 9069 N 864.689 -1.48329 0.532571 0
M  V30 9070 C 865.919 -2.066 0.00353785 0
M  V30 9071 C 866.327 -1.38913 -1.28451 0
M  V30 9072 O 865.67 -0.471385 -1.77549 0
M  V30 9073 C 865.732 -3.58342 -0.288324 0
M  V30 9074 C 865.396 -4.47917 0.906631 0
M  V30 9075 C 866.393 -4.87534 1.80572 0
M  V30 9076 C 864.078 -4.89783 1.11436 0
M  V30 9077 C 866.072 -5.6779 2.89642 0
M  V30 9078 C 863.759 -5.69809 2.20819 0
M  V30 9079 C 864.757 -6.08721 3.09755 0
M  V30 9080 O 864.445 -6.8714 4.17246 0
M  V30 9081 H 864.177 -0.675263 0.0315661 0
M  V30 9082 H 866.731 -1.91669 0.738375 0
M  V30 9083 H 864.961 -3.71395 -1.07717 0
M  V30 9084 H 866.65 -3.98726 -0.759752 0
M  V30 9085 H 867.416 -4.5581 1.65719 0
M  V30 9086 H 863.295 -4.58977 0.431382 0
M  V30 9087 H 866.839 -5.98082 3.59087 0
M  V30 9088 H 862.736 -6.00947 2.35655 0
M  V30 9089 H 863.504 -7.05498 4.14988 0
M  V30 9090 N 866.167 -0.267825 -1.55308 0
M  V30 9091 C 867.583 0.0865107 -1.59365 0
M  V30 9092 C 867.783 1.55205 -1.28505 0
M  V30 9093 O 866.839 2.29978 -1.04241 0
M  V30 9094 C 868.152 -0.28155 -2.99379 0
M  V30 9095 C 869.7 -0.227565 -3.12172 0
M  V30 9096 C 870.175 -0.569959 -4.5444 0
M  V30 9097 N 871.666 -0.521238 -4.60258 0
M  V30 9098 C 872.401 -0.759061 -5.68354 0
M  V30 9099 N 871.897 -1.06112 -6.84626 0
M  V30 9100 N 873.69 -0.688351 -5.57869 0
M  V30 9101 H 865.841 -1.22332 -1.73633 0
M  V30 9102 H 868.104 -0.493703 -0.809297 0
M  V30 9103 H 867.81 -1.3005 -3.26772 0
M  V30 9104 H 867.684 0.381192 -3.75269 0
M  V30 9105 H 870.071 0.782093 -2.84548 0
M  V30 9106 H 870.152 -0.924461 -2.38511 0
M  V30 9107 H 869.796 -1.57727 -4.82788 0
M  V30 9108 H 869.726 0.148646 -5.2639 0
M  V30 9109 H 872.217 -0.297359 -3.76728 0
M  V30 9110 H 872.53 -1.22945 -7.62958 0
M  V30 9111 H 870.875 -1.09881 -6.86259 0
M  V30 9112 H 874.066 -0.452268 -4.6591 0
M  V30 9113 H 874.239 -0.877081 -6.42037 0
M  V30 9114 N 867.645 1.57599 0.00500368 0
M  V30 9115 C 868.608 2.07058 0.982832 0
M  V30 9116 C 869.608 0.979045 1.27559 0
M  V30 9117 O 870.798 1.24187 1.22161 0
M  V30 9118 C 867.93 2.50782 2.30914 0
M  V30 9119 H 869.123 2.94718 0.555119 0
M  V30 9120 H 866.676 1.54249 0.25237 0
M  V30 9121 H 867.411 1.66351 2.78385 0
M  V30 9122 H 867.196 3.30495 2.10987 0
M  V30 9123 H 868.686 2.89391 3.0107 0
M  V30 9124 N 869.123 -0.277682 1.55134 0
M  V30 9125 C 870.053 -1.34742 1.90701 0
M  V30 9126 C 871.034 -1.51757 0.768354 0
M  V30 9127 O 872.219 -1.64879 1.02609 0
M  V30 9128 C 869.349 -2.70775 2.17481 0
M  V30 9129 C 868.303 -2.68497 3.33307 0
M  V30 9130 C 867.629 -4.08037 3.45557 0
M  V30 9131 C 868.929 -2.28178 4.69821 0
M  V30 9132 H 870.623 -1.05224 2.803 0
M  V30 9133 H 868.169 -0.504738 1.34864 0
M  V30 9134 H 870.122 -3.45719 2.40949 0
M  V30 9135 H 868.846 -3.01867 1.24676 0
M  V30 9136 H 867.505 -1.9601 3.09799 0
M  V30 9137 H 867.153 -4.36344 2.50226 0
M  V30 9138 H 866.853 -4.07409 4.23429 0
M  V30 9139 H 868.377 -4.84726 3.71312 0
M  V30 9140 H 869.791 -2.92843 4.92865 0
M  V30 9141 H 868.188 -2.3872 5.50575 0
M  V30 9142 H 869.258 -1.23308 4.6896 0
M  V30 9143 N 870.601 -1.47988 -0.541979 0
M  V30 9144 C 871.531 -1.64503 -1.65713 0
M  V30 9145 C 872.512 -0.494116 -1.62765 0
M  V30 9146 O 873.697 -0.725256 -1.80149 0
M  V30 9147 C 870.827 -1.67337 -3.04328 0
M  V30 9148 C 869.781 -2.81809 -3.2213 0
M  V30 9149 C 869.107 -2.69724 -4.61685 0
M  V30 9150 C 870.407 -4.23241 -3.06046 0
M  V30 9151 H 872.101 -2.5786 -1.52147 0
M  V30 9152 H 869.647 -1.24094 -0.730529 0
M  V30 9153 H 871.6 -1.77481 -3.82202 0
M  V30 9154 H 870.324 -0.705514 -3.18889 0
M  V30 9155 H 868.983 -2.71201 -2.46669 0
M  V30 9156 H 868.631 -1.70934 -4.73065 0
M  V30 9157 H 868.331 -3.4653 -4.74543 0
M  V30 9158 H 869.855 -2.81818 -5.41674 0
M  V30 9159 H 871.269 -4.34746 -3.73723 0
M  V30 9160 H 869.666 -5.00952 -3.30405 0
M  V30 9161 H 870.736 -4.40543 -2.02609 0
M  V30 9162 N 872.079 0.78992 -1.36375 0
M  V30 9163 C 873.325 1.55007 -1.3077 0
M  V30 9164 C 873.658 1.93871 0.112979 0
M  V30 9165 O 872.933 1.6267 1.06625 0
M  V30 9166 C 873.216 2.82748 -2.22993 0
M  V30 9167 C 873.069 2.50253 -3.73756 0
M  V30 9168 C 874.388 3.84569 -2.13998 0
M  V30 9169 H 871.507 0.562362 -0.476359 0
M  V30 9170 H 874.149 0.907582 -1.66922 0
M  V30 9171 H 872.299 3.37573 -1.92292 0
M  V30 9172 H 873.971 2.01482 -4.14973 0
M  V30 9173 H 872.214 1.83203 -3.93216 0
M  V30 9174 H 872.885 3.41487 -4.33694 0
M  V30 9175 H 875.361 3.39188 -2.4102 0
M  V30 9176 H 874.237 4.717 -2.80697 0
M  V30 9177 H 874.498 4.27491 -1.12711 0
M  V30 9178 N 873.557 1.20646 1.01402 0
M  V30 9179 C 874.973 0.961866 1.27359 0
M  V30 9180 C 875.173 -0.357083 1.98311 0
M  V30 9181 O 874.229 -1.08498 2.28001 0
M  V30 9182 C 875.542 2.14627 2.10609 0
M  V30 9183 C 877.09 2.18753 2.23866 0
M  V30 9184 C 877.565 3.36686 3.10494 0
M  V30 9185 N 879.056 3.36716 3.18083 0
M  V30 9186 C 879.791 4.24615 3.85343 0
M  V30 9187 N 879.287 5.22697 4.54708 0
M  V30 9188 N 881.08 4.12449 3.81893 0
M  V30 9189 H 873.231 2.05481 0.537721 0
M  V30 9190 H 875.494 0.899292 0.299963 0
M  V30 9191 H 875.2 3.10159 1.65814 0
M  V30 9192 H 875.074 2.12935 3.11349 0
M  V30 9193 H 877.461 1.23782 2.67885 0
M  V30 9194 H 877.542 2.24492 1.22626 0
M  V30 9195 H 877.186 4.31945 2.67181 0
M  V30 9196 H 877.116 3.28185 4.11828 0
M  V30 9197 H 879.607 2.65728 2.68695 0
M  V30 9198 H 879.92 5.86087 5.03708 0
M  V30 9199 H 878.265 5.26631 4.53525 0
M  V30 9200 H 881.456 3.35091 3.26851 0
M  V30 9201 H 881.629 4.81162 4.34035 0
M  V30 9202 N 875.035 -1.20752 1.01276 0
M  V30 9203 C 876.446 -1.7175 0.732033 0
M  V30 9204 C 876.797 -1.8131 -0.749733 0
M  V30 9205 O 875.922 -1.47301 -1.58529 0
M  V30 9206 C 876.517 -3.11936 1.32217 0
M  V30 9207 C 875.076 -3.6026 1.09039 0
M  V30 9208 C 874.223 -2.37571 1.43022 0
M  V30 9209 H 877.174 -1.0582 1.1827 0
M  V30 9210 H 877.195 -3.73802 0.710771 0
M  V30 9211 H 876.707 -3.04946 2.40061 0
M  V30 9212 H 874.808 -3.72588 0.0294464 0
M  V30 9213 H 874.921 -4.45295 1.76775 0
M  V30 9214 H 873.285 -2.40128 0.849159 0
M  V30 9215 H 874.068 -2.33225 2.51915 0
M  V30 9216 N 876.513 -0.788492 -1.36457 0
M  V30 9217 C 877.445 -0.144208 -2.28746 0
M  V30 9218 C 878.458 0.646009 -1.49434 0
M  V30 9219 O 879.647 0.481344 -1.71888 0
M  V30 9220 C 876.747 0.818869 -3.28858 0
M  V30 9221 C 875.92 0.0789055 -4.37329 0
M  V30 9222 C 874.979 0.957791 -5.1741 0
M  V30 9223 O 874.005 0.415378 -5.67682 0
M  V30 9224 N 875.207 2.28216 -5.33758 0
M  V30 9225 H 877.972 -0.936949 -2.84678 0
M  V30 9226 H 875.533 -0.642317 -1.48613 0
M  V30 9227 H 877.525 1.41065 -3.79319 0
M  V30 9228 H 876.095 1.51249 -2.73573 0
M  V30 9229 H 875.315 -0.693939 -3.88044 0
M  V30 9230 H 876.603 -0.431753 -5.06965 0
M  V30 9231 H 876.001 2.747 -4.94527 0
M  V30 9232 H 874.558 2.8236 -5.87466 0
M  V30 9233 N 877.991 1.48044 -0.54043 0
M  V30 9234 C 878.923 2.2779 0.253854 0
M  V30 9235 C 879.936 1.35999 0.894883 0
M  V30 9236 O 881.125 1.60963 0.771563 0
M  V30 9237 C 878.225 3.09724 1.37566 0
M  V30 9238 C 877.398 4.29364 0.83459 0
M  V30 9239 C 876.457 4.93026 1.83881 0
M  V30 9240 O 875.483 5.51927 1.39159 0
M  V30 9241 N 876.685 4.86207 3.17149 0
M  V30 9242 H 879.45 2.96597 -0.430125 0
M  V30 9243 H 877.011 1.57487 -0.375423 0
M  V30 9244 H 879.003 3.49181 2.04584 0
M  V30 9245 H 877.573 2.43269 1.96314 0
M  V30 9246 H 876.793 3.94198 -0.0118878 0
M  V30 9247 H 878.081 5.06787 0.452155 0
M  V30 9248 H 877.479 4.39523 3.56141 0
M  V30 9249 H 876.036 5.29733 3.79771 0
M  V30 9250 N 879.47 0.276058 1.55163 0
M  V30 9251 C 880.403 -0.652386 2.18676 0
M  V30 9252 C 881.381 -1.15151 1.148 0
M  V30 9253 O 882.565 -1.22431 1.43328 0
M  V30 9254 C 879.692 -1.88982 2.81076 0
M  V30 9255 C 878.738 -1.52609 3.98262 0
M  V30 9256 S 879.571 -0.603445 5.32089 0
M  V30 9257 C 880.727 -1.84923 5.97958 0
M  V30 9258 H 880.96 -0.112733 2.97086 0
M  V30 9259 H 878.493 0.0603118 1.54282 0
M  V30 9260 H 880.451 -2.60007 3.17658 0
M  V30 9261 H 879.112 -2.40061 2.02557 0
M  V30 9262 H 878.305 -2.44689 4.40617 0
M  V30 9263 H 877.907 -0.89601 3.63108 0
M  V30 9264 H 880.199 -2.79303 6.17249 0
M  V30 9265 H 881.142 -1.46868 6.92702 0
M  V30 9266 H 881.55 -2.0146 5.27327 0
M  V30 9267 N 880.948 -1.576 0.00335426 0
M  V30 9268 C 882.195 -1.90713 -0.680791 0
M  V30 9269 C 882.523 -0.877263 -1.73592 0
M  V30 9270 O 881.778 0.117497 -1.95347 0
M  V30 9271 C 882.077 -3.3058 -1.35837 0
M  V30 9272 C 881.743 -4.48786 -0.436111 0
M  V30 9273 C 880.405 -4.80855 -0.182195 0
M  V30 9274 C 882.757 -5.20821 0.198677 0
M  V30 9275 C 880.085 -5.8233 0.714747 0
M  V30 9276 C 882.437 -6.23252 1.08351 0
M  V30 9277 C 881.101 -6.53776 1.34658 0
M  V30 9278 H 880.371 -0.697869 -0.249119 0
M  V30 9279 H 883.018 -1.91407 0.0596011 0
M  V30 9280 H 881.323 -3.26026 -2.17289 0
M  V30 9281 H 883.02 -3.53462 -1.89383 0
M  V30 9282 H 879.61 -4.23731 -0.644186 0
M  V30 9283 H 883.794 -4.96298 0.0155259 0
M  V30 9284 H 879.05 -6.04339 0.926529 0
M  V30 9285 H 883.224 -6.78199 1.58172 0
M  V30 9286 H 880.851 -7.32225 2.04328 0
M  V30 9287 N 882.426 0.269451 -1.5528 0
M  V30 9288 C 883.373 1.33316 -1.88403 0
M  V30 9289 C 884.343 1.48909 -0.735881 0
M  V30 9290 O 885.528 1.63259 -0.987479 0
M  V30 9291 C 882.668 2.68778 -2.16454 0
M  V30 9292 C 881.781 2.61377 -3.43956 0
M  V30 9293 C 880.916 3.89042 -3.6169 0
M  V30 9294 C 879.955 3.76166 -4.82872 0
M  V30 9295 N 879.092 4.95673 -4.97245 0
M  V30 9296 H 883.932 1.04368 -2.79126 0
M  V30 9297 H 881.469 0.504147 -1.38191 0
M  V30 9298 H 883.427 3.47599 -2.30719 0
M  V30 9299 H 882.057 2.9592 -1.28961 0
M  V30 9300 H 881.109 1.74247 -3.38145 0
M  V30 9301 H 882.421 2.47764 -4.32914 0
M  V30 9302 H 881.575 4.76304 -3.75791 0
M  V30 9303 H 880.314 4.05526 -2.70924 0
M  V30 9304 H 879.319 2.87287 -4.68771 0
M  V30 9305 H 880.544 3.61198 -5.75077 0
M  V30 9306 H 878.49 5.12561 -4.09411 0
M  V30 9307 H 878.407 4.84605 -5.80254 0
M  V30 9308 H 879.675 5.84498 -5.15735 0
M  V30 9309 O 883.943 1.56071 0.415215 0
M  V30 9310 H 884.634 1.61595 1.06803 0
M  V30 END ATOM
M  V30 BEGIN BOND
M  V30 END BOND
M  V30 END CTAB
M  END
$$$$
