drugbank_target|P08684 Cytochrome P450 3A4 (DB00143; DB00951; DB05478; DB06634)
 OpenBabel12092120233D

  0  0  0     0  0            999 V3000
M  V30 BEGIN CTAB
M  V30 COUNTS 8165 8263 0 0 0
M  V30 BEGIN ATOM
M  V30 1 H -0.908 1.98254 -0.117106 0
M  V30 2 N 0 1.576 0 0
M  V30 3 C 0.933 2.03868 1.02534 0
M  V30 4 C 1.911 0.928543 1.3348 0
M  V30 5 O 3.095 1.19667 1.45644 0
M  V30 6 C 0.222 2.43627 2.35294 0
M  V30 7 C -0.732 3.65373 2.2001 0
M  V30 8 S 0.101 5.13292 1.52614 0
M  V30 9 C 1.257 5.56322 2.86805 0
M  V30 10 H 1.49 2.90518 0.631377 0
M  V30 11 H -0.977 1.52953 0.210867 0
M  V30 12 H 0.981 2.67203 3.11629 0
M  V30 13 H -0.358 1.57376 2.7183 0
M  V30 14 H -1.165 3.90944 3.18086 0
M  V30 15 H -1.563 3.418 1.51819 0
M  V30 16 H 0.729 5.58782 3.83104 0
M  V30 17 H 1.672 6.56266 2.65933 0
M  V30 18 H 2.08 4.83886 2.90714 0
M  V30 19 N 1.4781 -0.272755 1.55222 0
M  V30 20 C 2.4411 -1.32041 1.87344 0
M  V30 21 C 3.4411 -1.42342 0.74803 0
M  V30 22 O 4.6311 -1.41488 1.0162 0
M  V30 23 C 1.7631 -2.70173 2.07893 0
M  V30 24 H 2.9561 -1.04789 2.80997 0
M  V30 25 H 0.5091 -0.51083 1.47717 0
M  V30 26 H 1.2441 -3.02605 1.16622 0
M  V30 27 H 1.0291 -2.64082 2.89833 0
M  V30 28 H 2.5191 -3.45869 2.34017 0
M  V30 29 N 2.9562 -1.48159 -0.537278 0
M  V30 30 C 3.8862 -1.65029 -1.6519 0
M  V30 31 C 4.8672 -0.499281 -1.62607 0
M  V30 32 O 6.0522 -0.730972 -1.79918 0
M  V30 33 C 3.1822 -1.68303 -3.03795 0
M  V30 34 C 2.1362 -2.8283 -3.21234 0
M  V30 35 C 1.4622 -2.71189 -4.60826 0
M  V30 36 C 2.7622 -4.24211 -3.04701 0
M  V30 37 H 4.4562 -2.58341 -1.51328 0
M  V30 38 H 2.0022 -1.24325 -0.726585 0
M  V30 39 H 3.9552 -1.78693 -3.81637 0
M  V30 40 H 2.6792 -0.715635 -3.18663 0
M  V30 41 H 1.3382 -2.71983 -2.45807 0
M  V30 42 H 0.9862 -1.72435 -4.7252 0
M  V30 43 H 0.6862 -3.48035 -4.7344 0
M  V30 44 H 2.2102 -2.83537 -5.40777 0
M  V30 45 H 3.6242 -4.3593 -3.72341 0
M  V30 46 H 2.0212 -5.01998 -3.28813 0
M  V30 47 H 3.0912 -4.41184 -2.01209 0
M  V30 48 N 4.4343 0.785586 -1.36625 0
M  V30 49 C 5.6833 1.53883 -1.30396 0
M  V30 50 C 5.9963 1.95271 0.113452 0
M  V30 51 O 7.2023 2.69858 0.298142 0
M  V30 52 C 5.6583 2.77808 -2.28802 0
M  V30 53 C 5.2663 2.43574 -3.75999 0
M  V30 54 C 7.0103 3.55783 -2.31558 0
M  V30 55 C 4.9173 3.63919 -4.66173 0
M  V30 56 H 3.8473 0.577678 -0.484566 0
M  V30 57 H 6.4983 0.861705 -1.62009 0
M  V30 58 H 4.8803 3.47339 -1.90188 0
M  V30 59 H 6.0543 1.81916 -4.23371 0
M  V30 60 H 4.3693 1.78803 -3.76056 0
M  V30 61 H 6.9663 4.45205 -2.96137 0
M  V30 62 H 7.3093 3.94644 -1.3252 0
M  V30 63 H 7.8423 2.93235 -2.68809 0
M  V30 64 H 4.5813 3.3015 -5.66287 0
M  V30 65 H 4.1013 4.2473 -4.23515 0
M  V30 66 H 5.7803 4.30901 -4.82632 0
M  V30 67 N 5.9124 1.20967 1.01018 0
M  V30 68 C 7.3234 1.02319 1.56165 0
M  V30 69 C 7.6744 -0.418546 1.91684 0
M  V30 70 O 6.7994 -1.30096 1.72928 0
M  V30 71 C 7.3944 1.85109 2.8376 0
M  V30 72 C 5.9534 1.70809 3.35412 0
M  V30 73 C 5.1004 1.82643 2.08655 0
M  V30 74 H 8.0514 1.35065 0.833255 0
M  V30 75 H 8.0724 1.35827 3.55431 0
M  V30 76 H 7.5844 2.90035 2.57878 0
M  V30 77 H 5.6854 0.685464 3.66241 0
M  V30 78 H 5.7984 2.52467 4.07182 0
M  V30 79 H 4.1624 1.25896 2.21409 0
M  V30 80 H 4.9454 2.89066 1.85191 0
M  V30 81 N 7.3905 -1.2043 1.01659 0
M  V30 82 C 8.6675 -1.8548 0.621004 0
M  V30 83 C 9.0475 -1.9091 -0.900919 0
M  V30 84 O 8.3955 -1.41694 -1.79263 0
M  V30 85 C 8.6055 -3.25119 1.2688 0
M  V30 86 C 9.9535 -4.01403 1.38423 0
M  V30 87 O 10.9775 -3.34473 1.22501 0
M  V30 88 O 9.8365 -5.21265 1.64151 0
M  V30 89 H 6.9305 -0.798761 0.214266 0
M  V30 90 H 9.4765 -1.28019 1.11396 0
M  V30 91 H 8.2485 -3.15932 2.30873 0
M  V30 92 H 7.8715 -3.90212 0.762917 0
M  V30 93 N 8.8686 -0.792821 -1.36206 0
M  V30 94 C 9.7986 -0.207853 -2.32573 0
M  V30 95 C 10.7796 0.659055 -1.56813 0
M  V30 96 O 11.9646 0.592176 -1.84951 0
M  V30 97 C 9.0946 0.655449 -3.41059 0
M  V30 98 C 8.0486 -0.111842 -4.27854 0
M  V30 99 C 7.3746 0.872274 -5.27537 0
M  V30 100 C 8.6746 -1.30299 -5.05786 0
M  V30 101 H 10.3686 -1.01294 -2.81744 0
M  V30 102 H 7.9146 -0.48854 -1.3546 0
M  V30 103 H 9.8676 1.07464 -4.07467 0
M  V30 104 H 8.5916 1.49328 -2.90463 0
M  V30 105 H 7.2506 -0.512053 -3.63006 0
M  V30 106 H 6.8986 1.70523 -4.73214 0
M  V30 107 H 6.5986 0.363291 -5.86476 0
M  V30 108 H 8.1226 1.28996 -5.96818 0
M  V30 109 H 9.5366 -0.959379 -5.65216 0
M  V30 110 H 7.9336 -1.7455 -5.74154 0
M  V30 111 H 9.0036 -2.09663 -4.37229 0
M  V30 112 N 10.3467 1.47872 -0.545128 0
M  V30 113 C 11.3097 2.28337 0.198717 0
M  V30 114 C 12.3097 1.36255 0.853888 0
M  V30 115 O 13.4997 1.59003 0.711606 0
M  V30 116 C 10.6317 3.15585 1.28915 0
M  V30 117 H 11.8247 2.95567 -0.507941 0
M  V30 118 H 9.3777 1.53362 -0.301616 0
M  V30 119 H 10.1127 2.53019 2.02859 0
M  V30 120 H 9.8977 3.83337 0.824309 0
M  V30 121 H 11.3877 3.76243 1.81194 0
M  V30 122 N 11.8248 0.280983 1.55075 0
M  V30 123 C 12.7578 -0.645439 2.18882 0
M  V30 124 C 13.7358 -1.14786 1.15165 0
M  V30 125 O 14.9198 -1.21975 1.43716 0
M  V30 126 C 12.0468 -1.88088 2.81674 0
M  V30 127 C 11.0928 -1.51343 3.98745 0
M  V30 128 S 11.9258 -0.586548 5.32278 0
M  V30 129 C 13.0818 -1.83024 5.98543 0
M  V30 130 H 13.3148 -0.1033 2.9712 0
M  V30 131 H 10.8478 0.0652099 1.54262 0
M  V30 132 H 12.8058 -2.58997 3.18482 0
M  V30 133 H 11.4668 -2.39417 2.03318 0
M  V30 134 H 10.6598 -2.43289 4.41392 0
M  V30 135 H 10.2618 -0.884477 3.63391 0
M  V30 136 H 12.5538 -2.77342 6.18133 0
M  V30 137 H 13.4968 -1.44668 6.93164 0
M  V30 138 H 13.9048 -1.99785 5.27964 0
M  V30 139 N 13.3029 -1.57598 0.00835791 0
M  V30 140 C 14.2129 -2.12385 -0.996487 0
M  V30 141 C 15.2289 -1.07108 -1.37127 0
M  V30 142 O 16.4049 -1.39055 -1.4569 0
M  V30 143 C 13.4699 -2.62314 -2.26699 0
M  V30 144 C 12.5309 -3.82225 -1.95456 0
M  V30 145 C 11.7639 -4.29763 -3.16449 0
M  V30 146 O 11.9869 -3.76584 -4.28416 0
M  V30 147 O 10.9209 -5.21832 -2.99958 0
M  V30 148 H 14.7469 -2.98479 -0.560725 0
M  V30 149 H 12.3319 -1.47903 -0.210987 0
M  V30 150 H 14.2139 -2.94589 -3.01322 0
M  V30 151 H 12.8889 -1.79313 -2.69497 0
M  V30 152 H 11.7959 -3.54909 -1.18282 0
M  V30 153 H 13.1289 -4.66324 -1.57489 0
M  V30 154 N 14.781 0.264519 -1.55364 0
M  V30 155 C 16.009 1.013 -1.80405 0
M  V30 156 C 16.424 1.79618 -0.581622 0
M  V30 157 O 15.781 1.76879 0.449468 0
M  V30 158 C 15.832 1.96487 -3.03439 0
M  V30 159 O 15.553 1.21341 -4.20961 0
M  V30 160 C 17.054 2.83079 -3.41147 0
M  V30 161 H 14.274 0.298875 -0.600762 0
M  V30 162 H 16.818 0.292736 -2.02394 0
M  V30 163 H 14.973 2.63965 -2.83551 0
M  V30 164 H 15.387 1.85573 -4.90574 0
M  V30 165 H 16.861 3.4565 -4.30384 0
M  V30 166 H 17.338 3.53286 -2.60932 0
M  V30 167 H 17.944 2.2108 -3.63323 0
M  V30 168 N 16.2591 1.48442 0.529413 0
M  V30 169 C 17.5051 1.57699 1.28463 0
M  V30 170 C 17.8601 0.247913 1.90796 0
M  V30 171 O 17.1531 -0.749279 1.76342 0
M  V30 172 C 17.3471 2.6523 2.39558 0
M  V30 173 C 17.1761 4.08464 1.88114 0
M  V30 174 C 15.9461 4.75596 1.70693 0
M  V30 175 C 18.1441 4.94613 1.40935 0
M  V30 176 N 16.1261 6.03245 1.13881 0
M  V30 177 C 17.4971 6.12511 0.960734 0
M  V30 178 C 19.5521 4.80833 1.29243 0
M  V30 179 C 18.2551 7.18149 0.406792 0
M  V30 180 C 20.2811 5.86593 0.752487 0
M  V30 181 C 19.6431 7.037 0.313946 0
M  V30 182 H 15.7421 0.631608 0.46108 0
M  V30 183 H 18.3261 1.85325 0.596886 0
M  V30 184 H 16.4971 2.39425 3.05827 0
M  V30 185 H 18.2291 2.64169 3.06589 0
M  V30 186 H 14.9841 4.31938 1.94232 0
M  V30 187 H 15.4081 6.71324 0.874831 0
M  V30 188 H 20.0501 3.90635 1.61754 0
M  V30 189 H 17.7681 8.0807 0.0693671 0
M  V30 190 H 21.3541 5.77985 0.665192 0
M  V30 191 H 20.2341 7.8414 -0.0973632 0
M  V30 192 N 17.7372 -0.778329 1.37039 0
M  V30 193 C 18.6672 -1.90546 1.34962 0
M  V30 194 C 19.6482 -1.68681 0.219274 0
M  V30 195 O 20.8332 -1.89634 0.418624 0
M  V30 196 C 17.9632 -3.27734 1.14925 0
M  V30 197 C 16.9172 -3.64147 2.24902 0
M  V30 198 C 16.2432 -4.99806 1.89996 0
M  V30 199 C 17.5432 -3.71579 3.67051 0
M  V30 200 H 19.2372 -1.92541 2.29277 0
M  V30 201 H 16.7832 -0.924948 1.10366 0
M  V30 202 H 18.7362 -4.06215 1.12104 0
M  V30 203 H 17.4602 -3.26154 0.170631 0
M  V30 204 H 16.1192 -2.8797 2.26868 0
M  V30 205 H 15.7672 -4.94759 0.906796 0
M  V30 206 H 15.4672 -5.25139 2.63634 0
M  V30 207 H 16.9912 -5.80694 1.88749 0
M  V30 208 H 18.4052 -4.40227 3.67251 0
M  V30 209 H 16.8022 -4.08405 4.39688 0
M  V30 210 H 17.8722 -2.72404 4.01154 0
M  V30 211 N 19.2153 -1.21501 -1.00376 0
M  V30 212 C 20.1453 -0.999478 -2.11028 0
M  V30 213 C 21.1263 0.0759671 -1.6993 0
M  V30 214 O 22.3113 -0.0841106 -1.94018 0
M  V30 215 C 19.4413 -0.564709 -3.42678 0
M  V30 216 C 18.3953 -1.58486 -3.97576 0
M  V30 217 C 17.7213 -1.00628 -5.25146 0
M  V30 218 C 19.0213 -2.97204 -4.29496 0
M  V30 219 H 20.7153 -1.92495 -2.29317 0
M  V30 220 H 18.2613 -0.92693 -1.102 0
M  V30 221 H 20.2143 -0.401091 -4.19487 0
M  V30 222 H 18.9383 0.396411 -3.24185 0
M  V30 223 H 17.5973 -1.73606 -3.22888 0
M  V30 224 H 17.2453 -0.0368439 -5.02987 0
M  V30 225 H 16.9453 -1.68771 -5.62841 0
M  V30 226 H 18.4693 -0.854015 -6.04598 0
M  V30 227 H 19.8833 -2.8552 -4.97143 0
M  V30 228 H 18.2803 -3.62372 -4.78338 0
M  V30 229 H 19.3503 -3.47956 -3.3772 0
M  V30 230 N 20.6934 1.19889 -1.02296 0
M  V30 231 C 21.6234 2.25141 -0.619174 0
M  V30 232 C 22.6044 1.66051 0.368915 0
M  V30 233 O 23.7894 1.92546 0.252941 0
M  V30 234 C 20.9194 3.4728 0.0368783 0
M  V30 235 C 19.8734 4.19005 -0.872865 0
M  V30 236 C 19.1994 5.34637 -0.0822402 0
M  V30 237 C 20.4994 4.74452 -2.18387 0
M  V30 238 H 22.1934 2.59171 -1.49903 0
M  V30 239 H 19.7394 1.24579 -0.722222 0
M  V30 240 H 21.6924 4.20098 0.330958 0
M  V30 241 H 20.4164 3.12433 0.95149 0
M  V30 242 H 19.0754 3.48061 -1.15105 0
M  V30 243 H 18.7234 4.96034 0.83422 0
M  V30 244 H 18.4234 5.83557 -0.688149 0
M  V30 245 H 19.9474 6.10255 0.205238 0
M  V30 246 H 21.3614 5.39055 -1.95172 0
M  V30 247 H 19.7584 5.33834 -2.74119 0
M  V30 248 H 20.8284 3.92844 -2.84257 0
M  V30 249 N 22.1715 0.800033 1.35784 0
M  V30 250 C 23.1345 0.211565 2.28221 0
M  V30 251 C 24.1345 -0.59728 1.49296 0
M  V30 252 O 25.3245 -0.416721 1.69142 0
M  V30 253 C 22.4565 -0.705846 3.33513 0
M  V30 254 H 23.6495 1.02677 2.81776 0
M  V30 255 H 21.2025 0.570211 1.45528 0
M  V30 256 H 21.9375 -1.54498 2.85133 0
M  V30 257 H 21.7225 -0.127655 3.91892 0
M  V30 258 H 23.2125 -1.11211 4.02519 0
M  V30 259 N 23.6496 -1.47581 0.552962 0
M  V30 260 C 24.8956 -2.02782 0.0273648 0
M  V30 261 C 25.2286 -1.42687 -1.31734 0
M  V30 262 O 24.5036 -0.580897 -1.85623 0
M  V30 263 C 24.7866 -3.60031 -0.0702371 0
M  V30 264 C 24.6396 -4.30566 1.30126 0
M  V30 265 C 25.9586 -4.33028 -0.785771 0
M  V30 266 H 23.0776 -0.736912 0.0114185 0
M  V30 267 H 25.7196 -1.76056 0.714432 0
M  V30 268 H 23.8696 -3.82932 -0.655382 0
M  V30 269 H 25.5416 -4.19018 1.92929 0
M  V30 270 H 23.7846 -3.91086 1.87709 0
M  V30 271 H 24.4556 -5.39114 1.18573 0
M  V30 272 H 26.9316 -4.15095 -0.288982 0
M  V30 273 H 25.8076 -5.42695 -0.823013 0
M  V30 274 H 26.0686 -4.01945 -1.841 0
M  V30 275 N 25.1277 -0.289203 -1.54924 0
M  V30 276 C 26.3527 0.329299 -2.04769 0
M  V30 277 C 26.7777 1.4763 -1.16564 0
M  V30 278 O 26.1357 1.80527 -0.167186 0
M  V30 279 C 26.1837 0.774438 -3.52186 0
M  V30 280 O 25.2877 1.88038 -3.67036 0
M  V30 281 H 24.6287 0.0659259 -0.660719 0
M  V30 282 H 27.1587 -0.42761 -2.00082 0
M  V30 283 H 27.1687 1.06642 -3.93816 0
M  V30 284 H 25.8437 -0.0646707 -4.1585 0
M  V30 285 H 24.4207 1.58985 -3.3731 0
M  V30 286 N 26.6058 1.57591 -0.0167156 0
M  V30 287 C 27.5358 2.12496 0.967858 0
M  V30 288 C 28.5168 1.03807 1.34752 0
M  V30 289 O 29.7018 1.31577 1.42833 0
M  V30 290 C 26.8318 2.64194 2.25431 0
M  V30 291 C 25.7858 3.77559 2.01576 0
M  V30 292 C 25.1118 4.15636 3.36379 0
M  V30 293 C 26.4118 5.04151 1.36489 0
M  V30 294 H 28.1058 2.95013 0.510643 0
M  V30 295 H 25.6518 1.41915 0.244181 0
M  V30 296 H 27.6048 3.01236 2.94678 0
M  V30 297 H 26.3288 1.78821 2.73296 0
M  V30 298 H 24.9878 3.40937 1.34751 0
M  V30 299 H 24.6358 3.27263 3.81979 0
M  V30 300 H 24.3358 4.92022 3.21229 0
M  V30 301 H 25.8598 4.5525 4.06915 0
M  V30 302 H 27.2738 5.38857 1.95718 0
M  V30 303 H 25.6708 5.85453 1.31776 0
M  V30 304 H 26.7408 4.83733 0.336219 0
M  V30 305 N 28.0839 -0.256276 1.55502 0
M  V30 306 C 29.3299 -0.987079 1.77157 0
M  V30 307 C 29.6629 -1.85327 0.580315 0
M  V30 308 O 28.9379 -1.89874 -0.421686 0
M  V30 309 C 29.2209 -1.85553 3.08613 0
M  V30 310 C 29.0739 -1.01816 4.38125 0
M  V30 311 C 30.3929 -2.8397 3.36228 0
M  V30 312 H 27.5119 -0.357428 0.644526 0
M  V30 313 H 30.1539 -0.258239 1.88237 0
M  V30 314 H 28.3039 -2.47695 2.99298 0
M  V30 315 H 29.9759 -0.416159 4.59419 0
M  V30 316 H 28.2189 -0.322178 4.32602 0
M  V30 317 H 28.8899 -1.65939 5.26468 0
M  V30 318 H 31.3659 -2.31964 3.45445 0
M  V30 319 H 30.2419 -3.41864 4.29442 0
M  V30 320 H 30.5029 -3.59955 2.56681 0
M  V30 321 N 29.562 -1.4872 -0.521534 0
M  V30 322 C 30.492 -1.66771 -1.63431 0
M  V30 323 C 31.473 -0.516499 -1.62069 0
M  V30 324 O 32.658 -0.750013 -1.79132 0
M  V30 325 C 29.788 -1.71515 -3.01993 0
M  V30 326 C 28.742 -2.86222 -3.18216 0
M  V30 327 C 28.068 -2.76061 -4.57924 0
M  V30 328 C 29.368 -4.27419 -3.00184 0
M  V30 329 H 31.062 -2.59932 -1.48579 0
M  V30 330 H 28.608 -1.25089 -0.713358 0
M  V30 331 H 30.561 -1.82731 -3.7972 0
M  V30 332 H 29.285 -0.749393 -3.17886 0
M  V30 333 H 27.944 -2.74575 -2.42908 0
M  V30 334 H 27.592 -1.77437 -4.70665 0
M  V30 335 H 27.292 -3.53037 -4.69722 0
M  V30 336 H 28.816 -2.89256 -5.37739 0
M  V30 337 H 30.23 -4.39855 -3.67697 0
M  V30 338 H 28.627 -5.05458 -3.2347 0
M  V30 339 H 29.697 -4.43293 -1.96518 0
M  V30 340 N 31.0401 0.771051 -1.3745 0
M  V30 341 C 31.9701 1.89827 -1.3597 0
M  V30 342 C 32.9511 1.68562 -0.228216 0
M  V30 343 O 34.1361 1.8941 -0.428675 0
M  V30 344 C 31.2661 3.2712 -1.16662 0
M  V30 345 C 30.2201 3.6295 -2.2683 0
M  V30 346 C 29.5461 4.98791 -1.92644 0
M  V30 347 C 30.8461 3.69627 -3.69017 0
M  V30 348 H 32.5401 1.91323 -2.30295 0
M  V30 349 H 30.0861 0.919082 -1.10855 0
M  V30 350 H 32.0391 4.05615 -1.14256 0
M  V30 351 H 30.7631 3.26059 -0.187926 0
M  V30 352 H 29.4221 2.86763 -2.28392 0
M  V30 353 H 29.0701 4.94271 -0.933021 0
M  V30 354 H 28.7701 5.23733 -2.66416 0
M  V30 355 H 30.2941 5.79685 -1.91826 0
M  V30 356 H 31.7081 4.38273 -3.69581 0
M  V30 357 H 30.1051 4.06067 -4.41848 0
M  V30 358 H 31.1751 2.70273 -4.02592 0
M  V30 359 N 32.5182 1.22032 0.997298 0
M  V30 360 C 33.7482 1.06686 1.76923 0
M  V30 361 C 34.1562 -0.385838 1.85224 0
M  V30 362 O 33.4992 -1.27929 1.31833 0
M  V30 363 C 33.5612 1.59802 3.22031 0
M  V30 364 C 33.2252 3.08362 3.37286 0
M  V30 365 C 34.2222 4.05835 3.24952 0
M  V30 366 C 31.9072 3.47727 3.6248 0
M  V30 367 C 33.9012 5.4066 3.37588 0
M  V30 368 C 31.5882 4.82701 3.74757 0
M  V30 369 C 32.5862 5.78977 3.62319 0
M  V30 370 O 32.2742 7.11502 3.74193 0
M  V30 371 H 32.0062 0.374767 0.562606 0
M  V30 372 H 34.5602 1.61991 1.26286 0
M  V30 373 H 32.7902 0.989003 3.73839 0
M  V30 374 H 34.4792 1.40184 3.80924 0
M  V30 375 H 35.2452 3.76766 3.05405 0
M  V30 376 H 31.1242 2.73317 3.7124 0
M  V30 377 H 34.6682 6.15788 3.27796 0
M  V30 378 H 30.5652 5.11453 3.9381 0
M  V30 379 H 31.3332 7.19019 3.91093 0
M  V30 380 N 33.9963 -1.19345 1.0293 0
M  V30 381 C 34.9263 -2.2481 0.631105 0
M  V30 382 C 35.9073 -1.66245 -0.360104 0
M  V30 383 O 37.0923 -1.92677 -0.242726 0
M  V30 384 C 34.2223 -3.47295 -0.0184607 0
M  V30 385 C 33.1763 -4.18536 0.895073 0
M  V30 386 C 32.5023 -5.34586 0.110592 0
M  V30 387 C 33.8023 -4.73287 2.209 0
M  V30 388 H 35.4963 -2.58372 1.51275 0
M  V30 389 H 33.0423 -1.24194 0.728818 0
M  V30 390 H 34.9953 -4.20268 -0.308675 0
M  V30 391 H 33.7193 -3.12933 -0.934907 0
M  V30 392 H 32.3783 -3.47446 1.16949 0
M  V30 393 H 32.0263 -4.96469 -0.807902 0
M  V30 394 H 31.7263 -5.83183 0.719087 0
M  V30 395 H 33.2503 -6.10355 -0.172871 0
M  V30 396 H 34.6643 -5.38013 1.98028 0
M  V30 397 H 33.0613 -5.32373 2.76946 0
M  V30 398 H 34.1313 -3.91331 2.86336 0
M  V30 399 N 35.4744 -0.807222 -1.35358 0
M  V30 400 C 36.7044 -0.399796 -2.02695 0
M  V30 401 C 37.1124 0.994176 -1.60974 0
M  V30 402 O 36.4554 1.65209 -0.803226 0
M  V30 403 C 36.5174 -0.404445 -3.57218 0
M  V30 404 C 36.1814 -1.74904 -4.22206 0
M  V30 405 C 37.1784 -2.70743 -4.4384 0
M  V30 406 C 34.8634 -2.03322 -4.5931 0
M  V30 407 C 36.8574 -3.93183 -5.01683 0
M  V30 408 C 34.5444 -3.26026 -5.16866 0
M  V30 409 C 35.5424 -4.20774 -5.37994 0
M  V30 410 O 35.2304 -5.41312 -5.94337 0
M  V30 411 H 34.9624 -0.160517 -0.656666 0
M  V30 412 H 37.5164 -1.09235 -1.73945 0
M  V30 413 H 35.7464 0.344707 -3.85161 0
M  V30 414 H 37.4354 -0.0192429 -4.05895 0
M  V30 415 H 38.2014 -2.5008 -4.15554 0
M  V30 416 H 34.0804 -1.30384 -4.42178 0
M  V30 417 H 37.6244 -4.6715 -5.1809 0
M  V30 418 H 33.5214 -3.46559 -5.44579 0
M  V30 419 H 34.2894 -5.42618 -6.12787 0
M  V30 420 N 36.9525 1.47285 -0.560781 0
M  V30 421 C 38.2005 2.02064 -0.0379868 0
M  V30 422 C 38.5215 1.43711 1.31803 0
M  V30 423 O 37.7915 0.61362 1.86042 0
M  V30 424 H 36.3715 0.746918 -0.0110531 0
M  V30 425 H 39.0335 1.80648 -0.731598 0
M  V30 426 H 38.1295 3.12064 0.0474463 0
M  V30 427 N 38.4306 0.297415 1.54768 0
M  V30 428 C 39.6586 -0.315623 2.04478 0
M  V30 429 C 40.0736 -1.47792 1.17486 0
M  V30 430 O 39.4306 -1.81404 0.19971 0
M  V30 431 C 39.4816 -0.7753 3.53088 0
M  V30 432 O 39.2026 0.340732 4.36773 0
M  V30 433 C 40.7036 -1.45386 4.18781 0
M  V30 434 H 37.9236 -0.0690887 0.667434 0
M  V30 435 H 40.4676 0.436003 1.99798 0
M  V30 436 H 38.6226 -1.47696 3.58141 0
M  V30 437 H 39.0366 -0.0165035 5.24497 0
M  V30 438 H 40.5106 -1.72669 5.24299 0
M  V30 439 H 40.9876 -2.39275 3.68299 0
M  V30 440 H 41.5936 -0.795475 4.17795 0
M  V30 441 N 39.9087 -1.5758 0.0250728 0
M  V30 442 C 40.8587 -2.06468 -0.967201 0
M  V30 443 C 41.8427 -0.964376 -1.28797 0
M  V30 444 O 43.0347 -1.22797 -1.27475 0
M  V30 445 C 40.1637 -2.59203 -2.25097 0
M  V30 446 C 39.2497 -3.76157 -1.95874 0
M  V30 447 N 39.6407 -4.86919 -1.36905 0
M  V30 448 C 37.9387 -3.84566 -2.25887 0
M  V30 449 C 38.6397 -5.68172 -1.24724 0
M  V30 450 N 37.6157 -5.14953 -1.74138 0
M  V30 451 H 41.4177 -2.89508 -0.506176 0
M  V30 452 H 38.9317 -1.61399 -0.18004 0
M  V30 453 H 40.9287 -2.92517 -2.97052 0
M  V30 454 H 39.5887 -1.77592 -2.71829 0
M  V30 455 H 40.5997 -5.07256 -1.04459 0
M  V30 456 H 37.2767 -3.13854 -2.75321 0
M  V30 457 H 38.6667 -6.67221 -0.791605 0
M  V30 458 N 41.3868 0.248026 -1.55636 0
M  V30 459 C 42.6118 0.998028 -1.81808 0
M  V30 460 C 43.0368 1.78207 -0.601979 0
M  V30 461 O 42.3948 1.75653 0.448961 0
M  V30 462 C 42.4428 1.9125 -3.05705 0
M  V30 463 O 41.5468 3.00406 -2.82542 0
M  V30 464 H 40.8878 0.284045 -0.600179 0
M  V30 465 H 43.4178 0.269357 -2.02819 0
M  V30 466 H 43.4278 2.32737 -3.35108 0
M  V30 467 H 42.1028 1.33602 -3.93857 0
M  V30 468 H 40.6798 2.63056 -2.64303 0
M  V30 469 N 42.8649 1.48995 0.513639 0
M  V30 470 C 43.8149 1.61127 1.61314 0
M  V30 471 C 44.7989 0.467521 1.53958 0
M  V30 472 O 45.9909 0.719826 1.61702 0
M  V30 473 C 43.1199 1.66937 2.99978 0
M  V30 474 C 42.2059 2.86847 3.12377 0
M  V30 475 N 42.5969 4.11078 2.94701 0
M  V30 476 C 40.8949 2.84521 3.43459 0
M  V30 477 C 41.5959 4.91615 3.10949 0
M  V30 478 N 40.5719 4.24739 3.3926 0
M  V30 479 H 44.3739 2.54909 1.46282 0
M  V30 480 H 41.8879 1.45593 0.719483 0
M  V30 481 H 43.8849 1.73725 3.78979 0
M  V30 482 H 42.5449 0.742831 3.16089 0
M  V30 483 H 43.5559 4.41258 2.71131 0
M  V30 484 H 40.2329 2.01192 3.65825 0
M  V30 485 H 41.6229 6.00264 3.01882 0
M  V30 486 N 44.343 -0.763751 1.37857 0
M  V30 487 C 45.591 -1.51957 1.33243 0
M  V30 488 C 45.912 -1.94835 -0.0801709 0
M  V30 489 O 45.182 -1.66894 -1.02582 0
M  V30 490 H 43.762 -0.563626 0.49024 0
M  V30 491 H 46.424 -0.908504 1.7243 0
M  V30 492 H 45.52 -2.41523 1.97669 0
M  V30 493 N 45.8211 -1.22559 -0.990812 0
M  V30 494 C 46.7511 -1.0218 -2.09956 0
M  V30 495 C 47.7321 0.0579394 -1.70001 0
M  V30 496 O 48.9171 -0.104684 -1.93918 0
M  V30 497 C 46.0471 -0.601023 -3.4206 0
M  V30 498 C 45.0011 -1.62694 -3.95872 0
M  V30 499 C 44.3271 -1.06193 -5.24049 0
M  V30 500 C 45.6271 -3.01743 -4.2632 0
M  V30 501 H 47.3211 -1.94916 -2.27262 0
M  V30 502 H 44.8671 -0.938566 -1.09211 0
M  V30 503 H 46.8201 -0.445561 -4.19038 0
M  V30 504 H 45.5441 0.362005 -3.24588 0
M  V30 505 H 44.2031 -1.77021 -3.21028 0
M  V30 506 H 43.8511 -0.0901903 -5.02919 0
M  V30 507 H 43.5511 -1.74732 -5.61019 0
M  V30 508 H 45.0751 -0.918092 -6.03658 0
M  V30 509 H 46.4891 -2.90777 -4.94087 0
M  V30 510 H 44.8861 -3.67425 -4.74467 0
M  V30 511 H 45.9561 -3.51518 -3.34011 0
M  V30 512 N 47.2992 1.18797 -1.03562 0
M  V30 513 C 48.5462 1.8865 -0.736023 0
M  V30 514 C 48.8742 1.80041 0.735889 0
M  V30 515 O 48.1292 1.19179 1.55225 0
M  V30 516 C 48.4282 3.38692 -1.14117 0
M  V30 517 C 48.0942 3.67504 -2.6125 0
M  V30 518 C 46.7562 3.75078 -3.01447 0
M  V30 519 C 49.1082 3.80293 -3.56408 0
M  V30 520 C 46.4362 3.92915 -4.35701 0
M  V30 521 C 48.7882 3.99645 -4.90374 0
M  V30 522 C 47.4522 4.05453 -5.30249 0
M  V30 523 H 46.7222 0.690321 -0.26933 0
M  V30 524 H 49.3692 1.40641 -1.29971 0
M  V30 525 H 47.6742 3.88645 -0.496202 0
M  V30 526 H 49.3712 3.91072 -0.886789 0
M  V30 527 H 45.9612 3.62223 -2.29113 0
M  V30 528 H 50.1452 3.73779 -3.26501 0
M  V30 529 H 45.4012 3.95653 -4.66121 0
M  V30 530 H 49.5752 4.08482 -5.64017 0
M  V30 531 H 47.2022 4.19027 -6.34288 0
M  V30 532 N 48.7773 0.814389 1.34928 0
M  V30 533 C 49.7243 0.22822 2.29669 0
M  V30 534 C 50.6943 -0.642164 1.53184 0
M  V30 535 O 51.8793 -0.585605 1.81591 0
M  V30 536 C 49.0193 -0.61089 3.3965 0
M  V30 537 C 48.1323 0.280792 4.31086 0
M  V30 538 C 47.2673 -0.567067 5.28165 0
M  V30 539 C 46.3063 0.324531 6.11239 0
M  V30 540 N 45.4433 -0.483756 7.00431 0
M  V30 541 H 50.2833 1.04153 2.79206 0
M  V30 542 H 47.8203 0.525133 1.37407 0
M  V30 543 H 49.7783 -1.11263 4.0209 0
M  V30 544 H 48.4083 -1.38939 2.91369 0
M  V30 545 H 47.4603 0.900688 3.69583 0
M  V30 546 H 48.7723 0.966723 4.89342 0
M  V30 547 H 47.9263 -1.13363 5.96015 0
M  V30 548 H 46.6653 -1.28654 4.70425 0
M  V30 549 H 45.6703 0.903298 5.42329 0
M  V30 550 H 46.8953 1.04198 6.71059 0
M  V30 551 H 44.8413 -1.18706 6.45171 0
M  V30 552 H 44.7583 0.143965 7.55863 0
M  V30 553 H 46.0263 -1.03334 7.7262 0
M  V30 554 N 50.2554 -1.46986 0.568584 0
M  V30 555 C 51.2024 -2.30153 -0.172707 0
M  V30 556 C 52.1724 -1.39759 -0.897586 0
M  V30 557 O 53.3574 -1.68716 -0.891044 0
M  V30 558 C 50.4974 -3.23952 -1.1895 0
M  V30 559 C 49.6104 -4.29441 -0.469517 0
M  V30 560 C 48.7454 -5.1038 -1.47259 0
M  V30 561 C 47.7844 -6.07632 -0.738225 0
M  V30 562 N 46.9214 -6.8149 -1.68868 0
M  V30 563 H 51.7614 -2.93019 0.542596 0
M  V30 564 H 49.2984 -1.44422 0.279401 0
M  V30 565 H 51.2564 -3.76767 -1.79173 0
M  V30 566 H 49.8864 -2.62926 -1.87269 0
M  V30 567 H 48.9384 -3.79594 0.247467 0
M  V30 568 H 50.2504 -4.98689 0.105241 0
M  V30 569 H 49.4044 -5.67402 -2.14803 0
M  V30 570 H 48.1434 -4.4106 -2.08128 0
M  V30 571 H 47.1484 -5.49778 -0.0489293 0
M  V30 572 H 48.3734 -6.78966 -0.135129 0
M  V30 573 H 46.3194 -6.14891 -2.28573 0
M  V30 574 H 46.2364 -7.46948 -1.16636 0
M  V30 575 H 47.5044 -7.43078 -2.3549 0
M  V30 576 N 51.7335 -0.305618 -1.54608 0
M  V30 577 C 52.6635 0.561482 -2.26649 0
M  V30 578 C 53.6445 1.13415 -1.26772 0
M  V30 579 O 54.8295 1.16262 -1.55553 0
M  V30 580 C 51.9595 1.73122 -3.01075 0
M  V30 581 C 50.9135 1.2887 -4.08138 0
M  V30 582 C 50.2395 2.54396 -4.70305 0
M  V30 583 C 51.5395 0.416578 -5.20636 0
M  V30 584 H 53.2335 -0.0393902 -2.99374 0
M  V30 585 H 50.7795 -0.020385 -1.43986 0
M  V30 586 H 52.7325 2.34396 -3.50195 0
M  V30 587 H 51.4565 2.3584 -2.25936 0
M  V30 588 H 50.1155 0.698991 -3.59875 0
M  V30 589 H 49.7635 3.15439 -3.918 0
M  V30 590 H 49.4635 2.25486 -5.42614 0
M  V30 591 H 50.9875 3.16464 -5.2219 0
M  V30 592 H 52.4015 0.935116 -5.65622 0
M  V30 593 H 50.7985 0.221046 -5.99693 0
M  V30 594 H 51.8685 -0.557162 -4.81688 0
M  V30 595 N 53.2116 1.57565 -0.0334293 0
M  V30 596 C 54.4596 1.91598 0.642999 0
M  V30 597 C 54.7806 0.910847 1.7242 0
M  V30 598 O 54.0506 -0.0469931 1.95844 0
M  V30 599 H 52.6306 0.707228 0.240496 0
M  V30 600 H 55.2926 1.94726 -0.0822488 0
M  V30 601 H 54.3886 2.92336 1.09298 0
M  V30 602 N 54.6897 -0.239769 1.55765 0
M  V30 603 C 55.9387 -0.964754 1.77131 0
M  V30 604 C 56.2517 -1.86213 0.59868 0
M  V30 605 O 57.4577 -2.6244 0.695522 0
M  V30 606 C 55.9137 -1.76552 3.1362 0
M  V30 607 C 55.5217 -0.915185 4.38553 0
M  V30 608 C 57.2657 -2.48281 3.44321 0
M  V30 609 C 55.1727 -1.71225 5.66071 0
M  V30 610 H 54.1027 -0.363953 0.660344 0
M  V30 611 H 56.7537 -0.219181 1.82186 0
M  V30 612 H 55.1357 -2.55331 3.02691 0
M  V30 613 H 56.3097 -0.169217 4.60489 0
M  V30 614 H 54.6247 -0.310889 4.15238 0
M  V30 615 H 57.2217 -3.08382 4.36812 0
M  V30 616 H 57.5647 -3.20256 2.65973 0
M  V30 617 H 58.0977 -1.76507 3.56497 0
M  V30 618 H 54.8367 -1.03612 6.4726 0
M  V30 619 H 54.3567 -2.43331 5.48224 0
M  V30 620 H 56.0357 -2.27758 6.05587 0
M  V30 621 N 56.1678 -1.49265 -0.50573 0
M  V30 622 C 57.5788 -1.51769 -1.08734 0
M  V30 623 C 57.9298 -0.301192 -1.93874 0
M  V30 624 O 57.0548 0.589456 -2.08217 0
M  V30 625 C 57.6498 -2.75017 -1.97867 0
M  V30 626 C 56.2088 -2.80314 -2.51199 0
M  V30 627 C 55.3558 -2.4562 -1.28709 0
M  V30 628 H 58.3068 -1.56031 -0.289855 0
M  V30 629 H 58.3278 -2.5491 -2.82491 0
M  V30 630 H 57.8398 -3.63539 -1.35873 0
M  V30 631 H 55.9408 -1.96061 -3.16845 0
M  V30 632 H 56.0538 -3.82366 -2.88675 0
M  V30 633 H 54.4178 -1.97297 -1.61078 0
M  V30 634 H 55.2008 -3.36411 -0.6843 0
M  V30 635 N 57.6459 0.756429 -1.3826 0
M  V30 636 C 58.8939 1.51248 -1.34047 0
M  V30 637 C 59.2149 1.94875 0.0698372 0
M  V30 638 O 58.4849 1.67436 1.01696 0
M  V30 639 H 57.0649 0.561018 -0.493222 0
M  V30 640 H 59.7269 0.899347 -1.7291 0
M  V30 641 H 58.8229 2.40472 -1.98947 0
M  V30 642 N 59.124 1.23083 0.984299 0
M  V30 643 C 60.535 1.05609 1.5396 0
M  V30 644 C 60.886 -0.377793 1.92528 0
M  V30 645 O 60.011 -1.26398 1.75649 0
M  V30 646 C 60.606 1.91087 2.7977 0
M  V30 647 C 59.165 1.77885 3.31713 0
M  V30 648 C 58.312 1.87028 2.04733 0
M  V30 649 H 61.263 1.36802 0.804419 0
M  V30 650 H 61.284 1.43336 3.5247 0
M  V30 651 H 60.796 2.9544 2.51668 0
M  V30 652 H 58.897 0.762995 3.64704 0
M  V30 653 H 59.01 2.61047 4.01735 0
M  V30 654 H 57.374 1.30565 2.18689 0
M  V30 655 H 58.157 2.92929 1.79017 0
M  V30 656 N 60.6021 -1.18246 1.0419 0
M  V30 657 C 61.8301 -1.92195 0.766072 0
M  V30 658 C 62.2451 -1.76247 -0.676933 0
M  V30 659 O 61.6021 -1.09293 -1.46155 0
M  V30 660 C 61.6531 -3.43568 1.12442 0
M  V30 661 O 61.3741 -3.59015 2.51078 0
M  V30 662 C 62.8751 -4.34613 0.873275 0
M  V30 663 H 60.0951 -0.610114 0.279288 0
M  V30 664 H 62.6391 -1.50007 1.38989 0
M  V30 665 H 60.7941 -3.8354 0.545542 0
M  V30 666 H 61.2081 -4.5273 2.64831 0
M  V30 667 H 62.6821 -5.39374 1.17385 0
M  V30 668 H 63.1591 -4.38781 -0.191909 0
M  V30 669 H 63.7651 -4.00341 1.43551 0
M  V30 670 N 62.0802 -0.821533 -1.34494 0
M  V30 671 C 63.4912 -0.467956 -1.8074 0
M  V30 672 C 63.8422 1.01151 -1.68116 0
M  V30 673 O 62.9672 1.78707 -1.22036 0
M  V30 674 C 63.5622 -0.842627 -3.28154 0
M  V30 675 C 62.1212 -0.541439 -3.72485 0
M  V30 676 C 61.2682 -1.06028 -2.56229 0
M  V30 677 H 64.2192 -1.01183 -1.22261 0
M  V30 678 H 64.2402 -0.145876 -3.8022 0
M  V30 679 H 63.7522 -1.91945 -3.37311 0
M  V30 680 H 61.8532 0.526034 -3.68868 0
M  V30 681 H 61.9662 -1.08453 -4.66663 0
M  V30 682 H 60.3302 -0.481892 -2.501 0
M  V30 683 H 61.1132 -2.14352 -2.68157 0
M  V30 684 N 63.5583 1.46682 -0.576371 0
M  V30 685 C 64.4883 2.33028 0.148397 0
M  V30 686 C 65.4693 1.44961 0.889956 0
M  V30 687 O 66.6543 1.73789 0.866662 0
M  V30 688 C 63.7843 3.27117 1.1667 0
M  V30 689 C 62.7383 4.24575 0.540386 0
M  V30 690 C 62.0643 5.08126 1.6647 0
M  V30 691 C 63.3643 5.19722 -0.518331 0
M  V30 692 H 65.0583 2.93875 -0.572509 0
M  V30 693 H 62.6043 1.41315 -0.276768 0
M  V30 694 H 64.5573 3.86374 1.68204 0
M  V30 695 H 63.2813 2.64364 1.9178 0
M  V30 696 H 61.9403 3.66571 0.0461769 0
M  V30 697 H 61.5883 4.41762 2.40531 0
M  V30 698 H 61.2883 5.74122 1.25131 0
M  V30 699 H 62.8123 5.70246 2.18293 0
M  V30 700 H 64.2263 5.73232 -0.0883058 0
M  V30 701 H 62.6233 5.94026 -0.851679 0
M  V30 702 H 63.6933 4.64037 -1.40703 0
M  V30 703 N 65.0364 0.313813 1.54444 0
M  V30 704 C 66.4474 -0.176243 1.85866 0
M  V30 705 C 66.7984 -1.52405 1.23561 0
M  V30 706 O 65.9234 -2.09605 0.538016 0
M  V30 707 C 66.5184 -0.32657 3.37222 0
M  V30 708 C 65.0774 -0.760846 3.6863 0
M  V30 709 C 64.2244 0.123247 2.77026 0
M  V30 710 H 67.1754 0.534418 1.49431 0
M  V30 711 H 67.1964 -1.15908 3.62416 0
M  V30 712 H 66.7084 0.654531 3.82541 0
M  V30 713 H 64.8094 -1.75204 3.28838 0
M  V30 714 H 64.9224 -0.571353 4.75681 0
M  V30 715 H 63.2864 -0.399597 2.51546 0
M  V30 716 H 64.0694 1.10094 3.25168 0
M  V30 717 N 66.5145 -1.57545 0.0417849 0
M  V30 718 C 67.7615 -1.92317 -0.634082 0
M  V30 719 C 68.0895 -0.919334 -1.71402 0
M  V30 720 O 67.3445 0.0698253 -1.95575 0
M  V30 721 C 67.6435 -3.33794 -1.27735 0
M  V30 722 C 67.3095 -4.49716 -0.326543 0
M  V30 723 C 65.9715 -4.81156 -0.0648814 0
M  V30 724 C 68.3235 -5.20182 0.325623 0
M  V30 725 C 65.6515 -5.80414 0.856539 0
M  V30 726 C 68.0035 -6.20424 1.23518 0
M  V30 727 C 66.6675 -6.50298 1.5056 0
M  V30 728 H 65.9375 -0.703736 -0.232027 0
M  V30 729 H 68.5845 -1.91205 0.106259 0
M  V30 730 H 66.8895 -3.31228 -2.09274 0
M  V30 731 H 68.5865 -3.57975 -1.80707 0
M  V30 732 H 65.1765 -4.25176 -0.540665 0
M  V30 733 H 69.3605 -4.96112 0.136546 0
M  V30 734 H 64.6165 -6.019 1.07363 0
M  V30 735 H 68.7905 -6.74141 1.74664 0
M  V30 736 H 66.4175 -7.27025 2.22123 0
M  V30 737 N 67.9926 0.231505 -1.5589 0
M  V30 738 C 68.9226 1.29022 -1.94617 0
M  V30 739 C 69.9036 1.4941 -0.813067 0
M  V30 740 O 71.0886 1.6176 -1.07459 0
M  V30 741 C 68.2186 2.64199 -2.25424 0
M  V30 742 C 67.1726 2.58484 -3.41131 0
M  V30 743 C 66.4986 3.97599 -3.57518 0
M  V30 744 C 67.7986 2.1413 -4.76388 0
M  V30 745 H 69.4926 0.968563 -2.83301 0
M  V30 746 H 67.0386 0.464479 -1.36303 0
M  V30 747 H 68.9916 3.38413 -2.51107 0
M  V30 748 H 67.7156 2.98032 -1.33583 0
M  V30 749 H 66.3746 1.86727 -3.15481 0
M  V30 750 H 66.0226 4.28723 -2.6307 0
M  V30 751 H 65.7226 3.94659 -4.35337 0
M  V30 752 H 67.2466 4.7349 -3.85538 0
M  V30 753 H 68.6606 2.78083 -5.01341 0
M  V30 754 H 67.0576 2.2227 -5.57419 0
M  V30 755 H 68.1276 1.09331 -4.72414 0
M  V30 756 N 69.4707 1.49531 0.497807 0
M  V30 757 C 70.7187 1.58865 1.24926 0
M  V30 758 C 71.0397 0.278721 1.92998 0
M  V30 759 O 70.3097 -0.702144 1.82885 0
M  V30 760 H 68.8897 0.585343 0.464094 0
M  V30 761 H 71.5517 1.86174 0.57666 0
M  V30 762 H 70.6477 2.38633 2.01149 0
M  V30 763 N 70.9488 -0.749086 1.3866 0
M  V30 764 C 71.8968 -1.88428 1.36373 0
M  V30 765 C 72.8908 -1.67561 0.248929 0
M  V30 766 O 74.0968 -1.75074 0.41821 0
M  V30 767 H 70.4718 -0.620023 0.42553 0
M  V30 768 H 72.4428 -1.87473 2.32156 0
M  V30 769 C 71.1918 -3.25961 1.21014 0
M  V30 770 H 70.5148 -3.42607 2.06059 0
M  V30 771 H 71.9548 -4.05625 1.23469 0
M  V30 772 C 70.4138 -3.36799 -0.0825941 0
M  V30 773 O 70.9438 -3.87517 -1.05797 0
M  V30 774 N 69.1498 -2.90258 -0.140939 0
M  V30 775 H 68.6968 -2.49174 0.653477 0
M  V30 776 H 68.6548 -2.97889 -1.00545 0
M  V30 777 N 72.4269 -1.23603 -0.977757 0
M  V30 778 C 73.6759 -1.06377 -1.71368 0
M  V30 779 C 73.9889 0.399062 -1.91486 0
M  V30 780 O 75.1949 0.691312 -2.62551 0
M  V30 781 C 73.6509 -1.85512 -3.08404 0
M  V30 782 C 73.2589 -3.36141 -2.96164 0
M  V30 783 C 75.0029 -1.76783 -3.85938 0
M  V30 784 C 72.9099 -4.07659 -4.28449 0
M  V30 785 H 71.8399 -0.394452 -0.642591 0
M  V30 786 H 74.4909 -1.47594 -1.09034 0
M  V30 787 H 72.8729 -1.37103 -3.71509 0
M  V30 788 H 74.0469 -3.92056 -2.42133 0
M  V30 789 H 72.3619 -3.45712 -2.32104 0
M  V30 790 H 74.9589 -2.27526 -4.83876 0
M  V30 791 H 75.3019 -0.731116 -4.0983 0
M  V30 792 H 75.8349 -2.22818 -3.2954 0
M  V30 793 H 72.5739 -5.11648 -4.09752 0
M  V30 794 H 72.0939 -3.5653 -4.82334 0
M  V30 795 H 73.7729 -4.141 -4.97122 0
M  V30 796 N 73.905 1.17692 -1.04816 0
M  V30 797 C 74.835 2.23777 -0.666791 0
M  V30 798 C 75.816 1.66796 0.33361 0
M  V30 799 O 77.001 1.93039 0.212042 0
M  V30 800 C 74.131 3.47281 -0.0367933 0
M  V30 801 C 73.085 4.17059 -0.961546 0
M  V30 802 C 72.411 5.34342 -0.195626 0
M  V30 803 C 73.711 4.69713 -2.28402 0
M  V30 804 H 75.405 2.55933 -1.55367 0
M  V30 805 H 72.951 1.23019 -0.748484 0
M  V30 806 H 74.904 4.20706 0.241775 0
M  V30 807 H 73.628 3.14381 0.885004 0
M  V30 808 H 72.287 3.45541 -1.22462 0
M  V30 809 H 71.935 4.97692 0.728816 0
M  V30 810 H 71.635 5.81966 -0.811775 0
M  V30 811 H 73.159 6.10553 0.0757473 0
M  V30 812 H 74.573 5.34794 -2.06563 0
M  V30 813 H 72.97 5.279 -2.8538 0
M  V30 814 H 74.04 3.86726 -2.92525 0
M  V30 815 N 75.3831 0.828654 1.34056 0
M  V30 816 C 76.6081 0.431637 2.02859 0
M  V30 817 C 77.0331 -0.956339 1.61975 0
M  V30 818 O 76.3911 -1.62338 0.807228 0
M  V30 819 C 76.4391 0.548323 3.56407 0
M  V30 820 O 75.5431 -0.429556 4.10157 0
M  V30 821 H 74.8841 0.176886 0.640006 0
M  V30 822 H 77.4141 1.12066 1.71179 0
M  V30 823 H 77.4241 0.426196 4.05768 0
M  V30 824 H 76.0991 1.5606 3.8551 0
M  V30 825 H 74.6761 -0.265836 3.71951 0
M  V30 826 N 76.8612 -1.46375 0.584142 0
M  V30 827 C 78.0912 -2.06461 0.0758195 0
M  V30 828 C 78.4992 -1.43322 -1.23512 0
M  V30 829 O 77.8422 -0.533216 -1.75791 0
M  V30 830 C 77.9042 -3.59131 -0.162773 0
M  V30 831 C 77.5682 -4.4447 1.06279 0
M  V30 832 C 78.5652 -4.80918 1.97519 0
M  V30 833 C 76.2502 -4.85584 1.28504 0
M  V30 834 C 78.2442 -5.57309 3.09331 0
M  V30 835 C 75.9312 -5.61734 2.4062 0
M  V30 836 C 76.9292 -5.9751 3.30863 0
M  V30 837 O 76.6172 -6.72121 4.41032 0
M  V30 838 H 76.3492 -0.673745 0.0551725 0
M  V30 839 H 78.9032 -1.88969 0.804984 0
M  V30 840 H 77.1332 -3.74936 -0.946565 0
M  V30 841 H 78.8222 -4.0114 -0.619782 0
M  V30 842 H 79.5882 -4.49732 1.81565 0
M  V30 843 H 75.4672 -4.57187 0.591702 0
M  V30 844 H 79.0112 -5.85152 3.79793 0
M  V30 845 H 74.9082 -5.92334 2.56537 0
M  V30 846 H 75.6762 -6.90547 4.39417 0
M  V30 847 N 78.3393 -0.321999 -1.54275 0
M  V30 848 C 79.2893 0.560185 -2.21011 0
M  V30 849 C 80.2733 1.08283 -1.19011 0
M  V30 850 O 81.4653 1.02011 -1.44647 0
M  V30 851 C 78.5943 1.72137 -2.97025 0
M  V30 852 C 77.6803 1.21369 -4.06363 0
M  V30 853 N 78.0713 0.425566 -5.04007 0
M  V30 854 C 76.3693 1.49255 -4.20284 0
M  V30 855 C 77.0703 0.152601 -5.815 0
M  V30 856 N 76.0463 0.738294 -5.38563 0
M  V30 857 H 79.8483 -0.049265 -2.93859 0
M  V30 858 H 77.3623 -0.127779 -1.61897 0
M  V30 859 H 79.3593 2.36512 -3.43319 0
M  V30 860 H 78.0193 2.33431 -2.25699 0
M  V30 861 H 79.0303 0.068551 -5.17855 0
M  V30 862 H 75.7073 2.11145 -3.60172 0
M  V30 863 H 77.0973 -0.481764 -6.70171 0
M  V30 864 N 79.8174 1.5752 -0.0501392 0
M  V30 865 C 80.7644 2.1147 0.924603 0
M  V30 866 C 81.7344 1.02182 1.30951 0
M  V30 867 O 82.9194 1.29723 1.39916 0
M  V30 868 C 80.0594 2.66337 2.19451 0
M  V30 869 C 79.1724 3.89708 1.86418 0
M  V30 870 C 78.3074 4.32893 3.07859 0
M  V30 871 C 77.3464 5.48967 2.70742 0
M  V30 872 N 76.4834 5.87211 3.84874 0
M  V30 873 H 81.3234 2.94465 0.457639 0
M  V30 874 H 78.8604 1.45531 0.214266 0
M  V30 875 H 80.8184 2.96247 2.93758 0
M  V30 876 H 79.4484 1.86141 2.63726 0
M  V30 877 H 78.5004 3.66396 1.02264 0
M  V30 878 H 79.8124 4.74074 1.55096 0
M  V30 879 H 78.9664 4.6435 3.90466 0
M  V30 880 H 77.7054 3.47336 3.42358 0
M  V30 881 H 76.7104 5.17183 1.86551 0
M  V30 882 H 77.9354 6.3624 2.37436 0
M  V30 883 H 75.8814 5.04607 4.19175 0
M  V30 884 H 75.7984 6.66266 3.57247 0
M  V30 885 H 77.0664 6.23282 4.68123 0
M  V30 886 N 81.2955 -0.223234 1.56011 0
M  V30 887 C 82.5435 -0.946003 1.78592 0
M  V30 888 C 82.8645 -1.84936 0.618349 0
M  V30 889 O 82.1345 -1.92473 -0.364833 0
M  V30 890 H 80.7145 -0.352298 0.658707 0
M  V30 891 H 83.3765 -0.235494 1.93472 0
M  V30 892 H 82.4725 -1.55381 2.70672 0
M  V30 893 N 82.7736 -1.49793 -0.48987 0
M  V30 894 C 84.0206 -1.59841 -1.24327 0
M  V30 895 C 84.3486 -0.290135 -1.92324 0
M  V30 896 O 83.6036 0.722749 -1.81865 0
M  V30 897 C 83.9026 -2.71488 -2.32441 0
M  V30 898 C 83.5686 -4.12614 -1.81826 0
M  V30 899 C 82.2306 -4.51017 -1.67742 0
M  V30 900 C 84.5826 -5.00892 -1.4407 0
M  V30 901 C 81.9106 -5.75459 -1.14297 0
M  V30 902 C 84.2626 -6.25863 -0.920742 0
M  V30 903 C 82.9266 -6.63086 -0.766383 0
M  V30 904 H 82.1966 -0.584899 -0.454944 0
M  V30 905 H 84.8436 -1.83663 -0.542215 0
M  V30 906 H 83.1486 -2.4168 -3.0838 0
M  V30 907 H 84.8456 -2.76469 -2.90458 0
M  V30 908 H 81.4356 -3.82307 -1.93751 0
M  V30 909 H 85.6196 -4.7187 -1.53794 0
M  V30 910 H 80.8756 -6.02989 -1.01068 0
M  V30 911 H 85.0496 -6.9364 -0.619448 0
M  V30 912 H 82.6766 -7.59393 -0.350083 0
M  V30 913 N 84.2517 0.741722 -1.39055 0
M  V30 914 C 85.4917 1.51385 -1.37338 0
M  V30 915 C 85.8557 1.91972 0.0330513 0
M  V30 916 O 87.0567 2.68229 0.175174 0
M  V30 917 C 85.3277 2.72481 -2.31276 0
M  V30 918 S 86.8867 3.62211 -2.47687 0
M  V30 919 H 83.7047 0.517906 -0.487129 0
M  V30 920 H 86.3067 0.86969 -1.7509 0
M  V30 921 H 85.0107 2.40793 -3.32336 0
M  V30 922 H 84.5417 3.41832 -1.94716 0
M  V30 923 H 86.5567 4.65812 -1.70978 0
M  V30 924 N 85.7298 1.2412 0.971189 0
M  V30 925 C 86.6628 0.97373 2.06382 0
M  V30 926 C 87.6408 -0.0912662 1.62344 0
M  V30 927 O 88.8248 0.0449365 1.88446 0
M  V30 928 C 85.9518 0.468746 3.35441 0
M  V30 929 C 84.9978 1.52176 3.98428 0
M  V30 930 S 85.8308 3.10203 4.36503 0
M  V30 931 C 86.9868 2.61398 5.68702 0
M  V30 932 H 87.2198 1.89893 2.28753 0
M  V30 933 H 84.7528 1.07466 1.10862 0
M  V30 934 H 86.7108 0.184012 4.10087 0
M  V30 935 H 85.3718 -0.435688 3.11064 0
M  V30 936 H 84.5648 1.11876 4.91426 0
M  V30 937 H 84.1668 1.75632 3.30196 0
M  V30 938 H 86.4588 2.03992 6.4606 0
M  V30 939 H 87.4018 3.52972 6.13854 0
M  V30 940 H 87.8098 2.01941 5.27143 0
M  V30 941 N 87.2079 -1.17134 1.05439 0
M  V30 942 C 88.4549 -1.87456 0.765942 0
M  V30 943 C 88.7829 -1.81189 -0.707153 0
M  V30 944 O 88.0379 -1.21633 -1.5331 0
M  V30 945 C 88.3369 -3.36833 1.19491 0
M  V30 946 C 88.0029 -3.63301 2.67063 0
M  V30 947 C 86.6649 -3.70234 3.07376 0
M  V30 948 C 89.0169 -3.74575 3.62413 0
M  V30 949 C 86.3449 -3.85933 4.41896 0
M  V30 950 C 88.6969 -3.91793 4.9667 0
M  V30 951 C 87.3609 -3.96966 5.36633 0
M  V30 952 H 86.6309 -0.685948 0.280278 0
M  V30 953 H 89.2779 -1.38556 1.32192 0
M  V30 954 H 87.5829 -3.87807 0.557969 0
M  V30 955 H 89.2799 -3.89611 0.948893 0
M  V30 956 H 85.8699 -3.58532 2.34846 0
M  V30 957 H 90.0539 -3.68537 3.32406 0
M  V30 958 H 85.3099 -3.88187 4.72357 0
M  V30 959 H 89.4839 -3.99458 5.70444 0
M  V30 960 H 87.1109 -4.08883 6.40874 0
M  V30 961 N 88.686 -0.835752 -1.33615 0
M  V30 962 C 89.963 -0.352017 -1.92406 0
M  V30 963 C 90.343 1.16225 -1.76224 0
M  V30 964 O 89.691 1.97526 -1.14873 0
M  V30 965 C 89.901 -0.795485 -3.39813 0
M  V30 966 C 91.249 -0.801703 -4.16963 0
M  V30 967 O 92.273 -0.738889 -3.48452 0
M  V30 968 O 91.132 -0.886607 -5.3926 0
M  V30 969 H 88.226 -0.0989641 -0.821057 0
M  V30 970 H 90.772 -0.921397 -1.42507 0
M  V30 971 H 89.544 -1.83795 -3.45449 0
M  V30 972 H 89.167 -0.202505 -3.97084 0
M  V30 973 N 90.1641 1.46063 -0.591896 0
M  V30 974 C 91.0971 2.27452 0.184617 0
M  V30 975 C 92.0751 1.36188 0.888351 0
M  V30 976 O 93.2591 1.65606 0.90039 0
M  V30 977 C 90.3861 3.14162 1.26571 0
M  V30 978 C 89.4321 4.21255 0.666814 0
M  V30 979 S 90.2651 5.33034 -0.513345 0
M  V30 980 C 91.4211 6.23311 0.56872 0
M  V30 981 H 91.6541 2.92963 -0.505939 0
M  V30 982 H 89.1871 1.49676 -0.379014 0
M  V30 983 H 91.1451 3.6468 1.88463 0
M  V30 984 H 89.8061 2.47946 1.92826 0
M  V30 985 H 88.9991 4.81788 1.47974 0
M  V30 986 H 88.6011 3.73797 0.123359 0
M  V30 987 H 90.8931 6.61758 1.45198 0
M  V30 988 H 91.8361 7.081 -7.23824e-05 0
M  V30 989 H 92.2441 5.57646 0.876996 0
M  V30 990 N 91.6422 0.330177 1.54103 0
M  V30 991 C 92.5522 -0.541534 2.28264 0
M  V30 992 C 93.5682 -1.12351 1.32866 0
M  V30 993 O 94.7442 -1.14206 1.65888 0
M  V30 994 C 91.8092 -1.68322 3.03098 0
M  V30 995 C 90.8702 -1.13238 4.14096 0
M  V30 996 C 90.1032 -2.21966 4.85352 0
M  V30 997 O 90.3262 -3.42437 4.56172 0
M  V30 998 O 89.2602 -1.87013 5.7211 0
M  V30 999 H 93.0862 0.060938 3.03639 0
M  V30 1000 H 90.6712 0.09565 1.49093 0
M  V30 1001 H 92.5532 -2.34777 3.49939 0
M  V30 1002 H 91.2282 -2.27176 2.30593 0
M  V30 1003 H 90.1352 -0.432736 3.71589 0
M  V30 1004 H 91.4682 -0.588898 4.88664 0
M  V30 1005 N 93.1203 -1.57491 0.0584922 0
M  V30 1006 C 94.3603 -1.94851 -0.617458 0
M  V30 1007 C 94.7243 -0.937165 -1.67575 0
M  V30 1008 O 95.9253 -1.19795 -2.40629 0
M  V30 1009 C 94.1963 -3.36955 -1.19147 0
M  V30 1010 S 95.7553 -3.96277 -1.8844 0
M  V30 1011 H 92.5733 -0.681539 -0.202547 0
M  V30 1012 H 95.1753 -1.95073 0.129176 0
M  V30 1013 H 93.8793 -4.08355 -0.409215 0
M  V30 1014 H 93.4103 -3.40245 -1.97476 0
M  V30 1015 H 95.4253 -3.82099 -3.16568 0
M  V30 1016 N 94.5984 0.214957 -1.56127 0
M  V30 1017 C 95.5484 1.27006 -1.8935 0
M  V30 1018 C 96.5324 1.41969 -0.757202 0
M  V30 1019 O 97.7244 1.44673 -1.01973 0
M  V30 1020 C 94.8534 2.61911 -2.2194 0
M  V30 1021 C 93.9394 2.50822 -3.41978 0
M  V30 1022 N 94.3304 2.09391 -4.60423 0
M  V30 1023 C 92.6284 2.81765 -3.45723 0
M  V30 1024 C 93.3294 2.09712 -5.42582 0
M  V30 1025 N 92.3054 2.50454 -4.82466 0
M  V30 1026 H 96.1074 0.940734 -2.78437 0
M  V30 1027 H 93.6214 0.423492 -1.56781 0
M  V30 1028 H 95.6184 3.38096 -2.43919 0
M  V30 1029 H 94.2784 2.95684 -1.34169 0
M  V30 1030 H 95.2894 1.80416 -4.85459 0
M  V30 1031 H 91.9664 3.19865 -2.68314 0
M  V30 1032 H 93.3564 1.79748 -6.4741 0
M  V30 1033 N 96.0765 1.50051 0.48192 0
M  V30 1034 C 97.0235 1.68122 1.58125 0
M  V30 1035 C 97.9935 0.522545 1.57666 0
M  V30 1036 O 99.1785 0.751844 1.75362 0
M  V30 1037 C 96.3185 1.77142 2.96167 0
M  V30 1038 C 95.4315 3.0444 3.06497 0
M  V30 1039 C 94.5665 3.04321 4.35387 0
M  V30 1040 C 93.6055 4.26118 4.3942 0
M  V30 1041 N 92.7425 4.238 5.59766 0
M  V30 1042 H 97.5825 2.6198 1.42022 0
M  V30 1043 H 95.1195 1.29877 0.690687 0
M  V30 1044 H 97.0775 1.80352 3.76203 0
M  V30 1045 H 95.7075 0.867329 3.1093 0
M  V30 1046 H 94.7595 3.10752 2.19402 0
M  V30 1047 H 96.0715 3.94426 3.05336 0
M  V30 1048 H 95.2255 3.062 5.23762 0
M  V30 1049 H 93.9645 2.12147 4.39141 0
M  V30 1050 H 92.9695 4.24463 3.49444 0
M  V30 1051 H 94.1945 5.19507 4.37366 0
M  V30 1052 H 92.1405 3.34474 5.64326 0
M  V30 1053 H 92.0575 5.07542 5.60301 0
M  V30 1054 H 93.3255 4.2981 6.50295 0
M  V30 1055 N 97.5546 -0.734337 1.39446 0
M  V30 1056 C 98.5016 -1.84835 1.38219 0
M  V30 1057 C 99.4716 -1.64331 0.24179 0
M  V30 1058 O 100.657 -1.85728 0.437002 0
M  V30 1059 C 97.7966 -3.22355 1.23212 0
M  V30 1060 C 96.9096 -3.5456 2.46801 0
M  V30 1061 C 96.0446 -4.81485 2.24377 0
M  V30 1062 C 95.0836 -5.06536 3.43639 0
M  V30 1063 N 94.2206 -6.24665 3.20528 0
M  V30 1064 H 99.0606 -1.85219 2.33448 0
M  V30 1065 H 96.5976 -0.905039 1.15963 0
M  V30 1066 H 98.5556 -4.0174 1.12522 0
M  V30 1067 H 97.1856 -3.21248 0.316121 0
M  V30 1068 H 96.2376 -2.69872 2.68092 0
M  V30 1069 H 97.5496 -3.6899 3.3563 0
M  V30 1070 H 96.7036 -5.68852 2.10933 0
M  V30 1071 H 95.4426 -4.6923 1.32944 0
M  V30 1072 H 94.4476 -4.17632 3.5758 0
M  V30 1073 H 95.6726 -5.20676 4.35974 0
M  V30 1074 H 93.6186 -6.13696 2.3176 0
M  V30 1075 H 93.5356 -6.39685 4.02913 0
M  V30 1076 H 94.8036 -7.14868 3.10779 0
M  V30 1077 N 99.0327 -1.24633 -0.964593 0
M  V30 1078 C 100.263 -1.11339 -1.74032 0
M  V30 1079 C 100.671 0.336593 -1.86182 0
M  V30 1080 O 100.014 1.24389 -1.35178 0
M  V30 1081 C 100.076 -1.68284 -3.1768 0
M  V30 1082 C 99.7397 -3.17196 -3.28992 0
M  V30 1083 C 100.737 -4.14308 -3.14078 0
M  V30 1084 C 98.4217 -3.57215 -3.53133 0
M  V30 1085 C 100.416 -5.4942 -3.23135 0
M  V30 1086 C 98.1027 -4.92468 -3.61827 0
M  V30 1087 C 99.1007 -5.8838 -3.46841 0
M  V30 1088 O 98.7887 -7.21173 -3.55197 0
M  V30 1089 H 98.5207 -0.389551 -0.552472 0
M  V30 1090 H 101.075 -1.65282 -1.21946 0
M  V30 1091 H 99.3047 -1.08777 -3.71085 0
M  V30 1092 H 100.994 -1.50234 -3.77074 0
M  V30 1093 H 101.76 -3.84731 -2.95308 0
M  V30 1094 H 97.6387 -2.83063 -3.63863 0
M  V30 1095 H 101.183 -6.24263 -3.11355 0
M  V30 1096 H 97.0797 -5.21714 -3.80111 0
M  V30 1097 H 97.8477 -7.29135 -3.71892 0
M  V30 1098 N 100.511 1.16574 -1.06058 0
M  V30 1099 C 101.759 1.86677 -0.77434 0
M  V30 1100 C 102.08 1.81959 0.701147 0
M  V30 1101 O 101.35 1.2515 1.50713 0
M  V30 1102 H 99.9298 0.691134 -0.283449 0
M  V30 1103 H 102.592 1.41378 -1.34158 0
M  V30 1104 H 101.688 2.92181 -1.09711 0
M  V30 1105 N 101.989 0.842826 1.3317 0
M  V30 1106 C 102.936 0.276885 2.29133 0
M  V30 1107 C 103.906 -0.609527 1.54512 0
M  V30 1108 O 105.091 -0.546955 1.82792 0
M  V30 1109 C 102.231 -0.538707 3.40869 0
M  V30 1110 C 101.344 0.372169 4.30394 0
M  V30 1111 C 100.479 -0.454908 5.29249 0
M  V30 1112 C 99.5179 0.45411 6.10413 0
M  V30 1113 N 98.6549 -0.335075 7.013 0
M  V30 1114 H 103.495 1.10052 2.76934 0
M  V30 1115 H 101.032 0.554161 1.36262 0
M  V30 1116 H 102.99 -1.02709 4.0436 0
M  V30 1117 H 101.62 -1.32727 2.9425 0
M  V30 1118 H 100.672 0.97888 3.6759 0
M  V30 1119 H 101.984 1.0703 4.87182 0
M  V30 1120 H 101.138 -1.00695 5.98285 0
M  V30 1121 H 99.8769 -1.18646 4.73048 0
M  V30 1122 H 98.8819 1.01813 5.40291 0
M  V30 1123 H 100.107 1.18409 6.68697 0
M  V30 1124 H 98.0529 -1.04994 6.47543 0
M  V30 1125 H 97.9699 0.304262 7.55387 0
M  V30 1126 H 99.2379 -0.869224 7.74638 0
M  V30 1127 N 103.467 -1.45747 0.599634 0
M  V30 1128 C 104.713 -2.02592 0.0918643 0
M  V30 1129 C 105.046 -1.46806 -1.27128 0
M  V30 1130 O 104.321 -0.639658 -1.83681 0
M  V30 1131 C 104.604 -3.60073 0.0443398 0
M  V30 1132 C 104.457 -4.26208 1.43759 0
M  V30 1133 C 105.776 -4.35309 -0.647608 0
M  V30 1134 H 102.895 -0.736175 0.034857 0
M  V30 1135 H 105.537 -1.73694 0.770081 0
M  V30 1136 H 103.687 -3.84823 -0.533224 0
M  V30 1137 H 105.359 -4.12668 2.06162 0
M  V30 1138 H 103.602 -3.84916 2.00056 0
M  V30 1139 H 104.273 -5.35069 1.35665 0
M  V30 1140 H 106.749 -4.15805 -0.156776 0
M  V30 1141 H 105.625 -5.45038 -0.649942 0
M  V30 1142 H 105.886 -4.07598 -1.71219 0
M  V30 1143 N 104.945 -0.338344 -1.53925 0
M  V30 1144 C 106.191 0.252842 -2.01822 0
M  V30 1145 C 106.546 1.48612 -1.22197 0
M  V30 1146 O 105.839 1.89238 -0.299892 0
M  V30 1147 C 106.033 0.62448 -3.51902 0
M  V30 1148 C 105.862 -0.571235 -4.46057 0
M  V30 1149 C 104.632 -1.07493 -4.93734 0
M  V30 1150 C 106.83 -1.42807 -4.94076 0
M  V30 1151 N 104.812 -2.23351 -5.71828 0
M  V30 1152 C 106.183 -2.43362 -5.70241 0
M  V30 1153 C 108.238 -1.45412 -4.76193 0
M  V30 1154 C 106.941 -3.46346 -6.30426 0
M  V30 1155 C 108.967 -2.47274 -5.37224 0
M  V30 1156 C 108.329 -3.46555 -6.13253 0
M  V30 1157 H 104.428 0.0559669 -0.779995 0
M  V30 1158 H 107.012 -0.476732 -1.88773 0
M  V30 1159 H 105.183 1.32317 -3.65167 0
M  V30 1160 H 106.915 1.19841 -3.86549 0
M  V30 1161 H 103.67 -0.643848 -4.69203 0
M  V30 1162 H 104.094 -2.81834 -6.15548 0
M  V30 1163 H 108.736 -0.700171 -4.16962 0
M  V30 1164 H 106.454 -4.22638 -6.88769 0
M  V30 1165 H 110.04 -2.50109 -5.25297 0
M  V30 1166 H 108.92 -4.24083 -6.59638 0
M  V30 1167 N 106.423 1.57458 -0.0668435 0
M  V30 1168 C 107.671 1.92919 0.602214 0
M  V30 1169 C 107.992 0.947215 1.70449 0
M  V30 1170 O 107.262 -0.00544117 1.95899 0
M  V30 1171 H 105.842 0.71217 0.22544 0
M  V30 1172 H 108.504 1.94508 -0.123535 0
M  V30 1173 H 107.6 2.94589 1.03073 0
M  V30 1174 N 107.901 -0.206675 1.56239 0
M  V30 1175 C 109.148 -0.928842 1.79941 0
M  V30 1176 C 109.476 -1.83734 0.638131 0
M  V30 1177 O 108.731 -1.92039 -0.376746 0
M  V30 1178 C 109.03 -1.78675 3.09532 0
M  V30 1179 C 108.696 -1.03022 4.38973 0
M  V30 1180 C 107.358 -0.821302 4.74139 0
M  V30 1181 C 109.71 -0.497081 5.18824 0
M  V30 1182 C 107.038 -0.0675719 5.86661 0
M  V30 1183 C 109.39 0.24338 6.32132 0
M  V30 1184 C 108.054 0.463422 6.65889 0
M  V30 1185 H 107.324 -0.339887 0.658451 0
M  V30 1186 H 109.971 -0.195977 1.90495 0
M  V30 1187 H 108.276 -2.58794 2.94165 0
M  V30 1188 H 109.973 -2.34792 3.25075 0
M  V30 1189 H 106.563 -1.20306 4.11369 0
M  V30 1190 H 110.747 -0.645921 4.92079 0
M  V30 1191 H 106.003 0.112995 6.11296 0
M  V30 1192 H 110.177 0.66393 6.93228 0
M  V30 1193 H 107.804 1.04938 7.52922 0
M  V30 1194 N 109.379 -1.50304 -0.473955 0
M  V30 1195 C 110.609 -1.64663 -1.24778 0
M  V30 1196 C 111.017 -0.328174 -1.86332 0
M  V30 1197 O 110.36 0.699536 -1.69859 0
M  V30 1198 C 110.422 -2.6778 -2.39863 0
M  V30 1199 C 110.086 -4.11413 -1.98969 0
M  V30 1200 C 111.083 -4.97372 -1.51385 0
M  V30 1201 C 108.768 -4.57312 -2.07777 0
M  V30 1202 C 110.762 -6.27277 -1.13148 0
M  V30 1203 C 108.449 -5.87223 -1.69152 0
M  V30 1204 C 109.447 -6.72031 -1.21915 0
M  V30 1205 O 109.135 -7.99518 -0.838237 0
M  V30 1206 H 108.867 -0.556602 -0.383627 0
M  V30 1207 H 111.421 -1.9726 -0.572491 0
M  V30 1208 H 109.651 -2.30419 -3.10554 0
M  V30 1209 H 111.34 -2.71388 -3.01833 0
M  V30 1210 H 112.106 -4.63128 -1.44004 0
M  V30 1211 H 107.985 -3.91449 -2.43493 0
M  V30 1212 H 111.529 -6.93425 -0.762077 0
M  V30 1213 H 107.426 -6.20989 -1.76191 0
M  V30 1214 H 108.194 -8.12764 -0.967339 0
M  V30 1215 N 110.857 0.726932 -1.39834 0
M  V30 1216 C 112.134 1.47902 -1.28001 0
M  V30 1217 C 112.514 2.1083 0.106789 0
M  V30 1218 O 111.862 1.99242 1.11869 0
M  V30 1219 C 112.072 2.52392 -2.41038 0
M  V30 1220 C 113.42 3.18546 -2.80737 0
M  V30 1221 O 114.444 2.62708 -2.40547 0
M  V30 1222 O 113.303 4.19604 -3.50135 0
M  V30 1223 H 110.397 0.657163 -0.502062 0
M  V30 1224 H 112.943 0.760071 -1.51727 0
M  V30 1225 H 111.715 2.04329 -3.33715 0
M  V30 1226 H 111.338 3.31837 -2.19021 0
M  V30 1227 N 112.336 1.25143 0.95797 0
M  V30 1228 C 113.584 1.09476 1.69881 0
M  V30 1229 C 113.905 -0.365502 1.91544 0
M  V30 1230 O 113.175 -1.25985 1.50015 0
M  V30 1231 H 111.755 0.402128 0.629525 0
M  V30 1232 H 114.417 1.57214 1.15194 0
M  V30 1233 H 113.513 1.60046 2.6794 0
M  V30 1234 N 113.814 -1.1601 1.06675 0
M  V30 1235 C 114.746 -2.20115 0.638921 0
M  V30 1236 C 115.759 -1.59916 -0.305057 0
M  V30 1237 O 116.948 -1.78245 -0.0954446 0
M  V30 1238 C 114.048 -3.38798 -0.0830083 0
M  V30 1239 C 113.221 -4.2855 0.875426 0
M  V30 1240 C 112.28 -5.25849 0.192042 0
M  V30 1241 O 111.306 -5.63102 0.830921 0
M  V30 1242 N 112.508 -5.70648 -1.06493 0
M  V30 1243 H 115.273 -2.57439 1.53444 0
M  V30 1244 H 112.834 -1.31057 0.950557 0
M  V30 1245 H 114.826 -4.00936 -0.550685 0
M  V30 1246 H 113.396 -2.99947 -0.880386 0
M  V30 1247 H 112.616 -3.63617 1.52238 0
M  V30 1248 H 113.904 -4.85393 1.52548 0
M  V30 1249 H 113.302 -5.42482 -1.60405 0
M  V30 1250 H 111.859 -6.34859 -1.47641 0
M  V30 1251 N 115.292 -0.849877 -1.32721 0
M  V30 1252 C 116.224 -0.248332 -2.27851 0
M  V30 1253 C 117.237 0.577218 -1.52224 0
M  V30 1254 O 118.426 0.402489 -1.73903 0
M  V30 1255 C 115.526 0.668107 -3.32249 0
M  V30 1256 C 114.699 -0.120534 -4.37234 0
M  V30 1257 C 113.758 0.720932 -5.21238 0
M  V30 1258 O 112.784 0.156166 -5.68986 0
M  V30 1259 N 113.986 2.03647 -5.43607 0
M  V30 1260 H 116.751 -1.06575 -2.80111 0
M  V30 1261 H 114.312 -0.709395 -1.45531 0
M  V30 1262 H 116.304 1.23627 -3.85355 0
M  V30 1263 H 114.874 1.38621 -2.80184 0
M  V30 1264 H 114.094 -0.870108 -3.84477 0
M  V30 1265 H 115.382 -0.662406 -5.0447 0
M  V30 1266 H 114.78 2.51871 -5.06535 0
M  V30 1267 H 113.337 2.55287 -5.99727 0
M  V30 1268 N 116.77 1.45427 -0.607355 0
M  V30 1269 C 118.181 1.85756 -0.187535 0
M  V30 1270 C 118.532 1.5077 1.25551 0
M  V30 1271 O 117.657 0.93427 1.95193 0
M  V30 1272 C 118.252 3.37154 -0.333572 0
M  V30 1273 C 116.811 3.76387 0.0315542 0
M  V30 1274 C 115.958 2.69377 -0.658117 0
M  V30 1275 H 118.909 1.36231 -0.81405 0
M  V30 1276 H 118.93 3.78014 0.43428 0
M  V30 1277 H 118.442 3.62586 -1.38393 0
M  V30 1278 H 116.543 3.56571 1.0811 0
M  V30 1279 H 116.656 4.77731 -0.361935 0
M  V30 1280 H 115.02 2.5452 -0.0957873 0
M  V30 1281 H 115.803 2.97646 -1.7106 0
M  V30 1282 N 118.248 0.346503 1.53744 0
M  V30 1283 C 119.494 -0.249473 2.0126 0
M  V30 1284 C 119.827 -1.49965 1.23386 0
M  V30 1285 O 119.102 -1.91811 0.32229 0
M  V30 1286 C 119.385 -0.560643 3.55709 0
M  V30 1287 C 119.238 0.701836 4.44291 0
M  V30 1288 C 120.557 -1.36905 4.18264 0
M  V30 1289 H 117.676 -0.0891987 0.731582 0
M  V30 1290 H 120.318 0.467624 1.84156 0
M  V30 1291 H 118.468 -1.17156 3.70414 0
M  V30 1292 H 120.14 1.33974 4.41417 0
M  V30 1293 H 118.383 1.32612 4.13033 0
M  V30 1294 H 119.054 0.43933 5.50249 0
M  V30 1295 H 121.53 -0.852448 4.07275 0
M  V30 1296 H 120.406 -1.55553 5.26398 0
M  V30 1297 H 120.667 -2.37203 3.73078 0
M  V30 1298 N 119.726 -1.57421 0.075193 0
M  V30 1299 C 120.656 -2.15942 -0.888324 0
M  V30 1300 C 121.637 -1.08737 -1.30806 0
M  V30 1301 O 122.822 -1.36787 -1.37851 0
M  V30 1302 C 119.952 -2.72379 -2.1547 0
M  V30 1303 C 118.906 -3.8478 -1.87425 0
M  V30 1304 C 118.232 -4.27834 -3.20721 0
M  V30 1305 C 119.532 -5.08869 -1.17684 0
M  V30 1306 H 121.226 -2.96705 -0.400799 0
M  V30 1307 H 118.772 -1.42723 -0.191342 0
M  V30 1308 H 120.725 -3.11965 -2.83295 0
M  V30 1309 H 119.449 -1.88841 -2.6647 0
M  V30 1310 H 118.108 -3.45703 -1.22004 0
M  V30 1311 H 117.756 -3.41214 -3.6957 0
M  V30 1312 H 117.456 -5.03605 -3.02746 0
M  V30 1313 H 118.98 -4.70039 -3.89738 0
M  V30 1314 H 120.394 -5.4575 -1.75584 0
M  V30 1315 H 118.791 -5.8994 -1.09956 0
M  V30 1316 H 119.861 -4.84648 -0.156453 0
M  V30 1317 N 121.204 0.198386 -1.56346 0
M  V30 1318 C 122.167 1.22952 -1.93431 0
M  V30 1319 C 123.167 1.38611 -0.815092 0
M  V30 1320 O 124.357 1.36479 -1.08255 0
M  V30 1321 C 121.489 2.59946 -2.20546 0
M  V30 1322 H 122.682 0.912626 -2.85677 0
M  V30 1323 H 120.235 0.43977 -1.49986 0
M  V30 1324 H 120.97 2.96696 -1.30927 0
M  V30 1325 H 120.755 2.49953 -3.02102 0
M  V30 1326 H 122.245 3.3431 -2.50253 0
M  V30 1327 N 122.682 1.50554 0.465978 0
M  V30 1328 C 123.931 1.61038 1.21448 0
M  V30 1329 C 124.244 0.31865 1.92987 0
M  V30 1330 O 125.45 0.302469 2.6981 0
M  V30 1331 C 123.906 2.84283 2.20706 0
M  V30 1332 C 123.514 4.20352 1.54946 0
M  V30 1333 C 125.258 3.04115 2.96166 0
M  V30 1334 C 123.165 5.34778 2.5252 0
M  V30 1335 H 122.095 0.599718 0.457005 0
M  V30 1336 H 124.746 1.7699 0.484424 0
M  V30 1337 H 123.128 2.61901 2.97025 0
M  V30 1338 H 124.302 4.53008 0.843811 0
M  V30 1339 H 122.617 4.06167 0.917475 0
M  V30 1340 H 125.214 3.86774 3.69202 0
M  V30 1341 H 125.557 2.16045 3.55852 0
M  V30 1342 H 126.09 3.26702 2.26959 0
M  V30 1343 H 122.829 6.25018 1.97566 0
M  V30 1344 H 122.349 5.06534 3.21222 0
M  V30 1345 H 124.028 5.65561 3.14245 0
M  V30 1346 N 124.16 -0.719506 1.40217 0
M  V30 1347 C 125.388 -1.50864 1.41589 0
M  V30 1348 C 125.803 -1.88794 0.0145275 0
M  V30 1349 O 125.16 -1.55174 -0.960594 0
M  V30 1350 C 125.211 -2.78646 2.30302 0
M  V30 1351 O 124.932 -2.42321 3.64983 0
M  V30 1352 C 126.433 -3.72569 2.40224 0
M  V30 1353 H 123.653 -0.465709 0.48307 0
M  V30 1354 H 126.197 -0.88785 1.84221 0
M  V30 1355 H 124.352 -3.37019 1.91042 0
M  V30 1356 H 124.766 -3.24514 4.12057 0
M  V30 1357 H 126.24 -4.5908 3.06512 0
M  V30 1358 H 126.717 -4.15403 1.42608 0
M  V30 1359 H 127.323 -3.20109 2.80019 0
M  V30 1360 N 125.638 -1.25649 -0.95132 0
M  V30 1361 C 126.915 -1.01361 -1.67288 0
M  V30 1362 C 127.295 0.459135 -2.06046 0
M  V30 1363 O 126.643 1.43723 -1.7764 0
M  V30 1364 C 126.853 -1.95256 -2.89268 0
M  V30 1365 C 128.201 -2.23289 -3.61147 0
M  V30 1366 O 129.225 -1.93041 -2.99355 0
M  V30 1367 O 128.084 -2.74741 -4.72419 0
M  V30 1368 H 125.178 -0.38464 -0.732107 0
M  V30 1369 H 127.724 -1.36817 -1.00395 0
M  V30 1370 H 126.496 -2.94685 -2.57442 0
M  V30 1371 H 126.119 -1.60218 -3.6389 0
M  V30 1372 N 127.117 1.15442 -1.07289 0
M  V30 1373 C 128.528 1.67803 -0.818475 0
M  V30 1374 C 128.879 1.8489 0.656507 0
M  V30 1375 O 128.004 1.55176 1.50829 0
M  V30 1376 C 128.599 3.04805 -1.47917 0
M  V30 1377 C 127.158 3.54245 -1.27229 0
M  V30 1378 C 126.305 2.29986 -1.54925 0
M  V30 1379 H 129.256 0.996646 -1.23502 0
M  V30 1380 H 129.277 3.69702 -0.90005 0
M  V30 1381 H 128.789 2.92336 -2.55267 0
M  V30 1382 H 126.89 3.71956 -0.21899 0
M  V30 1383 H 127.003 4.35723 -1.99203 0
M  V30 1384 H 125.367 2.35496 -0.970242 0
M  V30 1385 H 126.15 2.20105 -2.63455 0
M  V30 1386 N 128.595 0.856903 1.32268 0
M  V30 1387 C 129.872 0.382583 1.91822 0
M  V30 1388 C 130.252 -1.13407 1.78051 0
M  V30 1389 O 129.6 -1.95673 1.18001 0
M  V30 1390 C 129.81 0.849446 3.38505 0
M  V30 1391 C 131.158 0.867936 4.15634 0
M  V30 1392 O 132.182 0.794232 3.47232 0
M  V30 1393 O 131.041 0.972286 5.37781 0
M  V30 1394 H 128.135 0.112014 0.819379 0
M  V30 1395 H 130.681 0.943952 1.41024 0
M  V30 1396 H 129.453 1.89267 3.42482 0
M  V30 1397 H 129.076 0.265652 3.96712 0
M  V30 1398 N 130.073 -1.45103 0.615059 0
M  V30 1399 C 131.006 -2.27717 -0.148408 0
M  V30 1400 C 131.984 -1.37584 -0.866572 0
M  V30 1401 O 133.168 -1.67017 -0.87393 0
M  V30 1402 C 130.295 -3.16136 -1.21557 0
M  V30 1403 C 129.341 -4.22263 -0.599712 0
M  V30 1404 S 130.174 -5.3215 0.598081 0
M  V30 1405 C 131.33 -6.24137 -0.469484 0
M  V30 1406 H 131.563 -2.92121 0.552483 0
M  V30 1407 H 129.096 -1.49054 0.402778 0
M  V30 1408 H 131.054 -3.67633 -1.82638 0
M  V30 1409 H 129.715 -2.50982 -1.88857 0
M  V30 1410 H 128.908 -4.84081 -1.4029 0
M  V30 1411 H 128.51 -3.73945 -0.063876 0
M  V30 1412 H 130.802 -6.63984 -1.34652 0
M  V30 1413 H 131.745 -7.0801 0.112725 0
M  V30 1414 H 132.153 -5.58971 -0.788168 0
M  V30 1415 N 131.551 -0.354651 -1.53558 0
M  V30 1416 C 132.8 0.239504 -2.00273 0
M  V30 1417 C 133.113 1.50759 -1.24623 0
M  V30 1418 O 134.319 2.17968 -1.61871 0
M  V30 1419 C 132.775 0.477341 -3.5672 0
M  V30 1420 C 132.383 -0.775488 -4.41237 0
M  V30 1421 C 134.127 1.02975 -4.11821 0
M  V30 1422 C 132.034 -0.507838 -5.89216 0
M  V30 1423 H 130.964 0.0932743 -0.748208 0
M  V30 1424 H 133.615 -0.471701 -1.77334 0
M  V30 1425 H 131.997 1.24953 -3.7577 0
M  V30 1426 H 133.171 -1.54963 -4.33962 0
M  V30 1427 H 131.486 -1.25033 -3.97185 0
M  V30 1428 H 134.083 1.24513 -5.2 0
M  V30 1429 H 134.426 1.98862 -3.65731 0
M  V30 1430 H 134.959 0.317994 -3.96527 0
M  V30 1431 H 131.698 -1.43674 -6.39561 0
M  V30 1432 H 131.218 0.228011 -5.99366 0
M  V30 1433 H 132.897 -0.129238 -6.46871 0
M  V30 1434 N 133.029 1.57378 -0.0835403 0
M  V30 1435 C 133.976 2.13384 0.879539 0
M  V30 1436 C 134.946 1.04936 1.28754 0
M  V30 1437 O 136.131 1.32662 1.37133 0
M  V30 1438 C 133.271 2.70932 2.13752 0
M  V30 1439 C 132.384 3.93575 1.7811 0
M  V30 1440 C 131.519 4.39326 2.98607 0
M  V30 1441 C 130.558 5.54587 2.59037 0
M  V30 1442 N 129.695 5.95243 3.72331 0
M  V30 1443 H 134.535 2.9537 0.395076 0
M  V30 1444 H 132.072 1.45953 0.183349 0
M  V30 1445 H 134.03 3.02411 2.87408 0
M  V30 1446 H 132.66 1.91693 2.59718 0
M  V30 1447 H 131.712 3.68483 0.94469 0
M  V30 1448 H 133.024 4.77258 1.45005 0
M  V30 1449 H 132.178 4.72528 3.80529 0
M  V30 1450 H 130.917 3.5452 3.34913 0
M  V30 1451 H 129.922 5.21024 1.75539 0
M  V30 1452 H 131.147 6.41133 2.23887 0
M  V30 1453 H 129.093 5.13385 4.08378 0
M  V30 1454 H 129.01 6.73694 3.43034 0
M  V30 1455 H 130.278 6.33072 4.54797 0
M  V30 1456 N 134.507 -0.190092 1.56449 0
M  V30 1457 C 135.735 -0.925772 1.85033 0
M  V30 1458 C 136.15 -1.76638 0.666658 0
M  V30 1459 O 135.507 -1.78822 -0.364565 0
M  V30 1460 C 135.558 -1.81786 3.12468 0
M  V30 1461 O 135.279 -1.01118 4.26271 0
M  V30 1462 C 136.78 -2.6648 3.54265 0
M  V30 1463 H 134 -0.269872 0.614337 0
M  V30 1464 H 136.544 -0.195837 2.0356 0
M  V30 1465 H 134.699 -2.50136 2.95822 0
M  V30 1466 H 135.113 -1.61956 4.98869 0
M  V30 1467 H 136.587 -3.24722 4.46385 0
M  V30 1468 H 137.064 -3.40434 2.77491 0
M  V30 1469 H 137.67 -2.03493 3.73458 0
M  V30 1470 N 135.985 -1.50799 -0.457987 0
M  V30 1471 C 137.231 -1.62683 -1.21088 0
M  V30 1472 C 137.564 -0.332268 -1.91336 0
M  V30 1473 O 136.839 0.667043 -1.82704 0
M  V30 1474 C 137.122 -2.81615 -2.24422 0
M  V30 1475 C 136.975 -4.20989 -1.58392 0
M  V30 1476 C 138.294 -2.96085 -3.2561 0
M  V30 1477 H 135.413 -0.592087 -0.438864 0
M  V30 1478 H 138.055 -1.83225 -0.50286 0
M  V30 1479 H 136.205 -2.64231 -2.84806 0
M  V30 1480 H 137.877 -4.49994 -1.01504 0
M  V30 1481 H 136.12 -4.24641 -0.886704 0
M  V30 1482 H 136.791 -5.0016 -2.33547 0
M  V30 1483 H 139.267 -3.12042 -2.75262 0
M  V30 1484 H 138.143 -3.80902 -3.95228 0
M  V30 1485 H 138.404 -2.0726 -3.90507 0
M  V30 1486 N 137.463 0.71206 -1.40597 0
M  V30 1487 C 138.393 1.83889 -1.43899 0
M  V30 1488 C 139.374 1.67442 -0.299504 0
M  V30 1489 O 140.559 1.87421 -0.508624 0
M  V30 1490 C 137.689 3.21877 -1.30431 0
M  V30 1491 C 136.643 3.53002 -2.42019 0
M  V30 1492 C 135.969 4.90172 -2.13626 0
M  V30 1493 C 137.269 3.53643 -3.84362 0
M  V30 1494 H 138.963 1.81383 -2.38203 0
M  V30 1495 H 136.509 0.871237 -1.14654 0
M  V30 1496 H 138.462 4.00404 -1.31357 0
M  V30 1497 H 137.186 3.24968 -0.326049 0
M  V30 1498 H 135.845 2.76818 -2.40349 0
M  V30 1499 H 135.493 4.89869 -1.14182 0
M  V30 1500 H 135.193 5.11962 -2.88389 0
M  V30 1501 H 136.717 5.71028 -2.1624 0
M  V30 1502 H 138.131 4.22203 -3.87837 0
M  V30 1503 H 136.528 3.86961 -4.58673 0
M  V30 1504 H 137.598 2.52954 -4.13693 0
M  V30 1505 N 138.941 1.26152 0.944643 0
M  V30 1506 C 140.187 1.11657 1.69294 0
M  V30 1507 C 140.52 -0.339926 1.91202 0
M  V30 1508 O 139.795 -1.24994 1.49019 0
M  V30 1509 C 140.078 1.88236 3.06984 0
M  V30 1510 C 139.931 3.41772 2.92424 0
M  V30 1511 C 141.25 1.67343 4.07043 0
M  V30 1512 H 138.369 0.407004 0.614424 0
M  V30 1513 H 141.011 1.55106 1.09737 0
M  V30 1514 H 139.161 1.51308 3.57824 0
M  V30 1515 H 140.833 3.88433 2.48832 0
M  V30 1516 H 139.076 3.68974 2.28124 0
M  V30 1517 H 139.747 3.90579 3.90067 0
M  V30 1518 H 142.223 1.99509 3.65151 0
M  V30 1519 H 141.099 2.23346 5.01406 0
M  V30 1520 H 141.36 0.617158 4.37771 0
M  V30 1521 N 140.419 -1.14872 1.07899 0
M  V30 1522 C 141.366 -2.19791 0.704319 0
M  V30 1523 C 142.336 -1.63238 -0.306987 0
M  V30 1524 O 143.521 -1.8983 -0.192171 0
M  V30 1525 C 140.661 -3.44911 0.114244 0
M  V30 1526 C 139.774 -4.15637 1.1777 0
M  V30 1527 C 138.909 -5.28324 0.552037 0
M  V30 1528 C 137.948 -5.90875 1.59789 0
M  V30 1529 N 137.085 -6.95022 0.994404 0
M  V30 1530 H 141.925 -2.5119 1.60336 0
M  V30 1531 H 139.462 -1.23356 0.801352 0
M  V30 1532 H 141.42 -4.16477 -0.245544 0
M  V30 1533 H 140.05 -3.14011 -0.74813 0
M  V30 1534 H 139.102 -3.42512 1.65499 0
M  V30 1535 H 140.414 -4.5823 1.97046 0
M  V30 1536 H 139.568 -6.06538 0.1402 0
M  V30 1537 H 138.307 -4.86939 -0.272431 0
M  V30 1538 H 137.312 -5.11369 2.01945 0
M  V30 1539 H 138.537 -6.34337 2.42474 0
M  V30 1540 H 136.483 -6.55722 0.190939 0
M  V30 1541 H 136.4 -7.36073 1.72432 0
M  V30 1542 H 137.668 -7.77123 0.608253 0
M  V30 1543 N 141.898 -0.863906 -1.31812 0
M  V30 1544 C 142.808 -0.318461 -2.32428 0
M  V30 1545 C 143.824 0.568496 -1.64451 0
M  V30 1546 O 145 0.46666 -1.95919 0
M  V30 1547 C 142.065 0.476355 -3.43412 0
M  V30 1548 C 141.126 -0.43784 -4.27061 0
M  V30 1549 C 140.359 0.319138 -5.32745 0
M  V30 1550 O 140.582 1.54799 -5.48993 0
M  V30 1551 O 139.516 -0.319861 -6.01049 0
M  V30 1552 H 143.342 -1.15229 -2.80991 0
M  V30 1553 H 140.927 -0.627103 -1.35602 0
M  V30 1554 H 142.809 0.927156 -4.11074 0
M  V30 1555 H 141.484 1.28683 -2.97022 0
M  V30 1556 H 140.391 -0.937013 -3.62175 0
M  V30 1557 H 141.724 -1.21375 -4.77 0
M  V30 1558 N 143.376 1.44774 -0.622745 0
M  V30 1559 C 144.616 2.04004 -0.127102 0
M  V30 1560 C 144.98 1.47862 1.22478 0
M  V30 1561 O 146.181 1.98541 1.81204 0
M  V30 1562 C 144.452 3.57247 -0.104429 0
M  V30 1563 S 146.011 4.37574 0.327814 0
M  V30 1564 H 142.829 0.708713 -0.0569776 0
M  V30 1565 H 145.431 1.77275 -0.824253 0
M  V30 1566 H 144.135 3.95616 -1.09159 0
M  V30 1567 H 143.666 3.88575 0.614236 0
M  V30 1568 H 145.681 4.70575 1.57395 0
M  V30 1569 N 144.854 0.36279 1.53368 0
M  V30 1570 C 146.084 -0.228281 2.05335 0
M  V30 1571 C 146.492 -1.43226 1.23625 0
M  V30 1572 O 145.835 -1.81717 0.269206 0
M  V30 1573 C 145.897 -0.688549 3.52845 0
M  V30 1574 C 145.561 0.398362 4.5526 0
M  V30 1575 C 146.558 1.24732 5.04716 0
M  V30 1576 C 144.243 0.557805 4.99193 0
M  V30 1577 C 146.237 2.2411 5.96702 0
M  V30 1578 C 143.924 1.55495 5.90986 0
M  V30 1579 C 144.922 2.39503 6.39631 0
M  V30 1580 O 144.61 3.37517 7.29615 0
M  V30 1581 H 144.342 -0.044395 0.674541 0
M  V30 1582 H 146.896 0.518668 1.98744 0
M  V30 1583 H 145.126 -1.48706 3.56964 0
M  V30 1584 H 146.815 -1.20231 3.87685 0
M  V30 1585 H 147.581 1.13532 4.71525 0
M  V30 1586 H 143.46 -0.0862959 4.60919 0
M  V30 1587 H 147.004 2.89718 6.34594 0
M  V30 1588 H 142.901 1.66744 6.23592 0
M  V30 1589 H 143.669 3.33213 7.47604 0
M  V30 1590 N 146.332 -1.57332 0.0918853 0
M  V30 1591 C 147.557 -1.98995 -0.584442 0
M  V30 1592 C 147.982 -0.970528 -1.61128 0
M  V30 1593 O 147.34 0.0613904 -1.81196 0
M  V30 1594 C 147.388 -3.39636 -1.21161 0
M  V30 1595 O 146.492 -3.40447 -2.32744 0
M  V30 1596 H 145.833 -0.647165 -0.148572 0
M  V30 1597 H 148.363 -2.03873 0.172347 0
M  V30 1598 H 148.373 -3.7726 -1.55367 0
M  V30 1599 H 147.048 -4.13356 -0.459313 0
M  V30 1600 H 145.625 -3.14614 -2.0018 0
M  V30 1601 N 147.81 0.181792 -1.56548 0
M  V30 1602 C 149.056 0.901431 -1.81665 0
M  V30 1603 C 149.389 1.82347 -0.668075 0
M  V30 1604 O 148.664 1.91669 0.330615 0
M  V30 1605 C 148.947 1.70618 -3.17115 0
M  V30 1606 C 148.8 0.807964 -4.42484 0
M  V30 1607 C 150.119 2.67605 -3.49393 0
M  V30 1608 H 147.238 0.32627 -0.660846 0
M  V30 1609 H 149.88 0.168134 -1.89255 0
M  V30 1610 H 148.03 2.33133 -3.10775 0
M  V30 1611 H 149.702 0.19649 -4.60881 0
M  V30 1612 H 147.945 0.115411 -4.33646 0
M  V30 1613 H 148.616 1.40632 -5.33785 0
M  V30 1614 H 151.092 2.15218 -3.56118 0
M  V30 1615 H 149.968 3.20985 -4.45264 0
M  V30 1616 H 150.229 3.47298 -2.73563 0
M  V30 1617 N 149.288 1.51039 0.449983 0
M  V30 1618 C 150.535 1.63081 1.20045 0
M  V30 1619 C 150.863 0.341024 1.91487 0
M  V30 1620 O 150.118 -0.674276 1.83717 0
M  V30 1621 C 150.417 2.77556 2.25161 0
M  V30 1622 C 150.083 4.17289 1.70823 0
M  V30 1623 C 148.745 4.55305 1.55725 0
M  V30 1624 C 151.097 5.04536 1.3074 0
M  V30 1625 C 148.425 5.78287 0.989999 0
M  V30 1626 C 150.777 6.28085 0.754482 0
M  V30 1627 C 149.441 6.64885 0.590308 0
M  V30 1628 H 148.711 0.596755 0.439277 0
M  V30 1629 H 151.358 1.85037 0.49333 0
M  V30 1630 H 149.663 2.49771 3.01863 0
M  V30 1631 H 151.36 2.84073 2.83026 0
M  V30 1632 H 147.95 3.8731 1.83546 0
M  V30 1633 H 152.134 4.75782 1.41229 0
M  V30 1634 H 147.39 6.05456 0.850451 0
M  V30 1635 H 151.564 6.95038 0.435324 0
M  V30 1636 H 149.191 7.60055 0.14862 0
M  V30 1637 N 150.766 -0.704594 1.40972 0
M  V30 1638 C 151.994 -1.49354 1.43182 0
M  V30 1639 C 152.409 -1.88768 0.0345508 0
M  V30 1640 O 151.766 -1.56184 -0.944081 0
M  V30 1641 C 151.817 -2.76187 2.33244 0
M  V30 1642 O 151.538 -2.38436 3.67532 0
M  V30 1643 C 153.039 -3.7 2.44162 0
M  V30 1644 H 150.259 -0.460559 0.487982 0
M  V30 1645 H 152.803 -0.868261 1.85153 0
M  V30 1646 H 150.958 -3.34974 1.94606 0
M  V30 1647 H 151.372 -3.20126 4.15475 0
M  V30 1648 H 152.846 -4.55803 3.11364 0
M  V30 1649 H 153.323 -4.13867 1.47006 0
M  V30 1650 H 153.929 -3.17121 2.83398 0
M  V30 1651 N 152.244 -1.26651 -0.937939 0
M  V30 1652 C 153.192 -1.08308 -2.05845 0
M  V30 1653 C 154.186 -0.0090757 -1.69398 0
M  V30 1654 O 155.392 -0.166007 -1.79233 0
M  V30 1655 H 151.767 -0.333416 -0.674046 0
M  V30 1656 H 153.738 -2.03261 -2.18467 0
M  V30 1657 C 152.487 -0.736229 -3.39816 0
M  V30 1658 H 151.81 -1.55453 -3.6834 0
M  V30 1659 H 153.25 -0.64769 -4.19024 0
M  V30 1660 C 151.709 0.558824 -3.32233 0
M  V30 1661 O 152.239 1.59621 -3.68624 0
M  V30 1662 N 150.445 0.550657 -2.85335 0
M  V30 1663 H 149.992 -0.293943 -2.55917 0
M  V30 1664 H 149.95 1.41726 -2.80644 0
M  V30 1665 N 153.722 1.14298 -1.08507 0
M  V30 1666 C 155.138 1.37347 -0.812901 0
M  V30 1667 C 155.338 1.93052 0.577325 0
M  V30 1668 O 154.394 2.14389 1.33393 0
M  V30 1669 C 155.707 2.33359 -1.89642 0
M  V30 1670 C 157.255 2.46996 -1.92255 0
M  V30 1671 C 157.73 3.46309 -2.99724 0
M  V30 1672 N 159.221 3.53853 -2.98902 0
M  V30 1673 C 159.956 4.3055 -3.787 0
M  V30 1674 N 159.452 5.10482 -4.6838 0
M  V30 1675 N 161.245 4.25757 -3.66998 0
M  V30 1676 H 153.396 0.764867 -1.9815 0
M  V30 1677 H 155.659 0.398966 -0.859959 0
M  V30 1678 H 155.365 1.99565 -2.89597 0
M  V30 1679 H 155.239 3.33274 -1.76659 0
M  V30 1680 H 157.626 2.80081 -0.929445 0
M  V30 1681 H 157.707 1.47039 -2.09316 0
M  V30 1682 H 157.351 3.13957 -3.99241 0
M  V30 1683 H 157.281 4.46049 -2.79907 0
M  V30 1684 H 159.772 2.96812 -2.33904 0
M  V30 1685 H 160.085 5.66284 -5.25873 0
M  V30 1686 H 158.43 5.09747 -4.72422 0
M  V30 1687 H 161.621 3.62383 -2.96304 0
M  V30 1688 H 161.794 4.85279 -4.29427 0
M  V30 1689 N 155.201 0.870884 1.31352 0
M  V30 1690 C 156.617 0.562932 1.49343 0
M  V30 1691 C 156.817 -0.902725 1.80148 0
M  V30 1692 O 155.873 -1.68484 1.88067 0
M  V30 1693 C 157.186 1.46393 2.62659 0
M  V30 1694 C 158.734 1.46607 2.76542 0
M  V30 1695 C 159.209 2.35266 3.92955 0
M  V30 1696 N 160.7 2.33151 4.00243 0
M  V30 1697 C 161.435 2.98471 4.89594 0
M  V30 1698 N 160.931 3.72964 5.8384 0
M  V30 1699 N 162.724 2.87775 4.82848 0
M  V30 1700 H 154.875 1.81923 1.09626 0
M  V30 1701 H 157.138 0.777934 0.541777 0
M  V30 1702 H 156.844 2.50689 2.46674 0
M  V30 1703 H 156.718 1.16314 3.58819 0
M  V30 1704 H 159.105 0.43069 2.9194 0
M  V30 1705 H 159.186 1.8071 1.81046 0
M  V30 1706 H 158.83 3.38881 3.78315 0
M  V30 1707 H 158.76 1.98487 4.87761 0
M  V30 1708 H 161.251 1.79006 3.32814 0
M  V30 1709 H 161.564 4.19932 6.4875 0
M  V30 1710 H 159.909 3.77073 5.83816 0
M  V30 1711 H 163.1 2.29116 4.08195 0
M  V30 1712 H 163.273 3.38961 5.52277 0
M  V30 1713 N 156.679 -1.44442 0.630414 0
M  V30 1714 C 158.09 -1.85434 0.217063 0
M  V30 1715 C 158.441 -1.52748 -1.23136 0
M  V30 1716 O 157.566 -0.965205 -1.93682 0
M  V30 1717 C 158.161 -3.36581 0.387168 0
M  V30 1718 C 156.72 -3.76389 0.0283297 0
M  V30 1719 C 155.867 -2.68296 0.700889 0
M  V30 1720 H 158.818 -1.34919 0.83562 0
M  V30 1721 H 158.839 -3.78657 -0.374086 0
M  V30 1722 H 158.351 -3.60339 1.44144 0
M  V30 1723 H 156.452 -3.58246 -1.02423 0
M  V30 1724 H 156.565 -4.77095 0.437892 0
M  V30 1725 H 154.929 -2.54335 0.136267 0
M  V30 1726 H 155.712 -2.94887 1.75774 0
M  V30 1727 N 158.157 -0.370918 -1.53173 0
M  V30 1728 C 159.404 0.217102 -2.01333 0
M  V30 1729 C 159.732 1.48338 -1.25802 0
M  V30 1730 O 158.987 1.92698 -0.34146 0
M  V30 1731 C 159.286 0.549696 -3.53147 0
M  V30 1732 C 158.952 -0.622872 -4.46577 0
M  V30 1733 C 157.614 -0.944595 -4.71838 0
M  V30 1734 C 159.966 -1.40819 -5.01816 0
M  V30 1735 C 157.294 -2.05351 -5.49589 0
M  V30 1736 C 159.646 -2.50757 -5.80778 0
M  V30 1737 C 158.31 -2.83458 -6.04324 0
M  V30 1738 H 157.58 0.0794431 -0.736729 0
M  V30 1739 H 160.227 -0.504481 -1.84736 0
M  V30 1740 H 158.532 1.35237 -3.6772 0
M  V30 1741 H 160.229 1.017 -3.87889 0
M  V30 1742 H 156.819 -0.36209 -4.27068 0
M  V30 1743 H 161.003 -1.17289 -4.82242 0
M  V30 1744 H 156.259 -2.3108 -5.6605 0
M  V30 1745 H 160.433 -3.12022 -6.22588 0
M  V30 1746 H 158.06 -3.69508 -6.64355 0
M  V30 1747 N 159.635 1.57281 -0.100228 0
M  V30 1748 C 160.883 1.94153 0.561157 0
M  V30 1749 C 161.204 0.983157 1.68401 0
M  V30 1750 O 160.474 0.0361132 1.95867 0
M  V30 1751 H 159.054 0.716791 0.210283 0
M  V30 1752 H 161.716 1.94202 -0.164765 0
M  V30 1753 H 160.812 2.96709 0.968008 0
M  V30 1754 N 161.113 -0.173488 1.56642 0
M  V30 1755 C 162.524 -0.736155 1.71574 0
M  V30 1756 C 162.875 -1.82888 0.710389 0
M  V30 1757 O 162 -2.16017 -0.1287 0
M  V30 1758 C 162.595 -1.34211 3.11083 0
M  V30 1759 C 161.154 -1.85162 3.27707 0
M  V30 1760 C 160.301 -0.729765 2.67525 0
M  V30 1761 H 163.252 0.0518786 1.58615 0
M  V30 1762 H 163.273 -2.21178 3.09613 0
M  V30 1763 H 162.785 -0.546579 3.84232 0
M  V30 1764 H 160.886 -2.67366 2.59512 0
M  V30 1765 H 160.999 -1.99855 4.35425 0
M  V30 1766 H 159.363 -1.14965 2.27278 0
M  V30 1767 H 160.146 0.0538806 3.43258 0
M  V30 1768 N 162.591 -1.51276 -0.441967 0
M  V30 1769 C 163.837 -1.63958 -1.19355 0
M  V30 1770 C 164.17 -0.352543 -1.90973 0
M  V30 1771 O 163.445 0.647627 -1.83401 0
M  V30 1772 C 163.728 -2.83979 -2.21422 0
M  V30 1773 C 163.581 -4.22646 -1.53918 0
M  V30 1774 C 164.9 -2.99521 -3.22451 0
M  V30 1775 H 162.019 -0.596709 -0.432559 0
M  V30 1776 H 164.661 -1.83748 -0.483398 0
M  V30 1777 H 162.811 -2.67237 -2.81987 0
M  V30 1778 H 164.483 -4.51045 -0.967256 0
M  V30 1779 H 162.726 -4.25558 -0.841615 0
M  V30 1780 H 163.397 -5.02609 -2.28229 0
M  V30 1781 H 165.873 -3.14944 -2.71937 0
M  V30 1782 H 164.749 -3.85072 -3.91166 0
M  V30 1783 H 165.01 -2.11391 -3.88287 0
M  V30 1784 N 164.069 0.697108 -1.41344 0
M  V30 1785 C 165.317 1.45426 -1.40341 0
M  V30 1786 C 165.638 1.94996 -0.0128787 0
M  V30 1787 O 164.908 1.71599 0.945027 0
M  V30 1788 H 163.488 0.539594 -0.516573 0
M  V30 1789 H 166.15 0.825201 -1.76569 0
M  V30 1790 H 165.246 2.31817 -2.08967 0
M  V30 1791 N 165.547 1.27147 0.931209 0
M  V30 1792 C 166.794 1.13278 1.67852 0
M  V30 1793 C 167.122 -0.32204 1.91815 0
M  V30 1794 O 166.377 -1.25224 1.50391 0
M  V30 1795 C 166.676 1.8579 3.05314 0
M  V30 1796 C 166.342 3.35657 3.01073 0
M  V30 1797 C 165.004 3.76536 2.99623 0
M  V30 1798 C 167.356 4.31299 2.92627 0
M  V30 1799 C 164.684 5.11426 2.87506 0
M  V30 1800 C 167.036 5.66242 2.82051 0
M  V30 1801 C 165.7 6.06418 2.7895 0
M  V30 1802 H 164.97 0.414515 0.614214 0
M  V30 1803 H 167.617 1.57712 1.08624 0
M  V30 1804 H 165.922 1.33854 3.68226 0
M  V30 1805 H 167.619 1.72491 3.62005 0
M  V30 1806 H 164.209 3.03146 3.02986 0
M  V30 1807 H 168.393 4.00692 2.92848 0
M  V30 1808 H 163.649 5.41705 2.83489 0
M  V30 1809 H 167.823 6.40026 2.74481 0
M  V30 1810 H 165.45 7.10895 2.69318 0
M  V30 1811 N 167.025 -1.13721 1.09112 0
M  V30 1812 C 167.958 -2.18094 0.67158 0
M  V30 1813 C 168.936 -1.59414 -0.320299 0
M  V30 1814 O 170.12 -1.87183 -0.222444 0
M  V30 1815 C 167.247 -3.38698 -0.0111189 0
M  V30 1816 C 166.293 -4.15966 0.942055 0
M  V30 1817 S 167.126 -4.7604 2.45246 0
M  V30 1818 C 168.282 -5.99994 1.78208 0
M  V30 1819 H 168.515 -2.53344 1.55577 0
M  V30 1820 H 166.048 -1.24967 0.906789 0
M  V30 1821 H 168.006 -4.08559 -0.398716 0
M  V30 1822 H 166.667 -3.01756 -0.871905 0
M  V30 1823 H 165.86 -5.02318 0.411396 0
M  V30 1824 H 165.462 -3.51745 1.2709 0
M  V30 1825 H 167.754 -6.68441 1.10424 0
M  V30 1826 H 168.697 -6.57662 2.62463 0
M  V30 1827 H 169.105 -5.50432 1.25238 0
M  V30 1828 N 168.503 -0.877838 -1.30888 0
M  V30 1829 C 169.45 -0.337538 -2.28318 0
M  V30 1830 C 170.42 0.568346 -1.56074 0
M  V30 1831 O 171.605 0.498298 -1.84178 0
M  V30 1832 C 168.745 0.448142 -3.42178 0
M  V30 1833 C 167.858 -0.48615 -4.29256 0
M  V30 1834 C 166.993 0.314427 -5.30269 0
M  V30 1835 C 166.032 -0.615791 -6.08995 0
M  V30 1836 N 165.169 0.14902 -7.01942 0
M  V30 1837 H 170.009 -1.17356 -2.73919 0
M  V30 1838 H 167.546 -0.590094 -1.34745 0
M  V30 1839 H 169.504 0.919517 -4.06941 0
M  V30 1840 H 168.134 1.24879 -2.97666 0
M  V30 1841 H 167.186 -1.076 -3.64865 0
M  V30 1842 H 168.498 -1.19909 -4.84173 0
M  V30 1843 H 167.652 0.847969 -6.00745 0
M  V30 1844 H 166.391 1.06062 -4.76027 0
M  V30 1845 H 165.396 -1.16102 -5.37401 0
M  V30 1846 H 166.621 -1.36097 -6.65323 0
M  V30 1847 H 164.567 0.877884 -6.50099 0
M  V30 1848 H 164.484 -0.504433 -7.54315 0
M  V30 1849 H 165.752 0.663537 -7.76671 0
M  V30 1850 N 169.982 1.44106 -0.638065 0
M  V30 1851 C 171.207 2.0685 -0.150916 0
M  V30 1852 C 171.632 1.47417 1.16833 0
M  V30 1853 O 170.99 0.578264 1.71831 0
M  V30 1854 C 171.038 3.60555 -0.05708 0
M  V30 1855 O 170.142 4.00465 0.984972 0
M  V30 1856 H 169.483 0.658151 -0.0879399 0
M  V30 1857 H 172.013 1.84865 -0.876707 0
M  V30 1858 H 172.023 4.07789 0.131232 0
M  V30 1859 H 170.698 4.03193 -1.02021 0
M  V30 1860 H 169.275 3.64849 0.770672 0
M  V30 1861 N 171.46 0.379036 1.52974 0
M  V30 1862 C 172.423 -0.448865 2.24762 0
M  V30 1863 C 173.423 -0.998689 1.26027 0
M  V30 1864 O 174.613 -0.882313 1.50203 0
M  V30 1865 C 171.745 -1.62872 2.99476 0
M  V30 1866 H 172.938 0.179491 2.99362 0
M  V30 1867 H 170.491 0.13096 1.5575 0
M  V30 1868 H 171.226 -2.29479 2.29151 0
M  V30 1869 H 171.011 -1.24128 3.71934 0
M  V30 1870 H 172.501 -2.2151 3.5401 0
M  V30 1871 N 172.938 -1.57226 0.108567 0
M  V30 1872 C 174.187 -1.94008 -0.551703 0
M  V30 1873 C 174.5 -0.993442 -1.68494 0
M  V30 1874 O 175.706 -1.25551 -2.40726 0
M  V30 1875 C 174.162 -3.44763 -1.03279 0
M  V30 1876 C 173.77 -4.47943 0.0714193 0
M  V30 1877 C 175.514 -3.90483 -1.66503 0
M  V30 1878 C 173.421 -5.89865 -0.425779 0
M  V30 1879 H 172.351 -0.724206 -0.209863 0
M  V30 1880 H 175.002 -1.82547 0.186741 0
M  V30 1881 H 173.384 -3.51422 -1.82533 0
M  V30 1882 H 174.558 -4.52942 0.847365 0
M  V30 1883 H 172.873 -4.11913 0.609669 0
M  V30 1884 H 175.47 -4.93925 -2.04798 0
M  V30 1885 H 175.813 -3.29877 -2.53942 0
M  V30 1886 H 176.346 -3.86581 -0.938074 0
M  V30 1887 H 173.085 -6.54202 0.412316 0
M  V30 1888 H 172.605 -5.88309 -1.16843 0
M  V30 1889 H 174.284 -6.40844 -0.890397 0
M  V30 1890 N 174.416 0.165178 -1.56732 0
M  V30 1891 C 175.641 0.900253 -1.86843 0
M  V30 1892 C 176.066 1.74766 -0.695596 0
M  V30 1893 O 175.424 1.77786 0.35522 0
M  V30 1894 C 175.472 1.74777 -3.15413 0
M  V30 1895 O 174.576 2.85007 -2.98068 0
M  V30 1896 H 173.917 0.251832 -0.614391 0
M  V30 1897 H 176.447 0.161468 -2.03962 0
M  V30 1898 H 176.457 2.14646 -3.46974 0
M  V30 1899 H 175.132 1.12537 -4.00385 0
M  V30 1900 H 173.709 2.48676 -2.77875 0
M  V30 1901 N 175.894 1.51508 0.433938 0
M  V30 1902 C 177.143 1.63578 1.18005 0
M  V30 1903 C 177.456 0.359514 1.92268 0
M  V30 1904 O 178.662 0.359632 2.69108 0
M  V30 1905 C 177.118 2.88901 2.14626 0
M  V30 1906 C 176.726 4.23544 1.45995 0
M  V30 1907 C 178.47 3.10328 2.89649 0
M  V30 1908 C 176.377 5.40014 2.4112 0
M  V30 1909 H 175.307 0.609277 0.444182 0
M  V30 1910 H 177.958 1.77978 0.446773 0
M  V30 1911 H 176.34 2.68142 2.91403 0
M  V30 1912 H 177.514 4.54696 0.747532 0
M  V30 1913 H 175.829 4.08021 0.831115 0
M  V30 1914 H 178.426 3.94518 3.60915 0
M  V30 1915 H 178.769 2.23544 3.51189 0
M  V30 1916 H 179.302 3.31443 2.19978 0
M  V30 1917 H 176.041 6.29068 1.84264 0
M  V30 1918 H 175.561 5.13233 3.10406 0
M  V30 1919 H 177.24 5.72099 3.02177 0
M  V30 1920 N 177.372 -0.689602 1.41712 0
M  V30 1921 C 178.335 -1.78521 1.43746 0
M  V30 1922 C 179.335 -1.57436 0.327191 0
M  V30 1923 O 180.525 -1.64 0.587348 0
M  V30 1924 C 177.657 -3.16971 1.25467 0
M  V30 1925 H 178.85 -1.78108 2.41283 0
M  V30 1926 H 176.403 -0.89781 1.27942 0
M  V30 1927 H 177.138 -3.23019 0.287948 0
M  V30 1928 H 176.923 -3.33678 2.05917 0
M  V30 1929 H 178.413 -3.96935 1.2974 0
M  V30 1930 N 178.85 -1.27639 -0.924453 0
M  V30 1931 C 179.76 -1.12466 -2.05885 0
M  V30 1932 C 180.776 -0.053869 -1.73917 0
M  V30 1933 O 181.952 -0.261012 -1.99702 0
M  V30 1934 C 179.017 -0.776768 -3.37886 0
M  V30 1935 C 178.078 -1.92878 -3.83532 0
M  V30 1936 C 177.311 -1.59739 -5.09234 0
M  V30 1937 O 177.534 -0.506782 -5.68144 0
M  V30 1938 O 176.468 -2.43761 -5.50331 0
M  V30 1939 H 180.294 -2.07671 -2.21599 0
M  V30 1940 H 177.879 -1.06857 -1.04413 0
M  V30 1941 H 179.761 -0.596229 -4.17161 0
M  V30 1942 H 178.436 0.145732 -3.23372 0
M  V30 1943 H 177.343 -2.1644 -3.0513 0
M  V30 1944 H 178.676 -2.8316 -4.02593 0
M  V30 1945 N 180.328 1.1314 -1.09713 0
M  V30 1946 C 181.605 1.80762 -0.747302 0
M  V30 1947 C 181.985 1.96663 0.767265 0
M  V30 1948 O 181.333 1.53706 1.69076 0
M  V30 1949 C 181.543 3.15606 -1.48975 0
M  V30 1950 C 182.891 3.90914 -1.65746 0
M  V30 1951 O 183.915 3.25239 -1.45251 0
M  V30 1952 O 182.774 5.08718 -1.9967 0
M  V30 1953 H 179.868 0.782103 -0.268782 0
M  V30 1954 H 182.414 1.20041 -1.19951 0
M  V30 1955 H 181.186 2.99278 -2.52088 0
M  V30 1956 H 180.809 3.84029 -1.02991 0
M  V30 1957 N 181.806 0.884767 1.30421 0
M  V30 1958 C 182.716 0.355398 2.31892 0
M  V30 1959 C 183.732 -0.542261 1.65335 0
M  V30 1960 O 184.908 -0.435432 1.96637 0
M  V30 1961 C 181.973 -0.421661 3.44126 0
M  V30 1962 C 181.034 0.505727 4.26311 0
M  V30 1963 C 180.267 -0.234343 5.33185 0
M  V30 1964 O 180.49 -1.46045 5.51386 0
M  V30 1965 O 179.424 0.415443 6.00465 0
M  V30 1966 H 183.25 1.19685 2.79122 0
M  V30 1967 H 180.835 0.648596 1.34587 0
M  V30 1968 H 182.717 -0.861641 4.12497 0
M  V30 1969 H 181.392 -1.23942 2.99032 0
M  V30 1970 H 180.299 0.994513 3.60639 0
M  V30 1971 H 181.632 1.28948 4.75009 0
M  V30 1972 N 183.284 -1.43765 0.645699 0
M  V30 1973 C 184.194 -2.34544 -0.0512957 0
M  V30 1974 C 185.21 -1.53455 -0.82022 0
M  V30 1975 O 186.386 -1.86133 -0.769176 0
M  V30 1976 C 183.451 -3.31636 -1.01087 0
M  V30 1977 C 182.512 -4.2863 -0.239712 0
M  V30 1978 C 181.745 -5.21084 -1.15358 0
M  V30 1979 O 181.968 -5.1779 -2.39269 0
M  V30 1980 O 180.902 -5.98593 -0.630038 0
M  V30 1981 H 184.728 -2.95624 0.695718 0
M  V30 1982 H 182.313 -1.43781 0.405882 0
M  V30 1983 H 184.195 -3.9136 -1.56254 0
M  V30 1984 H 182.87 -2.73069 -1.73824 0
M  V30 1985 H 181.777 -3.72408 0.355356 0
M  V30 1986 H 183.11 -4.90157 0.447936 0
M  V30 1987 N 184.763 -0.387143 -1.52771 0
M  V30 1988 C 186.009 0.188506 -2.02525 0
M  V30 1989 C 186.364 1.44649 -1.26864 0
M  V30 1990 O 185.657 1.88189 -0.359945 0
M  V30 1991 C 185.851 0.512209 -3.53711 0
M  V30 1992 C 185.68 -0.712855 -4.44014 0
M  V30 1993 C 184.45 -1.23147 -4.90064 0
M  V30 1994 C 186.648 -1.58453 -4.89282 0
M  V30 1995 N 184.63 -2.41431 -5.64433 0
M  V30 1996 C 186.001 -2.61381 -5.6221 0
M  V30 1997 C 188.056 -1.60488 -4.71326 0
M  V30 1998 C 186.759 -3.66227 -6.19088 0
M  V30 1999 C 188.785 -2.6424 -5.29085 0
M  V30 2000 C 188.147 -3.6589 -6.01917 0
M  V30 2001 H 184.246 0.0311236 -0.78138 0
M  V30 2002 H 186.83 -0.536548 -1.87161 0
M  V30 2003 H 185.001 1.20632 -3.69192 0
M  V30 2004 H 186.733 1.07482 -3.90166 0
M  V30 2005 H 183.488 -0.792795 -4.66917 0
M  V30 2006 H 183.912 -3.01274 -6.0627 0
M  V30 2007 H 188.554 -0.83247 -4.14524 0
M  V30 2008 H 186.272 -4.44337 -6.74974 0
M  V30 2009 H 189.858 -2.66695 -5.17074 0
M  V30 2010 H 188.738 -4.44855 -6.45813 0
M  V30 2011 N 186.241 1.57166 -0.116904 0
M  V30 2012 C 187.188 2.15202 0.83408 0
M  V30 2013 C 188.158 1.07644 1.26499 0
M  V30 2014 O 189.343 1.35541 1.34288 0
M  V30 2015 C 186.483 2.75405 2.07957 0
M  V30 2016 C 185.596 3.97264 1.69721 0
M  V30 2017 C 184.731 4.45561 2.89221 0
M  V30 2018 C 183.77 5.59956 2.47215 0
M  V30 2019 N 182.907 6.03006 3.59622 0
M  V30 2020 H 187.747 2.96141 0.332335 0
M  V30 2021 H 185.284 1.46309 0.152349 0
M  V30 2022 H 187.242 3.08439 2.80929 0
M  V30 2023 H 185.872 1.97159 2.55594 0
M  V30 2024 H 184.924 3.70404 0.866316 0
M  V30 2025 H 186.236 4.80226 1.34849 0
M  V30 2026 H 185.39 4.80493 3.7042 0
M  V30 2027 H 184.129 3.61544 3.27318 0
M  V30 2028 H 183.134 5.2463 1.64448 0
M  V30 2029 H 184.359 6.45738 2.10238 0
M  V30 2030 H 182.305 5.21931 3.97396 0
M  V30 2031 H 182.222 6.80819 3.28667 0
M  V30 2032 H 183.49 6.42576 4.41267 0
M  V30 2033 N 187.719 -0.156864 1.56817 0
M  V30 2034 C 189.135 -0.50916 1.5126 0
M  V30 2035 C 189.335 -1.83897 0.823658 0
M  V30 2036 O 188.391 -2.49469 0.390055 0
M  V30 2037 C 189.704 -0.52857 2.96018 0
M  V30 2038 C 191.252 -0.614771 3.06903 0
M  V30 2039 C 191.727 -0.664938 4.53147 0
M  V30 2040 N 193.218 -0.727433 4.57452 0
M  V30 2041 C 193.953 -0.787067 5.67973 0
M  V30 2042 N 193.449 -0.806649 6.88088 0
M  V30 2043 N 195.242 -0.827195 5.5598 0
M  V30 2044 H 187.393 0.714935 2.00006 0
M  V30 2045 H 189.656 0.259526 0.911784 0
M  V30 2046 H 189.362 0.380154 3.49639 0
M  V30 2047 H 189.236 -1.36998 3.51442 0
M  V30 2048 H 191.623 -1.51392 2.53307 0
M  V30 2049 H 191.704 0.253597 2.5454 0
M  V30 2050 H 191.348 0.230011 5.07379 0
M  V30 2051 H 191.278 -1.54966 5.03282 0
M  V30 2052 H 193.769 -0.719998 3.70978 0
M  V30 2053 H 194.082 -0.853727 7.6807 0
M  V30 2054 H 192.427 -0.774687 6.90669 0
M  V30 2055 H 195.618 -0.808998 4.61056 0
M  V30 2056 H 195.791 -0.870206 6.4213 0
M  V30 2057 N 189.197 -1.51736 -0.425897 0
M  V30 2058 C 190.127 -1.76827 -1.52494 0
M  V30 2059 C 191.108 -0.618524 -1.58456 0
M  V30 2060 O 192.293 -0.862416 -1.74 0
M  V30 2061 C 189.423 -1.90374 -2.90474 0
M  V30 2062 C 188.377 -3.0588 -2.99369 0
M  V30 2063 C 187.703 -3.04625 -4.3944 0
M  V30 2064 C 189.003 -4.45644 -2.72394 0
M  V30 2065 H 190.697 -2.68855 -1.31748 0
M  V30 2066 H 188.243 -1.29372 -0.632362 0
M  V30 2067 H 190.196 -2.0651 -3.6733 0
M  V30 2068 H 188.92 -0.95004 -3.12477 0
M  V30 2069 H 187.579 -2.89467 -2.24954 0
M  V30 2070 H 187.227 -2.0701 -4.58428 0
M  V30 2071 H 186.927 -3.82195 -4.46319 0
M  V30 2072 H 188.451 -3.22869 -5.18255 0
M  V30 2073 H 189.865 -4.62348 -3.38979 0
M  V30 2074 H 188.262 -5.25006 -2.9067 0
M  V30 2075 H 189.332 -4.54893 -1.67929 0
M  V30 2076 N 190.675 0.682077 -1.42076 0
M  V30 2077 C 192.091 0.994324 -1.24841 0
M  V30 2078 C 192.291 2.0096 -0.147389 0
M  V30 2079 O 191.347 2.47822 0.483782 0
M  V30 2080 C 192.66 1.50607 -2.60265 0
M  V30 2081 C 194.208 1.62421 -2.6756 0
M  V30 2082 C 194.683 2.16994 -4.03333 0
M  V30 2083 N 196.174 2.24337 -4.0525 0
M  V30 2084 C 196.909 2.67621 -5.07116 0
M  V30 2085 N 196.405 3.1041 -6.19368 0
M  V30 2086 N 198.198 2.67305 -4.94474 0
M  V30 2087 H 190.349 0.00973908 -2.12398 0
M  V30 2088 H 192.612 0.0668593 -0.945639 0
M  V30 2089 H 192.318 0.834583 -3.41654 0
M  V30 2090 H 192.192 2.48602 -2.83684 0
M  V30 2091 H 194.579 2.28678 -1.86521 0
M  V30 2092 H 194.66 0.629352 -2.47937 0
M  V30 2093 H 194.304 1.51349 -4.84826 0
M  V30 2094 H 194.234 3.17258 -4.20304 0
M  V30 2095 H 196.725 1.94158 -3.24209 0
M  V30 2096 H 197.038 3.42103 -6.92954 0
M  V30 2097 H 195.383 3.08286 -6.22884 0
M  V30 2098 H 198.574 2.33233 -4.05857 0
M  V30 2099 H 198.747 3.00718 -5.73997 0
M  V30 2100 N 192.153 1.28127 0.917671 0
M  V30 2101 C 193.378 1.18007 1.70555 0
M  V30 2102 C 193.803 -0.258257 1.86319 0
M  V30 2103 O 193.161 -1.1869 1.37049 0
M  V30 2104 C 193.209 1.87948 3.07746 0
M  V30 2105 O 192.313 1.18427 3.9503 0
M  V30 2106 H 191.654 0.409867 0.522403 0
M  V30 2107 H 194.184 1.69379 1.1477 0
M  V30 2108 H 194.194 1.95701 3.58001 0
M  V30 2109 H 192.869 2.92573 2.95591 0
M  V30 2110 H 191.446 1.18811 3.53466 0
M  V30 2111 N 193.631 -1.12557 1.10312 0
M  V30 2112 C 194.561 -2.20341 0.772798 0
M  V30 2113 C 195.542 -1.68198 -0.25365 0
M  V30 2114 O 196.727 -1.93831 -0.119699 0
M  V30 2115 C 193.857 -3.46709 0.202443 0
M  V30 2116 C 192.811 -4.11996 1.15943 0
M  V30 2117 C 192.137 -5.328 0.450345 0
M  V30 2118 C 193.437 -4.5828 2.50552 0
M  V30 2119 H 195.131 -2.48229 1.674 0
M  V30 2120 H 192.677 -1.19308 0.806326 0
M  V30 2121 H 194.63 -4.2138 -0.0407752 0
M  V30 2122 H 193.354 -3.18245 -0.734001 0
M  V30 2123 H 192.013 -3.39305 1.38808 0
M  V30 2124 H 191.661 -5.00602 -0.490531 0
M  V30 2125 H 191.361 -5.7743 1.08851 0
M  V30 2126 H 192.885 -6.10219 0.215642 0
M  V30 2127 H 194.299 -5.2433 2.31843 0
M  V30 2128 H 192.696 -5.13683 3.10242 0
M  V30 2129 H 193.766 -3.72329 3.10643 0
M  V30 2130 N 195.109 -0.891671 -1.2995 0
M  V30 2131 C 196.039 -0.379797 -2.30391 0
M  V30 2132 C 197.02 0.540919 -1.6127 0
M  V30 2133 O 198.205 0.453352 -1.88834 0
M  V30 2134 C 195.335 0.400654 -3.44981 0
M  V30 2135 C 194.289 -0.428905 -4.25846 0
M  V30 2136 C 193.615 0.478557 -5.32554 0
M  V30 2137 C 194.915 -1.67458 -4.94727 0
M  V30 2138 H 196.609 -1.21914 -2.73454 0
M  V30 2139 H 194.155 -0.587675 -1.31462 0
M  V30 2140 H 196.108 0.769434 -4.14316 0
M  V30 2141 H 194.832 1.27371 -3.0074 0
M  V30 2142 H 193.491 -0.779911 -3.58208 0
M  V30 2143 H 193.139 1.34951 -4.84559 0
M  V30 2144 H 192.839 -0.0727433 -5.87555 0
M  V30 2145 H 194.363 0.843705 -6.04743 0
M  V30 2146 H 195.777 -1.376 -5.56542 0
M  V30 2147 H 194.174 -2.16659 -5.59624 0
M  V30 2148 H 195.244 -2.41518 -4.20473 0
M  V30 2149 N 196.587 1.43421 -0.653314 0
M  V30 2150 C 197.812 2.06678 -0.172846 0
M  V30 2151 C 198.237 1.48648 1.15262 0
M  V30 2152 O 197.595 0.596457 1.71208 0
M  V30 2153 C 197.643 3.60474 -0.0953184 0
M  V30 2154 O 196.747 4.01487 0.942442 0
M  V30 2155 H 196.088 0.657181 -0.0949155 0
M  V30 2156 H 198.618 1.83925 -0.896265 0
M  V30 2157 H 198.628 4.07905 0.0879728 0
M  V30 2158 H 197.303 4.02088 -1.06291 0
M  V30 2159 H 195.88 3.65646 0.731932 0
M  V30 2160 N 198.065 0.39524 1.52563 0
M  V30 2161 C 199.476 -0.0774719 1.86539 0
M  V30 2162 C 199.827 -1.45641 1.31466 0
M  V30 2163 O 198.952 -2.06459 0.648367 0
M  V30 2164 C 199.547 -0.147356 3.38479 0
M  V30 2165 C 198.106 -0.564373 3.72145 0
M  V30 2166 C 197.253 0.269919 2.75983 0
M  V30 2167 H 200.204 0.612876 1.46388 0
M  V30 2168 H 200.225 -0.965343 3.68051 0
M  V30 2169 H 199.737 0.856387 3.78534 0
M  V30 2170 H 197.838 -1.57527 3.37663 0
M  V30 2171 H 197.951 -0.318402 4.78041 0
M  V30 2172 H 196.315 -0.265696 2.5331 0
M  V30 2173 H 197.098 1.27175 3.18875 0
M  V30 2174 N 199.544 -1.57102 0.125237 0
M  V30 2175 C 200.772 -1.99761 -0.538797 0
M  V30 2176 C 201.187 -1.00503 -1.59827 0
M  V30 2177 O 200.544 0.00119474 -1.825 0
M  V30 2178 C 200.595 -3.42408 -1.15927 0
M  V30 2179 O 200.316 -4.37869 -0.142143 0
M  V30 2180 C 201.817 -4.00232 -1.90602 0
M  V30 2181 H 199.037 -0.655772 -0.14214 0
M  V30 2182 H 201.581 -2.03383 0.213413 0
M  V30 2183 H 199.736 -3.39706 -1.86223 0
M  V30 2184 H 200.15 -5.21128 -0.593775 0
M  V30 2185 H 201.624 -5.02105 -2.29335 0
M  V30 2186 H 202.101 -3.39721 -2.78363 0
M  V30 2187 H 202.707 -4.06499 -1.25055 0
M  V30 2188 N 201.022 0.148545 -1.56898 0
M  V30 2189 C 202.269 0.861418 -1.83264 0
M  V30 2190 C 202.597 1.81239 -0.705883 0
M  V30 2191 O 201.852 1.93305 0.305212 0
M  V30 2192 C 202.151 1.67064 -3.1595 0
M  V30 2193 C 201.817 0.866591 -4.42494 0
M  V30 2194 C 200.479 0.644762 -4.76861 0
M  V30 2195 C 202.831 0.30418 -5.20312 0
M  V30 2196 C 200.159 -0.15021 -5.86508 0
M  V30 2197 C 202.511 -0.477824 -6.30793 0
M  V30 2198 C 201.175 -0.710244 -6.63711 0
M  V30 2199 H 200.445 0.315215 -0.670612 0
M  V30 2200 H 203.092 0.125142 -1.91091 0
M  V30 2201 H 201.397 2.47698 -3.03567 0
M  V30 2202 H 203.094 2.22566 -3.33565 0
M  V30 2203 H 199.684 1.04955 -4.15551 0
M  V30 2204 H 203.868 0.462844 -4.94137 0
M  V30 2205 H 199.124 -0.339796 -6.10455 0
M  V30 2206 H 203.298 -0.92076 -6.90286 0
M  V30 2207 H 200.925 -1.3281 -7.48509 0
M  V30 2208 N 202.5 1.5196 0.417844 0
M  V30 2209 C 203.728 1.69426 1.18753 0
M  V30 2210 C 204.143 0.399955 1.84515 0
M  V30 2211 O 203.5 -0.623288 1.71527 0
M  V30 2212 C 203.551 2.82375 2.25714 0
M  V30 2213 O 203.272 4.06793 1.62638 0
M  V30 2214 C 204.773 3.11277 3.15628 0
M  V30 2215 H 201.993 0.568031 0.357186 0
M  V30 2216 H 204.537 1.98475 0.49273 0
M  V30 2217 H 202.692 2.5587 2.90877 0
M  V30 2218 H 203.106 4.69667 2.3348 0
M  V30 2219 H 204.58 3.93843 3.86771 0
M  V30 2220 H 205.057 2.24473 3.77503 0
M  V30 2221 H 205.663 3.39515 2.56144 0
M  V30 2222 N 203.978 -0.674533 1.42435 0
M  V30 2223 C 205.203 -1.46784 1.46524 0
M  V30 2224 C 205.628 -1.87938 0.078066 0
M  V30 2225 O 204.986 -1.56014 -0.92354 0
M  V30 2226 C 205.034 -2.69307 2.39805 0
M  V30 2227 O 204.138 -3.67587 1.86959 0
M  V30 2228 H 203.479 -0.440959 0.496439 0
M  V30 2229 H 206.009 -0.827326 1.87127 0
M  V30 2230 H 206.019 -3.17374 2.56393 0
M  V30 2231 H 204.694 -2.38692 3.40586 0
M  V30 2232 H 203.271 -3.2662 1.79927 0
M  V30 2233 N 205.456 -1.28612 -0.910864 0
M  V30 2234 C 206.704 -1.15705 -1.65701 0
M  V30 2235 C 207.025 0.29416 -1.92769 0
M  V30 2236 O 206.295 1.20331 -1.54588 0
M  V30 2237 H 204.875 -0.425216 -0.614167 0
M  V30 2238 H 207.537 -1.61381 -1.0928 0
M  V30 2239 H 206.633 -1.6988 -2.61815 0
M  V30 2240 N 206.934 1.1197 -1.10907 0
M  V30 2241 C 207.881 2.17846 -0.762345 0
M  V30 2242 C 208.851 1.63995 0.263599 0
M  V30 2243 O 210.036 1.90273 0.141773 0
M  V30 2244 C 207.176 3.44487 -0.205651 0
M  V30 2245 C 206.289 4.12369 -1.28748 0
M  V30 2246 C 205.424 5.26674 -0.691919 0
M  V30 2247 C 204.463 5.86431 -1.75399 0
M  V30 2248 N 203.6 6.92142 -1.17833 0
M  V30 2249 H 208.44 2.46851 -1.6694 0
M  V30 2250 H 205.977 1.21188 -0.833776 0
M  V30 2251 H 207.935 4.16981 0.135037 0
M  V30 2252 H 206.565 3.15884 0.664613 0
M  V30 2253 H 205.617 3.38003 -1.74522 0
M  V30 2254 H 206.929 4.52844 -2.09125 0
M  V30 2255 H 206.083 6.05953 -0.300963 0
M  V30 2256 H 204.822 4.8749 0.143232 0
M  V30 2257 H 203.827 5.05835 -2.15432 0
M  V30 2258 H 205.052 6.27685 -2.59208 0
M  V30 2259 H 202.998 6.54985 -0.364725 0
M  V30 2260 H 202.915 7.31242 -1.91887 0
M  V30 2261 H 204.183 7.75237 -0.81408 0
M  V30 2262 N 208.412 0.89855 1.29475 0
M  V30 2263 C 209.342 0.39201 2.30186 0
M  V30 2264 C 210.323 -0.532359 1.61555 0
M  V30 2265 O 211.508 -0.443331 1.89072 0
M  V30 2266 C 208.638 -0.382353 3.45189 0
M  V30 2267 C 207.592 0.451483 4.25612 0
M  V30 2268 C 206.918 -0.450307 5.328 0
M  V30 2269 C 208.218 1.70079 4.93832 0
M  V30 2270 H 209.912 1.23362 2.72804 0
M  V30 2271 H 207.458 0.594638 1.31149 0
M  V30 2272 H 209.411 -0.747451 4.14718 0
M  V30 2273 H 208.135 -1.25774 3.01411 0
M  V30 2274 H 206.794 0.798897 3.57789 0
M  V30 2275 H 206.442 -1.32379 4.85268 0
M  V30 2276 H 206.142 0.103902 5.87508 0
M  V30 2277 H 207.666 -0.811623 6.05182 0
M  V30 2278 H 209.08 1.40549 5.55805 0
M  V30 2279 H 207.477 2.19623 5.58467 0
M  V30 2280 H 208.547 2.43744 4.19186 0
M  V30 2281 N 209.89 -1.43072 0.660911 0
M  V30 2282 C 210.837 -2.30785 -0.0259884 0
M  V30 2283 C 211.807 -1.45184 -0.806888 0
M  V30 2284 O 212.992 -1.74041 -0.781943 0
M  V30 2285 C 210.132 -3.30861 -0.981067 0
M  V30 2286 C 209.245 -4.31558 -0.195458 0
M  V30 2287 C 208.38 -5.18712 -1.14503 0
M  V30 2288 C 207.419 -6.11097 -0.350299 0
M  V30 2289 N 206.556 -6.90849 -1.25186 0
M  V30 2290 H 211.396 -2.88975 0.727846 0
M  V30 2291 H 208.933 -1.42353 0.370682 0
M  V30 2292 H 210.891 -3.87399 -1.54849 0
M  V30 2293 H 209.521 -2.74304 -1.70169 0
M  V30 2294 H 208.573 -3.77252 0.488374 0
M  V30 2295 H 209.885 -4.9701 0.422176 0
M  V30 2296 H 209.039 -5.79914 -1.78284 0
M  V30 2297 H 207.778 -4.53404 -1.79656 0
M  V30 2298 H 206.783 -5.48976 0.300808 0
M  V30 2299 H 208.008 -6.7845 0.296941 0
M  V30 2300 H 205.954 -6.28182 -1.89005 0
M  V30 2301 H 205.871 -7.52854 -0.688971 0
M  V30 2302 H 207.139 -7.5655 -1.87757 0
M  V30 2303 N 211.368 -0.403325 -1.52352 0
M  V30 2304 C 212.278 0.432009 -2.30588 0
M  V30 2305 C 213.294 1.05884 -1.38075 0
M  V30 2306 O 214.47 1.06161 -1.71148 0
M  V30 2307 C 211.535 1.53669 -3.10784 0
M  V30 2308 C 210.596 0.933525 -4.19027 0
M  V30 2309 C 209.829 1.98557 -4.9539 0
M  V30 2310 O 210.052 3.20283 -4.71991 0
M  V30 2311 O 208.986 1.59504 -5.80381 0
M  V30 2312 H 212.812 -0.205739 -3.03002 0
M  V30 2313 H 210.397 -0.166675 -1.48467 0
M  V30 2314 H 212.279 2.17814 -3.60742 0
M  V30 2315 H 210.954 2.15915 -2.41169 0
M  V30 2316 H 209.861 0.254954 -3.7323 0
M  V30 2317 H 211.194 0.35508 -4.90918 0
M  V30 2318 N 212.846 1.57033 -0.133567 0
M  V30 2319 C 213.779 2.11824 0.848872 0
M  V30 2320 C 214.757 1.03833 1.2513 0
M  V30 2321 O 215.941 1.31579 1.34978 0
M  V30 2322 C 213.068 2.62692 2.138 0
M  V30 2323 C 212.114 3.82705 1.88253 0
M  V30 2324 S 212.947 5.2438 1.08563 0
M  V30 2325 C 214.103 5.78627 2.38624 0
M  V30 2326 H 214.336 2.94824 0.38289 0
M  V30 2327 H 211.869 1.5419 0.0804796 0
M  V30 2328 H 213.827 2.92652 2.87863 0
M  V30 2329 H 212.488 1.79847 2.57515 0
M  V30 2330 H 211.681 4.16496 2.83809 0
M  V30 2331 H 211.283 3.53437 1.22305 0
M  V30 2332 H 213.575 5.8924 3.34369 0
M  V30 2333 H 214.518 6.76443 2.09358 0
M  V30 2334 H 214.926 5.06783 2.48658 0
M  V30 2335 N 214.325 -0.140222 1.56975 0
M  V30 2336 C 215.571 -0.852949 1.83991 0
M  V30 2337 C 215.904 -1.80512 0.716187 0
M  V30 2338 O 215.179 -1.92479 -0.279681 0
M  V30 2339 C 215.462 -1.6215 3.21527 0
M  V30 2340 C 215.315 -0.690363 4.4447 0
M  V30 2341 C 216.634 -2.58247 3.56366 0
M  V30 2342 H 213.753 -0.308634 0.669264 0
M  V30 2343 H 216.395 -0.117898 1.89634 0
M  V30 2344 H 214.545 -2.24812 3.16847 0
M  V30 2345 H 216.217 -0.0742264 4.6124 0
M  V30 2346 H 214.46 -0.000396433 4.338 0
M  V30 2347 H 215.131 -1.2643 5.37326 0
M  V30 2348 H 217.607 -2.05701 3.61699 0
M  V30 2349 H 216.483 -3.09067 4.53617 0
M  V30 2350 H 216.744 -3.39923 2.82674 0
M  V30 2351 N 215.803 -1.52179 -0.40978 0
M  V30 2352 C 217.214 -1.58377 -0.988615 0
M  V30 2353 C 217.565 -0.423879 -1.91566 0
M  V30 2354 O 216.69 0.455844 -2.11544 0
M  V30 2355 C 217.285 -2.87044 -1.79976 0
M  V30 2356 C 215.844 -2.95722 -2.32863 0
M  V30 2357 C 214.991 -2.53309 -1.12828 0
M  V30 2358 H 217.942 -1.57558 -0.190039 0
M  V30 2359 H 217.963 -2.7236 -2.65707 0
M  V30 2360 H 217.475 -3.71444 -1.12478 0
M  V30 2361 H 215.576 -2.15814 -3.03735 0
M  V30 2362 H 215.689 -3.99951 -2.63773 0
M  V30 2363 H 214.053 -2.07142 -1.48204 0
M  V30 2364 H 214.836 -3.40082 -0.46897 0
M  V30 2365 N 217.281 0.66697 -1.42791 0
M  V30 2366 C 218.53 1.42278 -1.42968 0
M  V30 2367 C 218.843 1.9553 -0.0524489 0
M  V30 2368 O 220.049 2.71414 0.068363 0
M  V30 2369 C 218.505 2.57418 -2.51524 0
M  V30 2370 C 218.113 2.10832 -3.9529 0
M  V30 2371 C 219.857 3.34878 -2.60877 0
M  V30 2372 C 217.764 3.23101 -4.95338 0
M  V30 2373 H 216.694 0.534533 -0.531781 0
M  V30 2374 H 219.345 0.721302 -1.68729 0
M  V30 2375 H 217.727 3.29971 -2.18941 0
M  V30 2376 H 218.901 1.4538 -4.37266 0
M  V30 2377 H 217.216 1.46289 -3.89857 0
M  V30 2378 H 219.813 4.18505 -3.32802 0
M  V30 2379 H 220.156 3.81993 -1.6549 0
M  V30 2380 H 220.689 2.69398 -2.92693 0
M  V30 2381 H 217.428 2.80969 -5.9223 0
M  V30 2382 H 216.948 3.87309 -4.57987 0
M  V30 2383 H 218.627 3.88447 -5.17415 0
M  V30 2384 N 218.759 1.29093 0.90403 0
M  V30 2385 C 220.008 1.16187 1.64874 0
M  V30 2386 C 220.321 -0.286742 1.93487 0
M  V30 2387 O 221.527 -0.537062 2.66135 0
M  V30 2388 C 219.983 2.03177 2.97064 0
M  V30 2389 C 219.591 3.52836 2.76062 0
M  V30 2390 C 221.335 1.98984 3.74974 0
M  V30 2391 C 219.242 4.31945 4.03952 0
M  V30 2392 H 218.172 0.431246 0.618501 0
M  V30 2393 H 220.823 1.53699 1.00243 0
M  V30 2394 H 219.205 1.5853 3.62883 0
M  V30 2395 H 220.379 4.05507 2.18863 0
M  V30 2396 H 218.694 3.58656 2.11553 0
M  V30 2397 H 221.291 2.55351 4.69787 0
M  V30 2398 H 221.634 0.968815 4.0487 0
M  V30 2399 H 222.167 2.41652 3.15989 0
M  V30 2400 H 218.906 5.34667 3.79225 0
M  V30 2401 H 218.426 3.84045 4.60727 0
M  V30 2402 H 220.105 4.42379 4.72133 0
M  V30 2403 N 220.237 -1.11381 1.11499 0
M  V30 2404 C 221.2 -2.15622 0.777153 0
M  V30 2405 C 222.2 -1.59504 -0.203779 0
M  V30 2406 O 223.39 -1.74188 0.020782 0
M  V30 2407 C 220.522 -3.40556 0.153116 0
M  V30 2408 H 221.715 -2.47021 1.70061 0
M  V30 2409 H 219.268 -1.26577 0.916952 0
M  V30 2410 H 220.003 -3.14767 -0.780536 0
M  V30 2411 H 219.788 -3.8257 0.859238 0
M  V30 2412 H 221.278 -4.17546 -0.0671044 0
M  V30 2413 N 221.715 -0.905404 -1.28997 0
M  V30 2414 C 222.647 -0.344748 -2.26592 0
M  V30 2415 C 223.66 0.512135 -1.54535 0
M  V30 2416 O 224.849 0.328368 -1.75454 0
M  V30 2417 C 221.949 0.526587 -3.34784 0
M  V30 2418 C 221.122 -0.305871 -4.36329 0
M  V30 2419 C 220.181 0.499209 -5.23827 0
M  V30 2420 O 219.207 -0.0853004 -5.69136 0
M  V30 2421 N 220.409 1.80408 -5.51755 0
M  V30 2422 H 223.174 -1.18359 -2.75338 0
M  V30 2423 H 220.735 -0.770481 -1.42391 0
M  V30 2424 H 222.727 1.07171 -3.90252 0
M  V30 2425 H 221.297 1.26613 -2.85811 0
M  V30 2426 H 220.517 -1.0324 -3.80441 0
M  V30 2427 H 221.805 -0.875773 -5.01206 0
M  V30 2428 H 221.203 2.3016 -5.16762 0
M  V30 2429 H 219.76 2.29621 -6.10014 0
M  V30 2430 N 223.193 1.4272 -0.668489 0
M  V30 2431 C 224.423 2.05668 -0.196063 0
M  V30 2432 C 224.831 1.5028 1.14946 0
M  V30 2433 O 224.174 0.6348 1.72383 0
M  V30 2434 C 224.236 3.59469 -0.0468879 0
M  V30 2435 C 223.9 4.37518 -1.32012 0
M  V30 2436 C 224.897 4.68584 -2.25222 0
M  V30 2437 C 222.582 4.77266 -1.56596 0
M  V30 2438 C 224.576 5.38326 -3.41297 0
M  V30 2439 C 222.263 5.4675 -2.72962 0
M  V30 2440 C 223.261 5.77204 -3.65137 0
M  V30 2441 O 222.949 6.45264 -4.79468 0
M  V30 2442 H 222.681 0.669382 -0.0943599 0
M  V30 2443 H 225.235 1.83954 -0.913788 0
M  V30 2444 H 223.465 3.79817 0.726357 0
M  V30 2445 H 225.154 4.04071 0.384852 0
M  V30 2446 H 225.92 4.38382 -2.07477 0
M  V30 2447 H 221.799 4.52959 -0.857249 0
M  V30 2448 H 225.343 5.62014 -4.13263 0
M  V30 2449 H 221.24 5.76369 -2.90635 0
M  V30 2450 H 222.008 6.63753 -4.78931 0
M  V30 2451 N 224.671 0.411399 1.52136 0
M  V30 2452 C 225.919 -0.163322 2.01439 0
M  V30 2453 C 226.24 -1.45453 1.29879 0
M  V30 2454 O 225.51 -1.91225 0.4254 0
M  V30 2455 H 224.09 -0.0633447 0.744309 0
M  V30 2456 H 226.752 0.548161 1.87033 0
M  V30 2457 H 225.848 -0.357817 3.10042 0
M  V30 2458 N 226.149 -1.5696 0.141893 0
M  V30 2459 C 227.426 -1.87553 -0.555281 0
M  V30 2460 C 227.806 -1.04699 -1.83306 0
M  V30 2461 O 227.154 -0.132346 -2.28116 0
M  V30 2462 C 227.364 -3.39093 -0.825664 0
M  V30 2463 C 228.712 -4.08199 -1.16869 0
M  V30 2464 O 229.736 -3.44242 -0.915185 0
M  V30 2465 O 228.595 -5.21139 -1.6455 0
M  V30 2466 H 225.689 -0.777188 -0.282679 0
M  V30 2467 H 228.235 -1.68763 0.17812 0
M  V30 2468 H 227.007 -3.91221 0.0788633 0
M  V30 2469 H 226.63 -3.63393 -1.61343 0
M  V30 2470 N 227.627 0.131896 -1.57047 0
M  V30 2471 C 228.873 0.843179 -1.84441 0
M  V30 2472 C 229.206 1.80129 -0.725749 0
M  V30 2473 O 228.481 1.92624 0.269469 0
M  V30 2474 C 228.764 1.60442 -3.22382 0
M  V30 2475 C 228.617 0.666782 -4.4483 0
M  V30 2476 C 229.936 2.56354 -3.5773 0
M  V30 2477 H 227.055 0.305081 -0.670891 0
M  V30 2478 H 229.697 0.107839 -1.89694 0
M  V30 2479 H 227.847 2.23128 -3.18035 0
M  V30 2480 H 229.519 0.0497646 -4.61273 0
M  V30 2481 H 227.762 -0.022609 -4.33794 0
M  V30 2482 H 228.433 1.23579 -5.37989 0
M  V30 2483 H 230.909 2.0378 -3.62785 0
M  V30 2484 H 229.785 3.06657 -4.5525 0
M  V30 2485 H 230.046 3.38419 -2.84473 0
M  V30 2486 N 229.106 1.52395 0.401703 0
M  V30 2487 C 230.036 1.79231 1.49661 0
M  V30 2488 C 231.017 0.643654 1.57452 0
M  V30 2489 O 232.202 0.889989 1.72606 0
M  V30 2490 C 229.332 1.94971 2.87409 0
M  V30 2491 C 228.286 3.10604 2.94465 0
M  V30 2492 C 227.612 3.11577 4.34538 0
M  V30 2493 C 228.912 4.49921 2.6527 0
M  V30 2494 H 230.606 2.70917 1.27454 0
M  V30 2495 H 228.152 1.30362 0.6117 0
M  V30 2496 H 230.105 2.12328 3.63999 0
M  V30 2497 H 228.829 0.999632 3.10926 0
M  V30 2498 H 227.488 2.93009 2.20321 0
M  V30 2499 H 227.136 2.14277 4.55076 0
M  V30 2500 H 226.836 3.89247 4.40183 0
M  V30 2501 H 228.36 3.31073 5.13053 0
M  V30 2502 H 229.774 4.67683 3.31581 0
M  V30 2503 H 228.171 5.29564 2.82281 0
M  V30 2504 H 229.241 4.57507 1.60671 0
M  V30 2505 N 230.584 -0.659388 1.43143 0
M  V30 2506 C 231.83 -1.42145 1.44647 0
M  V30 2507 C 232.163 -1.9408 0.0681907 0
M  V30 2508 O 231.438 -1.71899 -0.910007 0
M  V30 2509 C 231.721 -2.60735 2.48373 0
M  V30 2510 C 231.574 -2.14332 3.95451 0
M  V30 2511 C 232.893 -3.62951 2.48906 0
M  V30 2512 H 230.012 -0.51552 0.526696 0
M  V30 2513 H 232.654 -0.748069 1.74654 0
M  V30 2514 H 230.804 -3.18184 2.22916 0
M  V30 2515 H 232.476 -1.61932 4.31944 0
M  V30 2516 H 230.719 -1.4576 4.08578 0
M  V30 2517 H 231.39 -2.99583 4.63631 0
M  V30 2518 H 233.866 -3.1525 2.71582 0
M  V30 2519 H 232.742 -4.43487 3.23435 0
M  V30 2520 H 233.003 -4.15126 1.52061 0
M  V30 2521 N 232.062 -1.29571 -0.897171 0
M  V30 2522 C 233.478 -1.07637 -1.17841 0
M  V30 2523 C 233.678 0.170713 -2.00776 0
M  V30 2524 O 232.734 0.867768 -2.3712 0
M  V30 2525 C 234.047 -2.3332 -1.8969 0
M  V30 2526 C 235.595 -2.38664 -2.02505 0
M  V30 2527 C 236.07 -3.64157 -2.77765 0
M  V30 2528 N 237.561 -3.64894 -2.85318 0
M  V30 2529 C 238.296 -4.58679 -3.44094 0
M  V30 2530 N 237.792 -5.62799 -4.04017 0
M  V30 2531 N 239.585 -4.46245 -3.41793 0
M  V30 2532 H 231.736 -2.09598 -0.343883 0
M  V30 2533 H 233.999 -0.923333 -0.214848 0
M  V30 2534 H 233.705 -3.24262 -1.36187 0
M  V30 2535 H 233.579 -2.41025 -2.9015 0
M  V30 2536 H 235.966 -1.48208 -2.55183 0
M  V30 2537 H 236.047 -2.34943 -1.01171 0
M  V30 2538 H 235.691 -4.54965 -2.25763 0
M  V30 2539 H 235.621 -3.65137 -3.7945 0
M  V30 2540 H 238.112 -2.89613 -2.42761 0
M  V30 2541 H 238.425 -6.3048 -4.46895 0
M  V30 2542 H 236.77 -5.66605 -4.02472 0
M  V30 2543 H 239.961 -3.64094 -2.94199 0
M  V30 2544 H 240.134 -5.19518 -3.87304 0
M  V30 2545 N 233.54 1.10788 -1.12088 0
M  V30 2546 C 234.488 2.19111 -0.780587 0
M  V30 2547 C 235.482 1.67818 0.230961 0
M  V30 2548 O 236.688 1.79777 0.0895427 0
M  V30 2549 H 233.063 0.714477 -0.234578 0
M  V30 2550 H 235.034 2.45055 -1.70266 0
M  V30 2551 C 233.783 3.46818 -0.24747 0
M  V30 2552 H 233.106 3.86646 -1.01712 0
M  V30 2553 H 234.546 4.23973 -0.0476291 0
M  V30 2554 C 233.005 3.20968 1.02378 0
M  V30 2555 O 233.535 3.42298 2.10226 0
M  V30 2556 N 231.741 2.74658 0.949271 0
M  V30 2557 H 231.288 2.57501 0.0715173 0
M  V30 2558 H 231.246 2.57739 1.80049 0
M  V30 2559 N 235.018 0.912232 1.28515 0
M  V30 2560 C 235.948 0.416403 2.29757 0
M  V30 2561 C 236.929 -0.515194 1.6211 0
M  V30 2562 O 238.114 -0.423253 1.89532 0
M  V30 2563 C 235.244 -0.34572 3.45575 0
M  V30 2564 C 234.198 0.496599 4.25109 0
M  V30 2565 C 233.524 -0.393771 5.33248 0
M  V30 2566 C 234.824 1.75307 4.92001 0
M  V30 2567 H 236.518 1.26249 2.7148 0
M  V30 2568 H 234.064 0.608515 1.30511 0
M  V30 2569 H 236.017 -0.703422 4.15488 0
M  V30 2570 H 234.741 -1.2257 3.02728 0
M  V30 2571 H 233.4 0.8368 3.56922 0
M  V30 2572 H 233.048 -1.27225 4.86644 0
M  V30 2573 H 232.748 0.166209 5.87365 0
M  V30 2574 H 234.272 -0.747389 6.06009 0
M  V30 2575 H 235.686 1.46437 5.54283 0
M  V30 2576 H 234.083 2.25534 5.56106 0
M  V30 2577 H 235.153 2.48176 4.16577 0
M  V30 2578 N 236.496 -1.42363 0.676048 0
M  V30 2579 C 237.912 -1.55811 0.345718 0
M  V30 2580 C 238.112 -1.65544 -1.14879 0
M  V30 2581 O 237.168 -1.62306 -1.93424 0
M  V30 2582 C 238.481 -2.80746 1.07713 0
M  V30 2583 C 240.029 -2.9452 1.05958 0
M  V30 2584 C 240.504 -4.22318 1.77233 0
M  V30 2585 N 241.995 -4.29233 1.74108 0
M  V30 2586 C 242.73 -5.26935 2.26113 0
M  V30 2587 N 242.226 -6.30783 2.86505 0
M  V30 2588 N 244.019 -5.18741 2.1648 0
M  V30 2589 H 236.17 -1.34289 1.6456 0
M  V30 2590 H 238.433 -0.646506 0.69335 0
M  V30 2591 H 238.139 -2.79696 2.13221 0
M  V30 2592 H 238.013 -3.71676 0.64316 0
M  V30 2593 H 240.4 -2.95097 0.0128255 0
M  V30 2594 H 240.481 -2.04817 1.53244 0
M  V30 2595 H 240.125 -4.22502 2.81877 0
M  V30 2596 H 240.055 -5.10958 1.27396 0
M  V30 2597 H 242.546 -3.54814 1.30059 0
M  V30 2598 H 242.859 -7.01691 3.23805 0
M  V30 2599 H 241.204 -6.31341 2.90575 0
M  V30 2600 H 244.395 -4.36533 1.68987 0
M  V30 2601 H 244.568 -5.94721 2.57316 0
M  V30 2602 N 237.974 -0.419461 -1.51915 0
M  V30 2603 C 239.39 -0.0708431 -1.59443 0
M  V30 2604 C 239.59 1.41796 -1.43164 0
M  V30 2605 O 238.646 2.18596 -1.26381 0
M  V30 2606 C 239.959 -0.574991 -2.95151 0
M  V30 2607 C 241.507 -0.533867 -3.08413 0
M  V30 2608 C 241.982 -1.01469 -4.46618 0
M  V30 2609 N 243.473 -0.971939 -4.52888 0
M  V30 2610 C 244.208 -1.31505 -5.58116 0
M  V30 2611 N 243.704 -1.73014 -6.70849 0
M  V30 2612 N 245.497 -1.23436 -5.48379 0
M  V30 2613 H 237.648 -1.38836 -1.60743 0
M  V30 2614 H 239.911 -0.570998 -0.756747 0
M  V30 2615 H 239.617 -1.61597 -3.12377 0
M  V30 2616 H 239.491 0.00979777 -3.77199 0
M  V30 2617 H 241.878 0.498086 -2.90866 0
M  V30 2618 H 241.959 -1.15484 -2.28248 0
M  V30 2619 H 241.603 -2.04502 -4.6491 0
M  V30 2620 H 241.533 -0.370433 -5.25295 0
M  V30 2621 H 244.024 -0.666893 -3.71969 0
M  V30 2622 H 244.337 -1.97479 -7.47143 0
M  V30 2623 H 242.682 -1.76926 -6.72103 0
M  V30 2624 H 245.873 -0.908869 -4.59192 0
M  V30 2625 H 246.046 -1.50506 -6.30279 0
M  V30 2626 N 239.452 1.56882 -0.150215 0
M  V30 2627 C 240.362 2.20494 0.801222 0
M  V30 2628 C 241.378 1.19019 1.26927 0
M  V30 2629 O 242.554 1.51607 1.32579 0
M  V30 2630 C 239.619 2.81659 2.02161 0
M  V30 2631 C 238.68 3.9827 1.60249 0
M  V30 2632 C 237.913 4.56508 2.7647 0
M  V30 2633 O 238.136 4.13627 3.92771 0
M  V30 2634 O 237.07 5.46719 2.51757 0
M  V30 2635 H 240.896 3.02315 0.289717 0
M  V30 2636 H 238.481 1.49202 0.0769684 0
M  V30 2637 H 240.363 3.20522 2.73576 0
M  V30 2638 H 239.038 2.02849 2.52258 0
M  V30 2639 H 237.945 3.64117 0.858477 0
M  V30 2640 H 239.278 4.78609 1.14864 0
M  V30 2641 N 240.93 -0.123565 1.57115 0
M  V30 2642 C 241.893 -1.13583 1.99076 0
M  V30 2643 C 242.893 -1.34564 0.880296 0
M  V30 2644 O 244.083 -1.31158 1.14644 0
M  V30 2645 C 241.215 -2.49128 2.32698 0
M  V30 2646 H 242.408 -0.775287 2.89706 0
M  V30 2647 H 239.961 -0.36771 1.51913 0
M  V30 2648 H 240.696 -2.90111 1.44934 0
M  V30 2649 H 240.481 -2.35255 3.13684 0
M  V30 2650 H 241.971 -3.2199 2.65918 0
M  V30 2651 N 242.408 -1.52605 -0.393616 0
M  V30 2652 C 243.318 -1.79971 -1.50492 0
M  V30 2653 C 244.334 -0.686181 -1.59899 0
M  V30 2654 O 245.51 -0.973274 -1.76322 0
M  V30 2655 C 242.575 -1.95867 -2.86072 0
M  V30 2656 C 241.636 -3.19781 -2.86424 0
M  V30 2657 C 240.869 -3.34909 -4.15538 0
M  V30 2658 O 241.092 -2.54948 -5.10253 0
M  V30 2659 O 240.026 -4.28141 -4.23059 0
M  V30 2660 H 243.852 -2.74328 -1.30299 0
M  V30 2661 H 241.437 -1.3764 -0.581005 0
M  V30 2662 H 243.319 -2.08056 -3.66457 0
M  V30 2663 H 241.994 -1.04699 -3.063 0
M  V30 2664 H 240.901 -3.13038 -2.04837 0
M  V30 2665 H 242.234 -4.1078 -2.71147 0
M  V30 2666 N 243.887 0.651787 -1.4349 0
M  V30 2667 C 245.115 1.43937 -1.48626 0
M  V30 2668 C 245.53 1.8851 -0.104587 0
M  V30 2669 O 244.887 1.5958 0.885464 0
M  V30 2670 C 244.938 2.6734 -2.43334 0
M  V30 2671 O 244.659 2.24631 -3.76128 0
M  V30 2672 C 246.16 3.60683 -2.57726 0
M  V30 2673 H 243.38 0.44213 -0.504739 0
M  V30 2674 H 245.924 0.798944 -1.88248 0
M  V30 2675 H 244.079 3.2752 -2.06904 0
M  V30 2676 H 244.493 3.04485 -4.2707 0
M  V30 2677 H 245.967 4.43933 -3.28067 0
M  V30 2678 H 246.444 4.08126 -1.62265 0
M  V30 2679 H 247.05 3.06384 -2.94973 0
M  V30 2680 N 245.365 1.30045 0.890287 0
M  V30 2681 C 246.613 1.18327 1.63839 0
M  V30 2682 C 246.934 -0.263455 1.93212 0
M  V30 2683 O 246.204 -1.17856 1.56482 0
M  V30 2684 H 244.784 0.434933 0.607324 0
M  V30 2685 H 247.446 1.631 1.06698 0
M  V30 2686 H 246.542 1.74024 2.59079 0
M  V30 2687 N 246.843 -1.10192 1.12674 0
M  V30 2688 C 247.79 -2.16606 0.796906 0
M  V30 2689 C 248.76 -1.64394 -0.237476 0
M  V30 2690 O 249.945 -1.90474 -0.111484 0
M  V30 2691 C 247.085 -3.44116 0.26043 0
M  V30 2692 C 246.198 -4.10268 1.35293 0
M  V30 2693 C 245.333 -5.25507 0.775621 0
M  V30 2694 C 244.372 -5.83567 1.84706 0
M  V30 2695 N 243.509 -6.90179 1.28829 0
M  V30 2696 H 248.349 -2.44163 1.70846 0
M  V30 2697 H 245.886 -1.19846 0.85295 0
M  V30 2698 H 247.844 -4.17143 -0.0686814 0
M  V30 2699 H 246.474 -3.16901 -0.614274 0
M  V30 2700 H 245.526 -3.35184 1.79877 0
M  V30 2701 H 246.838 -4.4946 2.16303 0
M  V30 2702 H 245.992 -6.05398 0.397327 0
M  V30 2703 H 244.731 -4.87656 -0.0656581 0
M  V30 2704 H 243.736 -5.02344 2.23452 0
M  V30 2705 H 244.961 -6.23482 2.69161 0
M  V30 2706 H 242.907 -6.54322 0.468881 0
M  V30 2707 H 242.824 -7.28097 2.03497 0
M  V30 2708 H 244.092 -7.73844 0.937311 0
M  V30 2709 N 248.321 -0.919034 -1.28029 0
M  V30 2710 C 249.732 -0.600735 -1.76771 0
M  V30 2711 C 250.083 0.884024 -1.75156 0
M  V30 2712 O 249.208 1.69163 -1.34956 0
M  V30 2713 C 249.803 -1.08372 -3.21 0
M  V30 2714 C 248.362 -0.816248 -3.67443 0
M  V30 2715 C 247.509 -1.24742 -2.47658 0
M  V30 2716 H 250.46 -1.09974 -1.14418 0
M  V30 2717 H 250.481 -0.427512 -3.78091 0
M  V30 2718 H 249.993 -2.16437 -3.22144 0
M  V30 2719 H 248.094 0.250968 -3.71754 0
M  V30 2720 H 248.207 -1.4277 -4.57333 0
M  V30 2721 H 246.571 -0.666083 -2.45836 0
M  V30 2722 H 247.354 -2.33653 -2.51518 0
M  V30 2723 N 249.799 1.42003 -0.683588 0
M  V30 2724 C 251.045 2.01712 -0.209825 0
M  V30 2725 C 251.378 1.53968 1.18353 0
M  V30 2726 O 250.653 0.745661 1.79639 0
M  V30 2727 C 250.936 3.59202 -0.254197 0
M  V30 2728 C 250.789 4.17102 -1.68363 0
M  V30 2729 C 252.108 4.38344 0.392709 0
M  V30 2730 H 249.227 0.732891 -0.0777189 0
M  V30 2731 H 251.869 1.68909 -0.87004 0
M  V30 2732 H 250.019 3.87278 0.307954 0
M  V30 2733 H 251.691 3.99946 -2.29871 0
M  V30 2734 H 249.934 3.72597 -2.22157 0
M  V30 2735 H 250.605 5.26249 -1.6663 0
M  V30 2736 H 253.081 4.16011 -0.0859162 0
M  V30 2737 H 251.957 5.47901 0.331063 0
M  V30 2738 H 252.218 4.16887 1.47164 0
M  V30 2739 N 251.277 0.427512 1.51691 0
M  V30 2740 C 252.505 -0.141191 2.06418 0
M  V30 2741 C 252.92 -1.37303 1.29589 0
M  V30 2742 O 252.277 -1.79059 0.352732 0
M  V30 2743 C 252.328 -0.473266 3.58389 0
M  V30 2744 O 252.049 0.709673 4.32314 0
M  V30 2745 C 253.55 -1.09371 4.29596 0
M  V30 2746 H 250.77 -0.0122747 0.670888 0
M  V30 2747 H 253.314 0.603764 1.95384 0
M  V30 2748 H 251.469 -1.16812 3.69369 0
M  V30 2749 H 251.883 0.42807 5.2275 0
M  V30 2750 H 253.357 -1.27613 5.37046 0
M  V30 2751 H 253.834 -2.072 3.87253 0
M  V30 2752 H 254.44 -0.43853 4.23033 0
M  V30 2753 N 252.755 -1.56801 0.158532 0
M  V30 2754 C 253.685 -2.20347 -0.772609 0
M  V30 2755 C 254.666 -1.15518 -1.24859 0
M  V30 2756 O 255.851 -1.43902 -1.30406 0
M  V30 2757 C 252.981 -2.83417 -2.00729 0
M  V30 2758 C 251.935 -3.94174 -1.66765 0
M  V30 2759 C 251.261 -4.44233 -2.97592 0
M  V30 2760 C 252.561 -5.14392 -0.905447 0
M  V30 2761 H 254.255 -2.98413 -0.242959 0
M  V30 2762 H 251.801 -1.43537 -0.115419 0
M  V30 2763 H 253.754 -3.26543 -2.6636 0
M  V30 2764 H 252.478 -2.02701 -2.56086 0
M  V30 2765 H 251.137 -3.51684 -1.03508 0
M  V30 2766 H 250.785 -3.60325 -3.50963 0
M  V30 2767 H 250.485 -5.18945 -2.75626 0
M  V30 2768 H 252.009 -4.90037 -3.64274 0
M  V30 2769 H 253.423 -5.5429 -1.46408 0
M  V30 2770 H 251.82 -5.9494 -0.7853 0
M  V30 2771 H 252.89 -4.84795 0.100668 0
M  V30 2772 N 254.233 0.115231 -1.57178 0
M  V30 2773 C 255.18 1.14115 -2.00615 0
M  V30 2774 C 256.15 1.40939 -0.878941 0
M  V30 2775 O 257.335 1.52741 -1.14345 0
M  V30 2776 C 254.475 2.46156 -2.4187 0
M  V30 2777 C 253.588 2.26236 -3.68024 0
M  V30 2778 C 252.723 3.51534 -3.98243 0
M  V30 2779 C 251.762 3.26787 -5.17568 0
M  V30 2780 N 250.899 4.44298 -5.43639 0
M  V30 2781 H 255.739 0.763743 -2.88047 0
M  V30 2782 H 253.276 0.365615 -1.42484 0
M  V30 2783 H 255.234 3.23189 -2.63827 0
M  V30 2784 H 253.864 2.81783 -1.57475 0
M  V30 2785 H 252.916 1.40102 -3.5366 0
M  V30 2786 H 254.228 2.03929 -4.55208 0
M  V30 2787 H 253.382 4.36984 -4.20868 0
M  V30 2788 H 252.121 3.76876 -3.09541 0
M  V30 2789 H 251.126 2.39729 -4.94783 0
M  V30 2790 H 252.351 3.02812 -6.0785 0
M  V30 2791 H 250.297 4.69754 -4.57895 0
M  V30 2792 H 250.214 4.25109 -6.25154 0
M  V30 2793 H 251.482 5.3087 -5.70786 0
M  V30 2794 N 255.711 1.52812 0.385517 0
M  V30 2795 C 256.988 1.5861 1.14465 0
M  V30 2796 C 257.368 0.381402 2.07626 0
M  V30 2797 O 256.716 -0.629999 2.19643 0
M  V30 2798 C 256.926 2.92664 1.90128 0
M  V30 2799 C 258.274 3.46526 2.45367 0
M  V30 2800 O 259.298 2.94562 2.0028 0
M  V30 2801 O 258.157 4.37323 3.27736 0
M  V30 2802 H 255.251 0.639855 0.523941 0
M  V30 2803 H 257.797 1.65149 0.390389 0
M  V30 2804 H 256.569 3.71788 1.22022 0
M  V30 2805 H 256.192 2.89527 2.72507 0
M  V30 2806 N 257.189 -0.644168 1.43834 0
M  V30 2807 C 258.435 -1.40603 1.46146 0
M  V30 2808 C 258.768 -1.93997 0.0887717 0
M  V30 2809 O 258.043 -1.72854 -0.891724 0
M  V30 2810 C 258.326 -2.58086 2.51124 0
M  V30 2811 C 258.179 -2.10126 3.97702 0
M  V30 2812 C 259.498 -3.60291 2.52742 0
M  V30 2813 H 256.617 -0.509905 0.532134 0
M  V30 2814 H 259.259 -0.729502 1.75437 0
M  V30 2815 H 257.409 -3.15801 2.26278 0
M  V30 2816 H 259.081 -1.57342 4.33637 0
M  V30 2817 H 257.324 -1.41419 4.10101 0
M  V30 2818 H 257.995 -2.94649 4.66783 0
M  V30 2819 H 260.471 -3.12352 2.7491 0
M  V30 2820 H 259.347 -4.40032 3.28121 0
M  V30 2821 H 259.608 -4.1349 1.56455 0
M  V30 2822 N 258.668 -1.30515 -0.883378 0
M  V30 2823 C 259.915 -1.1943 -1.63532 0
M  V30 2824 C 260.243 0.250627 -1.92878 0
M  V30 2825 O 259.498 1.19556 -1.54935 0
M  V30 2826 C 259.797 -1.96994 -2.98209 0
M  V30 2827 C 259.463 -3.466 -2.88408 0
M  V30 2828 C 258.125 -3.87397 -2.85442 0
M  V30 2829 C 260.477 -4.41863 -2.76418 0
M  V30 2830 C 257.805 -5.21745 -2.68327 0
M  V30 2831 C 260.157 -5.7632 -2.60841 0
M  V30 2832 C 258.821 -6.16354 -2.56251 0
M  V30 2833 H 258.091 -0.437025 -0.598406 0
M  V30 2834 H 260.738 -1.61635 -1.02696 0
M  V30 2835 H 259.043 -1.47429 -3.63004 0
M  V30 2836 H 260.74 -1.85808 -3.55354 0
M  V30 2837 H 257.33 -3.14182 -2.91527 0
M  V30 2838 H 261.514 -4.11285 -2.77775 0
M  V30 2839 H 256.77 -5.51853 -2.63189 0
M  V30 2840 H 260.944 -6.49772 -2.50538 0
M  V30 2841 H 258.571 -7.20401 -2.42748 0
M  V30 2842 N 260.146 1.09593 -1.13257 0
M  V30 2843 C 261.394 1.81375 -0.891492 0
M  V30 2844 C 261.715 1.86049 0.584009 0
M  V30 2845 O 260.985 1.34481 1.42449 0
M  V30 2846 H 259.565 0.671708 -0.326828 0
M  V30 2847 H 262.227 1.3256 -1.42877 0
M  V30 2848 H 261.323 2.84612 -1.28071 0
M  V30 2849 N 261.624 0.925811 1.2754 0
M  V30 2850 C 262.587 0.428129 2.25166 0
M  V30 2851 C 263.587 -0.452261 1.54309 0
M  V30 2852 O 264.777 -0.253608 1.72344 0
M  V30 2853 C 261.909 -0.384749 3.38722 0
M  V30 2854 H 263.102 1.29066 2.70706 0
M  V30 2855 H 260.655 0.706323 1.3943 0
M  V30 2856 H 261.39 -1.26618 2.98561 0
M  V30 2857 H 261.175 0.246454 3.91325 0
M  V30 2858 H 262.665 -0.723389 4.11287 0
M  V30 2859 N 263.102 -1.41638 0.69111 0
M  V30 2860 C 264.332 -2.0533 0.228758 0
M  V30 2861 C 264.74 -1.52089 -1.12541 0
M  V30 2862 O 264.083 -0.662145 -1.71351 0
M  V30 2863 C 264.145 -3.59349 0.10407 0
M  V30 2864 C 263.809 -4.35362 1.38956 0
M  V30 2865 C 264.806 -4.64942 2.32648 0
M  V30 2866 C 262.491 -4.74714 1.64169 0
M  V30 2867 C 264.485 -5.32828 3.49818 0
M  V30 2868 C 262.172 -5.42338 2.81625 0
M  V30 2869 C 263.17 -5.71322 3.74273 0
M  V30 2870 O 262.858 -6.37554 4.89673 0
M  V30 2871 H 262.59 -0.667796 0.104997 0
M  V30 2872 H 265.144 -1.82477 0.942938 0
M  V30 2873 H 263.374 -3.80924 -0.665839 0
M  V30 2874 H 265.063 -4.04633 -0.320519 0
M  V30 2875 H 265.829 -4.35025 2.14425 0
M  V30 2876 H 261.708 -4.51538 0.929202 0
M  V30 2877 H 265.252 -5.55368 4.22152 0
M  V30 2878 H 261.149 -5.71673 2.99768 0
M  V30 2879 H 261.917 -6.56049 4.8943 0
M  V30 2880 N 264.58 -0.43555 -1.51462 0
M  V30 2881 C 265.805 0.132627 -2.06976 0
M  V30 2882 C 266.23 1.35848 -1.30104 0
M  V30 2883 O 265.588 1.78112 -0.338493 0
M  V30 2884 C 265.636 0.43523 -3.57964 0
M  V30 2885 O 264.74 1.52198 -3.83288 0
M  V30 2886 H 264.081 0.00265 -0.663995 0
M  V30 2887 H 266.611 -0.616369 -1.95095 0
M  V30 2888 H 266.621 0.686206 -4.02188 0
M  V30 2889 H 265.296 -0.460739 -4.1334 0
M  V30 2890 H 263.873 1.2611 -3.50928 0
M  V30 2891 N 266.058 1.56714 -0.166846 0
M  V30 2892 C 266.991 2.13577 0.80375 0
M  V30 2893 C 267.969 1.06464 1.22899 0
M  V30 2894 O 269.153 1.34413 1.32157 0
M  V30 2895 C 266.28 2.67168 2.0818 0
M  V30 2896 C 265.326 3.86612 1.80093 0
M  V30 2897 S 266.159 5.26565 0.97416 0
M  V30 2898 C 267.315 5.83558 2.26297 0
M  V30 2899 H 267.548 2.9557 0.320267 0
M  V30 2900 H 265.081 1.54326 0.0477555 0
M  V30 2901 H 267.039 2.98692 2.8159 0
M  V30 2902 H 265.7 1.85269 2.53642 0
M  V30 2903 H 264.893 4.22422 2.7491 0
M  V30 2904 H 264.495 3.55951 1.14781 0
M  V30 2905 H 266.787 5.962 3.21795 0
M  V30 2906 H 267.73 6.80731 1.94962 0
M  V30 2907 H 268.138 5.11944 2.37853 0
M  V30 2908 N 267.536 -0.106894 1.57237 0
M  V30 2909 C 268.813 -0.843526 1.76477 0
M  V30 2910 C 269.193 -1.97499 0.745464 0
M  V30 2911 O 268.541 -2.27357 -0.228306 0
M  V30 2912 C 268.751 -1.34903 3.21873 0
M  V30 2913 C 270.099 -1.79654 3.8472 0
M  V30 2914 O 271.123 -1.44554 3.2555 0
M  V30 2915 O 269.982 -2.44515 4.88748 0
M  V30 2916 H 267.076 -0.401468 0.723016 0
M  V30 2917 H 269.622 -0.0896927 1.69463 0
M  V30 2918 H 268.394 -0.53781 3.87586 0
M  V30 2919 H 268.017 -2.16522 3.33473 0
M  V30 2920 N 269.014 -1.53014 -0.377408 0
M  V30 2921 C 270.26 -1.68872 -1.12294 0
M  V30 2922 C 270.593 -0.433224 -1.89306 0
M  V30 2923 O 269.868 0.569258 -1.85983 0
M  V30 2924 C 270.151 -2.93115 -2.09179 0
M  V30 2925 C 270.004 -4.28794 -1.35853 0
M  V30 2926 C 271.323 -3.12928 -3.09458 0
M  V30 2927 H 268.442 -0.614518 -0.406862 0
M  V30 2928 H 271.084 -1.85633 -0.40503 0
M  V30 2929 H 269.234 -2.78956 -2.70399 0
M  V30 2930 H 270.906 -4.54742 -0.775082 0
M  V30 2931 H 269.149 -4.28744 -0.660364 0
M  V30 2932 H 269.82 -5.11837 -2.06706 0
M  V30 2933 H 272.296 -3.26194 -2.58334 0
M  V30 2934 H 271.172 -4.01316 -3.74482 0
M  V30 2935 H 271.433 -2.27669 -3.78971 0
M  V30 2936 N 270.492 0.636531 -1.44174 0
M  V30 2937 C 271.741 1.39213 -1.45954 0
M  V30 2938 C 272.054 1.95374 -0.0939119 0
M  V30 2939 O 273.26 2.71498 0.0107767 0
M  V30 2940 C 271.716 2.52025 -2.56927 0
M  V30 2941 C 271.324 2.024 -3.99673 0
M  V30 2942 C 273.068 3.29269 -2.67922 0
M  V30 2943 C 270.975 3.12521 -5.0208 0
M  V30 2944 H 269.905 0.523132 -0.542999 0
M  V30 2945 H 272.556 0.685349 -1.70221 0
M  V30 2946 H 270.938 3.25253 -2.25891 0
M  V30 2947 H 272.112 1.36073 -4.40251 0
M  V30 2948 H 270.427 1.37987 -3.92872 0
M  V30 2949 H 273.024 4.11352 -3.41605 0
M  V30 2950 H 273.367 3.78397 -1.73555 0
M  V30 2951 H 273.9 2.63129 -2.98342 0
M  V30 2952 H 270.639 2.68343 -5.98057 0
M  V30 2953 H 270.159 3.77507 -4.66099 0
M  V30 2954 H 271.838 3.77385 -5.25538 0
M  V30 2955 N 271.97 1.30982 0.876444 0
M  V30 2956 C 273.198 1.23242 1.6619 0
M  V30 2957 C 273.613 -0.203345 1.87702 0
M  V30 2958 O 272.97 -1.13317 1.43057 0
M  V30 2959 C 273.021 1.96623 3.03351 0
M  V30 2960 O 272.742 3.34594 2.82804 0
M  V30 2961 C 274.243 1.95644 3.97792 0
M  V30 2962 H 271.463 0.426126 0.518322 0
M  V30 2963 H 274.007 1.7275 1.09442 0
M  V30 2964 H 272.162 1.50892 3.56806 0
M  V30 2965 H 272.576 3.71873 3.69879 0
M  V30 2966 H 274.05 2.51511 4.91372 0
M  V30 2967 H 274.527 0.937395 4.2908 0
M  V30 2968 H 275.133 2.41225 3.50272 0
M  V30 2969 N 273.449 -1.08991 1.13837 0
M  V30 2970 C 274.674 -1.85551 0.926585 0
M  V30 2971 C 275.099 -1.80782 -0.519566 0
M  V30 2972 O 274.457 -1.18855 -1.36906 0
M  V30 2973 C 274.505 -3.31266 1.42462 0
M  V30 2974 O 273.609 -4.07822 0.612789 0
M  V30 2975 H 272.95 -0.575192 0.331738 0
M  V30 2976 H 275.48 -1.37604 1.51414 0
M  V30 2977 H 275.49 -3.82112 1.43019 0
M  V30 2978 H 274.165 -3.34052 2.47754 0
M  V30 2979 H 272.742 -3.66731 0.675463 0
M  V30 2980 N 274.927 -0.932562 -1.27047 0
M  V30 2981 C 276.155 -0.592031 -1.98249 0
M  V30 2982 C 276.57 0.831062 -1.69525 0
M  V30 2983 O 275.927 1.55299 -0.958561 0
M  V30 2984 C 275.978 -0.814279 -3.5221 0
M  V30 2985 O 275.699 -2.18139 -3.7993 0
M  V30 2986 C 277.2 -0.483121 -4.4066 0
M  V30 2987 H 274.42 -0.223896 -0.632544 0
M  V30 2988 H 276.964 -1.25091 -1.61779 0
M  V30 2989 H 275.119 -0.20213 -3.86872 0
M  V30 2990 H 275.533 -2.235 -4.74498 0
M  V30 2991 H 277.007 -0.689298 -5.47679 0
M  V30 2992 H 277.484 0.581546 -4.35333 0
M  V30 2993 H 278.09 -1.07362 -4.11526 0
M  V30 2994 N 276.405 1.4127 -0.698611 0
M  V30 2995 C 277.63 2.06024 -0.238512 0
M  V30 2996 C 278.055 1.5224 1.10475 0
M  V30 2997 O 277.413 0.650623 1.69223 0
M  V30 2998 C 277.461 3.59988 -0.209952 0
M  V30 2999 O 276.565 4.04282 0.814235 0
M  V30 3000 H 275.906 0.653829 -0.115775 0
M  V30 3001 H 278.436 1.8098 -0.954326 0
M  V30 3002 H 278.446 4.07979 -0.0418436 0
M  V30 3003 H 277.121 3.98503 -1.1903 0
M  V30 3004 H 275.698 3.6779 0.615234 0
M  V30 3005 N 277.883 0.443576 1.51229 0
M  V30 3006 C 279.13 -0.120796 2.02139 0
M  V30 3007 C 279.458 -1.42166 1.32736 0
M  V30 3008 O 278.713 -1.90849 0.43301 0
M  V30 3009 C 279.012 -0.380579 3.55368 0
M  V30 3010 C 278.678 0.83523 4.43097 0
M  V30 3011 C 277.34 1.16864 4.66794 0
M  V30 3012 C 279.692 1.64601 4.94526 0
M  V30 3013 C 277.02 2.31339 5.39165 0
M  V30 3014 C 279.372 2.78181 5.68153 0
M  V30 3015 C 278.036 3.11969 5.90112 0
M  V30 3016 H 277.306 -0.0442023 0.73968 0
M  V30 3017 H 279.953 0.592046 1.82118 0
M  V30 3018 H 278.258 -1.17538 3.73754 0
M  V30 3019 H 279.955 -0.830777 3.923 0
M  V30 3020 H 276.545 0.565437 4.24854 0
M  V30 3021 H 280.729 1.40163 4.76097 0
M  V30 3022 H 275.985 2.57823 5.5438 0
M  V30 3023 H 280.159 3.41371 6.06992 0
M  V30 3024 H 277.786 4.00784 6.45969 0
M  V30 3025 N 279.361 -1.56624 0.175154 0
M  V30 3026 C 280.609 -1.96609 -0.467885 0
M  V30 3027 C 280.93 -1.06238 -1.63519 0
M  V30 3028 O 280.2 -0.129523 -1.95471 0
M  V30 3029 H 278.78 -0.726008 -0.175845 0
M  V30 3030 H 281.442 -1.93195 0.257234 0
M  V30 3031 H 280.538 -3.00989 -0.825342 0
M  V30 3032 N 280.839 0.0985539 -1.57292 0
M  V30 3033 C 282.085 0.803867 -1.86188 0
M  V30 3034 C 282.418 1.78549 -0.763794 0
M  V30 3035 O 281.693 1.93153 0.22855 0
M  V30 3036 C 281.976 1.53568 -3.25713 0
M  V30 3037 C 281.829 0.572277 -4.46145 0
M  V30 3038 C 283.148 2.48708 -3.63087 0
M  V30 3039 H 280.267 0.290781 -0.677211 0
M  V30 3040 H 282.909 0.0675783 -1.8988 0
M  V30 3041 H 281.059 2.16332 -3.22696 0
M  V30 3042 H 282.731 -0.0480894 -4.61275 0
M  V30 3043 H 280.974 -0.114618 -4.33649 0
M  V30 3044 H 281.645 1.12139 -5.40489 0
M  V30 3045 H 284.121 1.96039 -3.67026 0
M  V30 3046 H 282.997 2.96932 -4.61652 0
M  V30 3047 H 283.258 3.32309 -2.91588 0
M  V30 3048 N 282.317 1.53212 0.369288 0
M  V30 3049 C 283.265 1.80054 1.47253 0
M  V30 3050 C 284.259 0.669456 1.55611 0
M  V30 3051 O 285.465 0.852328 1.58541 0
M  V30 3052 H 281.84 0.570034 0.490475 0
M  V30 3053 H 283.811 2.72403 1.21817 0
M  V30 3054 C 282.56 2.00403 2.84137 0
M  V30 3055 H 281.883 2.86876 2.78464 0
M  V30 3056 H 283.323 2.23164 3.60519 0
M  V30 3057 C 281.782 0.782081 3.27697 0
M  V30 3058 O 282.312 -0.0310205 4.01688 0
M  V30 3059 N 280.518 0.606573 2.84199 0
M  V30 3060 H 280.065 1.26939 2.24152 0
M  V30 3061 H 280.023 -0.20962 3.137 0
M  V30 3062 N 283.795 -0.628877 1.44509 0
M  V30 3063 C 285.044 -1.38437 1.4669 0
M  V30 3064 C 285.357 -1.95322 0.104272 0
M  V30 3065 O 286.563 -2.715 0.00362163 0
M  V30 3066 C 285.019 -2.50659 2.5826 0
M  V30 3067 C 284.627 -2.00277 4.0074 0
M  V30 3068 C 286.371 -3.27844 2.69664 0
M  V30 3069 C 284.278 -3.09854 5.0373 0
M  V30 3070 H 283.208 -0.520245 0.545766 0
M  V30 3071 H 285.859 -0.676313 1.70582 0
M  V30 3072 H 284.241 -3.2405 2.27612 0
M  V30 3073 H 285.415 -1.33736 4.40966 0
M  V30 3074 H 283.73 -1.35901 3.93599 0
M  V30 3075 H 286.327 -4.09534 3.43781 0
M  V30 3076 H 286.67 -3.77471 1.75559 0
M  V30 3077 H 287.203 -2.61543 2.99733 0
M  V30 3078 H 283.942 -2.65168 5.99472 0
M  V30 3079 H 283.462 -3.7503 4.68095 0
M  V30 3080 H 285.141 -3.74592 5.27532 0
M  V30 3081 N 285.273 -1.31445 -0.869486 0
M  V30 3082 C 286.55 -1.11795 -1.60503 0
M  V30 3083 C 286.93 0.327168 -2.08549 0
M  V30 3084 O 286.278 1.32135 -1.8642 0
M  V30 3085 C 286.488 -2.13258 -2.76265 0
M  V30 3086 C 287.836 -2.45805 -3.46215 0
M  V30 3087 O 288.86 -2.11688 -2.86473 0
M  V30 3088 O 287.719 -3.04228 -4.5399 0
M  V30 3089 H 284.813 -0.430421 -0.706163 0
M  V30 3090 H 287.359 -1.42925 -0.914907 0
M  V30 3091 H 286.131 -3.10461 -2.3818 0
M  V30 3092 H 285.754 -1.83035 -3.52964 0
M  V30 3093 N 286.751 1.08385 -1.14413 0
M  V30 3094 C 287.976 1.85057 -0.936413 0
M  V30 3095 C 288.401 1.81055 0.509971 0
M  V30 3096 O 287.759 1.1958 1.36273 0
M  V30 3097 C 287.807 3.30505 -1.44217 0
M  V30 3098 O 286.911 4.07491 -0.634409 0
M  V30 3099 H 286.252 0.573425 -0.334784 0
M  V30 3100 H 288.782 1.36799 -1.52142 0
M  V30 3101 H 288.792 3.81348 -1.45043 0
M  V30 3102 H 287.467 3.32734 -2.49522 0
M  V30 3103 H 286.044 3.66368 -0.694902 0
M  V30 3104 N 288.23 0.939286 1.26551 0
M  V30 3105 C 289.16 0.465044 2.28822 0
M  V30 3106 C 290.141 -0.480692 1.63167 0
M  V30 3107 O 291.326 -0.382955 1.90387 0
M  V30 3108 C 288.456 -0.27234 3.46231 0
M  V30 3109 C 287.41 0.58666 4.2396 0
M  V30 3110 C 286.736 -0.280573 5.33963 0
M  V30 3111 C 288.036 1.85704 4.88171 0
M  V30 3112 H 289.73 1.31979 2.68741 0
M  V30 3113 H 287.276 0.636061 1.29191 0
M  V30 3114 H 289.229 -0.615133 4.16886 0
M  V30 3115 H 287.953 -1.16121 3.0526 0
M  V30 3116 H 286.612 0.91232 3.55067 0
M  V30 3117 H 286.26 -1.16874 4.89234 0
M  V30 3118 H 285.96 0.29076 5.8688 0
M  V30 3119 H 287.484 -0.618678 6.07458 0
M  V30 3120 H 288.898 1.58161 5.51052 0
M  V30 3121 H 287.295 2.37279 5.51197 0
M  V30 3122 H 288.365 2.56957 4.11219 0
M  V30 3123 N 289.708 -1.40897 0.706093 0
M  V30 3124 C 290.656 -2.32572 0.0361893 0
M  V30 3125 C 291.65 -1.51532 -0.757266 0
M  V30 3126 O 292.856 -1.67396 -0.661703 0
M  V30 3127 H 289.231 -0.751966 -0.00709935 0
M  V30 3128 H 291.202 -2.86733 0.826249 0
M  V30 3129 C 289.951 -3.36418 -0.87854 0
M  V30 3130 H 289.274 -3.98836 -0.277401 0
M  V30 3131 H 290.714 -4.0308 -1.3154 0
M  V30 3132 C 289.173 -2.71141 -1.99961 0
M  V30 3133 O 289.703 -2.56735 -3.0895 0
M  V30 3134 N 287.909 -2.29671 -1.78043 0
M  V30 3135 H 287.456 -2.41588 -0.894042 0
M  V30 3136 H 287.414 -1.86332 -2.53235 0
M  V30 3137 N 291.186 -0.45159 -1.50991 0
M  V30 3138 C 292.134 0.366864 -2.29689 0
M  V30 3139 C 293.128 1.00809 -1.36139 0
M  V30 3140 O 294.334 0.941427 -1.53418 0
M  V30 3141 H 290.709 0.137133 -0.739391 0
M  V30 3142 H 292.68 -0.317538 -2.96706 0
M  V30 3143 C 291.429 1.44751 -3.16137 0
M  V30 3144 H 290.752 0.963473 -3.88017 0
M  V30 3145 H 292.192 1.99315 -3.74232 0
M  V30 3146 C 290.651 2.43869 -2.32442 0
M  V30 3147 O 291.181 3.4872 -1.99392 0
M  V30 3148 N 289.387 2.15105 -1.95392 0
M  V30 3149 H 288.934 1.29866 -2.22469 0
M  V30 3150 H 288.892 2.81661 -1.39693 0
M  V30 3151 N 292.664 1.56529 -0.183458 0
M  V30 3152 C 294.075 1.83739 0.331177 0
M  V30 3153 C 294.426 1.10373 1.62211 0
M  V30 3154 O 293.551 0.36071 2.13373 0
M  V30 3155 C 294.146 3.33306 0.607646 0
M  V30 3156 C 292.705 3.60969 1.06668 0
M  V30 3157 C 291.852 2.77086 0.109029 0
M  V30 3158 H 294.803 1.53379 -0.407484 0
M  V30 3159 H 294.824 3.51444 1.45832 0
M  V30 3160 H 294.336 3.86677 -0.332086 0
M  V30 3161 H 292.437 3.13021 2.0211 0
M  V30 3162 H 292.55 4.69231 0.967447 0
M  V30 3163 H 290.914 2.47319 0.608714 0
M  V30 3164 H 291.697 3.33241 -0.82494 0
M  V30 3165 N 294.142 -0.090211 1.57342 0
M  V30 3166 C 295.074 -1.13541 1.99101 0
M  V30 3167 C 296.087 -1.3604 0.894258 0
M  V30 3168 O 297.276 -1.34606 1.17233 0
M  V30 3169 C 294.376 -2.49001 2.29895 0
M  V30 3170 C 293.549 -2.46712 3.61182 0
M  V30 3171 C 292.608 -3.64136 3.79857 0
M  V30 3172 O 291.634 -3.46405 4.51655 0
M  V30 3173 N 292.836 -4.83802 3.20806 0
M  V30 3174 H 295.601 -0.779942 2.89373 0
M  V30 3175 H 293.162 -0.279125 1.59476 0
M  V30 3176 H 295.154 -3.26166 2.39578 0
M  V30 3177 H 293.724 -2.76619 1.45605 0
M  V30 3178 H 292.944 -1.55058 3.62423 0
M  V30 3179 H 294.232 -2.42265 4.4742 0
M  V30 3180 H 293.63 -5.01112 2.62494 0
M  V30 3181 H 292.187 -5.58543 3.35966 0
M  V30 3182 N 295.62 -1.53406 -0.361157 0
M  V30 3183 C 296.897 -1.60411 -1.11927 0
M  V30 3184 C 297.277 -0.414385 -2.06993 0
M  V30 3185 O 296.625 0.594976 -2.20618 0
M  V30 3186 C 296.835 -2.95652 -1.85448 0
M  V30 3187 C 298.183 -3.50386 -2.39823 0
M  V30 3188 O 299.207 -2.97711 -1.95568 0
M  V30 3189 O 298.066 -4.42482 -3.20737 0
M  V30 3190 H 295.16 -0.64811 -0.513695 0
M  V30 3191 H 297.706 -1.65749 -0.364065 0
M  V30 3192 H 296.478 -3.73682 -1.16091 0
M  V30 3193 H 296.101 -2.93825 -2.67866 0
M  V30 3194 N 297.098 0.621204 -1.44841 0
M  V30 3195 C 298.509 1.20298 -1.42777 0
M  V30 3196 C 298.86 1.95639 -0.148259 0
M  V30 3197 O 297.985 2.02955 0.750892 0
M  V30 3198 C 298.58 2.1882 -2.58657 0
M  V30 3199 C 297.139 2.72403 -2.59756 0
M  V30 3200 C 296.286 1.4757 -2.34773 0
M  V30 3201 H 299.237 0.411297 -1.53278 0
M  V30 3202 H 299.258 3.01607 -2.31977 0
M  V30 3203 H 298.77 1.63957 -3.51766 0
M  V30 3204 H 296.871 3.31242 -1.70615 0
M  V30 3205 H 296.984 3.17765 -3.58556 0
M  V30 3206 H 295.348 1.76051 -1.8406 0
M  V30 3207 H 296.131 0.945954 -3.3001 0
M  V30 3208 N 298.576 1.31904 0.862503 0
M  V30 3209 C 299.823 1.22017 1.61611 0
M  V30 3210 C 300.151 -0.21991 1.93253 0
M  V30 3211 O 299.406 -1.17076 1.56817 0
M  V30 3212 C 299.705 2.01713 2.95037 0
M  V30 3213 C 299.371 3.51145 2.82857 0
M  V30 3214 C 298.033 3.91889 2.79243 0
M  V30 3215 C 300.385 4.46204 2.69353 0
M  V30 3216 C 297.713 5.25947 2.59993 0
M  V30 3217 C 300.065 5.80397 2.5164 0
M  V30 3218 C 298.729 6.20352 2.46413 0
M  V30 3219 H 297.999 0.44649 0.591378 0
M  V30 3220 H 300.646 1.63248 1.00111 0
M  V30 3221 H 298.951 1.53185 3.60613 0
M  V30 3222 H 300.648 1.91437 3.52353 0
M  V30 3223 H 297.238 3.1878 2.86491 0
M  V30 3224 H 301.422 4.15652 2.71196 0
M  V30 3225 H 296.678 5.5597 2.54376 0
M  V30 3226 H 300.852 6.53676 2.40169 0
M  V30 3227 H 298.479 7.24172 2.31256 0
M  V30 3228 N 300.054 -1.07777 1.14986 0
M  V30 3229 C 301.3 -1.80557 0.923422 0
M  V30 3230 C 301.633 -1.86298 -0.548337 0
M  V30 3231 O 300.908 -1.34354 -1.40639 0
M  V30 3232 C 301.191 -3.25839 1.53299 0
M  V30 3233 C 301.044 -3.28269 3.07505 0
M  V30 3234 C 302.363 -4.22991 1.21518 0
M  V30 3235 H 299.482 -0.655493 0.336894 0
M  V30 3236 H 302.124 -1.26144 1.42083 0
M  V30 3237 H 300.274 -3.72306 1.10999 0
M  V30 3238 H 301.946 -2.90079 3.58681 0
M  V30 3239 H 300.189 -2.67355 3.4162 0
M  V30 3240 H 300.86 -4.30691 3.45266 0
M  V30 3241 H 303.336 -3.84894 1.581 0
M  V30 3242 H 302.212 -5.22945 1.66793 0
M  V30 3243 H 302.473 -4.41904 0.131505 0
M  V30 3244 N 301.532 -0.945985 -1.26051 0
M  V30 3245 C 302.442 -0.465633 -2.29933 0
M  V30 3246 C 303.458 0.462761 -1.67733 0
M  V30 3247 O 304.634 0.341118 -1.9849 0
M  V30 3248 C 301.699 0.256994 -3.45746 0
M  V30 3249 C 300.76 -0.708549 -4.23412 0
M  V30 3250 C 299.993 -0.0203135 -5.33696 0
M  V30 3251 O 300.216 1.19571 -5.57726 0
M  V30 3252 O 299.15 -0.701459 -5.97799 0
M  V30 3253 H 302.976 -1.32866 -2.73094 0
M  V30 3254 H 300.561 -0.712071 -1.31339 0
M  V30 3255 H 302.443 0.663852 -4.16138 0
M  V30 3256 H 301.118 1.09533 -3.04605 0
M  V30 3257 H 300.025 -1.16545 -3.55483 0
M  V30 3258 H 301.358 -1.51465 -4.68315 0
M  V30 3259 N 303.011 1.40521 -0.713556 0
M  V30 3260 C 303.959 2.32549 -0.0485227 0
M  V30 3261 C 304.953 1.51931 0.74922 0
M  V30 3262 O 306.159 1.67745 0.652816 0
M  V30 3263 H 302.534 0.751994 0.00311138 0
M  V30 3264 H 304.505 2.86291 -0.841443 0
M  V30 3265 C 303.254 3.36879 0.860687 0
M  V30 3266 H 302.577 3.98978 0.256246 0
M  V30 3267 H 304.017 4.03772 1.294 0
M  V30 3268 C 302.476 2.72197 1.9852 0
M  V30 3269 O 303.006 2.5837 3.07584 0
M  V30 3270 N 301.212 2.30612 1.76823 0
M  V30 3271 H 300.759 2.42059 0.881217 0
M  V30 3272 H 300.717 1.87672 2.52243 0
M  V30 3273 N 304.489 0.459591 1.5075 0
M  V30 3274 C 305.717 -0.0973749 2.06671 0
M  V30 3275 C 306.132 -1.34524 1.32472 0
M  V30 3276 O 305.489 -1.7827 0.390634 0
M  V30 3277 C 305.54 -0.39714 3.59312 0
M  V30 3278 O 305.261 0.801214 4.30711 0
M  V30 3279 C 306.762 -1.00234 4.31819 0
M  V30 3280 H 303.982 0.00195854 0.670997 0
M  V30 3281 H 306.526 0.645072 1.94059 0
M  V30 3282 H 304.681 -1.08951 3.71764 0
M  V30 3283 H 305.095 0.538857 5.21725 0
M  V30 3284 H 306.569 -1.16193 5.39632 0
M  V30 3285 H 307.046 -1.98939 3.91561 0
M  V30 3286 H 307.652 -0.348699 4.23868 0
M  V30 3287 N 305.967 -1.56429 0.191757 0
M  V30 3288 C 306.914 -2.18936 -0.730454 0
M  V30 3289 C 307.884 -1.13557 -1.21219 0
M  V30 3290 O 309.069 -1.41794 -1.27668 0
M  V30 3291 C 306.209 -2.85013 -1.9458 0
M  V30 3292 C 305.322 -4.04909 -1.50574 0
M  V30 3293 C 304.457 -4.58853 -2.67634 0
M  V30 3294 C 303.496 -5.71114 -2.20217 0
M  V30 3295 N 302.633 -6.19478 -3.30442 0
M  V30 3296 H 307.473 -2.97389 -0.190664 0
M  V30 3297 H 305.01 -1.46869 -0.0823694 0
M  V30 3298 H 306.968 -3.21492 -2.65893 0
M  V30 3299 H 305.598 -2.09129 -2.45896 0
M  V30 3300 H 304.65 -3.74115 -0.688605 0
M  V30 3301 H 305.962 -4.86113 -1.11784 0
M  V30 3302 H 305.116 -4.97619 -3.47074 0
M  V30 3303 H 303.855 -3.76749 -3.09696 0
M  V30 3304 H 302.86 -5.31879 -1.3923 0
M  V30 3305 H 304.085 -6.55033 -1.79189 0
M  V30 3306 H 302.031 -5.40297 -3.72041 0
M  V30 3307 H 301.948 -6.95725 -2.9581 0
M  V30 3308 H 303.216 -6.62898 -4.10106 0
M  V30 3309 N 307.445 0.0818655 -1.57387 0
M  V30 3310 C 308.392 1.09834 -2.0299 0
M  V30 3311 C 309.362 1.39043 -0.908639 0
M  V30 3312 O 310.547 1.50282 -1.17559 0
M  V30 3313 C 307.687 2.40971 -2.47037 0
M  V30 3314 C 306.8 2.18379 -3.7274 0
M  V30 3315 C 305.935 3.43008 -4.0561 0
M  V30 3316 C 304.974 3.15736 -5.24383 0
M  V30 3317 N 304.111 4.32667 -5.52941 0
M  V30 3318 H 308.951 0.702472 -2.89602 0
M  V30 3319 H 306.488 0.33531 -1.43227 0
M  V30 3320 H 308.446 3.1752 -2.70623 0
M  V30 3321 H 307.076 2.78379 -1.63417 0
M  V30 3322 H 306.128 1.32569 -3.56552 0
M  V30 3323 H 307.44 1.94227 -4.59431 0
M  V30 3324 H 306.594 4.27958 -4.30043 0
M  V30 3325 H 305.333 3.70225 -3.17466 0
M  V30 3326 H 304.338 2.2918 -4.99757 0
M  V30 3327 H 305.563 2.8985 -6.14136 0
M  V30 3328 H 303.509 4.59935 -4.67756 0
M  V30 3329 H 303.426 4.11753 -6.34031 0
M  V30 3330 H 304.694 5.18644 -5.81918 0
M  V30 3331 N 308.923 1.53595 0.353017 0
M  V30 3332 C 309.853 1.83902 1.43883 0
M  V30 3333 C 310.834 0.693421 1.55324 0
M  V30 3334 O 312.019 0.944452 1.69687 0
M  V30 3335 C 309.149 2.04016 2.8106 0
M  V30 3336 C 308.103 3.19814 2.84434 0
M  V30 3337 C 307.429 3.25244 4.24406 0
M  V30 3338 C 308.729 4.58133 2.50822 0
M  V30 3339 H 310.423 2.74835 1.1877 0
M  V30 3340 H 307.969 1.32242 0.569917 0
M  V30 3341 H 309.922 2.238 3.57059 0
M  V30 3342 H 308.646 1.09804 3.07588 0
M  V30 3343 H 307.305 2.9987 2.10887 0
M  V30 3344 H 306.953 2.28646 4.48029 0
M  V30 3345 H 306.653 4.03054 4.27576 0
M  V30 3346 H 308.177 3.47228 5.0226 0
M  V30 3347 H 309.591 4.77995 3.16534 0
M  V30 3348 H 307.988 5.38276 2.6529 0
M  V30 3349 H 309.058 4.62387 1.46034 0
M  V30 3350 N 310.401 -0.613514 1.45168 0
M  V30 3351 C 311.331 -1.7354 1.56225 0
M  V30 3352 C 312.312 -1.64981 0.41414 0
M  V30 3353 O 313.497 -1.83472 0.636526 0
M  V30 3354 C 310.627 -3.12128 1.52295 0
M  V30 3355 C 309.581 -3.35491 2.65762 0
M  V30 3356 C 308.907 -4.74291 2.46885 0
M  V30 3357 C 310.207 -3.26325 4.0781 0
M  V30 3358 H 311.901 -1.64543 2.50132 0
M  V30 3359 H 309.447 -0.790185 1.20383 0
M  V30 3360 H 311.4 -3.90404 1.58628 0
M  V30 3361 H 310.124 -3.2195 0.549139 0
M  V30 3362 H 308.783 -2.59603 2.58847 0
M  V30 3363 H 308.431 -4.80839 1.47657 0
M  V30 3364 H 308.131 -4.9088 3.22972 0
M  V30 3365 H 309.655 -5.54775 2.55063 0
M  V30 3366 H 311.069 -3.94483 4.16 0
M  V30 3367 H 309.466 -3.54445 4.8424 0
M  V30 3368 H 310.536 -2.23855 4.30136 0
M  V30 3369 N 311.879 -1.3236 -0.855495 0
M  V30 3370 C 313.295 -1.11332 -1.14356 0
M  V30 3371 C 313.495 0.106751 -2.01217 0
M  V30 3372 O 312.551 0.791891 -2.39761 0
M  V30 3373 C 313.864 -2.39237 -1.82171 0
M  V30 3374 C 315.412 -2.44986 -1.9481 0
M  V30 3375 C 315.887 -3.7281 -2.66039 0
M  V30 3376 N 317.378 -3.73787 -2.73565 0
M  V30 3377 C 318.113 -4.69394 -3.29327 0
M  V30 3378 N 317.609 -5.75367 -3.85907 0
M  V30 3379 N 319.402 -4.56893 -3.27423 0
M  V30 3380 H 311.553 -2.10586 -0.277027 0
M  V30 3381 H 313.816 -0.929701 -0.185364 0
M  V30 3382 H 313.522 -3.28431 -1.25802 0
M  V30 3383 H 313.396 -2.50134 -2.82335 0
M  V30 3384 H 315.783 -1.56252 -2.50338 0
M  V30 3385 H 315.864 -2.38043 -0.936448 0
M  V30 3386 H 315.508 -4.61918 -2.11174 0
M  V30 3387 H 315.438 -3.77024 -3.67642 0
M  V30 3388 H 317.929 -2.97189 -2.33424 0
M  V30 3389 H 318.242 -6.44378 -4.26611 0
M  V30 3390 H 316.587 -5.79123 -3.84242 0
M  V30 3391 H 319.778 -3.73269 -2.82467 0
M  V30 3392 H 319.951 -5.31577 -3.7058 0
M  V30 3393 N 313.357 1.07166 -1.15556 0
M  V30 3394 C 314.604 1.79798 -0.931604 0
M  V30 3395 C 314.932 1.8682 0.54115 0
M  V30 3396 O 314.187 1.34942 1.41736 0
M  V30 3397 C 314.486 3.24707 -1.49332 0
M  V30 3398 C 314.152 3.37781 -2.98688 0
M  V30 3399 C 312.814 3.41057 -3.39461 0
M  V30 3400 C 315.166 3.40424 -3.94665 0
M  V30 3401 C 312.494 3.4458 -4.74849 0
M  V30 3402 C 314.846 3.45485 -5.29927 0
M  V30 3403 C 313.51 3.47039 -5.70193 0
M  V30 3404 H 312.78 0.657928 -0.340898 0
M  V30 3405 H 315.427 1.26091 -1.44129 0
M  V30 3406 H 313.732 3.81208 -0.904859 0
M  V30 3407 H 315.429 3.79486 -1.29582 0
M  V30 3408 H 312.019 3.35932 -2.66172 0
M  V30 3409 H 316.203 3.37113 -3.64237 0
M  V30 3410 H 311.459 3.44083 -5.05388 0
M  V30 3411 H 315.633 3.46476 -6.04092 0
M  V30 3412 H 313.26 3.49522 -6.75084 0
M  V30 3413 N 314.835 0.952656 1.25548 0
M  V30 3414 C 316.112 0.523818 1.88456 0
M  V30 3415 C 316.492 -0.998871 1.85973 0
M  V30 3416 O 315.84 -1.86381 1.3219 0
M  V30 3417 C 316.05 1.0982 3.31271 0
M  V30 3418 C 317.398 1.17385 4.08051 0
M  V30 3419 O 318.422 1.04961 3.40384 0
M  V30 3420 O 317.281 1.36852 5.29088 0
M  V30 3421 H 314.375 0.172485 0.808813 0
M  V30 3422 H 316.921 1.04596 1.33633 0
M  V30 3423 H 315.693 2.1415 3.27499 0
M  V30 3424 H 315.316 0.559191 3.93648 0
M  V30 3425 N 316.313 -1.40141 0.720998 0
M  V30 3426 C 317.56 -2.00787 0.262842 0
M  V30 3427 C 317.888 -1.5718 -1.14563 0
M  V30 3428 O 317.143 -0.785391 -1.79249 0
M  V30 3429 C 317.442 -3.56165 0.296892 0
M  V30 3430 C 317.108 -4.19373 1.65641 0
M  V30 3431 C 315.77 -4.36352 2.02855 0
M  V30 3432 C 318.122 -4.54578 2.54968 0
M  V30 3433 C 315.45 -4.8582 3.28931 0
M  V30 3434 C 317.802 -5.05447 3.80402 0
M  V30 3435 C 316.466 -5.20635 4.17726 0
M  V30 3436 H 315.736 -0.734731 0.0961807 0
M  V30 3437 H 318.383 -1.67673 0.925093 0
M  V30 3438 H 316.688 -3.8922 -0.448932 0
M  V30 3439 H 318.385 -4.00929 -0.0755208 0
M  V30 3440 H 314.975 -4.06549 1.35704 0
M  V30 3441 H 319.159 -4.41091 2.27491 0
M  V30 3442 H 314.415 -4.95764 3.57811 0
M  V30 3443 H 318.589 -5.31663 4.49786 0
M  V30 3444 H 316.216 -5.58728 5.15487 0
M  V30 3445 N 317.792 -0.46758 -1.50504 0
M  V30 3446 C 318.722 0.318381 -2.31319 0
M  V30 3447 C 319.703 0.993564 -1.38066 0
M  V30 3448 O 320.888 0.991411 -1.66987 0
M  V30 3449 C 318.018 1.40275 -3.17711 0
M  V30 3450 C 316.972 0.849373 -4.19487 0
M  V30 3451 C 316.298 2.03177 -4.94594 0
M  V30 3452 C 317.598 -0.136942 -5.2212 0
M  V30 3453 H 319.292 -0.356106 -2.97275 0
M  V30 3454 H 316.838 -0.172703 -1.42961 0
M  V30 3455 H 318.791 1.96004 -3.73042 0
M  V30 3456 H 317.515 2.10596 -2.49634 0
M  V30 3457 H 316.174 0.314076 -3.65252 0
M  V30 3458 H 315.822 2.72187 -4.22993 0
M  V30 3459 H 315.522 1.66774 -5.63436 0
M  V30 3460 H 317.046 2.59403 -5.52759 0
M  V30 3461 H 318.46 0.331056 -5.72343 0
M  V30 3462 H 316.857 -0.41507 -5.98663 0
M  V30 3463 H 317.927 -1.06398 -4.73083 0
M  V30 3464 N 319.27 1.56325 -0.20005 0
M  V30 3465 C 320.547 1.89484 0.48529 0
M  V30 3466 C 320.927 1.1143 1.79294 0
M  V30 3467 O 320.275 0.216919 2.27468 0
M  V30 3468 C 320.485 3.41923 0.699243 0
M  V30 3469 C 321.833 4.12256 1.01638 0
M  V30 3470 O 322.857 3.47402 0.786792 0
M  V30 3471 O 321.716 5.26887 1.45095 0
M  V30 3472 H 318.81 0.787144 0.253639 0
M  V30 3473 H 321.356 1.67985 -0.240633 0
M  V30 3474 H 320.128 3.90658 -0.224008 0
M  V30 3475 H 319.751 3.69131 1.47744 0
M  V30 3476 N 320.748 -0.0735177 1.57428 0
M  V30 3477 C 322.159 -0.625551 1.75908 0
M  V30 3478 C 322.51 -1.78 0.825261 0
M  V30 3479 O 321.635 -2.16398 0.00893964 0
M  V30 3480 C 322.23 -1.14155 3.18989 0
M  V30 3481 C 320.789 -1.63946 3.38819 0
M  V30 3482 C 319.936 -0.558151 2.71625 0
M  V30 3483 H 322.887 0.152647 1.57964 0
M  V30 3484 H 322.908 -2.0104 3.23053 0
M  V30 3485 H 322.42 -0.301116 3.8693 0
M  V30 3486 H 320.521 -2.50321 2.7599 0
M  V30 3487 H 320.634 -1.71759 4.47253 0
M  V30 3488 H 318.998 -1.00278 2.34129 0
M  V30 3489 H 319.781 0.272071 3.4222 0
M  V30 3490 N 322.226 -1.5378 -0.344866 0
M  V30 3491 C 323.473 -1.70963 -1.08526 0
M  V30 3492 C 323.801 -0.472126 -1.88683 0
M  V30 3493 O 323.056 0.546116 -1.87926 0
M  V30 3494 C 323.355 -2.92407 -2.05506 0
M  V30 3495 C 323.021 -4.28066 -1.41671 0
M  V30 3496 C 321.683 -4.64951 -1.2399 0
M  V30 3497 C 324.035 -5.12344 -0.956726 0
M  V30 3498 C 321.363 -5.83733 -0.589277 0
M  V30 3499 C 323.715 -6.3179 -0.320015 0
M  V30 3500 C 322.379 -6.67372 -0.130881 0
M  V30 3501 H 321.649 -0.625598 -0.397124 0
M  V30 3502 H 324.296 -1.87995 -0.36469 0
M  V30 3503 H 322.601 -2.69973 -2.8394 0
M  V30 3504 H 324.298 -3.02895 -2.62784 0
M  V30 3505 H 320.888 -3.99034 -1.56429 0
M  V30 3506 H 325.072 -4.8438 -1.08118 0
M  V30 3507 H 320.328 -6.09877 -0.431344 0
M  V30 3508 H 324.502 -6.96386 0.0445072 0
M  V30 3509 H 322.129 -7.59273 0.375318 0
M  V30 3510 N 323.704 0.605807 -1.45491 0
M  V30 3511 C 324.951 1.36476 -1.49601 0
M  V30 3512 C 325.279 1.94007 -0.138452 0
M  V30 3513 O 324.534 1.75638 0.863114 0
M  V30 3514 C 324.833 2.53012 -2.52428 0
M  V30 3515 C 324.499 2.13617 -3.97087 0
M  V30 3516 C 323.161 2.02587 -4.36477 0
M  V30 3517 C 325.513 1.82899 -4.88055 0
M  V30 3518 C 322.841 1.59064 -5.64726 0
M  V30 3519 C 325.193 1.40861 -6.16718 0
M  V30 3520 C 323.857 1.28391 -6.55036 0
M  V30 3521 H 323.127 0.499402 -0.547429 0
M  V30 3522 H 325.774 0.684546 -1.78847 0
M  V30 3523 H 324.079 3.26379 -2.16758 0
M  V30 3524 H 325.776 3.1124 -2.52845 0
M  V30 3525 H 322.366 2.23129 -3.65939 0
M  V30 3526 H 326.55 1.90317 -4.58359 0
M  V30 3527 H 321.806 1.48034 -5.93208 0
M  V30 3528 H 325.98 1.16138 -6.86648 0
M  V30 3529 H 323.607 0.944403 -7.54311 0
M  V30 3530 N 325.182 1.32811 0.848464 0
M  V30 3531 C 326.112 1.24882 1.97299 0
M  V30 3532 C 327.093 0.131357 1.69592 0
M  V30 3533 O 328.278 0.319553 1.91553 0
M  V30 3534 C 325.408 0.97746 3.33261 0
M  V30 3535 C 324.362 2.05682 3.75338 0
M  V30 3536 C 323.688 1.63777 5.09 0
M  V30 3537 C 324.988 3.47254 3.90144 0
M  V30 3538 H 326.682 2.18966 2.04191 0
M  V30 3539 H 324.228 1.05413 0.981029 0
M  V30 3540 H 326.181 0.908513 4.1149 0
M  V30 3541 H 324.905 0.000980011 3.266 0
M  V30 3542 H 323.564 2.11603 2.99366 0
M  V30 3543 H 323.212 0.648569 4.98801 0
M  V30 3544 H 322.912 2.36 5.38124 0
M  V30 3545 H 324.436 1.5833 5.89715 0
M  V30 3546 H 325.85 3.43888 4.58709 0
M  V30 3547 H 324.247 4.1788 4.30693 0
M  V30 3548 H 325.317 3.86462 2.92874 0
M  V30 3549 N 326.66 -1.06551 1.16123 0
M  V30 3550 C 327.885 -1.83544 0.965735 0
M  V30 3551 C 328.31 -1.81843 -0.481102 0
M  V30 3552 O 327.668 -1.21732 -1.34354 0
M  V30 3553 C 327.716 -3.28169 1.49457 0
M  V30 3554 O 326.82 -4.0643 0.699157 0
M  V30 3555 H 326.161 -0.568026 0.343864 0
M  V30 3556 H 328.691 -1.34362 1.54299 0
M  V30 3557 H 328.701 -3.78992 1.51092 0
M  V30 3558 H 327.376 -3.28722 2.54784 0
M  V30 3559 H 325.953 -3.65216 0.7531 0
M  V30 3560 N 328.138 -0.959301 -1.25041 0
M  V30 3561 C 329.387 -0.612254 -1.92183 0
M  V30 3562 C 329.7 0.855347 -1.75907 0
M  V30 3563 O 330.906 1.31256 -2.37664 0
M  V30 3564 C 329.362 -1.04435 -3.44414 0
M  V30 3565 C 328.97 -2.53482 -3.69393 0
M  V30 3566 C 330.714 -0.770055 -4.17457 0
M  V30 3567 C 328.621 -2.90468 -5.15153 0
M  V30 3568 H 327.551 -0.225279 -0.719559 0
M  V30 3569 H 330.202 -1.16438 -1.41825 0
M  V30 3570 H 328.584 -0.4206 -3.9376 0
M  V30 3571 H 329.758 -3.20916 -3.30681 0
M  V30 3572 H 328.073 -2.78432 -3.0962 0
M  V30 3573 H 330.67 -1.02249 -5.24832 0
M  V30 3574 H 331.013 0.293611 -4.15263 0
M  V30 3575 H 331.546 -1.35437 -3.74034 0
M  V30 3576 H 328.285 -3.95871 -5.22462 0
M  V30 3577 H 327.805 -2.27711 -5.54894 0
M  V30 3578 H 329.484 -2.79914 -5.83315 0
M  V30 3579 N 329.616 1.39756 -0.72842 0
M  V30 3580 C 330.844 2.04948 -0.283528 0
M  V30 3581 C 331.259 1.54908 1.0793 0
M  V30 3582 O 330.616 0.711135 1.68075 0
M  V30 3583 C 330.667 3.60498 -0.268957 0
M  V30 3584 O 330.388 4.08695 -1.57798 0
M  V30 3585 C 331.889 4.4288 0.192912 0
M  V30 3586 H 329.109 0.659243 -0.125056 0
M  V30 3587 H 331.653 1.78927 -0.990226 0
M  V30 3588 H 329.808 3.85444 0.388801 0
M  V30 3589 H 330.222 5.02977 -1.48709 0
M  V30 3590 H 331.696 5.51791 0.151952 0
M  V30 3591 H 332.173 4.21418 1.23708 0
M  V30 3592 H 332.779 4.23069 -0.435039 0
M  V30 3593 N 331.094 0.475555 1.50254 0
M  V30 3594 C 332.34 -0.0780073 2.0265 0
M  V30 3595 C 332.673 -1.38968 1.35652 0
M  V30 3596 O 331.948 -1.8839 0.483691 0
M  V30 3597 C 332.231 -0.257161 3.59181 0
M  V30 3598 C 332.084 1.07585 4.36744 0
M  V30 3599 C 333.403 -1.00965 4.28362 0
M  V30 3600 H 330.522 -0.0268758 0.73651 0
M  V30 3601 H 333.164 0.622015 1.7953 0
M  V30 3602 H 331.314 -0.853412 3.79011 0
M  V30 3603 H 332.986 1.70902 4.28474 0
M  V30 3604 H 331.229 1.6714 4.00308 0
M  V30 3605 H 331.9 0.904088 5.44546 0
M  V30 3606 H 334.376 -0.504214 4.13034 0
M  V30 3607 H 333.252 -1.10381 5.37687 0
M  V30 3608 H 333.513 -2.04731 3.91839 0
M  V30 3609 N 332.573 -1.56217 0.208337 0
M  V30 3610 C 333.82 -1.97949 -0.42692 0
M  V30 3611 C 334.148 -1.09562 -1.60706 0
M  V30 3612 O 333.403 -0.137616 -1.95216 0
M  V30 3613 C 333.702 -3.45441 -0.916797 0
M  V30 3614 C 333.368 -4.50646 0.151391 0
M  V30 3615 C 332.03 -4.79139 0.444867 0
M  V30 3616 C 334.382 -5.13811 0.874492 0
M  V30 3617 C 331.71 -5.68084 1.46619 0
M  V30 3618 C 334.062 -6.03861 1.88506 0
M  V30 3619 C 332.726 -6.30704 2.18559 0
M  V30 3620 H 331.996 -0.724345 -0.156221 0
M  V30 3621 H 334.643 -1.89006 0.308084 0
M  V30 3622 H 332.948 -3.51521 -1.73032 0
M  V30 3623 H 334.645 -3.75094 -1.41794 0
M  V30 3624 H 331.235 -4.28511 -0.0875068 0
M  V30 3625 H 335.419 -4.91879 0.660996 0
M  V30 3626 H 330.675 -5.87151 1.7048 0
M  V30 3627 H 334.849 -6.51861 2.45051 0
M  V30 3628 H 332.476 -6.99424 2.97843 0
M  V30 3629 N 334.051 0.0651679 -1.57465 0
M  V30 3630 C 335.462 0.616213 -1.76238 0
M  V30 3631 C 335.813 1.7756 -0.834689 0
M  V30 3632 O 334.938 2.1639 -0.0204156 0
M  V30 3633 C 335.533 1.12462 -3.1959 0
M  V30 3634 C 334.092 1.62147 -3.39684 0
M  V30 3635 C 333.239 0.543739 -2.71917 0
M  V30 3636 H 336.19 -0.161022 -1.57881 0
M  V30 3637 H 336.211 1.99324 -3.24114 0
M  V30 3638 H 335.723 0.280592 -3.87084 0
M  V30 3639 H 333.824 2.48854 -2.77313 0
M  V30 3640 H 333.937 1.69385 -4.48158 0
M  V30 3641 H 332.301 0.990352 -2.34657 0
M  V30 3642 H 333.084 -0.290216 -3.42071 0
M  V30 3643 N 335.529 1.53961 0.336706 0
M  V30 3644 C 336.776 1.71536 1.07618 0
M  V30 3645 C 337.104 0.482125 1.8843 0
M  V30 3646 O 336.359 -0.536142 1.88213 0
M  V30 3647 C 336.658 2.93493 2.03953 0
M  V30 3648 C 336.324 4.28811 1.39399 0
M  V30 3649 C 334.986 4.65602 1.21523 0
M  V30 3650 C 337.338 5.12844 0.929541 0
M  V30 3651 C 334.666 5.84037 0.558312 0
M  V30 3652 C 337.018 6.31951 0.286505 0
M  V30 3653 C 335.682 6.67432 0.0954869 0
M  V30 3654 H 334.952 0.627696 0.393801 0
M  V30 3655 H 337.599 1.88186 0.354715 0
M  V30 3656 H 335.904 2.71475 2.82504 0
M  V30 3657 H 337.601 3.04285 2.61174 0
M  V30 3658 H 334.191 3.99858 1.54311 0
M  V30 3659 H 338.375 4.84947 1.05548 0
M  V30 3660 H 333.631 6.10097 0.398995 0
M  V30 3661 H 337.805 6.96352 -0.0814376 0
M  V30 3662 H 335.432 7.59063 -0.415579 0
M  V30 3663 N 337.007 -0.598083 1.45811 0
M  V30 3664 C 337.937 -1.71873 1.58057 0
M  V30 3665 C 338.918 -1.64533 0.431615 0
M  V30 3666 O 340.103 -1.82787 0.65595 0
M  V30 3667 C 337.233 -3.10495 1.55597 0
M  V30 3668 C 336.187 -3.32654 2.69305 0
M  V30 3669 C 335.513 -4.71646 2.51902 0
M  V30 3670 C 336.813 -3.21981 4.11248 0
M  V30 3671 H 338.507 -1.61881 2.51863 0
M  V30 3672 H 336.053 -0.777372 1.21214 0
M  V30 3673 H 338.006 -3.88699 1.6276 0
M  V30 3674 H 336.73 -3.2135 0.583255 0
M  V30 3675 H 335.389 -2.56843 2.61586 0
M  V30 3676 H 335.037 -4.79246 1.52748 0
M  V30 3677 H 334.737 -4.87426 3.2816 0
M  V30 3678 H 336.261 -5.52038 2.60933 0
M  V30 3679 H 337.675 -3.90049 4.20161 0
M  V30 3680 H 336.072 -3.49289 4.87972 0
M  V30 3681 H 337.142 -2.1928 4.32486 0
M  V30 3682 N 338.485 -1.33259 -0.841409 0
M  V30 3683 C 339.734 -1.23921 -1.59143 0
M  V30 3684 C 340.047 0.1941 -1.94635 0
M  V30 3685 O 341.253 0.409474 -2.68394 0
M  V30 3686 C 339.709 -2.17119 -2.87032 0
M  V30 3687 C 339.317 -3.65606 -2.58914 0
M  V30 3688 C 341.061 -2.16648 -3.65053 0
M  V30 3689 C 338.968 -4.50726 -3.82884 0
M  V30 3690 H 337.898 -0.460264 -0.597221 0
M  V30 3691 H 340.549 -1.58307 -0.927959 0
M  V30 3692 H 338.931 -1.75663 -3.54906 0
M  V30 3693 H 340.105 -4.15487 -1.99267 0
M  V30 3694 H 338.42 -3.68341 -1.942 0
M  V30 3695 H 341.017 -2.77474 -4.57069 0
M  V30 3696 H 341.36 -1.16088 -3.99787 0
M  V30 3697 H 341.893 -2.56453 -3.041 0
M  V30 3698 H 338.632 -5.52151 -3.53283 0
M  V30 3699 H 338.152 -4.0559 -4.41879 0
M  V30 3700 H 339.831 -4.64401 -4.50489 0
M  V30 3701 N 339.963 1.05934 -1.16686 0
M  V30 3702 C 341.374 1.60263 -0.957745 0
M  V30 3703 C 341.725 1.89789 0.49745 0
M  V30 3704 O 340.85 1.67401 1.37135 0
M  V30 3705 C 341.445 2.91172 -1.73218 0
M  V30 3706 C 340.004 3.42188 -1.56794 0
M  V30 3707 C 339.151 2.16028 -1.73859 0
M  V30 3708 H 342.102 0.888392 -1.31504 0
M  V30 3709 H 342.123 3.60744 -1.21014 0
M  V30 3710 H 341.635 2.6965 -2.79124 0
M  V30 3711 H 339.736 3.68762 -0.533437 0
M  V30 3712 H 339.849 4.17273 -2.35414 0
M  V30 3713 H 338.213 2.26426 -1.16633 0
M  V30 3714 H 338.996 1.96985 -2.81161 0
M  V30 3715 N 341.441 0.965919 1.2453 0
M  V30 3716 C 342.69 0.622437 1.91856 0
M  V30 3717 C 343.003 -0.846006 1.76358 0
M  V30 3718 O 344.209 -1.29993 2.38357 0
M  V30 3719 C 342.665 1.0626 3.43856 0
M  V30 3720 C 342.273 2.55437 3.68043 0
M  V30 3721 C 344.017 0.792183 4.17043 0
M  V30 3722 C 341.924 2.93196 5.13605 0
M  V30 3723 H 340.854 0.229092 0.718354 0
M  V30 3724 H 343.505 1.17189 1.41206 0
M  V30 3725 H 341.887 0.441476 3.93531 0
M  V30 3726 H 343.061 3.22665 3.28974 0
M  V30 3727 H 341.376 2.8007 3.08139 0
M  V30 3728 H 343.973 1.05031 5.24283 0
M  V30 3729 H 344.316 -0.271584 4.15413 0
M  V30 3730 H 344.849 1.37419 3.73311 0
M  V30 3731 H 341.588 3.98636 5.20355 0
M  V30 3732 H 341.108 2.30651 5.53679 0
M  V30 3733 H 342.787 2.83004 5.81823 0
M  V30 3734 N 342.919 -1.39368 0.735821 0
M  V30 3735 C 343.849 -2.33234 0.111506 0
M  V30 3736 C 344.83 -1.53954 -0.723334 0
M  V30 3737 O 346.015 -1.82344 -0.668147 0
M  V30 3738 C 343.145 -3.38057 -0.795917 0
M  V30 3739 C 342.099 -4.2795 -0.065172 0
M  V30 3740 C 341.425 -5.23479 -1.08967 0
M  V30 3741 C 342.725 -5.10741 1.09273 0
M  V30 3742 H 344.419 -2.85692 0.895571 0
M  V30 3743 H 341.965 -1.37364 0.432109 0
M  V30 3744 H 343.918 -4.02675 -1.24221 0
M  V30 3745 H 342.642 -2.8404 -1.61211 0
M  V30 3746 H 341.301 -3.64813 0.361511 0
M  V30 3747 H 340.949 -4.65758 -1.89944 0
M  V30 3748 H 340.649 -5.84472 -0.605489 0
M  V30 3749 H 342.173 -5.90974 -1.53565 0
M  V30 3750 H 343.587 -5.68699 0.724841 0
M  V30 3751 H 341.984 -5.8088 1.50659 0
M  V30 3752 H 343.054 -4.45525 1.91404 0
M  V30 3753 N 344.397 -0.483516 -1.5 0
M  V30 3754 C 345.307 0.309172 -2.32554 0
M  V30 3755 C 346.323 0.984159 -1.43493 0
M  V30 3756 O 347.499 0.969399 -1.76535 0
M  V30 3757 C 344.564 1.36979 -3.18493 0
M  V30 3758 C 343.625 0.710095 -4.23387 0
M  V30 3759 C 342.858 1.72018 -5.05218 0
M  V30 3760 O 343.081 2.94813 -4.88305 0
M  V30 3761 O 342.015 1.28515 -5.8802 0
M  V30 3762 H 345.841 -0.366064 -3.01486 0
M  V30 3763 H 343.426 -0.24514 -1.47375 0
M  V30 3764 H 345.308 1.98385 -3.71781 0
M  V30 3765 H 343.983 2.02828 -2.52275 0
M  V30 3766 H 342.89 0.0567539 -3.74057 0
M  V30 3767 H 344.223 0.0943557 -4.9211 0
M  V30 3768 N 345.875 1.56104 -0.216619 0
M  V30 3769 C 347.121 1.98466 0.417033 0
M  V30 3770 C 347.454 1.10403 1.59765 0
M  V30 3771 O 346.729 0.160632 1.93836 0
M  V30 3772 C 347.012 3.49769 0.85637 0
M  V30 3773 C 346.865 4.48606 -0.327546 0
M  V30 3774 C 348.184 4.05339 1.7143 0
M  V30 3775 H 345.303 0.721551 0.150112 0
M  V30 3776 H 347.945 1.87423 -0.311864 0
M  V30 3777 H 346.095 3.5931 1.47745 0
M  V30 3778 H 347.767 4.5108 -0.965618 0
M  V30 3779 H 346.01 4.22682 -0.975805 0
M  V30 3780 H 346.681 5.51995 0.0227149 0
M  V30 3781 H 349.157 3.98712 1.19031 0
M  V30 3782 H 348.033 5.11533 1.99061 0
M  V30 3783 H 348.294 3.51918 2.67593 0
M  V30 3784 N 347.353 -0.0568162 1.57498 0
M  V30 3785 C 348.283 -1.06593 2.0775 0
M  V30 3786 C 349.264 -1.39448 0.974082 0
M  V30 3787 O 350.449 -1.48815 1.24771 0
M  V30 3788 C 347.579 -2.37509 2.5339 0
M  V30 3789 C 346.533 -2.1897 3.67745 0
M  V30 3790 C 345.859 -3.55402 3.99492 0
M  V30 3791 C 347.159 -1.59859 4.97235 0
M  V30 3792 H 348.853 -0.647706 2.9231 0
M  V30 3793 H 346.399 -0.310116 1.40621 0
M  V30 3794 H 348.352 -3.08409 2.87162 0
M  V30 3795 H 347.076 -2.8134 1.65878 0
M  V30 3796 H 345.735 -1.50508 3.3428 0
M  V30 3797 H 345.383 -3.9683 3.09088 0
M  V30 3798 H 345.083 -3.43831 4.76502 0
M  V30 3799 H 346.607 -4.27708 4.35773 0
M  V30 3800 H 348.021 -2.20642 5.29141 0
M  V30 3801 H 346.418 -1.58942 5.78669 0
M  V30 3802 H 347.488 -0.561506 4.81638 0
M  V30 3803 N 348.832 -1.54138 -0.328536 0
M  V30 3804 C 349.78 -1.83894 -1.42428 0
M  V30 3805 C 350.774 -0.710478 -1.53781 0
M  V30 3806 O 351.98 -0.894062 -1.56226 0
M  V30 3807 H 348.355 -0.582837 -0.475189 0
M  V30 3808 H 350.326 -2.75537 -1.14552 0
M  V30 3809 C 349.075 -2.07866 -2.78724 0
M  V30 3810 H 348.398 -2.94158 -2.7076 0
M  V30 3811 H 349.838 -2.32644 -3.54476 0
M  V30 3812 C 348.297 -0.868689 -3.25508 0
M  V30 3813 O 348.827 -0.0754908 -4.01629 0
M  V30 3814 N 347.033 -0.681711 -2.82491 0
M  V30 3815 H 346.58 -1.32838 -2.20708 0
M  V30 3816 H 346.538 0.126374 -3.14146 0
M  V30 3817 N 350.31 0.590341 -1.46126 0
M  V30 3818 C 351.559 1.34499 -1.50309 0
M  V30 3819 C 351.872 1.94977 -0.156021 0
M  V30 3820 O 353.078 2.71395 -0.0756037 0
M  V30 3821 C 351.534 2.43723 -2.64815 0
M  V30 3822 C 351.142 1.89582 -4.0591 0
M  V30 3823 C 352.886 3.20579 -2.78262 0
M  V30 3824 C 350.793 2.9639 -5.11769 0
M  V30 3825 H 349.723 0.505593 -0.559368 0
M  V30 3826 H 352.374 0.630848 -1.72315 0
M  V30 3827 H 350.756 3.17902 -2.36124 0
M  V30 3828 H 351.93 1.21997 -4.44357 0
M  V30 3829 H 350.245 1.25418 -3.97063 0
M  V30 3830 H 352.842 4.00276 -3.54519 0
M  V30 3831 H 353.185 3.72684 -1.85505 0
M  V30 3832 H 353.718 2.53505 -3.06562 0
M  V30 3833 H 350.457 2.49181 -6.06291 0
M  V30 3834 H 349.977 3.62487 -4.77873 0
M  V30 3835 H 351.656 3.60474 -5.37278 0
M  V30 3836 N 351.788 1.33704 0.83433 0
M  V30 3837 C 353.028 1.26754 1.60352 0
M  V30 3838 C 353.392 -0.163182 1.91305 0
M  V30 3839 O 354.593 -0.3567 2.66423 0
M  V30 3840 C 352.864 2.12262 2.8754 0
M  V30 3841 S 354.423 2.22549 3.78176 0
M  V30 3842 H 351.241 0.450879 0.549753 0
M  V30 3843 H 353.843 1.68788 0.986444 0
M  V30 3844 H 352.547 3.15238 2.62779 0
M  V30 3845 H 352.078 1.71082 3.54252 0
M  V30 3846 H 354.093 1.3899 4.76336 0
M  V30 3847 N 353.266 -1.05314 1.17247 0
M  V30 3848 C 354.512 -1.78557 0.961513 0
M  V30 3849 C 354.845 -1.87419 -0.508697 0
M  V30 3850 O 354.12 -1.37307 -1.37757 0
M  V30 3851 C 354.403 -3.22514 1.60176 0
M  V30 3852 C 354.256 -3.21673 3.14399 0
M  V30 3853 C 355.575 -4.20318 1.30463 0
M  V30 3854 H 352.694 -0.6482 0.350723 0
M  V30 3855 H 355.336 -1.23102 1.44727 0
M  V30 3856 H 353.486 -3.69867 1.18871 0
M  V30 3857 H 355.158 -2.82405 3.64753 0
M  V30 3858 H 353.401 -2.60048 3.47214 0
M  V30 3859 H 354.072 -4.23271 3.54324 0
M  V30 3860 H 356.548 -3.81454 1.66229 0
M  V30 3861 H 355.424 -5.19289 1.77848 0
M  V30 3862 H 355.685 -4.41526 0.22521 0
M  V30 3863 N 354.744 -0.972509 -1.24016 0
M  V30 3864 C 355.991 -0.637034 -1.92219 0
M  V30 3865 C 356.319 0.828418 -1.75976 0
M  V30 3866 O 355.574 1.61206 -1.10955 0
M  V30 3867 C 355.873 -0.963694 -3.44162 0
M  V30 3868 C 355.539 -2.41807 -3.80579 0
M  V30 3869 C 354.201 -2.81556 -3.9023 0
M  V30 3870 C 356.553 -3.36172 -3.98293 0
M  V30 3871 C 353.881 -4.14702 -4.15017 0
M  V30 3872 C 356.233 -4.68952 -4.24578 0
M  V30 3873 C 354.897 -5.08472 -4.32449 0
M  V30 3874 H 354.167 -0.233107 -0.703379 0
M  V30 3875 H 356.814 -1.2249 -1.47202 0
M  V30 3876 H 355.119 -0.29365 -3.90698 0
M  V30 3877 H 356.816 -0.682449 -3.9515 0
M  V30 3878 H 353.406 -2.09988 -3.73635 0
M  V30 3879 H 357.59 -3.06644 -3.90234 0
M  V30 3880 H 352.846 -4.4494 -4.19331 0
M  V30 3881 H 357.02 -5.42037 -4.37229 0
M  V30 3882 H 354.647 -6.11665 -4.51409 0
M  V30 3883 N 356.222 1.38976 -0.743202 0
M  V30 3884 C 357.633 1.83123 -0.363732 0
M  V30 3885 C 357.984 1.6205 1.10609 0
M  V30 3886 O 357.109 1.11606 1.854 0
M  V30 3887 C 357.704 3.32439 -0.653408 0
M  V30 3888 C 356.263 3.74974 -0.327338 0
M  V30 3889 C 355.41 2.61878 -0.911875 0
M  V30 3890 H 358.361 1.27852 -0.940191 0
M  V30 3891 H 358.382 3.80432 0.0720031 0
M  V30 3892 H 357.894 3.47745 -1.72323 0
M  V30 3893 H 355.995 3.65252 0.736314 0
M  V30 3894 H 356.108 4.72106 -0.815631 0
M  V30 3895 H 354.472 2.52448 -0.337944 0
M  V30 3896 H 355.255 2.79987 -1.98651 0
M  V30 3897 N 357.7 0.491464 1.49741 0
M  V30 3898 C 359.116 0.146835 1.58923 0
M  V30 3899 C 359.316 -1.34804 1.49767 0
M  V30 3900 O 358.372 -2.12317 1.36667 0
M  V30 3901 C 359.685 0.715157 2.92072 0
M  V30 3902 C 361.233 0.680407 3.05515 0
M  V30 3903 C 361.708 1.22663 4.41269 0
M  V30 3904 N 363.199 1.18691 4.47735 0
M  V30 3905 C 363.934 1.57984 5.51207 0
M  V30 3906 N 363.43 2.04824 6.6183 0
M  V30 3907 N 365.223 1.49459 5.41866 0
M  V30 3908 H 357.374 1.46347 1.53936 0
M  V30 3909 H 359.637 0.606453 0.728642 0
M  V30 3910 H 359.343 1.76317 3.04311 0
M  V30 3911 H 359.217 0.17018 3.76816 0
M  V30 3912 H 361.604 -0.358743 2.92911 0
M  V30 3913 H 361.685 1.26242 2.22478 0
M  V30 3914 H 361.329 2.26451 4.54623 0
M  V30 3915 H 361.259 0.620637 5.2293 0
M  V30 3916 H 363.75 0.843605 3.68364 0
M  V30 3917 H 364.063 2.32901 7.3687 0
M  V30 3918 H 362.408 2.08791 6.62896 0
M  V30 3919 H 365.599 1.12692 4.54333 0
M  V30 3920 H 365.772 1.80406 6.22381 0
M  V30 3921 N 359.178 -1.55987 0.224894 0
M  V30 3922 C 360.088 -2.24066 -0.69511 0
M  V30 3923 C 361.104 -1.24939 -1.21104 0
M  V30 3924 O 362.28 -1.5776 -1.25195 0
M  V30 3925 C 359.345 -2.90983 -1.88493 0
M  V30 3926 C 358.406 -4.05462 -1.41064 0
M  V30 3927 C 357.639 -4.69179 -2.54375 0
M  V30 3928 O 357.862 -4.31895 -3.72589 0
M  V30 3929 O 356.796 -5.58108 -2.25386 0
M  V30 3930 H 360.622 -3.03353 -0.145149 0
M  V30 3931 H 358.207 -1.49399 -0.00569476 0
M  V30 3932 H 360.089 -3.33209 -2.57972 0
M  V30 3933 H 358.764 -2.14653 -2.42293 0
M  V30 3934 H 357.671 -3.67798 -0.683774 0
M  V30 3935 H 359.004 -4.83545 -0.918985 0
M  V30 3936 N 360.656 0.0484629 -1.57525 0
M  V30 3937 C 361.902 0.744226 -1.88651 0
M  V30 3938 C 362.235 1.76029 -0.820212 0
M  V30 3939 O 361.51 1.93782 0.166985 0
M  V30 3940 C 361.793 1.43128 -3.30434 0
M  V30 3941 C 361.646 0.43005 -4.47739 0
M  V30 3942 C 362.965 2.37031 -3.70816 0
M  V30 3943 H 360.084 0.269089 -0.68612 0
M  V30 3944 H 362.726 0.00713532 -1.89999 0
M  V30 3945 H 360.876 2.05956 -3.29415 0
M  V30 3946 H 362.548 -0.194816 -4.60888 0
M  V30 3947 H 360.791 -0.252522 -4.33064 0
M  V30 3948 H 361.462 0.948874 -5.43783 0
M  V30 3949 H 363.938 1.84263 -3.73077 0
M  V30 3950 H 362.814 2.82094 -4.70865 0
M  V30 3951 H 363.075 3.22864 -3.02012 0
M  V30 3952 N 362.134 1.5431 0.320358 0
M  V30 3953 C 363.362 1.76636 1.07738 0
M  V30 3954 C 363.777 0.51649 1.81598 0
M  V30 3955 O 363.134 -0.512942 1.75143 0
M  V30 3956 C 363.185 2.96158 2.07299 0
M  V30 3957 O 362.906 4.16313 1.36438 0
M  V30 3958 C 364.407 3.3072 2.95193 0
M  V30 3959 H 361.627 0.589597 0.320339 0
M  V30 3960 H 364.171 2.01207 0.36551 0
M  V30 3961 H 362.326 2.73851 2.74016 0
M  V30 3962 H 362.74 4.83565 2.03138 0
M  V30 3963 H 364.214 4.17643 3.60941 0
M  V30 3964 H 364.691 2.48026 3.62463 0
M  V30 3965 H 365.297 3.55117 2.34034 0
M  V30 3966 N 363.613 -0.582584 1.46437 0
M  V30 3967 C 364.561 -1.71272 1.5738 0
M  V30 3968 C 365.555 -1.63524 0.44229 0
M  V30 3969 O 366.761 -1.69016 0.619166 0
M  V30 3970 H 363.136 -0.566273 0.494813 0
M  V30 3971 H 365.107 -1.59174 2.52401 0
M  V30 3972 C 363.856 -3.09658 1.58136 0
M  V30 3973 H 363.179 -3.16291 2.44541 0
M  V30 3974 H 364.619 -3.88494 1.69847 0
M  V30 3975 C 363.078 -3.3547 0.310026 0
M  V30 3976 O 363.608 -3.97199 -0.599683 0
M  V30 3977 N 361.814 -2.89925 0.197901 0
M  V30 3978 H 361.361 -2.39873 0.93909 0
M  V30 3979 H 361.319 -3.07568 -0.65185 0
M  V30 3980 N 365.091 -1.34144 -0.827227 0
M  V30 3981 C 366.338 -1.26258 -1.58319 0
M  V30 3982 C 366.666 0.168595 -1.93768 0
M  V30 3983 O 365.921 1.12877 -1.59866 0
M  V30 3984 C 366.22 -2.09464 -2.89585 0
M  V30 3985 C 365.886 -3.58521 -2.73448 0
M  V30 3986 C 364.548 -3.99155 -2.68754 0
M  V30 3987 C 366.9 -4.53189 -2.57428 0
M  V30 3988 C 364.228 -5.32656 -2.45957 0
M  V30 3989 C 366.58 -5.86864 -2.36163 0
M  V30 3990 C 365.244 -6.26667 -2.29879 0
M  V30 3991 H 364.514 -0.462013 -0.579332 0
M  V30 3992 H 367.161 -1.65845 -0.95748 0
M  V30 3993 H 365.466 -1.62692 -3.56425 0
M  V30 3994 H 367.163 -2.00712 -3.47154 0
M  V30 3995 H 363.753 -3.26264 -2.77939 0
M  V30 3996 H 367.937 -4.22696 -2.60081 0
M  V30 3997 H 363.193 -5.62519 -2.39546 0
M  V30 3998 H 367.367 -6.59813 -2.22754 0
M  V30 3999 H 364.994 -7.30049 -2.11975 0
M  V30 4000 N 366.569 1.04691 -1.17803 0
M  V30 4001 C 367.499 2.14494 -0.92275 0
M  V30 4002 C 368.48 1.69546 0.137179 0
M  V30 4003 O 369.665 1.94195 -0.0141108 0
M  V30 4004 C 366.795 3.44491 -0.440803 0
M  V30 4005 C 365.749 4.03031 -1.4405 0
M  V30 4006 C 365.075 5.28432 -0.81631 0
M  V30 4007 C 366.375 4.39932 -2.81527 0
M  V30 4008 H 368.069 2.36107 -1.84103 0
M  V30 4009 H 365.615 1.1347 -0.886599 0
M  V30 4010 H 367.568 4.2066 -0.249602 0
M  V30 4011 H 366.292 3.22546 0.513025 0
M  V30 4012 H 364.951 3.28937 -1.61853 0
M  V30 4013 H 364.599 5.02792 0.144511 0
M  V30 4014 H 364.299 5.68559 -1.48371 0
M  V30 4015 H 365.823 6.07284 -0.635496 0
M  V30 4016 H 367.237 5.07113 -2.67412 0
M  V30 4017 H 365.634 4.9109 -3.44892 0
M  V30 4018 H 366.704 3.50045 -3.35554 0
M  V30 4019 N 368.047 0.979072 1.23499 0
M  V30 4020 C 369.463 0.687475 1.44034 0
M  V30 4021 C 369.663 -0.746801 1.8715 0
M  V30 4022 O 368.719 -1.51939 2.0167 0
M  V30 4023 C 370.032 1.68127 2.49307 0
M  V30 4024 C 371.58 1.69516 2.63122 0
M  V30 4025 C 372.055 2.67723 3.71603 0
M  V30 4026 N 373.546 2.66233 3.79044 0
M  V30 4027 C 374.281 3.38891 4.62537 0
M  V30 4028 N 373.777 4.21103 5.50131 0
M  V30 4029 N 375.57 3.27661 4.56721 0
M  V30 4030 H 367.721 1.90559 0.938135 0
M  V30 4031 H 369.984 0.821051 0.473897 0
M  V30 4032 H 369.69 2.70693 2.2454 0
M  V30 4033 H 369.564 1.46306 3.4767 0
M  V30 4034 H 371.951 0.676561 2.8724 0
M  V30 4035 H 372.032 1.95404 1.65079 0
M  V30 4036 H 371.676 3.69724 3.48233 0
M  V30 4037 H 371.606 2.39111 4.69184 0
M  V30 4038 H 374.097 2.06568 3.16446 0
M  V30 4039 H 374.41 4.73403 6.10827 0
M  V30 4040 H 372.755 4.25195 5.49759 0
M  V30 4041 H 375.946 2.62887 3.87309 0
M  V30 4042 H 376.119 3.84547 5.21562 0
M  V30 4043 N 369.525 -1.3858 0.750561 0
M  V30 4044 C 370.472 -2.30483 0.120835 0
M  V30 4045 C 371.442 -1.50022 -0.712923 0
M  V30 4046 O 372.627 -1.78662 -0.669676 0
M  V30 4047 C 369.767 -3.36431 -0.768666 0
M  V30 4048 C 368.88 -4.31927 0.0793922 0
M  V30 4049 C 368.015 -5.24944 -0.81283 0
M  V30 4050 C 367.054 -6.12088 0.0390447 0
M  V30 4051 N 366.191 -6.97412 -0.809969 0
M  V30 4052 H 371.031 -2.83761 0.91015 0
M  V30 4053 H 368.568 -1.39707 0.460463 0
M  V30 4054 H 370.526 -3.96462 -1.29898 0
M  V30 4055 H 369.156 -2.8457 -1.5238 0
M  V30 4056 H 368.208 -3.73382 0.727303 0
M  V30 4057 H 369.52 -4.93319 0.737401 0
M  V30 4058 H 368.674 -5.90078 -1.41042 0
M  V30 4059 H 367.413 -4.63911 -1.50458 0
M  V30 4060 H 366.418 -5.45952 0.649328 0
M  V30 4061 H 367.643 -6.75189 0.727809 0
M  V30 4062 H 365.589 -6.38931 -1.48672 0
M  V30 4063 H 365.506 -7.55712 -0.208789 0
M  V30 4064 H 366.774 -7.66959 -1.39263 0
M  V30 4065 N 371.003 -0.499398 -1.49478 0
M  V30 4066 C 372.228 0.044722 -2.07352 0
M  V30 4067 C 372.653 1.30207 -1.35749 0
M  V30 4068 O 372.011 1.76516 -0.413732 0
M  V30 4069 C 372.059 0.283013 -3.59488 0
M  V30 4070 O 371.163 1.35804 -3.89398 0
M  V30 4071 H 370.504 -0.0255147 -0.66351 0
M  V30 4072 H 373.034 -0.698561 -1.92305 0
M  V30 4073 H 373.044 0.515007 -4.04737 0
M  V30 4074 H 371.719 -0.635636 -4.11014 0
M  V30 4075 H 370.296 1.11113 -3.55961 0
M  V30 4076 N 372.481 1.55866 -0.233164 0
M  V30 4077 C 373.727 1.98897 0.395959 0
M  V30 4078 C 374.06 1.12091 1.58585 0
M  V30 4079 O 373.335 0.181182 1.93654 0
M  V30 4080 C 373.618 3.50658 0.819224 0
M  V30 4081 C 373.471 4.48233 -0.375109 0
M  V30 4082 C 374.79 4.07135 1.67121 0
M  V30 4083 H 371.909 0.723102 0.142451 0
M  V30 4084 H 374.551 1.87082 -0.331725 0
M  V30 4085 H 372.701 3.60857 1.43925 0
M  V30 4086 H 374.373 4.50031 -1.01341 0
M  V30 4087 H 372.616 4.21624 -1.02058 0
M  V30 4088 H 373.287 5.51988 -0.0358328 0
M  V30 4089 H 375.763 3.99952 1.14795 0
M  V30 4090 H 374.639 5.13615 1.93625 0
M  V30 4091 H 374.9 3.54736 2.63846 0
M  V30 4092 N 373.959 -0.0401083 1.57549 0
M  V30 4093 C 374.906 -1.04413 2.05831 0
M  V30 4094 C 375.876 -1.36585 0.945184 0
M  V30 4095 O 377.061 -1.47112 1.21502 0
M  V30 4096 C 374.201 -2.34336 2.53339 0
M  V30 4097 C 373.314 -2.08419 3.78398 0
M  V30 4098 C 372.449 -3.32133 4.14561 0
M  V30 4099 C 371.488 -3.01721 5.3257 0
M  V30 4100 N 370.625 -4.17855 5.64218 0
M  V30 4101 H 375.465 -0.625442 2.91363 0
M  V30 4102 H 373.002 -0.297218 1.44066 0
M  V30 4103 H 374.96 -3.10234 2.78946 0
M  V30 4104 H 373.59 -2.73948 1.7074 0
M  V30 4105 H 372.642 -1.23069 3.59942 0
M  V30 4106 H 373.954 -1.81978 4.64419 0
M  V30 4107 H 373.108 -4.16406 4.41238 0
M  V30 4108 H 371.847 -3.61678 3.2717 0
M  V30 4109 H 370.852 -2.15849 5.05657 0
M  V30 4110 H 372.077 -2.73466 6.21605 0
M  V30 4111 H 370.023 -4.47372 4.79786 0
M  V30 4112 H 369.94 -3.94798 6.44725 0
M  V30 4113 H 371.208 -5.03033 5.95465 0
M  V30 4114 N 375.437 -1.54477 -0.31217 0
M  V30 4115 C 376.853 -1.45442 -0.657185 0
M  V30 4116 C 377.053 -0.63653 -1.91182 0
M  V30 4117 O 376.109 -0.139815 -2.52113 0
M  V30 4118 C 377.422 -2.89287 -0.82058 0
M  V30 4119 C 378.97 -2.9926 -0.917188 0
M  V30 4120 C 379.445 -4.44279 -1.11267 0
M  V30 4121 N 380.936 -4.4794 -1.17914 0
M  V30 4122 C 381.671 -5.57318 -1.34848 0
M  V30 4123 N 381.167 -6.76642 -1.48752 0
M  V30 4124 N 382.96 -5.44986 -1.37647 0
M  V30 4125 H 375.111 -2.06129 0.512313 0
M  V30 4126 H 377.374 -0.933088 0.167485 0
M  V30 4127 H 377.08 -3.51687 0.0302604 0
M  V30 4128 H 376.954 -3.36061 -1.71298 0
M  V30 4129 H 379.341 -2.36981 -1.75852 0
M  V30 4130 H 379.422 -2.558 -0.00101257 0
M  V30 4131 H 379.066 -5.07149 -0.27614 0
M  V30 4132 H 378.996 -4.85359 -2.04289 0
M  V30 4133 H 381.487 -3.61969 -1.08567 0
M  V30 4134 H 381.8 -7.55758 -1.61397 0
M  V30 4135 H 380.145 -6.79529 -1.45828 0
M  V30 4136 H 383.336 -4.50715 -1.26388 0
M  V30 4137 H 383.509 -6.3028 -1.50501 0
M  V30 4138 N 376.915 0.57481 -1.46744 0
M  V30 4139 C 377.848 1.69827 -1.52427 0
M  V30 4140 C 378.826 1.58151 -0.377744 0
M  V30 4141 O 380.01 1.79257 -0.58303 0
M  V30 4142 C 377.137 3.07943 -1.41027 0
M  V30 4143 C 376.183 3.38116 -2.59961 0
M  V30 4144 S 377.016 3.29313 -4.22272 0
M  V30 4145 C 378.172 4.69953 -4.13394 0
M  V30 4146 H 378.405 1.64748 -2.47478 0
M  V30 4147 H 375.938 0.754203 -1.34726 0
M  V30 4148 H 377.896 3.87619 -1.35137 0
M  V30 4149 H 376.557 3.10504 -0.473909 0
M  V30 4150 H 375.75 4.38762 -2.47999 0
M  V30 4151 H 375.352 2.66024 -2.62882 0
M  V30 4152 H 377.644 5.60517 -3.80562 0
M  V30 4153 H 378.587 4.86972 -5.14066 0
M  V30 4154 H 378.995 4.47174 -3.44522 0
M  V30 4155 N 378.394 1.34581 0.820102 0
M  V30 4156 C 379.341 1.2639 1.93117 0
M  V30 4157 C 380.311 0.138554 1.65521 0
M  V30 4158 O 381.496 0.320004 1.88097 0
M  V30 4159 C 378.636 1.02812 3.29429 0
M  V30 4160 C 377.749 2.24146 3.693 0
M  V30 4161 C 376.884 1.93829 4.94574 0
M  V30 4162 C 375.923 3.1129 5.27034 0
M  V30 4163 N 375.06 2.80838 6.43486 0
M  V30 4164 H 379.9 2.21408 1.99455 0
M  V30 4165 H 377.437 1.10077 0.975784 0
M  V30 4166 H 379.395 0.871788 4.0799 0
M  V30 4167 H 378.025 0.114612 3.22596 0
M  V30 4168 H 377.077 2.50691 2.86109 0
M  V30 4169 H 378.389 3.11899 3.89257 0
M  V30 4170 H 377.543 1.74948 5.80929 0
M  V30 4171 H 376.282 1.03341 4.76626 0
M  V30 4172 H 375.287 3.30764 4.39175 0
M  V30 4173 H 376.512 4.02561 5.4692 0
M  V30 4174 H 374.458 1.92929 6.26988 0
M  V30 4175 H 374.375 3.62123 6.63629 0
M  V30 4176 H 375.643 2.65467 7.32903 0
M  V30 4177 N 379.872 -1.04064 1.18357 0
M  V30 4178 C 380.782 -2.15569 0.925596 0
M  V30 4179 C 381.798 -1.7365 -0.110295 0
M  V30 4180 O 382.974 -2.01273 0.0716218 0
M  V30 4181 C 380.039 -3.43704 0.454836 0
M  V30 4182 C 379.1 -4.00004 1.55869 0
M  V30 4183 C 378.333 -5.22023 1.1103 0
M  V30 4184 O 378.556 -5.70392 -0.0309756 0
M  V30 4185 O 377.49 -5.70856 1.90805 0
M  V30 4186 H 381.316 -2.40187 1.8586 0
M  V30 4187 H 378.901 -1.1402 0.965394 0
M  V30 4188 H 380.783 -4.20923 0.200382 0
M  V30 4189 H 379.458 -3.20559 -0.449876 0
M  V30 4190 H 378.365 -3.24172 1.86716 0
M  V30 4191 H 379.698 -4.2749 2.43953 0
M  V30 4192 N 381.35 -0.985608 -1.22978 0
M  V30 4193 C 382.575 -0.675254 -1.961 0
M  V30 4194 C 383 0.752154 -1.72407 0
M  V30 4195 O 382.358 1.5131 -0.998751 0
M  V30 4196 C 382.406 -0.977899 -3.47087 0
M  V30 4197 O 381.51 -0.072685 -4.12336 0
M  V30 4198 H 380.851 -0.253443 -0.613728 0
M  V30 4199 H 383.381 -1.32061 -1.56272 0
M  V30 4200 H 383.391 -0.916739 -3.97567 0
M  V30 4201 H 382.066 -2.01807 -3.63657 0
M  V30 4202 H 380.643 -0.188703 -3.72422 0
M  V30 4203 N 382.828 1.3818 -0.7579 0
M  V30 4204 C 384.244 1.5353 -0.435972 0
M  V30 4205 C 384.444 1.71961 1.05032 0
M  V30 4206 O 383.5 1.73307 1.83633 0
M  V30 4207 C 384.813 2.73989 -1.23898 0
M  V30 4208 C 386.361 2.87841 -1.22949 0
M  V30 4209 C 386.836 4.11266 -2.01554 0
M  V30 4210 N 388.327 4.18352 -1.98837 0
M  V30 4211 C 389.062 5.12856 -2.5645 0
M  V30 4212 N 388.558 6.13005 -3.22794 0
M  V30 4213 N 390.351 5.05238 -2.46356 0
M  V30 4214 H 382.502 1.24467 -1.7211 0
M  V30 4215 H 384.765 0.604982 -0.729864 0
M  V30 4216 H 384.471 2.66789 -2.29165 0
M  V30 4217 H 384.345 3.67294 -0.858764 0
M  V30 4218 H 386.732 2.9452 -0.184854 0
M  V30 4219 H 386.813 1.95534 -1.64924 0
M  V30 4220 H 386.457 4.05349 -3.06031 0
M  V30 4221 H 386.387 5.02661 -1.5697 0
M  V30 4222 H 388.878 3.46628 -1.50524 0
M  V30 4223 H 389.191 6.81619 -3.64165 0
M  V30 4224 H 387.536 6.13325 -3.2689 0
M  V30 4225 H 390.727 4.25938 -1.9415 0
M  V30 4226 H 390.9 5.78707 -2.91552 0
M  V30 4227 N 384.306 0.507319 1.49211 0
M  V30 4228 C 385.236 -0.256939 2.32082 0
M  V30 4229 C 386.217 -0.956609 1.40652 0
M  V30 4230 O 387.402 -0.946788 1.69557 0
M  V30 4231 C 384.532 -1.31802 3.21318 0
M  V30 4232 C 383.486 -0.737855 4.21592 0
M  V30 4233 C 382.812 -1.89992 4.99807 0
M  V30 4234 C 384.112 0.275325 5.21574 0
M  V30 4235 H 385.806 0.434798 2.96226 0
M  V30 4236 H 383.352 0.210546 1.42452 0
M  V30 4237 H 385.305 -1.86045 3.78107 0
M  V30 4238 H 384.029 -2.03903 2.5513 0
M  V30 4239 H 382.688 -0.217126 3.65956 0
M  V30 4240 H 382.336 -2.60877 4.30061 0
M  V30 4241 H 382.036 -1.51777 5.6766 0
M  V30 4242 H 383.56 -2.44657 5.59442 0
M  V30 4243 H 384.974 -0.179193 5.7302 0
M  V30 4244 H 383.371 0.573649 5.97352 0
M  V30 4245 H 384.441 1.18903 4.70096 0
M  V30 4246 N 385.784 -1.5574 0.241426 0
M  V30 4247 C 386.694 -2.2479 -0.671305 0
M  V30 4248 C 387.71 -1.26217 -1.19772 0
M  V30 4249 O 388.886 -1.59079 -1.23514 0
M  V30 4250 C 385.951 -2.92966 -1.85396 0
M  V30 4251 C 385.012 -4.06935 -1.36756 0
M  V30 4252 C 384.245 -4.71851 -2.49384 0
M  V30 4253 O 384.468 -4.35823 -3.67987 0
M  V30 4254 O 383.402 -5.60467 -2.19454 0
M  V30 4255 H 387.228 -3.0349 -0.112966 0
M  V30 4256 H 384.813 -1.49397 0.0101513 0
M  V30 4257 H 386.695 -3.35927 -2.54423 0
M  V30 4258 H 385.37 -2.17211 -2.40002 0
M  V30 4259 H 384.277 -3.68503 -0.644726 0
M  V30 4260 H 385.61 -4.84492 -0.867647 0
M  V30 4261 N 387.262 0.0317525 -1.57568 0
M  V30 4262 C 388.539 0.758366 -1.803 0
M  V30 4263 C 388.919 1.93718 -0.838845 0
M  V30 4264 O 388.267 2.28187 0.119571 0
M  V30 4265 C 388.477 1.19392 -3.27943 0
M  V30 4266 C 389.825 1.61094 -3.92854 0
M  V30 4267 O 390.849 1.28857 -3.32076 0
M  V30 4268 O 389.708 2.20918 -4.99858 0
M  V30 4269 H 386.802 0.366514 -0.741348 0
M  V30 4270 H 389.348 0.00873765 -1.69698 0
M  V30 4271 H 388.12 0.352275 -3.89711 0
M  V30 4272 H 387.743 2.00365 -3.43424 0
M  V30 4273 N 388.74 1.54641 0.303973 0
M  V30 4274 C 389.968 1.77768 1.05858 0
M  V30 4275 C 390.383 0.535722 1.8104 0
M  V30 4276 O 389.74 -0.494337 1.75677 0
M  V30 4277 C 389.791 2.9834 2.04146 0
M  V30 4278 O 389.512 4.17736 1.32015 0
M  V30 4279 C 391.013 3.33832 2.91669 0
M  V30 4280 H 388.233 0.592961 0.314067 0
M  V30 4281 H 390.777 2.01583 0.344149 0
M  V30 4282 H 388.932 2.76742 2.71096 0
M  V30 4283 H 389.346 4.85693 1.97998 0
M  V30 4284 H 390.82 4.21448 3.56491 0
M  V30 4285 H 391.297 2.51857 3.59812 0
M  V30 4286 H 391.903 3.57579 2.30254 0
M  V30 4287 N 390.218 -0.567019 1.47046 0
M  V30 4288 C 391.15 -1.68985 1.54844 0
M  V30 4289 C 392.163 -1.56869 0.435431 0
M  V30 4290 O 393.352 -1.64006 0.70457 0
M  V30 4291 C 390.452 -3.07373 1.42742 0
M  V30 4292 C 389.625 -3.45339 2.6844 0
M  V30 4293 C 388.684 -4.62849 2.50314 0
M  V30 4294 O 387.71 -4.67922 3.24095 0
M  V30 4295 N 388.912 -5.58726 1.57499 0
M  V30 4296 H 391.677 -1.62745 2.51663 0
M  V30 4297 H 389.238 -0.753411 1.43302 0
M  V30 4298 H 391.23 -3.83803 1.28365 0
M  V30 4299 H 389.8 -3.07893 0.540445 0
M  V30 4300 H 389.02 -2.58455 2.97648 0
M  V30 4301 H 390.308 -3.67476 3.51907 0
M  V30 4302 H 389.706 -5.57376 0.966876 0
M  V30 4303 H 388.263 -6.34523 1.49078 0
M  V30 4304 N 391.696 -1.35014 -0.812953 0
M  V30 4305 C 392.643 -1.27412 -1.92444 0
M  V30 4306 C 393.613 -0.14733 -1.65445 0
M  V30 4307 O 394.798 -0.329974 -1.87925 0
M  V30 4308 C 391.938 -1.04558 -3.28879 0
M  V30 4309 C 391.051 -2.26101 -3.68106 0
M  V30 4310 C 390.186 -1.96449 -4.9354 0
M  V30 4311 C 389.225 -3.14081 -5.25376 0
M  V30 4312 N 388.362 -2.84246 -6.41988 0
M  V30 4313 H 393.202 -2.22463 -1.98278 0
M  V30 4314 H 390.739 -1.10593 -0.969933 0
M  V30 4315 H 392.697 -0.893413 -4.07522 0
M  V30 4316 H 391.327 -0.131719 -3.22531 0
M  V30 4317 H 390.379 -2.52204 -2.84775 0
M  V30 4318 H 391.691 -3.13959 -3.87597 0
M  V30 4319 H 390.845 -1.78026 -5.79993 0
M  V30 4320 H 389.584 -1.05867 -4.76071 0
M  V30 4321 H 388.589 -3.33089 -4.37415 0
M  V30 4322 H 389.814 -4.05455 -5.44778 0
M  V30 4323 H 387.76 -1.96252 -6.25956 0
M  V30 4324 H 387.677 -3.65637 -6.61699 0
M  V30 4325 H 388.945 -2.6935 -7.31485 0
M  V30 4326 N 393.175 1.03435 -1.18907 0
M  V30 4327 C 394.125 2.09924 -0.889706 0
M  V30 4328 C 395.109 1.60261 0.143216 0
M  V30 4329 O 396.301 1.76892 -0.0617122 0
M  V30 4330 C 393.43 3.40669 -0.424168 0
M  V30 4331 C 392.516 3.97082 -1.48952 0
M  V30 4332 N 392.907 4.27227 -2.70759 0
M  V30 4333 C 391.205 4.25029 -1.35152 0
M  V30 4334 C 391.906 4.7246 -3.39347 0
M  V30 4335 N 390.882 4.7366 -2.66735 0
M  V30 4336 H 394.684 2.31116 -1.81555 0
M  V30 4337 H 392.198 1.21246 -1.08042 0
M  V30 4338 H 394.195 4.16461 -0.191176 0
M  V30 4339 H 392.855 3.20901 0.495263 0
M  V30 4340 H 393.866 4.16678 -3.0757 0
M  V30 4341 H 390.543 4.14554 -0.495126 0
M  V30 4342 H 391.933 5.04751 -4.43481 0
M  V30 4343 N 394.653 0.992116 1.22453 0
M  V30 4344 C 396.069 0.702713 1.43297 0
M  V30 4345 C 396.269 -0.726909 1.87932 0
M  V30 4346 O 395.325 -1.49792 2.0327 0
M  V30 4347 C 396.638 1.70762 2.47509 0
M  V30 4348 C 398.186 1.72298 2.61309 0
M  V30 4349 C 398.661 2.71649 3.68742 0
M  V30 4350 N 400.152 2.70239 3.76199 0
M  V30 4351 C 400.887 3.43778 4.58917 0
M  V30 4352 N 400.383 4.26914 5.45633 0
M  V30 4353 N 402.176 3.32487 4.5322 0
M  V30 4354 H 394.327 1.91543 0.917871 0
M  V30 4355 H 396.59 0.826031 0.465162 0
M  V30 4356 H 396.296 2.73059 2.21657 0
M  V30 4357 H 396.17 1.49985 3.46099 0
M  V30 4358 H 398.557 0.706989 2.86506 0
M  V30 4359 H 398.638 1.97143 1.62997 0
M  V30 4360 H 398.282 3.73397 3.44292 0
M  V30 4361 H 398.212 2.44074 4.66622 0
M  V30 4362 H 400.703 2.09912 3.14237 0
M  V30 4363 H 401.016 4.79855 6.05771 0
M  V30 4364 H 399.361 4.31002 5.45218 0
M  V30 4365 H 402.552 2.6698 3.84499 0
M  V30 4366 H 402.725 3.90058 5.17454 0
M  V30 4367 N 396.131 -1.37776 0.765217 0
M  V30 4368 C 397.377 -2.00145 0.327072 0
M  V30 4369 C 397.71 -1.60607 -1.09175 0
M  V30 4370 O 396.985 -0.849127 -1.74986 0
M  V30 4371 C 397.268 -3.57109 0.46319 0
M  V30 4372 C 397.121 -4.06576 1.92395 0
M  V30 4373 C 398.44 -4.39888 -0.136473 0
M  V30 4374 H 395.559 -0.727113 0.120316 0
M  V30 4375 H 398.201 -1.63549 0.967039 0
M  V30 4376 H 396.351 -3.88414 -0.0816358 0
M  V30 4377 H 398.023 -3.85864 2.52798 0
M  V30 4378 H 396.266 -3.59011 2.43503 0
M  V30 4379 H 396.937 -5.15639 1.97028 0
M  V30 4380 H 399.413 -4.14803 0.328317 0
M  V30 4381 H 398.289 -5.48899 -0.0110582 0
M  V30 4382 H 398.55 -4.24758 -1.22608 0
M  V30 4383 N 397.609 -0.515225 -1.4894 0
M  V30 4384 C 398.886 0.0879088 -1.95402 0
M  V30 4385 C 399.266 1.52745 -1.45712 0
M  V30 4386 O 398.614 2.18238 -0.677093 0
M  V30 4387 C 398.824 -0.0141055 -3.48997 0
M  V30 4388 C 400.172 0.152646 -4.24326 0
M  V30 4389 O 401.196 0.0604025 -3.56149 0
M  V30 4390 O 400.055 0.34384 -5.45417 0
M  V30 4391 H 397.149 0.0874636 -0.822362 0
M  V30 4392 H 399.695 -0.578775 -1.59525 0
M  V30 4393 H 398.467 -1.01745 -3.77841 0
M  V30 4394 H 398.09 0.692091 -3.9153 0
M  V30 4395 N 399.087 1.5561 -0.249682 0
M  V30 4396 C 400.334 1.99011 0.374287 0
M  V30 4397 C 400.662 1.13785 1.57744 0
M  V30 4398 O 399.917 0.189326 1.94782 0
M  V30 4399 C 400.216 3.4775 0.824887 0
M  V30 4400 C 399.882 4.50086 -0.270819 0
M  V30 4401 C 398.544 4.77791 -0.571746 0
M  V30 4402 C 400.896 5.11312 -1.01041 0
M  V30 4403 C 398.224 5.63997 -1.61629 0
M  V30 4404 C 400.576 5.98651 -2.0445 0
M  V30 4405 C 399.24 6.24688 -2.35204 0
M  V30 4406 H 398.51 0.728233 0.136961 0
M  V30 4407 H 401.157 1.88122 -0.358087 0
M  V30 4408 H 399.462 3.55985 1.63651 0
M  V30 4409 H 401.159 3.78721 1.31799 0
M  V30 4410 H 397.749 4.28592 -0.026136 0
M  V30 4411 H 401.933 4.89953 -0.791177 0
M  V30 4412 H 397.189 5.82425 -1.85988 0
M  V30 4413 H 401.363 6.45135 -2.62248 0
M  V30 4414 H 398.99 6.91281 -3.16282 0
M  V30 4415 N 400.565 -0.0233959 1.57583 0
M  V30 4416 C 401.495 -1.02162 2.09965 0
M  V30 4417 C 402.476 -1.3735 1.00344 0
M  V30 4418 O 403.661 -1.46135 1.27899 0
M  V30 4419 C 400.791 -2.32081 2.58371 0
M  V30 4420 C 399.745 -2.1112 3.72307 0
M  V30 4421 C 399.071 -3.46848 4.06941 0
M  V30 4422 C 400.371 -1.49276 5.00514 0
M  V30 4423 H 402.065 -0.585557 2.93618 0
M  V30 4424 H 399.611 -0.280218 1.41247 0
M  V30 4425 H 401.564 -3.02249 2.93639 0
M  V30 4426 H 400.288 -2.77758 1.71808 0
M  V30 4427 H 398.947 -1.43384 3.37397 0
M  V30 4428 H 398.595 -3.90184 3.17436 0
M  V30 4429 H 398.295 -3.33646 4.83688 0
M  V30 4430 H 399.819 -4.18369 4.44747 0
M  V30 4431 H 401.233 -2.09368 5.33702 0
M  V30 4432 H 399.63 -1.46632 5.8191 0
M  V30 4433 H 400.7 -0.459217 4.82721 0
M  V30 4434 N 402.043 -1.548 -0.295768 0
M  V30 4435 C 402.975 -1.82492 -1.3867 0
M  V30 4436 C 403.988 -0.708134 -1.46592 0
M  V30 4437 O 405.177 -0.985686 -1.48817 0
M  V30 4438 C 402.277 -1.95256 -2.76999 0
M  V30 4439 C 401.45 -3.25709 -2.91946 0
M  V30 4440 C 400.509 -3.28824 -4.10806 0
M  V30 4441 O 399.535 -4.02328 -4.02643 0
M  V30 4442 N 400.737 -2.5459 -5.21694 0
M  V30 4443 H 403.502 -2.76646 -1.15269 0
M  V30 4444 H 401.063 -1.54438 -0.485849 0
M  V30 4445 H 403.055 -1.94736 -3.54768 0
M  V30 4446 H 401.625 -1.08072 -2.93324 0
M  V30 4447 H 400.845 -3.38959 -2.01247 0
M  V30 4448 H 402.133 -4.11786 -2.98847 0
M  V30 4449 H 401.531 -1.94512 -5.31208 0
M  V30 4450 H 400.088 -2.59818 -5.97778 0
M  V30 4451 N 403.521 0.559213 -1.47345 0
M  V30 4452 C 404.451 1.67622 -1.62558 0
M  V30 4453 C 405.432 1.63331 -0.475087 0
M  V30 4454 O 406.617 1.80983 -0.704182 0
M  V30 4455 C 403.747 3.0626 -1.63774 0
M  V30 4456 C 402.701 3.25397 -2.7803 0
M  V30 4457 C 402.027 4.64801 -2.64318 0
M  V30 4458 C 403.327 3.10965 -4.19641 0
M  V30 4459 H 405.021 1.55146 -2.56067 0
M  V30 4460 H 402.567 0.744961 -1.23233 0
M  V30 4461 H 404.52 3.84247 -1.73008 0
M  V30 4462 H 403.244 3.1969 -0.66825 0
M  V30 4463 H 401.903 2.49817 -2.68304 0
M  V30 4464 H 401.551 4.75028 -1.65401 0
M  V30 4465 H 401.251 4.78555 -3.40968 0
M  V30 4466 H 402.775 5.44926 -2.75478 0
M  V30 4467 H 404.189 3.78772 -4.30354 0
M  V30 4468 H 402.586 3.36229 -4.97062 0
M  V30 4469 H 403.656 2.07736 -4.38148 0
M  V30 4470 N 404.999 1.35443 0.805782 0
M  V30 4471 C 405.932 1.22783 1.92353 0
M  V30 4472 C 406.91 0.115543 1.62189 0
M  V30 4473 O 408.094 0.283778 1.86352 0
M  V30 4474 C 405.221 0.890746 3.26777 0
M  V30 4475 C 404.267 2.01519 3.75889 0
M  V30 4476 S 405.1 3.63101 3.93596 0
M  V30 4477 C 406.256 3.31472 5.30921 0
M  V30 4478 H 406.489 2.17394 2.02798 0
M  V30 4479 H 404.022 1.20669 0.963245 0
M  V30 4480 H 405.98 0.703068 4.04434 0
M  V30 4481 H 404.641 -0.0373152 3.14078 0
M  V30 4482 H 403.834 1.7335 4.7325 0
M  V30 4483 H 403.436 2.16124 3.05231 0
M  V30 4484 H 405.728 2.8435 6.1494 0
M  V30 4485 H 406.671 4.28036 5.64084 0
M  V30 4486 H 407.079 2.67221 4.97246 0
M  V30 4487 N 406.477 -1.02803 1.19454 0
M  V30 4488 C 407.726 -1.7562 0.991996 0
M  V30 4489 C 408.039 -1.89672 -0.477901 0
M  V30 4490 O 409.245 -2.59468 -0.799287 0
M  V30 4491 C 407.701 -3.15812 1.72601 0
M  V30 4492 C 407.309 -3.0981 3.23607 0
M  V30 4493 C 409.053 -3.92918 1.60674 0
M  V30 4494 C 406.96 -4.44939 3.89594 0
M  V30 4495 H 405.89 -0.658352 0.367543 0
M  V30 4496 H 408.541 -1.15044 1.42959 0
M  V30 4497 H 406.923 -3.7686 1.21624 0
M  V30 4498 H 408.097 -2.58138 3.81709 0
M  V30 4499 H 406.412 -2.46201 3.35819 0
M  V30 4500 H 409.009 -4.9287 2.07323 0
M  V30 4501 H 409.352 -4.12502 0.561025 0
M  V30 4502 H 409.885 -3.38472 2.09001 0
M  V30 4503 H 406.624 -4.30559 4.94267 0
M  V30 4504 H 406.144 -4.96664 3.36281 0
M  V30 4505 H 407.823 -5.1382 3.93189 0
M  V30 4506 N 407.956 -0.998596 -1.21925 0
M  V30 4507 C 409.233 -0.593401 -1.86382 0
M  V30 4508 C 409.613 0.92916 -1.89552 0
M  V30 4509 O 408.961 1.81347 -1.39017 0
M  V30 4510 C 409.171 -1.22039 -3.26967 0
M  V30 4511 C 410.519 -1.32449 -4.03413 0
M  V30 4512 O 411.543 -1.17522 -3.36254 0
M  V30 4513 O 410.402 -1.56395 -5.23644 0
M  V30 4514 H 407.496 -0.202385 -0.801854 0
M  V30 4515 H 410.042 -1.09484 -1.29659 0
M  V30 4516 H 408.814 -2.26158 -3.19325 0
M  V30 4517 H 408.437 -0.704906 -3.91301 0
M  V30 4518 N 409.434 1.37368 -0.772513 0
M  V30 4519 C 410.659 2.0447 -0.347386 0
M  V30 4520 C 411.084 1.57882 1.0225 0
M  V30 4521 O 410.442 0.73941 1.65537 0
M  V30 4522 C 410.49 3.58369 -0.400479 0
M  V30 4523 O 409.594 4.0803 0.598789 0
M  V30 4524 H 408.935 0.646773 -0.15027 0
M  V30 4525 H 411.465 1.75667 -1.04892 0
M  V30 4526 H 411.475 4.07183 -0.258045 0
M  V30 4527 H 410.15 3.91633 -1.39986 0
M  V30 4528 H 408.727 3.70534 0.419411 0
M  V30 4529 N 410.912 0.523116 1.48665 0
M  V30 4530 C 411.844 -0.280421 2.27478 0
M  V30 4531 C 412.857 -0.910694 1.34945 0
M  V30 4532 O 414.046 -0.790295 1.60052 0
M  V30 4533 C 411.146 -1.41171 3.08097 0
M  V30 4534 C 410.319 -0.884642 4.28361 0
M  V30 4535 C 409.378 -1.89622 4.90846 0
M  V30 4536 O 408.404 -1.4559 5.50265 0
M  V30 4537 N 409.606 -3.22801 4.82472 0
M  V30 4538 H 412.371 0.395481 2.97079 0
M  V30 4539 H 409.932 0.357018 1.57915 0
M  V30 4540 H 411.924 -2.08645 3.4677 0
M  V30 4541 H 410.494 -1.99139 2.40961 0
M  V30 4542 H 409.714 -0.0341177 3.94185 0
M  V30 4543 H 411.002 -0.511268 5.06225 0
M  V30 4544 H 410.4 -3.61246 4.35336 0
M  V30 4545 H 408.957 -3.85927 5.25265 0
M  V30 4546 N 412.39 -1.55475 0.257931 0
M  V30 4547 C 413.338 -2.23244 -0.653076 0
M  V30 4548 C 414.332 -1.22366 -1.17144 0
M  V30 4549 O 415.538 -1.40347 -1.12706 0
M  V30 4550 H 411.913 -0.716247 -0.229117 0
M  V30 4551 H 413.884 -2.98343 -0.0584788 0
M  V30 4552 C 412.633 -2.95401 -1.83395 0
M  V30 4553 H 411.956 -3.72802 -1.44424 0
M  V30 4554 H 413.396 -3.46165 -2.44838 0
M  V30 4555 C 411.855 -1.99895 -2.71189 0
M  V30 4556 O 412.385 -1.53909 -3.71046 0
M  V30 4557 N 410.591 -1.6676 -2.3799 0
M  V30 4558 H 410.138 -2.04352 -1.56837 0
M  V30 4559 H 410.096 -1.03127 -2.97005 0
M  V30 4560 N 413.868 0.0150385 -1.57593 0
M  V30 4561 C 415.093 0.718067 -1.94573 0
M  V30 4562 C 415.518 1.6734 -0.859005 0
M  V30 4563 O 414.876 1.80362 0.184147 0
M  V30 4564 C 414.924 1.43918 -3.30636 0
M  V30 4565 O 414.028 2.55299 -3.23876 0
M  V30 4566 H 413.369 0.192125 -0.635597 0
M  V30 4567 H 415.899 -0.0336708 -2.04572 0
M  V30 4568 H 415.909 1.80598 -3.65853 0
M  V30 4569 H 414.584 0.738619 -4.09289 0
M  V30 4570 H 413.161 2.21058 -3.00312 0
M  V30 4571 N 415.346 1.54954 0.287554 0
M  V30 4572 C 416.293 1.86834 1.35505 0
M  V30 4573 C 417.263 0.718452 1.49758 0
M  V30 4574 O 418.448 0.968358 1.644 0
M  V30 4575 C 415.588 2.13303 2.71286 0
M  V30 4576 C 414.701 3.40883 2.65373 0
M  V30 4577 C 413.836 3.57125 3.93236 0
M  V30 4578 C 412.875 4.78449 3.81776 0
M  V30 4579 N 412.012 4.91426 5.01443 0
M  V30 4580 H 416.852 2.77889 1.07619 0
M  V30 4581 H 414.389 1.37593 0.520241 0
M  V30 4582 H 416.347 2.26646 3.50267 0
M  V30 4583 H 414.977 1.25499 2.97405 0
M  V30 4584 H 414.029 3.36088 1.78182 0
M  V30 4585 H 415.341 4.29993 2.52799 0
M  V30 4586 H 414.495 3.70207 4.80658 0
M  V30 4587 H 413.234 2.66173 4.0866 0
M  V30 4588 H 412.239 4.65386 2.92738 0
M  V30 4589 H 413.464 5.70822 3.67884 0
M  V30 4590 H 411.41 4.03401 5.17304 0
M  V30 4591 H 411.327 5.74559 4.91343 0
M  V30 4592 H 412.595 5.08879 5.90477 0
M  V30 4593 N 416.824 -0.551391 1.4764 0
M  V30 4594 C 417.734 -1.68525 1.63207 0
M  V30 4595 C 418.75 -1.6621 0.514815 0
M  V30 4596 O 419.926 -1.85551 0.783113 0
M  V30 4597 C 416.991 -3.05025 1.64805 0
M  V30 4598 C 416.052 -3.18362 2.88 0
M  V30 4599 C 415.285 -4.4835 2.89513 0
M  V30 4600 O 415.508 -5.34163 2.00065 0
M  V30 4601 O 414.442 -4.65602 3.81443 0
M  V30 4602 H 418.268 -1.58333 2.59161 0
M  V30 4603 H 415.853 -0.722063 1.30792 0
M  V30 4604 H 417.735 -3.86245 1.68502 0
M  V30 4605 H 416.41 -3.15587 0.720197 0
M  V30 4606 H 415.317 -2.36518 2.89845 0
M  V30 4607 H 416.65 -3.12707 3.80099 0
M  V30 4608 N 418.302 -1.35869 -0.798587 0
M  V30 4609 C 419.53 -1.32722 -1.58722 0
M  V30 4610 C 419.945 0.0935631 -1.88568 0
M  V30 4611 O 419.302 1.04784 -1.49421 0
M  V30 4612 C 419.353 -2.13974 -2.91371 0
M  V30 4613 O 419.074 -3.50514 -2.62815 0
M  V30 4614 C 420.575 -2.18504 -3.85708 0
M  V30 4615 H 417.795 -0.45562 -0.492596 0
M  V30 4616 H 420.339 -1.78837 -0.991843 0
M  V30 4617 H 418.494 -1.71438 -3.47402 0
M  V30 4618 H 418.908 -3.92806 -3.47568 0
M  V30 4619 H 420.382 -2.79732 -4.75872 0
M  V30 4620 H 420.859 -1.18597 -4.22885 0
M  V30 4621 H 421.465 -2.61236 -3.35612 0
M  V30 4622 N 419.78 1.02168 -1.19998 0
M  V30 4623 C 420.69 2.14069 -0.959774 0
M  V30 4624 C 421.706 1.73804 0.082655 0
M  V30 4625 O 422.882 2.01133 -0.103633 0
M  V30 4626 C 419.947 3.42936 -0.509459 0
M  V30 4627 C 419.008 3.97474 -1.62213 0
M  V30 4628 C 418.241 5.2019 -1.19321 0
M  V30 4629 O 418.464 5.70369 -0.0597726 0
M  V30 4630 O 417.398 5.67749 -1.99863 0
M  V30 4631 H 421.224 2.37199 -1.89658 0
M  V30 4632 H 418.809 1.12469 -0.983411 0
M  V30 4633 H 420.691 4.20551 -0.267322 0
M  V30 4634 H 419.366 3.21234 0.398821 0
M  V30 4635 H 418.273 3.21161 -1.9185 0
M  V30 4636 H 419.606 4.23555 -2.50723 0
M  V30 4637 N 421.258 1.00505 1.21394 0
M  V30 4638 C 422.483 0.706367 1.95001 0
M  V30 4639 C 422.908 -0.72463 1.73582 0
M  V30 4640 O 422.266 -1.49702 1.0227 0
M  V30 4641 C 422.314 1.03299 3.45487 0
M  V30 4642 O 421.418 0.138275 4.12168 0
M  V30 4643 H 420.759 0.263175 0.609619 0
M  V30 4644 H 423.289 1.34531 1.54151 0
M  V30 4645 H 423.299 0.979872 3.96059 0
M  V30 4646 H 421.974 2.07567 3.60401 0
M  V30 4647 H 420.551 0.247928 3.72075 0
M  V30 4648 N 422.737 -1.36956 0.779787 0
M  V30 4649 C 423.687 -2.27539 0.144892 0
M  V30 4650 C 424.671 -1.46493 -0.665488 0
M  V30 4651 O 425.863 -1.68968 -0.527141 0
M  V30 4652 C 422.992 -3.35512 -0.727082 0
M  V30 4653 C 422.078 -4.24001 0.0915642 0
M  V30 4654 N 422.469 -4.92757 1.14125 0
M  V30 4655 C 420.767 -4.45807 -0.131141 0
M  V30 4656 C 421.468 -5.58138 1.6388 0
M  V30 4657 N 420.444 -5.35241 0.94962 0
M  V30 4658 H 424.246 -2.78176 0.948446 0
M  V30 4659 H 421.76 -1.50169 0.618315 0
M  V30 4660 H 423.757 -3.99324 -1.19776 0
M  V30 4661 H 422.417 -2.86431 -1.52929 0
M  V30 4662 H 423.428 -4.94984 1.52353 0
M  V30 4663 H 420.105 -4.07582 -0.904621 0
M  V30 4664 H 421.495 -6.23071 2.51461 0
M  V30 4665 N 424.215 -0.530993 -1.48385 0
M  V30 4666 C 425.162 0.231223 -2.29639 0
M  V30 4667 C 426.132 0.932864 -1.37429 0
M  V30 4668 O 427.317 0.933692 -1.66394 0
M  V30 4669 C 424.457 1.27155 -3.2082 0
M  V30 4670 C 423.57 0.578655 -4.28107 0
M  V30 4671 C 422.705 1.602 -5.06467 0
M  V30 4672 C 421.744 0.892625 -6.05556 0
M  V30 4673 N 420.881 1.86157 -6.76971 0
M  V30 4674 H 425.721 -0.467848 -2.94305 0
M  V30 4675 H 423.258 -0.242556 -1.45086 0
M  V30 4676 H 425.216 1.88703 -3.72085 0
M  V30 4677 H 423.846 1.939 -2.58075 0
M  V30 4678 H 422.898 -0.150782 -3.80101 0
M  V30 4679 H 424.21 0.0217065 -4.98795 0
M  V30 4680 H 423.364 2.29173 -5.61751 0
M  V30 4681 H 422.103 2.19285 -4.35621 0
M  V30 4682 H 421.108 0.188829 -5.49476 0
M  V30 4683 H 422.333 0.307878 -6.78402 0
M  V30 4684 H 420.279 2.44147 -6.08875 0
M  V30 4685 H 420.196 1.35608 -7.43738 0
M  V30 4686 H 421.464 2.54325 -7.36844 0
M  V30 4687 N 425.693 1.55336 -0.266172 0
M  V30 4688 C 426.656 2.20878 0.612001 0
M  V30 4689 C 427.656 1.18388 1.08816 0
M  V30 4690 O 428.846 1.4335 0.989774 0
M  V30 4691 C 425.978 2.86765 1.84332 0
M  V30 4692 H 427.171 2.99873 0.0398718 0
M  V30 4693 H 424.724 1.56291 -0.0167309 0
M  V30 4694 H 425.459 2.11759 2.45619 0
M  V30 4695 H 425.244 3.61862 1.5099 0
M  V30 4696 H 426.734 3.36867 2.46801 0
M  V30 4697 N 427.171 -0.0066808 1.57599 0
M  V30 4698 C 428.101 -0.999296 2.11036 0
M  V30 4699 C 429.082 -1.36278 1.01795 0
M  V30 4700 O 430.267 -1.4477 1.29442 0
M  V30 4701 C 427.397 -2.29328 2.60818 0
M  V30 4702 C 426.351 -2.07159 3.74525 0
M  V30 4703 C 425.677 -3.42512 4.10596 0
M  V30 4704 C 426.977 -1.43959 5.02069 0
M  V30 4705 H 428.671 -0.554382 2.94223 0
M  V30 4706 H 426.217 -0.265221 1.41536 0
M  V30 4707 H 428.17 -2.99117 2.96828 0
M  V30 4708 H 426.894 -2.7592 1.74745 0
M  V30 4709 H 425.553 -1.39797 3.38899 0
M  V30 4710 H 425.201 -3.86795 3.21556 0
M  V30 4711 H 424.901 -3.28498 4.87199 0
M  V30 4712 H 426.425 -4.13628 4.4916 0
M  V30 4713 H 427.839 -2.03696 5.35893 0
M  V30 4714 H 426.236 -1.40452 5.83432 0
M  V30 4715 H 427.306 -0.407992 4.83181 0
M  V30 4716 N 428.649 -1.55105 -0.279332 0
M  V30 4717 C 429.874 -1.7976 -1.03446 0
M  V30 4718 C 430.299 -0.565952 -1.79384 0
M  V30 4719 O 429.657 0.484259 -1.74713 0
M  V30 4720 C 429.705 -3.0179 -1.97371 0
M  V30 4721 O 428.809 -2.76432 -3.06038 0
M  V30 4722 H 428.15 -0.594334 -0.29608 0
M  V30 4723 H 430.68 -2.02235 -0.310165 0
M  V30 4724 H 430.69 -3.30351 -2.39441 0
M  V30 4725 H 429.365 -3.91085 -1.4151 0
M  V30 4726 H 427.942 -2.58949 -2.68328 0
M  V30 4727 N 430.127 0.543554 -1.4793 0
M  V30 4728 C 431.404 1.30458 -1.4574 0
M  V30 4729 C 431.784 2.1048 -0.161692 0
M  V30 4730 O 431.132 2.11831 0.856734 0
M  V30 4731 C 431.342 2.19754 -2.71126 0
M  V30 4732 C 432.69 2.80334 -3.18901 0
M  V30 4733 O 433.714 2.30049 -2.71948 0
M  V30 4734 O 432.573 3.71766 -4.00565 0
M  V30 4735 H 429.667 0.588117 -0.581418 0
M  V30 4736 H 432.213 0.561328 -1.60147 0
M  V30 4737 H 430.985 1.60316 -3.56952 0
M  V30 4738 H 430.608 3.01351 -2.59371 0
M  V30 4739 N 431.605 1.3629 0.791371 0
M  V30 4740 C 432.535 1.33137 1.91825 0
M  V30 4741 C 433.516 0.203168 1.68882 0
M  V30 4742 O 434.701 0.400509 1.90025 0
M  V30 4743 C 431.831 1.11793 3.28816 0
M  V30 4744 C 430.785 2.21417 3.66277 0
M  V30 4745 C 430.111 1.85218 5.01596 0
M  V30 4746 C 431.411 3.63489 3.75064 0
M  V30 4747 H 433.105 2.2743 1.9472 0
M  V30 4748 H 430.651 1.09479 0.935437 0
M  V30 4749 H 432.604 1.08222 4.07266 0
M  V30 4750 H 431.328 0.139501 3.26302 0
M  V30 4751 H 429.987 2.2411 2.90121 0
M  V30 4752 H 429.635 0.859544 4.95602 0
M  V30 4753 H 429.335 2.58611 5.27631 0
M  V30 4754 H 430.859 1.832 5.82469 0
M  V30 4755 H 432.273 3.63034 4.43711 0
M  V30 4756 H 430.67 4.35771 4.12582 0
M  V30 4757 H 431.74 3.98536 2.76219 0
M  V30 4758 N 433.083 -1.0153 1.20538 0
M  V30 4759 C 433.993 -2.13557 0.971113 0
M  V30 4760 C 435.009 -1.73845 -0.0734366 0
M  V30 4761 O 436.185 -2.01075 0.114299 0
M  V30 4762 C 433.25 -3.42661 0.527639 0
M  V30 4763 C 432.311 -3.96608 1.64319 0
M  V30 4764 C 431.544 -5.1955 1.22078 0
M  V30 4765 O 431.767 -5.70329 0.0900198 0
M  V30 4766 O 430.701 -5.66681 2.02871 0
M  V30 4767 H 434.527 -2.3619 1.90913 0
M  V30 4768 H 432.112 -1.11946 0.989362 0
M  V30 4769 H 433.994 -4.20404 0.289621 0
M  V30 4770 H 432.669 -3.21441 -0.381779 0
M  V30 4771 H 431.576 -3.20139 1.93551 0
M  V30 4772 H 432.909 -4.22219 2.52966 0
M  V30 4773 N 434.561 -1.01147 -1.20859 0
M  V30 4774 C 435.491 -0.597663 -2.25722 0
M  V30 4775 C 436.472 0.384744 -1.65692 0
M  V30 4776 O 437.657 0.271303 -1.92296 0
M  V30 4777 C 434.787 0.0700149 -3.47229 0
M  V30 4778 C 433.741 -0.832843 -4.19819 0
M  V30 4779 C 433.067 -0.0312202 -5.34691 0
M  V30 4780 C 434.367 -2.1385 -4.76514 0
M  V30 4781 H 436.061 -1.47423 -2.60589 0
M  V30 4782 H 433.607 -0.710301 -1.25263 0
M  V30 4783 H 435.56 0.37103 -4.19763 0
M  V30 4784 H 434.284 0.981259 -3.11511 0
M  V30 4785 H 432.943 -1.11778 -3.49144 0
M  V30 4786 H 432.591 0.881515 -4.95215 0
M  V30 4787 H 432.291 -0.632434 -5.84187 0
M  V30 4788 H 433.815 0.26346 -6.10031 0
M  V30 4789 H 435.229 -1.9002 -5.40893 0
M  V30 4790 H 433.626 -2.69012 -5.36426 0
M  V30 4791 H 434.696 -2.80495 -3.95538 0
M  V30 4792 N 436.039 1.36541 -0.78704 0
M  V30 4793 C 437.285 1.99599 -0.358872 0
M  V30 4794 C 437.618 1.62323 1.06606 0
M  V30 4795 O 436.893 0.876858 1.73613 0
M  V30 4796 C 437.176 3.56327 -0.519944 0
M  V30 4797 C 437.029 4.03464 -1.98839 0
M  V30 4798 C 438.348 4.4005 0.0664737 0
M  V30 4799 H 435.467 0.725107 -0.131869 0
M  V30 4800 H 438.109 1.6199 -0.992936 0
M  V30 4801 H 436.259 3.88495 0.0198321 0
M  V30 4802 H 437.931 3.81793 -2.58905 0
M  V30 4803 H 436.174 3.55092 -2.49183 0
M  V30 4804 H 436.845 5.12439 -2.05207 0
M  V30 4805 H 439.321 4.14228 -0.394267 0
M  V30 4806 H 438.197 5.48847 -0.0762682 0
M  V30 4807 H 438.458 4.26655 1.15835 0
M  V30 4808 N 437.518 0.538854 1.48102 0
M  V30 4809 C 438.481 -0.208395 2.28251 0
M  V30 4810 C 439.481 -0.859656 1.35892 0
M  V30 4811 O 440.671 -0.71834 1.58699 0
M  V30 4812 C 437.803 -1.30252 3.15035 0
M  V30 4813 H 438.996 0.495407 2.9578 0
M  V30 4814 H 436.549 0.295112 1.53489 0
M  V30 4815 H 437.284 -2.0393 2.52157 0
M  V30 4816 H 437.069 -0.840551 3.82985 0
M  V30 4817 H 438.559 -1.82787 3.75471 0
M  V30 4818 N 438.996 -1.55193 0.274407 0
M  V30 4819 C 439.928 -2.1989 -0.646595 0
M  V30 4820 C 440.941 -1.1834 -1.11801 0
M  V30 4821 O 442.13 -1.4507 -1.04004 0
M  V30 4822 C 439.23 -2.8104 -1.89393 0
M  V30 4823 C 438.403 -4.08274 -1.56943 0
M  V30 4824 C 437.462 -4.53478 -2.66916 0
M  V30 4825 O 436.488 -5.19267 -2.33132 0
M  V30 4826 N 437.69 -4.2356 -3.9696 0
M  V30 4827 H 440.455 -2.99556 -0.0928686 0
M  V30 4828 H 438.016 -1.61618 0.0954783 0
M  V30 4829 H 440.008 -3.08226 -2.62257 0
M  V30 4830 H 438.578 -2.05372 -2.35672 0
M  V30 4831 H 437.798 -3.88384 -0.674655 0
M  V30 4832 H 439.086 -4.91173 -1.32764 0
M  V30 4833 H 438.484 -3.70799 -4.27229 0
M  V30 4834 H 437.041 -4.55518 -4.66205 0
M  V30 4835 N 440.474 -0.00167713 -1.576 0
M  V30 4836 C 441.699 0.69739 -1.95323 0
M  V30 4837 C 442.124 1.6642 -0.876706 0
M  V30 4838 O 441.482 1.80548 0.165007 0
M  V30 4839 C 441.53 1.40403 -3.32144 0
M  V30 4840 O 440.634 2.5185 -3.26566 0
M  V30 4841 H 439.975 0.185373 -0.637599 0
M  V30 4842 H 442.505 -0.0553665 -2.04525 0
M  V30 4843 H 442.515 1.76707 -3.67748 0
M  V30 4844 H 441.19 0.695167 -4.10049 0
M  V30 4845 H 439.767 2.17861 -3.0264 0
M  V30 4846 N 441.952 1.55251 0.271103 0
M  V30 4847 C 443.201 1.75151 1.00025 0
M  V30 4848 C 443.514 0.561041 1.87381 0
M  V30 4849 O 444.72 0.642506 2.63788 0
M  V30 4850 C 443.176 3.09999 1.82835 0
M  V30 4851 C 442.784 4.3662 1.00336 0
M  V30 4852 C 444.528 3.39249 2.55168 0
M  V30 4853 C 442.435 5.62506 1.82595 0
M  V30 4854 H 441.365 0.652877 0.377183 0
M  V30 4855 H 444.016 1.81708 0.255843 0
M  V30 4856 H 442.398 2.97485 2.61378 0
M  V30 4857 H 443.572 4.60055 0.261959 0
M  V30 4858 H 441.887 4.14527 0.394486 0
M  V30 4859 H 444.484 4.3051 3.1712 0
M  V30 4860 H 444.827 2.59467 3.2555 0
M  V30 4861 H 445.36 3.52869 1.83653 0
M  V30 4862 H 442.099 6.45041 1.16631 0
M  V30 4863 H 441.619 5.43211 2.54327 0
M  V30 4864 H 443.298 6.00875 2.39913 0
M  V30 4865 N 443.43 -0.535701 1.48216 0
M  V30 4866 C 444.679 -1.28828 1.55197 0
M  V30 4867 C 444.992 -1.94263 0.228278 0
M  V30 4868 O 446.198 -2.70927 0.176278 0
M  V30 4869 C 444.654 -2.33727 2.73678 0
M  V30 4870 C 444.262 -1.74386 4.12666 0
M  V30 4871 C 446.006 -3.1003 2.89968 0
M  V30 4872 C 443.913 -2.77192 5.22416 0
M  V30 4873 H 442.843 -0.484484 0.577747 0
M  V30 4874 H 445.494 -0.56646 1.74538 0
M  V30 4875 H 443.876 -3.08919 2.4776 0
M  V30 4876 H 445.05 -1.05421 4.48579 0
M  V30 4877 H 443.365 -1.10595 4.01445 0
M  V30 4878 H 445.962 -3.86842 3.6913 0
M  V30 4879 H 446.305 -3.65542 1.9921 0
M  V30 4880 H 446.838 -2.41952 3.15759 0
M  V30 4881 H 443.577 -2.26507 6.15122 0
M  V30 4882 H 443.097 -3.44502 4.90998 0
M  V30 4883 H 444.776 -3.40285 5.50286 0
M  V30 4884 N 444.908 -1.36708 -0.784132 0
M  V30 4885 C 446.155 -1.31231 -1.54222 0
M  V30 4886 C 446.483 0.106864 -1.94206 0
M  V30 4887 O 445.738 1.07734 -1.63376 0
M  V30 4888 C 446.037 -2.18571 -2.82774 0
M  V30 4889 C 445.703 -3.67039 -2.61903 0
M  V30 4890 C 444.365 -4.07503 -2.55919 0
M  V30 4891 C 446.717 -4.61149 -2.4288 0
M  V30 4892 C 444.045 -5.40211 -2.28886 0
M  V30 4893 C 446.397 -5.94081 -2.17373 0
M  V30 4894 C 445.061 -6.33664 -2.09825 0
M  V30 4895 H 444.331 -0.48021 -0.56434 0
M  V30 4896 H 446.978 -1.68807 -0.904233 0
M  V30 4897 H 445.283 -1.73949 -3.51068 0
M  V30 4898 H 446.98 -2.11655 -3.40592 0
M  V30 4899 H 443.57 -3.34941 -2.67418 0
M  V30 4900 H 447.754 -4.30756 -2.46501 0
M  V30 4901 H 443.01 -5.69855 -2.21529 0
M  V30 4902 H 447.184 -6.66566 -2.01649 0
M  V30 4903 H 444.811 -7.36423 -1.88641 0
M  V30 4904 N 446.386 1.0089 -1.21074 0
M  V30 4905 C 447.635 1.74019 -1.01981 0
M  V30 4906 C 447.948 1.90408 0.447665 0
M  V30 4907 O 449.154 2.60707 0.757906 0
M  V30 4908 C 447.61 3.13026 -1.77603 0
M  V30 4909 C 447.218 3.04623 -3.28495 0
M  V30 4910 C 448.962 3.90312 -1.66904 0
M  V30 4911 C 446.869 4.38685 -3.96623 0
M  V30 4912 H 445.799 0.652422 -0.377971 0
M  V30 4913 H 448.45 1.12755 -1.44771 0
M  V30 4914 H 446.832 3.74878 -1.27604 0
M  V30 4915 H 448.006 2.52032 -3.85767 0
M  V30 4916 H 446.321 2.40827 -3.39693 0
M  V30 4917 H 448.918 4.8951 -2.15138 0
M  V30 4918 H 449.261 4.11558 -0.62658 0
M  V30 4919 H 449.794 3.35104 -2.14359 0
M  V30 4920 H 446.533 4.22641 -5.01054 0
M  V30 4921 H 446.053 4.91252 -3.4414 0
M  V30 4922 H 447.732 5.075 -4.01314 0
M  V30 4923 N 447.864 1.01787 1.20321 0
M  V30 4924 C 449.111 0.707936 1.89722 0
M  V30 4925 C 449.439 -0.762535 1.78929 0
M  V30 4926 O 448.694 -1.56977 1.16861 0
M  V30 4927 C 448.993 1.09076 3.40349 0
M  V30 4928 C 448.659 2.55765 3.71342 0
M  V30 4929 C 447.321 2.95845 3.79511 0
M  V30 4930 C 449.673 3.50723 3.85542 0
M  V30 4931 C 447.001 4.2982 3.99339 0
M  V30 4932 C 449.353 4.84387 4.06881 0
M  V30 4933 C 448.017 5.24172 4.1328 0
M  V30 4934 H 447.287 0.259052 0.694243 0
M  V30 4935 H 449.934 1.27868 1.42555 0
M  V30 4936 H 448.239 0.438453 3.89339 0
M  V30 4937 H 449.936 0.828636 3.92345 0
M  V30 4938 H 446.526 2.2371 3.65584 0
M  V30 4939 H 450.71 3.20916 3.78585 0
M  V30 4940 H 445.966 4.60196 4.02529 0
M  V30 4941 H 450.14 5.57891 4.1681 0
M  V30 4942 H 447.767 6.27997 4.28396 0
M  V30 4943 N 449.342 -1.36122 0.79427 0
M  V30 4944 C 450.305 -2.28309 0.201889 0
M  V30 4945 C 451.305 -1.49041 -0.603603 0
M  V30 4946 O 452.495 -1.68964 -0.423888 0
M  V30 4947 C 449.627 -3.3321 -0.719978 0
M  V30 4948 H 450.82 -2.82208 1.01481 0
M  V30 4949 H 448.373 -1.45768 0.564037 0
M  V30 4950 H 449.108 -2.84475 -1.55706 0
M  V30 4951 H 448.893 -3.91835 -0.144266 0
M  V30 4952 H 450.383 -4.02044 -1.12916 0
M  V30 4953 N 450.82 -0.546701 -1.47814 0
M  V30 4954 C 452.068 -0.0187037 -2.02091 0
M  V30 4955 C 452.389 1.33168 -1.42447 0
M  V30 4956 O 451.659 1.86619 -0.595839 0
M  V30 4957 H 450.239 -0.00392531 -0.74699 0
M  V30 4958 H 452.901 -0.714327 -1.81338 0
M  V30 4959 H 451.997 0.0772219 -3.12004 0
M  V30 4960 N 452.299 1.55045 -0.282633 0
M  V30 4961 C 453.529 2.03872 0.334635 0
M  V30 4962 C 453.937 1.16018 1.49454 0
M  V30 4963 O 453.28 0.174449 1.8287 0
M  V30 4964 C 453.342 3.48791 0.870905 0
M  V30 4965 C 453.006 4.56715 -0.161338 0
M  V30 4966 C 454.003 5.10513 -0.983466 0
M  V30 4967 C 451.688 5.01417 -0.297745 0
M  V30 4968 C 453.682 6.07538 -1.92811 0
M  V30 4969 C 451.369 5.98265 -1.24586 0
M  V30 4970 C 452.367 6.51208 -2.05954 0
M  V30 4971 O 452.055 7.46162 -2.99162 0
M  V30 4972 H 451.787 0.671324 0.0793742 0
M  V30 4973 H 454.341 2.01169 -0.41473 0
M  V30 4974 H 452.571 3.48758 1.67047 0
M  V30 4975 H 454.26 3.80916 1.40207 0
M  V30 4976 H 455.026 4.76785 -0.888856 0
M  V30 4977 H 450.905 4.59849 0.325604 0
M  V30 4978 H 454.449 6.48787 -2.56363 0
M  V30 4979 H 450.346 6.31412 -1.34126 0
M  V30 4980 H 451.114 7.63903 -2.93929 0
M  V30 4981 N 453.777 0.010035 1.57597 0
M  V30 4982 C 454.687 -0.994226 2.12491 0
M  V30 4983 C 455.703 -1.37013 1.07254 0
M  V30 4984 O 456.879 -1.45542 1.3921 0
M  V30 4985 C 453.944 -2.2642 2.62555 0
M  V30 4986 C 453.005 -1.95049 3.82432 0
M  V30 4987 C 452.238 -3.15991 4.30099 0
M  V30 4988 O 452.461 -4.28015 3.7704 0
M  V30 4989 O 451.395 -2.99403 5.22151 0
M  V30 4990 H 455.221 -0.557549 2.98538 0
M  V30 4991 H 452.806 -0.209413 1.47925 0
M  V30 4992 H 454.688 -3.01009 2.9491 0
M  V30 4993 H 453.363 -2.69306 1.796 0
M  V30 4994 H 452.27 -1.17904 3.55034 0
M  V30 4995 H 453.603 -1.56992 4.66491 0
M  V30 4996 N 455.255 -1.55392 -0.262866 0
M  V30 4997 C 456.483 -1.80513 -1.01108 0
M  V30 4998 C 456.898 -0.583533 -1.79556 0
M  V30 4999 O 456.255 0.447585 -1.76926 0
M  V30 5000 C 456.306 -3.03648 -1.96164 0
M  V30 5001 O 456.027 -4.2109 -1.20893 0
M  V30 5002 C 457.528 -3.41448 -2.82715 0
M  V30 5003 H 454.748 -0.601079 -0.298236 0
M  V30 5004 H 457.292 -2.02425 -0.290582 0
M  V30 5005 H 455.447 -2.83832 -2.63663 0
M  V30 5006 H 455.861 -4.90771 -1.85051 0
M  V30 5007 H 457.335 -4.30751 -3.45192 0
M  V30 5008 H 457.812 -2.61308 -3.53008 0
M  V30 5009 H 458.418 -3.63559 -2.20693 0
M  V30 5010 N 456.733 0.527833 -1.48498 0
M  V30 5011 C 457.961 1.30823 -1.6029 0
M  V30 5012 C 458.376 1.86945 -0.263974 0
M  V30 5013 O 457.733 1.6651 0.747034 0
M  V30 5014 C 457.784 2.45756 -2.65116 0
M  V30 5015 O 457.505 1.91946 -3.93813 0
M  V30 5016 C 459.006 3.37543 -2.87367 0
M  V30 5017 H 456.226 0.397763 -0.540394 0
M  V30 5018 H 458.77 0.636529 -1.94341 0
M  V30 5019 H 456.925 3.08806 -2.33917 0
M  V30 5020 H 457.339 2.67195 -4.51339 0
M  V30 5021 H 458.813 4.14532 -3.6451 0
M  V30 5022 H 459.29 3.92905 -1.9627 0
M  V30 5023 H 459.896 2.80283 -3.19878 0
M  V30 5024 N 458.211 1.37122 0.776871 0
M  V30 5025 C 459.436 1.354 1.57104 0
M  V30 5026 C 459.861 -0.0595562 1.88006 0
M  V30 5027 O 459.219 -1.03514 1.48844 0
M  V30 5028 C 459.267 2.19472 2.8612 0
M  V30 5029 O 458.371 1.59582 3.80273 0
M  V30 5030 H 457.712 0.462869 0.476076 0
M  V30 5031 H 460.242 1.80577 0.961932 0
M  V30 5032 H 460.252 2.32502 3.35271 0
M  V30 5033 H 458.927 3.22222 2.62956 0
M  V30 5034 H 457.504 1.55564 3.38902 0
M  V30 5035 N 459.689 -1.00246 1.21608 0
M  V30 5036 C 460.914 -1.78167 1.06167 0
M  V30 5037 C 461.339 -1.84138 -0.384035 0
M  V30 5038 O 460.697 -1.28683 -1.27712 0
M  V30 5039 C 460.745 -3.19786 1.66642 0
M  V30 5040 O 459.849 -4.02153 0.913613 0
M  V30 5041 H 459.19 -0.549 0.37349 0
M  V30 5042 H 461.72 -1.25994 1.61204 0
M  V30 5043 H 461.73 -3.70451 1.70969 0
M  V30 5044 H 460.405 -3.14754 2.7185 0
M  V30 5045 H 458.982 -3.60711 0.945635 0
M  V30 5046 N 461.167 -1.02423 -1.1978 0
M  V30 5047 C 462.413 -0.719051 -1.89625 0
M  V30 5048 C 462.746 0.750083 -1.7913 0
M  V30 5049 O 462.021 1.54574 -1.18056 0
M  V30 5050 C 462.304 -1.16499 -3.40735 0
M  V30 5051 C 462.157 -2.695 -3.60125 0
M  V30 5052 C 463.476 -0.742166 -4.33797 0
M  V30 5053 H 460.595 -0.26269 -0.688595 0
M  V30 5054 H 463.237 -1.27333 -1.41018 0
M  V30 5055 H 461.387 -0.69341 -3.82262 0
M  V30 5056 H 463.059 -3.24569 -3.278 0
M  V30 5057 H 461.302 -3.10113 -3.03336 0
M  V30 5058 H 461.973 -2.95757 -4.66081 0
M  V30 5059 H 464.449 -1.1477 -3.99959 0
M  V30 5060 H 463.325 -1.08213 -5.38127 0
M  V30 5061 H 463.586 0.355747 -4.40666 0
M  V30 5062 N 462.645 1.35699 -0.801477 0
M  V30 5063 C 463.575 2.32436 -0.222658 0
M  V30 5064 C 464.556 1.5723 0.649057 0
M  V30 5065 O 465.741 1.85324 0.580387 0
M  V30 5066 C 462.871 3.41469 0.633719 0
M  V30 5067 C 461.825 4.27774 -0.139083 0
M  V30 5068 C 461.151 5.28082 0.838666 0
M  V30 5069 C 462.451 5.04946 -1.33517 0
M  V30 5070 H 464.145 2.81094 -1.03086 0
M  V30 5071 H 461.691 1.35146 -0.497155 0
M  V30 5072 H 463.644 4.08143 1.04868 0
M  V30 5073 H 462.368 2.91408 1.47475 0
M  V30 5074 H 461.027 3.62673 -0.535156 0
M  V30 5075 H 460.675 4.7429 1.67506 0
M  V30 5076 H 460.375 5.86695 0.32594 0
M  V30 5077 H 461.899 5.97628 1.25194 0
M  V30 5078 H 463.313 5.64593 -0.995349 0
M  V30 5079 H 461.71 5.7303 -1.78202 0
M  V30 5080 H 462.78 4.35886 -2.12442 0
M  V30 5081 N 464.123 0.554532 1.47522 0
M  V30 5082 C 465.348 0.0322661 2.07375 0
M  V30 5083 C 465.773 -1.25079 1.40488 0
M  V30 5084 O 465.131 -1.74859 0.47896 0
M  V30 5085 C 465.179 -0.149397 3.6029 0
M  V30 5086 O 464.283 -1.21259 3.9417 0
M  V30 5087 H 463.624 0.0501228 0.662106 0
M  V30 5088 H 466.154 0.769452 1.8958 0
M  V30 5089 H 466.164 -0.364437 4.06369 0
M  V30 5090 H 464.839 0.787743 4.08372 0
M  V30 5091 H 463.416 -0.97825 3.5984 0
M  V30 5092 N 465.601 -1.54893 0.290851 0
M  V30 5093 C 466.848 -1.99933 -0.321391 0
M  V30 5094 C 467.176 -1.17927 -1.54672 0
M  V30 5095 O 466.431 -0.240902 -1.94212 0
M  V30 5096 C 466.73 -3.49815 -0.732397 0
M  V30 5097 C 466.396 -4.4921 0.390056 0
M  V30 5098 C 465.058 -4.76107 0.698223 0
M  V30 5099 C 467.41 -5.08453 1.14562 0
M  V30 5100 C 464.738 -5.59514 1.76526 0
M  V30 5101 C 467.09 -5.9302 2.2025 0
M  V30 5102 C 465.754 -6.18232 2.51684 0
M  V30 5103 H 465.024 -0.731608 -0.117605 0
M  V30 5104 H 467.671 -1.87107 0.407839 0
M  V30 5105 H 465.976 -3.60199 -1.54155 0
M  V30 5106 H 467.673 -3.82083 -1.21712 0
M  V30 5107 H 464.263 -4.28372 0.13976 0
M  V30 5108 H 468.447 -4.87683 0.920801 0
M  V30 5109 H 463.703 -5.77289 2.01364 0
M  V30 5110 H 467.877 -6.37955 2.7926 0
M  V30 5111 H 465.504 -6.82653 3.34499 0
M  V30 5112 N 467.08 -0.0183926 -1.57589 0
M  V30 5113 C 468.329 0.66185 -1.90532 0
M  V30 5114 C 468.642 1.73904 -0.895366 0
M  V30 5115 O 469.848 2.47518 -1.11566 0
M  V30 5116 C 468.304 1.22844 -3.38286 0
M  V30 5117 C 467.912 0.185103 -4.47617 0
M  V30 5118 C 469.656 1.88581 -3.80312 0
M  V30 5119 C 467.563 0.762723 -5.86461 0
M  V30 5120 H 466.493 0.250972 -0.711006 0
M  V30 5121 H 469.144 -0.0819435 -1.83317 0
M  V30 5122 H 467.526 2.0235 -3.40398 0
M  V30 5123 H 468.7 -0.58671 -4.5705 0
M  V30 5124 H 467.015 -0.372889 -4.14727 0
M  V30 5125 H 469.612 2.32735 -4.81392 0
M  V30 5126 H 469.955 2.72408 -3.14801 0
M  V30 5127 H 470.488 1.15782 -3.80578 0
M  V30 5128 H 467.227 -0.0371713 -6.55489 0
M  V30 5129 H 466.747 1.50327 -5.80656 0
M  V30 5130 H 468.426 1.25576 -6.34697 0
M  V30 5131 N 468.558 1.5553 0.254621 0
M  V30 5132 C 469.491 1.84624 1.34124 0
M  V30 5133 C 470.469 0.700693 1.46728 0
M  V30 5134 O 471.653 0.94564 1.63064 0
M  V30 5135 C 468.78 2.02412 2.71564 0
M  V30 5136 C 467.826 3.25028 2.7615 0
M  V30 5137 S 468.659 4.81893 2.33538 0
M  V30 5138 C 469.815 5.02677 3.72917 0
M  V30 5139 H 470.048 2.76501 1.09245 0
M  V30 5140 H 467.581 1.47537 0.455211 0
M  V30 5141 H 469.539 2.13345 3.50705 0
M  V30 5142 H 468.2 1.11391 2.93685 0
M  V30 5143 H 467.393 3.34418 3.77069 0
M  V30 5144 H 466.995 3.12781 2.05046 0
M  V30 5145 H 469.287 4.89546 4.68349 0
M  V30 5146 H 470.23 6.0468 3.68467 0
M  V30 5147 H 470.638 4.30561 3.65072 0
M  V30 5148 N 470.036 -0.519951 1.48776 0
M  V30 5149 C 471.266 -1.29783 1.60748 0
M  V30 5150 C 471.674 -1.87253 0.27072 0
M  V30 5151 O 471.017 -1.67628 -0.751438 0
M  V30 5152 C 471.079 -2.47984 2.60277 0
M  V30 5153 C 470.743 -2.11526 4.051 0
M  V30 5154 C 471.74 -1.66608 4.92481 0
M  V30 5155 C 469.425 -2.21742 4.50706 0
M  V30 5156 C 471.419 -1.32384 6.23501 0
M  V30 5157 C 469.106 -1.87129 5.81744 0
M  V30 5158 C 470.104 -1.42523 6.67964 0
M  V30 5159 O 469.792 -1.0837 7.96562 0
M  V30 5160 H 469.524 -0.400562 0.544542 0
M  V30 5161 H 472.078 -0.632879 1.95407 0
M  V30 5162 H 470.308 -3.17493 2.2076 0
M  V30 5163 H 471.997 -3.10036 2.61978 0
M  V30 5164 H 472.763 -1.58178 4.58481 0
M  V30 5165 H 468.642 -2.55415 3.83776 0
M  V30 5166 H 472.186 -0.974949 6.90754 0
M  V30 5167 H 468.083 -1.95204 6.15277 0
M  V30 5168 H 468.851 -1.21681 8.09405 0
M  V30 5169 N 471.514 -1.37532 -0.769588 0
M  V30 5170 C 472.424 -1.35668 -1.91393 0
M  V30 5171 C 473.44 -0.255954 -1.72107 0
M  V30 5172 O 474.616 -0.491704 -1.95305 0
M  V30 5173 C 471.681 -1.16481 -3.26547 0
M  V30 5174 C 470.742 -2.36212 -3.58472 0
M  V30 5175 C 469.975 -2.17932 -4.87177 0
M  V30 5176 O 470.198 -1.1647 -5.58382 0
M  V30 5177 O 469.132 -3.06167 -5.18214 0
M  V30 5178 H 472.958 -2.32055 -1.95918 0
M  V30 5179 H 470.543 -1.18284 -0.912641 0
M  V30 5180 H 472.425 -1.07778 -4.07384 0
M  V30 5181 H 471.1 -0.231687 -3.2287 0
M  V30 5182 H 470.007 -2.50488 -2.77861 0
M  V30 5183 H 471.34 -3.281 -3.66894 0
M  V30 5184 N 472.992 0.995999 -1.22138 0
M  V30 5185 C 473.922 2.10387 -1.01289 0
M  V30 5186 C 474.903 1.69975 0.0651454 0
M  V30 5187 O 476.088 1.9396 -0.0964628 0
M  V30 5188 C 473.218 3.42312 -0.586517 0
M  V30 5189 C 472.172 3.96558 -1.61014 0
M  V30 5190 C 471.498 5.24494 -1.0397 0
M  V30 5191 C 472.798 4.27595 -2.99933 0
M  V30 5192 H 474.492 2.28086 -1.93951 0
M  V30 5193 H 472.038 1.09607 -0.933928 0
M  V30 5194 H 473.991 4.19223 -0.427793 0
M  V30 5195 H 472.715 3.24431 0.375761 0
M  V30 5196 H 471.374 3.21776 -1.75658 0
M  V30 5197 H 471.022 5.02953 -0.0688703 0
M  V30 5198 H 470.722 5.61755 -1.72352 0
M  V30 5199 H 472.246 6.04042 -0.892494 0
M  V30 5200 H 473.66 4.95315 -2.8868 0
M  V30 5201 H 472.057 4.76021 -3.6541 0
M  V30 5202 H 473.127 3.35498 -3.50099 0
M  V30 5203 N 474.47 1.03057 1.19235 0
M  V30 5204 C 475.433 0.617418 2.20727 0
M  V30 5205 C 476.433 -0.319856 1.57587 0
M  V30 5206 O 477.623 -0.106633 1.73873 0
M  V30 5207 C 474.755 -0.096296 3.40764 0
M  V30 5208 H 475.948 1.51544 2.58794 0
M  V30 5209 H 473.501 0.821949 1.32942 0
M  V30 5210 H 474.236 -1.00859 3.08217 0
M  V30 5211 H 474.021 0.577217 3.87828 0
M  V30 5212 H 475.511 -0.372219 4.15938 0
M  V30 5213 N 475.948 -1.35272 0.808662 0
M  V30 5214 C 477.176 -2.02946 0.402537 0
M  V30 5215 C 477.591 -1.60937 -0.987147 0
M  V30 5216 O 476.948 -0.807917 -1.63643 0
M  V30 5217 C 476.999 -3.58317 0.47868 0
M  V30 5218 O 476.72 -3.98799 1.81358 0
M  V30 5219 C 478.221 -4.43251 0.0656281 0
M  V30 5220 H 475.441 -0.650831 0.163279 0
M  V30 5221 H 477.985 -1.72849 1.09286 0
M  V30 5222 H 476.14 -3.87055 -0.163415 0
M  V30 5223 H 476.554 -4.93451 1.77781 0
M  V30 5224 H 478.028 -5.51738 0.170017 0
M  V30 5225 H 478.505 -4.27913 -0.989278 0
M  V30 5226 H 479.111 -4.19813 0.68096 0
M  V30 5227 N 477.426 -0.562348 -1.47226 0
M  V30 5228 C 478.376 0.202967 -2.27095 0
M  V30 5229 C 479.36 0.880611 -1.34663 0
M  V30 5230 O 480.552 0.778069 -1.58981 0
M  V30 5231 C 477.681 1.22906 -3.20545 0
M  V30 5232 C 476.767 0.554566 -4.20459 0
M  V30 5233 N 477.158 -0.378295 -5.04383 0
M  V30 5234 C 475.456 0.807854 -4.38623 0
M  V30 5235 C 476.157 -0.770583 -5.76573 0
M  V30 5236 N 475.133 -0.124263 -5.43458 0
M  V30 5237 H 478.935 -0.514196 -2.89367 0
M  V30 5238 H 476.449 -0.382655 -1.57827 0
M  V30 5239 H 478.446 1.79134 -3.76453 0
M  V30 5240 H 477.106 1.94726 -2.59831 0
M  V30 5241 H 478.117 -0.75274 -5.124 0
M  V30 5242 H 474.794 1.51418 -3.89075 0
M  V30 5243 H 476.184 -1.53742 -6.54074 0
M  V30 5244 N 478.904 1.54736 -0.299062 0
M  V30 5245 C 480.315 1.8569 0.193971 0
M  V30 5246 C 480.666 1.22101 1.53577 0
M  V30 5247 O 479.791 0.51799 2.10109 0
M  V30 5248 C 480.386 3.36895 0.358733 0
M  V30 5249 C 478.945 3.67887 0.795986 0
M  V30 5250 C 478.092 2.77131 -0.096807 0
M  V30 5251 H 481.043 1.49934 -0.520134 0
M  V30 5252 H 481.064 3.61294 1.19361 0
M  V30 5253 H 480.576 3.83148 -0.617998 0
M  V30 5254 H 478.677 3.27151 1.78334 0
M  V30 5255 H 478.79 4.75114 0.616718 0
M  V30 5256 H 477.154 2.51153 0.423581 0
M  V30 5257 H 477.937 3.26204 -1.06986 0
M  V30 5258 N 480.382 0.0267497 1.57577 0
M  V30 5259 C 481.659 -0.690926 1.82991 0
M  V30 5260 C 482.039 -1.90471 0.910164 0
M  V30 5261 O 481.387 -2.28474 -0.0347985 0
M  V30 5262 C 481.597 -1.07139 3.32148 0
M  V30 5263 C 482.945 -1.46402 3.98562 0
M  V30 5264 O 483.969 -1.16443 3.36629 0
M  V30 5265 O 482.828 -2.02214 5.07712 0
M  V30 5266 H 479.922 -0.338747 0.75444 0
M  V30 5267 H 482.468 0.0542506 1.69613 0
M  V30 5268 H 481.24 -0.207394 3.9075 0
M  V30 5269 H 480.863 -1.87481 3.50623 0
M  V30 5270 N 481.861 -1.55662 -0.24637 0
M  V30 5271 C 483.107 -1.77782 -0.975779 0
M  V30 5272 C 483.44 -0.592103 -1.84953 0
M  V30 5273 O 482.715 0.409588 -1.90138 0
M  V30 5274 C 482.998 -3.09788 -1.83584 0
M  V30 5275 C 482.851 -4.38764 -0.990241 0
M  V30 5276 C 484.17 -3.38029 -2.81823 0
M  V30 5277 H 481.289 -0.646789 -0.353317 0
M  V30 5278 H 483.931 -1.88398 -0.246248 0
M  V30 5279 H 482.081 -3.00869 -2.45784 0
M  V30 5280 H 483.753 -4.59675 -0.386897 0
M  V30 5281 H 481.996 -4.32798 -0.294626 0
M  V30 5282 H 482.667 -5.27514 -1.62584 0
M  V30 5283 H 485.143 -3.46915 -2.2976 0
M  V30 5284 H 484.019 -4.3161 -3.39122 0
M  V30 5285 H 484.28 -2.58968 -3.58313 0
M  V30 5286 N 483.339 0.512053 -1.4905 0
M  V30 5287 C 484.271 1.63121 -1.6101 0
M  V30 5288 C 485.284 1.55145 -0.493352 0
M  V30 5289 O 486.473 1.61278 -0.764955 0
M  V30 5290 C 483.573 3.01863 -1.54052 0
M  V30 5291 C 482.746 3.35138 -2.81072 0
M  V30 5292 C 481.805 4.5324 -2.67319 0
M  V30 5293 O 480.831 4.55571 -3.41238 0
M  V30 5294 N 482.033 5.52495 -1.78127 0
M  V30 5295 H 484.798 1.53292 -2.5753 0
M  V30 5296 H 482.359 0.699706 -1.45999 0
M  V30 5297 H 484.351 3.78774 -1.42521 0
M  V30 5298 H 482.921 3.05675 -0.654345 0
M  V30 5299 H 482.141 2.4723 -3.07036 0
M  V30 5300 H 483.429 3.54162 -3.65304 0
M  V30 5301 H 482.827 5.53403 -1.17308 0
M  V30 5302 H 481.384 6.28553 -1.72525 0
M  V30 5303 N 484.817 1.37938 0.762283 0
M  V30 5304 C 485.749 1.30349 1.88525 0
M  V30 5305 C 486.762 0.217402 1.61342 0
M  V30 5306 O 487.951 0.474291 1.72084 0
M  V30 5307 C 485.051 0.994844 3.23969 0
M  V30 5308 C 484.224 2.18829 3.78725 0
M  V30 5309 C 483.283 1.84844 4.92665 0
M  V30 5310 O 482.309 2.57244 5.07754 0
M  V30 5311 N 483.511 0.798201 5.74986 0
M  V30 5312 H 486.276 2.27114 1.95549 0
M  V30 5313 H 483.837 1.31686 0.941825 0
M  V30 5314 H 485.829 0.748168 3.97724 0
M  V30 5315 H 484.399 0.115446 3.12387 0
M  V30 5316 H 483.619 2.59615 2.96637 0
M  V30 5317 H 484.907 2.98497 4.1204 0
M  V30 5318 H 484.305 0.197611 5.65355 0
M  V30 5319 H 482.862 0.611396 6.48926 0
M  V30 5320 N 486.295 -0.989507 1.22664 0
M  V30 5321 C 487.242 -2.08024 0.999733 0
M  V30 5322 C 488.212 -1.65909 -0.0797047 0
M  V30 5323 O 489.397 -1.90669 0.0705715 0
M  V30 5324 C 486.537 -3.40067 0.587234 0
M  V30 5325 C 485.65 -3.95505 1.73781 0
M  V30 5326 C 484.785 -5.15722 1.27297 0
M  V30 5327 C 483.824 -5.63305 2.39488 0
M  V30 5328 N 482.961 -6.74758 1.94026 0
M  V30 5329 H 487.801 -2.26768 1.9334 0
M  V30 5330 H 485.338 -1.11171 0.963297 0
M  V30 5331 H 487.296 -4.15899 0.329227 0
M  V30 5332 H 485.926 -3.21314 -0.309426 0
M  V30 5333 H 484.978 -3.16513 2.11006 0
M  V30 5334 H 486.29 -4.26797 2.58158 0
M  V30 5335 H 485.444 -5.98854 0.972546 0
M  V30 5336 H 484.183 -4.86061 0.399445 0
M  V30 5337 H 483.188 -4.78759 2.70315 0
M  V30 5338 H 484.413 -5.94988 3.27362 0
M  V30 5339 H 482.359 -6.46874 1.09041 0
M  V30 5340 H 482.276 -7.05386 2.71968 0
M  V30 5341 H 483.544 -7.61387 1.67062 0
M  V30 5342 N 487.773 -1.03688 -1.18687 0
M  V30 5343 C 488.703 -0.645407 -2.24403 0
M  V30 5344 C 489.684 0.349511 -1.66471 0
M  V30 5345 O 490.869 0.230453 -1.92828 0
M  V30 5346 C 487.999 -0.00365337 -3.473 0
M  V30 5347 C 486.953 -0.921705 -4.17958 0
M  V30 5348 C 486.279 -0.144629 -5.34504 0
M  V30 5349 C 487.579 -2.23909 -4.71871 0
M  V30 5350 H 489.273 -1.52917 -2.57404 0
M  V30 5351 H 486.819 -0.736711 -1.23728 0
M  V30 5352 H 488.772 0.281908 -4.20456 0
M  V30 5353 H 487.496 0.914963 -3.13522 0
M  V30 5354 H 486.155 -1.19159 -3.46694 0
M  V30 5355 H 485.803 0.776274 -4.96974 0
M  V30 5356 H 485.503 -0.756206 -5.82714 0
M  V30 5357 H 487.027 0.134004 -6.10453 0
M  V30 5358 H 488.441 -2.0145 -5.36741 0
M  V30 5359 H 486.838 -2.8033 -5.30599 0
M  V30 5360 H 487.908 -2.88822 -3.895 0
M  V30 5361 N 489.251 1.34841 -0.815825 0
M  V30 5362 C 490.183 2.28409 -0.190265 0
M  V30 5363 C 491.196 1.50705 0.615771 0
M  V30 5364 O 492.385 1.72822 0.446616 0
M  V30 5365 C 489.485 3.30441 0.752446 0
M  V30 5366 C 488.658 4.37399 -0.00922152 0
M  V30 5367 C 487.717 5.19234 0.853351 0
M  V30 5368 O 486.743 5.68404 0.300919 0
M  V30 5369 N 487.945 5.38248 2.17416 0
M  V30 5370 H 490.71 2.82732 -0.994114 0
M  V30 5371 H 488.271 1.47289 -0.672129 0
M  V30 5372 H 490.263 3.82084 1.33394 0
M  V30 5373 H 488.833 2.76565 1.45707 0
M  V30 5374 H 488.053 3.86567 -0.771979 0
M  V30 5375 H 489.341 5.05992 -0.533807 0
M  V30 5376 H 488.739 4.99961 2.6468 0
M  V30 5377 H 487.296 5.93035 2.70467 0
M  V30 5378 N 490.729 0.570148 1.46925 0
M  V30 5379 C 491.639 -0.173061 2.33961 0
M  V30 5380 C 492.655 -0.898825 1.48987 0
M  V30 5381 O 493.831 -0.864825 1.81887 0
M  V30 5382 C 490.896 -1.18177 3.25937 0
M  V30 5383 C 489.957 -0.462041 4.26806 0
M  V30 5384 C 489.19 -1.4227 5.14388 0
M  V30 5385 O 489.413 -2.65842 5.04662 0
M  V30 5386 O 488.347 -0.940127 5.94513 0
M  V30 5387 H 492.173 0.541216 2.98839 0
M  V30 5388 H 489.758 0.330647 1.45695 0
M  V30 5389 H 491.64 -1.76372 3.82715 0
M  V30 5390 H 490.315 -1.87774 2.63671 0
M  V30 5391 H 489.222 0.161429 3.73752 0
M  V30 5392 H 490.555 0.192719 4.91823 0
M  V30 5393 N 492.207 -1.54576 0.307264 0
M  V30 5394 C 493.117 -2.27435 -0.57536 0
M  V30 5395 C 494.133 -1.31183 -1.14311 0
M  V30 5396 O 495.309 -1.64175 -1.16656 0
M  V30 5397 C 492.374 -3.00566 -1.72803 0
M  V30 5398 C 491.435 -4.12369 -1.19373 0
M  V30 5399 C 490.668 -4.82003 -2.29147 0
M  V30 5400 O 490.891 -4.51038 -3.49171 0
M  V30 5401 O 489.825 -5.69271 -1.95485 0
M  V30 5402 H 493.651 -3.03696 0.0158558 0
M  V30 5403 H 491.236 -1.49219 0.0735064 0
M  V30 5404 H 493.118 -3.46416 -2.39946 0
M  V30 5405 H 491.793 -2.27195 -2.30574 0
M  V30 5406 H 490.7 -3.70905 -0.487851 0
M  V30 5407 H 492.033 -4.87736 -0.661376 0
M  V30 5408 N 493.685 -0.035106 -1.57561 0
M  V30 5409 C 494.934 0.641604 -1.91223 0
M  V30 5410 C 495.247 1.72944 -0.913761 0
M  V30 5411 O 496.453 2.46321 -1.14185 0
M  V30 5412 C 494.909 1.19249 -3.3957 0
M  V30 5413 C 494.517 0.137616 -4.47789 0
M  V30 5414 C 496.261 1.84537 -3.82291 0
M  V30 5415 C 494.168 0.700478 -5.87237 0
M  V30 5416 H 493.098 0.243417 -0.713627 0
M  V30 5417 H 495.749 -0.101382 -1.8322 0
M  V30 5418 H 494.131 1.98728 -3.42525 0
M  V30 5419 H 495.305 -0.635153 -4.56402 0
M  V30 5420 H 493.62 -0.416855 -4.14308 0
M  V30 5421 H 496.217 2.27616 -4.83834 0
M  V30 5422 H 496.56 2.69054 -3.17672 0
M  V30 5423 H 497.093 1.11739 -3.81784 0
M  V30 5424 H 493.832 -0.106693 -6.55413 0
M  V30 5425 H 493.352 1.4416 -5.82218 0
M  V30 5426 H 495.031 1.18837 -6.35993 0
M  V30 5427 N 495.163 1.55791 0.238111 0
M  V30 5428 C 496.44 1.68798 0.98826 0
M  V30 5429 C 496.82 0.577562 2.03045 0
M  V30 5430 O 496.168 -0.41778 2.24648 0
M  V30 5431 C 496.378 3.09454 1.61367 0
M  V30 5432 C 497.726 3.68335 2.11221 0
M  V30 5433 O 498.75 3.1231 1.71292 0
M  V30 5434 O 497.609 4.6657 2.84561 0
M  V30 5435 H 494.703 0.686881 0.460568 0
M  V30 5436 H 497.249 1.68118 0.231202 0
M  V30 5437 H 496.021 3.81726 0.860295 0
M  V30 5438 H 495.644 3.14182 2.4367 0
M  V30 5439 N 496.642 -0.504142 1.49319 0
M  V30 5440 C 497.605 -1.5883 1.65244 0
M  V30 5441 C 498.605 -1.52009 0.524386 0
M  V30 5442 O 499.795 -1.55218 0.79077 0
M  V30 5443 C 496.927 -2.98481 1.64687 0
M  V30 5444 H 498.12 -1.4604 2.61939 0
M  V30 5445 H 495.673 -0.728144 1.38303 0
M  V30 5446 H 496.408 -3.16751 0.695644 0
M  V30 5447 H 496.193 -3.0484 2.46607 0
M  V30 5448 H 497.683 -3.77256 1.79075 0
M  V30 5449 N 498.12 -1.38341 -0.754957 0
M  V30 5450 C 499.366 -1.34672 -1.51628 0
M  V30 5451 C 499.699 0.0636036 -1.94096 0
M  V30 5452 O 498.974 1.0245 -1.6533 0
M  V30 5453 C 499.257 -2.30116 -2.76981 0
M  V30 5454 C 499.11 -3.80003 -2.4066 0
M  V30 5455 C 500.429 -2.23715 -3.78998 0
M  V30 5456 H 497.548 -0.490517 -0.550056 0
M  V30 5457 H 500.19 -1.69178 -0.864807 0
M  V30 5458 H 498.34 -2.00821 -3.3257 0
M  V30 5459 H 500.012 -4.19966 -1.90856 0
M  V30 5460 H 498.255 -3.97751 -1.73137 0
M  V30 5461 H 498.926 -4.42244 -3.30339 0
M  V30 5462 H 501.402 -2.49574 -3.32945 0
M  V30 5463 H 500.278 -2.9261 -4.64403 0
M  V30 5464 H 500.539 -1.23554 -4.24484 0
M  V30 5465 N 499.598 0.982988 -1.23187 0
M  V30 5466 C 500.528 2.09301 -1.03515 0
M  V30 5467 C 501.509 1.70035 0.0471136 0
M  V30 5468 O 502.694 1.93847 -0.117029 0
M  V30 5469 C 499.824 3.4167 -0.622791 0
M  V30 5470 C 498.778 3.94828 -1.65211 0
M  V30 5471 C 498.104 5.23362 -1.09527 0
M  V30 5472 C 499.404 4.2439 -3.04451 0
M  V30 5473 H 501.098 2.26016 -1.96359 0
M  V30 5474 H 498.644 1.08611 -0.945501 0
M  V30 5475 H 500.597 4.18746 -0.472233 0
M  V30 5476 H 499.321 3.24811 0.341329 0
M  V30 5477 H 497.98 3.19895 -1.79061 0
M  V30 5478 H 497.628 5.02852 -0.122211 0
M  V30 5479 H 497.328 5.59895 -1.783 0
M  V30 5480 H 498.852 6.03062 -0.956511 0
M  V30 5481 H 500.266 4.92225 -2.93917 0
M  V30 5482 H 498.663 4.72118 -3.70438 0
M  V30 5483 H 499.733 3.31765 -3.53638 0
M  V30 5484 N 501.076 1.04316 1.18135 0
M  V30 5485 C 502.487 0.775505 1.69832 0
M  V30 5486 C 502.838 -0.703348 1.8316 0
M  V30 5487 O 501.963 -1.54729 1.51287 0
M  V30 5488 C 502.558 1.40112 3.0847 0
M  V30 5489 C 501.117 1.18172 3.57368 0
M  V30 5490 C 500.264 1.49022 2.33854 0
M  V30 5491 H 503.215 1.20925 1.02775 0
M  V30 5492 H 503.236 0.805672 3.71873 0
M  V30 5493 H 502.748 2.47744 2.98738 0
M  V30 5494 H 500.849 0.124258 3.72393 0
M  V30 5495 H 500.962 1.8805 4.40652 0
M  V30 5496 H 499.326 0.909995 2.37889 0
M  V30 5497 H 500.109 2.57768 2.26738 0
M  V30 5498 N 502.554 -1.34406 0.822964 0
M  V30 5499 C 503.502 -2.31428 0.233165 0
M  V30 5500 C 504.496 -1.57404 -0.626118 0
M  V30 5501 O 505.702 -1.72402 -0.517453 0
M  V30 5502 H 502.077 -0.749863 0.0566557 0
M  V30 5503 H 504.048 -2.78699 1.06628 0
M  V30 5504 C 502.797 -3.42653 -0.590264 0
M  V30 5505 H 502.12 -3.99753 0.0616129 0
M  V30 5506 H 503.56 -4.12778 -0.969054 0
M  V30 5507 C 502.019 -2.87112 -1.76262 0
M  V30 5508 O 502.549 -2.81995 -2.8608 0
M  V30 5509 N 500.755 -2.43934 -1.57938 0
M  V30 5510 H 500.302 -2.48296 -0.686078 0
M  V30 5511 H 500.26 -2.07123 -2.36532 0
M  V30 5512 N 504.032 -0.577932 -1.46621 0
M  V30 5513 C 504.979 0.158048 -2.30258 0
M  V30 5514 C 505.949 0.888669 -1.40328 0
M  V30 5515 O 507.134 0.880283 -1.6928 0
M  V30 5516 C 504.274 1.16884 -3.24703 0
M  V30 5517 C 503.387 0.442163 -4.29731 0
M  V30 5518 C 502.522 1.44007 -5.11308 0
M  V30 5519 C 501.561 0.69952 -6.0809 0
M  V30 5520 N 500.698 1.64525 -6.82551 0
M  V30 5521 H 505.538 -0.561242 -2.92667 0
M  V30 5522 H 503.075 -0.288591 -1.44241 0
M  V30 5523 H 505.033 1.7677 -3.779 0
M  V30 5524 H 503.663 1.85591 -2.64113 0
M  V30 5525 H 502.715 -0.271632 -3.79429 0
M  V30 5526 H 504.027 -0.136992 -4.98612 0
M  V30 5527 H 503.181 2.11186 -5.68758 0
M  V30 5528 H 501.92 2.05315 -4.42377 0
M  V30 5529 H 500.925 0.0139217 -5.49798 0
M  V30 5530 H 502.15 0.091894 -6.79038 0
M  V30 5531 H 500.096 2.24653 -6.16334 0
M  V30 5532 H 500.013 1.11878 -7.47676 0
M  V30 5533 H 501.281 2.30754 -7.44562 0
M  V30 5534 N 505.51 1.54411 -0.315457 0
M  V30 5535 C 506.473 2.22713 0.54142 0
M  V30 5536 C 507.473 1.2179 1.04995 0
M  V30 5537 O 508.663 1.46426 0.943667 0
M  V30 5538 C 505.795 2.92485 1.75116 0
M  V30 5539 H 506.988 2.99849 -0.0555508 0
M  V30 5540 H 504.541 1.56159 -0.0664453 0
M  V30 5541 H 505.276 2.19466 2.38758 0
M  V30 5542 H 505.061 3.66483 1.39401 0
M  V30 5543 H 506.551 3.44548 2.35959 0
M  V30 5544 N 506.988 0.0434614 1.5754 0
M  V30 5545 C 508.399 -0.493343 1.80064 0
M  V30 5546 C 508.75 -1.71388 0.955023 0
M  V30 5547 O 507.875 -2.15736 0.169434 0
M  V30 5548 C 508.47 -0.90179 3.26578 0
M  V30 5549 C 507.029 -1.38362 3.50047 0
M  V30 5550 C 506.176 -0.355129 2.75017 0
M  V30 5551 H 509.127 0.2694 1.56397 0
M  V30 5552 H 509.148 -1.76523 3.37075 0
M  V30 5553 H 508.66 -0.013271 3.88098 0
M  V30 5554 H 506.761 -2.29159 2.93798 0
M  V30 5555 H 506.874 -1.3811 4.58762 0
M  V30 5556 H 505.238 -0.826348 2.40922 0
M  V30 5557 H 506.021 0.525172 3.39259 0
M  V30 5558 N 508.466 -1.55915 -0.229846 0
M  V30 5559 C 509.877 -1.68809 -0.797531 0
M  V30 5560 C 510.228 -0.643995 -1.8533 0
M  V30 5561 O 509.353 0.206492 -2.15413 0
M  V30 5562 C 509.948 -3.06043 -1.45338 0
M  V30 5563 C 508.507 -3.20819 -1.96856 0
M  V30 5564 C 507.654 -2.6472 -0.825736 0
M  V30 5565 H 510.605 -1.58699 -0.00533733 0
M  V30 5566 H 510.626 -3.01438 -2.32196 0
M  V30 5567 H 510.138 -3.82012 -0.684743 0
M  V30 5568 H 508.239 -2.49704 -2.76548 0
M  V30 5569 H 508.352 -4.27937 -2.15423 0
M  V30 5570 H 506.716 -2.22985 -1.23084 0
M  V30 5571 H 507.499 -3.43229 -0.0699019 0
M  V30 5572 N 509.944 0.496216 -1.49584 0
M  V30 5573 C 511.172 1.27394 -1.63029 0
M  V30 5574 C 511.587 1.86344 -0.303569 0
M  V30 5575 O 510.944 1.68057 0.711547 0
M  V30 5576 C 510.995 2.40077 -2.70269 0
M  V30 5577 O 510.716 1.83549 -3.97796 0
M  V30 5578 C 512.217 3.31372 -2.94462 0
M  V30 5579 H 509.437 0.386211 -0.54871 0
M  V30 5580 H 511.981 0.595163 -1.95648 0
M  V30 5581 H 510.136 3.03775 -2.40415 0
M  V30 5582 H 510.55 2.57561 -4.56905 0
M  V30 5583 H 512.024 4.06707 -3.73221 0
M  V30 5584 H 512.501 3.88654 -2.0456 0
M  V30 5585 H 513.107 2.73435 -3.25751 0
M  V30 5586 N 511.423 1.38739 0.74761 0
M  V30 5587 C 512.653 1.3832 1.53464 0
M  V30 5588 C 513.061 -0.0273464 1.8918 0
M  V30 5589 O 512.404 -1.00588 1.53713 0
M  V30 5590 C 512.466 2.18007 2.85855 0
M  V30 5591 C 512.13 3.66762 2.72644 0
M  V30 5592 C 513.127 4.60124 2.42037 0
M  V30 5593 C 510.812 4.10193 2.89909 0
M  V30 5594 C 512.806 5.94897 2.28859 0
M  V30 5595 C 510.493 5.45045 2.7635 0
M  V30 5596 C 511.491 6.37211 2.45869 0
M  V30 5597 O 511.179 7.69581 2.3238 0
M  V30 5598 H 510.911 0.474718 0.481268 0
M  V30 5599 H 513.465 1.83012 0.932518 0
M  V30 5600 H 511.695 1.68043 3.48279 0
M  V30 5601 H 513.384 2.09921 3.47402 0
M  V30 5602 H 514.15 4.27874 2.28361 0
M  V30 5603 H 510.029 3.38797 3.1263 0
M  V30 5604 H 513.573 6.66802 2.04989 0
M  V30 5605 H 509.47 5.76889 2.89601 0
M  V30 5606 H 510.238 7.80169 2.47546 0
M  V30 5607 N 512.901 -0.976442 1.23707 0
M  V30 5608 C 514.178 -1.69296 0.979699 0
M  V30 5609 C 514.558 -2.0508 -0.500555 0
M  V30 5610 O 513.906 -1.74708 -1.47273 0
M  V30 5611 C 514.116 -2.93143 1.89389 0
M  V30 5612 C 515.464 -3.65572 2.15968 0
M  V30 5613 O 516.488 -3.03184 1.86971 0
M  V30 5614 O 515.347 -4.77859 2.65167 0
M  V30 5615 H 512.441 -0.739708 0.369812 0
M  V30 5616 H 514.987 -1.03131 1.34767 0
M  V30 5617 H 513.759 -2.63327 2.89439 0
M  V30 5618 H 513.382 -3.67044 1.52854 0
M  V30 5619 N 514.379 -1.04941 -1.1758 0
M  V30 5620 C 515.607 -0.778294 -1.91703 0
M  V30 5621 C 516.022 0.665697 -1.76675 0
M  V30 5622 O 515.379 1.45456 -1.10222 0
M  V30 5623 C 515.43 -1.14628 -3.42845 0
M  V30 5624 O 515.151 -2.53359 -3.57409 0
M  V30 5625 C 516.652 -0.900931 -4.34049 0
M  V30 5626 H 513.872 -0.283167 -0.608323 0
M  V30 5627 H 516.416 -1.39942 -1.49119 0
M  V30 5628 H 514.571 -0.569953 -3.83184 0
M  V30 5629 H 514.985 -2.67709 -4.51035 0
M  V30 5630 H 516.459 -1.20817 -5.38616 0
M  V30 5631 H 516.936 0.163966 -4.38894 0
M  V30 5632 H 517.542 -1.46097 -3.99419 0
M  V30 5633 N 515.857 1.33968 -0.830081 0
M  V30 5634 C 517.103 1.98357 -0.422191 0
M  V30 5635 C 517.436 1.65633 1.01387 0
M  V30 5636 O 516.711 0.931648 1.70735 0
M  V30 5637 C 516.994 3.54492 -0.633043 0
M  V30 5638 C 516.847 3.96934 -2.11574 0
M  V30 5639 C 518.166 4.40039 -0.0735584 0
M  V30 5640 H 515.285 0.720544 -0.154871 0
M  V30 5641 H 517.927 1.58749 -1.04397 0
M  V30 5642 H 516.077 3.88361 -0.103775 0
M  V30 5643 H 517.749 3.73363 -2.7092 0
M  V30 5644 H 515.992 3.46984 -2.60354 0
M  V30 5645 H 516.663 5.05651 -2.21406 0
M  V30 5646 H 519.139 4.12764 -0.52585 0
M  V30 5647 H 518.015 5.48327 -0.250841 0
M  V30 5648 H 518.276 4.30124 1.02202 0
M  V30 5649 N 517.335 0.585699 1.46312 0
M  V30 5650 C 518.265 -0.133556 2.33118 0
M  V30 5651 C 519.246 -0.880707 1.45525 0
M  V30 5652 O 520.431 -0.855579 1.74337 0
M  V30 5653 C 517.561 -1.14585 3.27853 0
M  V30 5654 C 516.515 -0.513341 4.2491 0
M  V30 5655 C 515.841 -1.63231 5.09175 0
M  V30 5656 C 517.141 0.551413 5.19381 0
M  V30 5657 H 518.835 0.59121 2.93505 0
M  V30 5658 H 516.381 0.285761 1.41136 0
M  V30 5659 H 518.334 -1.65741 3.87438 0
M  V30 5660 H 517.058 -1.90093 2.65579 0
M  V30 5661 H 515.717 -0.0228349 3.66593 0
M  V30 5662 H 515.365 -2.37713 4.43285 0
M  V30 5663 H 515.065 -1.21473 5.74907 0
M  V30 5664 H 516.589 -2.14658 5.71624 0
M  V30 5665 H 518.003 0.124804 5.73164 0
M  V30 5666 H 516.4 0.889486 5.93471 0
M  V30 5667 H 517.47 1.43655 4.63132 0
M  V30 5668 N 518.813 -1.54241 0.323641 0
M  V30 5669 C 519.745 -2.21836 -0.576311 0
M  V30 5670 C 520.758 -1.21837 -1.07979 0
M  V30 5671 O 521.947 -1.48306 -0.99336 0
M  V30 5672 C 519.047 -2.86923 -1.80356 0
M  V30 5673 C 518.22 -4.1306 -1.43875 0
M  V30 5674 C 517.279 -4.6174 -2.52353 0
M  V30 5675 O 516.305 -5.26421 -2.16494 0
M  V30 5676 N 517.507 -4.35974 -3.83284 0
M  V30 5677 H 520.272 -2.997 0.00247987 0
M  V30 5678 H 517.833 -1.61233 0.146848 0
M  V30 5679 H 519.825 -3.16414 -2.52318 0
M  V30 5680 H 518.395 -2.12765 -2.29019 0
M  V30 5681 H 517.615 -3.90334 -0.550752 0
M  V30 5682 H 518.903 -4.95148 -1.17071 0
M  V30 5683 H 518.301 -3.84203 -4.15216 0
M  V30 5684 H 516.858 -4.70119 -4.51477 0
M  V30 5685 N 520.291 -0.0518155 -1.57515 0
M  V30 5686 C 521.224 0.957758 -2.07129 0
M  V30 5687 C 522.202 1.30355 -0.971927 0
M  V30 5688 O 523.386 1.41631 -1.2439 0
M  V30 5689 C 520.513 2.27157 -2.51232 0
M  V30 5690 C 519.559 2.07879 -3.72409 0
M  V30 5691 S 520.392 1.35656 -5.18033 0
M  V30 5692 C 521.548 2.68359 -5.65451 0
M  V30 5693 H 521.781 0.53552 -2.92437 0
M  V30 5694 H 519.314 0.160465 -1.53564 0
M  V30 5695 H 521.272 3.02676 -2.77304 0
M  V30 5696 H 519.933 2.66509 -1.66228 0
M  V30 5697 H 519.126 3.05061 -4.01191 0
M  V30 5698 H 518.728 1.40499 -3.46606 0
M  V30 5699 H 521.02 3.64526 -5.71076 0
M  V30 5700 H 521.963 2.44213 -6.64654 0
M  V30 5701 H 522.371 2.74647 -4.93183 0
M  V30 5702 N 521.769 1.56035 0.221574 0
M  V30 5703 C 522.679 1.95581 1.29558 0
M  V30 5704 C 523.695 0.859639 1.51282 0
M  V30 5705 O 524.871 1.16321 1.64413 0
M  V30 5706 C 521.936 2.26447 2.62531 0
M  V30 5707 C 520.997 3.49632 2.4911 0
M  V30 5708 C 520.23 3.79017 3.75742 0
M  V30 5709 O 520.453 3.10077 4.78757 0
M  V30 5710 O 519.387 4.72507 3.72855 0
M  V30 5711 H 523.213 2.8711 0.990035 0
M  V30 5712 H 520.798 1.43244 0.424434 0
M  V30 5713 H 522.68 2.47494 3.41064 0
M  V30 5714 H 521.355 1.38092 2.92766 0
M  V30 5715 H 520.262 3.33864 1.68777 0
M  V30 5716 H 521.595 4.3837 2.23814 0
M  V30 5717 N 523.247 -0.488276 1.49845 0
M  V30 5718 C 524.477 -1.26344 1.63465 0
M  V30 5719 C 524.885 -1.86637 0.310379 0
M  V30 5720 O 524.228 -1.69184 -0.715712 0
M  V30 5721 C 524.29 -2.42407 2.65479 0
M  V30 5722 C 523.954 -2.02886 4.09495 0
M  V30 5723 C 524.951 -1.56124 4.95904 0
M  V30 5724 C 522.636 -2.12131 4.55308 0
M  V30 5725 C 524.63 -1.19129 6.26169 0
M  V30 5726 C 522.317 -1.74747 5.85582 0
M  V30 5727 C 523.315 -1.28322 6.70837 0
M  V30 5728 O 523.003 -0.914491 7.98682 0
M  V30 5729 H 522.735 -0.388921 0.552916 0
M  V30 5730 H 525.289 -0.591288 1.96705 0
M  V30 5731 H 523.519 -3.12739 2.27445 0
M  V30 5732 H 525.208 -3.04409 2.68495 0
M  V30 5733 H 525.974 -1.48417 4.61733 0
M  V30 5734 H 521.853 -2.47217 3.89107 0
M  V30 5735 H 525.397 -0.828211 6.92666 0
M  V30 5736 H 521.294 -1.82109 6.19279 0
M  V30 5737 H 522.062 -1.04485 8.11804 0
M  V30 5738 N 524.725 -1.39134 -0.740242 0
M  V30 5739 C 525.655 -1.40165 -1.86751 0
M  V30 5740 C 526.636 -0.265708 -1.68012 0
M  V30 5741 O 527.821 -0.47076 -1.88408 0
M  V30 5742 C 524.951 -1.2392 -3.2444 0
M  V30 5743 C 523.905 -2.34858 -3.57807 0
M  V30 5744 C 523.231 -2.03707 -4.94376 0
M  V30 5745 C 524.531 -3.77159 -3.61315 0
M  V30 5746 H 526.225 -2.345 -1.86145 0
M  V30 5747 H 523.771 -1.12875 -0.89416 0
M  V30 5748 H 525.724 -1.23263 -4.02969 0
M  V30 5749 H 524.448 -0.26051 -3.25559 0
M  V30 5750 H 523.107 -2.34723 -2.81604 0
M  V30 5751 H 522.755 -1.04289 -4.9207 0
M  V30 5752 H 522.455 -2.78016 -5.17669 0
M  V30 5753 H 523.979 -2.04691 -5.75268 0
M  V30 5754 H 525.393 -3.79252 -4.29931 0
M  V30 5755 H 523.79 -4.50784 -3.96124 0
M  V30 5756 H 524.86 -4.08513 -2.61238 0
M  V30 5757 N 526.204 0.969867 -1.24223 0
M  V30 5758 C 527.481 1.68774 -0.988664 0
M  V30 5759 C 527.861 2.05342 0.489673 0
M  V30 5760 O 527.209 1.75486 1.46345 0
M  V30 5761 C 527.419 2.92135 -1.90941 0
M  V30 5762 C 528.767 3.64422 -2.17903 0
M  V30 5763 O 529.791 3.02188 -1.88576 0
M  V30 5764 O 528.65 4.76446 -2.67697 0
M  V30 5765 H 525.744 0.737736 -0.37373 0
M  V30 5766 H 528.29 1.02415 -1.35312 0
M  V30 5767 H 527.062 2.61788 -2.90831 0
M  V30 5768 H 526.685 3.66228 -1.54798 0
M  V30 5769 N 527.682 1.05563 1.17022 0
M  V30 5770 C 528.615 0.604197 2.20056 0
M  V30 5771 C 529.593 -0.369169 1.58354 0
M  V30 5772 O 530.777 -0.279898 1.8641 0
M  V30 5773 C 527.904 -0.115265 3.38504 0
M  V30 5774 C 526.95 0.813698 4.18666 0
M  V30 5775 S 527.783 2.30492 4.83357 0
M  V30 5776 C 528.939 1.59674 6.0519 0
M  V30 5777 H 529.172 1.47713 2.58008 0
M  V30 5778 H 526.705 0.867932 1.27696 0
M  V30 5779 H 528.663 -0.524162 4.0714 0
M  V30 5780 H 527.324 -0.964284 2.98932 0
M  V30 5781 H 526.517 0.256736 5.03346 0
M  V30 5782 H 526.119 1.16213 3.55486 0
M  V30 5783 H 528.411 0.898164 6.7152 0
M  V30 5784 H 529.354 2.42115 6.65422 0
M  V30 5785 H 529.762 1.08252 5.54023 0
M  V30 5786 N 529.16 -1.33526 0.837174 0
M  V30 5787 C 530.406 -1.9813 0.432704 0
M  V30 5788 C 530.739 -1.66168 -1.00508 0
M  V30 5789 O 530.014 -0.94069 -1.70239 0
M  V30 5790 C 530.297 -3.54151 0.651834 0
M  V30 5791 C 530.15 -3.95806 2.13676 0
M  V30 5792 C 531.469 -4.39993 0.0968937 0
M  V30 5793 H 528.588 -0.719713 0.15869 0
M  V30 5794 H 531.23 -1.58193 1.05237 0
M  V30 5795 H 529.38 -3.88301 0.124369 0
M  V30 5796 H 531.052 -3.71921 2.72896 0
M  V30 5797 H 529.295 -3.45599 2.62191 0
M  V30 5798 H 529.966 -5.0447 2.24084 0
M  V30 5799 H 532.442 -4.12479 0.547733 0
M  V30 5800 H 531.318 -5.48186 0.279917 0
M  V30 5801 H 531.579 -4.3066 -0.9992 0
M  V30 5802 N 530.638 -0.59345 -1.46 0
M  V30 5803 C 531.884 -0.0832754 -2.02629 0
M  V30 5804 C 532.217 1.27749 -1.46266 0
M  V30 5805 O 531.492 1.8395 -0.631866 0
M  V30 5806 C 531.775 -0.0290756 -3.60088 0
M  V30 5807 C 531.628 -1.41951 -4.26814 0
M  V30 5808 C 532.947 0.666055 -4.35031 0
M  V30 5809 H 530.066 -0.031736 -0.736316 0
M  V30 5810 H 532.708 -0.762711 -1.74019 0
M  V30 5811 H 530.858 0.549532 -3.84594 0
M  V30 5812 H 532.53 -2.04411 -4.13538 0
M  V30 5813 H 530.773 -1.98422 -3.8576 0
M  V30 5814 H 531.444 -1.33395 -5.3564 0
M  V30 5815 H 533.92 0.174401 -4.15734 0
M  V30 5816 H 532.796 0.673041 -5.44758 0
M  V30 5817 H 533.057 1.72946 -4.06869 0
M  V30 5818 N 532.116 1.54067 -0.331816 0
M  V30 5819 C 533.064 2.26105 0.54582 0
M  V30 5820 C 534.058 1.27816 1.11173 0
M  V30 5821 O 535.264 1.45565 1.05882 0
M  V30 5822 H 531.639 0.726363 0.194683 0
M  V30 5823 H 533.61 2.98282 -0.083931 0
M  V30 5824 C 532.359 3.03814 1.69092 0
M  V30 5825 H 531.682 3.79269 1.26473 0
M  V30 5826 H 533.122 3.57453 2.28043 0
M  V30 5827 C 531.581 2.12606 2.61343 0
M  V30 5828 O 532.111 1.71437 3.6328 0
M  V30 5829 N 530.317 1.77925 2.29763 0
M  V30 5830 H 529.864 2.11602 1.46909 0
M  V30 5831 H 529.822 1.1718 2.91747 0
M  V30 5832 N 533.594 0.0601682 1.57485 0
M  V30 5833 C 534.504 -0.926121 2.15546 0
M  V30 5834 C 535.52 -1.33532 1.11558 0
M  V30 5835 O 536.696 -1.4104 1.4377 0
M  V30 5836 C 533.761 -2.17952 2.69625 0
M  V30 5837 C 532.822 -1.82783 3.88444 0
M  V30 5838 C 532.055 -3.02148 4.39935 0
M  V30 5839 O 532.278 -4.15803 3.90466 0
M  V30 5840 O 531.212 -2.82639 5.31412 0
M  V30 5841 H 535.038 -0.462289 3.00161 0
M  V30 5842 H 532.623 -0.162246 1.48516 0
M  V30 5843 H 534.505 -2.91474 3.04337 0
M  V30 5844 H 533.18 -2.63456 1.88077 0
M  V30 5845 H 532.087 -1.06549 3.58606 0
M  V30 5846 H 533.42 -1.42072 4.7125 0
M  V30 5847 N 535.072 -1.5615 -0.213296 0
M  V30 5848 C 536.3 -1.83638 -0.953139 0
M  V30 5849 C 536.715 -0.640362 -1.77609 0
M  V30 5850 O 536.072 0.391071 -1.78261 0
M  V30 5851 C 536.123 -3.09735 -1.86405 0
M  V30 5852 O 535.844 -4.24723 -1.07435 0
M  V30 5853 C 537.345 -3.5027 -2.71709 0
M  V30 5854 H 534.565 -0.610263 -0.278962 0
M  V30 5855 H 537.109 -2.03247 -0.226035 0
M  V30 5856 H 535.264 -2.92077 -2.545 0
M  V30 5857 H 535.678 -4.9641 -1.69343 0
M  V30 5858 H 537.152 -4.41515 -3.31313 0
M  V30 5859 H 537.629 -2.72406 -3.44516 0
M  V30 5860 H 538.235 -3.70396 -2.09015 0
M  V30 5861 N 536.55 0.480323 -1.50102 0
M  V30 5862 C 537.48 1.58769 -1.71215 0
M  V30 5863 C 538.461 1.60583 -0.560997 0
M  V30 5864 O 539.646 1.76996 -0.799127 0
M  V30 5865 C 536.776 2.97148 -1.79778 0
M  V30 5866 C 535.73 3.10201 -2.94888 0
M  V30 5867 C 535.056 4.50137 -2.88584 0
M  V30 5868 C 536.356 2.88283 -4.35534 0
M  V30 5869 H 538.05 1.41354 -2.6393 0
M  V30 5870 H 535.596 0.678591 -1.27008 0
M  V30 5871 H 537.549 3.74536 -1.93133 0
M  V30 5872 H 536.273 3.15699 -0.836772 0
M  V30 5873 H 534.932 2.35244 -2.81169 0
M  V30 5874 H 534.58 4.65593 -1.90349 0
M  V30 5875 H 534.28 4.59808 -3.65856 0
M  V30 5876 H 535.804 5.29558 -3.03976 0
M  V30 5877 H 537.218 3.55427 -4.49827 0
M  V30 5878 H 535.615 3.09408 -5.14186 0
M  V30 5879 H 536.685 1.84219 -4.48544 0
M  V30 5880 N 538.028 1.39524 0.732853 0
M  V30 5881 C 539.444 1.21176 1.03868 0
M  V30 5882 C 539.644 0.0748448 2.01361 0
M  V30 5883 O 538.7 -0.57281 2.45917 0
M  V30 5884 C 540.013 2.54667 1.59892 0
M  V30 5885 C 541.561 2.6153 1.71962 0
M  V30 5886 C 542.036 3.95248 2.31394 0
M  V30 5887 N 543.527 3.96899 2.38801 0
M  V30 5888 C 544.262 4.97138 2.85729 0
M  V30 5889 N 543.758 6.07775 3.32537 0
M  V30 5890 N 545.551 4.84516 2.84957 0
M  V30 5891 H 537.702 2.12225 0.086304 0
M  V30 5892 H 539.965 0.942614 0.100907 0
M  V30 5893 H 539.671 3.38423 0.95721 0
M  V30 5894 H 539.545 2.74538 2.58668 0
M  V30 5895 H 541.932 1.78156 2.35254 0
M  V30 5896 H 542.013 2.45507 0.718327 0
M  V30 5897 H 541.657 4.79054 1.68729 0
M  V30 5898 H 541.587 4.08593 3.32204 0
M  V30 5899 H 544.078 3.16998 2.05719 0
M  V30 5900 H 544.391 6.8017 3.66862 0
M  V30 5901 H 542.736 6.11366 3.30541 0
M  V30 5902 H 545.927 3.97185 2.47713 0
M  V30 5903 H 546.1 5.62783 3.21215 0
M  V30 5904 N 539.506 -0.963266 1.24736 0
M  V30 5905 C 540.436 -2.07628 1.06832 0
M  V30 5906 C 541.417 -1.70088 -0.0200566 0
M  V30 5907 O 542.602 -1.93636 0.147854 0
M  V30 5908 C 539.732 -3.40636 0.677069 0
M  V30 5909 C 538.686 -3.9215 1.71471 0
M  V30 5910 C 538.012 -5.21553 1.1784 0
M  V30 5911 C 539.312 -4.19493 3.11164 0
M  V30 5912 H 541.006 -2.22864 1.9993 0
M  V30 5913 H 538.552 -1.07093 0.96266 0
M  V30 5914 H 540.505 -4.17941 0.538792 0
M  V30 5915 H 539.229 -3.25313 -0.289612 0
M  V30 5916 H 537.888 -3.17005 1.84128 0
M  V30 5917 H 537.536 -5.02593 0.202195 0
M  V30 5918 H 537.236 -5.56988 1.87185 0
M  V30 5919 H 538.76 -6.01463 1.05233 0
M  V30 5920 H 540.174 -4.87487 3.01711 0
M  V30 5921 H 538.571 -4.66165 3.77902 0
M  V30 5922 H 539.641 -3.26097 3.58871 0
M  V30 5923 N 540.985 -1.06182 -1.16461 0
M  V30 5924 C 542.232 -0.777863 -1.86964 0
M  V30 5925 C 542.56 0.695602 -1.81636 0
M  V30 5926 O 541.815 1.52532 -1.22607 0
M  V30 5927 C 542.114 -1.21633 -3.36066 0
M  V30 5928 C 541.78 -2.69371 -3.61594 0
M  V30 5929 C 540.442 -3.09727 -3.6827 0
M  V30 5930 C 542.794 -3.64791 -3.7226 0
M  V30 5931 C 540.122 -4.44345 -3.83112 0
M  V30 5932 C 542.474 -4.99155 -3.88623 0
M  V30 5933 C 541.138 -5.39149 -3.93541 0
M  V30 5934 H 540.408 -0.28464 -0.68415 0
M  V30 5935 H 543.055 -1.33071 -1.37711 0
M  V30 5936 H 541.36 -0.582651 -3.87443 0
M  V30 5937 H 543.057 -0.973682 -3.88999 0
M  V30 5938 H 539.647 -2.37124 -3.57029 0
M  V30 5939 H 543.831 -3.34746 -3.66413 0
M  V30 5940 H 539.087 -4.74819 -3.85172 0
M  V30 5941 H 543.261 -5.72976 -3.95817 0
M  V30 5942 H 540.888 -6.43464 -4.04794 0
M  V30 5943 N 542.463 1.3308 -0.844243 0
M  V30 5944 C 543.874 1.7992 -0.498566 0
M  V30 5945 C 544.225 1.69808 0.982834 0
M  V30 5946 O 543.35 1.25051 1.7661 0
M  V30 5947 C 543.945 3.26677 -0.898204 0
M  V30 5948 C 542.504 3.71513 -0.604583 0
M  V30 5949 C 541.651 2.54393 -1.10362 0
M  V30 5950 H 544.602 1.20526 -1.03244 0
M  V30 5951 H 544.623 3.79918 -0.21039 0
M  V30 5952 H 544.135 3.34004 -1.97643 0
M  V30 5953 H 542.236 3.69708 0.46335 0
M  V30 5954 H 542.349 4.64755 -1.16358 0
M  V30 5955 H 540.713 2.49246 -0.524273 0
M  V30 5956 H 541.496 2.6448 -2.18873 0
M  V30 5957 N 543.941 0.601185 1.45683 0
M  V30 5958 C 545.19 0.0914953 2.01492 0
M  V30 5959 C 545.503 -1.28331 1.47616 0
M  V30 5960 O 546.709 -1.88537 1.95362 0
M  V30 5961 C 545.165 0.11291 3.59723 0
M  V30 5962 C 544.773 1.48717 4.22596 0
M  V30 5963 C 546.517 -0.341871 4.23121 0
M  V30 5964 C 544.424 1.46531 5.7296 0
M  V30 5965 H 543.354 0.0304365 0.753385 0
M  V30 5966 H 546.005 0.755568 1.67223 0
M  V30 5967 H 544.387 -0.617692 3.91153 0
M  V30 5968 H 545.561 2.23897 4.02749 0
M  V30 5969 H 543.876 1.88351 3.71366 0
M  V30 5970 H 546.473 -0.377304 5.33367 0
M  V30 5971 H 546.816 -1.36325 3.93346 0
M  V30 5972 H 547.349 0.335256 3.96385 0
M  V30 5973 H 544.088 2.46408 6.07423 0
M  V30 5974 H 543.608 0.755997 5.95017 0
M  V30 5975 H 545.287 1.18618 6.36034 0
M  V30 5976 N 545.419 -1.53889 0.339982 0
M  V30 5977 C 546.382 -2.23547 -0.50592 0
M  V30 5978 C 547.382 -1.23445 -1.03044 0
M  V30 5979 O 548.572 -1.47909 -0.920253 0
M  V30 5980 C 545.704 -2.95234 -1.7044 0
M  V30 5981 H 546.897 -2.99722 0.103247 0
M  V30 5982 H 544.45 -1.56033 0.0912804 0
M  V30 5983 H 545.185 -2.23236 -2.35236 0
M  V30 5984 H 544.97 -3.68654 -1.33553 0
M  V30 5985 H 546.46 -3.48258 -2.30447 0
M  V30 5986 N 546.897 -0.0685191 -1.57451 0
M  V30 5987 C 547.83 0.935736 -2.08133 0
M  V30 5988 C 548.808 1.29317 -0.985698 0
M  V30 5989 O 549.992 1.40304 -1.25886 0
M  V30 5990 C 547.119 2.2448 -2.53627 0
M  V30 5991 C 546.165 2.03917 -3.74593 0
M  V30 5992 S 546.998 1.30154 -5.19442 0
M  V30 5993 C 548.154 2.62346 -5.68265 0
M  V30 5994 H 548.387 0.504473 -2.92989 0
M  V30 5995 H 545.92 0.144169 -1.53725 0
M  V30 5996 H 547.878 2.99718 -2.80499 0
M  V30 5997 H 546.539 2.64731 -1.69045 0
M  V30 5998 H 545.732 3.00788 -4.04404 0
M  V30 5999 H 545.334 1.36815 -3.48077 0
M  V30 6000 H 547.626 3.58448 -5.7491 0
M  V30 6001 H 548.569 2.3715 -6.67207 0
M  V30 6002 H 548.977 2.69401 -4.96068 0
M  V30 6003 N 548.375 1.56261 0.205012 0
M  V30 6004 C 549.791 1.49623 0.555433 0
M  V30 6005 C 549.991 0.766719 1.86343 0
M  V30 6006 O 549.047 0.313158 2.50551 0
M  V30 6007 C 550.36 2.94253 0.619347 0
M  V30 6008 C 551.908 3.04868 0.708855 0
M  V30 6009 C 552.383 4.50888 0.803969 0
M  V30 6010 N 553.874 4.54999 0.867758 0
M  V30 6011 C 554.609 5.65284 0.96135 0
M  V30 6012 N 554.105 6.85282 1.01786 0
M  V30 6013 N 555.898 5.53174 0.997771 0
M  V30 6014 H 548.049 2.0211 -0.653094 0
M  V30 6015 H 550.312 0.919333 -0.231366 0
M  V30 6016 H 550.018 3.50643 -0.272458 0
M  V30 6017 H 549.892 3.47063 1.47741 0
M  V30 6018 H 552.279 2.48532 1.5911 0
M  V30 6019 H 552.36 2.55199 -0.175205 0
M  V30 6020 H 552.004 5.07846 -0.0738798 0
M  V30 6021 H 551.934 4.98279 1.70369 0
M  V30 6022 H 554.425 3.68588 0.833735 0
M  V30 6023 H 554.738 7.65081 1.08951 0
M  V30 6024 H 553.083 6.8796 0.986706 0
M  V30 6025 H 556.274 4.5835 0.950392 0
M  V30 6026 H 556.447 6.39151 1.06725 0
M  V30 6027 N 549.853 -0.472356 1.50355 0
M  V30 6028 C 550.783 -1.57859 1.72055 0
M  V30 6029 C 551.764 -1.60283 0.569505 0
M  V30 6030 O 552.949 -1.7657 0.808503 0
M  V30 6031 C 550.079 -2.96191 1.81351 0
M  V30 6032 C 549.033 -3.08633 2.96529 0
M  V30 6033 C 548.359 -4.486 2.90968 0
M  V30 6034 C 549.659 -2.85969 4.37057 0
M  V30 6035 H 551.353 -1.39953 2.64676 0
M  V30 6036 H 548.899 -0.671846 1.27367 0
M  V30 6037 H 550.852 -3.73507 1.95117 0
M  V30 6038 H 549.576 -3.15251 0.853502 0
M  V30 6039 H 548.235 -2.33749 2.82413 0
M  V30 6040 H 547.883 -4.64577 1.92815 0
M  V30 6041 H 547.583 -4.57861 3.68289 0
M  V30 6042 H 549.107 -5.27938 3.0678 0
M  V30 6043 H 550.521 -3.53036 4.51706 0
M  V30 6044 H 548.918 -3.06677 5.15819 0
M  V30 6045 H 549.988 -1.81838 4.49514 0
M  V30 6046 N 551.331 -1.39911 -0.725443 0
M  V30 6047 C 552.241 -1.41688 -1.8698 0
M  V30 6048 C 553.257 -0.310579 -1.71206 0
M  V30 6049 O 554.433 -0.55359 -1.93642 0
M  V30 6050 C 551.498 -1.26811 -3.22676 0
M  V30 6051 C 550.559 -2.47497 -3.50776 0
M  V30 6052 C 549.792 -2.3332 -4.79997 0
M  V30 6053 O 550.015 -1.34175 -5.54394 0
M  V30 6054 O 548.949 -3.22498 -5.08211 0
M  V30 6055 H 552.775 -2.38171 -1.88436 0
M  V30 6056 H 550.36 -1.21128 -0.874548 0
M  V30 6057 H 552.242 -1.20684 -4.03749 0
M  V30 6058 H 550.917 -0.334289 -3.21969 0
M  V30 6059 H 549.824 -2.59201 -2.69751 0
M  V30 6060 H 551.157 -3.39606 -3.5627 0
M  V30 6061 N 552.809 0.956637 -1.25245 0
M  V30 6062 C 554.225 1.22733 -1.02023 0
M  V30 6063 C 554.425 1.99761 0.264186 0
M  V30 6064 O 553.481 2.32814 0.977436 0
M  V30 6065 C 554.794 2.00367 -2.24217 0
M  V30 6066 C 556.342 2.13418 -2.28958 0
M  V30 6067 C 556.817 2.9445 -3.50803 0
M  V30 6068 N 558.308 3.02029 -3.51187 0
M  V30 6069 C 559.043 3.65116 -4.42129 0
M  V30 6070 N 558.539 4.2983 -5.43339 0
M  V30 6071 N 560.332 3.62237 -4.29815 0
M  V30 6072 H 552.483 0.441282 -2.07765 0
M  V30 6073 H 554.746 0.257686 -0.912306 0
M  V30 6074 H 554.452 1.51165 -3.17556 0
M  V30 6075 H 554.326 3.01077 -2.27228 0
M  V30 6076 H 556.713 2.61819 -1.36143 0
M  V30 6077 H 556.794 1.1202 -2.29968 0
M  V30 6078 H 556.438 2.46741 -4.43939 0
M  V30 6079 H 556.368 3.9607 -3.47039 0
M  V30 6080 H 558.859 2.56007 -2.77973 0
M  V30 6081 H 559.172 4.75819 -6.08947 0
M  V30 6082 H 557.517 4.28465 -5.47214 0
M  V30 6083 H 560.708 3.10863 -3.49974 0
M  V30 6084 H 560.881 4.11117 -5.00886 0
M  V30 6085 N 554.287 1.06798 1.15896 0
M  V30 6086 C 555.533 0.788934 1.86825 0
M  V30 6087 C 555.866 -0.683084 1.8179 0
M  V30 6088 O 555.141 -1.50086 1.23711 0
M  V30 6089 C 555.424 1.29065 3.36176 0
M  V30 6090 C 555.277 2.8268 3.49874 0
M  V30 6091 C 556.596 0.902655 4.30744 0
M  V30 6092 H 553.715 0.288066 0.678371 0
M  V30 6093 H 556.357 1.32479 1.36195 0
M  V30 6094 H 554.507 0.834806 3.79425 0
M  V30 6095 H 556.179 3.36511 3.15528 0
M  V30 6096 H 554.422 3.21157 2.91617 0
M  V30 6097 H 555.093 3.12852 4.54783 0
M  V30 6098 H 557.569 1.29535 3.95424 0
M  V30 6099 H 556.445 1.28111 5.3374 0
M  V30 6100 H 556.706 -0.191951 4.41683 0
M  V30 6101 N 555.766 -1.3263 0.851289 0
M  V30 6102 C 557.006 -1.99174 0.459266 0
M  V30 6103 C 557.37 -1.65913 -0.966273 0
M  V30 6104 O 558.571 -2.2552 -1.46267 0
M  V30 6105 C 556.842 -3.50721 0.687698 0
M  V30 6106 S 558.401 -4.37039 0.392746 0
M  V30 6107 H 555.219 -0.689832 0.172199 0
M  V30 6108 H 557.821 -1.61395 1.10327 0
M  V30 6109 H 556.525 -3.72417 1.72435 0
M  V30 6110 H 556.056 -3.93389 0.0299949 0
M  V30 6111 H 558.071 -4.8999 -0.782578 0
M  V30 6112 N 557.244 -0.608902 -1.45362 0
M  V30 6113 C 558.191 0.109172 -2.30542 0
M  V30 6114 C 559.161 0.858704 -1.42181 0
M  V30 6115 O 560.346 0.844178 -1.71109 0
M  V30 6116 C 557.486 1.09971 -3.27109 0
M  V30 6117 C 556.599 0.350911 -4.30572 0
M  V30 6118 C 555.734 1.33129 -5.14247 0
M  V30 6119 C 554.773 0.570377 -6.09437 0
M  V30 6120 N 553.91 1.5001 -6.85887 0
M  V30 6121 H 558.75 -0.623195 -2.91411 0
M  V30 6122 H 556.287 -0.319122 -1.43597 0
M  V30 6123 H 558.245 1.68714 -3.81564 0
M  V30 6124 H 556.875 1.79947 -2.67991 0
M  V30 6125 H 555.927 -0.352054 -3.78767 0
M  V30 6126 H 557.239 -0.242725 -4.98209 0
M  V30 6127 H 556.393 1.99074 -5.73109 0
M  V30 6128 H 555.132 1.95885 -4.46632 0
M  V30 6129 H 554.137 -0.102702 -5.49704 0
M  V30 6130 H 555.362 -0.0521607 -6.7908 0
M  V30 6131 H 553.308 2.11529 -6.2096 0
M  V30 6132 H 553.225 0.959934 -7.49881 0
M  V30 6133 H 554.493 2.14909 -7.49289 0
M  V30 6134 N 558.722 1.53707 -0.348139 0
M  V30 6135 C 559.669 2.25173 0.506518 0
M  V30 6136 C 560.639 1.25174 1.09182 0
M  V30 6137 O 561.824 1.53917 1.12757 0
M  V30 6138 C 558.964 3.03141 1.64923 0
M  V30 6139 C 558.077 4.18002 1.0908 0
M  V30 6140 C 557.212 4.83447 2.20119 0
M  V30 6141 C 556.251 5.90369 1.61651 0
M  V30 6142 N 555.388 6.49575 2.66451 0
M  V30 6143 H 560.228 2.97799 -0.109452 0
M  V30 6144 H 557.765 1.46953 -0.0657866 0
M  V30 6145 H 559.723 3.46607 2.32205 0
M  V30 6146 H 558.353 2.32803 2.23612 0
M  V30 6147 H 557.405 3.79145 0.308783 0
M  V30 6148 H 558.717 4.94892 0.623178 0
M  V30 6149 H 557.871 5.30008 2.95257 0
M  V30 6150 H 556.61 4.05991 2.70227 0
M  V30 6151 H 555.615 5.43186 0.850209 0
M  V30 6152 H 556.84 6.69735 1.1239 0
M  V30 6153 H 554.786 5.74981 3.15805 0
M  V30 6154 H 554.703 7.21952 2.24325 0
M  V30 6155 H 555.971 7.00789 3.41344 0
M  V30 6156 N 560.2 0.0768682 1.57412 0
M  V30 6157 C 561.477 -0.632359 1.85096 0
M  V30 6158 C 561.857 -1.87479 0.9703 0
M  V30 6159 O 561.205 -2.28469 0.0379062 0
M  V30 6160 C 561.415 -0.965174 3.35388 0
M  V30 6161 C 562.763 -1.33648 4.03018 0
M  V30 6162 O 563.787 -1.05675 3.40164 0
M  V30 6163 O 562.646 -1.85959 5.13889 0
M  V30 6164 H 559.74 -0.314574 0.764835 0
M  V30 6165 H 562.286 0.108184 1.69355 0
M  V30 6166 H 561.058 -0.0829745 3.91212 0
M  V30 6167 H 560.681 -1.76231 3.5641 0
M  V30 6168 N 561.678 -1.56367 -0.196722 0
M  V30 6169 C 562.924 -1.80796 -0.918725 0
M  V30 6170 C 563.257 -0.650645 -1.82976 0
M  V30 6171 O 562.532 0.348889 -1.91345 0
M  V30 6172 C 562.815 -3.15472 -1.73636 0
M  V30 6173 C 562.668 -4.41693 -0.85015 0
M  V30 6174 C 563.987 -3.46824 -2.70927 0
M  V30 6175 H 561.106 -0.657702 -0.332561 0
M  V30 6176 H 563.748 -1.89086 -0.186186 0
M  V30 6177 H 561.898 -3.08536 -2.36088 0
M  V30 6178 H 563.57 -4.60673 -0.240459 0
M  V30 6179 H 561.813 -4.33517 -0.156785 0
M  V30 6180 H 562.484 -5.32419 -1.45719 0
M  V30 6181 H 564.96 -3.54049 -2.18607 0
M  V30 6182 H 563.836 -4.4218 -3.25219 0
M  V30 6183 H 564.097 -2.70236 -3.49893 0
M  V30 6184 N 563.156 0.464375 -1.50603 0
M  V30 6185 C 564.066 1.58723 -1.72754 0
M  V30 6186 C 565.082 1.62925 -0.610844 0
M  V30 6187 O 566.258 1.8067 -0.889963 0
M  V30 6188 C 563.323 2.94897 -1.82309 0
M  V30 6189 C 562.384 3.0103 -3.06071 0
M  V30 6190 C 561.617 4.30708 -3.1516 0
M  V30 6191 O 561.84 5.2159 -2.30868 0
M  V30 6192 O 560.774 4.42571 -4.0794 0
M  V30 6193 H 564.6 1.42954 -2.67951 0
M  V30 6194 H 562.185 0.644579 -1.3478 0
M  V30 6195 H 564.067 3.75764 -1.90735 0
M  V30 6196 H 562.742 3.10851 -0.902967 0
M  V30 6197 H 561.649 2.19217 -3.03142 0
M  V30 6198 H 562.982 2.90014 -3.97684 0
M  V30 6199 N 564.634 1.40294 0.718013 0
M  V30 6200 C 565.883 1.37746 1.4734 0
M  V30 6201 C 566.196 -0.0180754 1.95592 0
M  V30 6202 O 567.402 -0.166166 2.70991 0
M  V30 6203 C 565.858 2.4208 2.66318 0
M  V30 6204 C 565.466 3.87432 2.24945 0
M  V30 6205 C 567.21 2.48635 3.44065 0
M  V30 6206 C 565.117 4.83368 3.40748 0
M  V30 6207 H 564.047 0.512165 0.553356 0
M  V30 6208 H 566.698 1.66019 0.781661 0
M  V30 6209 H 565.08 2.06903 3.3765 0
M  V30 6210 H 566.254 4.3174 1.6105 0
M  V30 6211 H 564.569 3.8433 1.60249 0
M  V30 6212 H 567.166 3.17499 4.30231 0
M  V30 6213 H 567.509 1.51611 3.87711 0
M  V30 6214 H 568.042 2.82791 2.79775 0
M  V30 6215 H 564.781 5.81716 3.02136 0
M  V30 6216 H 564.301 4.43726 4.03568 0
M  V30 6217 H 565.98 5.03074 4.06848 0
M  V30 6218 N 566.112 -0.949982 1.2575 0
M  V30 6219 C 567.06 -2.06869 1.06339 0
M  V30 6220 C 568.054 -1.69399 -0.00708901 0
M  V30 6221 O 569.26 -1.79383 0.148897 0
M  V30 6222 H 565.635 -0.677197 0.326969 0
M  V30 6223 H 567.606 -2.20396 2.01167 0
M  V30 6224 C 566.355 -3.40503 0.703769 0
M  V30 6225 H 565.678 -3.69807 1.51931 0
M  V30 6226 H 567.118 -4.19623 0.607677 0
M  V30 6227 C 565.577 -3.31685 -0.5905 0
M  V30 6228 O 566.107 -3.67085 -1.63131 0
M  V30 6229 N 564.313 -2.84797 -0.577859 0
M  V30 6230 H 563.86 -2.56186 0.26951 0
M  V30 6231 H 563.818 -2.79279 -1.44398 0
M  V30 6232 N 567.59 -1.07411 -1.15328 0
M  V30 6233 C 568.838 -0.796073 -1.85761 0
M  V30 6234 C 569.159 0.679864 -1.82764 0
M  V30 6235 O 568.429 1.49242 -1.269 0
M  V30 6236 H 567.009 -0.291495 -0.687779 0
M  V30 6237 H 569.671 -1.35799 -1.39802 0
M  V30 6238 H 568.767 -1.13114 -2.90881 0
M  V30 6239 N 569.068 1.32177 -0.85831 0
M  V30 6240 C 570.001 2.26823 -0.25035 0
M  V30 6241 C 570.979 1.50571 0.61378 0
M  V30 6242 O 572.163 1.79682 0.569777 0
M  V30 6243 C 569.29 3.32472 0.646556 0
M  V30 6244 C 568.336 4.26255 -0.144675 0
M  V30 6245 S 569.169 5.13608 -1.5155 0
M  V30 6246 C 570.325 6.22778 -0.624408 0
M  V30 6247 H 570.558 2.7804 -1.05267 0
M  V30 6248 H 568.091 1.39764 -0.656152 0
M  V30 6249 H 570.049 3.93817 1.15837 0
M  V30 6250 H 568.71 2.80031 1.42272 0
M  V30 6251 H 567.903 5.01114 0.538613 0
M  V30 6252 H 567.505 3.69346 -0.588198 0
M  V30 6253 H 569.797 6.77287 0.169846 0
M  V30 6254 H 570.74 6.95233 -1.34376 0
M  V30 6255 H 571.148 5.64156 -0.197128 0
M  V30 6256 N 570.547 0.616602 1.45037 0
M  V30 6257 C 571.794 0.115331 2.02171 0
M  V30 6258 C 572.122 -1.25748 1.48383 0
M  V30 6259 O 571.377 -1.84511 0.652229 0
M  V30 6260 C 571.676 0.0356829 3.57382 0
M  V30 6261 C 571.342 1.34535 4.30362 0
M  V30 6262 C 570.004 1.70408 4.50016 0
M  V30 6263 C 572.356 2.21049 4.72003 0
M  V30 6264 C 569.684 2.92529 5.0857 0
M  V30 6265 C 572.036 3.42427 5.31908 0
M  V30 6266 C 570.7 3.78541 5.49784 0
M  V30 6267 H 569.97 0.0422024 0.739797 0
M  V30 6268 H 572.617 0.80002 1.73988 0
M  V30 6269 H 570.922 -0.732314 3.84895 0
M  V30 6270 H 572.619 -0.368463 3.99304 0
M  V30 6271 H 569.209 1.05615 4.15383 0
M  V30 6272 H 573.393 1.94632 4.56544 0
M  V30 6273 H 568.649 3.20605 5.20598 0
M  V30 6274 H 572.823 4.09709 5.63127 0
M  V30 6275 H 570.45 4.73255 5.94923 0
M  V30 6276 N 572.025 -1.5352 0.356285 0
M  V30 6277 C 573.274 -2.00298 -0.237373 0
M  V30 6278 C 573.587 -1.24784 -1.50627 0
M  V30 6279 O 574.793 -1.62103 -2.17795 0
M  V30 6280 C 573.249 -3.56771 -0.473545 0
M  V30 6281 C 572.857 -4.41154 0.780183 0
M  V30 6282 C 574.601 -4.1193 -1.02537 0
M  V30 6283 C 572.508 -5.89161 0.514108 0
M  V30 6284 H 571.438 -0.748307 -0.092478 0
M  V30 6285 H 574.089 -1.77283 0.473588 0
M  V30 6286 H 572.471 -3.75902 -1.24553 0
M  V30 6287 H 573.645 -4.33797 1.55425 0
M  V30 6288 H 571.96 -3.97052 1.25455 0
M  V30 6289 H 574.557 -5.20133 -1.2396 0
M  V30 6290 H 574.9 -3.65943 -1.98473 0
M  V30 6291 H 575.433 -3.96561 -0.313775 0
M  V30 6292 H 572.172 -6.39408 1.44355 0
M  V30 6293 H 571.692 -5.9939 -0.221632 0
M  V30 6294 H 573.371 -6.46857 0.136122 0
M  V30 6295 N 573.503 -0.0852151 -1.57369 0
M  V30 6296 C 574.914 0.445428 -1.81309 0
M  V30 6297 C 575.265 1.68795 -1.00013 0
M  V30 6298 O 574.39 2.15211 -0.226573 0
M  V30 6299 C 574.985 0.814887 -3.28854 0
M  V30 6300 C 573.544 1.29032 -3.53592 0
M  V30 6301 C 572.691 0.282089 -2.75861 0
M  V30 6302 H 575.642 -0.310771 -1.55627 0
M  V30 6303 H 575.663 1.67524 -3.41637 0
M  V30 6304 H 575.175 -0.0896309 -3.87996 0
M  V30 6305 H 573.276 2.21289 -2.9977 0
M  V30 6306 H 573.389 1.25898 -4.62262 0
M  V30 6307 H 571.753 0.762182 -2.43029 0
M  V30 6308 H 572.536 -0.614936 -3.37748 0
M  V30 6309 N 574.981 1.5647 0.188427 0
M  V30 6310 C 575.928 1.95073 1.23349 0
M  V30 6311 C 576.898 0.812238 1.44886 0
M  V30 6312 O 578.083 1.07095 1.57909 0
M  V30 6313 C 575.223 2.30124 2.57171 0
M  V30 6314 C 574.336 3.57069 2.43157 0
M  V30 6315 C 573.471 3.81411 3.69729 0
M  V30 6316 C 572.51 5.0176 3.50575 0
M  V30 6317 N 571.647 5.22321 4.69175 0
M  V30 6318 H 576.487 2.84171 0.89728 0
M  V30 6319 H 574.024 1.40623 0.431683 0
M  V30 6320 H 575.982 2.48463 3.35145 0
M  V30 6321 H 574.612 1.44159 2.88822 0
M  V30 6322 H 573.664 3.4674 1.56447 0
M  V30 6323 H 574.976 4.452 2.24942 0
M  V30 6324 H 574.13 4.00026 4.56141 0
M  V30 6325 H 572.869 2.91624 3.90905 0
M  V30 6326 H 571.874 4.83061 2.62549 0
M  V30 6327 H 573.099 5.93063 3.30837 0
M  V30 6328 H 571.045 4.35483 4.90602 0
M  V30 6329 H 570.962 6.04643 4.53809 0
M  V30 6330 H 572.23 5.45401 5.56919 0
M  V30 6331 N 576.459 -0.456382 1.50847 0
M  V30 6332 C 577.707 -1.20497 1.62249 0
M  V30 6333 C 578.028 -1.92156 0.331839 0
M  V30 6334 O 577.298 -1.84751 -0.651443 0
M  V30 6335 H 575.878 -0.447775 0.597918 0
M  V30 6336 H 578.54 -0.525099 1.87693 0
M  V30 6337 H 577.636 -1.94492 2.44089 0
M  V30 6338 N 577.937 -1.40673 -0.710563 0
M  V30 6339 C 579.183 -1.39428 -1.47267 0
M  V30 6340 C 579.516 0.00182129 -1.942 0
M  V30 6341 O 578.791 0.971387 -1.68506 0
M  V30 6342 C 579.074 -2.38812 -2.6952 0
M  V30 6343 C 578.927 -3.87467 -2.28449 0
M  V30 6344 C 580.246 -2.3566 -3.71689 0
M  V30 6345 H 577.365 -0.507768 -0.534173 0
M  V30 6346 H 580.007 -1.71843 -0.810547 0
M  V30 6347 H 578.157 -2.113 -3.26013 0
M  V30 6348 H 579.829 -4.25825 -1.77399 0
M  V30 6349 H 578.072 -4.03058 -1.60395 0
M  V30 6350 H 578.743 -4.5253 -3.16103 0
M  V30 6351 H 581.219 -2.6004 -3.24836 0
M  V30 6352 H 580.095 -3.07237 -4.54859 0
M  V30 6353 H 580.356 -1.36996 -4.20339 0
M  V30 6354 N 579.415 0.9433 -1.26252 0
M  V30 6355 C 580.661 1.69175 -1.11837 0
M  V30 6356 C 580.994 1.91238 0.337891 0
M  V30 6357 O 580.269 1.49152 1.24836 0
M  V30 6358 C 580.552 3.06783 -1.88563 0
M  V30 6359 C 580.405 2.9206 -3.42083 0
M  V30 6360 C 581.724 4.06865 -1.67776 0
M  V30 6361 H 578.843 0.61399 -0.407658 0
M  V30 6362 H 581.485 1.09572 -1.55222 0
M  V30 6363 H 579.635 3.57663 -1.51689 0
M  V30 6364 H 581.307 2.48419 -3.88698 0
M  V30 6365 H 579.55 2.27731 -3.69217 0
M  V30 6366 H 580.221 3.89651 -3.90994 0
M  V30 6367 H 582.697 3.64939 -1.99897 0
M  V30 6368 H 581.573 5.01168 -2.23879 0
M  V30 6369 H 581.834 4.37705 -0.621816 0
M  V30 6370 N 580.893 1.08022 1.14757 0
M  V30 6371 C 582.139 0.808705 1.85978 0
M  V30 6372 C 582.472 -0.663764 1.82504 0
M  V30 6373 O 581.747 -1.48765 1.25296 0
M  V30 6374 C 582.03 1.32623 3.34788 0
M  V30 6375 C 581.883 2.86375 3.46856 0
M  V30 6376 C 583.202 0.948291 4.29762 0
M  V30 6377 H 580.321 0.295244 0.675278 0
M  V30 6378 H 582.963 1.33917 1.34783 0
M  V30 6379 H 581.113 0.875002 3.78518 0
M  V30 6380 H 582.785 3.39839 3.11941 0
M  V30 6381 H 581.028 3.24232 2.88194 0
M  V30 6382 H 581.699 3.17658 4.51439 0
M  V30 6383 H 584.175 1.33722 3.94028 0
M  V30 6384 H 583.051 1.33765 5.32352 0
M  V30 6385 H 583.312 -0.145094 4.41862 0
M  V30 6386 N 582.371 -1.3172 0.865308 0
M  V30 6387 C 583.304 -2.26687 0.262376 0
M  V30 6388 C 584.282 -1.50894 -0.605787 0
M  V30 6389 O 585.466 -1.79982 -0.56024 0
M  V30 6390 C 582.593 -3.3281 -0.628915 0
M  V30 6391 C 581.639 -4.26172 0.167278 0
M  V30 6392 S 582.472 -5.12797 1.54272 0
M  V30 6393 C 583.628 -6.22438 0.657427 0
M  V30 6394 H 583.861 -2.77478 1.0674 0
M  V30 6395 H 581.394 -1.39414 0.663555 0
M  V30 6396 H 583.352 -3.94426 -1.13747 0
M  V30 6397 H 582.013 -2.80782 -1.40785 0
M  V30 6398 H 581.206 -5.01392 -0.51203 0
M  V30 6399 H 580.808 -3.69029 0.607777 0
M  V30 6400 H 583.1 -6.77368 -0.133925 0
M  V30 6401 H 584.043 -6.9451 1.38061 0
M  V30 6402 H 584.451 -5.64043 0.227044 0
M  V30 6403 N 583.85 -0.624285 -1.44708 0
M  V30 6404 C 585.099 -0.123539 -2.01321 0
M  V30 6405 C 585.412 1.25966 -1.49639 0
M  V30 6406 O 586.618 1.85405 -1.98336 0
M  V30 6407 C 585.074 -0.170124 -3.59498 0
M  V30 6408 C 584.682 -1.55421 -4.20176 0
M  V30 6409 C 586.426 0.274513 -4.23611 0
M  V30 6410 C 584.332 -1.55628 -5.70556 0
M  V30 6411 H 583.263 -0.0424183 -0.752806 0
M  V30 6412 H 585.913 -0.782076 -1.65999 0
M  V30 6413 H 584.296 0.555385 -3.92086 0
M  V30 6414 H 585.47 -2.30276 -3.99136 0
M  V30 6415 H 583.784 -1.94235 -3.68323 0
M  V30 6416 H 586.382 0.292402 -5.339 0
M  V30 6417 H 586.725 1.3005 -3.95465 0
M  V30 6418 H 587.258 -0.398275 -3.95801 0
M  V30 6419 H 583.997 -2.56041 -6.03426 0
M  V30 6420 H 583.517 -0.850563 -5.93739 0
M  V30 6421 H 585.196 -1.28721 -6.34066 0
M  V30 6422 N 585.328 1.53329 -0.364422 0
M  V30 6423 C 586.739 1.86345 0.115039 0
M  V30 6424 C 587.09 1.28505 1.4826 0
M  V30 6425 O 586.215 0.606639 2.07723 0
M  V30 6426 C 586.81 3.38114 0.215522 0
M  V30 6427 C 585.369 3.70932 0.639237 0
M  V30 6428 C 584.516 2.76471 -0.214261 0
M  V30 6429 H 587.467 1.47593 -0.583258 0
M  V30 6430 H 587.488 3.66031 1.0393 0
M  V30 6431 H 587 3.80182 -0.779948 0
M  V30 6432 H 585.101 3.3442 1.64298 0
M  V30 6433 H 585.214 4.77302 0.41465 0
M  V30 6434 H 583.578 2.52724 0.316678 0
M  V30 6435 H 584.361 3.21373 -1.20725 0
M  V30 6436 N 586.806 0.0935595 1.57322 0
M  V30 6437 C 588.031 -0.582324 1.99057 0
M  V30 6438 C 588.456 -1.61025 0.972242 0
M  V30 6439 O 587.814 -1.81202 -0.0594622 0
M  V30 6440 C 587.862 -1.20799 3.39765 0
M  V30 6441 O 586.966 -2.32382 3.40694 0
M  V30 6442 H 586.307 -0.147884 0.647323 0
M  V30 6443 H 588.837 0.174516 2.03854 0
M  V30 6444 H 588.847 -1.54966 3.77425 0
M  V30 6445 H 587.522 -0.454914 4.13405 0
M  V30 6446 H 586.099 -1.99845 3.14827 0
M  V30 6447 N 588.284 -1.56567 -0.180126 0
M  V30 6448 C 589.514 -1.85349 -0.912647 0
M  V30 6449 C 589.922 -0.675795 -1.76719 0
M  V30 6450 O 589.265 0.3645 -1.80047 0
M  V30 6451 C 589.327 -3.08431 -1.84691 0
M  V30 6452 C 588.991 -4.41694 -1.17284 0
M  V30 6453 C 589.988 -5.17062 -0.542532 0
M  V30 6454 C 587.673 -4.8843 -1.17223 0
M  V30 6455 C 589.667 -6.37351 0.0793953 0
M  V30 6456 C 587.354 -6.08652 -0.54647 0
M  V30 6457 C 588.352 -6.82955 0.0782458 0
M  V30 6458 O 588.04 -8.00897 0.694158 0
M  V30 6459 H 587.772 -0.619286 -0.271036 0
M  V30 6460 H 590.326 -2.0454 -0.187768 0
M  V30 6461 H 588.556 -2.85163 -2.61188 0
M  V30 6462 H 590.245 -3.23733 -2.44851 0
M  V30 6463 H 591.011 -4.8204 -0.535045 0
M  V30 6464 H 586.89 -4.30542 -1.64788 0
M  V30 6465 H 590.434 -6.95287 0.567612 0
M  V30 6466 H 586.331 -6.4314 -0.55151 0
M  V30 6467 H 587.099 -8.16352 0.592537 0
M  V30 6468 N 589.762 0.448376 -1.51087 0
M  V30 6469 C 590.725 1.52588 -1.71025 0
M  V30 6470 C 591.725 1.49958 -0.580442 0
M  V30 6471 O 592.915 1.52176 -0.847833 0
M  V30 6472 C 590.047 2.92163 -1.75652 0
M  V30 6473 H 591.24 1.36218 -2.67179 0
M  V30 6474 H 588.793 0.676313 -1.4091 0
M  V30 6475 H 589.528 3.13951 -0.812724 0
M  V30 6476 H 589.313 2.95478 -2.57751 0
M  V30 6477 H 590.803 3.70349 -1.92953 0
M  V30 6478 N 591.24 1.41047 0.703093 0
M  V30 6479 C 592.17 1.45067 1.82969 0
M  V30 6480 C 593.151 0.31016 1.67248 0
M  V30 6481 O 594.336 0.520548 1.87093 0
M  V30 6482 C 591.466 1.32478 3.2104 0
M  V30 6483 C 590.42 2.44262 3.51454 0
M  V30 6484 C 589.746 2.16742 4.88801 0
M  V30 6485 C 591.046 3.86606 3.51189 0
M  V30 6486 H 592.74 2.39353 1.79863 0
M  V30 6487 H 590.286 1.15206 0.863919 0
M  V30 6488 H 592.239 1.33904 3.99559 0
M  V30 6489 H 590.963 0.346735 3.24754 0
M  V30 6490 H 589.622 2.42107 2.75282 0
M  V30 6491 H 589.27 1.17299 4.89132 0
M  V30 6492 H 588.97 2.91643 5.10116 0
M  V30 6493 H 590.494 2.19872 5.69639 0
M  V30 6494 H 591.908 3.90517 4.19725 0
M  V30 6495 H 590.305 4.61128 3.84033 0
M  V30 6496 H 591.375 4.15296 2.50315 0
M  V30 6497 N 592.718 -0.936591 1.26751 0
M  V30 6498 C 593.668 -2.0219 1.05371 0
M  V30 6499 C 594.652 -1.60893 -0.0154112 0
M  V30 6500 O 595.844 -1.75843 0.202085 0
M  V30 6501 C 592.973 -3.36222 0.693541 0
M  V30 6502 C 592.059 -3.8399 1.80035 0
M  V30 6503 N 592.45 -4.0436 3.03852 0
M  V30 6504 C 590.748 -4.12945 1.685 0
M  V30 6505 C 591.449 -4.44 3.75818 0
M  V30 6506 N 590.425 -4.50966 3.03531 0
M  V30 6507 H 594.227 -2.15958 1.99347 0
M  V30 6508 H 591.741 -1.12277 1.17335 0
M  V30 6509 H 593.738 -4.13625 0.521513 0
M  V30 6510 H 592.398 -3.23821 -0.238693 0
M  V30 6511 H 593.409 -3.9092 3.39709 0
M  V30 6512 H 590.086 -4.09308 0.822986 0
M  V30 6513 H 591.476 -4.67914 4.82189 0
M  V30 6514 N 594.196 -1.08629 -1.14182 0
M  V30 6515 C 595.612 -0.814363 -1.3726 0
M  V30 6516 C 595.812 0.575271 -1.93114 0
M  V30 6517 O 594.868 1.33165 -2.1453 0
M  V30 6518 C 596.181 -1.8989 -2.33157 0
M  V30 6519 C 597.729 -1.92518 -2.46791 0
M  V30 6520 C 598.204 -3.00092 -3.45989 0
M  V30 6521 N 599.695 -2.99279 -3.53534 0
M  V30 6522 C 600.43 -3.79158 -4.30147 0
M  V30 6523 N 599.926 -4.68923 -5.09983 0
M  V30 6524 N 601.719 -3.67451 -4.25366 0
M  V30 6525 H 593.87 -1.98232 -0.762758 0
M  V30 6526 H 596.133 -0.860383 -0.398051 0
M  V30 6527 H 595.839 -2.89809 -1.99257 0
M  V30 6528 H 595.713 -1.77013 -3.33086 0
M  V30 6529 H 598.1 -0.932425 -2.79982 0
M  V30 6530 H 598.181 -2.09473 -1.46816 0
M  V30 6531 H 597.825 -3.99575 -3.13532 0
M  V30 6532 H 597.755 -2.80382 -4.45751 0
M  V30 6533 H 600.246 -2.3422 -2.96563 0
M  V30 6534 H 600.559 -5.26475 -5.65724 0
M  V30 6535 H 598.904 -4.72964 -5.09244 0
M  V30 6536 H 602.095 -2.9669 -3.62067 0
M  V30 6537 H 602.268 -4.29944 -4.84822 0
M  V30 6538 N 595.674 1.31259 -0.872281 0
M  V30 6539 C 596.951 1.91362 -0.404943 0
M  V30 6540 C 597.331 1.79362 1.11321 0
M  V30 6541 O 596.679 1.20277 1.94283 0
M  V30 6542 C 596.889 3.3749 -0.888893 0
M  V30 6543 C 598.237 4.14593 -0.916384 0
M  V30 6544 O 599.261 3.46282 -0.834701 0
M  V30 6545 O 598.12 5.3661 -1.03498 0
M  V30 6546 H 595.214 0.818016 -0.121569 0
M  V30 6547 H 597.76 1.39912 -0.960346 0
M  V30 6548 H 596.532 3.40249 -1.93251 0
M  V30 6549 H 596.155 3.96375 -0.311932 0
M  V30 6550 N 597.152 0.631951 1.44375 0
M  V30 6551 C 598.563 0.219036 1.85411 0
M  V30 6552 C 598.914 -1.22974 1.52879 0
M  V30 6553 O 598.039 -1.93579 0.967266 0
M  V30 6554 C 598.634 0.39075 3.36539 0
M  V30 6555 C 597.193 0.0323351 3.76386 0
M  V30 6556 C 596.34 0.703744 2.68221 0
M  V30 6557 H 599.291 0.837056 1.3483 0
M  V30 6558 H 599.312 -0.370056 3.78696 0
M  V30 6559 H 598.824 1.44527 3.60185 0
M  V30 6560 H 596.925 -1.02042 3.58355 0
M  V30 6561 H 597.038 0.442969 4.77048 0
M  V30 6562 H 595.402 0.138974 2.54321 0
M  V30 6563 H 596.185 1.76088 2.947 0
M  V30 6564 N 598.631 -1.53133 0.372548 0
M  V30 6565 C 599.578 -2.25951 -0.470631 0
M  V30 6566 C 600.548 -1.26895 -1.07176 0
M  V30 6567 O 601.733 -1.55691 -1.10294 0
M  V30 6568 C 598.873 -3.05726 -1.6008 0
M  V30 6569 C 597.986 -4.19684 -1.02416 0
M  V30 6570 C 597.121 -4.86888 -2.124 0
M  V30 6571 C 596.16 -5.92866 -1.52238 0
M  V30 6572 N 595.297 -6.53732 -2.56084 0
M  V30 6573 H 600.137 -2.97587 0.156816 0
M  V30 6574 H 597.674 -1.4683 0.0891571 0
M  V30 6575 H 599.632 -3.50258 -2.26661 0
M  V30 6576 H 598.262 -2.36331 -2.1988 0
M  V30 6577 H 597.314 -3.79588 -0.248426 0
M  V30 6578 H 598.626 -4.95821 -0.544366 0
M  V30 6579 H 597.78 -5.34638 -2.86787 0
M  V30 6580 H 596.519 -4.10239 -2.63734 0
M  V30 6581 H 595.524 -5.4447 -0.763685 0
M  V30 6582 H 596.749 -6.71439 -1.0172 0
M  V30 6583 H 594.695 -5.79932 -3.06618 0
M  V30 6584 H 594.612 -7.25429 -2.12811 0
M  V30 6585 H 595.88 -7.0613 -3.30152 0
M  V30 6586 N 600.109 -0.101901 -1.5727 0
M  V30 6587 C 601.339 0.567568 -1.98651 0
M  V30 6588 C 601.747 1.61839 -0.980037 0
M  V30 6589 O 601.09 1.83661 0.0376564 0
M  V30 6590 C 601.152 1.26742 -3.36417 0
M  V30 6591 C 600.816 0.366561 -4.55528 0
M  V30 6592 C 601.813 -0.388022 -5.1845 0
M  V30 6593 C 599.498 0.282629 -5.01504 0
M  V30 6594 C 601.492 -1.21445 -6.25724 0
M  V30 6595 C 599.179 -0.547443 -6.08643 0
M  V30 6596 C 600.177 -1.29462 -6.70618 0
M  V30 6597 O 599.865 -2.11095 -7.7569 0
M  V30 6598 H 599.597 0.156282 -0.657687 0
M  V30 6599 H 602.151 -0.179912 -2.04611 0
M  V30 6600 H 600.381 2.06162 -3.27161 0
M  V30 6601 H 602.07 1.8321 -3.622 0
M  V30 6602 H 602.836 -0.332949 -4.83856 0
M  V30 6603 H 598.715 0.853868 -4.53023 0
M  V30 6604 H 602.259 -1.79814 -6.74027 0
M  V30 6605 H 598.156 -0.603971 -6.42668 0
M  V30 6606 H 598.924 -2.03851 -7.92709 0
M  V30 6607 N 601.587 1.56661 0.17182 0
M  V30 6608 C 602.833 1.8313 0.88516 0
M  V30 6609 C 603.188 0.682376 1.79893 0
M  V30 6610 O 602.481 -0.321215 1.88888 0
M  V30 6611 C 602.675 3.13435 1.71736 0
M  V30 6612 C 602.504 4.40892 0.885659 0
M  V30 6613 C 601.274 5.02177 0.560939 0
M  V30 6614 C 603.472 5.13797 0.227454 0
M  V30 6615 N 601.454 6.13229 -0.286953 0
M  V30 6616 C 602.825 6.18127 -0.481625 0
M  V30 6617 C 604.88 4.97687 0.145567 0
M  V30 6618 C 603.583 7.08092 -1.26482 0
M  V30 6619 C 605.609 5.88096 -0.624298 0
M  V30 6620 C 604.971 6.91888 -1.32174 0
M  V30 6621 H 601.07 0.721107 0.302536 0
M  V30 6622 H 603.654 1.94104 0.152178 0
M  V30 6623 H 601.825 3.03653 2.42176 0
M  V30 6624 H 603.557 3.27903 2.37196 0
M  V30 6625 H 600.312 4.65145 0.890902 0
M  V30 6626 H 600.736 6.73359 -0.701193 0
M  V30 6627 H 605.378 4.17451 0.670426 0
M  V30 6628 H 603.096 7.87774 -1.80103 0
M  V30 6629 H 606.682 5.77702 -0.689321 0
M  V30 6630 H 605.562 7.60637 -1.90791 0
M  V30 6631 N 603.065 -0.440357 1.51323 0
M  V30 6632 C 604.293 -1.21255 1.67645 0
M  V30 6633 C 604.708 -1.85088 0.37252 0
M  V30 6634 O 604.065 -1.70582 -0.648683 0
M  V30 6635 C 604.116 -2.29881 2.78993 0
M  V30 6636 O 603.837 -1.68659 4.04334 0
M  V30 6637 C 605.338 -3.20214 3.06558 0
M  V30 6638 H 602.558 -0.36558 0.562666 0
M  V30 6639 H 605.102 -0.52214 1.97722 0
M  V30 6640 H 603.257 -2.94643 2.51524 0
M  V30 6641 H 603.671 -2.40426 4.6615 0
M  V30 6642 H 605.145 -3.92575 3.88058 0
M  V30 6643 H 605.622 -3.80794 2.18844 0
M  V30 6644 H 606.228 -2.61156 3.35675 0
M  V30 6645 N 604.543 -1.41418 -0.695603 0
M  V30 6646 C 605.453 -1.45622 -1.83933 0
M  V30 6647 C 606.469 -0.346825 -1.70508 0
M  V30 6648 O 607.645 -0.59454 -1.92424 0
M  V30 6649 C 604.71 -1.33627 -3.19914 0
M  V30 6650 C 603.771 -2.54882 -3.45447 0
M  V30 6651 C 603.004 -2.43449 -4.7494 0
M  V30 6652 O 603.227 -1.45905 -5.51424 0
M  V30 6653 O 602.161 -3.33206 -5.01256 0
M  V30 6654 H 605.987 -2.42114 -1.83342 0
M  V30 6655 H 603.572 -1.22956 -0.848658 0
M  V30 6656 H 605.454 -1.29221 -4.01098 0
M  V30 6657 H 604.129 -0.402508 -3.21188 0
M  V30 6658 H 603.036 -2.64865 -2.64192 0
M  V30 6659 H 604.369 -3.47087 -3.48987 0
M  V30 6660 N 606.021 0.929856 -1.27246 0
M  V30 6661 C 607.432 1.49223 -1.12203 0
M  V30 6662 C 607.783 1.93989 0.293731 0
M  V30 6663 O 606.908 1.80978 1.18642 0
M  V30 6664 C 607.503 2.71198 -2.0307 0
M  V30 6665 C 606.062 3.23666 -1.92139 0
M  V30 6666 C 605.209 1.96409 -1.95752 0
M  V30 6667 H 608.16 0.744181 -1.4017 0
M  V30 6668 H 608.181 3.45905 -1.58524 0
M  V30 6669 H 607.693 2.38585 -3.06102 0
M  V30 6670 H 605.794 3.61042 -0.920834 0
M  V30 6671 H 605.907 3.90006 -2.78267 0
M  V30 6672 H 604.271 2.12806 -1.39949 0
M  V30 6673 H 605.054 1.66113 -3.00436 0
M  V30 6674 N 607.499 1.09233 1.13605 0
M  V30 6675 C 608.409 0.741939 2.22559 0
M  V30 6676 C 609.425 -0.255236 1.72118 0
M  V30 6677 O 610.601 -0.0970747 2.01166 0
M  V30 6678 C 607.666 0.165595 3.46304 0
M  V30 6679 C 606.727 1.21846 4.11645 0
M  V30 6680 C 605.96 0.669526 5.29484 0
M  V30 6681 O 606.183 -0.508228 5.68131 0
M  V30 6682 O 605.117 1.42361 5.84822 0
M  V30 6683 H 608.943 1.65107 2.54899 0
M  V30 6684 H 606.528 0.866584 1.21699 0
M  V30 6685 H 608.41 -0.152592 4.21124 0
M  V30 6686 H 607.085 -0.716573 3.15669 0
M  V30 6687 H 605.992 1.58931 3.38662 0
M  V30 6688 H 607.325 2.07321 4.46407 0
M  V30 6689 N 608.977 -1.30795 0.87923 0
M  V30 6690 C 609.924 -2.28282 0.339968 0
M  V30 6691 C 610.894 -1.56134 -0.566685 0
M  V30 6692 O 612.079 -1.84231 -0.496338 0
M  V30 6693 C 609.219 -3.42225 -0.444501 0
M  V30 6694 C 608.332 -4.29204 0.490717 0
M  V30 6695 C 607.467 -5.30302 -0.308784 0
M  V30 6696 C 606.506 -6.08929 0.622272 0
M  V30 6697 N 605.643 -7.01957 -0.14155 0
M  V30 6698 H 610.483 -2.73794 1.17647 0
M  V30 6699 H 608.02 -1.34682 0.591527 0
M  V30 6700 H 609.978 -4.07038 -0.915186 0
M  V30 6701 H 608.608 -2.97799 -1.24562 0
M  V30 6702 H 607.66 -3.6475 1.07988 0
M  V30 6703 H 608.972 -4.84045 1.20425 0
M  V30 6704 H 608.126 -6.00835 -0.841575 0
M  V30 6705 H 606.865 -4.7614 -1.05556 0
M  V30 6706 H 605.87 -5.37278 1.16674 0
M  V30 6707 H 607.095 -6.65178 1.36804 0
M  V30 6708 H 605.041 -6.50192 -0.870966 0
M  V30 6709 H 604.958 -7.54261 0.51246 0
M  V30 6710 H 606.226 -7.76741 -0.655271 0
M  V30 6711 N 610.455 -0.639598 -1.44038 0
M  V30 6712 C 611.702 -0.14748 -2.01962 0
M  V30 6713 C 612.03 1.23372 -1.50365 0
M  V30 6714 O 611.285 1.8345 -0.681501 0
M  V30 6715 C 611.584 -0.0925348 -3.5728 0
M  V30 6716 C 611.25 -1.41365 -4.28167 0
M  V30 6717 C 609.912 -1.77545 -4.47248 0
M  V30 6718 C 612.264 -2.2853 -4.68427 0
M  V30 6719 C 609.592 -3.00583 -5.03852 0
M  V30 6720 C 611.944 -3.50846 -5.26393 0
M  V30 6721 C 610.608 -3.8724 -5.43692 0
M  V30 6722 H 609.878 -0.0539666 -0.739032 0
M  V30 6723 H 612.525 -0.827599 -1.72694 0
M  V30 6724 H 610.83 0.670987 -3.86012 0
M  V30 6725 H 612.527 0.304891 -3.99839 0
M  V30 6726 H 609.117 -1.1221 -4.13651 0
M  V30 6727 H 613.301 -2.0187 -4.5339 0
M  V30 6728 H 608.557 -3.28846 -5.15432 0
M  V30 6729 H 612.731 -4.18616 -5.56537 0
M  V30 6730 H 610.358 -4.8266 -5.87319 0
M  V30 6731 N 611.933 1.52934 -0.380664 0
M  V30 6732 C 612.863 2.29118 0.450268 0
M  V30 6733 C 613.844 1.32153 1.07096 0
M  V30 6734 O 615.029 1.61038 1.08537 0
M  V30 6735 C 612.159 3.09161 1.58231 0
M  V30 6736 C 611.113 4.13938 1.0881 0
M  V30 6737 C 610.439 4.82153 2.31155 0
M  V30 6738 C 611.739 5.22048 0.162146 0
M  V30 6739 H 613.433 2.98826 -0.185361 0
M  V30 6740 H 610.979 1.43715 -0.0905886 0
M  V30 6741 H 612.932 3.61211 2.17036 0
M  V30 6742 H 611.656 2.3717 2.2454 0
M  V30 6743 H 610.315 3.62855 0.522633 0
M  V30 6744 H 609.963 4.06719 2.95953 0
M  V30 6745 H 609.663 5.52966 1.98752 0
M  V30 6746 H 611.187 5.37004 2.90618 0
M  V30 6747 H 612.601 5.6951 0.658126 0
M  V30 6748 H 610.998 6.00057 -0.0717122 0
M  V30 6749 H 612.068 4.78398 -0.791438 0
M  V30 6750 N 613.412 0.11024 1.57214 0
M  V30 6751 C 614.823 -0.416527 1.81994 0
M  V30 6752 C 615.174 -1.67183 1.02686 0
M  V30 6753 O 614.299 -2.14823 0.260782 0
M  V30 6754 C 614.894 -0.762466 3.30109 0
M  V30 6755 C 613.453 -1.23391 3.556 0
M  V30 6756 C 612.6 -0.238166 2.76275 0
M  V30 6757 H 615.551 0.335491 1.55113 0
M  V30 6758 H 615.572 -1.62068 3.44259 0
M  V30 6759 H 615.084 0.151346 3.87805 0
M  V30 6760 H 613.185 -2.16492 3.03253 0
M  V30 6761 H 613.298 -1.18528 4.64207 0
M  V30 6762 H 611.662 -0.723421 2.4421 0
M  V30 6763 H 612.445 0.668591 3.36727 0
M  V30 6764 N 614.89 -1.56749 -0.16351 0
M  V30 6765 C 615.8 -2.00255 -1.2221 0
M  V30 6766 C 616.816 -0.915194 -1.47987 0
M  V30 6767 O 617.992 -1.22342 -1.59982 0
M  V30 6768 C 615.057 -2.36035 -2.53946 0
M  V30 6769 C 614.118 -3.58637 -2.35962 0
M  V30 6770 C 613.351 -3.92701 -3.61416 0
M  V30 6771 O 613.574 -3.27632 -4.66919 0
M  V30 6772 O 612.508 -4.86019 -3.55062 0
M  V30 6773 H 616.334 -2.90586 -0.882794 0
M  V30 6774 H 613.919 -1.44721 -0.370978 0
M  V30 6775 H 615.801 -2.59982 -3.31643 0
M  V30 6776 H 614.476 -1.48863 -2.8744 0
M  V30 6777 H 613.383 -3.39898 -1.5627 0
M  V30 6778 H 614.716 -4.46374 -2.0739 0
M  V30 6779 N 616.368 0.432326 -1.51554 0
M  V30 6780 C 617.784 0.769195 -1.39841 0
M  V30 6781 C 617.984 1.95584 -0.484675 0
M  V30 6782 O 617.04 2.52433 0.0582829 0
M  V30 6783 C 618.353 1.04487 -2.81963 0
M  V30 6784 C 619.901 1.149 -2.91148 0
M  V30 6785 C 620.376 1.45758 -4.34187 0
M  V30 6786 N 621.867 1.52671 -4.37317 0
M  V30 6787 C 622.602 1.78129 -5.4503 0
M  V30 6788 N 622.098 2.01345 -6.62897 0
M  V30 6789 N 623.891 1.79953 -5.32516 0
M  V30 6790 H 616.042 -0.349122 -2.09511 0
M  V30 6791 H 618.305 -0.0938113 -0.943347 0
M  V30 6792 H 618.011 0.24557 -3.50842 0
M  V30 6793 H 617.885 1.97119 -3.21596 0
M  V30 6794 H 620.272 1.93891 -2.22464 0
M  V30 6795 H 620.353 0.201568 -2.55005 0
M  V30 6796 H 619.997 0.672917 -5.03423 0
M  V30 6797 H 619.927 2.41715 -4.67848 0
M  V30 6798 H 622.418 1.36612 -3.52343 0
M  V30 6799 H 622.731 2.20155 -7.40778 0
M  V30 6800 H 621.076 1.98657 -6.66003 0
M  V30 6801 H 624.267 1.61337 -4.39418 0
M  V30 6802 H 624.44 1.99455 -6.1654 0
M  V30 6803 N 617.846 1.41785 0.688094 0
M  V30 6804 C 619.093 1.41544 1.44816 0
M  V30 6805 C 619.421 0.0271746 1.94481 0
M  V30 6806 O 618.676 -0.962235 1.7041 0
M  V30 6807 C 618.975 2.37532 2.67046 0
M  V30 6808 C 618.641 3.84209 2.35996 0
M  V30 6809 C 617.303 4.24165 2.27239 0
M  V30 6810 C 619.655 4.76785 2.10536 0
M  V30 6811 C 616.983 5.54695 1.91128 0
M  V30 6812 C 619.335 6.07644 1.75931 0
M  V30 6813 C 617.999 6.46613 1.65675 0
M  V30 6814 H 617.269 0.517945 0.529919 0
M  V30 6815 H 619.916 1.74635 0.785797 0
M  V30 6816 H 618.221 1.9772 3.38251 0
M  V30 6817 H 619.918 2.34615 3.25203 0
M  V30 6818 H 616.508 3.52567 2.4371 0
M  V30 6819 H 620.692 4.46714 2.16242 0
M  V30 6820 H 615.948 5.83762 1.81746 0
M  V30 6821 H 620.122 6.78874 1.55252 0
M  V30 6822 H 617.749 7.47668 1.37463 0
M  V30 6823 N 619.324 -0.923095 1.27737 0
M  V30 6824 C 620.549 -1.71054 1.17283 0
M  V30 6825 C 620.974 -1.86208 -0.266153 0
M  V30 6826 O 620.332 -1.36545 -1.1927 0
M  V30 6827 C 620.38 -3.0854 1.86642 0
M  V30 6828 O 619.484 -3.95528 1.16752 0
M  V30 6829 H 618.825 -0.524136 0.407649 0
M  V30 6830 H 621.355 -1.15487 1.6889 0
M  V30 6831 H 621.365 -3.58828 1.94182 0
M  V30 6832 H 620.04 -2.96828 2.91317 0
M  V30 6833 H 618.617 -3.53967 1.17312 0
M  V30 6834 N 620.802 -1.09834 -1.13024 0
M  V30 6835 C 621.749 -0.741522 -2.18564 0
M  V30 6836 C 622.719 0.279236 -1.63736 0
M  V30 6837 O 623.904 0.159923 -1.90129 0
M  V30 6838 C 621.044 -0.17277 -3.44667 0
M  V30 6839 C 620.157 -1.24808 -4.13578 0
M  V30 6840 C 619.292 -0.641631 -5.27311 0
M  V30 6841 C 618.331 -1.69795 -5.88078 0
M  V30 6842 N 617.468 -1.11223 -6.93234 0
M  V30 6843 H 622.308 -1.64576 -2.48432 0
M  V30 6844 H 619.845 -0.822174 -1.21978 0
M  V30 6845 H 621.803 0.17482 -4.16834 0
M  V30 6846 H 620.433 0.694725 -3.15235 0
M  V30 6847 H 619.485 -1.71288 -3.39653 0
M  V30 6848 H 620.797 -2.04795 -4.54819 0
M  V30 6849 H 619.951 -0.243128 -6.06213 0
M  V30 6850 H 618.69 0.189742 -4.87331 0
M  V30 6851 H 617.695 -2.10595 -5.07868 0
M  V30 6852 H 618.92 -2.53206 -6.3013 0
M  V30 6853 H 616.866 -0.302208 -6.55304 0
M  V30 6854 H 616.783 -1.84901 -7.3304 0
M  V30 6855 H 618.051 -0.740068 -7.75979 0
M  V30 6856 N 622.28 1.30327 -0.886154 0
M  V30 6857 C 623.227 2.28099 -0.352069 0
M  V30 6858 C 624.197 1.56433 0.558397 0
M  V30 6859 O 625.382 1.84492 0.486561 0
M  V30 6860 C 622.522 3.42456 0.426346 0
M  V30 6861 C 621.635 4.28938 -0.513472 0
M  V30 6862 C 620.77 5.30458 0.280657 0
M  V30 6863 C 619.809 6.0859 -0.654556 0
M  V30 6864 N 618.946 7.02022 0.104322 0
M  V30 6865 H 623.786 2.73166 -1.19097 0
M  V30 6866 H 621.323 1.34367 -0.598662 0
M  V30 6867 H 623.281 4.07518 0.893587 0
M  V30 6868 H 621.911 2.98455 1.22981 0
M  V30 6869 H 620.963 3.64173 -1.09921 0
M  V30 6870 H 622.275 4.83399 -1.2299 0
M  V30 6871 H 621.429 6.01273 0.8097 0
M  V30 6872 H 620.168 4.76693 1.03029 0
M  V30 6873 H 619.173 5.36651 -1.19522 0
M  V30 6874 H 620.398 6.64443 -1.4033 0
M  V30 6875 H 618.344 6.50645 0.836472 0
M  V30 6876 H 618.261 7.53979 -0.552453 0
M  V30 6877 H 619.529 7.77077 0.614069 0
M  V30 6878 N 623.758 0.647228 1.43697 0
M  V30 6879 C 624.706 -0.0600105 2.32523 0
M  V30 6880 C 625.7 -0.819277 1.48271 0
M  V30 6881 O 626.906 -0.730356 1.64517 0
M  V30 6882 H 623.281 -0.0381872 0.75103 0
M  V30 6883 H 625.252 0.706978 2.89904 0
M  V30 6884 C 624.001 -1.0169 3.32497 0
M  V30 6885 H 623.324 -0.442083 3.97348 0
M  V30 6886 H 624.764 -1.48095 3.97296 0
M  V30 6887 C 623.223 -2.11002 2.6264 0
M  V30 6888 O 623.753 -3.19302 2.4374 0
M  V30 6889 N 621.959 -1.87388 2.22113 0
M  V30 6890 H 621.506 -0.993174 2.37684 0
M  V30 6891 H 621.464 -2.60723 1.75701 0
M  V30 6892 N 625.236 -1.5273 0.388769 0
M  V30 6893 C 626.183 -2.26437 -0.446639 0
M  V30 6894 C 627.153 -1.28025 -1.05824 0
M  V30 6895 O 628.338 -1.56852 -1.08637 0
M  V30 6896 C 625.478 -3.07407 -1.56828 0
M  V30 6897 C 624.591 -4.20747 -0.979589 0
M  V30 6898 C 623.726 -4.89113 -2.07224 0
M  V30 6899 C 622.765 -5.94447 -1.45942 0
M  V30 6900 N 621.902 -6.56411 -2.49135 0
M  V30 6901 H 626.742 -2.97404 0.18837 0
M  V30 6902 H 624.279 -1.46727 0.104725 0
M  V30 6903 H 626.237 -3.52642 -2.22934 0
M  V30 6904 H 624.867 -2.3865 -2.17361 0
M  V30 6905 H 623.919 -3.7983 -0.208151 0
M  V30 6906 H 625.231 -4.9637 -0.491747 0
M  V30 6907 H 624.385 -5.3765 -2.81101 0
M  V30 6908 H 623.124 -4.13013 -2.59368 0
M  V30 6909 H 622.129 -5.4525 -0.705894 0
M  V30 6910 H 623.354 -6.7248 -0.945932 0
M  V30 6911 H 621.3 -5.83152 -3.00449 0
M  V30 6912 H 621.217 -7.27645 -2.05105 0
M  V30 6913 H 622.485 -7.09592 -3.22644 0
M  V30 6914 N 626.714 -0.118576 -1.57153 0
M  V30 6915 C 627.991 0.583062 -1.86708 0
M  V30 6916 C 628.371 1.84841 -1.01967 0
M  V30 6917 O 627.719 2.28288 -0.0984673 0
M  V30 6918 C 627.929 0.875912 -3.3783 0
M  V30 6919 C 629.277 1.22916 -4.0642 0
M  V30 6920 O 630.301 0.966188 -3.42846 0
M  V30 6921 O 629.16 1.72269 -5.18638 0
M  V30 6922 H 626.254 0.294185 -0.772906 0
M  V30 6923 H 628.8 -0.153048 -1.69008 0
M  V30 6924 H 627.572 -0.0207776 -3.91294 0
M  V30 6925 H 627.195 1.66719 -3.60958 0
M  V30 6926 N 628.193 1.56834 0.155195 0
M  V30 6927 C 629.141 1.98584 1.21107 0
M  V30 6928 C 630.135 0.876987 1.44932 0
M  V30 6929 O 631.341 1.06215 1.45322 0
M  V30 6930 H 627.716 0.632039 0.407469 0
M  V30 6931 H 629.687 2.86561 0.832195 0
M  V30 6932 C 628.436 2.37555 2.53895 0
M  V30 6933 H 627.759 3.22428 2.3639 0
M  V30 6934 H 629.199 2.70598 3.26424 0
M  V30 6935 C 627.658 1.22507 3.13837 0
M  V30 6936 O 628.188 0.521388 3.98302 0
M  V30 6937 N 626.394 0.991444 2.73164 0
M  V30 6938 H 625.941 1.56544 2.04577 0
M  V30 6939 H 625.899 0.223546 3.13604 0
M  V30 6940 N 629.671 -0.424282 1.51781 0
M  V30 6941 C 630.92 -1.16961 1.64326 0
M  V30 6942 C 631.233 -1.92035 0.371749 0
M  V30 6943 O 632.439 -2.68873 0.37676 0
M  V30 6944 C 630.895 -2.12782 2.90262 0
M  V30 6945 C 630.503 -1.43295 4.24465 0
M  V30 6946 C 632.247 -2.87667 3.12166 0
M  V30 6947 C 630.154 -2.37676 5.41538 0
M  V30 6948 H 629.084 -0.440293 0.612093 0
M  V30 6949 H 631.735 -0.435431 1.78259 0
M  V30 6950 H 630.117 -2.8969 2.69992 0
M  V30 6951 H 631.291 -0.718564 4.55163 0
M  V30 6952 H 629.606 -0.805118 4.08542 0
M  V30 6953 H 632.203 -3.58395 3.96808 0
M  V30 6954 H 632.546 -3.49758 2.25776 0
M  V30 6955 H 633.079 -2.17863 3.32837 0
M  V30 6956 H 629.818 -1.80255 6.30229 0
M  V30 6957 H 629.338 -3.07132 5.15199 0
M  V30 6958 H 631.017 -2.98529 5.74012 0
M  V30 6959 N 631.149 -1.42148 -0.680565 0
M  V30 6960 C 632.426 -1.32795 -1.43614 0
M  V30 6961 C 632.806 0.037415 -2.11067 0
M  V30 6962 O 632.154 1.05258 -2.02813 0
M  V30 6963 C 632.364 -2.49206 -2.44331 0
M  V30 6964 C 633.712 -2.91059 -3.09144 0
M  V30 6965 O 634.736 -2.49054 -2.54657 0
M  V30 6966 O 633.595 -3.63741 -4.07866 0
M  V30 6967 H 630.689 -0.523397 -0.640301 0
M  V30 6968 H 633.235 -1.54144 -0.709775 0
M  V30 6969 H 632.007 -3.40252 -1.93247 0
M  V30 6970 H 631.63 -2.29813 -3.24456 0
M  V30 6971 N 632.627 0.916307 -1.28225 0
M  V30 6972 C 634.038 1.48024 -1.13779 0
M  V30 6973 C 634.389 1.94289 0.273139 0
M  V30 6974 O 633.514 1.82226 1.16716 0
M  V30 6975 C 634.109 2.69029 -2.05935 0
M  V30 6976 C 632.668 3.2161 -1.95561 0
M  V30 6977 C 631.815 1.94321 -1.97825 0
M  V30 6978 H 634.766 0.729272 -1.40951 0
M  V30 6979 H 634.787 3.44204 -1.62184 0
M  V30 6980 H 634.299 2.35325 -3.08616 0
M  V30 6981 H 632.4 3.60045 -0.959076 0
M  V30 6982 H 632.513 3.87032 -2.82388 0
M  V30 6983 H 630.877 2.1131 -1.42198 0
M  V30 6984 H 631.66 1.62917 -3.0218 0
M  V30 6985 N 634.105 1.10431 1.1244 0
M  V30 6986 C 635.335 0.867612 1.87499 0
M  V30 6987 C 635.743 -0.585475 1.79913 0
M  V30 6988 O 635.086 -1.41539 1.171 0
M  V30 6989 C 635.148 1.2374 3.37533 0
M  V30 6990 C 634.812 2.69751 3.68895 0
M  V30 6991 C 635.809 3.67988 3.67261 0
M  V30 6992 C 633.494 3.06135 3.98229 0
M  V30 6993 C 635.488 5.00632 3.9452 0
M  V30 6994 C 633.175 4.38967 4.25149 0
M  V30 6995 C 634.173 5.36025 4.23281 0
M  V30 6996 O 633.861 6.66465 4.49533 0
M  V30 6997 H 633.593 0.311196 0.600111 0
M  V30 6998 H 636.147 1.47257 1.43194 0
M  V30 6999 H 634.377 0.575537 3.82393 0
M  V30 7000 H 636.066 0.978187 3.93937 0
M  V30 7001 H 636.832 3.41224 3.44661 0
M  V30 7002 H 632.711 2.31214 3.98825 0
M  V30 7003 H 636.255 5.7638 3.92978 0
M  V30 7004 H 632.152 4.6547 4.47223 0
M  V30 7005 H 632.92 6.72095 4.67152 0
M  V30 7006 N 635.583 -1.29855 0.893053 0
M  V30 7007 C 636.832 -1.95104 0.511597 0
M  V30 7008 C 637.145 -1.71226 -0.945567 0
M  V30 7009 O 638.351 -2.30525 -1.43424 0
M  V30 7010 C 636.807 -3.49374 0.864034 0
M  V30 7011 C 636.415 -3.82061 2.33952 0
M  V30 7012 C 638.159 -4.20894 0.552167 0
M  V30 7013 C 636.066 -5.29546 2.63316 0
M  V30 7014 H 634.996 -0.73029 0.187597 0
M  V30 7015 H 637.647 -1.47682 1.08914 0
M  V30 7016 H 636.029 -3.95413 0.215493 0
M  V30 7017 H 637.203 -3.46904 3.03305 0
M  V30 7018 H 635.518 -3.23665 2.61973 0
M  V30 7019 H 638.115 -5.29435 0.748489 0
M  V30 7020 H 638.458 -4.13178 -0.508924 0
M  V30 7021 H 638.991 -3.80564 1.15825 0
M  V30 7022 H 635.73 -5.4232 3.68197 0
M  V30 7023 H 635.25 -5.65974 1.9858 0
M  V30 7024 H 636.929 -5.97068 2.49236 0
M  V30 7025 N 637.061 -0.65484 -1.43351 0
M  V30 7026 C 638.291 -0.176429 -2.05845 0
M  V30 7027 C 638.699 1.16375 -1.49176 0
M  V30 7028 O 638.042 1.72981 -0.618322 0
M  V30 7029 C 638.104 -0.0125844 -3.59498 0
M  V30 7030 C 637.768 -1.27831 -4.38758 0
M  V30 7031 C 638.765 -2.2074 -4.70712 0
M  V30 7032 C 636.45 -1.52035 -4.78739 0
M  V30 7033 C 638.444 -3.36145 -5.41558 0
M  V30 7034 C 636.131 -2.67732 -5.49329 0
M  V30 7035 C 637.129 -3.59612 -5.80662 0
M  V30 7036 O 636.817 -4.73289 -6.4981 0
M  V30 7037 H 636.549 -0.0879682 -0.670252 0
M  V30 7038 H 639.103 -0.896193 -1.84818 0
M  V30 7039 H 637.333 0.762567 -3.79107 0
M  V30 7040 H 639.022 0.423392 -4.03686 0
M  V30 7041 H 639.788 -2.03284 -4.40341 0
M  V30 7042 H 635.667 -0.813987 -4.53757 0
M  V30 7043 H 639.211 -4.07881 -5.65932 0
M  V30 7044 H 635.108 -2.85122 -5.79116 0
M  V30 7045 H 635.876 -4.72575 -6.68293 0
M  V30 7046 N 638.539 1.52521 -0.396863 0
M  V30 7047 C 639.767 2.06091 0.18275 0
M  V30 7048 C 640.182 1.26796 1.39886 0
M  V30 7049 O 639.539 0.316585 1.79733 0
M  V30 7050 C 639.59 3.57362 0.545377 0
M  V30 7051 O 639.311 4.33656 -0.622428 0
M  V30 7052 C 640.812 4.27305 1.18004 0
M  V30 7053 H 638.032 0.670504 0.025789 0
M  V30 7054 H 640.576 1.96561 -0.564276 0
M  V30 7055 H 638.731 3.66941 1.2423 0
M  V30 7056 H 639.145 5.23507 -0.322662 0
M  V30 7057 H 640.619 5.34366 1.38408 0
M  V30 7058 H 641.096 3.83 2.1496 0
M  V30 7059 H 641.702 4.22064 0.523671 0
M  V30 7060 N 640.017 0.126909 1.57088 0
M  V30 7061 C 641.428 -0.397201 1.82426 0
M  V30 7062 C 641.779 -1.66084 1.04453 0
M  V30 7063 O 640.904 -2.14534 0.283552 0
M  V30 7064 C 641.499 -0.727411 3.30899 0
M  V30 7065 C 640.058 -1.19612 3.56889 0
M  V30 7066 C 639.205 -0.20885 2.76512 0
M  V30 7067 H 642.156 0.351924 1.54749 0
M  V30 7068 H 642.177 -1.58407 3.45959 0
M  V30 7069 H 641.689 0.19247 3.87622 0
M  V30 7070 H 639.79 -2.13263 3.05532 0
M  V30 7071 H 639.903 -1.13598 4.65438 0
M  V30 7072 H 638.267 -0.697479 2.44964 0
M  V30 7073 H 639.05 0.704267 3.35998 0
M  V30 7074 N 641.495 -1.56914 -0.146875 0
M  V30 7075 C 642.742 -1.83356 -0.859467 0
M  V30 7076 C 643.07 -0.707811 -1.81164 0
M  V30 7077 O 642.325 0.303155 -1.93338 0
M  V30 7078 C 642.624 -3.16128 -1.66727 0
M  V30 7079 C 642.29 -4.42586 -0.861881 0
M  V30 7080 C 640.952 -4.76929 -0.639687 0
M  V30 7081 C 643.304 -5.20344 -0.298643 0
M  V30 7082 C 640.632 -5.86491 0.156451 0
M  V30 7083 C 642.984 -6.30742 0.484536 0
M  V30 7084 C 641.648 -6.63635 0.717306 0
M  V30 7085 H 640.918 -0.670947 -0.314501 0
M  V30 7086 H 643.565 -1.91104 -0.123108 0
M  V30 7087 H 641.87 -3.03831 -2.47374 0
M  V30 7088 H 643.567 -3.33802 -2.2221 0
M  V30 7089 H 640.157 -4.15662 -1.04513 0
M  V30 7090 H 644.341 -4.94186 -0.457585 0
M  V30 7091 H 639.597 -6.10419 0.346292 0
M  V30 7092 H 643.771 -6.90188 0.928105 0
M  V30 7093 H 641.398 -7.48367 1.33607 0
M  V30 7094 N 642.974 0.416227 -1.52004 0
M  V30 7095 C 644.222 1.16153 -1.65387 0
M  V30 7096 C 644.543 1.91208 -0.382669 0
M  V30 7097 O 643.813 1.86413 0.602231 0
M  V30 7098 H 642.393 0.431765 -0.60958 0
M  V30 7099 H 645.055 0.475151 -1.89019 0
M  V30 7100 H 644.151 1.87952 -2.4916 0
M  V30 7101 N 644.452 1.42507 0.673017 0
M  V30 7102 C 645.677 1.4668 1.46627 0
M  V30 7103 C 646.102 0.080066 1.8793 0
M  V30 7104 O 645.46 -0.921879 1.56112 0
M  V30 7105 C 645.508 2.40091 2.69051 0
M  V30 7106 O 644.612 1.8735 3.67387 0
M  V30 7107 H 643.953 0.496908 0.44043 0
M  V30 7108 H 646.483 1.87215 0.825334 0
M  V30 7109 H 646.493 2.56731 3.17101 0
M  V30 7110 H 645.168 3.4084 2.3833 0
M  V30 7111 H 643.745 1.80274 3.26429 0
M  V30 7112 N 645.93 -0.909495 1.28709 0
M  V30 7113 C 647.178 -1.65577 1.15882 0
M  V30 7114 C 647.499 -1.928 -0.292108 0
M  V30 7115 O 646.769 -1.54716 -1.20166 0
M  V30 7116 H 645.349 -0.613714 0.425869 0
M  V30 7117 H 648.011 -1.09108 1.61498 0
M  V30 7118 H 647.107 -2.61634 1.70159 0
M  V30 7119 N 647.408 -1.11026 -1.11852 0
M  V30 7120 C 648.819 -0.873203 -1.65021 0
M  V30 7121 C 649.17 0.595364 -1.86949 0
M  V30 7122 O 648.295 1.45645 -1.60051 0
M  V30 7123 C 648.89 -1.57859 -2.99777 0
M  V30 7124 C 647.449 -1.38807 -3.49871 0
M  V30 7125 C 646.596 -1.62403 -2.24768 0
M  V30 7126 H 649.547 -1.26712 -0.955503 0
M  V30 7127 H 649.568 -1.02111 -3.66543 0
M  V30 7128 H 649.08 -2.6474 -2.83786 0
M  V30 7129 H 647.181 -0.341163 -3.71035 0
M  V30 7130 H 647.294 -2.13421 -4.28938 0
M  V30 7131 H 645.658 -1.04714 -2.32179 0
M  V30 7132 H 646.441 -2.70549 -2.11324 0
M  V30 7133 N 648.886 1.2938 -0.899927 0
M  V30 7134 C 650.302 1.48052 -0.596059 0
M  V30 7135 C 650.502 1.82114 0.862372 0
M  V30 7136 O 649.558 1.91774 1.64253 0
M  V30 7137 C 650.871 2.59332 -1.52208 0
M  V30 7138 C 652.419 2.73208 -1.5273 0
M  V30 7139 C 652.894 3.87617 -2.43961 0
M  V30 7140 N 654.385 3.9495 -2.42009 0
M  V30 7141 C 655.12 4.82824 -3.09303 0
M  V30 7142 N 654.616 5.75387 -3.85877 0
M  V30 7143 N 656.409 4.76317 -2.98459 0
M  V30 7144 H 648.56 1.05546 -1.8432 0
M  V30 7145 H 650.823 0.524314 -0.78981 0
M  V30 7146 H 650.529 2.41029 -2.56121 0
M  V30 7147 H 650.403 3.56139 -1.24278 0
M  V30 7148 H 652.79 2.90908 -0.495614 0
M  V30 7149 H 652.871 1.76975 -1.84698 0
M  V30 7150 H 652.515 3.70672 -3.47224 0
M  V30 7151 H 652.445 4.83218 -2.09303 0
M  V30 7152 H 654.936 3.28744 -1.86375 0
M  V30 7153 H 655.249 6.39235 -4.34279 0
M  V30 7154 H 653.594 5.75272 -3.89984 0
M  V30 7155 H 656.785 4.0299 -2.38152 0
M  V30 7156 H 656.958 5.44589 -3.51179 0
M  V30 7157 N 650.364 0.662433 1.43002 0
M  V30 7158 C 651.312 -0.035345 2.32573 0
M  V30 7159 C 652.306 -0.803505 1.49131 0
M  V30 7160 O 653.512 -0.712865 1.65282 0
M  V30 7161 H 649.887 -0.0302194 0.751393 0
M  V30 7162 H 651.858 0.737686 2.89138 0
M  V30 7163 C 650.607 -0.981575 3.33557 0
M  V30 7164 H 649.93 -0.399914 3.97795 0
M  V30 7165 H 651.37 -1.43873 3.98844 0
M  V30 7166 C 649.829 -2.08204 2.64863 0
M  V30 7167 O 650.359 -3.16698 2.47113 0
M  V30 7168 N 648.565 -1.85022 2.24088 0
M  V30 7169 H 648.112 -0.967909 2.38724 0
M  V30 7170 H 648.07 -2.58845 1.78457 0
M  V30 7171 N 651.842 -1.52309 0.404946 0
M  V30 7172 C 653.082 -2.03677 -0.171779 0
M  V30 7173 C 653.446 -1.28419 -1.42733 0
M  V30 7174 O 654.647 -1.69991 -2.08222 0
M  V30 7175 C 652.918 -3.54951 -0.417701 0
M  V30 7176 S 654.477 -4.28114 -0.962472 0
M  V30 7177 H 651.295 -0.709445 -0.0469912 0
M  V30 7178 H 653.897 -1.874 0.556901 0
M  V30 7179 H 652.601 -4.07306 0.50295 0
M  V30 7180 H 652.132 -3.75462 -1.17437 0
M  V30 7181 H 654.147 -4.42589 -2.24342 0
M  V30 7182 N 653.32 -0.135238 -1.57019 0
M  V30 7183 C 654.569 0.518694 -1.94917 0
M  V30 7184 C 654.882 1.66783 -1.0219 0
M  V30 7185 O 656.088 2.38561 -1.29619 0
M  V30 7186 C 654.544 0.974123 -3.46466 0
M  V30 7187 C 654.152 -0.147439 -4.47757 0
M  V30 7188 C 655.896 1.59851 -3.93253 0
M  V30 7189 C 653.803 0.325599 -5.90503 0
M  V30 7190 H 652.733 0.19754 -0.727663 0
M  V30 7191 H 655.384 -0.217698 -1.82204 0
M  V30 7192 H 653.766 1.76542 -3.5447 0
M  V30 7193 H 654.94 -0.924122 -4.51438 0
M  V30 7194 H 653.255 -0.679496 -4.10818 0
M  V30 7195 H 655.852 1.96385 -4.9733 0
M  V30 7196 H 656.195 2.48306 -3.3414 0
M  V30 7197 H 656.728 0.872323 -3.88118 0
M  V30 7198 H 653.467 -0.523295 -6.53408 0
M  V30 7199 H 652.987 1.06841 -5.90208 0
M  V30 7200 H 654.666 0.781498 -6.42263 0
M  V30 7201 N 654.798 1.5699 0.138552 0
M  V30 7202 C 656.046 1.83446 0.848053 0
M  V30 7203 C 656.367 0.71744 1.81322 0
M  V30 7204 O 655.637 -0.260228 1.94164 0
M  V30 7205 H 654.217 0.676792 0.316166 0
M  V30 7206 H 656.879 1.94462 0.130538 0
M  V30 7207 H 655.975 2.78677 1.40518 0
M  V30 7208 N 656.276 -0.40816 1.52223 0
M  V30 7209 C 657.209 -1.51834 1.70357 0
M  V30 7210 C 658.187 -1.52973 0.551171 0
M  V30 7211 O 659.371 -1.71667 0.778642 0
M  V30 7212 C 656.498 -2.90362 1.74378 0
M  V30 7213 C 655.544 -3.0713 2.95928 0
M  V30 7214 S 656.377 -2.80342 4.56255 0
M  V30 7215 C 657.533 -4.21098 4.63063 0
M  V30 7216 H 657.766 -1.36223 2.64255 0
M  V30 7217 H 655.299 -0.599798 1.42274 0
M  V30 7218 H 657.257 -3.70199 1.77379 0
M  V30 7219 H 655.918 -3.03314 0.816063 0
M  V30 7220 H 655.111 -4.08482 2.95226 0
M  V30 7221 H 654.713 -2.3516 2.90819 0
M  V30 7222 H 657.005 -5.14749 4.40499 0
M  V30 7223 H 657.948 -4.26823 5.65002 0
M  V30 7224 H 658.356 -4.06114 3.92086 0
M  V30 7225 N 657.755 -1.42862 -0.66545 0
M  V30 7226 C 659.171 -1.25993 -0.979687 0
M  V30 7227 C 659.371 -0.170831 -2.00775 0
M  V30 7228 O 658.427 0.454827 -2.4837 0
M  V30 7229 C 659.74 -2.62005 -1.47559 0
M  V30 7230 C 661.288 -2.69437 -1.59288 0
M  V30 7231 C 661.763 -4.05838 -2.12272 0
M  V30 7232 N 663.254 -4.0784 -2.19592 0
M  V30 7233 C 663.989 -5.10205 -2.61684 0
M  V30 7234 N 663.485 -6.22949 -3.03161 0
M  V30 7235 N 665.278 -4.9756 -2.61516 0
M  V30 7236 H 657.429 -2.12395 0.0150493 0
M  V30 7237 H 659.692 -0.946355 -0.0558187 0
M  V30 7238 H 659.398 -3.42605 -0.794654 0
M  V30 7239 H 659.272 -2.86566 -2.45275 0
M  V30 7240 H 661.659 -1.89178 -2.26486 0
M  V30 7241 H 661.74 -2.48655 -0.600374 0
M  V30 7242 H 661.384 -4.86559 -1.4568 0
M  V30 7243 H 661.314 -4.23977 -3.12331 0
M  V30 7244 H 663.805 -3.26452 -1.90361 0
M  V30 7245 H 664.118 -6.96899 -3.33993 0
M  V30 7246 H 662.463 -6.2644 -3.00995 0
M  V30 7247 H 665.654 -4.08551 -2.28481 0
M  V30 7248 H 665.827 -5.77468 -2.93999 0
M  V30 7249 N 659.233 0.902656 -1.29189 0
M  V30 7250 C 660.48 1.65287 -1.16989 0
M  V30 7251 C 660.808 1.92485 0.279232 0
M  V30 7252 O 660.063 1.53143 1.21843 0
M  V30 7253 C 660.362 3.011 -1.92545 0
M  V30 7254 C 660.028 2.93521 -3.42281 0
M  V30 7255 C 658.69 2.91161 -3.83117 0
M  V30 7256 C 661.042 2.82947 -4.3771 0
M  V30 7257 C 658.37 2.76043 -5.17704 0
M  V30 7258 C 660.722 2.69368 -5.72384 0
M  V30 7259 C 659.386 2.65373 -6.12482 0
M  V30 7260 H 658.656 0.604828 -0.428094 0
M  V30 7261 H 661.303 1.05084 -1.60092 0
M  V30 7262 H 659.608 3.65153 -1.42024 0
M  V30 7263 H 661.305 3.58073 -1.80512 0
M  V30 7264 H 657.895 2.96158 -3.09819 0
M  V30 7265 H 662.079 2.83849 -4.07116 0
M  V30 7266 H 657.335 2.71352 -5.47885 0
M  V30 7267 H 661.509 2.60156 -6.45981 0
M  V30 7268 H 659.136 2.53415 -7.16718 0
M  V30 7269 N 660.711 1.11618 1.11262 0
M  V30 7270 C 661.674 0.779447 2.15539 0
M  V30 7271 C 662.674 -0.202081 1.59525 0
M  V30 7272 O 663.864 0.0226356 1.74185 0
M  V30 7273 C 660.996 0.15674 3.40539 0
M  V30 7274 H 662.189 1.70324 2.4684 0
M  V30 7275 H 659.742 0.918298 1.26479 0
M  V30 7276 H 660.477 -0.777186 3.1485 0
M  V30 7277 H 660.262 0.863308 3.82478 0
M  V30 7278 H 661.752 -0.062661 4.17553 0
M  V30 7279 N 662.189 -1.289 0.906776 0
M  V30 7280 C 663.119 -2.29932 0.406659 0
M  V30 7281 C 664.1 -1.6189 -0.522061 0
M  V30 7282 O 665.285 -1.8935 -0.431283 0
M  V30 7283 C 662.415 -3.45425 -0.360366 0
M  V30 7284 C 661.369 -4.25316 0.478574 0
M  V30 7285 C 660.695 -5.33076 -0.416373 0
M  V30 7286 C 661.995 -4.92739 1.7322 0
M  V30 7287 H 663.689 -2.72013 1.25097 0
M  V30 7288 H 661.235 -1.30768 0.602977 0
M  V30 7289 H 663.188 -4.15186 -0.721029 0
M  V30 7290 H 661.912 -3.02206 -1.23852 0
M  V30 7291 H 660.571 -3.57273 0.821662 0
M  V30 7292 H 660.219 -4.86101 -1.29287 0
M  V30 7293 H 659.919 -5.8743 0.141309 0
M  V30 7294 H 661.443 -6.05686 -0.773072 0
M  V30 7295 H 662.857 -5.54898 1.44086 0
M  V30 7296 H 661.254 -5.57057 2.23175 0
M  V30 7297 H 662.324 -4.17625 2.46408 0
M  V30 7298 N 663.667 -0.670007 -1.42649 0
M  V30 7299 C 664.6 0.0613623 -2.28117 0
M  V30 7300 C 665.578 0.813414 -1.40792 0
M  V30 7301 O 666.762 0.809529 -1.70232 0
M  V30 7302 C 663.889 1.09399 -3.20546 0
M  V30 7303 C 662.935 0.438064 -4.24244 0
M  V30 7304 S 663.768 -0.800808 -5.29478 0
M  V30 7305 C 664.924 0.23086 -6.25474 0
M  V30 7306 H 665.157 -0.663606 -2.89799 0
M  V30 7307 H 662.69 -0.45939 -1.47407 0
M  V30 7308 H 664.648 1.68469 -3.74337 0
M  V30 7309 H 663.309 1.79137 -2.58009 0
M  V30 7310 H 662.502 1.21707 -4.89084 0
M  V30 7311 H 662.104 -0.0789346 -3.73917 0
M  V30 7312 H 664.396 1.09204 -6.68641 0
M  V30 7313 H 665.339 -0.382945 -7.07064 0
M  V30 7314 H 665.747 0.574191 -5.61572 0
M  V30 7315 N 665.145 1.52092 -0.413018 0
M  V30 7316 C 666.093 2.28681 0.425199 0
M  V30 7317 C 667.087 1.3353 1.04241 0
M  V30 7318 O 668.293 1.50973 0.980166 0
M  V30 7319 H 664.668 0.735661 0.155906 0
M  V30 7320 H 666.639 2.97418 -0.241926 0
M  V30 7321 C 665.388 3.1235 1.5275 0
M  V30 7322 H 664.711 3.85439 1.06191 0
M  V30 7323 H 666.151 3.69038 2.08774 0
M  V30 7324 C 664.61 2.26161 2.49706 0
M  V30 7325 O 665.14 1.90452 3.53682 0
M  V30 7326 N 663.346 1.89854 2.20008 0
M  V30 7327 H 662.893 2.19092 1.35486 0
M  V30 7328 H 662.851 1.3248 2.85125 0
M  V30 7329 N 666.623 0.143563 1.56945 0
M  V30 7330 C 667.556 -0.835367 2.1236 0
M  V30 7331 C 668.534 -1.24466 1.04627 0
M  V30 7332 O 669.718 -1.34138 1.32436 0
M  V30 7333 C 666.845 -2.12123 2.64048 0
M  V30 7334 C 665.891 -1.85812 3.83896 0
M  V30 7335 S 666.724 -1.05222 5.25061 0
M  V30 7336 C 667.88 -2.34935 5.80135 0
M  V30 7337 H 668.113 -0.364109 2.95062 0
M  V30 7338 H 665.646 -0.0706601 1.54238 0
M  V30 7339 H 667.604 -2.85993 2.94479 0
M  V30 7340 H 666.265 -2.56364 1.81483 0
M  V30 7341 H 665.458 -2.81151 4.18294 0
M  V30 7342 H 665.06 -1.20052 3.54208 0
M  V30 7343 H 667.352 -3.3061 5.91357 0
M  V30 7344 H 668.295 -2.05046 6.77762 0
M  V30 7345 H 668.703 -2.45426 5.08356 0
M  V30 7346 N 668.101 -1.57061 -0.130224 0
M  V30 7347 C 669.048 -1.99517 -1.16024 0
M  V30 7348 C 670.018 -0.865452 -1.41771 0
M  V30 7349 O 671.203 -1.12882 -1.53826 0
M  V30 7350 C 668.343 -2.3951 -2.48453 0
M  V30 7351 C 667.456 -3.65848 -2.29737 0
M  V30 7352 C 666.591 -3.9487 -3.55318 0
M  V30 7353 C 665.63 -5.14426 -3.31711 0
M  V30 7354 N 664.767 -5.39375 -4.49466 0
M  V30 7355 H 669.607 -2.87305 -0.791194 0
M  V30 7356 H 667.144 -1.42129 -0.379195 0
M  V30 7357 H 669.102 -2.60731 -3.25692 0
M  V30 7358 H 667.732 -1.54779 -2.83272 0
M  V30 7359 H 666.784 -3.52307 -1.4347 0
M  V30 7360 H 668.096 -4.53241 -2.08263 0
M  V30 7361 H 667.25 -4.16679 -4.4098 0
M  V30 7362 H 665.989 -3.05931 -3.79813 0
M  V30 7363 H 664.994 -4.92473 -2.44439 0
M  V30 7364 H 666.219 -6.04933 -3.08598 0
M  V30 7365 H 664.165 -4.53391 -4.74102 0
M  V30 7366 H 664.082 -6.21069 -4.31055 0
M  V30 7367 H 665.35 -5.65694 -5.36293 0
M  V30 7368 N 669.579 0.400081 -1.52437 0
M  V30 7369 C 670.509 1.4947 -1.7939 0
M  V30 7370 C 671.49 1.57383 -0.645329 0
M  V30 7371 O 672.675 1.72511 -0.891826 0
M  V30 7372 C 669.805 2.87201 -1.95276 0
M  V30 7373 C 668.759 2.94134 -3.10917 0
M  V30 7374 C 668.085 4.34207 -3.1204 0
M  V30 7375 C 669.385 2.64791 -4.50203 0
M  V30 7376 H 671.079 1.27165 -2.71052 0
M  V30 7377 H 668.625 0.610312 -1.30427 0
M  V30 7378 H 670.578 3.63772 -2.12715 0
M  V30 7379 H 669.302 3.10819 -1.00294 0
M  V30 7380 H 667.961 2.20009 -2.93243 0
M  V30 7381 H 667.609 4.54848 -2.14761 0
M  V30 7382 H 667.309 4.39768 -3.89715 0
M  V30 7383 H 668.833 5.127 -3.31619 0
M  V30 7384 H 670.247 3.31083 -4.68035 0
M  V30 7385 H 668.644 2.81717 -5.29864 0
M  V30 7386 H 669.714 1.60184 -4.57678 0
M  V30 7387 N 671.057 1.43213 0.657864 0
M  V30 7388 C 672.02 1.47687 1.75275 0
M  V30 7389 C 673.02 0.362179 1.56668 0
M  V30 7390 O 674.21 0.623734 1.62651 0
M  V30 7391 C 671.342 1.32497 3.14098 0
M  V30 7392 H 672.535 2.4519 1.7269 0
M  V30 7393 H 670.088 1.2991 0.869087 0
M  V30 7394 H 670.823 0.359831 3.22298 0
M  V30 7395 H 670.608 2.13299 3.29008 0
M  V30 7396 H 672.098 1.38549 3.93946 0
M  V30 7397 N 672.536 -0.895792 1.29666 0
M  V30 7398 C 673.466 -2.01673 1.17688 0
M  V30 7399 C 674.447 -1.69955 0.0701317 0
M  V30 7400 O 675.632 -1.9258 0.250289 0
M  V30 7401 C 672.762 -3.36568 0.856681 0
M  V30 7402 C 671.716 -3.82509 1.92017 0
M  V30 7403 C 671.042 -5.14574 1.4532 0
M  V30 7404 C 672.342 -4.02409 3.32963 0
M  V30 7405 H 674.036 -2.11953 2.11463 0
M  V30 7406 H 671.582 -1.01839 1.01807 0
M  V30 7407 H 673.535 -4.14498 0.759577 0
M  V30 7408 H 672.259 -3.26391 -0.116763 0
M  V30 7409 H 670.918 -3.068 2.00673 0
M  V30 7410 H 670.566 -5.00815 0.468325 0
M  V30 7411 H 670.266 -5.46283 2.16447 0
M  V30 7412 H 671.79 -5.9504 1.36968 0
M  V30 7413 H 673.204 -4.70808 3.27127 0
M  V30 7414 H 671.601 -4.45478 4.02082 0
M  V30 7415 H 672.671 -3.06616 3.75652 0
M  V30 7416 N 674.014 -1.12206 -1.10668 0
M  V30 7417 C 675.263 -0.870595 -1.81944 0
M  V30 7418 C 675.576 0.605447 -1.85994 0
M  V30 7419 O 676.782 0.973433 -2.53449 0
M  V30 7420 C 675.238 -1.50783 -3.26791 0
M  V30 7421 C 674.846 -3.01849 -3.31046 0
M  V30 7422 C 676.59 -1.33653 -4.02911 0
M  V30 7423 C 674.497 -3.58518 -4.70339 0
M  V30 7424 H 673.427 -0.322043 -0.681765 0
M  V30 7425 H 676.078 -1.34827 -1.24475 0
M  V30 7426 H 674.46 -0.957825 -3.84242 0
M  V30 7427 H 675.634 -3.63321 -2.83433 0
M  V30 7428 H 673.949 -3.18346 -2.68411 0
M  V30 7429 H 676.546 -1.73416 -5.05797 0
M  V30 7430 H 676.889 -0.279949 -4.15358 0
M  V30 7431 H 677.422 -1.85562 -3.51868 0
M  V30 7432 H 674.161 -4.63925 -4.63091 0
M  V30 7433 H 673.681 -3.01819 -5.18329 0
M  V30 7434 H 675.36 -3.57434 -5.39305 0
M  V30 7435 N 675.492 1.28418 -0.913599 0
M  V30 7436 C 676.908 1.47411 -0.611728 0
M  V30 7437 C 677.108 1.83018 0.843008 0
M  V30 7438 O 676.164 1.93505 1.6221 0
M  V30 7439 C 677.477 2.57703 -1.5495 0
M  V30 7440 C 679.025 2.71572 -1.5562 0
M  V30 7441 C 679.5 3.85008 -2.48058 0
M  V30 7442 N 680.991 3.92361 -2.46184 0
M  V30 7443 C 681.726 4.79516 -3.14407 0
M  V30 7444 N 681.222 5.71262 -3.91958 0
M  V30 7445 N 683.015 4.73125 -3.03495 0
M  V30 7446 H 675.166 1.03585 -1.85429 0
M  V30 7447 H 677.429 0.515907 -0.795326 0
M  V30 7448 H 677.135 2.38298 -2.58663 0
M  V30 7449 H 677.009 3.54801 -1.28048 0
M  V30 7450 H 679.396 2.90366 -0.526441 0
M  V30 7451 H 679.477 1.75006 -1.86565 0
M  V30 7452 H 679.121 3.66969 -3.51136 0
M  V30 7453 H 679.051 4.80971 -2.14416 0
M  V30 7454 H 681.542 3.26749 -1.89851 0
M  V30 7455 H 681.855 6.34593 -4.41034 0
M  V30 7456 H 680.2 5.71103 -3.96063 0
M  V30 7457 H 683.391 4.00442 -2.42413 0
M  V30 7458 H 683.564 5.40834 -3.56935 0
M  V30 7459 N 676.97 0.677563 1.42291 0
M  V30 7460 C 678.216 0.201272 2.01799 0
M  V30 7461 C 678.549 -1.19004 1.53465 0
M  V30 7462 O 677.824 -1.79953 0.738039 0
M  V30 7463 C 678.107 0.238968 3.59306 0
M  V30 7464 C 677.96 1.66594 4.17812 0
M  V30 7465 C 679.279 -0.411287 4.38174 0
M  V30 7466 H 676.398 0.0746114 0.733214 0
M  V30 7467 H 679.04 0.862872 1.69276 0
M  V30 7468 H 677.19 -0.324368 3.87144 0
M  V30 7469 H 678.862 2.28173 4.00917 0
M  V30 7470 H 677.105 2.20576 3.73536 0
M  V30 7471 H 677.776 1.64398 5.26951 0
M  V30 7472 H 680.252 0.0682804 4.16044 0
M  V30 7473 H 679.128 -0.354286 5.47755 0
M  V30 7474 H 679.389 -1.4893 4.1626 0
M  V30 7475 N 678.448 -1.51871 0.421078 0
M  V30 7476 C 679.378 -2.30231 -0.389363 0
M  V30 7477 C 680.359 -1.34946 -1.03555 0
M  V30 7478 O 681.544 -1.63859 -1.04229 0
M  V30 7479 C 678.674 -3.13247 -1.49979 0
M  V30 7480 C 677.628 -4.16677 -0.977966 0
M  V30 7481 C 676.954 -4.88112 -2.1829 0
M  V30 7482 C 678.254 -5.22295 -0.0236775 0
M  V30 7483 H 679.948 -2.98229 0.264524 0
M  V30 7484 H 677.494 -1.43424 0.12866 0
M  V30 7485 H 679.447 -3.66838 -2.07383 0
M  V30 7486 H 678.171 -2.4304 -2.18173 0
M  V30 7487 H 676.83 -3.64114 -0.426245 0
M  V30 7488 H 676.478 -4.14423 -2.85066 0
M  V30 7489 H 676.178 -5.58041 -1.84021 0
M  V30 7490 H 677.702 -5.44521 -2.76278 0
M  V30 7491 H 679.116 -5.71055 -0.506899 0
M  V30 7492 H 677.513 -5.99656 0.230782 0
M  V30 7493 H 678.583 -4.76131 0.917999 0
M  V30 7494 N 679.926 -0.151884 -1.56866 0
M  V30 7495 C 680.858 0.817008 -2.14144 0
M  V30 7496 C 681.871 1.20735 -1.0921 0
M  V30 7497 O 683.06 1.15058 -1.36469 0
M  V30 7498 C 680.16 2.10844 -2.65326 0
M  V30 7499 C 679.333 1.88471 -3.94712 0
M  V30 7500 C 678.392 3.01649 -4.31155 0
M  V30 7501 O 677.418 2.73127 -4.9939 0
M  V30 7502 N 678.62 4.28947 -3.91132 0
M  V30 7503 H 681.385 0.327448 -2.97906 0
M  V30 7504 H 678.946 0.0315313 -1.61869 0
M  V30 7505 H 680.938 2.85616 -2.86715 0
M  V30 7506 H 679.508 2.51049 -1.86262 0
M  V30 7507 H 678.728 0.977088 -3.81899 0
M  V30 7508 H 680.016 1.70866 -4.79252 0
M  V30 7509 H 679.414 4.54986 -3.36161 0
M  V30 7510 H 677.971 5.00484 -4.17563 0
M  V30 7511 N 681.404 1.57128 0.121893 0
M  V30 7512 C 682.352 2.01109 1.16868 0
M  V30 7513 C 683.346 0.907532 1.43039 0
M  V30 7514 O 684.552 1.09274 1.43036 0
M  V30 7515 H 680.927 0.640539 0.393971 0
M  V30 7516 H 682.898 2.88261 0.771224 0
M  V30 7517 C 681.647 2.42887 2.48799 0
M  V30 7518 H 680.97 3.2737 2.29498 0
M  V30 7519 H 682.41 2.77461 3.20611 0
M  V30 7520 C 680.869 1.29137 3.11168 0
M  V30 7521 O 681.399 0.605756 3.97106 0
M  V30 7522 N 679.605 1.04916 2.71 0
M  V30 7523 H 679.152 1.60848 2.01211 0
M  V30 7524 H 679.11 0.290016 3.1306 0
M  V30 7525 N 682.882 -0.391992 1.52647 0
M  V30 7526 C 684.129 -1.13732 1.67545 0
M  V30 7527 C 684.457 -1.90045 0.413881 0
M  V30 7528 O 683.712 -1.86157 -0.603646 0
M  V30 7529 C 684.011 -2.14401 2.85949 0
M  V30 7530 C 683.677 -1.54767 4.23507 0
M  V30 7531 C 682.339 -1.38229 4.60919 0
M  V30 7532 C 684.691 -1.11382 5.0916 0
M  V30 7533 C 682.019 -0.7685 5.81645 0
M  V30 7534 C 684.371 -0.514143 6.30507 0
M  V30 7535 C 683.035 -0.33604 6.66654 0
M  V30 7536 H 682.305 -0.416174 0.613091 0
M  V30 7537 H 684.952 -0.422327 1.86785 0
M  V30 7538 H 683.257 -2.92108 2.61114 0
M  V30 7539 H 684.954 -2.71974 2.94671 0
M  V30 7540 H 681.544 -1.68626 3.94035 0
M  V30 7541 H 685.728 -1.22962 4.80826 0
M  V30 7542 H 680.984 -0.618681 6.08262 0
M  V30 7543 H 685.158 -0.169657 6.96193 0
M  V30 7544 H 682.785 0.14166 7.60068 0
M  V30 7545 N 684.36 -1.4356 -0.65026 0
M  V30 7546 C 685.585 -1.48995 -1.44275 0
M  V30 7547 C 686.01 -0.109954 -1.87778 0
M  V30 7548 O 685.368 0.896926 -1.57559 0
M  V30 7549 C 685.416 -2.44341 -2.65198 0
M  V30 7550 O 684.52 -1.93172 -3.6436 0
M  V30 7551 H 683.861 -0.503852 -0.432469 0
M  V30 7552 H 686.391 -1.88504 -0.795446 0
M  V30 7553 H 686.401 -2.61743 -3.12977 0
M  V30 7554 H 685.076 -3.44588 -2.32877 0
M  V30 7555 H 683.653 -1.85445 -3.23519 0
M  V30 7556 N 685.838 0.888903 -1.30139 0
M  V30 7557 C 687.085 1.64037 -1.18736 0
M  V30 7558 C 687.413 1.92771 0.258801 0
M  V30 7559 O 686.668 1.54427 1.20212 0
M  V30 7560 C 686.967 2.99041 -1.95728 0
M  V30 7561 C 686.633 2.89874 -3.45375 0
M  V30 7562 C 685.295 2.87082 -3.86183 0
M  V30 7563 C 687.647 2.78289 -4.40687 0
M  V30 7564 C 684.975 2.70536 -5.20603 0
M  V30 7565 C 687.327 2.63282 -5.75209 0
M  V30 7566 C 685.991 2.58861 -6.15262 0
M  V30 7567 H 685.261 0.600253 -0.434485 0
M  V30 7568 H 687.908 1.0338 -1.61198 0
M  V30 7569 H 686.213 3.63626 -1.45888 0
M  V30 7570 H 687.91 3.56139 -1.843 0
M  V30 7571 H 684.5 2.92856 -3.12943 0
M  V30 7572 H 688.684 2.79516 -4.10103 0
M  V30 7573 H 683.94 2.65526 -5.50732 0
M  V30 7574 H 688.114 2.5329 -6.48704 0
M  V30 7575 H 685.741 2.45799 -7.19366 0
M  V30 7576 N 687.317 1.12792 1.10072 0
M  V30 7577 C 688.264 0.79921 2.16521 0
M  V30 7578 C 689.234 -0.235726 1.64419 0
M  V30 7579 O 690.419 -0.109457 1.90486 0
M  V30 7580 C 687.559 0.264091 3.44088 0
M  V30 7581 C 686.672 1.35729 4.10124 0
M  V30 7582 C 685.807 0.781212 5.25424 0
M  V30 7583 C 684.846 1.85327 5.8337 0
M  V30 7584 N 683.983 1.29564 6.90042 0
M  V30 7585 H 688.823 1.71105 2.43981 0
M  V30 7586 H 686.36 0.854225 1.19756 0
M  V30 7587 H 688.318 -0.0642423 4.17151 0
M  V30 7588 H 686.948 -0.610901 3.16967 0
M  V30 7589 H 686 1.80234 3.34993 0
M  V30 7590 H 687.312 2.16782 4.4923 0
M  V30 7591 H 686.466 0.403769 6.05355 0
M  V30 7592 H 685.205 -0.0604686 4.87663 0
M  V30 7593 H 684.21 2.23986 5.02106 0
M  V30 7594 H 685.435 2.69824 6.23195 0
M  V30 7595 H 683.381 0.475844 6.54272 0
M  V30 7596 H 683.298 2.04271 7.2788 0
M  V30 7597 H 684.566 0.945545 7.73744 0
M  V30 7598 N 688.795 -1.27931 0.920396 0
M  V30 7599 C 690.206 -1.76707 0.602616 0
M  V30 7600 C 690.557 -1.75249 -0.882159 0
M  V30 7601 O 689.682 -1.35135 -1.69019 0
M  V30 7602 C 690.277 -3.20884 1.08714 0
M  V30 7603 C 688.836 -3.67356 0.820157 0
M  V30 7604 C 687.983 -2.47525 1.25006 0
M  V30 7605 H 690.934 -1.14301 1.10095 0
M  V30 7606 H 690.955 -3.78045 0.431535 0
M  V30 7607 H 690.467 -3.21913 2.1678 0
M  V30 7608 H 688.568 -3.7178 -0.247012 0
M  V30 7609 H 688.681 -4.57181 1.43257 0
M  V30 7610 H 687.045 -2.45765 0.668698 0
M  V30 7611 H 687.828 -2.51269 2.3392 0
M  V30 7612 N 690.273 -0.685099 -1.4193 0
M  V30 7613 C 691.513 -0.215676 -2.03259 0
M  V30 7614 C 691.877 1.15934 -1.53047 0
M  V30 7615 O 693.078 1.72401 -2.06231 0
M  V30 7616 C 691.349 -0.259649 -3.56456 0
M  V30 7617 S 692.908 0.137262 -4.38585 0
M  V30 7618 H 689.726 -0.0877362 -0.705566 0
M  V30 7619 H 692.328 -0.900547 -1.73523 0
M  V30 7620 H 691.032 -1.26256 -3.90497 0
M  V30 7621 H 690.563 0.444716 -3.90878 0
M  V30 7622 H 692.578 1.36787 -4.76973 0
M  V30 7623 N 691.751 1.51645 -0.429126 0
M  V30 7624 C 692.698 2.27542 0.386446 0
M  V30 7625 C 693.668 1.30786 1.02393 0
M  V30 7626 O 694.853 1.59678 1.0444 0
M  V30 7627 C 691.993 3.11457 1.48623 0
M  V30 7628 C 691.106 4.23196 0.867691 0
M  V30 7629 C 690.241 4.94435 1.94183 0
M  V30 7630 C 689.28 5.98108 1.30129 0
M  V30 7631 N 688.417 6.62786 2.31644 0
M  V30 7632 H 693.257 2.968 -0.267155 0
M  V30 7633 H 690.794 1.46397 -0.143591 0
M  V30 7634 H 692.752 3.58429 2.13506 0
M  V30 7635 H 691.382 2.44329 2.10957 0
M  V30 7636 H 690.434 3.80248 0.107373 0
M  V30 7637 H 691.746 4.97499 0.35997 0
M  V30 7638 H 690.9 5.44914 2.66747 0
M  V30 7639 H 689.639 4.19744 2.48326 0
M  V30 7640 H 688.644 5.4693 0.561082 0
M  V30 7641 H 689.869 6.74751 0.767303 0
M  V30 7642 H 687.815 5.90913 2.84883 0
M  V30 7643 H 687.732 7.32828 1.85741 0
M  V30 7644 H 689 7.17897 3.03717 0
M  V30 7645 N 693.229 0.160201 1.56784 0
M  V30 7646 C 694.139 -0.787167 2.21 0
M  V30 7647 C 695.155 -1.26167 1.19825 0
M  V30 7648 O 696.331 -1.31611 1.52448 0
M  V30 7649 C 693.396 -2.00364 2.8294 0
M  V30 7650 C 692.457 -1.5771 3.99282 0
M  V30 7651 C 691.69 -2.73558 4.58259 0
M  V30 7652 O 691.913 -3.90129 4.16119 0
M  V30 7653 O 690.847 -2.48271 5.48311 0
M  V30 7654 H 694.673 -0.270462 3.02493 0
M  V30 7655 H 692.258 -0.0674666 1.49248 0
M  V30 7656 H 694.14 -2.71529 3.22257 0
M  V30 7657 H 692.815 -2.50961 2.04451 0
M  V30 7658 H 691.722 -0.835274 3.64656 0
M  V30 7659 H 693.055 -1.11815 4.79331 0
M  V30 7660 N 694.707 -1.5719 -0.113559 0
M  V30 7661 C 695.935 -1.89328 -0.834422 0
M  V30 7662 C 696.35 -0.752018 -1.73177 0
M  V30 7663 O 695.707 0.276912 -1.80387 0
M  V30 7664 C 695.758 -3.20962 -1.66329 0
M  V30 7665 O 695.479 -4.30695 -0.802069 0
M  V30 7666 C 696.98 -3.6684 -2.48884 0
M  V30 7667 H 694.2 -0.626769 -0.239587 0
M  V30 7668 H 696.744 -2.04273 -0.0963195 0
M  V30 7669 H 694.899 -3.0767 -2.35409 0
M  V30 7670 H 695.313 -5.06175 -1.37431 0
M  V30 7671 H 696.787 -4.61692 -3.02563 0
M  V30 7672 H 697.264 -2.93765 -3.26495 0
M  V30 7673 H 697.87 -3.82938 -1.85036 0
M  V30 7674 N 696.185 0.383891 -1.52853 0
M  V30 7675 C 697.117 1.48889 -1.74255 0
M  V30 7676 C 698.13 1.50405 -0.623063 0
M  V30 7677 O 699.319 1.54215 -0.898887 0
M  V30 7678 C 696.419 2.87721 -1.79081 0
M  V30 7679 C 695.592 3.10111 -3.08464 0
M  V30 7680 C 694.651 4.28954 -3.0477 0
M  V30 7681 O 693.677 4.25012 -3.78621 0
M  V30 7682 N 694.879 5.35411 -2.24311 0
M  V30 7683 H 697.644 1.30915 -2.69595 0
M  V30 7684 H 695.205 0.573454 -1.51404 0
M  V30 7685 H 697.197 3.65333 -1.7411 0
M  V30 7686 H 695.767 2.99029 -0.911052 0
M  V30 7687 H 694.987 2.20319 -3.26884 0
M  V30 7688 H 696.275 3.21928 -3.94005 0
M  V30 7689 H 695.673 5.41471 -1.63787 0
M  V30 7690 H 694.23 6.1167 -2.25175 0
M  V30 7691 N 697.663 1.43903 0.642637 0
M  V30 7692 C 698.912 1.45362 1.39831 0
M  V30 7693 C 699.225 0.0856289 1.95412 0
M  V30 7694 O 700.431 -0.0222856 2.71491 0
M  V30 7695 C 698.887 2.55857 2.53111 0
M  V30 7696 C 698.495 3.98811 2.04092 0
M  V30 7697 C 700.239 2.66524 3.30402 0
M  V30 7698 C 698.146 5.00751 3.14647 0
M  V30 7699 H 697.076 0.540777 0.52543 0
M  V30 7700 H 699.727 1.69929 0.692559 0
M  V30 7701 H 698.109 2.2451 3.26207 0
M  V30 7702 H 699.283 4.3967 1.37938 0
M  V30 7703 H 697.598 3.92284 1.39651 0
M  V30 7704 H 700.195 3.39858 4.12796 0
M  V30 7705 H 700.538 1.71949 3.79129 0
M  V30 7706 H 701.071 2.97224 2.64392 0
M  V30 7707 H 697.81 5.96914 2.70876 0
M  V30 7708 H 697.33 4.64495 3.79479 0
M  V30 7709 H 699.009 5.23933 3.79609 0
M  V30 7710 N 699.141 -0.881989 1.30609 0
M  V30 7711 C 700.552 -1.44956 1.17664 0
M  V30 7712 C 700.903 -1.94945 -0.221531 0
M  V30 7713 O 700.028 -1.85257 -1.11844 0
M  V30 7714 C 700.623 -2.63474 2.12995 0
M  V30 7715 C 699.182 -3.16312 2.04019 0
M  V30 7716 C 698.329 -1.89008 2.02907 0
M  V30 7717 H 701.28 -0.691645 1.42835 0
M  V30 7718 H 701.301 -3.39783 1.71253 0
M  V30 7719 H 700.813 -2.2706 3.14746 0
M  V30 7720 H 698.914 -3.57376 1.0542 0
M  V30 7721 H 699.027 -3.79409 2.9255 0
M  V30 7722 H 697.391 -2.07465 1.47751 0
M  V30 7723 H 698.174 -1.54848 3.06394 0
M  V30 7724 N 700.619 -1.13374 -1.09472 0
M  V30 7725 C 701.549 -0.833268 -2.18126 0
M  V30 7726 C 702.53 0.207169 -1.68834 0
M  V30 7727 O 703.715 0.0662012 -1.94087 0
M  V30 7728 C 700.845 -0.297979 -3.46019 0
M  V30 7729 C 699.799 -1.27261 -4.08642 0
M  V30 7730 C 699.125 -0.597104 -5.31356 0
M  V30 7731 C 700.425 -2.63095 -4.51197 0
M  V30 7732 H 702.119 -1.74182 -2.43518 0
M  V30 7733 H 699.665 -0.838921 -1.17039 0
M  V30 7734 H 701.618 -0.0754444 -4.21332 0
M  V30 7735 H 700.342 0.645959 -3.20148 0
M  V30 7736 H 699.001 -1.48113 -3.35348 0
M  V30 7737 H 698.649 0.352293 -5.01765 0
M  V30 7738 H 698.349 -1.24734 -5.74208 0
M  V30 7739 H 699.873 -0.38384 -6.09392 0
M  V30 7740 H 701.287 -2.46214 -5.17737 0
M  V30 7741 H 699.684 -3.2429 -5.04932 0
M  V30 7742 H 700.754 -3.20793 -3.6362 0
M  V30 7743 N 702.098 1.27442 -0.927168 0
M  V30 7744 C 703.045 2.26863 -0.424459 0
M  V30 7745 C 704.015 1.5813 0.508346 0
M  V30 7746 O 705.2 1.85946 0.42762 0
M  V30 7747 C 702.34 3.43639 0.31718 0
M  V30 7748 C 701.453 4.27087 -0.649675 0
M  V30 7749 C 700.588 5.31082 0.111753 0
M  V30 7750 C 699.627 6.062 -0.847843 0
M  V30 7751 N 698.764 7.01999 -0.119074 0
M  V30 7752 H 703.604 2.69239 -1.27728 0
M  V30 7753 H 701.141 1.32394 -0.641106 0
M  V30 7754 H 703.099 4.10155 0.763486 0
M  V30 7755 H 701.729 3.02217 1.13424 0
M  V30 7756 H 700.781 3.60491 -1.21451 0
M  V30 7757 H 702.093 4.79242 -1.38307 0
M  V30 7758 H 701.247 6.03544 0.618 0
M  V30 7759 H 699.986 4.7973 0.878114 0
M  V30 7760 H 698.991 5.32577 -1.36534 0
M  V30 7761 H 700.216 6.59642 -1.61398 0
M  V30 7762 H 698.162 6.52977 0.629051 0
M  V30 7763 H 698.079 7.5184 -0.792046 0
M  V30 7764 H 699.347 7.78638 0.366537 0
M  V30 7765 N 703.576 0.692616 1.41565 0
M  V30 7766 C 704.506 0.0397325 2.33466 0
M  V30 7767 C 705.487 -0.770334 1.51657 0
M  V30 7768 O 706.672 -0.723903 1.80203 0
M  V30 7769 C 703.802 -0.899495 3.3545 0
M  V30 7770 C 702.756 -0.196738 4.27548 0
M  V30 7771 C 702.082 -1.25012 5.19881 0
M  V30 7772 C 703.382 0.935158 5.1386 0
M  V30 7773 H 705.076 0.807296 2.88311 0
M  V30 7774 H 702.622 0.389665 1.38628 0
M  V30 7775 H 704.575 -1.36545 3.98665 0
M  V30 7776 H 703.299 -1.69869 2.78948 0
M  V30 7777 H 701.958 0.249158 3.65752 0
M  V30 7778 H 701.606 -2.04177 4.59696 0
M  V30 7779 H 701.306 -0.784931 5.82334 0
M  V30 7780 H 702.83 -1.71665 5.85972 0
M  V30 7781 H 704.244 0.549619 5.70659 0
M  V30 7782 H 702.641 1.32726 5.85238 0
M  V30 7783 H 703.711 1.77613 4.512 0
M  V30 7784 N 705.054 -1.51416 0.437162 0
M  V30 7785 C 706.279 -2.0699 -0.130424 0
M  V30 7786 C 706.704 -1.30249 -1.35709 0
M  V30 7787 O 706.062 -0.340388 -1.78076 0
M  V30 7788 C 706.11 -3.5801 -0.43142 0
M  V30 7789 O 705.214 -3.8345 -1.5179 0
M  V30 7790 H 704.555 -0.663997 -0.00194339 0
M  V30 7791 H 707.085 -1.95029 0.618445 0
M  V30 7792 H 707.095 -4.02261 -0.681926 0
M  V30 7793 H 705.77 -4.13291 0.465137 0
M  V30 7794 H 704.347 -3.51062 -1.25737 0
M  V30 7795 N 706.532 -0.168513 -1.56696 0
M  V30 7796 C 707.462 0.758563 -2.20835 0
M  V30 7797 C 708.443 1.24121 -1.1631 0
M  V30 7798 O 709.628 1.29487 -1.4473 0
M  V30 7799 C 706.758 1.9892 -2.8469 0
M  V30 7800 C 705.712 1.64252 -3.95228 0
M  V30 7801 C 705.038 2.94757 -4.46119 0
M  V30 7802 C 706.338 0.872675 -5.14958 0
M  V30 7803 H 708.032 0.223953 -2.98561 0
M  V30 7804 H 705.578 0.106277 -1.43607 0
M  V30 7805 H 707.531 2.64275 -3.28233 0
M  V30 7806 H 706.255 2.5479 -2.04327 0
M  V30 7807 H 704.914 1.01266 -3.52336 0
M  V30 7808 H 704.562 3.48662 -3.62552 0
M  V30 7809 H 704.262 2.72316 -5.2069 0
M  V30 7810 H 705.786 3.61147 -4.92347 0
M  V30 7811 H 707.2 1.42875 -5.55211 0
M  V30 7812 H 705.597 0.747402 -5.95428 0
M  V30 7813 H 706.667 -0.131535 -4.84722 0
M  V30 7814 N 708.01 1.57248 0.105221 0
M  V30 7815 C 709.258 1.85204 0.808951 0
M  V30 7816 C 709.579 0.75574 1.7976 0
M  V30 7817 O 708.849 -0.218984 1.94672 0
M  V30 7818 H 707.429 0.683346 0.301739 0
M  V30 7819 H 710.091 1.94695 0.0892605 0
M  V30 7820 H 709.187 2.81595 1.34575 0
M  V30 7821 N 709.488 -0.375779 1.53054 0
M  V30 7822 C 710.736 -1.11727 1.68409 0
M  V30 7823 C 711.057 -1.90127 0.43323 0
M  V30 7824 O 710.327 -1.87945 -0.552595 0
M  V30 7825 H 708.907 -0.415451 0.620813 0
M  V30 7826 H 711.569 -0.424869 1.90213 0
M  V30 7827 H 710.665 -1.8128 2.54055 0
M  V30 7828 N 710.966 -1.44241 -0.634997 0
M  V30 7829 C 711.896 -1.53632 -1.7584 0
M  V30 7830 C 712.877 -0.389603 -1.65578 0
M  V30 7831 O 714.062 -0.609219 -1.84397 0
M  V30 7832 C 711.192 -1.47644 -3.14354 0
M  V30 7833 C 710.146 -2.60752 -3.394 0
M  V30 7834 C 709.472 -2.39817 -4.77904 0
M  V30 7835 C 710.772 -4.02921 -3.32343 0
M  V30 7836 H 712.466 -2.47662 -1.68238 0
M  V30 7837 H 710.012 -1.19197 -0.807969 0
M  V30 7838 H 711.965 -1.52815 -3.92716 0
M  V30 7839 H 710.689 -0.501284 -3.2273 0
M  V30 7840 H 709.348 -2.54965 -2.63417 0
M  V30 7841 H 708.996 -1.40502 -4.82978 0
M  V30 7842 H 708.696 -3.15649 -4.9562 0
M  V30 7843 H 710.22 -2.46799 -5.585 0
M  V30 7844 H 711.634 -4.10098 -4.00615 0
M  V30 7845 H 710.031 -4.78925 -3.61595 0
M  V30 7846 H 711.101 -4.26766 -2.30215 0
M  V30 7847 N 712.444 0.87505 -1.31075 0
M  V30 7848 C 713.374 1.99775 -1.20881 0
M  V30 7849 C 714.355 1.69822 -0.0971612 0
M  V30 7850 O 715.54 1.92158 -0.280895 0
M  V30 7851 C 712.67 3.35163 -0.910118 0
M  V30 7852 C 711.624 3.79406 -1.98078 0
M  V30 7853 C 710.95 5.12197 -1.53488 0
M  V30 7854 C 712.25 3.97061 -3.39323 0
M  V30 7855 H 713.944 2.08562 -2.14808 0
M  V30 7856 H 711.49 1.00207 -1.03415 0
M  V30 7857 H 713.443 4.13237 -0.825423 0
M  V30 7858 H 712.167 3.26536 0.064822 0
M  V30 7859 H 710.826 3.03568 -2.05528 0
M  V30 7860 H 710.474 5.00007 -0.547941 0
M  V30 7861 H 710.174 5.4277 -2.2511 0
M  V30 7862 H 711.698 5.92785 -1.46417 0
M  V30 7863 H 713.112 4.65545 -3.34576 0
M  V30 7864 H 711.509 4.39025 -4.09118 0
M  V30 7865 H 712.579 3.00601 -3.80483 0
M  V30 7866 N 713.922 1.13953 1.08869 0
M  V30 7867 C 714.854 0.779906 2.15523 0
M  V30 7868 C 715.867 -0.20102 1.61554 0
M  V30 7869 O 717.056 0.0200049 1.78489 0
M  V30 7870 C 714.156 0.136226 3.38626 0
M  V30 7871 C 713.329 1.15069 4.21993 0
M  V30 7872 C 712.388 0.531645 5.23507 0
M  V30 7873 O 711.414 1.19327 5.56552 0
M  V30 7874 N 712.616 -0.693734 5.7634 0
M  V30 7875 H 715.381 1.69769 2.46979 0
M  V30 7876 H 712.942 1.03331 1.24637 0
M  V30 7877 H 714.934 -0.290295 4.03658 0
M  V30 7878 H 713.504 -0.684603 3.05011 0
M  V30 7879 H 712.724 1.75431 3.53012 0
M  V30 7880 H 714.012 1.83614 4.74514 0
M  V30 7881 H 713.41 -1.24994 5.51718 0
M  V30 7882 H 711.967 -1.06283 6.43076 0
M  V30 7883 N 715.4 -1.26948 0.933913 0
M  V30 7884 C 716.811 -1.76058 0.621324 0
M  V30 7885 C 717.162 -1.76175 -0.863522 0
M  V30 7886 O 716.287 -1.36921 -1.67576 0
M  V30 7887 C 716.882 -3.19713 1.12111 0
M  V30 7888 C 715.441 -3.66465 0.859074 0
M  V30 7889 C 714.588 -2.46186 1.27624 0
M  V30 7890 H 717.539 -1.13127 1.11301 0
M  V30 7891 H 717.56 -3.77566 0.471608 0
M  V30 7892 H 717.072 -3.19596 2.20182 0
M  V30 7893 H 715.173 -3.72021 -0.207566 0
M  V30 7894 H 715.286 -4.55636 1.48098 0
M  V30 7895 H 713.65 -2.45042 0.694727 0
M  V30 7896 H 714.433 -2.48774 2.36572 0
M  V30 7897 N 716.879 -0.700114 -1.41195 0
M  V30 7898 C 717.789 -0.0382854 -2.34569 0
M  V30 7899 C 718.805 0.761036 -1.56474 0
M  V30 7900 O 719.981 0.697553 -1.88934 0
M  V30 7901 C 717.046 0.883522 -3.35253 0
M  V30 7902 C 716.107 0.0758957 -4.29233 0
M  V30 7903 C 715.34 0.9538 -5.25108 0
M  V30 7904 O 715.563 2.19326 -5.26547 0
M  V30 7905 O 714.497 0.401049 -6.00562 0
M  V30 7906 H 718.323 -0.808073 -2.92752 0
M  V30 7907 H 715.908 -0.460479 -1.42127 0
M  V30 7908 H 717.79 1.41199 -3.9704 0
M  V30 7909 H 716.465 1.63272 -2.79506 0
M  V30 7910 H 715.372 -0.497274 -3.7078 0
M  V30 7911 H 716.705 -0.634741 -4.8809 0
M  V30 7912 N 718.357 1.51182 -0.445186 0
M  V30 7913 C 719.304 2.27939 0.362291 0
M  V30 7914 C 720.274 1.31864 1.01 0
M  V30 7915 O 721.459 1.60776 1.02741 0
M  V30 7916 C 718.599 3.13016 1.45311 0
M  V30 7917 C 717.712 4.24093 0.822757 0
M  V30 7918 C 716.847 4.96467 1.88928 0
M  V30 7919 C 715.886 5.99454 1.23778 0
M  V30 7920 N 715.023 6.65206 2.24602 0
M  V30 7921 H 719.863 2.965 -0.29862 0
M  V30 7922 H 717.4 1.46237 -0.15911 0
M  V30 7923 H 719.358 3.60673 2.09692 0
M  V30 7924 H 717.988 2.46553 2.08354 0
M  V30 7925 H 717.04 3.80341 0.0670364 0
M  V30 7926 H 718.352 4.97853 0.307184 0
M  V30 7927 H 717.506 5.47712 2.60953 0
M  V30 7928 H 716.245 4.22355 2.4386 0
M  V30 7929 H 715.25 5.47494 0.503042 0
M  V30 7930 H 716.475 6.75527 0.695694 0
M  V30 7931 H 714.421 5.93901 2.78599 0
M  V30 7932 H 714.338 7.34756 1.77958 0
M  V30 7933 H 715.606 7.21078 2.96085 0
M  V30 7934 N 719.835 0.176821 1.56605 0
M  V30 7935 C 721.246 -0.338963 1.83597 0
M  V30 7936 C 721.597 -1.62677 1.09684 0
M  V30 7937 O 720.722 -2.13524 0.351661 0
M  V30 7938 C 721.317 -0.62177 3.33046 0
M  V30 7939 C 719.876 -1.08198 3.60514 0
M  V30 7940 C 719.023 -0.120774 2.77037 0
M  V30 7941 H 721.974 0.400978 1.53551 0
M  V30 7942 H 721.995 -1.47321 3.50823 0
M  V30 7943 H 721.507 0.315692 3.86814 0
M  V30 7944 H 719.608 -2.03435 3.12162 0
M  V30 7945 H 719.721 -0.987329 4.68816 0
M  V30 7946 H 718.085 -0.619192 2.47059 0
M  V30 7947 H 718.868 0.810806 3.33588 0
M  V30 7948 N 721.313 -1.57302 -0.09688 0
M  V30 7949 C 722.559 -1.86273 -0.801885 0
M  V30 7950 C 722.892 -0.765694 -1.78468 0
M  V30 7951 O 722.167 0.226495 -1.93177 0
M  V30 7952 C 722.45 -3.25876 -1.53221 0
M  V30 7953 C 722.303 -4.46205 -0.567529 0
M  V30 7954 C 723.622 -3.63352 -2.48321 0
M  V30 7955 H 720.741 -0.67752 -0.29006 0
M  V30 7956 H 723.383 -1.89887 -0.0655577 0
M  V30 7957 H 721.533 -3.22926 -2.15988 0
M  V30 7958 H 723.205 -4.6127 0.0529982 0
M  V30 7959 H 721.448 -4.33636 0.119233 0
M  V30 7960 H 722.119 -5.40608 -1.11564 0
M  V30 7961 H 724.595 -3.67234 -1.95648 0
M  V30 7962 H 723.471 -4.61968 -2.9644 0
M  V30 7963 H 723.732 -2.91941 -3.31998 0
M  V30 7964 N 722.791 0.367657 -1.53252 0
M  V30 7965 C 724.037 1.11216 -1.69584 0
M  V30 7966 C 724.37 1.89026 -0.445269 0
M  V30 7967 O 723.645 1.86342 0.557404 0
M  V30 7968 C 723.928 2.07308 -2.94441 0
M  V30 7969 C 723.781 1.3312 -4.2965 0
M  V30 7970 C 725.1 3.07459 -3.14892 0
M  V30 7971 H 722.219 0.40294 -0.617096 0
M  V30 7972 H 724.861 0.393201 -1.85887 0
M  V30 7973 H 723.011 2.68617 -2.80673 0
M  V30 7974 H 724.683 0.746111 -4.55226 0
M  V30 7975 H 722.926 0.633051 -4.29156 0
M  V30 7976 H 723.597 2.03443 -5.13142 0
M  V30 7977 H 726.073 2.56252 -3.27832 0
M  V30 7978 H 724.949 3.71919 -4.03693 0
M  V30 7979 H 725.21 3.77514 -2.30077 0
M  V30 7980 N 724.269 1.44576 0.627338 0
M  V30 7981 C 725.199 1.54562 1.75022 0
M  V30 7982 C 726.18 0.398378 1.65369 0
M  V30 7983 O 727.365 0.61899 1.84071 0
M  V30 7984 C 724.495 1.49309 3.13567 0
M  V30 7985 C 723.449 2.62549 3.38012 0
M  V30 7986 C 722.775 2.42348 4.76625 0
M  V30 7987 C 724.075 4.04678 3.30202 0
M  V30 7988 H 725.769 2.4855 1.66922 0
M  V30 7989 H 723.315 1.19624 0.801636 0
M  V30 7990 H 725.268 1.54895 3.919 0
M  V30 7991 H 723.992 0.518392 3.2246 0
M  V30 7992 H 722.651 2.56358 2.62061 0
M  V30 7993 H 722.299 1.43062 4.82226 0
M  V30 7994 H 721.999 3.18273 4.93939 0
M  V30 7995 H 723.523 2.49758 5.57183 0
M  V30 7996 H 724.937 4.12217 3.98435 0
M  V30 7997 H 723.334 4.80836 3.5905 0
M  V30 7998 H 724.404 4.2798 2.27949 0
M  V30 7999 N 725.747 -0.868086 1.31537 0
M  V30 8000 C 726.694 -1.97548 1.19346 0
M  V30 8001 C 727.664 -1.65913 0.0787922 0
M  V30 8002 O 728.849 -1.89129 0.251985 0
M  V30 8003 C 725.989 -3.32922 0.908692 0
M  V30 8004 C 725.102 -3.77141 2.10687 0
M  V30 8005 C 724.237 -5.01241 1.75873 0
M  V30 8006 C 723.276 -5.37914 2.92088 0
M  V30 8007 N 722.413 -6.53192 2.57457 0
M  V30 8008 H 727.253 -2.07307 2.14074 0
M  V30 8009 H 724.79 -1.01483 1.06487 0
M  V30 8010 H 726.748 -4.10867 0.724138 0
M  V30 8011 H 725.378 -3.228 -0.0017611 0
M  V30 8012 H 724.43 -2.94961 2.40213 0
M  V30 8013 H 725.742 -4.00248 2.97663 0
M  V30 8014 H 724.896 -5.86858 1.53891 0
M  V30 8015 H 723.635 -4.80041 0.86091 0
M  V30 8016 H 722.64 -4.50814 3.14717 0
M  V30 8017 H 723.865 -5.61077 3.82582 0
M  V30 8018 H 721.811 -6.33536 1.702 0
M  V30 8019 H 721.728 -6.76252 3.37963 0
M  V30 8020 H 722.996 -7.41997 2.38873 0
M  V30 8021 N 727.225 -1.14528 -1.08264 0
M  V30 8022 C 728.471 -0.91576 -1.80947 0
M  V30 8023 C 728.804 0.55623 -1.86064 0
M  V30 8024 O 728.079 1.41207 -1.33756 0
M  V30 8025 C 728.362 -1.51917 -3.26486 0
M  V30 8026 C 728.215 -3.06111 -3.2957 0
M  V30 8027 C 729.534 -1.19724 -4.23502 0
M  V30 8028 H 726.653 -0.334113 -0.656915 0
M  V30 8029 H 729.295 -1.41547 -1.26746 0
M  V30 8030 H 727.445 -1.0942 -3.72773 0
M  V30 8031 H 729.117 -3.57448 -2.91597 0
M  V30 8032 H 727.36 -3.40483 -2.688 0
M  V30 8033 H 728.031 -3.43438 -4.32151 0
M  V30 8034 H 730.507 -1.56467 -3.85561 0
M  V30 8035 H 729.383 -1.64575 -5.23647 0
M  V30 8036 H 729.644 -0.112771 -4.41956 0
M  V30 8037 N 728.703 1.26451 -0.940633 0
M  V30 8038 C 729.613 2.30128 -0.455881 0
M  V30 8039 C 730.629 1.67536 0.469867 0
M  V30 8040 O 731.805 1.98344 0.349529 0
M  V30 8041 C 728.87 3.45634 0.271648 0
M  V30 8042 C 727.931 4.23709 -0.690594 0
M  V30 8043 C 727.164 5.337 0.00231047 0
M  V30 8044 O 727.387 5.57215 1.21935 0
M  V30 8045 O 726.321 5.98091 -0.676111 0
M  V30 8046 H 730.147 2.73655 -1.31707 0
M  V30 8047 H 727.732 1.3164 -0.706497 0
M  V30 8048 H 729.614 4.15853 0.681486 0
M  V30 8049 H 728.289 3.04138 1.10824 0
M  V30 8050 H 727.196 3.55974 -1.15037 0
M  V30 8051 H 728.529 4.68953 -1.49478 0
M  V30 8052 N 730.181 0.707592 1.40822 0
M  V30 8053 C 731.406 0.251626 2.05868 0
M  V30 8054 C 731.831 -1.09503 1.5294 0
M  V30 8055 O 731.189 -1.68806 0.661385 0
M  V30 8056 C 731.237 0.23287 3.59847 0
M  V30 8057 O 730.341 -0.788477 4.04792 0
M  V30 8058 H 729.682 0.119936 0.653078 0
M  V30 8059 H 732.212 0.96583 1.80369 0
M  V30 8060 H 732.222 0.0678204 4.07944 0
M  V30 8061 H 730.897 1.21565 3.97737 0
M  V30 8062 H 729.474 -0.591802 3.68174 0
M  V30 8063 N 731.66 -1.50943 0.453197 0
M  V30 8064 C 733.076 -1.59245 0.106342 0
M  V30 8065 C 733.276 -1.46287 -1.38572 0
M  V30 8066 O 732.332 -1.31219 -2.15726 0
M  V30 8067 C 733.645 -2.93797 0.640595 0
M  V30 8068 C 735.193 -3.07148 0.602435 0
M  V30 8069 C 735.668 -4.44247 1.11393 0
M  V30 8070 N 737.159 -4.50611 1.07258 0
M  V30 8071 C 737.894 -5.55049 1.43905 0
M  V30 8072 N 737.39 -6.66828 1.87914 0
M  V30 8073 N 739.183 -5.45494 1.35621 0
M  V30 8074 H 731.334 -1.5761 1.42382 0
M  V30 8075 H 733.597 -0.74384 0.587713 0
M  V30 8076 H 733.303 -3.087 1.68515 0
M  V30 8077 H 733.177 -3.77127 0.0742272 0
M  V30 8078 H 735.564 -2.91903 -0.433171 0
M  V30 8079 H 735.645 -2.25619 1.20539 0
M  V30 8080 H 735.289 -4.60239 2.14808 0
M  V30 8081 H 735.219 -5.2434 0.487353 0
M  V30 8082 H 737.71 -3.70391 0.749585 0
M  V30 8083 H 738.023 -7.42558 2.14072 0
M  V30 8084 H 736.368 -6.67995 1.91853 0
M  V30 8085 H 739.559 -4.57053 1.01093 0
M  V30 8086 H 739.732 -6.2677 1.64508 0
M  V30 8087 N 733.138 -0.185124 -1.56509 0
M  V30 8088 C 734.415 0.503348 -1.89013 0
M  V30 8089 C 734.795 1.80349 -1.09715 0
M  V30 8090 O 734.143 2.27665 -0.195203 0
M  V30 8091 C 734.353 0.731839 -3.41241 0
M  V30 8092 C 735.701 1.05568 -4.11267 0
M  V30 8093 O 736.725 0.819906 -3.46635 0
M  V30 8094 O 735.584 1.50116 -5.25478 0
M  V30 8095 H 732.678 0.261139 -0.784688 0
M  V30 8096 H 735.224 -0.224592 -1.68207 0
M  V30 8097 H 733.996 -0.18672 -3.90854 0
M  V30 8098 H 733.619 1.5126 -3.67704 0
M  V30 8099 N 734.616 1.57351 0.0885366 0
M  V30 8100 C 735.864 1.86051 0.789262 0
M  V30 8101 C 736.185 0.774763 1.78948 0
M  V30 8102 O 735.455 -0.198324 1.94894 0
M  V30 8103 H 734.035 0.686508 0.294475 0
M  V30 8104 H 736.697 1.94779 0.0686055 0
M  V30 8105 H 735.793 2.83007 1.31581 0
M  V30 8106 N 736.094 -0.359525 1.53444 0
M  V30 8107 C 737.322 -1.12198 1.73837 0
M  V30 8108 C 737.737 -1.82854 0.470107 0
M  V30 8109 O 737.094 -1.73781 -0.557349 0
M  V30 8110 C 737.145 -2.14769 2.90786 0
M  V30 8111 O 736.866 -1.46989 4.12706 0
M  V30 8112 C 738.367 -3.03514 3.231 0
M  V30 8113 H 735.587 -0.33524 0.581253 0
M  V30 8114 H 738.131 -0.416598 2.00212 0
M  V30 8115 H 736.286 -2.80896 2.66788 0
M  V30 8116 H 736.7 -2.15378 4.78239 0
M  V30 8117 H 738.174 -3.71453 4.08322 0
M  V30 8118 H 738.651 -3.68658 2.38721 0
M  V30 8119 H 739.257 -2.42996 3.49046 0
M  V30 8120 N 737.572 -1.44907 -0.619662 0
M  V30 8121 C 738.818 -1.48512 -1.38102 0
M  V30 8122 C 739.151 -0.121686 -1.93818 0
M  V30 8123 O 738.426 0.862256 -1.74343 0
M  V30 8124 C 738.709 -2.55469 -2.53787 0
M  V30 8125 C 738.562 -4.01212 -2.03345 0
M  V30 8126 C 739.881 -2.58821 -3.55949 0
M  V30 8127 H 737 -0.540712 -0.500799 0
M  V30 8128 H 739.642 -1.7665 -0.69962 0
M  V30 8129 H 737.792 -2.31606 -3.11915 0
M  V30 8130 H 739.464 -4.36245 -1.49959 0
M  V30 8131 H 737.707 -4.12443 -1.34438 0
M  V30 8132 H 738.378 -4.71717 -2.86683 0
M  V30 8133 H 740.854 -2.80172 -3.07641 0
M  V30 8134 H 739.73 -3.35542 -4.34399 0
M  V30 8135 H 739.991 -1.63451 -4.10775 0
M  V30 8136 N 739.05 0.861098 -1.31996 0
M  V30 8137 C 740.275 1.65264 -1.2531 0
M  V30 8138 C 740.7 1.87265 0.177007 0
M  V30 8139 O 740.058 1.4208 1.12619 0
M  V30 8140 C 740.106 2.99284 -2.0115 0
M  V30 8141 O 739.21 3.89508 -1.3549 0
M  V30 8142 H 738.551 0.50409 -0.432192 0
M  V30 8143 H 741.081 1.07297 -1.74208 0
M  V30 8144 H 741.091 3.49154 -2.11081 0
M  V30 8145 H 739.766 2.82591 -3.05148 0
M  V30 8146 H 738.343 3.47966 -1.34066 0
M  V30 8147 N 740.528 1.15101 1.07655 0
M  V30 8148 C 741.776 0.922149 1.79836 0
M  V30 8149 C 742.097 -0.552346 1.87014 0
M  V30 8150 O 741.367 -1.40145 1.3688 0
M  V30 8151 H 739.947 0.338182 0.666064 0
M  V30 8152 H 742.609 1.45107 1.30115 0
M  V30 8153 H 741.705 1.32883 2.82398 0
M  V30 8154 N 742.006 -1.2595 0.947325 0
M  V30 8155 C 742.969 -2.24407 0.466285 0
M  V30 8156 C 743.969 -1.55054 -0.426005 0
M  V30 8157 O 745.159 -1.7275 -0.224319 0
M  V30 8158 C 742.291 -3.39326 -0.327201 0
M  V30 8159 H 743.484 -2.68477 1.33642 0
M  V30 8160 H 741.037 -1.38211 0.729887 0
M  V30 8161 H 741.772 -3.00667 -1.21532 0
M  V30 8162 H 741.557 -3.9085 0.312839 0
M  V30 8163 H 743.047 -4.12455 -0.653477 0
M  V30 8164 O 743.523 -0.8533 -1.37117 0
M  V30 8165 H 744.214 -0.44662 -1.88481 0
M  V30 END ATOM
M  V30 BEGIN BOND
M  V30 END BOND
M  V30 END CTAB
M  END
$$$$
