drugbank_target|Q8NEY4 V-type proton ATPase subunit C 2 (DB01133)
 OpenBabel12092121233D

  0  0  0     0  0            999 V3000
M  V30 BEGIN CTAB
M  V30 COUNTS 6904 6970 0 0 0
M  V30 BEGIN ATOM
M  V30 1 H -0.908 1.98254 -0.117106 0
M  V30 2 N 0 1.576 0 0
M  V30 3 C 0.933 2.03868 1.02534 0
M  V30 4 C 1.911 0.928543 1.3348 0
M  V30 5 O 3.095 1.19667 1.45644 0
M  V30 6 C 0.222 2.43627 2.35294 0
M  V30 7 C -0.732 3.65373 2.2001 0
M  V30 8 S 0.101 5.13292 1.52614 0
M  V30 9 C 1.257 5.56322 2.86805 0
M  V30 10 H 1.49 2.90518 0.631377 0
M  V30 11 H -0.977 1.52953 0.210867 0
M  V30 12 H 0.981 2.67203 3.11629 0
M  V30 13 H -0.358 1.57376 2.7183 0
M  V30 14 H -1.165 3.90944 3.18086 0
M  V30 15 H -1.563 3.418 1.51819 0
M  V30 16 H 0.729 5.58782 3.83104 0
M  V30 17 H 1.672 6.56266 2.65933 0
M  V30 18 H 2.08 4.83886 2.90714 0
M  V30 19 N 1.4781 -0.272755 1.55222 0
M  V30 20 C 2.7031 -1.02683 1.80197 0
M  V30 21 C 3.1281 -1.79142 0.573551 0
M  V30 22 O 2.4861 -1.74917 -0.476849 0
M  V30 23 C 2.5341 -1.9609 3.02624 0
M  V30 24 O 1.6381 -3.04863 2.77727 0
M  V30 25 H 0.9791 -0.293557 0.595584 0
M  V30 26 H 3.5091 -0.30159 2.02365 0
M  V30 27 H 3.5191 -2.38039 3.31363 0
M  V30 28 H 2.1941 -1.39851 3.91682 0
M  V30 29 H 0.7711 -2.67228 2.60084 0
M  V30 30 N 2.9562 -1.48159 -0.537278 0
M  V30 31 C 3.8662 -1.64807 -1.6696 0
M  V30 32 C 4.8822 -0.530651 -1.65711 0
M  V30 33 O 6.0582 -0.800784 -1.84796 0
M  V30 34 C 3.1232 -1.67708 -3.03438 0
M  V30 35 C 2.1842 -2.91025 -3.156 0
M  V30 36 C 1.4172 -2.93778 -4.45567 0
M  V30 37 O 1.6402 -2.05153 -5.3223 0
M  V30 38 O 0.5742 -3.85868 -4.61941 0
M  V30 39 H 4.4002 -2.6066 -1.55853 0
M  V30 40 H 1.9852 -1.31475 -0.709549 0
M  V30 41 H 3.8672 -1.7218 -3.84619 0
M  V30 42 H 2.5422 -0.750278 -3.14885 0
M  V30 43 H 1.4492 -2.92089 -2.33741 0
M  V30 44 H 2.7822 -3.83065 -3.09066 0
M  V30 45 N 4.4343 0.785586 -1.36625 0
M  V30 46 C 5.6813 1.54362 -1.31067 0
M  V30 47 C 6.0093 1.94195 0.10893 0
M  V30 48 O 5.2643 1.63262 1.07908 0
M  V30 49 C 5.5633 2.83007 -2.1827 0
M  V30 50 C 5.2293 2.62294 -3.6676 0
M  V30 51 C 3.8913 2.56353 -4.0723 0
M  V30 52 C 6.2433 2.43371 -4.6089 0
M  V30 53 C 3.5713 2.29461 -5.39967 0
M  V30 54 C 5.9233 2.18005 -5.93849 0
M  V30 55 C 4.5873 2.105 -6.3344 0
M  V30 56 H 3.8573 0.564851 -0.479609 0
M  V30 57 H 6.5043 0.906028 -1.68711 0
M  V30 58 H 4.8093 3.51253 -1.73576 0
M  V30 59 H 6.5063 3.40817 -2.11292 0
M  V30 60 H 3.0963 2.67774 -3.34656 0
M  V30 61 H 7.2803 2.46959 -4.30494 0
M  V30 62 H 2.5363 2.22135 -5.69619 0
M  V30 63 H 6.7103 2.02359 -6.66351 0
M  V30 64 H 4.3373 1.89425 -7.36222 0
M  V30 65 N 5.9124 1.20967 1.01018 0
M  V30 66 C 7.1584 1.0353 1.7508 0
M  V30 67 C 7.5134 -0.42734 1.87594 0
M  V30 68 O 6.8064 -1.31298 1.3954 0
M  V30 69 C 7.0004 1.65997 3.16512 0
M  V30 70 C 6.8294 3.18184 3.17788 0
M  V30 71 C 5.5994 3.87198 3.24662 0
M  V30 72 C 7.7974 4.15334 3.03319 0
M  V30 73 N 5.7794 5.26618 3.15509 0
M  V30 74 C 7.1504 5.41472 3.02007 0
M  V30 75 C 9.2054 4.06449 2.87583 0
M  V30 76 C 7.9084 6.5975 2.86571 0
M  V30 77 C 9.9344 5.24357 2.73503 0
M  V30 78 C 9.2964 6.49404 2.72862 0
M  V30 79 H 5.3954 0.433137 0.651089 0
M  V30 80 H 7.9794 1.5324 1.20107 0
M  V30 81 H 6.1504 1.18863 3.69765 0
M  V30 82 H 7.8824 1.41816 3.79039 0
M  V30 83 H 4.6374 3.38093 3.31648 0
M  V30 84 H 5.0614 5.99626 3.14289 0
M  V30 85 H 9.7034 3.10573 2.86887 0
M  V30 86 H 7.4214 7.55792 2.86015 0
M  V30 87 H 11.0074 5.19299 2.62334 0
M  V30 88 H 9.8874 7.39105 2.62093 0
M  V30 89 N 7.3905 -1.2043 1.01659 0
M  V30 90 C 8.3205 -2.25466 0.607226 0
M  V30 91 C 9.3015 -1.65853 -0.377716 0
M  V30 92 O 10.4865 -1.92409 -0.263149 0
M  V30 93 C 7.6165 -3.47256 -0.0552949 0
M  V30 94 C 6.5705 -4.19462 0.850632 0
M  V30 95 C 5.8965 -5.34673 0.0538859 0
M  V30 96 C 7.1965 -4.75603 2.15868 0
M  V30 97 H 8.8905 -2.59962 1.48526 0
M  V30 98 H 6.4365 -1.2496 0.715605 0
M  V30 99 H 8.3895 -4.19917 -0.353233 0
M  V30 100 H 7.1135 -3.11924 -0.968045 0
M  V30 101 H 5.7725 -3.48667 1.13257 0
M  V30 102 H 5.4205 -4.95585 -0.860514 0
M  V30 103 H 5.1205 -5.83913 0.657192 0
M  V30 104 H 6.6445 -6.10138 -0.237598 0
M  V30 105 H 8.0585 -5.40083 1.92311 0
M  V30 106 H 6.4555 -5.3528 2.71284 0
M  V30 107 H 7.5255 -3.94346 2.82169 0
M  V30 108 N 8.8686 -0.792821 -1.36206 0
M  V30 109 C 10.1176 -0.363353 -1.984 0
M  V30 110 C 10.4306 1.07172 -1.63626 0
M  V30 111 O 11.6366 1.60362 -2.19081 0
M  V30 112 C 10.0926 -0.59872 -3.54885 0
M  V30 113 C 9.7006 -2.04543 -3.9858 0
M  V30 114 C 11.4446 -0.233926 -4.23855 0
M  V30 115 C 9.3516 -2.22727 -5.47856 0
M  V30 116 H 8.2816 -0.13212 -0.742334 0
M  V30 117 H 10.9326 -0.974935 -1.55458 0
M  V30 118 H 9.3146 0.0826222 -3.95914 0
M  V30 119 H 10.4886 -2.76345 -3.68741 0
M  V30 120 H 8.8036 -2.36879 -3.42458 0
M  V30 121 H 11.4006 -0.348027 -5.33566 0
M  V30 122 H 11.7436 0.818351 -4.08177 0
M  V30 123 H 12.2766 -0.868639 -3.882 0
M  V30 124 H 9.0156 -3.2635 -5.68486 0
M  V30 125 H 8.5356 -1.55434 -5.7931 0
M  V30 126 H 10.2146 -2.03607 -6.14128 0
M  V30 127 N 10.3467 1.47872 -0.545128 0
M  V30 128 C 11.5717 2.07391 -0.0190611 0
M  V30 129 C 11.9967 1.39688 1.25971 0
M  V30 130 O 11.3547 0.467816 1.7516 0
M  V30 131 C 11.4027 3.60188 0.172335 0
M  V30 132 O 10.5067 3.9339 1.23766 0
M  V30 133 H 9.8477 0.662411 -0.0459059 0
M  V30 134 H 12.3777 1.90066 -0.757365 0
M  V30 135 H 12.3877 4.06129 0.390305 0
M  V30 136 H 11.0627 4.08865 -0.761725 0
M  V30 137 H 9.6397 3.5921 1.00114 0
M  V30 138 N 11.8248 0.280983 1.55075 0
M  V30 139 C 12.7878 -0.590896 2.21452 0
M  V30 140 C 13.7878 -1.07682 1.19421 0
M  V30 141 O 14.9778 -0.97605 1.44288 0
M  V30 142 C 12.1098 -1.81587 2.88511 0
M  V30 143 H 13.3028 -0.0112554 2.99898 0
M  V30 144 H 10.8558 0.0316438 1.56268 0
M  V30 145 H 11.5908 -2.43587 2.14093 0
M  V30 146 H 11.3758 -1.4753 3.63287 0
M  V30 147 H 12.8658 -2.43575 3.39206 0
M  V30 148 N 13.3029 -1.57598 0.00835791 0
M  V30 149 C 14.7139 -1.7892 -0.53333 0
M  V30 150 C 15.0649 -0.916609 -1.73473 0
M  V30 151 O 14.1899 -0.121336 -2.1606 0
M  V30 152 C 14.7849 -3.24488 -0.974313 0
M  V30 153 C 13.3439 -3.46878 -1.46125 0
M  V30 154 C 12.4909 -2.74157 -0.416302 0
M  V30 155 H 15.4419 -1.56958 0.234495 0
M  V30 156 H 15.4629 -3.3306 -1.83988 0
M  V30 157 H 14.9749 -3.87972 -0.099718 0
M  V30 158 H 13.0759 -2.8862 -2.35646 0
M  V30 159 H 13.1889 -4.55572 -1.48295 0
M  V30 160 H 11.5529 -2.39022 -0.87981 0
M  V30 161 H 12.3359 -3.40345 0.44947 0
M  V30 162 N 14.781 0.264519 -1.55364 0
M  V30 163 C 16.029 0.993021 -1.76021 0
M  V30 164 C 16.35 1.86511 -0.569099 0
M  V30 165 O 15.62 1.91438 0.415735 0
M  V30 166 H 14.2 0.369639 -0.649135 0
M  V30 167 H 16.862 0.286707 -1.9278 0
M  V30 168 H 15.958 1.62502 -2.66457 0
M  V30 169 N 16.2591 1.48442 0.529413 0
M  V30 170 C 17.5361 1.46978 1.29062 0
M  V30 171 C 17.9161 0.181769 2.10316 0
M  V30 172 O 17.2641 -0.836481 2.12639 0
M  V30 173 C 17.4741 2.7321 2.17157 0
M  V30 174 C 18.8221 3.21562 2.77278 0
M  V30 175 O 19.8461 2.74131 2.27444 0
M  V30 176 O 18.7051 4.04094 3.67927 0
M  V30 177 H 15.7991 0.587003 0.582543 0
M  V30 178 H 18.3451 1.60676 0.546021 0
M  V30 179 H 17.1171 3.58465 1.56903 0
M  V30 180 H 16.7401 2.62235 2.98862 0
M  V30 181 N 17.7372 -0.778329 1.37039 0
M  V30 182 C 18.6842 -1.89139 1.32269 0
M  V30 183 C 19.6542 -1.65017 0.189387 0
M  V30 184 O 20.8392 -1.87024 0.377693 0
M  V30 185 C 17.9792 -3.26112 1.12894 0
M  V30 186 C 17.0922 -3.62233 2.35396 0
M  V30 187 C 16.2272 -4.8838 2.08946 0
M  V30 188 C 15.2662 -5.17212 3.2735 0
M  V30 189 N 14.4032 -6.34546 3.00492 0
M  V30 190 H 19.2432 -1.92552 2.27437 0
M  V30 191 H 16.7802 -0.941473 1.13025 0
M  V30 192 H 18.7382 -4.05116 0.996835 0
M  V30 193 H 17.3682 -3.22091 0.213758 0
M  V30 194 H 16.4202 -2.78265 2.5937 0
M  V30 195 H 17.7322 -3.79481 3.23721 0
M  V30 196 H 16.8862 -5.75274 1.92729 0
M  V30 197 H 15.6252 -4.73222 1.17949 0
M  V30 198 H 14.6302 -4.28796 3.44113 0
M  V30 199 H 15.8552 -5.34283 4.19188 0
M  V30 200 H 13.8012 -6.20759 2.12118 0
M  V30 201 H 13.7182 -6.52179 3.82358 0
M  V30 202 H 14.9862 -7.24394 2.87879 0
M  V30 203 N 19.2153 -1.21501 -1.00376 0
M  V30 204 C 20.1253 -0.991447 -2.12621 0
M  V30 205 C 21.1413 0.0568446 -1.73907 0
M  V30 206 O 22.3173 -0.13348 -2.00957 0
M  V30 207 C 19.3823 -0.560312 -3.42142 0
M  V30 208 C 18.4433 -1.68096 -3.95022 0
M  V30 209 C 17.6763 -1.2703 -5.18362 0
M  V30 210 O 17.8993 -0.144438 -5.70217 0
M  V30 211 O 16.8333 -2.08269 -5.64719 0
M  V30 212 H 20.6593 -1.93158 -2.34358 0
M  V30 213 H 18.2443 -0.999999 -1.10997 0
M  V30 214 H 20.1263 -0.329724 -4.20108 0
M  V30 215 H 18.8013 0.351089 -3.2179 0
M  V30 216 H 17.7083 -1.96597 -3.18278 0
M  V30 217 H 19.0413 -2.56983 -4.19786 0
M  V30 218 N 20.6934 1.19889 -1.02296 0
M  V30 219 C 21.6414 2.24938 -0.592081 0
M  V30 220 C 22.6354 1.65257 0.372357 0
M  V30 221 O 23.8414 1.78371 0.241583 0
M  V30 222 H 20.2164 0.731787 -0.173182 0
M  V30 223 H 22.1874 2.58603 -1.48885 0
M  V30 224 C 20.9364 3.47668 0.047351 0
M  V30 225 H 20.2594 3.93875 -0.685772 0
M  V30 226 H 21.6994 4.22852 0.311862 0
M  V30 227 C 20.1584 3.11136 1.29212 0
M  V30 228 O 20.6884 3.2325 2.38479 0
M  V30 229 N 18.8944 2.65625 1.17863 0
M  V30 230 H 18.4414 2.55968 0.289493 0
M  V30 231 H 18.3994 2.41553 2.01245 0
M  V30 232 N 22.1715 0.800033 1.35784 0
M  V30 233 C 23.1015 0.220184 2.3246 0
M  V30 234 C 24.0825 -0.65073 1.57161 0
M  V30 235 O 25.2675 -0.582359 1.85263 0
M  V30 236 C 22.3975 -0.637353 3.41402 0
M  V30 237 C 21.3515 0.134531 4.27789 0
M  V30 238 C 20.6775 -0.844285 5.27992 0
M  V30 239 C 21.9775 1.32979 5.05088 0
M  V30 240 H 23.6715 1.02787 2.81203 0
M  V30 241 H 21.2175 0.495717 1.35199 0
M  V30 242 H 23.1705 -1.05302 4.08031 0
M  V30 243 H 21.8945 -1.47785 2.91251 0
M  V30 244 H 20.5535 0.531296 3.6273 0
M  V30 245 H 20.2015 -1.68011 4.74111 0
M  V30 246 H 19.9015 -0.332184 5.8666 0
M  V30 247 H 21.4255 -1.2583 5.97494 0
M  V30 248 H 22.8395 0.98934 5.64699 0
M  V30 249 H 21.2365 1.77593 5.7322 0
M  V30 250 H 22.3065 2.11978 4.36111 0
M  V30 251 N 23.6496 -1.47581 0.552962 0
M  V30 252 C 24.5816 -2.27997 -0.234533 0
M  V30 253 C 25.5946 -1.36753 -0.883321 0
M  V30 254 O 26.7836 -1.61612 -0.757889 0
M  V30 255 C 23.8836 -3.10879 -1.34935 0
M  V30 256 C 23.0566 -4.30056 -0.798158 0
M  V30 257 C 22.1156 -4.94567 -1.79694 0
M  V30 258 O 21.1416 -5.53087 -1.34474 0
M  V30 259 N 22.3436 -4.88878 -3.13015 0
M  V30 260 H 25.1086 -2.96222 0.455255 0
M  V30 261 H 22.6696 -1.57163 0.388761 0
M  V30 262 H 24.6616 -3.50903 -2.01616 0
M  V30 263 H 23.2316 -2.44924 -1.94244 0
M  V30 264 H 22.4516 -3.94174 0.0453079 0
M  V30 265 H 23.7396 -5.07152 -0.409173 0
M  V30 266 H 23.1376 -4.42526 -3.52402 0
M  V30 267 H 21.6946 -5.32934 -3.75266 0
M  V30 268 N 25.1277 -0.289203 -1.54924 0
M  V30 269 C 26.0907 0.579144 -2.21762 0
M  V30 270 C 27.0907 1.07047 -1.1999 0
M  V30 271 O 28.2807 0.968384 -1.44803 0
M  V30 272 C 25.4127 1.80055 -2.8947 0
M  V30 273 H 26.6057 -0.00464908 -2.999 0
M  V30 274 H 24.1587 -0.0399306 -1.56249 0
M  V30 275 H 24.8937 2.42449 -2.15381 0
M  V30 276 H 24.6787 1.45602 -3.64064 0
M  V30 277 H 26.1687 2.41773 -3.40493 0
M  V30 278 N 26.6058 1.57591 -0.0167156 0
M  V30 279 C 27.5358 2.12496 0.967858 0
M  V30 280 C 28.5168 1.03807 1.34752 0
M  V30 281 O 29.7018 1.31577 1.42833 0
M  V30 282 C 26.8318 2.64194 2.25431 0
M  V30 283 C 25.7858 3.77559 2.01576 0
M  V30 284 C 25.1118 4.15636 3.36379 0
M  V30 285 C 26.4118 5.04151 1.36489 0
M  V30 286 H 28.1058 2.95013 0.510643 0
M  V30 287 H 25.6518 1.41915 0.244181 0
M  V30 288 H 27.6048 3.01236 2.94678 0
M  V30 289 H 26.3288 1.78821 2.73296 0
M  V30 290 H 24.9878 3.40937 1.34751 0
M  V30 291 H 24.6358 3.27263 3.81979 0
M  V30 292 H 24.3358 4.92022 3.21229 0
M  V30 293 H 25.8598 4.5525 4.06915 0
M  V30 294 H 27.2738 5.38857 1.95718 0
M  V30 295 H 25.6708 5.85453 1.31776 0
M  V30 296 H 26.7408 4.83733 0.336219 0
M  V30 297 N 28.0839 -0.256276 1.55502 0
M  V30 298 C 28.9939 -1.33882 1.92647 0
M  V30 299 C 30.0099 -1.53159 0.825727 0
M  V30 300 O 31.1859 -1.66963 1.12629 0
M  V30 301 C 28.2509 -2.6751 2.20543 0
M  V30 302 C 27.3119 -2.56836 3.43997 0
M  V30 303 C 26.5449 -3.84092 3.70553 0
M  V30 304 O 26.7679 -4.85545 2.99336 0
M  V30 305 O 25.7019 -3.83288 4.64084 0
M  V30 306 H 29.5279 -1.05374 2.84833 0
M  V30 307 H 27.1129 -0.456237 1.42263 0
M  V30 308 H 28.9949 -3.46492 2.39835 0
M  V30 309 H 27.6699 -2.9577 1.31536 0
M  V30 310 H 26.5769 -1.76172 3.30021 0
M  V30 311 H 27.9099 -2.33523 4.33275 0
M  V30 312 N 29.562 -1.4872 -0.521534 0
M  V30 313 C 30.978 -1.35028 -0.850855 0
M  V30 314 C 31.178 -0.367712 -1.98116 0
M  V30 315 O 30.234 0.208037 -2.51642 0
M  V30 316 C 31.547 -2.75263 -1.21041 0
M  V30 317 C 33.095 -2.83813 -1.31981 0
M  V30 318 C 33.57 -4.24769 -1.71276 0
M  V30 319 N 35.061 -4.27482 -1.78363 0
M  V30 320 C 35.796 -5.33494 -2.1017 0
M  V30 321 N 35.292 -6.49775 -2.40343 0
M  V30 322 N 37.085 -5.20894 -2.11248 0
M  V30 323 H 29.236 -2.11214 0.22413 0
M  V30 324 H 31.499 -0.947252 0.0376439 0
M  V30 325 H 31.205 -3.48765 -0.453415 0
M  V30 326 H 31.079 -3.09327 -2.15863 0
M  V30 327 H 33.466 -2.10561 -2.06756 0
M  V30 328 H 33.547 -2.53358 -0.352596 0
M  V30 329 H 33.191 -4.9854 -0.970588 0
M  V30 330 H 33.121 -4.52673 -2.69062 0
M  V30 331 H 35.612 -3.43611 -1.57288 0
M  V30 332 H 35.925 -7.26402 -2.63743 0
M  V30 333 H 34.27 -6.53035 -2.37844 0
M  V30 334 H 37.461 -4.29065 -1.87139 0
M  V30 335 H 37.634 -6.03612 -2.35704 0
M  V30 336 N 31.0401 0.771051 -1.3745 0
M  V30 337 C 31.9731 1.89166 -1.27638 0
M  V30 338 C 32.9511 1.61842 -0.156782 0
M  V30 339 O 34.1351 1.85569 -0.331111 0
M  V30 340 C 31.2621 3.24405 -0.973621 0
M  V30 341 C 30.3081 3.70638 -2.1102 0
M  V30 342 S 31.1411 3.84228 -3.73 0
M  V30 343 C 32.2971 5.22313 -3.44876 0
M  V30 344 H 32.5301 1.972 -2.22485 0
M  V30 345 H 30.0631 0.932224 -1.23081 0
M  V30 346 H 32.0211 4.02514 -0.805766 0
M  V30 347 H 30.6821 3.14071 -0.0426279 0
M  V30 348 H 29.8751 4.68685 -1.85338 0
M  V30 349 H 29.4771 2.99632 -2.23822 0
M  V30 350 H 31.7691 6.07505 -2.99908 0
M  V30 351 H 32.7121 5.53008 -4.42253 0
M  V30 352 H 33.1201 4.90284 -2.79789 0
M  V30 353 N 32.5182 1.22032 0.997298 0
M  V30 354 C 33.4662 0.983634 2.10778 0
M  V30 355 C 34.4602 -0.0717564 1.69248 0
M  V30 356 O 35.6662 0.080304 1.79821 0
M  V30 357 H 32.0412 0.300877 0.689186 0
M  V30 358 H 34.0122 1.92606 2.27916 0
M  V30 359 C 32.7612 0.57326 3.42942 0
M  V30 360 H 32.0842 1.37702 3.75338 0
M  V30 361 H 33.5242 0.447031 4.21637 0
M  V30 362 C 31.9832 -0.7167 3.29188 0
M  V30 363 O 32.5132 -1.77027 3.60589 0
M  V30 364 N 30.7192 -0.686167 2.82383 0
M  V30 365 H 30.2662 0.171507 2.57028 0
M  V30 366 H 30.2242 -1.54955 2.73562 0
M  V30 367 N 33.9963 -1.19345 1.0293 0
M  V30 368 C 35.2243 -1.92997 0.745644 0
M  V30 369 C 35.6393 -1.75519 -0.695589 0
M  V30 370 O 34.9963 -1.07737 -1.47306 0
M  V30 371 C 35.0473 -3.44741 1.08792 0
M  V30 372 O 34.7683 -3.61658 2.47256 0
M  V30 373 C 36.2693 -4.35515 0.827129 0
M  V30 374 H 33.4893 -0.613042 0.272801 0
M  V30 375 H 36.0333 -1.51473 1.3739 0
M  V30 376 H 34.1883 -3.84097 0.504832 0
M  V30 377 H 34.6023 -4.55514 2.60015 0
M  V30 378 H 36.0763 -5.40589 1.11658 0
M  V30 379 H 36.5533 -4.38552 -0.238436 0
M  V30 380 H 37.1593 -4.01841 1.39297 0
M  V30 381 N 35.4744 -0.807222 -1.35358 0
M  V30 382 C 36.7204 -0.388463 -1.99045 0
M  V30 383 C 37.0534 1.04184 -1.63888 0
M  V30 384 O 36.3284 1.72292 -0.902535 0
M  V30 385 C 36.6114 -0.572783 -3.55515 0
M  V30 386 C 36.4644 -2.04807 -4.00468 0
M  V30 387 C 37.7834 0.00114064 -4.401 0
M  V30 388 H 34.9024 -0.142619 -0.723069 0
M  V30 389 H 37.5444 -1.01687 -1.60498 0
M  V30 390 H 35.6944 -0.0378425 -3.88482 0
M  V30 391 H 37.3664 -2.64544 -3.77908 0
M  V30 392 H 35.6094 -2.54427 -3.51353 0
M  V30 393 H 36.2804 -2.12792 -5.09337 0
M  V30 394 H 38.7564 -0.455716 -4.13597 0
M  V30 395 H 37.6324 -0.157737 -5.48673 0
M  V30 396 H 37.8934 1.09488 -4.28328 0
M  V30 397 N 36.9525 1.47285 -0.560781 0
M  V30 398 C 38.1805 2.06855 -0.0430262 0
M  V30 399 C 38.5955 1.41291 1.25229 0
M  V30 400 O 37.9525 0.510648 1.7521 0
M  V30 401 C 38.0035 3.61178 0.152518 0
M  V30 402 O 37.7245 4.24285 -1.0915 0
M  V30 403 C 39.2255 4.37624 0.707145 0
M  V30 404 H 36.4455 0.669319 -0.0474652 0
M  V30 405 H 38.9895 1.89237 -0.77521 0
M  V30 406 H 37.1445 3.78298 0.834843 0
M  V30 407 H 37.5585 5.16868 -0.891482 0
M  V30 408 H 39.0325 5.46271 0.793244 0
M  V30 409 H 39.5095 4.04152 1.71923 0
M  V30 410 H 40.1155 4.25257 0.0604027 0
M  V30 411 N 38.4306 0.297415 1.54768 0
M  V30 412 C 39.6556 -0.318435 2.04941 0
M  V30 413 C 40.0806 -1.4701 1.17345 0
M  V30 414 O 39.4386 -1.80436 0.176758 0
M  V30 415 C 39.4866 -0.755749 3.52592 0
M  V30 416 O 38.5906 -1.86088 3.68028 0
M  V30 417 H 37.9316 -0.062421 0.661059 0
M  V30 418 H 40.4616 0.438215 1.99852 0
M  V30 419 H 40.4716 -1.04552 3.94376 0
M  V30 420 H 39.1466 0.0867233 4.1581 0
M  V30 421 H 37.7236 -1.57193 3.38149 0
M  V30 422 N 39.9087 -1.5758 0.0250728 0
M  V30 423 C 40.8557 -2.09973 -0.958129 0
M  V30 424 C 41.8257 -1.00085 -1.3256 0
M  V30 425 O 43.0107 -1.27481 -1.41962 0
M  V30 426 C 40.1507 -2.62812 -2.2366 0
M  V30 427 C 39.2637 -3.86693 -1.92594 0
M  V30 428 C 38.3987 -4.27941 -3.14707 0
M  V30 429 C 37.4377 -5.44591 -2.79442 0
M  V30 430 N 36.5747 -5.81014 -3.94167 0
M  V30 431 H 41.4147 -2.937 -0.504428 0
M  V30 432 H 38.9517 -1.45172 -0.237392 0
M  V30 433 H 40.9097 -2.91536 -2.98434 0
M  V30 434 H 39.5397 -1.81922 -2.66654 0
M  V30 435 H 38.5917 -3.64723 -1.0808 0
M  V30 436 H 39.9037 -4.71547 -1.62619 0
M  V30 437 H 39.0577 -4.58079 -3.97804 0
M  V30 438 H 37.7967 -3.41845 -3.4784 0
M  V30 439 H 36.8017 -5.1415 -1.94755 0
M  V30 440 H 38.0267 -6.32382 -2.47528 0
M  V30 441 H 35.9727 -4.97874 -4.2715 0
M  V30 442 H 35.8897 -6.60498 -3.67801 0
M  V30 443 H 37.1577 -6.15756 -4.7798 0
M  V30 444 N 41.3868 0.248026 -1.55636 0
M  V30 445 C 42.6118 0.998028 -1.81808 0
M  V30 446 C 43.0368 1.78207 -0.601979 0
M  V30 447 O 42.3948 1.75653 0.448961 0
M  V30 448 C 42.4428 1.9125 -3.05705 0
M  V30 449 O 41.5468 3.00406 -2.82542 0
M  V30 450 H 40.8878 0.284045 -0.600179 0
M  V30 451 H 43.4178 0.269357 -2.02819 0
M  V30 452 H 43.4278 2.32737 -3.35108 0
M  V30 453 H 42.1028 1.33602 -3.93857 0
M  V30 454 H 40.6798 2.63056 -2.64303 0
M  V30 455 N 42.8649 1.48995 0.513639 0
M  V30 456 C 43.8129 1.65199 1.63744 0
M  V30 457 C 44.8069 0.51809 1.61283 0
M  V30 458 O 46.0129 0.697335 1.65943 0
M  V30 459 H 42.3879 0.52069 0.542574 0
M  V30 460 H 44.3589 2.59552 1.47226 0
M  V30 461 C 43.1079 1.72409 3.01945 0
M  V30 462 H 42.4309 2.59029 3.04539 0
M  V30 463 H 43.8709 1.87785 3.80148 0
M  V30 464 C 42.3299 0.46618 3.33659 0
M  V30 465 O 42.8599 -0.413744 3.99564 0
M  V30 466 N 41.0659 0.332931 2.88687 0
M  V30 467 H 40.6129 1.04996 2.35231 0
M  V30 468 H 40.5709 -0.507665 3.10274 0
M  V30 469 N 44.343 -0.763751 1.37857 0
M  V30 470 C 45.273 -1.89103 1.36975 0
M  V30 471 C 46.254 -1.68439 0.237152 0
M  V30 472 O 47.439 -1.8918 0.438713 0
M  V30 473 C 44.569 -3.26496 1.18395 0
M  V30 474 C 43.523 -3.61741 2.28751 0
M  V30 475 C 42.849 -4.97762 1.95286 0
M  V30 476 C 44.149 -3.67665 3.70972 0
M  V30 477 H 45.843 -1.90099 2.31307 0
M  V30 478 H 43.389 -0.91319 1.11341 0
M  V30 479 H 45.342 -4.05003 1.16406 0
M  V30 480 H 44.066 -3.25955 0.205215 0
M  V30 481 H 42.725 -2.85547 2.29909 0
M  V30 482 H 42.373 -4.93769 0.959221 0
M  V30 483 H 42.073 -5.22313 2.69189 0
M  V30 484 H 43.597 -5.7866 1.94898 0
M  V30 485 H 45.011 -4.36307 3.719 0
M  V30 486 H 43.408 -4.03718 4.43995 0
M  V30 487 H 44.478 -2.68134 4.0402 0
M  V30 488 N 45.8211 -1.22559 -0.990812 0
M  V30 489 C 47.0461 -1.07862 -1.77145 0
M  V30 490 C 47.4711 0.366447 -1.84496 0
M  V30 491 O 46.8291 1.26478 -1.29896 0
M  V30 492 C 46.8771 -1.69686 -3.18181 0
M  V30 493 O 45.9811 -0.951946 -4.01263 0
M  V30 494 H 45.3221 -0.378712 -0.545411 0
M  V30 495 H 47.8521 -1.62399 -1.2445 0
M  V30 496 H 47.8621 -1.74496 -3.68802 0
M  V30 497 H 46.5371 -2.74841 -3.12146 0
M  V30 498 H 45.1141 -0.980011 -3.59792 0
M  V30 499 N 47.2992 1.18797 -1.03562 0
M  V30 500 C 48.5292 1.92319 -0.754773 0
M  V30 501 C 48.9372 1.7612 0.691248 0
M  V30 502 O 48.2802 1.08491 1.48241 0
M  V30 503 C 48.3422 3.44284 -1.03484 0
M  V30 504 C 48.0062 3.84258 -2.47376 0
M  V30 505 C 49.0032 3.88459 -3.45537 0
M  V30 506 C 46.6882 4.15701 -2.81954 0
M  V30 507 C 48.6822 4.23545 -4.76328 0
M  V30 508 C 46.3692 4.50458 -4.12954 0
M  V30 509 C 47.3672 4.54356 -5.09951 0
M  V30 510 O 47.0552 4.88305 -6.38603 0
M  V30 511 H 46.7872 0.617527 -0.275021 0
M  V30 512 H 49.3412 1.51683 -1.38497 0
M  V30 513 H 47.5712 3.85135 -0.347513 0
M  V30 514 H 49.2602 3.99049 -0.7426 0
M  V30 515 H 50.0262 3.6431 -3.20162 0
M  V30 516 H 45.9052 4.11847 -2.0713 0
M  V30 517 H 49.4492 4.26502 -5.52035 0
M  V30 518 H 45.3462 4.74067 -4.38099 0
M  V30 519 H 46.1142 5.06227 -6.43177 0
M  V30 520 N 48.7773 0.814389 1.34928 0
M  V30 521 C 49.7253 0.218424 2.31572 0
M  V30 522 C 50.7193 -0.636128 1.57002 0
M  V30 523 O 51.9253 -0.52842 1.72069 0
M  V30 524 H 48.3003 0.0518799 0.750208 0
M  V30 525 H 50.2713 1.04852 2.79372 0
M  V30 526 C 49.0203 -0.61207 3.4227 0
M  V30 527 H 48.3433 0.0361578 3.99784 0
M  V30 528 H 49.7833 -0.995317 4.12152 0
M  V30 529 C 48.2423 -1.78087 2.85984 0
M  V30 530 O 48.7723 -2.8787 2.80168 0
M  V30 531 N 46.9783 -1.59488 2.42924 0
M  V30 532 H 46.5253 -0.701874 2.47854 0
M  V30 533 H 46.4833 -2.37846 2.05613 0
M  V30 534 N 50.2554 -1.46986 0.568584 0
M  V30 535 C 51.4834 -2.0683 0.0539956 0
M  V30 536 C 51.8984 -1.41953 -1.24478 0
M  V30 537 O 51.2554 -0.519933 -1.74937 0
M  V30 538 C 51.3064 -3.61254 -0.133362 0
M  V30 539 O 51.0274 -4.237 1.11399 0
M  V30 540 C 52.5284 -4.37992 -0.683927 0
M  V30 541 H 49.7484 -0.669058 0.0510141 0
M  V30 542 H 52.2924 -1.88824 0.785234 0
M  V30 543 H 50.4474 -3.78735 -0.81477 0
M  V30 544 H 50.8614 -5.16388 0.91888 0
M  V30 545 H 52.3354 -5.46684 -0.764263 0
M  V30 546 H 52.8124 -4.05058 -1.69778 0
M  V30 547 H 53.4184 -4.25283 -0.0378494 0
M  V30 548 N 51.7335 -0.305618 -1.54608 0
M  V30 549 C 52.6805 0.568421 -2.23691 0
M  V30 550 C 53.6505 1.12592 -1.22116 0
M  V30 551 O 54.8355 1.16959 -1.50749 0
M  V30 552 C 51.9755 1.7322 -2.98477 0
M  V30 553 C 51.0885 1.20566 -4.14835 0
M  V30 554 C 50.2235 2.33368 -4.77193 0
M  V30 555 C 49.2625 1.7787 -5.85686 0
M  V30 556 N 48.3995 2.84263 -6.4198 0
M  V30 557 H 53.2395 -0.0272867 -2.97988 0
M  V30 558 H 50.7765 -0.0252363 -1.47078 0
M  V30 559 H 52.7345 2.41675 -3.40072 0
M  V30 560 H 51.3645 2.29947 -2.26548 0
M  V30 561 H 50.4165 0.413223 -3.78149 0
M  V30 562 H 51.7285 0.759417 -4.92985 0
M  V30 563 H 50.8825 3.09761 -5.21664 0
M  V30 564 H 49.6215 2.8132 -3.98385 0
M  V30 565 H 48.6265 0.99968 -5.40635 0
M  V30 566 H 49.8515 1.30816 -6.66381 0
M  V30 567 H 47.7975 3.31541 -5.66053 0
M  V30 568 H 47.7145 2.44149 -7.15491 0
M  V30 569 H 48.9825 3.6054 -6.91109 0
M  V30 570 N 53.2116 1.57565 -0.0334293 0
M  V30 571 C 54.4586 1.91978 0.644272 0
M  V30 572 C 54.7866 0.910231 1.71887 0
M  V30 573 O 54.0416 -0.0801961 1.95536 0
M  V30 574 C 54.3406 3.33112 1.29504 0
M  V30 575 C 54.0066 4.49537 0.350388 0
M  V30 576 C 52.6686 4.81115 0.0903974 0
M  V30 577 C 55.0206 5.20347 -0.298032 0
M  V30 578 C 52.3486 5.8086 -0.825746 0
M  V30 579 C 54.7006 6.2107 -1.20226 0
M  V30 580 C 53.3646 6.51088 -1.4711 0
M  V30 581 H 52.6346 0.702496 0.235756 0
M  V30 582 H 55.2816 1.91259 -0.0961176 0
M  V30 583 H 53.5866 3.30113 2.11028 0
M  V30 584 H 55.2836 3.57011 1.82603 0
M  V30 585 H 51.8736 4.24883 0.563205 0
M  V30 586 H 56.0576 4.96178 -0.110234 0
M  V30 587 H 51.3136 6.02461 -1.04169 0
M  V30 588 H 55.4876 6.75057 -1.71086 0
M  V30 589 H 53.1146 7.28193 -2.18264 0
M  V30 590 N 54.6897 -0.239769 1.55765 0
M  V30 591 C 55.6527 -1.28038 1.90103 0
M  V30 592 C 56.6527 -1.40723 0.778055 0
M  V30 593 O 57.8427 -1.39301 1.04599 0
M  V30 594 C 54.9747 -2.65702 2.13577 0
M  V30 595 H 56.1677 -0.988048 2.83157 0
M  V30 596 H 53.7207 -0.479382 1.48767 0
M  V30 597 H 54.4557 -3.00063 1.23015 0
M  V30 598 H 54.2407 -2.57875 2.95369 0
M  V30 599 H 55.7307 -3.40828 2.41301 0
M  V30 600 N 56.1678 -1.49265 -0.50573 0
M  V30 601 C 57.4168 -1.57761 -1.25675 0
M  V30 602 C 57.7298 -0.267371 -1.93764 0
M  V30 603 O 58.9358 -0.230827 -2.70517 0
M  V30 604 C 57.3918 -2.78332 -2.28165 0
M  V30 605 C 56.9998 -4.16096 -1.66037 0
M  V30 606 C 58.7438 -2.96155 -3.04125 0
M  V30 607 C 56.6508 -5.27895 -2.6661 0
M  V30 608 H 55.5808 -0.587391 -0.472745 0
M  V30 609 H 58.2318 -1.75644 -0.53118 0
M  V30 610 H 56.6138 -2.53934 -3.03865 0
M  V30 611 H 57.7878 -4.50612 -0.963622 0
M  V30 612 H 56.1028 -4.03591 -1.02484 0
M  V30 613 H 58.6998 -3.76849 -3.79327 0
M  V30 614 H 59.0428 -2.06534 -3.61455 0
M  V30 615 H 59.5758 -3.2057 -2.35541 0
M  V30 616 H 56.3148 -6.1956 -2.14068 0
M  V30 617 H 55.8348 -4.97839 -3.34539 0
M  V30 618 H 57.5138 -5.57031 -3.29129 0
M  V30 619 N 57.6459 0.756429 -1.3826 0
M  V30 620 C 59.0569 1.33359 -1.30661 0
M  V30 621 C 59.4079 1.96161 0.0388875 0
M  V30 622 O 58.5329 1.94874 0.940918 0
M  V30 623 C 59.1279 2.42477 -2.36622 0
M  V30 624 C 57.6869 2.95922 -2.3261 0
M  V30 625 C 56.8339 1.69275 -2.19639 0
M  V30 626 H 59.7849 0.55552 -1.4866 0
M  V30 627 H 59.8059 3.22345 -2.02174 0
M  V30 628 H 59.3179 1.96739 -3.34538 0
M  V30 629 H 57.4189 3.45996 -1.38267 0
M  V30 630 H 57.5319 3.50494 -3.26636 0
M  V30 631 H 55.8959 1.92793 -1.66442 0
M  V30 632 H 56.6789 1.25619 -3.19491 0
M  V30 633 N 59.124 1.23083 0.984299 0
M  V30 634 C 60.401 0.9689 1.69917 0
M  V30 635 C 60.781 -0.513604 2.04757 0
M  V30 636 O 60.129 -1.48383 1.73767 0
M  V30 637 C 60.339 1.87518 2.94343 0
M  V30 638 C 61.687 2.13636 3.6694 0
M  V30 639 O 62.711 1.85036 3.04368 0
M  V30 640 O 61.57 2.62119 4.79537 0
M  V30 641 H 58.664 0.365095 0.742048 0
M  V30 642 H 61.21 1.34107 1.03987 0
M  V30 643 H 59.982 2.87756 2.65164 0
M  V30 644 H 59.605 1.50514 3.6801 0
M  V30 645 N 60.6021 -1.18246 1.0419 0
M  V30 646 C 61.8491 -1.88257 0.746017 0
M  V30 647 C 62.1771 -1.80429 -0.726331 0
M  V30 648 O 61.4321 -1.2 -1.54591 0
M  V30 649 C 61.7311 -3.38082 1.15911 0
M  V30 650 C 61.3971 -3.66114 2.63195 0
M  V30 651 C 60.0591 -3.73474 3.03432 0
M  V30 652 C 62.4111 -3.78398 3.5842 0
M  V30 653 C 59.7391 -3.90599 4.37778 0
M  V30 654 C 62.0911 -3.97039 4.92487 0
M  V30 655 C 60.7551 -4.02635 5.32392 0
M  V30 656 H 60.0251 -0.688883 0.272987 0
M  V30 657 H 62.6721 -1.3995 1.30715 0
M  V30 658 H 60.9771 -3.88377 0.516806 0
M  V30 659 H 62.6741 -3.90596 0.907516 0
M  V30 660 H 59.2641 -3.61003 2.3103 0
M  V30 661 H 63.4481 -3.72042 3.28479 0
M  V30 662 H 58.7041 -3.93175 4.68213 0
M  V30 663 H 62.8781 -4.05486 5.66175 0
M  V30 664 H 60.5051 -4.15657 6.36501 0
M  V30 665 N 62.0802 -0.821533 -1.34494 0
M  V30 666 C 63.0272 -0.240397 -2.29545 0
M  V30 667 C 63.9972 0.634031 -1.53523 0
M  V30 668 O 65.1822 0.575966 -1.81899 0
M  V30 669 C 62.3222 0.592869 -3.39969 0
M  V30 670 C 61.4352 -0.30365 -4.30932 0
M  V30 671 C 60.5702 0.539049 -5.28458 0
M  V30 672 C 59.6092 -0.356942 -6.11058 0
M  V30 673 N 58.7462 0.446603 -7.00678 0
M  V30 674 H 63.5862 -1.05632 -2.7865 0
M  V30 675 H 61.1232 -0.532413 -1.37127 0
M  V30 676 H 63.0812 1.09129 -4.02675 0
M  V30 677 H 61.7112 1.37392 -2.92102 0
M  V30 678 H 60.7632 -0.920276 -3.691 0
M  V30 679 H 62.0752 -0.992661 -4.88823 0
M  V30 680 H 61.2292 1.102 -5.96608 0
M  V30 681 H 59.9682 1.26157 -4.71101 0
M  V30 682 H 58.9732 -0.932047 -5.41842 0
M  V30 683 H 60.1982 -1.07755 -6.70497 0
M  V30 684 H 58.1442 1.15282 -6.45791 0
M  V30 685 H 58.0612 -0.184048 -7.55776 0
M  V30 686 H 59.3292 0.992352 -7.73158 0
M  V30 687 N 63.5583 1.46682 -0.576371 0
M  V30 688 C 64.8043 2.02712 -0.0596221 0
M  V30 689 C 65.1373 1.44765 1.29448 0
M  V30 690 O 64.4123 0.610355 1.84675 0
M  V30 691 C 64.6953 3.60098 0.0129503 0
M  V30 692 C 64.5483 4.28441 -1.3696 0
M  V30 693 C 65.8673 4.34224 0.71678 0
M  V30 694 H 62.9863 0.736637 -0.0231407 0
M  V30 695 H 65.6283 1.74898 -0.742351 0
M  V30 696 H 63.7783 3.83926 0.594378 0
M  V30 697 H 65.4503 4.15896 -1.9957 0
M  V30 698 H 63.6933 3.8805 -1.93907 0
M  V30 699 H 64.3643 5.3716 -1.27135 0
M  V30 700 H 66.8403 4.15503 0.222908 0
M  V30 701 H 65.7163 5.43936 0.73657 0
M  V30 702 H 65.9773 4.04823 1.77682 0
M  V30 703 N 65.0364 0.313813 1.54444 0
M  V30 704 C 66.2844 -0.291099 1.99993 0
M  V30 705 C 66.6054 -1.53418 1.20366 0
M  V30 706 O 65.8754 -1.93544 0.302927 0
M  V30 707 H 64.4554 -0.110552 0.738774 0
M  V30 708 H 67.1174 0.428106 1.9014 0
M  V30 709 H 66.2134 -0.554268 3.07139 0
M  V30 710 N 66.5145 -1.57545 0.0417849 0
M  V30 711 C 67.7425 -1.96624 -0.643928 0
M  V30 712 C 68.1575 -0.918897 -1.64929 0
M  V30 713 O 67.5145 0.0979323 -1.82237 0
M  V30 714 C 67.5655 -3.35781 -1.33914 0
M  V30 715 O 67.2865 -4.365 -0.374048 0
M  V30 716 C 68.7875 -3.89566 -2.1155 0
M  V30 717 H 66.0075 -0.647316 -0.176702 0
M  V30 718 H 68.5515 -2.04229 0.105304 0
M  V30 719 H 66.7065 -3.29357 -2.03968 0
M  V30 720 H 67.1205 -5.17248 -0.869179 0
M  V30 721 H 68.5945 -4.89242 -2.55628 0
M  V30 722 H 69.0715 -3.24488 -2.9598 0
M  V30 723 H 69.6775 -3.99298 -1.46427 0
M  V30 724 N 67.9926 0.231505 -1.5589 0
M  V30 725 C 68.9226 1.29022 -1.94617 0
M  V30 726 C 69.9036 1.4941 -0.813067 0
M  V30 727 O 71.0886 1.6176 -1.07459 0
M  V30 728 C 68.2186 2.64199 -2.25424 0
M  V30 729 C 67.1726 2.58484 -3.41131 0
M  V30 730 C 66.4986 3.97599 -3.57518 0
M  V30 731 C 67.7986 2.1413 -4.76388 0
M  V30 732 H 69.4926 0.968563 -2.83301 0
M  V30 733 H 67.0386 0.464479 -1.36303 0
M  V30 734 H 68.9916 3.38413 -2.51107 0
M  V30 735 H 67.7156 2.98032 -1.33583 0
M  V30 736 H 66.3746 1.86727 -3.15481 0
M  V30 737 H 66.0226 4.28723 -2.6307 0
M  V30 738 H 65.7226 3.94659 -4.35337 0
M  V30 739 H 67.2466 4.7349 -3.85538 0
M  V30 740 H 68.6606 2.78083 -5.01341 0
M  V30 741 H 67.0576 2.2227 -5.57419 0
M  V30 742 H 68.1276 1.09331 -4.72414 0
M  V30 743 N 69.4707 1.49531 0.497807 0
M  V30 744 C 70.7477 1.49682 1.25915 0
M  V30 745 C 71.1277 0.226339 2.09883 0
M  V30 746 O 70.4757 -0.791189 2.14365 0
M  V30 747 C 70.6857 2.77755 2.11313 0
M  V30 748 C 72.0337 3.27371 2.70395 0
M  V30 749 O 73.0577 2.78894 2.21578 0
M  V30 750 O 71.9167 4.11808 3.59272 0
M  V30 751 H 69.0107 0.599228 0.56996 0
M  V30 752 H 71.5567 1.61798 0.511816 0
M  V30 753 H 70.3287 3.61713 1.49264 0
M  V30 754 H 69.9517 2.68515 2.93233 0
M  V30 755 N 70.9488 -0.749086 1.3866 0
M  V30 756 C 72.1738 -1.54344 1.38538 0
M  V30 757 C 72.5988 -1.88088 -0.0216655 0
M  V30 758 O 71.9568 -1.50899 -1.00494 0
M  V30 759 C 72.0048 -2.8164 2.25192 0
M  V30 760 O 71.1088 -3.7698 1.67212 0
M  V30 761 H 70.4498 -0.466654 0.472367 0
M  V30 762 H 72.9798 -0.925355 1.82478 0
M  V30 763 H 72.9898 -3.30519 2.3921 0
M  V30 764 H 71.6648 -2.56411 3.27454 0
M  V30 765 H 70.2418 -3.35699 1.6236 0
M  V30 766 N 72.4269 -1.23603 -0.977757 0
M  V30 767 C 73.3569 -1.04401 -2.0886 0
M  V30 768 C 74.3379 0.0399052 -1.70053 0
M  V30 769 O 75.5229 -0.125246 -1.93796 0
M  V30 770 C 72.6529 -0.637269 -3.41403 0
M  V30 771 C 71.6069 -1.66883 -3.94124 0
M  V30 772 C 70.9329 -1.11745 -5.22893 0
M  V30 773 C 72.2329 -3.06247 -4.23096 0
M  V30 774 H 73.9269 -1.97316 -2.25182 0
M  V30 775 H 71.4729 -0.950096 -1.08209 0
M  V30 776 H 73.4259 -0.48998 -4.18542 0
M  V30 777 H 72.1499 0.327557 -3.24953 0
M  V30 778 H 70.8089 -1.80416 -3.19133 0
M  V30 779 H 70.4569 -0.143527 -5.02795 0
M  V30 780 H 70.1569 -1.80672 -5.59134 0
M  V30 781 H 71.6809 -0.982067 -6.02651 0
M  V30 782 H 73.0949 -2.96001 -4.90975 0
M  V30 783 H 71.4919 -3.72436 -4.70544 0
M  V30 784 H 72.5619 -3.55041 -3.30263 0
M  V30 785 N 73.905 1.17692 -1.04816 0
M  V30 786 C 75.151 1.88137 -0.75711 0
M  V30 787 C 75.484 1.80604 0.713841 0
M  V30 788 O 74.759 1.21146 1.52164 0
M  V30 789 C 75.042 3.38318 -1.2334 0
M  V30 790 C 74.895 3.54622 -2.76701 0
M  V30 791 C 76.214 4.32214 -0.829415 0
M  V30 792 H 73.333 0.683163 -0.27651 0
M  V30 793 H 75.975 1.38424 -1.30149 0
M  V30 794 H 74.125 3.80787 -0.770286 0
M  V30 795 H 75.797 3.21194 -3.31107 0
M  V30 796 H 74.04 2.97026 -3.16161 0
M  V30 797 H 74.711 4.60028 -3.05088 0
M  V30 798 H 77.187 3.97565 -1.22805 0
M  V30 799 H 76.063 5.35838 -1.19033 0
M  V30 800 H 76.324 4.41294 0.266891 0
M  V30 801 N 75.3831 0.828654 1.34056 0
M  V30 802 C 76.6311 0.41863 1.97717 0
M  V30 803 C 76.9521 -1.02314 1.66002 0
M  V30 804 O 76.2221 -1.71119 0.953683 0
M  V30 805 H 74.8021 0.151809 0.731412 0
M  V30 806 H 77.4641 1.05936 1.63596 0
M  V30 807 H 76.5601 0.542318 3.07352 0
M  V30 808 N 76.8612 -1.46375 0.584142 0
M  V30 809 C 77.7912 -2.33103 -0.136037 0
M  V30 810 C 78.7722 -1.45431 -0.882255 0
M  V30 811 O 79.9572 -1.74246 -0.857434 0
M  V30 812 C 77.0872 -3.27731 -1.14933 0
M  V30 813 C 76.0412 -4.24855 -0.517862 0
M  V30 814 C 75.3672 -5.09001 -1.63773 0
M  V30 815 C 76.6672 -5.19439 0.545886 0
M  V30 816 H 78.3612 -2.93568 0.588086 0
M  V30 817 H 75.9072 -1.41166 0.284259 0
M  V30 818 H 77.8602 -3.87261 -1.66153 0
M  V30 819 H 76.5842 -2.65377 -1.90375 0
M  V30 820 H 75.2432 -3.6659 -0.0267361 0
M  V30 821 H 74.8912 -4.43031 -2.38185 0
M  V30 822 H 74.5912 -5.74777 -1.22085 0
M  V30 823 H 76.1152 -5.71396 -2.15266 0
M  V30 824 H 77.5292 -5.73177 0.118704 0
M  V30 825 H 75.9262 -5.93566 0.88317 0
M  V30 826 H 76.9962 -4.63285 1.43162 0
M  V30 827 N 78.3393 -0.321999 -1.54275 0
M  V30 828 C 79.5643 0.285791 -2.05422 0
M  V30 829 C 79.9893 1.45124 -1.19669 0
M  V30 830 O 79.3473 1.80132 -0.205441 0
M  V30 831 C 79.3953 0.69956 -3.53749 0
M  V30 832 O 78.4993 1.8021 -3.70942 0
M  V30 833 H 77.8403 0.0518962 -0.661969 0
M  V30 834 H 80.3703 -0.469954 -1.9913 0
M  V30 835 H 80.3803 0.982649 -3.9599 0
M  V30 836 H 79.0553 -0.152864 -4.15619 0
M  V30 837 H 77.6323 1.51794 -3.40607 0
M  V30 838 N 79.8174 1.5752 -0.0501392 0
M  V30 839 C 81.0944 1.83996 0.663685 0
M  V30 840 C 81.4744 0.938339 1.89099 0
M  V30 841 O 80.8224 -0.00087759 2.285 0
M  V30 842 C 81.0324 3.33702 1.02196 0
M  V30 843 C 82.3804 4.00691 1.40469 0
M  V30 844 O 83.4044 3.38321 1.11433 0
M  V30 845 O 82.2634 5.10658 1.94654 0
M  V30 846 H 79.3574 0.759385 0.32751 0
M  V30 847 H 81.9034 1.69514 -0.0794238 0
M  V30 848 H 80.6754 3.91015 0.149364 0
M  V30 849 H 80.2984 3.53368 1.82255 0
M  V30 850 N 81.2955 -0.223234 1.56011 0
M  V30 851 C 82.2055 -1.29766 1.95443 0
M  V30 852 C 83.2215 -1.51373 0.858028 0
M  V30 853 O 84.3975 -1.64536 1.16146 0
M  V30 854 C 81.4625 -2.62772 2.26167 0
M  V30 855 C 80.5235 -2.49482 3.49367 0
M  V30 856 C 79.7565 -3.76145 3.78616 0
M  V30 857 O 79.9795 -4.79087 3.09568 0
M  V30 858 O 78.9135 -3.73358 4.72109 0
M  V30 859 H 82.7395 -0.99309 2.87004 0
M  V30 860 H 80.3245 -0.425958 1.43199 0
M  V30 861 H 82.2065 -3.41327 2.47131 0
M  V30 862 H 80.8815 -2.92913 1.37781 0
M  V30 863 H 79.7885 -1.69133 3.33684 0
M  V30 864 H 81.1215 -2.2428 4.38131 0
M  V30 865 N 82.7736 -1.49793 -0.48987 0
M  V30 866 C 83.7036 -1.70201 -1.59856 0
M  V30 867 C 84.6846 -0.55076 -1.60937 0
M  V30 868 O 85.8696 -0.787841 -1.77501 0
M  V30 869 C 82.9996 -1.77882 -2.98287 0
M  V30 870 C 81.9536 -2.92907 -3.12073 0
M  V30 871 C 81.2796 -2.85712 -4.51965 0
M  V30 872 C 82.5796 -4.3369 -2.91051 0
M  V30 873 H 84.2736 -2.63025 -1.43032 0
M  V30 874 H 81.8196 -1.26574 -0.686664 0
M  V30 875 H 83.7726 -1.90744 -3.75759 0
M  V30 876 H 82.4966 -0.816653 -3.16225 0
M  V30 877 H 81.1556 -2.79665 -2.37029 0
M  V30 878 H 80.8036 -1.8738 -4.66795 0
M  V30 879 H 80.5036 -3.62921 -4.62128 0
M  V30 880 H 82.0276 -3.00598 -5.31482 0
M  V30 881 H 83.4416 -4.47555 -3.58284 0
M  V30 882 H 81.8386 -5.12205 -3.12675 0
M  V30 883 H 82.9086 -4.47362 -1.87071 0
M  V30 884 N 84.2517 0.741722 -1.39055 0
M  V30 885 C 85.4997 1.49818 -1.35643 0
M  V30 886 C 85.8207 1.94938 0.0491642 0
M  V30 887 O 85.0907 1.68505 0.999141 0
M  V30 888 H 83.6707 0.555755 -0.499144 0
M  V30 889 H 86.3327 0.880957 -1.73854 0
M  V30 890 H 85.4287 2.38348 -2.01486 0
M  V30 891 N 85.7298 1.2412 0.971189 0
M  V30 892 C 86.6768 1.0305 2.06517 0
M  V30 893 C 87.6468 -0.0550666 1.66009 0
M  V30 894 O 88.8318 0.0988688 1.90544 0
M  V30 895 C 85.9718 0.637653 3.39158 0
M  V30 896 C 85.0848 1.79633 3.92882 0
M  V30 897 C 84.2198 1.34939 5.13775 0
M  V30 898 C 83.2588 2.47823 5.59687 0
M  V30 899 N 82.3958 2.04022 6.71803 0
M  V30 900 H 87.2358 1.96685 2.23873 0
M  V30 901 H 84.7728 0.979694 1.09729 0
M  V30 902 H 86.7308 0.390931 4.15364 0
M  V30 903 H 85.3608 -0.261693 3.21737 0
M  V30 904 H 84.4128 2.15681 3.13346 0
M  V30 905 H 85.7248 2.64466 4.22918 0
M  V30 906 H 84.8788 1.06134 5.97345 0
M  V30 907 H 83.6178 0.471557 4.85415 0
M  V30 908 H 82.6228 2.77392 4.74693 0
M  V30 909 H 83.8478 3.36158 5.90063 0
M  V30 910 H 81.7938 1.18632 6.45184 0
M  V30 911 H 81.7108 2.82409 7.01271 0
M  V30 912 H 82.9788 1.78347 7.58823 0
M  V30 913 N 87.2079 -1.17134 1.05439 0
M  V30 914 C 88.1379 -2.2342 0.678649 0
M  V30 915 C 89.1189 -1.66971 -0.32476 0
M  V30 916 O 90.3039 -1.93149 -0.201802 0
M  V30 917 C 87.4339 -3.47256 0.0552099 0
M  V30 918 C 86.3879 -4.16543 0.98365 0
M  V30 919 C 85.7139 -5.34231 0.223961 0
M  V30 920 C 87.0139 -4.68495 2.3089 0
M  V30 921 H 88.7079 -2.55105 1.56722 0
M  V30 922 H 86.2539 -1.2262 0.754998 0
M  V30 923 H 88.2069 -4.20828 -0.21946 0
M  V30 924 H 86.9309 -3.14846 -0.868319 0
M  V30 925 H 85.5899 -3.44887 1.24293 0
M  V30 926 H 85.2379 -4.98071 -0.702412 0
M  V30 927 H 84.9379 -5.81527 0.842627 0
M  V30 928 H 86.4619 -6.10585 -0.0433671 0
M  V30 929 H 87.8759 -5.33691 2.09396 0
M  V30 930 H 86.2729 -5.26379 2.88176 0
M  V30 931 H 87.3429 -3.85169 2.94572 0
M  V30 932 N 88.686 -0.835752 -1.33615 0
M  V30 933 C 89.963 -0.352017 -1.92406 0
M  V30 934 C 90.343 1.16225 -1.76224 0
M  V30 935 O 89.691 1.97526 -1.14873 0
M  V30 936 C 89.901 -0.795485 -3.39813 0
M  V30 937 C 91.249 -0.801703 -4.16963 0
M  V30 938 O 92.273 -0.738889 -3.48452 0
M  V30 939 O 91.132 -0.886607 -5.3926 0
M  V30 940 H 88.226 -0.0989641 -0.821057 0
M  V30 941 H 90.772 -0.921397 -1.42507 0
M  V30 942 H 89.544 -1.83795 -3.45449 0
M  V30 943 H 89.167 -0.202505 -3.97084 0
M  V30 944 N 90.1641 1.46063 -0.591896 0
M  V30 945 C 91.3921 2.06717 -0.0868936 0
M  V30 946 C 91.8071 1.43916 1.22203 0
M  V30 947 O 91.1641 0.547698 1.74088 0
M  V30 948 C 91.2151 3.6142 0.0758725 0
M  V30 949 O 90.9361 4.21874 -1.18126 0
M  V30 950 C 92.4371 4.39025 0.61416 0
M  V30 951 H 89.6571 0.668162 -0.0616518 0
M  V30 952 H 92.2011 1.8755 -0.815175 0
M  V30 953 H 90.3561 3.79983 0.754413 0
M  V30 954 H 90.7701 5.14861 -1.00092 0
M  V30 955 H 92.2441 5.4783 0.677193 0
M  V30 956 H 92.7211 4.07708 1.63312 0
M  V30 957 H 93.3271 4.2529 -0.0298142 0
M  V30 958 N 91.6422 0.330177 1.54103 0
M  V30 959 C 92.8892 -0.270405 2.00686 0
M  V30 960 C 93.2172 -1.51621 1.21825 0
M  V30 961 O 92.4722 -1.93536 0.29025 0
M  V30 962 C 92.7712 -0.643134 3.51566 0
M  V30 963 C 92.4372 0.504251 4.48072 0
M  V30 964 C 91.0992 0.819163 4.74176 0
M  V30 965 C 93.4512 1.27465 5.05373 0
M  V30 966 C 90.7792 1.90708 5.5484 0
M  V30 967 C 93.1312 2.35271 5.87223 0
M  V30 968 C 91.7952 2.67336 6.11627 0
M  V30 969 H 91.0652 -0.0989482 0.734364 0
M  V30 970 H 93.7122 0.455324 1.86008 0
M  V30 971 H 92.0172 -1.44938 3.64006 0
M  V30 972 H 93.7142 -1.11949 3.85056 0
M  V30 973 H 90.3042 0.248733 4.27878 0
M  V30 974 H 94.4882 1.04462 4.85182 0
M  V30 975 H 89.7442 2.15991 5.71977 0
M  V30 976 H 93.9182 2.95405 6.30641 0
M  V30 977 H 91.5452 3.51763 6.73919 0
M  V30 978 N 93.1203 -1.57491 0.0584922 0
M  V30 979 C 94.0833 -2.1085 -0.898617 0
M  V30 980 C 95.0833 -1.02964 -1.23511 0
M  V30 981 O 96.2733 -1.29007 -1.17059 0
M  V30 982 C 93.4053 -2.59881 -2.20623 0
M  V30 983 H 94.5983 -2.96715 -0.435936 0
M  V30 984 H 92.1513 -1.55141 -0.190023 0
M  V30 985 H 92.8863 -1.77431 -2.71457 0
M  V30 986 H 92.6713 -3.38727 -1.97501 0
M  V30 987 H 94.1613 -3.01285 -2.89166 0
M  V30 988 N 94.5984 0.214957 -1.56127 0
M  V30 989 C 95.5084 1.28727 -1.96129 0
M  V30 990 C 96.5244 1.50916 -0.866044 0
M  V30 991 O 97.7004 1.63918 -1.17016 0
M  V30 992 C 94.7654 2.61569 -2.27558 0
M  V30 993 C 93.8264 2.47625 -3.50685 0
M  V30 994 C 93.0594 3.74132 -3.80606 0
M  V30 995 O 93.2824 4.77438 -3.12104 0
M  V30 996 O 92.2164 3.70849 -4.74083 0
M  V30 997 H 96.0424 0.977855 -2.87527 0
M  V30 998 H 93.6274 0.418358 -1.43423 0
M  V30 999 H 95.5094 3.40012 -2.48938 0
M  V30 1000 H 94.1844 2.92178 -1.39332 0
M  V30 1001 H 93.0914 1.67361 -3.34576 0
M  V30 1002 H 94.4244 2.21954 -4.39315 0
M  V30 1003 N 96.0765 1.50051 0.48192 0
M  V30 1004 C 97.3015 1.64508 1.26301 0
M  V30 1005 C 97.7265 0.323851 1.85291 0
M  V30 1006 O 97.0845 -0.710969 1.66778 0
M  V30 1007 C 97.1325 2.7305 2.35533 0
M  V30 1008 O 96.2365 2.3355 3.39895 0
M  V30 1009 H 95.5775 0.549978 0.372048 0
M  V30 1010 H 98.1075 1.9636 0.574786 0
M  V30 1011 H 98.1175 2.95799 2.8101 0
M  V30 1012 H 96.7925 3.68946 1.91967 0
M  V30 1013 H 95.3695 2.21205 3.00204 0
M  V30 1014 N 97.5546 -0.734337 1.39446 0
M  V30 1015 C 98.4846 -1.86155 1.40955 0
M  V30 1016 C 99.4656 -1.67898 0.272827 0
M  V30 1017 O 100.651 -1.88207 0.478743 0
M  V30 1018 C 97.7806 -3.23912 1.25294 0
M  V30 1019 C 96.7346 -3.56808 2.36373 0
M  V30 1020 C 96.0606 -4.93508 2.058 0
M  V30 1021 C 97.3606 -3.59713 3.78687 0
M  V30 1022 H 99.0546 -1.8515 2.35287 0
M  V30 1023 H 96.6006 -0.889367 1.13253 0
M  V30 1024 H 98.5536 -4.02443 1.2497 0
M  V30 1025 H 97.2776 -3.25446 0.274308 0
M  V30 1026 H 95.9366 -2.80606 2.35914 0
M  V30 1027 H 95.5846 -4.91623 1.06374 0
M  V30 1028 H 95.2846 -5.16486 2.80208 0
M  V30 1029 H 96.8086 -5.74396 2.07128 0
M  V30 1030 H 98.2226 -4.2832 3.81071 0
M  V30 1031 H 96.6196 -3.94209 4.52459 0
M  V30 1032 H 97.6896 -2.59504 4.09617 0
M  V30 1033 N 99.0327 -1.24633 -0.964593 0
M  V30 1034 C 100.282 -1.08188 -1.7023 0
M  V30 1035 C 100.595 0.37873 -1.91898 0
M  V30 1036 O 101.801 0.663427 -2.6327 0
M  V30 1037 C 100.257 -1.88773 -3.06419 0
M  V30 1038 C 99.8647 -3.39263 -2.92582 0
M  V30 1039 C 101.609 -1.80867 -3.84041 0
M  V30 1040 C 99.5157 -4.1218 -4.24101 0
M  V30 1041 H 98.4457 -0.401245 -0.638372 0
M  V30 1042 H 101.097 -1.48742 -1.07462 0
M  V30 1043 H 99.4787 -1.41035 -3.70034 0
M  V30 1044 H 100.653 -3.94603 -2.37961 0
M  V30 1045 H 98.9677 -3.48154 -2.28424 0
M  V30 1046 H 101.565 -2.32646 -4.81435 0
M  V30 1047 H 101.908 -0.774543 -4.09031 0
M  V30 1048 H 102.441 -2.26301 -3.27159 0
M  V30 1049 H 99.1797 -5.15965 -4.04303 0
M  V30 1050 H 98.6997 -3.61626 -4.78526 0
M  V30 1051 H 100.379 -4.19349 -4.92702 0
M  V30 1052 N 100.511 1.16574 -1.06058 0
M  V30 1053 C 101.927 1.3904 -0.783585 0
M  V30 1054 C 102.127 1.91784 0.618145 0
M  V30 1055 O 101.183 2.11511 1.37911 0
M  V30 1056 C 102.496 2.37329 -1.84649 0
M  V30 1057 C 104.044 2.51018 -1.86973 0
M  V30 1058 C 104.519 3.52588 -2.92311 0
M  V30 1059 N 106.01 3.60113 -2.91329 0
M  V30 1060 C 106.745 4.38486 -3.69482 0
M  V30 1061 N 106.241 5.20302 -4.57447 0
M  V30 1062 N 108.034 4.33446 -3.57885 0
M  V30 1063 H 100.185 0.806725 -1.96483 0
M  V30 1064 H 102.448 0.417117 -0.851303 0
M  V30 1065 H 102.154 2.05663 -2.85299 0
M  V30 1066 H 102.028 3.36946 -1.6955 0
M  V30 1067 H 104.415 2.81989 -0.869827 0
M  V30 1068 H 104.496 1.51445 -2.0615 0
M  V30 1069 H 104.14 3.22354 -3.92492 0
M  V30 1070 H 104.07 4.51886 -2.70383 0
M  V30 1071 H 106.561 3.01707 -2.27555 0
M  V30 1072 H 106.874 5.77311 -5.13743 0
M  V30 1073 H 105.219 5.19653 -4.61503 0
M  V30 1074 H 108.41 3.68586 -2.88551 0
M  V30 1075 H 108.583 4.94279 -4.19037 0
M  V30 1076 N 101.989 0.842826 1.3317 0
M  V30 1077 C 103.405 0.531128 1.50503 0
M  V30 1078 C 103.605 -0.940734 1.78192 0
M  V30 1079 O 102.661 -1.72436 1.84451 0
M  V30 1080 C 103.974 1.40789 2.65705 0
M  V30 1081 C 105.522 1.40708 2.79589 0
M  V30 1082 C 105.997 2.26878 3.97857 0
M  V30 1083 N 107.488 2.24609 4.05099 0
M  V30 1084 C 108.223 2.88019 4.95815 0
M  V30 1085 N 107.719 3.60496 5.9162 0
M  V30 1086 N 109.512 2.77469 4.88843 0
M  V30 1087 H 101.663 1.79557 1.1346 0
M  V30 1088 H 103.926 0.766267 0.558156 0
M  V30 1089 H 103.632 2.454 2.51936 0
M  V30 1090 H 103.506 1.08677 3.61205 0
M  V30 1091 H 105.893 0.368668 2.92788 0
M  V30 1092 H 105.974 1.76829 1.84838 0
M  V30 1093 H 105.618 3.3078 3.85418 0
M  V30 1094 H 105.548 1.88096 4.91861 0
M  V30 1095 H 108.039 1.71906 3.36536 0
M  V30 1096 H 108.352 4.06076 6.57512 0
M  V30 1097 H 106.697 3.64604 5.91683 0
M  V30 1098 H 109.888 2.20406 4.12963 0
M  V30 1099 H 110.061 3.2717 5.59342 0
M  V30 1100 N 103.467 -1.45747 0.599634 0
M  V30 1101 C 104.4 -2.27547 -0.172552 0
M  V30 1102 C 105.378 -1.36657 -0.881116 0
M  V30 1103 O 106.562 -1.66081 -0.891595 0
M  V30 1104 C 103.689 -3.14829 -1.24903 0
M  V30 1105 C 102.735 -4.21603 -0.644465 0
M  V30 1106 S 103.568 -5.32754 0.541606 0
M  V30 1107 C 104.724 -6.23604 -0.535656 0
M  V30 1108 H 104.957 -2.92691 0.521468 0
M  V30 1109 H 102.49 -1.49473 0.386947 0
M  V30 1110 H 104.448 -3.65675 -1.86527 0
M  V30 1111 H 103.109 -2.48965 -1.91508 0
M  V30 1112 H 102.302 -4.82566 -1.45417 0
M  V30 1113 H 101.904 -3.73857 -0.103534 0
M  V30 1114 H 104.196 -6.62519 -1.41686 0
M  V30 1115 H 105.139 -7.0809 0.0376246 0
M  V30 1116 H 105.547 -5.58103 -0.84741 0
M  V30 1117 N 104.945 -0.338344 -1.53925 0
M  V30 1118 C 105.908 0.508299 -2.23493 0
M  V30 1119 C 106.908 1.03175 -1.23335 0
M  V30 1120 O 108.098 0.921826 -1.47811 0
M  V30 1121 C 105.23 1.70754 -2.95052 0
M  V30 1122 H 106.423 -0.100058 -2.99733 0
M  V30 1123 H 103.976 -0.0896198 -1.56043 0
M  V30 1124 H 104.711 2.35474 -2.22986 0
M  V30 1125 H 104.496 1.33946 -3.68512 0
M  V30 1126 H 105.986 2.30818 -3.48013 0
M  V30 1127 N 106.423 1.57458 -0.0668435 0
M  V30 1128 C 107.355 2.09413 0.931601 0
M  V30 1129 C 108.368 1.02522 1.26464 0
M  V30 1130 O 109.557 1.30049 1.22269 0
M  V30 1131 C 106.657 2.53537 2.24882 0
M  V30 1132 C 105.83 3.83944 2.09537 0
M  V30 1133 C 104.889 4.14214 3.2452 0
M  V30 1134 O 103.915 4.83891 2.9973 0
M  V30 1135 N 105.117 3.67367 4.49469 0
M  V30 1136 H 107.882 2.95699 0.488048 0
M  V30 1137 H 105.443 1.61462 0.119009 0
M  V30 1138 H 107.435 2.70853 3.00701 0
M  V30 1139 H 106.005 1.72415 2.60753 0
M  V30 1140 H 105.225 3.76057 1.18215 0
M  V30 1141 H 106.513 4.69312 1.96529 0
M  V30 1142 H 105.911 3.11068 4.72497 0
M  V30 1143 H 104.468 3.89891 5.2233 0
M  V30 1144 N 107.901 -0.206675 1.56239 0
M  V30 1145 C 109.126 -0.949474 1.8439 0
M  V30 1146 C 109.551 -1.76549 0.649016 0
M  V30 1147 O 108.909 -1.76782 -0.402231 0
M  V30 1148 C 108.957 -1.83078 3.10668 0
M  V30 1149 O 108.061 -2.9281 2.90407 0
M  V30 1150 H 107.402 -0.268033 0.607499 0
M  V30 1151 H 109.932 -0.215488 2.03462 0
M  V30 1152 H 109.942 -2.2377 3.41161 0
M  V30 1153 H 108.617 -1.23112 3.97261 0
M  V30 1154 H 107.194 -2.55956 2.71184 0
M  V30 1155 N 109.379 -1.50304 -0.473955 0
M  V30 1156 C 110.625 -1.61389 -1.22806 0
M  V30 1157 C 110.958 -0.311955 -1.91678 0
M  V30 1158 O 110.233 0.686384 -1.81986 0
M  V30 1159 C 110.516 -2.79219 -2.27396 0
M  V30 1160 C 110.369 -4.19286 -1.62848 0
M  V30 1161 C 111.688 -2.92614 -3.28732 0
M  V30 1162 H 108.807 -0.587399 -0.445119 0
M  V30 1163 H 111.449 -1.82681 -0.522265 0
M  V30 1164 H 109.599 -2.61195 -2.87592 0
M  V30 1165 H 111.271 -4.48892 -1.06271 0
M  V30 1166 H 109.514 -4.23677 -0.931693 0
M  V30 1167 H 110.185 -4.97655 -2.38838 0
M  V30 1168 H 112.661 -3.09105 -2.78556 0
M  V30 1169 H 111.537 -3.76688 -3.99246 0
M  V30 1170 H 111.798 -2.03107 -3.92683 0
M  V30 1171 N 110.857 0.726932 -1.39834 0
M  V30 1172 C 112.103 1.48884 -1.377 0
M  V30 1173 C 112.436 1.94185 0.0244852 0
M  V30 1174 O 111.711 1.67361 0.990986 0
M  V30 1175 C 111.994 2.72288 -2.3565 0
M  V30 1176 C 111.847 2.32956 -3.84775 0
M  V30 1177 C 113.166 3.74414 -2.31306 0
M  V30 1178 H 110.285 0.540062 -0.5015 0
M  V30 1179 H 112.927 0.830547 -1.70886 0
M  V30 1180 H 111.077 3.28457 -2.07481 0
M  V30 1181 H 112.749 1.82356 -4.23726 0
M  V30 1182 H 110.992 1.65088 -4.01159 0
M  V30 1183 H 111.663 3.21362 -4.4881 0
M  V30 1184 H 114.139 3.27849 -2.56231 0
M  V30 1185 H 113.015 4.58414 -3.01907 0
M  V30 1186 H 113.276 4.21909 -1.32081 0
M  V30 1187 N 112.336 1.25143 0.95797 0
M  V30 1188 C 113.246 1.06968 2.08794 0
M  V30 1189 C 114.262 0.00773911 1.73998 0
M  V30 1190 O 115.438 0.207972 2.00323 0
M  V30 1191 C 112.503 0.68691 3.39827 0
M  V30 1192 C 111.564 1.82641 3.88511 0
M  V30 1193 C 110.797 1.46181 5.1329 0
M  V30 1194 O 111.02 0.355971 5.69288 0
M  V30 1195 O 109.954 2.29085 5.566 0
M  V30 1196 H 113.78 2.01723 2.27027 0
M  V30 1197 H 111.365 1.04051 1.07209 0
M  V30 1198 H 113.247 0.485417 4.18595 0
M  V30 1199 H 111.922 -0.231417 3.22872 0
M  V30 1200 H 110.829 2.08274 3.10762 0
M  V30 1201 H 112.162 2.72386 4.09959 0
M  V30 1202 N 113.814 -1.1601 1.06675 0
M  V30 1203 C 115.06 -1.86909 0.786945 0
M  V30 1204 C 115.393 -1.81717 -0.685018 0
M  V30 1205 O 114.668 -1.23551 -1.50218 0
M  V30 1206 C 114.951 -3.36313 1.28707 0
M  V30 1207 C 114.804 -3.50175 2.82308 0
M  V30 1208 C 116.123 -4.3084 0.898071 0
M  V30 1209 H 113.242 -0.678677 0.287343 0
M  V30 1210 H 115.884 -1.36336 1.32334 0
M  V30 1211 H 114.034 -3.79513 0.830768 0
M  V30 1212 H 115.706 -3.15886 3.36175 0
M  V30 1213 H 113.949 -2.91959 3.20847 0
M  V30 1214 H 114.62 -4.55116 3.12368 0
M  V30 1215 H 117.096 -3.95561 1.29114 0
M  V30 1216 H 115.972 -5.33876 1.27543 0
M  V30 1217 H 116.233 -4.41662 -0.196651 0
M  V30 1218 N 115.292 -0.849877 -1.32721 0
M  V30 1219 C 116.225 -0.235903 -2.26977 0
M  V30 1220 C 117.203 0.623355 -1.50177 0
M  V30 1221 O 118.387 0.581207 -1.79316 0
M  V30 1222 C 115.514 0.667712 -3.32053 0
M  V30 1223 C 114.56 -0.11753 -4.26338 0
M  V30 1224 S 115.393 -1.48277 -5.14562 0
M  V30 1225 C 116.549 -0.584741 -6.23163 0
M  V30 1226 H 116.782 -1.03495 -2.78704 0
M  V30 1227 H 114.315 -0.64724 -1.40179 0
M  V30 1228 H 116.273 1.18343 -3.93072 0
M  V30 1229 H 114.934 1.44052 -2.7912 0
M  V30 1230 H 114.127 0.57051 -5.00761 0
M  V30 1231 H 113.729 -0.564668 -3.69713 0
M  V30 1232 H 116.021 0.212968 -6.77165 0
M  V30 1233 H 116.964 -1.29947 -6.96074 0
M  V30 1234 H 117.372 -0.161202 -5.6427 0
M  V30 1235 N 116.77 1.45427 -0.607355 0
M  V30 1236 C 117.68 2.34325 0.113463 0
M  V30 1237 C 118.696 1.51226 0.860617 0
M  V30 1238 O 119.872 1.84029 0.818255 0
M  V30 1239 C 116.937 3.28839 1.09844 0
M  V30 1240 C 115.998 4.27844 0.353271 0
M  V30 1241 C 115.231 5.17842 1.29133 0
M  V30 1242 O 115.454 5.11264 2.52913 0
M  V30 1243 O 114.388 5.96713 0.788523 0
M  V30 1244 H 118.214 2.97364 -0.617094 0
M  V30 1245 H 115.799 1.44807 -0.367619 0
M  V30 1246 H 117.681 3.8708 1.66575 0
M  V30 1247 H 116.356 2.68365 1.81003 0
M  V30 1248 H 115.263 3.7322 -0.256494 0
M  V30 1249 H 116.596 4.91173 -0.317822 0
M  V30 1250 N 118.248 0.346503 1.53744 0
M  V30 1251 C 119.525 -0.304532 1.93215 0
M  V30 1252 C 119.905 -1.67993 1.27834 0
M  V30 1253 O 119.253 -2.24411 0.430352 0
M  V30 1254 C 119.463 -0.373852 3.46992 0
M  V30 1255 C 120.811 -0.62329 4.2 0
M  V30 1256 O 121.835 -0.455847 3.53271 0
M  V30 1257 O 120.694 -0.947879 5.38217 0
M  V30 1258 H 117.788 -0.178318 0.807547 0
M  V30 1259 H 120.334 0.397895 1.64969 0
M  V30 1260 H 119.106 0.591224 3.86808 0
M  V30 1261 H 118.729 -1.12294 3.81413 0
M  V30 1262 N 119.726 -1.57421 0.075193 0
M  V30 1263 C 120.951 -1.98364 -0.605515 0
M  V30 1264 C 121.376 -0.953383 -1.62149 0
M  V30 1265 O 120.734 0.0806053 -1.81121 0
M  V30 1266 C 120.782 -3.38332 -1.24756 0
M  V30 1267 O 119.886 -3.37959 -2.36342 0
M  V30 1268 H 119.227 -0.645553 -0.155428 0
M  V30 1269 H 121.757 -2.04044 0.150714 0
M  V30 1270 H 121.767 -3.75591 -1.5936 0
M  V30 1271 H 120.442 -4.12846 -0.503129 0
M  V30 1272 H 119.019 -3.12474 -2.03506 0
M  V30 1273 N 121.204 0.198386 -1.56346 0
M  V30 1274 C 122.151 1.24589 -1.94284 0
M  V30 1275 C 123.121 1.454 -0.802997 0
M  V30 1276 O 124.306 1.58588 -1.06087 0
M  V30 1277 C 121.446 2.58631 -2.28482 0
M  V30 1278 C 120.559 2.45426 -3.55514 0
M  V30 1279 C 119.694 3.7215 -3.79049 0
M  V30 1280 C 118.733 3.53763 -4.99518 0
M  V30 1281 N 117.87 4.72491 -5.19323 0
M  V30 1282 H 122.71 0.915356 -2.83593 0
M  V30 1283 H 120.247 0.440629 -1.40346 0
M  V30 1284 H 122.205 3.3672 -2.46324 0
M  V30 1285 H 120.835 2.89734 -1.42317 0
M  V30 1286 H 119.887 1.58652 -3.45737 0
M  V30 1287 H 121.199 2.27772 -4.43758 0
M  V30 1288 H 120.353 4.58679 -3.97113 0
M  V30 1289 H 119.092 3.92754 -2.89129 0
M  V30 1290 H 118.097 2.65619 -4.8138 0
M  V30 1291 H 119.322 3.34607 -5.90944 0
M  V30 1292 H 117.268 4.93365 -4.3235 0
M  V30 1293 H 117.185 4.5765 -6.01741 0
M  V30 1294 H 118.453 5.6038 -5.41843 0
M  V30 1295 N 122.682 1.50554 0.465978 0
M  V30 1296 C 123.93 1.61479 1.21528 0
M  V30 1297 C 124.251 0.319596 1.92363 0
M  V30 1298 O 123.521 -0.663194 1.84333 0
M  V30 1299 H 122.101 0.595055 0.451573 0
M  V30 1300 H 124.763 1.87355 0.53704 0
M  V30 1301 H 123.859 2.42846 1.96042 0
M  V30 1302 N 124.16 -0.719506 1.40217 0
M  V30 1303 C 125.107 -1.83359 1.40172 0
M  V30 1304 C 126.077 -1.64065 0.259206 0
M  V30 1305 O 127.262 -1.85254 0.456677 0
M  V30 1306 C 124.402 -3.2103 1.26624 0
M  V30 1307 C 123.515 -3.51923 2.50548 0
M  V30 1308 C 122.65 -4.79079 2.29471 0
M  V30 1309 C 121.689 -5.02863 3.48992 0
M  V30 1310 N 120.826 -6.2123 3.27135 0
M  V30 1311 H 125.666 -1.82733 2.35399 0
M  V30 1312 H 123.203 -0.892688 1.16917 0
M  V30 1313 H 125.161 -4.00524 1.16776 0
M  V30 1314 H 123.791 -3.20895 0.350176 0
M  V30 1315 H 122.843 -2.67014 2.70939 0
M  V30 1316 H 124.155 -3.6541 3.39525 0
M  V30 1317 H 123.309 -5.66582 2.16955 0
M  V30 1318 H 122.048 -4.67794 1.37913 0
M  V30 1319 H 121.053 -4.13816 3.6199 0
M  V30 1320 H 122.278 -5.16023 4.41472 0
M  V30 1321 H 120.224 -6.11204 2.38256 0
M  V30 1322 H 120.141 -6.35375 4.09675 0
M  V30 1323 H 121.409 -7.11532 3.18344 0
M  V30 1324 N 125.638 -1.25649 -0.95132 0
M  V30 1325 C 126.884 -1.10757 -1.69884 0
M  V30 1326 C 127.217 0.350061 -1.91019 0
M  V30 1327 O 126.492 1.25783 -1.48354 0
M  V30 1328 C 126.775 -1.86606 -3.07978 0
M  V30 1329 C 126.628 -3.40217 -2.94232 0
M  V30 1330 C 127.947 -1.65182 -4.07925 0
M  V30 1331 H 125.066 -0.40374 -0.616574 0
M  V30 1332 H 127.708 -1.54521 -1.10558 0
M  V30 1333 H 125.858 -1.49409 -3.58621 0
M  V30 1334 H 127.53 -3.87108 -2.50889 0
M  V30 1335 H 125.773 -3.67759 -2.30078 0
M  V30 1336 H 126.444 -3.88505 -3.92133 0
M  V30 1337 H 128.92 -1.9757 -3.66204 0
M  V30 1338 H 127.796 -2.20683 -5.02583 0
M  V30 1339 H 128.057 -0.593933 -4.38092 0
M  V30 1340 N 127.117 1.15442 -1.07289 0
M  V30 1341 C 128.049 2.19773 -0.650585 0
M  V30 1342 C 129.062 1.60076 0.296572 0
M  V30 1343 O 130.251 1.78293 0.0859905 0
M  V30 1344 C 127.351 3.38838 0.0650398 0
M  V30 1345 C 126.524 4.2808 -0.898141 0
M  V30 1346 C 125.583 5.2574 -0.219926 0
M  V30 1347 O 124.609 5.62654 -0.860773 0
M  V30 1348 N 125.811 5.71205 1.03466 0
M  V30 1349 H 128.576 2.56622 -1.54808 0
M  V30 1350 H 126.137 1.30551 -0.957494 0
M  V30 1351 H 128.129 4.01222 0.529415 0
M  V30 1352 H 126.699 3.00409 0.864466 0
M  V30 1353 H 125.919 3.62804 -1.54165 0
M  V30 1354 H 127.207 4.84577 -1.5512 0
M  V30 1355 H 126.605 5.43325 1.57526 0
M  V30 1356 H 125.162 6.35633 1.44272 0
M  V30 1357 N 128.595 0.856903 1.32268 0
M  V30 1358 C 129.505 0.306131 2.32594 0
M  V30 1359 C 130.521 -0.577209 1.64147 0
M  V30 1360 O 131.697 -0.477043 1.95669 0
M  V30 1361 C 128.762 -0.494561 3.43154 0
M  V30 1362 C 127.823 0.415186 4.27288 0
M  V30 1363 C 127.056 -0.347387 5.32568 0
M  V30 1364 O 127.279 -1.57708 5.48165 0
M  V30 1365 O 126.213 0.287982 6.01211 0
M  V30 1366 H 130.039 1.13737 2.81598 0
M  V30 1367 H 127.624 0.619902 1.35932 0
M  V30 1368 H 129.506 -0.948944 4.10576 0
M  V30 1369 H 128.181 -1.30257 2.96336 0
M  V30 1370 H 127.088 0.917793 3.62667 0
M  V30 1371 H 128.421 1.18844 4.77637 0
M  V30 1372 N 130.073 -1.45103 0.615059 0
M  V30 1373 C 131.023 -2.27679 -0.120966 0
M  V30 1374 C 132.007 -1.3775 -0.831491 0
M  V30 1375 O 133.199 -1.61683 -0.720249 0
M  V30 1376 C 130.328 -3.24767 -1.1127 0
M  V30 1377 C 129.414 -4.22184 -0.402627 0
M  V30 1378 N 129.805 -5.02692 0.559884 0
M  V30 1379 C 128.103 -4.4125 -0.649202 0
M  V30 1380 C 128.804 -5.73421 0.977942 0
M  V30 1381 N 127.78 -5.42657 0.320104 0
M  V30 1382 H 131.582 -2.87325 0.618181 0
M  V30 1383 H 129.096 -1.56345 0.439304 0
M  V30 1384 H 131.093 -3.82666 -1.65446 0
M  V30 1385 H 129.753 -2.66682 -1.85232 0
M  V30 1386 H 130.764 -5.09354 0.936976 0
M  V30 1387 H 127.441 -3.9428 -1.37293 0
M  V30 1388 H 128.831 -6.48107 1.77222 0
M  V30 1389 N 131.551 -0.354651 -1.53558 0
M  V30 1390 C 132.481 0.489091 -2.2832 0
M  V30 1391 C 133.462 1.09324 -1.30316 0
M  V30 1392 O 134.647 1.11255 -1.59173 0
M  V30 1393 C 131.777 1.63456 -3.0643 0
M  V30 1394 C 130.731 1.1582 -4.12031 0
M  V30 1395 C 130.057 2.39305 -4.7816 0
M  V30 1396 C 131.357 0.250731 -5.21698 0
M  V30 1397 H 133.051 -0.134614 -2.99097 0
M  V30 1398 H 130.597 -0.0661826 -1.43848 0
M  V30 1399 H 132.55 2.23136 -3.57475 0
M  V30 1400 H 131.274 2.28533 -2.33325 0
M  V30 1401 H 129.933 0.584146 -3.61916 0
M  V30 1402 H 129.581 3.02814 -4.01637 0
M  V30 1403 H 129.281 2.08109 -5.49513 0
M  V30 1404 H 130.805 2.99691 -5.31994 0
M  V30 1405 H 132.219 0.754695 -5.68311 0
M  V30 1406 H 130.616 0.0301468 -6.00092 0
M  V30 1407 H 131.686 -0.710125 -4.79672 0
M  V30 1408 N 133.029 1.57378 -0.0835403 0
M  V30 1409 C 133.959 2.1641 0.87686 0
M  V30 1410 C 134.94 1.09429 1.30228 0
M  V30 1411 O 136.125 1.37516 1.37124 0
M  V30 1412 C 133.255 2.73517 2.14022 0
M  V30 1413 C 132.209 3.85769 1.85381 0
M  V30 1414 C 131.535 4.29529 3.18448 0
M  V30 1415 C 132.835 5.09486 1.14984 0
M  V30 1416 H 134.529 2.96914 0.385059 0
M  V30 1417 H 132.075 1.42823 0.18377 0
M  V30 1418 H 134.028 3.13463 2.81636 0
M  V30 1419 H 132.752 1.90252 2.65465 0
M  V30 1420 H 131.411 3.46345 1.20169 0
M  V30 1421 H 131.059 3.43169 3.67755 0
M  V30 1422 H 130.759 5.05204 3.00071 0
M  V30 1423 H 132.283 4.72099 3.8724 0
M  V30 1424 H 133.697 5.46674 1.72687 0
M  V30 1425 H 132.094 5.90515 1.06826 0
M  V30 1426 H 133.164 4.84724 0.130749 0
M  V30 1427 N 134.507 -0.190092 1.56449 0
M  V30 1428 C 135.47 -1.21925 1.9408 0
M  V30 1429 C 136.47 -1.38176 0.822431 0
M  V30 1430 O 137.66 -1.35903 1.08977 0
M  V30 1431 C 134.792 -2.58773 2.21922 0
M  V30 1432 H 135.985 -0.897464 2.86157 0
M  V30 1433 H 133.538 -0.43181 1.50217 0
M  V30 1434 H 134.273 -2.95998 1.32499 0
M  V30 1435 H 134.058 -2.48348 3.03424 0
M  V30 1436 H 135.548 -3.32978 2.52022 0
M  V30 1437 N 135.985 -1.50799 -0.457987 0
M  V30 1438 C 136.933 -1.71162 -1.575 0
M  V30 1439 C 137.927 -0.577592 -1.59249 0
M  V30 1440 O 139.133 -0.758443 -1.63241 0
M  V30 1441 H 135.508 -0.540468 -0.522875 0
M  V30 1442 H 137.479 -2.64837 -1.37492 0
M  V30 1443 C 136.228 -1.83496 -2.95338 0
M  V30 1444 H 135.551 -2.70153 -2.94716 0
M  V30 1445 H 136.991 -2.01765 -3.72917 0
M  V30 1446 C 135.45 -0.589694 -3.31699 0
M  V30 1447 O 135.98 0.265163 -4.00824 0
M  V30 1448 N 134.186 -0.439845 -2.87252 0
M  V30 1449 H 133.733 -1.13655 -2.31172 0
M  V30 1450 H 133.691 0.392159 -3.11945 0
M  V30 1451 N 137.463 0.71206 -1.40597 0
M  V30 1452 C 138.711 1.46907 -1.38791 0
M  V30 1453 C 139.032 1.94998 0.00780391 0
M  V30 1454 O 138.302 1.70587 0.963174 0
M  V30 1455 H 136.882 0.545043 -0.51082 0
M  V30 1456 H 139.544 0.843882 -1.75683 0
M  V30 1457 H 138.64 2.34021 -2.06496 0
M  V30 1458 N 138.941 1.26152 0.944643 0
M  V30 1459 C 140.187 1.11657 1.69294 0
M  V30 1460 C 140.52 -0.339926 1.91202 0
M  V30 1461 O 139.795 -1.24994 1.49019 0
M  V30 1462 C 140.078 1.88236 3.06984 0
M  V30 1463 C 139.931 3.41772 2.92424 0
M  V30 1464 C 141.25 1.67343 4.07043 0
M  V30 1465 H 138.369 0.407004 0.614424 0
M  V30 1466 H 141.011 1.55106 1.09737 0
M  V30 1467 H 139.161 1.51308 3.57824 0
M  V30 1468 H 140.833 3.88433 2.48832 0
M  V30 1469 H 139.076 3.68974 2.28124 0
M  V30 1470 H 139.747 3.90579 3.90067 0
M  V30 1471 H 142.223 1.99509 3.65151 0
M  V30 1472 H 141.099 2.23346 5.01406 0
M  V30 1473 H 141.36 0.617158 4.37771 0
M  V30 1474 N 140.419 -1.14872 1.07899 0
M  V30 1475 C 141.696 -1.81928 0.71845 0
M  V30 1476 C 142.076 -1.95417 -0.798455 0
M  V30 1477 O 141.424 -1.50997 -1.715 0
M  V30 1478 C 141.634 -3.17937 1.43935 0
M  V30 1479 C 142.982 -3.93501 1.59506 0
M  V30 1480 O 144.006 -3.27509 1.40058 0
M  V30 1481 O 142.865 -5.1183 1.91551 0
M  V30 1482 H 139.959 -0.78628 0.256305 0
M  V30 1483 H 142.505 -1.21934 1.18026 0
M  V30 1484 H 141.277 -3.0325 2.47295 0
M  V30 1485 H 140.9 -3.85619 0.968687 0
M  V30 1486 N 141.898 -0.863906 -1.31812 0
M  V30 1487 C 142.828 -0.330843 -2.31144 0
M  V30 1488 C 143.809 0.575005 -1.60087 0
M  V30 1489 O 144.994 0.493304 -1.8783 0
M  V30 1490 C 142.124 0.47374 -3.44054 0
M  V30 1491 C 141.078 -0.338481 -4.26659 0
M  V30 1492 C 140.404 0.591412 -5.31419 0
M  V30 1493 C 141.704 -1.56926 -4.98168 0
M  V30 1494 H 143.398 -1.16086 -2.75979 0
M  V30 1495 H 140.944 -0.559657 -1.32679 0
M  V30 1496 H 142.897 0.857143 -4.12591 0
M  V30 1497 H 141.621 1.33721 -2.9797 0
M  V30 1498 H 140.28 -0.703754 -3.59782 0
M  V30 1499 H 139.928 1.45199 -4.81587 0
M  V30 1500 H 139.628 0.0519022 -5.87577 0
M  V30 1501 H 141.152 0.97179 -6.02817 0
M  V30 1502 H 142.566 -1.25764 -5.59336 0
M  V30 1503 H 140.963 -2.04739 -5.64094 0
M  V30 1504 H 142.033 -2.32544 -4.25501 0
M  V30 1505 N 143.376 1.44774 -0.622745 0
M  V30 1506 C 144.604 2.06487 -0.130722 0
M  V30 1507 C 145.019 1.46476 1.19123 0
M  V30 1508 O 144.376 0.584502 1.72887 0
M  V30 1509 C 144.427 3.615 -0.000807207 0
M  V30 1510 O 144.148 4.19274 -1.27048 0
M  V30 1511 C 145.649 4.40229 0.520898 0
M  V30 1512 H 142.869 0.666704 -0.0758106 0
M  V30 1513 H 145.413 1.85779 -0.854774 0
M  V30 1514 H 143.568 3.81498 0.673643 0
M  V30 1515 H 143.982 5.12622 -1.1099 0
M  V30 1516 H 145.456 5.49144 0.560838 0
M  V30 1517 H 145.933 4.1108 1.54627 0
M  V30 1518 H 146.539 4.25131 -0.120018 0
M  V30 1519 N 144.854 0.36279 1.53368 0
M  V30 1520 C 146.079 -0.231226 2.06107 0
M  V30 1521 C 146.504 -1.419 1.23474 0
M  V30 1522 O 145.862 -1.79524 0.253128 0
M  V30 1523 C 145.91 -0.605523 3.5548 0
M  V30 1524 O 145.014 -1.70312 3.7559 0
M  V30 1525 H 144.355 -0.034327 0.663112 0
M  V30 1526 H 146.885 0.522584 1.97814 0
M  V30 1527 H 146.895 -0.877314 3.98456 0
M  V30 1528 H 145.57 0.263004 4.15068 0
M  V30 1529 H 144.147 -1.4271 3.44512 0
M  V30 1530 N 146.332 -1.57332 0.0918853 0
M  V30 1531 C 147.579 -1.94236 -0.572577 0
M  V30 1532 C 147.907 -0.973398 -1.6839 0
M  V30 1533 O 147.162 0.00756912 -1.95699 0
M  V30 1534 C 147.461 -3.37689 -1.17051 0
M  V30 1535 C 147.127 -4.50527 -0.183304 0
M  V30 1536 C 145.789 -4.81119 0.0882276 0
M  V30 1537 C 148.141 -5.18883 0.49095 0
M  V30 1538 C 145.469 -5.77395 1.04076 0
M  V30 1539 C 147.821 -6.1618 1.43193 0
M  V30 1540 C 146.485 -6.45179 1.71173 0
M  V30 1541 H 145.755 -0.710762 -0.209521 0
M  V30 1542 H 148.402 -1.9077 0.167036 0
M  V30 1543 H 146.707 -3.37718 -1.9863 0
M  V30 1544 H 148.404 -3.63543 -1.69227 0
M  V30 1545 H 144.994 -4.26681 -0.405124 0
M  V30 1546 H 149.178 -4.95427 0.294312 0
M  V30 1547 H 144.434 -5.98179 1.26457 0
M  V30 1548 H 148.608 -6.68243 1.96023 0
M  V30 1549 H 146.235 -7.1959 2.4514 0
M  V30 1550 N 147.81 0.181792 -1.56548 0
M  V30 1551 C 149.056 0.901431 -1.81665 0
M  V30 1552 C 149.389 1.82347 -0.668075 0
M  V30 1553 O 148.664 1.91669 0.330615 0
M  V30 1554 C 148.947 1.70618 -3.17115 0
M  V30 1555 C 148.8 0.807964 -4.42484 0
M  V30 1556 C 150.119 2.67605 -3.49393 0
M  V30 1557 H 147.238 0.32627 -0.660846 0
M  V30 1558 H 149.88 0.168134 -1.89255 0
M  V30 1559 H 148.03 2.33133 -3.10775 0
M  V30 1560 H 149.702 0.19649 -4.60881 0
M  V30 1561 H 147.945 0.115411 -4.33646 0
M  V30 1562 H 148.616 1.40632 -5.33785 0
M  V30 1563 H 151.092 2.15218 -3.56118 0
M  V30 1564 H 149.968 3.20985 -4.45264 0
M  V30 1565 H 150.229 3.47298 -2.73563 0
M  V30 1566 N 149.288 1.51039 0.449983 0
M  V30 1567 C 150.516 1.66869 1.2232 0
M  V30 1568 C 150.931 0.360727 1.85322 0
M  V30 1569 O 150.288 -0.659531 1.70166 0
M  V30 1570 C 150.339 2.77524 2.31652 0
M  V30 1571 O 150.06 4.03252 1.7123 0
M  V30 1572 C 151.561 3.04512 3.2216 0
M  V30 1573 H 148.781 0.560326 0.369155 0
M  V30 1574 H 151.325 1.97385 0.534719 0
M  V30 1575 H 149.48 2.49642 2.96239 0
M  V30 1576 H 149.894 4.64609 2.43389 0
M  V30 1577 H 151.368 3.85551 3.95038 0
M  V30 1578 H 151.845 2.16415 3.8218 0
M  V30 1579 H 152.451 3.34005 2.63288 0
M  V30 1580 N 150.766 -0.704594 1.40972 0
M  V30 1581 C 151.716 -1.81051 1.38581 0
M  V30 1582 C 152.7 -1.58759 0.261585 0
M  V30 1583 O 153.892 -1.69745 0.501556 0
M  V30 1584 C 151.021 -3.19279 1.26157 0
M  V30 1585 C 150.107 -3.47296 2.43405 0
M  V30 1586 N 150.498 -3.46064 3.68881 0
M  V30 1587 C 148.796 -3.77804 2.37023 0
M  V30 1588 C 149.497 -3.72733 4.46592 0
M  V30 1589 N 148.473 -3.9203 3.76581 0
M  V30 1590 H 152.275 -1.78448 2.33525 0
M  V30 1591 H 149.789 -0.904198 1.349 0
M  V30 1592 H 151.786 -3.98488 1.22526 0
M  V30 1593 H 150.446 -3.231 0.321902 0
M  V30 1594 H 151.457 -3.26656 4.01891 0
M  V30 1595 H 148.134 -3.8905 1.51481 0
M  V30 1596 H 149.524 -3.77993 5.55492 0
M  V30 1597 N 152.244 -1.26651 -0.937939 0
M  V30 1598 C 153.491 -1.12387 -1.6845 0
M  V30 1599 C 153.819 0.332208 -1.91642 0
M  V30 1600 O 153.074 1.2602 -1.49725 0
M  V30 1601 C 153.373 -1.84168 -3.06295 0
M  V30 1602 C 153.039 -3.34056 -3.02849 0
M  V30 1603 C 151.701 -3.74942 -3.01616 0
M  V30 1604 C 154.053 -4.29741 -2.9491 0
M  V30 1605 C 151.381 -5.09894 -2.90215 0
M  V30 1606 C 153.733 -5.64738 -2.8505 0
M  V30 1607 C 152.397 -6.0493 -2.82162 0
M  V30 1608 H 151.667 -0.411252 -0.616403 0
M  V30 1609 H 154.314 -1.57134 -1.09459 0
M  V30 1610 H 152.619 -1.319 -3.6893 0
M  V30 1611 H 154.316 -1.70569 -3.62915 0
M  V30 1612 H 150.906 -3.01534 -3.0459 0
M  V30 1613 H 155.09 -3.99133 -2.94969 0
M  V30 1614 H 150.346 -5.40194 -2.86358 0
M  V30 1615 H 154.52 -6.38561 -2.77872 0
M  V30 1616 H 152.147 -7.09457 -2.73084 0
M  V30 1617 N 153.722 1.14298 -1.08507 0
M  V30 1618 C 154.632 2.23027 -0.727753 0
M  V30 1619 C 155.648 1.71952 0.26619 0
M  V30 1620 O 156.824 2.011 0.109882 0
M  V30 1621 C 153.889 3.46403 -0.143541 0
M  V30 1622 C 152.95 4.12413 -1.19223 0
M  V30 1623 C 152.183 5.29899 -0.635798 0
M  V30 1624 O 152.406 5.67796 0.544393 0
M  V30 1625 O 151.34 5.85717 -1.38634 0
M  V30 1626 H 155.166 2.55945 -1.63481 0
M  V30 1627 H 152.751 1.22248 -0.858817 0
M  V30 1628 H 154.633 4.21018 0.179404 0
M  V30 1629 H 153.308 3.15206 0.736659 0
M  V30 1630 H 152.215 3.39667 -1.56772 0
M  V30 1631 H 153.548 4.47718 -2.04474 0
M  V30 1632 N 155.201 0.870884 1.31352 0
M  V30 1633 C 156.447 0.492314 1.97352 0
M  V30 1634 C 156.802 -0.945174 1.67583 0
M  V30 1635 O 156.095 -1.65674 0.962423 0
M  V30 1636 C 156.289 0.687157 3.50732 0
M  V30 1637 C 156.118 2.14203 3.95407 0
M  V30 1638 C 154.888 2.78382 4.21701 0
M  V30 1639 C 157.086 3.1144 4.09279 0
M  V30 1640 N 155.068 4.14611 4.52737 0
M  V30 1641 C 156.439 4.32702 4.44037 0
M  V30 1642 C 158.494 3.07418 3.91661 0
M  V30 1643 C 157.197 5.50463 4.63015 0
M  V30 1644 C 159.223 4.24438 4.11833 0
M  V30 1645 C 158.585 5.44463 4.46923 0
M  V30 1646 H 154.684 0.229206 0.747655 0
M  V30 1647 H 157.268 1.12568 1.5886 0
M  V30 1648 H 155.439 0.083384 3.8831 0
M  V30 1649 H 157.171 0.276883 4.03752 0
M  V30 1650 H 153.926 2.29326 4.14375 0
M  V30 1651 H 154.35 4.84928 4.72413 0
M  V30 1652 H 158.992 2.15732 3.6362 0
M  V30 1653 H 156.71 6.42666 4.89904 0
M  V30 1654 H 160.296 4.2278 3.99685 0
M  V30 1655 H 159.176 6.33504 4.62214 0
M  V30 1656 N 156.679 -1.44442 0.630414 0
M  V30 1657 C 157.956 -1.9549 0.0655657 0
M  V30 1658 C 158.336 -1.5724 -1.40851 0
M  V30 1659 O 157.684 -0.846116 -2.12257 0
M  V30 1660 C 157.894 -3.47812 0.287691 0
M  V30 1661 C 159.242 -4.24216 0.180513 0
M  V30 1662 O 160.266 -3.55526 0.219019 0
M  V30 1663 O 159.125 -5.46434 0.0848493 0
M  V30 1664 H 156.219 -0.826688 -0.0227177 0
M  V30 1665 H 158.765 -1.54496 0.702068 0
M  V30 1666 H 157.537 -3.687 1.31056 0
M  V30 1667 H 157.16 -3.95751 -0.382984 0
M  V30 1668 N 158.157 -0.370918 -1.53173 0
M  V30 1669 C 159.09 0.516727 -2.22273 0
M  V30 1670 C 160.068 1.07877 -1.21661 0
M  V30 1671 O 161.252 1.13389 -1.50583 0
M  V30 1672 C 158.379 1.71346 -2.92161 0
M  V30 1673 C 157.425 1.27838 -4.0689 0
M  V30 1674 S 158.258 0.275217 -5.34792 0
M  V30 1675 C 159.414 1.47816 -6.08195 0
M  V30 1676 H 159.647 -0.0701054 -2.97217 0
M  V30 1677 H 157.18 -0.155038 -1.5362 0
M  V30 1678 H 159.138 2.39988 -3.3304 0
M  V30 1679 H 157.799 2.27156 -2.16931 0
M  V30 1680 H 156.992 2.17141 -4.54825 0
M  V30 1681 H 156.594 0.671105 -3.6793 0
M  V30 1682 H 158.886 2.40831 -6.33251 0
M  V30 1683 H 159.829 1.04008 -7.0042 0
M  V30 1684 H 160.237 1.68663 -5.38714 0
M  V30 1685 N 159.635 1.57281 -0.100228 0
M  V30 1686 C 160.598 2.13158 0.842398 0
M  V30 1687 C 161.598 1.06202 1.20738 0
M  V30 1688 O 162.788 1.32066 1.13597 0
M  V30 1689 C 159.92 2.65639 2.13655 0
M  V30 1690 H 161.113 2.97766 0.357114 0
M  V30 1691 H 158.666 1.5559 0.148823 0
M  V30 1692 H 159.401 1.84566 2.66657 0
M  V30 1693 H 159.186 3.43844 1.88451 0
M  V30 1694 H 160.676 3.08846 2.81077 0
M  V30 1695 N 161.113 -0.173488 1.56642 0
M  V30 1696 C 162.06 -1.21482 1.96242 0
M  V30 1697 C 163.03 -1.44104 0.826027 0
M  V30 1698 O 164.215 -1.5688 1.08597 0
M  V30 1699 C 161.355 -2.54964 2.32567 0
M  V30 1700 C 160.468 -2.39739 3.59373 0
M  V30 1701 C 159.603 -3.66072 3.84921 0
M  V30 1702 C 158.642 -3.45771 5.05083 0
M  V30 1703 N 157.779 -4.64169 5.26775 0
M  V30 1704 H 162.619 -0.870123 2.85014 0
M  V30 1705 H 160.156 -0.418245 1.41029 0
M  V30 1706 H 162.114 -3.32758 2.5165 0
M  V30 1707 H 160.744 -2.87433 1.46908 0
M  V30 1708 H 159.796 -1.53131 3.48217 0
M  V30 1709 H 161.108 -2.20683 4.47326 0
M  V30 1710 H 160.262 -4.52303 4.0436 0
M  V30 1711 H 159.001 -3.88105 2.9534 0
M  V30 1712 H 158.006 -2.57927 4.85545 0
M  V30 1713 H 159.231 -3.25163 5.96193 0
M  V30 1714 H 157.177 -4.86425 4.40144 0
M  V30 1715 H 157.094 -4.48019 6.08946 0
M  V30 1716 H 158.362 -5.51689 5.5069 0
M  V30 1717 N 162.591 -1.51276 -0.441967 0
M  V30 1718 C 163.821 -1.67273 -1.21257 0
M  V30 1719 C 164.229 -0.367624 -1.85594 0
M  V30 1720 O 163.572 0.663349 -1.71305 0
M  V30 1721 C 163.634 -2.72807 -2.34129 0
M  V30 1722 C 163.298 -4.1554 -1.90198 0
M  V30 1723 C 164.295 -5.00471 -1.40801 0
M  V30 1724 C 161.98 -4.61616 -1.9803 0
M  V30 1725 C 163.974 -6.29536 -0.998174 0
M  V30 1726 C 161.661 -5.90679 -1.56658 0
M  V30 1727 C 162.659 -6.74466 -1.07633 0
M  V30 1728 O 162.347 -8.01116 -0.668459 0
M  V30 1729 H 162.079 -0.564614 -0.371734 0
M  V30 1730 H 164.633 -1.9843 -0.530521 0
M  V30 1731 H 162.863 -2.36954 -3.05597 0
M  V30 1732 H 164.552 -2.77729 -2.96009 0
M  V30 1733 H 165.318 -4.66079 -1.34148 0
M  V30 1734 H 161.197 -3.96526 -2.35135 0
M  V30 1735 H 164.741 -6.94885 -0.61482 0
M  V30 1736 H 160.638 -6.24586 -1.62979 0
M  V30 1737 H 161.406 -8.14633 -0.794722 0
M  V30 1738 N 164.069 0.697108 -1.41344 0
M  V30 1739 C 165.48 1.27697 -1.36199 0
M  V30 1740 C 165.831 1.9615 -0.0443463 0
M  V30 1741 O 164.956 1.98689 0.857419 0
M  V30 1742 C 165.551 2.32223 -2.46694 0
M  V30 1743 C 164.11 2.8579 -2.44952 0
M  V30 1744 C 163.257 1.59807 -2.26621 0
M  V30 1745 H 166.208 0.491968 -1.50882 0
M  V30 1746 H 166.229 3.1348 -2.15664 0
M  V30 1747 H 165.741 1.82373 -3.42581 0
M  V30 1748 H 163.842 3.3982 -1.52817 0
M  V30 1749 H 163.955 3.36325 -3.41207 0
M  V30 1750 H 162.319 1.8556 -1.7447 0
M  V30 1751 H 163.102 1.11956 -3.24532 0
M  V30 1752 N 165.547 1.27147 0.931209 0
M  V30 1753 C 166.793 1.13446 1.68101 0
M  V30 1754 C 167.126 -0.319628 1.91552 0
M  V30 1755 O 166.401 -1.23407 1.50336 0
M  V30 1756 C 166.684 1.91482 3.0497 0
M  V30 1757 C 166.537 3.44855 2.88782 0
M  V30 1758 C 167.856 1.71651 4.05246 0
M  V30 1759 H 164.975 0.413498 0.610072 0
M  V30 1760 H 167.617 1.56261 1.08086 0
M  V30 1761 H 165.767 1.55095 3.56199 0
M  V30 1762 H 167.439 3.9105 2.44698 0
M  V30 1763 H 165.682 3.71373 2.24198 0
M  V30 1764 H 166.353 3.94694 3.85902 0
M  V30 1765 H 168.829 2.0337 3.63015 0
M  V30 1766 H 167.705 2.28651 4.99009 0
M  V30 1767 H 167.966 0.663555 4.37092 0
M  V30 1768 N 167.025 -1.13721 1.09112 0
M  V30 1769 C 167.972 -2.19031 0.727591 0
M  V30 1770 C 168.942 -1.63555 -0.289656 0
M  V30 1771 O 170.127 -1.90023 -0.172026 0
M  V30 1772 C 167.267 -3.4477 0.15082 0
M  V30 1773 C 166.38 -4.14365 1.22172 0
M  V30 1774 C 165.515 -5.27709 0.608042 0
M  V30 1775 C 164.554 -5.89147 1.66047 0
M  V30 1776 N 163.691 -6.93929 1.06806 0
M  V30 1777 H 168.531 -2.49475 1.62991 0
M  V30 1778 H 166.068 -1.22499 0.81439 0
M  V30 1779 H 168.026 -4.16714 -0.201358 0
M  V30 1780 H 166.656 -3.14787 -0.714783 0
M  V30 1781 H 165.708 -3.40737 1.69122 0
M  V30 1782 H 167.02 -4.56114 2.01895 0
M  V30 1783 H 166.174 -6.06355 0.204523 0
M  V30 1784 H 164.913 -4.872 -0.220769 0
M  V30 1785 H 163.918 -5.09198 2.07357 0
M  V30 1786 H 165.143 -6.31729 2.49189 0
M  V30 1787 H 163.089 -6.55483 0.260476 0
M  V30 1788 H 163.006 -7.34202 1.8023 0
M  V30 1789 H 164.274 -7.76434 0.690644 0
M  V30 1790 N 168.503 -0.877838 -1.30888 0
M  V30 1791 C 169.435 -0.296607 -2.27273 0
M  V30 1792 C 170.448 0.544799 -1.53414 0
M  V30 1793 O 171.637 0.365511 -1.74718 0
M  V30 1794 C 168.737 0.597481 -3.33592 0
M  V30 1795 C 167.91 -0.213251 -4.3688 0
M  V30 1796 C 166.969 0.610208 -5.2265 0
M  V30 1797 O 165.995 0.035441 -5.69189 0
M  V30 1798 N 167.197 1.92071 -5.47804 0
M  V30 1799 H 169.962 -1.12492 -2.77787 0
M  V30 1800 H 167.523 -0.740105 -1.43993 0
M  V30 1801 H 169.515 1.15425 -3.87891 0
M  V30 1802 H 168.085 1.32647 -2.83061 0
M  V30 1803 H 167.305 -0.951466 -3.82545 0
M  V30 1804 H 168.593 -0.769262 -5.02951 0
M  V30 1805 H 167.991 2.4107 -5.11763 0
M  V30 1806 H 166.548 2.42508 -6.05007 0
M  V30 1807 N 169.982 1.44106 -0.638065 0
M  V30 1808 C 171.393 1.85316 -0.226894 0
M  V30 1809 C 171.744 1.53399 1.22324 0
M  V30 1810 O 170.869 0.975463 1.93167 0
M  V30 1811 C 171.464 3.3637 -0.405013 0
M  V30 1812 C 170.023 3.76369 -0.0482902 0
M  V30 1813 C 169.17 2.67921 -0.715108 0
M  V30 1814 H 172.121 1.34474 -0.842764 0
M  V30 1815 H 172.142 3.7885 0.354 0
M  V30 1816 H 171.654 3.59569 -1.46053 0
M  V30 1817 H 169.755 3.58784 1.00522 0
M  V30 1818 H 169.868 4.76856 -0.463187 0
M  V30 1819 H 168.232 2.54259 -0.149753 0
M  V30 1820 H 169.015 2.93951 -1.77335 0
M  V30 1821 N 171.46 0.379036 1.52974 0
M  V30 1822 C 172.39 -0.452706 2.29069 0
M  V30 1823 C 173.371 -1.07237 1.32039 0
M  V30 1824 O 174.556 -1.08708 1.60923 0
M  V30 1825 C 171.686 -1.5856 3.08992 0
M  V30 1826 C 170.64 -1.0925 4.13822 0
M  V30 1827 C 169.966 -2.31668 4.81907 0
M  V30 1828 C 171.266 -0.167702 5.22031 0
M  V30 1829 H 172.96 0.182181 2.98845 0
M  V30 1830 H 170.506 0.0890592 1.43724 0
M  V30 1831 H 172.459 -2.1742 3.6098 0
M  V30 1832 H 171.183 -2.24792 2.36931 0
M  V30 1833 H 169.842 -0.526494 3.628 0
M  V30 1834 H 169.49 -2.96386 4.06404 0
M  V30 1835 H 169.19 -1.9934 5.52754 0
M  V30 1836 H 170.714 -2.91189 5.36695 0
M  V30 1837 H 172.128 -0.664186 5.6944 0
M  V30 1838 H 170.525 0.0653265 6.00064 0
M  V30 1839 H 171.595 0.786347 4.78482 0
M  V30 1840 N 172.938 -1.57226 0.108567 0
M  V30 1841 C 174.184 -1.95121 -0.552761 0
M  V30 1842 C 174.517 -0.991345 -1.66991 0
M  V30 1843 O 173.792 -0.0267211 -1.94482 0
M  V30 1844 C 174.075 -3.43039 -1.09528 0
M  V30 1845 C 173.928 -4.49797 0.0177332 0
M  V30 1846 C 175.247 -3.92567 -1.98945 0
M  V30 1847 H 172.366 -0.709496 -0.199461 0
M  V30 1848 H 175.008 -1.89126 0.182011 0
M  V30 1849 H 173.158 -3.48279 -1.72146 0
M  V30 1850 H 174.83 -4.56661 0.652584 0
M  V30 1851 H 173.073 -4.284 0.682309 0
M  V30 1852 H 173.744 -5.50528 -0.402919 0
M  V30 1853 H 176.22 -3.89565 -1.46214 0
M  V30 1854 H 175.096 -4.96605 -2.33827 0
M  V30 1855 H 175.357 -3.32648 -2.91201 0
M  V30 1856 N 174.416 0.165178 -1.56732 0
M  V30 1857 C 175.641 0.900253 -1.86843 0
M  V30 1858 C 176.066 1.74766 -0.695596 0
M  V30 1859 O 175.424 1.77786 0.35522 0
M  V30 1860 C 175.472 1.74777 -3.15413 0
M  V30 1861 O 174.576 2.85007 -2.98068 0
M  V30 1862 H 173.917 0.251832 -0.614391 0
M  V30 1863 H 176.447 0.161468 -2.03962 0
M  V30 1864 H 176.457 2.14646 -3.46974 0
M  V30 1865 H 175.132 1.12537 -4.00385 0
M  V30 1866 H 173.709 2.48676 -2.77875 0
M  V30 1867 N 175.894 1.51508 0.433938 0
M  V30 1868 C 177.14 1.64588 1.18484 0
M  V30 1869 C 177.473 0.362666 1.90784 0
M  V30 1870 O 176.748 -0.637892 1.83742 0
M  V30 1871 C 177.031 2.85149 2.19913 0
M  V30 1872 C 176.884 4.23456 1.51674 0
M  V30 1873 C 178.203 3.01227 3.20858 0
M  V30 1874 H 175.322 0.598994 0.429389 0
M  V30 1875 H 177.964 1.84002 0.473647 0
M  V30 1876 H 176.114 2.68729 2.80566 0
M  V30 1877 H 177.786 4.51552 0.943322 0
M  V30 1878 H 176.029 4.25998 0.819035 0
M  V30 1879 H 176.7 5.03812 2.2556 0
M  V30 1880 H 179.176 3.16382 2.70263 0
M  V30 1881 H 178.052 3.87141 3.89118 0
M  V30 1882 H 178.313 2.13447 3.8716 0
M  V30 1883 N 177.372 -0.689602 1.41712 0
M  V30 1884 C 178.618 -1.45181 1.41599 0
M  V30 1885 C 178.951 -1.94181 0.0270081 0
M  V30 1886 O 178.226 -1.6993 -0.946265 0
M  V30 1887 C 178.509 -2.65945 2.42787 0
M  V30 1888 C 178.362 -2.22672 3.90816 0
M  V30 1889 C 179.681 -3.68149 2.41151 0
M  V30 1890 H 176.8 -0.526576 0.515642 0
M  V30 1891 H 179.442 -0.784947 1.73028 0
M  V30 1892 H 177.592 -3.2284 2.16116 0
M  V30 1893 H 179.264 -1.71058 4.28412 0
M  V30 1894 H 177.507 -1.54394 4.05395 0
M  V30 1895 H 178.178 -3.0935 4.57172 0
M  V30 1896 H 180.654 -3.2094 2.64834 0
M  V30 1897 H 179.53 -4.50248 3.13955 0
M  V30 1898 H 179.791 -4.18259 1.43221 0
M  V30 1899 N 178.85 -1.27639 -0.924453 0
M  V30 1900 C 180.127 -1.04887 -1.651 0
M  V30 1901 C 180.507 0.415327 -2.06974 0
M  V30 1902 O 179.855 1.39923 -1.80648 0
M  V30 1903 C 180.065 -2.01348 -2.85061 0
M  V30 1904 C 181.413 -2.30899 -3.56329 0
M  V30 1905 O 182.437 -1.99348 -2.95193 0
M  V30 1906 O 181.296 -2.84699 -4.66485 0
M  V30 1907 H 178.39 -0.400083 -0.723784 0
M  V30 1908 H 180.936 -1.38916 -0.974703 0
M  V30 1909 H 179.708 -3.0008 -2.51133 0
M  V30 1910 H 179.331 -1.679 -3.6041 0
M  V30 1911 N 180.328 1.1314 -1.09713 0
M  V30 1912 C 181.556 1.88321 -0.856898 0
M  V30 1913 C 181.971 1.79276 0.592073 0
M  V30 1914 O 181.328 1.16142 1.40774 0
M  V30 1915 C 181.379 3.37812 -1.28706 0
M  V30 1916 O 181.1 3.46627 -2.67921 0
M  V30 1917 C 182.601 4.29952 -1.07964 0
M  V30 1918 H 179.821 0.596094 -0.308079 0
M  V30 1919 H 182.365 1.43205 -1.45988 0
M  V30 1920 H 180.52 3.805 -0.727912 0
M  V30 1921 H 180.934 4.39579 -2.8613 0
M  V30 1922 H 182.408 5.33159 -1.42986 0
M  V30 1923 H 182.885 4.39196 -0.0176577 0
M  V30 1924 H 183.491 3.93036 -1.62489 0
M  V30 1925 N 181.806 0.884767 1.30421 0
M  V30 1926 C 183.055 0.499164 1.95426 0
M  V30 1927 C 183.368 -0.95645 1.70621 0
M  V30 1928 O 184.574 -1.44889 2.29607 0
M  V30 1929 C 183.03 0.84177 3.49917 0
M  V30 1930 C 182.638 2.31514 3.83543 0
M  V30 1931 C 184.382 0.525355 4.21237 0
M  V30 1932 C 182.289 2.59939 5.31212 0
M  V30 1933 H 181.219 0.182944 0.73147 0
M  V30 1934 H 183.87 1.07971 1.48373 0
M  V30 1935 H 182.252 0.190311 3.95542 0
M  V30 1936 H 183.426 3.0109 3.48829 0
M  V30 1937 H 181.741 2.59907 3.25326 0
M  V30 1938 H 184.338 0.714762 5.29901 0
M  V30 1939 H 184.681 -0.535222 4.12845 0
M  V30 1940 H 185.214 1.134 3.81294 0
M  V30 1941 H 181.953 3.64736 5.44654 0
M  V30 1942 H 181.473 1.94972 5.67227 0
M  V30 1943 H 183.152 2.45429 5.98643 0
M  V30 1944 N 183.284 -1.43765 0.645699 0
M  V30 1945 C 184.247 -2.29163 -0.0409488 0
M  V30 1946 C 185.247 -1.41813 -0.757996 0
M  V30 1947 O 186.437 -1.63527 -0.600382 0
M  V30 1948 C 183.569 -3.23716 -1.06869 0
M  V30 1949 H 184.762 -2.91366 0.710345 0
M  V30 1950 H 182.315 -1.5092 0.406547 0
M  V30 1951 H 183.05 -2.66393 -1.84947 0
M  V30 1952 H 182.835 -3.88105 -0.558277 0
M  V30 1953 H 184.325 -3.87831 -1.54845 0
M  V30 1954 N 184.763 -0.387143 -1.52771 0
M  V30 1955 C 185.71 0.449048 -2.26389 0
M  V30 1956 C 186.68 1.05961 -1.27912 0
M  V30 1957 O 187.865 1.08804 -1.56737 0
M  V30 1958 C 185.005 1.57155 -3.0724 0
M  V30 1959 C 184.118 0.984066 -4.20643 0
M  V30 1960 C 183.253 2.07745 -4.88892 0
M  V30 1961 C 182.292 1.46574 -5.94292 0
M  V30 1962 N 181.429 2.49834 -6.56146 0
M  V30 1963 H 186.269 -0.185205 -2.97424 0
M  V30 1964 H 183.806 -0.103164 -1.46738 0
M  V30 1965 H 185.764 2.23309 -3.52405 0
M  V30 1966 H 184.394 2.17615 -2.38419 0
M  V30 1967 H 183.446 0.212193 -3.79808 0
M  V30 1968 H 184.758 0.497029 -4.96318 0
M  V30 1969 H 183.912 2.81673 -5.3735 0
M  V30 1970 H 182.651 2.59807 -4.12737 0
M  V30 1971 H 181.656 0.711696 -5.45174 0
M  V30 1972 H 182.881 0.953088 -6.72379 0
M  V30 1973 H 180.827 3.0107 -5.82832 0
M  V30 1974 H 180.744 2.05879 -7.27427 0
M  V30 1975 H 182.012 3.23399 -7.09249 0
M  V30 1976 N 186.241 1.57166 -0.116904 0
M  V30 1977 C 187.173 2.12271 0.864507 0
M  V30 1978 C 188.186 1.06494 1.23138 0
M  V30 1979 O 189.375 1.33873 1.18069 0
M  V30 1980 C 186.475 2.60564 2.16702 0
M  V30 1981 C 185.648 3.90416 1.97216 0
M  V30 1982 C 184.707 4.24329 3.11178 0
M  V30 1983 O 183.733 4.93182 2.84184 0
M  V30 1984 N 184.935 3.8148 4.37554 0
M  V30 1985 H 187.7 2.97102 0.393726 0
M  V30 1986 H 185.261 1.61759 0.0675805 0
M  V30 1987 H 187.253 2.80282 2.91932 0
M  V30 1988 H 185.823 1.80623 2.55135 0
M  V30 1989 H 185.043 3.79627 1.06192 0
M  V30 1990 H 186.331 4.75327 1.81499 0
M  V30 1991 H 185.729 3.25943 4.62361 0
M  V30 1992 H 184.286 4.06311 5.09661 0
M  V30 1993 N 187.719 -0.156864 1.56817 0
M  V30 1994 C 188.649 -1.19589 2.00551 0
M  V30 1995 C 189.63 -1.4536 0.883426 0
M  V30 1996 O 190.815 -1.56449 1.15054 0
M  V30 1997 C 187.945 -2.53143 2.37773 0
M  V30 1998 C 186.899 -2.41913 3.53075 0
M  V30 1999 C 186.225 -3.80088 3.76081 0
M  V30 2000 C 187.525 -1.91157 4.86062 0
M  V30 2001 H 189.219 -0.832293 2.87599 0
M  V30 2002 H 186.765 -0.398918 1.38364 0
M  V30 2003 H 188.718 -3.26047 2.66967 0
M  V30 2004 H 187.442 -2.91319 1.4765 0
M  V30 2005 H 186.101 -1.71462 3.24031 0
M  V30 2006 H 185.749 -4.15683 2.83225 0
M  V30 2007 H 185.449 -3.73439 4.53671 0
M  V30 2008 H 186.973 -4.54556 4.0769 0
M  V30 2009 H 188.387 -2.53846 5.14038 0
M  V30 2010 H 186.784 -1.95422 5.67389 0
M  V30 2011 H 187.854 -0.866673 4.77092 0
M  V30 2012 N 189.197 -1.51736 -0.425897 0
M  V30 2013 C 190.16 -1.73271 -1.50032 0
M  V30 2014 C 191.16 -0.602639 -1.4908 0
M  V30 2015 O 192.35 -0.87033 -1.509 0
M  V30 2016 C 189.482 -1.79969 -2.89523 0
M  V30 2017 H 190.675 -2.69172 -1.32237 0
M  V30 2018 H 188.228 -1.41899 -0.65532 0
M  V30 2019 H 188.963 -0.859241 -3.1271 0
M  V30 2020 H 188.748 -2.62109 -2.91619 0
M  V30 2021 H 190.238 -1.9843 -3.67444 0
M  V30 2022 N 190.675 0.682077 -1.42076 0
M  V30 2023 C 191.607 1.80755 -1.40926 0
M  V30 2024 C 192.62 1.59833 -0.309398 0
M  V30 2025 O 193.809 1.69087 -0.572014 0
M  V30 2026 C 190.909 3.17744 -1.17865 0
M  V30 2027 C 190.082 3.65578 -2.40149 0
M  V30 2028 C 189.141 4.81277 -2.12742 0
M  V30 2029 O 188.167 4.92197 -2.85887 0
M  V30 2030 N 189.369 5.69474 -1.12602 0
M  V30 2031 H 192.134 1.82229 -2.37935 0
M  V30 2032 H 189.695 0.864903 -1.36861 0
M  V30 2033 H 191.687 3.9279 -0.9746 0
M  V30 2034 H 190.257 3.11214 -0.294068 0
M  V30 2035 H 189.477 2.81291 -2.76169 0
M  V30 2036 H 190.765 3.94278 -3.21593 0
M  V30 2037 H 190.163 5.63297 -0.520899 0
M  V30 2038 H 188.72 6.44363 -0.981842 0
M  V30 2039 N 192.153 1.28127 0.917671 0
M  V30 2040 C 193.402 1.14432 1.66097 0
M  V30 2041 C 193.715 -0.307247 1.93172 0
M  V30 2042 O 194.921 -0.565259 2.65551 0
M  V30 2043 C 193.377 2.00015 2.99202 0
M  V30 2044 C 192.985 3.49889 2.79789 0
M  V30 2045 C 194.729 1.94996 3.77064 0
M  V30 2046 C 192.636 4.27636 4.08511 0
M  V30 2047 H 191.566 0.424662 0.62304 0
M  V30 2048 H 194.217 1.52628 1.01868 0
M  V30 2049 H 192.599 1.54672 3.64544 0
M  V30 2050 H 193.773 4.03162 2.23152 0
M  V30 2051 H 192.088 3.56392 2.15345 0
M  V30 2052 H 194.685 2.50354 4.72469 0
M  V30 2053 H 195.028 0.925819 4.05875 0
M  V30 2054 H 195.561 2.38287 3.18534 0
M  V30 2055 H 192.3 5.30615 3.84874 0
M  V30 2056 H 191.82 3.79137 4.64774 0
M  V30 2057 H 193.499 4.37346 4.76799 0
M  V30 2058 N 193.631 -1.12557 1.10312 0
M  V30 2059 C 194.541 -2.21841 0.763142 0
M  V30 2060 C 195.557 -1.72354 -0.238801 0
M  V30 2061 O 196.733 -2.01249 -0.0778746 0
M  V30 2062 C 193.798 -3.46131 0.198632 0
M  V30 2063 C 192.859 -4.10464 1.25769 0
M  V30 2064 C 192.092 -5.28821 0.72002 0
M  V30 2065 O 192.315 -5.6859 -0.453993 0
M  V30 2066 O 191.249 -5.83437 1.47935 0
M  V30 2067 H 195.075 -2.53312 1.67532 0
M  V30 2068 H 192.66 -1.20867 0.878157 0
M  V30 2069 H 194.542 -4.2125 -0.112401 0
M  V30 2070 H 193.217 -3.16338 -0.686419 0
M  V30 2071 H 192.124 -3.3713 1.62156 0
M  V30 2072 H 193.457 -4.44408 2.11571 0
M  V30 2073 N 195.109 -0.891671 -1.2995 0
M  V30 2074 C 196.042 -0.307994 -2.26112 0
M  V30 2075 C 197.02 0.575262 -1.52084 0
M  V30 2076 O 198.204 0.523864 -1.81074 0
M  V30 2077 C 195.331 0.561734 -3.34009 0
M  V30 2078 C 194.377 -0.253107 -4.25748 0
M  V30 2079 S 195.21 -1.64572 -5.09584 0
M  V30 2080 C 196.366 -0.782699 -6.20987 0
M  V30 2081 H 196.599 -1.12309 -2.75271 0
M  V30 2082 H 194.132 -0.691509 -1.38049 0
M  V30 2083 H 196.09 1.05777 -3.96638 0
M  V30 2084 H 194.751 1.35099 -2.83561 0
M  V30 2085 H 193.944 0.410908 -5.02322 0
M  V30 2086 H 193.546 -0.682004 -3.67729 0
M  V30 2087 H 195.838 -0.00257476 -6.775 0
M  V30 2088 H 196.781 -1.52026 -6.91588 0
M  V30 2089 H 197.189 -0.340638 -5.63471 0
M  V30 2090 N 196.587 1.43421 -0.653314 0
M  V30 2091 C 197.864 1.95361 -0.0966581 0
M  V30 2092 C 198.244 1.59461 1.38331 0
M  V30 2093 O 197.592 0.879777 2.10884 0
M  V30 2094 C 197.802 3.47311 -0.342988 0
M  V30 2095 C 199.15 4.23875 -0.24798 0
M  V30 2096 O 200.174 3.55133 -0.275553 0
M  V30 2097 O 199.033 5.4623 -0.171771 0
M  V30 2098 H 196.127 0.826945 0.00956291 0
M  V30 2099 H 198.673 1.5336 -0.726558 0
M  V30 2100 H 197.445 3.66569 -1.36906 0
M  V30 2101 H 197.068 3.9631 0.319975 0
M  V30 2102 N 198.065 0.39524 1.52563 0
M  V30 2103 C 198.995 -0.428384 2.29537 0
M  V30 2104 C 199.976 -1.05831 1.33169 0
M  V30 2105 O 201.161 -1.06995 1.62067 0
M  V30 2106 C 198.291 -1.55274 3.10656 0
M  V30 2107 C 197.245 -1.04855 4.14957 0
M  V30 2108 C 196.571 -2.26543 4.84337 0
M  V30 2109 C 197.871 -0.112324 5.22179 0
M  V30 2110 H 199.565 0.213867 2.98635 0
M  V30 2111 H 197.111 0.104298 1.43622 0
M  V30 2112 H 199.064 -2.1358 3.63265 0
M  V30 2113 H 197.788 -2.22266 2.39302 0
M  V30 2114 H 196.447 -0.487985 3.63338 0
M  V30 2115 H 196.095 -2.92059 4.09525 0
M  V30 2116 H 195.795 -1.93466 5.54837 0
M  V30 2117 H 197.319 -2.85481 5.39753 0
M  V30 2118 H 198.733 -0.603752 5.70112 0
M  V30 2119 H 197.13 0.128968 5.99961 0
M  V30 2120 H 198.2 0.837052 4.77621 0
M  V30 2121 N 199.544 -1.57102 0.125237 0
M  V30 2122 C 200.491 -2.15641 -0.822655 0
M  V30 2123 C 201.461 -1.08313 -1.25927 0
M  V30 2124 O 202.646 -1.36251 -1.33567 0
M  V30 2125 C 199.786 -2.76504 -2.06494 0
M  V30 2126 C 198.899 -3.98158 -1.67612 0
M  V30 2127 C 198.034 -4.47088 -2.86854 0
M  V30 2128 C 197.073 -5.6126 -2.44242 0
M  V30 2129 N 196.21 -6.04905 -3.56419 0
M  V30 2130 H 201.05 -2.96313 -0.316625 0
M  V30 2131 H 198.587 -1.46388 -0.144588 0
M  V30 2132 H 200.545 -3.09925 -2.79289 0
M  V30 2133 H 199.175 -1.98512 -2.54545 0
M  V30 2134 H 198.227 -3.70858 -0.846661 0
M  V30 2135 H 199.539 -4.80934 -1.32301 0
M  V30 2136 H 198.693 -4.82451 -3.67867 0
M  V30 2137 H 197.432 -3.63275 -3.25396 0
M  V30 2138 H 196.437 -5.25495 -1.61663 0
M  V30 2139 H 197.662 -6.46843 -2.0681 0
M  V30 2140 H 195.608 -5.24032 -3.94623 0
M  V30 2141 H 195.525 -6.82552 -3.25051 0
M  V30 2142 H 196.793 -6.44907 -4.37853 0
M  V30 2143 N 201.022 0.148545 -1.56898 0
M  V30 2144 C 202.247 0.880385 -1.87787 0
M  V30 2145 C 202.672 1.74018 -0.714093 0
M  V30 2146 O 202.03 1.78153 0.336343 0
M  V30 2147 C 202.078 1.71422 -3.17249 0
M  V30 2148 O 201.182 2.8183 -3.01074 0
M  V30 2149 H 200.523 0.245301 -0.617028 0
M  V30 2150 H 203.053 0.139826 -2.04122 0
M  V30 2151 H 203.063 2.10954 -3.49231 0
M  V30 2152 H 201.738 1.08284 -4.01556 0
M  V30 2153 H 200.315 2.45715 -2.80497 0
M  V30 2154 N 202.5 1.5196 0.417844 0
M  V30 2155 C 203.916 1.40569 0.755816 0
M  V30 2156 C 204.116 0.503316 1.95113 0
M  V30 2157 O 203.172 -0.0341925 2.52477 0
M  V30 2158 C 204.485 2.82947 1.01791 0
M  V30 2159 C 206.033 2.92231 1.12116 0
M  V30 2160 C 206.508 4.35559 1.41608 0
M  V30 2161 N 207.999 4.38753 1.48491 0
M  V30 2162 C 208.734 5.46705 1.7292 0
M  V30 2163 N 208.23 6.64788 1.95011 0
M  V30 2164 N 210.023 5.34209 1.74863 0
M  V30 2165 H 202.174 2.09168 -0.369098 0
M  V30 2166 H 204.437 0.942409 -0.102809 0
M  V30 2167 H 204.143 3.5106 0.212081 0
M  V30 2168 H 204.017 3.23462 1.94042 0
M  V30 2169 H 206.404 2.24304 1.9176 0
M  V30 2170 H 206.485 2.55185 0.177225 0
M  V30 2171 H 206.129 5.04042 0.624848 0
M  V30 2172 H 206.059 4.70133 2.37239 0
M  V30 2173 H 208.55 3.5363 1.33244 0
M  V30 2174 H 208.863 7.42845 2.13076 0
M  V30 2175 H 207.208 6.67869 1.92293 0
M  V30 2176 H 210.399 4.40937 1.57137 0
M  V30 2177 H 210.572 6.18415 1.93563 0
M  V30 2178 N 203.978 -0.674533 1.42435 0
M  V30 2179 C 205.206 -1.46283 1.46317 0
M  V30 2180 C 205.621 -1.88653 0.0745836 0
M  V30 2181 O 204.978 -1.58151 -0.91074 0
M  V30 2182 C 205.029 -2.71178 2.3905 0
M  V30 2183 O 204.75 -2.30586 3.72507 0
M  V30 2184 C 206.251 -3.64738 2.51955 0
M  V30 2185 H 203.471 -0.450104 0.497642 0
M  V30 2186 H 206.015 -0.828792 1.86953 0
M  V30 2187 H 204.17 -3.3077 2.01667 0
M  V30 2188 H 204.584 -3.11241 4.22172 0
M  V30 2189 H 206.058 -4.49096 3.20962 0
M  V30 2190 H 206.535 -4.10656 1.55752 0
M  V30 2191 H 207.141 -3.11038 2.90061 0
M  V30 2192 N 205.456 -1.28612 -0.910864 0
M  V30 2193 C 206.419 -1.12803 -1.9952 0
M  V30 2194 C 207.419 -0.0668264 -1.60661 0
M  V30 2195 O 208.609 -0.312847 -1.71368 0
M  V30 2196 C 205.741 -0.72254 -3.33155 0
M  V30 2197 H 206.934 -2.09109 -2.14973 0
M  V30 2198 H 204.487 -1.11639 -1.09391 0
M  V30 2199 H 205.222 0.241152 -3.23402 0
M  V30 2200 H 205.007 -1.48916 -3.62721 0
M  V30 2201 H 206.497 -0.634666 -4.12749 0
M  V30 2202 N 206.934 1.1197 -1.10907 0
M  V30 2203 C 207.897 2.16031 -0.765707 0
M  V30 2204 C 208.897 1.59393 0.212235 0
M  V30 2205 O 210.087 1.74196 -0.0115441 0
M  V30 2206 C 207.219 3.40632 -0.135053 0
M  V30 2207 H 208.412 2.47919 -1.68748 0
M  V30 2208 H 205.965 1.27061 -0.910226 0
M  V30 2209 H 206.7 3.14348 0.797218 0
M  V30 2210 H 206.485 3.8302 -0.838937 0
M  V30 2211 H 207.975 4.17505 0.0892469 0
M  V30 2212 N 208.412 0.89855 1.29475 0
M  V30 2213 C 209.642 0.538479 1.99459 0
M  V30 2214 C 210.05 -0.880922 1.67441 0
M  V30 2215 O 209.393 -1.59283 0.915127 0
M  V30 2216 C 209.455 0.649564 3.53583 0
M  V30 2217 C 209.119 2.03573 4.09154 0
M  V30 2218 C 210.116 3.00675 4.24135 0
M  V30 2219 C 207.801 2.3448 4.44212 0
M  V30 2220 C 209.795 4.26809 4.73405 0
M  V30 2221 C 207.482 3.60857 4.93179 0
M  V30 2222 C 208.48 4.56836 5.0773 0
M  V30 2223 O 208.168 5.80969 5.55635 0
M  V30 2224 H 207.9 0.205372 0.644048 0
M  V30 2225 H 210.454 1.20958 1.66007 0
M  V30 2226 H 208.684 -0.0785592 3.8662 0
M  V30 2227 H 210.373 0.29881 4.04799 0
M  V30 2228 H 211.139 2.78112 3.97339 0
M  V30 2229 H 207.018 1.60534 4.32145 0
M  V30 2230 H 210.562 5.0173 4.84678 0
M  V30 2231 H 206.459 3.83251 5.19412 0
M  V30 2232 H 207.227 5.83542 5.73952 0
M  V30 2233 N 209.89 -1.43072 0.660911 0
M  V30 2234 C 210.838 -2.32569 -0.0378199 0
M  V30 2235 C 211.832 -1.49046 -0.805092 0
M  V30 2236 O 213.038 -1.65206 -0.714624 0
M  V30 2237 H 209.413 -0.75136 -0.031019 0
M  V30 2238 H 211.384 -2.89216 0.734609 0
M  V30 2239 C 210.133 -3.33453 -0.985124 0
M  V30 2240 H 209.456 -3.97752 -0.404147 0
M  V30 2241 H 210.896 -3.98691 -1.44297 0
M  V30 2242 C 209.355 -2.64642 -2.08486 0
M  V30 2243 O 209.885 -2.46776 -3.16961 0
M  V30 2244 N 208.091 -2.23891 -1.8526 0
M  V30 2245 H 207.638 -2.38621 -0.970449 0
M  V30 2246 H 207.596 -1.78181 -2.59034 0
M  V30 2247 N 211.368 -0.403325 -1.52352 0
M  V30 2248 C 212.596 0.174012 -2.06167 0
M  V30 2249 C 213.011 1.39347 -1.27388 0
M  V30 2250 O 212.368 1.79597 -0.324201 0
M  V30 2251 C 212.419 0.530223 -3.5759 0
M  V30 2252 O 212.14 -0.640806 -4.33388 0
M  V30 2253 C 213.641 1.16192 -4.27802 0
M  V30 2254 H 210.861 0.0229464 -0.670608 0
M  V30 2255 H 213.405 -0.572604 -1.9632 0
M  V30 2256 H 211.56 1.22673 -3.67464 0
M  V30 2257 H 211.974 -0.344851 -5.23365 0
M  V30 2258 H 213.448 1.36141 -5.34948 0
M  V30 2259 H 213.925 2.13335 -3.83907 0
M  V30 2260 H 214.531 0.505775 -4.22282 0
M  V30 2261 N 212.846 1.57033 -0.133567 0
M  V30 2262 C 213.776 2.1909 0.807567 0
M  V30 2263 C 214.757 1.13517 1.26681 0
M  V30 2264 O 215.942 1.41809 1.32679 0
M  V30 2265 C 213.072 2.80188 2.05212 0
M  V30 2266 C 212.026 3.91471 1.73015 0
M  V30 2267 C 211.352 4.39443 3.04622 0
M  V30 2268 C 212.652 5.12886 0.987168 0
M  V30 2269 H 214.346 2.97988 0.290403 0
M  V30 2270 H 211.892 1.43335 0.138239 0
M  V30 2271 H 213.845 3.22264 2.71521 0
M  V30 2272 H 212.569 1.98601 2.59278 0
M  V30 2273 H 211.228 3.49993 1.0909 0
M  V30 2274 H 210.876 3.54695 3.56651 0
M  V30 2275 H 210.576 5.14495 2.83847 0
M  V30 2276 H 212.1 4.8418 3.72024 0
M  V30 2277 H 213.514 5.51891 1.55208 0
M  V30 2278 H 211.911 5.93615 0.87985 0
M  V30 2279 H 212.981 4.84894 -0.0235286 0
M  V30 2280 N 214.325 -0.140222 1.56975 0
M  V30 2281 C 215.272 -1.17292 1.98774 0
M  V30 2282 C 216.242 -1.4232 0.856408 0
M  V30 2283 O 217.427 -1.54541 1.119 0
M  V30 2284 C 214.567 -2.49973 2.37923 0
M  V30 2285 C 213.68 -2.32062 3.64378 0
M  V30 2286 C 212.815 -3.57825 3.926 0
M  V30 2287 C 211.854 -3.3498 5.12303 0
M  V30 2288 N 210.991 -4.52891 5.36502 0
M  V30 2289 H 215.831 -0.809472 2.86795 0
M  V30 2290 H 213.368 -0.388237 1.41884 0
M  V30 2291 H 215.326 -3.27346 2.58652 0
M  V30 2292 H 213.956 -2.84252 1.52972 0
M  V30 2293 H 213.008 -1.45711 3.51387 0
M  V30 2294 H 214.32 -2.11145 4.51906 0
M  V30 2295 H 213.474 -4.43624 4.13863 0
M  V30 2296 H 212.213 -3.81753 3.03506 0
M  V30 2297 H 211.218 -2.4757 4.90906 0
M  V30 2298 H 212.443 -3.12444 6.02956 0
M  V30 2299 H 210.389 -4.76979 4.50363 0
M  V30 2300 H 210.306 -4.35001 6.18312 0
M  V30 2301 H 211.574 -5.39884 5.62268 0
M  V30 2302 N 215.803 -1.52179 -0.40978 0
M  V30 2303 C 217.031 -1.70054 -1.17853 0
M  V30 2304 C 217.446 -0.409735 -1.843 0
M  V30 2305 O 216.803 0.614183 -1.71855 0
M  V30 2306 C 216.854 -2.83568 -2.24213 0
M  V30 2307 O 216.575 -4.0765 -1.60478 0
M  V30 2308 C 218.076 -3.12947 -3.13973 0
M  V30 2309 H 215.296 -0.569917 -0.354169 0
M  V30 2310 H 217.84 -1.98734 -0.482198 0
M  V30 2311 H 215.995 -2.57409 -2.89516 0
M  V30 2312 H 216.409 -4.70899 -2.30986 0
M  V30 2313 H 217.883 -3.95889 -3.84677 0
M  V30 2314 H 218.36 -2.26472 -3.76307 0
M  V30 2315 H 218.966 -3.40868 -2.5434 0
M  V30 2316 N 217.281 0.66697 -1.42791 0
M  V30 2317 C 218.229 1.80157 -1.47127 0
M  V30 2318 C 219.223 1.65825 -0.346199 0
M  V30 2319 O 220.429 1.72338 -0.519572 0
M  V30 2320 H 216.804 0.594158 -0.460956 0
M  V30 2321 H 218.775 1.73619 -2.42692 0
M  V30 2322 C 217.524 3.18351 -1.39813 0
M  V30 2323 H 216.847 3.3001 -2.25684 0
M  V30 2324 H 218.287 3.97736 -1.46908 0
M  V30 2325 C 216.746 3.36707 -0.11391 0
M  V30 2326 O 217.276 3.93027 0.830241 0
M  V30 2327 N 215.482 2.90586 -0.0285295 0
M  V30 2328 H 215.029 2.4494 -0.79764 0
M  V30 2329 H 214.987 3.03245 0.830063 0
M  V30 2330 N 218.759 1.29093 0.90403 0
M  V30 2331 C 219.689 1.16401 2.02418 0
M  V30 2332 C 220.67 0.0593085 1.69997 0
M  V30 2333 O 221.855 0.238021 1.92736 0
M  V30 2334 C 218.985 0.835233 3.37107 0
M  V30 2335 C 217.939 1.89578 3.83724 0
M  V30 2336 C 217.265 1.42041 5.15489 0
M  V30 2337 C 218.565 3.30394 4.04521 0
M  V30 2338 H 220.259 2.10109 2.13295 0
M  V30 2339 H 217.805 1.01157 1.02486 0
M  V30 2340 H 219.758 0.733169 4.14973 0
M  V30 2341 H 218.482 -0.137543 3.2631 0
M  V30 2342 H 217.141 1.98715 3.08071 0
M  V30 2343 H 216.789 0.436426 5.01103 0
M  V30 2344 H 216.489 2.12964 5.4765 0
M  V30 2345 H 218.013 1.33176 5.959 0
M  V30 2346 H 219.427 3.24123 4.72882 0
M  V30 2347 H 217.824 3.99237 4.48029 0
M  V30 2348 H 218.894 3.73692 3.09002 0
M  V30 2349 N 220.237 -1.11381 1.11499 0
M  V30 2350 C 221.147 -2.21019 0.786628 0
M  V30 2351 C 222.163 -1.72597 -0.220507 0
M  V30 2352 O 223.339 -2.01321 -0.0565251 0
M  V30 2353 C 220.404 -3.459 0.235333 0
M  V30 2354 C 219.465 -4.09107 1.30115 0
M  V30 2355 C 218.698 -5.28027 0.776068 0
M  V30 2356 O 218.921 -5.6904 -0.393661 0
M  V30 2357 O 217.855 -5.81835 1.54114 0
M  V30 2358 H 221.681 -2.51521 1.70209 0
M  V30 2359 H 219.266 -1.19928 0.890928 0
M  V30 2360 H 221.148 -4.21346 -0.067715 0
M  V30 2361 H 219.823 -3.17049 -0.652828 0
M  V30 2362 H 218.73 -3.35391 1.65722 0
M  V30 2363 H 220.063 -4.42139 2.16273 0
M  V30 2364 N 221.715 -0.905404 -1.28997 0
M  V30 2365 C 222.663 -0.377431 -2.29517 0
M  V30 2366 C 223.657 0.526461 -1.61012 0
M  V30 2367 O 224.863 0.40863 -1.753 0
M  V30 2368 H 221.238 -0.103437 -0.744852 0
M  V30 2369 H 223.209 -1.23848 -2.71485 0
M  V30 2370 C 221.958 0.374833 -3.45674 0
M  V30 2371 H 221.281 -0.311474 -3.98585 0
M  V30 2372 H 222.721 0.70903 -4.1803 0
M  V30 2373 C 221.18 1.57963 -2.97572 0
M  V30 2374 O 221.71 2.67886 -2.99333 0
M  V30 2375 N 219.916 1.42375 -2.53333 0
M  V30 2376 H 219.463 0.529466 -2.521 0
M  V30 2377 H 219.421 2.23117 -2.21509 0
M  V30 2378 N 223.193 1.4272 -0.668489 0
M  V30 2379 C 224.123 2.335 -0.000100175 0
M  V30 2380 C 225.104 1.50328 0.795964 0
M  V30 2381 O 226.289 1.78949 0.754385 0
M  V30 2382 C 223.419 3.33874 0.956302 0
M  V30 2383 C 222.373 4.27152 0.269278 0
M  V30 2384 C 221.699 5.17684 1.33818 0
M  V30 2385 C 222.999 5.15373 -0.847805 0
M  V30 2386 H 224.693 2.89639 -0.758244 0
M  V30 2387 H 222.239 1.39269 -0.366079 0
M  V30 2388 H 224.192 3.9629 1.43292 0
M  V30 2389 H 222.916 2.76025 1.74579 0
M  V30 2390 H 221.575 3.66123 -0.187042 0
M  V30 2391 H 221.223 4.56165 2.1195 0
M  V30 2392 H 220.923 5.80918 0.883659 0
M  V30 2393 H 222.447 5.82974 1.81586 0
M  V30 2394 H 223.861 5.7151 -0.452681 0
M  V30 2395 H 222.258 5.87407 -1.22773 0
M  V30 2396 H 223.328 4.5415 -1.69929 0
M  V30 2397 N 224.671 0.411399 1.52136 0
M  V30 2398 C 225.581 -0.419774 2.30814 0
M  V30 2399 C 226.597 -1.0515 1.38634 0
M  V30 2400 O 227.773 -1.05252 1.71709 0
M  V30 2401 C 224.838 -1.52019 3.11594 0
M  V30 2402 C 223.899 -0.91129 4.19516 0
M  V30 2403 C 223.132 -1.95927 4.96436 0
M  V30 2404 O 223.355 -3.17775 4.73683 0
M  V30 2405 O 222.289 -1.56423 5.81219 0
M  V30 2406 H 226.115 0.221805 3.02889 0
M  V30 2407 H 223.7 0.174547 1.48377 0
M  V30 2408 H 225.582 -2.15898 3.61892 0
M  V30 2409 H 224.257 -2.14633 2.42311 0
M  V30 2410 H 223.164 -0.235157 3.7336 0
M  V30 2411 H 224.497 -0.32904 4.91099 0
M  V30 2412 N 226.149 -1.5696 0.141893 0
M  V30 2413 C 227.096 -2.16501 -0.799737 0
M  V30 2414 C 228.066 -1.09643 -1.24771 0
M  V30 2415 O 229.251 -1.3766 -1.32115 0
M  V30 2416 C 226.391 -2.78679 -2.03549 0
M  V30 2417 C 225.504 -3.99914 -1.6338 0
M  V30 2418 C 224.639 -4.50106 -2.82096 0
M  V30 2419 C 223.678 -5.63819 -2.38275 0
M  V30 2420 N 222.815 -6.08651 -3.49983 0
M  V30 2421 H 227.655 -2.96632 -0.285179 0
M  V30 2422 H 225.192 -1.46533 -0.129053 0
M  V30 2423 H 227.15 -3.1287 -2.75986 0
M  V30 2424 H 225.78 -2.012 -2.52425 0
M  V30 2425 H 224.832 -3.71735 -0.807279 0
M  V30 2426 H 226.144 -4.82311 -1.27192 0
M  V30 2427 H 225.298 -4.86325 -3.62729 0
M  V30 2428 H 224.037 -3.66706 -3.21525 0
M  V30 2429 H 223.042 -5.2718 -1.56081 0
M  V30 2430 H 224.267 -6.49 -1.99938 0
M  V30 2431 H 222.213 -5.28188 -3.89042 0
M  V30 2432 H 222.13 -6.85961 -3.17794 0
M  V30 2433 H 223.398 -6.49515 -4.30988 0
M  V30 2434 N 227.627 0.131896 -1.57047 0
M  V30 2435 C 228.574 1.16236 -1.99393 0
M  V30 2436 C 229.544 1.41863 -0.863943 0
M  V30 2437 O 230.729 1.53946 -1.12718 0
M  V30 2438 C 227.869 2.48708 -2.39245 0
M  V30 2439 C 226.982 2.30127 -3.65603 0
M  V30 2440 C 226.117 3.55738 -3.94492 0
M  V30 2441 C 225.156 3.32259 -5.14073 0
M  V30 2442 N 224.293 4.50039 -5.38896 0
M  V30 2443 H 229.133 0.794251 -2.87221 0
M  V30 2444 H 226.67 0.380707 -1.42088 0
M  V30 2445 H 228.628 3.25969 -2.60384 0
M  V30 2446 H 227.258 2.83437 -1.54478 0
M  V30 2447 H 226.31 1.43845 -3.52154 0
M  V30 2448 H 227.622 2.08746 -4.5302 0
M  V30 2449 H 226.776 4.41423 -4.1621 0
M  V30 2450 H 225.515 3.80138 -3.05526 0
M  V30 2451 H 224.52 2.44963 -4.92212 0
M  V30 2452 H 225.745 3.09242 -6.04604 0
M  V30 2453 H 223.691 4.74584 -4.52886 0
M  V30 2454 H 223.608 4.31716 -6.2061 0
M  V30 2455 H 224.876 5.36895 -5.65123 0
M  V30 2456 N 229.106 1.52395 0.401703 0
M  V30 2457 C 230.331 1.70972 1.17403 0
M  V30 2458 C 230.756 0.421615 1.83314 0
M  V30 2459 O 230.114 -0.621564 1.70312 0
M  V30 2460 C 230.162 2.85151 2.20728 0
M  V30 2461 O 229.266 2.51238 3.27037 0
M  V30 2462 H 228.607 0.568927 0.342372 0
M  V30 2463 H 231.137 1.99131 0.469891 0
M  V30 2464 H 231.147 3.10279 2.64936 0
M  V30 2465 H 229.822 3.78603 1.7214 0
M  V30 2466 H 228.399 2.36808 2.88057 0
M  V30 2467 N 230.584 -0.659388 1.43143 0
M  V30 2468 C 231.517 -1.78425 1.42267 0
M  V30 2469 C 232.495 -1.60085 0.284894 0
M  V30 2470 O 233.679 -1.82351 0.477527 0
M  V30 2471 C 230.806 -3.15642 1.22833 0
M  V30 2472 C 229.852 -3.52698 2.39806 0
M  V30 2473 S 230.685 -3.53372 4.02353 0
M  V30 2474 C 231.841 -4.93256 3.85291 0
M  V30 2475 H 232.074 -1.78897 2.37452 0
M  V30 2476 H 229.607 -0.831469 1.301 0
M  V30 2477 H 231.565 -3.94838 1.12308 0
M  V30 2478 H 230.226 -3.12739 0.29207 0
M  V30 2479 H 229.419 -4.52475 2.21996 0
M  V30 2480 H 229.021 -2.80899 2.46925 0
M  V30 2481 H 231.313 -5.81751 3.47235 0
M  V30 2482 H 232.256 -5.16115 4.84799 0
M  V30 2483 H 232.664 -4.665 3.17865 0
M  V30 2484 N 232.062 -1.29571 -0.897171 0
M  V30 2485 C 233.31 -1.17456 -1.64464 0
M  V30 2486 C 233.631 0.273698 -1.9307 0
M  V30 2487 O 232.901 1.18684 -1.55855 0
M  V30 2488 H 231.481 -0.431706 -0.609622 0
M  V30 2489 H 234.143 -1.62531 -1.07562 0
M  V30 2490 H 233.239 -1.72648 -2.59998 0
M  V30 2491 N 233.54 1.10788 -1.12088 0
M  V30 2492 C 234.488 2.19111 -0.780587 0
M  V30 2493 C 235.482 1.67818 0.230961 0
M  V30 2494 O 236.688 1.79777 0.0895427 0
M  V30 2495 H 233.063 0.714477 -0.234578 0
M  V30 2496 H 235.034 2.45055 -1.70266 0
M  V30 2497 C 233.783 3.46818 -0.24747 0
M  V30 2498 H 233.106 3.86646 -1.01712 0
M  V30 2499 H 234.546 4.23973 -0.0476291 0
M  V30 2500 C 233.005 3.20968 1.02378 0
M  V30 2501 O 233.535 3.42298 2.10226 0
M  V30 2502 N 231.741 2.74658 0.949271 0
M  V30 2503 H 231.288 2.57501 0.0715173 0
M  V30 2504 H 231.246 2.57739 1.80049 0
M  V30 2505 N 235.018 0.912232 1.28515 0
M  V30 2506 C 235.948 0.416403 2.29757 0
M  V30 2507 C 236.929 -0.515194 1.6211 0
M  V30 2508 O 238.114 -0.423253 1.89532 0
M  V30 2509 C 235.244 -0.34572 3.45575 0
M  V30 2510 C 234.198 0.496599 4.25109 0
M  V30 2511 C 233.524 -0.393771 5.33248 0
M  V30 2512 C 234.824 1.75307 4.92001 0
M  V30 2513 H 236.518 1.26249 2.7148 0
M  V30 2514 H 234.064 0.608515 1.30511 0
M  V30 2515 H 236.017 -0.703422 4.15488 0
M  V30 2516 H 234.741 -1.2257 3.02728 0
M  V30 2517 H 233.4 0.8368 3.56922 0
M  V30 2518 H 233.048 -1.27225 4.86644 0
M  V30 2519 H 232.748 0.166209 5.87365 0
M  V30 2520 H 234.272 -0.747389 6.06009 0
M  V30 2521 H 235.686 1.46437 5.54283 0
M  V30 2522 H 234.083 2.25534 5.56106 0
M  V30 2523 H 235.153 2.48176 4.16577 0
M  V30 2524 N 236.496 -1.42363 0.676048 0
M  V30 2525 C 237.743 -2.01522 0.19883 0
M  V30 2526 C 238.071 -1.53456 -1.19505 0
M  V30 2527 O 237.326 -0.727967 -1.81657 0
M  V30 2528 C 237.625 -3.56929 0.183431 0
M  V30 2529 C 237.291 -4.24431 1.52215 0
M  V30 2530 C 235.953 -4.42585 1.8887 0
M  V30 2531 C 238.305 -4.62459 2.40377 0
M  V30 2532 C 235.633 -4.96039 3.13309 0
M  V30 2533 C 237.985 -5.17294 3.64129 0
M  V30 2534 C 236.649 -5.33661 4.00951 0
M  V30 2535 H 235.919 -0.737419 0.0727571 0
M  V30 2536 H 238.566 -1.70531 0.871281 0
M  V30 2537 H 236.871 -3.87594 -0.572532 0
M  V30 2538 H 238.568 -4.00486 -0.203035 0
M  V30 2539 H 235.158 -4.10661 1.22701 0
M  V30 2540 H 239.342 -4.48105 2.13343 0
M  V30 2541 H 234.598 -5.06896 3.41857 0
M  V30 2542 H 238.772 -5.45704 4.32644 0
M  V30 2543 H 236.399 -5.74845 4.9745 0
M  V30 2544 N 237.974 -0.419461 -1.51915 0
M  V30 2545 C 239.202 0.152136 -2.0634 0
M  V30 2546 C 239.617 1.37988 -1.28859 0
M  V30 2547 O 238.974 1.79243 -0.343232 0
M  V30 2548 C 239.025 0.492266 -3.58133 0
M  V30 2549 O 238.746 -0.686736 -4.32684 0
M  V30 2550 C 240.247 1.11648 -4.2901 0
M  V30 2551 H 237.467 0.0158325 -0.670813 0
M  V30 2552 H 240.011 -0.593394 -1.95702 0
M  V30 2553 H 238.166 1.18769 -3.68745 0
M  V30 2554 H 238.58 -0.400341 -5.2297 0
M  V30 2555 H 240.054 1.3046 -5.36362 0
M  V30 2556 H 240.531 2.09251 -3.86148 0
M  V30 2557 H 241.137 0.460958 -4.22795 0
M  V30 2558 N 239.452 1.56882 -0.150215 0
M  V30 2559 C 240.868 1.58263 0.20617 0
M  V30 2560 C 241.068 1.16464 1.64434 0
M  V30 2561 O 240.124 0.866422 2.3717 0
M  V30 2562 C 241.437 3.00649 -0.0555025 0
M  V30 2563 C 242.985 3.12999 0.00795388 0
M  V30 2564 C 243.46 4.5744 -0.226429 0
M  V30 2565 N 244.951 4.62875 -0.173469 0
M  V30 2566 C 245.686 5.72454 -0.329288 0
M  V30 2567 N 245.182 6.90669 -0.543005 0
M  V30 2568 N 246.975 5.61467 -0.266666 0
M  V30 2569 H 239.126 1.82345 -1.08922 0
M  V30 2570 H 241.389 0.844149 -0.431413 0
M  V30 2571 H 241.095 3.3563 -1.05096 0
M  V30 2572 H 240.969 3.71337 0.66246 0
M  V30 2573 H 243.356 2.77857 0.993966 0
M  V30 2574 H 243.437 2.4479 -0.742388 0
M  V30 2575 H 243.081 4.93287 -1.20956 0
M  V30 2576 H 243.011 5.2378 0.544274 0
M  V30 2577 H 245.502 3.77898 -0.0130709 0
M  V30 2578 H 245.815 7.70045 -0.651922 0
M  V30 2579 H 244.16 6.92581 -0.579366 0
M  V30 2580 H 247.351 4.67992 -0.100441 0
M  V30 2581 H 247.524 6.46816 -0.391535 0
M  V30 2582 N 240.93 -0.123565 1.57115 0
M  V30 2583 C 242.158 -0.846461 1.88793 0
M  V30 2584 C 242.573 -1.73652 0.740976 0
M  V30 2585 O 241.93 -1.80207 -0.288393 0
M  V30 2586 C 241.981 -1.6837 3.19897 0
M  V30 2587 O 241.702 -0.829477 4.30176 0
M  V30 2588 C 243.203 -2.51214 3.65248 0
M  V30 2589 H 240.423 -0.243573 0.625231 0
M  V30 2590 H 242.967 -0.109324 2.04208 0
M  V30 2591 H 241.122 -2.37364 3.06165 0
M  V30 2592 H 241.536 -1.40651 5.0529 0
M  V30 2593 H 243.01 -3.05497 4.59756 0
M  V30 2594 H 243.487 -3.28359 2.9168 0
M  V30 2595 H 244.093 -1.8747 3.81752 0
M  V30 2596 N 242.408 -1.52605 -0.393616 0
M  V30 2597 C 243.338 -1.80022 -1.48709 0
M  V30 2598 C 244.319 -0.651995 -1.57108 0
M  V30 2599 O 245.504 -0.89913 -1.72132 0
M  V30 2600 C 242.634 -1.96492 -2.86371 0
M  V30 2601 C 241.588 -3.12161 -2.92813 0
M  V30 2602 C 240.914 -3.13877 -4.3288 0
M  V30 2603 C 242.214 -4.51322 -2.6288 0
M  V30 2604 H 243.908 -2.71589 -1.26015 0
M  V30 2605 H 241.454 -1.30684 -0.604778 0
M  V30 2606 H 243.407 -2.14255 -3.62867 0
M  V30 2607 H 242.131 -1.01611 -3.10391 0
M  V30 2608 H 240.79 -2.94173 -2.18764 0
M  V30 2609 H 240.438 -2.16687 -4.53933 0
M  V30 2610 H 240.138 -3.91576 -4.38112 0
M  V30 2611 H 241.662 -3.33789 -5.1129 0
M  V30 2612 H 243.076 -4.69435 -3.29096 0
M  V30 2613 H 241.473 -5.31053 -2.79468 0
M  V30 2614 H 242.543 -4.58353 -1.58242 0
M  V30 2615 N 243.887 0.651787 -1.4349 0
M  V30 2616 C 245.112 1.44434 -1.48841 0
M  V30 2617 C 245.537 1.8779 -0.107955 0
M  V30 2618 O 244.895 1.57464 0.898602 0
M  V30 2619 C 244.943 2.65458 -2.44059 0
M  V30 2620 O 244.047 3.64566 -1.92784 0
M  V30 2621 H 243.388 0.433005 -0.503391 0
M  V30 2622 H 245.918 0.797451 -1.88419 0
M  V30 2623 H 245.928 3.13255 -2.6141 0
M  V30 2624 H 244.603 2.33244 -3.4434 0
M  V30 2625 H 243.18 3.23716 -1.851 0
M  V30 2626 N 245.365 1.30045 0.890287 0
M  V30 2627 C 246.642 1.09227 1.62262 0
M  V30 2628 C 247.022 -0.360305 2.08002 0
M  V30 2629 O 246.37 -1.35084 1.84295 0
M  V30 2630 C 246.58 2.08835 2.79623 0
M  V30 2631 C 247.928 2.40266 3.50082 0
M  V30 2632 O 248.952 2.07104 2.89804 0
M  V30 2633 O 247.811 2.96967 4.58773 0
M  V30 2634 H 244.905 0.419132 0.712922 0
M  V30 2635 H 247.451 1.41451 0.937529 0
M  V30 2636 H 246.223 3.06633 2.43089 0
M  V30 2637 H 245.846 1.77397 3.55832 0
M  V30 2638 N 246.843 -1.10192 1.12674 0
M  V30 2639 C 248.092 -1.81573 0.8783 0
M  V30 2640 C 248.405 -1.86249 -0.597557 0
M  V30 2641 O 249.611 -2.5386 -0.962681 0
M  V30 2642 C 248.067 -3.26149 1.52167 0
M  V30 2643 C 247.675 -3.29763 3.03249 0
M  V30 2644 C 249.419 -4.0234 1.3536 0
M  V30 2645 C 247.326 -4.68815 3.60508 0
M  V30 2646 H 246.256 -0.680394 0.324931 0
M  V30 2647 H 248.907 -1.23902 1.35353 0
M  V30 2648 H 247.289 -3.83832 0.974104 0
M  V30 2649 H 248.463 -2.8189 3.6452 0
M  V30 2650 H 246.778 -2.67059 3.19481 0
M  V30 2651 H 249.375 -5.05058 1.75559 0
M  V30 2652 H 249.718 -4.15235 0.297554 0
M  V30 2653 H 250.251 -3.51079 1.87052 0
M  V30 2654 H 246.99 -4.61121 4.65884 0
M  V30 2655 H 246.51 -5.17045 3.04014 0
M  V30 2656 H 248.189 -5.37785 3.59717 0
M  V30 2657 N 248.321 -0.919034 -1.28029 0
M  V30 2658 C 249.567 -0.555757 -1.95036 0
M  V30 2659 C 249.9 0.899198 -1.72128 0
M  V30 2660 O 249.175 1.64023 -1.04531 0
M  V30 2661 C 249.458 -0.872024 -3.49382 0
M  V30 2662 C 249.311 -2.3801 -3.81669 0
M  V30 2663 C 250.63 -0.37185 -4.38526 0
M  V30 2664 H 247.749 -0.203386 -0.708381 0
M  V30 2665 H 250.391 -1.14924 -1.51303 0
M  V30 2666 H 248.541 -0.366946 -3.86763 0
M  V30 2667 H 250.213 -2.9562 -3.54128 0
M  V30 2668 H 248.456 -2.83289 -3.28526 0
M  V30 2669 H 249.127 -2.55192 -4.8947 0
M  V30 2670 H 251.603 -0.804602 -4.08247 0
M  V30 2671 H 250.479 -0.622173 -5.45362 0
M  V30 2672 H 250.74 0.727934 -4.36066 0
M  V30 2673 N 249.799 1.42003 -0.683588 0
M  V30 2674 C 251.024 2.06265 -0.216647 0
M  V30 2675 C 251.449 1.51059 1.12083 0
M  V30 2676 O 250.807 0.632638 1.69904 0
M  V30 2677 C 250.855 3.60191 -0.171759 0
M  V30 2678 O 249.959 4.03396 0.857069 0
M  V30 2679 H 249.3 0.65502 -0.108834 0
M  V30 2680 H 251.83 1.81982 -0.935077 0
M  V30 2681 H 251.84 4.08 0.0014303 0
M  V30 2682 H 250.515 3.99743 -1.14796 0
M  V30 2683 H 249.092 3.67117 0.654208 0
M  V30 2684 N 251.277 0.427512 1.51691 0
M  V30 2685 C 252.224 -0.388867 2.275 0
M  V30 2686 C 253.194 -1.02532 1.30677 0
M  V30 2687 O 254.379 -1.0461 1.59566 0
M  V30 2688 C 251.519 -1.48954 3.11298 0
M  V30 2689 C 250.632 -0.872194 4.23104 0
M  V30 2690 C 249.767 -1.94709 4.94228 0
M  V30 2691 C 248.806 -1.30766 5.97969 0
M  V30 2692 N 247.943 -2.32349 6.62539 0
M  V30 2693 H 252.783 0.263997 2.96828 0
M  V30 2694 H 250.32 0.142033 1.46413 0
M  V30 2695 H 252.278 -2.13887 3.58201 0
M  V30 2696 H 250.908 -2.11217 2.44105 0
M  V30 2697 H 249.96 -0.111419 3.80237 0
M  V30 2698 H 251.272 -0.365264 4.97461 0
M  V30 2699 H 250.426 -2.67327 5.44629 0
M  V30 2700 H 249.165 -2.48773 4.1948 0
M  V30 2701 H 248.17 -0.566902 5.4687 0
M  V30 2702 H 249.395 -0.774483 6.74669 0
M  V30 2703 H 247.341 -2.85511 5.90609 0
M  V30 2704 H 247.258 -1.8652 7.3263 0
M  V30 2705 H 248.526 -3.04481 7.17574 0
M  V30 2706 N 252.755 -1.56801 0.158532 0
M  V30 2707 C 253.665 -2.20916 -0.789518 0
M  V30 2708 C 254.681 -1.1969 -1.26294 0
M  V30 2709 O 255.857 -1.52308 -1.31773 0
M  V30 2710 C 252.922 -2.82727 -2.00665 0
M  V30 2711 C 251.983 -3.99114 -1.58134 0
M  V30 2712 C 251.216 -4.57968 -2.74045 0
M  V30 2713 O 251.439 -4.15704 -3.90572 0
M  V30 2714 O 250.373 -5.48047 -2.48855 0
M  V30 2715 H 254.199 -3.02464 -0.273681 0
M  V30 2716 H 251.784 -1.4924 -0.0690548 0
M  V30 2717 H 253.666 -3.21968 -2.71872 0
M  V30 2718 H 252.341 -2.04184 -2.51179 0
M  V30 2719 H 251.248 -3.64567 -0.839155 0
M  V30 2720 H 252.581 -4.79212 -1.12325 0
M  V30 2721 N 254.233 0.115231 -1.57178 0
M  V30 2722 C 255.51 0.852873 -1.76027 0
M  V30 2723 C 255.89 1.97892 -0.73498 0
M  V30 2724 O 255.238 2.27232 0.24036 0
M  V30 2725 C 255.448 1.36608 -3.21153 0
M  V30 2726 C 256.796 1.81692 -3.83762 0
M  V30 2727 O 257.82 1.46278 -3.24779 0
M  V30 2728 O 256.679 2.47104 -4.87444 0
M  V30 2729 H 253.773 0.405296 -0.720877 0
M  V30 2730 H 256.319 0.0986785 -1.69413 0
M  V30 2731 H 255.091 0.558357 -3.87296 0
M  V30 2732 H 254.714 2.18287 -3.3232 0
M  V30 2733 N 255.711 1.52812 0.385517 0
M  V30 2734 C 256.958 1.68026 1.1302 0
M  V30 2735 C 257.286 0.421934 1.89868 0
M  V30 2736 O 256.541 -0.595749 1.86412 0
M  V30 2737 C 256.84 2.86856 2.13187 0
M  V30 2738 C 256.506 4.24159 1.5297 0
M  V30 2739 C 255.168 4.61501 1.36274 0
M  V30 2740 C 257.52 5.09627 1.09223 0
M  V30 2741 C 254.848 5.81966 0.743837 0
M  V30 2742 C 257.2 6.30719 0.487411 0
M  V30 2743 C 255.864 6.6679 0.307777 0
M  V30 2744 H 255.134 0.614849 0.413571 0
M  V30 2745 H 257.781 1.86962 0.414405 0
M  V30 2746 H 256.086 2.6235 2.90998 0
M  V30 2747 H 257.783 2.95821 2.70722 0
M  V30 2748 H 254.373 3.94746 1.66954 0
M  V30 2749 H 258.557 4.81343 1.20922 0
M  V30 2750 H 253.813 6.08519 0.592891 0
M  V30 2751 H 257.987 6.96259 0.140143 0
M  V30 2752 H 255.614 7.60001 -0.173879 0
M  V30 2753 N 257.189 -0.644168 1.43834 0
M  V30 2754 C 258.435 -1.40603 1.46146 0
M  V30 2755 C 258.768 -1.93997 0.0887717 0
M  V30 2756 O 258.043 -1.72854 -0.891724 0
M  V30 2757 C 258.326 -2.58086 2.51124 0
M  V30 2758 C 258.179 -2.10126 3.97702 0
M  V30 2759 C 259.498 -3.60291 2.52742 0
M  V30 2760 H 256.617 -0.509905 0.532134 0
M  V30 2761 H 259.259 -0.729502 1.75437 0
M  V30 2762 H 257.409 -3.15801 2.26278 0
M  V30 2763 H 259.081 -1.57342 4.33637 0
M  V30 2764 H 257.324 -1.41419 4.10101 0
M  V30 2765 H 257.995 -2.94649 4.66783 0
M  V30 2766 H 260.471 -3.12352 2.7491 0
M  V30 2767 H 259.347 -4.40032 3.28121 0
M  V30 2768 H 259.608 -4.1349 1.56455 0
M  V30 2769 N 258.668 -1.30515 -0.883378 0
M  V30 2770 C 259.598 -1.19607 -2.00541 0
M  V30 2771 C 260.579 -0.086346 -1.69881 0
M  V30 2772 O 261.764 -0.268654 -1.92333 0
M  V30 2773 C 258.894 -0.888758 -3.35736 0
M  V30 2774 C 257.848 -1.95659 -3.8066 0
M  V30 2775 C 257.174 -1.50224 -5.13164 0
M  V30 2776 C 258.474 -3.36788 -3.99213 0
M  V30 2777 H 260.168 -2.13476 -2.09925 0
M  V30 2778 H 257.714 -1.02775 -1.00863 0
M  V30 2779 H 259.667 -0.799094 -4.13754 0
M  V30 2780 H 258.391 0.0856125 -3.26488 0
M  V30 2781 H 257.05 -2.03591 -3.04871 0
M  V30 2782 H 256.698 -0.516092 -5.00345 0
M  V30 2783 H 256.398 -2.2165 -5.44192 0
M  V30 2784 H 257.922 -1.42639 -5.93706 0
M  V30 2785 H 259.336 -3.31605 -4.67665 0
M  V30 2786 H 257.733 -4.06314 -4.41621 0
M  V30 2787 H 258.803 -3.78561 -3.03017 0
M  V30 2788 N 260.146 1.09593 -1.13257 0
M  V30 2789 C 261.423 1.78293 -0.804432 0
M  V30 2790 C 261.803 1.99004 0.70431 0
M  V30 2791 O 261.151 1.59007 1.641 0
M  V30 2792 C 261.361 3.10707 -1.5894 0
M  V30 2793 C 262.709 3.85443 -1.78099 0
M  V30 2794 O 263.733 3.20454 -1.55525 0
M  V30 2795 O 262.592 5.02108 -2.15753 0
M  V30 2796 H 259.686 0.773156 -0.293528 0
M  V30 2797 H 262.232 1.16164 -1.23709 0
M  V30 2798 H 261.004 2.91106 -2.61482 0
M  V30 2799 H 260.627 3.80558 -1.15157 0
M  V30 2800 N 261.624 0.925811 1.2754 0
M  V30 2801 C 262.849 0.580924 1.99098 0
M  V30 2802 C 263.274 -0.833555 1.68622 0
M  V30 2803 O 262.632 -1.55903 0.925422 0
M  V30 2804 C 262.68 0.811186 3.51358 0
M  V30 2805 O 261.784 -0.124129 4.12213 0
M  V30 2806 H 261.125 0.223873 0.625122 0
M  V30 2807 H 263.655 1.24455 1.62395 0
M  V30 2808 H 263.665 0.72601 4.01489 0
M  V30 2809 H 262.34 1.84227 3.72872 0
M  V30 2810 H 260.917 0.0108006 3.72898 0
M  V30 2811 N 263.102 -1.41638 0.69111 0
M  V30 2812 C 264.012 -2.34588 0.0233487 0
M  V30 2813 C 265.028 -1.55987 -0.770984 0
M  V30 2814 O 266.204 -1.88486 -0.709569 0
M  V30 2815 C 263.269 -3.34684 -0.904851 0
M  V30 2816 C 262.33 -4.29176 -0.103225 0
M  V30 2817 C 261.563 -5.2449 -0.987216 0
M  V30 2818 O 261.786 -5.2514 -2.22674 0
M  V30 2819 O 260.72 -6.00295 -0.439281 0
M  V30 2820 H 264.546 -2.93261 0.789416 0
M  V30 2821 H 262.131 -1.42417 0.45142 0
M  V30 2822 H 264.013 -3.96133 -1.43724 0
M  V30 2823 H 262.688 -2.78461 -1.65049 0
M  V30 2824 H 261.595 -3.71089 0.473655 0
M  V30 2825 H 262.928 -4.88484 0.60365 0
M  V30 2826 N 264.58 -0.43555 -1.51462 0
M  V30 2827 C 265.81 0.130053 -2.0619 0
M  V30 2828 C 266.218 1.37164 -1.30317 0
M  V30 2829 O 265.561 1.80225 -0.355598 0
M  V30 2830 C 265.623 0.519418 -3.55728 0
M  V30 2831 C 265.287 -0.615119 -4.52841 0
M  V30 2832 C 266.284 -1.48671 -4.9819 0
M  V30 2833 C 263.969 -0.795341 -4.95963 0
M  V30 2834 C 265.963 -2.52324 -5.8533 0
M  V30 2835 C 263.65 -1.83514 -5.82894 0
M  V30 2836 C 264.648 -2.69748 -6.27475 0
M  V30 2837 O 264.336 -3.71944 -7.1268 0
M  V30 2838 H 264.068 0.0121612 -0.675891 0
M  V30 2839 H 266.622 -0.6129 -1.96043 0
M  V30 2840 H 264.852 1.31505 -3.63653 0
M  V30 2841 H 266.541 1.01597 -3.92979 0
M  V30 2842 H 267.307 -1.359 -4.65571 0
M  V30 2843 H 263.186 -0.133713 -4.60806 0
M  V30 2844 H 266.73 -3.19665 -6.20048 0
M  V30 2845 H 262.627 -1.96306 -6.14926 0
M  V30 2846 H 263.395 -3.68503 -7.30854 0
M  V30 2847 N 266.058 1.56714 -0.166846 0
M  V30 2848 C 266.988 2.20754 0.760913 0
M  V30 2849 C 267.969 1.16178 1.24244 0
M  V30 2850 O 269.154 1.44592 1.29641 0
M  V30 2851 C 266.284 2.84478 1.99223 0
M  V30 2852 C 265.238 3.95053 1.64672 0
M  V30 2853 C 264.564 4.45805 2.95232 0
M  V30 2854 C 265.864 5.14865 0.878155 0
M  V30 2855 H 267.558 2.98537 0.22713 0
M  V30 2856 H 265.104 1.43596 0.107805 0
M  V30 2857 H 267.057 3.27951 2.64624 0
M  V30 2858 H 265.781 2.04056 2.55007 0
M  V30 2859 H 264.44 3.52228 1.01641 0
M  V30 2860 H 264.088 3.62181 3.49047 0
M  V30 2861 H 263.788 5.204 2.7287 0
M  V30 2862 H 265.312 4.91962 3.6167 0
M  V30 2863 H 266.726 5.55059 1.43466 0
M  V30 2864 H 265.123 5.95348 0.753738 0
M  V30 2865 H 266.193 4.84735 -0.126377 0
M  V30 2866 N 267.536 -0.106894 1.57237 0
M  V30 2867 C 268.782 -0.81373 1.85759 0
M  V30 2868 C 269.115 -1.78952 0.754315 0
M  V30 2869 O 268.39 -1.93029 -0.23879 0
M  V30 2870 C 268.673 -1.55293 3.24894 0
M  V30 2871 C 268.526 -0.595929 4.45835 0
M  V30 2872 C 269.845 -2.5063 3.61763 0
M  V30 2873 H 266.964 -0.294369 0.67566 0
M  V30 2874 H 269.606 -0.0776472 1.89841 0
M  V30 2875 H 267.756 -2.1804 3.21544 0
M  V30 2876 H 269.428 0.0236262 4.61294 0
M  V30 2877 H 267.671 0.0916191 4.33703 0
M  V30 2878 H 268.342 -1.15004 5.39887 0
M  V30 2879 H 270.818 -1.97982 3.65981 0
M  V30 2880 H 269.694 -2.99376 4.60071 0
M  V30 2881 H 269.955 -3.3385 2.89821 0
M  V30 2882 N 269.014 -1.53014 -0.377408 0
M  V30 2883 C 270.242 -1.72515 -1.14219 0
M  V30 2884 C 270.657 -0.448735 -1.8339 0
M  V30 2885 O 270.014 0.577592 -1.73119 0
M  V30 2886 C 270.065 -2.8826 -2.18148 0
M  V30 2887 O 269.786 -4.10962 -1.51795 0
M  V30 2888 C 271.287 -3.19536 -3.07264 0
M  V30 2889 H 268.507 -0.577301 -0.342001 0
M  V30 2890 H 271.051 -1.99712 -0.439935 0
M  V30 2891 H 269.206 -2.63492 -2.83991 0
M  V30 2892 H 269.62 -4.75693 -2.20945 0
M  V30 2893 H 271.094 -4.03959 -3.76193 0
M  V30 2894 H 271.571 -2.34403 -3.71419 0
M  V30 2895 H 272.177 -3.46186 -2.47053 0
M  V30 2896 N 270.492 0.636531 -1.44174 0
M  V30 2897 C 271.422 1.76003 -1.53444 0
M  V30 2898 C 272.403 1.65619 -0.387841 0
M  V30 2899 O 273.588 1.84461 -0.607257 0
M  V30 2900 C 270.718 3.14511 -1.4731 0
M  V30 2901 C 269.672 3.39677 -2.60391 0
M  V30 2902 C 268.998 4.78159 -2.39308 0
M  V30 2903 C 270.298 3.32772 -4.02567 0
M  V30 2904 H 271.992 1.68501 -2.47483 0
M  V30 2905 H 269.538 0.809237 -1.19111 0
M  V30 2906 H 271.491 3.92878 -1.52397 0
M  V30 2907 H 270.215 3.22783 -0.49785 0
M  V30 2908 H 268.874 2.63688 -2.54684 0
M  V30 2909 H 268.522 4.83128 -1.39988 0
M  V30 2910 H 268.222 4.95956 -3.15122 0
M  V30 2911 H 269.746 5.58762 -2.46205 0
M  V30 2912 H 271.16 4.01051 -4.09672 0
M  V30 2913 H 269.557 3.62104 -4.7854 0
M  V30 2914 H 270.627 2.30669 -4.2652 0
M  V30 2915 N 271.97 1.30982 0.876444 0
M  V30 2916 C 272.9 1.20668 1.99903 0
M  V30 2917 C 273.881 0.095354 1.69833 0
M  V30 2918 O 275.066 0.27885 1.92188 0
M  V30 2919 C 272.196 0.90655 3.3526 0
M  V30 2920 C 271.15 1.97675 3.79617 0
M  V30 2921 C 270.476 1.52943 5.1236 0
M  V30 2922 C 271.776 3.389 3.97422 0
M  V30 2923 H 273.47 2.14586 2.0879 0
M  V30 2924 H 271.016 1.03308 1.00317 0
M  V30 2925 H 272.969 0.821025 4.13324 0
M  V30 2926 H 271.693 -0.0682969 3.26529 0
M  V30 2927 H 270.352 2.05205 3.03787 0
M  V30 2928 H 270 0.54262 5.00065 0
M  V30 2929 H 269.7 2.24532 5.43009 0
M  V30 2930 H 271.224 1.45786 5.92941 0
M  V30 2931 H 272.638 3.34081 4.659 0
M  V30 2932 H 271.035 4.0865 4.3946 0
M  V30 2933 H 272.105 3.80163 3.01006 0
M  V30 2934 N 273.449 -1.08991 1.13837 0
M  V30 2935 C 274.695 -1.81526 0.90422 0
M  V30 2936 C 275.028 -1.85706 -0.568066 0
M  V30 2937 O 274.303 -1.32855 -1.42056 0
M  V30 2938 C 274.586 -3.27447 1.49835 0
M  V30 2939 C 274.439 -3.31512 3.04006 0
M  V30 2940 C 275.758 -4.24256 1.17025 0
M  V30 2941 H 272.877 -0.659029 0.329923 0
M  V30 2942 H 275.519 -1.27644 1.40737 0
M  V30 2943 H 273.669 -3.73462 1.07044 0
M  V30 2944 H 275.341 -2.93867 3.55584 0
M  V30 2945 H 273.584 -2.70963 3.38765 0
M  V30 2946 H 274.255 -4.34329 3.40679 0
M  V30 2947 H 276.731 -3.86549 1.54009 0
M  V30 2948 H 275.607 -5.24684 1.61237 0
M  V30 2949 H 275.868 -4.42019 0.0846274 0
M  V30 2950 N 274.927 -0.932562 -1.27047 0
M  V30 2951 C 276.176 -0.571351 -1.93439 0
M  V30 2952 C 276.489 0.892467 -1.74053 0
M  V30 2953 O 277.695 1.36267 -2.34826 0
M  V30 2954 C 276.151 -0.97106 -3.46552 0
M  V30 2955 C 275.759 -2.4559 -3.74686 0
M  V30 2956 C 277.503 -0.681333 -4.18997 0
M  V30 2957 C 275.41 -2.79475 -5.21198 0
M  V30 2958 H 274.34 -0.209966 -0.724176 0
M  V30 2959 H 276.991 -1.13403 -1.44263 0
M  V30 2960 H 275.373 -0.336983 -3.94564 0
M  V30 2961 H 276.547 -3.13829 -3.37414 0
M  V30 2962 H 274.862 -2.71802 -3.15456 0
M  V30 2963 H 277.459 -0.910939 -5.26883 0
M  V30 2964 H 277.802 0.381628 -4.14547 0
M  V30 2965 H 278.335 -1.27473 -3.76823 0
M  V30 2966 H 275.074 -3.847 -5.30741 0
M  V30 2967 H 274.594 -2.1589 -5.596 0
M  V30 2968 H 276.273 -2.67478 -5.89122 0
M  V30 2969 N 276.405 1.4127 -0.698611 0
M  V30 2970 C 277.651 2.01478 -0.231207 0
M  V30 2971 C 277.984 1.55215 1.16713 0
M  V30 2972 O 277.259 0.764672 1.78838 0
M  V30 2973 C 277.542 3.58912 -0.292281 0
M  V30 2974 C 277.395 4.15293 -1.72778 0
M  V30 2975 C 278.714 4.38736 0.346194 0
M  V30 2976 H 275.833 0.732025 -0.0854878 0
M  V30 2977 H 278.475 1.67977 -0.887906 0
M  V30 2978 H 276.625 3.87582 0.26686 0
M  V30 2979 H 278.297 3.97486 -2.341 0
M  V30 2980 H 276.54 3.7022 -2.26096 0
M  V30 2981 H 277.211 5.24452 -1.72202 0
M  V30 2982 H 279.687 4.15897 -0.130035 0
M  V30 2983 H 278.563 5.48221 0.272932 0
M  V30 2984 H 278.824 4.18425 1.42734 0
M  V30 2985 N 277.883 0.443576 1.51229 0
M  V30 2986 C 279.294 -0.0180867 1.86691 0
M  V30 2987 C 279.645 -1.41384 1.36033 0
M  V30 2988 O 278.77 -2.04291 0.713722 0
M  V30 2989 C 279.365 -0.039597 3.38777 0
M  V30 2990 C 277.924 -0.445692 3.73752 0
M  V30 2991 C 277.071 0.357584 2.74985 0
M  V30 2992 H 280.022 0.659138 1.44364 0
M  V30 2993 H 280.043 -0.847761 3.70936 0
M  V30 2994 H 279.555 0.976382 3.75617 0
M  V30 2995 H 277.656 -1.46704 3.42503 0
M  V30 2996 H 277.769 -0.166155 4.78812 0
M  V30 2997 H 276.133 -0.184973 2.54027 0
M  V30 2998 H 276.916 1.37256 3.14668 0
M  V30 2999 N 279.361 -1.56624 0.175154 0
M  V30 3000 C 280.308 -2.18149 -0.753634 0
M  V30 3001 C 281.278 -1.12265 -1.22417 0
M  V30 3002 O 282.463 -1.40432 -1.29165 0
M  V30 3003 C 279.603 -2.82933 -1.97592 0
M  V30 3004 C 278.716 -4.03289 -1.5486 0
M  V30 3005 C 277.851 -4.55988 -2.72485 0
M  V30 3006 C 276.89 -5.68746 -2.26262 0
M  V30 3007 N 276.027 -6.15938 -3.36994 0
M  V30 3008 H 280.867 -2.9717 -0.222195 0
M  V30 3009 H 278.404 -1.46774 -0.0979422 0
M  V30 3010 H 280.362 -3.18653 -2.69288 0
M  V30 3011 H 278.992 -2.06509 -2.481 0
M  V30 3012 H 278.044 -3.73364 -0.728246 0
M  V30 3013 H 279.356 -4.849 -1.16933 0
M  V30 3014 H 278.51 -4.9391 -3.52332 0
M  V30 3015 H 277.249 -3.73443 -3.13674 0
M  V30 3016 H 276.254 -5.30372 -1.44863 0
M  V30 3017 H 277.479 -6.53095 -1.86127 0
M  V30 3018 H 275.425 -5.36321 -3.77751 0
M  V30 3019 H 275.342 -6.92548 -3.03172 0
M  V30 3020 H 276.61 -6.58511 -4.17114 0
M  V30 3021 N 280.839 0.0985539 -1.57292 0
M  V30 3022 C 282.25 0.653457 -1.74891 0
M  V30 3023 C 282.601 1.7929 -0.796838 0
M  V30 3024 O 281.726 2.16385 0.0254886 0
M  V30 3025 C 282.321 1.19216 -3.17133 0
M  V30 3026 C 280.88 1.69316 -3.36168 0
M  V30 3027 C 280.027 0.601294 -2.70702 0
M  V30 3028 H 282.978 -0.127497 -1.58187 0
M  V30 3029 H 282.999 2.06154 -3.19814 0
M  V30 3030 H 282.511 0.362635 -3.86402 0
M  V30 3031 H 280.612 2.5468 -2.71972 0
M  V30 3032 H 280.725 1.78853 -4.44464 0
M  V30 3033 H 279.089 1.0399 -2.32504 0
M  V30 3034 H 279.872 -0.217592 -3.4261 0
M  V30 3035 N 282.317 1.53212 0.369288 0
M  V30 3036 C 283.265 1.80054 1.47253 0
M  V30 3037 C 284.259 0.669456 1.55611 0
M  V30 3038 O 285.465 0.852328 1.58541 0
M  V30 3039 H 281.84 0.570034 0.490475 0
M  V30 3040 H 283.811 2.72403 1.21817 0
M  V30 3041 C 282.56 2.00403 2.84137 0
M  V30 3042 H 281.883 2.86876 2.78464 0
M  V30 3043 H 283.323 2.23164 3.60519 0
M  V30 3044 C 281.782 0.782081 3.27697 0
M  V30 3045 O 282.312 -0.0310205 4.01688 0
M  V30 3046 N 280.518 0.606573 2.84199 0
M  V30 3047 H 280.065 1.26939 2.24152 0
M  V30 3048 H 280.023 -0.20962 3.137 0
M  V30 3049 N 283.795 -0.628877 1.44509 0
M  V30 3050 C 285.025 -1.41349 1.50678 0
M  V30 3051 C 285.433 -1.88745 0.131075 0
M  V30 3052 O 284.776 -1.61592 -0.87371 0
M  V30 3053 C 284.838 -2.66608 2.41165 0
M  V30 3054 C 284.502 -2.40993 3.88293 0
M  V30 3055 C 285.499 -2.0268 4.78766 0
M  V30 3056 C 283.184 -2.54563 4.33016 0
M  V30 3057 C 285.178 -1.78269 6.11963 0
M  V30 3058 C 282.865 -2.29766 5.6626 0
M  V30 3059 C 283.863 -1.91678 6.55552 0
M  V30 3060 O 283.551 -1.67158 7.86329 0
M  V30 3061 H 283.283 -0.439851 0.51333 0
M  V30 3062 H 285.837 -0.776084 1.90174 0
M  V30 3063 H 284.067 -3.32994 1.96601 0
M  V30 3064 H 285.756 -3.28615 2.38259 0
M  V30 3065 H 286.522 -1.91751 4.45485 0
M  V30 3066 H 282.401 -2.83179 3.63773 0
M  V30 3067 H 285.945 -1.48465 6.81619 0
M  V30 3068 H 281.842 -2.40306 5.99102 0
M  V30 3069 H 282.61 -1.81386 7.98149 0
M  V30 3070 N 285.273 -1.31445 -0.869486 0
M  V30 3071 C 286.498 -1.24256 -1.66058 0
M  V30 3072 C 286.923 0.188928 -1.87149 0
M  V30 3073 O 286.281 1.13522 -1.4136 0
M  V30 3074 C 286.329 -1.9924 -3.00559 0
M  V30 3075 O 285.433 -1.33007 -3.90362 0
M  V30 3076 H 284.774 -0.428973 -0.506831 0
M  V30 3077 H 287.304 -1.73521 -1.08404 0
M  V30 3078 H 287.314 -2.08854 -3.50491 0
M  V30 3079 H 285.989 -3.03342 -2.84528 0
M  V30 3080 H 284.566 -1.31848 -3.48813 0
M  V30 3081 N 286.751 1.08385 -1.14413 0
M  V30 3082 C 287.683 2.1519 -0.789036 0
M  V30 3083 C 288.696 1.61638 0.19417 0
M  V30 3084 O 289.885 1.78479 -0.0275711 0
M  V30 3085 C 286.985 3.38565 -0.15058 0
M  V30 3086 C 286.158 4.21501 -1.16857 0
M  V30 3087 C 285.217 5.23277 -0.553832 0
M  V30 3088 O 284.243 5.56041 -1.21686 0
M  V30 3089 N 285.445 5.76629 0.669296 0
M  V30 3090 H 288.21 2.46257 -1.70814 0
M  V30 3091 H 285.771 1.24198 -1.03858 0
M  V30 3092 H 287.763 4.03777 0.273181 0
M  V30 3093 H 286.333 3.05299 0.671667 0
M  V30 3094 H 285.553 3.52265 -1.76926 0
M  V30 3095 H 286.841 4.73731 -1.85624 0
M  V30 3096 H 286.239 5.52243 1.22654 0
M  V30 3097 H 284.796 6.43521 1.03556 0
M  V30 3098 N 288.23 0.939286 1.26551 0
M  V30 3099 C 289.476 0.596234 1.94465 0
M  V30 3100 C 289.831 -0.855013 1.72358 0
M  V30 3101 O 289.124 -1.6034 1.04889 0
M  V30 3102 C 289.318 0.872106 3.46596 0
M  V30 3103 C 289.147 2.34862 3.83497 0
M  V30 3104 C 287.917 3.00344 4.06352 0
M  V30 3105 C 290.115 3.32697 3.92195 0
M  V30 3106 N 288.097 4.38027 4.30123 0
M  V30 3107 C 289.468 4.55631 4.20476 0
M  V30 3108 C 291.523 3.27747 3.74815 0
M  V30 3109 C 290.226 5.74233 4.33185 0
M  V30 3110 C 292.252 4.45672 3.88755 0
M  V30 3111 C 291.614 5.67388 4.17433 0
M  V30 3112 H 287.713 0.268515 0.734455 0
M  V30 3113 H 290.297 1.2083 1.5267 0
M  V30 3114 H 288.468 0.289102 3.87323 0
M  V30 3115 H 290.2 0.490513 4.01716 0
M  V30 3116 H 286.955 2.50969 4.01636 0
M  V30 3117 H 287.379 5.09288 4.46044 0
M  V30 3118 H 292.021 2.34703 3.51673 0
M  V30 3119 H 289.739 6.67731 4.55149 0
M  V30 3120 H 293.325 4.43372 3.76713 0
M  V30 3121 H 292.205 6.57115 4.27983 0
M  V30 3122 N 289.708 -1.40897 0.706093 0
M  V30 3123 C 290.64 -2.29199 0.00815776 0
M  V30 3124 C 291.653 -1.45336 -0.733582 0
M  V30 3125 O 292.842 -1.68727 -0.582537 0
M  V30 3126 C 289.942 -3.23417 -1.01265 0
M  V30 3127 C 289.115 -4.36089 -0.338387 0
M  V30 3128 C 288.174 -5.10811 -1.26326 0
M  V30 3129 O 287.2 -5.64215 -0.751651 0
M  V30 3130 N 288.402 -5.19269 -2.595 0
M  V30 3131 H 291.167 -2.89738 0.766297 0
M  V30 3132 H 288.728 -1.52164 0.55296 0
M  V30 3133 H 290.72 -3.70276 -1.63334 0
M  V30 3134 H 289.29 -2.64112 -1.67223 0
M  V30 3135 H 288.51 -3.91479 0.462352 0
M  V30 3136 H 289.798 -5.08634 0.130031 0
M  V30 3137 H 289.196 -4.77347 -3.03573 0
M  V30 3138 H 287.753 -5.69667 -3.16737 0
M  V30 3139 N 291.186 -0.45159 -1.50991 0
M  V30 3140 C 292.133 0.352625 -2.2809 0
M  V30 3141 C 293.103 1.0044 -1.32291 0
M  V30 3142 O 294.288 1.02058 -1.6121 0
M  V30 3143 C 291.428 1.43983 -3.13629 0
M  V30 3144 C 290.541 0.804772 -4.24438 0
M  V30 3145 C 289.676 1.86822 -4.97263 0
M  V30 3146 C 288.715 1.21236 -5.99973 0
M  V30 3147 N 287.852 2.2178 -6.66152 0
M  V30 3148 H 292.692 -0.311186 -2.96371 0
M  V30 3149 H 290.229 -0.165308 -1.46168 0
M  V30 3150 H 292.187 2.08161 -3.61559 0
M  V30 3151 H 290.817 2.07307 -2.47434 0
M  V30 3152 H 289.869 0.0509129 -3.80366 0
M  V30 3153 H 291.181 0.286076 -4.97979 0
M  V30 3154 H 290.335 2.58628 -5.48813 0
M  V30 3155 H 289.074 2.42068 -4.23385 0
M  V30 3156 H 288.079 0.479828 -5.47702 0
M  V30 3157 H 289.304 0.667051 -6.75816 0
M  V30 3158 H 287.25 2.76079 -5.95077 0
M  V30 3159 H 287.167 1.74841 -7.35504 0
M  V30 3160 H 288.435 2.93026 -7.22327 0
M  V30 3161 N 292.664 1.56529 -0.183458 0
M  V30 3162 C 293.892 2.01623 0.464285 0
M  V30 3163 C 294.307 1.06366 1.55986 0
M  V30 3164 O 293.664 0.0665398 1.82379 0
M  V30 3165 C 293.715 3.46475 1.03139 0
M  V30 3166 O 293.436 4.38095 -0.0204675 0
M  V30 3167 C 294.937 4.0703 1.75617 0
M  V30 3168 H 292.157 0.660596 0.117704 0
M  V30 3169 H 294.701 2.02451 -0.288751 0
M  V30 3170 H 292.856 3.46383 1.73486 0
M  V30 3171 H 293.27 5.22973 0.399952 0
M  V30 3172 H 294.744 5.10271 2.10542 0
M  V30 3173 H 295.221 3.49819 2.65563 0
M  V30 3174 H 295.827 4.1086 1.09882 0
M  V30 3175 N 294.142 -0.090211 1.57342 0
M  V30 3176 C 295.372 -0.805055 1.90269 0
M  V30 3177 C 295.78 -1.72561 0.775842 0
M  V30 3178 O 295.123 -1.81839 -0.260843 0
M  V30 3179 C 295.185 -1.66734 3.18497 0
M  V30 3180 C 294.849 -0.918092 4.47683 0
M  V30 3181 C 295.846 -0.245674 5.19319 0
M  V30 3182 C 293.531 -0.890724 4.94339 0
M  V30 3183 C 295.525 0.444088 6.35851 0
M  V30 3184 C 293.212 -0.197179 6.10782 0
M  V30 3185 C 294.21 0.469044 6.81388 0
M  V30 3186 O 293.898 1.15146 7.95611 0
M  V30 3187 H 293.63 -0.235143 0.633785 0
M  V30 3188 H 296.184 -0.0703805 2.05279 0
M  V30 3189 H 294.414 -2.44437 2.99646 0
M  V30 3190 H 296.103 -2.25919 3.37217 0
M  V30 3191 H 296.869 -0.258246 4.84312 0
M  V30 3192 H 292.748 -1.39873 4.39268 0
M  V30 3193 H 296.292 0.964667 6.90898 0
M  V30 3194 H 292.189 -0.18247 6.45242 0
M  V30 3195 H 292.957 1.05885 8.11622 0
M  V30 3196 N 295.62 -1.53406 -0.361157 0
M  V30 3197 C 296.53 -1.83122 -1.4664 0
M  V30 3198 C 297.546 -0.719943 -1.58407 0
M  V30 3199 O 298.722 -1.01046 -1.74218 0
M  V30 3200 C 295.787 -2.01891 -2.81853 0
M  V30 3201 C 294.848 -3.25784 -2.79577 0
M  V30 3202 C 294.081 -3.43648 -4.0834 0
M  V30 3203 O 294.304 -2.65714 -5.0473 0
M  V30 3204 O 293.238 -4.37018 -4.13883 0
M  V30 3205 H 297.064 -2.7703 -1.24451 0
M  V30 3206 H 294.649 -1.38841 -0.551678 0
M  V30 3207 H 296.531 -2.15782 -3.61962 0
M  V30 3208 H 295.206 -1.11173 -3.0401 0
M  V30 3209 H 294.113 -3.17312 -1.98151 0
M  V30 3210 H 295.446 -4.16439 -2.62373 0
M  V30 3211 N 297.098 0.621204 -1.44841 0
M  V30 3212 C 298.323 1.41244 -1.51871 0
M  V30 3213 C 298.748 1.87519 -0.147764 0
M  V30 3214 O 298.106 1.59334 0.865 0
M  V30 3215 C 298.154 2.60221 -2.49634 0
M  V30 3216 O 297.258 3.60395 -2.00473 0
M  V30 3217 H 296.599 0.42223 -0.512463 0
M  V30 3218 H 299.129 0.757305 -1.90069 0
M  V30 3219 H 299.139 3.0764 -2.67996 0
M  V30 3220 H 297.814 2.25887 -3.4921 0
M  V30 3221 H 296.391 3.19717 -1.91925 0
M  V30 3222 N 298.576 1.31904 0.862503 0
M  V30 3223 C 299.506 1.22782 1.98612 0
M  V30 3224 C 300.487 0.113362 1.69722 0
M  V30 3225 O 301.672 0.299218 1.91881 0
M  V30 3226 C 298.802 0.942058 3.34279 0
M  V30 3227 C 297.756 2.0169 3.77499 0
M  V30 3228 C 297.082 1.58369 5.10709 0
M  V30 3229 C 298.382 3.43096 3.93805 0
M  V30 3230 H 300.076 2.16788 2.06502 0
M  V30 3231 H 297.622 1.04366 0.992154 0
M  V30 3232 H 299.575 0.864818 4.1243 0
M  V30 3233 H 298.299 -0.0336603 3.26583 0
M  V30 3234 H 296.958 2.08416 3.01593 0
M  V30 3235 H 296.606 0.595628 4.99461 0
M  V30 3236 H 296.306 2.30279 5.40597 0
M  V30 3237 H 297.83 1.52067 5.91361 0
M  V30 3238 H 299.244 3.39003 4.62331 0
M  V30 3239 H 297.641 4.13288 4.35101 0
M  V30 3240 H 298.711 3.83334 2.96957 0
M  V30 3241 N 300.054 -1.07777 1.14986 0
M  V30 3242 C 301.279 -1.84558 0.946213 0
M  V30 3243 C 301.704 -1.81323 -0.500362 0
M  V30 3244 O 301.062 -1.20301 -1.35637 0
M  V30 3245 C 301.11 -3.29736 1.45968 0
M  V30 3246 O 300.214 -4.07149 0.65601 0
M  V30 3247 H 299.555 -0.571641 0.33782 0
M  V30 3248 H 302.085 -1.35991 1.52865 0
M  V30 3249 H 302.095 -3.80574 1.47063 0
M  V30 3250 H 300.77 -3.31406 2.51283 0
M  V30 3251 H 299.347 -3.65994 0.714322 0
M  V30 3252 N 301.532 -0.945985 -1.26051 0
M  V30 3253 C 302.809 -0.513816 -1.88731 0
M  V30 3254 C 303.189 1.00872 -1.8544 0
M  V30 3255 O 302.537 1.8708 -1.312 0
M  V30 3256 C 302.747 -1.08062 -3.31849 0
M  V30 3257 C 304.095 -1.1522 -4.08668 0
M  V30 3258 O 305.119 -1.03155 -3.40936 0
M  V30 3259 O 303.978 -1.34044 -5.29806 0
M  V30 3260 H 301.072 -0.168193 -0.809716 0
M  V30 3261 H 303.618 -1.03886 -1.34186 0
M  V30 3262 H 302.39 -2.1241 -3.2863 0
M  V30 3263 H 302.013 -0.538307 -3.93939 0
M  V30 3264 N 303.011 1.40521 -0.713556 0
M  V30 3265 C 303.944 2.28198 -0.00881422 0
M  V30 3266 C 304.922 1.43227 0.769735 0
M  V30 3267 O 306.106 1.72641 0.756799 0
M  V30 3268 C 303.233 3.23758 0.994899 0
M  V30 3269 C 302.279 4.25391 0.3074 0
M  V30 3270 S 303.112 5.26765 -0.963247 0
M  V30 3271 C 304.268 6.25888 0.0384143 0
M  V30 3272 H 304.501 2.87622 -0.752407 0
M  V30 3273 H 302.034 1.45925 -0.504502 0
M  V30 3274 H 303.992 3.79341 1.56879 0
M  V30 3275 H 302.653 2.63396 1.71118 0
M  V30 3276 H 301.846 4.92596 1.0661 0
M  V30 3277 H 301.448 3.73497 -0.193879 0
M  V30 3278 H 303.74 6.71683 0.885912 0
M  V30 3279 H 304.683 7.05552 -0.60019 0
M  V30 3280 H 305.091 5.63072 0.401233 0
M  V30 3281 N 304.489 0.459591 1.5075 0
M  V30 3282 C 305.735 -0.0994966 2.02556 0
M  V30 3283 C 306.068 -1.40399 1.3417 0
M  V30 3284 O 305.343 -1.88892 0.463683 0
M  V30 3285 C 305.626 -0.295242 3.58888 0
M  V30 3286 C 305.479 1.02947 4.37861 0
M  V30 3287 C 306.798 -1.05502 4.27267 0
M  V30 3288 H 303.917 -0.034686 0.736183 0
M  V30 3289 H 306.559 0.602938 1.8018 0
M  V30 3290 H 304.709 -0.893563 3.78084 0
M  V30 3291 H 306.381 1.66348 4.30263 0
M  V30 3292 H 304.624 1.62885 4.02058 0
M  V30 3293 H 305.295 0.846281 5.45474 0
M  V30 3294 H 307.771 -0.547993 4.12476 0
M  V30 3295 H 306.647 -1.16077 5.36486 0
M  V30 3296 H 306.908 -2.08875 3.89645 0
M  V30 3297 N 305.967 -1.56429 0.191757 0
M  V30 3298 C 307.213 -1.97777 -0.448554 0
M  V30 3299 C 307.546 -1.07847 -1.61501 0
M  V30 3300 O 306.821 -0.129774 -1.94067 0
M  V30 3301 C 307.104 -3.48362 -0.911906 0
M  V30 3302 C 306.957 -4.4907 0.256136 0
M  V30 3303 C 308.276 -4.02561 -1.77857 0
M  V30 3304 H 305.395 -0.719071 -0.161572 0
M  V30 3305 H 308.037 -1.87896 0.282007 0
M  V30 3306 H 306.187 -3.56914 -1.53442 0
M  V30 3307 H 307.859 -4.5256 0.893733 0
M  V30 3308 H 306.102 -4.24181 0.908436 0
M  V30 3309 H 306.773 -5.51889 -0.11053 0
M  V30 3310 H 309.249 -3.96767 -1.25359 0
M  V30 3311 H 308.125 -5.08301 -2.07174 0
M  V30 3312 H 308.386 -3.47616 -2.73158 0
M  V30 3313 N 307.445 0.0818655 -1.57387 0
M  V30 3314 C 308.856 0.634871 -1.75574 0
M  V30 3315 C 309.207 1.78435 -0.815809 0
M  V30 3316 O 308.332 2.164 0.0025366 0
M  V30 3317 C 308.927 1.15845 -3.18379 0
M  V30 3318 C 307.486 1.65741 -3.37945 0
M  V30 3319 C 306.633 0.572549 -2.71325 0
M  V30 3320 H 309.584 -0.144268 -1.58043 0
M  V30 3321 H 309.605 2.02751 -3.21982 0
M  V30 3322 H 309.117 0.321631 -3.86765 0
M  V30 3323 H 307.218 2.51781 -2.74658 0
M  V30 3324 H 307.331 1.74129 -4.46336 0
M  V30 3325 H 305.695 1.01518 -2.33594 0
M  V30 3326 H 306.478 -0.253918 -3.4236 0
M  V30 3327 N 308.923 1.53595 0.353017 0
M  V30 3328 C 310.339 1.43648 0.695516 0
M  V30 3329 C 310.539 0.585617 1.92802 0
M  V30 3330 O 309.595 0.0729223 2.52395 0
M  V30 3331 C 310.908 2.8701 0.896991 0
M  V30 3332 C 312.456 2.96723 0.996209 0
M  V30 3333 C 312.931 4.41173 1.23007 0
M  V30 3334 N 314.422 4.44657 1.29749 0
M  V30 3335 C 315.157 5.53547 1.49577 0
M  V30 3336 N 314.653 6.72461 1.66639 0
M  V30 3337 N 316.446 5.41145 1.52048 0
M  V30 3338 H 308.597 2.07415 -0.457481 0
M  V30 3339 H 310.86 0.9372 -0.142687 0
M  V30 3340 H 310.566 3.51644 0.0629938 0
M  V30 3341 H 310.44 3.31401 1.80148 0
M  V30 3342 H 312.827 2.32235 1.82074 0
M  V30 3343 H 312.908 2.55707 0.0688331 0
M  V30 3344 H 312.552 5.06238 0.410505 0
M  V30 3345 H 312.482 4.79772 2.17086 0
M  V30 3346 H 314.973 3.58963 1.18126 0
M  V30 3347 H 315.286 7.51214 1.81378 0
M  V30 3348 H 313.631 6.75423 1.63794 0
M  V30 3349 H 316.822 4.47205 1.38294 0
M  V30 3350 H 316.995 6.26068 1.67159 0
M  V30 3351 N 310.401 -0.613514 1.45168 0
M  V30 3352 C 311.626 -1.40437 1.52618 0
M  V30 3353 C 312.051 -1.87438 0.157707 0
M  V30 3354 O 311.409 -1.59791 -0.856537 0
M  V30 3355 C 311.457 -2.58894 2.51011 0
M  V30 3356 O 310.561 -3.59326 2.02382 0
M  V30 3357 H 309.902 -0.419506 0.514695 0
M  V30 3358 H 312.432 -0.747215 1.90467 0
M  V30 3359 H 312.442 -3.06214 2.69624 0
M  V30 3360 H 311.117 -2.24032 3.50403 0
M  V30 3361 H 309.694 -3.18695 1.93618 0
M  V30 3362 N 311.879 -1.3236 -0.855495 0
M  V30 3363 C 313.107 -1.2587 -1.64208 0
M  V30 3364 C 313.522 0.173457 -1.88002 0
M  V30 3365 O 312.879 1.11027 -1.44842 0
M  V30 3366 C 312.93 -2.01424 -3.00184 0
M  V30 3367 O 312.651 -3.39051 -2.77445 0
M  V30 3368 C 314.152 -2.01948 -3.94629 0
M  V30 3369 H 311.372 -0.434318 -0.511477 0
M  V30 3370 H 313.916 -1.74469 -1.0668 0
M  V30 3371 H 312.071 -1.56549 -3.5436 0
M  V30 3372 H 312.485 -3.77711 -3.63916 0
M  V30 3373 H 313.959 -2.59297 -4.87308 0
M  V30 3374 H 314.436 -1.00554 -4.27534 0
M  V30 3375 H 315.042 -2.46767 -3.4639 0
M  V30 3376 N 313.357 1.07166 -1.15556 0
M  V30 3377 C 314.304 2.14417 -0.854055 0
M  V30 3378 C 315.274 1.64965 0.193806 0
M  V30 3379 O 316.459 1.90703 0.0609443 0
M  V30 3380 C 313.599 3.43304 -0.351574 0
M  V30 3381 C 312.712 4.06537 -1.46123 0
M  V30 3382 C 311.847 5.23266 -0.914677 0
M  V30 3383 C 310.886 5.78464 -2.00114 0
M  V30 3384 N 310.023 6.86521 -1.47083 0
M  V30 3385 H 314.863 2.39548 -1.77259 0
M  V30 3386 H 312.4 1.17543 -0.884425 0
M  V30 3387 H 314.358 4.17179 -0.0419409 0
M  V30 3388 H 312.988 3.18419 0.530037 0
M  V30 3389 H 312.04 3.30297 -1.88701 0
M  V30 3390 H 313.352 4.43567 -2.28144 0
M  V30 3391 H 312.506 6.04131 -0.557698 0
M  V30 3392 H 311.245 4.87658 -0.0636583 0
M  V30 3393 H 310.25 4.96243 -2.36692 0
M  V30 3394 H 311.475 6.16126 -2.85597 0
M  V30 3395 H 309.421 6.52849 -0.642198 0
M  V30 3396 H 309.338 7.22446 -2.22729 0
M  V30 3397 H 310.606 7.71087 -1.14215 0
M  V30 3398 N 314.835 0.952656 1.25548 0
M  V30 3399 C 315.765 0.489287 2.28316 0
M  V30 3400 C 316.746 -0.463359 1.63667 0
M  V30 3401 O 317.931 -0.36274 1.90782 0
M  V30 3402 C 315.061 -0.235603 3.465 0
M  V30 3403 C 314.015 0.631593 4.23314 0
M  V30 3404 C 313.341 -0.223923 5.34231 0
M  V30 3405 C 314.641 1.90871 4.86174 0
M  V30 3406 H 316.335 1.34822 2.67326 0
M  V30 3407 H 313.881 0.649728 1.28509 0
M  V30 3408 H 315.834 -0.570882 4.17515 0
M  V30 3409 H 314.558 -1.12877 3.06474 0
M  V30 3410 H 313.217 0.949929 3.54079 0
M  V30 3411 H 312.865 -1.11678 4.90446 0
M  V30 3412 H 312.565 0.35299 5.86539 0
M  V30 3413 H 314.089 -0.554214 6.0808 0
M  V30 3414 H 315.503 1.63997 5.49343 0
M  V30 3415 H 313.9 2.43112 5.4865 0
M  V30 3416 H 314.97 2.61304 4.08471 0
M  V30 3417 N 316.313 -1.40141 0.720998 0
M  V30 3418 C 317.562 -2.0002 0.259804 0
M  V30 3419 C 317.875 -1.57839 -1.15526 0
M  V30 3420 O 319.081 -2.10455 -1.71525 0
M  V30 3421 C 317.537 -3.57516 0.413566 0
M  V30 3422 C 317.145 -4.08667 1.83562 0
M  V30 3423 C 318.889 -4.24498 0.0134387 0
M  V30 3424 C 316.796 -5.58686 1.93968 0
M  V30 3425 H 315.726 -0.748195 0.0933806 0
M  V30 3426 H 318.377 -1.60313 0.892866 0
M  V30 3427 H 316.759 -3.9495 -0.288169 0
M  V30 3428 H 317.933 -3.82598 2.56817 0
M  V30 3429 H 316.248 -3.543 2.1877 0
M  V30 3430 H 318.845 -5.34654 0.0703954 0
M  V30 3431 H 319.188 -4.03375 -1.02927 0
M  V30 3432 H 319.721 -3.92188 0.665815 0
M  V30 3433 H 316.46 -5.8467 2.96379 0
M  V30 3434 H 315.98 -5.86602 1.25131 0
M  V30 3435 H 317.659 -6.23875 1.71431 0
M  V30 3436 N 317.792 -0.46758 -1.50504 0
M  V30 3437 C 319.02 0.0864133 -2.06719 0
M  V30 3438 C 319.435 1.33819 -1.33184 0
M  V30 3439 O 318.792 1.78061 -0.400083 0
M  V30 3440 C 318.843 0.378079 -3.59517 0
M  V30 3441 O 318.564 -0.824044 -4.3028 0
M  V30 3442 C 320.065 0.979426 -4.32345 0
M  V30 3443 H 317.285 -0.00551697 -0.670977 0
M  V30 3444 H 319.829 -0.655354 -1.93715 0
M  V30 3445 H 317.984 1.06977 -3.72337 0
M  V30 3446 H 318.398 -0.566518 -5.21432 0
M  V30 3447 H 319.872 1.1333 -5.40241 0
M  V30 3448 H 320.349 1.9686 -3.9261 0
M  V30 3449 H 320.955 0.326216 -4.24047 0
M  V30 3450 N 319.27 1.56325 -0.20005 0
M  V30 3451 C 320.18 2.22931 0.730668 0
M  V30 3452 C 321.196 1.22997 1.23076 0
M  V30 3453 O 322.372 1.55748 1.27689 0
M  V30 3454 C 319.437 2.87948 1.93098 0
M  V30 3455 C 318.498 4.03166 1.47497 0
M  V30 3456 C 317.731 4.65073 2.61807 0
M  V30 3457 O 317.954 4.25913 3.79413 0
M  V30 3458 O 316.888 5.54452 2.34237 0
M  V30 3459 H 320.714 3.03084 0.193391 0
M  V30 3460 H 318.299 1.49371 0.0294621 0
M  V30 3461 H 320.181 3.29063 2.6324 0
M  V30 3462 H 318.856 2.10771 2.45677 0
M  V30 3463 H 317.763 3.66664 0.742201 0
M  V30 3464 H 319.096 4.82022 0.995796 0
M  V30 3465 N 320.748 -0.0735177 1.57428 0
M  V30 3466 C 322.025 -0.805903 1.78226 0
M  V30 3467 C 322.405 -1.95874 0.787189 0
M  V30 3468 O 321.753 -2.2779 -0.180029 0
M  V30 3469 C 321.963 -1.28045 3.24662 0
M  V30 3470 C 323.311 -1.71453 3.88444 0
M  V30 3471 O 324.335 -1.37616 3.28543 0
M  V30 3472 O 323.194 -2.34093 4.93825 0
M  V30 3473 H 320.288 -0.386041 0.73137 0
M  V30 3474 H 322.834 -0.0537269 1.69615 0
M  V30 3475 H 321.606 -0.455476 3.8864 0
M  V30 3476 H 321.229 -2.094 3.37991 0
M  V30 3477 N 322.226 -1.5378 -0.344866 0
M  V30 3478 C 323.173 -1.81676 -1.42346 0
M  V30 3479 C 324.143 -0.662376 -1.52321 0
M  V30 3480 O 325.328 -0.906675 -1.67881 0
M  V30 3481 C 322.468 -2.03087 -2.79015 0
M  V30 3482 C 321.581 -3.30799 -2.77842 0
M  V30 3483 C 320.716 -3.42285 -4.0622 0
M  V30 3484 C 319.755 -4.6395 -3.9927 0
M  V30 3485 N 318.892 -4.72477 -5.19336 0
M  V30 3486 H 323.732 -2.73703 -1.17858 0
M  V30 3487 H 321.269 -1.35568 -0.570949 0
M  V30 3488 H 323.227 -2.1349 -3.58438 0
M  V30 3489 H 321.857 -1.14375 -3.01858 0
M  V30 3490 H 320.909 -3.29244 -1.90533 0
M  V30 3491 H 322.221 -4.20314 -2.68584 0
M  V30 3492 H 321.375 -3.52113 -4.94066 0
M  V30 3493 H 320.114 -2.50823 -4.18258 0
M  V30 3494 H 319.119 -4.54201 -3.09809 0
M  V30 3495 H 320.344 -5.56775 -3.88817 0
M  V30 3496 H 318.29 -3.83924 -5.3192 0
M  V30 3497 H 318.207 -5.55927 -5.12329 0
M  V30 3498 H 319.475 -4.86613 -6.08957 0
M  V30 3499 N 323.704 0.605807 -1.45491 0
M  V30 3500 C 324.614 1.74466 -1.56839 0
M  V30 3501 C 325.63 1.68006 -0.452772 0
M  V30 3502 O 326.806 1.8833 -0.713708 0
M  V30 3503 C 323.871 3.10931 -1.53371 0
M  V30 3504 C 322.932 3.28832 -2.75986 0
M  V30 3505 C 322.165 4.58787 -2.72673 0
M  V30 3506 O 322.388 5.4122 -1.80102 0
M  V30 3507 O 321.322 4.79438 -3.63899 0
M  V30 3508 H 325.148 1.67843 -2.53106 0
M  V30 3509 H 322.733 0.770108 -1.28022 0
M  V30 3510 H 324.615 3.92233 -1.54051 0
M  V30 3511 H 323.29 3.18042 -0.602572 0
M  V30 3512 H 322.197 2.47112 -2.80867 0
M  V30 3513 H 323.53 3.26599 -3.68231 0
M  V30 3514 N 325.182 1.32811 0.848464 0
M  V30 3515 C 326.43 1.23479 1.59991 0
M  V30 3516 C 326.751 -0.201853 1.93952 0
M  V30 3517 O 326.021 -1.12818 1.60153 0
M  V30 3518 H 324.601 0.454034 0.593179 0
M  V30 3519 H 327.263 1.66412 1.01455 0
M  V30 3520 H 326.359 1.82178 2.53412 0
M  V30 3521 N 326.66 -1.06551 1.16123 0
M  V30 3522 C 327.908 -1.78947 0.939267 0
M  V30 3523 C 328.229 -1.87532 -0.534476 0
M  V30 3524 O 327.499 -1.38211 -1.38833 0
M  V30 3525 H 326.079 -0.662807 0.344523 0
M  V30 3526 H 328.741 -1.28725 1.46342 0
M  V30 3527 H 327.837 -2.81117 1.35572 0
M  V30 3528 N 328.138 -0.959301 -1.25041 0
M  V30 3529 C 329.068 -0.501388 -2.28053 0
M  V30 3530 C 330.049 0.454673 -1.63911 0
M  V30 3531 O 331.234 0.352618 -1.90972 0
M  V30 3532 C 328.364 0.217224 -3.4662 0
M  V30 3533 C 327.318 -0.654034 -4.22973 0
M  V30 3534 C 326.644 0.195589 -5.34342 0
M  V30 3535 C 327.944 -1.93447 -4.85155 0
M  V30 3536 H 329.638 -1.36238 -2.66608 0
M  V30 3537 H 327.184 -0.656534 -1.28163 0
M  V30 3538 H 329.137 0.548732 -4.17812 0
M  V30 3539 H 327.861 1.1125 -3.07068 0
M  V30 3540 H 326.52 -0.968693 -3.5357 0
M  V30 3541 H 326.168 1.09076 -4.91031 0
M  V30 3542 H 325.868 -0.384091 -5.86343 0
M  V30 3543 H 327.392 0.521958 -6.08365 0
M  V30 3544 H 328.806 -1.66908 -5.48466 0
M  V30 3545 H 327.203 -2.46018 -5.47353 0
M  V30 3546 H 328.273 -2.63466 -4.07079 0
M  V30 3547 N 329.616 1.39756 -0.72842 0
M  V30 3548 C 330.863 2.00645 -0.273487 0
M  V30 3549 C 331.191 1.57786 1.13727 0
M  V30 3550 O 330.446 0.794886 1.7883 0
M  V30 3551 C 330.745 3.56002 -0.315776 0
M  V30 3552 C 330.411 4.18489 -1.67863 0
M  V30 3553 C 329.073 4.3527 -2.05166 0
M  V30 3554 C 331.425 4.53219 -2.57375 0
M  V30 3555 C 328.753 4.84069 -3.31503 0
M  V30 3556 C 331.105 5.03423 -3.83077 0
M  V30 3557 C 329.769 5.18413 -4.20481 0
M  V30 3558 H 329.039 0.734211 -0.100076 0
M  V30 3559 H 331.686 1.6718 -0.933972 0
M  V30 3560 H 329.991 3.89452 0.428285 0
M  V30 3561 H 331.688 4.00963 0.0542575 0
M  V30 3562 H 328.278 4.05824 -1.37858 0
M  V30 3563 H 332.462 4.39878 -2.29827 0
M  V30 3564 H 327.718 4.93859 -3.60435 0
M  V30 3565 H 331.892 5.2927 -4.52599 0
M  V30 3566 H 329.519 5.55987 -5.18443 0
M  V30 3567 N 331.094 0.475555 1.50254 0
M  V30 3568 C 332.322 -0.0754493 2.06762 0
M  V30 3569 C 332.737 -1.33111 1.33891 0
M  V30 3570 O 332.094 -1.77846 0.40952 0
M  V30 3571 C 332.145 -0.359008 3.59713 0
M  V30 3572 O 331.866 0.846851 4.29837 0
M  V30 3573 C 333.367 -0.956484 4.32858 0
M  V30 3574 H 330.587 0.00907525 0.670939 0
M  V30 3575 H 333.131 0.665618 1.93364 0
M  V30 3576 H 331.286 -1.05001 3.72899 0
M  V30 3577 H 331.7 0.594162 5.21124 0
M  V30 3578 H 333.174 -1.10463 5.40834 0
M  V30 3579 H 333.651 -1.94775 3.93649 0
M  V30 3580 H 334.257 -0.303723 4.24214 0
M  V30 3581 N 332.573 -1.56217 0.208337 0
M  V30 3582 C 333.819 -1.98242 -0.427552 0
M  V30 3583 C 334.152 -1.09554 -1.60348 0
M  V30 3584 O 333.427 -0.15035 -1.93918 0
M  V30 3585 C 333.71 -3.4931 -0.874907 0
M  V30 3586 C 333.563 -4.48773 0.303751 0
M  V30 3587 C 334.882 -4.04424 -1.73577 0
M  V30 3588 H 332.001 -0.720744 -0.153936 0
M  V30 3589 H 334.643 -1.87586 0.30192 0
M  V30 3590 H 332.793 -3.58522 -1.49648 0
M  V30 3591 H 334.465 -4.51586 0.941682 0
M  V30 3592 H 332.708 -4.23194 0.953375 0
M  V30 3593 H 333.379 -5.51976 -0.0519883 0
M  V30 3594 H 335.855 -3.98075 -1.21143 0
M  V30 3595 H 334.731 -5.1047 -2.01771 0
M  V30 3596 H 334.992 -3.50494 -2.69456 0
M  V30 3597 N 334.051 0.0651679 -1.57465 0
M  V30 3598 C 335.279 0.775808 -1.91804 0
M  V30 3599 C 335.694 1.70782 -0.804916 0
M  V30 3600 O 335.051 1.81153 0.221311 0
M  V30 3601 C 335.102 1.56381 -3.25925 0
M  V30 3602 O 334.823 0.669248 -4.32958 0
M  V30 3603 C 336.324 2.37485 -3.7432 0
M  V30 3604 H 333.544 0.2202 -0.63384 0
M  V30 3605 H 336.088 0.0334587 -2.04473 0
M  V30 3606 H 334.243 2.25837 -3.14764 0
M  V30 3607 H 334.657 1.21801 -5.10162 0
M  V30 3608 H 336.131 2.88223 -4.70778 0
M  V30 3609 H 336.608 3.17307 -3.03666 0
M  V30 3610 H 337.214 1.73173 -3.88447 0
M  V30 3611 N 335.529 1.53961 0.336706 0
M  V30 3612 C 336.459 1.85417 1.41925 0
M  V30 3613 C 337.44 0.709856 1.5458 0
M  V30 3614 O 338.625 0.962396 1.68676 0
M  V30 3615 C 335.755 2.06985 2.78881 0
M  V30 3616 C 334.709 3.22813 2.81026 0
M  V30 3617 C 334.035 3.29727 4.20932 0
M  V30 3618 C 335.335 4.60767 2.45949 0
M  V30 3619 H 337.029 2.76079 1.15848 0
M  V30 3620 H 334.575 1.32839 0.555859 0
M  V30 3621 H 336.528 2.27575 3.54665 0
M  V30 3622 H 335.252 1.13061 3.06406 0
M  V30 3623 H 333.911 3.0209 2.07695 0
M  V30 3624 H 333.559 2.33385 4.45579 0
M  V30 3625 H 333.259 4.07566 4.23277 0
M  V30 3626 H 334.783 3.52536 4.98549 0
M  V30 3627 H 336.197 4.81325 3.11446 0
M  V30 3628 H 334.594 5.4106 2.59566 0
M  V30 3629 H 335.664 4.6391 1.41122 0
M  V30 3630 N 337.007 -0.598083 1.45811 0
M  V30 3631 C 338.254 -1.35681 1.50323 0
M  V30 3632 C 338.582 -1.9393 0.148739 0
M  V30 3633 O 337.837 -1.76094 -0.853787 0
M  V30 3634 C 338.136 -2.51669 2.53766 0
M  V30 3635 C 337.802 -2.11508 3.98215 0
M  V30 3636 C 336.464 -2.0027 4.37545 0
M  V30 3637 C 338.816 -1.80308 4.89018 0
M  V30 3638 C 336.144 -1.56067 5.65562 0
M  V30 3639 C 338.496 -1.37589 6.17456 0
M  V30 3640 C 337.16 -1.24916 6.55708 0
M  V30 3641 H 336.43 -0.496492 0.550069 0
M  V30 3642 H 339.077 -0.675052 1.79207 0
M  V30 3643 H 337.382 -3.25225 2.18486 0
M  V30 3644 H 339.079 -3.09895 2.54492 0
M  V30 3645 H 335.669 -2.21185 3.67117 0
M  V30 3646 H 339.853 -1.87884 4.59362 0
M  V30 3647 H 335.109 -1.44886 5.93985 0
M  V30 3648 H 339.283 -1.12495 6.87254 0
M  V30 3649 H 336.91 -0.904386 7.54801 0
M  V30 3650 N 338.485 -1.33259 -0.841409 0
M  V30 3651 C 339.901 -1.12538 -1.13169 0
M  V30 3652 C 340.101 0.0854037 -2.01319 0
M  V30 3653 O 339.157 0.766417 -2.40587 0
M  V30 3654 C 340.47 -2.41156 -1.79623 0
M  V30 3655 C 342.018 -2.47038 -1.922 0
M  V30 3656 C 342.493 -3.7561 -2.6207 0
M  V30 3657 N 343.984 -3.76667 -2.69585 0
M  V30 3658 C 344.719 -4.72861 -3.2433 0
M  V30 3659 N 344.215 -5.79428 -3.79783 0
M  V30 3660 N 346.008 -4.6034 -3.22558 0
M  V30 3661 H 338.159 -2.10868 -0.254676 0
M  V30 3662 H 340.422 -0.931615 -0.175493 0
M  V30 3663 H 340.128 -3.29747 -1.22311 0
M  V30 3664 H 340.002 -2.53114 -2.79666 0
M  V30 3665 H 342.389 -1.58898 -2.48667 0
M  V30 3666 H 342.47 -2.39022 -0.911148 0
M  V30 3667 H 342.114 -4.64131 -2.06263 0
M  V30 3668 H 342.044 -3.80902 -3.63622 0
M  V30 3669 H 344.535 -2.99648 -2.30259 0
M  V30 3670 H 344.848 -6.48867 -4.19752 0
M  V30 3671 H 343.193 -5.83166 -3.78078 0
M  V30 3672 H 346.384 -3.76244 -2.78492 0
M  V30 3673 H 346.557 -5.35478 -3.64921 0
M  V30 3674 N 339.963 1.05934 -1.16686 0
M  V30 3675 C 340.91 2.13499 -0.876748 0
M  V30 3676 C 341.88 1.65162 0.176299 0
M  V30 3677 O 343.065 1.90757 0.0407143 0
M  V30 3678 C 340.205 3.42912 -0.387967 0
M  V30 3679 C 339.318 4.04964 -1.50426 0
M  V30 3680 C 338.453 5.22266 -0.970125 0
M  V30 3681 C 337.492 5.76309 -2.06238 0
M  V30 3682 N 336.629 6.84922 -1.54356 0
M  V30 3683 H 341.469 2.37654 -1.7979 0
M  V30 3684 H 339.006 1.16598 -0.896843 0
M  V30 3685 H 340.964 4.17111 -0.086186 0
M  V30 3686 H 339.594 3.18963 0.496235 0
M  V30 3687 H 338.646 3.28277 -1.92193 0
M  V30 3688 H 339.958 4.41122 -2.32836 0
M  V30 3689 H 339.112 6.03506 -0.621743 0
M  V30 3690 H 337.851 4.87564 -0.115377 0
M  V30 3691 H 336.856 4.93704 -2.41942 0
M  V30 3692 H 338.081 6.13062 -2.92115 0
M  V30 3693 H 336.027 6.52131 -0.711406 0
M  V30 3694 H 335.944 7.20043 -2.30379 0
M  V30 3695 H 337.212 7.69832 -1.22387 0
M  V30 3696 N 341.441 0.965919 1.2453 0
M  V30 3697 C 342.687 0.62776 1.92839 0
M  V30 3698 C 343.02 -0.834694 1.75347 0
M  V30 3699 O 342.295 -1.60031 1.10546 0
M  V30 3700 C 342.578 1.00109 3.45905 0
M  V30 3701 C 342.431 2.52011 3.72573 0
M  V30 3702 C 343.75 0.53435 4.36844 0
M  V30 3703 H 340.869 0.229537 0.700344 0
M  V30 3704 H 343.511 1.2046 1.46933 0
M  V30 3705 H 341.661 0.510238 3.85135 0
M  V30 3706 H 343.333 3.08559 3.42912 0
M  V30 3707 H 341.576 2.95287 3.17786 0
M  V30 3708 H 342.247 2.73183 4.79661 0
M  V30 3709 H 344.723 0.955565 4.04979 0
M  V30 3710 H 343.599 0.824152 5.42678 0
M  V30 3711 H 343.86 -0.565589 4.38467 0
M  V30 3712 N 342.919 -1.39368 0.735821 0
M  V30 3713 C 344.168 -1.99733 0.281004 0
M  V30 3714 C 344.481 -1.59055 -1.13846 0
M  V30 3715 O 345.687 -2.12262 -1.69284 0
M  V30 3716 C 344.143 -3.57057 0.451462 0
M  V30 3717 C 343.751 -4.06697 1.87886 0
M  V30 3718 C 345.495 -4.2446 0.0584616 0
M  V30 3719 C 343.402 -5.56598 1.99883 0
M  V30 3720 H 342.332 -0.747163 0.101311 0
M  V30 3721 H 344.983 -1.59357 0.909819 0
M  V30 3722 H 343.365 -3.95234 -0.246263 0
M  V30 3723 H 344.539 -3.79853 2.60861 0
M  V30 3724 H 342.854 -3.5196 2.22515 0
M  V30 3725 H 345.451 -5.34549 0.127099 0
M  V30 3726 H 345.794 -4.04444 -0.986433 0
M  V30 3727 H 346.327 -3.9146 0.707374 0
M  V30 3728 H 343.066 -5.81494 3.02564 0
M  V30 3729 H 342.586 -5.85242 1.31346 0
M  V30 3730 H 344.265 -6.22022 1.78039 0
M  V30 3731 N 344.397 -0.483516 -1.5 0
M  V30 3732 C 345.307 0.309172 -2.32554 0
M  V30 3733 C 346.323 0.984159 -1.43493 0
M  V30 3734 O 347.499 0.969399 -1.76535 0
M  V30 3735 C 344.564 1.36979 -3.18493 0
M  V30 3736 C 343.625 0.710095 -4.23387 0
M  V30 3737 C 342.858 1.72018 -5.05218 0
M  V30 3738 O 343.081 2.94813 -4.88305 0
M  V30 3739 O 342.015 1.28515 -5.8802 0
M  V30 3740 H 345.841 -0.366064 -3.01486 0
M  V30 3741 H 343.426 -0.24514 -1.47375 0
M  V30 3742 H 345.308 1.98385 -3.71781 0
M  V30 3743 H 343.983 2.02828 -2.52275 0
M  V30 3744 H 342.89 0.0567539 -3.74057 0
M  V30 3745 H 344.223 0.0943557 -4.9211 0
M  V30 3746 N 345.875 1.56104 -0.216619 0
M  V30 3747 C 347.152 1.89988 0.465165 0
M  V30 3748 C 347.532 1.13326 1.78102 0
M  V30 3749 O 346.88 0.241033 2.27225 0
M  V30 3750 C 347.09 3.42646 0.662939 0
M  V30 3751 C 348.438 4.13311 0.972602 0
M  V30 3752 O 349.462 3.48217 0.749901 0
M  V30 3753 O 348.321 5.28396 1.39499 0
M  V30 3754 H 345.415 0.78979 0.245276 0
M  V30 3755 H 347.961 1.67721 -0.258436 0
M  V30 3756 H 346.733 3.90399 -0.26543 0
M  V30 3757 H 346.356 3.70677 1.43821 0
M  V30 3758 N 347.353 -0.0568162 1.57498 0
M  V30 3759 C 348.6 -0.753104 1.87975 0
M  V30 3760 C 348.928 -1.76815 0.81035 0
M  V30 3761 O 348.183 -1.94756 -0.19199 0
M  V30 3762 C 348.482 -1.48359 3.25153 0
M  V30 3763 C 348.148 -0.60713 4.46794 0
M  V30 3764 C 346.81 -0.365642 4.79809 0
M  V30 3765 C 349.162 -0.000305978 5.212 0
M  V30 3766 C 346.49 0.491905 5.84634 0
M  V30 3767 C 348.842 0.844781 6.26934 0
M  V30 3768 C 347.506 1.096 6.58441 0
M  V30 3769 H 346.776 -0.27558 0.687849 0
M  V30 3770 H 349.423 -0.0135173 1.91495 0
M  V30 3771 H 347.728 -2.29577 3.17492 0
M  V30 3772 H 349.425 -2.02739 3.45974 0
M  V30 3773 H 346.015 -0.805487 4.20963 0
M  V30 3774 H 350.199 -0.173961 4.95995 0
M  V30 3775 H 345.455 0.695131 6.07436 0
M  V30 3776 H 349.629 1.32165 6.83744 0
M  V30 3777 H 347.256 1.76224 7.39492 0
M  V30 3778 N 348.832 -1.54138 -0.328536 0
M  V30 3779 C 349.779 -1.83176 -1.40411 0
M  V30 3780 C 350.749 -0.678494 -1.5161 0
M  V30 3781 O 351.934 -0.92443 -1.6691 0
M  V30 3782 C 349.074 -2.06035 -2.76846 0
M  V30 3783 C 348.187 -3.33727 -2.74318 0
M  V30 3784 C 347.322 -3.46574 -4.02567 0
M  V30 3785 C 346.361 -4.68159 -3.94327 0
M  V30 3786 N 345.498 -4.77959 -5.14296 0
M  V30 3787 H 350.338 -2.74938 -1.14948 0
M  V30 3788 H 347.875 -1.36166 -0.556538 0
M  V30 3789 H 349.833 -2.1728 -3.56153 0
M  V30 3790 H 348.463 -1.1757 -3.00628 0
M  V30 3791 H 347.515 -3.31246 -1.8703 0
M  V30 3792 H 348.827 -4.23139 -2.64111 0
M  V30 3793 H 347.981 -3.57333 -4.90304 0
M  V30 3794 H 346.72 -2.55245 -4.15574 0
M  V30 3795 H 345.725 -4.57461 -3.04974 0
M  V30 3796 H 346.95 -5.60868 -3.82889 0
M  V30 3797 H 344.896 -3.89544 -5.27818 0
M  V30 3798 H 344.813 -5.6133 -5.06404 0
M  V30 3799 H 346.081 -4.93044 -6.03761 0
M  V30 3800 N 350.31 0.590341 -1.46126 0
M  V30 3801 C 351.538 1.37504 -1.54597 0
M  V30 3802 C 351.953 1.87897 -0.184447 0
M  V30 3803 O 351.31 1.63192 0.816984 0
M  V30 3804 C 351.361 2.56779 -2.54454 0
M  V30 3805 O 351.082 2.08476 -3.85317 0
M  V30 3806 C 352.583 3.49427 -2.72792 0
M  V30 3807 H 349.803 0.420325 -0.523037 0
M  V30 3808 H 352.347 0.718383 -1.91467 0
M  V30 3809 H 350.502 3.1845 -2.20609 0
M  V30 3810 H 350.916 2.86097 -4.396 0
M  V30 3811 H 352.39 4.29619 -3.466 0
M  V30 3812 H 352.867 4.00876 -1.79429 0
M  V30 3813 H 353.473 2.93598 -3.07702 0
M  V30 3814 N 351.788 1.33704 0.83433 0
M  V30 3815 C 352.735 1.24335 1.94447 0
M  V30 3816 C 353.705 0.120991 1.65659 0
M  V30 3817 O 354.89 0.300035 1.88426 0
M  V30 3818 C 352.03 0.993124 3.30501 0
M  V30 3819 C 351.143 2.20217 3.71657 0
M  V30 3820 C 350.278 1.88572 4.96602 0
M  V30 3821 C 349.317 3.05683 5.30306 0
M  V30 3822 N 348.454 2.73997 6.46429 0
M  V30 3823 H 353.294 2.1928 2.01792 0
M  V30 3824 H 350.831 1.09035 0.987404 0
M  V30 3825 H 352.789 0.828467 4.08892 0
M  V30 3826 H 351.419 0.0803902 3.227 0
M  V30 3827 H 350.471 2.47642 2.88752 0
M  V30 3828 H 351.783 3.07752 3.92543 0
M  V30 3829 H 350.937 1.68776 5.82752 0
M  V30 3830 H 349.676 0.982799 4.77695 0
M  V30 3831 H 348.681 3.26088 4.42659 0
M  V30 3832 H 349.906 3.96737 5.51159 0
M  V30 3833 H 347.852 1.86268 6.28999 0
M  V30 3834 H 347.769 3.55064 6.67432 0
M  V30 3835 H 349.037 2.57679 7.35678 0
M  V30 3836 N 353.266 -1.05314 1.17247 0
M  V30 3837 C 354.229 -2.112 0.890357 0
M  V30 3838 C 355.229 -1.60359 -0.118943 0
M  V30 3839 O 356.419 -1.73833 0.113086 0
M  V30 3840 C 353.551 -3.39266 0.333422 0
M  V30 3841 H 354.744 -2.37659 1.82916 0
M  V30 3842 H 352.297 -1.21538 0.982758 0
M  V30 3843 H 353.032 -3.18462 -0.612587 0
M  V30 3844 H 352.817 -3.77477 1.06082 0
M  V30 3845 H 354.307 -4.17315 0.154322 0
M  V30 3846 N 354.744 -0.972509 -1.24016 0
M  V30 3847 C 355.691 -0.505969 -2.25186 0
M  V30 3848 C 356.661 0.451009 -1.5986 0
M  V30 3849 O 357.846 0.360307 -1.87367 0
M  V30 3850 C 354.986 0.193089 -3.44559 0
M  V30 3851 C 354.099 -0.803222 -4.24467 0
M  V30 3852 C 353.234 -0.0797793 -5.3114 0
M  V30 3853 C 352.273 -1.06583 -6.02749 0
M  V30 3854 N 351.41 -0.372074 -7.01113 0
M  V30 3855 H 356.25 -1.37351 -2.64459 0
M  V30 3856 H 353.787 -0.688419 -1.29997 0
M  V30 3857 H 355.745 0.615125 -4.1264 0
M  V30 3858 H 354.375 1.02455 -3.06109 0
M  V30 3859 H 353.427 -1.34368 -3.55878 0
M  V30 3860 H 354.739 -1.55494 -4.73944 0
M  V30 3861 H 353.893 0.400015 -6.0538 0
M  V30 3862 H 352.632 0.704597 -4.82583 0
M  V30 3863 H 351.637 -1.55645 -5.27309 0
M  V30 3864 H 352.862 -1.85074 -6.53395 0
M  V30 3865 H 350.808 0.393238 -6.5482 0
M  V30 3866 H 350.725 -1.06258 -7.48495 0
M  V30 3867 H 351.993 0.0855932 -7.79453 0
M  V30 3868 N 356.222 1.38976 -0.743202 0
M  V30 3869 C 357.132 2.3434 -0.110399 0
M  V30 3870 C 358.148 1.58741 0.712559 0
M  V30 3871 O 359.324 1.9099 0.639125 0
M  V30 3872 C 356.389 3.37812 0.780012 0
M  V30 3873 C 355.45 4.29263 -0.0561319 0
M  V30 3874 C 354.683 5.27793 0.791875 0
M  V30 3875 O 354.906 5.33043 2.03031 0
M  V30 3876 O 353.84 6.01512 0.216183 0
M  V30 3877 H 357.666 2.90129 -0.897714 0
M  V30 3878 H 355.251 1.40643 -0.503966 0
M  V30 3879 H 357.133 4.01194 1.28923 0
M  V30 3880 H 355.808 2.84395 1.546 0
M  V30 3881 H 354.715 3.69076 -0.611056 0
M  V30 3882 H 356.048 4.85907 -0.784531 0
M  V30 3883 N 357.7 0.491464 1.49741 0
M  V30 3884 C 358.648 -0.305837 2.30581 0
M  V30 3885 C 359.642 -0.971642 1.38764 0
M  V30 3886 O 360.848 -0.90042 1.5586 0
M  V30 3887 H 357.223 -0.117482 0.742767 0
M  V30 3888 H 359.194 0.396093 2.95759 0
M  V30 3889 C 357.943 -1.36319 3.19863 0
M  V30 3890 H 357.266 -0.860258 3.90435 0
M  V30 3891 H 358.706 -1.89323 3.79385 0
M  V30 3892 C 357.165 -2.37621 2.38826 0
M  V30 3893 O 357.695 -3.43311 2.08567 0
M  V30 3894 N 355.901 -2.09849 2.01026 0
M  V30 3895 H 355.448 -1.23922 2.25834 0
M  V30 3896 H 355.406 -2.77859 1.47112 0
M  V30 3897 N 359.178 -1.55987 0.224894 0
M  V30 3898 C 360.125 -2.20436 -0.68385 0
M  V30 3899 C 361.095 -1.16102 -1.18783 0
M  V30 3900 O 362.28 -1.4447 -1.24632 0
M  V30 3901 C 359.42 -2.89076 -1.88491 0
M  V30 3902 C 358.533 -4.08012 -1.41951 0
M  V30 3903 C 357.668 -4.64426 -2.5784 0
M  V30 3904 C 356.707 -5.75656 -2.08053 0
M  V30 3905 N 355.844 -6.26347 -3.17227 0
M  V30 3906 H 360.684 -2.97727 -0.12754 0
M  V30 3907 H 358.221 -1.47011 -0.0511978 0
M  V30 3908 H 360.179 -3.27059 -2.59014 0
M  V30 3909 H 358.809 -2.14298 -2.41405 0
M  V30 3910 H 357.861 -3.75492 -0.609095 0
M  V30 3911 H 359.173 -4.88375 -1.01447 0
M  V30 3912 H 358.327 -5.04869 -3.3644 0
M  V30 3913 H 357.066 -3.83233 -3.01635 0
M  V30 3914 H 356.071 -5.34712 -1.27916 0
M  V30 3915 H 357.296 -6.58686 -1.65255 0
M  V30 3916 H 355.242 -5.48067 -3.60497 0
M  V30 3917 H 355.159 -7.01843 -2.80986 0
M  V30 3918 H 356.427 -6.71447 -3.95953 0
M  V30 3919 N 360.656 0.0484629 -1.57525 0
M  V30 3920 C 361.903 0.743125 -1.88372 0
M  V30 3921 C 362.231 1.76383 -0.819715 0
M  V30 3922 O 361.486 1.94855 0.181659 0
M  V30 3923 C 361.785 1.46632 -3.25935 0
M  V30 3924 C 361.451 0.583427 -4.4711 0
M  V30 3925 C 360.113 0.340191 -4.79996 0
M  V30 3926 C 362.465 -0.0273345 -5.21193 0
M  V30 3927 C 359.793 -0.522903 -5.84365 0
M  V30 3928 C 362.145 -0.878017 -6.26477 0
M  V30 3929 C 360.809 -1.1309 -6.5785 0
M  V30 3930 H 360.079 0.271929 -0.689301 0
M  V30 3931 H 362.726 0.00336166 -1.915 0
M  V30 3932 H 361.031 2.2789 -3.18706 0
M  V30 3933 H 362.728 2.00902 -3.47044 0
M  V30 3934 H 359.318 0.783151 -4.21384 0
M  V30 3935 H 363.502 0.147654 -4.9608 0
M  V30 3936 H 358.758 -0.727335 -6.07058 0
M  V30 3937 H 362.932 -1.35789 -6.83033 0
M  V30 3938 H 360.559 -1.80144 -7.38547 0
M  V30 3939 N 362.134 1.5431 0.320358 0
M  V30 3940 C 363.362 1.76636 1.07738 0
M  V30 3941 C 363.777 0.51649 1.81598 0
M  V30 3942 O 363.134 -0.512942 1.75143 0
M  V30 3943 C 363.185 2.96158 2.07299 0
M  V30 3944 O 362.906 4.16313 1.36438 0
M  V30 3945 C 364.407 3.3072 2.95193 0
M  V30 3946 H 361.627 0.589597 0.320339 0
M  V30 3947 H 364.171 2.01207 0.36551 0
M  V30 3948 H 362.326 2.73851 2.74016 0
M  V30 3949 H 362.74 4.83565 2.03138 0
M  V30 3950 H 364.214 4.17643 3.60941 0
M  V30 3951 H 364.691 2.48026 3.62463 0
M  V30 3952 H 365.297 3.55117 2.34034 0
M  V30 3953 N 363.613 -0.582584 1.46437 0
M  V30 3954 C 364.859 -1.34278 1.51978 0
M  V30 3955 C 365.192 -1.93446 0.170973 0
M  V30 3956 O 364.467 -1.76481 -0.817608 0
M  V30 3957 C 364.75 -2.47203 2.61845 0
M  V30 3958 C 364.603 -1.93069 4.06257 0
M  V30 3959 C 365.922 -3.49247 2.67795 0
M  V30 3960 H 363.041 -0.486876 0.553282 0
M  V30 3961 H 365.683 -0.654437 1.78374 0
M  V30 3962 H 363.833 -3.0592 2.39469 0
M  V30 3963 H 365.505 -1.38808 4.3992 0
M  V30 3964 H 363.748 -1.23898 4.1573 0
M  V30 3965 H 364.419 -2.74586 4.7886 0
M  V30 3966 H 366.895 -3.00411 2.8791 0
M  V30 3967 H 365.771 -4.25719 3.46489 0
M  V30 3968 H 366.032 -4.06482 1.73852 0
M  V30 3969 N 365.091 -1.34144 -0.827227 0
M  V30 3970 C 366.507 -1.13732 -1.11969 0
M  V30 3971 C 366.707 0.0640463 -2.01398 0
M  V30 3972 O 365.763 0.740856 -2.41387 0
M  V30 3973 C 367.076 -2.43047 -1.77055 0
M  V30 3974 C 368.624 -2.49063 -1.89569 0
M  V30 3975 C 369.099 -3.78369 -2.58072 0
M  V30 3976 N 370.59 -3.79505 -2.65575 0
M  V30 3977 C 371.325 -4.76274 -3.19297 0
M  V30 3978 N 370.821 -5.83424 -3.73616 0
M  V30 3979 N 372.614 -4.63735 -3.17658 0
M  V30 3980 H 364.765 -2.11126 -0.232296 0
M  V30 3981 H 367.028 -0.933424 -0.165602 0
M  V30 3982 H 366.734 -3.31025 -1.18807 0
M  V30 3983 H 366.608 -2.56066 -2.76966 0
M  V30 3984 H 368.995 -1.61527 -2.46968 0
M  V30 3985 H 369.076 -2.39975 -0.885745 0
M  V30 3986 H 368.72 -4.66293 -2.01329 0
M  V30 3987 H 368.65 -3.84737 -3.59562 0
M  V30 3988 H 371.141 -3.02074 -2.27068 0
M  V30 3989 H 371.454 -6.53282 -4.12846 0
M  V30 3990 H 369.799 -5.87143 -3.71871 0
M  V30 3991 H 372.99 -3.79177 -2.74486 0
M  V30 3992 H 373.163 -5.39318 -3.59221 0
M  V30 3993 N 366.569 1.04691 -1.17803 0
M  V30 3994 C 367.479 2.16057 -0.914151 0
M  V30 3995 C 368.495 1.73589 0.119503 0
M  V30 3996 O 369.671 2.01308 -0.0609468 0
M  V30 3997 C 366.736 3.4394 -0.436603 0
M  V30 3998 C 365.797 4.00825 -1.53746 0
M  V30 3999 C 365.03 5.22604 -1.0826 0
M  V30 4000 O 365.253 5.70367 0.0612244 0
M  V30 4001 O 364.187 5.7186 -1.87775 0
M  V30 4002 H 368.013 2.41169 -1.84584 0
M  V30 4003 H 365.598 1.1453 -0.959334 0
M  V30 4004 H 367.48 4.21024 -0.178057 0
M  V30 4005 H 366.155 3.20316 0.466869 0
M  V30 4006 H 365.062 3.25158 -1.84995 0
M  V30 4007 H 366.395 4.28778 -2.41683 0
M  V30 4008 N 368.047 0.979072 1.23499 0
M  V30 4009 C 369.294 0.647219 1.91878 0
M  V30 4010 C 369.622 -0.819074 1.76413 0
M  V30 4011 O 368.877 -1.60616 1.11808 0
M  V30 4012 C 369.176 0.981932 3.43646 0
M  V30 4013 C 368.842 2.43822 3.79291 0
M  V30 4014 C 367.504 2.83622 3.88731 0
M  V30 4015 C 369.856 3.3828 3.96505 0
M  V30 4016 C 367.184 4.16897 4.12812 0
M  V30 4017 C 369.536 4.71197 4.22085 0
M  V30 4018 C 368.2 5.10758 4.29747 0
M  V30 4019 H 367.47 0.236834 0.702133 0
M  V30 4020 H 370.117 1.23268 1.46551 0
M  V30 4021 H 368.422 0.314365 3.90537 0
M  V30 4022 H 370.119 0.703395 3.94783 0
M  V30 4023 H 366.709 2.11966 3.72516 0
M  V30 4024 H 370.893 3.0871 3.88603 0
M  V30 4025 H 366.149 4.47157 4.16966 0
M  V30 4026 H 370.323 5.44348 4.34348 0
M  V30 4027 H 367.95 6.1405 4.48159 0
M  V30 4028 N 369.525 -1.3858 0.750561 0
M  V30 4029 C 370.755 -2.04175 0.31564 0
M  V30 4030 C 371.163 -1.56726 -1.05989 0
M  V30 4031 O 370.506 -0.734225 -1.68389 0
M  V30 4032 C 370.568 -3.58585 0.256389 0
M  V30 4033 C 370.232 -4.29077 1.57296 0
M  V30 4034 C 371.229 -4.54656 2.52159 0
M  V30 4035 C 368.914 -4.67324 1.84156 0
M  V30 4036 C 370.908 -5.17512 3.72103 0
M  V30 4037 C 368.595 -5.29905 3.04374 0
M  V30 4038 C 369.593 -5.54933 3.98168 0
M  V30 4039 O 369.281 -6.16212 5.16273 0
M  V30 4040 H 369.013 -0.662742 0.133226 0
M  V30 4041 H 371.567 -1.78313 1.01948 0
M  V30 4042 H 369.797 -3.83406 -0.503677 0
M  V30 4043 H 371.486 -4.05628 -0.148612 0
M  V30 4044 H 372.252 -4.25539 2.32683 0
M  V30 4045 H 368.131 -4.47191 1.11988 0
M  V30 4046 H 371.675 -5.36963 4.45327 0
M  V30 4047 H 367.572 -5.58444 3.23745 0
M  V30 4048 H 368.34 -6.34701 5.16815 0
M  V30 4049 N 371.003 -0.499398 -1.49478 0
M  V30 4050 C 372.233 0.0424839 -2.06556 0
M  V30 4051 C 372.641 1.31514 -1.36018 0
M  V30 4052 O 371.984 1.78555 -0.431718 0
M  V30 4053 C 372.046 0.368074 -3.57611 0
M  V30 4054 C 371.71 -0.806631 -4.49825 0
M  V30 4055 C 372.707 -1.69667 -4.91436 0
M  V30 4056 C 370.392 -1.00498 -4.92144 0
M  V30 4057 C 372.386 -2.76923 -5.74101 0
M  V30 4058 C 370.073 -2.08072 -5.74586 0
M  V30 4059 C 371.071 -2.96119 -6.15469 0
M  V30 4060 O 370.759 -4.01836 -6.96264 0
M  V30 4061 H 370.491 -0.0165165 -0.675798 0
M  V30 4062 H 373.045 -0.695497 -1.93267 0
M  V30 4063 H 371.275 1.15963 -3.68903 0
M  V30 4064 H 372.964 0.848381 -3.96935 0
M  V30 4065 H 373.73 -1.55524 -4.59388 0
M  V30 4066 H 369.609 -0.329036 -4.59824 0
M  V30 4067 H 373.153 -3.45676 -6.05932 0
M  V30 4068 H 369.05 -2.22211 -6.06047 0
M  V30 4069 H 369.818 -3.9917 -7.14567 0
M  V30 4070 N 372.481 1.55866 -0.233164 0
M  V30 4071 C 373.758 1.90471 0.444988 0
M  V30 4072 C 374.138 1.15209 1.7689 0
M  V30 4073 O 373.486 0.265119 2.26957 0
M  V30 4074 C 373.696 3.4333 0.626559 0
M  V30 4075 C 375.044 4.14319 0.92871 0
M  V30 4076 O 376.068 3.48993 0.712926 0
M  V30 4077 O 374.927 5.29846 1.33887 0
M  V30 4078 H 372.021 0.792347 0.236885 0
M  V30 4079 H 374.567 1.67437 -0.276211 0
M  V30 4080 H 373.339 3.90095 -0.306822 0
M  V30 4081 H 372.962 3.72181 1.39881 0
M  V30 4082 N 373.959 -0.0401083 1.57549 0
M  V30 4083 C 374.869 -1.06133 2.0922 0
M  V30 4084 C 375.885 -1.40356 1.0284 0
M  V30 4085 O 377.061 -1.49897 1.34509 0
M  V30 4086 C 374.126 -2.34658 2.55218 0
M  V30 4087 C 373.187 -2.07117 3.76033 0
M  V30 4088 C 372.42 -3.29514 4.19829 0
M  V30 4089 O 372.643 -4.39794 3.63232 0
M  V30 4090 O 371.577 -3.15863 5.12362 0
M  V30 4091 H 375.403 -0.652244 2.96613 0
M  V30 4092 H 372.988 -0.256368 1.47184 0
M  V30 4093 H 374.87 -3.10239 2.85184 0
M  V30 4094 H 373.545 -2.74883 1.70941 0
M  V30 4095 H 372.452 -1.29139 3.51104 0
M  V30 4096 H 373.785 -1.71754 4.61261 0
M  V30 4097 N 375.437 -1.54477 -0.31217 0
M  V30 4098 C 376.384 -1.84655 -1.38461 0
M  V30 4099 C 377.354 -0.694536 -1.50882 0
M  V30 4100 O 378.539 -0.942081 -1.6592 0
M  V30 4101 C 375.679 -2.0896 -2.74645 0
M  V30 4102 C 374.792 -3.36618 -2.70763 0
M  V30 4103 C 373.927 -3.50824 -3.98868 0
M  V30 4104 C 372.966 -4.72315 -3.89339 0
M  V30 4105 N 372.103 -4.83387 -5.09197 0
M  V30 4106 H 376.943 -2.76142 -1.12026 0
M  V30 4107 H 374.48 -1.36748 -0.542065 0
M  V30 4108 H 376.438 -2.21045 -3.53829 0
M  V30 4109 H 375.068 -1.20752 -2.99364 0
M  V30 4110 H 374.12 -3.33211 -1.83506 0
M  V30 4111 H 375.432 -4.25917 -2.59608 0
M  V30 4112 H 374.586 -3.62513 -4.86486 0
M  V30 4113 H 373.325 -2.59638 -4.12843 0
M  V30 4114 H 372.33 -4.6067 -3.00105 0
M  V30 4115 H 373.555 -5.64897 -3.76919 0
M  V30 4116 H 371.501 -3.9512 -5.23657 0
M  V30 4117 H 371.418 -5.66669 -5.00422 0
M  V30 4118 H 372.686 -4.9942 -5.98498 0
M  V30 4119 N 376.915 0.57481 -1.46744 0
M  V30 4120 C 377.825 1.711 -1.60505 0
M  V30 4121 C 378.841 1.67008 -0.488307 0
M  V30 4122 O 380.017 1.86774 -0.753495 0
M  V30 4123 C 377.082 3.07608 -1.59932 0
M  V30 4124 C 376.143 3.22904 -2.82898 0
M  V30 4125 C 375.376 4.529 -2.82343 0
M  V30 4126 O 375.599 5.37278 -1.91542 0
M  V30 4127 O 374.533 4.71611 -3.73987 0
M  V30 4128 H 378.359 1.62436 -2.56609 0
M  V30 4129 H 375.944 0.742779 -1.29627 0
M  V30 4130 H 377.826 3.88877 -1.62336 0
M  V30 4131 H 376.501 3.16692 -0.669898 0
M  V30 4132 H 375.408 2.41099 -2.86046 0
M  V30 4133 H 376.741 3.18715 -3.75076 0
M  V30 4134 N 378.394 1.34581 0.820102 0
M  V30 4135 C 379.643 1.26437 1.57151 0
M  V30 4136 C 379.956 -0.163111 1.94919 0
M  V30 4137 O 381.162 -0.366722 2.69012 0
M  V30 4138 C 379.618 2.21658 2.83541 0
M  V30 4139 C 379.226 3.69679 2.53065 0
M  V30 4140 C 380.97 2.22428 3.61561 0
M  V30 4141 C 378.877 4.56761 3.75664 0
M  V30 4142 H 377.807 0.469707 0.589823 0
M  V30 4143 H 380.458 1.59763 0.902656 0
M  V30 4144 H 378.84 1.81287 3.52067 0
M  V30 4145 H 380.014 4.18605 1.92631 0
M  V30 4146 H 378.329 3.71384 1.88316 0
M  V30 4147 H 380.926 2.8471 4.52597 0
M  V30 4148 H 381.269 1.22434 3.97889 0
M  V30 4149 H 381.802 2.61259 2.99981 0
M  V30 4150 H 378.541 5.57702 3.44454 0
M  V30 4151 H 378.061 4.12568 4.35371 0
M  V30 4152 H 379.74 4.71509 4.43044 0
M  V30 4153 N 379.872 -1.04064 1.18357 0
M  V30 4154 C 380.782 -2.15569 0.925596 0
M  V30 4155 C 381.798 -1.7365 -0.110295 0
M  V30 4156 O 382.974 -2.01273 0.0716218 0
M  V30 4157 C 380.039 -3.43704 0.454836 0
M  V30 4158 C 379.1 -4.00004 1.55869 0
M  V30 4159 C 378.333 -5.22023 1.1103 0
M  V30 4160 O 378.556 -5.70392 -0.0309756 0
M  V30 4161 O 377.49 -5.70856 1.90805 0
M  V30 4162 H 381.316 -2.40187 1.8586 0
M  V30 4163 H 378.901 -1.1402 0.965394 0
M  V30 4164 H 380.783 -4.20923 0.200382 0
M  V30 4165 H 379.458 -3.20559 -0.449876 0
M  V30 4166 H 378.365 -3.24172 1.86716 0
M  V30 4167 H 379.698 -4.2749 2.43953 0
M  V30 4168 N 381.35 -0.985608 -1.22978 0
M  V30 4169 C 382.766 -0.695104 -1.43668 0
M  V30 4170 C 382.966 0.736866 -1.87543 0
M  V30 4171 O 382.022 1.50868 -2.02473 0
M  V30 4172 C 383.335 -1.69447 -2.48412 0
M  V30 4173 C 384.883 -1.70909 -2.62219 0
M  V30 4174 C 385.358 -2.6969 -3.70178 0
M  V30 4175 N 386.849 -2.6824 -3.77626 0
M  V30 4176 C 387.584 -3.41339 -4.60733 0
M  V30 4177 N 387.08 -4.24015 -5.4789 0
M  V30 4178 N 388.873 -3.30079 -4.54977 0
M  V30 4179 H 381.024 -1.91054 -0.928016 0
M  V30 4180 H 383.287 -0.823553 -0.469536 0
M  V30 4181 H 382.993 -2.7188 -2.23102 0
M  V30 4182 H 382.867 -1.48147 -3.46889 0
M  V30 4183 H 385.254 -0.691785 -2.86877 0
M  V30 4184 H 385.335 -1.96276 -1.6404 0
M  V30 4185 H 384.979 -3.71566 -3.46268 0
M  V30 4186 H 384.909 -2.41595 -4.67909 0
M  V30 4187 H 387.4 -2.08243 -3.15346 0
M  V30 4188 H 387.713 -4.76636 -6.08308 0
M  V30 4189 H 386.058 -4.28104 -5.47496 0
M  V30 4190 H 389.249 -2.64937 -3.85909 0
M  V30 4191 H 389.422 -3.87308 -5.19516 0
M  V30 4192 N 382.828 1.3818 -0.7579 0
M  V30 4193 C 383.738 2.3421 -0.135247 0
M  V30 4194 C 384.754 1.59487 0.695683 0
M  V30 4195 O 385.93 1.91657 0.618832 0
M  V30 4196 C 382.995 3.3862 0.744139 0
M  V30 4197 C 382.056 4.2918 -0.101658 0
M  V30 4198 C 381.289 5.28603 0.735851 0
M  V30 4199 O 381.512 5.35166 1.97366 0
M  V30 4200 O 380.446 6.01707 0.152372 0
M  V30 4201 H 384.272 2.8916 -0.928436 0
M  V30 4202 H 381.857 1.40101 -0.518855 0
M  V30 4203 H 383.739 4.02539 1.2466 0
M  V30 4204 H 382.414 2.86019 1.51575 0
M  V30 4205 H 381.321 3.68407 -0.650167 0
M  V30 4206 H 382.654 4.85048 -0.836024 0
M  V30 4207 N 384.306 0.507319 1.49211 0
M  V30 4208 C 385.722 0.163682 1.58758 0
M  V30 4209 C 385.922 -1.33208 1.51188 0
M  V30 4210 O 384.978 -2.10855 1.38911 0
M  V30 4211 C 386.291 0.746095 2.91297 0
M  V30 4212 C 387.839 0.712773 3.04776 0
M  V30 4213 C 388.314 1.27336 4.39943 0
M  V30 4214 N 389.805 1.23433 4.46451 0
M  V30 4215 C 390.54 1.63821 5.495 0
M  V30 4216 N 390.036 2.11832 6.5962 0
M  V30 4217 N 391.829 1.55198 5.4025 0
M  V30 4218 H 383.98 1.47972 1.52375 0
M  V30 4219 H 386.243 0.614147 0.722168 0
M  V30 4220 H 385.949 1.79534 3.02424 0
M  V30 4221 H 385.823 0.210137 3.76614 0
M  V30 4222 H 388.21 -0.327656 2.93275 0
M  V30 4223 H 388.291 1.28595 2.21127 0
M  V30 4224 H 387.935 2.3126 4.52196 0
M  V30 4225 H 387.865 0.676066 5.22242 0
M  V30 4226 H 390.356 0.882627 3.67448 0
M  V30 4227 H 390.669 2.40703 7.34358 0
M  V30 4228 H 389.014 2.1581 6.60644 0
M  V30 4229 H 392.205 1.17505 4.53112 0
M  V30 4230 H 392.378 1.86997 6.20432 0
M  V30 4231 N 385.784 -1.5574 0.241426 0
M  V30 4232 C 386.694 -2.2479 -0.671305 0
M  V30 4233 C 387.71 -1.26217 -1.19772 0
M  V30 4234 O 388.886 -1.59079 -1.23514 0
M  V30 4235 C 385.951 -2.92966 -1.85396 0
M  V30 4236 C 385.012 -4.06935 -1.36756 0
M  V30 4237 C 384.245 -4.71851 -2.49384 0
M  V30 4238 O 384.468 -4.35823 -3.67987 0
M  V30 4239 O 383.402 -5.60467 -2.19454 0
M  V30 4240 H 387.228 -3.0349 -0.112966 0
M  V30 4241 H 384.813 -1.49397 0.0101513 0
M  V30 4242 H 386.695 -3.35927 -2.54423 0
M  V30 4243 H 385.37 -2.17211 -2.40002 0
M  V30 4244 H 384.277 -3.68503 -0.644726 0
M  V30 4245 H 385.61 -4.84492 -0.867647 0
M  V30 4246 N 387.262 0.0317525 -1.57568 0
M  V30 4247 C 388.172 1.05021 -2.0978 0
M  V30 4248 C 389.188 1.39809 -1.03583 0
M  V30 4249 O 390.364 1.49182 -1.35302 0
M  V30 4250 C 387.429 2.33301 -2.56459 0
M  V30 4251 C 386.49 2.0512 -3.77127 0
M  V30 4252 C 385.723 3.27283 -4.2157 0
M  V30 4253 O 385.946 4.37861 -3.65559 0
M  V30 4254 O 384.88 3.13141 -5.14029 0
M  V30 4255 H 388.706 0.636505 -2.96955 0
M  V30 4256 H 386.291 0.248559 -1.47318 0
M  V30 4257 H 388.173 3.08722 -2.86825 0
M  V30 4258 H 386.848 2.73973 -1.72397 0
M  V30 4259 H 385.755 1.27276 -3.51784 0
M  V30 4260 H 387.088 1.69305 -4.62165 0
M  V30 4261 N 388.74 1.54641 0.303973 0
M  V30 4262 C 389.673 1.80263 1.3993 0
M  V30 4263 C 390.651 0.653657 1.48883 0
M  V30 4264 O 391.835 0.893284 1.6599 0
M  V30 4265 C 388.962 1.9367 2.77866 0
M  V30 4266 C 388.008 3.16078 2.86351 0
M  V30 4267 S 388.841 4.74219 2.4875 0
M  V30 4268 C 389.997 4.90558 3.88721 0
M  V30 4269 H 390.23 2.72886 1.17986 0
M  V30 4270 H 387.763 1.46014 0.501918 0
M  V30 4271 H 389.721 2.0208 3.57315 0
M  V30 4272 H 388.382 1.01991 2.9708 0
M  V30 4273 H 387.575 3.22252 3.87517 0
M  V30 4274 H 387.177 3.06099 2.14893 0
M  V30 4275 H 389.469 4.74398 4.83687 0
M  V30 4276 H 390.412 5.92651 3.87518 0
M  V30 4277 H 390.82 4.18728 3.78585 0
M  V30 4278 N 390.218 -0.567019 1.47046 0
M  V30 4279 C 391.181 -1.65696 1.58359 0
M  V30 4280 C 392.181 -1.54097 0.459441 0
M  V30 4281 O 393.371 -1.58432 0.724225 0
M  V30 4282 C 390.503 -3.05197 1.51879 0
M  V30 4283 H 391.696 -1.57019 2.5551 0
M  V30 4284 H 389.249 -0.786148 1.3509 0
M  V30 4285 H 389.984 -3.19417 0.560673 0
M  V30 4286 H 389.769 -3.15025 2.33455 0
M  V30 4287 H 391.259 -3.84511 1.62913 0
M  V30 4288 N 391.696 -1.35014 -0.812953 0
M  V30 4289 C 393.112 -1.14914 -1.10757 0
M  V30 4290 C 393.312 0.0426818 -2.01455 0
M  V30 4291 O 392.368 0.715212 -2.42159 0
M  V30 4292 C 393.681 -2.44911 -1.74468 0
M  V30 4293 C 395.229 -2.5106 -1.86917 0
M  V30 4294 C 395.704 -3.81085 -2.54044 0
M  V30 4295 N 397.195 -3.82301 -2.61535 0
M  V30 4296 C 397.93 -4.79634 -3.14227 0
M  V30 4297 N 397.426 -5.87353 -3.67407 0
M  V30 4298 N 399.219 -4.67078 -3.12721 0
M  V30 4299 H 391.37 -2.1136 -0.20989 0
M  V30 4300 H 393.633 -0.935128 -0.155692 0
M  V30 4301 H 393.339 -3.32267 -1.15289 0
M  V30 4302 H 393.213 -2.58989 -2.74234 0
M  V30 4303 H 395.6 -1.64137 -2.45241 0
M  V30 4304 H 395.681 -2.40901 -0.860242 0
M  V30 4305 H 395.325 -4.68402 -1.96372 0
M  V30 4306 H 395.255 -3.88529 -3.55461 0
M  V30 4307 H 397.746 -3.04465 -2.23851 0
M  V30 4308 H 398.059 -6.57624 -4.05894 0
M  V30 4309 H 396.404 -5.91054 -3.65623 0
M  V30 4310 H 399.595 -3.82067 -2.70449 0
M  V30 4311 H 399.768 -5.43098 -3.53481 0
M  V30 4312 N 393.175 1.03435 -1.18907 0
M  V30 4313 C 394.105 2.13503 -0.945448 0
M  V30 4314 C 395.086 1.69682 0.119189 0
M  V30 4315 O 396.271 1.94169 -0.034707 0
M  V30 4316 C 393.401 3.44004 -0.477316 0
M  V30 4317 C 392.355 4.0148 -1.48316 0
M  V30 4318 C 391.681 5.27537 -0.872311 0
M  V30 4319 C 392.981 4.36921 -2.86177 0
M  V30 4320 H 394.675 2.34141 -1.86597 0
M  V30 4321 H 392.221 1.12523 -0.898584 0
M  V30 4322 H 394.174 4.20372 -0.294204 0
M  V30 4323 H 392.898 3.23072 0.478786 0
M  V30 4324 H 391.557 3.27201 -1.65332 0
M  V30 4325 H 391.205 5.02917 0.0911752 0
M  V30 4326 H 390.905 5.66954 -1.54393 0
M  V30 4327 H 392.429 6.06576 -0.699871 0
M  V30 4328 H 393.843 5.04248 -2.72776 0
M  V30 4329 H 392.24 4.87405 -3.50081 0
M  V30 4330 H 393.31 3.46466 -3.39248 0
M  V30 4331 N 394.653 0.992116 1.22453 0
M  V30 4332 C 395.583 0.561677 2.26644 0
M  V30 4333 C 396.564 -0.411055 1.65059 0
M  V30 4334 O 397.749 -0.301861 1.9184 0
M  V30 4335 C 394.879 -0.125247 3.47074 0
M  V30 4336 C 393.833 0.765948 4.21091 0
M  V30 4337 C 393.159 -0.0538484 5.34673 0
M  V30 4338 C 394.459 2.06242 4.79856 0
M  V30 4339 H 396.153 1.43259 2.62902 0
M  V30 4340 H 393.699 0.690283 1.26377 0
M  V30 4341 H 395.652 -0.437764 4.1912 0
M  V30 4342 H 394.376 -1.03069 3.0991 0
M  V30 4343 H 393.035 1.0621 3.50878 0
M  V30 4344 H 392.683 -0.960188 4.9375 0
M  V30 4345 H 392.383 0.539415 5.85119 0
M  V30 4346 H 393.907 -0.360477 6.09535 0
M  V30 4347 H 395.321 1.8139 5.43848 0
M  V30 4348 H 393.718 2.60444 5.40638 0
M  V30 4349 H 394.788 2.74167 3.99951 0
M  V30 4350 N 396.131 -1.37776 0.765217 0
M  V30 4351 C 397.356 -2.04651 0.336537 0
M  V30 4352 C 397.781 -1.57337 -1.03086 0
M  V30 4353 O 397.139 -0.730621 -1.65927 0
M  V30 4354 C 397.187 -3.58577 0.381468 0
M  V30 4355 O 396.291 -4.07706 -0.62042 0
M  V30 4356 H 395.632 -0.64756 0.146838 0
M  V30 4357 H 398.162 -1.76221 1.03959 0
M  V30 4358 H 398.172 -4.07314 0.236448 0
M  V30 4359 H 396.847 -3.9237 1.37907 0
M  V30 4360 H 395.424 -3.70306 -0.439056 0
M  V30 4361 N 397.609 -0.515225 -1.4894 0
M  V30 4362 C 398.886 0.0879088 -1.95402 0
M  V30 4363 C 399.266 1.52745 -1.45712 0
M  V30 4364 O 398.614 2.18238 -0.677093 0
M  V30 4365 C 398.824 -0.0141055 -3.48997 0
M  V30 4366 C 400.172 0.152646 -4.24326 0
M  V30 4367 O 401.196 0.0604025 -3.56149 0
M  V30 4368 O 400.055 0.34384 -5.45417 0
M  V30 4369 H 397.149 0.0874636 -0.822362 0
M  V30 4370 H 399.695 -0.578775 -1.59525 0
M  V30 4371 H 398.467 -1.01745 -3.77841 0
M  V30 4372 H 398.09 0.692091 -3.9153 0
M  V30 4373 N 399.087 1.5561 -0.249682 0
M  V30 4374 C 400.034 2.21496 0.648694 0
M  V30 4375 C 401.004 1.17977 1.16921 0
M  V30 4376 O 402.189 1.46434 1.22318 0
M  V30 4377 C 399.329 2.92039 1.83868 0
M  V30 4378 C 398.442 4.10219 1.35442 0
M  V30 4379 C 397.577 4.6847 2.50419 0
M  V30 4380 C 396.616 5.78893 1.98869 0
M  V30 4381 N 395.753 6.31315 3.07223 0
M  V30 4382 H 400.593 2.97892 0.0801582 0
M  V30 4383 H 398.13 1.47074 0.0278031 0
M  V30 4384 H 400.088 3.31138 2.53778 0
M  V30 4385 H 398.718 2.18111 2.37965 0
M  V30 4386 H 397.77 3.76413 0.54928 0
M  V30 4387 H 399.082 4.89927 0.936649 0
M  V30 4388 H 398.236 5.10158 3.28366 0
M  V30 4389 H 396.975 3.87984 2.95499 0
M  V30 4390 H 395.98 5.3668 1.19393 0
M  V30 4391 H 397.205 6.61232 1.54755 0
M  V30 4392 H 395.151 5.53733 3.51732 0
M  V30 4393 H 395.068 7.06224 2.69784 0
M  V30 4394 H 396.336 6.77662 3.8522 0
M  V30 4395 N 400.565 -0.0233959 1.57583 0
M  V30 4396 C 401.512 -1.02224 2.06927 0
M  V30 4397 C 402.482 -1.35575 0.959617 0
M  V30 4398 O 403.667 -1.45815 1.23055 0
M  V30 4399 C 400.807 -2.31636 2.5581 0
M  V30 4400 C 399.92 -2.04394 3.80588 0
M  V30 4401 C 399.055 -3.27717 4.18061 0
M  V30 4402 C 398.094 -2.96056 5.3574 0
M  V30 4403 N 397.231 -4.11847 5.68618 0
M  V30 4404 H 402.071 -0.594504 2.9201 0
M  V30 4405 H 399.608 -0.281921 1.44373 0
M  V30 4406 H 401.566 -3.07258 2.82221 0
M  V30 4407 H 400.196 -2.72122 1.73636 0
M  V30 4408 H 399.248 -1.19244 3.61227 0
M  V30 4409 H 400.56 -1.77042 4.66323 0
M  V30 4410 H 399.714 -4.11702 4.4563 0
M  V30 4411 H 398.453 -3.58188 3.30988 0
M  V30 4412 H 397.458 -2.10474 5.07918 0
M  V30 4413 H 398.683 -2.66857 6.24471 0
M  V30 4414 H 396.629 -4.42258 4.84504 0
M  V30 4415 H 396.546 -3.87938 6.48876 0
M  V30 4416 H 397.814 -4.96689 6.00766 0
M  V30 4417 N 402.043 -1.548 -0.295768 0
M  V30 4418 C 402.975 -1.82492 -1.3867 0
M  V30 4419 C 403.988 -0.708134 -1.46592 0
M  V30 4420 O 405.177 -0.985686 -1.48817 0
M  V30 4421 C 402.277 -1.95256 -2.76999 0
M  V30 4422 C 401.45 -3.25709 -2.91946 0
M  V30 4423 C 400.509 -3.28824 -4.10806 0
M  V30 4424 O 399.535 -4.02328 -4.02643 0
M  V30 4425 N 400.737 -2.5459 -5.21694 0
M  V30 4426 H 403.502 -2.76646 -1.15269 0
M  V30 4427 H 401.063 -1.54438 -0.485849 0
M  V30 4428 H 403.055 -1.94736 -3.54768 0
M  V30 4429 H 401.625 -1.08072 -2.93324 0
M  V30 4430 H 400.845 -3.38959 -2.01247 0
M  V30 4431 H 402.133 -4.11786 -2.98847 0
M  V30 4432 H 401.531 -1.94512 -5.31208 0
M  V30 4433 H 400.088 -2.59818 -5.97778 0
M  V30 4434 N 403.521 0.559213 -1.47345 0
M  V30 4435 C 404.453 1.68161 -1.55738 0
M  V30 4436 C 405.466 1.56636 -0.443744 0
M  V30 4437 O 406.655 1.6363 -0.713258 0
M  V30 4438 C 403.755 3.06611 -1.4437 0
M  V30 4439 C 402.928 3.4391 -2.70268 0
M  V30 4440 C 401.987 4.61515 -2.52765 0
M  V30 4441 O 401.013 4.66197 -3.26572 0
M  V30 4442 N 402.215 5.57883 -1.6046 0
M  V30 4443 H 404.98 1.61408 -2.52522 0
M  V30 4444 H 402.541 0.7458 -1.43699 0
M  V30 4445 H 404.533 3.83117 -1.30398 0
M  V30 4446 H 403.103 3.07602 -0.556766 0
M  V30 4447 H 402.323 2.56873 -2.99015 0
M  V30 4448 H 403.611 3.65605 -3.53851 0
M  V30 4449 H 403.009 5.56855 -0.996422 0
M  V30 4450 H 401.566 6.33723 -1.52441 0
M  V30 4451 N 404.999 1.35443 0.805782 0
M  V30 4452 C 406.229 1.31687 1.59192 0
M  V30 4453 C 406.637 -0.10756 1.88894 0
M  V30 4454 O 405.98 -1.07017 1.49309 0
M  V30 4455 C 406.042 2.05686 2.94845 0
M  V30 4456 C 405.706 3.54868 2.87954 0
M  V30 4457 C 406.703 4.49444 2.61335 0
M  V30 4458 C 404.388 3.97528 3.07046 0
M  V30 4459 C 406.382 5.84655 2.53885 0
M  V30 4460 C 404.069 5.32833 2.99219 0
M  V30 4461 C 405.067 6.26209 2.72674 0
M  V30 4462 O 404.755 7.59032 2.64811 0
M  V30 4463 H 404.487 0.453878 0.50097 0
M  V30 4464 H 407.041 1.78892 1.0093 0
M  V30 4465 H 405.271 1.5312 3.55093 0
M  V30 4466 H 406.96 1.94998 3.55993 0
M  V30 4467 H 407.726 4.17804 2.46303 0
M  V30 4468 H 403.605 3.25233 3.26718 0
M  V30 4469 H 407.149 6.57508 2.33086 0
M  V30 4470 H 403.046 5.64087 3.13809 0
M  V30 4471 H 403.814 7.68967 2.80413 0
M  V30 4472 N 406.477 -1.02803 1.19454 0
M  V30 4473 C 407.409 -2.11181 0.890807 0
M  V30 4474 C 408.422 -1.6238 -0.116829 0
M  V30 4475 O 409.611 -1.78144 0.112694 0
M  V30 4476 C 406.711 -3.37461 0.311942 0
M  V30 4477 C 405.884 -4.15446 1.36834 0
M  V30 4478 C 404.943 -5.20039 0.802864 0
M  V30 4479 O 403.969 -5.49602 1.48077 0
M  V30 4480 N 405.171 -5.79165 -0.393417 0
M  V30 4481 H 407.936 -2.37827 1.82369 0
M  V30 4482 H 405.497 -1.19101 1.09666 0
M  V30 4483 H 407.489 -4.0462 -0.0802225 0
M  V30 4484 H 406.059 -3.08156 -0.52524 0
M  V30 4485 H 405.279 -3.43423 1.93531 0
M  V30 4486 H 406.567 -4.64335 2.08015 0
M  V30 4487 H 405.965 -5.57466 -0.961658 0
M  V30 4488 H 404.522 -6.47729 -0.727351 0
M  V30 4489 N 407.956 -0.998596 -1.21925 0
M  V30 4490 C 409.184 -0.696286 -1.94832 0
M  V30 4491 C 409.599 0.740032 -1.73692 0
M  V30 4492 O 408.956 1.5 -1.03953 0
M  V30 4493 C 409.007 -0.999833 -3.47398 0
M  V30 4494 O 408.728 -2.37972 -3.67833 0
M  V30 4495 C 410.229 -0.716025 -4.37479 0
M  V30 4496 H 407.449 -0.257111 -0.619786 0
M  V30 4497 H 409.993 -1.33491 -1.54921 0
M  V30 4498 H 408.148 -0.406918 -3.85257 0
M  V30 4499 H 408.562 -2.48338 -4.61983 0
M  V30 4500 H 410.036 -0.978642 -5.43256 0
M  V30 4501 H 410.513 0.349968 -4.37803 0
M  V30 4502 H 411.119 -1.29025 -4.05256 0
M  V30 4503 N 409.434 1.37368 -0.772513 0
M  V30 4504 C 410.659 2.0447 -0.347386 0
M  V30 4505 C 411.084 1.57882 1.0225 0
M  V30 4506 O 410.442 0.73941 1.65537 0
M  V30 4507 C 410.49 3.58369 -0.400479 0
M  V30 4508 O 409.594 4.0803 0.598789 0
M  V30 4509 H 408.935 0.646773 -0.15027 0
M  V30 4510 H 411.465 1.75667 -1.04892 0
M  V30 4511 H 411.475 4.07183 -0.258045 0
M  V30 4512 H 410.15 3.91633 -1.39986 0
M  V30 4513 H 408.727 3.70534 0.419411 0
M  V30 4514 N 410.912 0.523116 1.48665 0
M  V30 4515 C 412.152 -0.0115588 2.04397 0
M  V30 4516 C 412.516 -1.32225 1.39214 0
M  V30 4517 O 413.717 -1.94253 1.85793 0
M  V30 4518 C 411.988 -0.138119 3.57133 0
M  V30 4519 S 413.547 -0.623849 4.34343 0
M  V30 4520 H 410.365 0.00877706 0.710946 0
M  V30 4521 H 412.967 0.702116 1.82457 0
M  V30 4522 H 411.671 0.820748 4.02109 0
M  V30 4523 H 411.202 -0.876377 3.83514 0
M  V30 4524 H 413.217 -1.8895 4.58816 0
M  V30 4525 N 412.39 -1.55475 0.257931 0
M  V30 4526 C 413.636 -1.99502 -0.364266 0
M  V30 4527 C 413.969 -1.146 -1.56782 0
M  V30 4528 O 413.244 -0.211968 -1.93342 0
M  V30 4529 C 413.527 -3.51917 -0.763333 0
M  V30 4530 C 413.38 -4.4758 0.446371 0
M  V30 4531 C 414.699 -4.09742 -1.60623 0
M  V30 4532 H 411.818 -0.725277 -0.130929 0
M  V30 4533 H 414.46 -1.8653 0.361446 0
M  V30 4534 H 412.61 -3.63101 -1.38166 0
M  V30 4535 H 414.282 -4.48362 1.08487 0
M  V30 4536 H 412.525 -4.19947 1.08753 0
M  V30 4537 H 413.196 -5.51862 0.123645 0
M  V30 4538 H 415.672 -4.01727 -1.08418 0
M  V30 4539 H 414.548 -5.16631 -1.85429 0
M  V30 4540 H 414.809 -3.58889 -2.58169 0
M  V30 4541 N 413.868 0.0150385 -1.57593 0
M  V30 4542 C 414.831 0.995996 -2.06428 0
M  V30 4543 C 415.831 1.2818 -0.970903 0
M  V30 4544 O 417.021 1.22949 -1.23406 0
M  V30 4545 C 414.153 2.32506 -2.49307 0
M  V30 4546 H 415.346 0.573873 -2.94358 0
M  V30 4547 H 412.899 0.262186 -1.54085 0
M  V30 4548 H 413.634 2.79438 -1.64575 0
M  V30 4549 H 413.419 2.13087 -3.29145 0
M  V30 4550 H 414.909 3.02906 -2.87468 0
M  V30 4551 N 415.346 1.54954 0.287554 0
M  V30 4552 C 416.276 1.89839 1.35954 0
M  V30 4553 C 417.257 0.758675 1.52244 0
M  V30 4554 O 418.442 1.01557 1.65529 0
M  V30 4555 C 415.572 2.15753 2.72154 0
M  V30 4556 C 414.526 3.3159 2.70614 0
M  V30 4557 C 413.852 3.42952 4.10229 0
M  V30 4558 C 415.152 4.68359 2.31165 0
M  V30 4559 H 416.846 2.79625 1.07007 0
M  V30 4560 H 414.392 1.3454 0.513316 0
M  V30 4561 H 416.345 2.38743 3.47246 0
M  V30 4562 H 415.069 1.22752 3.02654 0
M  V30 4563 H 413.728 3.08545 1.97979 0
M  V30 4564 H 413.376 2.47443 4.37928 0
M  V30 4565 H 413.076 4.20826 4.10097 0
M  V30 4566 H 414.6 3.68218 4.87081 0
M  V30 4567 H 416.014 4.9099 2.95976 0
M  V30 4568 H 414.411 5.49044 2.42221 0
M  V30 4569 H 415.481 4.68165 1.26291 0
M  V30 4570 N 416.824 -0.551391 1.4764 0
M  V30 4571 C 417.771 -1.65796 1.60563 0
M  V30 4572 C 418.741 -1.59932 0.448428 0
M  V30 4573 O 419.926 -1.78679 0.669222 0
M  V30 4574 C 417.066 -3.04108 1.63133 0
M  V30 4575 C 416.179 -3.20365 2.89811 0
M  V30 4576 C 415.314 -4.49109 2.8368 0
M  V30 4577 C 414.353 -4.58819 4.05156 0
M  V30 4578 N 413.49 -5.78926 3.97227 0
M  V30 4579 H 418.33 -1.54088 2.5507 0
M  V30 4580 H 415.867 -0.75052 1.26513 0
M  V30 4581 H 417.825 -3.84207 1.62606 0
M  V30 4582 H 416.455 -3.14637 0.721341 0
M  V30 4583 H 415.507 -2.33659 3.00179 0
M  V30 4584 H 416.819 -3.23402 3.79753 0
M  V30 4585 H 415.973 -5.37475 2.81434 0
M  V30 4586 H 414.712 -4.4856 1.91431 0
M  V30 4587 H 413.717 -3.68864 4.077 0
M  V30 4588 H 414.942 -4.61124 4.98539 0
M  V30 4589 H 412.888 -5.79314 3.07785 0
M  V30 4590 H 412.805 -5.83367 4.80853 0
M  V30 4591 H 414.073 -6.69637 3.99007 0
M  V30 4592 N 418.302 -1.35869 -0.798587 0
M  V30 4593 C 419.249 -1.29446 -1.91082 0
M  V30 4594 C 420.219 -0.16487 -1.6528 0
M  V30 4595 O 421.404 -0.349888 -1.87564 0
M  V30 4596 C 418.544 -1.0804 -3.27752 0
M  V30 4597 C 417.657 -2.29993 -3.65687 0
M  V30 4598 C 416.792 -2.01673 -4.91428 0
M  V30 4599 C 415.831 -3.19636 -5.22015 0
M  V30 4600 N 414.968 -2.91039 -6.38937 0
M  V30 4601 H 419.808 -2.24553 -1.95907 0
M  V30 4602 H 417.345 -1.11615 -0.958148 0
M  V30 4603 H 419.303 -0.936586 -4.06551 0
M  V30 4604 H 417.933 -0.16592 -3.22373 0
M  V30 4605 H 416.985 -2.55211 -2.82085 0
M  V30 4606 H 418.297 -3.18052 -3.84245 0
M  V30 4607 H 417.451 -1.84168 -5.78072 0
M  V30 4608 H 416.19 -1.10911 -4.74921 0
M  V30 4609 H 415.195 -3.37709 -4.33858 0
M  V30 4610 H 416.42 -4.11211 -5.40447 0
M  V30 4611 H 414.366 -2.0288 -6.2384 0
M  V30 4612 H 414.283 -3.72635 -6.57784 0
M  V30 4613 H 415.551 -2.77093 -7.28587 0
M  V30 4614 N 419.78 1.02168 -1.19998 0
M  V30 4615 C 421.028 1.75338 -1.00504 0
M  V30 4616 C 421.349 1.89387 0.464506 0
M  V30 4617 O 420.619 1.43268 1.33608 0
M  V30 4618 H 419.199 0.649564 -0.368885 0
M  V30 4619 H 421.861 1.23205 -1.51018 0
M  V30 4620 H 420.957 2.75892 -1.45912 0
M  V30 4621 N 421.258 1.00505 1.21394 0
M  V30 4622 C 422.483 0.706367 1.95001 0
M  V30 4623 C 422.908 -0.72463 1.73582 0
M  V30 4624 O 422.266 -1.49702 1.0227 0
M  V30 4625 C 422.314 1.03299 3.45487 0
M  V30 4626 O 421.418 0.138275 4.12168 0
M  V30 4627 H 420.759 0.263175 0.609619 0
M  V30 4628 H 423.289 1.34531 1.54151 0
M  V30 4629 H 423.299 0.979872 3.96059 0
M  V30 4630 H 421.974 2.07567 3.60401 0
M  V30 4631 H 420.551 0.247928 3.72075 0
M  V30 4632 N 422.737 -1.36956 0.779787 0
M  V30 4633 C 423.962 -2.04283 0.358224 0
M  V30 4634 C 424.387 -1.58422 -1.01411 0
M  V30 4635 O 423.745 -0.748179 -1.65142 0
M  V30 4636 C 423.793 -3.58152 0.419479 0
M  V30 4637 O 422.897 -4.08342 -0.577142 0
M  V30 4638 H 422.238 -0.645967 0.153698 0
M  V30 4639 H 424.768 -1.75108 1.05822 0
M  V30 4640 H 424.778 -4.07041 0.279636 0
M  V30 4641 H 423.453 -3.90886 1.42061 0
M  V30 4642 H 422.03 -3.70751 -0.399755 0
M  V30 4643 N 424.215 -0.530993 -1.48385 0
M  V30 4644 C 425.443 -0.00134122 -2.069 0
M  V30 4645 C 425.858 1.2805 -1.3874 0
M  V30 4646 O 425.215 1.76204 -0.475244 0
M  V30 4647 C 425.266 0.225256 -3.60798 0
M  V30 4648 O 424.987 -1.0058 -4.26398 0
M  V30 4649 C 426.488 0.795172 -4.3611 0
M  V30 4650 H 423.708 -0.0339704 -0.67014 0
M  V30 4651 H 426.252 -0.736926 -1.90761 0
M  V30 4652 H 424.407 0.910891 -3.76539 0
M  V30 4653 H 424.821 -0.787165 -5.1856 0
M  V30 4654 H 426.295 0.903143 -5.44562 0
M  V30 4655 H 426.772 1.80031 -4.00606 0
M  V30 4656 H 427.378 0.146069 -4.25049 0
M  V30 4657 N 425.693 1.55336 -0.266172 0
M  V30 4658 C 426.94 1.99397 0.353158 0
M  V30 4659 C 427.268 1.15451 1.56529 0
M  V30 4660 O 426.523 0.209974 1.9457 0
M  V30 4661 C 426.822 3.48606 0.787957 0
M  V30 4662 C 426.488 4.49773 -0.318541 0
M  V30 4663 C 425.15 4.77158 -0.62239 0
M  V30 4664 C 427.502 5.10212 -1.06459 0
M  V30 4665 C 424.83 5.62251 -1.67602 0
M  V30 4666 C 427.182 5.96449 -2.10788 0
M  V30 4667 C 425.846 6.22158 -2.41817 0
M  V30 4668 H 425.116 0.729644 0.12923 0
M  V30 4669 H 427.763 1.87732 -0.37802 0
M  V30 4670 H 426.068 3.57701 1.59866 0
M  V30 4671 H 427.765 3.80098 1.27775 0
M  V30 4672 H 424.355 4.2854 -0.0715925 0
M  V30 4673 H 428.539 4.89086 -0.843098 0
M  V30 4674 H 423.795 5.80419 -1.92155 0
M  V30 4675 H 427.969 6.42317 -2.69076 0
M  V30 4676 H 425.596 6.87888 -3.23596 0
M  V30 4677 N 427.171 -0.0066808 1.57599 0
M  V30 4678 C 428.582 -0.550379 1.78403 0
M  V30 4679 C 428.933 -1.74339 0.900014 0
M  V30 4680 O 428.058 -2.16166 0.100713 0
M  V30 4681 C 428.653 -1.00523 3.23544 0
M  V30 4682 C 427.212 -1.49428 3.45468 0
M  V30 4683 C 426.359 -0.442444 2.73748 0
M  V30 4684 H 429.31 0.219508 1.57175 0
M  V30 4685 H 429.331 -1.87157 3.31289 0
M  V30 4686 H 428.843 -0.136735 3.87859 0
M  V30 4687 H 426.944 -2.3839 2.86358 0
M  V30 4688 H 427.057 -1.52635 4.54136 0
M  V30 4689 H 425.421 -0.902578 2.38171 0
M  V30 4690 H 426.204 0.416973 3.40758 0
M  V30 4691 N 428.649 -1.55105 -0.279332 0
M  V30 4692 C 429.926 -1.66119 -1.03267 0
M  V30 4693 C 430.306 -0.523525 -2.04505 0
M  V30 4694 O 429.654 0.477194 -2.23462 0
M  V30 4695 C 429.864 -3.05067 -1.69515 0
M  V30 4696 C 431.212 -3.62606 -2.20912 0
M  V30 4697 O 432.236 -3.07659 -1.79512 0
M  V30 4698 O 431.095 -4.58861 -2.96831 0
M  V30 4699 H 428.189 -0.674429 -0.478618 0
M  V30 4700 H 430.735 -1.67446 -0.275694 0
M  V30 4701 H 429.507 -3.79311 -0.9612 0
M  V30 4702 H 429.13 -3.07611 -2.51915 0
M  V30 4703 N 430.127 0.543554 -1.4793 0
M  V30 4704 C 431.077 1.64527 -1.57844 0
M  V30 4705 C 432.061 1.54869 -0.436408 0
M  V30 4706 O 433.253 1.63119 -0.687101 0
M  V30 4707 C 430.382 3.03281 -1.6086 0
M  V30 4708 C 429.468 3.18093 -2.80495 0
M  V30 4709 N 429.859 3.02923 -4.05057 0
M  V30 4710 C 428.157 3.49121 -2.77543 0
M  V30 4711 C 428.858 3.20791 -4.85251 0
M  V30 4712 N 427.834 3.47749 -4.17818 0
M  V30 4713 H 431.636 1.51388 -2.5191 0
M  V30 4714 H 429.15 0.748671 -1.44113 0
M  V30 4715 H 431.147 3.82403 -1.66054 0
M  V30 4716 H 429.807 3.17521 -0.678996 0
M  V30 4717 H 430.818 2.79966 -4.35705 0
M  V30 4718 H 427.495 3.69804 -1.93781 0
M  V30 4719 H 428.885 3.13915 -5.9406 0
M  V30 4720 N 431.605 1.3629 0.791371 0
M  V30 4721 C 432.552 1.30458 1.90393 0
M  V30 4722 C 433.522 0.173632 1.6519 0
M  V30 4723 O 434.707 0.35983 1.87376 0
M  V30 4724 C 431.847 1.09777 3.27174 0
M  V30 4725 C 430.96 2.31929 3.64462 0
M  V30 4726 C 430.095 2.04276 4.90352 0
M  V30 4727 C 429.134 3.224 5.20312 0
M  V30 4728 N 428.271 2.94424 6.37385 0
M  V30 4729 H 433.111 2.25589 1.94714 0
M  V30 4730 H 430.648 1.12122 0.952216 0
M  V30 4731 H 432.606 0.958133 4.06049 0
M  V30 4732 H 431.236 0.183014 3.22281 0
M  V30 4733 H 430.288 2.56703 2.80727 0
M  V30 4734 H 431.6 3.20085 3.82553 0
M  V30 4735 H 430.754 1.87231 5.77087 0
M  V30 4736 H 429.493 1.13428 4.74326 0
M  V30 4737 H 428.498 3.40005 4.32061 0
M  V30 4738 H 429.723 4.14071 5.38258 0
M  V30 4739 H 427.669 2.06185 6.22755 0
M  V30 4740 H 427.586 3.76118 6.55798 0
M  V30 4741 H 428.854 2.80953 7.27108 0
M  V30 4742 N 433.083 -1.0153 1.20538 0
M  V30 4743 C 434.329 -1.75408 1.01783 0
M  V30 4744 C 434.662 -1.88943 -0.448814 0
M  V30 4745 O 433.937 -1.4162 -1.33319 0
M  V30 4746 C 434.22 -3.17255 1.70356 0
M  V30 4747 C 434.073 -3.11508 3.24473 0
M  V30 4748 C 435.392 -4.15955 1.43769 0
M  V30 4749 H 432.511 -0.636713 0.371167 0
M  V30 4750 H 435.153 -1.18436 1.4857 0
M  V30 4751 H 433.303 -3.65898 1.30578 0
M  V30 4752 H 434.975 -2.70658 3.73553 0
M  V30 4753 H 433.218 -2.4887 3.55311 0
M  V30 4754 H 433.889 -4.11784 3.67611 0
M  V30 4755 H 436.365 -3.75973 1.7828 0
M  V30 4756 H 435.241 -5.13368 1.94279 0
M  V30 4757 H 435.502 -4.40586 0.365564 0
M  V30 4758 N 434.561 -1.01147 -1.20859 0
M  V30 4759 C 435.508 -0.577354 -2.23462 0
M  V30 4760 C 436.478 0.399922 -1.61214 0
M  V30 4761 O 437.663 0.300515 -1.88419 0
M  V30 4762 C 434.803 0.083372 -3.44999 0
M  V30 4763 C 433.916 -0.937856 -4.21697 0
M  V30 4764 C 433.051 -0.248717 -5.30617 0
M  V30 4765 C 432.09 -1.25705 -5.99053 0
M  V30 4766 N 431.227 -0.594939 -6.99575 0
M  V30 4767 H 436.067 -1.45695 -2.59956 0
M  V30 4768 H 433.604 -0.729428 -1.27741 0
M  V30 4769 H 435.562 0.483535 -4.14388 0
M  V30 4770 H 434.192 0.926645 -3.09214 0
M  V30 4771 H 433.244 -1.45622 -3.51423 0
M  V30 4772 H 434.556 -1.70493 -4.68757 0
M  V30 4773 H 433.71 0.207215 -6.06346 0
M  V30 4774 H 432.449 0.55071 -4.84581 0
M  V30 4775 H 431.454 -1.72343 -5.2209 0
M  V30 4776 H 432.679 -2.05767 -6.47176 0
M  V30 4777 H 430.625 0.184713 -6.5574 0
M  V30 4778 H 430.542 -1.30017 -7.44736 0
M  V30 4779 H 431.81 -0.162427 -7.79331 0
M  V30 4780 N 436.039 1.36541 -0.78704 0
M  V30 4781 C 437.285 1.99599 -0.358872 0
M  V30 4782 C 437.618 1.62323 1.06606 0
M  V30 4783 O 436.893 0.876858 1.73613 0
M  V30 4784 C 437.176 3.56327 -0.519944 0
M  V30 4785 C 437.029 4.03464 -1.98839 0
M  V30 4786 C 438.348 4.4005 0.0664737 0
M  V30 4787 H 435.467 0.725107 -0.131869 0
M  V30 4788 H 438.109 1.6199 -0.992936 0
M  V30 4789 H 436.259 3.88495 0.0198321 0
M  V30 4790 H 437.931 3.81793 -2.58905 0
M  V30 4791 H 436.174 3.55092 -2.49183 0
M  V30 4792 H 436.845 5.12439 -2.05207 0
M  V30 4793 H 439.321 4.14228 -0.394267 0
M  V30 4794 H 438.197 5.48847 -0.0762682 0
M  V30 4795 H 438.458 4.26655 1.15835 0
M  V30 4796 N 437.518 0.538854 1.48102 0
M  V30 4797 C 438.746 0.0123136 2.06896 0
M  V30 4798 C 439.161 -1.27312 1.39417 0
M  V30 4799 O 438.518 -1.75949 0.484582 0
M  V30 4800 C 438.569 -0.206118 3.60912 0
M  V30 4801 O 438.29 1.0284 4.25859 0
M  V30 4802 C 439.791 -0.772033 4.36526 0
M  V30 4803 H 437.011 0.0375239 0.66995 0
M  V30 4804 H 439.555 0.747032 1.90367 0
M  V30 4805 H 437.71 -0.89091 3.77017 0
M  V30 4806 H 438.124 0.814654 5.18135 0
M  V30 4807 H 439.598 -0.874251 5.45033 0
M  V30 4808 H 440.075 -1.77904 4.01555 0
M  V30 4809 H 440.681 -0.123526 4.25121 0
M  V30 4810 N 438.996 -1.55193 0.274407 0
M  V30 4811 C 440.407 -1.85358 -0.223488 0
M  V30 4812 C 440.758 -1.19642 -1.555 0
M  V30 4813 O 439.883 -0.484498 -2.10907 0
M  V30 4814 C 440.478 -3.36282 -0.412285 0
M  V30 4815 C 439.037 -3.66574 -0.854413 0
M  V30 4816 C 438.184 -2.7725 0.0527056 0
M  V30 4817 H 441.135 -1.50743 0.496215 0
M  V30 4818 H 441.156 -3.59349 -1.25094 0
M  V30 4819 H 440.668 -3.84083 0.556965 0
M  V30 4820 H 438.769 -3.24273 -1.83516 0
M  V30 4821 H 438.882 -4.74073 -0.692226 0
M  V30 4822 H 437.246 -2.50447 -0.463484 0
M  V30 4823 H 438.029 -3.27865 1.01783 0
M  V30 4824 N 440.474 -0.00167713 -1.576 0
M  V30 4825 C 441.404 0.988091 -2.11563 0
M  V30 4826 C 442.385 1.35736 -1.02517 0
M  V30 4827 O 443.57 1.44082 -1.30208 0
M  V30 4828 C 440.7 2.27941 -2.62031 0
M  V30 4829 C 439.654 2.0517 -3.75619 0
M  V30 4830 C 438.98 3.4033 -4.12407 0
M  V30 4831 C 440.28 1.41294 -5.02825 0
M  V30 4832 H 441.974 0.538771 -2.94513 0
M  V30 4833 H 439.52 0.257712 -1.41675 0
M  V30 4834 H 441.473 2.97539 -2.9841 0
M  V30 4835 H 440.197 2.74989 -1.76205 0
M  V30 4836 H 438.856 1.37998 -3.39635 0
M  V30 4837 H 438.504 3.85085 -3.23603 0
M  V30 4838 H 438.204 3.25909 -4.88935 0
M  V30 4839 H 439.728 4.1124 -4.51347 0
M  V30 4840 H 441.142 2.00851 -5.36965 0
M  V30 4841 H 439.539 1.37356 -5.84169 0
M  V30 4842 H 440.609 0.382362 -4.8339 0
M  V30 4843 N 441.952 1.55251 0.271103 0
M  V30 4844 C 443.2 1.75599 1.00047 0
M  V30 4845 C 443.521 0.561188 1.8675 0
M  V30 4846 O 442.791 -0.423846 1.9126 0
M  V30 4847 H 441.371 0.647562 0.372387 0
M  V30 4848 H 444.033 1.92656 0.294876 0
M  V30 4849 H 443.129 2.65766 1.6363 0
M  V30 4850 N 443.43 -0.535701 1.48216 0
M  V30 4851 C 444.378 -1.66179 1.62749 0
M  V30 4852 C 445.372 -1.62034 0.49409 0
M  V30 4853 O 446.578 -1.6696 0.672624 0
M  V30 4854 H 442.953 -0.550244 0.512578 0
M  V30 4855 H 444.924 -1.51063 2.57337 0
M  V30 4856 C 443.673 -3.04471 1.67907 0
M  V30 4857 H 442.996 -3.08351 2.54479 0
M  V30 4858 H 444.436 -3.82894 1.82121 0
M  V30 4859 C 442.895 -3.34314 0.416596 0
M  V30 4860 O 443.425 -3.98905 -0.473014 0
M  V30 4861 N 441.631 -2.89149 0.290038 0
M  V30 4862 H 441.178 -2.36764 1.01493 0
M  V30 4863 H 441.136 -3.09486 -0.55367 0
M  V30 4864 N 444.908 -1.36708 -0.784132 0
M  V30 4865 C 446.319 -1.27947 -1.35965 0
M  V30 4866 C 446.67 0.0784013 -1.96043 0
M  V30 4867 O 445.795 0.979989 -1.92938 0
M  V30 4868 C 446.39 -2.31689 -2.47195 0
M  V30 4869 C 444.949 -2.26601 -3.00548 0
M  V30 4870 C 444.096 -2.16184 -1.73666 0
M  V30 4871 H 447.047 -1.4751 -0.585358 0
M  V30 4872 H 447.068 -1.95638 -3.26352 0
M  V30 4873 H 446.58 -3.30506 -2.03439 0
M  V30 4874 H 444.681 -1.31268 -3.48711 0
M  V30 4875 H 444.794 -3.19508 -3.57004 0
M  V30 4876 H 443.158 -1.62524 -1.96107 0
M  V30 4877 H 443.941 -3.16896 -1.32031 0
M  V30 4878 N 446.386 1.0089 -1.21074 0
M  V30 4879 C 447.663 1.71834 -0.934469 0
M  V30 4880 C 448.043 2.0368 0.554753 0
M  V30 4881 O 447.391 1.70742 1.51854 0
M  V30 4882 C 447.601 2.98061 -1.8155 0
M  V30 4883 C 448.949 3.7117 -2.06199 0
M  V30 4884 O 449.973 3.08034 -1.78867 0
M  V30 4885 O 448.832 4.84721 -2.52404 0
M  V30 4886 H 445.926 0.749253 -0.35007 0
M  V30 4887 H 448.472 1.06668 -1.31985 0
M  V30 4888 H 447.244 2.70908 -2.82355 0
M  V30 4889 H 446.867 3.70968 -1.43068 0
M  V30 4890 N 447.864 1.01787 1.20321 0
M  V30 4891 C 449.28 0.732951 1.41774 0
M  V30 4892 C 449.48 -0.686883 1.89431 0
M  V30 4893 O 448.536 -1.45446 2.06402 0
M  V30 4894 C 449.849 1.75973 2.43832 0
M  V30 4895 C 451.397 1.77802 2.57596 0
M  V30 4896 C 451.872 2.7941 3.62897 0
M  V30 4897 N 453.363 2.78157 3.70382 0
M  V30 4898 C 454.098 3.53434 4.51521 0
M  V30 4899 N 453.594 4.38392 5.36455 0
M  V30 4900 N 455.387 3.42026 4.46066 0
M  V30 4901 H 447.538 1.93447 0.877035 0
M  V30 4902 H 449.801 0.835712 0.447536 0
M  V30 4903 H 449.507 2.77699 2.15815 0
M  V30 4904 H 449.381 1.57292 3.4284 0
M  V30 4905 H 451.768 0.767602 2.84942 0
M  V30 4906 H 451.849 2.00557 1.58779 0
M  V30 4907 H 451.493 3.80616 3.36295 0
M  V30 4908 H 451.423 2.53916 4.61339 0
M  V30 4909 H 453.914 2.16531 3.09714 0
M  V30 4910 H 454.227 4.92596 5.95457 0
M  V30 4911 H 452.572 4.4247 5.35953 0
M  V30 4912 H 455.763 2.75075 3.78749 0
M  V30 4913 H 455.936 4.00946 5.09064 0
M  V30 4914 N 449.342 -1.36122 0.79427 0
M  V30 4915 C 450.753 -1.81646 0.431446 0
M  V30 4916 C 451.104 -1.66043 -1.04518 0
M  V30 4917 O 450.229 -1.1841 -1.8113 0
M  V30 4918 C 450.824 -3.29785 0.776341 0
M  V30 4919 C 449.383 -3.73501 0.466282 0
M  V30 4920 C 448.53 -2.58313 1.00844 0
M  V30 4921 H 451.481 -1.24274 0.986995 0
M  V30 4922 H 451.502 -3.80437 0.0692413 0
M  V30 4923 H 451.014 -3.4111 1.8511 0
M  V30 4924 H 449.115 -3.67733 -0.600245 0
M  V30 4925 H 449.228 -4.68754 0.990288 0
M  V30 4926 H 447.592 -2.5102 0.431406 0
M  V30 4927 H 448.375 -2.72421 2.08906 0
M  V30 4928 N 450.82 -0.546701 -1.47814 0
M  V30 4929 C 451.783 0.196287 -2.28358 0
M  V30 4930 C 452.783 0.852437 -1.36346 0
M  V30 4931 O 453.973 0.709913 -1.59078 0
M  V30 4932 C 451.105 1.28579 -3.15722 0
M  V30 4933 H 452.298 -0.511086 -2.95513 0
M  V30 4934 H 449.851 -0.303248 -1.5333 0
M  V30 4935 H 450.586 2.0259 -2.53235 0
M  V30 4936 H 450.371 0.820229 -3.83425 0
M  V30 4937 H 451.861 1.80793 -3.76435 0
M  V30 4938 N 452.299 1.55045 -0.282633 0
M  V30 4939 C 453.262 2.21515 0.588539 0
M  V30 4940 C 454.262 1.19535 1.07554 0
M  V30 4941 O 455.452 1.44391 0.974514 0
M  V30 4942 C 452.584 2.88704 1.8128 0
M  V30 4943 H 453.777 2.99899 0.00806397 0
M  V30 4944 H 451.33 1.56265 -0.0333067 0
M  V30 4945 H 452.065 2.14352 2.43359 0
M  V30 4946 H 451.85 3.63443 1.47144 0
M  V30 4947 H 453.34 3.39465 2.43214 0
M  V30 4948 N 453.777 0.010035 1.57597 0
M  V30 4949 C 455.025 -0.671371 1.90623 0
M  V30 4950 C 455.346 -1.73753 0.885151 0
M  V30 4951 O 454.616 -1.95752 -0.0760611 0
M  V30 4952 H 453.196 -0.250968 0.703579 0
M  V30 4953 H 455.858 0.0533325 1.94827 0
M  V30 4954 H 454.954 -1.13626 2.90681 0
M  V30 4955 N 455.255 -1.55392 -0.262866 0
M  V30 4956 C 456.187 -1.85392 -1.34768 0
M  V30 4957 C 457.2 -0.739069 -1.45057 0
M  V30 4958 O 458.389 -1.01703 -1.46693 0
M  V30 4959 C 455.489 -2.01088 -2.72795 0
M  V30 4960 C 454.662 -3.31828 -2.84972 0
M  V30 4961 C 453.721 -3.37464 -4.03738 0
M  V30 4962 O 452.747 -4.10778 -3.94018 0
M  V30 4963 N 453.949 -2.65599 -5.16176 0
M  V30 4964 H 456.714 -2.79029 -1.09375 0
M  V30 4965 H 454.275 -1.55434 -0.452981 0
M  V30 4966 H 456.267 -2.02217 -3.50557 0
M  V30 4967 H 454.837 -1.1427 -2.90966 0
M  V30 4968 H 454.057 -3.43152 -1.94012 0
M  V30 4969 H 455.345 -4.18032 -2.90045 0
M  V30 4970 H 454.743 -2.05736 -5.26962 0
M  V30 4971 H 453.3 -2.72439 -5.92132 0
M  V30 4972 N 456.733 0.527833 -1.48498 0
M  V30 4973 C 457.961 1.30823 -1.6029 0
M  V30 4974 C 458.376 1.86945 -0.263974 0
M  V30 4975 O 457.733 1.6651 0.747034 0
M  V30 4976 C 457.784 2.45756 -2.65116 0
M  V30 4977 O 457.505 1.91946 -3.93813 0
M  V30 4978 C 459.006 3.37543 -2.87367 0
M  V30 4979 H 456.226 0.397763 -0.540394 0
M  V30 4980 H 458.77 0.636529 -1.94341 0
M  V30 4981 H 456.925 3.08806 -2.33917 0
M  V30 4982 H 457.339 2.67195 -4.51339 0
M  V30 4983 H 458.813 4.14532 -3.6451 0
M  V30 4984 H 459.29 3.92905 -1.9627 0
M  V30 4985 H 459.896 2.80283 -3.19878 0
M  V30 4986 N 458.211 1.37122 0.776871 0
M  V30 4987 C 459.488 1.22586 1.52421 0
M  V30 4988 C 459.868 -0.182726 2.10308 0
M  V30 4989 O 459.216 -1.18979 1.9508 0
M  V30 4990 C 459.426 2.31782 2.60918 0
M  V30 4991 C 460.774 2.69071 3.2846 0
M  V30 4992 O 461.798 2.3092 2.71209 0
M  V30 4993 O 460.657 3.3478 4.31954 0
M  V30 4994 H 457.751 0.478045 0.674835 0
M  V30 4995 H 460.297 1.48888 0.814275 0
M  V30 4996 H 459.069 3.26131 2.16227 0
M  V30 4997 H 458.692 2.06916 3.39517 0
M  V30 4998 N 459.689 -1.00246 1.21608 0
M  V30 4999 C 461.105 -1.26435 0.973975 0
M  V30 5000 C 461.305 -1.98642 -0.338143 0
M  V30 5001 O 460.361 -2.29026 -1.06317 0
M  V30 5002 C 461.674 -2.08551 2.16626 0
M  V30 5003 C 463.222 -2.21769 2.20879 0
M  V30 5004 C 463.697 -3.07267 3.39633 0
M  V30 5005 N 465.188 -3.14855 3.39736 0
M  V30 5006 C 465.923 -3.81274 4.28273 0
M  V30 5007 N 465.419 -4.497 5.27012 0
M  V30 5008 N 467.212 -3.7794 4.16074 0
M  V30 5009 H 459.363 -0.518089 2.05984 0
M  V30 5010 H 461.626 -0.291368 0.902113 0
M  V30 5011 H 461.332 -1.62847 3.11727 0
M  V30 5012 H 461.206 -3.09303 2.15897 0
M  V30 5013 H 463.593 -2.66691 1.26332 0
M  V30 5014 H 463.674 -1.20478 2.25652 0
M  V30 5015 H 463.318 -2.63047 4.34475 0
M  V30 5016 H 463.248 -4.08678 3.321 0
M  V30 5017 H 465.739 -2.66147 2.6828 0
M  V30 5018 H 466.052 -4.98092 5.90867 0
M  V30 5019 H 464.397 -4.48479 5.30935 0
M  V30 5020 H 467.588 -3.23638 3.38195 0
M  V30 5021 H 467.761 -4.29424 4.85282 0
M  V30 5022 N 461.167 -1.02423 -1.1978 0
M  V30 5023 C 462.077 -0.610919 -2.26506 0
M  V30 5024 C 463.093 0.355152 -1.70337 0
M  V30 5025 O 464.269 0.214195 -2.00258 0
M  V30 5026 C 461.334 0.0365921 -3.46681 0
M  V30 5027 C 460.395 -0.976389 -4.18049 0
M  V30 5028 C 459.628 -0.359683 -5.32487 0
M  V30 5029 O 459.851 0.838601 -5.64202 0
M  V30 5030 O 458.785 -1.08022 -5.92127 0
M  V30 5031 H 462.611 -1.49965 -2.64091 0
M  V30 5032 H 460.196 -0.794156 -1.26545 0
M  V30 5033 H 462.078 0.39786 -4.19518 0
M  V30 5034 H 460.753 0.899398 -3.10954 0
M  V30 5035 H 459.66 -1.38916 -3.47352 0
M  V30 5036 H 460.993 -1.80941 -4.57735 0
M  V30 5037 N 462.645 1.35699 -0.801477 0
M  V30 5038 C 464.061 1.52065 -0.484596 0
M  V30 5039 C 464.261 1.75215 0.995084 0
M  V30 5040 O 463.317 1.79061 1.78026 0
M  V30 5041 C 464.63 2.69908 -1.32552 0
M  V30 5042 C 466.178 2.83784 -1.32044 0
M  V30 5043 C 466.653 4.04646 -2.14536 0
M  V30 5044 N 468.144 4.11814 -2.12046 0
M  V30 5045 C 468.879 5.04437 -2.72636 0
M  V30 5046 N 468.375 6.02426 -3.42133 0
M  V30 5047 N 470.168 4.97144 -2.62305 0
M  V30 5048 H 462.319 1.18928 -1.75983 0
M  V30 5049 H 464.582 0.581455 -0.748741 0
M  V30 5050 H 464.288 2.59363 -2.37537 0
M  V30 5051 H 464.162 3.64376 -0.975181 0
M  V30 5052 H 466.549 2.93783 -0.27846 0
M  V30 5053 H 466.63 1.90188 -1.71062 0
M  V30 5054 H 466.274 3.95407 -3.18772 0
M  V30 5055 H 466.204 4.97413 -1.72882 0
M  V30 5056 H 468.695 3.41664 -1.61476 0
M  V30 5057 H 469.008 6.69688 -3.85666 0
M  V30 5058 H 467.353 6.02615 -3.46237 0
M  V30 5059 H 470.544 4.19546 -2.07603 0
M  V30 5060 H 470.717 5.69138 -3.09815 0
M  V30 5061 N 464.123 0.554532 1.47522 0
M  V30 5062 C 465.033 -0.197865 2.33764 0
M  V30 5063 C 466.049 -0.914576 1.48025 0
M  V30 5064 O 467.225 -0.884067 1.80959 0
M  V30 5065 C 464.29 -1.21628 3.24665 0
M  V30 5066 C 463.351 -0.507283 4.26292 0
M  V30 5067 C 462.584 -1.47718 5.1285 0
M  V30 5068 O 462.807 -2.7118 5.01814 0
M  V30 5069 O 461.741 -1.00313 5.93482 0
M  V30 5070 H 465.567 0.50949 2.99396 0
M  V30 5071 H 463.152 0.315176 1.46038 0
M  V30 5072 H 465.034 -1.80421 3.80823 0
M  V30 5073 H 463.709 -1.9056 2.61665 0
M  V30 5074 H 462.616 0.121778 3.73902 0
M  V30 5075 H 463.949 0.140544 4.91999 0
M  V30 5076 N 465.601 -1.54893 0.290851 0
M  V30 5077 C 466.826 -2.04804 -0.32712 0
M  V30 5078 C 467.251 -1.16721 -1.47506 0
M  V30 5079 O 466.609 -0.169107 -1.8051 0
M  V30 5080 C 466.657 -3.52268 -0.770689 0
M  V30 5081 O 465.761 -3.67236 -1.87647 0
M  V30 5082 H 465.102 -0.660789 -0.0652227 0
M  V30 5083 H 467.632 -2.00036 0.429739 0
M  V30 5084 H 467.642 -3.9393 -1.06223 0
M  V30 5085 H 466.317 -4.15843 0.069096 0
M  V30 5086 H 464.894 -3.37479 -1.58626 0
M  V30 5087 N 467.08 -0.0183926 -1.57589 0
M  V30 5088 C 467.99 0.982943 -2.13015 0
M  V30 5089 C 469.006 1.36443 -1.07979 0
M  V30 5090 O 470.182 1.44802 -1.3998 0
M  V30 5091 C 467.247 2.25024 -2.63752 0
M  V30 5092 C 466.308 1.93018 -3.83461 0
M  V30 5093 C 465.541 3.13706 -4.31769 0
M  V30 5094 O 465.764 4.2601 -3.79305 0
M  V30 5095 O 464.698 2.96629 -5.23732 0
M  V30 5096 H 468.524 0.541709 -2.9883 0
M  V30 5097 H 466.109 0.201565 -1.48034 0
M  V30 5098 H 467.991 2.99441 -2.96502 0
M  V30 5099 H 466.666 2.68349 -1.81026 0
M  V30 5100 H 465.573 1.16019 -3.55655 0
M  V30 5101 H 466.906 1.54516 -4.67317 0
M  V30 5102 N 468.558 1.5553 0.254621 0
M  V30 5103 C 469.806 1.7665 0.981793 0
M  V30 5104 C 470.127 0.580963 1.86145 0
M  V30 5105 O 469.397 -0.403537 1.91699 0
M  V30 5106 H 467.977 0.651475 0.365498 0
M  V30 5107 H 470.639 1.92958 0.274426 0
M  V30 5108 H 469.735 2.67486 1.60802 0
M  V30 5109 N 470.036 -0.519951 1.48776 0
M  V30 5110 C 470.946 -1.65025 1.66745 0
M  V30 5111 C 471.962 -1.6508 0.549954 0
M  V30 5112 O 473.138 -1.83848 0.822295 0
M  V30 5113 C 470.203 -3.0146 1.71238 0
M  V30 5114 C 469.264 -3.12182 2.94688 0
M  V30 5115 C 468.497 -4.42109 2.98958 0
M  V30 5116 O 468.72 -5.29799 2.1135 0
M  V30 5117 O 467.654 -4.57406 3.91233 0
M  V30 5118 H 471.48 -1.52801 2.62461 0
M  V30 5119 H 469.065 -0.694157 1.32294 0
M  V30 5120 H 470.947 -3.82584 1.76657 0
M  V30 5121 H 469.622 -3.13988 0.786975 0
M  V30 5122 H 468.529 -2.30316 2.94797 0
M  V30 5123 H 469.862 -3.04574 3.86646 0
M  V30 5124 N 471.514 -1.37532 -0.769588 0
M  V30 5125 C 472.762 -1.32597 -1.5252 0
M  V30 5126 C 473.083 0.0884294 -1.94799 0
M  V30 5127 O 472.353 1.03289 -1.66458 0
M  V30 5128 H 470.933 -0.487846 -0.565699 0
M  V30 5129 H 473.595 -1.72044 -0.915806 0
M  V30 5130 H 472.691 -1.96643 -2.42359 0
M  V30 5131 N 472.992 0.995999 -1.22138 0
M  V30 5132 C 473.902 2.11985 -1.00496 0
M  V30 5133 C 474.918 1.7394 0.0457701 0
M  V30 5134 O 476.094 2.00868 -0.146273 0
M  V30 5135 C 473.159 3.41779 -0.582086 0
M  V30 5136 C 472.22 3.93943 -1.70608 0
M  V30 5137 C 471.453 5.17542 -1.30328 0
M  V30 5138 O 471.676 5.70114 -0.180743 0
M  V30 5139 O 470.61 5.63382 -2.11861 0
M  V30 5140 H 474.436 2.33123 -1.94647 0
M  V30 5141 H 472.021 1.10358 -1.00705 0
M  V30 5142 H 473.903 4.1989 -0.356467 0
M  V30 5143 H 472.578 3.22007 0.330592 0
M  V30 5144 H 471.485 3.17019 -1.98619 0
M  V30 5145 H 472.818 4.18141 -2.59651 0
M  V30 5146 N 474.47 1.03057 1.19235 0
M  V30 5147 C 475.718 0.726581 1.88587 0
M  V30 5148 C 476.039 -0.747227 1.80115 0
M  V30 5149 O 475.309 -1.53849 1.21274 0
M  V30 5150 H 473.889 0.265768 0.698124 0
M  V30 5151 H 476.551 1.30516 1.44746 0
M  V30 5152 H 475.647 1.0224 2.94879 0
M  V30 5153 N 475.948 -1.35272 0.808662 0
M  V30 5154 C 477.359 -1.81179 0.450688 0
M  V30 5155 C 477.71 -1.67143 -1.02751 0
M  V30 5156 O 476.835 -1.20325 -1.79864 0
M  V30 5157 C 477.43 -3.28943 0.811275 0
M  V30 5158 C 475.989 -3.72985 0.505871 0
M  V30 5159 C 475.136 -2.57229 1.03578 0
M  V30 5160 H 478.087 -1.2322 1.00012 0
M  V30 5161 H 478.108 -3.80342 0.109588 0
M  V30 5162 H 477.62 -3.39127 1.88718 0
M  V30 5163 H 475.721 -3.68349 -0.561209 0
M  V30 5164 H 475.834 -4.67677 1.03995 0
M  V30 5165 H 474.198 -2.50548 0.458005 0
M  V30 5166 H 474.981 -2.7019 2.11784 0
M  V30 5167 N 477.426 -0.562348 -1.47226 0
M  V30 5168 C 478.356 0.170627 -2.32876 0
M  V30 5169 C 479.337 0.903748 -1.44106 0
M  V30 5170 O 480.522 0.883206 -1.72954 0
M  V30 5171 C 477.652 1.19786 -3.25989 0
M  V30 5172 C 476.606 0.580875 -4.2404 0
M  V30 5173 C 475.932 1.71311 -5.06514 0
M  V30 5174 C 477.232 -0.468714 -5.20193 0
M  V30 5175 H 478.926 -0.544441 -2.94408 0
M  V30 5176 H 476.472 -0.263271 -1.41573 0
M  V30 5177 H 478.425 1.71884 -3.84752 0
M  V30 5178 H 477.149 1.94294 -2.62521 0
M  V30 5179 H 475.808 0.0811538 -3.6651 0
M  V30 5180 H 475.456 2.44736 -4.39447 0
M  V30 5181 H 475.156 1.30604 -5.72902 0
M  V30 5182 H 476.68 2.23725 -5.68137 0
M  V30 5183 H 478.094 -0.0336028 -5.7329 0
M  V30 5184 H 476.491 -0.794957 -5.94811 0
M  V30 5185 H 477.561 -1.36269 -4.65359 0
M  V30 5186 N 478.904 1.54736 -0.299062 0
M  V30 5187 C 479.834 2.26409 0.571085 0
M  V30 5188 C 480.815 1.2629 1.13951 0
M  V30 5189 O 482 1.55059 1.16921 0
M  V30 5190 C 479.13 3.00338 1.74396 0
M  V30 5191 C 478.084 4.07588 1.30599 0
M  V30 5192 C 477.41 4.69222 2.56387 0
M  V30 5193 C 478.71 5.20455 0.438645 0
M  V30 5194 H 480.404 2.99388 -0.0266991 0
M  V30 5195 H 477.95 1.43993 -0.0142812 0
M  V30 5196 H 479.903 3.49198 2.35878 0
M  V30 5197 H 478.627 2.24934 2.36796 0
M  V30 5198 H 477.286 3.59575 0.71424 0
M  V30 5199 H 476.934 3.9046 3.17097 0
M  V30 5200 H 476.634 5.41653 2.27784 0
M  V30 5201 H 478.158 5.20844 3.18675 0
M  V30 5202 H 479.572 5.65221 0.959085 0
M  V30 5203 H 477.969 5.99594 0.246466 0
M  V30 5204 H 479.039 4.8192 -0.536738 0
M  V30 5205 N 480.382 0.0267497 1.57577 0
M  V30 5206 C 481.798 -0.32962 1.56159 0
M  V30 5207 C 481.998 -1.73059 1.03213 0
M  V30 5208 O 481.054 -2.43233 0.677804 0
M  V30 5209 C 482.367 -0.18039 3.00158 0
M  V30 5210 C 483.915 -0.253334 3.11973 0
M  V30 5211 C 484.39 -0.132921 4.57807 0
M  V30 5212 N 485.881 -0.189979 4.6281 0
M  V30 5213 C 486.616 -0.120554 5.73273 0
M  V30 5214 N 486.112 -0.000180315 6.928 0
M  V30 5215 N 487.905 -0.174369 5.61829 0
M  V30 5216 H 480.056 0.942896 1.90324 0
M  V30 5217 H 482.319 0.3639 0.875375 0
M  V30 5218 H 482.025 0.784576 3.42837 0
M  V30 5219 H 481.899 -0.951565 3.65 0
M  V30 5220 H 484.286 -1.20876 2.69208 0
M  V30 5221 H 484.367 0.548177 2.49857 0
M  V30 5222 H 484.011 0.819073 5.01252 0
M  V30 5223 H 483.941 -0.953264 5.179 0
M  V30 5224 H 486.432 -0.283257 3.76837 0
M  V30 5225 H 486.745 0.0461666 7.72786 0
M  V30 5226 H 485.09 0.034569 6.94991 0
M  V30 5227 H 488.281 -0.266794 4.67339 0
M  V30 5228 H 488.454 -0.116802 6.47895 0
M  V30 5229 N 481.861 -1.55662 -0.24637 0
M  V30 5230 C 483.107 -1.78698 -0.971525 0
M  V30 5231 C 483.462 -0.59577 -1.82944 0
M  V30 5232 O 482.755 0.41097 -1.87141 0
M  V30 5233 C 482.949 -3.04885 -1.86494 0
M  V30 5234 C 482.778 -4.36165 -1.09501 0
M  V30 5235 C 481.548 -4.98929 -0.799895 0
M  V30 5236 C 483.746 -5.12126 -0.472334 0
M  V30 5237 N 481.728 -6.139 -0.00595299 0
M  V30 5238 C 483.099 -6.1972 0.18616 0
M  V30 5239 C 485.154 -4.96426 -0.382854 0
M  V30 5240 C 483.857 -7.13321 0.925542 0
M  V30 5241 C 485.883 -5.90405 0.342999 0
M  V30 5242 C 485.245 -6.97407 0.990128 0
M  V30 5243 H 481.344 -0.705852 -0.336597 0
M  V30 5244 H 483.928 -1.93157 -0.244615 0
M  V30 5245 H 482.099 -2.91753 -2.56388 0
M  V30 5246 H 483.831 -3.16212 -2.5257 0
M  V30 5247 H 480.586 -4.60365 -1.11181 0
M  V30 5248 H 481.01 -6.75938 0.379127 0
M  V30 5249 H 485.652 -4.13777 -0.868834 0
M  V30 5250 H 483.37 -7.9547 1.42312 0
M  V30 5251 H 486.956 -5.80333 0.412907 0
M  V30 5252 H 485.836 -7.68874 1.54282 0
M  V30 5253 N 483.339 0.512053 -1.4905 0
M  V30 5254 C 484.269 1.62365 -1.67809 0
M  V30 5255 C 485.25 1.61737 -0.526809 0
M  V30 5256 O 486.435 1.78651 -0.761404 0
M  V30 5257 C 483.565 3.00895 -1.73435 0
M  V30 5258 C 482.519 3.16387 -2.88242 0
M  V30 5259 C 481.845 4.56157 -2.78971 0
M  V30 5260 C 483.145 2.97457 -4.29321 0
M  V30 5261 H 484.839 1.46921 -2.60873 0
M  V30 5262 H 482.385 0.705379 -1.2554 0
M  V30 5263 H 484.338 3.78549 -1.85145 0
M  V30 5264 H 483.062 3.17403 -0.769619 0
M  V30 5265 H 481.721 2.41155 -2.76116 0
M  V30 5266 H 481.369 4.69525 -1.8043 0
M  V30 5267 H 481.069 4.67465 -3.5602 0
M  V30 5268 H 482.593 5.35886 -2.92675 0
M  V30 5269 H 484.007 3.64888 -4.42187 0
M  V30 5270 H 482.404 3.20245 -5.07507 0
M  V30 5271 H 483.474 1.93692 -4.44535 0
M  V30 5272 N 484.817 1.37938 0.762283 0
M  V30 5273 C 485.764 1.34467 1.87583 0
M  V30 5274 C 486.734 0.208633 1.64785 0
M  V30 5275 O 487.919 0.399494 1.86571 0
M  V30 5276 C 485.059 1.16692 3.24772 0
M  V30 5277 C 484.172 2.39608 3.59461 0
M  V30 5278 C 483.307 2.14631 4.85908 0
M  V30 5279 C 482.346 3.33364 5.13357 0
M  V30 5280 N 481.483 3.07877 6.30996 0
M  V30 5281 H 486.323 2.29669 1.89885 0
M  V30 5282 H 483.86 1.14116 0.928219 0
M  V30 5283 H 485.818 1.04405 4.03925 0
M  V30 5284 H 484.448 0.251333 3.2182 0
M  V30 5285 H 483.5 2.626 2.75219 0
M  V30 5286 H 484.812 3.28128 3.75678 0
M  V30 5287 H 483.966 1.99429 5.72986 0
M  V30 5288 H 482.705 1.23463 4.71814 0
M  V30 5289 H 481.71 3.49094 4.24751 0
M  V30 5290 H 482.935 4.25395 5.29354 0
M  V30 5291 H 480.881 2.19348 6.18241 0
M  V30 5292 H 480.798 3.89944 6.47673 0
M  V30 5293 H 482.066 2.96313 7.20985 0
M  V30 5294 N 486.295 -0.989507 1.22664 0
M  V30 5295 C 487.541 -1.7321 1.05481 0
M  V30 5296 C 487.874 -1.89852 -0.408635 0
M  V30 5297 O 487.149 -1.44416 -1.30285 0
M  V30 5298 C 487.432 -3.1357 1.77047 0
M  V30 5299 C 487.285 -3.04555 3.31008 0
M  V30 5300 C 488.604 -4.12812 1.5256 0
M  V30 5301 H 485.723 -0.628697 0.384589 0
M  V30 5302 H 488.365 -1.15258 1.51049 0
M  V30 5303 H 486.515 -3.63046 1.3831 0
M  V30 5304 H 488.187 -2.62674 3.7921 0
M  V30 5305 H 486.43 -2.41278 3.6051 0
M  V30 5306 H 487.101 -4.03894 3.76263 0
M  V30 5307 H 489.577 -3.72106 1.86215 0
M  V30 5308 H 488.453 -5.09132 2.05124 0
M  V30 5309 H 488.714 -4.39711 0.458936 0
M  V30 5310 N 487.773 -1.03688 -1.18687 0
M  V30 5311 C 488.721 -0.618292 -2.24232 0
M  V30 5312 C 489.715 0.353045 -1.6568 0
M  V30 5313 O 490.921 0.220749 -1.78641 0
M  V30 5314 H 487.296 -0.181711 -0.729716 0
M  V30 5315 H 489.267 -1.51893 -2.56848 0
M  V30 5316 C 488.016 0.00677342 -3.47699 0
M  V30 5317 H 487.339 -0.731692 -3.93047 0
M  V30 5318 H 488.779 0.262492 -4.23187 0
M  V30 5319 C 487.238 1.25572 -3.12623 0
M  V30 5320 O 487.768 2.34691 -3.26011 0
M  V30 5321 N 485.974 1.14755 -2.66982 0
M  V30 5322 H 485.521 0.259601 -2.56289 0
M  V30 5323 H 485.479 1.98412 -2.43885 0
M  V30 5324 N 489.251 1.34841 -0.815825 0
M  V30 5325 C 490.498 1.98499 -0.400535 0
M  V30 5326 C 490.826 1.64699 1.03463 0
M  V30 5327 O 490.081 0.907006 1.73412 0
M  V30 5328 C 490.38 3.53273 -0.541541 0
M  V30 5329 C 490.046 4.06966 -1.94138 0
M  V30 5330 C 488.708 4.21341 -2.32433 0
M  V30 5331 C 491.06 4.35933 -2.85677 0
M  V30 5332 C 488.388 4.62007 -3.61617 0
M  V30 5333 C 490.74 4.78042 -4.14317 0
M  V30 5334 C 489.404 4.90622 -4.52599 0
M  V30 5335 H 488.674 0.72636 -0.146566 0
M  V30 5336 H 491.321 1.60902 -1.0384 0
M  V30 5337 H 489.626 3.91387 0.179741 0
M  V30 5338 H 491.323 4.00497 -0.20085 0
M  V30 5339 H 487.913 3.96235 -1.63388 0
M  V30 5340 H 492.097 4.24372 -2.57337 0
M  V30 5341 H 487.353 4.69937 -3.91113 0
M  V30 5342 H 491.527 4.99415 -4.85342 0
M  V30 5343 H 489.154 5.2189 -5.52752 0
M  V30 5344 N 490.729 0.570148 1.46925 0
M  V30 5345 C 491.954 0.0542592 2.07329 0
M  V30 5346 C 492.379 -1.23582 1.41806 0
M  V30 5347 O 491.737 -1.74341 0.497479 0
M  V30 5348 C 491.785 -0.111175 3.60429 0
M  V30 5349 O 490.889 -1.17071 3.95434 0
M  V30 5350 H 490.23 0.0571425 0.661537 0
M  V30 5351 H 492.76 0.789516 1.88753 0
M  V30 5352 H 492.77 -0.321315 4.06733 0
M  V30 5353 H 491.445 0.831012 4.07513 0
M  V30 5354 H 490.022 -0.940029 3.60857 0
M  V30 5355 N 492.207 -1.54576 0.307264 0
M  V30 5356 C 493.117 -2.27435 -0.57536 0
M  V30 5357 C 494.133 -1.31183 -1.14311 0
M  V30 5358 O 495.309 -1.64175 -1.16656 0
M  V30 5359 C 492.374 -3.00566 -1.72803 0
M  V30 5360 C 491.435 -4.12369 -1.19373 0
M  V30 5361 C 490.668 -4.82003 -2.29147 0
M  V30 5362 O 490.891 -4.51038 -3.49171 0
M  V30 5363 O 489.825 -5.69271 -1.95485 0
M  V30 5364 H 493.651 -3.03696 0.0158558 0
M  V30 5365 H 491.236 -1.49219 0.0735064 0
M  V30 5366 H 493.118 -3.46416 -2.39946 0
M  V30 5367 H 491.793 -2.27195 -2.30574 0
M  V30 5368 H 490.7 -3.70905 -0.487851 0
M  V30 5369 H 492.033 -4.87736 -0.661376 0
M  V30 5370 N 493.685 -0.035106 -1.57561 0
M  V30 5371 C 494.648 0.929819 -2.09492 0
M  V30 5372 C 495.648 1.25026 -1.01119 0
M  V30 5373 O 496.838 1.18961 -1.27255 0
M  V30 5374 C 493.97 2.24457 -2.56577 0
M  V30 5375 H 495.163 0.479935 -2.96035 0
M  V30 5376 H 492.716 0.213033 -1.54841 0
M  V30 5377 H 493.451 2.74061 -1.73382 0
M  V30 5378 H 493.236 2.02508 -3.35757 0
M  V30 5379 H 494.726 2.93607 -2.96959 0
M  V30 5380 N 495.163 1.55791 0.238111 0
M  V30 5381 C 496.41 1.78033 0.964907 0
M  V30 5382 C 496.738 0.600984 1.84982 0
M  V30 5383 O 495.993 -0.41536 1.91241 0
M  V30 5384 C 496.292 3.05869 1.84875 0
M  V30 5385 C 495.958 4.36808 1.11846 0
M  V30 5386 C 494.62 4.72388 0.916662 0
M  V30 5387 C 496.972 5.17717 0.60151 0
M  V30 5388 C 494.3 5.86406 0.185756 0
M  V30 5389 C 496.652 6.32494 -0.115972 0
M  V30 5390 C 495.316 6.66688 -0.329168 0
M  V30 5391 H 494.586 0.651469 0.353085 0
M  V30 5392 H 497.233 1.90061 0.234318 0
M  V30 5393 H 495.538 2.88891 2.64668 0
M  V30 5394 H 497.235 3.20278 2.41294 0
M  V30 5395 H 493.825 4.08862 1.28569 0
M  V30 5396 H 498.009 4.90678 0.744932 0
M  V30 5397 H 493.265 6.11399 0.0101886 0
M  V30 5398 H 497.439 6.94425 -0.524127 0
M  V30 5399 H 495.066 7.54884 -0.897474 0
M  V30 5400 N 496.642 -0.504142 1.49319 0
M  V30 5401 C 497.891 -1.25507 1.57895 0
M  V30 5402 C 498.204 -1.93735 0.269433 0
M  V30 5403 O 499.41 -2.70492 0.233706 0
M  V30 5404 C 497.866 -2.27869 2.78574 0
M  V30 5405 C 497.474 -1.65594 4.16272 0
M  V30 5406 C 499.218 -3.0381 2.96479 0
M  V30 5407 C 497.125 -2.66048 5.28178 0
M  V30 5408 H 496.055 -0.47212 0.587894 0
M  V30 5409 H 498.706 -0.52931 1.757 0
M  V30 5410 H 497.088 -3.03594 2.54257 0
M  V30 5411 H 498.262 -0.958826 4.50714 0
M  V30 5412 H 496.577 -1.02055 4.037 0
M  V30 5413 H 499.174 -3.78925 3.77253 0
M  V30 5414 H 499.517 -3.61235 2.06918 0
M  V30 5415 H 500.05 -2.352 3.20821 0
M  V30 5416 H 496.789 -2.13408 6.19788 0
M  V30 5417 H 496.309 -3.34009 4.98195 0
M  V30 5418 H 497.988 -3.28536 5.57381 0
M  V30 5419 N 498.12 -1.38341 -0.754957 0
M  V30 5420 C 499.083 -1.35262 -1.85032 0
M  V30 5421 C 500.083 -0.253393 -1.58791 0
M  V30 5422 O 501.273 -0.510205 -1.66561 0
M  V30 5423 C 498.405 -1.10544 -3.22479 0
M  V30 5424 H 499.598 -2.32712 -1.8917 0
M  V30 5425 H 497.151 -1.23614 -0.956515 0
M  V30 5426 H 497.886 -0.136952 -3.24011 0
M  V30 5427 H 497.671 -1.90127 -3.4292 0
M  V30 5428 H 499.161 -1.11082 -4.02555 0
M  V30 5429 N 499.598 0.982988 -1.23187 0
M  V30 5430 C 500.844 1.7273 -1.07405 0
M  V30 5431 C 501.199 1.885 0.385447 0
M  V30 5432 O 500.492 1.4243 1.28157 0
M  V30 5433 C 500.686 3.12736 -1.73006 0
M  V30 5434 C 500.515 3.10621 -3.25184 0
M  V30 5435 C 499.285 3.15957 -3.94334 0
M  V30 5436 C 501.483 2.93992 -4.21987 0
M  V30 5437 N 499.465 3.03701 -5.33516 0
M  V30 5438 C 500.836 2.8987 -5.48065 0
M  V30 5439 C 502.891 2.78457 -4.12754 0
M  V30 5440 C 501.594 2.71804 -6.65969 0
M  V30 5441 C 503.62 2.61754 -5.30319 0
M  V30 5442 C 502.982 2.58328 -6.55321 0
M  V30 5443 H 499.081 0.641279 -0.447533 0
M  V30 5444 H 501.665 1.16664 -1.55877 0
M  V30 5445 H 499.836 3.67026 -1.2707 0
M  V30 5446 H 501.568 3.75786 -1.50224 0
M  V30 5447 H 498.323 3.24034 -3.45397 0
M  V30 5448 H 498.747 3.00855 -6.06478 0
M  V30 5449 H 503.389 2.79898 -3.16886 0
M  V30 5450 H 501.107 2.69108 -7.61975 0
M  V30 5451 H 504.693 2.50702 -5.25014 0
M  V30 5452 H 503.573 2.45564 -7.4476 0
M  V30 5453 N 501.076 1.04316 1.18135 0
M  V30 5454 C 502.325 0.74319 1.87509 0
M  V30 5455 C 502.638 -0.732136 1.81381 0
M  V30 5456 O 503.844 -1.14572 2.46141 0
M  V30 5457 C 502.3 1.27913 3.36402 0
M  V30 5458 C 501.908 2.78326 3.51053 0
M  V30 5459 C 503.652 1.0558 4.11161 0
M  V30 5460 C 501.559 3.25266 4.93919 0
M  V30 5461 H 500.489 0.274313 0.702331 0
M  V30 5462 H 503.14 1.25931 1.33467 0
M  V30 5463 H 501.522 0.690853 3.89927 0
M  V30 5464 H 502.696 3.42933 3.07788 0
M  V30 5465 H 501.011 2.991 2.89704 0
M  V30 5466 H 503.608 1.38161 5.16542 0
M  V30 5467 H 503.951 -0.00684729 4.16299 0
M  V30 5468 H 504.484 1.60882 3.63816 0
M  V30 5469 H 501.223 4.30922 4.9395 0
M  V30 5470 H 500.743 2.65396 5.3789 0
M  V30 5471 H 502.422 3.19433 5.62647 0
M  V30 5472 N 502.554 -1.34406 0.822964 0
M  V30 5473 C 503.504 -2.26963 0.217208 0
M  V30 5474 C 504.488 -1.48536 -0.618545 0
M  V30 5475 O 505.68 -1.7056 -0.473118 0
M  V30 5476 C 502.809 -3.37655 -0.619973 0
M  V30 5477 C 501.895 -4.23495 0.226411 0
M  V30 5478 N 502.286 -4.88876 1.29744 0
M  V30 5479 C 500.584 -4.45999 0.0107554 0
M  V30 5480 C 501.285 -5.52642 1.81553 0
M  V30 5481 N 500.261 -5.31949 1.11942 0
M  V30 5482 H 504.063 -2.75017 1.03647 0
M  V30 5483 H 501.577 -1.48126 0.665777 0
M  V30 5484 H 503.574 -4.02932 -1.07011 0
M  V30 5485 H 502.234 -2.91151 -1.43739 0
M  V30 5486 H 503.245 -4.89886 1.68024 0
M  V30 5487 H 499.922 -4.10253 -0.774495 0
M  V30 5488 H 501.312 -6.14755 2.71156 0
M  V30 5489 N 504.032 -0.577932 -1.46621 0
M  V30 5490 C 505.281 -0.0594281 -2.01612 0
M  V30 5491 C 505.594 1.30663 -1.45556 0
M  V30 5492 O 506.8 1.91621 -1.92337 0
M  V30 5493 C 505.256 -0.0556666 -3.59857 0
M  V30 5494 C 504.864 -1.41975 -4.24908 0
M  V30 5495 C 506.608 0.409143 -4.22524 0
M  V30 5496 C 504.515 -1.37397 -5.75218 0
M  V30 5497 H 503.445 -0.0184469 -0.753774 0
M  V30 5498 H 506.096 -0.728869 -1.68404 0
M  V30 5499 H 504.478 0.679843 -3.90121 0
M  V30 5500 H 505.652 -2.17461 -4.0626 0
M  V30 5501 H 503.967 -1.82419 -3.74316 0
M  V30 5502 H 506.564 0.46211 -5.32699 0
M  V30 5503 H 506.907 1.42565 -3.91128 0
M  V30 5504 H 507.44 -0.272152 -3.96868 0
M  V30 5505 H 504.179 -2.36714 -6.11267 0
M  V30 5506 H 503.699 -0.661239 -5.96144 0
M  V30 5507 H 505.378 -1.08484 -6.3784 0
M  V30 5508 N 505.51 1.54411 -0.315457 0
M  V30 5509 C 506.457 2.24048 0.554166 0
M  V30 5510 C 507.427 1.2283 1.11812 0
M  V30 5511 O 508.612 1.51491 1.15997 0
M  V30 5512 C 505.752 2.99574 1.71316 0
M  V30 5513 C 504.865 4.15594 1.17922 0
M  V30 5514 C 504 4.78669 2.30324 0
M  V30 5515 C 503.039 5.86807 1.74137 0
M  V30 5516 N 502.176 6.43777 2.8017 0
M  V30 5517 H 507.016 2.97964 -0.0462602 0
M  V30 5518 H 504.553 1.47059 -0.0346009 0
M  V30 5519 H 506.511 3.41604 2.39505 0
M  V30 5520 H 505.141 2.28008 2.285 0
M  V30 5521 H 504.193 3.78404 0.389136 0
M  V30 5522 H 505.505 4.93459 0.728012 0
M  V30 5523 H 504.659 5.23626 3.06433 0
M  V30 5524 H 503.398 4.00168 2.78778 0
M  V30 5525 H 502.403 5.41261 0.965236 0
M  V30 5526 H 503.628 6.67201 1.2657 0
M  V30 5527 H 501.574 5.68153 3.2793 0
M  V30 5528 H 501.491 7.17031 2.39588 0
M  V30 5529 H 502.759 6.9339 3.56132 0
M  V30 5530 N 506.988 0.0434614 1.5754 0
M  V30 5531 C 507.951 -0.918696 2.09982 0
M  V30 5532 C 508.951 -1.24488 1.01781 0
M  V30 5533 O 510.141 -1.18284 1.27885 0
M  V30 5534 C 507.273 -2.23093 2.57764 0
M  V30 5535 H 508.466 -0.464229 2.96285 0
M  V30 5536 H 506.019 -0.204818 1.54952 0
M  V30 5537 H 506.754 -2.73137 1.74832 0
M  V30 5538 H 506.539 -2.00724 3.36827 0
M  V30 5539 H 508.029 -2.92028 2.98512 0
M  V30 5540 N 508.466 -1.55915 -0.229846 0
M  V30 5541 C 509.396 -1.94754 -1.28815 0
M  V30 5542 C 510.377 -0.814657 -1.49323 0
M  V30 5543 O 511.562 -1.07631 -1.61645 0
M  V30 5544 C 508.692 -2.25705 -2.63959 0
M  V30 5545 C 507.646 -3.41406 -2.5812 0
M  V30 5546 C 506.972 -3.57941 -3.97218 0
M  V30 5547 C 508.272 -4.76616 -2.13623 0
M  V30 5548 H 509.966 -2.83404 -0.965547 0
M  V30 5549 H 507.512 -1.36353 -0.463028 0
M  V30 5550 H 509.465 -2.51467 -3.38146 0
M  V30 5551 H 508.189 -1.339 -2.9789 0
M  V30 5552 H 506.848 -3.1568 -1.86391 0
M  V30 5553 H 506.496 -2.63526 -4.28443 0
M  V30 5554 H 506.196 -4.35757 -3.94195 0
M  V30 5555 H 507.72 -3.86042 -4.73079 0
M  V30 5556 H 509.134 -5.01637 -2.77549 0
M  V30 5557 H 507.531 -5.57655 -2.21677 0
M  V30 5558 H 508.601 -4.7253 -1.08829 0
M  V30 5559 N 509.944 0.496216 -1.49584 0
M  V30 5560 C 511.36 0.827814 -1.36453 0
M  V30 5561 C 511.56 1.97464 -0.401285 0
M  V30 5562 O 510.616 2.51958 0.165296 0
M  V30 5563 C 511.929 1.16352 -2.77277 0
M  V30 5564 C 513.477 1.27145 -2.86013 0
M  V30 5565 C 513.952 1.64042 -4.27615 0
M  V30 5566 N 515.443 1.71082 -4.30448 0
M  V30 5567 C 516.178 2.01085 -5.36984 0
M  V30 5568 N 515.674 2.2928 -6.5376 0
M  V30 5569 N 517.467 2.02376 -5.24405 0
M  V30 5570 H 509.618 -0.259947 -2.10803 0
M  V30 5571 H 511.881 -0.0537163 -0.946477 0
M  V30 5572 H 511.587 0.394153 -3.49484 0
M  V30 5573 H 511.461 2.10582 -3.12946 0
M  V30 5574 H 513.848 2.03152 -2.1404 0
M  V30 5575 H 513.929 0.309542 -2.5392 0
M  V30 5576 H 513.573 0.88583 -5.00115 0
M  V30 5577 H 513.503 2.6134 -4.57175 0
M  V30 5578 H 515.994 1.51434 -3.46232 0
M  V30 5579 H 516.307 2.51376 -7.30774 0
M  V30 5580 H 514.652 2.26726 -6.56978 0
M  V30 5581 H 517.843 1.79829 -4.32179 0
M  V30 5582 H 518.016 2.25425 -6.07526 0
M  V30 5583 N 511.423 1.38739 0.74761 0
M  V30 5584 C 512.669 1.35475 1.50912 0
M  V30 5585 C 513.002 -0.0533093 1.94127 0
M  V30 5586 O 512.277 -1.01572 1.65871 0
M  V30 5587 C 512.56 2.31582 2.75757 0
M  V30 5588 C 512.413 3.81274 2.38642 0
M  V30 5589 C 513.732 2.25722 3.77806 0
M  V30 5590 H 510.851 0.493427 0.547447 0
M  V30 5591 H 513.493 1.69634 0.855823 0
M  V30 5592 H 511.643 2.02582 3.31501 0
M  V30 5593 H 513.315 4.20972 1.88626 0
M  V30 5594 H 511.558 3.98664 1.71025 0
M  V30 5595 H 512.229 4.4399 3.27989 0
M  V30 5596 H 514.705 2.51336 3.31616 0
M  V30 5597 H 513.581 2.95069 4.62845 0
M  V30 5598 H 513.842 1.25803 4.23823 0
M  V30 5599 N 512.901 -0.976442 1.23707 0
M  V30 5600 C 514.148 -1.71827 1.07153 0
M  V30 5601 C 514.476 -1.9053 -0.390982 0
M  V30 5602 O 513.731 -1.45779 -1.30564 0
M  V30 5603 C 514.03 -3.11814 1.74662 0
M  V30 5604 C 513.696 -3.12978 3.24585 0
M  V30 5605 C 512.358 -3.13003 3.6549 0
M  V30 5606 C 514.71 -3.07986 4.20469 0
M  V30 5607 C 512.038 -3.05757 5.00729 0
M  V30 5608 C 514.39 -3.02282 5.55705 0
M  V30 5609 C 513.054 -3.00631 5.95968 0
M  V30 5610 H 512.324 -0.628758 0.392102 0
M  V30 5611 H 514.971 -1.14239 1.53693 0
M  V30 5612 H 513.276 -3.72812 1.20492 0
M  V30 5613 H 514.973 -3.67989 1.59328 0
M  V30 5614 H 511.563 -3.13718 2.92026 0
M  V30 5615 H 515.747 -3.07103 3.89874 0
M  V30 5616 H 511.003 -3.02834 5.31132 0
M  V30 5617 H 515.177 -2.97376 6.29714 0
M  V30 5618 H 512.804 -2.94771 7.00724 0
M  V30 5619 N 514.379 -1.04941 -1.1758 0
M  V30 5620 C 515.625 -0.759112 -1.88057 0
M  V30 5621 C 515.958 0.711918 -1.8068 0
M  V30 5622 O 515.233 1.52035 -1.21308 0
M  V30 5623 C 515.516 -1.237 -3.38187 0
M  V30 5624 C 515.369 -2.77078 -3.54327 0
M  V30 5625 C 516.688 -0.834014 -4.32125 0
M  V30 5626 H 513.807 -0.277237 -0.682868 0
M  V30 5627 H 516.449 -1.30296 -1.38286 0
M  V30 5628 H 514.599 -0.774337 -3.80705 0
M  V30 5629 H 516.271 -3.31449 -3.20842 0
M  V30 5630 H 514.514 -3.16477 -2.96689 0
M  V30 5631 H 515.185 -3.05577 -4.59703 0
M  V30 5632 H 517.661 -1.23228 -3.97434 0
M  V30 5633 H 516.537 -1.19603 -5.35711 0
M  V30 5634 H 516.798 0.262195 -4.41322 0
M  V30 5635 N 515.857 1.33968 -0.830081 0
M  V30 5636 C 516.767 2.33164 -0.259207 0
M  V30 5637 C 517.783 1.62951 0.610164 0
M  V30 5638 O 518.959 1.94668 0.516369 0
M  V30 5639 C 516.024 3.42088 0.563598 0
M  V30 5640 C 515.085 4.28037 -0.329014 0
M  V30 5641 C 514.318 5.3176 0.454616 0
M  V30 5642 O 514.541 5.44876 1.6872 0
M  V30 5643 O 513.475 6.01669 -0.166794 0
M  V30 5644 H 517.301 2.83832 -1.08041 0
M  V30 5645 H 514.886 1.37154 -0.59239 0
M  V30 5646 H 516.768 4.08581 1.03147 0
M  V30 5647 H 515.443 2.93651 1.36201 0
M  V30 5648 H 514.35 3.64443 -0.844538 0
M  V30 5649 H 515.683 4.79934 -1.09196 0
M  V30 5650 N 517.335 0.585699 1.46312 0
M  V30 5651 C 518.56 0.0762461 2.0726 0
M  V30 5652 C 518.985 -1.22071 1.43109 0
M  V30 5653 O 518.343 -1.73804 0.515942 0
M  V30 5654 C 518.391 -0.0729404 3.60526 0
M  V30 5655 O 517.495 -1.1287 3.96654 0
M  V30 5656 H 516.836 0.0641558 0.660893 0
M  V30 5657 H 519.366 0.809492 1.87905 0
M  V30 5658 H 519.376 -0.278158 4.07051 0
M  V30 5659 H 518.051 0.874188 4.06609 0
M  V30 5660 H 516.628 -0.901703 3.61834 0
M  V30 5661 N 518.813 -1.54241 0.323641 0
M  V30 5662 C 520.059 -2.00867 -0.279323 0
M  V30 5663 C 520.392 -1.21146 -1.5178 0
M  V30 5664 O 519.667 -0.29378 -1.92269 0
M  V30 5665 C 519.95 -3.54837 -0.613387 0
M  V30 5666 C 519.803 -4.45284 0.635803 0
M  V30 5667 C 521.122 -4.16186 -1.43099 0
M  V30 5668 H 518.241 -0.730177 -0.100049 0
M  V30 5669 H 520.883 -1.84829 0.440235 0
M  V30 5670 H 519.033 -3.68634 -1.22641 0
M  V30 5671 H 520.705 -4.43357 1.27406 0
M  V30 5672 H 518.948 -4.14956 1.26466 0
M  V30 5673 H 519.619 -5.5084 0.357597 0
M  V30 5674 H 522.095 -4.05964 -0.912814 0
M  V30 5675 H 520.971 -5.24031 -1.6335 0
M  V30 5676 H 521.232 -3.69516 -2.42715 0
M  V30 5677 N 520.291 -0.0518155 -1.57515 0
M  V30 5678 C 521.221 0.920283 -2.146 0
M  V30 5679 C 522.202 1.32406 -1.06783 0
M  V30 5680 O 523.387 1.39866 -1.34726 0
M  V30 5681 C 520.517 2.1949 -2.6915 0
M  V30 5682 C 519.471 1.93116 -3.81956 0
M  V30 5683 C 518.797 3.27037 -4.23026 0
M  V30 5684 C 520.097 1.25225 -5.07066 0
M  V30 5685 H 521.791 0.444801 -2.96077 0
M  V30 5686 H 519.337 0.212508 -1.42423 0
M  V30 5687 H 521.29 2.87894 -3.07725 0
M  V30 5688 H 520.014 2.69244 -1.84865 0
M  V30 5689 H 518.673 1.27123 -3.43854 0
M  V30 5690 H 518.321 3.74595 -3.3569 0
M  V30 5691 H 518.021 3.10189 -4.99056 0
M  V30 5692 H 519.545 3.96673 -4.64202 0
M  V30 5693 H 520.959 1.83666 -5.43083 0
M  V30 5694 H 519.356 1.18702 -5.88243 0
M  V30 5695 H 520.426 0.228382 -4.84362 0
M  V30 5696 N 521.769 1.56035 0.221574 0
M  V30 5697 C 523.185 1.49026 0.571271 0
M  V30 5698 C 523.385 0.746912 1.87146 0
M  V30 5699 O 522.441 0.286566 2.50869 0
M  V30 5700 C 523.754 2.93579 0.650522 0
M  V30 5701 C 525.302 3.04099 0.741151 0
M  V30 5702 C 525.777 4.5001 0.851747 0
M  V30 5703 N 527.268 4.54053 0.915968 0
M  V30 5704 C 528.003 5.64232 1.02125 0
M  V30 5705 N 527.499 6.84164 1.09049 0
M  V30 5706 N 529.292 5.52084 1.05639 0
M  V30 5707 H 521.443 2.02791 -0.63162 0
M  V30 5708 H 523.706 0.921736 -0.221602 0
M  V30 5709 H 523.412 3.50912 -0.235253 0
M  V30 5710 H 523.286 3.45476 1.51413 0
M  V30 5711 H 525.673 2.4683 1.61737 0
M  V30 5712 H 525.754 2.55371 -0.148128 0
M  V30 5713 H 525.398 5.07896 -0.0200117 0
M  V30 5714 H 525.328 4.96444 1.75644 0
M  V30 5715 H 527.819 3.67683 0.872782 0
M  V30 5716 H 528.132 7.63883 1.1706 0
M  V30 5717 H 526.477 6.86875 1.05962 0
M  V30 5718 H 529.668 4.57317 0.998953 0
M  V30 5719 H 529.841 6.37983 1.13498 0
M  V30 5720 N 523.247 -0.488276 1.49845 0
M  V30 5721 C 524.477 -1.26344 1.63465 0
M  V30 5722 C 524.885 -1.86637 0.310379 0
M  V30 5723 O 524.228 -1.69184 -0.715712 0
M  V30 5724 C 524.29 -2.42407 2.65479 0
M  V30 5725 C 523.954 -2.02886 4.09495 0
M  V30 5726 C 524.951 -1.56124 4.95904 0
M  V30 5727 C 522.636 -2.12131 4.55308 0
M  V30 5728 C 524.63 -1.19129 6.26169 0
M  V30 5729 C 522.317 -1.74747 5.85582 0
M  V30 5730 C 523.315 -1.28322 6.70837 0
M  V30 5731 O 523.003 -0.914491 7.98682 0
M  V30 5732 H 522.735 -0.388921 0.552916 0
M  V30 5733 H 525.289 -0.591288 1.96705 0
M  V30 5734 H 523.519 -3.12739 2.27445 0
M  V30 5735 H 525.208 -3.04409 2.68495 0
M  V30 5736 H 525.974 -1.48417 4.61733 0
M  V30 5737 H 521.853 -2.47217 3.89107 0
M  V30 5738 H 525.397 -0.828211 6.92666 0
M  V30 5739 H 521.294 -1.82109 6.19279 0
M  V30 5740 H 522.062 -1.04485 8.11804 0
M  V30 5741 N 524.725 -1.39134 -0.740242 0
M  V30 5742 C 525.973 -1.35803 -1.49673 0
M  V30 5743 C 526.294 0.0470897 -1.94943 0
M  V30 5744 O 525.564 0.997347 -1.68611 0
M  V30 5745 H 524.144 -0.499736 -0.555224 0
M  V30 5746 H 526.806 -1.73947 -0.879107 0
M  V30 5747 H 525.902 -2.0174 -2.38133 0
M  V30 5748 N 526.204 0.969867 -1.24223 0
M  V30 5749 C 527.134 2.08191 -1.05729 0
M  V30 5750 C 528.115 1.70075 0.0290765 0
M  V30 5751 O 529.3 1.93712 -0.137583 0
M  V30 5752 C 526.43 3.40991 -0.658995 0
M  V30 5753 C 525.384 3.93054 -1.69389 0
M  V30 5754 C 524.71 5.22171 -1.15072 0
M  V30 5755 C 526.01 4.21137 -3.08935 0
M  V30 5756 H 527.704 2.23921 -1.98746 0
M  V30 5757 H 525.25 1.07602 -0.956967 0
M  V30 5758 H 527.203 4.18221 -0.51662 0
M  V30 5759 H 525.927 3.25155 0.30686 0
M  V30 5760 H 524.586 3.17977 -1.82444 0
M  V30 5761 H 524.234 5.02694 -0.175539 0
M  V30 5762 H 523.934 5.57973 -1.84229 0
M  V30 5763 H 525.458 6.02013 -1.02042 0
M  V30 5764 H 526.872 4.8908 -2.99121 0
M  V30 5765 H 525.269 4.68163 -3.75425 0
M  V30 5766 H 526.339 3.27996 -3.57137 0
M  V30 5767 N 527.682 1.05563 1.17022 0
M  V30 5768 C 529.093 0.793475 1.69 0
M  V30 5769 C 529.444 -0.683882 1.83895 0
M  V30 5770 O 528.569 -1.53116 1.5292 0
M  V30 5771 C 529.164 1.43376 3.06967 0
M  V30 5772 C 527.723 1.21956 3.56095 0
M  V30 5773 C 526.87 1.51494 2.3226 0
M  V30 5774 H 529.821 1.22008 1.01487 0
M  V30 5775 H 529.842 0.845068 3.70997 0
M  V30 5776 H 529.354 2.50899 2.96093 0
M  V30 5777 H 527.455 0.163749 3.7224 0
M  V30 5778 H 527.568 1.92713 4.38633 0
M  V30 5779 H 525.932 0.935175 2.3691 0
M  V30 5780 H 526.715 2.60159 2.23992 0
M  V30 5781 N 529.16 -1.33526 0.837174 0
M  V30 5782 C 530.406 -1.9813 0.432704 0
M  V30 5783 C 530.739 -1.66168 -1.00508 0
M  V30 5784 O 530.014 -0.94069 -1.70239 0
M  V30 5785 C 530.297 -3.54151 0.651834 0
M  V30 5786 C 530.15 -3.95806 2.13676 0
M  V30 5787 C 531.469 -4.39993 0.0968937 0
M  V30 5788 H 528.588 -0.719713 0.15869 0
M  V30 5789 H 531.23 -1.58193 1.05237 0
M  V30 5790 H 529.38 -3.88301 0.124369 0
M  V30 5791 H 531.052 -3.71921 2.72896 0
M  V30 5792 H 529.295 -3.45599 2.62191 0
M  V30 5793 H 529.966 -5.0447 2.24084 0
M  V30 5794 H 532.442 -4.12479 0.547733 0
M  V30 5795 H 531.318 -5.48186 0.279917 0
M  V30 5796 H 531.579 -4.3066 -0.9992 0
M  V30 5797 N 530.638 -0.59345 -1.46 0
M  V30 5798 C 531.586 0.146268 -2.3214 0
M  V30 5799 C 532.58 0.873743 -1.45128 0
M  V30 5800 O 533.786 0.790912 -1.61693 0
M  V30 5801 H 530.161 0.0660349 -0.749095 0
M  V30 5802 H 532.132 -0.598895 -2.92328 0
M  V30 5803 C 530.881 1.1396 -3.28494 0
M  V30 5804 H 530.204 0.589252 -3.95434 0
M  V30 5805 H 531.644 1.62738 -3.91526 0
M  V30 5806 C 530.103 2.20604 -2.54628 0
M  V30 5807 O 530.633 3.28128 -2.31722 0
M  V30 5808 N 528.839 1.95502 -2.15005 0
M  V30 5809 H 528.386 1.0807 -2.33834 0
M  V30 5810 H 528.344 2.67064 -1.65904 0
M  V30 5811 N 532.116 1.54067 -0.331816 0
M  V30 5812 C 533.363 2.00715 0.268269 0
M  V30 5813 C 533.691 1.21986 1.51491 0
M  V30 5814 O 532.946 0.292309 1.93505 0
M  V30 5815 C 533.245 3.51634 0.639392 0
M  V30 5816 C 532.911 4.48018 -0.509019 0
M  V30 5817 C 531.573 4.74089 -0.824209 0
M  V30 5818 C 533.925 5.05237 -1.28003 0
M  V30 5819 C 531.253 5.54637 -1.91298 0
M  V30 5820 C 533.605 5.86972 -2.35895 0
M  V30 5821 C 532.269 6.11342 -2.67987 0
M  V30 5822 H 531.539 0.734469 0.0981667 0
M  V30 5823 H 534.186 1.8596 -0.457304 0
M  V30 5824 H 532.491 3.6416 1.44551 0
M  V30 5825 H 534.188 3.85175 1.11539 0
M  V30 5826 H 530.778 4.27851 -0.253287 0
M  V30 5827 H 534.962 4.8507 -1.04978 0
M  V30 5828 H 530.218 5.71747 -2.16599 0
M  V30 5829 H 534.392 6.30327 -2.96076 0
M  V30 5830 H 532.019 6.73544 -3.5248 0
M  V30 5831 N 533.594 0.0601682 1.57485 0
M  V30 5832 C 534.526 -0.94047 2.09016 0
M  V30 5833 C 535.539 -1.26897 1.01985 0
M  V30 5834 O 536.728 -1.22819 1.29529 0
M  V30 5835 C 533.828 -2.25955 2.52582 0
M  V30 5836 C 533.001 -2.11163 3.83052 0
M  V30 5837 C 532.06 -3.26273 4.12835 0
M  V30 5838 O 531.086 -3.01779 4.82616 0
M  V30 5839 N 532.288 -4.51022 3.65458 0
M  V30 5840 H 535.053 -0.500578 2.9549 0
M  V30 5841 H 532.614 -0.125852 1.6141 0
M  V30 5842 H 534.606 -3.01846 2.69575 0
M  V30 5843 H 533.176 -2.61481 1.71308 0
M  V30 5844 H 532.396 -1.19808 3.75552 0
M  V30 5845 H 533.684 -1.98517 4.68475 0
M  V30 5846 H 533.082 -4.73811 3.09062 0
M  V30 5847 H 531.639 -5.23978 3.87673 0
M  V30 5848 N 535.072 -1.5615 -0.213296 0
M  V30 5849 C 536.035 -1.92249 -1.24792 0
M  V30 5850 C 537.035 -0.801828 -1.39382 0
M  V30 5851 O 538.225 -1.06948 -1.37506 0
M  V30 5852 C 535.357 -2.18056 -2.62039 0
M  V30 5853 H 536.55 -2.84793 -0.939845 0
M  V30 5854 H 534.103 -1.49559 -0.454062 0
M  V30 5855 H 534.838 -1.2809 -2.97932 0
M  V30 5856 H 534.623 -2.99703 -2.52825 0
M  V30 5857 H 536.113 -2.47051 -3.36683 0
M  V30 5858 N 536.55 0.480323 -1.50102 0
M  V30 5859 C 537.796 1.23489 -1.60867 0
M  V30 5860 C 538.129 1.91809 -0.303827 0
M  V30 5861 O 537.404 1.81694 0.694092 0
M  V30 5862 C 537.687 2.28578 -2.78252 0
M  V30 5863 C 537.54 1.64624 -4.18592 0
M  V30 5864 C 538.859 3.2997 -2.91218 0
M  V30 5865 H 535.978 0.447605 -0.585507 0
M  V30 5866 H 538.62 0.530005 -1.82458 0
M  V30 5867 H 536.77 2.88697 -2.59974 0
M  V30 5868 H 538.442 1.08173 -4.48438 0
M  V30 5869 H 536.685 0.949645 -4.23278 0
M  V30 5870 H 537.356 2.40946 -4.96638 0
M  V30 5871 H 539.832 2.79864 -3.07921 0
M  V30 5872 H 538.708 4.00839 -3.74993 0
M  V30 5873 H 538.969 3.93541 -2.0144 0
M  V30 5874 N 538.028 1.39524 0.732853 0
M  V30 5875 C 538.958 1.41153 1.86005 0
M  V30 5876 C 539.939 0.274614 1.67869 0
M  V30 5877 O 541.124 0.480745 1.88155 0
M  V30 5878 C 538.254 1.25638 3.23778 0
M  V30 5879 C 537.208 2.36752 3.56556 0
M  V30 5880 C 536.534 2.06326 4.93289 0
M  V30 5881 C 537.834 3.79069 3.5931 0
M  V30 5882 H 539.528 2.35484 1.84899 0
M  V30 5883 H 537.074 1.13348 0.888162 0
M  V30 5884 H 539.027 1.25398 4.0231 0
M  V30 5885 H 537.751 0.277772 3.25417 0
M  V30 5886 H 536.41 2.36213 2.80355 0
M  V30 5887 H 536.058 1.06897 4.9151 0
M  V30 5888 H 535.758 2.80757 5.16187 0
M  V30 5889 H 537.282 2.07739 5.74175 0
M  V30 5890 H 538.696 3.81526 4.27914 0
M  V30 5891 H 537.093 4.52878 3.93728 0
M  V30 5892 H 538.163 4.09893 2.59068 0
M  V30 5893 N 539.506 -0.963266 1.24736 0
M  V30 5894 C 540.436 -2.07628 1.06832 0
M  V30 5895 C 541.417 -1.70088 -0.0200566 0
M  V30 5896 O 542.602 -1.93636 0.147854 0
M  V30 5897 C 539.732 -3.40636 0.677069 0
M  V30 5898 C 538.686 -3.9215 1.71471 0
M  V30 5899 C 538.012 -5.21553 1.1784 0
M  V30 5900 C 539.312 -4.19493 3.11164 0
M  V30 5901 H 541.006 -2.22864 1.9993 0
M  V30 5902 H 538.552 -1.07093 0.96266 0
M  V30 5903 H 540.505 -4.17941 0.538792 0
M  V30 5904 H 539.229 -3.25313 -0.289612 0
M  V30 5905 H 537.888 -3.17005 1.84128 0
M  V30 5906 H 537.536 -5.02593 0.202195 0
M  V30 5907 H 537.236 -5.56988 1.87185 0
M  V30 5908 H 538.76 -6.01463 1.05233 0
M  V30 5909 H 540.174 -4.87487 3.01711 0
M  V30 5910 H 538.571 -4.66165 3.77902 0
M  V30 5911 H 539.641 -3.26097 3.58871 0
M  V30 5912 N 540.985 -1.06182 -1.16461 0
M  V30 5913 C 541.917 -0.629584 -2.20383 0
M  V30 5914 C 542.93 0.311834 -1.59786 0
M  V30 5915 O 544.119 0.103 -1.78203 0
M  V30 5916 C 541.219 0.0973695 -3.3876 0
M  V30 5917 C 540.392 -0.857252 -4.28917 0
M  V30 5918 C 539.451 -0.169749 -5.25926 0
M  V30 5919 O 538.477 -0.807044 -5.6345 0
M  V30 5920 N 539.679 1.08911 -5.70192 0
M  V30 5921 H 542.444 -1.52352 -2.58087 0
M  V30 5922 H 540.005 -0.944993 -1.31459 0
M  V30 5923 H 541.997 0.567676 -4.00699 0
M  V30 5924 H 540.567 0.893093 -2.99571 0
M  V30 5925 H 539.787 -1.50696 -3.64259 0
M  V30 5926 H 541.075 -1.50489 -4.86035 0
M  V30 5927 H 540.473 1.62703 -5.41797 0
M  V30 5928 H 539.03 1.50331 -6.34227 0
M  V30 5929 N 542.463 1.3308 -0.844243 0
M  V30 5930 C 543.874 1.7992 -0.498566 0
M  V30 5931 C 544.225 1.69808 0.982834 0
M  V30 5932 O 543.35 1.25051 1.7661 0
M  V30 5933 C 543.945 3.26677 -0.898204 0
M  V30 5934 C 542.504 3.71513 -0.604583 0
M  V30 5935 C 541.651 2.54393 -1.10362 0
M  V30 5936 H 544.602 1.20526 -1.03244 0
M  V30 5937 H 544.623 3.79918 -0.21039 0
M  V30 5938 H 544.135 3.34004 -1.97643 0
M  V30 5939 H 542.236 3.69708 0.46335 0
M  V30 5940 H 542.349 4.64755 -1.16358 0
M  V30 5941 H 540.713 2.49246 -0.524273 0
M  V30 5942 H 541.496 2.6448 -2.18873 0
M  V30 5943 N 543.941 0.601185 1.45683 0
M  V30 5944 C 544.891 -0.142686 2.27553 0
M  V30 5945 C 545.875 -0.844598 1.3695 0
M  V30 5946 O 547.067 -0.735644 1.60988 0
M  V30 5947 C 544.196 -1.14364 3.23691 0
M  V30 5948 C 543.282 -0.442894 4.21781 0
M  V30 5949 N 543.673 0.51189 5.03203 0
M  V30 5950 C 541.971 -0.691277 4.4061 0
M  V30 5951 C 542.672 0.92318 5.74328 0
M  V30 5952 N 541.648 0.268308 5.42937 0
M  V30 5953 H 545.45 0.590736 2.87902 0
M  V30 5954 H 542.964 0.424365 1.56757 0
M  V30 5955 H 544.961 -1.6909 3.8107 0
M  V30 5956 H 543.621 -1.87768 2.64902 0
M  V30 5957 H 544.632 0.888329 5.10225 0
M  V30 5958 H 541.309 -1.41049 3.92952 0
M  V30 5959 H 542.699 1.71029 6.49768 0
M  V30 5960 N 545.419 -1.53889 0.339982 0
M  V30 5961 C 546.366 -2.24902 -0.518452 0
M  V30 5962 C 547.336 -1.24593 -1.09844 0
M  V30 5963 O 548.521 -1.53317 -1.13572 0
M  V30 5964 C 545.661 -3.02262 -1.66529 0
M  V30 5965 C 544.774 -4.17418 -1.11295 0
M  V30 5966 C 543.909 -4.82273 -2.2268 0
M  V30 5967 C 542.948 -5.89503 -1.6478 0
M  V30 5968 N 542.085 -6.48153 -2.69893 0
M  V30 5969 H 546.925 -2.97853 0.0936579 0
M  V30 5970 H 544.462 -1.46986 0.0579924 0
M  V30 5971 H 546.42 -3.45371 -2.3404 0
M  V30 5972 H 545.05 -2.31614 -2.24844 0
M  V30 5973 H 544.102 -3.78976 -0.328886 0
M  V30 5974 H 545.414 -4.94554 -0.649414 0
M  V30 5975 H 544.568 -5.28435 -2.98063 0
M  V30 5976 H 543.307 -4.04552 -2.72376 0
M  V30 5977 H 542.312 -5.42728 -0.879004 0
M  V30 5978 H 543.537 -6.6913 -1.1594 0
M  V30 5979 H 541.483 -5.73298 -3.1885 0
M  V30 5980 H 541.4 -7.20752 -2.28151 0
M  V30 5981 H 542.668 -6.98968 -3.45056 0
M  V30 5982 N 546.897 -0.0685191 -1.57451 0
M  V30 5983 C 547.844 0.899861 -2.12535 0
M  V30 5984 C 548.814 1.29749 -1.03703 0
M  V30 5985 O 549.999 1.38392 -1.31348 0
M  V30 5986 C 547.139 2.16328 -2.6888 0
M  V30 5987 C 546.252 1.81857 -3.91857 0
M  V30 5988 C 545.387 3.02786 -4.36457 0
M  V30 5989 C 544.426 2.64317 -5.5209 0
M  V30 5990 N 543.563 3.77994 -5.91663 0
M  V30 5991 H 548.403 0.423243 -2.94979 0
M  V30 5992 H 545.94 0.197268 -1.45771 0
M  V30 5993 H 547.898 2.90281 -2.99655 0
M  V30 5994 H 546.528 2.61536 -1.89206 0
M  V30 5995 H 545.58 0.979808 -3.67565 0
M  V30 5996 H 546.892 1.49553 -4.75852 0
M  V30 5997 H 546.046 3.85021 -4.68875 0
M  V30 5998 H 544.785 3.38281 -3.51308 0
M  V30 5999 H 543.79 1.80503 -5.19325 0
M  V30 6000 H 545.015 2.29995 -6.38967 0
M  V30 6001 H 542.961 4.13258 -5.09464 0
M  V30 6002 H 542.878 3.49447 -6.7039 0
M  V30 6003 H 544.146 4.60818 -6.28703 0
M  V30 6004 N 548.375 1.56261 0.205012 0
M  V30 6005 C 549.6 1.84491 0.947512 0
M  V30 6006 C 550.025 0.650894 1.76479 0
M  V30 6007 O 549.383 -0.40035 1.76824 0
M  V30 6008 C 549.431 3.10863 1.82747 0
M  V30 6009 O 548.535 2.90719 2.925 0
M  V30 6010 H 547.876 0.607783 0.267386 0
M  V30 6011 H 550.406 2.03485 0.213323 0
M  V30 6012 H 550.416 3.41399 2.23407 0
M  V30 6013 H 549.091 3.97392 1.2269 0
M  V30 6014 H 547.668 2.71457 2.55667 0
M  V30 6015 N 549.853 -0.472356 1.50355 0
M  V30 6016 C 551.078 -1.25251 1.65309 0
M  V30 6017 C 551.503 -1.85081 0.335643 0
M  V30 6018 O 550.861 -1.67227 -0.700335 0
M  V30 6019 C 550.909 -2.3379 2.74544 0
M  V30 6020 O 550.013 -3.38401 2.35709 0
M  V30 6021 H 549.354 -0.368539 0.552336 0
M  V30 6022 H 551.884 -0.562271 1.96722 0
M  V30 6023 H 551.894 -2.79121 2.97583 0
M  V30 6024 H 550.569 -1.89614 3.70161 0
M  V30 6025 H 549.146 -2.9879 2.23112 0
M  V30 6026 N 551.331 -1.39911 -0.725443 0
M  V30 6027 C 552.559 -1.40949 -1.51463 0
M  V30 6028 C 552.974 -0.0065242 -1.88799 0
M  V30 6029 O 552.331 0.967163 -1.54765 0
M  V30 6030 C 552.382 -2.29119 -2.79619 0
M  V30 6031 O 552.103 -3.63952 -2.43866 0
M  V30 6032 C 553.604 -2.38642 -3.73584 0
M  V30 6033 H 550.824 -0.481091 -0.467752 0
M  V30 6034 H 553.368 -1.83843 -0.895651 0
M  V30 6035 H 551.523 -1.89612 -3.37826 0
M  V30 6036 H 551.937 -4.10677 -3.26258 0
M  V30 6037 H 553.411 -3.04563 -4.60375 0
M  V30 6038 H 553.888 -1.40846 -4.16004 0
M  V30 6039 H 554.494 -2.78659 -3.21293 0
M  V30 6040 N 552.809 0.956637 -1.25245 0
M  V30 6041 C 553.756 2.053 -1.05454 0
M  V30 6042 C 554.726 1.66062 0.0356889 0
M  V30 6043 O 555.911 1.90415 -0.121099 0
M  V30 6044 C 553.051 3.38391 -0.677191 0
M  V30 6045 C 552.164 3.90758 -1.84206 0
M  V30 6046 C 551.299 5.12165 -1.40926 0
M  V30 6047 C 550.338 5.56757 -2.54338 0
M  V30 6048 N 549.475 6.69376 -2.11848 0
M  V30 6049 H 554.315 2.21562 -1.99284 0
M  V30 6050 H 551.852 1.08578 -0.992434 0
M  V30 6051 H 553.81 4.1488 -0.43938 0
M  V30 6052 H 552.44 3.22021 0.224127 0
M  V30 6053 H 551.492 3.10808 -2.19323 0
M  V30 6054 H 552.804 4.19802 -2.69383 0
M  V30 6055 H 551.958 5.96065 -1.13098 0
M  V30 6056 H 550.697 4.84832 -0.528175 0
M  V30 6057 H 549.702 4.71423 -2.82913 0
M  V30 6058 H 550.927 5.861 -3.43022 0
M  V30 6059 H 548.873 6.43756 -1.26153 0
M  V30 6060 H 548.79 6.97927 -2.90574 0
M  V30 6061 H 550.058 7.5669 -1.87191 0
M  V30 6062 N 554.287 1.06798 1.15896 0
M  V30 6063 C 555.703 0.792423 1.38538 0
M  V30 6064 C 555.903 -0.60592 1.92174 0
M  V30 6065 O 554.959 -1.36561 2.12385 0
M  V30 6066 C 556.272 1.86157 2.36149 0
M  V30 6067 C 557.82 1.88567 2.49823 0
M  V30 6068 C 558.295 2.9455 3.5072 0
M  V30 6069 N 559.786 2.93616 3.58251 0
M  V30 6070 C 560.521 3.72267 4.36125 0
M  V30 6071 N 560.017 4.60751 5.17379 0
M  V30 6072 N 561.81 3.60637 4.31158 0
M  V30 6073 H 553.961 1.96993 0.794198 0
M  V30 6074 H 556.224 0.853942 0.411688 0
M  V30 6075 H 555.93 2.86603 2.03843 0
M  V30 6076 H 555.804 1.71692 3.3586 0
M  V30 6077 H 558.191 0.887765 2.8143 0
M  V30 6078 H 558.272 2.0711 1.5013 0
M  V30 6079 H 557.916 3.94537 3.19849 0
M  V30 6080 H 557.846 2.73255 4.50155 0
M  V30 6081 H 560.337 2.29472 3.00252 0
M  V30 6082 H 560.65 5.17408 5.74028 0
M  V30 6083 H 558.995 4.64803 5.16704 0
M  V30 6084 H 562.186 2.90892 3.66742 0
M  V30 6085 H 562.359 4.22176 4.91601 0
M  V30 6086 N 555.766 -1.3263 0.851289 0
M  V30 6087 C 556.696 -2.31449 0.308771 0
M  V30 6088 C 557.677 -1.59531 -0.590255 0
M  V30 6089 O 558.862 -1.87351 -0.511205 0
M  V30 6090 C 555.992 -3.43586 -0.506548 0
M  V30 6091 C 554.946 -4.26963 0.297753 0
M  V30 6092 C 554.272 -5.30831 -0.642094 0
M  V30 6093 C 555.572 -4.99643 1.52166 0
M  V30 6094 H 557.266 -2.77074 1.13447 0
M  V30 6095 H 554.812 -1.33207 0.546971 0
M  V30 6096 H 556.765 -4.11754 -0.896474 0
M  V30 6097 H 555.489 -2.96681 -1.36558 0
M  V30 6098 H 554.148 -3.60437 0.669391 0
M  V30 6099 H 553.796 -4.8018 -1.49788 0
M  V30 6100 H 553.496 -5.87501 -0.107968 0
M  V30 6101 H 555.02 -6.01862 -1.02927 0
M  V30 6102 H 556.434 -5.6051 1.20421 0
M  V30 6103 H 554.831 -5.66022 1.99347 0
M  V30 6104 H 555.901 -4.27701 2.28474 0
M  V30 6105 N 557.244 -0.608902 -1.45362 0
M  V30 6106 C 558.66 -0.272659 -1.57254 0
M  V30 6107 C 558.86 1.22477 -1.60005 0
M  V30 6108 O 557.916 2.00785 -1.53106 0
M  V30 6109 C 559.229 -0.944991 -2.85465 0
M  V30 6110 C 560.777 -0.921033 -2.99142 0
M  V30 6111 C 561.252 -1.5734 -4.30126 0
M  V30 6112 N 562.743 -1.53895 -4.36887 0
M  V30 6113 C 563.478 -2.01286 -5.36909 0
M  V30 6114 N 562.974 -2.56768 -6.43461 0
M  V30 6115 N 564.767 -1.92046 -5.28275 0
M  V30 6116 H 556.918 -1.58117 -1.4182 0
M  V30 6117 H 559.181 -0.662437 -0.678146 0
M  V30 6118 H 558.887 -1.99941 -2.89338 0
M  V30 6119 H 558.761 -0.469079 -3.74272 0
M  V30 6120 H 561.148 0.124846 -2.94836 0
M  V30 6121 H 561.229 -1.43522 -2.11743 0
M  V30 6122 H 560.873 -2.61862 -4.35191 0
M  V30 6123 H 560.803 -1.03422 -5.16344 0
M  V30 6124 H 563.294 -1.13366 -3.60495 0
M  V30 6125 H 563.607 -2.9072 -7.16032 0
M  V30 6126 H 561.952 -2.60808 -6.44208 0
M  V30 6127 H 565.143 -1.48439 -4.43941 0
M  V30 6128 H 565.316 -2.29293 -6.06077 0
M  V30 6129 N 558.722 1.53707 -0.348139 0
M  V30 6130 C 559.632 2.28881 0.514857 0
M  V30 6131 C 560.648 1.34168 1.10793 0
M  V30 6132 O 561.824 1.6721 1.12262 0
M  V30 6133 C 558.889 3.05042 1.64774 0
M  V30 6134 C 557.95 4.15389 1.08398 0
M  V30 6135 C 557.183 4.87909 2.16287 0
M  V30 6136 O 557.406 4.60137 3.3709 0
M  V30 6137 O 556.34 5.74254 1.80323 0
M  V30 6138 H 560.166 3.03547 -0.0963699 0
M  V30 6139 H 557.751 1.48972 -0.113043 0
M  V30 6140 H 559.633 3.52656 2.30677 0
M  V30 6141 H 558.308 2.33228 2.24469 0
M  V30 6142 H 557.215 3.72068 0.389341 0
M  V30 6143 H 558.548 4.89318 0.531829 0
M  V30 6144 N 560.2 0.0768682 1.57412 0
M  V30 6145 C 561.446 -0.591961 1.93968 0
M  V30 6146 C 561.779 -1.68954 0.9575 0
M  V30 6147 O 561.054 -1.94496 -0.0124675 0
M  V30 6148 C 561.337 -1.16418 3.40762 0
M  V30 6149 C 561.19 -0.0728933 4.49741 0
M  V30 6150 C 562.509 -2.06814 3.88479 0
M  V30 6151 H 559.628 -0.213716 0.705333 0
M  V30 6152 H 562.27 0.14387 1.89455 0
M  V30 6153 H 560.42 -1.79128 3.4474 0
M  V30 6154 H 562.092 0.560446 4.57883 0
M  V30 6155 H 560.335 0.595859 4.29688 0
M  V30 6156 H 561.006 -0.513755 5.49604 0
M  V30 6157 H 563.482 -1.54033 3.8654 0
M  V30 6158 H 562.358 -2.43785 4.91793 0
M  V30 6159 H 562.619 -2.97844 3.26713 0
M  V30 6160 N 561.678 -1.56367 -0.196722 0
M  V30 6161 C 562.608 -1.97442 -1.24655 0
M  V30 6162 C 563.589 -0.846147 -1.47561 0
M  V30 6163 O 564.774 -1.11035 -1.59326 0
M  V30 6164 C 561.904 -2.31253 -2.59112 0
M  V30 6165 C 560.858 -3.46804 -2.50821 0
M  V30 6166 C 560.184 -3.66286 -3.89536 0
M  V30 6167 C 561.484 -4.8104 -2.03465 0
M  V30 6168 H 563.178 -2.85388 -0.905216 0
M  V30 6169 H 560.724 -1.37304 -0.434002 0
M  V30 6170 H 562.677 -2.58583 -3.32736 0
M  V30 6171 H 561.401 -1.40188 -2.94983 0
M  V30 6172 H 560.06 -3.19563 -1.79653 0
M  V30 6173 H 559.708 -2.72555 -4.22756 0
M  V30 6174 H 559.408 -4.4402 -3.84864 0
M  V30 6175 H 560.932 -3.9599 -4.64784 0
M  V30 6176 H 562.346 -5.07411 -2.66846 0
M  V30 6177 H 560.743 -5.62232 -2.09798 0
M  V30 6178 H 561.813 -4.74732 -0.98781 0
M  V30 6179 N 563.156 0.464375 -1.50603 0
M  V30 6180 C 564.104 1.58224 -1.70493 0
M  V30 6181 C 565.098 1.59492 -0.570836 0
M  V30 6182 O 566.304 1.63561 -0.751517 0
M  V30 6183 H 562.679 0.525161 -0.538247 0
M  V30 6184 H 564.65 1.38613 -2.64252 0
M  V30 6185 C 563.399 2.96113 -1.82243 0
M  V30 6186 H 562.722 2.95858 -2.68901 0
M  V30 6187 H 564.162 3.73769 -2.00182 0
M  V30 6188 C 562.621 3.31946 -0.575628 0
M  V30 6189 O 563.151 4.00708 0.282152 0
M  V30 6190 N 561.357 2.87436 -0.427665 0
M  V30 6191 H 560.904 2.31652 -1.12674 0
M  V30 6192 H 560.862 3.11776 0.405379 0
M  V30 6193 N 564.634 1.40294 0.718013 0
M  V30 6194 C 565.859 1.41941 1.5122 0
M  V30 6195 C 566.284 0.0202371 1.88089 0
M  V30 6196 O 565.642 -0.971078 1.53101 0
M  V30 6197 C 565.69 2.3141 2.76554 0
M  V30 6198 O 564.794 1.75567 3.73162 0
M  V30 6199 H 564.135 0.482644 0.456016 0
M  V30 6200 H 566.665 1.84494 0.884478 0
M  V30 6201 H 566.675 2.46513 3.25108 0
M  V30 6202 H 565.35 3.33085 2.49053 0
M  V30 6203 H 563.927 1.69798 3.31999 0
M  V30 6204 N 566.112 -0.949982 1.2575 0
M  V30 6205 C 567.358 -1.69766 1.10938 0
M  V30 6206 C 567.691 -1.91056 -0.348028 0
M  V30 6207 O 566.966 -1.48488 -1.25625 0
M  V30 6208 C 567.249 -3.07779 1.86933 0
M  V30 6209 C 567.102 -2.9387 3.4053 0
M  V30 6210 C 568.421 -4.07749 1.65616 0
M  V30 6211 H 565.54 -0.616144 0.404396 0
M  V30 6212 H 568.182 -1.10394 1.54639 0
M  V30 6213 H 566.332 -3.58462 1.4979 0
M  V30 6214 H 568.004 -2.50476 3.87375 0
M  V30 6215 H 566.247 -2.29686 3.68004 0
M  V30 6216 H 566.918 -3.91719 3.88922 0
M  V30 6217 H 569.394 -3.65994 1.97959 0
M  V30 6218 H 568.27 -5.02348 2.21218 0
M  V30 6219 H 568.531 -4.38029 0.598595 0
M  V30 6220 N 567.59 -1.07411 -1.15328 0
M  V30 6221 C 568.837 -0.797649 -1.86128 0
M  V30 6222 C 569.165 0.676298 -1.82364 0
M  V30 6223 O 568.42 1.51223 -1.24218 0
M  V30 6224 C 568.719 -1.25191 -3.34757 0
M  V30 6225 C 568.385 -2.73191 -3.58716 0
M  V30 6226 C 567.047 -3.13616 -3.64964 0
M  V30 6227 C 569.399 -3.68718 -3.6837 0
M  V30 6228 C 566.727 -4.48383 -3.78377 0
M  V30 6229 C 569.079 -5.03248 -3.83306 0
M  V30 6230 C 567.743 -5.43293 -3.878 0
M  V30 6231 H 567.013 -0.29188 -0.681092 0
M  V30 6232 H 569.66 -1.34524 -1.36292 0
M  V30 6233 H 567.965 -0.623712 -3.86804 0
M  V30 6234 H 569.662 -1.01489 -3.87945 0
M  V30 6235 H 566.252 -2.40898 -3.54494 0
M  V30 6236 H 570.436 -3.38614 -3.62842 0
M  V30 6237 H 565.692 -4.78877 -3.80114 0
M  V30 6238 H 569.866 -5.77142 -3.89718 0
M  V30 6239 H 567.493 -6.47721 -3.97946 0
M  V30 6240 N 569.068 1.32177 -0.85831 0
M  V30 6241 C 570.484 1.49873 -0.548656 0
M  V30 6242 C 570.684 1.79278 0.919874 0
M  V30 6243 O 569.74 1.86451 1.70271 0
M  V30 6244 C 571.053 2.64043 -1.4388 0
M  V30 6245 C 572.601 2.77928 -1.43961 0
M  V30 6246 C 573.076 3.95182 -2.31506 0
M  V30 6247 N 574.567 4.0245 -2.29321 0
M  V30 6248 C 575.302 4.9242 -2.93786 0
M  V30 6249 N 574.798 5.87373 -3.67376 0
M  V30 6250 N 576.591 4.85572 -2.83155 0
M  V30 6251 H 568.742 1.11357 -1.80868 0
M  V30 6252 H 571.005 0.549175 -0.772729 0
M  V30 6253 H 570.711 2.49055 -2.48324 0
M  V30 6254 H 570.585 3.59912 -1.12885 0
M  V30 6255 H 572.972 2.92338 -0.402813 0
M  V30 6256 H 573.053 1.82762 -1.78974 0
M  V30 6257 H 572.697 3.81531 -3.35256 0
M  V30 6258 H 572.627 4.89633 -1.93823 0
M  V30 6259 H 575.118 3.34507 -1.75822 0
M  V30 6260 H 575.431 6.52728 -4.13722 0
M  V30 6261 H 573.776 5.87388 -3.71484 0
M  V30 6262 H 576.967 4.10363 -2.25211 0
M  V30 6263 H 577.14 5.55486 -3.33676 0
M  V30 6264 N 570.547 0.616602 1.45037 0
M  V30 6265 C 571.497 -0.118543 2.27692 0
M  V30 6266 C 572.481 -0.830025 1.37838 0
M  V30 6267 O 573.673 -0.718528 1.6176 0
M  V30 6268 C 570.802 -1.10924 3.24886 0
M  V30 6269 C 569.888 -0.398134 4.22227 0
M  V30 6270 N 570.279 0.565233 5.02632 0
M  V30 6271 C 568.577 -0.644506 4.41319 0
M  V30 6272 C 569.278 0.984043 5.73316 0
M  V30 6273 N 568.254 0.325879 5.42622 0
M  V30 6274 H 572.056 0.621239 2.87259 0
M  V30 6275 H 569.57 0.440968 1.56299 0
M  V30 6276 H 571.567 -1.65038 3.82842 0
M  V30 6277 H 570.227 -1.84948 2.66879 0
M  V30 6278 H 571.238 0.942395 5.09254 0
M  V30 6279 H 567.915 -1.36873 3.94426 0
M  V30 6280 H 569.305 1.77911 6.47918 0
M  V30 6281 N 572.025 -1.5352 0.356285 0
M  V30 6282 C 572.955 -2.28372 -0.486661 0
M  V30 6283 C 573.936 -1.30432 -1.09185 0
M  V30 6284 O 575.121 -1.59291 -1.11085 0
M  V30 6285 C 572.251 -3.06604 -1.63129 0
M  V30 6286 C 571.205 -4.12154 -1.15381 0
M  V30 6287 C 570.531 -4.78415 -2.38796 0
M  V30 6288 C 571.831 -5.21724 -0.245179 0
M  V30 6289 H 573.525 -2.99083 0.137797 0
M  V30 6290 H 571.071 -1.43841 0.0677134 0
M  V30 6291 H 573.024 -3.57712 -2.22755 0
M  V30 6292 H 571.748 -2.33568 -2.28284 0
M  V30 6293 H 570.407 -3.61978 -0.580294 0
M  V30 6294 H 570.055 -4.01959 -3.02387 0
M  V30 6295 H 569.755 -5.49734 -2.07524 0
M  V30 6296 H 571.279 -5.32313 -2.99125 0
M  V30 6297 H 572.693 -5.68391 -0.748646 0
M  V30 6298 H 571.09 -6.00095 -0.0237608 0
M  V30 6299 H 572.16 -4.79596 0.715229 0
M  V30 6300 N 573.503 -0.0852151 -1.57369 0
M  V30 6301 C 574.78 0.622534 -1.85429 0
M  V30 6302 C 575.16 1.86962 -0.980229 0
M  V30 6303 O 574.508 2.28445 -0.0500219 0
M  V30 6304 C 574.718 0.947374 -3.35896 0
M  V30 6305 C 576.066 1.31509 -4.03721 0
M  V30 6306 O 577.09 1.03869 -3.40719 0
M  V30 6307 O 575.949 1.83231 -5.14868 0
M  V30 6308 H 573.043 0.310513 -0.766492 0
M  V30 6309 H 575.589 -0.117164 -1.69295 0
M  V30 6310 H 574.361 0.0622264 -3.91251 0
M  V30 6311 H 573.984 1.74338 -3.5734 0
M  V30 6312 N 574.981 1.5647 0.188427 0
M  V30 6313 C 575.891 1.98285 1.2538 0
M  V30 6314 C 576.907 0.891535 1.49424 0
M  V30 6315 O 578.083 1.19782 1.61908 0
M  V30 6316 C 575.148 2.31965 2.57669 0
M  V30 6317 C 574.209 3.54838 2.41638 0
M  V30 6318 C 573.442 3.86901 3.67618 0
M  V30 6319 O 573.665 3.20163 4.72072 0
M  V30 6320 O 572.599 4.80309 3.62749 0
M  V30 6321 H 576.425 2.89145 0.928912 0
M  V30 6322 H 574.01 1.44112 0.393955 0
M  V30 6323 H 575.892 2.54673 3.35737 0
M  V30 6324 H 574.567 1.44271 2.89771 0
M  V30 6325 H 573.474 3.37369 1.61658 0
M  V30 6326 H 574.807 4.43019 2.14465 0
M  V30 6327 N 576.459 -0.456382 1.50847 0
M  V30 6328 C 577.705 -1.20914 1.62811 0
M  V30 6329 C 578.038 -1.91301 0.334304 0
M  V30 6330 O 577.313 -1.82775 -0.665098 0
M  V30 6331 C 577.596 -2.24122 2.81853 0
M  V30 6332 C 577.449 -1.57944 4.21158 0
M  V30 6333 C 578.768 -3.25295 2.96431 0
M  V30 6334 H 575.887 -0.438233 0.592554 0
M  V30 6335 H 578.529 -0.50091 1.83278 0
M  V30 6336 H 576.679 -2.84524 2.64534 0
M  V30 6337 H 578.351 -1.01025 4.50102 0
M  V30 6338 H 576.594 -0.882185 4.24735 0
M  V30 6339 H 577.265 -2.33014 5.00408 0
M  V30 6340 H 579.741 -2.7493 3.12335 0
M  V30 6341 H 578.617 -3.94822 3.81322 0
M  V30 6342 H 578.878 -3.90286 2.07676 0
M  V30 6343 N 577.937 -1.40673 -0.710563 0
M  V30 6344 C 578.9 -1.4108 -1.80635 0
M  V30 6345 C 579.9 -0.303783 -1.57904 0
M  V30 6346 O 581.09 -0.562937 -1.64853 0
M  V30 6347 C 578.222 -1.20748 -3.18799 0
M  V30 6348 H 579.415 -2.38612 -1.81671 0
M  V30 6349 H 576.968 -1.26595 -0.916704 0
M  V30 6350 H 577.703 -0.239964 -3.23411 0
M  V30 6351 H 577.488 -2.00941 -3.36698 0
M  V30 6352 H 578.978 -1.23833 -3.98817 0
M  V30 6353 N 579.415 0.9433 -1.26252 0
M  V30 6354 C 580.378 2.02326 -1.07689 0
M  V30 6355 C 581.378 1.60779 -0.0259174 0
M  V30 6356 O 582.568 1.72108 -0.269134 0
M  V30 6357 C 579.7 3.34886 -0.63752 0
M  V30 6358 H 580.893 2.20225 -2.0357 0
M  V30 6359 H 578.446 1.12197 -1.08819 0
M  V30 6360 H 579.181 3.22684 0.323377 0
M  V30 6361 H 578.966 3.66393 -1.39637 0
M  V30 6362 H 580.456 4.14231 -0.529418 0
M  V30 6363 N 580.893 1.08022 1.14757 0
M  V30 6364 C 582.121 0.828847 1.89572 0
M  V30 6365 C 582.536 -0.618621 1.78377 0
M  V30 6366 O 581.893 -1.42482 1.1404 0
M  V30 6367 C 581.944 1.23677 3.39685 0
M  V30 6368 O 581.665 2.62746 3.50566 0
M  V30 6369 C 583.166 1.01569 4.31507 0
M  V30 6370 H 580.386 0.299196 0.600602 0
M  V30 6371 H 582.93 1.43846 1.45357 0
M  V30 6372 H 581.085 0.671347 3.81539 0
M  V30 6373 H 581.499 2.79573 4.43778 0
M  V30 6374 H 582.973 1.35055 5.35223 0
M  V30 6375 H 583.45 -0.0475433 4.39174 0
M  V30 6376 H 584.056 1.56636 3.95405 0
M  V30 6377 N 582.371 -1.3172 0.865308 0
M  V30 6378 C 583.596 -2.01591 0.487415 0
M  V30 6379 C 584.021 -1.6455 -0.911307 0
M  V30 6380 O 583.379 -0.851689 -1.6005 0
M  V30 6381 C 583.427 -3.54759 0.646401 0
M  V30 6382 O 582.531 -4.11185 -0.316284 0
M  V30 6383 H 581.872 -0.634884 0.194468 0
M  V30 6384 H 584.402 -1.68024 1.16744 0
M  V30 6385 H 584.412 -4.04438 0.537932 0
M  V30 6386 H 583.087 -3.8106 1.66632 0
M  V30 6387 H 581.664 -3.72543 -0.163162 0
M  V30 6388 N 583.85 -0.624285 -1.44708 0
M  V30 6389 C 585.099 -0.123539 -2.01321 0
M  V30 6390 C 585.412 1.25966 -1.49639 0
M  V30 6391 O 586.618 1.85405 -1.98336 0
M  V30 6392 C 585.074 -0.170124 -3.59498 0
M  V30 6393 C 584.682 -1.55421 -4.20176 0
M  V30 6394 C 586.426 0.274513 -4.23611 0
M  V30 6395 C 584.332 -1.55628 -5.70556 0
M  V30 6396 H 583.263 -0.0424183 -0.752806 0
M  V30 6397 H 585.913 -0.782076 -1.65999 0
M  V30 6398 H 584.296 0.555385 -3.92086 0
M  V30 6399 H 585.47 -2.30276 -3.99136 0
M  V30 6400 H 583.784 -1.94235 -3.68323 0
M  V30 6401 H 586.382 0.292402 -5.339 0
M  V30 6402 H 586.725 1.3005 -3.95465 0
M  V30 6403 H 587.258 -0.398275 -3.95801 0
M  V30 6404 H 583.997 -2.56041 -6.03426 0
M  V30 6405 H 583.517 -0.850563 -5.93739 0
M  V30 6406 H 585.196 -1.28721 -6.34066 0
M  V30 6407 N 585.328 1.53329 -0.364422 0
M  V30 6408 C 586.258 2.28627 0.474543 0
M  V30 6409 C 587.239 1.31009 1.08492 0
M  V30 6410 O 588.424 1.59878 1.10239 0
M  V30 6411 C 585.554 3.07465 1.61501 0
M  V30 6412 C 584.508 4.1276 1.13194 0
M  V30 6413 C 583.834 4.79674 2.36255 0
M  V30 6414 C 585.134 5.21847 0.217507 0
M  V30 6415 H 586.828 2.99005 -0.153656 0
M  V30 6416 H 584.374 1.43803 -0.0753406 0
M  V30 6417 H 586.327 3.58889 2.20855 0
M  V30 6418 H 585.051 2.34775 2.27042 0
M  V30 6419 H 583.71 3.62281 0.56109 0
M  V30 6420 H 583.358 4.03557 3.00251 0
M  V30 6421 H 583.058 5.50827 2.04606 0
M  V30 6422 H 584.582 5.33892 2.96297 0
M  V30 6423 H 585.996 5.6878 0.718493 0
M  V30 6424 H 584.393 6.00099 -0.00806408 0
M  V30 6425 H 585.463 4.7921 -0.740653 0
M  V30 6426 N 586.806 0.0935595 1.57322 0
M  V30 6427 C 588.083 -0.612692 1.85756 0
M  V30 6428 C 588.463 -1.86439 0.99013 0
M  V30 6429 O 587.811 -2.28416 0.0621362 0
M  V30 6430 C 588.021 -0.929547 3.36393 0
M  V30 6431 C 589.369 -1.29366 4.04413 0
M  V30 6432 O 590.393 -1.02061 3.41265 0
M  V30 6433 O 589.252 -1.80498 5.15832 0
M  V30 6434 H 586.346 -0.306444 0.768128 0
M  V30 6435 H 588.892 0.126141 1.69231 0
M  V30 6436 H 587.664 -0.0414766 3.91278 0
M  V30 6437 H 587.287 -1.72441 3.5826 0
M  V30 6438 N 588.284 -1.56567 -0.180126 0
M  V30 6439 C 589.247 -1.94852 -1.20686 0
M  V30 6440 C 590.247 -0.831212 -1.3765 0
M  V30 6441 O 591.437 -1.09841 -1.35206 0
M  V30 6442 C 588.569 -2.23565 -2.57355 0
M  V30 6443 H 589.762 -2.86722 -0.879225 0
M  V30 6444 H 587.315 -1.50489 -0.422237 0
M  V30 6445 H 588.05 -1.34381 -2.95148 0
M  V30 6446 H 587.835 -3.04999 -2.46411 0
M  V30 6447 H 589.325 -2.54137 -3.31367 0
M  V30 6448 N 589.762 0.448376 -1.51087 0
M  V30 6449 C 590.987 1.22605 -1.6728 0
M  V30 6450 C 591.412 1.84524 -0.365045 0
M  V30 6451 O 590.77 1.6832 0.673642 0
M  V30 6452 C 590.818 2.29393 -2.78229 0
M  V30 6453 O 589.922 3.34608 -2.41063 0
M  V30 6454 H 589.263 0.359705 -0.558129 0
M  V30 6455 H 591.793 0.530903 -1.97592 0
M  V30 6456 H 591.803 2.74352 -3.01986 0
M  V30 6457 H 590.478 1.83701 -3.73131 0
M  V30 6458 H 589.055 2.95202 -2.27838 0
M  V30 6459 N 591.24 1.41047 0.703093 0
M  V30 6460 C 592.486 1.40207 1.46526 0
M  V30 6461 C 592.819 0.00847763 1.94198 0
M  V30 6462 O 592.094 -0.962437 1.69019 0
M  V30 6463 C 592.377 2.40238 2.6825 0
M  V30 6464 C 592.23 3.88674 2.26391 0
M  V30 6465 C 593.549 2.37627 3.70434 0
M  V30 6466 H 590.668 0.510594 0.531472 0
M  V30 6467 H 593.31 1.72271 0.801422 0
M  V30 6468 H 591.46 2.13026 3.24888 0
M  V30 6469 H 593.132 4.2676 1.75138 0
M  V30 6470 H 591.375 4.03903 1.58255 0
M  V30 6471 H 592.046 4.542 3.13698 0
M  V30 6472 H 594.522 2.61759 3.23452 0
M  V30 6473 H 593.398 3.09645 4.53223 0
M  V30 6474 H 593.659 1.39223 4.19606 0
M  V30 6475 N 592.718 -0.936591 1.26751 0
M  V30 6476 C 593.628 -2.06949 1.10496 0
M  V30 6477 C 594.644 -1.7396 0.037271 0
M  V30 6478 O 595.82 -1.99941 0.241944 0
M  V30 6479 C 592.885 -3.38612 0.744491 0
M  V30 6480 C 591.946 -3.85355 1.89209 0
M  V30 6481 C 591.179 -5.10735 1.54873 0
M  V30 6482 O 591.402 -5.68602 0.452546 0
M  V30 6483 O 590.336 -5.52632 2.38499 0
M  V30 6484 H 594.162 -2.23571 2.05547 0
M  V30 6485 H 591.747 -1.05428 1.05855 0
M  V30 6486 H 593.629 -4.17711 0.556396 0
M  V30 6487 H 592.304 -3.23218 -0.176582 0
M  V30 6488 H 591.211 -3.07182 2.13518 0
M  V30 6489 H 592.544 -4.05277 2.79305 0
M  V30 6490 N 594.196 -1.08629 -1.14182 0
M  V30 6491 C 595.445 -0.812271 -1.84621 0
M  V30 6492 C 595.758 0.664313 -1.83973 0
M  V30 6493 O 596.964 1.05357 -2.50224 0
M  V30 6494 C 595.42 -1.4031 -3.31423 0
M  V30 6495 C 595.028 -2.91164 -3.40481 0
M  V30 6496 C 596.772 -1.20767 -4.06959 0
M  V30 6497 C 594.679 -3.43373 -4.81507 0
M  V30 6498 H 593.609 -0.30019 -0.691666 0
M  V30 6499 H 596.26 -1.30798 -1.28701 0
M  V30 6500 H 594.642 -0.835096 -3.87094 0
M  V30 6501 H 595.816 -3.5412 -2.94848 0
M  V30 6502 H 594.131 -3.09646 -2.78403 0
M  V30 6503 H 596.728 -1.57237 -5.11058 0
M  V30 6504 H 597.071 -0.147664 -4.16038 0
M  V30 6505 H 597.604 -1.74274 -3.57594 0
M  V30 6506 H 594.343 -4.48958 -4.77616 0
M  V30 6507 H 593.863 -2.85176 -5.27669 0
M  V30 6508 H 595.542 -3.40095 -5.50404 0
M  V30 6509 N 595.674 1.31259 -0.872281 0
M  V30 6510 C 597.085 1.78822 -0.536617 0
M  V30 6511 C 597.436 1.71855 0.946594 0
M  V30 6512 O 596.561 1.28769 1.73918 0
M  V30 6513 C 597.156 3.24698 -0.967294 0
M  V30 6514 C 595.715 3.70147 -0.683251 0
M  V30 6515 C 594.862 2.51994 -1.15733 0
M  V30 6516 H 597.813 1.18308 -1.05777 0
M  V30 6517 H 597.834 3.79386 -0.290929 0
M  V30 6518 H 597.346 3.29737 -2.04683 0
M  V30 6519 H 595.447 3.70607 0.384825 0
M  V30 6520 H 595.56 4.62183 -1.2619 0
M  V30 6521 H 593.924 2.48078 -0.577024 0
M  V30 6522 H 594.707 2.59778 -2.24434 0
M  V30 6523 N 597.152 0.631951 1.44375 0
M  V30 6524 C 598.4 0.136497 2.01639 0
M  V30 6525 C 598.721 -1.24637 1.49969 0
M  V30 6526 O 597.991 -1.82827 0.70363 0
M  V30 6527 H 596.571 0.0474703 0.74549 0
M  V30 6528 H 599.233 0.818837 1.76865 0
M  V30 6529 H 598.329 0.104817 3.11924 0
M  V30 6530 N 598.631 -1.53133 0.372548 0
M  V30 6531 C 599.561 -2.28876 -0.462412 0
M  V30 6532 C 600.542 -1.31583 -1.07796 0
M  V30 6533 O 601.727 -1.60461 -1.09389 0
M  V30 6534 C 598.857 -3.08317 -1.59868 0
M  V30 6535 C 597.811 -4.13355 -1.11003 0
M  V30 6536 C 597.137 -4.8092 -2.33708 0
M  V30 6537 C 598.437 -5.21955 -0.18983 0
M  V30 6538 H 600.131 -2.9892 0.169511 0
M  V30 6539 H 597.677 -1.43761 0.0829658 0
M  V30 6540 H 599.63 -3.60055 -2.18949 0
M  V30 6541 H 598.354 -2.35976 -2.25794 0
M  V30 6542 H 597.013 -3.62573 -0.541869 0
M  V30 6543 H 596.661 -4.05144 -2.98106 0
M  V30 6544 H 596.361 -5.51904 -2.01682 0
M  V30 6545 H 597.885 -5.35455 -2.93462 0
M  V30 6546 H 599.299 -5.69153 -0.688319 0
M  V30 6547 H 597.696 -6.00087 0.0398887 0
M  V30 6548 H 598.766 -4.78811 0.766057 0
M  V30 6549 N 600.109 -0.101901 -1.5727 0
M  V30 6550 C 601.041 0.884723 -2.11436 0
M  V30 6551 C 602.054 1.24149 -1.05314 0
M  V30 6552 O 603.243 1.19341 -1.3274 0
M  V30 6553 C 600.343 2.19179 -2.58484 0
M  V30 6554 C 599.516 2.00933 -3.88516 0
M  V30 6555 C 598.575 3.15213 -4.2134 0
M  V30 6556 O 597.601 2.88877 -4.90448 0
M  V30 6557 N 598.803 4.41174 -3.77288 0
M  V30 6558 H 601.568 0.422058 -2.96713 0
M  V30 6559 H 599.129 0.0830128 -1.61687 0
M  V30 6560 H 601.121 2.94593 -2.77484 0
M  V30 6561 H 599.691 2.56847 -1.7818 0
M  V30 6562 H 598.911 1.09809 -3.78597 0
M  V30 6563 H 600.199 1.86026 -4.73573 0
M  V30 6564 H 599.597 4.6545 -3.21516 0
M  V30 6565 H 598.154 5.13515 -4.01429 0
M  V30 6566 N 601.587 1.56661 0.17182 0
M  V30 6567 C 602.517 1.99401 1.21498 0
M  V30 6568 C 603.498 0.869516 1.46197 0
M  V30 6569 O 604.683 1.13556 1.57539 0
M  V30 6570 C 601.813 2.35346 2.55401 0
M  V30 6571 C 600.767 3.5075 2.45272 0
M  V30 6572 C 600.093 3.72437 3.8366 0
M  V30 6573 C 601.393 4.84216 1.95787 0
M  V30 6574 H 603.087 2.86792 0.859699 0
M  V30 6575 H 600.633 1.37977 0.412103 0
M  V30 6576 H 602.586 2.63843 3.2858 0
M  V30 6577 H 601.31 1.44864 2.92715 0
M  V30 6578 H 599.969 3.2238 1.74547 0
M  V30 6579 H 599.617 2.79246 4.18367 0
M  V30 6580 H 599.317 4.50087 3.77751 0
M  V30 6581 H 600.841 4.03334 4.58426 0
M  V30 6582 H 602.255 5.11592 2.5874 0
M  V30 6583 H 600.652 5.65498 2.00827 0
M  V30 6584 H 601.722 4.76243 0.912159 0
M  V30 6585 N 603.065 -0.440357 1.51323 0
M  V30 6586 C 604.013 -1.55492 1.72988 0
M  V30 6587 C 605.007 -1.58564 0.596138 0
M  V30 6588 O 606.213 -1.62345 0.777443 0
M  V30 6589 H 602.588 -0.516532 0.546533 0
M  V30 6590 H 604.559 -1.34392 2.66423 0
M  V30 6591 C 603.308 -2.93176 1.86931 0
M  V30 6592 H 602.631 -2.91543 2.73574 0
M  V30 6593 H 604.071 -3.70537 2.06103 0
M  V30 6594 C 602.53 -3.30988 0.628365 0
M  V30 6595 O 603.06 -4.01106 -0.218367 0
M  V30 6596 N 601.266 -2.86719 0.473339 0
M  V30 6597 H 600.813 -2.2983 1.16345 0
M  V30 6598 H 600.771 -3.12381 -0.355727 0
M  V30 6599 N 604.543 -1.41418 -0.695603 0
M  V30 6600 C 605.491 -1.43467 -1.83084 0
M  V30 6601 C 606.485 -0.312719 -1.66489 0
M  V30 6602 O 607.691 -0.484744 -1.7335 0
M  V30 6603 H 604.066 -0.448891 -0.603325 0
M  V30 6604 H 606.037 -2.39144 -1.78473 0
M  V30 6605 C 604.786 -1.3337 -3.21104 0
M  V30 6606 H 604.109 -2.18989 -3.3449 0
M  V30 6607 H 605.549 -1.38865 -4.00615 0
M  V30 6608 C 604.008 -0.0460484 -3.36869 0
M  V30 6609 O 604.538 0.909258 -3.91274 0
M  V30 6610 N 602.744 0.0300222 -2.90584 0
M  V30 6611 H 602.291 -0.748129 -2.46497 0
M  V30 6612 H 602.249 0.890991 -3.01511 0
M  V30 6613 N 606.021 0.929856 -1.27246 0
M  V30 6614 C 606.953 2.03434 -1.0558 0
M  V30 6615 C 607.966 1.62795 -0.0125762 0
M  V30 6616 O 609.155 1.76685 -0.2539 0
M  V30 6617 C 606.255 3.33915 -0.57912 0
M  V30 6618 C 605.428 4.03259 -1.69415 0
M  V30 6619 C 604.487 5.12014 -1.21357 0
M  V30 6620 O 603.513 5.36097 -1.91282 0
M  V30 6621 N 604.715 5.8046 -0.0680622 0
M  V30 6622 H 607.48 2.22583 -2.00691 0
M  V30 6623 H 605.041 1.1001 -1.18783 0
M  V30 6624 H 607.033 4.03978 -0.241563 0
M  V30 6625 H 605.603 3.11355 0.278703 0
M  V30 6626 H 604.823 3.26958 -2.20209 0
M  V30 6627 H 606.111 4.46337 -2.44255 0
M  V30 6628 H 605.509 5.63345 0.515626 0
M  V30 6629 H 604.066 6.51461 0.210332 0
M  V30 6630 N 607.499 1.09233 1.13605 0
M  V30 6631 C 608.776 0.739633 1.81077 0
M  V30 6632 C 609.156 -0.775595 1.96336 0
M  V30 6633 O 608.504 -1.69726 1.52988 0
M  V30 6634 C 608.714 1.47636 3.16235 0
M  V30 6635 C 610.062 1.64087 3.91613 0
M  V30 6636 O 611.086 1.43871 3.25852 0
M  V30 6637 O 609.945 1.97511 5.0956 0
M  V30 6638 H 607.039 0.265464 0.783236 0
M  V30 6639 H 609.585 1.19441 1.20549 0
M  V30 6640 H 608.357 2.50818 3.00344 0
M  V30 6641 H 607.98 1.01362 3.84462 0
M  V30 6642 N 608.977 -1.30795 0.87923 0
M  V30 6643 C 610.207 -2.00237 0.50881 0
M  V30 6644 C 610.615 -1.66115 -0.905682 0
M  V30 6645 O 609.958 -0.89138 -1.60624 0
M  V30 6646 C 610.02 -3.54508 0.597003 0
M  V30 6647 C 609.684 -4.12131 1.97477 0
M  V30 6648 C 610.681 -4.28552 2.94346 0
M  V30 6649 C 608.366 -4.47644 2.2786 0
M  V30 6650 C 610.36 -4.79689 4.19735 0
M  V30 6651 C 608.047 -4.98481 3.53496 0
M  V30 6652 C 609.045 -5.14456 4.49248 0
M  V30 6653 O 608.733 -5.64199 5.72656 0
M  V30 6654 H 608.465 -0.647026 0.195788 0
M  V30 6655 H 611.019 -1.67785 1.1848 0
M  V30 6656 H 609.249 -3.86461 -0.135945 0
M  V30 6657 H 610.938 -4.05198 0.238684 0
M  V30 6658 H 611.704 -4.01424 2.72183 0
M  V30 6659 H 607.583 -4.34481 1.54102 0
M  V30 6660 H 611.127 -4.92073 4.9448 0
M  V30 6661 H 607.024 -5.25044 3.75498 0
M  V30 6662 H 607.792 -5.82551 5.74957 0
M  V30 6663 N 610.455 -0.639598 -1.44038 0
M  V30 6664 C 611.702 -0.14748 -2.01962 0
M  V30 6665 C 612.03 1.23372 -1.50365 0
M  V30 6666 O 611.285 1.8345 -0.681501 0
M  V30 6667 C 611.584 -0.0925348 -3.5728 0
M  V30 6668 C 611.25 -1.41365 -4.28167 0
M  V30 6669 C 609.912 -1.77545 -4.47248 0
M  V30 6670 C 612.264 -2.2853 -4.68427 0
M  V30 6671 C 609.592 -3.00583 -5.03852 0
M  V30 6672 C 611.944 -3.50846 -5.26393 0
M  V30 6673 C 610.608 -3.8724 -5.43692 0
M  V30 6674 H 609.878 -0.0539666 -0.739032 0
M  V30 6675 H 612.525 -0.827599 -1.72694 0
M  V30 6676 H 610.83 0.670987 -3.86012 0
M  V30 6677 H 612.527 0.304891 -3.99839 0
M  V30 6678 H 609.117 -1.1221 -4.13651 0
M  V30 6679 H 613.301 -2.0187 -4.5339 0
M  V30 6680 H 608.557 -3.28846 -5.15432 0
M  V30 6681 H 612.731 -4.18616 -5.56537 0
M  V30 6682 H 610.358 -4.8266 -5.87319 0
M  V30 6683 N 611.933 1.52934 -0.380664 0
M  V30 6684 C 613.344 1.86457 0.0952684 0
M  V30 6685 C 613.695 1.3007 1.46889 0
M  V30 6686 O 612.82 0.628636 2.07068 0
M  V30 6687 C 613.415 3.38323 0.179648 0
M  V30 6688 C 611.974 3.71589 0.599858 0
M  V30 6689 C 611.121 2.76228 -0.243572 0
M  V30 6690 H 614.072 1.46966 -0.59888 0
M  V30 6691 H 614.093 3.67113 1.00042 0
M  V30 6692 H 613.605 3.79333 -0.820228 0
M  V30 6693 H 611.706 3.36144 1.60742 0
M  V30 6694 H 611.819 4.77715 0.364003 0
M  V30 6695 H 610.183 2.53045 0.289855 0
M  V30 6696 H 610.966 3.20074 -1.24127 0
M  V30 6697 N 613.412 0.11024 1.57214 0
M  V30 6698 C 614.642 -0.557025 1.98949 0
M  V30 6699 C 615.05 -1.61317 0.988606 0
M  V30 6700 O 614.393 -1.83679 -0.0279159 0
M  V30 6701 C 614.455 -1.24956 3.37085 0
M  V30 6702 C 614.119 -0.342398 4.55716 0
M  V30 6703 C 615.116 0.415511 5.18237 0
M  V30 6704 C 612.801 -0.256029 5.01647 0
M  V30 6705 C 614.795 1.24761 6.25071 0
M  V30 6706 C 612.482 0.579713 6.08344 0
M  V30 6707 C 613.48 1.33017 6.69922 0
M  V30 6708 O 613.168 2.15205 7.74559 0
M  V30 6709 H 612.9 -0.152792 0.658506 0
M  V30 6710 H 615.454 0.19076 2.04512 0
M  V30 6711 H 613.684 -2.04424 3.2825 0
M  V30 6712 H 615.373 -1.81286 3.63167 0
M  V30 6713 H 616.139 0.358605 4.83672 0
M  V30 6714 H 612.018 -0.829831 4.5347 0
M  V30 6715 H 615.562 1.83386 6.73064 0
M  V30 6716 H 611.459 0.638044 6.42339 0
M  V30 6717 H 612.227 2.08052 7.91617 0
M  V30 6718 N 614.89 -1.56749 -0.16351 0
M  V30 6719 C 616.136 -1.82704 -0.880168 0
M  V30 6720 C 616.469 -0.689311 -1.81555 0
M  V30 6721 O 615.744 0.308224 -1.92042 0
M  V30 6722 C 616.027 -3.19084 -1.66905 0
M  V30 6723 C 615.88 -4.43397 -0.756269 0
M  V30 6724 C 617.199 -3.52493 -2.63509 0
M  V30 6725 H 614.318 -0.664608 -0.318535 0
M  V30 6726 H 616.96 -1.89438 -0.146036 0
M  V30 6727 H 615.11 -3.13475 -2.2949 0
M  V30 6728 H 616.782 -4.61079 -0.14269 0
M  V30 6729 H 615.025 -4.33752 -0.0647944 0
M  V30 6730 H 615.696 -5.3539 -1.34393 0
M  V30 6731 H 618.172 -3.58606 -2.11047 0
M  V30 6732 H 617.048 -4.48979 -3.15767 0
M  V30 6733 H 617.309 -2.77597 -3.44082 0
M  V30 6734 N 616.368 0.432326 -1.51554 0
M  V30 6735 C 617.598 1.2019 -1.68042 0
M  V30 6736 C 618.006 1.85356 -0.379434 0
M  V30 6737 O 617.349 1.71724 0.652427 0
M  V30 6738 C 617.411 2.32387 -2.74292 0
M  V30 6739 C 617.075 1.87548 -4.16743 0
M  V30 6740 C 618.072 1.37611 -5.01357 0
M  V30 6741 C 615.757 1.95087 -4.62868 0
M  V30 6742 C 617.751 0.958069 -6.30159 0
M  V30 6743 C 615.438 1.52894 -5.91664 0
M  V30 6744 C 616.436 1.03336 -6.75137 0
M  V30 6745 O 616.124 0.617435 -8.01525 0
M  V30 6746 H 615.856 0.368132 -0.56697 0
M  V30 6747 H 618.41 0.517875 -1.98764 0
M  V30 6748 H 616.64 3.04082 -2.38895 0
M  V30 6749 H 618.329 2.94235 -2.79608 0
M  V30 6750 H 619.095 1.31178 -4.66923 0
M  V30 6751 H 614.974 2.32606 -3.98015 0
M  V30 6752 H 618.518 0.570562 -6.95263 0
M  V30 6753 H 614.415 1.58999 -6.25611 0
M  V30 6754 H 615.183 0.742835 -8.15122 0
M  V30 6755 N 617.846 1.41785 0.688094 0
M  V30 6756 C 619.093 1.41544 1.44816 0
M  V30 6757 C 619.421 0.0271746 1.94481 0
M  V30 6758 O 618.676 -0.962235 1.7041 0
M  V30 6759 C 618.975 2.37532 2.67046 0
M  V30 6760 C 618.641 3.84209 2.35996 0
M  V30 6761 C 617.303 4.24165 2.27239 0
M  V30 6762 C 619.655 4.76785 2.10536 0
M  V30 6763 C 616.983 5.54695 1.91128 0
M  V30 6764 C 619.335 6.07644 1.75931 0
M  V30 6765 C 617.999 6.46613 1.65675 0
M  V30 6766 H 617.269 0.517945 0.529919 0
M  V30 6767 H 619.916 1.74635 0.785797 0
M  V30 6768 H 618.221 1.9772 3.38251 0
M  V30 6769 H 619.918 2.34615 3.25203 0
M  V30 6770 H 616.508 3.52567 2.4371 0
M  V30 6771 H 620.692 4.46714 2.16242 0
M  V30 6772 H 615.948 5.83762 1.81746 0
M  V30 6773 H 620.122 6.78874 1.55252 0
M  V30 6774 H 617.749 7.47668 1.37463 0
M  V30 6775 N 619.324 -0.923095 1.27737 0
M  V30 6776 C 620.274 -2.01061 1.0751 0
M  V30 6777 C 621.258 -1.609 0.00165451 0
M  V30 6778 O 622.45 -1.75618 0.220724 0
M  V30 6779 C 619.579 -3.35467 0.729162 0
M  V30 6780 C 618.665 -3.82059 1.84098 0
M  V30 6781 N 619.056 -4.01115 3.08124 0
M  V30 6782 C 617.354 -4.11135 1.7287 0
M  V30 6783 C 618.055 -4.39989 3.80506 0
M  V30 6784 N 617.031 -4.47721 3.08297 0
M  V30 6785 H 620.833 -2.13832 2.01626 0
M  V30 6786 H 618.347 -1.11027 1.18519 0
M  V30 6787 H 620.344 -4.13049 0.565355 0
M  V30 6788 H 619.004 -3.24056 -0.204334 0
M  V30 6789 H 620.015 -3.87294 3.43836 0
M  V30 6790 H 616.692 -4.08412 0.866352 0
M  V30 6791 H 618.082 -4.62773 4.87125 0
M  V30 6792 N 620.802 -1.09834 -1.13024 0
M  V30 6793 C 622.051 -0.831806 -1.83749 0
M  V30 6794 C 622.364 0.644763 -1.84668 0
M  V30 6795 O 623.57 1.02697 -2.51327 0
M  V30 6796 C 622.026 -1.43817 -3.29916 0
M  V30 6797 C 621.634 -2.94759 -3.37374 0
M  V30 6798 C 623.378 -1.25077 -4.05655 0
M  V30 6799 C 621.285 -3.48461 -4.77838 0
M  V30 6800 H 620.215 -0.30751 -0.688443 0
M  V30 6801 H 622.866 -1.32156 -1.27307 0
M  V30 6802 H 621.248 -0.876106 -3.86187 0
M  V30 6803 H 622.422 -3.57228 -2.91076 0
M  V30 6804 H 620.737 -3.12581 -2.75103 0
M  V30 6805 H 623.334 -1.62649 -5.09362 0
M  V30 6806 H 623.677 -0.191782 -4.15858 0
M  V30 6807 H 624.21 -1.78057 -3.55725 0
M  V30 6808 H 620.949 -4.53998 -4.72828 0
M  V30 6809 H 620.469 -2.90757 -5.24615 0
M  V30 6810 H 622.148 -3.45914 -5.46766 0
M  V30 6811 N 622.28 1.30327 -0.886154 0
M  V30 6812 C 623.557 1.90922 -0.425217 0
M  V30 6813 C 623.937 1.80533 1.09413 0
M  V30 6814 O 623.285 1.2233 1.92996 0
M  V30 6815 C 623.495 3.36529 -0.924638 0
M  V30 6816 C 624.843 4.13598 -0.960305 0
M  V30 6817 O 625.867 3.45377 -0.871382 0
M  V30 6818 O 624.726 5.35482 -1.09184 0
M  V30 6819 H 621.82 0.81668 -0.130238 0
M  V30 6820 H 624.366 1.38886 -0.975132 0
M  V30 6821 H 623.138 3.38181 -1.96849 0
M  V30 6822 H 622.761 3.96021 -0.353955 0
M  V30 6823 N 623.758 0.647228 1.43697 0
M  V30 6824 C 624.688 -0.0345631 2.33474 0
M  V30 6825 C 625.669 -0.818193 1.4913 0
M  V30 6826 O 626.854 -0.780867 1.77809 0
M  V30 6827 C 623.984 -1.00576 3.32418 0
M  V30 6828 C 622.938 -0.33266 4.26705 0
M  V30 6829 C 622.264 -1.41489 5.1564 0
M  V30 6830 C 623.564 0.771204 5.16575 0
M  V30 6831 H 625.258 0.715163 2.90733 0
M  V30 6832 H 622.804 0.345364 1.39797 0
M  V30 6833 H 624.757 -1.49159 3.94119 0
M  V30 6834 H 623.481 -1.78657 2.73403 0
M  V30 6835 H 622.14 0.13267 3.6636 0
M  V30 6836 H 621.788 -2.18698 4.52968 0
M  V30 6837 H 621.488 -0.969799 5.79542 0
M  V30 6838 H 623.012 -1.9022 5.80214 0
M  V30 6839 H 624.426 0.36779 5.72119 0
M  V30 6840 H 622.823 1.1404 5.89165 0
M  V30 6841 H 623.893 1.63169 4.56622 0
M  V30 6842 N 625.236 -1.5273 0.388769 0
M  V30 6843 C 626.461 -2.0647 -0.19621 0
M  V30 6844 C 626.886 -1.25865 -1.39784 0
M  V30 6845 O 626.244 -0.283562 -1.79069 0
M  V30 6846 C 626.292 -3.56456 -0.5451 0
M  V30 6847 O 625.396 -3.78426 -1.63912 0
M  V30 6848 H 624.737 -0.663599 -0.023067 0
M  V30 6849 H 627.267 -1.96898 0.556084 0
M  V30 6850 H 627.277 -3.99888 -0.809557 0
M  V30 6851 H 625.952 -4.14561 0.333417 0
M  V30 6852 H 624.529 -3.46884 -1.36842 0
M  V30 6853 N 626.714 -0.118576 -1.57153 0
M  V30 6854 C 627.644 0.828436 -2.1831 0
M  V30 6855 C 628.625 1.27758 -1.12303 0
M  V30 6856 O 629.81 1.34026 -1.40537 0
M  V30 6857 C 626.94 2.07876 -2.78217 0
M  V30 6858 C 625.894 1.76742 -3.89803 0
M  V30 6859 C 625.22 3.08801 -4.36516 0
M  V30 6860 C 626.52 1.03606 -5.11921 0
M  V30 6861 H 628.214 0.318824 -2.97698 0
M  V30 6862 H 625.76 0.151911 -1.43196 0
M  V30 6863 H 627.713 2.74584 -3.19659 0
M  V30 6864 H 626.437 2.61161 -1.96118 0
M  V30 6865 H 625.096 1.12424 -3.48936 0
M  V30 6866 H 624.744 3.6002 -3.51276 0
M  V30 6867 H 624.444 2.88743 -5.11763 0
M  V30 6868 H 625.968 3.76627 -4.80608 0
M  V30 6869 H 627.382 1.60467 -5.50385 0
M  V30 6870 H 625.779 0.936454 -5.92748 0
M  V30 6871 H 626.849 0.0227421 -4.84895 0
M  V30 6872 N 628.193 1.56834 0.155195 0
M  V30 6873 C 629.123 2.00678 1.19376 0
M  V30 6874 C 630.104 0.884973 1.45266 0
M  V30 6875 O 631.289 1.1522 1.56326 0
M  V30 6876 C 628.419 2.38042 2.5289 0
M  V30 6877 C 627.373 3.53332 2.41538 0
M  V30 6878 C 626.699 3.76485 3.79688 0
M  V30 6879 C 627.999 4.86265 1.9064 0
M  V30 6880 H 629.693 2.87688 0.829232 0
M  V30 6881 H 627.239 1.38407 0.397445 0
M  V30 6882 H 629.192 2.67314 3.25763 0
M  V30 6883 H 627.916 1.4796 2.91162 0
M  V30 6884 H 626.575 3.24213 1.71117 0
M  V30 6885 H 626.223 2.83667 4.15382 0
M  V30 6886 H 625.923 4.54068 3.72956 0
M  V30 6887 H 627.447 4.08174 4.54122 0
M  V30 6888 H 628.861 5.14308 2.53299 0
M  V30 6889 H 627.258 5.67597 1.94818 0
M  V30 6890 H 628.328 4.77184 0.861596 0
M  V30 6891 N 629.671 -0.424282 1.51781 0
M  V30 6892 C 630.948 -1.18464 1.55646 0
M  V30 6893 C 631.328 -2.08529 0.328438 0
M  V30 6894 O 630.676 -2.17969 -0.685693 0
M  V30 6895 C 630.886 -1.97514 2.87731 0
M  V30 6896 C 632.234 -2.54106 3.40169 0
M  V30 6897 O 633.258 -2.07711 2.89369 0
M  V30 6898 O 632.117 -3.38759 4.28841 0
M  V30 6899 H 629.211 -0.540055 0.626314 0
M  V30 6900 H 631.757 -0.432291 1.64102 0
M  V30 6901 H 630.529 -1.31444 3.68562 0
M  V30 6902 H 630.152 -2.79787 2.82498 0
M  V30 6903 O 631.188 -1.51103 -0.570103 0
M  V30 6904 H 631.879 -1.50032 -1.22516 0
M  V30 END ATOM
M  V30 BEGIN BOND
M  V30 END BOND
M  V30 END CTAB
M  END
$$$$
