446758
  -OEChem-10051720323D

 55 58  0     1  0  0  0  0  0999 V2000
    1.0423    1.6029   -1.7444 O   0  0  0  0  0  0  0  0  0  0  0  0
   -4.8112   -1.0986   -0.3082 O   0  0  0  0  0  0  0  0  0  0  0  0
   -5.8061    0.5144    2.6392 O   0  0  0  0  0  0  0  0  0  0  0  0
   -7.0933   -0.1391    0.8874 O   0  0  0  0  0  0  0  0  0  0  0  0
    3.3062   -0.0250   -0.9395 N   0  0  0  0  0  0  0  0  0  0  0  0
    3.3642   -1.3244   -0.4937 C   0  0  0  0  0  0  0  0  0  0  0  0
    3.5481    0.8557    0.0884 C   0  0  0  0  0  0  0  0  0  0  0  0
    3.6535   -1.2806    0.8704 C   0  0  0  0  0  0  0  0  0  0  0  0
    3.7697    0.0976    1.2384 C   0  0  0  0  0  0  0  0  0  0  0  0
    3.0283    0.3633   -2.3083 C   0  0  0  0  0  0  0  0  0  0  0  0
    1.5406    0.5574   -2.5689 C   0  0  0  0  0  0  0  0  0  0  0  0
    3.1837   -2.5243   -1.1912 C   0  0  0  0  0  0  0  0  0  0  0  0
    3.5868    2.2547    0.0850 C   0  0  0  0  0  0  0  0  0  0  0  0
    3.7684   -2.4974    1.5747 C   0  0  0  0  0  0  0  0  0  0  0  0
    4.0440    0.7705    2.4475 C   0  0  0  0  0  0  0  0  0  0  0  0
    3.3027   -3.7164   -0.4716 C   0  0  0  0  0  0  0  0  0  0  0  0
    3.8610    2.8985    1.2946 C   0  0  0  0  0  0  0  0  0  0  0  0
    3.5906   -3.7055    0.8910 C   0  0  0  0  0  0  0  0  0  0  0  0
    4.0864    2.1694    2.4598 C   0  0  0  0  0  0  0  0  0  0  0  0
   -4.3726    1.2619   -0.1972 C   0  0  0  0  0  0  0  0  0  0  0  0
   -2.9414    1.3517   -0.6060 C   0  0  0  0  0  0  0  0  0  0  0  0
   -0.2732    1.5202   -1.3694 C   0  0  0  0  0  0  0  0  0  0  0  0
   -4.6808   -0.0142    0.6030 C   0  0  1  0  0  0  0  0  0  0  0  0
   -2.5291    0.8116   -1.8241 C   0  0  0  0  0  0  0  0  0  0  0  0
   -2.0152    1.9764    0.2293 C   0  0  0  0  0  0  0  0  0  0  0  0
   -1.1905    0.8962   -2.2071 C   0  0  0  0  0  0  0  0  0  0  0  0
   -0.6766    2.0609   -0.1538 C   0  0  0  0  0  0  0  0  0  0  0  0
   -5.9902    0.1091    1.3561 C   0  0  0  0  0  0  0  0  0  0  0  0
   -5.0845   -2.3174    0.3687 C   0  0  0  0  0  0  0  0  0  0  0  0
   -5.2119   -3.4296   -0.6503 C   0  0  0  0  0  0  0  0  0  0  0  0
    3.5779    1.2891   -2.5107 H   0  0  0  0  0  0  0  0  0  0  0  0
    3.4433   -0.3975   -2.9773 H   0  0  0  0  0  0  0  0  0  0  0  0
    1.3904    0.8300   -3.6196 H   0  0  0  0  0  0  0  0  0  0  0  0
    1.0353   -0.3965   -2.3681 H   0  0  0  0  0  0  0  0  0  0  0  0
    2.9544   -2.5461   -2.2512 H   0  0  0  0  0  0  0  0  0  0  0  0
    3.4141    2.8363   -0.8139 H   0  0  0  0  0  0  0  0  0  0  0  0
    3.9925   -2.5055    2.6377 H   0  0  0  0  0  0  0  0  0  0  0  0
    4.2221    0.2158    3.3645 H   0  0  0  0  0  0  0  0  0  0  0  0
    3.1669   -4.6654   -0.9839 H   0  0  0  0  0  0  0  0  0  0  0  0
    3.8982    3.9844    1.3254 H   0  0  0  0  0  0  0  0  0  0  0  0
    3.6782   -4.6446    1.4308 H   0  0  0  0  0  0  0  0  0  0  0  0
    4.2975    2.6908    3.3896 H   0  0  0  0  0  0  0  0  0  0  0  0
   -5.0120    1.3123   -1.0889 H   0  0  0  0  0  0  0  0  0  0  0  0
   -4.6293    2.1480    0.3987 H   0  0  0  0  0  0  0  0  0  0  0  0
   -3.8763   -0.2408    1.3146 H   0  0  0  0  0  0  0  0  0  0  0  0
   -3.2419    0.3274   -2.4864 H   0  0  0  0  0  0  0  0  0  0  0  0
   -2.3232    2.3990    1.1820 H   0  0  0  0  0  0  0  0  0  0  0  0
   -0.9166    0.4892   -3.1756 H   0  0  0  0  0  0  0  0  0  0  0  0
    0.0421    2.5468    0.4999 H   0  0  0  0  0  0  0  0  0  0  0  0
   -6.0136   -2.2883    0.9438 H   0  0  0  0  0  0  0  0  0  0  0  0
   -4.2593   -2.5486    1.0523 H   0  0  0  0  0  0  0  0  0  0  0  0
   -5.4037   -4.3891   -0.1616 H   0  0  0  0  0  0  0  0  0  0  0  0
   -6.0285   -3.2199   -1.3492 H   0  0  0  0  0  0  0  0  0  0  0  0
   -4.2968   -3.5139   -1.2458 H   0  0  0  0  0  0  0  0  0  0  0  0
   -6.6551    0.5846    3.1257 H   0  0  0  0  0  0  0  0  0  0  0  0
  1 11  1  0  0  0  0
  1 22  1  0  0  0  0
  2 23  1  0  0  0  0
  2 29  1  0  0  0  0
  3 28  1  0  0  0  0
  3 55  1  0  0  0  0
  4 28  2  0  0  0  0
  5  6  1  0  0  0  0
  5  7  1  0  0  0  0
  5 10  1  0  0  0  0
  6  8  1  0  0  0  0
  6 12  2  0  0  0  0
  7  9  1  0  0  0  0
  7 13  2  0  0  0  0
  8  9  1  0  0  0  0
  8 14  2  0  0  0  0
  9 15  2  0  0  0  0
 10 11  1  0  0  0  0
 10 31  1  0  0  0  0
 10 32  1  0  0  0  0
 11 33  1  0  0  0  0
 11 34  1  0  0  0  0
 12 16  1  0  0  0  0
 12 35  1  0  0  0  0
 13 17  1  0  0  0  0
 13 36  1  0  0  0  0
 14 18  1  0  0  0  0
 14 37  1  0  0  0  0
 15 19  1  0  0  0  0
 15 38  1  0  0  0  0
 16 18  2  0  0  0  0
 16 39  1  0  0  0  0
 17 19  2  0  0  0  0
 17 40  1  0  0  0  0
 18 41  1  0  0  0  0
 19 42  1  0  0  0  0
 20 21  1  0  0  0  0
 20 23  1  0  0  0  0
 20 43  1  0  0  0  0
 20 44  1  0  0  0  0
 21 24  2  0  0  0  0
 21 25  1  0  0  0  0
 22 26  2  0  0  0  0
 22 27  1  0  0  0  0
 23 28  1  0  0  0  0
 23 45  1  0  0  0  0
 24 26  1  0  0  0  0
 24 46  1  0  0  0  0
 25 27  2  0  0  0  0
 25 47  1  0  0  0  0
 26 48  1  0  0  0  0
 27 49  1  0  0  0  0
 29 30  1  0  0  0  0
 29 50  1  0  0  0  0
 29 51  1  0  0  0  0
 30 52  1  0  0  0  0
 30 53  1  0  0  0  0
 30 54  1  0  0  0  0
M  END
> <DATABASE_ID>
DB04270

> <DATABASE_NAME>
drugbank

> <ORIGINAL_SOURCE>
PUBCHEM

> <ORIGINAL_SOURCE_URL>
https://pubchem.ncbi.nlm.nih.gov/rest/pug/compound/inchikey/WUZIMDSVRIBNNI-DEOSSOPVSA-N/SDF?record_type=3d

> <SMILES>
[H][C@@](CC1=CC=C(OCCN2C3=C(C=CC=C3)C3=C2C=CC=C3)C=C1)(OCC)C(O)=O

> <INCHI_IDENTIFIER>
InChI=1S/C25H25NO4/c1-2-29-24(25(27)28)17-18-11-13-19(14-12-18)30-16-15-26-22-9-5-3-7-20(22)21-8-4-6-10-23(21)26/h3-14,24H,2,15-17H2,1H3,(H,27,28)/t24-/m0/s1

> <INCHI_KEY>
WUZIMDSVRIBNNI-DEOSSOPVSA-N

> <FORMULA>
C25H25NO4

> <MOLECULAR_WEIGHT>
403.4703

> <EXACT_MASS>
403.178358293

> <JCHEM_ACCEPTOR_COUNT>
4

> <JCHEM_AVERAGE_POLARIZABILITY>
44.44479639926284

> <JCHEM_BIOAVAILABILITY>
1

> <JCHEM_DONOR_COUNT>
1

> <JCHEM_FORMAL_CHARGE>
0

> <JCHEM_GHOSE_FILTER>
1

> <JCHEM_IUPAC>
(2S)-3-{4-[2-(9H-carbazol-9-yl)ethoxy]phenyl}-2-ethoxypropanoic acid

> <ALOGPS_LOGP>
5.30

> <JCHEM_LOGP>
5.169796853999999

> <ALOGPS_LOGS>
-5.34

> <JCHEM_MDDR_LIKE_RULE>
1

> <JCHEM_NUMBER_OF_RINGS>
4

> <JCHEM_PHYSIOLOGICAL_CHARGE>
-1

> <JCHEM_PKA_STRONGEST_ACIDIC>
3.729526282001307

> <JCHEM_PKA_STRONGEST_BASIC>
-4.124302218919743

> <JCHEM_POLAR_SURFACE_AREA>
60.69

> <JCHEM_REFRACTIVITY>
115.82169999999999

> <JCHEM_ROTATABLE_BOND_COUNT>
9

> <JCHEM_RULE_OF_FIVE>
0

> <ALOGPS_SOLUBILITY>
1.85e-03 g/l

> <JCHEM_TRADITIONAL_IUPAC>
(2S)-3-{4-[2-(carbazol-9-yl)ethoxy]phenyl}-2-ethoxypropanoic acid

> <JCHEM_VEBER_RULE>
0

> <DRUGBANK_ID>
DB04270

> <SECONDARY_ACCESSION_NUMBERS>
EXPT03276

> <DRUG_GROUPS>
experimental

> <GENERIC_NAME>
(S)-3-(4-(2-Carbazol-9-Yl-Ethoxy)-Phenyl)-2-Ethoxy-Propionic Acid

$$$$