drugbank_target|P20932 (S)-mandelate dehydrogenase (DB03247; DB03814; DB07060; DB07907)
 OpenBabel12092120273D

  0  0  0     0  0            999 V3000
M  V30 BEGIN CTAB
M  V30 COUNTS 6136 6194 0 0 0
M  V30 BEGIN ATOM
M  V30 1 H -0.908 1.98254 -0.117106 0
M  V30 2 N 0 1.576 0 0
M  V30 3 C 0.933 2.03868 1.02534 0
M  V30 4 C 1.911 0.928543 1.3348 0
M  V30 5 O 3.095 1.19667 1.45644 0
M  V30 6 C 0.222 2.43627 2.35294 0
M  V30 7 C -0.732 3.65373 2.2001 0
M  V30 8 S 0.101 5.13292 1.52614 0
M  V30 9 C 1.257 5.56322 2.86805 0
M  V30 10 H 1.49 2.90518 0.631377 0
M  V30 11 H -0.977 1.52953 0.210867 0
M  V30 12 H 0.981 2.67203 3.11629 0
M  V30 13 H -0.358 1.57376 2.7183 0
M  V30 14 H -1.165 3.90944 3.18086 0
M  V30 15 H -1.563 3.418 1.51819 0
M  V30 16 H 0.729 5.58782 3.83104 0
M  V30 17 H 1.672 6.56266 2.65933 0
M  V30 18 H 2.08 4.83886 2.90714 0
M  V30 19 N 1.4781 -0.272755 1.55222 0
M  V30 20 C 2.7031 -1.02683 1.80197 0
M  V30 21 C 3.1281 -1.79142 0.573551 0
M  V30 22 O 2.4861 -1.74917 -0.476849 0
M  V30 23 C 2.5341 -1.9609 3.02624 0
M  V30 24 O 1.6381 -3.04863 2.77727 0
M  V30 25 H 0.9791 -0.293557 0.595584 0
M  V30 26 H 3.5091 -0.30159 2.02365 0
M  V30 27 H 3.5191 -2.38039 3.31363 0
M  V30 28 H 2.1941 -1.39851 3.91682 0
M  V30 29 H 0.7711 -2.67228 2.60084 0
M  V30 30 N 2.9562 -1.48159 -0.537278 0
M  V30 31 C 3.8882 -1.58218 -1.65831 0
M  V30 32 C 4.9012 -0.466948 -1.5596 0
M  V30 33 O 6.0902 -0.73747 -1.62553 0
M  V30 34 C 3.1902 -1.48906 -3.04434 0
M  V30 35 C 2.3632 -2.75343 -3.3986 0
M  V30 36 C 1.4222 -2.59588 -4.57712 0
M  V30 37 O 0.4482 -3.33457 -4.61297 0
M  V30 38 N 1.6502 -1.68724 -5.55439 0
M  V30 39 H 4.4152 -2.54891 -1.57641 0
M  V30 40 H 1.9762 -1.4479 -0.724386 0
M  V30 41 H 3.9682 -1.36072 -3.81139 0
M  V30 42 H 2.5382 -0.602368 -3.06741 0
M  V30 43 H 1.7582 -3.02795 -2.52406 0
M  V30 44 H 3.0462 -3.5924 -3.60311 0
M  V30 45 H 2.4442 -1.07898 -5.55315 0
M  V30 46 H 1.0012 -1.61832 -6.3139 0
M  V30 47 N 4.4343 0.785586 -1.36625 0
M  V30 48 C 5.3823 1.91978 -1.31329 0
M  V30 49 C 6.3763 1.68162 -0.204416 0
M  V30 50 O 7.5823 1.76122 -0.371645 0
M  V30 51 H 3.9573 0.631087 -0.408942 0
M  V30 52 H 5.9283 1.93562 -2.27104 0
M  V30 53 C 4.6773 3.29055 -1.12329 0
M  V30 54 H 4.0003 3.4795 -1.96903 0
M  V30 55 H 5.4403 4.08756 -1.12671 0
M  V30 56 C 3.8993 3.36461 0.171861 0
M  V30 57 O 4.4293 3.84576 1.16035 0
M  V30 58 N 2.6353 2.89782 0.217846 0
M  V30 59 H 2.1823 2.50819 -0.587183 0
M  V30 60 H 2.1403 2.95119 1.08408 0
M  V30 61 N 5.9124 1.20967 1.01018 0
M  V30 62 C 6.8424 0.988272 2.11555 0
M  V30 63 C 7.8234 -0.0849778 1.69888 0
M  V30 64 O 9.0084 0.0738202 1.9406 0
M  V30 65 C 6.1384 0.546528 3.42973 0
M  V30 66 C 5.0924 1.56375 3.9841 0
M  V30 67 C 4.4184 0.97842 5.25672 0
M  V30 68 C 5.7184 2.94922 4.31066 0
M  V30 69 H 7.4124 1.91276 2.30334 0
M  V30 70 H 4.9584 0.921073 1.1069 0
M  V30 71 H 6.9114 0.378839 4.19694 0
M  V30 72 H 5.6354 -0.413598 3.23971 0
M  V30 73 H 4.2944 1.71891 3.23804 0
M  V30 74 H 3.9424 0.0101688 5.02999 0
M  V30 75 H 3.6424 1.65784 5.63728 0
M  V30 76 H 5.1664 0.821939 6.05043 0
M  V30 77 H 6.5804 2.8288 4.9865 0
M  V30 78 H 4.9774 3.5983 4.80253 0
M  V30 79 H 6.0474 3.4616 3.39561 0
M  V30 80 N 7.3905 -1.2043 1.01659 0
M  V30 81 C 8.6375 -1.89797 0.705917 0
M  V30 82 C 8.9655 -1.78848 -0.764439 0
M  V30 83 O 8.2205 -1.16694 -1.57102 0
M  V30 84 C 8.5195 -3.40464 1.08714 0
M  V30 85 C 8.1855 -3.71614 2.5537 0
M  V30 86 C 6.8475 -3.79826 2.95441 0
M  V30 87 C 9.1995 -3.85915 3.50313 0
M  V30 88 C 6.5275 -3.99797 4.29394 0
M  V30 89 C 8.8795 -4.07396 4.83954 0
M  V30 90 C 7.5435 -4.13837 5.23732 0
M  V30 91 H 6.8135 -0.694518 0.258313 0
M  V30 92 H 9.4605 -1.42691 1.27717 0
M  V30 93 H 7.7655 -3.89385 0.434309 0
M  V30 94 H 9.4625 -3.92433 0.824461 0
M  V30 95 H 6.0525 -3.65822 2.23321 0
M  V30 96 H 10.2365 -3.78926 3.20513 0
M  V30 97 H 5.4925 -4.03018 4.59768 0
M  V30 98 H 9.6665 -4.17404 5.57447 0
M  V30 99 H 7.2935 -4.29064 6.27541 0
M  V30 100 N 8.8686 -0.792821 -1.36206 0
M  V30 101 C 9.8166 -0.181555 -2.3189 0
M  V30 102 C 10.8106 0.661025 -1.55971 0
M  V30 103 O 12.0166 0.555728 -1.71206 0
M  V30 104 H 8.3916 -0.0399382 -0.750939 0
M  V30 105 H 10.3626 -1.00394 -2.81005 0
M  V30 106 C 9.1116 0.666444 -3.41253 0
M  V30 107 H 8.4346 0.0274489 -3.99791 0
M  V30 108 H 9.8746 1.06076 -4.10517 0
M  V30 109 C 8.3336 1.82614 -2.83114 0
M  V30 110 O 8.8636 2.9229 -2.75553 0
M  V30 111 N 7.0696 1.63333 -2.40356 0
M  V30 112 H 6.6166 0.741217 -2.46706 0
M  V30 113 H 6.5746 2.41087 -2.01803 0
M  V30 114 N 10.3467 1.47872 -0.545128 0
M  V30 115 C 11.5927 2.02793 -0.0166104 0
M  V30 116 C 11.9257 1.41987 1.32489 0
M  V30 117 O 11.2007 0.571045 1.85928 0
M  V30 118 C 11.4837 3.59989 0.0893294 0
M  V30 119 C 11.3367 4.3125 -1.27841 0
M  V30 120 C 12.6557 4.32606 0.808724 0
M  V30 121 H 9.7747 0.736962 -0.00751035 0
M  V30 122 H 12.4167 1.76433 -0.705085 0
M  V30 123 H 10.5667 3.82579 0.675681 0
M  V30 124 H 12.2387 4.20035 -1.90704 0
M  V30 125 H 10.4817 3.92076 -1.85632 0
M  V30 126 H 11.1527 5.39736 -1.15713 0
M  V30 127 H 13.6287 4.14936 0.310992 0
M  V30 128 H 12.5047 5.42251 0.851782 0
M  V30 129 H 12.7657 4.00963 1.86229 0
M  V30 130 N 11.8248 0.280983 1.55075 0
M  V30 131 C 12.7348 -0.61388 2.26426 0
M  V30 132 C 13.7508 -1.16521 1.29224 0
M  V30 133 O 14.9268 -1.19426 1.62171 0
M  V30 134 C 11.9918 -1.7788 2.9759 0
M  V30 135 C 11.0528 -1.26355 4.10284 0
M  V30 136 C 10.2858 -2.37295 4.78045 0
M  V30 137 O 10.5088 -3.56777 4.45047 0
M  V30 138 O 9.4428 -2.05119 5.65871 0
M  V30 139 H 13.2688 -0.0356932 3.03679 0
M  V30 140 H 10.8538 0.0481686 1.49322 0
M  V30 141 H 12.7358 -2.45791 3.42293 0
M  V30 142 H 11.4108 -2.34397 2.23249 0
M  V30 143 H 10.3178 -0.550735 3.70024 0
M  V30 144 H 11.6508 -0.744065 4.86543 0
M  V30 145 N 13.3029 -1.57598 0.00835791 0
M  V30 146 C 14.5799 -1.82172 -0.712235 0
M  V30 147 C 14.9599 -0.887873 -1.9152 0
M  V30 148 O 14.3079 0.06146 -2.28417 0
M  V30 149 C 14.5179 -3.30875 -1.11008 0
M  V30 150 C 15.8659 -3.96826 -1.51044 0
M  V30 151 O 16.8899 -3.35248 -1.20364 0
M  V30 152 O 15.7489 -5.05318 -2.08125 0
M  V30 153 H 12.8429 -0.750435 -0.347529 0
M  V30 154 H 15.3889 -1.69665 0.0344523 0
M  V30 155 H 14.1609 -3.90481 -0.252982 0
M  V30 156 H 13.7839 -3.48412 -1.9156 0
M  V30 157 N 14.781 0.264519 -1.55364 0
M  V30 158 C 16.011 1.01153 -1.80143 0
M  V30 159 C 16.419 1.80115 -0.579253 0
M  V30 160 O 15.762 1.77813 0.46132 0
M  V30 161 C 15.824 2.01098 -2.97993 0
M  V30 162 C 15.488 1.40995 -4.34706 0
M  V30 163 C 16.485 0.821316 -5.13372 0
M  V30 164 C 14.17 1.43461 -4.81378 0
M  V30 165 C 16.164 0.265339 -6.36847 0
M  V30 166 C 13.851 0.874771 -6.04807 0
M  V30 167 C 14.849 0.291146 -6.82379 0
M  V30 168 O 14.537 -0.260093 -8.03479 0
M  V30 169 H 14.269 0.304125 -0.603725 0
M  V30 170 H 16.823 0.298089 -2.03225 0
M  V30 171 H 15.053 2.76224 -2.70623 0
M  V30 172 H 16.742 2.61997 -3.1002 0
M  V30 173 H 17.508 0.794903 -4.78442 0
M  V30 174 H 13.387 1.87826 -4.21002 0
M  V30 175 H 16.931 -0.190837 -6.97339 0
M  V30 176 H 12.828 0.898452 -6.39217 0
M  V30 177 H 13.596 -0.150265 -8.18362 0
M  V30 178 N 16.2591 1.48442 0.529413 0
M  V30 179 C 17.6751 1.34575 0.858004 0
M  V30 180 C 17.8751 0.3572 1.98309 0
M  V30 181 O 16.9311 -0.221379 2.51528 0
M  V30 182 C 18.2441 2.74617 1.22499 0
M  V30 183 C 19.7921 2.83109 1.33484 0
M  V30 184 C 20.2671 4.23854 1.73526 0
M  V30 185 N 21.7581 4.2653 1.80628 0
M  V30 186 C 22.4931 5.32372 2.12997 0
M  V30 187 N 21.9891 6.48491 2.43786 0
M  V30 188 N 23.7821 5.19766 2.14008 0
M  V30 189 H 15.9331 2.1133 -0.212925 0
M  V30 190 H 18.1961 0.947439 -0.0326199 0
M  V30 191 H 17.9021 3.4852 0.471905 0
M  V30 192 H 17.7761 3.08177 2.17501 0
M  V30 193 H 20.1631 2.09462 2.0787 0
M  V30 194 H 20.2441 2.53168 0.366027 0
M  V30 195 H 19.8881 4.98018 0.997013 0
M  V30 196 H 19.8181 4.5124 2.71459 0
M  V30 197 H 22.3091 3.42772 1.59108 0
M  V30 198 H 22.6221 7.24993 2.67592 0
M  V30 199 H 20.9671 6.51765 2.41304 0
M  V30 200 H 24.1581 4.28066 1.89412 0
M  V30 201 H 24.3311 6.02354 2.38902 0
M  V30 202 N 17.7372 -0.778329 1.37039 0
M  V30 203 C 18.6842 -1.89139 1.32269 0
M  V30 204 C 19.6542 -1.65017 0.189387 0
M  V30 205 O 20.8392 -1.87024 0.377693 0
M  V30 206 C 17.9792 -3.26112 1.12894 0
M  V30 207 C 17.0922 -3.62233 2.35396 0
M  V30 208 C 16.2272 -4.8838 2.08946 0
M  V30 209 C 15.2662 -5.17212 3.2735 0
M  V30 210 N 14.4032 -6.34546 3.00492 0
M  V30 211 H 19.2432 -1.92552 2.27437 0
M  V30 212 H 16.7802 -0.941473 1.13025 0
M  V30 213 H 18.7382 -4.05116 0.996835 0
M  V30 214 H 17.3682 -3.22091 0.213758 0
M  V30 215 H 16.4202 -2.78265 2.5937 0
M  V30 216 H 17.7322 -3.79481 3.23721 0
M  V30 217 H 16.8862 -5.75274 1.92729 0
M  V30 218 H 15.6252 -4.73222 1.17949 0
M  V30 219 H 14.6302 -4.28796 3.44113 0
M  V30 220 H 15.8552 -5.34283 4.19188 0
M  V30 221 H 13.8012 -6.20759 2.12118 0
M  V30 222 H 13.7182 -6.52179 3.82358 0
M  V30 223 H 14.9862 -7.24394 2.87879 0
M  V30 224 N 19.2153 -1.21501 -1.00376 0
M  V30 225 C 20.1453 -0.999478 -2.11028 0
M  V30 226 C 21.1263 0.0759671 -1.6993 0
M  V30 227 O 22.3113 -0.0841106 -1.94018 0
M  V30 228 C 19.4413 -0.564709 -3.42678 0
M  V30 229 C 18.3953 -1.58486 -3.97576 0
M  V30 230 C 17.7213 -1.00628 -5.25146 0
M  V30 231 C 19.0213 -2.97204 -4.29496 0
M  V30 232 H 20.7153 -1.92495 -2.29317 0
M  V30 233 H 18.2613 -0.92693 -1.102 0
M  V30 234 H 20.2143 -0.401091 -4.19487 0
M  V30 235 H 18.9383 0.396411 -3.24185 0
M  V30 236 H 17.5973 -1.73606 -3.22888 0
M  V30 237 H 17.2453 -0.0368439 -5.02987 0
M  V30 238 H 16.9453 -1.68771 -5.62841 0
M  V30 239 H 18.4693 -0.854015 -6.04598 0
M  V30 240 H 19.8833 -2.8552 -4.97143 0
M  V30 241 H 18.2803 -3.62372 -4.78338 0
M  V30 242 H 19.3503 -3.47956 -3.3772 0
M  V30 243 N 20.6934 1.19889 -1.02296 0
M  V30 244 C 22.1094 1.41462 -0.738954 0
M  V30 245 C 22.3094 1.89721 0.678846 0
M  V30 246 O 21.3654 2.07016 1.4457 0
M  V30 247 C 22.6784 2.43083 -1.77005 0
M  V30 248 C 24.2264 2.5684 -1.78892 0
M  V30 249 C 24.7014 3.61709 -2.80945 0
M  V30 250 N 26.1924 3.69199 -2.79725 0
M  V30 251 C 26.9274 4.50019 -3.55345 0
M  V30 252 N 26.4234 5.34592 -4.40662 0
M  V30 253 N 28.2164 4.44612 -3.43914 0
M  V30 254 H 20.3674 0.868827 -1.93817 0
M  V30 255 H 22.6304 0.44399 -0.837602 0
M  V30 256 H 22.3364 2.14636 -2.78612 0
M  V30 257 H 22.2104 3.4217 -1.58744 0
M  V30 258 H 24.5974 2.84614 -0.779674 0
M  V30 259 H 24.6784 1.57927 -2.01228 0
M  V30 260 H 24.3224 3.34678 -3.82038 0
M  V30 261 H 24.2524 4.60259 -2.5587 0
M  V30 262 H 26.7434 3.08794 -2.17842 0
M  V30 263 H 27.0564 5.93363 -4.95116 0
M  V30 264 H 25.4014 5.34073 -4.44737 0
M  V30 265 H 28.5924 3.7758 -2.76679 0
M  V30 266 H 28.7654 5.0736 -4.031 0
M  V30 267 N 22.1715 0.800033 1.35784 0
M  V30 268 C 23.1035 0.163596 2.28615 0
M  V30 269 C 24.1165 -0.633317 1.49976 0
M  V30 270 O 25.3055 -0.466754 1.72289 0
M  V30 271 C 22.4055 -0.790958 3.29541 0
M  V30 272 C 21.5785 -0.0418255 4.3738 0
M  V30 273 C 20.6375 -0.91389 5.18203 0
M  V30 274 O 19.6635 -0.367234 5.68014 0
M  V30 275 N 20.8655 -2.23682 5.35674 0
M  V30 276 H 23.6305 0.96105 2.83873 0
M  V30 277 H 21.1915 0.654894 1.48063 0
M  V30 278 H 23.1835 -1.37844 3.80501 0
M  V30 279 H 21.7535 -1.48925 2.74846 0
M  V30 280 H 20.9735 0.726813 3.87442 0
M  V30 281 H 22.2615 0.474719 5.06581 0
M  V30 282 H 21.6595 -2.70497 4.96838 0
M  V30 283 H 20.2165 -2.77369 5.89839 0
M  V30 284 N 23.6496 -1.47581 0.552962 0
M  V30 285 C 24.5966 -2.29957 -0.197108 0
M  V30 286 C 25.5666 -1.38799 -0.912359 0
M  V30 287 O 26.7516 -1.67761 -0.908888 0
M  V30 288 C 23.8916 -3.22672 -1.22379 0
M  V30 289 C 23.0046 -4.28919 -0.515038 0
M  V30 290 C 22.1396 -5.0879 -1.52664 0
M  V30 291 C 21.1786 -6.06815 -0.802631 0
M  V30 292 N 20.3156 -6.7966 -1.76086 0
M  V30 293 H 25.1556 -2.93578 0.511486 0
M  V30 294 H 22.6926 -1.4471 0.264067 0
M  V30 295 H 24.6506 -3.74845 -1.83159 0
M  V30 296 H 23.2806 -2.60925 -1.90047 0
M  V30 297 H 22.3326 -3.79835 0.207192 0
M  V30 298 H 23.6446 -4.98773 0.0523425 0
M  V30 299 H 22.7986 -5.65091 -2.20809 0
M  V30 300 H 21.5376 -4.38828 -2.12794 0
M  V30 301 H 20.5426 -5.49695 -0.107238 0
M  V30 302 H 21.7676 -6.78784 -0.207135 0
M  V30 303 H 19.7136 -6.12432 -2.35081 0
M  V30 304 H 19.6306 -7.45669 -1.24552 0
M  V30 305 H 20.8986 -7.40538 -2.43359 0
M  V30 306 N 25.1277 -0.289203 -1.54924 0
M  V30 307 C 26.5437 0.0645403 -1.59469 0
M  V30 308 C 26.7437 1.53419 -1.30632 0
M  V30 309 O 25.7997 2.2852 -1.074 0
M  V30 310 C 27.1127 -0.32278 -2.98963 0
M  V30 311 C 28.6607 -0.270564 -3.11828 0
M  V30 312 C 29.1357 -0.632532 -4.53611 0
M  V30 313 N 30.6267 -0.584617 -4.59496 0
M  V30 314 C 31.3617 -0.837314 -5.67254 0
M  V30 315 N 30.8577 -1.15536 -6.83098 0
M  V30 316 N 32.6507 -0.765166 -5.56868 0
M  V30 317 H 24.8017 -1.24714 -1.71931 0
M  V30 318 H 27.0647 -0.504809 -0.802416 0
M  V30 319 H 26.7707 -1.34541 -3.24948 0
M  V30 320 H 26.6447 0.32944 -3.75759 0
M  V30 321 H 29.0317 0.742805 -2.85598 0
M  V30 322 H 29.1127 -0.957242 -2.37214 0
M  V30 323 H 28.7567 -1.64365 -4.80569 0
M  V30 324 H 28.6867 0.07609 -5.26545 0
M  V30 325 H 31.1777 -0.349248 -3.76283 0
M  V30 326 H 31.4907 -1.33447 -7.61191 0
M  V30 327 H 29.8357 -1.19328 -6.84679 0
M  V30 328 H 33.0267 -0.516432 -4.65243 0
M  V30 329 H 33.1997 -0.965477 -6.40767 0
M  V30 330 N 26.6058 1.57591 -0.0167156 0
M  V30 331 C 27.5358 2.12496 0.967858 0
M  V30 332 C 28.5168 1.03807 1.34752 0
M  V30 333 O 29.7018 1.31577 1.42833 0
M  V30 334 C 26.8318 2.64194 2.25431 0
M  V30 335 C 25.7858 3.77559 2.01576 0
M  V30 336 C 25.1118 4.15636 3.36379 0
M  V30 337 C 26.4118 5.04151 1.36489 0
M  V30 338 H 28.1058 2.95013 0.510643 0
M  V30 339 H 25.6518 1.41915 0.244181 0
M  V30 340 H 27.6048 3.01236 2.94678 0
M  V30 341 H 26.3288 1.78821 2.73296 0
M  V30 342 H 24.9878 3.40937 1.34751 0
M  V30 343 H 24.6358 3.27263 3.81979 0
M  V30 344 H 24.3358 4.92022 3.21229 0
M  V30 345 H 25.8598 4.5525 4.06915 0
M  V30 346 H 27.2738 5.38857 1.95718 0
M  V30 347 H 25.6708 5.85453 1.31776 0
M  V30 348 H 26.7408 4.83733 0.336219 0
M  V30 349 N 28.0839 -0.256276 1.55502 0
M  V30 350 C 29.4949 -0.826068 1.67431 0
M  V30 351 C 29.8459 -1.86396 0.612446 0
M  V30 352 O 28.9709 -2.15031 -0.243025 0
M  V30 353 C 29.5659 -1.50512 3.03532 0
M  V30 354 C 28.1249 -2.02273 3.17431 0
M  V30 355 C 27.2719 -0.870548 2.63281 0
M  V30 356 H 30.2229 -0.0322728 1.58667 0
M  V30 357 H 30.2439 -2.37279 2.97454 0
M  V30 358 H 29.7559 -0.749484 3.80794 0
M  V30 359 H 27.8569 -2.80746 2.44974 0
M  V30 360 H 27.9699 -2.22655 4.24219 0
M  V30 361 H 26.3339 -1.26851 2.20864 0
M  V30 362 H 27.1169 -0.128149 3.43061 0
M  V30 363 N 29.562 -1.4872 -0.521534 0
M  V30 364 C 30.509 -1.63871 -1.62527 0
M  V30 365 C 31.479 -0.480559 -1.58996 0
M  V30 366 O 32.664 -0.705085 -1.77294 0
M  V30 367 C 29.804 -1.69227 -3.00759 0
M  V30 368 C 28.917 -2.96207 -3.14461 0
M  V30 369 C 28.052 -2.92671 -4.43303 0
M  V30 370 C 27.091 -4.14318 -4.50563 0
M  V30 371 N 26.228 -4.0881 -5.70805 0
M  V30 372 H 31.068 -2.58123 -1.48918 0
M  V30 373 H 28.605 -1.28 -0.724878 0
M  V30 374 H 30.563 -1.70314 -3.80853 0
M  V30 375 H 29.193 -0.784586 -3.1312 0
M  V30 376 H 28.245 -3.04826 -2.27564 0
M  V30 377 H 29.557 -3.86192 -3.15686 0
M  V30 378 H 28.711 -2.92206 -5.31696 0
M  V30 379 H 27.45 -2.00429 -4.44612 0
M  V30 380 H 26.455 -4.15049 -3.60575 0
M  V30 381 H 27.68 -5.07729 -4.50986 0
M  V30 382 H 25.626 -3.19394 -5.72995 0
M  V30 383 H 25.543 -4.92509 -5.7356 0
M  V30 384 H 26.811 -4.12418 -6.61462 0
M  V30 385 N 31.0401 0.771051 -1.3745 0
M  V30 386 C 31.9731 1.89166 -1.27638 0
M  V30 387 C 32.9511 1.61842 -0.156782 0
M  V30 388 O 34.1351 1.85569 -0.331111 0
M  V30 389 C 31.2621 3.24405 -0.973621 0
M  V30 390 C 30.3081 3.70638 -2.1102 0
M  V30 391 S 31.1411 3.84228 -3.73 0
M  V30 392 C 32.2971 5.22313 -3.44876 0
M  V30 393 H 32.5301 1.972 -2.22485 0
M  V30 394 H 30.0631 0.932224 -1.23081 0
M  V30 395 H 32.0211 4.02514 -0.805766 0
M  V30 396 H 30.6821 3.14071 -0.0426279 0
M  V30 397 H 29.8751 4.68685 -1.85338 0
M  V30 398 H 29.4771 2.99632 -2.23822 0
M  V30 399 H 31.7691 6.07505 -2.99908 0
M  V30 400 H 32.7121 5.53008 -4.42253 0
M  V30 401 H 33.1201 4.90284 -2.79789 0
M  V30 402 N 32.5182 1.22032 0.997298 0
M  V30 403 C 33.7642 1.04376 1.73878 0
M  V30 404 C 34.0972 -0.420716 1.89588 0
M  V30 405 O 33.3722 -1.31202 1.43583 0
M  V30 406 C 33.6552 1.75047 3.14691 0
M  V30 407 C 33.5082 3.29062 3.06656 0
M  V30 408 C 34.8272 1.49928 4.13775 0
M  V30 409 H 31.9462 0.380578 0.631133 0
M  V30 410 H 34.5882 1.50312 1.16217 0
M  V30 411 H 32.7382 1.35996 3.63919 0
M  V30 412 H 34.4102 3.7753 2.65083 0
M  V30 413 H 32.6532 3.58967 2.43568 0
M  V30 414 H 33.3242 3.73683 4.06282 0
M  V30 415 H 35.8002 1.83842 3.73285 0
M  V30 416 H 34.6762 2.01878 5.10428 0
M  V30 417 H 34.9372 0.430929 4.39995 0
M  V30 418 N 33.9963 -1.19345 1.0293 0
M  V30 419 C 35.2263 -1.92717 0.744563 0
M  V30 420 C 35.6343 -1.75751 -0.700579 0
M  V30 421 O 34.9773 -1.07703 -1.48815 0
M  V30 422 C 35.0393 -3.44828 1.01657 0
M  V30 423 C 34.7033 -3.85564 2.45335 0
M  V30 424 C 35.7003 -3.90286 3.43472 0
M  V30 425 C 33.3853 -4.1719 2.79746 0
M  V30 426 C 35.3793 -4.26065 4.74075 0
M  V30 427 C 33.0663 -4.52642 4.10559 0
M  V30 428 C 34.0643 -4.57054 5.07534 0
M  V30 429 O 33.7523 -4.91685 6.36004 0
M  V30 430 H 33.4843 -0.618977 0.271742 0
M  V30 431 H 36.0383 -1.52415 1.37691 0
M  V30 432 H 34.2683 -3.85314 0.327084 0
M  V30 433 H 35.9573 -3.99437 0.721427 0
M  V30 434 H 36.7233 -3.66002 3.18225 0
M  V30 435 H 32.6023 -4.1294 2.04943 0
M  V30 436 H 36.1463 -4.29423 5.49765 0
M  V30 437 H 32.0433 -4.76383 4.35579 0
M  V30 438 H 32.8113 -5.09631 6.40483 0
M  V30 439 N 35.4744 -0.807222 -1.35358 0
M  V30 440 C 36.7514 -0.311126 -1.9311 0
M  V30 441 C 37.1314 1.19937 -1.73719 0
M  V30 442 O 36.4794 1.99918 -1.10657 0
M  V30 443 C 36.6894 -0.723226 -3.41424 0
M  V30 444 C 38.0374 -0.713078 -4.18569 0
M  V30 445 O 39.0614 -0.664811 -3.49941 0
M  V30 446 O 37.9204 -0.772022 -5.41019 0
M  V30 447 H 35.0144 -0.081526 -0.822972 0
M  V30 448 H 37.5604 -0.890962 -1.4443 0
M  V30 449 H 36.3324 -1.76426 -3.4927 0
M  V30 450 H 35.9554 -0.118232 -3.97424 0
M  V30 451 N 36.9525 1.47285 -0.560781 0
M  V30 452 C 38.1825 2.06555 -0.0429638 0
M  V30 453 C 38.5905 1.41339 1.25777 0
M  V30 454 O 37.9335 0.505182 1.76617 0
M  V30 455 C 37.9955 3.58827 0.219887 0
M  V30 456 C 37.6595 4.46105 -0.991944 0
M  V30 457 C 38.6565 4.84 -1.89843 0
M  V30 458 C 36.3415 4.87567 -1.20762 0
M  V30 459 C 38.3355 5.6216 -3.00425 0
M  V30 460 C 36.0225 5.65491 -2.31653 0
M  V30 461 C 37.0205 6.02699 -3.21315 0
M  V30 462 O 36.7085 6.79052 -4.30283 0
M  V30 463 H 36.4405 0.674537 -0.0444468 0
M  V30 464 H 38.9945 1.90225 -0.774818 0
M  V30 465 H 37.2245 3.73383 1.00609 0
M  V30 466 H 38.9135 4.00103 0.683522 0
M  V30 467 H 39.6795 4.52564 -1.74387 0
M  V30 468 H 35.5585 4.5807 -0.518893 0
M  V30 469 H 39.1025 5.9112 -3.70436 0
M  V30 470 H 34.9995 5.9634 -2.47081 0
M  V30 471 H 35.7675 6.9745 -4.28376 0
M  V30 472 N 38.4306 0.297415 1.54768 0
M  V30 473 C 39.3606 -0.573494 2.26348 0
M  V30 474 C 40.3416 -1.14085 1.26169 0
M  V30 475 O 41.5266 -1.17086 1.54934 0
M  V30 476 C 38.6566 -1.74716 3.00153 0
M  V30 477 C 37.6106 -1.31032 4.07449 0
M  V30 478 C 36.9366 -2.56887 4.68949 0
M  V30 479 C 38.2366 -0.444183 5.20408 0
M  V30 480 H 39.9306 0.0235131 2.99391 0
M  V30 481 H 37.4766 0.0127488 1.43994 0
M  V30 482 H 39.4296 -2.3625 3.48947 0
M  V30 483 H 38.1536 -2.37035 2.24682 0
M  V30 484 H 36.8126 -0.718066 3.59499 0
M  V30 485 H 36.4606 -3.17512 3.90122 0
M  V30 486 H 36.1606 -2.2836 5.41411 0
M  V30 487 H 37.6846 -3.19229 5.20505 0
M  V30 488 H 39.0986 -0.9651 5.65118 0
M  V30 489 H 37.4956 -0.252846 5.99567 0
M  V30 490 H 38.5656 0.531609 4.81977 0
M  V30 491 N 39.9087 -1.5758 0.0250728 0
M  V30 492 C 40.8187 -2.1343 -0.973905 0
M  V30 493 C 41.8347 -1.08556 -1.35984 0
M  V30 494 O 43.0107 -1.40592 -1.44207 0
M  V30 495 C 40.0757 -2.64703 -2.23904 0
M  V30 496 C 39.1367 -3.84276 -1.91391 0
M  V30 497 C 38.3697 -4.33095 -3.11873 0
M  V30 498 O 38.5927 -3.81107 -4.24398 0
M  V30 499 O 37.5267 -5.24984 -2.94406 0
M  V30 500 H 41.3527 -2.99057 -0.529036 0
M  V30 501 H 38.9377 -1.48118 -0.195288 0
M  V30 502 H 40.8197 -2.97769 -2.98181 0
M  V30 503 H 39.4947 -1.82161 -2.6758 0
M  V30 504 H 38.4017 -3.56143 -1.14511 0
M  V30 505 H 39.7347 -4.67968 -1.52534 0
M  V30 506 N 41.3868 0.248026 -1.55636 0
M  V30 507 C 42.6348 0.974295 -1.77065 0
M  V30 508 C 42.9558 1.85897 -0.588849 0
M  V30 509 O 42.2258 1.91868 0.395407 0
M  V30 510 H 40.8058 0.362733 -0.653019 0
M  V30 511 H 43.4678 0.266244 -1.93073 0
M  V30 512 H 42.5638 1.59667 -2.68166 0
M  V30 513 N 42.8649 1.48995 0.513639 0
M  V30 514 C 44.1129 1.57531 1.26604 0
M  V30 515 C 44.4339 0.258236 1.93283 0
M  V30 516 O 43.7039 -0.721502 1.8213 0
M  V30 517 H 42.2839 0.580387 0.470276 0
M  V30 518 H 44.9459 1.85552 0.596373 0
M  V30 519 H 44.0419 2.36486 2.03669 0
M  V30 520 N 44.343 -0.763751 1.37857 0
M  V30 521 C 45.306 -1.85889 1.34081 0
M  V30 522 C 46.306 -1.58949 0.243277 0
M  V30 523 O 47.496 -1.66882 0.499589 0
M  V30 524 C 44.628 -3.23176 1.08489 0
M  V30 525 H 45.821 -1.90648 2.31502 0
M  V30 526 H 43.374 -0.964367 1.23003 0
M  V30 527 H 44.109 -3.24091 0.116318 0
M  V30 528 H 43.894 -3.44124 1.8794 0
M  V30 529 H 45.384 -4.03254 1.08517 0
M  V30 530 N 45.8211 -1.22559 -0.990812 0
M  V30 531 C 46.7311 -1.01394 -2.11557 0
M  V30 532 C 47.7471 0.0383962 -1.73958 0
M  V30 533 O 48.9231 -0.154787 -2.00804 0
M  V30 534 C 45.9881 -0.596569 -3.41529 0
M  V30 535 C 45.0491 -1.72276 -3.93217 0
M  V30 536 C 44.2821 -1.32521 -5.16985 0
M  V30 537 O 44.5051 -0.204909 -5.70032 0
M  V30 538 O 43.4391 -2.14247 -5.62478 0
M  V30 539 H 47.2651 -1.95633 -2.32296 0
M  V30 540 H 44.8501 -1.01172 -1.0993 0
M  V30 541 H 46.7321 -0.374263 -4.19735 0
M  V30 542 H 45.4071 0.316939 -3.22145 0
M  V30 543 H 44.3141 -1.99961 -3.16174 0
M  V30 544 H 45.6471 -2.61421 -4.17037 0
M  V30 545 N 47.2992 1.18797 -1.03562 0
M  V30 546 C 48.5762 1.84469 -0.650434 0
M  V30 547 C 48.9562 1.92319 0.870433 0
M  V30 548 O 48.3042 1.44528 1.76986 0
M  V30 549 C 48.5142 3.2306 -1.32036 0
M  V30 550 C 49.8622 3.9915 -1.44792 0
M  V30 551 O 50.8862 3.32481 -1.27806 0
M  V30 552 O 49.7452 5.18587 -1.72423 0
M  V30 553 H 46.8392 0.795251 -0.226946 0
M  V30 554 H 49.3852 1.26231 -1.13419 0
M  V30 555 H 48.1572 3.1222 -2.3587 0
M  V30 556 H 47.7802 3.88949 -0.8249 0
M  V30 557 N 48.7773 0.814389 1.34928 0
M  V30 558 C 49.6873 0.231978 2.3345 0
M  V30 559 C 50.7033 -0.629139 1.62228 0
M  V30 560 O 51.8793 -0.539052 1.94052 0
M  V30 561 C 48.9443 -0.603482 3.41407 0
M  V30 562 C 48.0053 0.279037 4.28392 0
M  V30 563 C 47.2383 -0.516643 5.31193 0
M  V30 564 O 47.4613 -1.75068 5.4287 0
M  V30 565 O 46.3953 0.0965652 6.01823 0
M  V30 566 H 50.2213 1.04721 2.85074 0
M  V30 567 H 47.8063 0.576343 1.37836 0
M  V30 568 H 49.6883 -1.07908 4.0735 0
M  V30 569 H 48.3633 -1.39618 2.92042 0
M  V30 570 H 47.2703 0.801948 3.65403 0
M  V30 571 H 48.6033 1.03588 4.81176 0
M  V30 572 N 50.2554 -1.46986 0.568584 0
M  V30 573 C 51.4854 -2.0653 0.0539173 0
M  V30 574 C 51.8934 -1.42004 -1.25026 0
M  V30 575 O 51.2364 -0.514541 -1.76347 0
M  V30 576 C 51.2984 -3.58938 -0.200854 0
M  V30 577 C 50.9624 -4.45572 1.01559 0
M  V30 578 C 51.9594 -4.82986 1.92407 0
M  V30 579 C 49.6444 -4.8692 1.23346 0
M  V30 580 C 51.6384 -5.60559 3.03402 0
M  V30 581 C 49.3254 -5.64255 2.34649 0
M  V30 582 C 50.3234 -6.00986 3.24507 0
M  V30 583 O 50.0114 -6.76761 4.33878 0
M  V30 584 H 49.7434 -0.674292 0.0480234 0
M  V30 585 H 52.2974 -1.89812 0.784896 0
M  V30 586 H 50.5274 -3.73911 -0.986279 0
M  V30 587 H 52.2164 -4.0046 -0.662294 0
M  V30 588 H 52.9824 -4.51633 1.76785 0
M  V30 589 H 48.8614 -4.57789 0.543178 0
M  V30 590 H 52.4054 -5.89147 3.73565 0
M  V30 591 H 48.3024 -5.95021 2.5024 0
M  V30 592 H 49.0704 -6.95168 4.32068 0
M  V30 593 N 51.7335 -0.305618 -1.54608 0
M  V30 594 C 52.9815 0.301701 -1.99835 0
M  V30 595 C 53.3025 1.54054 -1.19551 0
M  V30 596 O 52.5725 1.93702 -0.292658 0
M  V30 597 H 51.1525 0.114468 -0.738178 0
M  V30 598 H 53.8145 -0.418016 -1.90364 0
M  V30 599 H 52.9105 0.570548 -3.06841 0
M  V30 600 N 53.2116 1.57565 -0.0334293 0
M  V30 601 C 54.4576 1.92262 0.645226 0
M  V30 602 C 54.7906 0.910543 1.71531 0
M  V30 603 O 54.0656 -0.066099 1.94388 0
M  V30 604 C 54.3486 3.37422 1.2577 0
M  V30 605 C 54.2016 4.49369 0.196891 0
M  V30 606 C 55.5206 3.82628 2.17449 0
M  V30 607 H 52.6396 0.699171 0.233085 0
M  V30 608 H 55.2816 1.89779 -0.0915694 0
M  V30 609 H 53.4316 3.39669 1.88566 0
M  V30 610 H 55.1036 4.59254 -0.433962 0
M  V30 611 H 53.3466 4.31168 -0.477137 0
M  V30 612 H 54.0176 5.47978 0.665124 0
M  V30 613 H 56.4936 3.82145 1.64634 0
M  V30 614 H 55.3696 4.84883 2.57254 0
M  V30 615 H 55.6306 3.18376 3.0674 0
M  V30 616 N 54.6897 -0.239769 1.55765 0
M  V30 617 C 55.6367 -1.29696 1.90913 0
M  V30 618 C 56.6067 -1.47478 0.764164 0
M  V30 619 O 57.7917 -1.61345 1.01845 0
M  V30 620 C 54.9317 -2.64598 2.21544 0
M  V30 621 C 54.0447 -2.54765 3.48882 0
M  V30 622 C 53.1797 -3.82069 3.69049 0
M  V30 623 C 52.2187 -3.66883 4.89963 0
M  V30 624 N 51.3557 -4.86094 5.06614 0
M  V30 625 H 56.1957 -0.990224 2.81067 0
M  V30 626 H 53.7327 -0.477684 1.39128 0
M  V30 627 H 55.6907 -3.43132 2.3731 0
M  V30 628 H 54.3207 -2.93405 1.34585 0
M  V30 629 H 53.3727 -1.67763 3.41409 0
M  V30 630 H 54.6847 -2.39457 4.37563 0
M  V30 631 H 53.8387 -4.69046 3.84812 0
M  V30 632 H 52.5777 -4.00282 2.78614 0
M  V30 633 H 51.5827 -2.78289 4.74168 0
M  V30 634 H 52.8077 -3.50157 5.81865 0
M  V30 635 H 50.7537 -5.04655 4.19117 0
M  V30 636 H 50.6707 -4.73443 5.89396 0
M  V30 637 H 51.9387 -5.74549 5.26795 0
M  V30 638 N 56.1678 -1.49265 -0.50573 0
M  V30 639 C 57.1178 -1.6198 -1.60457 0
M  V30 640 C 58.1018 -0.47568 -1.53708 0
M  V30 641 O 59.2938 -0.728392 -1.61318 0
M  V30 642 C 56.4228 -1.68526 -2.99089 0
M  V30 643 C 55.5088 -2.885 -3.10852 0
M  V30 644 N 55.8998 -4.12635 -2.92517 0
M  V30 645 C 54.1978 -2.86338 -3.41945 0
M  V30 646 C 54.8988 -4.93258 -3.08337 0
M  V30 647 N 53.8748 -4.26533 -3.37003 0
M  V30 648 H 57.6768 -2.55681 -1.44928 0
M  V30 649 H 55.1908 -1.45972 -0.711752 0
M  V30 650 H 57.1878 -1.75732 -3.78053 0
M  V30 651 H 55.8478 -0.759584 -3.1569 0
M  V30 652 H 56.8588 -4.42689 -2.68787 0
M  V30 653 H 53.5358 -2.03129 -3.64753 0
M  V30 654 H 54.9258 -6.01856 -2.98695 0
M  V30 655 N 57.6459 0.756429 -1.3826 0
M  V30 656 C 58.5939 1.89149 -1.35372 0
M  V30 657 C 59.5879 1.67691 -0.24004 0
M  V30 658 O 60.7939 1.75294 -0.408919 0
M  V30 659 H 57.1689 0.622271 -0.422236 0
M  V30 660 H 59.1399 1.88701 -2.31159 0
M  V30 661 C 57.8889 3.26599 -1.19284 0
M  V30 662 H 57.2119 3.43695 -2.0424 0
M  V30 663 H 58.6519 4.06274 -1.21316 0
M  V30 664 C 57.1109 3.3675 0.100454 0
M  V30 665 O 57.6409 3.86951 1.07851 0
M  V30 666 N 55.8469 2.90179 0.15633 0
M  V30 667 H 55.3939 2.49517 -0.640253 0
M  V30 668 H 55.3519 2.97352 1.02123 0
M  V30 669 N 59.124 1.23083 0.984299 0
M  V30 670 C 60.54 0.992637 1.24975 0
M  V30 671 C 60.74 -0.308618 1.99123 0
M  V30 672 O 59.796 -1.02905 2.30579 0
M  V30 673 C 61.109 2.19698 2.05312 0
M  V30 674 C 62.657 2.24147 2.18465 0
M  V30 675 C 63.132 3.44157 3.02192 0
M  V30 676 N 64.623 3.44372 3.09777 0
M  V30 677 C 65.358 4.33886 3.74874 0
M  V30 678 N 64.854 5.3363 4.41827 0
M  V30 679 N 66.647 4.21639 3.71721 0
M  V30 680 H 58.798 2.06731 0.487453 0
M  V30 681 H 61.061 0.906339 0.277944 0
M  V30 682 H 60.767 3.1411 1.58201 0
M  V30 683 H 60.641 2.20465 3.06064 0
M  V30 684 H 63.028 1.30277 2.64786 0
M  V30 685 H 63.109 2.27415 1.17115 0
M  V30 686 H 62.753 4.38332 2.56568 0
M  V30 687 H 62.683 3.3813 4.03702 0
M  V30 688 H 65.174 2.72201 2.62135 0
M  V30 689 H 65.487 5.98196 4.89266 0
M  V30 690 H 63.832 5.37534 4.40548 0
M  V30 691 H 67.023 3.42962 3.18582 0
M  V30 692 H 67.196 4.91604 4.22173 0
M  V30 693 N 60.6021 -1.18246 1.0419 0
M  V30 694 C 61.8791 -1.84121 0.660208 0
M  V30 695 C 62.2591 -1.92778 -0.860221 0
M  V30 696 O 61.6071 -1.45464 -1.76217 0
M  V30 697 C 61.8171 -3.22355 1.33747 0
M  V30 698 C 63.1651 -3.98376 1.46906 0
M  V30 699 O 64.1891 -3.31799 1.29568 0
M  V30 700 O 63.0481 -5.17665 1.75171 0
M  V30 701 H 60.1421 -0.794036 0.231161 0
M  V30 702 H 62.6881 -1.25628 1.14087 0
M  V30 703 H 61.4601 -3.10964 2.37522 0
M  V30 704 H 61.0831 -3.88506 0.845515 0
M  V30 705 N 62.0802 -0.821533 -1.34494 0
M  V30 706 C 63.3262 -0.409552 -1.98622 0
M  V30 707 C 63.6592 1.0244 -1.64984 0
M  V30 708 O 62.9342 1.71325 -0.920758 0
M  V30 709 C 63.2172 -0.610458 -3.54888 0
M  V30 710 C 63.0702 -2.09043 -3.98273 0
M  V30 711 C 64.3892 -0.0455379 -4.40076 0
M  V30 712 H 61.5082 -0.15028 -0.721516 0
M  V30 713 H 64.1502 -1.03384 -1.59411 0
M  V30 714 H 62.3002 -0.079044 -3.8842 0
M  V30 715 H 63.9722 -2.68537 -3.75081 0
M  V30 716 H 62.2152 -2.58139 -3.48635 0
M  V30 717 H 62.8862 -2.18182 -5.07051 0
M  V30 718 H 65.3622 -0.499557 -4.1309 0
M  V30 719 H 64.2382 -0.215922 -5.48475 0
M  V30 720 H 64.4992 1.04939 -4.29465 0
M  V30 721 N 63.5583 1.46682 -0.576371 0
M  V30 722 C 64.8053 2.02412 -0.0595339 0
M  V30 723 C 65.1333 1.44859 1.29793 0
M  V30 724 O 64.3883 0.601099 1.8624 0
M  V30 725 C 64.6873 3.57345 0.062886 0
M  V30 726 C 64.3533 4.33908 -1.22616 0
M  V30 727 C 63.0153 4.54544 -1.57933 0
M  V30 728 C 65.3673 4.77919 -2.07948 0
M  V30 729 C 62.6953 5.16444 -2.78393 0
M  V30 730 C 65.0473 5.41149 -3.27629 0
M  V30 731 C 63.7113 5.60014 -3.63236 0
M  V30 732 H 62.9813 0.74068 -0.021785 0
M  V30 733 H 65.6283 1.76128 -0.751735 0
M  V30 734 H 63.9333 3.82729 0.838178 0
M  V30 735 H 65.6303 3.98136 0.478439 0
M  V30 736 H 62.2203 4.18138 -0.941202 0
M  V30 737 H 66.4043 4.61738 -1.81967 0
M  V30 738 H 61.6603 5.29242 -3.06126 0
M  V30 739 H 65.8343 5.74211 -3.94023 0
M  V30 740 H 63.4613 6.07748 -4.56669 0
M  V30 741 N 65.0364 0.313813 1.54444 0
M  V30 742 C 65.9684 -0.590425 2.21465 0
M  V30 743 C 66.9814 -1.08753 1.21147 0
M  V30 744 O 68.1704 -1.00278 1.4767 0
M  V30 745 C 65.2704 -1.82179 2.85769 0
M  V30 746 C 64.4434 -1.46502 4.12136 0
M  V30 747 C 63.5024 -2.55288 4.60124 0
M  V30 748 O 62.5284 -2.19842 5.25032 0
M  V30 749 N 63.7304 -3.86053 4.33525 0
M  V30 750 H 66.4954 -0.0166033 2.99695 0
M  V30 751 H 64.0564 0.136578 1.61323 0
M  V30 752 H 66.0484 -2.54328 3.14801 0
M  V30 753 H 64.6184 -2.30369 2.11303 0
M  V30 754 H 63.8384 -0.575595 3.89975 0
M  V30 755 H 65.1264 -1.20221 4.94393 0
M  V30 756 H 64.5244 -4.17654 3.81552 0
M  V30 757 H 63.0814 -4.54461 4.67235 0
M  V30 758 N 66.5145 -1.57545 0.0417849 0
M  V30 759 C 67.4465 -2.07904 -0.964799 0
M  V30 760 C 68.4595 -1.00497 -1.28079 0
M  V30 761 O 69.6485 -1.28087 -1.24322 0
M  V30 762 C 66.7485 -2.49928 -2.28887 0
M  V30 763 C 65.9215 -3.80562 -2.15619 0
M  V30 764 C 64.9805 -4.08999 -3.31069 0
M  V30 765 O 64.0065 -4.79061 -3.0739 0
M  V30 766 N 65.2085 -3.6017 -4.55256 0
M  V30 767 H 67.9735 -2.94886 -0.535029 0
M  V30 768 H 65.5345 -1.61252 -0.144681 0
M  V30 769 H 67.5265 -2.66034 -3.04972 0
M  V30 770 H 66.0965 -1.68245 -2.63463 0
M  V30 771 H 65.3165 -3.74129 -1.24183 0
M  V30 772 H 66.6045 -4.66126 -2.03971 0
M  V30 773 H 66.0025 -3.03512 -4.77386 0
M  V30 774 H 64.5595 -3.81532 -5.28466 0
M  V30 775 N 67.9926 0.231505 -1.5589 0
M  V30 776 C 69.2386 0.954429 -1.79617 0
M  V30 777 C 69.5936 1.82367 -0.613199 0
M  V30 778 O 68.8866 1.87524 0.393094 0
M  V30 779 C 69.0806 1.83577 -3.0665 0
M  V30 780 C 68.9096 1.05334 -4.3719 0
M  V30 781 C 67.6796 0.75225 -4.99669 0
M  V30 782 C 69.8776 0.423444 -5.12554 0
M  V30 783 N 67.8596 -0.052627 -6.13877 0
M  V30 784 C 69.2306 -0.245287 -6.19515 0
M  V30 785 C 71.2856 0.335466 -4.96769 0
M  V30 786 C 69.9886 -0.993566 -7.12405 0
M  V30 787 C 72.0146 -0.399321 -5.9005 0
M  V30 788 C 71.3766 -1.05663 -6.9643 0
M  V30 789 H 67.4756 0.329846 -0.709031 0
M  V30 790 H 70.0596 0.226172 -1.93382 0
M  V30 791 H 68.2306 2.53592 -2.94186 0
M  V30 792 H 69.9626 2.49541 -3.18608 0
M  V30 793 H 66.7176 1.06783 -4.61405 0
M  V30 794 H 67.1416 -0.443609 -6.75545 0
M  V30 795 H 71.7836 0.829311 -4.14587 0
M  V30 796 H 69.5016 -1.49896 -7.94076 0
M  V30 797 H 73.0876 -0.468265 -5.79913 0
M  V30 798 H 71.9676 -1.61612 -7.67366 0
M  V30 799 N 69.4707 1.49531 0.497807 0
M  V30 800 C 70.8867 1.36365 0.829266 0
M  V30 801 C 71.0867 0.399184 1.97506 0
M  V30 802 O 70.1427 -0.167977 2.51941 0
M  V30 803 C 71.4557 2.77153 1.16647 0
M  V30 804 C 73.0037 2.85877 1.27449 0
M  V30 805 C 73.4787 4.2744 1.64497 0
M  V30 806 N 74.9697 4.30265 1.7154 0
M  V30 807 C 75.7047 5.3677 2.01656 0
M  V30 808 N 75.2007 6.53516 2.29976 0
M  V30 809 N 76.9937 5.24189 2.02934 0
M  V30 810 H 69.1447 2.10831 -0.257703 0
M  V30 811 H 71.4077 0.946534 -0.0527091 0
M  V30 812 H 71.1137 3.49442 0.397872 0
M  V30 813 H 70.9877 3.12722 2.10915 0
M  V30 814 H 73.3747 2.13824 2.0338 0
M  V30 815 H 73.4557 2.53887 0.312244 0
M  V30 816 H 73.0997 5.00021 0.891151 0
M  V30 817 H 73.0297 4.56896 2.61827 0
M  V30 818 H 75.5207 3.4607 1.51802 0
M  V30 819 H 75.8337 7.30506 2.52153 0
M  V30 820 H 74.1787 6.56737 2.27425 0
M  V30 821 H 77.3697 4.31988 1.80289 0
M  V30 822 H 77.5427 6.07286 2.26071 0
M  V30 823 N 70.9488 -0.749086 1.3866 0
M  V30 824 C 72.1958 -1.50833 1.35114 0
M  V30 825 C 72.5238 -1.94415 -0.0574049 0
M  V30 826 O 71.7788 -1.66065 -1.03541 0
M  V30 827 C 72.0778 -2.7712 2.25697 0
M  V30 828 C 71.7438 -2.52477 3.73585 0
M  V30 829 C 70.4058 -2.45466 4.13884 0
M  V30 830 C 72.7578 -2.31066 4.67181 0
M  V30 831 C 70.0858 -2.15064 5.45861 0
M  V30 832 C 72.4378 -2.02183 5.9942 0
M  V30 833 C 71.1018 -1.93631 6.38798 0
M  V30 834 H 70.3718 -0.551936 0.494416 0
M  V30 835 H 73.0188 -0.860979 1.71054 0
M  V30 836 H 71.3238 -3.46528 1.82827 0
M  V30 837 H 73.0208 -3.35096 2.20254 0
M  V30 838 H 69.6108 -2.58807 3.41638 0
M  V30 839 H 73.7948 -2.35459 4.3689 0
M  V30 840 H 69.0508 -2.06954 5.75308 0
M  V30 841 H 73.2248 -1.8462 6.71482 0
M  V30 842 H 70.8518 -1.69839 7.40985 0
M  V30 843 N 72.4269 -1.23603 -0.977757 0
M  V30 844 C 73.3739 -1.01954 -2.07061 0
M  V30 845 C 74.3439 0.0638697 -1.65977 0
M  V30 846 O 75.5289 -0.0887624 -1.90593 0
M  V30 847 C 72.6689 -0.619658 -3.39491 0
M  V30 848 C 71.7819 -1.77547 -3.93829 0
M  V30 849 C 70.9169 -1.32212 -5.14484 0
M  V30 850 C 69.9559 -2.44852 -5.60994 0
M  V30 851 N 69.0929 -2.00456 -6.72876 0
M  V30 852 H 73.9329 -1.95495 -2.24913 0
M  V30 853 H 71.4699 -0.973861 -1.10247 0
M  V30 854 H 73.4279 -0.368898 -4.15566 0
M  V30 855 H 72.0579 0.278752 -3.21594 0
M  V30 856 H 71.1099 -2.14016 -3.14486 0
M  V30 857 H 72.4219 -2.62219 -4.24314 0
M  V30 858 H 71.5759 -1.02965 -5.97899 0
M  V30 859 H 70.3149 -0.445808 -4.85658 0
M  V30 860 H 69.3199 -2.74871 -4.76157 0
M  V30 861 H 70.5449 -3.33024 -5.91837 0
M  V30 862 H 68.4909 -1.15208 -6.45804 0
M  V30 863 H 68.4079 -2.78687 -7.02759 0
M  V30 864 H 69.6759 -1.7432 -7.59758 0
M  V30 865 N 73.905 1.17692 -1.04816 0
M  V30 866 C 75.316 1.69501 -0.782698 0
M  V30 867 C 75.667 1.83456 0.695577 0
M  V30 868 O 74.792 1.51942 1.54086 0
M  V30 869 C 75.387 3.07874 -1.41419 0
M  V30 870 C 73.946 3.56864 -1.19686 0
M  V30 871 C 73.093 2.3322 -1.50012 0
M  V30 872 H 76.044 1.02262 -1.2136 0
M  V30 873 H 76.065 3.71528 -0.821428 0
M  V30 874 H 75.577 2.97685 -2.49009 0
M  V30 875 H 73.678 3.72337 -0.140043 0
M  V30 876 H 73.791 4.39851 -1.89916 0
M  V30 877 H 72.155 2.37501 -0.920071 0
M  V30 878 H 72.938 2.25644 -2.58727 0
M  V30 879 N 75.3831 0.828654 1.34056 0
M  V30 880 C 76.3301 0.252567 2.29414 0
M  V30 881 C 77.3001 -0.62588 1.53857 0
M  V30 882 O 78.4851 -0.566312 1.82202 0
M  V30 883 C 75.6251 -0.574831 3.40279 0
M  V30 884 C 74.7381 0.326499 4.30764 0
M  V30 885 C 73.8731 -0.511016 5.28736 0
M  V30 886 C 72.9121 0.389342 6.1086 0
M  V30 887 N 72.0491 -0.409439 7.00905 0
M  V30 888 H 76.8891 1.07108 2.78086 0
M  V30 889 H 74.4261 0.539677 1.36843 0
M  V30 890 H 76.3841 -1.06992 4.03248 0
M  V30 891 H 75.0141 -1.35841 2.92826 0
M  V30 892 H 74.0661 0.939837 3.68607 0
M  V30 893 H 75.3781 1.01857 4.88289 0
M  V30 894 H 74.5321 -1.07035 5.97184 0
M  V30 895 H 73.2711 -1.23657 4.71763 0
M  V30 896 H 72.2761 0.960769 5.4134 0
M  V30 897 H 73.5011 1.1131 6.69916 0
M  V30 898 H 71.4471 -1.11856 6.46393 0
M  V30 899 H 71.3641 0.224126 7.55668 0
M  V30 900 H 72.6321 -0.951336 7.73673 0
M  V30 901 N 76.8612 -1.46375 0.584142 0
M  V30 902 C 78.2772 -1.57694 0.245929 0
M  V30 903 C 78.4772 -1.57903 -1.25175 0
M  V30 904 O 77.5332 -1.49676 -2.03355 0
M  V30 905 C 78.8462 -2.87028 0.896402 0
M  V30 906 C 80.3942 -3.00662 0.870127 0
M  V30 907 C 80.8692 -4.32734 1.50017 0
M  V30 908 N 82.3602 -4.39436 1.46458 0
M  V30 909 C 83.0952 -5.40248 1.92144 0
M  V30 910 N 82.5912 -6.47726 2.4581 0
M  V30 911 N 84.3842 -5.31459 1.83052 0
M  V30 912 H 76.5352 -1.44483 1.55687 0
M  V30 913 H 78.7982 -0.689291 0.650831 0
M  V30 914 H 78.5042 -2.9269 1.95002 0
M  V30 915 H 78.3782 -3.75014 0.405486 0
M  V30 916 H 80.7652 -2.94581 -0.174871 0
M  V30 917 H 80.8462 -2.14148 1.39908 0
M  V30 918 H 80.4902 -4.39573 2.54437 0
M  V30 919 H 80.4202 -5.18025 0.946432 0
M  V30 920 H 82.9112 -3.62367 1.07231 0
M  V30 921 H 83.2242 -7.20863 2.78525 0
M  V30 922 H 81.5692 -6.48542 2.49836 0
M  V30 923 H 84.7602 -4.46396 1.40883 0
M  V30 924 H 84.9332 -6.09881 2.18973 0
M  V30 925 N 78.3393 -0.321999 -1.54275 0
M  V30 926 C 79.2693 0.537411 -2.27231 0
M  V30 927 C 80.2503 1.12064 -1.27968 0
M  V30 928 O 81.4353 1.14606 -1.56777 0
M  V30 929 C 78.5653 1.69919 -3.02894 0
M  V30 930 C 77.5193 1.24534 -4.09482 0
M  V30 931 C 76.8453 2.49394 -4.72977 0
M  V30 932 C 78.1453 0.361335 -5.21049 0
M  V30 933 H 79.8393 -0.0711406 -2.99315 0
M  V30 934 H 77.3853 -0.0356555 -1.43956 0
M  V30 935 H 79.3383 2.30668 -3.52662 0
M  V30 936 H 78.0623 2.33431 -2.28424 0
M  V30 937 H 76.7213 0.660782 -3.60596 0
M  V30 938 H 76.3693 3.11265 -3.95124 0
M  V30 939 H 76.0693 2.19718 -5.44975 0
M  V30 940 H 77.5933 3.10908 -5.25517 0
M  V30 941 H 79.0073 0.875072 -5.66582 0
M  V30 942 H 77.4043 0.157428 -5.99893 0
M  V30 943 H 78.4743 -0.60822 -4.8107 0
M  V30 944 N 79.8174 1.5752 -0.0501392 0
M  V30 945 C 81.0634 1.92936 0.624798 0
M  V30 946 C 81.3964 0.928685 1.70555 0
M  V30 947 O 80.6714 -0.0454779 1.94447 0
M  V30 948 C 80.9544 3.38737 1.22185 0
M  V30 949 C 80.8074 4.49552 0.149218 0
M  V30 950 C 82.1264 3.84913 2.13378 0
M  V30 951 H 79.2454 0.701604 0.225657 0
M  V30 952 H 81.8874 1.89671 -0.111693 0
M  V30 953 H 80.0374 3.4165 1.84953 0
M  V30 954 H 81.7094 4.58768 -0.482648 0
M  V30 955 H 79.9524 4.30638 -0.522841 0
M  V30 956 H 80.6234 5.48653 0.606966 0
M  V30 957 H 83.0994 3.8387 1.60572 0
M  V30 958 H 81.9754 4.87584 2.52097 0
M  V30 959 H 82.2364 3.21611 3.03346 0
M  V30 960 N 81.2955 -0.223234 1.56011 0
M  V30 961 C 82.5725 -0.972108 1.69733 0
M  V30 962 C 82.9525 -2.02485 0.59691 0
M  V30 963 O 82.3005 -2.25037 -0.396324 0
M  V30 964 C 82.5105 -1.58407 3.10979 0
M  V30 965 C 83.8585 -2.07696 3.70334 0
M  V30 966 O 84.8825 -1.68304 3.1393 0
M  V30 967 O 83.7415 -2.80096 4.69264 0
M  V30 968 H 80.8355 -0.453993 0.691245 0
M  V30 969 H 83.3815 -0.215149 1.68331 0
M  V30 970 H 82.1535 -0.823831 3.82529 0
M  V30 971 H 81.7765 -2.40661 3.16493 0
M  V30 972 N 82.7736 -1.49793 -0.48987 0
M  V30 973 C 84.0196 -1.60078 -1.24511 0
M  V30 974 C 84.3526 -0.291608 -1.91998 0
M  V30 975 O 83.6276 0.705647 -1.81248 0
M  V30 976 C 83.9106 -2.76791 -2.30345 0
M  V30 977 C 83.7636 -4.17535 -1.67286 0
M  V30 978 C 85.0826 -2.89111 -3.31817 0
M  V30 979 H 82.2016 -0.582645 -0.451324 0
M  V30 980 H 84.8436 -1.82117 -0.541612 0
M  V30 981 H 82.9936 -2.5813 -2.90346 0
M  V30 982 H 84.6656 -4.4774 -1.11026 0
M  V30 983 H 82.9086 -4.22665 -0.976577 0
M  V30 984 H 83.5796 -4.95094 -2.44103 0
M  V30 985 H 86.0556 -3.06133 -2.81819 0
M  V30 986 H 84.9316 -3.72433 -4.03219 0
M  V30 987 H 85.1926 -1.9893 -3.94815 0
M  V30 988 N 84.2517 0.741722 -1.39055 0
M  V30 989 C 85.4767 1.53607 -1.39354 0
M  V30 990 C 85.9017 1.88096 0.0116905 0
M  V30 991 O 85.2597 1.5143 0.996924 0
M  V30 992 C 85.3077 2.80441 -2.26682 0
M  V30 993 O 84.4117 3.76088 -1.69208 0
M  V30 994 H 83.7527 0.464142 -0.474835 0
M  V30 995 H 86.2827 0.915665 -1.82967 0
M  V30 996 H 86.2927 3.29246 -2.40959 0
M  V30 997 H 84.9677 2.5467 -3.2881 0
M  V30 998 H 83.5447 3.34833 -1.64138 0
M  V30 999 N 85.7298 1.2412 0.971189 0
M  V30 1000 C 87.1458 1.00584 1.23916 0
M  V30 1001 C 87.3458 -0.287481 1.99439 0
M  V30 1002 O 86.4018 -1.00454 2.31658 0
M  V30 1003 C 87.7148 2.21864 2.0297 0
M  V30 1004 C 89.2628 2.26452 2.16076 0
M  V30 1005 C 89.7378 3.47343 2.98524 0
M  V30 1006 N 91.2288 3.47639 3.06107 0
M  V30 1007 C 91.9638 4.37837 3.70251 0
M  V30 1008 N 91.4598 5.38286 4.36142 0
M  V30 1009 N 93.2528 4.25558 3.67228 0
M  V30 1010 H 85.4038 2.07236 0.465499 0
M  V30 1011 H 87.6668 0.909236 0.268315 0
M  V30 1012 H 87.3728 3.15771 1.54861 0
M  V30 1013 H 87.2468 2.23698 3.03709 0
M  V30 1014 H 89.6338 1.33078 2.6339 0
M  V30 1015 H 89.7148 2.28645 1.14696 0
M  V30 1016 H 89.3588 4.41029 2.51905 0
M  V30 1017 H 89.2888 3.42393 4.00093 0
M  V30 1018 H 91.7798 2.74966 2.59233 0
M  V30 1019 H 92.0928 6.03352 4.82894 0
M  V30 1020 H 90.4378 5.42176 4.34822 0
M  V30 1021 H 93.6288 3.46322 3.14927 0
M  V30 1022 H 93.8018 4.96054 4.16935 0
M  V30 1023 N 87.2079 -1.17134 1.05439 0
M  V30 1024 C 88.6239 -1.39454 0.776201 0
M  V30 1025 C 88.8239 -1.91454 -0.628307 0
M  V30 1026 O 87.8799 -2.10777 -1.39031 0
M  V30 1027 C 89.1929 -2.38305 1.83388 0
M  V30 1028 C 90.7409 -2.52006 1.85639 0
M  V30 1029 C 91.2159 -3.54133 2.90437 0
M  V30 1030 N 92.7069 -3.61653 2.89415 0
M  V30 1031 C 93.4419 -4.4044 3.67152 0
M  V30 1032 N 92.9379 -5.22721 4.54681 0
M  V30 1033 N 94.7309 -4.35337 3.55581 0
M  V30 1034 H 86.8819 -0.817134 1.96053 0
M  V30 1035 H 89.1449 -0.421626 0.849079 0
M  V30 1036 H 88.8509 -2.07173 2.84204 0
M  V30 1037 H 88.7249 -3.37841 1.67761 0
M  V30 1038 H 91.1119 -2.82447 0.85486 0
M  V30 1039 H 91.1929 -1.52537 2.05344 0
M  V30 1040 H 90.8369 -3.24431 3.90777 0
M  V30 1041 H 90.7669 -4.53313 2.67983 0
M  V30 1042 H 93.2579 -3.02909 2.25952 0
M  V30 1043 H 93.5709 -5.80027 5.10674 0
M  V30 1044 H 91.9159 -5.22093 4.58741 0
M  V30 1045 H 95.1069 -3.70112 2.86592 0
M  V30 1046 H 95.2799 -4.96494 4.1641 0
M  V30 1047 N 88.686 -0.835752 -1.33615 0
M  V30 1048 C 89.911 -0.442389 -2.02627 0
M  V30 1049 C 90.336 0.947735 -1.62479 0
M  V30 1050 O 89.694 1.61907 -0.815826 0
M  V30 1051 C 89.742 -0.567216 -3.56111 0
M  V30 1052 O 88.846 0.407799 -4.10379 0
M  V30 1053 H 88.187 -0.180278 -0.639059 0
M  V30 1054 H 90.717 -1.12972 -1.70583 0
M  V30 1055 H 90.727 -0.447708 -4.05536 0
M  V30 1056 H 89.402 -1.58103 -3.84677 0
M  V30 1057 H 87.979 0.246107 -3.72087 0
M  V30 1058 N 90.1641 1.46063 -0.591896 0
M  V30 1059 C 91.0941 2.33172 0.123673 0
M  V30 1060 C 92.0751 1.45897 0.87453 0
M  V30 1061 O 93.2601 1.74698 0.848181 0
M  V30 1062 C 90.3901 3.28336 1.13194 0
M  V30 1063 C 89.3441 4.25124 0.495324 0
M  V30 1064 C 88.6701 5.09863 1.61071 0
M  V30 1065 C 89.9701 5.19143 -0.573425 0
M  V30 1066 H 91.6641 2.93252 -0.603646 0
M  V30 1067 H 89.2101 1.41014 -0.291741 0
M  V30 1068 H 91.1631 3.88137 1.64097 0
M  V30 1069 H 89.8871 2.66383 1.88965 0
M  V30 1070 H 88.5461 3.66599 0.00729452 0
M  V30 1071 H 88.1941 4.44288 2.35832 0
M  V30 1072 H 87.8941 5.75417 1.19035 0
M  V30 1073 H 89.4181 5.72529 2.12233 0
M  V30 1074 H 90.8321 5.73106 -0.1491 0
M  V30 1075 H 89.2291 5.93089 -0.914636 0
M  V30 1076 H 90.2991 4.62519 -1.45617 0
M  V30 1077 N 91.6422 0.330177 1.54103 0
M  V30 1078 C 92.5742 -0.566902 2.22079 0
M  V30 1079 C 93.5872 -1.07462 1.22294 0
M  V30 1080 O 94.7762 -0.987065 1.48726 0
M  V30 1081 C 91.8762 -1.79138 2.87685 0
M  V30 1082 C 91.0492 -1.42123 4.13666 0
M  V30 1083 C 90.1082 -2.50394 4.62806 0
M  V30 1084 O 89.1342 -2.14261 5.27334 0
M  V30 1085 N 90.3362 -3.81433 4.37595 0
M  V30 1086 H 93.1012 0.0151844 2.99696 0
M  V30 1087 H 90.6622 0.153681 1.61169 0
M  V30 1088 H 92.6542 -2.50975 3.1748 0
M  V30 1089 H 91.2242 -2.28115 2.13734 0
M  V30 1090 H 90.4442 -0.534201 3.90564 0
M  V30 1091 H 91.7322 -1.14971 4.9564 0
M  V30 1092 H 91.1302 -4.13584 3.8596 0
M  V30 1093 H 89.6872 -4.4948 4.72029 0
M  V30 1094 N 93.1203 -1.57491 0.0584922 0
M  V30 1095 C 94.0833 -2.1085 -0.898617 0
M  V30 1096 C 95.0833 -1.02964 -1.23511 0
M  V30 1097 O 96.2733 -1.29007 -1.17059 0
M  V30 1098 C 93.4053 -2.59881 -2.20623 0
M  V30 1099 H 94.5983 -2.96715 -0.435936 0
M  V30 1100 H 92.1513 -1.55141 -0.190023 0
M  V30 1101 H 92.8863 -1.77431 -2.71457 0
M  V30 1102 H 92.6713 -3.38727 -1.97501 0
M  V30 1103 H 94.1613 -3.01285 -2.89166 0
M  V30 1104 N 94.5984 0.214957 -1.56127 0
M  V30 1105 C 95.5084 1.28727 -1.96129 0
M  V30 1106 C 96.5244 1.50916 -0.866044 0
M  V30 1107 O 97.7004 1.63918 -1.17016 0
M  V30 1108 C 94.7654 2.61569 -2.27558 0
M  V30 1109 C 93.8264 2.47625 -3.50685 0
M  V30 1110 C 93.0594 3.74132 -3.80606 0
M  V30 1111 O 93.2824 4.77438 -3.12104 0
M  V30 1112 O 92.2164 3.70849 -4.74083 0
M  V30 1113 H 96.0424 0.977855 -2.87527 0
M  V30 1114 H 93.6274 0.418358 -1.43423 0
M  V30 1115 H 95.5094 3.40012 -2.48938 0
M  V30 1116 H 94.1844 2.92178 -1.39332 0
M  V30 1117 H 93.0914 1.67361 -3.34576 0
M  V30 1118 H 94.4244 2.21954 -4.39315 0
M  V30 1119 N 96.0765 1.50051 0.48192 0
M  V30 1120 C 97.3225 1.60736 1.2366 0
M  V30 1121 C 97.6555 0.301786 1.91841 0
M  V30 1122 O 96.9305 -0.696025 1.8162 0
M  V30 1123 C 97.2135 2.78009 2.28874 0
M  V30 1124 C 97.0665 4.18416 1.65069 0
M  V30 1125 C 98.3855 2.90867 3.30279 0
M  V30 1126 H 95.5045 0.585031 0.448228 0
M  V30 1127 H 98.1465 1.82402 0.531946 0
M  V30 1128 H 96.2965 2.59667 2.88973 0
M  V30 1129 H 97.9685 4.48322 1.0865 0
M  V30 1130 H 96.2115 4.23177 0.954148 0
M  V30 1131 H 96.8825 4.96381 2.41474 0
M  V30 1132 H 99.3585 3.07623 2.80191 0
M  V30 1133 H 98.2345 3.74566 4.01238 0
M  V30 1134 H 98.4955 2.01021 3.93755 0
M  V30 1135 N 97.5546 -0.734337 1.39446 0
M  V30 1136 C 98.4846 -1.86155 1.40955 0
M  V30 1137 C 99.4656 -1.67898 0.272827 0
M  V30 1138 O 100.651 -1.88207 0.478743 0
M  V30 1139 C 97.7806 -3.23912 1.25294 0
M  V30 1140 C 96.7346 -3.56808 2.36373 0
M  V30 1141 C 96.0606 -4.93508 2.058 0
M  V30 1142 C 97.3606 -3.59713 3.78687 0
M  V30 1143 H 99.0546 -1.8515 2.35287 0
M  V30 1144 H 96.6006 -0.889367 1.13253 0
M  V30 1145 H 98.5536 -4.02443 1.2497 0
M  V30 1146 H 97.2776 -3.25446 0.274308 0
M  V30 1147 H 95.9366 -2.80606 2.35914 0
M  V30 1148 H 95.5846 -4.91623 1.06374 0
M  V30 1149 H 95.2846 -5.16486 2.80208 0
M  V30 1150 H 96.8086 -5.74396 2.07128 0
M  V30 1151 H 98.2226 -4.2832 3.81071 0
M  V30 1152 H 96.6196 -3.94209 4.52459 0
M  V30 1153 H 97.6896 -2.59504 4.09617 0
M  V30 1154 N 99.0327 -1.24633 -0.964593 0
M  V30 1155 C 100.281 -1.08573 -1.70459 0
M  V30 1156 C 100.602 0.375655 -1.91347 0
M  V30 1157 O 99.8717 1.26779 -1.49345 0
M  V30 1158 H 98.4517 -0.398784 -0.631649 0
M  V30 1159 H 101.114 -1.56601 -1.16026 0
M  V30 1160 H 100.21 -1.58623 -2.68785 0
M  V30 1161 N 100.511 1.16574 -1.06058 0
M  V30 1162 C 101.458 2.20883 -0.669263 0
M  V30 1163 C 102.428 1.62729 0.332918 0
M  V30 1164 O 103.613 1.895 0.222346 0
M  V30 1165 C 100.753 3.45049 -0.0593572 0
M  V30 1166 C 99.8658 4.17458 -1.11143 0
M  V30 1167 C 99.0008 5.29135 -0.467916 0
M  V30 1168 C 98.0398 5.93343 -1.50369 0
M  V30 1169 N 97.1768 6.96516 -0.883706 0
M  V30 1170 H 102.017 2.53709 -1.5632 0
M  V30 1171 H 99.5538 1.24616 -0.781625 0
M  V30 1172 H 101.512 4.16033 0.311771 0
M  V30 1173 H 100.142 3.12781 0.797992 0
M  V30 1174 H 99.1938 3.45101 -1.60029 0
M  V30 1175 H 100.506 4.61307 -1.89731 0
M  V30 1176 H 99.6598 6.06684 -0.0436871 0
M  V30 1177 H 98.3988 4.86443 0.349864 0
M  V30 1178 H 97.4038 5.14517 -1.93784 0
M  V30 1179 H 98.6288 6.38114 -2.32352 0
M  V30 1180 H 96.5748 6.55943 -0.086595 0
M  V30 1181 H 96.4918 7.38723 -1.607 0
M  V30 1182 H 97.7598 7.77993 -0.484543 0
M  V30 1183 N 101.989 0.842826 1.3317 0
M  V30 1184 C 103.405 0.531128 1.50503 0
M  V30 1185 C 103.605 -0.940734 1.78192 0
M  V30 1186 O 102.661 -1.72436 1.84451 0
M  V30 1187 C 103.974 1.40789 2.65705 0
M  V30 1188 C 105.522 1.40708 2.79589 0
M  V30 1189 C 105.997 2.26878 3.97857 0
M  V30 1190 N 107.488 2.24609 4.05099 0
M  V30 1191 C 108.223 2.88019 4.95815 0
M  V30 1192 N 107.719 3.60496 5.9162 0
M  V30 1193 N 109.512 2.77469 4.88843 0
M  V30 1194 H 101.663 1.79557 1.1346 0
M  V30 1195 H 103.926 0.766267 0.558156 0
M  V30 1196 H 103.632 2.454 2.51936 0
M  V30 1197 H 103.506 1.08677 3.61205 0
M  V30 1198 H 105.893 0.368668 2.92788 0
M  V30 1199 H 105.974 1.76829 1.84838 0
M  V30 1200 H 105.618 3.3078 3.85418 0
M  V30 1201 H 105.548 1.88096 4.91861 0
M  V30 1202 H 108.039 1.71906 3.36536 0
M  V30 1203 H 108.352 4.06076 6.57512 0
M  V30 1204 H 106.697 3.64604 5.91683 0
M  V30 1205 H 109.888 2.20406 4.12963 0
M  V30 1206 H 110.061 3.2717 5.59342 0
M  V30 1207 N 103.467 -1.45747 0.599634 0
M  V30 1208 C 104.399 -2.28628 -0.161879 0
M  V30 1209 C 105.412 -1.39494 -0.839367 0
M  V30 1210 O 106.601 -1.63941 -0.706089 0
M  V30 1211 C 103.701 -3.15014 -1.24976 0
M  V30 1212 C 102.874 -4.32378 -0.660935 0
M  V30 1213 C 101.933 -5.00033 -1.63869 0
M  V30 1214 O 100.959 -5.57085 -1.1681 0
M  V30 1215 N 102.161 -4.98589 -2.97303 0
M  V30 1216 H 104.926 -2.94624 0.549265 0
M  V30 1217 H 102.487 -1.55847 0.438565 0
M  V30 1218 H 104.479 -3.5714 -1.9035 0
M  V30 1219 H 103.049 -2.5098 -1.86354 0
M  V30 1220 H 102.269 -3.9383 0.170688 0
M  V30 1221 H 103.557 -5.08197 -0.247619 0
M  V30 1222 H 102.955 -4.53514 -3.38145 0
M  V30 1223 H 101.512 -5.44603 -3.58121 0
M  V30 1224 N 104.945 -0.338344 -1.53925 0
M  V30 1225 C 106.17 0.263987 -2.05713 0
M  V30 1226 C 106.595 1.43847 -1.21201 0
M  V30 1227 O 105.953 1.79904 -0.224535 0
M  V30 1228 C 106.001 0.662 -3.54471 0
M  V30 1229 O 105.105 1.76265 -3.72833 0
M  V30 1230 H 104.446 0.0448722 -0.662482 0
M  V30 1231 H 106.976 -0.491048 -1.9862 0
M  V30 1232 H 106.986 0.940594 -3.9701 0
M  V30 1233 H 105.661 -0.196937 -4.15433 0
M  V30 1234 H 104.238 1.48173 -3.42198 0
M  V30 1235 N 106.423 1.57458 -0.0668435 0
M  V30 1236 C 107.356 2.08033 0.93795 0
M  V30 1237 C 108.334 0.984321 1.29421 0
M  V30 1238 O 109.518 1.25736 1.40437 0
M  V30 1239 C 106.645 2.53388 2.24749 0
M  V30 1240 C 105.691 3.74376 2.04315 0
M  V30 1241 S 106.524 5.19303 1.30706 0
M  V30 1242 C 107.68 5.67986 2.62951 0
M  V30 1243 H 107.913 2.92935 0.50759 0
M  V30 1244 H 105.446 1.5371 0.145804 0
M  V30 1245 H 107.404 2.8018 3.00016 0
M  V30 1246 H 106.065 1.68763 2.64911 0
M  V30 1247 H 105.258 4.04083 3.01218 0
M  V30 1248 H 104.86 3.47931 1.37186 0
M  V30 1249 H 107.152 5.74528 3.5906 0
M  V30 1250 H 108.095 6.66955 2.3786 0
M  V30 1251 H 108.503 4.95781 2.69929 0
M  V30 1252 N 107.901 -0.206675 1.56239 0
M  V30 1253 C 109.312 -0.772383 1.69974 0
M  V30 1254 C 109.663 -1.84353 0.671436 0
M  V30 1255 O 108.788 -2.15695 -0.174491 0
M  V30 1256 C 109.383 -1.40779 3.08167 0
M  V30 1257 C 107.942 -1.92072 3.23706 0
M  V30 1258 C 107.089 -0.786347 2.65917 0
M  V30 1259 H 110.04 0.0182223 1.5869 0
M  V30 1260 H 110.061 -2.27696 3.04852 0
M  V30 1261 H 109.573 -0.627958 3.82986 0
M  V30 1262 H 107.674 -2.7281 2.53782 0
M  V30 1263 H 107.787 -2.09046 4.31087 0
M  V30 1264 H 106.151 -1.1976 2.24788 0
M  V30 1265 H 106.934 -0.0189416 3.43295 0
M  V30 1266 N 109.379 -1.50304 -0.473955 0
M  V30 1267 C 110.309 -1.71886 -1.58042 0
M  V30 1268 C 111.29 -0.567799 -1.60344 0
M  V30 1269 O 112.475 -0.806623 -1.76656 0
M  V30 1270 C 109.605 -1.81036 -2.96384 0
M  V30 1271 C 108.559 -2.962 -3.08949 0
M  V30 1272 C 107.885 -2.9049 -4.48909 0
M  V30 1273 C 109.185 -4.36752 -2.86434 0
M  V30 1274 H 110.879 -2.64527 -1.40234 0
M  V30 1275 H 108.425 -1.27295 -0.673201 0
M  V30 1276 H 110.378 -1.94719 -3.73714 0
M  V30 1277 H 109.102 -0.850147 -3.15341 0
M  V30 1278 H 107.761 -2.82164 -2.3405 0
M  V30 1279 H 107.409 -1.92321 -4.64781 0
M  V30 1280 H 107.109 -3.67802 -4.58253 0
M  V30 1281 H 108.633 -3.06218 -5.28264 0
M  V30 1282 H 110.047 -4.5133 -3.53517 0
M  V30 1283 H 108.444 -5.15493 -3.07225 0
M  V30 1284 H 109.514 -4.49321 -1.82316 0
M  V30 1285 N 110.857 0.726932 -1.39834 0
M  V30 1286 C 111.787 1.85405 -1.41941 0
M  V30 1287 C 112.768 1.67751 -0.281728 0
M  V30 1288 O 113.953 1.8795 -0.488717 0
M  V30 1289 C 111.083 3.23243 -1.2701 0
M  V30 1290 C 110.037 3.55549 -2.38262 0
M  V30 1291 C 109.363 4.9241 -2.08415 0
M  V30 1292 C 110.663 3.577 -3.80589 0
M  V30 1293 H 112.357 1.83899 -2.36266 0
M  V30 1294 H 109.903 0.883349 -1.13723 0
M  V30 1295 H 111.856 4.01775 -1.27103 0
M  V30 1296 H 110.58 3.25296 -0.291564 0
M  V30 1297 H 109.239 2.79351 -2.37399 0
M  V30 1298 H 108.887 4.91052 -1.0898 0
M  V30 1299 H 108.587 5.14992 -2.82943 0
M  V30 1300 H 110.111 5.73289 -2.10171 0
M  V30 1301 H 111.525 4.26293 -3.83337 0
M  V30 1302 H 109.922 3.91804 -4.54543 0
M  V30 1303 H 110.992 2.57328 -4.10987 0
M  V30 1304 N 112.336 1.25143 0.95797 0
M  V30 1305 C 113.585 1.0909 1.69654 0
M  V30 1306 C 113.898 -0.368548 1.92097 0
M  V30 1307 O 115.104 -0.649455 2.63618 0
M  V30 1308 C 113.56 1.90395 3.05414 0
M  V30 1309 C 113.168 3.4081 2.90779 0
M  V30 1310 C 114.912 1.82901 3.83076 0
M  V30 1311 C 112.819 4.14423 4.21909 0
M  V30 1312 H 111.749 0.404625 0.636235 0
M  V30 1313 H 114.4 1.4931 1.06672 0
M  V30 1314 H 112.782 1.42996 3.69281 0
M  V30 1315 H 113.956 3.95859 2.35865 0
M  V30 1316 H 112.271 3.49361 2.26575 0
M  V30 1317 H 114.868 2.35196 4.80195 0
M  V30 1318 H 115.211 0.796224 4.08615 0
M  V30 1319 H 115.744 2.28033 3.25954 0
M  V30 1320 H 112.483 5.18102 4.01561 0
M  V30 1321 H 112.003 3.64159 4.76601 0
M  V30 1322 H 113.682 4.21956 4.90471 0
M  V30 1323 N 113.814 -1.1601 1.06675 0
M  V30 1324 C 115.062 -1.86264 0.784229 0
M  V30 1325 C 115.383 -1.82328 -0.691488 0
M  V30 1326 O 114.653 -1.25947 -1.50047 0
M  V30 1327 H 113.233 -0.689621 0.28711 0
M  V30 1328 H 115.895 -1.40664 1.34906 0
M  V30 1329 H 114.991 -2.91595 1.11259 0
M  V30 1330 N 115.292 -0.849877 -1.32721 0
M  V30 1331 C 116.703 -0.506188 -1.79707 0
M  V30 1332 C 117.054 0.975627 -1.70223 0
M  V30 1333 O 116.179 1.76078 -1.25799 0
M  V30 1334 C 116.774 -0.912044 -3.26293 0
M  V30 1335 C 115.333 -0.620326 -3.71253 0
M  V30 1336 C 114.48 -1.11439 -2.53922 0
M  V30 1337 H 117.431 -1.03754 -1.20087 0
M  V30 1338 H 117.452 -0.226493 -3.79825 0
M  V30 1339 H 116.964 -1.99057 -3.33164 0
M  V30 1340 H 115.065 0.447674 -3.69901 0
M  V30 1341 H 115.178 -1.18327 -4.64258 0
M  V30 1342 H 113.542 -0.534834 -2.49021 0
M  V30 1343 H 114.325 -2.19992 -2.6355 0
M  V30 1344 N 116.77 1.45427 -0.607355 0
M  V30 1345 C 117.998 2.06614 -0.108814 0
M  V30 1346 C 118.413 1.45204 1.2067 0
M  V30 1347 O 117.77 0.566132 1.73497 0
M  V30 1348 C 117.821 3.61481 0.0375347 0
M  V30 1349 O 117.542 4.20598 -1.22593 0
M  V30 1350 C 119.043 4.39652 0.567561 0
M  V30 1351 H 116.263 0.66747 -0.0687351 0
M  V30 1352 H 118.807 1.86675 -0.835022 0
M  V30 1353 H 116.962 3.80762 0.714068 0
M  V30 1354 H 117.376 5.1377 -1.05547 0
M  V30 1355 H 118.85 5.48518 0.61905 0
M  V30 1356 H 119.327 4.09417 1.58978 0
M  V30 1357 H 119.933 4.25234 -0.0749202 0
M  V30 1358 N 118.248 0.346503 1.53744 0
M  V30 1359 C 119.496 -0.248612 2.00565 0
M  V30 1360 C 119.817 -1.5083 1.23593 0
M  V30 1361 O 119.087 -1.92858 0.343912 0
M  V30 1362 H 117.667 -0.0948564 0.740953 0
M  V30 1363 H 120.329 0.468341 1.89189 0
M  V30 1364 H 119.425 -0.488994 3.08245 0
M  V30 1365 N 119.726 -1.57421 0.075193 0
M  V30 1366 C 120.656 -2.15942 -0.888324 0
M  V30 1367 C 121.637 -1.08737 -1.30806 0
M  V30 1368 O 122.822 -1.36787 -1.37851 0
M  V30 1369 C 119.952 -2.72379 -2.1547 0
M  V30 1370 C 118.906 -3.8478 -1.87425 0
M  V30 1371 C 118.232 -4.27834 -3.20721 0
M  V30 1372 C 119.532 -5.08869 -1.17684 0
M  V30 1373 H 121.226 -2.96705 -0.400799 0
M  V30 1374 H 118.772 -1.42723 -0.191342 0
M  V30 1375 H 120.725 -3.11965 -2.83295 0
M  V30 1376 H 119.449 -1.88841 -2.6647 0
M  V30 1377 H 118.108 -3.45703 -1.22004 0
M  V30 1378 H 117.756 -3.41214 -3.6957 0
M  V30 1379 H 117.456 -5.03605 -3.02746 0
M  V30 1380 H 118.98 -4.70039 -3.89738 0
M  V30 1381 H 120.394 -5.4575 -1.75584 0
M  V30 1382 H 118.791 -5.8994 -1.09956 0
M  V30 1383 H 119.861 -4.84648 -0.156453 0
M  V30 1384 N 121.204 0.198386 -1.56346 0
M  V30 1385 C 122.152 1.26538 -1.95169 0
M  V30 1386 C 123.146 1.47295 -0.836685 0
M  V30 1387 O 124.352 1.48195 -1.02167 0
M  V30 1388 H 120.727 0.424744 -0.620561 0
M  V30 1389 H 122.698 0.910904 -2.84157 0
M  V30 1390 C 121.447 2.6035 -2.30463 0
M  V30 1391 H 120.77 2.45192 -3.15786 0
M  V30 1392 H 122.21 3.33762 -2.61494 0
M  V30 1393 C 120.669 3.17096 -1.13806 0
M  V30 1394 O 121.199 3.99588 -0.41135 0
M  V30 1395 N 119.405 2.75795 -0.915736 0
M  V30 1396 H 118.952 2.08816 -1.50843 0
M  V30 1397 H 118.91 3.14101 -0.136979 0
M  V30 1398 N 122.682 1.50554 0.465978 0
M  V30 1399 C 123.93 1.61479 1.21528 0
M  V30 1400 C 124.251 0.319596 1.92363 0
M  V30 1401 O 123.521 -0.663194 1.84333 0
M  V30 1402 H 122.101 0.595055 0.451573 0
M  V30 1403 H 124.763 1.87355 0.53704 0
M  V30 1404 H 123.859 2.42846 1.96042 0
M  V30 1405 N 124.16 -0.719506 1.40217 0
M  V30 1406 C 125.123 -1.8153 1.39927 0
M  V30 1407 C 126.123 -1.58095 0.293723 0
M  V30 1408 O 127.313 -1.65209 0.552429 0
M  V30 1409 C 124.445 -3.19561 1.18716 0
M  V30 1410 H 125.638 -1.83186 2.37451 0
M  V30 1411 H 123.191 -0.924746 1.26008 0
M  V30 1412 H 123.926 -3.23557 0.219366 0
M  V30 1413 H 123.711 -3.3797 1.98793 0
M  V30 1414 H 125.201 -3.99598 1.21291 0
M  V30 1415 N 125.638 -1.25649 -0.95132 0
M  V30 1416 C 126.568 -1.08808 -2.06599 0
M  V30 1417 C 127.549 0.00382547 -1.701 0
M  V30 1418 O 128.734 -0.166325 -1.93486 0
M  V30 1419 C 125.864 -0.709542 -3.39975 0
M  V30 1420 C 124.818 -1.75206 -3.90496 0
M  V30 1421 C 124.144 -1.22811 -5.20405 0
M  V30 1422 C 125.444 -3.15153 -4.16504 0
M  V30 1423 H 127.138 -2.02048 -2.20946 0
M  V30 1424 H 124.684 -0.972835 -1.06169 0
M  V30 1425 H 126.637 -0.578649 -4.17408 0
M  V30 1426 H 125.361 0.258556 -3.25575 0
M  V30 1427 H 124.02 -1.87145 -3.15234 0
M  V30 1428 H 123.668 -0.250145 -5.02378 0
M  V30 1429 H 123.368 -1.92492 -5.55176 0
M  V30 1430 H 124.892 -1.10968 -6.00432 0
M  V30 1431 H 126.306 -3.06349 -4.84586 0
M  V30 1432 H 124.703 -3.82333 -4.62538 0
M  V30 1433 H 125.773 -3.61966 -3.22658 0
M  V30 1434 N 127.117 1.15442 -1.07289 0
M  V30 1435 C 128.363 1.8672 -0.806679 0
M  V30 1436 C 128.718 1.80723 0.660084 0
M  V30 1437 O 128.011 1.21902 1.47819 0
M  V30 1438 C 128.205 3.3489 -1.24834 0
M  V30 1439 C 128.034 3.55313 -2.7565 0
M  V30 1440 C 126.804 3.7082 -3.4325 0
M  V30 1441 C 129.002 3.53188 -3.73848 0
M  V30 1442 N 126.984 3.7929 -4.82713 0
M  V30 1443 C 128.355 3.67765 -4.99149 0
M  V30 1444 C 130.41 3.36459 -3.67015 0
M  V30 1445 C 129.113 3.6734 -6.18428 0
M  V30 1446 C 131.139 3.37333 -4.85758 0
M  V30 1447 C 130.501 3.52438 -6.09891 0
M  V30 1448 H 126.6 0.700433 -0.347733 0
M  V30 1449 H 129.184 1.38441 -1.36902 0
M  V30 1450 H 127.355 3.81786 -0.713713 0
M  V30 1451 H 129.087 3.93875 -0.929745 0
M  V30 1452 H 125.842 3.71568 -2.93656 0
M  V30 1453 H 126.266 3.8727 -5.55294 0
M  V30 1454 H 130.908 3.237 -2.71989 0
M  V30 1455 H 128.626 3.78878 -7.13777 0
M  V30 1456 H 132.212 3.25617 -4.82146 0
M  V30 1457 H 131.092 3.53047 -7.00234 0
M  V30 1458 N 128.595 0.856903 1.32268 0
M  V30 1459 C 130.006 0.515711 1.79436 0
M  V30 1460 C 130.357 -0.966586 1.70738 0
M  V30 1461 O 129.482 -1.75409 1.26731 0
M  V30 1462 C 130.077 0.929335 3.25805 0
M  V30 1463 C 128.636 0.640006 3.70919 0
M  V30 1464 C 127.783 1.12784 2.53328 0
M  V30 1465 H 130.734 1.04389 1.19535 0
M  V30 1466 H 130.755 0.246633 3.797 0
M  V30 1467 H 130.267 2.00821 3.32103 0
M  V30 1468 H 128.368 -0.428051 3.70133 0
M  V30 1469 H 128.481 1.20788 4.63624 0
M  V30 1470 H 126.845 0.548033 2.48734 0
M  V30 1471 H 127.628 2.21387 2.62379 0
M  V30 1472 N 130.073 -1.45103 0.615059 0
M  V30 1473 C 131.02 -2.30586 -0.0993978 0
M  V30 1474 C 131.99 -1.42544 -0.852669 0
M  V30 1475 O 133.175 -1.71465 -0.836917 0
M  V30 1476 C 130.315 -3.27572 -1.08583 0
M  V30 1477 C 129.428 -4.30717 -0.332656 0
M  V30 1478 C 128.563 -5.14807 -1.30947 0
M  V30 1479 C 127.602 -6.09673 -0.544538 0
M  V30 1480 N 126.739 -6.86517 -1.47101 0
M  V30 1481 H 131.579 -2.91144 0.635542 0
M  V30 1482 H 129.116 -1.4346 0.325206 0
M  V30 1483 H 131.074 -3.82276 -1.67095 0
M  V30 1484 H 129.704 -2.68751 -1.78809 0
M  V30 1485 H 128.756 -3.78615 0.368107 0
M  V30 1486 H 130.068 -4.98102 0.263842 0
M  V30 1487 H 129.222 -5.73948 -1.96643 0
M  V30 1488 H 127.961 -4.47458 -1.9399 0
M  V30 1489 H 126.966 -5.49656 0.126003 0
M  V30 1490 H 128.191 -6.79052 0.080947 0
M  V30 1491 H 126.137 -6.21851 -2.08895 0
M  V30 1492 H 126.054 -7.50281 -0.928137 0
M  V30 1493 H 127.322 -7.50194 -2.11731 0
M  V30 1494 N 131.551 -0.354651 -1.53558 0
M  V30 1495 C 132.799 0.237972 -2.00694 0
M  V30 1496 C 133.12 1.50173 -1.24391 0
M  V30 1497 O 132.39 1.92673 -0.354135 0
M  V30 1498 H 130.97 0.0909256 -0.741446 0
M  V30 1499 H 133.632 -0.478368 -1.88938 0
M  V30 1500 H 132.728 0.47264 -3.085 0
M  V30 1501 N 133.029 1.57378 -0.0835403 0
M  V30 1502 C 134.306 1.85363 0.624507 0
M  V30 1503 C 134.686 0.978239 1.87066 0
M  V30 1504 O 134.034 0.0475908 2.2845 0
M  V30 1505 C 134.244 3.35795 0.950947 0
M  V30 1506 C 135.592 4.03581 1.31939 0
M  V30 1507 O 136.616 3.40609 1.04232 0
M  V30 1508 O 135.475 5.14672 1.83779 0
M  V30 1509 H 132.569 0.766162 0.311329 0
M  V30 1510 H 135.115 1.69307 -0.115362 0
M  V30 1511 H 133.887 3.91244 0.0663899 0
M  V30 1512 H 133.51 3.57154 1.74719 0
M  V30 1513 N 134.507 -0.190092 1.56449 0
M  V30 1514 C 135.437 -1.23816 1.97969 0
M  V30 1515 C 136.418 -1.47201 0.852395 0
M  V30 1516 O 137.603 -1.58854 1.1171 0
M  V30 1517 C 134.733 -2.5813 2.3235 0
M  V30 1518 C 133.687 -2.49348 3.47864 0
M  V30 1519 C 133.013 -3.8798 3.67934 0
M  V30 1520 C 134.313 -2.01424 4.81898 0
M  V30 1521 H 136.007 -0.89311 2.85769 0
M  V30 1522 H 133.553 -0.428177 1.37487 0
M  V30 1523 H 135.506 -3.31637 2.59991 0
M  V30 1524 H 134.23 -2.94386 1.41438 0
M  V30 1525 H 132.889 -1.78297 3.20321 0
M  V30 1526 H 132.537 -4.21597 2.74344 0
M  V30 1527 H 132.237 -3.82978 4.45648 0
M  V30 1528 H 133.761 -4.63101 3.97957 0
M  V30 1529 H 135.175 -2.64693 5.08538 0
M  V30 1530 H 133.572 -2.07413 5.63116 0
M  V30 1531 H 134.642 -0.967677 4.75146 0
M  V30 1532 N 135.985 -1.50799 -0.457987 0
M  V30 1533 C 136.948 -1.7005 -1.53674 0
M  V30 1534 C 137.948 -0.570881 -1.50325 0
M  V30 1535 O 139.138 -0.838126 -1.52712 0
M  V30 1536 C 136.27 -1.73788 -2.93276 0
M  V30 1537 H 137.463 -2.66306 -1.37917 0
M  V30 1538 H 135.016 -1.40477 -0.685271 0
M  V30 1539 H 135.751 -0.792717 -3.14462 0
M  V30 1540 H 135.536 -2.55864 -2.97113 0
M  V30 1541 H 137.026 -1.90591 -3.71571 0
M  V30 1542 N 137.463 0.71206 -1.40597 0
M  V30 1543 C 138.393 1.83889 -1.43899 0
M  V30 1544 C 139.374 1.67442 -0.299504 0
M  V30 1545 O 140.559 1.87421 -0.508624 0
M  V30 1546 C 137.689 3.21877 -1.30431 0
M  V30 1547 C 136.643 3.53002 -2.42019 0
M  V30 1548 C 135.969 4.90172 -2.13626 0
M  V30 1549 C 137.269 3.53643 -3.84362 0
M  V30 1550 H 138.963 1.81383 -2.38203 0
M  V30 1551 H 136.509 0.871237 -1.14654 0
M  V30 1552 H 138.462 4.00404 -1.31357 0
M  V30 1553 H 137.186 3.24968 -0.326049 0
M  V30 1554 H 135.845 2.76818 -2.40349 0
M  V30 1555 H 135.493 4.89869 -1.14182 0
M  V30 1556 H 135.193 5.11962 -2.88389 0
M  V30 1557 H 136.717 5.71028 -2.1624 0
M  V30 1558 H 138.131 4.22203 -3.87837 0
M  V30 1559 H 136.528 3.86961 -4.58673 0
M  V30 1560 H 137.598 2.52954 -4.13693 0
M  V30 1561 N 138.941 1.26152 0.944643 0
M  V30 1562 C 139.904 1.07474 2.0244 0
M  V30 1563 C 140.904 0.0242064 1.60782 0
M  V30 1564 O 142.094 0.267302 1.72137 0
M  V30 1565 C 139.226 0.633956 3.34953 0
M  V30 1566 H 140.419 2.03336 2.20442 0
M  V30 1567 H 137.972 1.087 1.12312 0
M  V30 1568 H 138.707 -0.326811 3.22649 0
M  V30 1569 H 138.492 1.39247 3.66542 0
M  V30 1570 H 139.982 0.52501 4.14287 0
M  V30 1571 N 140.419 -1.14872 1.07899 0
M  V30 1572 C 141.835 -1.37776 0.805606 0
M  V30 1573 C 142.035 -1.92743 -0.587555 0
M  V30 1574 O 141.091 -2.13678 -1.34528 0
M  V30 1575 C 142.404 -2.34361 1.88402 0
M  V30 1576 C 143.952 -2.48012 1.90942 0
M  V30 1577 C 144.427 -3.47893 2.97883 0
M  V30 1578 N 145.918 -3.55433 2.97021 0
M  V30 1579 C 146.653 -4.32553 3.76412 0
M  V30 1580 N 146.149 -5.12959 4.65666 0
M  V30 1581 N 147.942 -4.27697 3.64735 0
M  V30 1582 H 140.093 -0.775365 1.97742 0
M  V30 1583 H 142.356 -0.403521 0.857831 0
M  V30 1584 H 142.062 -2.01098 2.88535 0
M  V30 1585 H 141.936 -3.34206 1.74889 0
M  V30 1586 H 144.323 -2.8057 0.914579 0
M  V30 1587 H 144.404 -1.48147 2.08534 0
M  V30 1588 H 144.048 -3.16069 3.97571 0
M  V30 1589 H 143.978 -4.47527 2.77538 0
M  V30 1590 H 146.469 -2.98048 2.32326 0
M  V30 1591 H 146.782 -5.69065 5.22862 0
M  V30 1592 H 145.127 -5.12245 4.69712 0
M  V30 1593 H 148.318 -3.63949 2.94378 0
M  V30 1594 H 148.491 -4.8755 4.26848 0
M  V30 1595 N 141.898 -0.863906 -1.31812 0
M  V30 1596 C 142.861 -0.320212 -2.26952 0
M  V30 1597 C 143.861 0.525369 -1.51975 0
M  V30 1598 O 145.051 0.335547 -1.70938 0
M  V30 1599 C 142.183 0.545919 -3.365 0
M  V30 1600 H 143.376 -1.16004 -2.76556 0
M  V30 1601 H 140.929 -0.638995 -1.42641 0
M  V30 1602 H 141.664 1.40718 -2.92179 0
M  V30 1603 H 141.449 -0.0594674 -3.92055 0
M  V30 1604 H 142.939 0.918796 -4.07367 0
M  V30 1605 N 143.376 1.44774 -0.622745 0
M  V30 1606 C 144.339 2.29069 0.0774015 0
M  V30 1607 C 145.339 1.4059 0.780461 0
M  V30 1608 O 146.529 1.62551 0.626322 0
M  V30 1609 C 143.661 3.21974 1.12006 0
M  V30 1610 H 144.854 2.92459 -0.663901 0
M  V30 1611 H 142.407 1.51548 -0.382486 0
M  V30 1612 H 143.142 2.63417 1.89162 0
M  V30 1613 H 142.927 3.87168 0.619951 0
M  V30 1614 H 144.417 3.85318 1.60995 0
M  V30 1615 N 144.854 0.36279 1.53368 0
M  V30 1616 C 146.082 -0.228613 2.05633 0
M  V30 1617 C 146.497 -1.42676 1.23649 0
M  V30 1618 O 145.854 -1.80394 0.27647 0
M  V30 1619 C 145.905 -0.624845 3.56059 0
M  V30 1620 O 145.626 0.525675 4.34935 0
M  V30 1621 C 147.127 -1.27493 4.24571 0
M  V30 1622 H 144.347 -0.0407183 0.669763 0
M  V30 1623 H 146.891 0.520352 1.97769 0
M  V30 1624 H 145.046 -1.32373 3.64083 0
M  V30 1625 H 145.46 0.205969 5.24095 0
M  V30 1626 H 146.934 -1.50277 5.31151 0
M  V30 1627 H 147.411 -2.23439 3.78116 0
M  V30 1628 H 148.017 -0.617558 4.20792 0
M  V30 1629 N 146.332 -1.57332 0.0918853 0
M  V30 1630 C 147.279 -2.13847 -0.868211 0
M  V30 1631 C 148.249 -1.05618 -1.28196 0
M  V30 1632 O 149.434 -1.33387 -1.36427 0
M  V30 1633 C 146.574 -2.72062 -2.12312 0
M  V30 1634 C 145.687 -3.94514 -1.7602 0
M  V30 1635 C 144.822 -4.40903 -2.96273 0
M  V30 1636 C 143.861 -5.55953 -2.56092 0
M  V30 1637 N 142.998 -5.97209 -3.69169 0
M  V30 1638 H 147.838 -2.95575 -0.379406 0
M  V30 1639 H 145.375 -1.46048 -0.175606 0
M  V30 1640 H 147.333 -3.03931 -2.858 0
M  V30 1641 H 145.963 -1.93068 -2.58698 0
M  V30 1642 H 145.015 -3.68979 -0.925135 0
M  V30 1643 H 146.327 -4.7802 -1.42472 0
M  V30 1644 H 145.481 -4.74539 -3.78018 0
M  V30 1645 H 144.22 -3.56291 -3.33029 0
M  V30 1646 H 143.225 -5.21948 -1.72773 0
M  V30 1647 H 144.45 -6.42311 -2.20484 0
M  V30 1648 H 142.396 -5.15543 -4.05649 0
M  V30 1649 H 142.313 -6.75504 -3.39456 0
M  V30 1650 H 143.581 -6.35475 -4.51434 0
M  V30 1651 N 147.81 0.181792 -1.56548 0
M  V30 1652 C 148.773 1.20894 -1.94724 0
M  V30 1653 C 149.773 1.37738 -0.829747 0
M  V30 1654 O 150.963 1.35323 -1.09697 0
M  V30 1655 C 148.095 2.57593 -2.23291 0
M  V30 1656 H 149.288 0.882275 -2.86629 0
M  V30 1657 H 146.841 0.423838 -1.50444 0
M  V30 1658 H 147.576 2.95291 -1.34067 0
M  V30 1659 H 147.361 2.46735 -3.04736 0
M  V30 1660 H 148.851 3.31637 -2.53785 0
M  V30 1661 N 149.288 1.51039 0.449983 0
M  V30 1662 C 150.536 1.62759 1.19808 0
M  V30 1663 C 150.857 0.339981 1.92013 0
M  V30 1664 O 150.127 -0.643606 1.85026 0
M  V30 1665 H 148.707 0.599811 0.445237 0
M  V30 1666 H 151.369 1.87914 0.517138 0
M  V30 1667 H 150.465 2.44911 1.93455 0
M  V30 1668 N 150.766 -0.704594 1.40972 0
M  V30 1669 C 152.015 -1.46018 1.39146 0
M  V30 1670 C 152.328 -1.956 0.000589254 0
M  V30 1671 O 153.534 -2.71137 -0.1403 0
M  V30 1672 C 151.99 -2.63996 2.4461 0
M  V30 1673 C 151.598 -2.21238 3.89561 0
M  V30 1674 C 153.342 -3.41677 2.51907 0
M  V30 1675 C 151.249 -3.3612 4.86598 0
M  V30 1676 H 150.179 -0.548444 0.517422 0
M  V30 1677 H 152.83 -0.765784 1.66757 0
M  V30 1678 H 151.212 -3.3566 2.10115 0
M  V30 1679 H 152.386 -1.56923 4.33257 0
M  V30 1680 H 150.701 -1.56574 3.85841 0
M  V30 1681 H 153.298 -4.27182 3.2159 0
M  V30 1682 H 153.641 -3.86247 1.55303 0
M  V30 1683 H 154.174 -2.77064 2.85448 0
M  V30 1684 H 150.913 -2.96572 5.84573 0
M  V30 1685 H 150.433 -3.99315 4.47557 0
M  V30 1686 H 152.112 -4.02029 5.06934 0
M  V30 1687 N 152.244 -1.26651 -0.937939 0
M  V30 1688 C 153.655 -1.1125 -1.49934 0
M  V30 1689 C 154.006 0.306077 -1.93798 0
M  V30 1690 O 153.131 1.19792 -1.80219 0
M  V30 1691 C 153.726 -2.01339 -2.72485 0
M  V30 1692 C 152.285 -1.90074 -3.24883 0
M  V30 1693 C 151.432 -1.94498 -1.97651 0
M  V30 1694 H 154.383 -1.39693 -0.753091 0
M  V30 1695 H 154.404 -1.56319 -3.46907 0
M  V30 1696 H 153.916 -3.04577 -2.40529 0
M  V30 1697 H 152.017 -0.897827 -3.61621 0
M  V30 1698 H 152.13 -2.75778 -3.9177 0
M  V30 1699 H 150.494 -1.38591 -2.13693 0
M  V30 1700 H 151.277 -2.99372 -1.68022 0
M  V30 1701 N 153.722 1.14298 -1.08507 0
M  V30 1702 C 154.969 1.85359 -0.815373 0
M  V30 1703 C 155.297 1.83001 0.658865 0
M  V30 1704 O 154.552 1.25655 1.50031 0
M  V30 1705 C 154.851 3.33547 -1.28379 0
M  V30 1706 C 154.517 3.56093 -2.76602 0
M  V30 1707 C 153.179 3.61955 -3.17084 0
M  V30 1708 C 155.531 3.64834 -3.72217 0
M  V30 1709 C 152.859 3.74082 -4.51973 0
M  V30 1710 C 155.211 3.78487 -5.06883 0
M  V30 1711 C 153.875 3.82598 -5.46969 0
M  V30 1712 H 153.145 0.678276 -0.298366 0
M  V30 1713 H 155.792 1.35002 -1.35819 0
M  V30 1714 H 154.097 3.86191 -0.660593 0
M  V30 1715 H 155.794 3.86959 -1.05186 0
M  V30 1716 H 152.384 3.52179 -2.4427 0
M  V30 1717 H 156.568 3.59595 -3.42061 0
M  V30 1718 H 151.824 3.75527 -4.82483 0
M  V30 1719 H 155.998 3.84193 -5.80834 0
M  V30 1720 H 153.625 3.91747 -6.51489 0
M  V30 1721 N 155.201 0.870884 1.31352 0
M  V30 1722 C 156.447 0.482987 1.96965 0
M  V30 1723 C 156.78 -0.962462 1.68672 0
M  V30 1724 O 156.055 -1.6779 0.98371 0
M  V30 1725 C 156.338 0.741752 3.52378 0
M  V30 1726 C 156.191 2.2368 3.9024 0
M  V30 1727 C 157.51 0.208838 4.39604 0
M  V30 1728 H 154.629 0.176955 0.715441 0
M  V30 1729 H 157.271 1.09229 1.55464 0
M  V30 1730 H 155.421 0.223149 3.87859 0
M  V30 1731 H 157.093 2.82273 3.64856 0
M  V30 1732 H 155.336 2.70901 3.38814 0
M  V30 1733 H 156.007 2.3685 4.98604 0
M  V30 1734 H 158.483 0.652529 4.10952 0
M  V30 1735 H 157.359 0.419336 5.47296 0
M  V30 1736 H 157.62 -0.889275 4.33064 0
M  V30 1737 N 156.679 -1.44442 0.630414 0
M  V30 1738 C 157.609 -2.33418 -0.0618083 0
M  V30 1739 C 158.59 -1.48165 -0.835541 0
M  V30 1740 O 159.775 -1.76886 -0.801564 0
M  V30 1741 C 156.905 -3.31222 -1.04449 0
M  V30 1742 C 155.859 -4.26288 -0.382436 0
M  V30 1743 C 155.185 -5.13954 -1.47497 0
M  V30 1744 C 156.485 -5.1744 0.710865 0
M  V30 1745 H 158.179 -2.91548 0.681184 0
M  V30 1746 H 155.725 -1.40191 0.329026 0
M  V30 1747 H 157.678 -3.92351 -1.53748 0
M  V30 1748 H 156.402 -2.71299 -1.81836 0
M  V30 1749 H 155.061 -3.6649 0.0899054 0
M  V30 1750 H 154.709 -4.50385 -2.2397 0
M  V30 1751 H 154.409 -5.7837 -1.03737 0
M  V30 1752 H 155.933 -5.77955 -1.96979 0
M  V30 1753 H 157.347 -5.72509 0.300996 0
M  V30 1754 H 155.744 -5.90455 1.07156 0
M  V30 1755 H 156.814 -4.58496 1.57829 0
M  V30 1756 N 158.157 -0.370918 -1.53173 0
M  V30 1757 C 159.382 0.220293 -2.06227 0
M  V30 1758 C 159.807 1.41243 -1.24225 0
M  V30 1759 O 159.165 1.79387 -0.262645 0
M  V30 1760 C 159.213 0.586663 -3.55796 0
M  V30 1761 O 158.317 1.68317 -3.76488 0
M  V30 1762 H 157.658 0.0308099 -0.663285 0
M  V30 1763 H 160.188 -0.533068 -1.97534 0
M  V30 1764 H 160.198 0.85617 -3.98916 0
M  V30 1765 H 158.873 -0.285013 -4.14922 0
M  V30 1766 H 157.45 1.40881 -3.45264 0
M  V30 1767 N 159.635 1.57281 -0.100228 0
M  V30 1768 C 160.863 1.98879 0.570509 0
M  V30 1769 C 161.278 0.979476 1.61405 0
M  V30 1770 O 160.635 -0.0302288 1.82475 0
M  V30 1771 C 160.686 3.4052 1.2136 0
M  V30 1772 O 160.407 4.37588 0.211786 0
M  V30 1773 C 161.908 3.97149 1.96945 0
M  V30 1774 H 159.128 0.653428 0.152555 0
M  V30 1775 H 161.672 2.03697 -0.18103 0
M  V30 1776 H 159.827 3.367 1.91603 0
M  V30 1777 H 160.241 5.20118 0.676607 0
M  V30 1778 H 161.715 4.98393 2.37294 0
M  V30 1779 H 162.192 3.3525 2.83733 0
M  V30 1780 H 162.798 4.04458 1.31506 0
M  V30 1781 N 161.113 -0.173488 1.56642 0
M  V30 1782 C 162.076 -1.19859 1.95362 0
M  V30 1783 C 163.076 -1.37296 0.83704 0
M  V30 1784 O 164.266 -1.34739 1.10413 0
M  V30 1785 C 161.398 -2.56405 2.24654 0
M  V30 1786 H 162.591 -0.867062 2.87092 0
M  V30 1787 H 160.144 -0.415853 1.50666 0
M  V30 1788 H 160.879 -2.94576 1.35631 0
M  V30 1789 H 160.664 -2.45115 3.06041 0
M  V30 1790 H 162.154 -3.30287 2.5554 0
M  V30 1791 N 162.591 -1.51276 -0.441967 0
M  V30 1792 C 163.816 -1.67799 -1.21895 0
M  V30 1793 C 164.241 -0.372864 -1.84367 0
M  V30 1794 O 163.599 0.666501 -1.68604 0
M  V30 1795 C 163.647 -2.79199 -2.28211 0
M  V30 1796 O 162.751 -2.42479 -3.33583 0
M  V30 1797 H 162.092 -0.559649 -0.357336 0
M  V30 1798 H 164.622 -1.97815 -0.522522 0
M  V30 1799 H 164.632 -3.03146 -2.73069 0
M  V30 1800 H 163.307 -3.73906 -1.82118 0
M  V30 1801 H 161.884 -2.29087 -2.94234 0
M  V30 1802 N 164.069 0.697108 -1.41344 0
M  V30 1803 C 165.017 1.83237 -1.43272 0
M  V30 1804 C 166.011 1.66522 -0.310947 0
M  V30 1805 O 167.217 1.73402 -0.482899 0
M  V30 1806 H 163.592 0.603802 -0.448249 0
M  V30 1807 H 165.563 1.78727 -2.38954 0
M  V30 1808 C 164.312 3.21245 -1.33029 0
M  V30 1809 H 163.635 3.34723 -2.18633 0
M  V30 1810 H 165.075 4.00763 -1.38439 0
M  V30 1811 C 163.534 3.36873 -0.0424635 0
M  V30 1812 O 164.064 3.91177 0.913421 0
M  V30 1813 N 162.27 2.90581 0.0331145 0
M  V30 1814 H 161.817 2.46577 -0.745506 0
M  V30 1815 H 161.775 3.01416 0.894199 0
M  V30 1816 N 165.547 1.27147 0.931209 0
M  V30 1817 C 166.48 1.0389 2.0318 0
M  V30 1818 C 167.458 -0.0395716 1.62552 0
M  V30 1819 O 168.642 0.104867 1.88208 0
M  V30 1820 C 165.769 0.575227 3.3378 0
M  V30 1821 C 164.815 1.64774 3.93385 0
M  V30 1822 S 165.648 3.23933 4.26413 0
M  V30 1823 C 166.804 2.79358 5.60098 0
M  V30 1824 H 167.037 1.97075 2.22596 0
M  V30 1825 H 164.57 1.10938 1.07387 0
M  V30 1826 H 166.528 0.314385 4.09294 0
M  V30 1827 H 165.189 -0.336505 3.12292 0
M  V30 1828 H 164.382 1.27454 4.87618 0
M  V30 1829 H 163.984 1.86048 3.24441 0
M  V30 1830 H 166.276 2.24443 6.39243 0
M  V30 1831 H 167.219 3.72322 6.02314 0
M  V30 1832 H 167.627 2.1861 5.20452 0
M  V30 1833 N 167.025 -1.13721 1.09112 0
M  V30 1834 C 168.25 -1.89314 0.847053 0
M  V30 1835 C 168.675 -1.78416 -0.595774 0
M  V30 1836 O 168.033 -1.12942 -1.41823 0
M  V30 1837 C 168.081 -3.3701 1.28284 0
M  V30 1838 O 167.185 -4.10054 0.439267 0
M  V30 1839 H 166.526 -0.588745 0.307044 0
M  V30 1840 H 169.056 -1.43902 1.45442 0
M  V30 1841 H 169.066 -3.87834 1.26683 0
M  V30 1842 H 167.741 -3.4426 2.33363 0
M  V30 1843 H 166.318 -3.69266 0.519312 0
M  V30 1844 N 168.503 -0.877838 -1.30888 0
M  V30 1845 C 169.752 -0.488793 -1.95688 0
M  V30 1846 C 170.065 0.965485 -1.70111 0
M  V30 1847 O 171.271 1.46104 -2.28836 0
M  V30 1848 C 169.727 -0.823201 -3.50359 0
M  V30 1849 C 169.335 -2.29477 -3.84765 0
M  V30 1850 C 171.079 -0.503009 -4.21509 0
M  V30 1851 C 168.986 -2.57118 -5.32583 0
M  V30 1852 H 167.916 -0.179062 -0.732429 0
M  V30 1853 H 170.567 -1.07183 -1.48943 0
M  V30 1854 H 168.949 -0.169331 -3.95638 0
M  V30 1855 H 170.123 -2.99236 -3.5042 0
M  V30 1856 H 168.438 -2.58178 -3.267 0
M  V30 1857 H 171.035 -0.68665 -5.30273 0
M  V30 1858 H 171.378 0.557109 -4.12555 0
M  V30 1859 H 171.911 -1.11376 -3.8189 0
M  V30 1860 H 168.65 -3.61843 -5.4658 0
M  V30 1861 H 168.17 -1.91961 -5.68253 0
M  V30 1862 H 169.849 -2.42251 -5.99936 0
M  V30 1863 N 169.982 1.44106 -0.638065 0
M  V30 1864 C 170.892 2.34513 0.0637334 0
M  V30 1865 C 171.908 1.53018 0.828346 0
M  V30 1866 O 173.084 1.85723 0.779036 0
M  V30 1867 C 170.149 3.31095 1.02844 0
M  V30 1868 C 169.21 4.28497 0.26244 0
M  V30 1869 C 168.443 5.20465 1.1812 0
M  V30 1870 O 168.666 5.16514 2.42011 0
M  V30 1871 O 167.6 5.98251 0.661774 0
M  V30 1872 H 171.426 2.95989 -0.68003 0
M  V30 1873 H 169.011 1.43994 -0.398252 0
M  V30 1874 H 170.893 3.90526 1.58327 0
M  V30 1875 H 169.568 2.72144 1.7527 0
M  V30 1876 H 168.475 3.72592 -0.335602 0
M  V30 1877 H 169.808 4.90388 -0.421936 0
M  V30 1878 N 171.46 0.379036 1.52974 0
M  V30 1879 C 172.737 -0.263479 1.93817 0
M  V30 1880 C 173.117 -1.65244 1.31368 0
M  V30 1881 O 172.465 -2.23448 0.477856 0
M  V30 1882 C 172.675 -0.300166 3.47707 0
M  V30 1883 C 174.023 -0.534061 4.21228 0
M  V30 1884 O 175.047 -0.38081 3.54159 0
M  V30 1885 O 173.906 -0.833501 5.40106 0
M  V30 1886 H 171 -0.161149 0.811147 0
M  V30 1887 H 173.546 0.432798 1.64088 0
M  V30 1888 H 172.318 0.673138 3.85467 0
M  V30 1889 H 171.941 -1.04179 3.83709 0
M  V30 1890 N 172.938 -1.57226 0.108567 0
M  V30 1891 C 173.868 -2.17778 -0.84232 0
M  V30 1892 C 174.849 -1.11487 -1.2847 0
M  V30 1893 O 176.034 -1.39681 -1.34918 0
M  V30 1894 C 173.164 -2.76888 -2.09644 0
M  V30 1895 C 172.118 -3.88669 -1.79221 0
M  V30 1896 C 171.444 -4.34541 -3.11574 0
M  V30 1897 C 172.744 -5.11251 -1.06864 0
M  V30 1898 H 174.438 -2.97489 -0.337774 0
M  V30 1899 H 171.984 -1.43097 -0.161025 0
M  V30 1900 H 173.937 -3.17904 -2.76614 0
M  V30 1901 H 172.661 -1.94451 -2.62405 0
M  V30 1902 H 171.32 -3.48213 -1.14644 0
M  V30 1903 H 170.968 -3.48977 -3.62249 0
M  V30 1904 H 170.668 -5.09914 -2.91996 0
M  V30 1905 H 172.192 -4.782 -3.7968 0
M  V30 1906 H 173.606 -5.49352 -1.63968 0
M  V30 1907 H 172.003 -5.9214 -0.974178 0
M  V30 1908 H 173.073 -4.8487 -0.0536168 0
M  V30 1909 N 174.416 0.165178 -1.56732 0
M  V30 1910 C 175.379 1.18822 -1.95995 0
M  V30 1911 C 176.379 1.3685 -0.84431 0
M  V30 1912 O 177.569 1.34152 -1.11126 0
M  V30 1913 C 174.701 2.5521 -2.26011 0
M  V30 1914 H 175.894 0.851825 -2.87548 0
M  V30 1915 H 173.447 0.407857 -1.50885 0
M  V30 1916 H 174.182 2.93852 -1.37191 0
M  V30 1917 H 173.967 2.43489 -3.07336 0
M  V30 1918 H 175.457 3.28927 -2.57288 0
M  V30 1919 N 175.894 1.51508 0.433938 0
M  V30 1920 C 177.31 1.39759 0.770682 0
M  V30 1921 C 177.51 0.482594 1.95636 0
M  V30 1922 O 176.566 -0.0609691 2.52426 0
M  V30 1923 C 177.879 2.81851 1.04787 0
M  V30 1924 C 179.427 2.91025 1.1521 0
M  V30 1925 C 179.902 4.34032 1.46219 0
M  V30 1926 N 181.393 4.37154 1.53136 0
M  V30 1927 C 182.128 5.4484 1.78709 0
M  V30 1928 N 181.624 6.62682 2.02051 0
M  V30 1929 N 183.417 5.32324 1.80519 0
M  V30 1930 H 175.568 2.09548 -0.346892 0
M  V30 1931 H 177.831 0.943446 -0.0928074 0
M  V30 1932 H 177.537 3.50815 0.249304 0
M  V30 1933 H 177.411 3.21386 1.97461 0
M  V30 1934 H 179.798 2.22257 1.94128 0
M  V30 1935 H 179.879 2.54983 0.204281 0
M  V30 1936 H 179.523 5.03351 0.678274 0
M  V30 1937 H 179.453 4.6759 2.42212 0
M  V30 1938 H 181.944 3.52197 1.36987 0
M  V30 1939 H 182.257 7.40543 2.20943 0
M  V30 1940 H 180.602 6.65791 1.99366 0
M  V30 1941 H 183.793 4.39246 1.61805 0
M  V30 1942 H 183.966 6.16328 2.00111 0
M  V30 1943 N 177.372 -0.689602 1.41712 0
M  V30 1944 C 178.304 -1.815 1.39966 0
M  V30 1945 C 179.317 -1.59995 0.300917 0
M  V30 1946 O 180.506 -1.69387 0.563039 0
M  V30 1947 C 177.606 -3.18364 1.16179 0
M  V30 1948 C 176.779 -3.66847 2.38206 0
M  V30 1949 C 175.838 -4.82398 2.10186 0
M  V30 1950 O 174.864 -4.93706 2.83272 0
M  V30 1951 N 176.066 -5.70064 1.0958 0
M  V30 1952 H 178.831 -1.83488 2.36965 0
M  V30 1953 H 176.392 -0.872149 1.36401 0
M  V30 1954 H 178.384 -3.93301 0.953756 0
M  V30 1955 H 176.954 -3.11365 0.27756 0
M  V30 1956 H 176.174 -2.82751 2.74673 0
M  V30 1957 H 177.462 -3.95978 3.19498 0
M  V30 1958 H 176.86 -5.63565 0.491019 0
M  V30 1959 H 175.417 -6.44874 0.947656 0
M  V30 1960 N 178.85 -1.27639 -0.924453 0
M  V30 1961 C 180.09 -1.15407 -1.68703 0
M  V30 1962 C 180.454 0.294581 -1.89727 0
M  V30 1963 O 181.655 0.539385 -2.63333 0
M  V30 1964 C 179.926 -1.9195 -3.0148 0
M  V30 1965 S 181.485 -1.95969 -3.92609 0
M  V30 1966 H 178.303 -0.411937 -0.579507 0
M  V30 1967 H 180.905 -1.61592 -1.10038 0
M  V30 1968 H 179.609 -2.96387 -2.83871 0
M  V30 1969 H 179.14 -1.46272 -3.65196 0
M  V30 1970 H 181.155 -1.05846 -4.84779 0
M  V30 1971 N 180.328 1.1314 -1.09713 0
M  V30 1972 C 181.605 1.80762 -0.747302 0
M  V30 1973 C 181.985 1.96663 0.767265 0
M  V30 1974 O 181.333 1.53706 1.69076 0
M  V30 1975 C 181.543 3.15606 -1.48975 0
M  V30 1976 C 182.891 3.90914 -1.65746 0
M  V30 1977 O 183.915 3.25239 -1.45251 0
M  V30 1978 O 182.774 5.08718 -1.9967 0
M  V30 1979 H 179.868 0.782103 -0.268782 0
M  V30 1980 H 182.414 1.20041 -1.19951 0
M  V30 1981 H 181.186 2.99278 -2.52088 0
M  V30 1982 H 180.809 3.84029 -1.02991 0
M  V30 1983 N 181.806 0.884767 1.30421 0
M  V30 1984 C 183.054 0.502112 1.95763 0
M  V30 1985 C 183.375 -0.951815 1.70192 0
M  V30 1986 O 182.645 -1.6692 1.0254 0
M  V30 1987 H 181.225 0.182694 0.724315 0
M  V30 1988 H 183.887 1.1278 1.58955 0
M  V30 1989 H 182.983 0.672188 3.04775 0
M  V30 1990 N 183.284 -1.43765 0.645699 0
M  V30 1991 C 184.561 -1.9541 0.0862963 0
M  V30 1992 C 184.941 -1.58725 -1.39175 0
M  V30 1993 O 184.289 -0.868581 -2.11348 0
M  V30 1994 C 184.499 -3.47488 0.324565 0
M  V30 1995 C 185.847 -4.24001 0.225497 0
M  V30 1996 O 186.871 -3.55274 0.256715 0
M  V30 1997 O 185.73 -5.46313 0.142801 0
M  V30 1998 H 182.824 -0.826882 -0.0139483 0
M  V30 1999 H 185.37 -1.53743 0.718415 0
M  V30 2000 H 184.142 -3.67289 1.3496 0
M  V30 2001 H 183.765 -3.96135 -0.340987 0
M  V30 2002 N 184.763 -0.387143 -1.52771 0
M  V30 2003 C 185.693 0.440551 -2.29306 0
M  V30 2004 C 186.674 1.06535 -1.32606 0
M  V30 2005 O 187.859 1.07853 -1.61497 0
M  V30 2006 C 184.989 1.56919 -3.09829 0
M  V30 2007 C 183.943 1.07054 -4.14395 0
M  V30 2008 C 183.269 2.29109 -4.83129 0
M  V30 2009 C 184.569 0.140015 -5.22112 0
M  V30 2010 H 186.263 -0.198026 -2.98744 0
M  V30 2011 H 183.809 -0.09668 -1.43675 0
M  V30 2012 H 185.762 2.15503 -3.62128 0
M  V30 2013 H 184.486 2.23532 -2.3812 0
M  V30 2014 H 183.145 0.507247 -3.63074 0
M  V30 2015 H 182.793 2.94227 -4.0797 0
M  V30 2016 H 182.493 1.96406 -5.53804 0
M  V30 2017 H 184.017 2.88339 -5.38231 0
M  V30 2018 H 185.431 0.633978 -5.69784 0
M  V30 2019 H 183.828 -0.0971485 -6.00021 0
M  V30 2020 H 184.898 -0.811711 -4.78058 0
M  V30 2021 N 186.241 1.57166 -0.116904 0
M  V30 2022 C 187.487 1.96206 0.536166 0
M  V30 2023 C 187.842 0.99915 1.64422 0
M  V30 2024 O 187.135 0.0288195 1.91578 0
M  V30 2025 C 187.329 3.39508 1.11664 0
M  V30 2026 C 187.158 4.49651 0.0663474 0
M  V30 2027 C 185.928 5.03982 -0.36474 0
M  V30 2028 C 188.126 5.09322 -0.713829 0
M  V30 2029 N 186.108 5.97699 -1.40102 0
M  V30 2030 C 187.479 5.98963 -1.60136 0
M  V30 2031 C 189.534 4.91989 -0.764948 0
M  V30 2032 C 188.237 6.73128 -2.53556 0
M  V30 2033 C 190.263 5.66833 -1.68685 0
M  V30 2034 C 189.625 6.56158 -2.56196 0
M  V30 2035 H 185.724 0.764203 0.165886 0
M  V30 2036 H 188.308 1.93623 -0.204535 0
M  V30 2037 H 186.479 3.42743 1.82707 0
M  V30 2038 H 188.211 3.65677 1.73386 0
M  V30 2039 H 184.966 4.73592 0.027252 0
M  V30 2040 H 185.39 6.49262 -1.91802 0
M  V30 2041 H 190.032 4.22676 -0.102501 0
M  V30 2042 H 187.75 7.41689 -3.20816 0
M  V30 2043 H 191.336 5.55427 -1.73181 0
M  V30 2044 H 190.216 7.13057 -3.26372 0
M  V30 2045 N 187.719 -0.156864 1.56817 0
M  V30 2046 C 188.966 -0.871125 1.82805 0
M  V30 2047 C 189.294 -1.81611 0.696262 0
M  V30 2048 O 188.549 -1.93141 -0.315459 0
M  V30 2049 C 188.848 -1.68737 3.1506 0
M  V30 2050 C 188.514 -0.890045 4.42028 0
M  V30 2051 C 187.176 -0.670042 4.76512 0
M  V30 2052 C 189.528 -0.331769 5.20143 0
M  V30 2053 C 186.856 0.119104 5.86579 0
M  V30 2054 C 189.208 0.444365 6.31037 0
M  V30 2055 C 187.872 0.675035 6.64078 0
M  V30 2056 H 187.142 -0.318767 0.668931 0
M  V30 2057 H 189.789 -0.135274 1.91022 0
M  V30 2058 H 188.094 -2.49304 3.0225 0
M  V30 2059 H 189.791 -2.24331 3.3238 0
M  V30 2060 H 186.381 -1.07157 4.14988 0
M  V30 2061 H 190.565 -0.489043 4.93885 0
M  V30 2062 H 185.821 0.307417 6.10627 0
M  V30 2063 H 189.995 0.884139 6.90765 0
M  V30 2064 H 187.622 1.28839 7.49203 0
M  V30 2065 N 189.197 -1.51736 -0.425897 0
M  V30 2066 C 190.129 -1.70083 -1.53638 0
M  V30 2067 C 191.142 -0.581349 -1.52066 0
M  V30 2068 O 192.331 -0.856017 -1.56635 0
M  V30 2069 C 189.431 -1.71078 -2.9255 0
M  V30 2070 C 188.604 -2.99795 -3.185 0
M  V30 2071 C 187.663 -2.92825 -4.37196 0
M  V30 2072 O 186.689 -3.66756 -4.35291 0
M  V30 2073 N 187.891 -2.0946 -5.41393 0
M  V30 2074 H 190.656 -2.65882 -1.383 0
M  V30 2075 H 188.217 -1.49765 -0.614988 0
M  V30 2076 H 190.209 -1.63969 -3.69995 0
M  V30 2077 H 188.779 -0.828242 -3.01428 0
M  V30 2078 H 187.999 -3.20684 -2.2925 0
M  V30 2079 H 189.287 -3.84977 -3.32671 0
M  V30 2080 H 188.685 -1.48792 -5.45781 0
M  V30 2081 H 187.242 -2.08221 -6.17647 0
M  V30 2082 N 190.675 0.682077 -1.42076 0
M  V30 2083 C 191.605 1.80796 -1.47767 0
M  V30 2084 C 192.586 1.6677 -0.334954 0
M  V30 2085 O 193.771 1.863 -0.548264 0
M  V30 2086 C 190.901 3.19038 -1.37229 0
M  V30 2087 C 189.855 3.47789 -2.49453 0
M  V30 2088 C 189.181 4.8553 -2.23975 0
M  V30 2089 C 190.481 3.45411 -3.91776 0
M  V30 2090 H 192.175 1.7629 -2.41997 0
M  V30 2091 H 189.721 0.846721 -1.16476 0
M  V30 2092 H 191.674 3.97528 -1.39821 0
M  V30 2093 H 190.398 3.24204 -0.394907 0
M  V30 2094 H 189.057 2.71657 -2.46166 0
M  V30 2095 H 188.705 4.87337 -1.24547 0
M  V30 2096 H 188.405 5.0573 -2.99184 0
M  V30 2097 H 189.929 5.66312 -2.28304 0
M  V30 2098 H 191.343 4.13882 -3.96705 0
M  V30 2099 H 189.74 3.77145 -4.66778 0
M  V30 2100 H 190.81 2.44122 -4.18966 0
M  V30 2101 N 192.153 1.28127 0.917671 0
M  V30 2102 C 193.383 1.17722 1.6978 0
M  V30 2103 C 193.791 -0.267261 1.87303 0
M  V30 2104 O 193.134 -1.19286 1.39702 0
M  V30 2105 C 193.196 1.79958 3.11216 0
M  V30 2106 C 192.86 3.29187 3.16993 0
M  V30 2107 C 193.857 4.25679 2.98485 0
M  V30 2108 C 191.542 3.70075 3.39632 0
M  V30 2109 C 193.536 5.61035 3.02521 0
M  V30 2110 C 191.223 5.05557 3.433 0
M  V30 2111 C 192.221 6.00847 3.24764 0
M  V30 2112 O 191.909 7.33859 3.28187 0
M  V30 2113 H 191.641 0.409788 0.537634 0
M  V30 2114 H 194.195 1.69694 1.15728 0
M  V30 2115 H 192.425 1.22475 3.66793 0
M  V30 2116 H 194.114 1.64125 3.71238 0
M  V30 2117 H 194.88 3.95426 2.80826 0
M  V30 2118 H 190.759 2.96373 3.53106 0
M  V30 2119 H 194.303 6.35388 2.87971 0
M  V30 2120 H 190.2 5.35462 3.60486 0
M  V30 2121 H 190.968 7.42436 3.44575 0
M  V30 2122 N 193.631 -1.12557 1.10312 0
M  V30 2123 C 194.877 -1.84311 0.846011 0
M  V30 2124 C 195.21 -1.83805 -0.626859 0
M  V30 2125 O 194.485 -1.28268 -1.46211 0
M  V30 2126 C 194.768 -3.32048 1.39341 0
M  V30 2127 C 194.621 -3.41016 2.93305 0
M  V30 2128 C 195.94 -4.27764 1.03468 0
M  V30 2129 H 193.059 -0.669192 0.30879 0
M  V30 2130 H 195.701 -1.32057 1.36605 0
M  V30 2131 H 193.851 -3.76678 0.951087 0
M  V30 2132 H 195.523 -3.05031 3.46055 0
M  V30 2133 H 193.766 -2.81603 3.29973 0
M  V30 2134 H 194.437 -4.44948 3.26689 0
M  V30 2135 H 196.913 -3.91253 1.41633 0
M  V30 2136 H 195.789 -5.29549 1.44463 0
M  V30 2137 H 196.05 -4.42064 -0.0560404 0
M  V30 2138 N 195.109 -0.891671 -1.2995 0
M  V30 2139 C 196.358 -0.509521 -1.95158 0
M  V30 2140 C 196.671 0.947388 -1.71125 0
M  V30 2141 O 197.877 1.43669 -2.30372 0
M  V30 2142 C 196.333 -0.860315 -3.49466 0
M  V30 2143 C 195.941 -2.33545 -3.8231 0
M  V30 2144 C 197.685 -0.547687 -4.20952 0
M  V30 2145 C 195.592 -2.62752 -5.29826 0
M  V30 2146 H 194.522 -0.18682 -0.730489 0
M  V30 2147 H 197.173 -1.08756 -1.47798 0
M  V30 2148 H 195.555 -0.211285 -3.95436 0
M  V30 2149 H 196.729 -3.02936 -3.47227 0
M  V30 2150 H 195.044 -2.61629 -3.23944 0
M  V30 2151 H 197.641 -0.742854 -5.29515 0
M  V30 2152 H 197.984 0.51332 -4.13123 0
M  V30 2153 H 198.517 -1.1542 -3.80688 0
M  V30 2154 H 195.256 -3.6762 -5.42712 0
M  V30 2155 H 194.776 -1.97977 -5.66185 0
M  V30 2156 H 196.455 -2.48601 -5.97333 0
M  V30 2157 N 196.587 1.43421 -0.653314 0
M  V30 2158 C 197.537 2.2792 0.060558 0
M  V30 2159 C 198.521 1.39906 0.794677 0
M  V30 2160 O 199.713 1.63536 0.677128 0
M  V30 2161 C 196.842 3.27603 1.0262 0
M  V30 2162 C 195.928 4.23104 0.290551 0
M  V30 2163 N 196.319 5.01031 -0.692967 0
M  V30 2164 C 194.617 4.42816 0.531984 0
M  V30 2165 C 195.318 5.70626 -1.12963 0
M  V30 2166 N 194.294 5.41617 -0.463867 0
M  V30 2167 H 198.096 2.85585 -0.694143 0
M  V30 2168 H 195.61 1.55126 -0.480602 0
M  V30 2169 H 197.607 3.86918 1.55242 0
M  V30 2170 H 196.267 2.71499 1.78096 0
M  V30 2171 H 197.278 5.0669 -1.07169 0
M  V30 2172 H 193.955 3.97782 1.26791 0
M  V30 2173 H 195.345 6.4318 -1.94343 0
M  V30 2174 N 198.065 0.39524 1.52563 0
M  V30 2175 C 199.481 0.0454682 1.59535 0
M  V30 2176 C 199.681 -1.44056 1.4089 0
M  V30 2177 O 198.737 -2.20579 1.22888 0
M  V30 2178 C 200.05 0.527963 2.96029 0
M  V30 2179 C 201.598 0.484733 3.09224 0
M  V30 2180 C 202.073 0.943512 4.48176 0
M  V30 2181 N 203.564 0.899765 4.54377 0
M  V30 2182 C 204.299 1.22609 5.60138 0
M  V30 2183 N 203.795 1.62319 6.73516 0
M  V30 2184 N 205.588 1.14696 5.50274 0
M  V30 2185 H 197.739 1.36261 1.62931 0
M  V30 2186 H 200.002 0.558887 0.765735 0
M  V30 2187 H 199.708 1.56607 3.14908 0
M  V30 2188 H 199.582 -0.0698056 3.77135 0
M  V30 2189 H 201.969 -0.544298 2.90037 0
M  V30 2190 H 202.05 1.11838 2.30056 0
M  V30 2191 H 201.694 1.9708 4.68104 0
M  V30 2192 H 201.624 0.286817 5.25818 0
M  V30 2193 H 204.115 0.607632 3.72983 0
M  V30 2194 H 204.428 1.85567 7.5019 0
M  V30 2195 H 202.773 1.66211 6.74833 0
M  V30 2196 H 205.964 0.835701 4.6058 0
M  V30 2197 H 206.137 1.40459 6.32594 0
M  V30 2198 N 199.544 -1.57102 0.125237 0
M  V30 2199 C 200.454 -2.19191 -0.8362 0
M  V30 2200 C 201.47 -1.16985 -1.28805 0
M  V30 2201 O 202.646 -1.49479 -1.34974 0
M  V30 2202 C 199.711 -2.78407 -2.06617 0
M  V30 2203 C 198.772 -3.9567 -1.66565 0
M  V30 2204 C 198.005 -4.52052 -2.83698 0
M  V30 2205 O 198.228 -4.07326 -3.99302 0
M  V30 2206 O 197.162 -5.42645 -2.60423 0
M  V30 2207 H 200.988 -3.01816 -0.337776 0
M  V30 2208 H 198.573 -1.4906 -0.100695 0
M  V30 2209 H 200.455 -3.16129 -2.7864 0
M  V30 2210 H 199.13 -1.9881 -2.55453 0
M  V30 2211 H 198.037 -3.62705 -0.916296 0
M  V30 2212 H 199.37 -4.76722 -1.22464 0
M  V30 2213 N 201.022 0.148545 -1.56898 0
M  V30 2214 C 202.271 0.85984 -1.82454 0
M  V30 2215 C 202.584 1.82406 -0.706229 0
M  V30 2216 O 203.79 2.57938 -0.847349 0
M  V30 2217 C 202.246 1.57967 -3.2338 0
M  V30 2218 C 201.854 0.65794 -4.43142 0
M  V30 2219 C 203.598 2.27784 -3.58211 0
M  V30 2220 C 201.505 1.3793 -5.75091 0
M  V30 2221 H 200.435 0.324834 -0.68044 0
M  V30 2222 H 203.086 0.112588 -1.83154 0
M  V30 2223 H 201.468 2.37249 -3.17063 0
M  V30 2224 H 202.642 -0.0995497 -4.60692 0
M  V30 2225 H 200.957 0.0682643 -4.16344 0
M  V30 2226 H 203.554 2.8239 -4.54048 0
M  V30 2227 H 203.897 3.04204 -2.84193 0
M  V30 2228 H 204.43 1.55421 -3.66182 0
M  V30 2229 H 201.169 0.656982 -6.52199 0
M  V30 2230 H 200.689 2.10954 -5.61479 0
M  V30 2231 H 202.368 1.92063 -6.17835 0
M  V30 2232 N 202.5 1.5196 0.417844 0
M  V30 2233 C 203.463 1.74065 1.49111 0
M  V30 2234 C 204.463 0.610537 1.48758 0
M  V30 2235 O 205.653 0.87832 1.50437 0
M  V30 2236 C 202.785 1.81502 2.88565 0
M  V30 2237 H 203.978 2.69869 1.30807 0
M  V30 2238 H 201.531 1.42244 0.647785 0
M  V30 2239 H 202.266 0.875813 3.1225 0
M  V30 2240 H 202.051 2.63651 2.90225 0
M  V30 2241 H 203.541 2.00376 3.66387 0
M  V30 2242 N 203.978 -0.674533 1.42435 0
M  V30 2243 C 204.91 -1.80005 1.41883 0
M  V30 2244 C 205.923 -1.59667 0.31787 0
M  V30 2245 O 207.112 -1.68781 0.580973 0
M  V30 2246 C 204.212 -3.17114 1.19549 0
M  V30 2247 C 203.385 -3.64299 2.42084 0
M  V30 2248 C 202.444 -4.80142 2.15291 0
M  V30 2249 O 201.47 -4.90673 2.88493 0
M  V30 2250 N 202.672 -5.68869 1.1562 0
M  V30 2251 H 205.437 -1.80964 2.38898 0
M  V30 2252 H 202.998 -0.857633 1.37318 0
M  V30 2253 H 204.99 -3.92267 0.995417 0
M  V30 2254 H 203.56 -3.11053 0.310569 0
M  V30 2255 H 202.78 -2.79822 2.77657 0
M  V30 2256 H 204.068 -3.92567 3.23679 0
M  V30 2257 H 203.466 -5.63012 0.550765 0
M  V30 2258 H 202.023 -6.43833 1.016 0
M  V30 2259 N 205.456 -1.28612 -0.910864 0
M  V30 2260 C 206.704 -1.15705 -1.65701 0
M  V30 2261 C 207.025 0.29416 -1.92769 0
M  V30 2262 O 206.295 1.20331 -1.54588 0
M  V30 2263 H 204.875 -0.425216 -0.614167 0
M  V30 2264 H 207.537 -1.61381 -1.0928 0
M  V30 2265 H 206.633 -1.6988 -2.61815 0
M  V30 2266 N 206.934 1.1197 -1.10907 0
M  V30 2267 C 207.867 2.16998 -0.706192 0
M  V30 2268 C 208.845 1.59903 0.294897 0
M  V30 2269 O 210.029 1.87513 0.192636 0
M  V30 2270 C 207.156 3.38673 -0.0427664 0
M  V30 2271 C 206.202 4.14414 -1.00811 0
M  V30 2272 S 207.035 4.72079 -2.52789 0
M  V30 2273 C 208.191 5.97083 -1.87731 0
M  V30 2274 H 208.424 2.50837 -1.59587 0
M  V30 2275 H 205.957 1.23508 -0.926555 0
M  V30 2276 H 207.915 4.09142 0.333668 0
M  V30 2277 H 206.576 3.03105 0.823788 0
M  V30 2278 H 205.769 5.016 -0.491259 0
M  V30 2279 H 205.371 3.49678 -1.3267 0
M  V30 2280 H 207.663 6.66599 -1.21044 0
M  V30 2281 H 208.606 6.53403 -2.72892 0
M  V30 2282 H 209.014 5.4837 -1.33979 0
M  V30 2283 N 208.412 0.89855 1.29475 0
M  V30 2284 C 209.658 0.524658 1.95896 0
M  V30 2285 C 209.991 -0.926468 1.70676 0
M  V30 2286 O 209.266 -1.65665 1.01908 0
M  V30 2287 C 209.549 0.81633 3.50725 0
M  V30 2288 C 209.402 2.31907 3.85408 0
M  V30 2289 C 210.721 0.302038 4.39062 0
M  V30 2290 H 207.84 0.19209 0.711527 0
M  V30 2291 H 210.482 1.12502 1.53112 0
M  V30 2292 H 208.632 0.305369 3.87298 0
M  V30 2293 H 210.304 2.89949 3.58786 0
M  V30 2294 H 208.547 2.78027 3.32992 0
M  V30 2295 H 209.218 2.47373 4.93468 0
M  V30 2296 H 211.694 0.739551 4.09475 0
M  V30 2297 H 210.57 0.535331 5.46283 0
M  V30 2298 H 210.831 -0.797216 4.34853 0
M  V30 2299 N 209.89 -1.43072 0.660911 0
M  V30 2300 C 210.82 -2.33497 -0.0122829 0
M  V30 2301 C 211.801 -1.49903 -0.803925 0
M  V30 2302 O 212.986 -1.78546 -0.763864 0
M  V30 2303 C 210.116 -3.33363 -0.973994 0
M  V30 2304 C 209.07 -4.27003 -0.291928 0
M  V30 2305 C 208.396 -5.16967 -1.36562 0
M  V30 2306 C 209.696 -5.15816 0.820462 0
M  V30 2307 H 211.39 -2.90038 0.742873 0
M  V30 2308 H 208.936 -1.39461 0.358688 0
M  V30 2309 H 210.889 -3.95524 -1.45392 0
M  V30 2310 H 209.613 -2.75095 -1.7604 0
M  V30 2311 H 208.272 -3.66217 0.167623 0
M  V30 2312 H 207.92 -4.55034 -2.14366 0
M  V30 2313 H 207.62 -5.80441 -0.914454 0
M  V30 2314 H 209.144 -5.82003 -1.84675 0
M  V30 2315 H 210.558 -5.71742 0.422366 0
M  V30 2316 H 208.955 -5.8805 1.19656 0
M  V30 2317 H 210.025 -4.55045 1.67518 0
M  V30 2318 N 211.368 -0.403325 -1.52352 0
M  V30 2319 C 212.315 0.425011 -2.26853 0
M  V30 2320 C 213.285 1.04598 -1.29029 0
M  V30 2321 O 214.47 1.07135 -1.57882 0
M  V30 2322 C 211.61 1.53888 -3.08889 0
M  V30 2323 C 210.723 0.939396 -4.21663 0
M  V30 2324 C 209.858 2.02547 -4.91068 0
M  V30 2325 C 208.897 1.40263 -5.95813 0
M  V30 2326 N 208.034 2.4286 -6.58759 0
M  V30 2327 H 212.874 -0.21674 -2.97211 0
M  V30 2328 H 210.411 -0.118722 -1.4662 0
M  V30 2329 H 212.369 2.19558 -3.54753 0
M  V30 2330 H 210.999 2.15074 -2.40714 0
M  V30 2331 H 210.051 0.171898 -3.80011 0
M  V30 2332 H 211.363 0.44436 -4.96817 0
M  V30 2333 H 210.517 2.75958 -5.40308 0
M  V30 2334 H 209.256 2.55415 -4.15469 0
M  V30 2335 H 208.261 0.653833 -5.45898 0
M  V30 2336 H 209.486 0.881719 -6.73352 0
M  V30 2337 H 207.432 2.94871 -5.85992 0
M  V30 2338 H 207.349 1.98152 -7.2957 0
M  V30 2339 H 208.617 3.15858 -7.12639 0
M  V30 2340 N 212.846 1.57033 -0.133567 0
M  V30 2341 C 213.809 2.14897 0.796995 0
M  V30 2342 C 214.809 1.0874 1.18458 0
M  V30 2343 O 215.999 1.34446 1.1077 0
M  V30 2344 C 213.131 2.70112 2.07973 0
M  V30 2345 H 214.324 2.98457 0.293873 0
M  V30 2346 H 211.877 1.55871 0.115787 0
M  V30 2347 H 212.612 1.9018 2.62682 0
M  V30 2348 H 212.397 3.47764 1.81115 0
M  V30 2349 H 213.887 3.14738 2.74462 0
M  V30 2350 N 214.325 -0.140222 1.56975 0
M  V30 2351 C 215.255 -1.17456 2.01808 0
M  V30 2352 C 216.236 -1.44415 0.898794 0
M  V30 2353 O 217.421 -1.5522 1.16707 0
M  V30 2354 C 214.551 -2.50607 2.40444 0
M  V30 2355 C 213.505 -2.38155 3.55621 0
M  V30 2356 C 212.831 -3.76078 3.80091 0
M  V30 2357 C 214.131 -1.85991 4.88062 0
M  V30 2358 H 215.825 -0.801743 2.88466 0
M  V30 2359 H 213.371 -0.38422 1.38779 0
M  V30 2360 H 215.324 -3.23197 2.7041 0
M  V30 2361 H 214.048 -2.89737 1.50732 0
M  V30 2362 H 212.707 -1.68016 3.25832 0
M  V30 2363 H 212.355 -4.12656 2.87618 0
M  V30 2364 H 212.055 -3.68606 4.57606 0
M  V30 2365 H 213.579 -4.50206 4.12488 0
M  V30 2366 H 214.993 -2.4838 5.16701 0
M  V30 2367 H 213.39 -1.89393 5.6943 0
M  V30 2368 H 214.46 -0.816023 4.77984 0
M  V30 2369 N 215.803 -1.52179 -0.40978 0
M  V30 2370 C 216.753 -1.71857 -1.49831 0
M  V30 2371 C 217.737 -0.572469 -1.50372 0
M  V30 2372 O 218.929 -0.829509 -1.56359 0
M  V30 2373 C 216.058 -1.87206 -2.87765 0
M  V30 2374 C 215.144 -3.07685 -2.91875 0
M  V30 2375 N 215.535 -4.30403 -2.65683 0
M  V30 2376 C 213.833 -3.07505 -3.23043 0
M  V30 2377 C 214.534 -5.11868 -2.76344 0
M  V30 2378 N 213.51 -4.47101 -3.09195 0
M  V30 2379 H 217.312 -2.64381 -1.28375 0
M  V30 2380 H 214.826 -1.50203 -0.617479 0
M  V30 2381 H 216.823 -1.99419 -3.66111 0
M  V30 2382 H 215.483 -0.958814 -3.10221 0
M  V30 2383 H 216.494 -4.58887 -2.4009 0
M  V30 2384 H 213.171 -2.25915 -3.51096 0
M  V30 2385 H 214.561 -6.19634 -2.59814 0
M  V30 2386 N 217.281 0.66697 -1.42791 0
M  V30 2387 C 218.509 1.45505 -1.47091 0
M  V30 2388 C 218.924 1.8861 -0.0845873 0
M  V30 2389 O 218.281 1.58632 0.90234 0
M  V30 2390 C 218.332 2.69906 -2.40485 0
M  V30 2391 O 218.053 2.28608 -3.73725 0
M  V30 2392 C 219.554 3.63396 -2.53886 0
M  V30 2393 H 216.774 0.447459 -0.500022 0
M  V30 2394 H 219.318 0.818866 -1.8739 0
M  V30 2395 H 217.473 3.29696 -2.03419 0
M  V30 2396 H 217.887 3.08997 -4.23817 0
M  V30 2397 H 219.361 4.47387 -3.2334 0
M  V30 2398 H 219.838 4.09824 -1.57927 0
M  V30 2399 H 220.444 3.09495 -2.91706 0
M  V30 2400 N 218.759 1.29093 0.90403 0
M  V30 2401 C 220.007 1.16583 1.65085 0
M  V30 2402 C 220.328 -0.283933 1.92922 0
M  V30 2403 O 219.598 -1.19509 1.55224 0
M  V30 2404 H 218.178 0.428467 0.611903 0
M  V30 2405 H 220.84 1.61959 1.08422 0
M  V30 2406 H 219.936 1.71266 2.6091 0
M  V30 2407 N 220.237 -1.11381 1.11499 0
M  V30 2408 C 221.467 -1.86663 0.885464 0
M  V30 2409 C 221.875 -1.80464 -0.568281 0
M  V30 2410 O 221.218 -1.18445 -1.40415 0
M  V30 2411 C 221.28 -3.36337 1.26956 0
M  V30 2412 C 220.944 -3.66304 2.73259 0
M  V30 2413 C 221.941 -3.63733 3.71476 0
M  V30 2414 C 219.626 -3.9529 3.09921 0
M  V30 2415 C 221.62 -3.89725 5.04374 0
M  V30 2416 C 219.307 -4.20941 4.43004 0
M  V30 2417 C 220.305 -4.18147 5.40039 0
M  V30 2418 O 219.993 -4.43153 6.70724 0
M  V30 2419 H 219.725 -0.597114 0.316908 0
M  V30 2420 H 222.279 -1.41782 1.48617 0
M  V30 2421 H 220.509 -3.81826 0.611999 0
M  V30 2422 H 222.198 -3.92986 1.01573 0
M  V30 2423 H 222.964 -3.41389 3.44498 0
M  V30 2424 H 218.843 -3.966 2.35009 0
M  V30 2425 H 222.387 -3.8746 5.80104 0
M  V30 2426 H 218.284 -4.42761 4.69716 0
M  V30 2427 H 219.052 -4.60717 6.76522 0
M  V30 2428 N 221.715 -0.905404 -1.28997 0
M  V30 2429 C 222.943 -0.549846 -1.9946 0
M  V30 2430 C 223.358 0.866834 -1.67724 0
M  V30 2431 O 222.715 1.57298 -0.925404 0
M  V30 2432 C 222.766 -0.739387 -3.53858 0
M  V30 2433 O 222.487 -2.10031 -3.84472 0
M  V30 2434 C 223.988 -0.389541 -4.41585 0
M  V30 2435 H 221.208 -0.210429 -0.637151 0
M  V30 2436 H 223.752 -1.21632 -1.64396 0
M  V30 2437 H 221.907 -0.120023 -3.87214 0
M  V30 2438 H 222.321 -2.13385 -4.79132 0
M  V30 2439 H 223.795 -0.572972 -5.49018 0
M  V30 2440 H 224.272 0.673756 -4.34001 0
M  V30 2441 H 224.878 -0.986089 -4.1371 0
M  V30 2442 N 223.193 1.4272 -0.668489 0
M  V30 2443 C 224.421 2.05966 -0.196348 0
M  V30 2444 C 224.836 1.50191 1.14403 0
M  V30 2445 O 224.193 0.639208 1.7094 0
M  V30 2446 C 224.244 3.61314 -0.115815 0
M  V30 2447 O 223.965 4.1502 -1.40322 0
M  V30 2448 C 225.466 4.41663 0.380579 0
M  V30 2449 H 222.686 0.663954 -0.0969829 0
M  V30 2450 H 225.23 1.82966 -0.913446 0
M  V30 2451 H 223.385 3.83448 0.551931 0
M  V30 2452 H 223.799 5.08832 -1.27243 0
M  V30 2453 H 225.273 5.5065 0.385848 0
M  V30 2454 H 225.75 4.15792 1.41471 0
M  V30 2455 H 226.356 4.24534 -0.255209 0
M  V30 2456 N 224.671 0.411399 1.52136 0
M  V30 2457 C 225.601 -0.404015 2.29978 0
M  V30 2458 C 226.582 -1.04412 1.34284 0
M  V30 2459 O 227.767 -1.0527 1.63192 0
M  V30 2460 C 224.897 -1.5197 3.12286 0
M  V30 2461 C 223.851 -1.00448 4.16046 0
M  V30 2462 C 223.177 -2.21393 4.86712 0
M  V30 2463 C 224.477 -0.0569336 5.22269 0
M  V30 2464 H 226.171 0.245529 2.98392 0
M  V30 2465 H 223.717 0.119525 1.43503 0
M  V30 2466 H 225.67 -2.09715 3.6551 0
M  V30 2467 H 224.394 -2.19716 2.41646 0
M  V30 2468 H 223.053 -0.449421 3.63835 0
M  V30 2469 H 222.701 -2.87699 4.12599 0
M  V30 2470 H 222.401 -1.87571 5.56858 0
M  V30 2471 H 223.925 -2.7974 5.4275 0
M  V30 2472 H 225.339 -0.54325 5.7072 0
M  V30 2473 H 223.736 0.192594 5.99791 0
M  V30 2474 H 224.806 0.887663 4.76706 0
M  V30 2475 N 226.149 -1.5696 0.141893 0
M  V30 2476 C 227.395 -1.9625 -0.511248 0
M  V30 2477 C 227.728 -1.02654 -1.64851 0
M  V30 2478 O 227.003 -0.0679676 -1.94381 0
M  V30 2479 C 227.286 -3.45285 -1.02227 0
M  V30 2480 C 227.139 -4.49658 0.113138 0
M  V30 2481 C 228.458 -3.96698 -1.90574 0
M  V30 2482 H 225.577 -0.713567 -0.184367 0
M  V30 2483 H 228.219 -1.88698 0.222087 0
M  V30 2484 H 226.369 -3.51852 -1.64719 0
M  V30 2485 H 228.041 -4.55174 0.749302 0
M  V30 2486 H 226.284 -4.26857 0.773026 0
M  V30 2487 H 226.955 -5.51258 -0.286053 0
M  V30 2488 H 229.431 -3.92578 -1.37918 0
M  V30 2489 H 228.307 -5.01453 -2.2324 0
M  V30 2490 H 228.568 -3.3875 -2.84079 0
M  V30 2491 N 227.627 0.131896 -1.57047 0
M  V30 2492 C 228.557 1.16384 -2.02428 0
M  V30 2493 C 229.538 1.43936 -0.90644 0
M  V30 2494 O 230.723 1.54599 -1.17528 0
M  V30 2495 C 227.853 2.49328 -2.4177 0
M  V30 2496 C 226.807 2.36266 -3.56879 0
M  V30 2497 C 226.133 3.74057 -3.8208 0
M  V30 2498 C 227.433 1.834 -4.89042 0
M  V30 2499 H 229.127 0.786433 -2.88887 0
M  V30 2500 H 226.673 0.376855 -1.38981 0
M  V30 2501 H 228.626 3.21759 -2.7212 0
M  V30 2502 H 227.35 2.88934 -1.52266 0
M  V30 2503 H 226.009 1.66286 -3.26718 0
M  V30 2504 H 225.657 4.11125 -2.89803 0
M  V30 2505 H 225.357 3.66174 -4.59554 0
M  V30 2506 H 226.881 4.48012 -4.1487 0
M  V30 2507 H 228.295 2.45636 -5.18011 0
M  V30 2508 H 226.692 1.8637 -5.70426 0
M  V30 2509 H 227.762 0.790662 -4.7841 0
M  V30 2510 N 229.106 1.52395 0.401703 0
M  V30 2511 C 230.334 1.70676 1.16949 0
M  V30 2512 C 230.749 0.419503 1.8408 0
M  V30 2513 O 230.106 -0.605061 1.72178 0
M  V30 2514 C 230.157 2.84753 2.22706 0
M  V30 2515 O 229.878 4.08495 1.58314 0
M  V30 2516 C 231.379 3.14608 3.12309 0
M  V30 2517 H 228.599 0.571787 0.351142 0
M  V30 2518 H 231.143 1.98987 0.471652 0
M  V30 2519 H 229.298 2.58941 2.88147 0
M  V30 2520 H 229.712 4.72117 2.28485 0
M  V30 2521 H 231.186 3.97923 3.82572 0
M  V30 2522 H 231.663 2.28464 3.75101 0
M  V30 2523 H 232.269 3.42212 2.52529 0
M  V30 2524 N 230.584 -0.659388 1.43143 0
M  V30 2525 C 231.812 -1.44723 1.47861 0
M  V30 2526 C 232.227 -1.88563 0.0945886 0
M  V30 2527 O 231.584 -1.59108 -0.893915 0
M  V30 2528 C 231.635 -2.68627 2.41913 0
M  V30 2529 O 231.356 -2.26623 3.74932 0
M  V30 2530 C 232.857 -3.62045 2.55809 0
M  V30 2531 H 230.077 -0.444801 0.502387 0
M  V30 2532 H 232.621 -0.808916 1.87821 0
M  V30 2533 H 230.776 -3.28613 2.05164 0
M  V30 2534 H 231.19 -3.06745 4.2545 0
M  V30 2535 H 232.664 -4.45666 3.25708 0
M  V30 2536 H 233.141 -4.08981 1.60099 0
M  V30 2537 H 233.747 -3.07944 2.93344 0
M  V30 2538 N 232.062 -1.29571 -0.897171 0
M  V30 2539 C 233.339 -1.08365 -1.62839 0
M  V30 2540 C 233.719 0.371331 -2.07808 0
M  V30 2541 O 233.067 1.3606 -1.83576 0
M  V30 2542 C 233.277 -2.0735 -2.80726 0
M  V30 2543 C 234.625 -2.38406 -3.51351 0
M  V30 2544 O 235.649 -2.05564 -2.90898 0
M  V30 2545 O 234.508 -2.9453 -4.60341 0
M  V30 2546 H 231.602 -0.415345 -0.715134 0
M  V30 2547 H 234.148 -1.40952 -0.945018 0
M  V30 2548 H 232.92 -3.05339 -2.44711 0
M  V30 2549 H 232.543 -1.75507 -3.56767 0
M  V30 2550 N 233.54 1.10788 -1.12088 0
M  V30 2551 C 234.786 1.82942 -0.875226 0
M  V30 2552 C 235.119 1.84779 0.597538 0
M  V30 2553 O 234.394 1.30578 1.44152 0
M  V30 2554 C 234.677 3.29789 -1.44606 0
M  V30 2555 C 234.53 3.36307 -2.98693 0
M  V30 2556 C 235.849 4.26064 -1.10261 0
M  V30 2557 H 232.968 0.664195 -0.319397 0
M  V30 2558 H 235.61 1.29867 -1.38689 0
M  V30 2559 H 233.76 3.75118 -1.01089 0
M  V30 2560 H 235.432 2.99487 -3.50864 0
M  V30 2561 H 233.675 2.76318 -3.34411 0
M  V30 2562 H 234.346 4.39694 -3.33726 0
M  V30 2563 H 236.822 3.88951 -1.4784 0
M  V30 2564 H 235.698 5.27183 -1.52869 0
M  V30 2565 H 235.959 4.42098 -0.0142953 0
M  V30 2566 N 235.018 0.912232 1.28515 0
M  V30 2567 C 235.981 0.404223 2.25607 0
M  V30 2568 C 236.981 -0.468602 1.53821 0
M  V30 2569 O 238.171 -0.271873 1.72065 0
M  V30 2570 C 235.303 -0.420653 3.38295 0
M  V30 2571 H 236.496 1.26188 2.7206 0
M  V30 2572 H 234.049 0.691495 1.40171 0
M  V30 2573 H 234.784 -1.29777 2.97201 0
M  V30 2574 H 234.569 0.204935 3.91564 0
M  V30 2575 H 236.059 -0.766971 4.10496 0
M  V30 2576 N 236.496 -1.42363 0.676048 0
M  V30 2577 C 237.742 -2.0182 0.199125 0
M  V30 2578 C 238.075 -1.53339 -1.19168 0
M  V30 2579 O 237.35 -0.736124 -1.80032 0
M  V30 2580 C 237.633 -3.59331 0.235144 0
M  V30 2581 C 237.486 -4.17989 1.66149 0
M  V30 2582 C 238.805 -4.3813 -0.41595 0
M  V30 2583 H 235.924 -0.733293 0.0738311 0
M  V30 2584 H 238.566 -1.69368 0.86107 0
M  V30 2585 H 236.716 -3.87109 -0.328487 0
M  V30 2586 H 238.388 -4.0116 2.27747 0
M  V30 2587 H 236.631 -3.7377 2.20178 0
M  V30 2588 H 237.302 -5.27126 1.63837 0
M  V30 2589 H 239.778 -4.16051 0.0638529 0
M  V30 2590 H 238.654 -5.47717 -0.360115 0
M  V30 2591 H 238.915 -4.16101 -1.49373 0
M  V30 2592 N 237.974 -0.419461 -1.51915 0
M  V30 2593 C 238.922 0.415502 -2.28859 0
M  V30 2594 C 239.916 1.03674 -1.3397 0
M  V30 2595 O 241.122 0.973757 -1.51387 0
M  V30 2596 H 237.497 0.152786 -0.736315 0
M  V30 2597 H 239.468 -0.254531 -2.97312 0
M  V30 2598 C 238.217 1.51425 -3.12995 0
M  V30 2599 H 237.54 1.04556 -3.85886 0
M  V30 2600 H 238.98 2.07208 -3.6992 0
M  V30 2601 C 237.439 2.48745 -2.27217 0
M  V30 2602 O 237.969 3.52871 -1.9195 0
M  V30 2603 N 236.175 2.19202 -1.90785 0
M  V30 2604 H 235.722 1.34556 -2.19664 0
M  V30 2605 H 235.68 2.84561 -1.33687 0
M  V30 2606 N 239.452 1.56882 -0.150215 0
M  V30 2607 C 240.7 1.9584 0.499105 0
M  V30 2608 C 241.021 1.03623 1.65188 0
M  V30 2609 O 240.291 0.0984084 1.95653 0
M  V30 2610 H 238.871 0.723119 0.187373 0
M  V30 2611 H 241.533 1.9358 -0.226466 0
M  V30 2612 H 240.629 2.99638 0.873122 0
M  V30 2613 N 240.93 -0.123565 1.57115 0
M  V30 2614 C 242.16 -0.845233 1.88519 0
M  V30 2615 C 242.568 -1.74168 0.739064 0
M  V30 2616 O 241.911 -1.81244 -0.299355 0
M  V30 2617 C 241.973 -1.73452 3.14888 0
M  V30 2618 C 241.637 -1.01285 4.45635 0
M  V30 2619 C 242.634 -0.355774 5.18681 0
M  V30 2620 C 240.319 -0.99538 4.92339 0
M  V30 2621 C 242.313 0.309114 6.3665 0
M  V30 2622 C 240 -0.32669 6.10226 0
M  V30 2623 C 240.998 0.324406 6.82229 0
M  V30 2624 O 240.686 0.982437 7.97874 0
M  V30 2625 H 240.418 -0.248534 0.628655 0
M  V30 2626 H 242.972 -0.113907 2.05084 0
M  V30 2627 H 241.202 -2.50737 2.94394 0
M  V30 2628 H 242.891 -2.33021 3.32349 0
M  V30 2629 H 243.657 -0.360918 4.83655 0
M  V30 2630 H 239.536 -1.49159 4.36202 0
M  V30 2631 H 243.08 0.8179 6.92789 0
M  V30 2632 H 238.977 -0.319294 6.4471 0
M  V30 2633 H 239.745 0.886454 8.13686 0
M  V30 2634 N 242.408 -1.52605 -0.393616 0
M  V30 2635 C 243.824 -1.41753 -0.733357 0
M  V30 2636 C 244.024 -0.534293 -1.94287 0
M  V30 2637 O 243.08 -0.0059787 -2.52499 0
M  V30 2638 C 244.393 -2.84531 -0.972772 0
M  V30 2639 C 245.941 -2.93978 -1.07453 0
M  V30 2640 C 246.416 -4.37756 -1.3466 0
M  V30 2641 N 247.907 -4.4106 -1.41492 0
M  V30 2642 C 248.642 -5.49387 -1.642 0
M  V30 2643 N 248.138 -6.67806 -1.8441 0
M  V30 2644 N 249.931 -5.36923 -1.66342 0
M  V30 2645 H 242.082 -2.08555 0.402328 0
M  V30 2646 H 244.345 -0.940654 0.117789 0
M  V30 2647 H 244.051 -3.51353 -0.156204 0
M  V30 2648 H 243.925 -3.26508 -1.88871 0
M  V30 2649 H 246.312 -2.27326 -1.88167 0
M  V30 2650 H 246.393 -2.55435 -0.136605 0
M  V30 2651 H 246.037 -5.04972 -0.544581 0
M  V30 2652 H 245.967 -4.73848 -2.2973 0
M  V30 2653 H 248.458 -3.55705 -1.27601 0
M  V30 2654 H 248.771 -7.46141 -2.01231 0
M  V30 2655 H 247.116 -6.70843 -1.81644 0
M  V30 2656 H 250.307 -4.43381 -1.50102 0
M  V30 2657 H 250.48 -6.21416 -1.837 0
M  V30 2658 N 243.887 0.651787 -1.4349 0
M  V30 2659 C 244.797 1.79368 -1.5121 0
M  V30 2660 C 245.813 1.69361 -0.399093 0
M  V30 2661 O 246.989 1.90505 -0.653431 0
M  V30 2662 C 244.054 3.15653 -1.43401 0
M  V30 2663 C 243.115 3.37446 -2.65384 0
M  V30 2664 C 242.348 4.67229 -2.57939 0
M  V30 2665 O 242.571 5.46676 -1.62792 0
M  V30 2666 O 241.505 4.90773 -3.48462 0
M  V30 2667 H 245.331 1.7581 -2.47638 0
M  V30 2668 H 242.916 0.810447 -1.25507 0
M  V30 2669 H 244.798 3.96935 -1.41494 0
M  V30 2670 H 243.473 3.19798 -0.501085 0
M  V30 2671 H 242.38 2.55923 -2.72863 0
M  V30 2672 H 243.713 3.38148 -3.57654 0
M  V30 2673 N 245.365 1.30045 0.890287 0
M  V30 2674 C 246.781 1.08261 1.17268 0
M  V30 2675 C 246.981 -0.160063 2.00863 0
M  V30 2676 O 246.037 -0.855181 2.37577 0
M  V30 2677 C 247.35 2.34323 1.8845 0
M  V30 2678 C 248.898 2.39735 2.01237 0
M  V30 2679 C 249.373 3.65625 2.7583 0
M  V30 2680 N 250.864 3.66402 2.83379 0
M  V30 2681 C 251.599 4.60498 3.41657 0
M  V30 2682 N 251.095 5.64933 4.01026 0
M  V30 2683 N 252.888 4.48051 3.39421 0
M  V30 2684 H 245.039 2.09777 0.332762 0
M  V30 2685 H 247.302 0.92446 0.209948 0
M  V30 2686 H 247.008 3.2498 1.34465 0
M  V30 2687 H 246.882 2.4256 2.88867 0
M  V30 2688 H 249.269 1.4956 2.54393 0
M  V30 2689 H 249.35 2.35476 0.999232 0
M  V30 2690 H 248.994 4.56156 2.23347 0
M  V30 2691 H 248.924 3.67144 3.77509 0
M  V30 2692 H 251.415 2.90896 2.41222 0
M  V30 2693 H 251.728 6.32841 4.43545 0
M  V30 2694 H 250.073 5.68732 3.99461 0
M  V30 2695 H 253.264 3.65649 2.92264 0
M  V30 2696 H 253.437 5.21565 3.84544 0
M  V30 2697 N 246.843 -1.10192 1.12674 0
M  V30 2698 C 248.12 -1.78717 0.794965 0
M  V30 2699 C 248.5 -1.98628 -0.714853 0
M  V30 2700 O 247.848 -1.58135 -1.64941 0
M  V30 2701 C 248.058 -3.11546 1.5729 0
M  V30 2702 C 249.406 -3.86382 1.76052 0
M  V30 2703 O 250.43 -3.21274 1.53823 0
M  V30 2704 O 249.289 -5.03246 2.13087 0
M  V30 2705 H 246.383 -0.774702 0.289423 0
M  V30 2706 H 248.929 -1.16819 1.23091 0
M  V30 2707 H 247.701 -2.92489 2.59935 0
M  V30 2708 H 247.324 -3.81164 1.13137 0
M  V30 2709 N 248.321 -0.919034 -1.28029 0
M  V30 2710 C 249.251 -0.428581 -2.29533 0
M  V30 2711 C 250.232 0.50659 -1.62381 0
M  V30 2712 O 251.417 0.413195 -1.89753 0
M  V30 2713 C 248.547 0.327388 -3.45753 0
M  V30 2714 C 247.501 -0.519137 -4.2484 0
M  V30 2715 C 246.827 0.365486 -5.33449 0
M  V30 2716 C 248.127 -1.77914 -4.91064 0
M  V30 2717 H 249.821 -1.27687 -2.70807 0
M  V30 2718 H 247.367 -0.615428 -1.30186 0
M  V30 2719 H 249.32 0.681378 -4.15855 0
M  V30 2720 H 248.044 1.20963 -3.03374 0
M  V30 2721 H 246.703 -0.855717 -3.56473 0
M  V30 2722 H 246.351 1.24642 -4.87312 0
M  V30 2723 H 246.051 -0.197356 -5.87268 0
M  V30 2724 H 247.575 0.715241 -6.06396 0
M  V30 2725 H 248.989 -1.49374 -5.53498 0
M  V30 2726 H 247.386 -2.2848 -5.54903 0
M  V30 2727 H 248.456 -2.50382 -4.15255 0
M  V30 2728 N 249.799 1.42003 -0.683588 0
M  V30 2729 C 250.749 2.27997 0.0121992 0
M  V30 2730 C 251.733 1.4156 0.764822 0
M  V30 2731 O 252.925 1.64935 0.642287 0
M  V30 2732 C 250.054 3.29706 0.956482 0
M  V30 2733 C 249.14 4.23625 0.200739 0
M  V30 2734 N 249.531 4.99448 -0.799087 0
M  V30 2735 C 247.829 4.43845 0.437937 0
M  V30 2736 C 248.53 5.68102 -1.25041 0
M  V30 2737 N 247.506 5.40511 -0.578648 0
M  V30 2738 H 251.308 2.84048 -0.754564 0
M  V30 2739 H 248.822 1.54071 -0.513398 0
M  V30 2740 H 250.819 3.90124 1.47 0
M  V30 2741 H 249.479 2.75216 1.72297 0
M  V30 2742 H 250.49 5.04303 -1.17893 0
M  V30 2743 H 247.167 4.00382 1.18325 0
M  V30 2744 H 248.557 6.38913 -2.07942 0
M  V30 2745 N 251.277 0.427512 1.51691 0
M  V30 2746 C 252.225 -0.403359 2.29076 0
M  V30 2747 C 253.219 -1.02962 1.34518 0
M  V30 2748 O 254.425 -0.965715 1.51901 0
M  V30 2749 H 250.8 -0.148879 0.737115 0
M  V30 2750 H 252.771 0.270295 2.97173 0
M  V30 2751 C 251.52 -1.49763 3.13794 0
M  V30 2752 H 250.843 -1.02508 3.86435 0
M  V30 2753 H 252.283 -2.05244 3.71014 0
M  V30 2754 C 250.742 -2.47536 2.28533 0
M  V30 2755 O 251.272 -3.51848 1.93819 0
M  V30 2756 N 249.478 -2.18187 1.91945 0
M  V30 2757 H 249.025 -1.33389 2.20375 0
M  V30 2758 H 248.983 -2.83848 1.35195 0
M  V30 2759 N 252.755 -1.56801 0.158532 0
M  V30 2760 C 254.171 -1.5837 -0.197774 0
M  V30 2761 C 254.371 -1.17334 -1.63814 0
M  V30 2762 O 253.427 -0.878988 -2.36707 0
M  V30 2763 C 254.74 -3.00615 0.0714459 0
M  V30 2764 C 256.288 -3.12999 0.00864533 0
M  V30 2765 C 256.763 -4.57313 0.250685 0
M  V30 2766 N 258.254 -4.62777 0.198014 0
M  V30 2767 C 258.989 -5.72271 0.359642 0
M  V30 2768 N 258.485 -6.90371 0.579625 0
M  V30 2769 N 260.278 -5.61318 0.296438 0
M  V30 2770 H 252.429 -1.81765 1.09887 0
M  V30 2771 H 254.692 -0.841849 0.435884 0
M  V30 2772 H 254.398 -3.35068 1.06874 0
M  V30 2773 H 254.272 -3.71683 -0.642757 0
M  V30 2774 H 256.659 -2.7838 -0.979217 0
M  V30 2775 H 256.74 -2.44393 0.755359 0
M  V30 2776 H 256.384 -4.92639 1.2357 0
M  V30 2777 H 256.314 -5.24061 -0.516489 0
M  V30 2778 H 258.805 -3.77885 0.0331115 0
M  V30 2779 H 259.118 -7.69689 0.69275 0
M  V30 2780 H 257.463 -6.92264 0.616087 0
M  V30 2781 H 260.654 -4.67932 0.125258 0
M  V30 2782 H 260.827 -6.46599 0.425831 0
M  V30 2783 N 254.233 0.115231 -1.57178 0
M  V30 2784 C 255.48 0.822351 -1.8505 0
M  V30 2785 C 255.808 1.79701 -0.744168 0
M  V30 2786 O 255.063 1.93909 0.26414 0
M  V30 2787 C 255.362 1.60324 -3.19423 0
M  V30 2788 C 255.028 0.772536 -4.44233 0
M  V30 2789 C 253.69 0.543468 -4.78121 0
M  V30 2790 C 256.042 0.193746 -5.2084 0
M  V30 2791 C 253.37 -0.274583 -5.86057 0
M  V30 2792 C 255.722 -0.611517 -6.29637 0
M  V30 2793 C 254.386 -0.850867 -6.62055 0
M  V30 2794 H 253.656 0.30092 -0.677147 0
M  V30 2795 H 256.303 0.0845802 -1.91313 0
M  V30 2796 H 254.608 2.41203 -3.08753 0
M  V30 2797 H 256.305 2.1544 -3.38211 0
M  V30 2798 H 252.895 0.96117 -4.17683 0
M  V30 2799 H 257.079 0.357926 -4.95008 0
M  V30 2800 H 252.335 -0.469206 -6.09597 0
M  V30 2801 H 256.509 -1.06697 -6.88178 0
M  V30 2802 H 254.136 -1.48657 -7.45523 0
M  V30 2803 N 255.711 1.52812 0.385517 0
M  V30 2804 C 256.658 1.77838 1.47113 0
M  V30 2805 C 257.628 0.621757 1.54024 0
M  V30 2806 O 258.813 0.861846 1.70226 0
M  V30 2807 C 255.953 1.95618 2.84302 0
M  V30 2808 C 255.066 3.23316 2.86515 0
M  V30 2809 C 254.201 3.31394 4.15152 0
M  V30 2810 C 253.24 4.53201 4.1143 0
M  V30 2811 N 252.377 4.58542 5.3168 0
M  V30 2812 H 257.217 2.70482 1.25073 0
M  V30 2813 H 254.754 1.34006 0.606692 0
M  V30 2814 H 256.712 2.03912 3.63972 0
M  V30 2815 H 255.342 1.06331 3.04784 0
M  V30 2816 H 254.394 3.24076 1.99195 0
M  V30 2817 H 255.706 4.13045 2.79634 0
M  V30 2818 H 254.86 3.3889 5.03228 0
M  V30 2819 H 253.599 2.39645 4.24761 0
M  V30 2820 H 252.604 4.45827 3.21742 0
M  V30 2821 H 253.829 5.46271 4.03442 0
M  V30 2822 H 251.775 3.69686 5.41912 0
M  V30 2823 H 251.692 5.42148 5.26889 0
M  V30 2824 H 252.96 4.70296 6.21644 0
M  V30 2825 N 257.189 -0.644168 1.43834 0
M  V30 2826 C 258.438 -1.39985 1.45214 0
M  V30 2827 C 258.751 -1.95421 0.0835494 0
M  V30 2828 O 259.957 -2.71488 -0.0251748 0
M  V30 2829 C 258.413 -2.53384 2.55587 0
M  V30 2830 C 258.021 -2.04517 3.98594 0
M  V30 2831 C 259.765 -3.30685 2.66172 0
M  V30 2832 C 257.672 -3.1518 5.00416 0
M  V30 2833 H 256.602 -0.526005 0.540218 0
M  V30 2834 H 259.253 -0.694367 1.69855 0
M  V30 2835 H 257.635 -3.26446 2.24163 0
M  V30 2836 H 258.809 -1.38405 4.39523 0
M  V30 2837 H 257.124 -1.40068 3.92135 0
M  V30 2838 H 259.721 -4.13158 3.39418 0
M  V30 2839 H 260.064 -3.79312 1.71546 0
M  V30 2840 H 260.597 -2.64708 2.96942 0
M  V30 2841 H 257.336 -2.71511 5.96625 0
M  V30 2842 H 256.856 -3.79974 4.64091 0
M  V30 2843 H 258.535 -3.80166 5.23529 0
M  V30 2844 N 258.668 -1.30515 -0.883378 0
M  V30 2845 C 260.079 -1.17509 -1.45081 0
M  V30 2846 C 260.43 0.223605 -1.94922 0
M  V30 2847 O 259.555 1.12041 -1.85137 0
M  V30 2848 C 260.15 -2.12715 -2.63701 0
M  V30 2849 C 258.709 -2.03682 -3.16529 0
M  V30 2850 C 257.856 -2.02706 -1.89224 0
M  V30 2851 H 260.807 -1.42762 -0.693165 0
M  V30 2852 H 260.828 -1.70891 -3.39965 0
M  V30 2853 H 260.34 -3.14505 -2.27395 0
M  V30 2854 H 258.441 -1.05039 -3.57488 0
M  V30 2855 H 258.554 -2.92146 -3.7972 0
M  V30 2856 H 256.918 -1.4753 -2.07622 0
M  V30 2857 H 257.701 -3.06229 -1.55174 0
M  V30 2858 N 260.146 1.09593 -1.13257 0
M  V30 2859 C 261.079 2.15451 -0.752061 0
M  V30 2860 C 262.057 1.60493 0.260913 0
M  V30 2861 O 263.241 1.8788 0.152819 0
M  V30 2862 C 260.368 3.38506 -0.114594 0
M  V30 2863 C 259.414 4.12183 -1.09579 0
M  V30 2864 S 260.247 4.6661 -2.62745 0
M  V30 2865 C 261.403 5.92966 -2.00354 0
M  V30 2866 H 261.636 2.47395 -1.64872 0
M  V30 2867 H 259.169 1.21515 -0.952545 0
M  V30 2868 H 261.127 4.09757 0.246808 0
M  V30 2869 H 259.788 3.04784 0.759309 0
M  V30 2870 H 258.981 5.00445 -0.597545 0
M  V30 2871 H 258.583 3.46785 -1.40057 0
M  V30 2872 H 260.875 6.63882 -1.35156 0
M  V30 2873 H 261.818 6.47467 -2.86691 0
M  V30 2874 H 262.226 5.45405 -1.4558 0
M  V30 2875 N 261.624 0.925811 1.2754 0
M  V30 2876 C 262.849 0.580924 1.99098 0
M  V30 2877 C 263.274 -0.833555 1.68622 0
M  V30 2878 O 262.632 -1.55903 0.925422 0
M  V30 2879 C 262.68 0.811186 3.51358 0
M  V30 2880 O 261.784 -0.124129 4.12213 0
M  V30 2881 H 261.125 0.223873 0.625122 0
M  V30 2882 H 263.655 1.24455 1.62395 0
M  V30 2883 H 263.665 0.72601 4.01489 0
M  V30 2884 H 262.34 1.84227 3.72872 0
M  V30 2885 H 260.917 0.0108006 3.72898 0
M  V30 2886 N 263.102 -1.41638 0.69111 0
M  V30 2887 C 264.332 -2.0533 0.228758 0
M  V30 2888 C 264.74 -1.52089 -1.12541 0
M  V30 2889 O 264.083 -0.662145 -1.71351 0
M  V30 2890 C 264.145 -3.59349 0.10407 0
M  V30 2891 C 263.809 -4.35362 1.38956 0
M  V30 2892 C 264.806 -4.64942 2.32648 0
M  V30 2893 C 262.491 -4.74714 1.64169 0
M  V30 2894 C 264.485 -5.32828 3.49818 0
M  V30 2895 C 262.172 -5.42338 2.81625 0
M  V30 2896 C 263.17 -5.71322 3.74273 0
M  V30 2897 O 262.858 -6.37554 4.89673 0
M  V30 2898 H 262.59 -0.667796 0.104997 0
M  V30 2899 H 265.144 -1.82477 0.942938 0
M  V30 2900 H 263.374 -3.80924 -0.665839 0
M  V30 2901 H 265.063 -4.04633 -0.320519 0
M  V30 2902 H 265.829 -4.35025 2.14425 0
M  V30 2903 H 261.708 -4.51538 0.929202 0
M  V30 2904 H 265.252 -5.55368 4.22152 0
M  V30 2905 H 261.149 -5.71673 2.99768 0
M  V30 2906 H 261.917 -6.56049 4.8943 0
M  V30 2907 N 264.58 -0.43555 -1.51462 0
M  V30 2908 C 265.805 0.132627 -2.06976 0
M  V30 2909 C 266.23 1.35848 -1.30104 0
M  V30 2910 O 265.588 1.78112 -0.338493 0
M  V30 2911 C 265.636 0.43523 -3.57964 0
M  V30 2912 O 264.74 1.52198 -3.83288 0
M  V30 2913 H 264.081 0.00265 -0.663995 0
M  V30 2914 H 266.611 -0.616369 -1.95095 0
M  V30 2915 H 266.621 0.686206 -4.02188 0
M  V30 2916 H 265.296 -0.460739 -4.1334 0
M  V30 2917 H 263.873 1.2611 -3.50928 0
M  V30 2918 N 266.058 1.56714 -0.166846 0
M  V30 2919 C 267.021 2.16539 0.751232 0
M  V30 2920 C 268.021 1.11228 1.16125 0
M  V30 2921 O 269.211 1.36765 1.07894 0
M  V30 2922 C 266.343 2.74462 2.02196 0
M  V30 2923 H 267.536 2.99013 0.230499 0
M  V30 2924 H 265.089 1.56081 0.0826982 0
M  V30 2925 H 265.824 1.95709 2.58589 0
M  V30 2926 H 265.609 3.51527 1.73698 0
M  V30 2927 H 267.099 3.20489 2.67725 0
M  V30 2928 N 267.536 -0.106894 1.57237 0
M  V30 2929 C 268.483 -1.13049 2.01217 0
M  V30 2930 C 269.453 -1.40471 0.886403 0
M  V30 2931 O 270.638 -1.52133 1.15153 0
M  V30 2932 C 267.778 -2.4487 2.43172 0
M  V30 2933 C 266.891 -2.24281 3.69218 0
M  V30 2934 C 266.026 -3.49417 4.00101 0
M  V30 2935 C 265.065 -3.24038 5.19294 0
M  V30 2936 N 264.202 -4.41409 5.45988 0
M  V30 2937 H 269.042 -0.748456 2.88448 0
M  V30 2938 H 266.579 -0.358054 1.42676 0
M  V30 2939 H 268.537 -3.21786 2.65537 0
M  V30 2940 H 267.167 -2.80944 1.58967 0
M  V30 2941 H 266.219 -1.38224 3.54398 0
M  V30 2942 H 267.531 -2.01512 4.56283 0
M  V30 2943 H 266.685 -4.34746 4.2318 0
M  V30 2944 H 265.424 -3.75229 3.11535 0
M  V30 2945 H 264.429 -2.37102 4.96047 0
M  V30 2946 H 265.654 -2.99584 6.09447 0
M  V30 2947 H 263.6 -4.67319 4.60379 0
M  V30 2948 H 263.517 -4.21788 6.274 0
M  V30 2949 H 264.785 -5.27836 5.73593 0
M  V30 2950 N 269.014 -1.53014 -0.377408 0
M  V30 2951 C 270.26 -1.68872 -1.12294 0
M  V30 2952 C 270.593 -0.433224 -1.89306 0
M  V30 2953 O 269.868 0.569258 -1.85983 0
M  V30 2954 C 270.151 -2.93115 -2.09179 0
M  V30 2955 C 270.004 -4.28794 -1.35853 0
M  V30 2956 C 271.323 -3.12928 -3.09458 0
M  V30 2957 H 268.442 -0.614518 -0.406862 0
M  V30 2958 H 271.084 -1.85633 -0.40503 0
M  V30 2959 H 269.234 -2.78956 -2.70399 0
M  V30 2960 H 270.906 -4.54742 -0.775082 0
M  V30 2961 H 269.149 -4.28744 -0.660364 0
M  V30 2962 H 269.82 -5.11837 -2.06706 0
M  V30 2963 H 272.296 -3.26194 -2.58334 0
M  V30 2964 H 271.172 -4.01316 -3.74482 0
M  V30 2965 H 271.433 -2.27669 -3.78971 0
M  V30 2966 N 270.492 0.636531 -1.44174 0
M  V30 2967 C 271.738 1.39826 -1.4689 0
M  V30 2968 C 272.071 1.93947 -0.0990585 0
M  V30 2969 O 271.346 1.73325 0.882544 0
M  V30 2970 C 271.629 2.56751 -2.5249 0
M  V30 2971 C 271.482 2.08014 -3.98811 0
M  V30 2972 C 272.801 3.58946 -2.54649 0
M  V30 2973 H 269.92 0.507075 -0.53483 0
M  V30 2974 H 272.562 0.720188 -1.75822 0
M  V30 2975 H 270.712 3.14597 -2.2795 0
M  V30 2976 H 272.384 1.5504 -4.34466 0
M  V30 2977 H 270.627 1.39242 -4.10846 0
M  V30 2978 H 271.298 2.92169 -4.68339 0
M  V30 2979 H 273.774 3.1089 -2.76563 0
M  V30 2980 H 272.65 4.38286 -3.3045 0
M  V30 2981 H 272.911 4.12655 -1.58646 0
M  V30 2982 N 271.97 1.30982 0.876444 0
M  V30 2983 C 272.9 1.20668 1.99903 0
M  V30 2984 C 273.881 0.095354 1.69833 0
M  V30 2985 O 275.066 0.27885 1.92188 0
M  V30 2986 C 272.196 0.90655 3.3526 0
M  V30 2987 C 271.15 1.97675 3.79617 0
M  V30 2988 C 270.476 1.52943 5.1236 0
M  V30 2989 C 271.776 3.389 3.97422 0
M  V30 2990 H 273.47 2.14586 2.0879 0
M  V30 2991 H 271.016 1.03308 1.00317 0
M  V30 2992 H 272.969 0.821025 4.13324 0
M  V30 2993 H 271.693 -0.0682969 3.26529 0
M  V30 2994 H 270.352 2.05205 3.03787 0
M  V30 2995 H 270 0.54262 5.00065 0
M  V30 2996 H 269.7 2.24532 5.43009 0
M  V30 2997 H 271.224 1.45786 5.92941 0
M  V30 2998 H 272.638 3.34081 4.659 0
M  V30 2999 H 271.035 4.0865 4.3946 0
M  V30 3000 H 272.105 3.80163 3.01006 0
M  V30 3001 N 273.449 -1.08991 1.13837 0
M  V30 3002 C 274.726 -1.77863 0.813876 0
M  V30 3003 C 275.106 -1.99375 -0.693746 0
M  V30 3004 O 274.454 -1.59875 -1.63255 0
M  V30 3005 C 274.664 -3.0986 1.60586 0
M  V30 3006 C 276.012 -3.84493 1.8014 0
M  V30 3007 O 277.036 -3.19624 1.57222 0
M  V30 3008 O 275.895 -5.00957 2.18413 0
M  V30 3009 H 272.989 -0.771589 0.297624 0
M  V30 3010 H 275.535 -1.15507 1.24323 0
M  V30 3011 H 274.307 -2.89715 2.63022 0
M  V30 3012 H 273.93 -3.79942 1.17173 0
M  V30 3013 N 274.927 -0.932562 -1.27047 0
M  V30 3014 C 276.175 -0.574422 -1.93765 0
M  V30 3015 C 276.496 0.887993 -1.73608 0
M  V30 3016 O 275.766 1.62999 -1.08665 0
M  V30 3017 H 274.346 -0.209451 -0.717035 0
M  V30 3018 H 277.008 -1.18601 -1.5466 0
M  V30 3019 H 276.104 -0.784841 -3.02071 0
M  V30 3020 N 276.405 1.4127 -0.698611 0
M  V30 3021 C 277.645 2.03044 -0.235062 0
M  V30 3022 C 278.009 1.54146 1.14468 0
M  V30 3023 O 279.21 2.07867 1.70425 0
M  V30 3024 C 277.481 3.56192 -0.293651 0
M  V30 3025 S 279.04 4.38696 0.0954053 0
M  V30 3026 H 275.858 0.704697 -0.0944648 0
M  V30 3027 H 278.46 1.72656 -0.917064 0
M  V30 3028 H 277.164 3.89274 -1.29977 0
M  V30 3029 H 276.695 3.91285 0.407397 0
M  V30 3030 H 278.71 4.78257 1.3223 0
M  V30 3031 N 277.883 0.443576 1.51229 0
M  V30 3032 C 278.813 -0.355142 2.30783 0
M  V30 3033 C 279.794 -1.0154 1.36468 0
M  V30 3034 O 280.979 -1.01785 1.65389 0
M  V30 3035 C 278.109 -1.45312 3.15439 0
M  V30 3036 C 277.063 -0.916002 4.18083 0
M  V30 3037 C 276.389 -2.1102 4.91299 0
M  V30 3038 C 277.689 0.0538602 5.22272 0
M  V30 3039 H 279.383 0.308767 2.97804 0
M  V30 3040 H 276.929 0.149937 1.43217 0
M  V30 3041 H 278.882 -2.01914 3.69876 0
M  V30 3042 H 277.606 -2.14541 2.46252 0
M  V30 3043 H 276.265 -0.372145 3.64706 0
M  V30 3044 H 275.913 -2.78882 4.18609 0
M  V30 3045 H 275.613 -1.75717 5.60712 0
M  V30 3046 H 277.137 -2.68164 5.48562 0
M  V30 3047 H 278.551 -0.422069 5.71744 0
M  V30 3048 H 276.948 0.319776 5.99247 0
M  V30 3049 H 278.018 0.98858 4.74716 0
M  V30 3050 N 279.361 -1.56624 0.175154 0
M  V30 3051 C 280.311 -2.14747 -0.766004 0
M  V30 3052 C 281.295 -1.08275 -1.19018 0
M  V30 3053 O 282.487 -1.34388 -1.15191 0
M  V30 3054 C 279.616 -2.79478 -1.99366 0
M  V30 3055 C 278.702 -3.93114 -1.5913 0
M  V30 3056 N 279.093 -4.97752 -0.89872 0
M  V30 3057 C 277.391 -4.04345 -1.88204 0
M  V30 3058 C 278.092 -5.77473 -0.700012 0
M  V30 3059 N 277.068 -5.29207 -1.24263 0
M  V30 3060 H 280.87 -2.93015 -0.22793 0
M  V30 3061 H 278.384 -1.6238 -0.0253843 0
M  V30 3062 H 280.381 -3.19498 -2.67818 0
M  V30 3063 H 279.041 -2.02692 -2.53665 0
M  V30 3064 H 280.052 -5.14903 -0.556347 0
M  V30 3065 H 276.729 -3.38667 -2.44153 0
M  V30 3066 H 278.119 -6.71728 -0.152047 0
M  V30 3067 N 280.839 0.0985539 -1.57292 0
M  V30 3068 C 282.25 0.653457 -1.74891 0
M  V30 3069 C 282.601 1.7929 -0.796838 0
M  V30 3070 O 281.726 2.16385 0.0254886 0
M  V30 3071 C 282.321 1.19216 -3.17133 0
M  V30 3072 C 280.88 1.69316 -3.36168 0
M  V30 3073 C 280.027 0.601294 -2.70702 0
M  V30 3074 H 282.978 -0.127497 -1.58187 0
M  V30 3075 H 282.999 2.06154 -3.19814 0
M  V30 3076 H 282.511 0.362635 -3.86402 0
M  V30 3077 H 280.612 2.5468 -2.71972 0
M  V30 3078 H 280.725 1.78853 -4.44464 0
M  V30 3079 H 279.089 1.0399 -2.32504 0
M  V30 3080 H 279.872 -0.217592 -3.4261 0
M  V30 3081 N 282.317 1.53212 0.369288 0
M  V30 3082 C 283.733 1.42902 0.710712 0
M  V30 3083 C 283.933 0.565135 1.93413 0
M  V30 3084 O 282.989 0.0461484 2.52458 0
M  V30 3085 C 284.302 2.86042 0.927382 0
M  V30 3086 C 285.85 2.9565 1.02762 0
M  V30 3087 C 286.325 4.39843 1.27679 0
M  V30 3088 N 287.816 4.43256 1.34457 0
M  V30 3089 C 288.551 5.51929 1.55439 0
M  V30 3090 N 288.047 6.70655 1.73762 0
M  V30 3091 N 289.84 5.39502 1.57779 0
M  V30 3092 H 281.991 2.07888 -0.435457 0
M  V30 3093 H 284.254 0.938661 -0.132739 0
M  V30 3094 H 283.96 3.51557 0.100287 0
M  V30 3095 H 283.834 3.29472 1.83653 0
M  V30 3096 H 286.221 2.30291 1.84527 0
M  V30 3097 H 286.302 2.5562 0.0959504 0
M  V30 3098 H 285.946 5.05774 0.464175 0
M  V30 3099 H 285.876 4.77443 2.22162 0
M  V30 3100 H 288.367 3.5769 1.21926 0
M  V30 3101 H 288.68 7.49248 1.89335 0
M  V30 3102 H 287.025 6.73648 1.70948 0
M  V30 3103 H 290.216 4.45713 1.43029 0
M  V30 3104 H 290.389 6.2426 1.7379 0
M  V30 3105 N 283.795 -0.628877 1.44509 0
M  V30 3106 C 285.041 -1.38863 1.48623 0
M  V30 3107 C 285.396 -1.92038 0.117933 0
M  V30 3108 O 284.689 -1.70853 -0.86716 0
M  V30 3109 C 284.883 -2.56995 2.48371 0
M  V30 3110 C 284.712 -2.15385 3.94765 0
M  V30 3111 C 283.482 -2.02558 4.62924 0
M  V30 3112 C 285.68 -1.74158 4.83915 0
M  V30 3113 N 283.662 -1.54534 5.94132 0
M  V30 3114 C 285.033 -1.37396 6.04584 0
M  V30 3115 C 287.088 -1.61559 4.7096 0
M  V30 3116 C 285.791 -0.892948 7.13736 0
M  V30 3117 C 287.817 -1.14862 5.80139 0
M  V30 3118 C 287.179 -0.790516 6.9995 0
M  V30 3119 H 283.278 -0.502858 0.59888 0
M  V30 3120 H 285.862 -0.72121 1.8085 0
M  V30 3121 H 284.033 -3.21362 2.1813 0
M  V30 3122 H 285.765 -3.23801 2.42766 0
M  V30 3123 H 282.52 -2.23082 4.1777 0
M  V30 3124 H 282.944 -1.32815 6.63844 0
M  V30 3125 H 287.586 -1.87876 3.78764 0
M  V30 3126 H 285.304 -0.617291 8.05739 0
M  V30 3127 H 288.89 -1.05569 5.72142 0
M  V30 3128 H 287.77 -0.434713 7.82994 0
M  V30 3129 N 285.273 -1.31445 -0.869486 0
M  V30 3130 C 286.498 -1.24256 -1.66058 0
M  V30 3131 C 286.923 0.188928 -1.87149 0
M  V30 3132 O 286.281 1.13522 -1.4136 0
M  V30 3133 C 286.329 -1.9924 -3.00559 0
M  V30 3134 O 285.433 -1.33007 -3.90362 0
M  V30 3135 H 284.774 -0.428973 -0.506831 0
M  V30 3136 H 287.304 -1.73521 -1.08404 0
M  V30 3137 H 287.314 -2.08854 -3.50491 0
M  V30 3138 H 285.989 -3.03342 -2.84528 0
M  V30 3139 H 284.566 -1.31848 -3.48813 0
M  V30 3140 N 286.751 1.08385 -1.14413 0
M  V30 3141 C 287.681 2.17321 -0.854044 0
M  V30 3142 C 288.662 1.69024 0.191049 0
M  V30 3143 O 289.847 1.94141 0.0476779 0
M  V30 3144 C 286.977 3.45719 -0.330983 0
M  V30 3145 C 285.931 4.07409 -1.31155 0
M  V30 3146 C 285.257 5.30762 -0.64778 0
M  V30 3147 C 286.557 4.48665 -2.67388 0
M  V30 3148 H 288.251 2.41845 -1.76498 0
M  V30 3149 H 285.797 1.16233 -0.850051 0
M  V30 3150 H 287.75 4.21241 -0.115645 0
M  V30 3151 H 286.474 3.2075 0.615381 0
M  V30 3152 H 285.133 3.33919 -1.51306 0
M  V30 3153 H 284.781 5.02078 0.304398 0
M  V30 3154 H 284.481 5.72992 -1.30207 0
M  V30 3155 H 286.005 6.08998 -0.441972 0
M  V30 3156 H 287.419 5.15364 -2.51143 0
M  V30 3157 H 285.816 5.01814 -3.29093 0
M  V30 3158 H 286.886 3.60543 -3.24248 0
M  V30 3159 N 288.23 0.939286 1.26551 0
M  V30 3160 C 289.507 0.5038 1.89001 0
M  V30 3161 C 289.887 -1.01854 1.84903 0
M  V30 3162 O 289.235 -1.87773 1.30206 0
M  V30 3163 C 289.445 1.063 3.32417 0
M  V30 3164 C 290.793 1.13051 4.09273 0
M  V30 3165 O 291.817 1.01345 3.41479 0
M  V30 3166 O 290.676 1.31233 5.30509 0
M  V30 3167 H 287.77 0.163897 0.810597 0
M  V30 3168 H 290.316 1.03173 1.34735 0
M  V30 3169 H 289.088 2.10665 3.29752 0
M  V30 3170 H 288.711 0.517408 3.94219 0
M  V30 3171 N 289.708 -1.40897 0.706093 0
M  V30 3172 C 290.955 -2.01054 0.241531 0
M  V30 3173 C 291.283 -1.55956 -1.16223 0
M  V30 3174 O 290.538 -0.766336 -1.80072 0
M  V30 3175 C 290.837 -3.5646 0.259099 0
M  V30 3176 C 290.503 -4.21106 1.61184 0
M  V30 3177 C 289.165 -4.38479 1.98216 0
M  V30 3178 C 291.517 -4.57256 2.50132 0
M  V30 3179 C 288.845 -4.89282 3.2376 0
M  V30 3180 C 291.197 -5.09454 3.7502 0
M  V30 3181 C 289.861 -5.25037 4.12181 0
M  V30 3182 H 289.131 -0.73571 0.0883825 0
M  V30 3183 H 291.778 -1.68645 0.907257 0
M  V30 3184 H 290.083 -3.88721 -0.490189 0
M  V30 3185 H 291.78 -4.00826 -0.11804 0
M  V30 3186 H 288.37 -4.07966 1.31384 0
M  V30 3187 H 292.554 -4.43479 2.228 0
M  V30 3188 H 287.81 -4.99531 3.52532 0
M  V30 3189 H 291.984 -5.36404 4.44121 0
M  V30 3190 H 289.611 -5.64164 5.09532 0
M  V30 3191 N 291.186 -0.45159 -1.50991 0
M  V30 3192 C 292.432 0.110237 -2.025 0
M  V30 3193 C 292.765 1.41109 -1.33424 0
M  V30 3194 O 292.04 1.89135 -0.453659 0
M  V30 3195 C 292.323 0.314271 -3.58726 0
M  V30 3196 C 292.176 -1.00623 -4.38401 0
M  V30 3197 C 293.495 1.07767 -4.26702 0
M  V30 3198 H 290.614 0.0385897 -0.735989 0
M  V30 3199 H 293.256 -0.593374 -1.80497 0
M  V30 3200 H 291.406 0.913601 -3.77605 0
M  V30 3201 H 293.078 -1.64064 -4.31139 0
M  V30 3202 H 291.321 -1.6075 -4.02917 0
M  V30 3203 H 291.992 -0.817341 -5.45915 0
M  V30 3204 H 294.468 0.56986 -4.12179 0
M  V30 3205 H 293.344 1.18921 -5.35863 0
M  V30 3206 H 293.605 2.10939 -3.88532 0
M  V30 3207 N 292.664 1.56529 -0.183458 0
M  V30 3208 C 294.08 1.58664 0.172554 0
M  V30 3209 C 294.28 1.19925 1.61926 0
M  V30 3210 O 293.336 0.916534 2.35278 0
M  V30 3211 C 294.649 3.00463 -0.119262 0
M  V30 3212 C 296.197 3.12945 -0.0584396 0
M  V30 3213 C 296.672 4.56857 -0.323408 0
M  V30 3214 N 298.163 4.62403 -0.271612 0
M  V30 3215 C 298.898 5.71626 -0.450639 0
M  V30 3216 N 298.394 6.89362 -0.689384 0
M  V30 3217 N 300.187 5.60775 -0.385701 0
M  V30 3218 H 292.338 1.79994 -1.12765 0
M  V30 3219 H 294.601 0.834808 -0.449222 0
M  V30 3220 H 294.307 3.33326 -1.12192 0
M  V30 3221 H 294.181 3.72659 0.583544 0
M  V30 3222 H 296.568 2.79902 0.934805 0
M  V30 3223 H 296.649 2.4316 -0.794144 0
M  V30 3224 H 296.293 4.9061 -1.31392 0
M  V30 3225 H 296.223 5.24816 0.43305 0
M  V30 3226 H 298.714 3.77785 -0.0932256 0
M  V30 3227 H 299.027 7.68489 -0.815113 0
M  V30 3228 H 297.372 6.91196 -0.726142 0
M  V30 3229 H 300.563 4.67674 -0.199687 0
M  V30 3230 H 300.736 6.4584 -0.528646 0
M  V30 3231 N 294.142 -0.090211 1.57342 0
M  V30 3232 C 295.092 -1.11557 1.98844 0
M  V30 3233 C 296.076 -1.35503 0.867624 0
M  V30 3234 O 297.268 -1.36113 1.13148 0
M  V30 3235 C 294.397 -2.43446 2.42051 0
M  V30 3236 C 293.483 -2.22853 3.60828 0
M  V30 3237 N 293.874 -1.72141 4.75606 0
M  V30 3238 C 292.172 -2.53401 3.67021 0
M  V30 3239 C 292.873 -1.65932 5.57531 0
M  V30 3240 N 291.849 -2.11323 5.00843 0
M  V30 3241 H 295.651 -0.716499 2.85032 0
M  V30 3242 H 293.165 -0.297567 1.59651 0
M  V30 3243 H 295.162 -3.17644 2.70014 0
M  V30 3244 H 293.822 -2.84087 1.57241 0
M  V30 3245 H 294.833 -1.41268 4.98261 0
M  V30 3246 H 291.51 -2.97532 2.92884 0
M  V30 3247 H 292.9 -1.27733 6.59647 0
M  V30 3248 N 295.62 -1.53406 -0.361157 0
M  V30 3249 C 296.868 -1.69467 -1.10115 0
M  V30 3250 C 297.189 -0.451352 -1.89705 0
M  V30 3251 O 296.459 0.534636 -1.88463 0
M  V30 3252 H 295.039 -0.624749 -0.409508 0
M  V30 3253 H 297.701 -1.90609 -0.406699 0
M  V30 3254 H 296.797 -2.55774 -1.78847 0
M  V30 3255 N 297.098 0.621204 -1.44841 0
M  V30 3256 C 298.031 1.7459 -1.46947 0
M  V30 3257 C 299.009 1.59273 -0.327238 0
M  V30 3258 O 300.193 1.81021 -0.525706 0
M  V30 3259 C 297.32 3.12274 -1.31159 0
M  V30 3260 C 296.366 3.46216 -2.49072 0
M  V30 3261 S 297.199 3.4258 -4.11581 0
M  V30 3262 C 298.355 4.82867 -3.98233 0
M  V30 3263 H 298.588 1.72538 -2.42111 0
M  V30 3264 H 296.121 0.796683 -1.32259 0
M  V30 3265 H 298.079 3.91722 -1.22737 0
M  V30 3266 H 296.74 3.11855 -0.374885 0
M  V30 3267 H 295.933 4.4643 -2.33915 0
M  V30 3268 H 295.535 2.74253 -2.54286 0
M  V30 3269 H 297.827 5.7234 -3.62537 0
M  V30 3270 H 298.77 5.0308 -4.98313 0
M  V30 3271 H 299.178 4.57908 -3.30121 0
M  V30 3272 N 298.576 1.31904 0.862503 0
M  V30 3273 C 299.987 1.19803 1.43193 0
M  V30 3274 C 300.338 -0.192567 1.95253 0
M  V30 3275 O 299.463 -1.09081 1.86896 0
M  V30 3276 C 300.058 2.16883 2.60283 0
M  V30 3277 C 298.617 2.08692 3.13248 0
M  V30 3278 C 297.764 2.05691 1.85975 0
M  V30 3279 H 300.715 1.43846 0.670365 0
M  V30 3280 H 300.736 1.76278 3.37204 0
M  V30 3281 H 300.248 3.18083 2.22363 0
M  V30 3282 H 298.349 1.10713 3.55771 0
M  V30 3283 H 298.462 2.9815 3.75025 0
M  V30 3284 H 296.826 1.50814 2.05249 0
M  V30 3285 H 297.609 3.08659 1.50282 0
M  V30 3286 N 300.054 -1.07777 1.14986 0
M  V30 3287 C 300.986 -2.14769 0.800436 0
M  V30 3288 C 301.999 -1.61739 -0.185595 0
M  V30 3289 O 303.188 -1.78462 0.0370358 0
M  V30 3290 C 300.288 -3.38481 0.168533 0
M  V30 3291 C 299.461 -4.20876 1.1909 0
M  V30 3292 C 298.52 -5.22976 0.581575 0
M  V30 3293 O 297.546 -5.55388 1.24633 0
M  V30 3294 N 298.748 -5.76976 -0.638706 0
M  V30 3295 H 301.513 -2.45348 1.72118 0
M  V30 3296 H 299.074 -1.23645 1.04515 0
M  V30 3297 H 301.066 -4.03916 -0.251764 0
M  V30 3298 H 299.636 -3.05651 -0.655467 0
M  V30 3299 H 298.856 -3.51322 1.78791 0
M  V30 3300 H 300.144 -4.7274 1.88133 0
M  V30 3301 H 299.542 -5.52886 -1.19723 0
M  V30 3302 H 298.099 -6.44061 -1.00142 0
M  V30 3303 N 301.532 -0.945985 -1.26051 0
M  V30 3304 C 302.462 -0.477172 -2.28572 0
M  V30 3305 C 303.443 0.472032 -1.63419 0
M  V30 3306 O 304.628 0.372853 -1.90587 0
M  V30 3307 C 301.758 0.253975 -3.4637 0
M  V30 3308 C 300.712 -0.609135 -4.23643 0
M  V30 3309 C 300.038 0.252252 -5.34105 0
M  V30 3310 C 301.338 -1.8829 -4.8718 0
M  V30 3311 H 303.032 -1.33402 -2.68038 0
M  V30 3312 H 300.578 -0.642904 -1.28852 0
M  V30 3313 H 302.531 0.593016 -4.17207 0
M  V30 3314 H 301.255 1.145 -3.05871 0
M  V30 3315 H 299.914 -0.931138 -3.54578 0
M  V30 3316 H 299.562 1.14278 -4.89846 0
M  V30 3317 H 299.262 -0.32188 -5.86718 0
M  V30 3318 H 300.786 0.586454 -6.07777 0
M  V30 3319 H 302.2 -1.61081 -5.50205 0
M  V30 3320 H 300.597 -2.40199 -5.49931 0
M  V30 3321 H 301.667 -2.59134 -4.09851 0
M  V30 3322 N 303.011 1.40521 -0.713556 0
M  V30 3323 C 303.974 2.29098 -0.0684347 0
M  V30 3324 C 304.974 1.45268 0.689472 0
M  V30 3325 O 306.164 1.66205 0.521677 0
M  V30 3326 C 303.296 3.28446 0.913024 0
M  V30 3327 H 304.489 2.87645 -0.84855 0
M  V30 3328 H 302.042 1.48809 -0.47809 0
M  V30 3329 H 302.777 2.74913 1.72027 0
M  V30 3330 H 302.562 3.90327 0.372472 0
M  V30 3331 H 304.052 3.94777 1.36165 0
M  V30 3332 N 304.489 0.459591 1.5075 0
M  V30 3333 C 305.437 -0.354678 2.2988 0
M  V30 3334 C 306.431 -1.00086 1.36672 0
M  V30 3335 O 307.637 -0.933277 1.53915 0
M  V30 3336 H 304.012 -0.13321 0.740107 0
M  V30 3337 H 305.983 0.333269 2.96533 0
M  V30 3338 C 304.732 -1.43073 3.169 0
M  V30 3339 H 304.055 -0.942882 3.88523 0
M  V30 3340 H 305.495 -1.97328 3.75284 0
M  V30 3341 C 303.954 -2.42633 2.33732 0
M  V30 3342 O 304.484 -3.47658 2.01238 0
M  V30 3343 N 302.69 -2.14066 1.9653 0
M  V30 3344 H 302.237 -1.28685 2.23155 0
M  V30 3345 H 302.195 -2.80917 1.41185 0
M  V30 3346 N 305.967 -1.56429 0.191757 0
M  V30 3347 C 307.214 -1.97485 -0.447891 0
M  V30 3348 C 307.542 -1.07852 -1.61859 0
M  V30 3349 O 306.797 -0.116903 -1.95351 0
M  V30 3350 C 307.096 -3.44449 -0.953384 0
M  V30 3351 C 306.762 -4.50781 0.103586 0
M  V30 3352 C 305.424 -4.79584 0.394023 0
M  V30 3353 C 307.776 -5.1471 0.819946 0
M  V30 3354 C 305.104 -5.69607 1.40585 0
M  V30 3355 C 307.456 -6.05827 1.8209 0
M  V30 3356 C 306.12 -6.32987 2.11857 0
M  V30 3357 H 305.39 -0.722648 -0.163895 0
M  V30 3358 H 308.037 -1.89322 0.28802 0
M  V30 3359 H 306.342 -3.49666 -1.76751 0
M  V30 3360 H 308.039 -3.73569 -1.45765 0
M  V30 3361 H 304.629 -4.28394 -0.132951 0
M  V30 3362 H 308.813 -4.92552 0.608789 0
M  V30 3363 H 304.069 -5.88926 1.64243 0
M  V30 3364 H 308.243 -6.54424 2.38123 0
M  V30 3365 H 305.87 -7.02544 2.90407 0
M  V30 3366 N 307.445 0.0818655 -1.57387 0
M  V30 3367 C 308.691 0.784074 -1.8703 0
M  V30 3368 C 309.024 1.77729 -0.782689 0
M  V30 3369 O 308.299 1.93384 0.208051 0
M  V30 3370 C 308.582 1.50105 -3.27323 0
M  V30 3371 C 308.435 0.524925 -4.46727 0
M  V30 3372 C 309.754 2.44843 -3.65705 0
M  V30 3373 H 306.873 0.283582 -0.680257 0
M  V30 3374 H 309.515 0.0474352 -1.89941 0
M  V30 3375 H 307.665 2.12897 -3.24972 0
M  V30 3376 H 309.337 -0.0970111 -4.61198 0
M  V30 3377 H 307.58 -0.160606 -4.33503 0
M  V30 3378 H 308.251 1.064 -5.41648 0
M  V30 3379 H 310.727 1.92135 -3.69085 0
M  V30 3380 H 309.603 2.92018 -4.64776 0
M  V30 3381 H 309.864 3.29197 -2.95096 0
M  V30 3382 N 308.923 1.53595 0.353017 0
M  V30 3383 C 310.148 1.7462 1.11904 0
M  V30 3384 C 310.573 0.479721 1.8188 0
M  V30 3385 O 309.931 -0.567066 1.72204 0
M  V30 3386 C 309.979 2.92029 2.11545 0
M  V30 3387 O 309.083 2.61516 3.18878 0
M  V30 3388 H 308.424 0.579531 0.324099 0
M  V30 3389 H 310.954 2.00525 0.406301 0
M  V30 3390 H 310.964 3.18551 2.5493 0
M  V30 3391 H 309.639 3.83888 1.60008 0
M  V30 3392 H 308.216 2.45852 2.80377 0
M  V30 3393 N 310.401 -0.613514 1.45168 0
M  V30 3394 C 311.626 -1.40437 1.52618 0
M  V30 3395 C 312.051 -1.87438 0.157707 0
M  V30 3396 O 311.409 -1.59791 -0.856537 0
M  V30 3397 C 311.457 -2.58894 2.51011 0
M  V30 3398 O 310.561 -3.59326 2.02382 0
M  V30 3399 H 309.902 -0.419506 0.514695 0
M  V30 3400 H 312.432 -0.747215 1.90467 0
M  V30 3401 H 312.442 -3.06214 2.69624 0
M  V30 3402 H 311.117 -2.24032 3.50403 0
M  V30 3403 H 309.694 -3.18695 1.93618 0
M  V30 3404 N 311.879 -1.3236 -0.855495 0
M  V30 3405 C 312.811 -1.17052 -1.97057 0
M  V30 3406 C 313.824 -0.10574 -1.62456 0
M  V30 3407 O 315.013 -0.354619 -1.74942 0
M  V30 3408 C 312.113 -0.769305 -3.30053 0
M  V30 3409 C 311.286 -1.9222 -3.929 0
M  V30 3410 C 310.345 -1.50466 -5.04228 0
M  V30 3411 O 309.371 -2.21655 -5.24269 0
M  V30 3412 N 310.573 -0.400209 -5.79119 0
M  V30 3413 H 313.338 -2.13103 -2.1073 0
M  V30 3414 H 310.899 -1.24885 -1.0303 0
M  V30 3415 H 312.891 -0.472407 -4.01933 0
M  V30 3416 H 311.461 0.100025 -3.1244 0
M  V30 3417 H 310.681 -2.38563 -3.13817 0
M  V30 3418 H 311.969 -2.69403 -4.31624 0
M  V30 3419 H 311.367 0.192319 -5.65373 0
M  V30 3420 H 309.924 -0.162912 -6.51596 0
M  V30 3421 N 313.357 1.07166 -1.15556 0
M  V30 3422 C 314.585 1.83514 -0.955519 0
M  V30 3423 C 315 1.82163 0.49621 0
M  V30 3424 O 314.357 1.23441 1.34419 0
M  V30 3425 C 314.408 3.30515 -1.46432 0
M  V30 3426 O 314.129 3.31937 -2.85918 0
M  V30 3427 C 315.63 4.23625 -1.30603 0
M  V30 3428 H 312.85 0.578926 -0.339244 0
M  V30 3429 H 315.394 1.35265 -1.53374 0
M  V30 3430 H 313.549 3.76106 -0.928584 0
M  V30 3431 H 313.963 4.23794 -3.09029 0
M  V30 3432 H 315.437 5.24831 -1.71047 0
M  V30 3433 H 315.914 4.38485 -0.250441 0
M  V30 3434 H 316.52 3.83871 -1.83094 0
M  V30 3435 N 314.835 0.952656 1.25548 0
M  V30 3436 C 316.06 0.623025 1.97821 0
M  V30 3437 C 316.485 -0.7976 1.70352 0
M  V30 3438 O 315.843 -1.53905 0.958283 0
M  V30 3439 C 315.891 0.885532 3.49558 0
M  V30 3440 O 314.995 -0.0366641 4.12384 0
M  V30 3441 H 314.336 0.237082 0.620232 0
M  V30 3442 H 316.866 1.27871 1.59719 0
M  V30 3443 H 316.876 0.811009 3.99858 0
M  V30 3444 H 315.551 1.92094 3.6888 0
M  V30 3445 H 314.128 0.0898954 3.72792 0
M  V30 3446 N 316.313 -1.40141 0.720998 0
M  V30 3447 C 317.538 -2.05618 0.271258 0
M  V30 3448 C 317.963 -1.53978 -1.08039 0
M  V30 3449 O 317.321 -0.677463 -1.68167 0
M  V30 3450 C 317.369 -3.59609 0.267197 0
M  V30 3451 O 316.473 -4.05526 -0.749814 0
M  V30 3452 H 315.814 -0.651904 0.126162 0
M  V30 3453 H 318.344 -1.79439 0.982997 0
M  V30 3454 H 318.354 -4.0786 0.106744 0
M  V30 3455 H 317.029 -3.96559 1.25354 0
M  V30 3456 H 315.606 -3.68722 -0.556644 0
M  V30 3457 N 317.792 -0.46758 -1.50504 0
M  V30 3458 C 318.722 0.318381 -2.31319 0
M  V30 3459 C 319.703 0.993564 -1.38066 0
M  V30 3460 O 320.888 0.991411 -1.66987 0
M  V30 3461 C 318.018 1.40275 -3.17711 0
M  V30 3462 C 316.972 0.849373 -4.19487 0
M  V30 3463 C 316.298 2.03177 -4.94594 0
M  V30 3464 C 317.598 -0.136942 -5.2212 0
M  V30 3465 H 319.292 -0.356106 -2.97275 0
M  V30 3466 H 316.838 -0.172703 -1.42961 0
M  V30 3467 H 318.791 1.96004 -3.73042 0
M  V30 3468 H 317.515 2.10596 -2.49634 0
M  V30 3469 H 316.174 0.314076 -3.65252 0
M  V30 3470 H 315.822 2.72187 -4.22993 0
M  V30 3471 H 315.522 1.66774 -5.63436 0
M  V30 3472 H 317.046 2.59403 -5.52759 0
M  V30 3473 H 318.46 0.331056 -5.72343 0
M  V30 3474 H 316.857 -0.41507 -5.98663 0
M  V30 3475 H 317.927 -1.06398 -4.73083 0
M  V30 3476 N 319.27 1.56325 -0.20005 0
M  V30 3477 C 320.18 2.22931 0.730668 0
M  V30 3478 C 321.196 1.22997 1.23076 0
M  V30 3479 O 322.372 1.55748 1.27689 0
M  V30 3480 C 319.437 2.87948 1.93098 0
M  V30 3481 C 318.498 4.03166 1.47497 0
M  V30 3482 C 317.731 4.65073 2.61807 0
M  V30 3483 O 317.954 4.25913 3.79413 0
M  V30 3484 O 316.888 5.54452 2.34237 0
M  V30 3485 H 320.714 3.03084 0.193391 0
M  V30 3486 H 318.299 1.49371 0.0294621 0
M  V30 3487 H 320.181 3.29063 2.6324 0
M  V30 3488 H 318.856 2.10771 2.45677 0
M  V30 3489 H 317.763 3.66664 0.742201 0
M  V30 3490 H 319.096 4.82022 0.995796 0
M  V30 3491 N 320.748 -0.0735177 1.57428 0
M  V30 3492 C 321.681 -1.11932 1.98863 0
M  V30 3493 C 322.659 -1.37666 0.865266 0
M  V30 3494 O 323.843 -1.51068 1.12742 0
M  V30 3495 C 320.97 -2.46403 2.32386 0
M  V30 3496 C 320.016 -2.36815 3.54713 0
M  V30 3497 S 320.849 -1.76392 5.05614 0
M  V30 3498 C 322.005 -3.12444 5.42337 0
M  V30 3499 H 322.238 -0.766212 2.87257 0
M  V30 3500 H 319.771 -0.281987 1.51803 0
M  V30 3501 H 321.729 -3.23755 2.52375 0
M  V30 3502 H 320.39 -2.78876 1.44524 0
M  V30 3503 H 319.583 -3.35977 3.7568 0
M  V30 3504 H 319.185 -1.67598 3.34345 0
M  V30 3505 H 321.477 -4.08753 5.40303 0
M  V30 3506 H 322.42 -2.96258 6.43146 0
M  V30 3507 H 322.828 -3.1297 4.69798 0
M  V30 3508 N 322.226 -1.5378 -0.344866 0
M  V30 3509 C 323.158 -1.77988 -1.44406 0
M  V30 3510 C 324.171 -0.661138 -1.48771 0
M  V30 3511 O 325.36 -0.937842 -1.51877 0
M  V30 3512 C 322.46 -1.86345 -2.8307 0
M  V30 3513 C 321.633 -3.16256 -3.0216 0
M  V30 3514 C 320.692 -3.15588 -4.21059 0
M  V30 3515 O 319.718 -3.89314 -4.15239 0
M  V30 3516 N 320.92 -2.37864 -5.29529 0
M  V30 3517 H 323.685 -2.72839 -1.24012 0
M  V30 3518 H 321.246 -1.52814 -0.534737 0
M  V30 3519 H 323.238 -1.83351 -3.60783 0
M  V30 3520 H 321.808 -0.986858 -2.96614 0
M  V30 3521 H 321.028 -3.32385 -2.11929 0
M  V30 3522 H 322.316 -4.0207 -3.11797 0
M  V30 3523 H 321.714 -1.77514 -5.37127 0
M  V30 3524 H 320.271 -2.40668 -6.05741 0
M  V30 3525 N 323.704 0.605807 -1.45491 0
M  V30 3526 C 324.667 1.69836 -1.5391 0
M  V30 3527 C 325.667 1.55261 -0.418424 0
M  V30 3528 O 326.857 1.60296 -0.681965 0
M  V30 3529 C 323.989 3.09117 -1.43734 0
M  V30 3530 H 325.182 1.63738 -2.51257 0
M  V30 3531 H 322.735 0.821689 -1.32959 0
M  V30 3532 H 323.47 3.20791 -0.475788 0
M  V30 3533 H 323.255 3.21104 -2.25021 0
M  V30 3534 H 324.745 3.88696 -1.52661 0
M  V30 3535 N 325.182 1.32811 0.848464 0
M  V30 3536 C 326.145 1.22194 1.9391 0
M  V30 3537 C 327.145 0.143404 1.60159 0
M  V30 3538 O 328.335 0.394253 1.6968 0
M  V30 3539 C 325.467 0.88067 3.29328 0
M  V30 3540 H 326.66 2.19127 2.04752 0
M  V30 3541 H 324.213 1.16731 1.0394 0
M  V30 3542 H 324.948 -0.0865776 3.24184 0
M  V30 3543 H 324.733 1.66052 3.55203 0
M  V30 3544 H 326.223 0.830871 4.09251 0
M  V30 3545 N 326.66 -1.06551 1.16123 0
M  V30 3546 C 327.59 -2.15935 0.88851 0
M  V30 3547 C 328.571 -1.69306 -0.164135 0
M  V30 3548 O 329.756 -1.94193 -0.0167857 0
M  V30 3549 C 326.886 -3.45149 0.385942 0
M  V30 3550 C 325.84 -4.05271 1.3762 0
M  V30 3551 C 325.166 -5.29664 0.732137 0
M  V30 3552 C 326.466 -4.44355 2.74493 0
M  V30 3553 H 328.16 -2.39006 1.80323 0
M  V30 3554 H 325.706 -1.14866 0.868435 0
M  V30 3555 H 327.659 -4.21004 0.182647 0
M  V30 3556 H 326.383 -3.21689 -0.564274 0
M  V30 3557 H 325.042 -3.3147 1.56599 0
M  V30 3558 H 324.69 -5.02499 -0.224483 0
M  V30 3559 H 324.39 -5.70848 1.39307 0
M  V30 3560 H 325.914 -6.08218 0.538802 0
M  V30 3561 H 327.328 -5.11303 2.59311 0
M  V30 3562 H 325.725 -4.96515 3.37035 0
M  V30 3563 H 326.795 -3.55339 3.29943 0
M  V30 3564 N 328.138 -0.959301 -1.25041 0
M  V30 3565 C 329.071 -0.427418 -2.24161 0
M  V30 3566 C 330.049 0.493837 -1.54919 0
M  V30 3567 O 331.233 0.427144 -1.83597 0
M  V30 3568 C 328.36 0.383893 -3.36517 0
M  V30 3569 C 327.406 -0.478431 -4.23808 0
M  V30 3570 S 328.239 -1.91353 -5.00144 0
M  V30 3571 C 329.395 -1.11077 -6.15965 0
M  V30 3572 H 329.628 -1.26743 -2.6893 0
M  V30 3573 H 327.161 -0.763714 -1.34189 0
M  V30 3574 H 329.119 0.846039 -4.01687 0
M  V30 3575 H 327.78 1.19878 -2.90324 0
M  V30 3576 H 326.973 0.14406 -5.03794 0
M  V30 3577 H 326.575 -0.87597 -3.63597 0
M  V30 3578 H 328.867 -0.361699 -6.76534 0
M  V30 3579 H 329.81 -1.88472 -6.82557 0
M  V30 3580 H 330.218 -0.638843 -5.60873 0
M  V30 3581 N 329.616 1.39756 -0.72842 0
M  V30 3582 C 330.841 2.05472 -0.282159 0
M  V30 3583 C 331.266 1.54549 1.07221 0
M  V30 3584 O 330.624 0.686372 1.67805 0
M  V30 3585 C 330.672 3.59462 -0.286264 0
M  V30 3586 O 329.776 4.05918 0.728298 0
M  V30 3587 H 329.117 0.651226 -0.129618 0
M  V30 3588 H 331.647 1.78915 -0.992499 0
M  V30 3589 H 331.657 4.07798 -0.128373 0
M  V30 3590 H 330.332 3.95889 -1.27456 0
M  V30 3591 H 328.909 3.69012 0.537081 0
M  V30 3592 N 331.094 0.475555 1.50254 0
M  V30 3593 C 332.51 0.12997 1.5907 0
M  V30 3594 C 332.71 -1.36385 1.48328 0
M  V30 3595 O 331.766 -2.13754 1.34407 0
M  V30 3596 C 333.079 0.684139 2.92814 0
M  V30 3597 C 334.627 0.647965 3.0622 0
M  V30 3598 C 335.102 1.17975 4.42545 0
M  V30 3599 N 336.593 1.13936 4.48969 0
M  V30 3600 C 337.328 1.52129 5.52851 0
M  V30 3601 N 336.824 1.97793 6.63965 0
M  V30 3602 N 338.617 1.43704 5.4342 0
M  V30 3603 H 330.768 1.44706 1.55479 0
M  V30 3604 H 333.031 0.598691 0.735033 0
M  V30 3605 H 332.737 1.73079 3.06164 0
M  V30 3606 H 332.611 0.130204 3.76975 0
M  V30 3607 H 334.998 -0.38979 2.92514 0
M  V30 3608 H 335.079 1.23876 2.23805 0
M  V30 3609 H 334.723 2.21616 4.57 0
M  V30 3610 H 334.653 0.565138 5.23559 0
M  V30 3611 H 337.144 0.804488 3.69238 0
M  V30 3612 H 337.457 2.25072 7.39299 0
M  V30 3613 H 335.802 2.01749 6.65073 0
M  V30 3614 H 338.993 1.07867 4.55502 0
M  V30 3615 H 339.166 1.73794 6.24259 0
M  V30 3616 N 332.573 -1.56217 0.208337 0
M  V30 3617 C 333.505 -2.1695 -0.739276 0
M  V30 3618 C 334.518 -1.13492 -1.1672 0
M  V30 3619 O 335.707 -1.40529 -1.10063 0
M  V30 3620 C 332.807 -2.72755 -2.01142 0
M  V30 3621 C 331.98 -4.0125 -1.74118 0
M  V30 3622 C 331.039 -4.41749 -2.85909 0
M  V30 3623 O 330.065 -5.08912 -2.54946 0
M  V30 3624 N 331.267 -4.06342 -4.14568 0
M  V30 3625 H 334.032 -2.98893 -0.219837 0
M  V30 3626 H 331.593 -1.61878 0.0268445 0
M  V30 3627 H 333.585 -2.96826 -2.75094 0
M  V30 3628 H 332.155 -1.95191 -2.4417 0
M  V30 3629 H 331.375 -3.85173 -0.838775 0
M  V30 3630 H 332.663 -4.851 -1.53477 0
M  V30 3631 H 332.061 -3.52345 -4.42571 0
M  V30 3632 H 330.618 -4.35335 -4.85105 0
M  V30 3633 N 334.051 0.0651679 -1.57465 0
M  V30 3634 C 334.984 1.10876 -1.99453 0
M  V30 3635 C 335.962 1.37205 -0.872555 0
M  V30 3636 O 337.146 1.50468 -1.13542 0
M  V30 3637 C 334.273 2.45167 -2.3369 0
M  V30 3638 C 333.319 2.3493 -3.55964 0
M  V30 3639 S 334.152 1.73708 -5.06543 0
M  V30 3640 C 335.308 3.09563 -5.43987 0
M  V30 3641 H 335.541 0.750967 -2.87659 0
M  V30 3642 H 333.074 0.273933 -1.51951 0
M  V30 3643 H 335.032 3.22412 -2.54088 0
M  V30 3644 H 333.693 2.78105 -1.46001 0
M  V30 3645 H 332.886 3.3398 -3.77457 0
M  V30 3646 H 332.488 1.65823 -3.3523 0
M  V30 3647 H 334.78 4.05882 -5.42463 0
M  V30 3648 H 335.723 2.92843 -6.44708 0
M  V30 3649 H 336.131 3.10474 -4.71451 0
M  V30 3650 N 335.529 1.53961 0.336706 0
M  V30 3651 C 336.806 1.62171 1.09361 0
M  V30 3652 C 337.186 0.447263 2.06307 0
M  V30 3653 O 336.534 -0.559802 2.21537 0
M  V30 3654 C 336.744 2.98565 1.80721 0
M  V30 3655 C 338.092 3.54157 2.34218 0
M  V30 3656 O 339.116 3.00784 1.90807 0
M  V30 3657 O 337.975 4.47528 3.13657 0
M  V30 3658 H 335.069 0.6562 0.503319 0
M  V30 3659 H 337.615 1.66307 0.33765 0
M  V30 3660 H 336.387 3.75482 1.10132 0
M  V30 3661 H 336.01 2.9805 2.63158 0
M  V30 3662 N 337.007 -0.598083 1.45811 0
M  V30 3663 C 337.97 -1.69018 1.54808 0
M  V30 3664 C 338.97 -1.55037 0.426652 0
M  V30 3665 O 340.16 -1.59932 0.690456 0
M  V30 3666 C 337.292 -3.0835 1.45371 0
M  V30 3667 H 338.485 -1.62403 2.52121 0
M  V30 3668 H 336.038 -0.814626 1.33392 0
M  V30 3669 H 336.773 -3.20534 0.492793 0
M  V30 3670 H 336.558 -3.19907 2.26721 0
M  V30 3671 H 338.048 -3.8788 1.54721 0
M  V30 3672 N 338.485 -1.33259 -0.841409 0
M  V30 3673 C 339.71 -1.2775 -1.63385 0
M  V30 3674 C 340.135 0.149188 -1.87507 0
M  V30 3675 O 339.493 1.10498 -1.43736 0
M  V30 3676 C 339.541 -2.05571 -2.96265 0
M  V30 3677 O 338.645 -1.41257 -3.87453 0
M  V30 3678 H 337.986 -0.439627 -0.497618 0
M  V30 3679 H 340.516 -1.75782 -1.04699 0
M  V30 3680 H 340.526 -2.16241 -3.45982 0
M  V30 3681 H 339.201 -3.09309 -2.7803 0
M  V30 3682 H 337.778 -1.39217 -3.45938 0
M  V30 3683 N 339.963 1.05934 -1.16686 0
M  V30 3684 C 341.21 1.788 -0.950622 0
M  V30 3685 C 341.538 1.87384 0.521305 0
M  V30 3686 O 340.793 1.36438 1.40297 0
M  V30 3687 C 341.092 3.23105 -1.52767 0
M  V30 3688 C 340.758 3.34594 -3.02254 0
M  V30 3689 C 339.42 3.37437 -3.43059 0
M  V30 3690 C 341.772 3.36219 -3.98254 0
M  V30 3691 C 339.1 3.39525 -4.78477 0
M  V30 3692 C 341.452 3.39845 -5.33562 0
M  V30 3693 C 340.116 3.40971 -5.73842 0
M  V30 3694 H 339.386 0.654275 -0.347857 0
M  V30 3695 H 342.033 1.24555 -1.45459 0
M  V30 3696 H 340.338 3.80227 -0.94524 0
M  V30 3697 H 342.035 3.7809 -1.336 0
M  V30 3698 H 338.625 3.3309 -2.6972 0
M  V30 3699 H 342.809 3.33231 -3.67792 0
M  V30 3700 H 338.065 3.38703 -5.09009 0
M  V30 3701 H 342.239 3.4005 -6.07733 0
M  V30 3702 H 339.866 3.42342 -6.78753 0
M  V30 3703 N 341.441 0.965919 1.2453 0
M  V30 3704 C 342.389 0.486506 2.27455 0
M  V30 3705 C 343.383 -0.449041 1.6334 0
M  V30 3706 O 344.589 -0.324527 1.7705 0
M  V30 3707 H 340.964 0.138857 0.739069 0
M  V30 3708 H 342.935 1.3666 2.65267 0
M  V30 3709 C 341.684 -0.209481 3.47068 0
M  V30 3710 H 341.007 0.50129 3.96645 0
M  V30 3711 H 342.447 -0.508775 4.20936 0
M  V30 3712 C 340.906 -1.43586 3.0477 0
M  V30 3713 O 341.436 -2.53299 3.11773 0
M  V30 3714 N 339.642 -1.30126 2.59838 0
M  V30 3715 H 339.189 -0.408583 2.54339 0
M  V30 3716 H 339.147 -2.12294 2.31902 0
M  V30 3717 N 342.919 -1.39368 0.735821 0
M  V30 3718 C 344.165 -2.01272 0.293439 0
M  V30 3719 C 344.52 -1.57344 -1.10728 0
M  V30 3720 O 343.813 -0.792744 -1.74431 0
M  V30 3721 C 344.007 -3.5583 0.334651 0
M  V30 3722 C 343.836 -4.14764 1.73784 0
M  V30 3723 C 342.606 -4.47315 2.35026 0
M  V30 3724 C 344.804 -4.38246 2.69157 0
M  V30 3725 N 342.786 -4.91756 3.6749 0
M  V30 3726 C 344.157 -4.849 3.86357 0
M  V30 3727 C 346.212 -4.20315 2.66908 0
M  V30 3728 C 344.915 -5.15505 5.01645 0
M  V30 3729 C 346.941 -4.52033 3.8134 0
M  V30 3730 C 346.303 -4.98895 4.97276 0
M  V30 3731 H 342.402 -0.766756 0.153652 0
M  V30 3732 H 344.986 -1.69276 0.961967 0
M  V30 3733 H 343.157 -3.87212 -0.303527 0
M  V30 3734 H 344.889 -4.04503 -0.126358 0
M  V30 3735 H 341.644 -4.35143 1.86943 0
M  V30 3736 H 342.068 -5.18333 4.35499 0
M  V30 3737 H 346.71 -3.83287 1.78468 0
M  V30 3738 H 344.428 -5.51437 5.90713 0
M  V30 3739 H 348.014 -4.39781 3.80899 0
M  V30 3740 H 346.894 -5.22973 5.84353 0
M  V30 3741 N 344.397 -0.483516 -1.5 0
M  V30 3742 C 345.307 0.309172 -2.32554 0
M  V30 3743 C 346.323 0.984159 -1.43493 0
M  V30 3744 O 347.499 0.969399 -1.76535 0
M  V30 3745 C 344.564 1.36979 -3.18493 0
M  V30 3746 C 343.625 0.710095 -4.23387 0
M  V30 3747 C 342.858 1.72018 -5.05218 0
M  V30 3748 O 343.081 2.94813 -4.88305 0
M  V30 3749 O 342.015 1.28515 -5.8802 0
M  V30 3750 H 345.841 -0.366064 -3.01486 0
M  V30 3751 H 343.426 -0.24514 -1.47375 0
M  V30 3752 H 345.308 1.98385 -3.71781 0
M  V30 3753 H 343.983 2.02828 -2.52275 0
M  V30 3754 H 342.89 0.0567539 -3.74057 0
M  V30 3755 H 344.223 0.0943557 -4.9211 0
M  V30 3756 N 345.875 1.56104 -0.216619 0
M  V30 3757 C 346.838 2.18819 0.681962 0
M  V30 3758 C 347.838 1.14866 1.12528 0
M  V30 3759 O 349.028 1.40128 1.03488 0
M  V30 3760 C 346.16 2.80756 1.93362 0
M  V30 3761 H 347.353 2.99595 0.135254 0
M  V30 3762 H 344.906 1.56265 0.0330003 0
M  V30 3763 H 345.641 2.03837 2.52232 0
M  V30 3764 H 345.426 3.56876 1.62426 0
M  V30 3765 H 346.916 3.28844 2.57393 0
M  V30 3766 N 347.353 -0.0568162 1.57498 0
M  V30 3767 C 348.283 -1.06593 2.0775 0
M  V30 3768 C 349.264 -1.39448 0.974082 0
M  V30 3769 O 350.449 -1.48815 1.24771 0
M  V30 3770 C 347.579 -2.37509 2.5339 0
M  V30 3771 C 346.533 -2.1897 3.67745 0
M  V30 3772 C 345.859 -3.55402 3.99492 0
M  V30 3773 C 347.159 -1.59859 4.97235 0
M  V30 3774 H 348.853 -0.647706 2.9231 0
M  V30 3775 H 346.399 -0.310116 1.40621 0
M  V30 3776 H 348.352 -3.08409 2.87162 0
M  V30 3777 H 347.076 -2.8134 1.65878 0
M  V30 3778 H 345.735 -1.50508 3.3428 0
M  V30 3779 H 345.383 -3.9683 3.09088 0
M  V30 3780 H 345.083 -3.43831 4.76502 0
M  V30 3781 H 346.607 -4.27708 4.35773 0
M  V30 3782 H 348.021 -2.20642 5.29141 0
M  V30 3783 H 346.418 -1.58942 5.78669 0
M  V30 3784 H 347.488 -0.561506 4.81638 0
M  V30 3785 N 348.832 -1.54138 -0.328536 0
M  V30 3786 C 350.248 -1.44736 -0.672574 0
M  V30 3787 C 350.448 -0.616217 -1.91846 0
M  V30 3788 O 349.504 -0.113067 -2.52247 0
M  V30 3789 C 350.817 -2.884 -0.851217 0
M  V30 3790 C 352.365 -2.98271 -0.948877 0
M  V30 3791 C 352.84 -4.43074 -1.15973 0
M  V30 3792 N 354.331 -4.46665 -1.22658 0
M  V30 3793 C 355.066 -5.55857 -1.40751 0
M  V30 3794 N 354.562 -6.75026 -1.5592 0
M  V30 3795 N 356.355 -5.43495 -1.4342 0
M  V30 3796 H 348.506 -2.06661 0.490421 0
M  V30 3797 H 350.769 -0.934812 0.157579 0
M  V30 3798 H 350.475 -3.51699 -0.00704236 0
M  V30 3799 H 350.349 -3.34225 -1.74853 0
M  V30 3800 H 352.736 -2.35102 -1.78356 0
M  V30 3801 H 352.817 -2.55785 -0.0281435 0
M  V30 3802 H 352.461 -5.06827 -0.329915 0
M  V30 3803 H 352.391 -4.83165 -2.09426 0
M  V30 3804 H 354.882 -3.60797 -1.124 0
M  V30 3805 H 355.195 -7.54004 -1.69404 0
M  V30 3806 H 353.54 -6.77944 -1.53027 0
M  V30 3807 H 356.731 -4.49349 -1.31162 0
M  V30 3808 H 356.904 -6.28649 -1.57178 0
M  V30 3809 N 350.31 0.590341 -1.46126 0
M  V30 3810 C 351.556 1.34874 -1.52252 0
M  V30 3811 C 351.911 1.91658 -0.168807 0
M  V30 3812 O 351.204 1.73093 0.821556 0
M  V30 3813 C 351.398 2.5032 -2.55097 0
M  V30 3814 C 351.227 2.04843 -4.00337 0
M  V30 3815 C 349.997 1.90213 -4.68132 0
M  V30 3816 C 352.195 1.61267 -4.88362 0
M  V30 3817 N 350.177 1.38727 -5.9802 0
M  V30 3818 C 351.548 1.21319 -6.08015 0
M  V30 3819 C 353.603 1.49015 -4.75078 0
M  V30 3820 C 352.306 0.7034 -7.15852 0
M  V30 3821 C 354.332 0.994401 -5.8298 0
M  V30 3822 C 353.694 0.604659 -7.018 0
M  V30 3823 H 349.793 0.486803 -0.612002 0
M  V30 3824 H 352.377 0.673007 -1.82698 0
M  V30 3825 H 350.548 3.15466 -2.26574 0
M  V30 3826 H 352.28 3.1725 -2.51266 0
M  V30 3827 H 349.035 2.11927 -4.23537 0
M  V30 3828 H 349.459 1.15168 -6.67132 0
M  V30 3829 H 354.101 1.77768 -3.83612 0
M  V30 3830 H 351.819 0.403446 -8.07092 0
M  V30 3831 H 355.405 0.903621 -5.7474 0
M  V30 3832 H 354.285 0.226963 -7.83871 0
M  V30 3833 N 351.788 1.33704 0.83433 0
M  V30 3834 C 352.718 1.26967 1.95963 0
M  V30 3835 C 353.699 0.149337 1.69443 0
M  V30 3836 O 354.884 0.339852 1.91203 0
M  V30 3837 C 352.014 1.01275 3.32206 0
M  V30 3838 C 350.968 2.09652 3.73136 0
M  V30 3839 C 350.294 1.69166 5.07235 0
M  V30 3840 C 351.594 3.51372 3.86439 0
M  V30 3841 H 353.288 2.2112 2.01857 0
M  V30 3842 H 350.834 1.06447 0.969793 0
M  V30 3843 H 352.787 0.952106 4.10503 0
M  V30 3844 H 351.511 0.0356203 3.26581 0
M  V30 3845 H 350.17 2.14766 2.97104 0
M  V30 3846 H 349.818 0.701437 4.98085 0
M  V30 3847 H 349.518 2.41694 5.35591 0
M  V30 3848 H 351.042 1.64576 5.88003 0
M  V30 3849 H 352.456 3.48734 4.55036 0
M  V30 3850 H 350.853 4.22425 4.26236 0
M  V30 3851 H 351.923 3.89546 2.88759 0
M  V30 3852 N 353.266 -1.05314 1.17247 0
M  V30 3853 C 354.682 -1.30452 0.919473 0
M  V30 3854 C 354.882 -1.9703 -0.42209 0
M  V30 3855 O 353.938 -2.24311 -1.15935 0
M  V30 3856 C 355.251 -2.17551 2.07586 0
M  V30 3857 C 356.799 -2.30937 2.11275 0
M  V30 3858 C 357.274 -3.21396 3.26296 0
M  V30 3859 N 358.765 -3.28981 3.26076 0
M  V30 3860 C 359.5 -3.99095 4.11716 0
M  V30 3861 N 358.996 -4.71648 5.07465 0
M  V30 3862 N 360.789 -3.95247 3.9967 0
M  V30 3863 H 352.94 -0.604988 2.03602 0
M  V30 3864 H 355.203 -0.329368 0.888944 0
M  V30 3865 H 354.909 -1.75921 3.0454 0
M  V30 3866 H 354.783 -3.18182 2.02584 0
M  V30 3867 H 357.17 -2.71809 1.14907 0
M  V30 3868 H 357.251 -1.2994 2.20339 0
M  V30 3869 H 356.895 -2.81238 4.22927 0
M  V30 3870 H 356.825 -4.22395 3.14467 0
M  V30 3871 H 359.316 -2.77286 2.5675 0
M  V30 3872 H 359.629 -5.22705 5.6921 0
M  V30 3873 H 357.974 -4.70594 5.11435 0
M  V30 3874 H 361.165 -3.37691 3.24164 0
M  V30 3875 H 361.338 -4.4962 4.66632 0
M  V30 3876 N 354.744 -0.972509 -1.24016 0
M  V30 3877 C 356.021 -0.553733 -1.87598 0
M  V30 3878 C 356.401 0.969158 -1.87538 0
M  V30 3879 O 355.749 1.84255 -1.35139 0
M  V30 3880 C 355.959 -1.15076 -3.29482 0
M  V30 3881 C 357.307 -1.23862 -4.06132 0
M  V30 3882 O 358.331 -1.10363 -3.38672 0
M  V30 3883 O 357.19 -1.45252 -5.26844 0
M  V30 3884 H 354.284 -0.185331 -0.805966 0
M  V30 3885 H 356.83 -1.06709 -1.31952 0
M  V30 3886 H 355.602 -2.19333 -3.2405 0
M  V30 3887 H 355.225 -0.621746 -3.92709 0
M  V30 3888 N 356.222 1.38976 -0.743202 0
M  V30 3889 C 357.152 2.33171 -0.123873 0
M  V30 3890 C 358.133 1.54336 0.71516 0
M  V30 3891 O 359.318 1.82696 0.658467 0
M  V30 3892 C 356.448 3.38474 0.777978 0
M  V30 3893 C 355.402 4.27979 0.0424758 0
M  V30 3894 C 354.728 5.2405 1.06189 0
M  V30 3895 C 356.028 5.10155 -1.1198 0
M  V30 3896 H 357.722 2.85213 -0.910709 0
M  V30 3897 H 355.268 1.37133 -0.439388 0
M  V30 3898 H 357.221 4.03328 1.22084 0
M  V30 3899 H 355.945 2.84891 1.59702 0
M  V30 3900 H 354.604 3.64616 -0.380853 0
M  V30 3901 H 354.252 4.66758 1.87472 0
M  V30 3902 H 353.952 5.84785 0.574485 0
M  V30 3903 H 355.476 5.9178 1.50428 0
M  V30 3904 H 356.89 5.68307 -0.75499 0
M  V30 3905 H 355.287 5.80073 -1.53738 0
M  V30 3906 H 356.357 4.44504 -1.93764 0
M  V30 3907 N 357.7 0.491464 1.49741 0
M  V30 3908 C 358.946 -0.0485431 2.03342 0
M  V30 3909 C 359.301 -1.35566 1.36527 0
M  V30 3910 O 358.594 -1.85262 0.488729 0
M  V30 3911 C 358.788 -0.267329 3.56399 0
M  V30 3912 C 358.617 1.01703 4.38049 0
M  V30 3913 C 357.387 1.56614 4.80417 0
M  V30 3914 C 359.585 1.91782 4.77204 0
M  V30 3915 N 357.567 2.7974 5.4646 0
M  V30 3916 C 358.938 2.99489 5.42868 0
M  V30 3917 C 360.993 1.92575 4.5915 0
M  V30 3918 C 359.696 4.08005 5.92389 0
M  V30 3919 C 361.722 3.0006 5.09626 0
M  V30 3920 C 361.084 4.06485 5.75282 0
M  V30 3921 H 357.183 0.0227779 0.781668 0
M  V30 3922 H 359.767 0.664204 1.8302 0
M  V30 3923 H 357.938 -0.949126 3.76625 0
M  V30 3924 H 359.67 -0.803492 3.96644 0
M  V30 3925 H 356.425 1.11256 4.60347 0
M  V30 3926 H 356.849 3.42323 5.84075 0
M  V30 3927 H 361.491 1.11605 4.07804 0
M  V30 3928 H 359.209 4.89779 6.42761 0
M  V30 3929 H 362.795 3.01681 4.97473 0
M  V30 3930 H 361.675 4.88287 6.13633 0
M  V30 3931 N 359.178 -1.55987 0.224894 0
M  V30 3932 C 360.589 -1.84553 -0.282345 0
M  V30 3933 C 360.94 -1.14634 -1.59227 0
M  V30 3934 O 360.065 -0.417155 -2.12341 0
M  V30 3935 C 360.66 -3.348 -0.519062 0
M  V30 3936 C 359.219 -3.63671 -0.970604 0
M  V30 3937 C 358.366 -2.77277 -0.0355261 0
M  V30 3938 H 361.317 -1.52245 0.448006 0
M  V30 3939 H 361.338 -3.55187 -1.36463 0
M  V30 3940 H 360.85 -3.8566 0.43449 0
M  V30 3941 H 358.951 -3.1827 -1.9374 0
M  V30 3942 H 359.064 -4.71631 -0.842698 0
M  V30 3943 H 357.428 -2.48846 -0.542927 0
M  V30 3944 H 358.211 -3.30937 0.913003 0
M  V30 3945 N 360.656 0.0484629 -1.57525 0
M  V30 3946 C 361.606 1.06246 -2.01732 0
M  V30 3947 C 362.59 1.33155 -0.903245 0
M  V30 3948 O 363.782 1.33065 -1.16717 0
M  V30 3949 C 360.911 2.36943 -2.48421 0
M  V30 3950 C 359.997 2.13208 -3.6661 0
M  V30 3951 N 360.388 1.5947 -4.80003 0
M  V30 3952 C 358.686 2.43581 -3.7361 0
M  V30 3953 C 359.387 1.51092 -5.61735 0
M  V30 3954 N 358.363 1.9797 -5.0627 0
M  V30 3955 H 362.165 0.640675 -2.86832 0
M  V30 3956 H 359.679 0.255134 -1.60383 0
M  V30 3957 H 361.676 3.10374 -2.78341 0
M  V30 3958 H 360.336 2.79818 -1.64718 0
M  V30 3959 H 361.347 1.28008 -5.01831 0
M  V30 3960 H 358.024 2.89662 -3.00669 0
M  V30 3961 H 359.414 1.10199 -6.62801 0
M  V30 3962 N 362.134 1.5431 0.320358 0
M  V30 3963 C 363.081 1.83918 1.39438 0
M  V30 3964 C 364.051 0.686525 1.51248 0
M  V30 3965 O 365.236 0.933269 1.66417 0
M  V30 3966 C 362.376 2.075 2.75749 0
M  V30 3967 C 361.489 3.35177 2.72544 0
M  V30 3968 C 360.624 3.48704 4.00723 0
M  V30 3969 C 359.663 4.70244 3.91838 0
M  V30 3970 N 358.8 4.80679 5.11754 0
M  V30 3971 H 363.64 2.75544 1.13489 0
M  V30 3972 H 361.177 1.36459 0.549309 0
M  V30 3973 H 363.135 2.19166 3.54996 0
M  V30 3974 H 361.765 1.19163 3 0
M  V30 3975 H 360.817 3.32233 1.85271 0
M  V30 3976 H 362.129 4.24534 2.61863 0
M  V30 3977 H 361.283 3.59928 4.88402 0
M  V30 3978 H 360.022 2.57445 4.14214 0
M  V30 3979 H 359.027 4.59072 3.02544 0
M  V30 3980 H 360.252 5.6289 3.7991 0
M  V30 3981 H 358.198 3.92337 5.25745 0
M  V30 3982 H 358.115 5.64007 5.0342 0
M  V30 3983 H 359.383 4.96239 6.01138 0
M  V30 3984 N 363.613 -0.582584 1.46437 0
M  V30 3985 C 364.543 -1.70187 1.59871 0
M  V30 3986 C 365.524 -1.64066 0.449042 0
M  V30 3987 O 366.709 -1.82081 0.6753 0
M  V30 3988 C 363.839 -3.08827 1.58881 0
M  V30 3989 C 362.793 -3.29779 2.72819 0
M  V30 3990 C 362.119 -4.68947 2.5689 0
M  V30 3991 C 363.419 -3.17601 4.1464 0
M  V30 3992 H 365.113 -1.592 2.53566 0
M  V30 3993 H 362.659 -0.764472 1.22032 0
M  V30 3994 H 364.612 -3.86951 1.66873 0
M  V30 3995 H 363.336 -3.20713 0.617306 0
M  V30 3996 H 361.995 -2.54054 2.64296 0
M  V30 3997 H 361.643 -4.77599 1.57823 0
M  V30 3998 H 361.343 -4.83919 3.33312 0
M  V30 3999 H 362.867 -5.4924 2.66773 0
M  V30 4000 H 364.281 -3.8557 4.24274 0
M  V30 4001 H 362.678 -3.44094 4.9165 0
M  V30 4002 H 363.748 -2.14681 4.34788 0
M  V30 4003 N 365.091 -1.34144 -0.827227 0
M  V30 4004 C 366.021 -1.28005 -1.95287 0
M  V30 4005 C 367.002 -0.158321 -1.69362 0
M  V30 4006 O 368.187 -0.349987 -1.9102 0
M  V30 4007 C 365.317 -1.03036 -3.31664 0
M  V30 4008 C 364.271 -2.11628 -3.72019 0
M  V30 4009 C 363.597 -1.71854 -5.0633 0
M  V30 4010 C 364.897 -3.53417 -3.8457 0
M  V30 4011 H 366.591 -2.22187 -2.00682 0
M  V30 4012 H 364.137 -1.0696 -0.964135 0
M  V30 4013 H 366.09 -0.973863 -4.09993 0
M  V30 4014 H 364.814 -0.0529391 -3.26557 0
M  V30 4015 H 363.473 -2.16339 -2.95961 0
M  V30 4016 H 363.121 -0.727841 -4.97706 0
M  V30 4017 H 362.821 -2.44531 -5.34302 0
M  V30 4018 H 364.345 -1.67692 -5.87122 0
M  V30 4019 H 365.759 -3.51142 -4.5318 0
M  V30 4020 H 364.156 -4.24679 -4.2399 0
M  V30 4021 H 365.226 -3.91072 -2.86689 0
M  V30 4022 N 366.569 1.04691 -1.17803 0
M  V30 4023 C 367.815 1.78045 -0.970969 0
M  V30 4024 C 368.148 1.87686 0.498751 0
M  V30 4025 O 367.423 1.38035 1.37027 0
M  V30 4026 C 367.706 3.2166 -1.61884 0
M  V30 4027 C 367.559 3.20001 -3.161 0
M  V30 4028 C 368.878 4.1962 -1.3269 0
M  V30 4029 H 365.997 0.64633 -0.354155 0
M  V30 4030 H 368.639 1.22333 -1.45378 0
M  V30 4031 H 366.789 3.69232 -1.20831 0
M  V30 4032 H 368.461 2.80467 -3.66246 0
M  V30 4033 H 366.704 2.58203 -3.48588 0
M  V30 4034 H 367.375 4.21386 -3.56564 0
M  V30 4035 H 369.851 3.80567 -1.68249 0
M  V30 4036 H 368.727 5.18339 -1.80599 0
M  V30 4037 H 368.988 4.414 -0.248622 0
M  V30 4038 N 368.047 0.979072 1.23499 0
M  V30 4039 C 368.994 0.517904 2.24914 0
M  V30 4040 C 369.964 -0.442525 1.60097 0
M  V30 4041 O 371.149 -0.350365 1.87556 0
M  V30 4042 C 368.289 -0.174813 3.44657 0
M  V30 4043 C 367.402 0.825721 4.24035 0
M  V30 4044 C 366.537 0.107946 5.3109 0
M  V30 4045 C 365.576 1.09778 6.02175 0
M  V30 4046 N 364.713 0.40925 7.00906 0
M  V30 4047 H 369.553 1.38751 2.63727 0
M  V30 4048 H 367.09 0.695303 1.2963 0
M  V30 4049 H 369.048 -0.593233 4.12961 0
M  V30 4050 H 367.678 -1.0083 3.06648 0
M  V30 4051 H 366.73 1.36253 3.55161 0
M  V30 4052 H 368.042 1.58005 4.73113 0
M  V30 4053 H 367.196 -0.367904 6.05583 0
M  V30 4054 H 365.935 -0.678994 4.8295 0
M  V30 4055 H 364.94 1.5844 5.26476 0
M  V30 4056 H 366.165 1.88536 6.52404 0
M  V30 4057 H 364.111 -0.358506 6.5502 0
M  V30 4058 H 364.028 1.10226 7.47921 0
M  V30 4059 H 365.296 -0.0442557 7.79487 0
M  V30 4060 N 369.525 -1.3858 0.750561 0
M  V30 4061 C 370.773 -1.99789 0.30477 0
M  V30 4062 C 371.094 -1.59874 -1.11649 0
M  V30 4063 O 370.364 -0.85417 -1.76297 0
M  V30 4064 H 368.944 -0.738902 0.109694 0
M  V30 4065 H 371.606 -1.69391 0.963983 0
M  V30 4066 H 370.702 -3.09952 0.365499 0
M  V30 4067 N 371.003 -0.499398 -1.49478 0
M  V30 4068 C 371.933 0.269244 -2.31943 0
M  V30 4069 C 372.914 0.964054 -1.40143 0
M  V30 4070 O 374.099 0.955767 -1.69052 0
M  V30 4071 C 371.229 1.33504 -3.20615 0
M  V30 4072 C 370.183 0.760202 -4.21195 0
M  V30 4073 C 369.509 1.9264 -4.98792 0
M  V30 4074 C 370.809 -0.247661 -5.21712 0
M  V30 4075 H 372.503 -0.419082 -2.96452 0
M  V30 4076 H 370.049 -0.202988 -1.42562 0
M  V30 4077 H 372.002 1.88048 -3.77115 0
M  V30 4078 H 370.726 2.05253 -2.54045 0
M  V30 4079 H 369.385 0.23653 -3.65836 0
M  V30 4080 H 369.033 2.63154 -4.28671 0
M  V30 4081 H 368.733 1.54785 -5.66847 0
M  V30 4082 H 370.257 2.4762 -5.58137 0
M  V30 4083 H 371.671 0.209579 -5.72917 0
M  V30 4084 H 370.068 -0.541962 -5.97648 0
M  V30 4085 H 371.138 -1.16409 -4.7072 0
M  V30 4086 N 372.481 1.55866 -0.233164 0
M  V30 4087 C 373.411 2.23783 0.666599 0
M  V30 4088 C 374.392 1.21343 1.19205 0
M  V30 4089 O 375.577 1.4996 1.23392 0
M  V30 4090 C 372.707 2.92671 1.86978 0
M  V30 4091 C 371.661 4.01682 1.47768 0
M  V30 4092 C 370.987 4.57926 2.76058 0
M  V30 4093 C 372.287 5.18126 0.658993 0
M  V30 4094 H 373.981 2.99232 0.100306 0
M  V30 4095 H 371.527 1.43924 0.046804 0
M  V30 4096 H 373.48 3.3888 2.50476 0
M  V30 4097 H 372.204 2.14688 2.46123 0
M  V30 4098 H 370.863 3.56222 0.866106 0
M  V30 4099 H 370.511 3.76659 3.33372 0
M  V30 4100 H 370.211 5.31505 2.50552 0
M  V30 4101 H 371.735 5.06859 3.40479 0
M  V30 4102 H 373.149 5.60644 1.19795 0
M  V30 4103 H 371.546 5.98009 0.500552 0
M  V30 4104 H 372.616 4.83763 -0.331856 0
M  V30 4105 N 373.959 -0.0401083 1.57549 0
M  V30 4106 C 375.184 -0.748931 1.93406 0
M  V30 4107 C 375.609 -1.68686 0.832274 0
M  V30 4108 O 374.967 -1.80047 -0.212818 0
M  V30 4109 C 375.015 -1.4916 3.28304 0
M  V30 4110 O 374.119 -2.6042 3.19774 0
M  V30 4111 H 373.46 -0.202212 0.63246 0
M  V30 4112 H 375.99 0.00112086 2.046 0
M  V30 4113 H 376 -1.86395 3.62934 0
M  V30 4114 H 374.675 -0.80364 4.08062 0
M  V30 4115 H 373.252 -2.25808 2.96758 0
M  V30 4116 N 375.437 -1.54477 -0.31217 0
M  V30 4117 C 376.4 -1.83923 -1.36766 0
M  V30 4118 C 377.4 -0.711563 -1.44199 0
M  V30 4119 O 378.59 -0.979866 -1.44029 0
M  V30 4120 C 375.722 -2.0095 -2.75376 0
M  V30 4121 H 376.915 -2.78239 -1.11906 0
M  V30 4122 H 374.468 -1.46369 -0.548257 0
M  V30 4123 H 375.203 -1.08883 -3.05475 0
M  V30 4124 H 374.988 -2.83018 -2.71373 0
M  V30 4125 H 376.478 -2.2514 -3.51713 0
M  V30 4126 N 376.915 0.57481 -1.46744 0
M  V30 4127 C 377.825 1.711 -1.60505 0
M  V30 4128 C 378.841 1.67008 -0.488307 0
M  V30 4129 O 380.017 1.86774 -0.753495 0
M  V30 4130 C 377.082 3.07608 -1.59932 0
M  V30 4131 C 376.143 3.22904 -2.82898 0
M  V30 4132 C 375.376 4.529 -2.82343 0
M  V30 4133 O 375.599 5.37278 -1.91542 0
M  V30 4134 O 374.533 4.71611 -3.73987 0
M  V30 4135 H 378.359 1.62436 -2.56609 0
M  V30 4136 H 375.944 0.742779 -1.29627 0
M  V30 4137 H 377.826 3.88877 -1.62336 0
M  V30 4138 H 376.501 3.16692 -0.669898 0
M  V30 4139 H 375.408 2.41099 -2.86046 0
M  V30 4140 H 376.741 3.18715 -3.75076 0
M  V30 4141 N 378.394 1.34581 0.820102 0
M  V30 4142 C 379.671 1.17675 1.56244 0
M  V30 4143 C 380.051 -0.249541 2.0962 0
M  V30 4144 O 379.399 -1.25125 1.91196 0
M  V30 4145 C 379.609 2.23364 2.6816 0
M  V30 4146 C 380.957 2.58485 3.36854 0
M  V30 4147 O 381.981 2.22175 2.78418 0
M  V30 4148 O 380.84 3.20868 4.42386 0
M  V30 4149 H 377.934 0.456333 0.689702 0
M  V30 4150 H 380.48 1.46222 0.861231 0
M  V30 4151 H 379.252 3.19087 2.26493 0
M  V30 4152 H 378.875 1.96009 3.45928 0
M  V30 4153 N 379.872 -1.04064 1.18357 0
M  V30 4154 C 380.835 -2.10243 0.912707 0
M  V30 4155 C 381.835 -1.60477 -0.101928 0
M  V30 4156 O 383.025 -1.73703 0.131517 0
M  V30 4157 C 380.157 -3.38893 0.369387 0
M  V30 4158 H 381.35 -2.35706 1.85426 0
M  V30 4159 H 378.903 -1.20489 0.995594 0
M  V30 4160 H 379.638 -3.19094 -0.578776 0
M  V30 4161 H 379.423 -3.76331 1.1008 0
M  V30 4162 H 380.913 -4.17128 0.198575 0
M  V30 4163 N 381.35 -0.985608 -1.22978 0
M  V30 4164 C 382.627 -0.573599 -1.87001 0
M  V30 4165 C 383.007 0.949213 -1.88555 0
M  V30 4166 O 382.355 1.82811 -1.37086 0
M  V30 4167 C 382.565 -1.18564 -3.28243 0
M  V30 4168 C 383.913 -1.28163 -4.04796 0
M  V30 4169 O 384.937 -1.13949 -3.37482 0
M  V30 4170 O 383.796 -1.50832 -5.25273 0
M  V30 4171 H 380.89 -0.193868 -0.803955 0
M  V30 4172 H 383.436 -1.08102 -1.30813 0
M  V30 4173 H 382.208 -2.22758 -3.21706 0
M  V30 4174 H 381.831 -0.663363 -3.92027 0
M  V30 4175 N 382.828 1.3818 -0.7579 0
M  V30 4176 C 384.244 1.5353 -0.435972 0
M  V30 4177 C 384.444 1.71961 1.05032 0
M  V30 4178 O 383.5 1.73307 1.83633 0
M  V30 4179 C 384.813 2.73989 -1.23898 0
M  V30 4180 C 386.361 2.87841 -1.22949 0
M  V30 4181 C 386.836 4.11266 -2.01554 0
M  V30 4182 N 388.327 4.18352 -1.98837 0
M  V30 4183 C 389.062 5.12856 -2.5645 0
M  V30 4184 N 388.558 6.13005 -3.22794 0
M  V30 4185 N 390.351 5.05238 -2.46356 0
M  V30 4186 H 382.502 1.24467 -1.7211 0
M  V30 4187 H 384.765 0.604982 -0.729864 0
M  V30 4188 H 384.471 2.66789 -2.29165 0
M  V30 4189 H 384.345 3.67294 -0.858764 0
M  V30 4190 H 386.732 2.9452 -0.184854 0
M  V30 4191 H 386.813 1.95534 -1.64924 0
M  V30 4192 H 386.457 4.05349 -3.06031 0
M  V30 4193 H 386.387 5.02661 -1.5697 0
M  V30 4194 H 388.878 3.46628 -1.50524 0
M  V30 4195 H 389.191 6.81619 -3.64165 0
M  V30 4196 H 387.536 6.13325 -3.2689 0
M  V30 4197 H 390.727 4.25938 -1.9415 0
M  V30 4198 H 390.9 5.78707 -2.91552 0
M  V30 4199 N 384.306 0.507319 1.49211 0
M  V30 4200 C 385.546 -0.0332372 2.04373 0
M  V30 4201 C 385.91 -1.33694 1.37804 0
M  V30 4202 O 387.111 -1.96213 1.83722 0
M  V30 4203 C 385.382 -0.17599 3.56966 0
M  V30 4204 S 386.941 -0.669882 4.33657 0
M  V30 4205 H 383.759 0.00123603 0.710999 0
M  V30 4206 H 386.361 0.682725 1.83191 0
M  V30 4207 H 385.065 0.778053 4.02957 0
M  V30 4208 H 384.596 -0.917005 3.82563 0
M  V30 4209 H 386.611 -1.93806 4.56786 0
M  V30 4210 N 385.784 -1.5574 0.241426 0
M  V30 4211 C 387.033 -1.97986 -0.385295 0
M  V30 4212 C 387.346 -1.13267 -1.59468 0
M  V30 4213 O 388.552 -1.45501 -2.2922 0
M  V30 4214 C 387.008 -3.52275 -0.736884 0
M  V30 4215 C 386.616 -4.45726 0.450796 0
M  V30 4216 C 388.36 -4.03189 -1.3281 0
M  V30 4217 C 386.267 -5.91352 0.0756662 0
M  V30 4218 H 385.197 -0.739386 -0.147731 0
M  V30 4219 H 387.848 -1.80308 0.340779 0
M  V30 4220 H 386.23 -3.65628 -1.52094 0
M  V30 4221 H 387.404 -4.44131 1.22819 0
M  V30 4222 H 385.719 -4.05264 0.956573 0
M  V30 4223 H 388.316 -5.09505 -1.62201 0
M  V30 4224 H 388.659 -3.50212 -2.25071 0
M  V30 4225 H 389.192 -3.93141 -0.607069 0
M  V30 4226 H 385.931 -6.48354 0.965272 0
M  V30 4227 H 385.451 -5.96095 -0.665635 0
M  V30 4228 H 387.13 -6.46084 -0.344075 0
M  V30 4229 N 387.262 0.0317525 -1.57568 0
M  V30 4230 C 388.225 1.01783 -2.0536 0
M  V30 4231 C 389.225 1.29203 -0.957253 0
M  V30 4232 O 390.415 1.24251 -1.22095 0
M  V30 4233 C 387.547 2.35137 -2.46827 0
M  V30 4234 H 388.74 0.605062 -2.93733 0
M  V30 4235 H 386.293 0.278514 -1.53799 0
M  V30 4236 H 387.028 2.81168 -1.61602 0
M  V30 4237 H 386.813 2.16566 -3.26866 0
M  V30 4238 H 388.303 3.05938 -2.84239 0
M  V30 4239 N 388.74 1.54641 0.303973 0
M  V30 4240 C 389.65 1.88439 1.39743 0
M  V30 4241 C 390.666 0.778239 1.55626 0
M  V30 4242 O 391.842 1.07442 1.70347 0
M  V30 4243 C 388.907 2.12212 2.74166 0
M  V30 4244 C 387.968 3.35936 2.67293 0
M  V30 4245 C 387.201 3.58566 3.95305 0
M  V30 4246 O 387.424 2.84263 4.9452 0
M  V30 4247 O 386.358 4.52078 3.97378 0
M  V30 4248 H 390.184 2.81458 1.14083 0
M  V30 4249 H 387.769 1.40793 0.499768 0
M  V30 4250 H 389.651 2.29067 3.53704 0
M  V30 4251 H 388.326 1.22379 2.99675 0
M  V30 4252 H 387.233 3.24448 1.86237 0
M  V30 4253 H 388.566 4.2589 2.46736 0
M  V30 4254 N 390.218 -0.567019 1.47046 0
M  V30 4255 C 391.466 -1.322 1.52864 0
M  V30 4256 C 391.787 -1.94088 0.188388 0
M  V30 4257 O 391.057 -1.7941 -0.786693 0
M  V30 4258 H 389.637 -0.490894 0.563056 0
M  V30 4259 H 392.299 -0.662879 1.83281 0
M  V30 4260 H 391.395 -2.12062 2.2899 0
M  V30 4261 N 391.696 -1.35014 -0.812953 0
M  V30 4262 C 392.659 -1.27292 -1.90602 0
M  V30 4263 C 393.659 -0.185817 -1.59723 0
M  V30 4264 O 394.849 -0.439102 -1.68575 0
M  V30 4265 C 391.981 -0.967676 -3.26877 0
M  V30 4266 H 393.174 -2.24479 -1.9887 0
M  V30 4267 H 390.727 -1.19446 -1.00808 0
M  V30 4268 H 391.462 0.0005954 -3.243 0
M  V30 4269 H 391.247 -1.75412 -3.50675 0
M  V30 4270 H 392.737 -0.939085 -4.06904 0
M  V30 4271 N 393.175 1.03435 -1.18907 0
M  V30 4272 C 394.452 1.73778 -0.89781 0
M  V30 4273 C 394.832 2.02458 0.597832 0
M  V30 4274 O 394.18 1.67482 1.55441 0
M  V30 4275 C 394.39 3.01845 -1.75187 0
M  V30 4276 C 395.738 3.7546 -1.9828 0
M  V30 4277 O 396.762 3.11759 -1.72293 0
M  V30 4278 O 395.621 4.89966 -2.42065 0
M  V30 4279 H 392.715 0.75651 -0.334098 0
M  V30 4280 H 395.261 1.09444 -1.29693 0
M  V30 4281 H 394.033 2.76836 -2.76545 0
M  V30 4282 H 393.656 3.73919 -1.35167 0
M  V30 4283 N 394.653 0.992116 1.22453 0
M  V30 4284 C 395.901 0.666215 1.90804 0
M  V30 4285 C 396.222 -0.804152 1.77647 0
M  V30 4286 O 395.492 -1.57629 1.16318 0
M  V30 4287 H 394.072 0.243423 0.706225 0
M  V30 4288 H 396.734 1.25845 1.48825 0
M  V30 4289 H 395.83 0.928069 2.97982 0
M  V30 4290 N 396.131 -1.37776 0.765217 0
M  V30 4291 C 397.377 -2.00145 0.327072 0
M  V30 4292 C 397.71 -1.60607 -1.09175 0
M  V30 4293 O 396.985 -0.849127 -1.74986 0
M  V30 4294 C 397.268 -3.57109 0.46319 0
M  V30 4295 C 397.121 -4.06576 1.92395 0
M  V30 4296 C 398.44 -4.39888 -0.136473 0
M  V30 4297 H 395.559 -0.727113 0.120316 0
M  V30 4298 H 398.201 -1.63549 0.967039 0
M  V30 4299 H 396.351 -3.88414 -0.0816358 0
M  V30 4300 H 398.023 -3.85864 2.52798 0
M  V30 4301 H 396.266 -3.59011 2.43503 0
M  V30 4302 H 396.937 -5.15639 1.97028 0
M  V30 4303 H 399.413 -4.14803 0.328317 0
M  V30 4304 H 398.289 -5.48899 -0.0110582 0
M  V30 4305 H 398.55 -4.24758 -1.22608 0
M  V30 4306 N 397.609 -0.515225 -1.4894 0
M  V30 4307 C 398.858 0.0261361 -2.01683 0
M  V30 4308 C 399.171 1.36719 -1.39883 0
M  V30 4309 O 400.377 1.99606 -1.84037 0
M  V30 4310 C 398.833 0.0970111 -3.59769 0
M  V30 4311 C 398.441 -1.23825 -4.30548 0
M  V30 4312 C 400.185 0.587981 -4.20408 0
M  V30 4313 C 398.092 -1.12877 -5.80528 0
M  V30 4314 H 397.022 0.0135398 -0.753878 0
M  V30 4315 H 399.673 -0.656787 -1.71343 0
M  V30 4316 H 398.055 0.844694 -3.86886 0
M  V30 4317 H 399.229 -2.00034 -4.15118 0
M  V30 4318 H 397.544 -1.66379 -3.81716 0
M  V30 4319 H 400.141 0.68763 -5.3026 0
M  V30 4320 H 400.484 1.59026 -3.84729 0
M  V30 4321 H 401.017 -0.103582 -3.97665 0
M  V30 4322 H 397.756 -2.10575 -6.20756 0
M  V30 4323 H 397.276 -0.407799 -5.98412 0
M  V30 4324 H 398.955 -0.813332 -6.41868 0
M  V30 4325 N 399.087 1.5561 -0.249682 0
M  V30 4326 C 400.017 2.24477 0.642826 0
M  V30 4327 C 400.998 1.22601 1.17911 0
M  V30 4328 O 402.183 1.5126 1.21795 0
M  V30 4329 C 399.313 2.94638 1.83863 0
M  V30 4330 C 398.267 4.03227 1.435 0
M  V30 4331 C 397.593 4.60828 2.71186 0
M  V30 4332 C 398.893 5.18796 0.604002 0
M  V30 4333 H 400.587 2.99321 0.0685625 0
M  V30 4334 H 398.133 1.43965 0.0315363 0
M  V30 4335 H 400.086 3.41517 2.46868 0
M  V30 4336 H 398.81 2.17287 2.43832 0
M  V30 4337 H 397.469 3.57121 0.828275 0
M  V30 4338 H 397.117 3.80174 3.29358 0
M  V30 4339 H 396.817 5.34132 2.44901 0
M  V30 4340 H 398.341 5.10442 3.35084 0
M  V30 4341 H 399.755 5.61883 1.13842 0
M  V30 4342 H 398.152 5.98506 0.437097 0
M  V30 4343 H 399.222 4.83384 -0.383147 0
M  V30 4344 N 400.565 -0.0233959 1.57583 0
M  V30 4345 C 401.79 -0.728376 1.94189 0
M  V30 4346 C 402.215 -1.67793 0.850119 0
M  V30 4347 O 401.573 -1.80262 -0.19371 0
M  V30 4348 C 401.621 -1.45669 3.29868 0
M  V30 4349 O 400.725 -2.57013 3.22518 0
M  V30 4350 H 400.066 -0.195493 0.63457 0
M  V30 4351 H 402.596 0.0228214 2.04587 0
M  V30 4352 H 402.606 -1.82535 3.6489 0
M  V30 4353 H 401.281 -0.760314 4.08891 0
M  V30 4354 H 399.858 -2.22648 2.99136 0
M  V30 4355 N 402.043 -1.548 -0.295768 0
M  V30 4356 C 402.991 -1.86874 -1.38495 0
M  V30 4357 C 403.985 -0.742938 -1.52239 0
M  V30 4358 O 405.191 -0.926999 -1.54294 0
M  V30 4359 H 401.566 -0.592786 -0.462719 0
M  V30 4360 H 403.537 -2.77904 -1.08682 0
M  V30 4361 C 402.286 -2.13732 -2.74252 0
M  V30 4362 H 401.609 -2.99835 -2.64459 0
M  V30 4363 H 403.049 -2.4011 -3.49461 0
M  V30 4364 C 401.508 -0.937539 -3.23592 0
M  V30 4365 O 402.038 -0.160665 -4.01379 0
M  V30 4366 N 400.244 -0.741478 -2.80981 0
M  V30 4367 H 399.791 -1.37489 -2.1784 0
M  V30 4368 H 399.749 0.0597103 -3.14343 0
M  V30 4369 N 403.521 0.559213 -1.47345 0
M  V30 4370 C 404.471 1.66192 -1.5609 0
M  V30 4371 C 405.455 1.55323 -0.419957 0
M  V30 4372 O 406.647 1.63839 -0.669762 0
M  V30 4373 C 403.776 3.0497 -1.57634 0
M  V30 4374 C 402.862 3.2105 -2.77106 0
M  V30 4375 N 403.253 3.07203 -4.01821 0
M  V30 4376 C 401.551 3.52046 -2.73825 0
M  V30 4377 C 402.252 3.25919 -4.81821 0
M  V30 4378 N 401.228 3.52161 -4.14106 0
M  V30 4379 H 405.03 1.54052 -2.5029 0
M  V30 4380 H 402.544 0.763914 -1.43311 0
M  V30 4381 H 404.541 3.84142 -1.61989 0
M  V30 4382 H 403.201 3.18224 -0.645281 0
M  V30 4383 H 404.212 2.84572 -4.32711 0
M  V30 4384 H 400.889 3.71839 -1.89848 0
M  V30 4385 H 402.279 3.20198 -5.90697 0
M  V30 4386 N 404.999 1.35443 0.805782 0
M  V30 4387 C 406.247 1.28507 1.55982 0
M  V30 4388 C 406.568 -0.140046 1.94496 0
M  V30 4389 O 405.838 -1.07666 1.63661 0
M  V30 4390 H 404.418 0.472676 0.578434 0
M  V30 4391 H 407.08 1.69555 0.961098 0
M  V30 4392 H 406.176 1.90148 2.47488 0
M  V30 4393 N 406.477 -1.02803 1.19454 0
M  V30 4394 C 407.725 -1.75869 0.995722 0
M  V30 4395 C 408.046 -1.89138 -0.474543 0
M  V30 4396 O 407.316 -1.42558 -1.34366 0
M  V30 4397 H 405.896 -0.651511 0.365435 0
M  V30 4398 H 408.558 -1.24004 1.50363 0
M  V30 4399 H 407.654 -2.76661 1.44447 0
M  V30 4400 N 407.956 -0.998596 -1.21925 0
M  V30 4401 C 409.372 -0.710303 -1.42923 0
M  V30 4402 C 409.572 0.716933 -1.88314 0
M  V30 4403 O 408.628 1.48712 -2.04062 0
M  V30 4404 C 409.941 -1.72072 -2.466 0
M  V30 4405 C 411.489 -1.73681 -2.60392 0
M  V30 4406 C 411.964 -2.73601 -3.67296 0
M  V30 4407 N 413.455 -2.7223 -3.7476 0
M  V30 4408 C 414.19 -3.46206 -4.57087 0
M  V30 4409 N 413.686 -4.29802 -5.43362 0
M  V30 4410 N 415.479 -3.34886 -4.51451 0
M  V30 4411 H 407.63 -1.92028 -0.9077 0
M  V30 4412 H 409.893 -0.828487 -0.460775 0
M  V30 4413 H 409.599 -2.74231 -2.20206 0
M  V30 4414 H 409.473 -1.51818 -3.45299 0
M  V30 4415 H 411.86 -0.722173 -2.86127 0
M  V30 4416 H 411.941 -1.98005 -1.61949 0
M  V30 4417 H 411.585 -3.75217 -3.42307 0
M  V30 4418 H 411.515 -2.46545 -4.65321 0
M  V30 4419 H 414.006 -2.11576 -3.1312 0
M  V30 4420 H 414.319 -4.83061 -6.03218 0
M  V30 4421 H 412.664 -4.33887 -5.42925 0
M  V30 4422 H 415.855 -2.69015 -3.83078 0
M  V30 4423 H 416.028 -3.92796 -5.15379 0
M  V30 4424 N 409.434 1.37368 -0.772513 0
M  V30 4425 C 410.366 2.28899 -0.117502 0
M  V30 4426 C 411.379 1.4867 0.663405 0
M  V30 4427 O 412.568 1.71314 0.501372 0
M  V30 4428 C 409.668 3.2788 0.857192 0
M  V30 4429 C 408.841 4.37207 0.129938 0
M  V30 4430 C 407.9 5.16257 1.01811 0
M  V30 4431 O 406.926 5.67159 0.481601 0
M  V30 4432 N 408.128 5.31058 2.3443 0
M  V30 4433 H 410.893 2.85752 -0.903662 0
M  V30 4434 H 408.454 1.49353 -0.62493 0
M  V30 4435 H 410.446 3.77647 1.45482 0
M  V30 4436 H 409.016 2.7179 1.54432 0
M  V30 4437 H 408.236 3.88827 -0.648605 0
M  V30 4438 H 409.524 5.07434 -0.372559 0
M  V30 4439 H 408.922 4.91287 2.80452 0
M  V30 4440 H 407.479 5.84131 2.89197 0
M  V30 4441 N 410.912 0.523116 1.48665 0
M  V30 4442 C 411.842 -0.23231 2.32342 0
M  V30 4443 C 412.823 -0.941637 1.41659 0
M  V30 4444 O 414.008 -0.928751 1.70552 0
M  V30 4445 C 411.138 -1.28387 3.22698 0
M  V30 4446 C 410.092 -0.693098 4.22351 0
M  V30 4447 C 409.418 -1.8468 5.01794 0
M  V30 4448 C 410.718 0.33063 5.21252 0
M  V30 4449 H 412.412 0.466192 2.95748 0
M  V30 4450 H 409.958 0.225643 1.42221 0
M  V30 4451 H 411.911 -1.82024 3.80059 0
M  V30 4452 H 410.635 -2.01186 2.57278 0
M  V30 4453 H 409.294 -0.178299 3.66166 0
M  V30 4454 H 408.942 -2.56301 4.32804 0
M  V30 4455 H 408.642 -1.45747 5.69238 0
M  V30 4456 H 410.166 -2.38709 5.62006 0
M  V30 4457 H 411.58 -0.118407 5.73178 0
M  V30 4458 H 409.977 0.636974 5.9671 0
M  V30 4459 H 411.047 1.23883 4.68808 0
M  V30 4460 N 412.39 -1.55475 0.257931 0
M  V30 4461 C 413.667 -1.91155 -0.414629 0
M  V30 4462 C 414.047 -1.18008 -1.75035 0
M  V30 4463 O 413.395 -0.301193 -2.26506 0
M  V30 4464 C 413.605 -3.44283 -0.571859 0
M  V30 4465 C 414.953 -4.15744 -0.862678 0
M  V30 4466 O 415.977 -3.50083 -0.657314 0
M  V30 4467 O 414.836 -5.31909 -1.2544 0
M  V30 4468 H 411.93 -0.796016 -0.22425 0
M  V30 4469 H 414.476 -1.66976 0.302814 0
M  V30 4470 H 413.248 -3.89558 0.368844 0
M  V30 4471 H 412.871 -3.7436 -1.33943 0
M  V30 4472 N 413.868 0.0150385 -1.57593 0
M  V30 4473 C 415.108 0.70768 -1.91758 0
M  V30 4474 C 415.472 1.71764 -0.857974 0
M  V30 4475 O 416.673 2.45956 -1.0844 0
M  V30 4476 C 414.944 1.34736 -3.3103 0
M  V30 4477 S 416.503 2.06721 -3.87056 0
M  V30 4478 H 413.321 0.234119 -0.671349 0
M  V30 4479 H 415.923 -0.0380373 -1.95463 0
M  V30 4480 H 414.627 0.59926 -4.06001 0
M  V30 4481 H 414.158 2.13133 -3.30663 0
M  V30 4482 H 416.173 3.34047 -3.66915 0
M  V30 4483 N 415.346 1.54954 0.287554 0
M  V30 4484 C 416.309 1.86076 1.33823 0
M  V30 4485 C 417.309 0.734414 1.43049 0
M  V30 4486 O 418.499 1.00266 1.42452 0
M  V30 4487 C 415.631 2.05305 2.72144 0
M  V30 4488 H 416.824 2.79984 1.07465 0
M  V30 4489 H 414.377 1.47223 0.524902 0
M  V30 4490 H 415.112 1.1373 3.03704 0
M  V30 4491 H 414.897 2.873 2.66836 0
M  V30 4492 H 416.387 2.30706 3.48087 0
M  V30 4493 N 416.824 -0.551391 1.4764 0
M  V30 4494 C 418.073 -1.30467 1.53822 0
M  V30 4495 C 418.386 -1.94495 0.207661 0
M  V30 4496 O 419.592 -2.71099 0.147533 0
M  V30 4497 C 418.048 -2.36616 2.71184 0
M  V30 4498 C 417.656 -1.78754 4.10793 0
M  V30 4499 C 419.4 -3.13088 2.86663 0
M  V30 4500 C 417.307 -2.82717 5.19447 0
M  V30 4501 H 416.237 -0.490584 0.572576 0
M  V30 4502 H 418.888 -0.58494 1.73927 0
M  V30 4503 H 417.27 -3.11529 2.4447 0
M  V30 4504 H 418.444 -1.10173 4.47435 0
M  V30 4505 H 416.759 -1.14846 4.00249 0
M  V30 4506 H 419.356 -3.90736 3.65007 0
M  V30 4507 H 419.699 -3.67635 1.95321 0
M  V30 4508 H 420.232 -2.45288 3.13175 0
M  V30 4509 H 416.971 -2.33018 6.12685 0
M  V30 4510 H 416.491 -3.4969 4.87316 0
M  V30 4511 H 418.17 -3.46102 5.46646 0
M  V30 4512 N 418.302 -1.35869 -0.798587 0
M  V30 4513 C 419.527 -1.32883 -1.59238 0
M  V30 4514 C 419.952 0.0894587 -1.87887 0
M  V30 4515 O 419.31 1.05869 -1.47178 0
M  V30 4516 C 419.358 -2.14892 -2.89575 0
M  V30 4517 O 418.462 -1.53512 -3.82763 0
M  V30 4518 H 417.803 -0.455236 -0.48338 0
M  V30 4519 H 420.333 -1.79024 -0.990539 0
M  V30 4520 H 420.343 -2.27139 -3.38928 0
M  V30 4521 H 419.018 -3.17998 -2.68049 0
M  V30 4522 H 417.595 -1.50153 -3.41334 0
M  V30 4523 N 419.78 1.02168 -1.19998 0
M  V30 4524 C 421.191 1.57135 -1.00825 0
M  V30 4525 C 421.542 1.91276 0.436818 0
M  V30 4526 O 420.667 1.71679 1.3174 0
M  V30 4527 C 421.262 2.85514 -1.82393 0
M  V30 4528 C 419.821 3.37027 -1.67601 0
M  V30 4529 C 418.968 2.10388 -1.80644 0
M  V30 4530 H 421.919 0.846106 -1.34264 0
M  V30 4531 H 421.94 3.56711 -1.32429 0
M  V30 4532 H 421.452 2.60634 -2.87561 0
M  V30 4533 H 419.553 3.66878 -0.650485 0
M  V30 4534 H 419.666 4.09572 -2.4857 0
M  V30 4535 H 418.03 2.22601 -1.23778 0
M  V30 4536 H 418.813 1.8794 -2.87286 0
M  V30 4537 N 421.258 1.00505 1.21394 0
M  V30 4538 C 422.191 0.51032 2.22421 0
M  V30 4539 C 423.169 -0.436 1.56645 0
M  V30 4540 O 424.353 -0.358709 1.85055 0
M  V30 4541 C 421.48 -0.258733 3.3771 0
M  V30 4542 C 420.526 0.635395 4.2174 0
M  V30 4543 S 421.359 2.09783 4.92698 0
M  V30 4544 C 422.515 1.33862 6.11418 0
M  V30 4545 H 422.748 1.36637 2.64041 0
M  V30 4546 H 420.281 0.812991 1.31262 0
M  V30 4547 H 422.239 -0.696372 4.0455 0
M  V30 4548 H 420.9 -1.0902 2.94573 0
M  V30 4549 H 420.093 0.0430189 5.03982 0
M  V30 4550 H 419.695 1.01031 3.60095 0
M  V30 4551 H 421.987 0.612541 6.74725 0
M  V30 4552 H 422.93 2.13675 6.75092 0
M  V30 4553 H 423.338 0.846568 5.58116 0
M  V30 4554 N 422.737 -1.36956 0.779787 0
M  V30 4555 C 423.647 -2.33965 0.172491 0
M  V30 4556 C 424.663 -1.60574 -0.670222 0
M  V30 4557 O 425.839 -1.92617 -0.588263 0
M  V30 4558 C 422.904 -3.39761 -0.690173 0
M  V30 4559 C 421.965 -4.28964 0.169924 0
M  V30 4560 C 421.198 -5.29707 -0.651662 0
M  V30 4561 O 421.421 -5.38238 -1.88827 0
M  V30 4562 O 420.355 -6.01873 -0.0566264 0
M  V30 4563 H 424.181 -2.87647 0.974321 0
M  V30 4564 H 421.766 -1.39258 0.541078 0
M  V30 4565 H 423.648 -4.04471 -1.1824 0
M  V30 4566 H 422.323 -2.88394 -1.47006 0
M  V30 4567 H 421.23 -3.67326 0.708696 0
M  V30 4568 H 422.563 -4.83656 0.913085 0
M  V30 4569 N 424.215 -0.530993 -1.48385 0
M  V30 4570 C 425.461 0.00274135 -2.028 0
M  V30 4571 C 425.794 1.33838 -1.40716 0
M  V30 4572 O 425.069 1.86465 -0.553277 0
M  V30 4573 C 425.352 0.123676 -3.59888 0
M  V30 4574 C 425.205 -1.2372 -4.3245 0
M  V30 4575 C 426.524 0.849967 -4.31814 0
M  V30 4576 H 423.643 -0.000477758 -0.737 0
M  V30 4577 H 426.285 -0.688217 -1.77098 0
M  V30 4578 H 424.435 0.712157 -3.81917 0
M  V30 4579 H 426.107 -1.86687 -4.21836 0
M  V30 4580 H 424.35 -1.81882 -3.93829 0
M  V30 4581 H 425.021 -1.10557 -5.40815 0
M  V30 4582 H 427.497 0.350572 -4.14621 0
M  V30 4583 H 426.373 0.903486 -5.41413 0
M  V30 4584 H 426.634 1.90047 -3.99167 0
M  V30 4585 N 425.693 1.55336 -0.266172 0
M  V30 4586 C 426.623 2.25146 0.618981 0
M  V30 4587 C 427.604 1.23845 1.16604 0
M  V30 4588 O 428.789 1.52544 1.20183 0
M  V30 4589 C 425.919 2.96572 1.80728 0
M  V30 4590 C 424.873 4.04726 1.39215 0
M  V30 4591 C 424.199 4.63678 2.66283 0
M  V30 4592 C 425.499 5.19407 0.548942 0
M  V30 4593 H 427.193 2.99377 0.0368116 0
M  V30 4594 H 424.739 1.43991 0.0162651 0
M  V30 4595 H 426.692 3.44116 2.43232 0
M  V30 4596 H 425.416 2.19861 2.41514 0
M  V30 4597 H 424.075 3.57979 0.790351 0
M  V30 4598 H 423.723 3.83646 3.25308 0
M  V30 4599 H 423.423 5.367 2.39222 0
M  V30 4600 H 424.947 5.13967 3.29651 0
M  V30 4601 H 426.361 5.63059 1.07876 0
M  V30 4602 H 424.758 5.98936 0.373593 0
M  V30 4603 H 425.828 4.8295 -0.434394 0
M  V30 4604 N 427.171 -0.0066808 1.57599 0
M  V30 4605 C 428.134 -0.985035 2.06953 0
M  V30 4606 C 429.134 -1.27663 0.977687 0
M  V30 4607 O 430.324 -1.22293 1.24057 0
M  V30 4608 C 427.456 -2.3118 2.50536 0
M  V30 4609 H 428.649 -0.558255 2.94658 0
M  V30 4610 H 426.202 -0.254011 1.54222 0
M  V30 4611 H 426.937 -2.78561 1.66054 0
M  V30 4612 H 426.722 -2.11338 3.3027 0
M  V30 4613 H 428.212 -3.01377 2.8907 0
M  V30 4614 N 428.649 -1.55105 -0.279332 0
M  V30 4615 C 429.581 -1.83952 -1.36727 0
M  V30 4616 C 430.594 -0.723642 -1.45833 0
M  V30 4617 O 431.783 -1.00141 -1.47763 0
M  V30 4618 C 428.883 -1.98183 -2.74912 0
M  V30 4619 C 428.056 -3.28787 -2.88475 0
M  V30 4620 C 427.115 -3.33162 -4.07295 0
M  V30 4621 O 426.141 -4.06576 -3.98353 0
M  V30 4622 N 427.343 -2.60109 -5.18964 0
M  V30 4623 H 430.108 -2.77853 -1.12328 0
M  V30 4624 H 427.669 -1.54945 -0.469442 0
M  V30 4625 H 429.661 -1.98488 -3.52682 0
M  V30 4626 H 428.231 -1.11177 -2.92162 0
M  V30 4627 H 427.451 -3.41075 -1.97641 0
M  V30 4628 H 428.739 -4.14933 -2.94463 0
M  V30 4629 H 428.137 -2.00136 -5.29115 0
M  V30 4630 H 426.694 -2.66143 -5.94988 0
M  V30 4631 N 430.127 0.543554 -1.4793 0
M  V30 4632 C 431.352 1.32995 -1.59145 0
M  V30 4633 C 431.777 1.86472 -0.246956 0
M  V30 4634 O 431.135 1.63696 0.779324 0
M  V30 4635 C 431.183 2.46623 -2.63077 0
M  V30 4636 O 430.287 3.49261 -2.19295 0
M  V30 4637 H 429.628 0.394472 -0.534124 0
M  V30 4638 H 432.158 0.655489 -1.93816 0
M  V30 4639 H 432.168 2.93001 -2.83926 0
M  V30 4640 H 430.843 2.07059 -3.60693 0
M  V30 4641 H 429.42 3.09094 -2.08603 0
M  V30 4642 N 431.605 1.3629 0.791371 0
M  V30 4643 C 432.851 1.30605 1.55146 0
M  V30 4644 C 433.184 -0.115042 1.93859 0
M  V30 4645 O 432.459 -1.06798 1.62556 0
M  V30 4646 C 432.742 2.22692 2.82985 0
M  V30 4647 C 432.595 3.73489 2.50651 0
M  V30 4648 C 433.914 2.13588 3.84796 0
M  V30 4649 H 431.033 0.475761 0.562868 0
M  V30 4650 H 433.675 1.66825 0.909358 0
M  V30 4651 H 431.825 1.91933 3.37778 0
M  V30 4652 H 433.497 4.14758 2.01924 0
M  V30 4653 H 431.74 3.93021 1.83622 0
M  V30 4654 H 432.411 4.3333 3.41949 0
M  V30 4655 H 434.887 2.40659 3.39445 0
M  V30 4656 H 433.763 2.80195 4.71998 0
M  V30 4657 H 434.024 1.12256 4.27611 0
M  V30 4658 N 433.083 -1.0153 1.20538 0
M  V30 4659 C 434.046 -2.0826 0.957098 0
M  V30 4660 C 435.046 -1.60657 -0.0678655 0
M  V30 4661 O 436.236 -1.73385 0.168332 0
M  V30 4662 C 433.368 -3.38033 0.441188 0
M  V30 4663 H 434.561 -2.31719 1.90384 0
M  V30 4664 H 432.114 -1.1835 1.02093 0
M  V30 4665 H 432.849 -3.20249 -0.510961 0
M  V30 4666 H 432.634 -3.73911 1.18038 0
M  V30 4667 H 434.124 -4.16613 0.287009 0
M  V30 4668 N 434.561 -1.01147 -1.20859 0
M  V30 4669 C 435.508 -0.577354 -2.23462 0
M  V30 4670 C 436.478 0.399922 -1.61214 0
M  V30 4671 O 437.663 0.300515 -1.88419 0
M  V30 4672 C 434.803 0.083372 -3.44999 0
M  V30 4673 C 433.916 -0.937856 -4.21697 0
M  V30 4674 C 433.051 -0.248717 -5.30617 0
M  V30 4675 C 432.09 -1.25705 -5.99053 0
M  V30 4676 N 431.227 -0.594939 -6.99575 0
M  V30 4677 H 436.067 -1.45695 -2.59956 0
M  V30 4678 H 433.604 -0.729428 -1.27741 0
M  V30 4679 H 435.562 0.483535 -4.14388 0
M  V30 4680 H 434.192 0.926645 -3.09214 0
M  V30 4681 H 433.244 -1.45622 -3.51423 0
M  V30 4682 H 434.556 -1.70493 -4.68757 0
M  V30 4683 H 433.71 0.207215 -6.06346 0
M  V30 4684 H 432.449 0.55071 -4.84581 0
M  V30 4685 H 431.454 -1.72343 -5.2209 0
M  V30 4686 H 432.679 -2.05767 -6.47176 0
M  V30 4687 H 430.625 0.184713 -6.5574 0
M  V30 4688 H 430.542 -1.30017 -7.44736 0
M  V30 4689 H 431.81 -0.162427 -7.79331 0
M  V30 4690 N 436.039 1.36541 -0.78704 0
M  V30 4691 C 437.267 2.03561 -0.370199 0
M  V30 4692 C 437.682 1.59347 1.01263 0
M  V30 4693 O 437.039 0.781781 1.64907 0
M  V30 4694 C 437.09 3.59033 -0.421614 0
M  V30 4695 O 436.811 4.01634 -1.7499 0
M  V30 4696 C 438.312 4.433 0.00489763 0
M  V30 4697 H 435.532 0.653346 -0.152904 0
M  V30 4698 H 438.076 1.74566 -1.06522 0
M  V30 4699 H 436.231 3.86746 0.224971 0
M  V30 4700 H 436.645 4.96217 -1.69909 0
M  V30 4701 H 438.119 5.51939 -0.0822184 0
M  V30 4702 H 438.596 4.26285 1.05723 0
M  V30 4703 H 439.202 4.20843 -0.614085 0
M  V30 4704 N 437.518 0.538854 1.48102 0
M  V30 4705 C 438.766 0.00798599 2.02098 0
M  V30 4706 C 439.087 -1.33922 1.41739 0
M  V30 4707 O 438.357 -1.86932 0.585934 0
M  V30 4708 H 436.937 -3.62179e-05 0.747 0
M  V30 4709 H 439.599 0.7047 1.81714 0
M  V30 4710 H 438.695 -0.0937672 3.11959 0
M  V30 4711 N 438.996 -1.55193 0.274407 0
M  V30 4712 C 439.943 -2.225 -0.613374 0
M  V30 4713 C 440.913 -1.19823 -1.15029 0
M  V30 4714 O 442.098 -1.48362 -1.19973 0
M  V30 4715 C 439.238 -2.94927 -1.79199 0
M  V30 4716 C 438.351 -4.12322 -1.28899 0
M  V30 4717 C 437.486 -4.72394 -2.42934 0
M  V30 4718 C 436.525 -5.81984 -1.89634 0
M  V30 4719 N 435.662 -6.36123 -2.9714 0
M  V30 4720 H 440.502 -2.97982 -0.032756 0
M  V30 4721 H 438.039 -1.47099 -0.00440146 0
M  V30 4722 H 439.997 -3.35134 -2.48478 0
M  V30 4723 H 438.627 -2.2187 -2.34465 0
M  V30 4724 H 437.679 -3.7724 -0.489327 0
M  V30 4725 H 438.991 -4.91355 -0.858587 0
M  V30 4726 H 438.145 -5.15317 -3.20208 0
M  V30 4727 H 436.884 -3.92636 -2.8929 0
M  V30 4728 H 435.889 -5.38511 -1.1084 0
M  V30 4729 H 437.114 -6.6361 -1.44215 0
M  V30 4730 H 435.06 -5.59259 -3.42878 0
M  V30 4731 H 434.977 -7.10427 -2.58515 0
M  V30 4732 H 436.245 -6.83704 -3.74391 0
M  V30 4733 N 440.474 -0.00167713 -1.576 0
M  V30 4734 C 441.885 0.54091 -1.78693 0
M  V30 4735 C 442.236 1.7386 -0.909247 0
M  V30 4736 O 441.361 2.16109 -0.112176 0
M  V30 4737 C 441.956 0.98806 -3.24072 0
M  V30 4738 C 440.515 1.47594 -3.46256 0
M  V30 4739 C 439.662 0.42792 -2.73978 0
M  V30 4740 H 442.613 -0.22784 -1.57056 0
M  V30 4741 H 442.634 1.85398 -3.32277 0
M  V30 4742 H 442.146 0.116164 -3.87926 0
M  V30 4743 H 440.247 2.36868 -2.87618 0
M  V30 4744 H 440.36 1.50225 -4.54939 0
M  V30 4745 H 438.724 0.889934 -2.38647 0
M  V30 4746 H 439.507 -0.435038 -3.40532 0
M  V30 4747 N 441.952 1.55251 0.271103 0
M  V30 4748 C 443.198 1.76207 1.00394 0
M  V30 4749 C 443.531 0.562604 1.85872 0
M  V30 4750 O 442.806 -0.439785 1.89463 0
M  V30 4751 C 443.089 3.06828 1.8849 0
M  V30 4752 C 442.942 4.37134 1.05992 0
M  V30 4753 C 444.261 3.33503 2.87165 0
M  V30 4754 H 441.38 0.641086 0.363562 0
M  V30 4755 H 444.022 1.87982 0.276189 0
M  V30 4756 H 442.172 2.96921 2.5054 0
M  V30 4757 H 443.844 4.59001 0.459978 0
M  V30 4758 H 442.087 4.32275 0.363443 0
M  V30 4759 H 442.758 5.2486 1.70955 0
M  V30 4760 H 445.234 3.43215 2.3525 0
M  V30 4761 H 444.11 4.2616 3.45946 0
M  V30 4762 H 444.371 2.53235 3.62387 0
M  V30 4763 N 443.43 -0.535701 1.48216 0
M  V30 4764 C 444.36 -1.65014 1.65204 0
M  V30 4765 C 445.341 -1.62554 0.501011 0
M  V30 4766 O 446.526 -1.7984 0.732886 0
M  V30 4767 C 443.656 -3.03616 1.68626 0
M  V30 4768 C 442.61 -3.20932 2.83172 0
M  V30 4769 C 441.936 -4.60537 2.71679 0
M  V30 4770 C 443.236 -3.04249 4.24535 0
M  V30 4771 H 444.93 -1.51053 2.58502 0
M  V30 4772 H 442.476 -0.725262 1.24402 0
M  V30 4773 H 444.429 -3.81446 1.79099 0
M  V30 4774 H 443.153 -3.18587 0.719026 0
M  V30 4775 H 441.812 -2.45517 2.72244 0
M  V30 4776 H 441.46 -4.72336 1.72937 0
M  V30 4777 H 441.16 -4.73069 3.48538 0
M  V30 4778 H 442.684 -5.40475 2.84112 0
M  V30 4779 H 444.098 -3.71877 4.36326 0
M  V30 4780 H 442.495 -3.28278 5.02348 0
M  V30 4781 H 443.565 -2.00739 4.41397 0
M  V30 4782 N 444.908 -1.36708 -0.784132 0
M  V30 4783 C 446.157 -1.30559 -1.53744 0
M  V30 4784 C 446.47 0.111374 -1.95283 0
M  V30 4785 O 447.676 0.29527 -2.6989 0
M  V30 4786 C 446.132 -2.29098 -2.77565 0
M  V30 4787 C 445.74 -3.76258 -2.43174 0
M  V30 4788 C 447.484 -2.31936 -3.55536 0
M  V30 4789 C 445.391 -4.6656 -3.63422 0
M  V30 4790 H 444.321 -0.48518 -0.577162 0
M  V30 4791 H 446.972 -1.62101 -0.859981 0
M  V30 4792 H 445.354 -1.90557 -3.47137 0
M  V30 4793 H 446.528 -4.23565 -1.81465 0
M  V30 4794 H 444.843 -3.76246 -1.78403 0
M  V30 4795 H 447.44 -2.9661 -4.44889 0
M  V30 4796 H 447.783 -1.3294 -3.94503 0
M  V30 4797 H 448.316 -2.6912 -2.92949 0
M  V30 4798 H 445.055 -5.66638 -3.29547 0
M  V30 4799 H 444.575 -4.23966 -4.24279 0
M  V30 4800 H 446.254 -4.8309 -4.30387 0
M  V30 4801 N 446.386 1.0089 -1.21074 0
M  V30 4802 C 447.663 1.71834 -0.934469 0
M  V30 4803 C 448.043 2.0368 0.554753 0
M  V30 4804 O 447.391 1.70742 1.51854 0
M  V30 4805 C 447.601 2.98061 -1.8155 0
M  V30 4806 C 448.949 3.7117 -2.06199 0
M  V30 4807 O 449.973 3.08034 -1.78867 0
M  V30 4808 O 448.832 4.84721 -2.52404 0
M  V30 4809 H 445.926 0.749253 -0.35007 0
M  V30 4810 H 448.472 1.06668 -1.31985 0
M  V30 4811 H 447.244 2.70908 -2.82355 0
M  V30 4812 H 446.867 3.70968 -1.43068 0
M  V30 4813 N 447.864 1.01787 1.20321 0
M  V30 4814 C 449.089 0.727009 1.9424 0
M  V30 4815 C 449.514 -0.706179 1.74341 0
M  V30 4816 O 448.872 -1.48609 1.03852 0
M  V30 4817 C 448.92 1.06958 3.44372 0
M  V30 4818 O 448.024 0.181983 4.11998 0
M  V30 4819 H 447.365 0.269626 0.606793 0
M  V30 4820 H 449.895 1.36158 1.52716 0
M  V30 4821 H 449.905 1.02182 3.94997 0
M  V30 4822 H 448.58 2.11378 3.58179 0
M  V30 4823 H 447.157 0.287378 3.71791 0
M  V30 4824 N 449.342 -1.36122 0.79427 0
M  V30 4825 C 450.59 -1.98718 0.368177 0
M  V30 4826 C 450.911 -1.63345 -1.06506 0
M  V30 4827 O 450.181 -0.909825 -1.73491 0
M  V30 4828 H 448.761 -0.735038 0.133146 0
M  V30 4829 H 451.423 -1.66239 1.01739 0
M  V30 4830 H 450.519 -3.08633 0.463923 0
M  V30 4831 N 450.82 -0.546701 -1.47814 0
M  V30 4832 C 452.067 -0.0187407 -2.02491 0
M  V30 4833 C 452.395 1.32685 -1.42215 0
M  V30 4834 O 451.65 1.87413 -0.563454 0
M  V30 4835 C 451.949 0.134869 -3.57145 0
M  V30 4836 C 451.615 -1.13849 -4.3629 0
M  V30 4837 C 450.277 -1.48743 -4.57634 0
M  V30 4838 C 452.629 -1.98277 -4.82012 0
M  V30 4839 C 449.957 -2.67932 -5.21948 0
M  V30 4840 C 452.309 -3.16659 -5.4764 0
M  V30 4841 C 450.973 -3.51879 -5.67219 0
M  V30 4842 H 450.243 -0.0068577 -0.740968 0
M  V30 4843 H 452.89 -0.716097 -1.77607 0
M  V30 4844 H 451.195 0.915118 -3.80963 0
M  V30 4845 H 452.892 0.558556 -3.97091 0
M  V30 4846 H 449.482 -0.856767 -4.19949 0
M  V30 4847 H 453.666 -1.72628 -4.6531 0
M  V30 4848 H 448.922 -2.95401 -5.35302 0
M  V30 4849 H 453.096 -3.82374 -5.82033 0
M  V30 4850 H 450.723 -4.44331 -6.16825 0
M  V30 4851 N 452.299 1.55045 -0.282633 0
M  V30 4852 C 453.715 1.59441 0.0712997 0
M  V30 4853 C 453.915 1.2998 1.53972 0
M  V30 4854 O 452.971 1.06431 2.28973 0
M  V30 4855 C 454.284 2.99097 -0.310104 0
M  V30 4856 C 455.832 3.1194 -0.257343 0
M  V30 4857 C 456.307 4.53875 -0.613297 0
M  V30 4858 N 457.798 4.5974 -0.565134 0
M  V30 4859 C 458.533 5.67603 -0.81326 0
M  V30 4860 N 458.029 6.83582 -1.1264 0
M  V30 4861 N 459.822 5.57187 -0.741553 0
M  V30 4862 H 451.973 1.72458 -1.23984 0
M  V30 4863 H 454.236 0.804549 -0.501403 0
M  V30 4864 H 453.942 3.25516 -1.33163 0
M  V30 4865 H 453.816 3.75616 0.345366 0
M  V30 4866 H 456.203 2.85281 0.754905 0
M  V30 4867 H 456.284 2.37618 -0.947178 0
M  V30 4868 H 455.928 4.81261 -1.62327 0
M  V30 4869 H 455.858 5.26508 0.09841 0
M  V30 4870 H 458.349 3.76427 -0.333294 0
M  V30 4871 H 458.662 7.6175 -1.30219 0
M  V30 4872 H 457.007 6.85179 -1.16425 0
M  V30 4873 H 460.198 4.65457 -0.496705 0
M  V30 4874 H 460.371 6.41171 -0.938306 0
M  V30 4875 N 453.777 0.010035 1.57597 0
M  V30 4876 C 455.193 -0.346164 1.55801 0
M  V30 4877 C 455.393 -1.74144 1.01371 0
M  V30 4878 O 454.449 -2.43938 0.651968 0
M  V30 4879 C 455.762 -0.212216 2.9995 0
M  V30 4880 C 457.31 -0.286409 3.11687 0
M  V30 4881 C 457.785 -0.18147 4.5764 0
M  V30 4882 N 459.276 -0.239056 4.62583 0
M  V30 4883 C 460.011 -0.181351 5.73113 0
M  V30 4884 N 459.507 -0.073661 6.92761 0
M  V30 4885 N 461.3 -0.233949 5.61613 0
M  V30 4886 H 453.451 0.922657 1.91313 0
M  V30 4887 H 455.714 0.354595 0.879185 0
M  V30 4888 H 455.42 0.748169 3.4365 0
M  V30 4889 H 455.294 -0.990224 3.6397 0
M  V30 4890 H 457.681 -1.23724 2.67911 0
M  V30 4891 H 457.762 0.521645 2.50425 0
M  V30 4892 H 457.406 0.765863 5.02093 0
M  V30 4893 H 457.336 -1.00814 5.1686 0
M  V30 4894 H 459.827 -0.32321 3.76515 0
M  V30 4895 H 460.14 -0.0358003 7.72792 0
M  V30 4896 H 458.485 -0.0391461 6.94989 0
M  V30 4897 H 461.676 -0.316347 4.6703 0
M  V30 4898 H 461.849 -0.185514 6.47734 0
M  V30 4899 N 455.255 -1.55392 -0.262866 0
M  V30 4900 C 456.503 -1.76127 -0.991147 0
M  V30 4901 C 456.824 -0.571083 -1.8645 0
M  V30 4902 O 456.094 0.413698 -1.91482 0
M  V30 4903 H 454.674 -0.649528 -0.368948 0
M  V30 4904 H 457.336 -1.9281 -0.284655 0
M  V30 4905 H 456.432 -2.6663 -1.62219 0
M  V30 4906 N 456.733 0.527833 -1.48498 0
M  V30 4907 C 457.958 1.313 -1.60546 0
M  V30 4908 C 458.383 1.86199 -0.26672 0
M  V30 4909 O 457.741 1.64513 0.761918 0
M  V30 4910 C 457.789 2.43818 -2.65678 0
M  V30 4911 O 456.893 3.46916 -2.22987 0
M  V30 4912 H 456.234 0.388784 -0.538277 0
M  V30 4913 H 458.764 0.634896 -1.945 0
M  V30 4914 H 458.774 2.89973 -2.87018 0
M  V30 4915 H 457.449 2.03222 -3.62869 0
M  V30 4916 H 456.026 3.06864 -2.11869 0
M  V30 4917 N 458.211 1.37122 0.776871 0
M  V30 4918 C 459.488 1.22586 1.52421 0
M  V30 4919 C 459.868 -0.182726 2.10308 0
M  V30 4920 O 459.216 -1.18979 1.9508 0
M  V30 4921 C 459.426 2.31782 2.60918 0
M  V30 4922 C 460.774 2.69071 3.2846 0
M  V30 4923 O 461.798 2.3092 2.71209 0
M  V30 4924 O 460.657 3.3478 4.31954 0
M  V30 4925 H 457.751 0.478045 0.674835 0
M  V30 4926 H 460.297 1.48888 0.814275 0
M  V30 4927 H 459.069 3.26131 2.16227 0
M  V30 4928 H 458.692 2.06916 3.39517 0
M  V30 4929 N 459.689 -1.00246 1.21608 0
M  V30 4930 C 460.938 -1.73476 1.02902 0
M  V30 4931 C 461.251 -1.90643 -0.437561 0
M  V30 4932 O 462.457 -2.61105 -0.74407 0
M  V30 4933 C 460.913 -3.12079 1.79261 0
M  V30 4934 C 460.521 -3.02877 3.30106 0
M  V30 4935 C 462.265 -3.89421 1.68972 0
M  V30 4936 C 460.172 -4.36575 3.98944 0
M  V30 4937 H 459.102 -0.650408 0.381425 0
M  V30 4938 H 461.753 -1.11985 1.45367 0
M  V30 4939 H 460.135 -3.74196 1.2959 0
M  V30 4940 H 461.309 -2.49983 3.87098 0
M  V30 4941 H 459.624 -2.39022 3.40965 0
M  V30 4942 H 462.221 -4.88362 2.17731 0
M  V30 4943 H 462.564 -4.1122 0.648397 0
M  V30 4944 H 463.097 -3.33963 2.16133 0
M  V30 4945 H 459.836 -4.19978 5.03288 0
M  V30 4946 H 459.356 -4.8942 3.4674 0
M  V30 4947 H 461.035 -5.05364 4.04 0
M  V30 4948 N 461.167 -1.02423 -1.1978 0
M  V30 4949 C 462.413 -0.719051 -1.89625 0
M  V30 4950 C 462.746 0.750083 -1.7913 0
M  V30 4951 O 462.021 1.54574 -1.18056 0
M  V30 4952 C 462.304 -1.16499 -3.40735 0
M  V30 4953 C 462.157 -2.695 -3.60125 0
M  V30 4954 C 463.476 -0.742166 -4.33797 0
M  V30 4955 H 460.595 -0.26269 -0.688595 0
M  V30 4956 H 463.237 -1.27333 -1.41018 0
M  V30 4957 H 461.387 -0.69341 -3.82262 0
M  V30 4958 H 463.059 -3.24569 -3.278 0
M  V30 4959 H 461.302 -3.10113 -3.03336 0
M  V30 4960 H 461.973 -2.95757 -4.66081 0
M  V30 4961 H 464.449 -1.1477 -3.99959 0
M  V30 4962 H 463.325 -1.08213 -5.38127 0
M  V30 4963 H 463.586 0.355747 -4.40666 0
M  V30 4964 N 462.645 1.35699 -0.801477 0
M  V30 4965 C 463.592 2.29876 -0.206294 0
M  V30 4966 C 464.562 1.52565 0.656752 0
M  V30 4967 O 465.747 1.81024 0.602906 0
M  V30 4968 C 462.887 3.39052 0.643272 0
M  V30 4969 C 462 4.31335 -0.239644 0
M  V30 4970 C 461.135 5.27599 0.61744 0
M  V30 4971 C 460.174 6.11521 -0.26619 0
M  V30 4972 N 459.311 6.99938 0.550571 0
M  V30 4973 H 464.151 2.80187 -1.01484 0
M  V30 4974 H 461.688 1.37902 -0.511997 0
M  V30 4975 H 463.646 4.0101 1.15094 0
M  V30 4976 H 462.276 2.9003 1.41713 0
M  V30 4977 H 461.328 3.70426 -0.865381 0
M  V30 4978 H 462.64 4.90243 -0.919985 0
M  V30 4979 H 461.794 5.94906 1.19045 0
M  V30 4980 H 460.533 4.69176 1.33137 0
M  V30 4981 H 459.538 5.43166 -0.851507 0
M  V30 4982 H 460.763 6.72022 -0.9779 0
M  V30 4983 H 458.709 6.44008 1.24856 0
M  V30 4984 H 458.626 7.55966 -0.071832 0
M  V30 4985 H 459.894 7.71599 1.10702 0
M  V30 4986 N 464.123 0.554532 1.47522 0
M  V30 4987 C 465.086 -0.184174 2.28459 0
M  V30 4988 C 466.086 -0.845195 1.36796 0
M  V30 4989 O 467.276 -0.701467 1.59452 0
M  V30 4990 C 464.408 -1.26903 3.16399 0
M  V30 4991 H 465.601 0.526751 2.95238 0
M  V30 4992 H 463.154 0.311375 1.53167 0
M  V30 4993 H 463.889 -2.01244 2.54306 0
M  V30 4994 H 463.674 -0.799883 3.83854 0
M  V30 4995 H 465.164 -1.78794 3.77389 0
M  V30 4996 N 465.601 -1.54893 0.290851 0
M  V30 4997 C 466.531 -2.26103 -0.583084 0
M  V30 4998 C 467.512 -1.25684 -1.14619 0
M  V30 4999 O 468.697 -1.54436 -1.17741 0
M  V30 5000 C 465.827 -2.99409 -1.75987 0
M  V30 5001 C 464.781 -4.0689 -1.32758 0
M  V30 5002 C 464.107 -4.67856 -2.58872 0
M  V30 5003 C 465.407 -5.20215 -0.46624 0
M  V30 5004 H 467.101 -2.99398 0.0108214 0
M  V30 5005 H 464.647 -1.43998 0.00664468 0
M  V30 5006 H 466.6 -3.47943 -2.37727 0
M  V30 5007 H 465.324 -2.23675 -2.37985 0
M  V30 5008 H 463.983 -3.59191 -0.733299 0
M  V30 5009 H 463.631 -3.88772 -3.19163 0
M  V30 5010 H 463.331 -5.40438 -2.30653 0
M  V30 5011 H 464.855 -5.19147 -3.21433 0
M  V30 5012 H 466.269 -5.64704 -0.989047 0
M  V30 5013 H 464.666 -5.99455 -0.27826 0
M  V30 5014 H 465.736 -4.82198 0.511173 0
M  V30 5015 N 467.08 -0.0183926 -1.57589 0
M  V30 5016 C 468.043 0.951986 -2.08494 0
M  V30 5017 C 469.043 1.26092 -0.997874 0
M  V30 5018 O 470.233 1.20304 -1.25987 0
M  V30 5019 C 467.365 2.27165 -2.54182 0
M  V30 5020 H 468.558 0.511307 -2.95509 0
M  V30 5021 H 466.111 0.229444 -1.54607 0
M  V30 5022 H 466.846 2.75884 -1.70465 0
M  V30 5023 H 466.631 2.06057 -3.33591 0
M  V30 5024 H 468.121 2.9674 -2.93828 0
M  V30 5025 N 468.558 1.5553 0.254621 0
M  V30 5026 C 469.488 1.9268 1.31897 0
M  V30 5027 C 470.469 0.790797 1.506 0
M  V30 5028 O 471.654 1.05045 1.63337 0
M  V30 5029 C 468.784 2.21477 2.67517 0
M  V30 5030 C 467.738 3.37256 2.63519 0
M  V30 5031 C 467.064 3.51576 4.02862 0
M  V30 5032 C 468.364 4.73157 2.21179 0
M  V30 5033 H 470.058 2.81832 1.01051 0
M  V30 5034 H 467.604 1.35599 0.484662 0
M  V30 5035 H 469.557 2.46055 3.42104 0
M  V30 5036 H 468.281 1.29144 2.99982 0
M  V30 5037 H 466.94 3.12675 1.9139 0
M  V30 5038 H 466.588 2.56676 4.32581 0
M  V30 5039 H 466.288 4.2943 4.01078 0
M  V30 5040 H 467.812 3.78467 4.79161 0
M  V30 5041 H 469.226 4.97158 2.85494 0
M  V30 5042 H 467.623 5.54058 2.30521 0
M  V30 5043 H 468.693 4.70739 1.16332 0
M  V30 5044 N 470.036 -0.519951 1.48776 0
M  V30 5045 C 471.284 -1.2727 1.56993 0
M  V30 5046 C 471.605 -1.9339 0.25004 0
M  V30 5047 O 470.875 -1.81822 -0.729216 0
M  V30 5048 H 469.455 -0.472732 0.578389 0
M  V30 5049 H 472.117 -0.604234 1.85297 0
M  V30 5050 H 471.213 -2.04669 2.3562 0
M  V30 5051 N 471.514 -1.37532 -0.769588 0
M  V30 5052 C 472.477 -1.33292 -1.86456 0
M  V30 5053 C 473.477 -0.236537 -1.59051 0
M  V30 5054 O 474.667 -0.492511 -1.67093 0
M  V30 5055 C 471.799 -1.07118 -3.23633 0
M  V30 5056 H 472.992 -2.30692 -1.91628 0
M  V30 5057 H 470.545 -1.22593 -0.969572 0
M  V30 5058 H 471.28 -0.102578 -3.24138 0
M  V30 5059 H 471.065 -1.86479 -3.44917 0
M  V30 5060 H 472.555 -1.06806 -4.03711 0
M  V30 5061 N 472.992 0.995999 -1.22138 0
M  V30 5062 C 473.902 2.11985 -1.00496 0
M  V30 5063 C 474.918 1.7394 0.0457701 0
M  V30 5064 O 476.094 2.00868 -0.146273 0
M  V30 5065 C 473.159 3.41779 -0.582086 0
M  V30 5066 C 472.22 3.93943 -1.70608 0
M  V30 5067 C 471.453 5.17542 -1.30328 0
M  V30 5068 O 471.676 5.70114 -0.180743 0
M  V30 5069 O 470.61 5.63382 -2.11861 0
M  V30 5070 H 474.436 2.33123 -1.94647 0
M  V30 5071 H 472.021 1.10358 -1.00705 0
M  V30 5072 H 473.903 4.1989 -0.356467 0
M  V30 5073 H 472.578 3.22007 0.330592 0
M  V30 5074 H 471.485 3.17019 -1.98619 0
M  V30 5075 H 472.818 4.18141 -2.59651 0
M  V30 5076 N 474.47 1.03057 1.19235 0
M  V30 5077 C 475.433 0.617418 2.20727 0
M  V30 5078 C 476.433 -0.319856 1.57587 0
M  V30 5079 O 477.623 -0.106633 1.73873 0
M  V30 5080 C 474.755 -0.096296 3.40764 0
M  V30 5081 H 475.948 1.51544 2.58794 0
M  V30 5082 H 473.501 0.821949 1.32942 0
M  V30 5083 H 474.236 -1.00859 3.08217 0
M  V30 5084 H 474.021 0.577217 3.87828 0
M  V30 5085 H 475.511 -0.372219 4.15938 0
M  V30 5086 N 475.948 -1.35272 0.808662 0
M  V30 5087 C 477.194 -1.99003 0.390581 0
M  V30 5088 C 477.527 -1.63999 -1.0401 0
M  V30 5089 O 476.802 -0.904368 -1.72196 0
M  V30 5090 C 477.085 -3.55454 0.576566 0
M  V30 5091 C 476.938 -4.00249 2.05233 0
M  V30 5092 C 478.257 -4.401 0.00354277 0
M  V30 5093 H 475.376 -0.722917 0.143388 0
M  V30 5094 H 478.018 -1.6039 1.01858 0
M  V30 5095 H 476.168 -3.88477 0.0419766 0
M  V30 5096 H 477.84 -3.77626 2.64946 0
M  V30 5097 H 476.083 -3.51082 2.54801 0
M  V30 5098 H 476.754 -5.0911 2.13333 0
M  V30 5099 H 479.23 -4.13548 0.460117 0
M  V30 5100 H 478.106 -5.48656 0.163575 0
M  V30 5101 H 478.367 -4.28444 -1.09032 0
M  V30 5102 N 477.426 -0.562348 -1.47226 0
M  V30 5103 C 478.356 0.170627 -2.32876 0
M  V30 5104 C 479.337 0.903748 -1.44106 0
M  V30 5105 O 480.522 0.883206 -1.72954 0
M  V30 5106 C 477.652 1.19786 -3.25989 0
M  V30 5107 C 476.606 0.580875 -4.2404 0
M  V30 5108 C 475.932 1.71311 -5.06514 0
M  V30 5109 C 477.232 -0.468714 -5.20193 0
M  V30 5110 H 478.926 -0.544441 -2.94408 0
M  V30 5111 H 476.472 -0.263271 -1.41573 0
M  V30 5112 H 478.425 1.71884 -3.84752 0
M  V30 5113 H 477.149 1.94294 -2.62521 0
M  V30 5114 H 475.808 0.0811538 -3.6651 0
M  V30 5115 H 475.456 2.44736 -4.39447 0
M  V30 5116 H 475.156 1.30604 -5.72902 0
M  V30 5117 H 476.68 2.23725 -5.68137 0
M  V30 5118 H 478.094 -0.0336028 -5.7329 0
M  V30 5119 H 476.491 -0.794957 -5.94811 0
M  V30 5120 H 477.561 -1.36269 -4.65359 0
M  V30 5121 N 478.904 1.54736 -0.299062 0
M  V30 5122 C 479.834 2.26409 0.571085 0
M  V30 5123 C 480.815 1.2629 1.13951 0
M  V30 5124 O 482 1.55059 1.16921 0
M  V30 5125 C 479.13 3.00338 1.74396 0
M  V30 5126 C 478.084 4.07588 1.30599 0
M  V30 5127 C 477.41 4.69222 2.56387 0
M  V30 5128 C 478.71 5.20455 0.438645 0
M  V30 5129 H 480.404 2.99388 -0.0266991 0
M  V30 5130 H 477.95 1.43993 -0.0142812 0
M  V30 5131 H 479.903 3.49198 2.35878 0
M  V30 5132 H 478.627 2.24934 2.36796 0
M  V30 5133 H 477.286 3.59575 0.71424 0
M  V30 5134 H 476.934 3.9046 3.17097 0
M  V30 5135 H 476.634 5.41653 2.27784 0
M  V30 5136 H 478.158 5.20844 3.18675 0
M  V30 5137 H 479.572 5.65221 0.959085 0
M  V30 5138 H 477.969 5.99594 0.246466 0
M  V30 5139 H 479.039 4.8192 -0.536738 0
M  V30 5140 N 480.382 0.0267497 1.57577 0
M  V30 5141 C 481.63 -0.651116 1.91324 0
M  V30 5142 C 481.951 -1.72804 0.90353 0
M  V30 5143 O 481.221 -1.95822 -0.0552946 0
M  V30 5144 H 479.801 -0.243491 0.706202 0
M  V30 5145 H 482.463 0.0739935 1.94759 0
M  V30 5146 H 481.559 -1.10536 2.9187 0
M  V30 5147 N 481.861 -1.55662 -0.24637 0
M  V30 5148 C 483.277 -1.48098 -0.594907 0
M  V30 5149 C 483.477 -0.717044 -1.8831 0
M  V30 5150 O 482.533 -0.246618 -2.51293 0
M  V30 5151 C 483.846 -2.92507 -0.697146 0
M  V30 5152 C 485.394 -3.02881 -0.789436 0
M  V30 5153 C 485.869 -4.48598 -0.923232 0
M  V30 5154 N 487.36 -4.52538 -0.988088 0
M  V30 5155 C 488.095 -5.62536 -1.11089 0
M  V30 5156 N 487.591 -6.82342 -1.19919 0
M  V30 5157 N 489.384 -5.50334 -1.14408 0
M  V30 5158 H 481.535 -2.0377 0.599278 0
M  V30 5159 H 483.798 -0.925145 0.20691 0
M  V30 5160 H 483.504 -3.51242 0.179396 0
M  V30 5161 H 483.378 -3.43024 -1.5689 0
M  V30 5162 H 485.765 -2.44226 -1.65643 0
M  V30 5163 H 485.846 -2.55574 0.107482 0
M  V30 5164 H 485.49 -5.07864 -0.0607927 0
M  V30 5165 H 485.42 -4.93587 -1.8352 0
M  V30 5166 H 487.911 -3.66248 -0.931167 0
M  V30 5167 H 488.224 -7.61924 -1.29197 0
M  V30 5168 H 486.569 -6.85102 -1.16876 0
M  V30 5169 H 489.76 -4.5567 -1.07158 0
M  V30 5170 H 489.933 -6.36096 -1.23634 0
M  V30 5171 N 483.339 0.512053 -1.4905 0
M  V30 5172 C 484.302 1.59704 -1.64399 0
M  V30 5173 C 485.302 1.52285 -0.516317 0
M  V30 5174 O 486.492 1.55635 -0.782527 0
M  V30 5175 C 483.624 2.9935 -1.63102 0
M  V30 5176 H 484.817 1.47428 -2.61161 0
M  V30 5177 H 482.37 0.735469 -1.37915 0
M  V30 5178 H 483.105 3.17116 -0.678836 0
M  V30 5179 H 482.89 3.06144 -2.44986 0
M  V30 5180 H 484.38 3.782 -1.77072 0
M  V30 5181 N 484.817 1.37938 0.762283 0
M  V30 5182 C 486.045 1.36883 1.55147 0
M  V30 5183 C 486.46 -0.0435348 1.8875 0
M  V30 5184 O 485.817 -1.00786 1.52146 0
M  V30 5185 C 485.868 2.21624 2.85596 0
M  V30 5186 O 485.589 3.57358 2.5343 0
M  V30 5187 C 487.09 2.28653 3.7978 0
M  V30 5188 H 484.31 0.468521 0.480343 0
M  V30 5189 H 486.854 1.81404 0.944079 0
M  V30 5190 H 485.009 1.80588 3.42734 0
M  V30 5191 H 485.423 4.01883 3.37032 0
M  V30 5192 H 486.897 2.9225 4.68288 0
M  V30 5193 H 487.374 1.29767 4.19592 0
M  V30 5194 H 487.98 2.70043 3.28568 0
M  V30 5195 N 486.295 -0.989507 1.22664 0
M  V30 5196 C 487.225 -2.09847 1.02404 0
M  V30 5197 C 488.206 -1.70007 -0.0561303 0
M  V30 5198 O 489.391 -1.93906 0.106748 0
M  V30 5199 C 486.521 -3.41996 0.604663 0
M  V30 5200 C 485.475 -3.95699 1.63115 0
M  V30 5201 C 484.801 -5.23936 1.0675 0
M  V30 5202 C 486.101 -4.25999 3.02196 0
M  V30 5203 H 487.795 -2.27054 1.95158 0
M  V30 5204 H 485.341 -1.09111 0.939727 0
M  V30 5205 H 487.294 -4.1899 0.45002 0
M  V30 5206 H 486.018 -3.24626 -0.35855 0
M  V30 5207 H 484.677 -3.2084 1.77362 0
M  V30 5208 H 484.325 -5.02909 0.0955422 0
M  V30 5209 H 484.025 -5.60833 1.75328 0
M  V30 5210 H 485.549 -6.0356 0.924516 0
M  V30 5211 H 486.963 -4.93777 2.91303 0
M  V30 5212 H 485.36 -4.74076 3.67929 0
M  V30 5213 H 486.43 -3.33636 3.51873 0
M  V30 5214 N 487.773 -1.03688 -1.18687 0
M  V30 5215 C 489.003 -0.756819 -1.92239 0
M  V30 5216 C 489.411 0.689374 -1.76194 0
M  V30 5217 O 488.754 1.48126 -1.08648 0
M  V30 5218 C 488.816 -1.03851 -3.44173 0
M  V30 5219 C 488.48 -2.47785 -3.83994 0
M  V30 5220 C 489.477 -3.4595 -3.88091 0
M  V30 5221 C 487.162 -2.82397 -4.154 0
M  V30 5222 C 489.156 -4.76779 -4.23038 0
M  V30 5223 C 486.843 -4.13433 -4.50018 0
M  V30 5224 C 487.841 -5.10434 -4.53813 0
M  V30 5225 O 487.529 -6.39122 -4.87625 0
M  V30 5226 H 487.261 -0.275678 -0.617234 0
M  V30 5227 H 489.815 -1.38658 -1.51536 0
M  V30 5228 H 488.045 -0.351612 -3.85098 0
M  V30 5229 H 489.734 -0.746846 -3.9897 0
M  V30 5230 H 490.5 -3.20549 -3.63969 0
M  V30 5231 H 486.379 -2.07568 -4.11627 0
M  V30 5232 H 489.923 -5.52488 -4.25914 0
M  V30 5233 H 485.82 -4.38604 -4.736 0
M  V30 5234 H 486.588 -6.43715 -5.05542 0
M  V30 5235 N 489.251 1.34841 -0.815825 0
M  V30 5236 C 490.499 1.98107 -0.399744 0
M  V30 5237 C 490.82 1.65019 1.03894 0
M  V30 5238 O 490.09 0.937311 1.72021 0
M  V30 5239 H 488.67 0.732827 -0.144823 0
M  V30 5240 H 491.332 1.64599 -1.0437 0
M  V30 5241 H 490.428 3.07856 -0.512965 0
M  V30 5242 N 490.729 0.570148 1.46925 0
M  V30 5243 C 491.659 -0.158274 2.32963 0
M  V30 5244 C 492.64 -0.896093 1.44583 0
M  V30 5245 O 493.825 -0.874022 1.7342 0
M  V30 5246 C 490.955 -1.18055 3.26619 0
M  V30 5247 C 489.909 -0.558379 4.24342 0
M  V30 5248 C 489.235 -1.68623 5.07415 0
M  V30 5249 C 490.535 0.496295 5.19937 0
M  V30 5250 H 492.229 0.560046 2.94115 0
M  V30 5251 H 489.775 0.270775 1.41431 0
M  V30 5252 H 491.728 -1.69841 3.85658 0
M  V30 5253 H 490.452 -1.92899 2.63548 0
M  V30 5254 H 489.111 -0.0617157 3.66548 0
M  V30 5255 H 488.759 -2.42402 4.40738 0
M  V30 5256 H 488.459 -1.27564 5.73586 0
M  V30 5257 H 489.983 -2.20709 5.69315 0
M  V30 5258 H 491.397 0.0640052 5.73264 0
M  V30 5259 H 489.794 0.82649 5.94381 0
M  V30 5260 H 490.864 1.38735 4.6463 0
M  V30 5261 N 492.207 -1.54576 0.307264 0
M  V30 5262 C 493.17 -2.22423 -0.553224 0
M  V30 5263 C 494.17 -1.21231 -1.05639 0
M  V30 5264 O 495.36 -1.45923 -0.951419 0
M  V30 5265 C 492.492 -2.91552 -1.76664 0
M  V30 5266 H 493.685 -2.99874 0.0396484 0
M  V30 5267 H 491.238 -1.56192 0.0581629 0
M  V30 5268 H 491.973 -2.18196 -2.39918 0
M  V30 5269 H 491.758 -3.65738 -1.41343 0
M  V30 5270 H 493.248 -3.43292 -2.37783 0
M  V30 5271 N 493.685 -0.035106 -1.57561 0
M  V30 5272 C 494.648 0.929819 -2.09492 0
M  V30 5273 C 495.648 1.25026 -1.01119 0
M  V30 5274 O 496.838 1.18961 -1.27255 0
M  V30 5275 C 493.97 2.24457 -2.56577 0
M  V30 5276 H 495.163 0.479935 -2.96035 0
M  V30 5277 H 492.716 0.213033 -1.54841 0
M  V30 5278 H 493.451 2.74061 -1.73382 0
M  V30 5279 H 493.236 2.02508 -3.35757 0
M  V30 5280 H 494.726 2.93607 -2.96959 0
M  V30 5281 N 495.163 1.55791 0.238111 0
M  V30 5282 C 496.579 1.48411 0.587045 0
M  V30 5283 C 496.779 0.72702 1.87927 0
M  V30 5284 O 495.835 0.259942 2.51158 0
M  V30 5285 C 497.148 2.92873 0.681623 0
M  V30 5286 C 498.696 3.03295 0.773363 0
M  V30 5287 C 499.171 4.49082 0.899428 0
M  V30 5288 N 500.662 4.53056 0.964075 0
M  V30 5289 C 501.397 5.63117 1.08104 0
M  V30 5290 N 500.893 6.82969 1.16299 0
M  V30 5291 N 502.686 5.50933 1.11488 0
M  V30 5292 H 494.837 2.0345 -0.610076 0
M  V30 5293 H 497.1 0.924034 -0.211813 0
M  V30 5294 H 496.806 3.51142 -0.19802 0
M  V30 5295 H 496.68 3.43851 1.55069 0
M  V30 5296 H 499.067 2.45101 1.64346 0
M  V30 5297 H 499.148 2.55513 -0.121034 0
M  V30 5298 H 498.792 5.07889 0.0338586 0
M  V30 5299 H 498.722 4.94553 1.809 0
M  V30 5300 H 501.213 3.66737 0.91173 0
M  V30 5301 H 501.526 7.62598 1.25155 0
M  V30 5302 H 499.871 6.85712 1.13241 0
M  V30 5303 H 503.062 4.56231 1.0474 0
M  V30 5304 H 503.235 6.36743 1.20259 0
M  V30 5305 N 496.642 -0.504142 1.49319 0
M  V30 5306 C 497.89 -1.25598 1.58334 0
M  V30 5307 C 498.211 -1.93114 0.270538 0
M  V30 5308 O 497.481 -1.82585 -0.709891 0
M  V30 5309 H 496.061 -0.466571 0.58337 0
M  V30 5310 H 498.723 -0.584547 1.85928 0
M  V30 5311 H 497.819 -2.02159 2.37778 0
M  V30 5312 N 498.12 -1.38341 -0.754957 0
M  V30 5313 C 499.03 -1.3769 -1.89944 0
M  V30 5314 C 500.046 -0.274194 -1.71826 0
M  V30 5315 O 501.222 -0.512391 -1.94773 0
M  V30 5316 C 498.287 -1.19938 -3.25293 0
M  V30 5317 C 497.348 -2.40001 -3.55946 0
M  V30 5318 C 496.581 -2.23087 -4.84838 0
M  V30 5319 O 496.804 -1.22386 -5.57116 0
M  V30 5320 O 495.738 -3.11646 -5.14937 0
M  V30 5321 H 499.564 -2.3412 -1.93446 0
M  V30 5322 H 497.149 -1.19246 -0.900044 0
M  V30 5323 H 499.031 -1.12093 -4.06218 0
M  V30 5324 H 497.706 -0.265919 -3.22606 0
M  V30 5325 H 496.613 -2.53421 -2.75188 0
M  V30 5326 H 497.946 -3.31973 -3.63394 0
M  V30 5327 N 499.598 0.982988 -1.23187 0
M  V30 5328 C 500.826 1.75921 -1.08901 0
M  V30 5329 C 501.241 1.85341 0.359719 0
M  V30 5330 O 500.598 1.33072 1.24892 0
M  V30 5331 C 500.649 3.18742 -1.70545 0
M  V30 5332 O 500.37 3.09814 -3.09753 0
M  V30 5333 C 501.871 4.1277 -1.61667 0
M  V30 5334 H 499.091 0.552166 -0.381252 0
M  V30 5335 H 501.635 1.23516 -1.62985 0
M  V30 5336 H 499.79 3.68182 -1.20501 0
M  V30 5337 H 500.204 3.99703 -3.39614 0
M  V30 5338 H 501.678 5.10697 -2.09506 0
M  V30 5339 H 502.155 4.3542 -0.575009 0
M  V30 5340 H 502.761 3.69232 -2.11064 0
M  V30 5341 N 501.076 1.04316 1.18135 0
M  V30 5342 C 502.324 0.746542 1.87806 0
M  V30 5343 C 502.645 -0.728082 1.80898 0
M  V30 5344 O 501.915 -1.52554 1.22899 0
M  V30 5345 H 500.495 0.273157 0.695265 0
M  V30 5346 H 503.157 1.32044 1.43354 0
M  V30 5347 H 502.253 1.05362 2.93778 0
M  V30 5348 N 502.554 -1.34406 0.822964 0
M  V30 5349 C 503.8 -1.98578 0.411666 0
M  V30 5350 C 504.133 -1.65093 -1.02264 0
M  V30 5351 O 503.408 -0.92258 -1.71227 0
M  V30 5352 C 503.691 -3.54823 0.614235 0
M  V30 5353 C 503.544 -3.9805 2.09466 0
M  V30 5354 C 504.863 -4.40071 0.050221 0
M  V30 5355 H 501.982 -0.721355 0.151047 0
M  V30 5356 H 504.624 -1.59301 1.03554 0
M  V30 5357 H 502.774 -3.88411 0.0831774 0
M  V30 5358 H 504.446 -3.74795 2.68936 0
M  V30 5359 H 502.689 -3.4836 2.5851 0
M  V30 5360 H 503.36 -5.06819 2.18721 0
M  V30 5361 H 505.836 -4.13037 0.503953 0
M  V30 5362 H 504.712 -5.48452 0.221759 0
M  V30 5363 H 504.973 -4.29576 -1.04482 0
M  V30 5364 N 504.032 -0.577932 -1.46621 0
M  V30 5365 C 505.309 0.00495287 -1.95599 0
M  V30 5366 C 505.689 1.46428 -1.5206 0
M  V30 5367 O 505.037 2.1517 -0.769046 0
M  V30 5368 C 505.247 -0.162114 -3.48623 0
M  V30 5369 C 506.595 -0.0274623 -4.24591 0
M  V30 5370 O 507.619 -0.0907067 -3.56084 0
M  V30 5371 O 506.478 0.1122 -5.46385 0
M  V30 5372 H 503.572 0.0525057 -0.825332 0
M  V30 5373 H 506.118 -0.645914 -1.56927 0
M  V30 5374 H 504.89 -1.17679 -3.73185 0
M  V30 5375 H 504.513 0.525407 -3.94113 0
M  V30 5376 N 505.51 1.54411 -0.315457 0
M  V30 5377 C 506.42 2.27737 0.56329 0
M  V30 5378 C 507.436 1.31787 1.13614 0
M  V30 5379 O 508.612 1.64791 1.15784 0
M  V30 5380 C 505.677 3.01478 1.71207 0
M  V30 5381 C 504.738 4.12997 1.17185 0
M  V30 5382 C 503.971 4.83212 2.26588 0
M  V30 5383 O 504.194 4.52884 3.46775 0
M  V30 5384 O 503.128 5.70299 1.92463 0
M  V30 5385 H 506.954 3.03683 -0.0319614 0
M  V30 5386 H 504.539 1.49178 -0.0814188 0
M  V30 5387 H 506.421 3.47683 2.38106 0
M  V30 5388 H 505.096 2.28414 2.29366 0
M  V30 5389 H 504.003 3.71159 0.468174 0
M  V30 5390 H 505.336 4.8808 0.635501 0
M  V30 5391 N 506.988 0.0434614 1.5754 0
M  V30 5392 C 508.234 -0.632971 1.92669 0
M  V30 5393 C 508.567 -1.70947 0.921446 0
M  V30 5394 O 507.842 -1.94426 -0.0537202 0
M  V30 5395 C 508.125 -1.23619 3.38216 0
M  V30 5396 C 507.978 -0.168274 4.49485 0
M  V30 5397 C 509.297 -2.15008 3.84005 0
M  V30 5398 H 506.416 -0.228629 0.700641 0
M  V30 5399 H 509.058 0.103651 1.89717 0
M  V30 5400 H 507.208 -1.864 3.40863 0
M  V30 5401 H 508.88 0.463196 4.58969 0
M  V30 5402 H 507.123 0.504581 4.30855 0
M  V30 5403 H 507.794 -0.630218 5.48391 0
M  V30 5404 H 510.27 -1.62198 3.83185 0
M  V30 5405 H 509.146 -2.54161 4.86511 0
M  V30 5406 H 509.407 -3.04707 3.20322 0
M  V30 5407 N 508.466 -1.55915 -0.229846 0
M  V30 5408 C 509.396 -1.94754 -1.28815 0
M  V30 5409 C 510.377 -0.814657 -1.49323 0
M  V30 5410 O 511.562 -1.07631 -1.61645 0
M  V30 5411 C 508.692 -2.25705 -2.63959 0
M  V30 5412 C 507.646 -3.41406 -2.5812 0
M  V30 5413 C 506.972 -3.57941 -3.97218 0
M  V30 5414 C 508.272 -4.76616 -2.13623 0
M  V30 5415 H 509.966 -2.83404 -0.965547 0
M  V30 5416 H 507.512 -1.36353 -0.463028 0
M  V30 5417 H 509.465 -2.51467 -3.38146 0
M  V30 5418 H 508.189 -1.339 -2.9789 0
M  V30 5419 H 506.848 -3.1568 -1.86391 0
M  V30 5420 H 506.496 -2.63526 -4.28443 0
M  V30 5421 H 506.196 -4.35757 -3.94195 0
M  V30 5422 H 507.72 -3.86042 -4.73079 0
M  V30 5423 H 509.134 -5.01637 -2.77549 0
M  V30 5424 H 507.531 -5.57655 -2.21677 0
M  V30 5425 H 508.601 -4.7253 -1.08829 0
M  V30 5426 N 509.944 0.496216 -1.49584 0
M  V30 5427 C 511.172 1.27394 -1.63029 0
M  V30 5428 C 511.587 1.86344 -0.303569 0
M  V30 5429 O 510.944 1.68057 0.711547 0
M  V30 5430 C 510.995 2.40077 -2.70269 0
M  V30 5431 O 510.716 1.83549 -3.97796 0
M  V30 5432 C 512.217 3.31372 -2.94462 0
M  V30 5433 H 509.437 0.386211 -0.54871 0
M  V30 5434 H 511.981 0.595163 -1.95648 0
M  V30 5435 H 510.136 3.03775 -2.40415 0
M  V30 5436 H 510.55 2.57561 -4.56905 0
M  V30 5437 H 512.024 4.06707 -3.73221 0
M  V30 5438 H 512.501 3.88654 -2.0456 0
M  V30 5439 H 513.107 2.73435 -3.25751 0
M  V30 5440 N 511.423 1.38739 0.74761 0
M  V30 5441 C 512.353 1.39173 1.87492 0
M  V30 5442 C 513.334 0.256794 1.6815 0
M  V30 5443 O 514.519 0.460762 1.88655 0
M  V30 5444 C 511.649 1.22197 3.25093 0
M  V30 5445 C 510.603 2.32957 3.59047 0
M  V30 5446 C 509.929 2.01082 4.95449 0
M  V30 5447 C 511.229 3.75237 3.6331 0
M  V30 5448 H 512.923 2.3351 1.87386 0
M  V30 5449 H 510.469 1.12399 0.900134 0
M  V30 5450 H 512.422 1.21124 4.03617 0
M  V30 5451 H 511.146 0.243241 3.25693 0
M  V30 5452 H 509.805 2.33226 2.82845 0
M  V30 5453 H 509.453 1.01678 4.92616 0
M  V30 5454 H 509.153 2.75267 5.19136 0
M  V30 5455 H 510.677 2.01638 5.76346 0
M  V30 5456 H 512.091 3.76966 4.31937 0
M  V30 5457 H 510.488 4.48677 3.98509 0
M  V30 5458 H 511.558 4.07122 2.634 0
M  V30 5459 N 512.901 -0.976442 1.23707 0
M  V30 5460 C 513.831 -2.08749 1.04624 0
M  V30 5461 C 514.812 -1.70057 -0.0380956 0
M  V30 5462 O 515.997 -1.93782 0.127308 0
M  V30 5463 C 513.127 -3.41335 0.640902 0
M  V30 5464 C 512.081 -3.93947 1.67302 0
M  V30 5465 C 511.407 -5.22774 1.12301 0
M  V30 5466 C 512.707 -4.22769 3.06697 0
M  V30 5467 H 514.401 -2.24972 1.97555 0
M  V30 5468 H 511.947 -1.08108 0.951247 0
M  V30 5469 H 513.9 -4.18489 0.494434 0
M  V30 5470 H 512.624 -3.24988 -0.324099 0
M  V30 5471 H 511.283 -3.18941 1.80755 0
M  V30 5472 H 510.931 -5.0278 0.148877 0
M  V30 5473 H 510.631 -5.58942 1.81267 0
M  V30 5474 H 512.155 -6.02546 0.988479 0
M  V30 5475 H 513.569 -4.90659 2.96524 0
M  V30 5476 H 511.966 -4.70147 3.72937 0
M  V30 5477 H 513.036 -3.29885 3.55392 0
M  V30 5478 N 514.379 -1.04941 -1.1758 0
M  V30 5479 C 515.326 -0.648155 -2.21512 0
M  V30 5480 C 516.296 0.348431 -1.62404 0
M  V30 5481 O 517.481 0.240419 -1.89279 0
M  V30 5482 C 514.621 -0.0264291 -3.4509 0
M  V30 5483 C 513.734 -1.07154 -4.185 0
M  V30 5484 C 512.869 -0.417403 -5.29558 0
M  V30 5485 C 511.908 -1.447 -5.94751 0
M  V30 5486 N 511.045 -0.817203 -6.97328 0
M  V30 5487 H 515.885 -1.53891 -2.55189 0
M  V30 5488 H 513.422 -0.769699 -1.25356 0
M  V30 5489 H 515.38 0.351456 -4.15717 0
M  V30 5490 H 514.01 0.827802 -3.12005 0
M  V30 5491 H 513.062 -1.56728 -3.46613 0
M  V30 5492 H 514.374 -1.8532 -4.63096 0
M  V30 5493 H 513.528 0.0142061 -6.06698 0
M  V30 5494 H 512.267 0.396265 -4.86087 0
M  V30 5495 H 511.272 -1.88865 -5.16343 0
M  V30 5496 H 512.497 -2.26252 -6.40302 0
M  V30 5497 H 510.443 -0.0239995 -6.55996 0
M  V30 5498 H 510.36 -1.53644 -7.40223 0
M  V30 5499 H 511.628 -0.410283 -7.7842 0
M  V30 5500 N 515.857 1.33968 -0.830081 0
M  V30 5501 C 516.82 2.27694 -0.26235 0
M  V30 5502 C 517.82 1.50589 0.563876 0
M  V30 5503 O 519.01 1.70028 0.378941 0
M  V30 5504 C 516.142 3.35002 0.63138 0
M  V30 5505 H 517.335 2.79419 -1.08928 0
M  V30 5506 H 514.888 1.44221 -0.602486 0
M  V30 5507 H 515.623 2.88504 1.48109 0
M  V30 5508 H 515.408 3.92079 0.0403276 0
M  V30 5509 H 516.898 4.04897 1.02217 0
M  V30 5510 N 517.335 0.585699 1.46312 0
M  V30 5511 C 518.612 0.00542031 1.95599 0
M  V30 5512 C 518.992 -1.45619 1.52834 0
M  V30 5513 O 518.34 -2.14759 0.780446 0
M  V30 5514 C 518.55 0.180601 3.48532 0
M  V30 5515 C 519.898 0.049979 4.24571 0
M  V30 5516 O 520.922 0.109589 3.56031 0
M  V30 5517 O 519.781 -0.0832226 5.46437 0
M  V30 5518 H 516.875 -0.0481281 0.825598 0
M  V30 5519 H 519.421 0.654227 1.56582 0
M  V30 5520 H 518.193 1.19657 3.72556 0
M  V30 5521 H 517.816 -0.504498 3.94386 0
M  V30 5522 N 518.813 -1.54241 0.323641 0
M  V30 5523 C 520.062 -1.9975 -0.279806 0
M  V30 5524 C 520.375 -1.2156 -1.5324 0
M  V30 5525 O 521.581 -1.57447 -2.21185 0
M  V30 5526 C 520.037 -3.55686 -0.549115 0
M  V30 5527 C 519.645 -4.4271 0.686432 0
M  V30 5528 C 521.389 -4.09663 -1.11251 0
M  V30 5529 C 519.296 -5.90119 0.389022 0
M  V30 5530 H 518.226 -0.746177 -0.10833 0
M  V30 5531 H 520.877 -1.78248 0.435877 0
M  V30 5532 H 519.259 -3.73176 -1.32499 0
M  V30 5533 H 520.433 -4.36996 1.46188 0
M  V30 5534 H 518.748 -3.99623 1.17005 0
M  V30 5535 H 521.345 -5.17386 -1.34965 0
M  V30 5536 H 521.688 -3.61651 -2.06191 0
M  V30 5537 H 522.221 -3.95806 -0.39782 0
M  V30 5538 H 518.96 -6.42326 1.30759 0
M  V30 5539 H 518.48 -5.98785 -0.348722 0
M  V30 5540 H 520.159 -6.47 -0.0011164 0
M  V30 5541 N 520.291 -0.0518155 -1.57515 0
M  V30 5542 C 521.568 0.661727 -1.84067 0
M  V30 5543 C 521.948 1.88999 -0.940351 0
M  V30 5544 O 521.296 2.285 -0.00155404 0
M  V30 5545 C 521.506 1.01841 -3.3381 0
M  V30 5546 C 522.854 1.40043 -4.00841 0
M  V30 5547 O 523.878 1.11073 -3.38439 0
M  V30 5548 O 522.737 1.94111 -5.10865 0
M  V30 5549 H 519.831 0.326702 -0.759733 0
M  V30 5550 H 522.377 -0.0812277 -1.69505 0
M  V30 5551 H 521.149 0.145202 -3.91031 0
M  V30 5552 H 520.772 1.81879 -3.53562 0
M  V30 5553 N 521.769 1.56035 0.221574 0
M  V30 5554 C 523.185 1.49026 0.571271 0
M  V30 5555 C 523.385 0.746912 1.87146 0
M  V30 5556 O 522.441 0.286566 2.50869 0
M  V30 5557 C 523.754 2.93579 0.650522 0
M  V30 5558 C 525.302 3.04099 0.741151 0
M  V30 5559 C 525.777 4.5001 0.851747 0
M  V30 5560 N 527.268 4.54053 0.915968 0
M  V30 5561 C 528.003 5.64232 1.02125 0
M  V30 5562 N 527.499 6.84164 1.09049 0
M  V30 5563 N 529.292 5.52084 1.05639 0
M  V30 5564 H 521.443 2.02791 -0.63162 0
M  V30 5565 H 523.706 0.921736 -0.221602 0
M  V30 5566 H 523.412 3.50912 -0.235253 0
M  V30 5567 H 523.286 3.45476 1.51413 0
M  V30 5568 H 525.673 2.4683 1.61737 0
M  V30 5569 H 525.754 2.55371 -0.148128 0
M  V30 5570 H 525.398 5.07896 -0.0200117 0
M  V30 5571 H 525.328 4.96444 1.75644 0
M  V30 5572 H 527.819 3.67683 0.872782 0
M  V30 5573 H 528.132 7.63883 1.1706 0
M  V30 5574 H 526.477 6.86875 1.05962 0
M  V30 5575 H 529.668 4.57317 0.998953 0
M  V30 5576 H 529.841 6.37983 1.13498 0
M  V30 5577 N 523.247 -0.488276 1.49845 0
M  V30 5578 C 524.475 -1.26527 1.63702 0
M  V30 5579 C 524.89 -1.8618 0.313447 0
M  V30 5580 O 524.247 -1.68432 -0.702624 0
M  V30 5581 C 524.298 -2.3864 2.71538 0
M  V30 5582 O 524.019 -1.81437 3.98763 0
M  V30 5583 C 525.52 -3.29805 2.96215 0
M  V30 5584 H 522.74 -0.383295 0.55075 0
M  V30 5585 H 525.284 -0.584779 1.95961 0
M  V30 5586 H 523.439 -3.02496 2.42023 0
M  V30 5587 H 523.853 -2.55135 4.58265 0
M  V30 5588 H 525.327 -4.04722 3.75372 0
M  V30 5589 H 525.804 -3.87563 2.06619 0
M  V30 5590 H 526.41 -2.71703 3.27196 0
M  V30 5591 N 524.725 -1.39134 -0.740242 0
M  V30 5592 C 525.655 -1.40165 -1.86751 0
M  V30 5593 C 526.636 -0.265708 -1.68012 0
M  V30 5594 O 527.821 -0.47076 -1.88408 0
M  V30 5595 C 524.951 -1.2392 -3.2444 0
M  V30 5596 C 523.905 -2.34858 -3.57807 0
M  V30 5597 C 523.231 -2.03707 -4.94376 0
M  V30 5598 C 524.531 -3.77159 -3.61315 0
M  V30 5599 H 526.225 -2.345 -1.86145 0
M  V30 5600 H 523.771 -1.12875 -0.89416 0
M  V30 5601 H 525.724 -1.23263 -4.02969 0
M  V30 5602 H 524.448 -0.26051 -3.25559 0
M  V30 5603 H 523.107 -2.34723 -2.81604 0
M  V30 5604 H 522.755 -1.04289 -4.9207 0
M  V30 5605 H 522.455 -2.78016 -5.17669 0
M  V30 5606 H 523.979 -2.04691 -5.75268 0
M  V30 5607 H 525.393 -3.79252 -4.29931 0
M  V30 5608 H 523.79 -4.50784 -3.96124 0
M  V30 5609 H 524.86 -4.08513 -2.61238 0
M  V30 5610 N 526.204 0.969867 -1.24223 0
M  V30 5611 C 527.167 2.04564 -1.03373 0
M  V30 5612 C 528.167 1.60798 0.00819206 0
M  V30 5613 O 529.357 1.72641 -0.232567 0
M  V30 5614 C 526.489 3.36163 -0.566343 0
M  V30 5615 H 527.682 2.24494 -1.98853 0
M  V30 5616 H 525.235 1.1448 -1.06415 0
M  V30 5617 H 525.97 3.21925 0.391751 0
M  V30 5618 H 525.755 3.69273 -1.31834 0
M  V30 5619 H 527.245 4.1526 -0.441435 0
M  V30 5620 N 527.682 1.05563 1.17022 0
M  V30 5621 C 528.614 0.617888 2.20714 0
M  V30 5622 C 529.627 -0.320303 1.59618 0
M  V30 5623 O 530.816 -0.112449 1.78145 0
M  V30 5624 C 527.916 -0.115333 3.38704 0
M  V30 5625 C 527.089 0.834493 4.29366 0
M  V30 5626 C 526.148 0.141855 5.26009 0
M  V30 5627 O 525.174 0.777151 5.6387 0
M  V30 5628 N 526.376 -1.11934 5.69606 0
M  V30 5629 H 529.141 1.50981 2.58892 0
M  V30 5630 H 526.702 0.938008 1.31958 0
M  V30 5631 H 528.694 -0.588918 4.00392 0
M  V30 5632 H 527.264 -0.908967 2.99093 0
M  V30 5633 H 526.484 1.48762 3.65053 0
M  V30 5634 H 527.772 1.4791 4.86827 0
M  V30 5635 H 527.17 -1.65574 5.40927 0
M  V30 5636 H 525.727 -1.53692 6.33421 0
M  V30 5637 N 529.16 -1.33526 0.837174 0
M  V30 5638 C 530.409 -1.97098 0.428387 0
M  V30 5639 C 530.722 -1.67062 -1.01734 0
M  V30 5640 O 531.928 -2.24235 -1.53072 0
M  V30 5641 C 530.384 -3.52725 0.715075 0
M  V30 5642 C 529.992 -3.9164 2.17537 0
M  V30 5643 C 531.736 -4.22857 0.373154 0
M  V30 5644 C 529.643 -5.40237 2.40619 0
M  V30 5645 H 528.573 -0.737589 0.156455 0
M  V30 5646 H 531.224 -1.52169 1.02552 0
M  V30 5647 H 529.606 -3.95971 0.0475904 0
M  V30 5648 H 530.78 -3.59456 2.88319 0
M  V30 5649 H 529.095 -3.34485 2.4801 0
M  V30 5650 H 531.692 -5.32133 0.523264 0
M  V30 5651 H 532.035 -4.10647 -0.683708 0
M  V30 5652 H 532.568 -3.85135 0.995801 0
M  V30 5653 H 529.307 -5.57449 3.44864 0
M  V30 5654 H 528.827 -5.73887 1.74396 0
M  V30 5655 H 530.506 -6.07102 2.23688 0
M  V30 5656 N 530.638 -0.59345 -1.46 0
M  V30 5657 C 531.886 -0.082988 -2.0193 0
M  V30 5658 C 532.207 1.28569 -1.46612 0
M  V30 5659 O 531.477 1.84629 -0.654909 0
M  V30 5660 H 530.057 -0.0276882 -0.746487 0
M  V30 5661 H 532.719 -0.771657 -1.78973 0
M  V30 5662 H 531.815 -0.022079 -3.12092 0
M  V30 5663 N 532.116 1.54067 -0.331816 0
M  V30 5664 C 533.356 2.02625 0.26876 0
M  V30 5665 C 533.72 1.21462 1.48697 0
M  V30 5666 O 534.921 1.59863 2.16096 0
M  V30 5667 C 533.192 3.52554 0.586577 0
M  V30 5668 S 534.751 4.23035 1.16563 0
M  V30 5669 H 531.569 0.706395 0.0807862 0
M  V30 5670 H 534.171 1.89844 -0.466856 0
M  V30 5671 H 532.875 4.09242 -0.308046 0
M  V30 5672 H 532.406 3.69432 1.35217 0
M  V30 5673 H 534.421 4.31382 2.45203 0
M  V30 5674 N 533.594 0.0601682 1.57485 0
M  V30 5675 C 535.005 -0.474217 1.80577 0
M  V30 5676 C 535.356 -1.70365 0.973147 0
M  V30 5677 O 534.481 -2.15544 0.192306 0
M  V30 5678 C 535.076 -0.867102 3.27516 0
M  V30 5679 C 533.635 -1.34642 3.51495 0
M  V30 5680 C 532.782 -0.32594 2.75378 0
M  V30 5681 H 535.733 0.285973 1.56102 0
M  V30 5682 H 535.754 -1.72938 3.38929 0
M  V30 5683 H 535.266 0.0278927 3.8809 0
M  V30 5684 H 533.367 -2.2603 2.96212 0
M  V30 5685 H 533.48 -1.33237 4.60201 0
M  V30 5686 H 531.844 -0.800749 2.41785 0
M  V30 5687 H 532.627 0.561125 3.38683 0
M  V30 5688 N 535.072 -1.5615 -0.213296 0
M  V30 5689 C 536.349 -1.70349 -0.961281 0
M  V30 5690 C 536.729 -0.609791 -2.02101 0
M  V30 5691 O 536.077 0.381987 -2.25285 0
M  V30 5692 C 536.287 -3.11982 -1.56424 0
M  V30 5693 C 537.635 -3.71649 -2.05334 0
M  V30 5694 O 538.659 -3.14995 -1.66302 0
M  V30 5695 O 537.518 -4.71038 -2.77102 0
M  V30 5696 H 534.612 -0.694121 -0.449582 0
M  V30 5697 H 537.158 -1.68464 -0.204426 0
M  V30 5698 H 535.93 -3.83046 -0.799457 0
M  V30 5699 H 535.553 -3.18019 -2.38641 0
M  V30 5700 N 536.55 0.480323 -1.50102 0
M  V30 5701 C 537.799 1.22979 -1.59872 0
M  V30 5702 C 538.112 1.93282 -0.30022 0
M  V30 5703 O 539.318 2.70086 -0.276709 0
M  V30 5704 C 537.774 2.23408 -2.82164 0
M  V30 5705 C 537.382 1.5895 -4.18854 0
M  V30 5706 C 539.126 2.99055 -3.01275 0
M  V30 5707 C 537.033 2.57611 -5.32344 0
M  V30 5708 H 535.963 0.462707 -0.59533 0
M  V30 5709 H 538.614 0.501291 -1.7652 0
M  V30 5710 H 536.996 2.99511 -2.59055 0
M  V30 5711 H 538.17 0.887 -4.52182 0
M  V30 5712 H 536.485 0.956191 -4.05273 0
M  V30 5713 H 539.082 3.72876 -3.83233 0
M  V30 5714 H 539.425 3.57897 -2.12639 0
M  V30 5715 H 539.958 2.30066 -3.24522 0
M  V30 5716 H 536.697 2.03521 -6.23105 0
M  V30 5717 H 536.217 3.26041 -5.03445 0
M  V30 5718 H 537.896 3.19627 -5.62537 0
M  V30 5719 N 538.028 1.39524 0.732853 0
M  V30 5720 C 539.256 1.40143 1.52209 0
M  V30 5721 C 539.671 -0.00348836 1.888 0
M  V30 5722 O 539.028 -0.975357 1.5425 0
M  V30 5723 C 539.079 2.27632 2.8083 0
M  V30 5724 O 538.8 3.62654 2.45792 0
M  V30 5725 C 540.301 2.36658 3.74844 0
M  V30 5726 H 537.521 0.478604 0.470297 0
M  V30 5727 H 540.065 1.83366 0.905388 0
M  V30 5728 H 538.22 1.87818 3.38826 0
M  V30 5729 H 538.634 4.08941 3.28431 0
M  V30 5730 H 540.108 3.02118 4.61984 0
M  V30 5731 H 540.585 1.38638 4.16745 0
M  V30 5732 H 541.191 2.76951 3.22766 0
M  V30 5733 N 539.506 -0.963266 1.24736 0
M  V30 5734 C 540.731 -1.74699 1.11781 0
M  V30 5735 C 541.156 -1.85267 -0.325258 0
M  V30 5736 O 540.514 -1.32681 -1.23553 0
M  V30 5737 C 540.562 -3.14322 1.76731 0
M  V30 5738 O 539.666 -3.99043 1.04109 0
M  V30 5739 H 539.007 -0.53684 0.390767 0
M  V30 5740 H 541.537 -1.20801 1.65131 0
M  V30 5741 H 541.547 -3.64824 1.82668 0
M  V30 5742 H 540.222 -3.05946 2.81726 0
M  V30 5743 H 538.799 -3.5752 1.05991 0
M  V30 5744 N 540.985 -1.06182 -1.16461 0
M  V30 5745 C 541.915 -0.692861 -2.22984 0
M  V30 5746 C 542.896 0.314122 -1.67174 0
M  V30 5747 O 544.081 0.189499 -1.93273 0
M  V30 5748 C 541.211 -0.07732 -3.47214 0
M  V30 5749 C 540.165 -1.01015 -4.15909 0
M  V30 5750 C 539.491 -0.257973 -5.34077 0
M  V30 5751 C 540.791 -2.33868 -4.67015 0
M  V30 5752 H 542.485 -1.58343 -2.54102 0
M  V30 5753 H 540.031 -0.76279 -1.22137 0
M  V30 5754 H 541.984 0.19266 -4.20959 0
M  V30 5755 H 540.708 0.848254 -3.15392 0
M  V30 5756 H 539.367 -1.26486 -3.44088 0
M  V30 5757 H 539.015 0.670684 -4.98509 0
M  V30 5758 H 538.715 -0.879638 -5.80979 0
M  V30 5759 H 540.239 0.00448788 -6.106 0
M  V30 5760 H 541.653 -2.1279 -5.32347 0
M  V30 5761 H 540.05 -2.91522 -5.24533 0
M  V30 5762 H 541.12 -2.97019 -3.83286 0
M  V30 5763 N 542.463 1.3308 -0.844243 0
M  V30 5764 C 543.688 2.02341 -0.455282 0
M  V30 5765 C 544.113 1.6308 0.93737 0
M  V30 5766 O 543.471 0.826118 1.61385 0
M  V30 5767 C 543.519 3.55743 -0.58988 0
M  V30 5768 O 542.623 4.1063 0.38166 0
M  V30 5769 H 541.964 0.637898 -0.184343 0
M  V30 5770 H 544.494 1.6986 -1.14056 0
M  V30 5771 H 544.504 4.05243 -0.473522 0
M  V30 5772 H 543.179 3.83662 -1.60549 0
M  V30 5773 H 541.756 3.72236 0.22241 0
M  V30 5774 N 543.941 0.601185 1.45683 0
M  V30 5775 C 545.352 0.179659 1.85834 0
M  V30 5776 C 545.703 -1.26189 1.50236 0
M  V30 5777 O 544.828 -1.95587 0.925987 0
M  V30 5778 C 545.423 0.319277 3.37292 0
M  V30 5779 C 543.982 -0.0475092 3.7637 0
M  V30 5780 C 543.129 0.646692 2.69654 0
M  V30 5781 H 546.08 0.808268 1.36575 0
M  V30 5782 H 546.101 -0.4503 3.77826 0
M  V30 5783 H 545.613 1.36855 3.6317 0
M  V30 5784 H 543.714 -1.0962 3.5611 0
M  V30 5785 H 543.827 0.34168 4.7788 0
M  V30 5786 H 542.191 0.0849971 2.54558 0
M  V30 5787 H 542.974 1.69797 2.98369 0
M  V30 5788 N 545.419 -1.53889 0.339982 0
M  V30 5789 C 546.696 -1.93084 -0.312719 0
M  V30 5790 C 547.076 -1.2712 -1.68534 0
M  V30 5791 O 546.424 -0.420835 -2.24591 0
M  V30 5792 C 546.634 -3.4683 -0.388558 0
M  V30 5793 C 547.982 -4.19732 -0.641088 0
M  V30 5794 O 549.006 -3.53075 -0.470818 0
M  V30 5795 O 547.865 -5.3781 -0.970685 0
M  V30 5796 H 544.959 -0.806784 -0.18174 0
M  V30 5797 H 547.505 -1.65137 0.390898 0
M  V30 5798 H 546.277 -3.87055 0.574821 0
M  V30 5799 H 545.9 -3.80933 -1.1391 0
M  V30 5800 N 546.897 -0.0685191 -1.57451 0
M  V30 5801 C 548.127 0.609577 -1.97402 0
M  V30 5802 C 548.535 1.63882 -0.945489 0
M  V30 5803 O 547.878 1.8354 0.0766052 0
M  V30 5804 C 547.94 1.3385 -3.33653 0
M  V30 5805 C 547.604 0.463103 -4.54648 0
M  V30 5806 C 548.601 -0.277964 -5.19156 0
M  V30 5807 C 546.286 0.388941 -5.00792 0
M  V30 5808 C 548.28 -1.08145 -6.28159 0
M  V30 5809 C 545.967 -0.418217 -6.09667 0
M  V30 5810 C 546.965 -1.15208 -6.73213 0
M  V30 5811 O 546.653 -1.94594 -7.79993 0
M  V30 5812 H 546.385 0.170197 -0.654224 0
M  V30 5813 H 548.939 -0.13647 -2.04946 0
M  V30 5814 H 547.169 2.13055 -3.22714 0
M  V30 5815 H 548.858 1.90851 -3.58233 0
M  V30 5816 H 549.624 -0.230241 -4.84453 0
M  V30 5817 H 545.503 0.949769 -4.5111 0
M  V30 5818 H 549.047 -1.65476 -6.7769 0
M  V30 5819 H 544.944 -0.467515 -6.43805 0
M  V30 5820 H 545.712 -1.8699 -7.96854 0
M  V30 5821 N 548.375 1.56261 0.205012 0
M  V30 5822 C 549.305 1.96779 1.257 0
M  V30 5823 C 550.286 0.838309 1.48008 0
M  V30 5824 O 551.471 1.10189 1.59913 0
M  V30 5825 C 548.601 2.29876 2.60335 0
M  V30 5826 C 547.555 3.45469 2.52656 0
M  V30 5827 C 546.881 3.64215 3.91473 0
M  V30 5828 C 548.181 4.79954 2.06014 0
M  V30 5829 H 549.875 2.84904 0.920338 0
M  V30 5830 H 547.421 1.37072 0.441277 0
M  V30 5831 H 549.374 2.56814 3.34102 0
M  V30 5832 H 548.098 1.38622 2.95722 0
M  V30 5833 H 546.757 3.18605 1.81345 0
M  V30 5834 H 546.405 2.70309 4.24196 0
M  V30 5835 H 546.105 4.41973 3.87213 0
M  V30 5836 H 547.629 3.93519 4.66878 0
M  V30 5837 H 549.043 5.05989 2.69533 0
M  V30 5838 H 547.44 5.61111 2.12777 0
M  V30 5839 H 548.51 4.74201 1.01297 0
M  V30 5840 N 549.853 -0.472356 1.50355 0
M  V30 5841 C 550.785 -1.58795 1.65278 0
M  V30 5842 C 551.798 -1.53782 0.534313 0
M  V30 5843 O 552.987 -1.59193 0.807446 0
M  V30 5844 C 550.087 -2.97672 1.62001 0
M  V30 5845 C 549.26 -3.27568 2.89859 0
M  V30 5846 C 548.319 -4.45993 2.79242 0
M  V30 5847 O 547.345 -4.46364 3.53197 0
M  V30 5848 N 548.547 -5.47578 1.92713 0
M  V30 5849 H 551.312 -1.46411 2.61503 0
M  V30 5850 H 548.873 -0.660751 1.47803 0
M  V30 5851 H 550.865 -3.74862 1.52513 0
M  V30 5852 H 549.435 -3.03832 0.735159 0
M  V30 5853 H 548.655 -2.39003 3.13483 0
M  V30 5854 H 549.943 -3.44352 3.74565 0
M  V30 5855 H 549.341 -5.50099 1.31939 0
M  V30 5856 H 547.898 -6.23757 1.8913 0
M  V30 5857 N 551.331 -1.39911 -0.725443 0
M  V30 5858 C 552.279 -1.39552 -1.86086 0
M  V30 5859 C 553.273 -0.277334 -1.67114 0
M  V30 5860 O 554.479 -0.447865 -1.74339 0
M  V30 5861 H 550.854 -0.435993 -0.612711 0
M  V30 5862 H 552.825 -2.35305 -1.83505 0
M  V30 5863 C 551.574 -1.26529 -3.2386 0
M  V30 5864 H 550.897 -2.11845 -3.3906 0
M  V30 5865 H 552.337 -1.30336 -4.03471 0
M  V30 5866 C 550.796 0.0254168 -3.3689 0
M  V30 5867 O 551.326 0.992048 -3.89257 0
M  V30 5868 N 549.532 0.0916528 -2.90455 0
M  V30 5869 H 549.079 -0.695675 -2.48028 0
M  V30 5870 H 549.037 0.954745 -2.99553 0
M  V30 5871 N 552.809 0.956637 -1.25245 0
M  V30 5872 C 553.719 2.0868 -1.0719 0
M  V30 5873 C 554.735 1.73997 -0.00959074 0
M  V30 5874 O 555.911 2.00301 -0.210104 0
M  V30 5875 C 552.976 3.39754 -0.690526 0
M  V30 5876 C 552.037 3.88316 -1.83055 0
M  V30 5877 C 551.27 5.13134 -1.46728 0
M  V30 5878 O 551.493 5.6925 -0.362029 0
M  V30 5879 O 550.427 5.56356 -2.29677 0
M  V30 5880 H 554.253 2.26813 -2.01965 0
M  V30 5881 H 551.838 1.07098 -1.04165 0
M  V30 5882 H 553.72 4.18543 -0.489871 0
M  V30 5883 H 552.395 3.22896 0.227981 0
M  V30 5884 H 551.302 3.1054 -2.08604 0
M  V30 5885 H 552.635 4.09669 -2.72822 0
M  V30 5886 N 554.287 1.06798 1.15896 0
M  V30 5887 C 555.535 0.786211 1.8618 0
M  V30 5888 C 555.856 -0.689547 1.82401 0
M  V30 5889 O 555.126 -1.49913 1.26107 0
M  V30 5890 H 553.706 0.287843 0.689315 0
M  V30 5891 H 556.368 1.35055 1.40521 0
M  V30 5892 H 555.464 1.1157 2.91477 0
M  V30 5893 N 555.766 -1.3263 0.851289 0
M  V30 5894 C 557.012 -1.9766 0.453694 0
M  V30 5895 C 557.345 -1.67225 -0.987396 0
M  V30 5896 O 556.62 -0.958693 -1.69232 0
M  V30 5897 C 556.903 -3.5344 0.68936 0
M  V30 5898 C 556.756 -3.93517 2.17862 0
M  V30 5899 C 558.075 -4.39866 0.143555 0
M  V30 5900 H 555.194 -0.717989 0.166314 0
M  V30 5901 H 557.836 -1.57068 1.06909 0
M  V30 5902 H 555.986 -3.88147 0.165546 0
M  V30 5903 H 557.658 -3.69006 2.76826 0
M  V30 5904 H 555.901 -3.42798 2.65841 0
M  V30 5905 H 556.572 -5.02065 2.29422 0
M  V30 5906 H 559.048 -4.11875 0.591451 0
M  V30 5907 H 557.924 -5.47858 0.338043 0
M  V30 5908 H 558.185 -4.31696 -0.953466 0
M  V30 5909 N 557.244 -0.608902 -1.45362 0
M  V30 5910 C 558.472 -0.111013 -2.06602 0
M  V30 5911 C 558.887 1.20516 -1.45332 0
M  V30 5912 O 558.244 1.73437 -0.567978 0
M  V30 5913 C 558.295 0.033688 -3.61484 0
M  V30 5914 O 558.016 -1.23041 -4.20467 0
M  V30 5915 C 559.517 0.562882 -4.39712 0
M  V30 5916 H 556.737 -0.0694453 -0.667397 0
M  V30 5917 H 559.281 -0.837008 -1.86586 0
M  V30 5918 H 557.436 0.710016 -3.80838 0
M  V30 5919 H 557.85 -1.06094 -5.13658 0
M  V30 5920 H 559.324 0.613213 -5.48583 0
M  V30 5921 H 559.801 1.58543 -4.09586 0
M  V30 5922 H 560.407 -0.0794454 -4.25226 0
M  V30 5923 N 558.722 1.53707 -0.348139 0
M  V30 5924 C 559.67 2.26671 0.521808 0
M  V30 5925 C 560.664 1.28988 1.09811 0
M  V30 5926 O 561.87 1.4668 1.04332 0
M  V30 5927 H 558.245 0.728387 0.186968 0
M  V30 5928 H 560.216 2.98176 -0.115563 0
M  V30 5929 C 558.965 3.05591 1.6586 0
M  V30 5930 H 558.288 3.80589 1.22443 0
M  V30 5931 H 559.728 3.59851 2.24239 0
M  V30 5932 C 558.187 2.15366 2.59073 0
M  V30 5933 O 558.717 1.7528 3.61441 0
M  V30 5934 N 556.923 1.80352 2.27863 0
M  V30 5935 H 556.47 2.13149 1.44656 0
M  V30 5936 H 556.428 1.20268 2.90488 0
M  V30 5937 N 560.2 0.0768682 1.57412 0
M  V30 5938 C 561.428 -0.59997 1.9801 0
M  V30 5939 C 561.843 -1.62842 0.955408 0
M  V30 5940 O 561.2 -1.8241 -0.057314 0
M  V30 5941 C 561.251 -1.26401 3.38681 0
M  V30 5942 O 560.972 -0.276723 4.37225 0
M  V30 5943 C 562.473 -2.0282 3.94182 0
M  V30 5944 H 559.693 -0.162239 0.651091 0
M  V30 5945 H 562.237 0.150771 2.03943 0
M  V30 5946 H 560.392 -1.96581 3.33819 0
M  V30 5947 H 560.806 -0.753744 5.19056 0
M  V30 5948 H 562.28 -2.44667 4.94815 0
M  V30 5949 H 562.757 -2.88678 3.31001 0
M  V30 5950 H 563.363 -1.37496 4.02461 0
M  V30 5951 N 561.678 -1.56367 -0.196722 0
M  V30 5952 C 562.641 -1.93561 -1.22746 0
M  V30 5953 C 563.641 -0.816566 -1.38524 0
M  V30 5954 O 564.831 -1.084 -1.36363 0
M  V30 5955 C 561.963 -2.20823 -2.59712 0
M  V30 5956 H 563.156 -2.85774 -0.909586 0
M  V30 5957 H 560.709 -1.50032 -0.438174 0
M  V30 5958 H 561.444 -1.31243 -2.96557 0
M  V30 5959 H 561.229 -3.02368 -2.49632 0
M  V30 5960 H 562.719 -2.50608 -3.34044 0
M  V30 5961 N 563.156 0.464375 -1.50603 0
M  V30 5962 C 564.567 1.04507 -1.5471 0
M  V30 5963 C 564.918 1.9297 -0.354542 0
M  V30 5964 O 564.043 2.09763 0.531812 0
M  V30 5965 C 564.638 1.90207 -2.80369 0
M  V30 5966 C 563.197 2.43373 -2.87135 0
M  V30 5967 C 562.344 1.21886 -2.49076 0
M  V30 5968 H 565.295 0.246716 -1.56771 0
M  V30 5969 H 565.316 2.75353 -2.62604 0
M  V30 5970 H 564.828 1.25796 -3.67147 0
M  V30 5971 H 562.929 3.11318 -2.04724 0
M  V30 5972 H 563.042 2.7802 -3.90181 0
M  V30 5973 H 561.406 1.55575 -2.01664 0
M  V30 5974 H 562.189 0.591268 -3.3817 0
M  V30 5975 N 564.634 1.40294 0.718013 0
M  V30 5976 C 565.88 1.38645 1.48005 0
M  V30 5977 C 566.213 -0.0121202 1.94196 0
M  V30 5978 O 565.488 -0.980309 1.67989 0
M  V30 5979 C 565.771 2.37379 2.70782 0
M  V30 5980 C 565.624 3.8625 2.30501 0
M  V30 5981 C 566.943 2.33685 3.72933 0
M  V30 5982 H 564.062 0.504928 0.536858 0
M  V30 5983 H 566.704 1.71411 0.819649 0
M  V30 5984 H 564.854 2.09568 3.27129 0
M  V30 5985 H 566.526 4.24879 1.79655 0
M  V30 5986 H 564.769 4.02202 1.6253 0
M  V30 5987 H 565.44 4.50847 3.18498 0
M  V30 5988 H 567.916 2.58314 3.2621 0
M  V30 5989 H 566.792 3.0482 4.56482 0
M  V30 5990 H 567.053 1.34765 4.21059 0
M  V30 5991 N 566.112 -0.949982 1.2575 0
M  V30 5992 C 567.389 -1.6718 1.01539 0
M  V30 5993 C 567.769 -2.06095 -0.456942 0
M  V30 5994 O 567.117 -1.77792 -1.43534 0
M  V30 5995 C 567.327 -2.8906 1.95564 0
M  V30 5996 C 568.675 -3.60909 2.23673 0
M  V30 5997 O 569.699 -2.9915 1.9336 0
M  V30 5998 O 568.558 -4.72127 2.75243 0
M  V30 5999 H 565.652 -0.731697 0.385419 0
M  V30 6000 H 568.198 -1.00249 1.36924 0
M  V30 6001 H 566.97 -2.57128 2.94959 0
M  V30 6002 H 566.593 -3.63719 1.60605 0
M  V30 6003 N 567.59 -1.07411 -1.15328 0
M  V30 6004 C 568.54 -0.664788 -2.18093 0
M  V30 6005 C 569.524 0.310395 -1.57878 0
M  V30 6006 O 570.716 0.124026 -1.76565 0
M  V30 6007 C 567.845 -0.0647822 -3.43239 0
M  V30 6008 C 566.931 -1.06514 -4.10506 0
M  V30 6009 N 567.322 -2.24491 -4.53252 0
M  V30 6010 C 565.62 -0.898613 -4.36853 0
M  V30 6011 C 566.321 -2.8796 -5.05424 0
M  V30 6012 N 565.297 -2.15622 -4.99007 0
M  V30 6013 H 569.099 -1.56333 -2.48872 0
M  V30 6014 H 566.613 -0.947393 -1.31902 0
M  V30 6015 H 568.61 0.246363 -4.16171 0
M  V30 6016 H 567.27 0.828866 -3.13943 0
M  V30 6017 H 568.281 -2.62205 -4.46619 0
M  V30 6018 H 564.958 -0.0579118 -4.1746 0
M  V30 6019 H 566.348 -3.88137 -5.48452 0
M  V30 6020 N 569.068 1.32177 -0.85831 0
M  V30 6021 C 569.998 2.31282 -0.321041 0
M  V30 6022 C 570.979 1.59841 0.581786 0
M  V30 6023 O 572.164 1.87619 0.501262 0
M  V30 6024 C 569.294 3.4385 0.48832 0
M  V30 6025 C 568.248 4.26799 -0.320391 0
M  V30 6026 C 567.574 5.31164 0.613934 0
M  V30 6027 C 568.874 4.98829 -1.54813 0
M  V30 6028 H 570.568 2.76469 -1.14915 0
M  V30 6029 H 568.114 1.32916 -0.554028 0
M  V30 6030 H 570.067 4.12224 0.874626 0
M  V30 6031 H 568.791 2.97401 1.34983 0
M  V30 6032 H 567.45 3.60077 -0.688497 0
M  V30 6033 H 567.098 4.80967 1.47239 0
M  V30 6034 H 566.798 5.8755 0.0768097 0
M  V30 6035 H 568.322 6.024 0.997336 0
M  V30 6036 H 569.736 5.59864 -1.23392 0
M  V30 6037 H 568.133 5.64957 -2.02346 0
M  V30 6038 H 569.203 4.26483 -2.30739 0
M  V30 6039 N 570.547 0.616602 1.45037 0
M  V30 6040 C 571.796 0.112861 2.01384 0
M  V30 6041 C 572.109 -1.26758 1.48969 0
M  V30 6042 O 573.315 -1.86454 1.9735 0
M  V30 6043 C 571.771 0.151057 3.59583 0
M  V30 6044 C 571.379 1.53191 4.20995 0
M  V30 6045 C 573.123 -0.296974 4.2346 0
M  V30 6046 C 571.03 1.526 5.71373 0
M  V30 6047 H 569.96 0.0384254 0.75302 0
M  V30 6048 H 572.611 0.773262 1.66412 0
M  V30 6049 H 570.993 -0.57617 3.91786 0
M  V30 6050 H 572.167 2.28156 4.00352 0
M  V30 6051 H 570.482 1.92279 3.69348 0
M  V30 6052 H 573.079 -0.320712 5.33737 0
M  V30 6053 H 573.422 -1.32145 3.9477 0
M  V30 6054 H 573.955 0.377279 3.96007 0
M  V30 6055 H 570.694 2.52837 6.04776 0
M  V30 6056 H 570.214 0.819064 5.94181 0
M  V30 6057 H 571.893 1.25357 6.3474 0
M  V30 6058 N 572.025 -1.5352 0.356285 0
M  V30 6059 C 573.273 -2.00719 -0.235837 0
M  V30 6060 C 573.594 -1.24551 -1.5004 0
M  V30 6061 O 572.864 -0.356185 -1.92635 0
M  V30 6062 H 571.444 -0.741542 -0.0901366 0
M  V30 6063 H 574.106 -1.88887 0.480378 0
M  V30 6064 H 573.202 -3.08551 -0.469357 0
M  V30 6065 N 573.503 -0.0852151 -1.57369 0
M  V30 6066 C 574.45 0.877268 -2.13478 0
M  V30 6067 C 575.42 1.28642 -1.05073 0
M  V30 6068 O 576.605 1.36992 -1.32808 0
M  V30 6069 C 573.745 2.13464 -2.71159 0
M  V30 6070 C 572.858 1.77691 -3.93764 0
M  V30 6071 C 571.993 2.98139 -4.39643 0
M  V30 6072 C 571.032 2.58447 -5.54862 0
M  V30 6073 N 570.169 3.71698 -5.95639 0
M  V30 6074 H 575.009 0.391933 -2.95411 0
M  V30 6075 H 572.546 0.181796 -1.45972 0
M  V30 6076 H 574.504 2.87086 -3.02717 0
M  V30 6077 H 573.134 2.59514 -1.91969 0
M  V30 6078 H 572.186 0.940768 -3.68583 0
M  V30 6079 H 573.498 1.44497 -4.77412 0
M  V30 6080 H 572.652 3.80026 -4.72933 0
M  V30 6081 H 571.391 3.34536 -3.54876 0
M  V30 6082 H 570.396 1.74984 -5.21211 0
M  V30 6083 H 571.621 2.23205 -6.41371 0
M  V30 6084 H 569.567 4.07831 -5.13819 0
M  V30 6085 H 569.484 3.42317 -6.74059 0
M  V30 6086 H 570.752 4.54123 -6.33555 0
M  V30 6087 N 574.981 1.5647 0.188427 0
M  V30 6088 C 576.229 1.80655 0.905986 0
M  V30 6089 C 576.55 0.659391 1.83513 0
M  V30 6090 O 575.82 -0.321868 1.93238 0
M  V30 6091 H 574.4 0.666391 0.337538 0
M  V30 6092 H 577.062 1.93949 0.192339 0
M  V30 6093 H 576.158 2.74066 1.49313 0
M  V30 6094 N 576.459 -0.456382 1.50847 0
M  V30 6095 C 577.687 -1.23026 1.66349 0
M  V30 6096 C 578.102 -1.85473 0.352868 0
M  V30 6097 O 577.459 -1.69885 -0.666739 0
M  V30 6098 C 577.51 -2.32827 2.76539 0
M  V30 6099 O 577.231 -1.72938 4.02522 0
M  V30 6100 C 578.732 -3.23448 3.03144 0
M  V30 6101 H 575.952 -0.371527 0.558756 0
M  V30 6102 H 578.496 -0.543082 1.97157 0
M  V30 6103 H 576.651 -2.97294 2.48384 0
M  V30 6104 H 577.065 -2.45357 4.63573 0
M  V30 6105 H 578.539 -3.96669 3.83872 0
M  V30 6106 H 579.016 -3.83094 2.14793 0
M  V30 6107 H 579.622 -2.64702 3.32886 0
M  V30 6108 N 577.937 -1.40673 -0.710563 0
M  V30 6109 C 578.887 -1.37812 -1.81636 0
M  V30 6110 C 579.871 -0.254853 -1.58869 0
M  V30 6111 O 581.063 -0.494356 -1.69956 0
M  V30 6112 C 578.192 -1.24802 -3.19811 0
M  V30 6113 C 577.278 -2.41931 -3.48325 0
M  V30 6114 N 577.669 -3.67411 -3.47625 0
M  V30 6115 C 575.967 -2.35419 -3.78806 0
M  V30 6116 C 576.668 -4.45008 -3.74623 0
M  V30 6117 N 575.644 -3.74916 -3.93623 0
M  V30 6118 H 579.446 -2.32766 -1.79436 0
M  V30 6119 H 576.96 -1.34516 -0.909909 0
M  V30 6120 H 578.957 -1.20835 -3.99004 0
M  V30 6121 H 577.617 -0.308202 -3.23234 0
M  V30 6122 H 578.628 -4.00503 -3.28356 0
M  V30 6123 H 575.305 -1.4983 -3.89689 0
M  V30 6124 H 576.695 -5.53884 -3.80344 0
M  V30 6125 N 579.415 0.9433 -1.26252 0
M  V30 6126 C 580.378 2.02326 -1.07689 0
M  V30 6127 C 581.378 1.60779 -0.0259174 0
M  V30 6128 O 582.568 1.72108 -0.269134 0
M  V30 6129 C 579.7 3.34886 -0.63752 0
M  V30 6130 H 580.893 2.20225 -2.0357 0
M  V30 6131 H 578.446 1.12197 -1.08819 0
M  V30 6132 H 579.181 3.22684 0.323377 0
M  V30 6133 H 578.966 3.66393 -1.39637 0
M  V30 6134 H 580.456 4.14231 -0.529418 0
M  V30 6135 O 580.932 1.20358 1.07685 0
M  V30 6136 H 581.623 0.957266 1.68393 0
M  V30 END ATOM
M  V30 BEGIN BOND
M  V30 END BOND
M  V30 END CTAB
M  END
$$$$
