drugbank_target|P08909 5-hydroxytryptamine receptor 2C (DB00321; DB00540; DB00656; DB00726)
 OpenBabel12092120593D

  0  0  0     0  0            999 V3000
M  V30 BEGIN CTAB
M  V30 COUNTS 7443 7524 0 0 0
M  V30 BEGIN ATOM
M  V30 1 H -0.908 1.98254 -0.117106 0
M  V30 2 N 0 1.576 0 0
M  V30 3 C 0.933 2.03868 1.02534 0
M  V30 4 C 1.911 0.928543 1.3348 0
M  V30 5 O 3.095 1.19667 1.45644 0
M  V30 6 C 0.222 2.43627 2.35294 0
M  V30 7 C -0.732 3.65373 2.2001 0
M  V30 8 S 0.101 5.13292 1.52614 0
M  V30 9 C 1.257 5.56322 2.86805 0
M  V30 10 H 1.49 2.90518 0.631377 0
M  V30 11 H -0.977 1.52953 0.210867 0
M  V30 12 H 0.981 2.67203 3.11629 0
M  V30 13 H -0.358 1.57376 2.7183 0
M  V30 14 H -1.165 3.90944 3.18086 0
M  V30 15 H -1.563 3.418 1.51819 0
M  V30 16 H 0.729 5.58782 3.83104 0
M  V30 17 H 1.672 6.56266 2.65933 0
M  V30 18 H 2.08 4.83886 2.90714 0
M  V30 19 N 1.4781 -0.272755 1.55222 0
M  V30 20 C 2.7241 -1.00581 1.761 0
M  V30 21 C 3.0571 -1.85932 0.560625 0
M  V30 22 O 2.3321 -1.89416 -0.441801 0
M  V30 23 C 2.6151 -1.88816 3.06628 0
M  V30 24 C 2.4681 -1.06457 4.37021 0
M  V30 25 C 3.7871 -2.8752 3.33197 0
M  V30 26 H 0.9061 -0.364244 0.640699 0
M  V30 27 H 3.5481 -0.278189 1.87952 0
M  V30 28 H 1.6981 -2.50856 2.96654 0
M  V30 29 H 3.3701 -0.464863 4.58952 0
M  V30 30 H 1.6131 -0.368043 4.32236 0
M  V30 31 H 2.2841 -1.71514 5.24678 0
M  V30 32 H 4.7601 -2.35615 3.42965 0
M  V30 33 H 3.6361 -3.46399 4.25792 0
M  V30 34 H 3.8971 -3.62657 2.52849 0
M  V30 35 N 2.9562 -1.48159 -0.537278 0
M  V30 36 C 3.9042 -1.62573 -1.66352 0
M  V30 37 C 4.8982 -0.492366 -1.62087 0
M  V30 38 O 6.1042 -0.670847 -1.67032 0
M  V30 39 H 2.4792 -0.511992 -0.550789 0
M  V30 40 H 4.4502 -2.57176 -1.51337 0
M  V30 41 C 3.1992 -1.67583 -3.04649 0
M  V30 42 H 2.5222 -2.54151 -3.08622 0
M  V30 43 H 3.9622 -1.81713 -3.83088 0
M  V30 44 C 2.4212 -0.413039 -3.34358 0
M  V30 45 O 2.9512 0.477259 -3.98855 0
M  V30 46 N 1.1572 -0.286961 -2.8918 0
M  V30 47 H 0.7042 -1.01241 -2.36871 0
M  V30 48 H 0.6622 0.556963 -3.09427 0
M  V30 49 N 4.4343 0.785586 -1.36625 0
M  V30 50 C 5.3643 1.91259 -1.33949 0
M  V30 51 C 6.3453 1.68795 -0.210325 0
M  V30 52 O 7.5303 1.89854 -0.408561 0
M  V30 53 C 4.6603 3.28339 -1.13186 0
M  V30 54 C 3.6143 3.65335 -2.22967 0
M  V30 55 C 2.9403 5.00806 -1.87342 0
M  V30 56 C 4.2403 3.7352 -3.65075 0
M  V30 57 H 5.9343 1.93755 -2.28253 0
M  V30 58 H 3.4803 0.930788 -1.09874 0
M  V30 59 H 5.4333 4.06804 -1.09948 0
M  V30 60 H 4.1573 3.2624 -0.153332 0
M  V30 61 H 2.8163 2.89169 -2.25337 0
M  V30 62 H 2.4643 4.95233 -0.880545 0
M  V30 63 H 2.1643 5.26529 -2.60846 0
M  V30 64 H 3.6883 5.81687 -1.85667 0
M  V30 65 H 5.1023 4.42168 -3.64911 0
M  V30 66 H 3.4993 4.10731 -4.37516 0
M  V30 67 H 4.5693 2.74527 -3.99703 0
M  V30 68 N 5.9124 1.20967 1.01018 0
M  V30 69 C 7.1604 1.02172 1.74371 0
M  V30 70 C 7.4814 -0.446414 1.89821 0
M  V30 71 O 6.7514 -1.32234 1.44537 0
M  V30 72 H 5.3314 0.375066 0.646014 0
M  V30 73 H 7.9934 1.52187 1.21758 0
M  V30 74 H 7.0894 1.48538 2.74487 0
M  V30 75 N 7.3905 -1.2043 1.01659 0
M  V30 76 C 8.3385 -2.25249 0.580143 0
M  V30 77 C 9.3325 -1.65057 -0.381115 0
M  V30 78 O 10.5385 -1.78241 -0.251039 0
M  V30 79 H 6.9135 -0.732695 0.169299 0
M  V30 80 H 8.8845 -2.59389 1.47512 0
M  V30 81 C 7.6335 -3.47638 -0.065788 0
M  V30 82 H 6.9565 -3.94233 0.664874 0
M  V30 83 H 8.3965 -4.2268 -0.334282 0
M  V30 84 C 6.8555 -3.10447 -1.3086 0
M  V30 85 O 7.3855 -3.21981 -2.4019 0
M  V30 86 N 5.5915 -2.64996 -1.1927 0
M  V30 87 H 5.1385 -2.55811 -0.303064 0
M  V30 88 H 5.0965 -2.40482 -2.02523 0
M  V30 89 N 8.8686 -0.792821 -1.36206 0
M  V30 90 C 9.8316 -0.199459 -2.2833 0
M  V30 91 C 10.8316 0.605189 -1.48977 0
M  V30 92 O 12.0216 0.425685 -1.68919 0
M  V30 93 C 9.1536 0.723523 -3.33134 0
M  V30 94 H 10.3466 -1.01181 -2.82316 0
M  V30 95 H 7.8996 -0.562485 -1.45828 0
M  V30 96 H 8.6346 1.56008 -2.84309 0
M  V30 97 H 8.4196 0.148436 -3.91819 0
M  V30 98 H 9.9096 1.13344 -4.01924 0
M  V30 99 N 10.3467 1.47872 -0.545128 0
M  V30 100 C 11.5927 2.02793 -0.0166104 0
M  V30 101 C 11.9257 1.41987 1.32489 0
M  V30 102 O 11.2007 0.571045 1.85928 0
M  V30 103 C 11.4837 3.59989 0.0893294 0
M  V30 104 C 11.3367 4.3125 -1.27841 0
M  V30 105 C 12.6557 4.32606 0.808724 0
M  V30 106 H 9.7747 0.736962 -0.00751035 0
M  V30 107 H 12.4167 1.76433 -0.705085 0
M  V30 108 H 10.5667 3.82579 0.675681 0
M  V30 109 H 12.2387 4.20035 -1.90704 0
M  V30 110 H 10.4817 3.92076 -1.85632 0
M  V30 111 H 11.1527 5.39736 -1.15713 0
M  V30 112 H 13.6287 4.14936 0.310992 0
M  V30 113 H 12.5047 5.42251 0.851782 0
M  V30 114 H 12.7657 4.00963 1.86229 0
M  V30 115 N 11.8248 0.280983 1.55075 0
M  V30 116 C 13.2408 -0.0729964 1.59433 0
M  V30 117 C 13.4408 -1.5411 1.29817 0
M  V30 118 O 12.4968 -2.29086 1.06187 0
M  V30 119 C 13.8098 0.306921 2.9913 0
M  V30 120 C 15.3578 0.254023 3.11968 0
M  V30 121 C 15.8328 0.608467 4.5394 0
M  V30 122 N 17.3238 0.560241 4.59799 0
M  V30 123 C 18.0588 0.80722 5.6769 0
M  V30 124 N 17.5548 1.11912 6.83701 0
M  V30 125 N 19.3478 0.735623 5.57266 0
M  V30 126 H 11.4988 1.238 1.7259 0
M  V30 127 H 13.7618 0.500547 0.805082 0
M  V30 128 H 13.4678 1.32816 3.25657 0
M  V30 129 H 13.3418 -0.349363 3.75579 0
M  V30 130 H 15.7288 -0.75794 2.852 0
M  V30 131 H 15.8098 0.944649 2.37718 0
M  V30 132 H 15.4538 1.61814 4.81434 0
M  V30 133 H 15.3838 -0.104013 5.26497 0
M  V30 134 H 17.8748 0.329288 3.76463 0
M  V30 135 H 18.1878 1.29409 7.61888 0
M  V30 136 H 16.5328 1.15695 6.85303 0
M  V30 137 H 19.7238 0.491752 4.6551 0
M  V30 138 H 19.8968 0.931482 6.4127 0
M  V30 139 N 13.3029 -1.57598 0.00835791 0
M  V30 140 C 14.5279 -1.95617 -0.689103 0
M  V30 141 C 14.9529 -0.883753 -1.66046 0
M  V30 142 O 14.3109 0.157352 -1.80616 0
M  V30 143 C 14.3589 -3.32736 -1.38994 0
M  V30 144 O 13.4629 -3.27631 -2.50463 0
M  V30 145 H 12.8039 -0.638379 -0.182668 0
M  V30 146 H 15.3339 -2.045 0.064036 0
M  V30 147 H 15.3439 -3.68494 -1.75147 0
M  V30 148 H 14.0189 -4.1034 -0.677778 0
M  V30 149 H 12.5959 -3.03561 -2.16576 0
M  V30 150 N 14.781 0.264519 -1.55364 0
M  V30 151 C 15.711 1.33121 -1.91836 0
M  V30 152 C 16.692 1.51101 -0.781192 0
M  V30 153 O 17.877 1.64003 -1.04003 0
M  V30 154 C 15.007 2.68921 -2.19769 0
M  V30 155 C 13.961 2.65661 -3.35571 0
M  V30 156 C 13.287 4.05093 -3.49004 0
M  V30 157 C 14.587 2.24187 -4.71739 0
M  V30 158 H 16.281 1.02844 -2.81182 0
M  V30 159 H 13.827 0.493286 -1.35287 0
M  V30 160 H 15.78 3.43663 -2.43872 0
M  V30 161 H 14.504 3.00799 -1.27231 0
M  V30 162 H 13.163 1.93377 -3.1145 0
M  V30 163 H 12.811 4.34206 -2.53917 0
M  V30 164 H 12.511 4.03804 -4.26868 0
M  V30 165 H 14.035 4.81561 -3.75408 0
M  V30 166 H 15.449 2.88654 -4.9533 0
M  V30 167 H 13.846 2.34044 -5.52579 0
M  V30 168 H 14.916 1.19327 -4.69988 0
M  V30 169 N 16.2591 1.48442 0.529413 0
M  V30 170 C 17.1891 1.65902 1.64313 0
M  V30 171 C 18.1701 0.507897 1.6234 0
M  V30 172 O 19.3551 0.740503 1.79528 0
M  V30 173 C 16.4851 1.69911 3.02898 0
M  V30 174 C 15.4391 2.8453 3.19729 0
M  V30 175 C 14.7651 2.73629 4.59381 0
M  V30 176 C 16.0651 4.25821 3.02447 0
M  V30 177 H 17.7591 2.5914 1.49955 0
M  V30 178 H 15.3051 1.24709 0.719982 0
M  V30 179 H 17.2581 1.80715 3.80684 0
M  V30 180 H 15.9821 0.732524 3.18279 0
M  V30 181 H 14.6411 2.73283 2.44361 0
M  V30 182 H 14.2891 1.74938 4.71599 0
M  V30 183 H 13.9891 3.50541 4.71588 0
M  V30 184 H 15.5131 2.86401 5.39265 0
M  V30 185 H 16.9271 4.37898 3.70024 0
M  V30 186 H 15.3241 5.03735 3.26146 0
M  V30 187 H 16.3941 4.42244 1.98867 0
M  V30 188 N 17.7372 -0.778329 1.37039 0
M  V30 189 C 18.6702 -1.8984 1.26633 0
M  V30 190 C 19.6482 -1.61923 0.148197 0
M  V30 191 O 20.8322 -1.85742 0.321265 0
M  V30 192 C 17.9592 -3.24916 0.956403 0
M  V30 193 C 17.0052 -3.71752 2.09051 0
M  V30 194 S 17.8382 -3.86201 3.70957 0
M  V30 195 C 18.9942 -5.24135 3.42101 0
M  V30 196 H 19.2272 -1.98377 2.21436 0
M  V30 197 H 16.7602 -0.938738 1.22585 0
M  V30 198 H 18.7182 -4.02936 0.784409 0
M  V30 199 H 17.3792 -3.14089 0.0259713 0
M  V30 200 H 16.5722 -4.69661 1.8285 0
M  V30 201 H 16.1742 -3.00815 2.2223 0
M  V30 202 H 18.4662 -6.09086 2.96682 0
M  V30 203 H 19.4092 -5.55346 4.39314 0
M  V30 204 H 19.8172 -4.91761 2.77185 0
M  V30 205 N 19.2153 -1.21501 -1.00376 0
M  V30 206 C 20.1653 -0.942843 -2.07592 0
M  V30 207 C 21.1493 0.102384 -1.60574 0
M  V30 208 O 22.3413 -0.10671 -1.76678 0
M  V30 209 C 19.4703 -0.510729 -3.3948 0
M  V30 210 C 18.5563 -1.59009 -3.93163 0
M  V30 211 N 18.9473 -2.81544 -4.20198 0
M  V30 212 C 17.2453 -1.45925 -4.21452 0
M  V30 213 C 17.9463 -3.51261 -4.63671 0
M  V30 214 N 16.9223 -2.78703 -4.66718 0
M  V30 215 H 20.7243 -1.87378 -2.26421 0
M  V30 216 H 18.2383 -1.11093 -1.18458 0
M  V30 217 H 20.2353 -0.297101 -4.1584 0
M  V30 218 H 18.8953 0.413436 -3.22057 0
M  V30 219 H 19.9063 -3.18075 -4.08716 0
M  V30 220 H 16.5833 -0.600467 -4.13159 0
M  V30 221 H 17.9733 -4.56183 -4.93302 0
M  V30 222 N 20.6934 1.19889 -1.02296 0
M  V30 223 C 21.6234 2.25141 -0.619174 0
M  V30 224 C 22.6044 1.66051 0.368915 0
M  V30 225 O 23.7894 1.92546 0.252941 0
M  V30 226 C 20.9194 3.4728 0.0368783 0
M  V30 227 C 19.8734 4.19005 -0.872865 0
M  V30 228 C 19.1994 5.34637 -0.0822402 0
M  V30 229 C 20.4994 4.74452 -2.18387 0
M  V30 230 H 22.1934 2.59171 -1.49903 0
M  V30 231 H 19.7394 1.24579 -0.722222 0
M  V30 232 H 21.6924 4.20098 0.330958 0
M  V30 233 H 20.4164 3.12433 0.95149 0
M  V30 234 H 19.0754 3.48061 -1.15105 0
M  V30 235 H 18.7234 4.96034 0.83422 0
M  V30 236 H 18.4234 5.83557 -0.688149 0
M  V30 237 H 19.9474 6.10255 0.205238 0
M  V30 238 H 21.3614 5.39055 -1.95172 0
M  V30 239 H 19.7584 5.33834 -2.74119 0
M  V30 240 H 20.8284 3.92844 -2.84257 0
M  V30 241 N 22.1715 0.800033 1.35784 0
M  V30 242 C 23.4205 0.37387 1.98205 0
M  V30 243 C 23.7335 -1.06302 1.64193 0
M  V30 244 O 24.9395 -1.59198 2.19928 0
M  V30 245 C 23.3955 0.617532 3.54562 0
M  V30 246 C 23.0035 2.06654 3.9749 0
M  V30 247 C 24.7475 0.256401 4.23725 0
M  V30 248 C 22.6545 2.2563 5.46667 0
M  V30 249 H 21.5845 0.136055 0.741623 0
M  V30 250 H 24.2355 0.983166 1.54939 0
M  V30 251 H 22.6175 -0.0616248 3.95952 0
M  V30 252 H 23.7915 2.78296 3.67271 0
M  V30 253 H 22.1065 2.38691 3.41197 0
M  V30 254 H 24.7035 0.376318 5.33374 0
M  V30 255 H 25.0465 -0.796692 4.08606 0
M  V30 256 H 25.5795 0.889214 3.87734 0
M  V30 257 H 22.3185 3.2936 5.66747 0
M  V30 258 H 21.8385 1.58504 5.78478 0
M  V30 259 H 23.5175 2.06861 6.1304 0
M  V30 260 N 23.6496 -1.47581 0.552962 0
M  V30 261 C 24.8976 -2.02082 0.0272703 0
M  V30 262 C 25.2186 -1.4301 -1.32563 0
M  V30 263 O 24.4886 -0.603745 -1.86365 0
M  V30 264 H 23.0686 -0.746966 0.00709182 0
M  V30 265 H 25.7306 -1.81033 0.722008 0
M  V30 266 H 24.8266 -3.12034 -0.0639951 0
M  V30 267 N 25.1277 -0.289203 -1.54924 0
M  V30 268 C 26.0577 0.58549 -2.2604 0
M  V30 269 C 27.0387 1.14753 -1.25562 0
M  V30 270 O 28.2237 1.17906 -1.54311 0
M  V30 271 C 25.3537 1.76305 -2.99222 0
M  V30 272 C 24.3077 1.33191 -4.06748 0
M  V30 273 C 23.6337 2.5937 -4.6758 0
M  V30 274 C 24.9337 0.471775 -5.20165 0
M  V30 275 H 26.6277 -0.00763532 -2.99399 0
M  V30 276 H 24.1737 -0.00511229 -1.43999 0
M  V30 277 H 26.1267 2.38097 -3.47689 0
M  V30 278 H 24.8507 2.38223 -2.23422 0
M  V30 279 H 23.5097 0.737121 -3.59113 0
M  V30 280 H 23.1577 3.19576 -3.88433 0
M  V30 281 H 22.8577 2.31228 -5.40192 0
M  V30 282 H 24.3817 3.21985 -5.18804 0
M  V30 283 H 25.7957 0.995056 -5.64599 0
M  V30 284 H 24.1927 0.284639 -5.99425 0
M  V30 285 H 25.2627 -0.506041 -4.82252 0
M  V30 286 N 26.6058 1.57591 -0.0167156 0
M  V30 287 C 27.5358 2.12496 0.967858 0
M  V30 288 C 28.5168 1.03807 1.34752 0
M  V30 289 O 29.7018 1.31577 1.42833 0
M  V30 290 C 26.8318 2.64194 2.25431 0
M  V30 291 C 25.7858 3.77559 2.01576 0
M  V30 292 C 25.1118 4.15636 3.36379 0
M  V30 293 C 26.4118 5.04151 1.36489 0
M  V30 294 H 28.1058 2.95013 0.510643 0
M  V30 295 H 25.6518 1.41915 0.244181 0
M  V30 296 H 27.6048 3.01236 2.94678 0
M  V30 297 H 26.3288 1.78821 2.73296 0
M  V30 298 H 24.9878 3.40937 1.34751 0
M  V30 299 H 24.6358 3.27263 3.81979 0
M  V30 300 H 24.3358 4.92022 3.21229 0
M  V30 301 H 25.8598 4.5525 4.06915 0
M  V30 302 H 27.2738 5.38857 1.95718 0
M  V30 303 H 25.6708 5.85453 1.31776 0
M  V30 304 H 26.7408 4.83733 0.336219 0
M  V30 305 N 28.0839 -0.256276 1.55502 0
M  V30 306 C 29.3299 -0.987079 1.77157 0
M  V30 307 C 29.6629 -1.85327 0.580315 0
M  V30 308 O 28.9379 -1.89874 -0.421686 0
M  V30 309 C 29.2209 -1.85553 3.08613 0
M  V30 310 C 29.0739 -1.01816 4.38125 0
M  V30 311 C 30.3929 -2.8397 3.36228 0
M  V30 312 H 27.5119 -0.357428 0.644526 0
M  V30 313 H 30.1539 -0.258239 1.88237 0
M  V30 314 H 28.3039 -2.47695 2.99298 0
M  V30 315 H 29.9759 -0.416159 4.59419 0
M  V30 316 H 28.2189 -0.322178 4.32602 0
M  V30 317 H 28.8899 -1.65939 5.26468 0
M  V30 318 H 31.3659 -2.31964 3.45445 0
M  V30 319 H 30.2419 -3.41864 4.29442 0
M  V30 320 H 30.5029 -3.59955 2.56681 0
M  V30 321 N 29.562 -1.4872 -0.521534 0
M  V30 322 C 30.808 -1.58378 -1.27624 0
M  V30 323 C 31.163 -0.258028 -1.90662 0
M  V30 324 O 30.456 0.739917 -1.76736 0
M  V30 325 C 30.65 -2.66497 -2.38148 0
M  V30 326 C 30.479 -4.09456 -1.85945 0
M  V30 327 C 29.249 -4.76495 -1.68168 0
M  V30 328 C 31.447 -4.95353 -1.3831 0
M  V30 329 N 29.429 -6.0384 -1.1068 0
M  V30 330 C 30.8 -6.13012 -0.928238 0
M  V30 331 C 32.855 -4.81512 -1.26692 0
M  V30 332 C 31.558 -7.18354 -0.368701 0
M  V30 333 C 33.584 -5.86984 -0.721368 0
M  V30 334 C 32.946 -7.03857 -0.276623 0
M  V30 335 H 29.045 -0.634045 -0.457724 0
M  V30 336 H 31.629 -1.85639 -0.587049 0
M  V30 337 H 29.8 -2.41043 -3.04553 0
M  V30 338 H 31.532 -2.65791 -3.05184 0
M  V30 339 H 28.287 -4.32962 -1.91939 0
M  V30 340 H 28.711 -6.71778 -0.839217 0
M  V30 341 H 33.353 -3.91487 -1.5968 0
M  V30 342 H 31.071 -8.08096 -0.0265122 0
M  V30 343 H 34.657 -5.78329 -0.634531 0
M  V30 344 H 33.537 -7.84077 0.138947 0
M  V30 345 N 31.0401 0.771051 -1.3745 0
M  V30 346 C 31.9721 1.89352 -1.29146 0
M  V30 347 C 32.9851 1.61477 -0.207124 0
M  V30 348 O 34.1741 1.72382 -0.463324 0
M  V30 349 C 31.2741 3.24596 -0.974195 0
M  V30 350 C 30.4471 3.80111 -2.16413 0
M  V30 351 C 29.5061 4.93832 -1.81703 0
M  V30 352 O 28.5321 5.09382 -2.54006 0
M  V30 353 N 29.7341 5.75483 -0.761573 0
M  V30 354 H 32.4991 1.96991 -2.25864 0
M  V30 355 H 30.0601 0.950191 -1.31084 0
M  V30 356 H 32.0521 3.98193 -0.722828 0
M  V30 357 H 30.6221 3.12454 -0.0955527 0
M  V30 358 H 29.8421 2.98284 -2.57721 0
M  V30 359 H 31.1301 4.13932 -2.95867 0
M  V30 360 H 30.5281 5.65469 -0.161609 0
M  V30 361 H 29.0851 6.49302 -0.570064 0
M  V30 362 N 32.5182 1.22032 0.997298 0
M  V30 363 C 33.7652 1.04222 1.73621 0
M  V30 364 C 34.0932 -0.423264 1.89839 0
M  V30 365 O 33.3482 -1.3302 1.43542 0
M  V30 366 C 33.6472 1.69345 3.14733 0
M  V30 367 C 33.3132 3.19226 3.18442 0
M  V30 368 C 31.9752 3.60124 3.19161 0
M  V30 369 C 34.3272 4.15181 3.15078 0
M  V30 370 C 31.6552 4.95467 3.14212 0
M  V30 371 C 34.0072 5.50495 3.1167 0
M  V30 372 C 32.6712 5.90779 3.10703 0
M  V30 373 H 31.9412 0.381374 0.635323 0
M  V30 374 H 34.5882 1.51732 1.16831 0
M  V30 375 H 32.8932 1.14147 3.74803 0
M  V30 376 H 34.5902 1.53059 3.7064 0
M  V30 377 H 31.1802 2.86659 3.18629 0
M  V30 378 H 35.3642 3.84605 3.13676 0
M  V30 379 H 30.6202 5.25916 3.11805 0
M  V30 380 H 34.7942 6.24576 3.08022 0
M  V30 381 H 32.4212 6.9562 3.06622 0
M  V30 382 N 33.9963 -1.19345 1.0293 0
M  V30 383 C 35.2733 -1.84811 0.640642 0
M  V30 384 C 35.6533 -1.91855 -0.88062 0
M  V30 385 O 35.0013 -1.43587 -1.7775 0
M  V30 386 C 35.2113 -3.23755 1.30321 0
M  V30 387 C 36.5593 -3.99912 1.42673 0
M  V30 388 O 37.5833 -3.33155 1.26041 0
M  V30 389 O 36.4423 -5.19494 1.6967 0
M  V30 390 H 33.5363 -0.796443 0.222726 0
M  V30 391 H 36.0823 -1.26831 1.12748 0
M  V30 392 H 34.8543 -3.13466 2.34211 0
M  V30 393 H 34.4773 -3.89381 0.804261 0
M  V30 394 N 35.4744 -0.807222 -1.35358 0
M  V30 395 C 36.7234 -0.384376 -1.98004 0
M  V30 396 C 37.0364 1.0543 -1.64754 0
M  V30 397 O 38.2424 1.58029 -2.20769 0
M  V30 398 C 36.6984 -0.636326 -3.5423 0
M  V30 399 C 36.3064 -2.08759 -3.96388 0
M  V30 400 C 38.0504 -0.278869 -4.23583 0
M  V30 401 C 35.9574 -2.28525 -5.45463 0
M  V30 402 H 34.8874 -0.139986 -0.740891 0
M  V30 403 H 37.5384 -0.991369 -1.54415 0
M  V30 404 H 35.9204 0.0406256 -3.95979 0
M  V30 405 H 37.0944 -2.8024 -3.6579 0
M  V30 406 H 35.4094 -2.40497 -3.39926 0
M  V30 407 H 38.0064 -0.404599 -5.33167 0
M  V30 408 H 38.3494 0.775012 -4.09022 0
M  V30 409 H 38.8824 -0.909764 -3.87257 0
M  V30 410 H 35.6214 -3.32361 -5.64992 0
M  V30 411 H 35.1414 -1.61569 -5.77629 0
M  V30 412 H 36.8204 -2.10109 -6.11934 0
M  V30 413 N 36.9525 1.47285 -0.560781 0
M  V30 414 C 38.1775 2.07359 -0.0410566 0
M  V30 415 C 38.6025 1.41017 1.24483 0
M  V30 416 O 37.9605 0.486368 1.74654 0
M  V30 417 C 38.0085 3.6035 0.134123 0
M  V30 418 O 37.1125 3.94681 1.19587 0
M  V30 419 H 36.4535 0.661887 -0.0529291 0
M  V30 420 H 38.9835 1.89252 -0.777482 0
M  V30 421 H 38.9935 4.0652 0.347207 0
M  V30 422 H 37.6685 4.08034 -0.805047 0
M  V30 423 H 36.2455 3.60251 0.962987 0
M  V30 424 N 38.4306 0.297415 1.54768 0
M  V30 425 C 39.6796 -0.313669 1.99246 0
M  V30 426 C 39.9926 -1.55281 1.18942 0
M  V30 427 O 41.1986 -2.23825 1.5367 0
M  V30 428 C 39.6546 -0.609407 3.54703 0
M  V30 429 C 39.2626 0.611192 4.43811 0
M  V30 430 C 41.0066 -1.18188 4.07715 0
M  V30 431 C 38.9136 0.288805 5.90694 0
M  V30 432 H 37.8436 -0.120979 0.744231 0
M  V30 433 H 40.4946 0.40556 1.78962 0
M  V30 434 H 38.8766 -1.38813 3.70873 0
M  V30 435 H 40.0506 1.3875 4.39414 0
M  V30 436 H 38.3656 1.10205 4.01552 0
M  V30 437 H 40.9626 -1.43727 5.15021 0
M  V30 438 H 41.3056 -2.12299 3.58099 0
M  V30 439 H 41.8386 -0.464944 3.95074 0
M  V30 440 H 38.5776 1.19838 6.44453 0
M  V30 441 H 38.0976 -0.450305 5.98107 0
M  V30 442 H 39.7766 -0.110933 6.46905 0
M  V30 443 N 39.9087 -1.5758 0.0250728 0
M  V30 444 C 41.1337 -1.96337 -0.668317 0
M  V30 445 C 41.5587 -0.901314 -1.651 0
M  V30 446 O 40.9167 0.138187 -1.80773 0
M  V30 447 C 40.9647 -3.34191 -1.35457 0
M  V30 448 O 40.0687 -3.30269 -2.46974 0
M  V30 449 H 39.4097 -0.640281 -0.175887 0
M  V30 450 H 41.9397 -2.0442 0.0857224 0
M  V30 451 H 41.9497 -3.70331 -1.71228 0
M  V30 452 H 40.6247 -4.11036 -0.634218 0
M  V30 453 H 39.2017 -3.05841 -2.13344 0
M  V30 454 N 41.3868 0.248026 -1.55636 0
M  V30 455 C 42.7978 0.817177 -1.67866 0
M  V30 456 C 43.1488 1.86069 -0.622322 0
M  V30 457 O 42.2738 2.15157 0.231618 0
M  V30 458 C 42.8688 1.489 -3.04326 0
M  V30 459 C 41.4278 2.00587 -3.185 0
M  V30 460 C 40.5748 0.856573 -2.63739 0
M  V30 461 H 43.5258 0.0238579 -1.58682 0
M  V30 462 H 43.5468 2.35698 -2.98708 0
M  V30 463 H 43.0588 0.729279 -3.81186 0
M  V30 464 H 41.1598 2.79443 -2.4646 0
M  V30 465 H 41.2728 2.20402 -4.25393 0
M  V30 466 H 39.6368 1.25678 -2.21534 0
M  V30 467 H 40.4198 0.109953 -3.43124 0
M  V30 468 N 42.8649 1.48995 0.513639 0
M  V30 469 C 44.1109 1.58076 1.27042 0
M  V30 470 C 44.4439 0.261026 1.92438 0
M  V30 471 O 43.7189 -0.734393 1.80103 0
M  V30 472 C 44.0019 2.73091 2.34719 0
M  V30 473 C 43.8549 4.14821 1.73907 0
M  V30 474 C 45.1739 2.83796 3.36375 0
M  V30 475 H 42.2929 0.575391 0.460536 0
M  V30 476 H 44.9349 1.81232 0.570516 0
M  V30 477 H 43.0849 2.53479 2.94416 0
M  V30 478 H 44.7569 4.45917 1.18135 0
M  V30 479 H 42.9999 4.21058 1.0437 0
M  V30 480 H 43.6709 4.91147 2.51949 0
M  V30 481 H 46.1469 3.01611 2.86653 0
M  V30 482 H 45.0229 3.65971 4.09093 0
M  V30 483 H 45.2839 1.92624 3.9793 0
M  V30 484 N 44.343 -0.763751 1.37857 0
M  V30 485 C 45.306 -1.85889 1.34081 0
M  V30 486 C 46.306 -1.58949 0.243277 0
M  V30 487 O 47.496 -1.66882 0.499589 0
M  V30 488 C 44.628 -3.23176 1.08489 0
M  V30 489 H 45.821 -1.90648 2.31502 0
M  V30 490 H 43.374 -0.964367 1.23003 0
M  V30 491 H 44.109 -3.24091 0.116318 0
M  V30 492 H 43.894 -3.44124 1.8794 0
M  V30 493 H 45.384 -4.03254 1.08517 0
M  V30 494 N 45.8211 -1.22559 -0.990812 0
M  V30 495 C 46.7841 -0.998863 -2.0629 0
M  V30 496 C 47.7841 0.0354834 -1.60761 0
M  V30 497 O 48.9741 -0.203231 -1.7301 0
M  V30 498 C 46.1061 -0.509203 -3.37076 0
M  V30 499 H 47.2991 -1.95014 -2.27837 0
M  V30 500 H 44.8521 -1.04456 -1.16269 0
M  V30 501 H 45.5871 0.446335 -3.21214 0
M  V30 502 H 45.3721 -1.25547 -3.71457 0
M  V30 503 H 46.8621 -0.370888 -4.1595 0
M  V30 504 N 47.2992 1.18797 -1.03562 0
M  V30 505 C 48.5482 1.87978 -0.731235 0
M  V30 506 C 48.8612 1.80911 0.743671 0
M  V30 507 O 50.0672 2.45407 1.16137 0
M  V30 508 C 48.5232 3.3721 -1.25768 0
M  V30 509 C 48.1312 3.52818 -2.76085 0
M  V30 510 C 49.8752 4.11825 -1.0296 0
M  V30 511 C 47.7822 4.9598 -3.22114 0
M  V30 512 H 46.7122 0.704063 -0.269835 0
M  V30 513 H 49.3632 1.34266 -1.25079 0
M  V30 514 H 47.7452 3.90359 -0.666011 0
M  V30 515 H 48.9192 3.09965 -3.40966 0
M  V30 516 H 47.2342 2.91602 -2.97249 0
M  V30 517 H 49.8312 5.17411 -1.34869 0
M  V30 518 H 50.1742 4.16287 0.0333546 0
M  V30 519 H 50.7072 3.64833 -1.58562 0
M  V30 520 H 47.4462 4.96684 -4.27768 0
M  V30 521 H 46.9662 5.39569 -2.61965 0
M  V30 522 H 48.6452 5.6467 -3.15844 0
M  V30 523 N 48.7773 0.814389 1.34928 0
M  V30 524 C 50.0233 0.399013 1.98836 0
M  V30 525 C 50.3563 -1.03314 1.64438 0
M  V30 526 O 49.6313 -1.71811 0.911659 0
M  V30 527 C 49.9143 0.591629 3.55207 0
M  V30 528 C 49.7673 2.06928 3.99376 0
M  V30 529 C 51.0863 0.022199 4.40094 0
M  V30 530 H 48.2053 0.146451 0.722303 0
M  V30 531 H 50.8473 1.02537 1.59957 0
M  V30 532 H 48.9973 0.0584441 3.88456 0
M  V30 533 H 50.6693 2.66544 3.76499 0
M  V30 534 H 48.9123 2.56287 3.49999 0
M  V30 535 H 49.5833 2.1549 5.08201 0
M  V30 536 H 52.0593 0.477643 4.13349 0
M  V30 537 H 50.9353 0.186832 5.48582 0
M  V30 538 H 51.1963 -1.07215 4.28902 0
M  V30 539 N 50.2554 -1.46986 0.568584 0
M  V30 540 C 51.4834 -2.0683 0.0539956 0
M  V30 541 C 51.8984 -1.41953 -1.24478 0
M  V30 542 O 51.2554 -0.519933 -1.74937 0
M  V30 543 C 51.3064 -3.61254 -0.133362 0
M  V30 544 O 51.0274 -4.237 1.11399 0
M  V30 545 C 52.5284 -4.37992 -0.683927 0
M  V30 546 H 49.7484 -0.669058 0.0510141 0
M  V30 547 H 52.2924 -1.88824 0.785234 0
M  V30 548 H 50.4474 -3.78735 -0.81477 0
M  V30 549 H 50.8614 -5.16388 0.91888 0
M  V30 550 H 52.3354 -5.46684 -0.764263 0
M  V30 551 H 52.8124 -4.05058 -1.69778 0
M  V30 552 H 53.4184 -4.25283 -0.0378494 0
M  V30 553 N 51.7335 -0.305618 -1.54608 0
M  V30 554 C 53.0105 0.355652 -1.92339 0
M  V30 555 C 53.3905 1.71324 -1.23335 0
M  V30 556 O 52.7385 2.25473 -0.370702 0
M  V30 557 C 52.9485 0.46572 -3.45879 0
M  V30 558 C 54.2965 0.734426 -4.182 0
M  V30 559 O 55.3205 0.54935 -3.51938 0
M  V30 560 O 54.1795 1.09024 -5.35515 0
M  V30 561 H 51.2735 0.199666 -0.802535 0
M  V30 562 H 53.8195 -0.354017 -1.65966 0
M  V30 563 H 52.5915 -0.488461 -3.88239 0
M  V30 564 H 52.2145 1.22367 -3.78301 0
M  V30 565 N 53.2116 1.57565 -0.0334293 0
M  V30 566 C 54.4396 1.9628 0.654347 0
M  V30 567 C 54.8546 0.910138 1.65414 0
M  V30 568 O 54.2116 -0.107595 1.82183 0
M  V30 569 C 54.2626 3.35067 1.35693 0
M  V30 570 O 53.9836 4.36296 0.397191 0
M  V30 571 C 55.4846 3.88439 2.13613 0
M  V30 572 H 52.7046 0.646369 0.180132 0
M  V30 573 H 55.2486 2.04282 -0.0944721 0
M  V30 574 H 53.4036 3.2827 2.05712 0
M  V30 575 H 53.8176 5.1678 0.896597 0
M  V30 576 H 55.2916 4.8788 2.58219 0
M  V30 577 H 55.7686 3.22914 2.97696 0
M  V30 578 H 56.3746 3.98516 1.48543 0
M  V30 579 N 54.6897 -0.239769 1.55765 0
M  V30 580 C 55.9367 -0.966801 1.7793 0
M  V30 581 C 56.2647 -1.85046 0.599015 0
M  V30 582 O 55.5197 -1.91197 -0.417395 0
M  V30 583 C 55.8187 -1.852 3.05672 0
M  V30 584 C 55.4847 -1.1231 4.36689 0
M  V30 585 C 54.1467 -0.921689 4.72291 0
M  V30 586 C 56.4987 -0.607019 5.17653 0
M  V30 587 C 53.8267 -0.191996 5.86386 0
M  V30 588 C 56.1787 0.109241 6.32506 0
M  V30 589 C 54.8427 0.322073 6.66723 0
M  V30 590 H 54.1127 -0.353778 0.651093 0
M  V30 591 H 56.7597 -0.23634 1.90036 0
M  V30 592 H 55.0647 -2.64975 2.8861 0
M  V30 593 H 56.7617 -2.41635 3.20021 0
M  V30 594 H 53.3517 -1.29004 4.08725 0
M  V30 595 H 57.5357 -0.750153 4.90598 0
M  V30 596 H 52.7917 -0.0166949 6.11398 0
M  V30 597 H 56.9657 0.516737 6.9448 0
M  V30 598 H 54.5927 0.88944 7.54979 0
M  V30 599 N 56.1678 -1.49265 -0.50573 0
M  V30 600 C 57.1158 -1.66065 -1.62866 0
M  V30 601 C 58.1098 -0.526636 -1.61006 0
M  V30 602 O 59.3158 -0.706126 -1.65571 0
M  V30 603 H 55.6908 -0.52356 -0.539805 0
M  V30 604 H 57.6618 -2.60329 -1.45848 0
M  V30 605 C 56.4108 -1.74008 -3.01026 0
M  V30 606 H 55.7338 -2.6064 -3.03161 0
M  V30 607 H 57.1738 -1.89798 -3.79147 0
M  V30 608 C 55.6328 -0.483868 -3.33407 0
M  V30 609 O 56.1628 0.392548 -3.99777 0
M  V30 610 N 54.3688 -0.348236 -2.88506 0
M  V30 611 H 53.9158 -1.06242 -2.34671 0
M  V30 612 H 53.8738 0.491204 -3.10539 0
M  V30 613 N 57.6459 0.756429 -1.3826 0
M  V30 614 C 58.8709 1.55077 -1.37717 0
M  V30 615 C 59.2959 1.88073 0.03164 0
M  V30 616 O 58.6539 1.50364 1.01293 0
M  V30 617 C 58.7019 2.8283 -2.23695 0
M  V30 618 O 57.8059 3.77862 -1.6521 0
M  V30 619 H 57.1469 0.469152 -0.469885 0
M  V30 620 H 59.6769 0.935019 -1.81985 0
M  V30 621 H 59.6869 3.31783 -2.37453 0
M  V30 622 H 58.3619 2.58144 -3.2609 0
M  V30 623 H 56.9389 3.36555 -1.60578 0
M  V30 624 N 59.124 1.23083 0.984299 0
M  V30 625 C 60.349 1.088 1.76571 0
M  V30 626 C 60.774 -0.356657 1.84688 0
M  V30 627 O 60.132 -1.25788 1.30565 0
M  V30 628 C 60.18 1.71371 3.17277 0
M  V30 629 O 59.284 0.973213 4.00752 0
M  V30 630 H 58.625 0.381599 0.543395 0
M  V30 631 H 61.155 1.63057 1.23587 0
M  V30 632 H 61.165 1.76449 3.67872 0
M  V30 633 H 59.84 2.76493 3.10684 0
M  V30 634 H 58.417 0.999078 3.59267 0
M  V30 635 N 60.6021 -1.18246 1.0419 0
M  V30 636 C 61.8791 -1.84121 0.660208 0
M  V30 637 C 62.2591 -1.92778 -0.860221 0
M  V30 638 O 61.6071 -1.45464 -1.76217 0
M  V30 639 C 61.8171 -3.22355 1.33747 0
M  V30 640 C 63.1651 -3.98376 1.46906 0
M  V30 641 O 64.1891 -3.31799 1.29568 0
M  V30 642 O 63.0481 -5.17665 1.75171 0
M  V30 643 H 60.1421 -0.794036 0.231161 0
M  V30 644 H 62.6881 -1.25628 1.14087 0
M  V30 645 H 61.4601 -3.10964 2.37522 0
M  V30 646 H 61.0831 -3.88506 0.845515 0
M  V30 647 N 62.0802 -0.821533 -1.34494 0
M  V30 648 C 63.3282 -0.408139 -1.97936 0
M  V30 649 C 63.6492 1.03193 -1.65457 0
M  V30 650 O 62.9192 1.71622 -0.944595 0
M  V30 651 H 61.4992 -0.147928 -0.732206 0
M  V30 652 H 64.1612 -1.05067 -1.64155 0
M  V30 653 H 63.2572 -0.52601 -3.07635 0
M  V30 654 N 63.5583 1.46682 -0.576371 0
M  V30 655 C 64.8063 2.02013 -0.0594163 0
M  V30 656 C 65.1273 1.45101 1.30271 0
M  V30 657 O 64.3973 0.633317 1.8538 0
M  V30 658 H 62.9773 0.746759 -0.0189745 0
M  V30 659 H 65.6393 1.79862 -0.750717 0
M  V30 660 H 64.7353 3.12097 0.014345 0
M  V30 661 N 65.0364 0.313813 1.54444 0
M  V30 662 C 66.4524 -0.0391619 1.59552 0
M  V30 663 C 66.6524 -1.51322 1.33056 0
M  V30 664 O 65.7084 -2.26782 1.11022 0
M  V30 665 C 67.0214 0.370302 2.98411 0
M  V30 666 C 68.5694 0.320139 3.11358 0
M  V30 667 C 69.0444 0.704617 4.52547 0
M  V30 668 N 70.5354 0.657645 4.58508 0
M  V30 669 C 71.2704 0.927453 5.6585 0
M  V30 670 N 70.7664 1.26389 6.81174 0
M  V30 671 N 72.5594 0.853662 5.5558 0
M  V30 672 H 64.7104 1.27433 1.69925 0
M  V30 673 H 66.9734 0.517511 0.794284 0
M  V30 674 H 66.6794 1.39694 3.22767 0
M  V30 675 H 66.5534 -0.269619 3.76235 0
M  V30 676 H 68.9404 -0.697275 2.86744 0
M  V30 677 H 69.0214 0.99486 2.35661 0
M  V30 678 H 68.6654 1.7199 4.77893 0
M  V30 679 H 68.5954 0.00768843 5.26599 0
M  V30 680 H 71.0864 0.409067 3.75679 0
M  V30 681 H 71.3994 1.4554 7.58972 0
M  V30 682 H 69.7444 1.30206 6.82694 0
M  V30 683 H 72.9354 0.590383 4.64362 0
M  V30 684 H 73.1084 1.0673 6.3915 0
M  V30 685 N 66.5145 -1.57545 0.0417849 0
M  V30 686 C 67.4445 -2.14009 -0.933929 0
M  V30 687 C 68.4255 -1.05938 -1.33083 0
M  V30 688 O 69.6105 -1.33833 -1.40721 0
M  V30 689 C 66.7405 -2.67747 -2.21199 0
M  V30 690 C 65.6945 -3.80718 -1.95544 0
M  V30 691 C 65.0205 -4.20935 -3.29724 0
M  V30 692 C 66.3205 -5.06258 -1.28452 0
M  V30 693 H 68.0145 -2.95788 -0.463645 0
M  V30 694 H 65.5605 -1.42285 -0.221573 0
M  V30 695 H 67.5135 -3.05886 -2.89848 0
M  V30 696 H 66.2375 -1.83147 -2.70416 0
M  V30 697 H 64.8965 -3.43037 -1.2931 0
M  V30 698 H 64.5445 -3.33298 -3.76724 0
M  V30 699 H 64.2445 -4.9707 -3.13361 0
M  V30 700 H 65.7685 -4.61666 -3.9962 0
M  V30 701 H 67.1825 -5.41903 -1.8712 0
M  V30 702 H 65.5795 -5.87475 -1.22445 0
M  V30 703 H 66.6495 -4.84207 -0.259219 0
M  V30 704 N 67.9926 0.231505 -1.5589 0
M  V30 705 C 69.2396 0.957352 -1.78441 0
M  V30 706 C 69.5676 1.84726 -0.60882 0
M  V30 707 O 68.8226 1.91416 0.40725 0
M  V30 708 C 69.1216 1.83577 -3.0665 0
M  V30 709 C 68.7876 1.09993 -4.37278 0
M  V30 710 C 67.4496 0.896629 -4.72773 0
M  V30 711 C 69.8016 0.579558 -5.17968 0
M  V30 712 C 67.1296 0.160896 -5.86479 0
M  V30 713 C 69.4816 -0.142783 -6.32439 0
M  V30 714 C 68.1456 -0.357427 -6.66542 0
M  V30 715 H 67.4156 0.35032 -0.65296 0
M  V30 716 H 70.0626 0.226259 -1.90159 0
M  V30 717 H 68.3676 2.63441 -2.90011 0
M  V30 718 H 70.0646 2.39934 -3.21298 0
M  V30 719 H 66.6546 1.26835 -4.09403 0
M  V30 720 H 70.8386 0.724125 -4.90989 0
M  V30 721 H 66.0946 -0.0157293 -6.11398 0
M  V30 722 H 70.2686 -0.553559 -6.94196 0
M  V30 723 H 67.8956 -0.929466 -7.54497 0
M  V30 724 N 69.4707 1.49531 0.497807 0
M  V30 725 C 70.4027 1.62559 1.61578 0
M  V30 726 C 71.4157 0.508134 1.54667 0
M  V30 727 O 72.6047 0.780309 1.60541 0
M  V30 728 C 69.7047 1.56925 3.00379 0
M  V30 729 C 68.8777 2.84257 3.3244 0
M  V30 730 C 67.9367 2.71632 4.50669 0
M  V30 731 O 66.9627 3.4557 4.52294 0
M  V30 732 N 68.1647 1.83391 5.5077 0
M  V30 733 H 70.9297 2.58981 1.50828 0
M  V30 734 H 68.4907 1.4666 0.685743 0
M  V30 735 H 70.4827 1.46129 3.77397 0
M  V30 736 H 69.0527 0.683483 3.05037 0
M  V30 737 H 68.2727 3.09381 2.44289 0
M  V30 738 H 69.5607 3.68666 3.5066 0
M  V30 739 H 68.9587 1.22583 5.52259 0
M  V30 740 H 67.5157 1.78515 6.26878 0
M  V30 741 N 70.9488 -0.749086 1.3866 0
M  V30 742 C 72.1958 -1.50833 1.35114 0
M  V30 743 C 72.5238 -1.94415 -0.0574049 0
M  V30 744 O 71.7788 -1.66065 -1.03541 0
M  V30 745 C 72.0778 -2.7712 2.25697 0
M  V30 746 C 71.7438 -2.52477 3.73585 0
M  V30 747 C 70.4058 -2.45466 4.13884 0
M  V30 748 C 72.7578 -2.31066 4.67181 0
M  V30 749 C 70.0858 -2.15064 5.45861 0
M  V30 750 C 72.4378 -2.02183 5.9942 0
M  V30 751 C 71.1018 -1.93631 6.38798 0
M  V30 752 H 70.3718 -0.551936 0.494416 0
M  V30 753 H 73.0188 -0.860979 1.71054 0
M  V30 754 H 71.3238 -3.46528 1.82827 0
M  V30 755 H 73.0208 -3.35096 2.20254 0
M  V30 756 H 69.6108 -2.58807 3.41638 0
M  V30 757 H 73.7948 -2.35459 4.3689 0
M  V30 758 H 69.0508 -2.06954 5.75308 0
M  V30 759 H 73.2248 -1.8462 6.71482 0
M  V30 760 H 70.8518 -1.69839 7.40985 0
M  V30 761 N 72.4269 -1.23603 -0.977757 0
M  V30 762 C 73.8379 -1.06424 -1.53398 0
M  V30 763 C 74.1889 0.367578 -1.92726 0
M  V30 764 O 73.3139 1.25465 -1.76316 0
M  V30 765 C 73.9089 -1.92568 -2.78753 0
M  V30 766 C 72.4679 -1.79642 -3.30765 0
M  V30 767 C 71.6149 -1.88111 -2.03739 0
M  V30 768 H 74.5659 -1.37227 -0.797152 0
M  V30 769 H 74.5869 -1.45203 -3.51705 0
M  V30 770 H 74.0989 -2.96771 -2.50098 0
M  V30 771 H 72.1999 -0.782325 -3.64294 0
M  V30 772 H 72.3129 -2.63174 -4.00345 0
M  V30 773 H 70.6769 -1.31723 -2.17994 0
M  V30 774 H 71.4599 -2.93875 -1.77461 0
M  V30 775 N 73.905 1.17692 -1.04816 0
M  V30 776 C 75.182 1.83768 -0.669963 0
M  V30 777 C 75.562 1.93232 0.849986 0
M  V30 778 O 74.91 1.46397 1.75443 0
M  V30 779 C 75.12 3.21641 -1.35455 0
M  V30 780 C 76.468 3.97592 -1.49017 0
M  V30 781 O 77.492 3.31107 -1.31326 0
M  V30 782 O 76.351 5.16729 -1.77914 0
M  V30 783 H 73.445 0.792799 -0.235368 0
M  V30 784 H 75.991 1.25021 -1.14751 0
M  V30 785 H 74.763 3.097 -2.39168 0
M  V30 786 H 74.386 3.88052 -0.866107 0
M  V30 787 N 75.3831 0.828654 1.34056 0
M  V30 788 C 76.6311 0.41863 1.97717 0
M  V30 789 C 76.9521 -1.02314 1.66002 0
M  V30 790 O 76.2221 -1.71119 0.953683 0
M  V30 791 H 74.8021 0.151809 0.731412 0
M  V30 792 H 77.4641 1.05936 1.63596 0
M  V30 793 H 76.5601 0.542318 3.07352 0
M  V30 794 N 76.8612 -1.46375 0.584142 0
M  V30 795 C 78.1072 -2.02678 0.0703716 0
M  V30 796 C 78.4402 -1.4545 -1.28678 0
M  V30 797 O 77.7152 -0.62014 -1.84349 0
M  V30 798 C 77.9982 -3.60099 0.00614674 0
M  V30 799 C 77.8512 -4.27709 1.3923 0
M  V30 800 C 79.1702 -4.34598 -0.693742 0
M  V30 801 H 76.2892 -0.736504 0.027047 0
M  V30 802 H 78.9312 -1.74501 0.751615 0
M  V30 803 H 77.0812 -3.84236 -0.574009 0
M  V30 804 H 78.7532 -4.14832 2.01773 0
M  V30 805 H 76.9962 -3.87016 1.95962 0
M  V30 806 H 77.6672 -5.36478 1.29982 0
M  V30 807 H 80.1432 -4.15615 -0.200869 0
M  V30 808 H 79.0192 -5.44318 -0.707714 0
M  V30 809 H 79.2802 -4.05759 -1.75533 0
M  V30 810 N 78.3393 -0.321999 -1.54275 0
M  V30 811 C 79.2713 0.578671 -2.21775 0
M  V30 812 C 80.2843 1.08109 -1.21722 0
M  V30 813 O 81.4733 0.994938 -1.482 0
M  V30 814 C 78.5733 1.80661 -2.86731 0
M  V30 815 C 77.7463 1.44314 -4.12907 0
M  V30 816 C 76.8053 2.52845 -4.61472 0
M  V30 817 O 75.8313 2.17054 -5.2619 0
M  V30 818 N 77.0333 3.83748 -4.35566 0
M  V30 819 H 79.7983 0.000709447 -2.997 0
M  V30 820 H 77.3593 -0.145132 -1.61248 0
M  V30 821 H 79.3513 2.52655 -3.16145 0
M  V30 822 H 77.9213 2.29245 -2.12521 0
M  V30 823 H 77.1413 0.554906 -3.90275 0
M  V30 824 H 78.4293 1.17598 -4.95023 0
M  V30 825 H 77.8273 4.15625 -3.83761 0
M  V30 826 H 76.3843 4.51977 -4.69638 0
M  V30 827 N 79.8174 1.5752 -0.0501392 0
M  V30 828 C 80.7654 2.12651 0.942459 0
M  V30 829 C 81.7594 1.05807 1.32292 0
M  V30 830 O 82.9654 1.24217 1.3027 0
M  V30 831 H 79.3404 0.679673 0.321789 0
M  V30 832 H 81.3114 2.94951 0.452356 0
M  V30 833 C 80.0604 2.68565 2.20836 0
M  V30 834 H 79.3834 3.50439 1.92439 0
M  V30 835 H 80.8234 3.10761 2.8845 0
M  V30 836 C 79.2824 1.62291 2.95234 0
M  V30 837 O 79.8124 1.03508 3.88135 0
M  V30 838 N 78.0184 1.33836 2.57946 0
M  V30 839 H 77.5654 1.81826 1.82475 0
M  V30 840 H 77.5234 0.629595 3.08032 0
M  V30 841 N 81.2955 -0.223234 1.56011 0
M  V30 842 C 82.5415 -0.944891 1.8012 0
M  V30 843 C 82.8965 -1.82039 0.622862 0
M  V30 844 O 82.1895 -1.8773 -0.383143 0
M  V30 845 C 82.3835 -1.81948 3.0762 0
M  V30 846 C 82.2125 -1.03014 4.37742 0
M  V30 847 C 80.9825 -0.72574 5.00061 0
M  V30 848 C 83.1805 -0.396256 5.12771 0
M  V30 849 N 81.1625 0.0851816 6.13841 0
M  V30 850 C 82.5335 0.278137 6.19376 0
M  V30 851 C 84.5885 -0.309117 4.9694 0
M  V30 852 C 83.2915 1.03133 7.11868 0
M  V30 853 C 85.3175 0.430607 5.8983 0
M  V30 854 C 84.6795 1.09355 6.9586 0
M  V30 855 H 80.7785 -0.326081 0.710771 0
M  V30 856 H 83.3625 -0.215914 1.93499 0
M  V30 857 H 81.5335 -2.52029 2.95527 0
M  V30 858 H 83.2655 -2.47848 3.19927 0
M  V30 859 H 80.0205 -1.04335 4.61964 0
M  V30 860 H 80.4445 0.479428 6.753 0
M  V30 861 H 85.0865 -0.807313 4.15021 0
M  V30 862 H 82.8045 1.54105 7.9327 0
M  V30 863 H 86.3905 0.499012 5.79656 0
M  V30 864 H 85.2705 1.65679 7.66499 0
M  V30 865 N 82.7736 -1.49793 -0.48987 0
M  V30 866 C 84.1846 -1.52914 -1.07118 0
M  V30 867 C 84.5356 -0.321738 -1.93544 0
M  V30 868 O 83.6606 0.567338 -2.08831 0
M  V30 869 C 84.2556 -2.771 -1.94938 0
M  V30 870 C 82.8146 -2.82963 -2.48212 0
M  V30 871 C 81.9616 -2.46972 -1.26096 0
M  V30 872 H 84.9126 -1.56329 -0.273289 0
M  V30 873 H 84.9336 -2.57892 -2.79771 0
M  V30 874 H 84.4456 -3.64959 -1.32009 0
M  V30 875 H 82.5466 -1.99411 -3.14748 0
M  V30 876 H 82.6596 -3.85406 -2.84603 0
M  V30 877 H 81.0236 -1.98994 -1.58976 0
M  V30 878 H 81.8066 -3.37118 -0.648581 0
M  V30 879 N 84.2517 0.741722 -1.39055 0
M  V30 880 C 85.2147 1.83733 -1.37021 0
M  V30 881 C 86.2147 1.58542 -0.268534 0
M  V30 882 O 87.4047 1.66067 -0.526076 0
M  V30 883 C 84.5367 3.2141 -1.13617 0
M  V30 884 H 85.7297 1.86941 -2.34506 0
M  V30 885 H 83.2827 0.944676 -1.24521 0
M  V30 886 H 84.0177 3.23865 -0.167863 0
M  V30 887 H 83.8027 3.4109 -1.93391 0
M  V30 888 H 85.2927 4.01477 -1.14918 0
M  V30 889 N 85.7298 1.2412 0.971189 0
M  V30 890 C 86.6598 1.05508 2.08304 0
M  V30 891 C 87.6408 -0.0308864 1.70072 0
M  V30 892 O 88.8258 0.135521 1.93727 0
M  V30 893 C 85.9558 0.655365 3.4106 0
M  V30 894 C 84.9098 1.68971 3.93234 0
M  V30 895 C 84.2358 1.14516 5.22293 0
M  V30 896 C 85.5358 3.08487 4.21465 0
M  V30 897 H 87.2298 1.98507 2.24132 0
M  V30 898 H 84.7758 0.955821 1.07704 0
M  V30 899 H 86.7288 0.51217 4.18276 0
M  V30 900 H 85.4528 -0.31032 3.25122 0
M  V30 901 H 84.1118 1.82106 3.18171 0
M  V30 902 H 83.7598 0.170189 5.02712 0
M  V30 903 H 83.4598 1.83635 5.58168 0
M  V30 904 H 84.9838 1.01401 6.02121 0
M  V30 905 H 86.3978 2.98601 4.89398 0
M  V30 906 H 84.7948 3.74926 4.68562 0
M  V30 907 H 85.8648 3.56787 3.28376 0
M  V30 908 N 87.2079 -1.17134 1.05439 0
M  V30 909 C 88.4329 -1.91913 0.786396 0
M  V30 910 C 88.8579 -1.7643 -0.652234 0
M  V30 911 O 88.2159 -1.08372 -1.45345 0
M  V30 912 C 88.2639 -3.40921 1.17497 0
M  V30 913 O 87.3679 -4.11244 0.308589 0
M  V30 914 H 86.7089 -0.598215 0.288158 0
M  V30 915 H 89.2389 -1.48457 1.4079 0
M  V30 916 H 89.2489 -3.91668 1.14281 0
M  V30 917 H 87.9239 -3.5151 2.22292 0
M  V30 918 H 86.5009 -3.70731 0.40157 0
M  V30 919 N 88.686 -0.835752 -1.33615 0
M  V30 920 C 89.935 -0.426289 -1.97144 0
M  V30 921 C 90.248 1.01912 -1.66953 0
M  V30 922 O 91.454 1.53311 -2.24072 0
M  V30 923 C 89.91 -0.711321 -3.52801 0
M  V30 924 C 89.518 -2.1712 -3.91871 0
M  V30 925 C 91.262 -0.368654 -4.22896 0
M  V30 926 C 89.169 -2.40044 -5.40493 0
M  V30 927 H 88.099 -0.15567 -0.737755 0
M  V30 928 H 90.75 -1.0239 -1.52278 0
M  V30 929 H 89.132 -0.0433766 -3.95976 0
M  V30 930 H 90.306 -2.87936 -3.59763 0
M  V30 931 H 88.621 -2.47654 -3.34749 0
M  V30 932 H 91.218 -0.517601 -5.32189 0
M  V30 933 H 91.561 0.688078 -4.10574 0
M  V30 934 H 92.094 -0.991702 -3.8524 0
M  V30 935 H 88.833 -3.44271 -5.57815 0
M  V30 936 H 88.353 -1.73785 -5.74072 0
M  V30 937 H 90.032 -2.23042 -6.0734 0
M  V30 938 N 90.1641 1.46063 -0.591896 0
M  V30 939 C 91.4101 2.02638 -0.0811191 0
M  V30 940 C 91.7431 1.4613 1.27905 0
M  V30 941 O 91.0181 0.629908 1.84017 0
M  V30 942 C 91.3011 3.60091 -0.0252436 0
M  V30 943 C 91.1541 4.26965 -1.41496 0
M  V30 944 C 92.4731 4.3496 0.670685 0
M  V30 945 H 89.5921 0.73635 -0.0309524 0
M  V30 946 H 92.2341 1.741 -0.760859 0
M  V30 947 H 90.3841 3.84535 0.553624 0
M  V30 948 H 92.0561 4.13756 -2.0397 0
M  V30 949 H 90.2991 3.85971 -1.98011 0
M  V30 950 H 90.9701 5.35781 -1.32825 0
M  V30 951 H 93.4461 4.15716 0.178825 0
M  V30 952 H 92.3221 5.44686 0.678837 0
M  V30 953 H 92.5831 4.06685 1.73379 0
M  V30 954 N 91.6422 0.330177 1.54103 0
M  V30 955 C 92.8882 -0.270806 2.00984 0
M  V30 956 C 93.2212 -1.51265 1.21789 0
M  V30 957 O 92.4962 -1.92142 0.301927 0
M  V30 958 C 92.7792 -0.598339 3.55094 0
M  V30 959 C 92.6322 0.654674 4.4501 0
M  V30 960 C 93.9512 -1.41334 4.16789 0
M  V30 961 H 91.0702 -0.0969531 0.730595 0
M  V30 962 H 93.7122 0.448066 1.84641 0
M  V30 963 H 91.8622 -1.21078 3.69151 0
M  V30 964 H 93.5342 1.29285 4.42813 0
M  V30 965 H 91.7772 1.28224 4.14416 0
M  V30 966 H 92.4482 0.380944 5.50684 0
M  V30 967 H 94.9242 -0.895597 4.06347 0
M  V30 968 H 93.8002 -1.61127 5.24718 0
M  V30 969 H 94.0612 -2.41146 3.70541 0
M  V30 970 N 93.1203 -1.57491 0.0584922 0
M  V30 971 C 94.3693 -1.92155 -0.613146 0
M  V30 972 C 94.6823 -0.939334 -1.71569 0
M  V30 973 O 95.8883 -1.17829 -2.44599 0
M  V30 974 C 94.3443 -3.41303 -1.14195 0
M  V30 975 C 93.9523 -4.47944 -0.0711265 0
M  V30 976 C 95.6963 -3.84988 -1.78841 0
M  V30 977 C 93.6033 -5.88212 -0.613225 0
M  V30 978 H 92.5333 -0.717162 -0.232796 0
M  V30 979 H 95.1843 -1.83049 0.12857 0
M  V30 980 H 93.5663 -3.45437 -1.93621 0
M  V30 981 H 94.7403 -4.55408 0.702836 0
M  V30 982 H 93.0553 -4.13644 0.478313 0
M  V30 983 H 95.6523 -4.87159 -2.20408 0
M  V30 984 H 95.9953 -3.21632 -2.64308 0
M  V30 985 H 96.5283 -3.83401 -1.06059 0
M  V30 986 H 93.2673 -6.55183 0.203978 0
M  V30 987 H 92.7873 -5.84294 -1.35501 0
M  V30 988 H 94.4663 -6.37687 -1.09383 0
M  V30 989 N 94.5984 0.214957 -1.56127 0
M  V30 990 C 95.8474 0.936451 -1.78643 0
M  V30 991 C 96.1604 1.85237 -0.628229 0
M  V30 992 O 97.3664 2.613 -0.737186 0
M  V30 993 C 95.8224 1.7154 -3.16389 0
M  V30 994 C 95.4304 0.845299 -4.39953 0
M  V30 995 C 97.1744 2.42772 -3.48227 0
M  V30 996 C 95.0814 1.62198 -5.68723 0
M  V30 997 H 94.0114 0.353401 -0.666051 0
M  V30 998 H 96.6624 0.190169 -1.82512 0
M  V30 999 H 95.0444 2.50484 -3.06715 0
M  V30 1000 H 96.2184 0.0959353 -4.607 0
M  V30 1001 H 94.5334 0.244789 -4.1568 0
M  V30 1002 H 97.1304 3.01394 -4.41663 0
M  V30 1003 H 97.4734 3.15984 -2.71035 0
M  V30 1004 H 98.0064 1.70813 -3.5926 0
M  V30 1005 H 94.7454 0.933011 -6.48826 0
M  V30 1006 H 94.2654 2.34579 -5.52026 0
M  V30 1007 H 95.9444 2.18095 -6.09133 0
M  V30 1008 N 96.0765 1.50051 0.48192 0
M  V30 1009 C 97.3255 1.59741 1.23149 0
M  V30 1010 C 97.6385 0.298163 1.93314 0
M  V30 1011 O 98.8445 0.273835 2.70116 0
M  V30 1012 C 97.3005 2.81926 2.23708 0
M  V30 1013 C 96.9085 4.18685 1.59396 0
M  V30 1014 C 98.6525 3.00956 2.99375 0
M  V30 1015 C 96.5595 5.3207 2.58178 0
M  V30 1016 H 95.4895 0.594838 0.46334 0
M  V30 1017 H 98.1405 1.76467 0.503169 0
M  V30 1018 H 96.5225 2.58736 2.99786 0
M  V30 1019 H 97.6965 4.52088 0.891811 0
M  V30 1020 H 96.0115 4.05171 0.960503 0
M  V30 1021 H 98.6085 3.82836 3.73283 0
M  V30 1022 H 98.9515 2.12258 3.58123 0
M  V30 1023 H 99.4845 3.24277 2.30411 0
M  V30 1024 H 96.2235 6.22888 2.04184 0
M  V30 1025 H 95.7435 5.03098 3.26577 0
M  V30 1026 H 97.4225 5.62196 3.20225 0
M  V30 1027 N 97.5546 -0.734337 1.39446 0
M  V30 1028 C 98.4876 -1.85715 1.32609 0
M  V30 1029 C 99.4656 -1.6137 0.199636 0
M  V30 1030 O 100.65 -1.84626 0.380195 0
M  V30 1031 C 97.7766 -3.21709 1.05929 0
M  V30 1032 C 96.8226 -3.64913 2.20773 0
M  V30 1033 S 97.6556 -3.74203 3.83056 0
M  V30 1034 C 98.8116 -5.12986 3.58603 0
M  V30 1035 H 99.0446 -1.91232 2.27635 0
M  V30 1036 H 96.5776 -0.899263 1.25509 0
M  V30 1037 H 98.5356 -4.00236 0.912203 0
M  V30 1038 H 97.1966 -3.13848 0.125883 0
M  V30 1039 H 96.3896 -4.63606 1.97699 0
M  V30 1040 H 95.9916 -2.93593 2.31688 0
M  V30 1041 H 98.2836 -5.99339 3.15909 0
M  V30 1042 H 99.2266 -5.41088 4.5676 0
M  V30 1043 H 99.6346 -4.82694 2.9269 0
M  V30 1044 N 99.0327 -1.24633 -0.964593 0
M  V30 1045 C 100.261 -1.11501 -1.74285 0
M  V30 1046 C 100.676 0.332165 -1.85855 0
M  V30 1047 O 100.033 1.22903 -1.34911 0
M  V30 1048 C 100.084 -1.75258 -3.16175 0
M  V30 1049 O 99.8047 -3.14318 -3.05182 0
M  V30 1050 C 101.306 -1.67776 -4.10324 0
M  V30 1051 H 98.5257 -0.389407 -0.546446 0
M  V30 1052 H 101.07 -1.64801 -1.21083 0
M  V30 1053 H 99.2247 -1.25954 -3.66353 0
M  V30 1054 H 99.6387 -3.4551 -3.94618 0
M  V30 1055 H 101.113 -2.17064 -5.0753 0
M  V30 1056 H 101.59 -0.639584 -4.34518 0
M  V30 1057 H 102.196 -2.16522 -3.66058 0
M  V30 1058 N 100.511 1.16574 -1.06058 0
M  V30 1059 C 101.76 1.86385 -0.770944 0
M  V30 1060 C 102.073 1.82448 0.705129 0
M  V30 1061 O 103.279 2.47815 1.10905 0
M  V30 1062 C 101.735 3.34466 -1.32893 0
M  V30 1063 C 101.343 3.46883 -2.83507 0
M  V30 1064 C 103.087 4.09548 -1.11672 0
M  V30 1065 C 100.994 4.89036 -3.32562 0
M  V30 1066 H 99.9238 0.698181 -0.284709 0
M  V30 1067 H 102.575 1.31583 -1.27899 0
M  V30 1068 H 100.957 3.88859 -0.748662 0
M  V30 1069 H 102.131 3.02663 -3.47465 0
M  V30 1070 H 100.446 2.85232 -3.03368 0
M  V30 1071 H 103.043 5.14434 -1.45814 0
M  V30 1072 H 103.386 4.16264 -0.0549535 0
M  V30 1073 H 103.919 3.61387 -1.66265 0
M  V30 1074 H 100.658 4.87499 -4.38207 0
M  V30 1075 H 100.178 5.3389 -2.73351 0
M  V30 1076 H 101.857 5.57843 -3.2775 0
M  V30 1077 N 101.989 0.842826 1.3317 0
M  V30 1078 C 103.237 0.439577 1.97262 0
M  V30 1079 C 103.558 -1.00548 1.67078 0
M  V30 1080 O 102.828 -1.70098 0.971779 0
M  V30 1081 H 101.408 0.159558 0.72976 0
M  V30 1082 H 104.07 1.07665 1.62463 0
M  V30 1083 H 103.166 0.574886 3.0676 0
M  V30 1084 N 103.467 -1.45747 0.599634 0
M  V30 1085 C 104.715 -2.01893 0.0915472 0
M  V30 1086 C 105.036 -1.47155 -1.27946 0
M  V30 1087 O 104.306 -0.66273 -1.84349 0
M  V30 1088 H 102.886 -0.746363 0.0308524 0
M  V30 1089 H 105.548 -1.78645 0.779237 0
M  V30 1090 H 104.644 -3.1208 0.0353086 0
M  V30 1091 N 104.945 -0.338344 -1.53925 0
M  V30 1092 C 105.893 0.536231 -2.26335 0
M  V30 1093 C 106.887 1.1063 -1.28286 0
M  V30 1094 O 108.093 1.05264 -1.46012 0
M  V30 1095 H 104.468 0.191602 -0.727181 0
M  V30 1096 H 106.439 -0.0965747 -2.98244 0
M  V30 1097 C 105.188 1.67803 -3.04528 0
M  V30 1098 H 104.511 1.24864 -3.79801 0
M  V30 1099 H 105.951 2.26526 -3.58416 0
M  V30 1100 C 104.41 2.60439 -2.13712 0
M  V30 1101 O 104.94 3.6255 -1.72975 0
M  V30 1102 N 103.146 2.29006 -1.78898 0
M  V30 1103 H 102.693 1.46011 -2.12223 0
M  V30 1104 H 102.651 2.91248 -1.18416 0
M  V30 1105 N 106.423 1.57458 -0.0668435 0
M  V30 1106 C 107.672 1.92477 0.602947 0
M  V30 1107 C 107.985 0.948419 1.71068 0
M  V30 1108 O 109.191 1.19124 2.43971 0
M  V30 1109 C 107.647 3.41903 1.12383 0
M  V30 1110 C 107.255 4.47975 0.04737 0
M  V30 1111 C 108.999 3.85931 1.76797 0
M  V30 1112 C 106.906 5.88529 0.582022 0
M  V30 1113 H 105.836 0.718387 0.22899 0
M  V30 1114 H 108.487 1.82978 -0.138276 0
M  V30 1115 H 106.869 3.46459 1.91787 0
M  V30 1116 H 108.043 4.55029 -0.726978 0
M  V30 1117 H 106.358 4.13384 -0.500243 0
M  V30 1118 H 108.955 4.88322 2.17821 0
M  V30 1119 H 109.298 3.23029 2.62599 0
M  V30 1120 H 109.831 3.83958 1.04024 0
M  V30 1121 H 106.57 6.55065 -0.238721 0
M  V30 1122 H 106.09 5.85004 1.324 0
M  V30 1123 H 107.769 6.38258 1.05999 0
M  V30 1124 N 107.901 -0.206675 1.56239 0
M  V30 1125 C 108.831 -1.25909 1.96645 0
M  V30 1126 C 109.812 -1.48097 0.836734 0
M  V30 1127 O 110.997 -1.6003 1.10019 0
M  V30 1128 C 108.127 -2.6058 2.29599 0
M  V30 1129 C 107.081 -2.53024 3.452 0
M  V30 1130 C 106.407 -3.91861 3.63798 0
M  V30 1131 C 107.707 -2.06524 4.79734 0
M  V30 1132 H 109.401 -0.923369 2.84806 0
M  V30 1133 H 106.947 -0.442735 1.37025 0
M  V30 1134 H 108.9 -3.34375 2.56459 0
M  V30 1135 H 107.624 -2.95869 1.38307 0
M  V30 1136 H 106.283 -1.81684 3.18412 0
M  V30 1137 H 105.931 -4.24483 2.69857 0
M  V30 1138 H 105.631 -3.87683 4.4156 0
M  V30 1139 H 107.155 -4.67296 3.93022 0
M  V30 1140 H 108.569 -2.70072 5.05702 0
M  V30 1141 H 106.966 -2.13374 5.60885 0
M  V30 1142 H 108.036 -1.01802 4.74093 0
M  V30 1143 N 109.379 -1.50304 -0.473955 0
M  V30 1144 C 110.625 -1.61389 -1.22806 0
M  V30 1145 C 110.958 -0.311955 -1.91678 0
M  V30 1146 O 110.233 0.686384 -1.81986 0
M  V30 1147 C 110.516 -2.79219 -2.27396 0
M  V30 1148 C 110.369 -4.19286 -1.62848 0
M  V30 1149 C 111.688 -2.92614 -3.28732 0
M  V30 1150 H 108.807 -0.587399 -0.445119 0
M  V30 1151 H 111.449 -1.82681 -0.522265 0
M  V30 1152 H 109.599 -2.61195 -2.87592 0
M  V30 1153 H 111.271 -4.48892 -1.06271 0
M  V30 1154 H 109.514 -4.23677 -0.931693 0
M  V30 1155 H 110.185 -4.97655 -2.38838 0
M  V30 1156 H 112.661 -3.09105 -2.78556 0
M  V30 1157 H 111.537 -3.76688 -3.99246 0
M  V30 1158 H 111.798 -2.03107 -3.92683 0
M  V30 1159 N 110.857 0.726932 -1.39834 0
M  V30 1160 C 112.106 1.48214 -1.36805 0
M  V30 1161 C 112.419 1.95576 0.0305291 0
M  V30 1162 O 113.625 2.7088 0.183417 0
M  V30 1163 C 112.081 2.67854 -2.40379 0
M  V30 1164 C 111.689 2.27408 -3.85992 0
M  V30 1165 C 113.433 3.45641 -2.46439 0
M  V30 1166 C 111.34 3.43819 -4.81189 0
M  V30 1167 H 110.27 0.556606 -0.508631 0
M  V30 1168 H 112.921 0.792216 -1.65518 0
M  V30 1169 H 111.303 3.3896 -2.04749 0
M  V30 1170 H 112.477 1.63795 -4.30706 0
M  V30 1171 H 110.792 1.62692 -3.83302 0
M  V30 1172 H 113.389 4.32244 -3.14753 0
M  V30 1173 H 113.732 3.88669 -1.49139 0
M  V30 1174 H 114.265 2.8157 -2.81004 0
M  V30 1175 H 111.004 3.05834 -5.79781 0
M  V30 1176 H 110.524 4.06385 -4.41148 0
M  V30 1177 H 112.203 4.10043 -5.00474 0
M  V30 1178 N 112.336 1.25143 0.95797 0
M  V30 1179 C 113.269 0.995565 2.05338 0
M  V30 1180 C 114.247 -0.0740423 1.62431 0
M  V30 1181 O 115.431 0.0649212 1.88388 0
M  V30 1182 C 112.558 0.504298 3.34925 0
M  V30 1183 C 111.604 1.56393 3.96792 0
M  V30 1184 S 112.437 3.14815 4.33188 0
M  V30 1185 C 113.593 2.67415 5.65898 0
M  V30 1186 H 113.826 1.92309 2.26726 0
M  V30 1187 H 111.359 1.08635 1.09716 0
M  V30 1188 H 113.317 0.227497 4.09869 0
M  V30 1189 H 111.978 -0.402671 3.11508 0
M  V30 1190 H 111.171 1.17082 4.90212 0
M  V30 1191 H 110.773 1.79124 3.28315 0
M  V30 1192 H 113.065 2.10833 6.4386 0
M  V30 1193 H 114.008 3.59463 6.10076 0
M  V30 1194 H 114.416 2.07521 5.24972 0
M  V30 1195 N 113.814 -1.1601 1.06675 0
M  V30 1196 C 114.777 -2.18724 0.685001 0
M  V30 1197 C 115.777 -1.58496 -0.271246 0
M  V30 1198 O 116.967 -1.74119 -0.0531156 0
M  V30 1199 C 114.099 -3.40899 0.00853648 0
M  V30 1200 H 115.292 -2.54011 1.59431 0
M  V30 1201 H 112.845 -1.30352 0.862441 0
M  V30 1202 H 113.58 -3.11173 -0.913337 0
M  V30 1203 H 113.365 -3.8587 0.696204 0
M  V30 1204 H 114.855 -4.16886 -0.24414 0
M  V30 1205 N 115.292 -0.849877 -1.32721 0
M  V30 1206 C 116.538 -0.451591 -1.97708 0
M  V30 1207 C 116.871 0.989175 -1.6712 0
M  V30 1208 O 116.146 1.69334 -0.956891 0
M  V30 1209 C 116.429 -0.685598 -3.53513 0
M  V30 1210 C 116.282 -2.17444 -3.93749 0
M  V30 1211 C 117.601 -0.138874 -4.39881 0
M  V30 1212 H 114.72 -0.16555 -0.718166 0
M  V30 1213 H 117.362 -1.06742 -1.57182 0
M  V30 1214 H 115.512 -0.161416 -3.88165 0
M  V30 1215 H 117.184 -2.76433 -3.693 0
M  V30 1216 H 115.427 -2.65476 -3.43081 0
M  V30 1217 H 116.098 -2.28888 -5.02309 0
M  V30 1218 H 118.574 -0.587068 -4.11938 0
M  V30 1219 H 117.45 -0.332213 -5.47894 0
M  V30 1220 H 117.711 0.95806 -4.31594 0
M  V30 1221 N 116.77 1.45427 -0.607355 0
M  V30 1222 C 117.995 2.07124 -0.107006 0
M  V30 1223 C 118.42 1.44906 1.19933 0
M  V30 1224 O 117.778 0.541687 1.73019 0
M  V30 1225 C 117.826 3.60595 0.0194119 0
M  V30 1226 O 116.93 3.98285 1.0697 0
M  V30 1227 H 116.271 0.659868 -0.0739597 0
M  V30 1228 H 118.801 1.86683 -0.837297 0
M  V30 1229 H 118.811 4.07419 0.2177 0
M  V30 1230 H 117.486 4.05266 -0.934453 0
M  V30 1231 H 116.063 3.63133 0.847889 0
M  V30 1232 N 118.248 0.346503 1.53744 0
M  V30 1233 C 119.181 -0.552023 2.21423 0
M  V30 1234 C 120.159 -1.09798 1.19929 0
M  V30 1235 O 121.343 -1.1577 1.4876 0
M  V30 1236 C 118.47 -1.75972 2.89398 0
M  V30 1237 C 117.516 -1.34295 4.04805 0
M  V30 1238 S 118.349 -0.360263 5.34287 0
M  V30 1239 C 119.505 -1.57473 6.05767 0
M  V30 1240 H 119.738 0.0228119 2.97291 0
M  V30 1241 H 117.271 0.130579 1.53847 0
M  V30 1242 H 119.229 -2.45256 3.2918 0
M  V30 1243 H 117.89 -2.30578 2.1329 0
M  V30 1244 H 117.083 -2.24349 4.51313 0
M  V30 1245 H 116.685 -0.729555 3.66815 0
M  V30 1246 H 118.977 -2.50875 6.29339 0
M  V30 1247 H 119.92 -1.15138 6.98676 0
M  V30 1248 H 120.328 -1.77212 5.35963 0
M  V30 1249 N 119.726 -1.57421 0.075193 0
M  V30 1250 C 120.636 -2.1642 -0.905511 0
M  V30 1251 C 121.652 -1.12828 -1.32461 0
M  V30 1252 O 122.828 -1.45109 -1.39661 0
M  V30 1253 C 119.893 -2.71693 -2.15369 0
M  V30 1254 C 118.954 -3.90171 -1.79068 0
M  V30 1255 C 118.187 -4.42798 -2.97936 0
M  V30 1256 O 118.41 -3.94416 -4.12058 0
M  V30 1257 O 117.344 -5.34085 -2.77555 0
M  V30 1258 H 121.17 -3.00588 -0.433626 0
M  V30 1259 H 118.755 -1.48664 -0.148067 0
M  V30 1260 H 120.637 -3.07104 -2.88557 0
M  V30 1261 H 119.312 -1.90582 -2.61649 0
M  V30 1262 H 118.219 -3.59606 -1.03122 0
M  V30 1263 H 119.552 -4.72584 -1.37569 0
M  V30 1264 N 121.204 0.198386 -1.56346 0
M  V30 1265 C 122.151 1.24589 -1.94284 0
M  V30 1266 C 123.121 1.454 -0.802997 0
M  V30 1267 O 124.306 1.58588 -1.06087 0
M  V30 1268 C 121.446 2.58631 -2.28482 0
M  V30 1269 C 120.559 2.45426 -3.55514 0
M  V30 1270 C 119.694 3.7215 -3.79049 0
M  V30 1271 C 118.733 3.53763 -4.99518 0
M  V30 1272 N 117.87 4.72491 -5.19323 0
M  V30 1273 H 122.71 0.915356 -2.83593 0
M  V30 1274 H 120.247 0.440629 -1.40346 0
M  V30 1275 H 122.205 3.3672 -2.46324 0
M  V30 1276 H 120.835 2.89734 -1.42317 0
M  V30 1277 H 119.887 1.58652 -3.45737 0
M  V30 1278 H 121.199 2.27772 -4.43758 0
M  V30 1279 H 120.353 4.58679 -3.97113 0
M  V30 1280 H 119.092 3.92754 -2.89129 0
M  V30 1281 H 118.097 2.65619 -4.8138 0
M  V30 1282 H 119.322 3.34607 -5.90944 0
M  V30 1283 H 117.268 4.93365 -4.3235 0
M  V30 1284 H 117.185 4.5765 -6.01741 0
M  V30 1285 H 118.453 5.6038 -5.41843 0
M  V30 1286 N 122.682 1.50554 0.465978 0
M  V30 1287 C 123.629 1.6979 1.56333 0
M  V30 1288 C 124.599 0.539239 1.57103 0
M  V30 1289 O 125.784 0.770401 1.74555 0
M  V30 1290 C 122.924 1.80273 2.94271 0
M  V30 1291 C 122.037 3.07674 3.0325 0
M  V30 1292 C 121.172 3.08922 4.32135 0
M  V30 1293 C 120.211 4.30755 4.34875 0
M  V30 1294 N 119.348 4.29714 5.55239 0
M  V30 1295 H 124.188 2.63472 1.39235 0
M  V30 1296 H 121.725 1.30602 0.676873 0
M  V30 1297 H 123.683 1.84332 3.74269 0
M  V30 1298 H 122.313 0.900258 3.09992 0
M  V30 1299 H 121.365 3.13062 2.16094 0
M  V30 1300 H 122.677 3.97642 3.01135 0
M  V30 1301 H 121.831 3.11738 5.20485 0
M  V30 1302 H 120.57 2.16792 4.36866 0
M  V30 1303 H 119.575 4.28146 3.44922 0
M  V30 1304 H 120.8 5.24117 4.31831 0
M  V30 1305 H 118.746 3.4044 5.60746 0
M  V30 1306 H 118.663 5.13456 5.54886 0
M  V30 1307 H 119.931 4.36683 6.457 0
M  V30 1308 N 124.16 -0.719506 1.40217 0
M  V30 1309 C 125.09 -1.8465 1.42922 0
M  V30 1310 C 126.071 -1.67599 0.29062 0
M  V30 1311 O 127.256 -1.87688 0.498677 0
M  V30 1312 C 124.386 -3.22565 1.28722 0
M  V30 1313 C 123.34 -3.54281 2.40144 0
M  V30 1314 C 122.666 -4.91298 2.11023 0
M  V30 1315 C 123.966 -3.55676 3.82481 0
M  V30 1316 H 125.66 -1.82644 2.37237 0
M  V30 1317 H 123.206 -0.877305 1.1419 0
M  V30 1318 H 125.159 -4.01095 1.29232 0
M  V30 1319 H 123.883 -3.25137 0.308811 0
M  V30 1320 H 122.542 -2.78088 2.38877 0
M  V30 1321 H 122.19 -4.90468 1.11582 0
M  V30 1322 H 121.89 -5.13485 2.8567 0
M  V30 1323 H 123.414 -5.72166 2.13209 0
M  V30 1324 H 124.828 -4.24254 3.85592 0
M  V30 1325 H 123.225 -3.89388 4.56614 0
M  V30 1326 H 124.295 -2.55144 4.12346 0
M  V30 1327 N 125.638 -1.25649 -0.95132 0
M  V30 1328 C 126.588 -1.03004 -2.03406 0
M  V30 1329 C 127.572 0.034187 -1.60864 0
M  V30 1330 O 128.764 -0.181549 -1.76066 0
M  V30 1331 C 125.893 -0.654255 -3.37008 0
M  V30 1332 C 124.979 -1.75542 -3.86065 0
M  V30 1333 N 125.37 -2.99113 -4.07879 0
M  V30 1334 C 123.668 -1.63669 -4.14884 0
M  V30 1335 C 124.369 -3.70611 -4.48356 0
M  V30 1336 N 123.345 -2.98247 -4.54477 0
M  V30 1337 H 127.147 -1.96813 -2.1827 0
M  V30 1338 H 124.661 -1.16017 -1.13639 0
M  V30 1339 H 126.658 -0.473206 -4.14206 0
M  V30 1340 H 125.318 0.276468 -3.23521 0
M  V30 1341 H 126.329 -3.35124 -3.94857 0
M  V30 1342 H 123.006 -0.775161 -4.10241 0
M  V30 1343 H 124.396 -4.76695 -4.73509 0
M  V30 1344 N 127.117 1.15442 -1.07289 0
M  V30 1345 C 128.065 2.22225 -0.686952 0
M  V30 1346 C 129.059 1.66688 0.30193 0
M  V30 1347 O 130.265 1.79236 0.165712 0
M  V30 1348 H 126.64 0.723783 -0.204064 0
M  V30 1349 H 128.611 2.52056 -1.5972 0
M  V30 1350 C 127.36 3.47556 -0.100149 0
M  V30 1351 H 126.683 3.90612 -0.852211 0
M  V30 1352 H 128.123 4.23794 0.132235 0
M  V30 1353 C 126.582 3.16337 1.159 0
M  V30 1354 O 127.112 3.33074 2.24555 0
M  V30 1355 N 125.318 2.70385 1.06491 0
M  V30 1356 H 124.865 2.56966 0.180668 0
M  V30 1357 H 124.823 2.49871 1.90819 0
M  V30 1358 N 128.595 0.856903 1.32268 0
M  V30 1359 C 129.558 0.308171 2.27119 0
M  V30 1360 C 130.558 -0.533421 1.51695 0
M  V30 1361 O 131.748 -0.344607 1.70757 0
M  V30 1362 C 128.88 -0.563757 3.36206 0
M  V30 1363 H 130.073 1.14535 2.77167 0
M  V30 1364 H 127.626 0.631421 1.42978 0
M  V30 1365 H 128.361 -1.42266 2.91429 0
M  V30 1366 H 128.146 0.0386749 3.92081 0
M  V30 1367 H 129.636 -0.940386 4.06874 0
M  V30 1368 N 130.073 -1.45103 0.615059 0
M  V30 1369 C 131.301 -2.06553 0.11977 0
M  V30 1370 C 131.716 -1.45842 -1.19898 0
M  V30 1371 O 131.073 -0.575325 -1.73194 0
M  V30 1372 C 131.124 -3.61495 -0.018364 0
M  V30 1373 O 130.845 -4.19942 1.24822 0
M  V30 1374 C 132.346 -4.39947 -0.544237 0
M  V30 1375 H 129.566 -0.667096 0.0722739 0
M  V30 1376 H 132.11 -1.8623 0.84491 0
M  V30 1377 H 130.265 -3.81135 -0.693865 0
M  V30 1378 H 130.679 -5.13204 1.0827 0
M  V30 1379 H 132.153 -5.48838 -0.589953 0
M  V30 1380 H 132.63 -4.10255 -1.56805 0
M  V30 1381 H 133.236 -4.25188 0.0974703 0
M  V30 1382 N 131.551 -0.354651 -1.53558 0
M  V30 1383 C 132.499 0.512195 -2.26891 0
M  V30 1384 C 133.493 1.09263 -1.29452 0
M  V30 1385 O 134.699 1.03709 -1.47121 0
M  V30 1386 H 131.074 0.183878 -0.729173 0
M  V30 1387 H 133.045 -0.128202 -2.98124 0
M  V30 1388 C 131.794 1.64563 -3.06291 0
M  V30 1389 H 131.117 1.20829 -3.81104 0
M  V30 1390 H 132.557 2.22711 -3.60799 0
M  V30 1391 C 131.016 2.58158 -2.16462 0
M  V30 1392 O 131.546 3.60695 -1.76811 0
M  V30 1393 N 129.752 2.27096 -1.81317 0
M  V30 1394 H 129.299 1.43751 -2.1376 0
M  V30 1395 H 129.257 2.89975 -1.21498 0
M  V30 1396 N 133.029 1.57378 -0.0835403 0
M  V30 1397 C 134.259 1.97975 0.590713 0
M  V30 1398 C 134.667 0.961083 1.62972 0
M  V30 1399 O 134.01 -0.0590879 1.83605 0
M  V30 1400 C 134.072 3.34915 1.3066 0
M  V30 1401 C 133.736 4.55069 0.419698 0
M  V30 1402 C 134.733 5.18868 -0.32749 0
M  V30 1403 C 132.418 5.0114 0.341137 0
M  V30 1404 C 134.412 6.27098 -1.14134 0
M  V30 1405 C 132.099 6.0924 -0.476374 0
M  V30 1406 C 133.097 6.72083 -1.21627 0
M  V30 1407 O 132.785 7.781 -2.02028 0
M  V30 1408 H 132.517 0.655818 0.163947 0
M  V30 1409 H 135.071 2.04807 -0.156021 0
M  V30 1410 H 133.301 3.24733 2.09966 0
M  V30 1411 H 134.99 3.60037 1.87424 0
M  V30 1412 H 135.756 4.84211 -0.276459 0
M  V30 1413 H 131.635 4.51996 0.90668 0
M  V30 1414 H 135.179 6.7608 -1.71935 0
M  V30 1415 H 131.076 6.43329 -0.528927 0
M  V30 1416 H 131.844 7.95034 -1.94586 0
M  V30 1417 N 134.507 -0.190092 1.56449 0
M  V30 1418 C 135.754 -0.909705 1.80916 0
M  V30 1419 C 136.082 -1.83047 0.657583 0
M  V30 1420 O 135.337 -1.92428 -0.356356 0
M  V30 1421 C 135.636 -1.75382 3.1141 0
M  V30 1422 C 135.302 -0.983606 4.40041 0
M  V30 1423 C 133.964 -0.770967 4.74984 0
M  V30 1424 C 136.316 -0.442024 5.19322 0
M  V30 1425 C 133.644 -0.0053448 5.867 0
M  V30 1426 C 135.996 0.310412 6.31838 0
M  V30 1427 C 134.66 0.534023 6.6536 0
M  V30 1428 H 133.93 -0.332885 0.662019 0
M  V30 1429 H 136.577 -0.175762 1.90692 0
M  V30 1430 H 134.882 -2.55659 2.96893 0
M  V30 1431 H 136.579 -2.31331 3.27547 0
M  V30 1432 H 133.169 -1.15936 4.12622 0
M  V30 1433 H 137.353 -0.593693 4.92736 0
M  V30 1434 H 132.609 0.177825 6.11141 0
M  V30 1435 H 136.783 0.737419 6.92485 0
M  V30 1436 H 134.41 1.12918 7.51767 0
M  V30 1437 N 135.985 -1.50799 -0.457987 0
M  V30 1438 C 136.915 -1.73553 -1.5621 0
M  V30 1439 C 137.896 -0.584774 -1.59732 0
M  V30 1440 O 139.081 -0.825314 -1.7579 0
M  V30 1441 C 136.211 -1.84169 -2.94447 0
M  V30 1442 C 135.165 -2.99461 -3.0579 0
M  V30 1443 C 134.491 -2.95235 -4.45803 0
M  V30 1444 C 135.791 -4.39766 -2.81786 0
M  V30 1445 H 137.485 -2.66 -1.37421 0
M  V30 1446 H 135.031 -1.28002 -0.659662 0
M  V30 1447 H 136.984 -1.98672 -3.71628 0
M  V30 1448 H 135.708 -0.883545 -3.14422 0
M  V30 1449 H 134.367 -2.8463 -2.31044 0
M  V30 1450 H 134.015 -1.97239 -4.62715 0
M  V30 1451 H 133.715 -3.72642 -4.54326 0
M  V30 1452 H 135.239 -3.11803 -5.24987 0
M  V30 1453 H 136.653 -4.55054 -3.4871 0
M  V30 1454 H 135.05 -5.18722 -3.0174 0
M  V30 1455 H 136.12 -4.51229 -1.7754 0
M  V30 1456 N 137.463 0.71206 -1.40597 0
M  V30 1457 C 138.396 1.83582 -1.35546 0
M  V30 1458 C 139.374 1.61032 -0.225284 0
M  V30 1459 O 140.558 1.83998 -0.409519 0
M  V30 1460 C 137.685 3.19983 -1.11034 0
M  V30 1461 C 136.731 3.61355 -2.2655 0
M  V30 1462 S 137.564 3.68062 -3.88961 0
M  V30 1463 C 138.72 5.07216 -3.66719 0
M  V30 1464 H 138.953 1.87586 -2.30648 0
M  V30 1465 H 136.486 0.879182 -1.26924 0
M  V30 1466 H 138.444 3.98734 -0.975761 0
M  V30 1467 H 137.105 3.13608 -0.175798 0
M  V30 1468 H 136.298 4.60403 -2.0505 0
M  V30 1469 H 135.9 2.8987 -2.36329 0
M  V30 1470 H 138.192 5.94238 -3.25404 0
M  V30 1471 H 139.135 5.33753 -4.6531 0
M  V30 1472 H 139.543 4.77976 -3.00332 0
M  V30 1473 N 138.941 1.26152 0.944643 0
M  V30 1474 C 140.166 1.14363 1.7302 0
M  V30 1475 C 140.591 -0.29772 1.85729 0
M  V30 1476 O 139.949 -1.2157 1.34501 0
M  V30 1477 C 139.997 1.81378 3.11664 0
M  V30 1478 O 139.101 1.10022 3.97453 0
M  V30 1479 H 138.442 0.398694 0.53098 0
M  V30 1480 H 140.972 1.66906 1.18337 0
M  V30 1481 H 140.982 1.88064 3.62072 0
M  V30 1482 H 139.657 2.86237 3.0173 0
M  V30 1483 H 138.234 1.11287 3.55907 0
M  V30 1484 N 140.419 -1.14872 1.07899 0
M  V30 1485 C 141.349 -2.2193 0.725887 0
M  V30 1486 C 142.33 -1.67622 -0.28927 0
M  V30 1487 O 143.515 -1.93533 -0.160787 0
M  V30 1488 C 140.645 -3.47061 0.128856 0
M  V30 1489 C 139.599 -4.14363 1.07178 0
M  V30 1490 C 138.925 -5.33636 0.337229 0
M  V30 1491 C 140.225 -4.63492 2.40775 0
M  V30 1492 H 141.919 -2.51724 1.62097 0
M  V30 1493 H 139.465 -1.20991 0.780838 0
M  V30 1494 H 141.418 -4.21199 -0.130147 0
M  V30 1495 H 140.142 -3.16617 -0.80134 0
M  V30 1496 H 138.801 -3.42173 1.3158 0
M  V30 1497 H 138.449 -4.99449 -0.596606 0
M  V30 1498 H 138.149 -5.79609 0.965788 0
M  V30 1499 H 139.673 -6.10539 0.0861567 0
M  V30 1500 H 141.087 -5.2913 2.20669 0
M  V30 1501 H 139.484 -5.20148 2.99276 0
M  V30 1502 H 140.554 -3.78834 3.02676 0
M  V30 1503 N 141.898 -0.863906 -1.31812 0
M  V30 1504 C 142.861 -0.320212 -2.26952 0
M  V30 1505 C 143.861 0.525369 -1.51975 0
M  V30 1506 O 145.051 0.335547 -1.70938 0
M  V30 1507 C 142.183 0.545919 -3.365 0
M  V30 1508 H 143.376 -1.16004 -2.76556 0
M  V30 1509 H 140.929 -0.638995 -1.42641 0
M  V30 1510 H 141.664 1.40718 -2.92179 0
M  V30 1511 H 141.449 -0.0594674 -3.92055 0
M  V30 1512 H 142.939 0.918796 -4.07367 0
M  V30 1513 N 143.376 1.44774 -0.622745 0
M  V30 1514 C 144.625 2.01334 -0.121397 0
M  V30 1515 C 144.938 1.49505 1.26125 0
M  V30 1516 O 146.144 1.98139 1.85616 0
M  V30 1517 C 144.6 3.59516 -0.166298 0
M  V30 1518 C 144.208 4.20342 -1.54974 0
M  V30 1519 C 145.952 4.23582 0.279021 0
M  V30 1520 C 143.859 5.70721 -1.55021 0
M  V30 1521 H 142.789 0.752851 -0.0416172 0
M  V30 1522 H 145.44 1.66083 -0.780309 0
M  V30 1523 H 143.822 3.92027 0.559557 0
M  V30 1524 H 144.996 3.99381 -2.29851 0
M  V30 1525 H 143.311 3.68529 -1.93843 0
M  V30 1526 H 145.908 5.33868 0.298083 0
M  V30 1527 H 146.251 3.95327 1.30471 0
M  V30 1528 H 146.784 3.95843 -0.394063 0
M  V30 1529 H 143.523 6.03698 -2.55399 0
M  V30 1530 H 143.043 5.93829 -0.844245 0
M  V30 1531 H 144.722 6.34203 -1.28047 0
M  V30 1532 N 144.854 0.36279 1.53368 0
M  V30 1533 C 145.817 -0.472679 2.24273 0
M  V30 1534 C 146.817 -1.012 1.24961 0
M  V30 1535 O 148.007 -0.898194 1.49259 0
M  V30 1536 C 145.139 -1.66039 2.97731 0
M  V30 1537 H 146.332 0.14773 2.99536 0
M  V30 1538 H 143.885 0.114434 1.55881 0
M  V30 1539 H 144.62 -2.31896 2.26704 0
M  V30 1540 H 144.405 -1.28066 3.70596 0
M  V30 1541 H 145.895 -2.25252 3.51641 0
M  V30 1542 N 146.332 -1.57332 0.0918853 0
M  V30 1543 C 147.609 -1.85691 -0.614668 0
M  V30 1544 C 147.989 -0.988146 -1.86545 0
M  V30 1545 O 147.337 -0.0597055 -2.28422 0
M  V30 1546 C 147.547 -3.36294 -0.933126 0
M  V30 1547 C 148.895 -4.04275 -1.29796 0
M  V30 1548 O 149.919 -3.41157 -1.02424 0
M  V30 1549 O 148.778 -5.1564 -1.81047 0
M  V30 1550 H 145.872 -0.767802 -0.307261 0
M  V30 1551 H 148.418 -1.69244 0.12434 0
M  V30 1552 H 147.19 -3.91273 -0.0456404 0
M  V30 1553 H 146.813 -3.58076 -1.72822 0
M  V30 1554 N 147.81 0.181792 -1.56548 0
M  V30 1555 C 148.743 1.25366 -1.90679 0
M  V30 1556 C 149.721 1.43299 -0.768376 0
M  V30 1557 O 150.905 1.58475 -1.02068 0
M  V30 1558 C 148.032 2.61826 -2.1486 0
M  V30 1559 C 147.078 2.60688 -3.37556 0
M  V30 1560 S 147.911 2.10804 -4.92262 0
M  V30 1561 C 149.067 3.49062 -5.19525 0
M  V30 1562 H 149.3 0.962277 -2.81296 0
M  V30 1563 H 146.833 0.385892 -1.495 0
M  V30 1564 H 148.791 3.40371 -2.29473 0
M  V30 1565 H 147.452 2.88169 -1.24969 0
M  V30 1566 H 146.645 3.61058 -3.51643 0
M  V30 1567 H 146.247 1.90232 -3.22006 0
M  V30 1568 H 148.539 4.45003 -5.10861 0
M  V30 1569 H 149.482 3.39859 -6.2121 0
M  V30 1570 H 149.89 3.4459 -4.47122 0
M  V30 1571 N 149.288 1.51039 0.449983 0
M  V30 1572 C 150.218 1.74379 1.55288 0
M  V30 1573 C 151.199 0.593236 1.5942 0
M  V30 1574 O 152.384 0.834625 1.7535 0
M  V30 1575 C 149.514 1.85728 2.93466 0
M  V30 1576 C 148.468 3.01078 3.04197 0
M  V30 1577 C 147.794 2.97595 4.44231 0
M  V30 1578 C 149.094 4.41254 2.7945 0
M  V30 1579 H 150.788 2.66725 1.36008 0
M  V30 1580 H 148.334 1.2835 0.652864 0
M  V30 1581 H 150.287 2.0064 3.70569 0
M  V30 1582 H 149.011 0.900207 3.13949 0
M  V30 1583 H 147.67 2.85851 2.29531 0
M  V30 1584 H 147.318 1.99691 4.61663 0
M  V30 1585 H 147.018 3.75046 4.52343 0
M  V30 1586 H 148.542 3.14583 5.23326 0
M  V30 1587 H 149.956 4.56897 3.46292 0
M  V30 1588 H 148.353 5.20315 2.98985 0
M  V30 1589 H 149.423 4.52164 1.75144 0
M  V30 1590 N 150.766 -0.704594 1.40972 0
M  V30 1591 C 152.012 -1.46675 1.40051 0
M  V30 1592 C 152.345 -1.94199 0.00641102 0
M  V30 1593 O 151.62 -1.68916 -0.964235 0
M  V30 1594 C 151.903 -2.68505 2.39952 0
M  V30 1595 C 151.756 -2.26805 3.88432 0
M  V30 1596 C 153.075 -3.70686 2.37233 0
M  V30 1597 H 150.194 -0.532015 0.510028 0
M  V30 1598 H 152.836 -0.803255 1.72185 0
M  V30 1599 H 150.986 -3.25114 2.1268 0
M  V30 1600 H 152.658 -1.75592 4.26574 0
M  V30 1601 H 150.901 -1.58685 4.03734 0
M  V30 1602 H 151.572 -3.14181 4.53866 0
M  V30 1603 H 154.048 -3.23731 2.61415 0
M  V30 1604 H 152.924 -4.53553 3.09162 0
M  V30 1605 H 153.185 -4.19754 1.38777 0
M  V30 1606 N 152.244 -1.26651 -0.937939 0
M  V30 1607 C 153.492 -1.12165 -1.68118 0
M  V30 1608 C 153.813 0.334983 -1.92101 0
M  V30 1609 O 153.083 1.23583 -1.52 0
M  V30 1610 H 151.663 -0.412093 -0.623048 0
M  V30 1611 H 154.325 -1.59027 -1.12678 0
M  V30 1612 H 153.421 -1.64289 -2.6536 0
M  V30 1613 N 153.722 1.14298 -1.08507 0
M  V30 1614 C 154.652 2.21542 -0.737646 0
M  V30 1615 C 155.633 1.67773 0.280377 0
M  V30 1616 O 156.818 1.93616 0.150521 0
M  V30 1617 C 153.948 3.46988 -0.147259 0
M  V30 1618 C 152.902 4.13789 -1.09374 0
M  V30 1619 C 152.228 5.33449 -0.365524 0
M  V30 1620 C 153.528 4.62208 -2.4323 0
M  V30 1621 H 155.222 2.5086 -1.6343 0
M  V30 1622 H 152.768 1.20576 -0.787243 0
M  V30 1623 H 154.721 4.21262 0.107808 0
M  V30 1624 H 153.445 3.17037 0.784538 0
M  V30 1625 H 152.104 3.4147 -1.33393 0
M  V30 1626 H 151.752 4.99759 0.57011 0
M  V30 1627 H 151.452 5.79088 -0.996512 0
M  V30 1628 H 152.976 6.10485 -0.118534 0
M  V30 1629 H 154.39 5.27952 -2.23472 0
M  V30 1630 H 152.787 5.18553 -3.02031 0
M  V30 1631 H 153.857 3.77224 -3.04681 0
M  V30 1632 N 155.201 0.870884 1.31352 0
M  V30 1633 C 156.131 0.343096 2.30966 0
M  V30 1634 C 157.112 -0.566507 1.60389 0
M  V30 1635 O 158.297 -0.483336 1.88089 0
M  V30 1636 C 155.427 -0.455487 3.443 0
M  V30 1637 C 154.381 0.361103 4.26474 0
M  V30 1638 C 153.707 -0.563221 5.31725 0
M  V30 1639 C 155.007 1.59566 4.97329 0
M  V30 1640 H 156.701 1.17548 2.75359 0
M  V30 1641 H 154.247 0.566686 1.32381 0
M  V30 1642 H 156.2 -0.83525 4.13039 0
M  V30 1643 H 154.924 -1.32139 2.98675 0
M  V30 1644 H 153.583 0.722825 3.59403 0
M  V30 1645 H 153.231 -1.42643 4.82351 0
M  V30 1646 H 152.931 -0.0207409 5.87596 0
M  V30 1647 H 154.455 -0.939808 6.03324 0
M  V30 1648 H 155.869 1.28728 5.58661 0
M  V30 1649 H 154.266 2.07728 5.63 0
M  V30 1650 H 155.336 2.34798 4.24262 0
M  V30 1651 N 156.679 -1.44442 0.630414 0
M  V30 1652 C 157.925 -2.02351 0.134816 0
M  V30 1653 C 158.258 -1.4947 -1.23986 0
M  V30 1654 O 157.533 -0.678475 -1.82283 0
M  V30 1655 C 157.816 -3.59898 0.120707 0
M  V30 1656 C 157.669 -4.23063 1.52767 0
M  V30 1657 C 158.988 -4.36585 -0.555127 0
M  V30 1658 H 156.107 -0.73527 0.0504646 0
M  V30 1659 H 158.749 -1.72022 0.806751 0
M  V30 1660 H 156.899 -3.85868 -0.451477 0
M  V30 1661 H 158.571 -4.08202 2.14869 0
M  V30 1662 H 156.814 -3.80586 2.08175 0
M  V30 1663 H 157.485 -5.32071 1.46984 0
M  V30 1664 H 159.961 -4.16044 -0.0685429 0
M  V30 1665 H 158.837 -5.46294 -0.534185 0
M  V30 1666 H 159.098 -4.11138 -1.62535 0
M  V30 1667 N 158.157 -0.370918 -1.53173 0
M  V30 1668 C 159.09 0.516727 -2.22273 0
M  V30 1669 C 160.068 1.07877 -1.21661 0
M  V30 1670 O 161.252 1.13389 -1.50583 0
M  V30 1671 C 158.379 1.71346 -2.92161 0
M  V30 1672 C 157.425 1.27838 -4.0689 0
M  V30 1673 S 158.258 0.275217 -5.34792 0
M  V30 1674 C 159.414 1.47816 -6.08195 0
M  V30 1675 H 159.647 -0.0701054 -2.97217 0
M  V30 1676 H 157.18 -0.155038 -1.5362 0
M  V30 1677 H 159.138 2.39988 -3.3304 0
M  V30 1678 H 157.799 2.27156 -2.16931 0
M  V30 1679 H 156.992 2.17141 -4.54825 0
M  V30 1680 H 156.594 0.671105 -3.6793 0
M  V30 1681 H 158.886 2.40831 -6.33251 0
M  V30 1682 H 159.829 1.04008 -7.0042 0
M  V30 1683 H 160.237 1.68663 -5.38714 0
M  V30 1684 N 159.635 1.57281 -0.100228 0
M  V30 1685 C 161.046 1.81725 0.428107 0
M  V30 1686 C 161.397 1.01619 1.67833 0
M  V30 1687 O 160.522 0.247098 2.14985 0
M  V30 1688 C 161.117 3.29617 0.78347 0
M  V30 1689 C 159.676 3.54808 1.25653 0
M  V30 1690 C 158.823 2.76118 0.255752 0
M  V30 1691 H 161.774 1.55324 -0.325608 0
M  V30 1692 H 161.795 3.4322 1.64256 0
M  V30 1693 H 161.307 3.87893 -0.12665 0
M  V30 1694 H 159.408 3.01868 2.18418 0
M  V30 1695 H 159.521 4.63443 1.21482 0
M  V30 1696 H 157.885 2.43745 0.738956 0
M  V30 1697 H 158.668 3.37145 -0.647136 0
M  V30 1698 N 161.113 -0.173488 1.56642 0
M  V30 1699 C 162.043 -1.2171 1.99271 0
M  V30 1700 C 163.024 -1.46289 0.867959 0
M  V30 1701 O 164.209 -1.5766 1.13388 0
M  V30 1702 C 161.339 -2.55651 2.35074 0
M  V30 1703 C 160.293 -2.45645 3.50489 0
M  V30 1704 C 159.619 -3.84056 3.72028 0
M  V30 1705 C 160.919 -1.96302 4.84007 0
M  V30 1706 H 162.613 -0.86275 2.867 0
M  V30 1707 H 160.159 -0.413571 1.37933 0
M  V30 1708 H 162.112 -3.2886 2.63494 0
M  V30 1709 H 160.836 -2.92869 1.44552 0
M  V30 1710 H 159.495 -1.7489 3.22194 0
M  V30 1711 H 159.143 -4.18664 2.788 0
M  V30 1712 H 158.843 -3.7823 4.49684 0
M  V30 1713 H 160.367 -4.58854 4.02846 0
M  V30 1714 H 161.781 -2.59284 5.11317 0
M  V30 1715 H 160.178 -2.01429 5.65284 0
M  V30 1716 H 161.248 -0.917226 4.76146 0
M  V30 1717 N 162.591 -1.51276 -0.441967 0
M  V30 1718 C 163.816 -1.67799 -1.21895 0
M  V30 1719 C 164.241 -0.372864 -1.84367 0
M  V30 1720 O 163.599 0.666501 -1.68604 0
M  V30 1721 C 163.647 -2.79199 -2.28211 0
M  V30 1722 O 162.751 -2.42479 -3.33583 0
M  V30 1723 H 162.092 -0.559649 -0.357336 0
M  V30 1724 H 164.622 -1.97815 -0.522522 0
M  V30 1725 H 164.632 -3.03146 -2.73069 0
M  V30 1726 H 163.307 -3.73906 -1.82118 0
M  V30 1727 H 161.884 -2.29087 -2.94234 0
M  V30 1728 N 164.069 0.697108 -1.41344 0
M  V30 1729 C 164.999 1.82353 -1.45841 0
M  V30 1730 C 165.98 1.67115 -0.317247 0
M  V30 1731 O 167.165 1.86871 -0.528474 0
M  V30 1732 C 164.295 3.20476 -1.33838 0
M  V30 1733 C 163.249 3.50415 -2.4575 0
M  V30 1734 C 162.575 4.87878 -2.18813 0
M  V30 1735 C 163.875 3.49546 -3.88091 0
M  V30 1736 H 165.569 1.78846 -2.40113 0
M  V30 1737 H 163.115 0.859028 -1.15571 0
M  V30 1738 H 165.068 3.98988 -1.35596 0
M  V30 1739 H 163.792 3.24604 -0.360498 0
M  V30 1740 H 162.451 2.74253 -2.43271 0
M  V30 1741 H 162.099 4.8863 -1.19371 0
M  V30 1742 H 161.799 5.08875 -2.93803 0
M  V30 1743 H 163.323 5.68702 -2.22284 0
M  V30 1744 H 164.737 4.18066 -3.92293 0
M  V30 1745 H 163.134 3.82075 -4.62751 0
M  V30 1746 H 164.204 2.48552 -4.16353 0
M  V30 1747 N 165.547 1.27147 0.931209 0
M  V30 1748 C 166.477 1.12081 2.04842 0
M  V30 1749 C 167.458 0.0232364 1.70084 0
M  V30 1750 O 168.643 0.197085 1.93197 0
M  V30 1751 C 165.773 0.76354 3.38803 0
M  V30 1752 C 164.727 1.81396 3.87659 0
M  V30 1753 C 164.053 1.31075 5.18385 0
M  V30 1754 C 165.353 3.21739 4.11438 0
M  V30 1755 H 167.047 2.05537 2.17703 0
M  V30 1756 H 164.593 0.989603 1.04608 0
M  V30 1757 H 166.546 0.644982 4.16435 0
M  V30 1758 H 165.27 -0.206727 3.25945 0
M  V30 1759 H 163.929 1.92136 3.12217 0
M  V30 1760 H 163.577 0.330037 5.01916 0
M  V30 1761 H 163.277 2.013 5.52044 0
M  V30 1762 H 164.801 1.20506 5.98591 0
M  V30 1763 H 166.215 3.14019 4.79651 0
M  V30 1764 H 164.612 3.89644 4.56397 0
M  V30 1765 H 165.682 3.67054 3.16859 0
M  V30 1766 N 167.025 -1.13721 1.09112 0
M  V30 1767 C 167.988 -2.17222 0.731241 0
M  V30 1768 C 168.988 -1.59035 -0.237566 0
M  V30 1769 O 170.178 -1.74192 -0.0161704 0
M  V30 1770 C 167.31 -3.40804 0.0808443 0
M  V30 1771 H 168.503 -2.50573 1.64783 0
M  V30 1772 H 166.056 -1.28493 0.889897 0
M  V30 1773 H 166.791 -3.1304 -0.847127 0
M  V30 1774 H 166.576 -3.84306 0.777896 0
M  V30 1775 H 168.066 -4.1731 -0.155657 0
M  V30 1776 N 168.503 -0.877838 -1.30888 0
M  V30 1777 C 169.752 -0.488793 -1.95688 0
M  V30 1778 C 170.065 0.965485 -1.70111 0
M  V30 1779 O 171.271 1.46104 -2.28836 0
M  V30 1780 C 169.727 -0.823201 -3.50359 0
M  V30 1781 C 169.335 -2.29477 -3.84765 0
M  V30 1782 C 171.079 -0.503009 -4.21509 0
M  V30 1783 C 168.986 -2.57118 -5.32583 0
M  V30 1784 H 167.916 -0.179062 -0.732429 0
M  V30 1785 H 170.567 -1.07183 -1.48943 0
M  V30 1786 H 168.949 -0.169331 -3.95638 0
M  V30 1787 H 170.123 -2.99236 -3.5042 0
M  V30 1788 H 168.438 -2.58178 -3.267 0
M  V30 1789 H 171.035 -0.68665 -5.30273 0
M  V30 1790 H 171.378 0.557109 -4.12555 0
M  V30 1791 H 171.911 -1.11376 -3.8189 0
M  V30 1792 H 168.65 -3.61843 -5.4658 0
M  V30 1793 H 168.17 -1.91961 -5.68253 0
M  V30 1794 H 169.849 -2.42251 -5.99936 0
M  V30 1795 N 169.982 1.44106 -0.638065 0
M  V30 1796 C 170.912 2.33448 0.0494287 0
M  V30 1797 C 171.893 1.48606 0.827672 0
M  V30 1798 O 173.078 1.77308 0.792173 0
M  V30 1799 C 170.208 3.31771 1.02691 0
M  V30 1800 C 169.162 4.26485 0.359823 0
M  V30 1801 C 168.488 5.14729 1.44769 0
M  V30 1802 C 169.788 5.17056 -0.738296 0
M  V30 1803 H 171.482 2.91183 -0.696636 0
M  V30 1804 H 169.028 1.40014 -0.336456 0
M  V30 1805 H 170.981 3.93161 1.51666 0
M  V30 1806 H 169.705 2.7226 1.80395 0
M  V30 1807 H 168.364 3.66437 -0.10934 0
M  V30 1808 H 168.012 4.51566 2.21578 0
M  V30 1809 H 167.712 5.78913 1.00668 0
M  V30 1810 H 169.236 5.78991 1.93911 0
M  V30 1811 H 170.65 5.72342 -0.331354 0
M  V30 1812 H 169.047 5.89879 -1.10286 0
M  V30 1813 H 170.117 4.57652 -1.60258 0
M  V30 1814 N 171.46 0.379036 1.52974 0
M  V30 1815 C 172.69 -0.20649 2.05566 0
M  V30 1816 C 173.098 -1.41906 1.25137 0
M  V30 1817 O 172.441 -1.81421 0.288464 0
M  V30 1818 C 172.503 -0.651086 3.53555 0
M  V30 1819 C 172.167 0.446626 4.54812 0
M  V30 1820 C 173.164 1.30079 5.03364 0
M  V30 1821 C 170.849 0.610719 4.98573 0
M  V30 1822 C 172.843 2.30426 5.94292 0
M  V30 1823 C 170.53 1.61754 5.89304 0
M  V30 1824 C 171.528 2.46274 6.37054 0
M  V30 1825 O 171.216 3.45237 7.25994 0
M  V30 1826 H 170.948 -0.0372381 0.674974 0
M  V30 1827 H 173.502 0.539718 1.98182 0
M  V30 1828 H 171.732 -1.44911 3.58522 0
M  V30 1829 H 173.421 -1.16112 3.88938 0
M  V30 1830 H 174.187 1.18527 4.70294 0
M  V30 1831 H 170.066 -0.0374044 4.60985 0
M  V30 1832 H 173.61 2.96432 6.31485 0
M  V30 1833 H 169.507 1.73348 6.21788 0
M  V30 1834 H 170.275 3.41124 7.44027 0
M  V30 1835 N 172.938 -1.57226 0.108567 0
M  V30 1836 C 174.215 -1.86333 -0.594939 0
M  V30 1837 C 174.595 -1.00788 -1.85486 0
M  V30 1838 O 173.943 -0.0839293 -2.28346 0
M  V30 1839 C 174.153 -3.37265 -0.897405 0
M  V30 1840 C 175.501 -4.05629 -1.25501 0
M  V30 1841 O 176.525 -3.42224 -0.987998 0
M  V30 1842 O 175.384 -5.17531 -1.75567 0
M  V30 1843 H 172.478 -0.771018 -0.2991 0
M  V30 1844 H 175.024 -1.69102 0.142283 0
M  V30 1845 H 173.796 -3.913 -0.00413806 0
M  V30 1846 H 173.419 -3.59889 -1.69014 0
M  V30 1847 N 174.416 0.165178 -1.56732 0
M  V30 1848 C 175.646 0.894919 -1.86212 0
M  V30 1849 C 176.054 1.76066 -0.692627 0
M  V30 1850 O 175.397 1.80387 0.347303 0
M  V30 1851 C 175.459 1.8174 -3.10179 0
M  V30 1852 C 175.123 1.13064 -4.42793 0
M  V30 1853 C 176.12 0.493169 -5.17556 0
M  V30 1854 C 173.805 1.12556 -4.89527 0
M  V30 1855 C 175.799 -0.140209 -6.37246 0
M  V30 1856 C 173.486 0.488366 -6.09145 0
M  V30 1857 C 174.484 -0.143411 -6.82849 0
M  V30 1858 O 174.172 -0.77055 -8.00199 0
M  V30 1859 H 173.904 0.265114 -0.621844 0
M  V30 1860 H 176.458 0.168242 -2.0471 0
M  V30 1861 H 174.688 2.58455 -2.87642 0
M  V30 1862 H 176.377 2.4175 -3.26055 0
M  V30 1863 H 177.143 0.489023 -4.82528 0
M  V30 1864 H 173.022 1.60672 -4.32094 0
M  V30 1865 H 176.566 -0.633932 -6.94714 0
M  V30 1866 H 172.463 0.490116 -6.43637 0
M  V30 1867 H 173.231 -0.670408 -8.1575 0
M  V30 1868 N 175.894 1.51508 0.433938 0
M  V30 1869 C 177.14 1.64588 1.18484 0
M  V30 1870 C 177.473 0.362666 1.90784 0
M  V30 1871 O 176.748 -0.637892 1.83742 0
M  V30 1872 C 177.031 2.85149 2.19913 0
M  V30 1873 C 176.884 4.23456 1.51674 0
M  V30 1874 C 178.203 3.01227 3.20858 0
M  V30 1875 H 175.322 0.598994 0.429389 0
M  V30 1876 H 177.964 1.84002 0.473647 0
M  V30 1877 H 176.114 2.68729 2.80566 0
M  V30 1878 H 177.786 4.51552 0.943322 0
M  V30 1879 H 176.029 4.25998 0.819035 0
M  V30 1880 H 176.7 5.03812 2.2556 0
M  V30 1881 H 179.176 3.16382 2.70263 0
M  V30 1882 H 178.052 3.87141 3.89118 0
M  V30 1883 H 178.313 2.13447 3.8716 0
M  V30 1884 N 177.372 -0.689602 1.41712 0
M  V30 1885 C 178.618 -1.45041 1.42599 0
M  V30 1886 C 178.973 -1.92366 0.0363764 0
M  V30 1887 O 178.266 -1.67022 -0.938844 0
M  V30 1888 C 178.46 -2.67298 2.37247 0
M  V30 1889 C 178.289 -2.31935 3.85274 0
M  V30 1890 C 177.059 -2.2201 4.53916 0
M  V30 1891 C 179.257 -1.94526 4.76093 0
M  V30 1892 N 177.239 -1.79594 5.87043 0
M  V30 1893 C 178.61 -1.62915 5.98213 0
M  V30 1894 C 180.665 -1.81388 4.63684 0
M  V30 1895 C 179.368 -1.19486 7.09306 0
M  V30 1896 C 181.394 -1.39364 5.74745 0
M  V30 1897 C 180.756 -1.08668 6.95967 0
M  V30 1898 H 176.855 -0.527806 0.577014 0
M  V30 1899 H 179.439 -0.797266 1.77628 0
M  V30 1900 H 177.61 -3.30325 2.04304 0
M  V30 1901 H 179.342 -3.33806 2.28814 0
M  V30 1902 H 176.097 -2.406 4.07932 0
M  V30 1903 H 176.521 -1.60851 6.57614 0
M  V30 1904 H 181.163 -2.03772 3.70455 0
M  V30 1905 H 178.881 -0.958477 8.02396 0
M  V30 1906 H 182.467 -1.2974 5.6715 0
M  V30 1907 H 181.347 -0.766417 7.80446 0
M  V30 1908 N 178.85 -1.27639 -0.924453 0
M  V30 1909 C 180.261 -1.12834 -1.48746 0
M  V30 1910 C 180.612 0.285505 -1.94112 0
M  V30 1911 O 179.737 1.17874 -1.81479 0
M  V30 1912 C 180.332 -2.04217 -2.70334 0
M  V30 1913 C 178.891 -1.93509 -3.22848 0
M  V30 1914 C 178.038 -1.96583 -1.95577 0
M  V30 1915 H 180.989 -1.40484 -0.738233 0
M  V30 1916 H 181.01 -1.59989 -3.4523 0
M  V30 1917 H 180.522 -3.07111 -2.37285 0
M  V30 1918 H 178.623 -0.936131 -3.60649 0
M  V30 1919 H 178.736 -2.79917 -3.88823 0
M  V30 1920 H 177.1 -1.4085 -2.12211 0
M  V30 1921 H 177.883 -3.01137 -1.64837 0
M  V30 1922 N 180.328 1.1314 -1.09713 0
M  V30 1923 C 181.258 2.20748 -0.761102 0
M  V30 1924 C 182.239 1.68061 0.262566 0
M  V30 1925 O 183.424 1.93765 0.129977 0
M  V30 1926 C 180.554 3.46812 -0.184054 0
M  V30 1927 C 179.508 4.12606 -1.13757 0
M  V30 1928 C 178.834 5.33031 -0.422083 0
M  V30 1929 C 180.134 4.59603 -2.48118 0
M  V30 1930 H 181.828 2.49113 -1.66082 0
M  V30 1931 H 179.374 1.19734 -0.799987 0
M  V30 1932 H 181.327 4.21353 0.0631215 0
M  V30 1933 H 180.051 3.17851 0.750868 0
M  V30 1934 H 178.71 3.40036 -1.37007 0
M  V30 1935 H 178.358 5.00335 0.517072 0
M  V30 1936 H 178.058 5.77999 -1.05788 0
M  V30 1937 H 179.582 6.10325 -0.183277 0
M  V30 1938 H 180.996 5.25552 -2.29059 0
M  V30 1939 H 179.393 5.15321 -3.07514 0
M  V30 1940 H 180.463 3.73971 -3.08665 0
M  V30 1941 N 181.806 0.884767 1.30421 0
M  V30 1942 C 183.217 0.553656 1.78302 0
M  V30 1943 C 183.568 -0.930153 1.7275 0
M  V30 1944 O 182.693 -1.72681 1.30423 0
M  V30 1945 C 183.288 0.998234 3.2376 0
M  V30 1946 C 181.847 0.71854 3.69478 0
M  V30 1947 C 180.994 1.18132 2.50879 0
M  V30 1948 H 183.945 1.06901 1.17294 0
M  V30 1949 H 183.966 0.327118 3.79091 0
M  V30 1950 H 183.478 2.0782 3.27769 0
M  V30 1951 H 181.579 -0.349444 3.70958 0
M  V30 1952 H 181.692 1.30595 4.60958 0
M  V30 1953 H 180.056 0.600669 2.47516 0
M  V30 1954 H 180.839 2.26902 2.57624 0
M  V30 1955 N 183.284 -1.43765 0.645699 0
M  V30 1956 C 184.7 -1.56509 0.312591 0
M  V30 1957 C 184.9 -1.6307 -1.18365 0
M  V30 1958 O 183.956 -1.58167 -1.96824 0
M  V30 1959 C 185.269 -2.82968 1.01733 0
M  V30 1960 C 186.817 -2.96701 0.996865 0
M  V30 1961 C 187.292 -4.25982 1.68236 0
M  V30 1962 N 188.783 -4.32829 1.64964 0
M  V30 1963 C 189.518 -5.31613 2.14885 0
M  V30 1964 N 189.014 -6.36718 2.73061 0
M  V30 1965 N 190.807 -5.23217 2.05428 0
M  V30 1966 H 182.958 -1.3775 1.61675 0
M  V30 1967 H 185.221 -0.661067 0.679481 0
M  V30 1968 H 184.927 -2.84156 2.0724 0
M  V30 1969 H 184.801 -3.72957 0.564177 0
M  V30 1970 H 187.188 -2.95058 -0.0497719 0
M  V30 1971 H 187.269 -2.08022 1.48865 0
M  V30 1972 H 186.913 -4.28386 2.72852 0
M  V30 1973 H 186.843 -5.13545 1.16529 0
M  V30 1974 H 189.334 -3.57493 1.22503 0
M  V30 1975 H 189.647 -7.08401 3.08848 0
M  V30 1976 H 187.992 -6.37362 2.77118 0
M  V30 1977 H 191.183 -4.40019 1.59689 0
M  V30 1978 H 191.356 -6.00045 2.44643 0
M  V30 1979 N 184.763 -0.387143 -1.52771 0
M  V30 1980 C 185.993 0.195585 -2.05672 0
M  V30 1981 C 186.401 1.41241 -1.25887 0
M  V30 1982 O 185.744 1.81265 -0.298081 0
M  V30 1983 C 185.806 0.632327 -3.53895 0
M  V30 1984 C 185.47 -0.470739 -4.54569 0
M  V30 1985 C 186.467 -1.32746 -5.02667 0
M  V30 1986 C 184.152 -0.637151 -4.98243 0
M  V30 1987 C 186.146 -2.33574 -5.93061 0
M  V30 1988 C 183.833 -1.64877 -5.88438 0
M  V30 1989 C 184.831 -2.49649 -6.35739 0
M  V30 1990 O 184.519 -3.49082 -7.24153 0
M  V30 1991 H 184.251 0.033658 -0.675162 0
M  V30 1992 H 186.805 -0.550221 -1.97893 0
M  V30 1993 H 185.035 1.43008 -3.59285 0
M  V30 1994 H 186.724 1.14048 -3.89548 0
M  V30 1995 H 187.49 -1.21019 -4.69659 0
M  V30 1996 H 183.369 0.0129567 -4.60998 0
M  V30 1997 H 186.913 -2.99777 -6.29904 0
M  V30 1998 H 182.81 -1.76643 -6.2086 0
M  V30 1999 H 183.578 -3.45065 -7.42208 0
M  V30 2000 N 186.241 1.57166 -0.116904 0
M  V30 2001 C 187.171 2.18222 0.830759 0
M  V30 2002 C 188.152 1.12167 1.27877 0
M  V30 2003 O 189.337 1.40394 1.34176 0
M  V30 2004 C 186.467 2.77996 2.08172 0
M  V30 2005 C 185.421 3.89614 1.77157 0
M  V30 2006 C 184.747 4.36187 3.09265 0
M  V30 2007 C 186.047 5.1181 1.04151 0
M  V30 2008 H 187.741 2.97664 0.321992 0
M  V30 2009 H 185.287 1.4318 0.153434 0
M  V30 2010 H 187.24 3.19366 2.74924 0
M  V30 2011 H 185.964 1.9584 2.6137 0
M  V30 2012 H 184.623 3.48816 1.12796 0
M  V30 2013 H 184.271 3.50893 3.60393 0
M  V30 2014 H 183.971 5.11455 2.89288 0
M  V30 2015 H 185.495 4.80207 3.77139 0
M  V30 2016 H 186.909 5.50214 1.61052 0
M  V30 2017 H 185.306 5.92648 0.942762 0
M  V30 2018 H 186.376 4.84892 0.0279022 0
M  V30 2019 N 187.719 -0.156864 1.56817 0
M  V30 2020 C 188.959 -0.877453 1.84608 0
M  V30 2021 C 189.323 -1.78791 0.699845 0
M  V30 2022 O 190.524 -2.5472 0.858553 0
M  V30 2023 C 188.795 -1.63992 3.17555 0
M  V30 2024 S 190.354 -2.40729 3.66872 0
M  V30 2025 H 187.172 -0.293612 0.647544 0
M  V30 2026 H 189.774 -0.138099 1.95012 0
M  V30 2027 H 188.478 -0.962363 3.98957 0
M  V30 2028 H 188.009 -2.42038 3.10131 0
M  V30 2029 H 190.024 -3.65725 3.3535 0
M  V30 2030 N 189.197 -1.51736 -0.425897 0
M  V30 2031 C 190.608 -1.5732 -1.00536 0
M  V30 2032 C 190.959 -0.403537 -1.92005 0
M  V30 2033 O 190.084 0.478256 -2.11049 0
M  V30 2034 C 190.679 -2.85119 -1.8301 0
M  V30 2035 C 189.238 -2.93236 -2.35987 0
M  V30 2036 C 188.385 -2.52098 -1.15508 0
M  V30 2037 H 191.336 -1.57348 -0.206739 0
M  V30 2038 H 191.357 -2.69526 -2.68581 0
M  V30 2039 H 190.869 -3.7023 -1.16411 0
M  V30 2040 H 188.97 -2.12581 -3.06007 0
M  V30 2041 H 189.083 -3.9713 -2.68001 0
M  V30 2042 H 187.447 -2.05558 -1.50393 0
M  V30 2043 H 188.23 -3.39565 -0.505014 0
M  V30 2044 N 190.675 0.682077 -1.42076 0
M  V30 2045 C 191.921 1.44428 -1.42367 0
M  V30 2046 C 192.254 1.94164 -0.0373056 0
M  V30 2047 O 191.529 1.70429 0.937239 0
M  V30 2048 C 191.812 2.64654 -2.44194 0
M  V30 2049 C 191.665 2.20596 -3.91991 0
M  V30 2050 C 192.984 3.66865 -2.431 0
M  V30 2051 H 190.103 0.523834 -0.518428 0
M  V30 2052 H 192.745 0.77576 -1.73442 0
M  V30 2053 H 190.895 3.2169 -2.17826 0
M  V30 2054 H 192.567 1.68783 -4.29313 0
M  V30 2055 H 190.81 1.52242 -4.06208 0
M  V30 2056 H 191.481 3.06921 -4.58807 0
M  V30 2057 H 193.957 3.19531 -2.66532 0
M  V30 2058 H 192.833 4.48577 -3.16339 0
M  V30 2059 H 193.094 4.17493 -1.45437 0
M  V30 2060 N 192.153 1.28127 0.917671 0
M  V30 2061 C 193.399 1.16232 1.66918 0
M  V30 2062 C 193.754 -0.28701 1.90247 0
M  V30 2063 O 193.047 -1.20586 1.48895 0
M  V30 2064 C 193.241 1.89018 3.03327 0
M  V30 2065 C 193.07 3.4088 2.9331 0
M  V30 2066 C 191.84 4.10214 2.95047 0
M  V30 2067 C 194.038 4.36689 2.71675 0
M  V30 2068 N 192.02 5.48571 2.75577 0
M  V30 2069 C 193.391 5.62382 2.6101 0
M  V30 2070 C 195.446 4.26661 2.56641 0
M  V30 2071 C 194.149 6.79189 2.36843 0
M  V30 2072 C 196.175 5.432 2.33853 0
M  V30 2073 C 195.537 6.67855 2.23939 0
M  V30 2074 H 191.636 0.48024 0.617166 0
M  V30 2075 H 194.22 1.61727 1.08409 0
M  V30 2076 H 192.391 1.45963 3.59929 0
M  V30 2077 H 194.123 1.69541 3.67475 0
M  V30 2078 H 190.878 3.61762 3.05655 0
M  V30 2079 H 191.302 6.21287 2.68945 0
M  V30 2080 H 195.944 3.30998 2.63059 0
M  V30 2081 H 193.662 7.74926 2.29164 0
M  V30 2082 H 197.248 5.37328 2.23091 0
M  V30 2083 H 196.128 7.56511 2.06546 0
M  V30 2084 N 193.631 -1.12557 1.10312 0
M  V30 2085 C 194.88 -1.83395 0.839588 0
M  V30 2086 C 195.193 -1.84939 -0.636929 0
M  V30 2087 O 196.399 -2.51761 -1.01631 0
M  V30 2088 C 194.855 -3.29303 1.45215 0
M  V30 2089 C 194.463 -3.36122 2.96186 0
M  V30 2090 C 196.207 -4.05121 1.26796 0
M  V30 2091 C 194.114 -4.76357 3.50483 0
M  V30 2092 H 193.044 -0.687133 0.310425 0
M  V30 2093 H 195.695 -1.26746 1.32694 0
M  V30 2094 H 194.077 -3.85812 0.892469 0
M  V30 2095 H 195.251 -2.89559 3.58458 0
M  V30 2096 H 193.566 -2.73776 3.13745 0
M  V30 2097 H 196.163 -5.08668 1.64806 0
M  V30 2098 H 196.506 -4.15773 0.209409 0
M  V30 2099 H 197.039 -3.54967 1.79563 0
M  V30 2100 H 193.778 -4.70899 4.55998 0
M  V30 2101 H 193.298 -5.23377 2.92978 0
M  V30 2102 H 194.977 -5.45294 3.48228 0
M  V30 2103 N 195.109 -0.891671 -1.2995 0
M  V30 2104 C 196.334 -0.527932 -2.00568 0
M  V30 2105 C 196.759 0.877969 -1.66353 0
M  V30 2106 O 196.117 1.58301 -0.883762 0
M  V30 2107 C 196.165 -0.717745 -3.53385 0
M  V30 2108 O 195.269 0.233376 -4.11739 0
M  V30 2109 H 194.61 -0.20722 -0.630837 0
M  V30 2110 H 197.14 -1.20105 -1.65638 0
M  V30 2111 H 197.15 -0.619307 -4.03272 0
M  V30 2112 H 195.825 -1.74276 -3.77625 0
M  V30 2113 H 194.402 0.0880706 -3.72796 0
M  V30 2114 N 196.587 1.43421 -0.653314 0
M  V30 2115 C 197.517 2.33487 0.0246656 0
M  V30 2116 C 198.498 1.49475 0.811863 0
M  V30 2117 O 199.683 1.78139 0.773322 0
M  V30 2118 C 196.813 3.32841 0.99166 0
M  V30 2119 C 195.767 4.26842 0.314568 0
M  V30 2120 C 195.093 5.16236 1.39302 0
M  V30 2121 C 196.393 5.16243 -0.793095 0
M  V30 2122 H 198.087 2.90427 -0.727481 0
M  V30 2123 H 195.633 1.39649 -0.351287 0
M  V30 2124 H 197.586 3.94747 1.47487 0
M  V30 2125 H 196.31 2.74158 1.77497 0
M  V30 2126 H 194.969 3.663 -0.148199 0
M  V30 2127 H 194.617 4.53891 2.16776 0
M  V30 2128 H 194.317 5.79948 0.945223 0
M  V30 2129 H 195.841 5.81015 1.87759 0
M  V30 2130 H 197.255 5.71958 -0.392039 0
M  V30 2131 H 195.652 5.88676 -1.16536 0
M  V30 2132 H 196.722 4.55927 -1.65103 0
M  V30 2133 N 198.065 0.39524 1.52563 0
M  V30 2134 C 199.342 -0.242908 1.94086 0
M  V30 2135 C 199.722 -1.63841 1.33114 0
M  V30 2136 O 199.07 -2.22928 0.501529 0
M  V30 2137 C 199.28 -0.26327 3.48006 0
M  V30 2138 C 200.628 -0.489354 4.21771 0
M  V30 2139 O 201.652 -0.343226 3.54543 0
M  V30 2140 O 200.511 -0.776169 5.4096 0
M  V30 2141 H 197.605 -0.152536 0.812811 0
M  V30 2142 H 200.151 0.450178 1.6362 0
M  V30 2143 H 198.923 0.713985 3.84731 0
M  V30 2144 H 198.546 -1.00103 3.84792 0
M  V30 2145 N 199.544 -1.57102 0.125237 0
M  V30 2146 C 200.79 -1.95697 -0.532035 0
M  V30 2147 C 201.123 -1.009 -1.6593 0
M  V30 2148 O 200.398 -0.047347 -1.94442 0
M  V30 2149 C 200.681 -3.44181 -1.05884 0
M  V30 2150 C 200.534 -4.49752 0.0654392 0
M  V30 2151 C 201.853 -3.94655 -1.9477 0
M  V30 2152 H 198.972 -0.711571 -0.191925 0
M  V30 2153 H 201.614 -1.88923 0.20206 0
M  V30 2154 H 199.764 -3.50085 -1.68442 0
M  V30 2155 H 201.436 -4.55943 0.700982 0
M  V30 2156 H 199.679 -4.27653 0.727709 0
M  V30 2157 H 200.35 -5.50924 -0.344505 0
M  V30 2158 H 202.826 -3.91094 -1.42074 0
M  V30 2159 H 201.702 -4.99057 -2.28546 0
M  V30 2160 H 201.963 -3.35718 -2.87656 0
M  V30 2161 N 201.022 0.148545 -1.56898 0
M  V30 2162 C 201.952 1.18524 -2.01182 0
M  V30 2163 C 202.933 1.4489 -0.891123 0
M  V30 2164 O 204.118 1.55836 -1.15882 0
M  V30 2165 C 201.248 2.51879 -2.39112 0
M  V30 2166 C 200.202 2.40038 -3.54353 0
M  V30 2167 C 199.528 3.78089 -3.78091 0
M  V30 2168 C 200.828 1.88577 -4.87069 0
M  V30 2169 H 202.522 0.817029 -2.88036 0
M  V30 2170 H 200.068 0.391575 -1.38574 0
M  V30 2171 H 202.021 3.24627 -2.68692 0
M  V30 2172 H 200.745 2.90532 -1.49193 0
M  V30 2173 H 199.404 1.69742 -3.24936 0
M  V30 2174 H 199.052 4.14175 -2.85426 0
M  V30 2175 H 198.752 3.71028 -4.55645 0
M  V30 2176 H 200.276 4.52387 -4.10095 0
M  V30 2177 H 201.69 2.51117 -5.15377 0
M  V30 2178 H 200.087 1.9241 -5.68417 0
M  V30 2179 H 201.157 0.84136 -4.77545 0
M  V30 2180 N 202.5 1.5196 0.417844 0
M  V30 2181 C 203.747 1.65591 1.16559 0
M  V30 2182 C 204.075 0.381565 1.90721 0
M  V30 2183 O 203.33 -0.635156 1.85106 0
M  V30 2184 C 203.629 2.82269 2.19223 0
M  V30 2185 C 203.295 4.20819 1.61933 0
M  V30 2186 C 201.957 4.58506 1.46033 0
M  V30 2187 C 204.309 5.07196 1.20008 0
M  V30 2188 C 201.637 5.80257 0.867113 0
M  V30 2189 C 203.989 6.29544 0.621086 0
M  V30 2190 C 202.653 6.65987 0.449144 0
M  V30 2191 H 201.923 0.605939 0.42652 0
M  V30 2192 H 204.57 1.86041 0.45397 0
M  V30 2193 H 202.875 2.56118 2.96498 0
M  V30 2194 H 204.572 2.90012 2.76936 0
M  V30 2195 H 201.162 3.91116 1.7529 0
M  V30 2196 H 205.346 4.7867 1.31105 0
M  V30 2197 H 200.602 6.07124 0.721833 0
M  V30 2198 H 204.776 6.95805 0.287798 0
M  V30 2199 H 202.403 7.60199 -0.012632 0
M  V30 2200 N 203.978 -0.674533 1.42435 0
M  V30 2201 C 205.203 -1.46784 1.46524 0
M  V30 2202 C 205.628 -1.87938 0.078066 0
M  V30 2203 O 204.986 -1.56014 -0.92354 0
M  V30 2204 C 205.034 -2.69307 2.39805 0
M  V30 2205 O 204.138 -3.67587 1.86959 0
M  V30 2206 H 203.479 -0.440959 0.496439 0
M  V30 2207 H 206.009 -0.827326 1.87127 0
M  V30 2208 H 206.019 -3.17374 2.56393 0
M  V30 2209 H 204.694 -2.38692 3.40586 0
M  V30 2210 H 203.271 -3.2662 1.79927 0
M  V30 2211 N 205.456 -1.28612 -0.910864 0
M  V30 2212 C 206.684 -1.18792 -1.69399 0
M  V30 2213 C 207.099 0.253039 -1.87097 0
M  V30 2214 O 206.456 1.17071 -1.40003 0
M  V30 2215 C 206.507 -1.88511 -3.08457 0
M  V30 2216 O 206.228 -3.26979 -2.91576 0
M  V30 2217 C 207.729 -1.85029 -4.02839 0
M  V30 2218 H 204.949 -0.412233 -0.529438 0
M  V30 2219 H 207.493 -1.69788 -1.13984 0
M  V30 2220 H 205.648 -1.41379 -3.60681 0
M  V30 2221 H 206.062 -3.61936 -3.79608 0
M  V30 2222 H 207.536 -2.38395 -4.97867 0
M  V30 2223 H 208.013 -0.823303 -4.31414 0
M  V30 2224 H 208.619 -2.31853 -3.56545 0
M  V30 2225 N 206.934 1.1197 -1.10907 0
M  V30 2226 C 207.897 2.16031 -0.765707 0
M  V30 2227 C 208.897 1.59393 0.212235 0
M  V30 2228 O 210.087 1.74196 -0.0115441 0
M  V30 2229 C 207.219 3.40632 -0.135053 0
M  V30 2230 H 208.412 2.47919 -1.68748 0
M  V30 2231 H 205.965 1.27061 -0.910226 0
M  V30 2232 H 206.7 3.14348 0.797218 0
M  V30 2233 H 206.485 3.8302 -0.838937 0
M  V30 2234 H 207.975 4.17505 0.0892469 0
M  V30 2235 N 208.412 0.89855 1.29475 0
M  V30 2236 C 209.637 0.538561 2.00285 0
M  V30 2237 C 210.062 -0.869135 1.66816 0
M  V30 2238 O 209.42 -1.57831 0.892145 0
M  V30 2239 C 209.468 0.736475 3.52999 0
M  V30 2240 O 208.572 -0.211537 4.11857 0
M  V30 2241 H 207.913 0.210563 0.62973 0
M  V30 2242 H 210.443 1.20982 1.64998 0
M  V30 2243 H 210.453 0.640685 4.02938 0
M  V30 2244 H 209.128 1.76276 3.76696 0
M  V30 2245 H 207.705 -0.0682991 3.72837 0
M  V30 2246 N 209.89 -1.43072 0.660911 0
M  V30 2247 C 211.139 -2.00942 0.174735 0
M  V30 2248 C 211.452 -1.52797 -1.22117 0
M  V30 2249 O 212.658 -2.02991 -1.80297 0
M  V30 2250 C 211.114 -3.58948 0.261559 0
M  V30 2251 C 210.722 -4.16085 1.66064 0
M  V30 2252 C 212.466 -4.24173 -0.166617 0
M  V30 2253 C 210.373 -5.6641 1.70098 0
M  V30 2254 H 209.303 -0.751483 0.0615631 0
M  V30 2255 H 211.954 -1.63955 0.824069 0
M  V30 2256 H 210.336 -3.93372 -0.455421 0
M  V30 2257 H 211.51 -3.93147 2.40359 0
M  V30 2258 H 209.825 -3.6326 2.03546 0
M  V30 2259 H 212.422 -5.34471 -0.156433 0
M  V30 2260 H 212.765 -3.98647 -1.19943 0
M  V30 2261 H 213.298 -3.94659 0.498875 0
M  V30 2262 H 210.037 -5.96715 2.71315 0
M  V30 2263 H 209.557 -5.91382 1.00139 0
M  V30 2264 H 211.236 -6.30585 1.44816 0
M  V30 2265 N 211.368 -0.403325 -1.52352 0
M  V30 2266 C 212.301 0.469463 -2.23319 0
M  V30 2267 C 213.279 1.05272 -1.23922 0
M  V30 2268 O 214.463 1.10169 -1.52954 0
M  V30 2269 C 211.59 1.6511 -2.9573 0
M  V30 2270 C 210.636 1.19178 -4.0951 0
M  V30 2271 S 211.469 0.161718 -5.35256 0
M  V30 2272 C 212.625 1.34882 -6.11194 0
M  V30 2273 H 212.858 -0.133134 -2.97002 0
M  V30 2274 H 210.391 -0.187588 -1.53256 0
M  V30 2275 H 212.349 2.3287 -3.38056 0
M  V30 2276 H 211.01 2.22503 -2.21701 0
M  V30 2277 H 210.203 2.07444 -4.59329 0
M  V30 2278 H 209.805 0.592911 -3.6927 0
M  V30 2279 H 212.097 2.27345 -6.38217 0
M  V30 2280 H 213.04 0.89128 -7.02468 0
M  V30 2281 H 213.448 1.57198 -5.42171 0
M  V30 2282 N 212.846 1.57033 -0.133567 0
M  V30 2283 C 213.796 2.12641 0.822671 0
M  V30 2284 C 214.78 1.05081 1.21847 0
M  V30 2285 O 215.972 1.31287 1.18713 0
M  V30 2286 C 213.101 2.74094 2.06706 0
M  V30 2287 C 212.187 3.88757 1.69497 0
M  V30 2288 N 212.578 4.95194 1.03037 0
M  V30 2289 C 210.876 3.99213 1.98859 0
M  V30 2290 C 211.577 5.75414 0.852873 0
M  V30 2291 N 210.553 5.25726 1.3825 0
M  V30 2292 H 214.355 2.92308 0.305537 0
M  V30 2293 H 211.869 1.62256 0.0684276 0
M  V30 2294 H 213.866 3.12285 2.76195 0
M  V30 2295 H 212.526 1.95896 2.5895 0
M  V30 2296 H 213.537 5.13247 0.692669 0
M  V30 2297 H 210.214 3.32075 2.53047 0
M  V30 2298 H 211.604 6.71089 0.330091 0
M  V30 2299 N 214.325 -0.140222 1.56975 0
M  V30 2300 C 215.255 -1.17456 2.01808 0
M  V30 2301 C 216.236 -1.44415 0.898794 0
M  V30 2302 O 217.421 -1.5522 1.16707 0
M  V30 2303 C 214.551 -2.50607 2.40444 0
M  V30 2304 C 213.505 -2.38155 3.55621 0
M  V30 2305 C 212.831 -3.76078 3.80091 0
M  V30 2306 C 214.131 -1.85991 4.88062 0
M  V30 2307 H 215.825 -0.801743 2.88466 0
M  V30 2308 H 213.371 -0.38422 1.38779 0
M  V30 2309 H 215.324 -3.23197 2.7041 0
M  V30 2310 H 214.048 -2.89737 1.50732 0
M  V30 2311 H 212.707 -1.68016 3.25832 0
M  V30 2312 H 212.355 -4.12656 2.87618 0
M  V30 2313 H 212.055 -3.68606 4.57606 0
M  V30 2314 H 213.579 -4.50206 4.12488 0
M  V30 2315 H 214.993 -2.4838 5.16701 0
M  V30 2316 H 213.39 -1.89393 5.6943 0
M  V30 2317 H 214.46 -0.816023 4.77984 0
M  V30 2318 N 215.803 -1.52179 -0.40978 0
M  V30 2319 C 217.043 -1.67882 -1.16597 0
M  V30 2320 C 217.407 -0.399795 -1.87791 0
M  V30 2321 O 218.608 -0.43292 -2.65291 0
M  V30 2322 C 216.879 -2.86662 -2.13448 0
M  V30 2323 S 218.438 -3.22843 -2.97183 0
M  V30 2324 H 215.256 -0.59118 -0.395002 0
M  V30 2325 H 217.858 -1.9017 -0.453373 0
M  V30 2326 H 216.562 -3.77998 -1.59831 0
M  V30 2327 H 216.093 -2.66645 -2.89247 0
M  V30 2328 H 218.108 -2.71415 -4.15389 0
M  V30 2329 N 217.281 0.66697 -1.42791 0
M  V30 2330 C 218.244 1.76211 -1.46568 0
M  V30 2331 C 219.244 1.56896 -0.352196 0
M  V30 2332 O 220.434 1.63044 -0.613364 0
M  V30 2333 C 217.566 3.14935 -1.30494 0
M  V30 2334 H 218.759 1.74247 -2.44086 0
M  V30 2335 H 216.312 0.877342 -1.29354 0
M  V30 2336 H 217.047 3.2252 -0.339301 0
M  V30 2337 H 216.832 3.30359 -2.11199 0
M  V30 2338 H 218.322 3.94821 -1.36038 0
M  V30 2339 N 218.759 1.29093 0.90403 0
M  V30 2340 C 220.008 1.16187 1.64874 0
M  V30 2341 C 220.321 -0.286742 1.93487 0
M  V30 2342 O 221.527 -0.537062 2.66135 0
M  V30 2343 C 219.983 2.03177 2.97064 0
M  V30 2344 C 219.591 3.52836 2.76062 0
M  V30 2345 C 221.335 1.98984 3.74974 0
M  V30 2346 C 219.242 4.31945 4.03952 0
M  V30 2347 H 218.172 0.431246 0.618501 0
M  V30 2348 H 220.823 1.53699 1.00243 0
M  V30 2349 H 219.205 1.5853 3.62883 0
M  V30 2350 H 220.379 4.05507 2.18863 0
M  V30 2351 H 218.694 3.58656 2.11553 0
M  V30 2352 H 221.291 2.55351 4.69787 0
M  V30 2353 H 221.634 0.968815 4.0487 0
M  V30 2354 H 222.167 2.41652 3.15989 0
M  V30 2355 H 218.906 5.34667 3.79225 0
M  V30 2356 H 218.426 3.84045 4.60727 0
M  V30 2357 H 220.105 4.42379 4.72133 0
M  V30 2358 N 220.237 -1.11381 1.11499 0
M  V30 2359 C 221.462 -1.87475 0.887019 0
M  V30 2360 C 221.887 -1.79639 -0.557796 0
M  V30 2361 O 221.245 -1.15924 -1.39396 0
M  V30 2362 C 221.293 -3.34213 1.35403 0
M  V30 2363 O 220.397 -4.0903 0.526146 0
M  V30 2364 H 219.738 -0.582099 0.319463 0
M  V30 2365 H 222.268 -1.40785 1.48461 0
M  V30 2366 H 222.278 -3.8506 1.34881 0
M  V30 2367 H 220.953 -3.39232 2.40612 0
M  V30 2368 H 219.53 -3.68082 0.597522 0
M  V30 2369 N 221.715 -0.905404 -1.28997 0
M  V30 2370 C 222.645 -0.404212 -2.29975 0
M  V30 2371 C 223.626 0.523784 -1.61835 0
M  V30 2372 O 224.811 0.433298 -1.89304 0
M  V30 2373 C 221.941 0.364042 -3.45387 0
M  V30 2374 C 220.895 -0.474048 -4.25367 0
M  V30 2375 C 220.221 0.422045 -5.33032 0
M  V30 2376 C 221.521 -1.72696 -4.92923 0
M  V30 2377 H 223.215 -1.24807 -2.72146 0
M  V30 2378 H 220.761 -0.601585 -1.30832 0
M  V30 2379 H 222.714 0.725447 -4.15109 0
M  V30 2380 H 221.438 1.24174 -3.02074 0
M  V30 2381 H 220.097 -0.81786 -3.57361 0
M  V30 2382 H 219.745 1.29804 -4.85963 0
M  V30 2383 H 219.445 -0.135057 -5.87445 0
M  V30 2384 H 220.969 0.779517 -6.05604 0
M  V30 2385 H 222.383 -1.43495 -5.55051 0
M  V30 2386 H 220.78 -2.22582 -5.57295 0
M  V30 2387 H 221.85 -2.45964 -4.17887 0
M  V30 2388 N 223.193 1.4272 -0.668489 0
M  V30 2389 C 224.47 1.95248 -0.117373 0
M  V30 2390 C 224.85 1.60919 1.36632 0
M  V30 2391 O 224.198 0.902095 2.09939 0
M  V30 2392 C 224.408 3.46927 -0.379806 0
M  V30 2393 C 225.756 4.23588 -0.292923 0
M  V30 2394 O 226.78 3.5482 -0.313204 0
M  V30 2395 O 225.639 5.46017 -0.229697 0
M  V30 2396 H 222.733 0.827 0.00079152 0
M  V30 2397 H 225.279 1.52581 -0.742783 0
M  V30 2398 H 224.051 3.65096 -1.40786 0
M  V30 2399 H 223.674 3.96627 0.277923 0
M  V30 2400 N 224.671 0.411399 1.52136 0
M  V30 2401 C 226.087 0.0623865 1.59478 0
M  V30 2402 C 226.287 -1.42554 1.4241 0
M  V30 2403 O 225.343 -2.19263 1.2522 0
M  V30 2404 C 226.656 0.559331 2.95452 0
M  V30 2405 C 228.204 0.517503 3.08692 0
M  V30 2406 C 228.679 0.990994 4.4715 0
M  V30 2407 N 230.17 0.947908 4.53397 0
M  V30 2408 C 230.905 1.28544 5.58806 0
M  V30 2409 N 230.401 1.69454 6.71757 0
M  V30 2410 N 232.194 1.20526 5.49026 0
M  V30 2411 H 224.345 1.37982 1.61477 0
M  V30 2412 H 226.608 0.566977 0.759764 0
M  V30 2413 H 226.314 1.59938 3.1323 0
M  V30 2414 H 226.188 -0.0298014 3.77188 0
M  V30 2415 H 228.575 -0.513505 2.90598 0
M  V30 2416 H 228.656 1.14272 2.28857 0
M  V30 2417 H 228.3 2.02034 4.65988 0
M  V30 2418 H 228.23 0.34257 5.25485 0
M  V30 2419 H 230.721 0.647157 3.72317 0
M  V30 2420 H 231.034 1.93513 7.48179 0
M  V30 2421 H 229.379 1.73359 6.73032 0
M  V30 2422 H 232.57 0.884505 4.59667 0
M  V30 2423 H 232.743 1.47161 6.31069 0
M  V30 2424 N 226.149 -1.5696 0.141893 0
M  V30 2425 C 227.379 -2.00031 -0.516828 0
M  V30 2426 C 227.787 -1.02091 -1.59293 0
M  V30 2427 O 227.13 -0.00909657 -1.83698 0
M  V30 2428 C 227.192 -3.39534 -1.1814 0
M  V30 2429 C 226.856 -4.56313 -0.250513 0
M  V30 2430 C 227.853 -5.17295 0.519839 0
M  V30 2431 C 225.538 -5.02061 -0.154907 0
M  V30 2432 C 227.532 -6.2243 1.3733 0
M  V30 2433 C 225.219 -6.07053 0.702161 0
M  V30 2434 C 226.217 -6.67106 1.46487 0
M  V30 2435 O 225.905 -7.70066 2.30767 0
M  V30 2436 H 225.637 -0.661451 -0.139493 0
M  V30 2437 H 228.191 -2.04086 0.231926 0
M  V30 2438 H 226.421 -3.32302 -1.97769 0
M  V30 2439 H 228.11 -3.66745 -1.73933 0
M  V30 2440 H 228.876 -4.82852 0.45598 0
M  V30 2441 H 224.755 -4.5505 -0.7383 0
M  V30 2442 H 228.299 -6.69233 1.96909 0
M  V30 2443 H 224.196 -6.40923 0.76733 0
M  V30 2444 H 224.964 -7.87264 2.23959 0
M  V30 2445 N 227.627 0.131896 -1.57047 0
M  V30 2446 C 228.873 0.843179 -1.84441 0
M  V30 2447 C 229.206 1.80129 -0.725749 0
M  V30 2448 O 228.481 1.92624 0.269469 0
M  V30 2449 C 228.764 1.60442 -3.22382 0
M  V30 2450 C 228.617 0.666782 -4.4483 0
M  V30 2451 C 229.936 2.56354 -3.5773 0
M  V30 2452 H 227.055 0.305081 -0.670891 0
M  V30 2453 H 229.697 0.107839 -1.89694 0
M  V30 2454 H 227.847 2.23128 -3.18035 0
M  V30 2455 H 229.519 0.0497646 -4.61273 0
M  V30 2456 H 227.762 -0.022609 -4.33794 0
M  V30 2457 H 228.433 1.23579 -5.37989 0
M  V30 2458 H 230.909 2.0378 -3.62785 0
M  V30 2459 H 229.785 3.06657 -4.5525 0
M  V30 2460 H 230.046 3.38419 -2.84473 0
M  V30 2461 N 229.106 1.52395 0.401703 0
M  V30 2462 C 230.069 1.75636 1.47257 0
M  V30 2463 C 231.069 0.62628 1.48103 0
M  V30 2464 O 232.259 0.894227 1.49497 0
M  V30 2465 C 229.391 1.84553 2.86624 0
M  V30 2466 H 230.584 2.71241 1.27938 0
M  V30 2467 H 228.137 1.42923 0.632662 0
M  V30 2468 H 228.872 0.908882 3.11303 0
M  V30 2469 H 228.657 2.66715 2.87412 0
M  V30 2470 H 230.147 2.04251 3.64241 0
M  V30 2471 N 230.584 -0.659388 1.43143 0
M  V30 2472 C 231.833 -1.41518 1.43721 0
M  V30 2473 C 232.146 -1.95499 0.0628176 0
M  V30 2474 O 233.352 -2.71446 -0.0539683 0
M  V30 2475 C 231.808 -2.5608 2.52885 0
M  V30 2476 C 231.416 -2.08733 3.96402 0
M  V30 2477 C 233.16 -3.3349 2.62649 0
M  V30 2478 C 231.067 -3.20469 4.97045 0
M  V30 2479 H 229.997 -0.531705 0.534608 0
M  V30 2480 H 232.648 -0.712343 1.69109 0
M  V30 2481 H 231.03 -3.28805 2.20688 0
M  V30 2482 H 232.204 -1.43059 4.3803 0
M  V30 2483 H 230.519 -1.44219 3.90627 0
M  V30 2484 H 233.116 -4.16734 3.35017 0
M  V30 2485 H 233.459 -3.8111 1.67513 0
M  V30 2486 H 233.992 -2.67842 2.94118 0
M  V30 2487 H 230.731 -2.77824 5.93712 0
M  V30 2488 H 230.251 -3.84874 4.60034 0
M  V30 2489 H 231.93 -3.85698 5.19467 0
M  V30 2490 N 232.062 -1.29571 -0.897171 0
M  V30 2491 C 233.478 -1.07637 -1.17841 0
M  V30 2492 C 233.678 0.170713 -2.00776 0
M  V30 2493 O 232.734 0.867768 -2.3712 0
M  V30 2494 C 234.047 -2.3332 -1.8969 0
M  V30 2495 C 235.595 -2.38664 -2.02505 0
M  V30 2496 C 236.07 -3.64157 -2.77765 0
M  V30 2497 N 237.561 -3.64894 -2.85318 0
M  V30 2498 C 238.296 -4.58679 -3.44094 0
M  V30 2499 N 237.792 -5.62799 -4.04017 0
M  V30 2500 N 239.585 -4.46245 -3.41793 0
M  V30 2501 H 231.736 -2.09598 -0.343883 0
M  V30 2502 H 233.999 -0.923333 -0.214848 0
M  V30 2503 H 233.705 -3.24262 -1.36187 0
M  V30 2504 H 233.579 -2.41025 -2.9015 0
M  V30 2505 H 235.966 -1.48208 -2.55183 0
M  V30 2506 H 236.047 -2.34943 -1.01171 0
M  V30 2507 H 235.691 -4.54965 -2.25763 0
M  V30 2508 H 235.621 -3.65137 -3.7945 0
M  V30 2509 H 238.112 -2.89613 -2.42761 0
M  V30 2510 H 238.425 -6.3048 -4.46895 0
M  V30 2511 H 236.77 -5.66605 -4.02472 0
M  V30 2512 H 239.961 -3.64094 -2.94199 0
M  V30 2513 H 240.134 -5.19518 -3.87304 0
M  V30 2514 N 233.54 1.10788 -1.12088 0
M  V30 2515 C 234.488 2.19111 -0.780587 0
M  V30 2516 C 235.482 1.67818 0.230961 0
M  V30 2517 O 236.688 1.79777 0.0895427 0
M  V30 2518 H 233.063 0.714477 -0.234578 0
M  V30 2519 H 235.034 2.45055 -1.70266 0
M  V30 2520 C 233.783 3.46818 -0.24747 0
M  V30 2521 H 233.106 3.86646 -1.01712 0
M  V30 2522 H 234.546 4.23973 -0.0476291 0
M  V30 2523 C 233.005 3.20968 1.02378 0
M  V30 2524 O 233.535 3.42298 2.10226 0
M  V30 2525 N 231.741 2.74658 0.949271 0
M  V30 2526 H 231.288 2.57501 0.0715173 0
M  V30 2527 H 231.246 2.57739 1.80049 0
M  V30 2528 N 235.018 0.912232 1.28515 0
M  V30 2529 C 236.429 0.591352 1.77087 0
M  V30 2530 C 236.78 -0.8933 1.74684 0
M  V30 2531 O 235.905 -1.69876 1.34056 0
M  V30 2532 C 236.5 1.06668 3.2157 0
M  V30 2533 C 235.059 0.79675 3.67871 0
M  V30 2534 C 234.206 1.23427 2.48316 0
M  V30 2535 H 237.157 1.09365 1.15 0
M  V30 2536 H 237.178 0.407455 3.78312 0
M  V30 2537 H 236.69 2.14726 3.23287 0
M  V30 2538 H 234.791 -0.270679 3.71616 0
M  V30 2539 H 234.904 1.40343 4.58084 0
M  V30 2540 H 233.268 0.653036 2.46186 0
M  V30 2541 H 234.051 2.32316 2.52753 0
M  V30 2542 N 236.496 -1.42363 0.676048 0
M  V30 2543 C 237.745 -2.00745 0.196037 0
M  V30 2544 C 238.058 -1.54083 -1.20489 0
M  V30 2545 O 239.264 -2.04891 -1.78134 0
M  V30 2546 C 237.72 -3.58651 0.299616 0
M  V30 2547 C 237.328 -4.143 1.70468 0
M  V30 2548 C 239.072 -4.24326 -0.121619 0
M  V30 2549 C 236.979 -5.64574 1.76096 0
M  V30 2550 H 235.909 -0.750787 0.0695301 0
M  V30 2551 H 238.56 -1.63072 0.841412 0
M  V30 2552 H 236.942 -3.93833 -0.413673 0
M  V30 2553 H 238.116 -3.90575 2.44515 0
M  V30 2554 H 236.431 -3.61081 2.07387 0
M  V30 2555 H 239.028 -5.34607 -0.0997362 0
M  V30 2556 H 239.371 -3.99897 -1.15708 0
M  V30 2557 H 239.904 -3.94108 0.540706 0
M  V30 2558 H 236.643 -5.93804 2.77628 0
M  V30 2559 H 236.163 -5.90286 1.06406 0
M  V30 2560 H 237.842 -6.29013 1.51496 0
M  V30 2561 N 237.974 -0.419461 -1.51915 0
M  V30 2562 C 238.884 0.407528 -2.31033 0
M  V30 2563 C 239.9 1.04413 -1.3919 0
M  V30 2564 O 241.076 1.0434 -1.72265 0
M  V30 2565 C 238.141 1.50365 -3.12396 0
M  V30 2566 C 237.202 0.889029 -4.19994 0
M  V30 2567 C 236.435 1.93291 -4.97468 0
M  V30 2568 O 236.658 3.15259 -4.75361 0
M  V30 2569 O 235.592 1.53339 -5.8204 0
M  V30 2570 H 239.418 -0.237865 -3.02767 0
M  V30 2571 H 237.003 -0.182413 -1.48282 0
M  V30 2572 H 238.885 2.13975 -3.63032 0
M  V30 2573 H 237.56 2.13345 -2.43445 0
M  V30 2574 H 236.467 0.215353 -3.7348 0
M  V30 2575 H 237.8 0.302991 -4.91267 0
M  V30 2576 N 239.452 1.56882 -0.150215 0
M  V30 2577 C 240.402 2.13501 0.800071 0
M  V30 2578 C 241.386 1.06368 1.20726 0
M  V30 2579 O 242.578 1.32538 1.17314 0
M  V30 2580 C 239.707 2.76271 2.03787 0
M  V30 2581 C 238.793 3.90533 1.65364 0
M  V30 2582 N 239.184 4.96259 0.977794 0
M  V30 2583 C 237.482 4.013 1.94613 0
M  V30 2584 C 238.183 5.76286 0.791794 0
M  V30 2585 N 237.159 5.27163 1.32666 0
M  V30 2586 H 240.961 2.92615 0.274517 0
M  V30 2587 H 238.475 1.62319 0.0512144 0
M  V30 2588 H 240.472 3.15197 2.72867 0
M  V30 2589 H 239.132 1.98631 2.56857 0
M  V30 2590 H 240.143 5.13953 0.638193 0
M  V30 2591 H 236.82 3.3474 2.4951 0
M  V30 2592 H 238.21 6.71401 0.258894 0
M  V30 2593 N 240.93 -0.123565 1.57115 0
M  V30 2594 C 242.155 -0.850398 1.89164 0
M  V30 2595 C 242.58 -1.7286 0.741688 0
M  V30 2596 O 241.938 -1.78665 -0.307958 0
M  V30 2597 C 241.986 -1.66353 3.19936 0
M  V30 2598 O 241.09 -2.77004 3.0552 0
M  V30 2599 H 240.431 -0.235454 0.620852 0
M  V30 2600 H 242.961 -0.107335 2.04318 0
M  V30 2601 H 242.971 -2.05372 3.52543 0
M  V30 2602 H 241.646 -1.01881 4.03228 0
M  V30 2603 H 240.223 -2.41221 2.84371 0
M  V30 2604 N 242.408 -1.52605 -0.393616 0
M  V30 2605 C 243.824 -1.41753 -0.733357 0
M  V30 2606 C 244.024 -0.534293 -1.94287 0
M  V30 2607 O 243.08 -0.0059787 -2.52499 0
M  V30 2608 C 244.393 -2.84531 -0.972772 0
M  V30 2609 C 245.941 -2.93978 -1.07453 0
M  V30 2610 C 246.416 -4.37756 -1.3466 0
M  V30 2611 N 247.907 -4.4106 -1.41492 0
M  V30 2612 C 248.642 -5.49387 -1.642 0
M  V30 2613 N 248.138 -6.67806 -1.8441 0
M  V30 2614 N 249.931 -5.36923 -1.66342 0
M  V30 2615 H 242.082 -2.08555 0.402328 0
M  V30 2616 H 244.345 -0.940654 0.117789 0
M  V30 2617 H 244.051 -3.51353 -0.156204 0
M  V30 2618 H 243.925 -3.26508 -1.88871 0
M  V30 2619 H 246.312 -2.27326 -1.88167 0
M  V30 2620 H 246.393 -2.55435 -0.136605 0
M  V30 2621 H 246.037 -5.04972 -0.544581 0
M  V30 2622 H 245.967 -4.73848 -2.2973 0
M  V30 2623 H 248.458 -3.55705 -1.27601 0
M  V30 2624 H 248.771 -7.46141 -2.01231 0
M  V30 2625 H 247.116 -6.70843 -1.81644 0
M  V30 2626 H 250.307 -4.43381 -1.50102 0
M  V30 2627 H 250.48 -6.21416 -1.837 0
M  V30 2628 N 243.887 0.651787 -1.4349 0
M  V30 2629 C 245.134 1.41167 -1.45183 0
M  V30 2630 C 245.462 1.94349 -0.0766601 0
M  V30 2631 O 244.717 1.72804 0.918555 0
M  V30 2632 C 245.016 2.60914 -2.44251 0
M  V30 2633 C 244.682 2.26142 -3.9009 0
M  V30 2634 C 243.344 2.16371 -4.2981 0
M  V30 2635 C 245.696 1.98334 -4.81989 0
M  V30 2636 C 243.024 1.7695 -5.5938 0
M  V30 2637 C 245.376 1.6041 -6.11924 0
M  V30 2638 C 244.04 1.49166 -6.5062 0
M  V30 2639 H 243.31 0.516566 -0.531263 0
M  V30 2640 H 245.957 0.741099 -1.76579 0
M  V30 2641 H 244.262 3.3311 -2.06265 0
M  V30 2642 H 245.959 3.19127 -2.42815 0
M  V30 2643 H 242.549 2.34658 -3.58655 0
M  V30 2644 H 246.733 2.04803 -4.52072 0
M  V30 2645 H 241.989 1.66831 -5.88198 0
M  V30 2646 H 246.163 1.37925 -6.82605 0
M  V30 2647 H 243.79 1.1839 -7.50925 0
M  V30 2648 N 245.365 1.30045 0.890287 0
M  V30 2649 C 246.313 1.15873 2.01683 0
M  V30 2650 C 247.307 0.0719403 1.69247 0
M  V30 2651 O 248.513 0.232414 1.78493 0
M  V30 2652 H 244.888 0.358203 0.661207 0
M  V30 2653 H 246.859 2.11229 2.10772 0
M  V30 2654 C 245.608 0.861842 3.36849 0
M  V30 2655 H 244.931 1.69016 3.62317 0
M  V30 2656 H 246.371 0.802762 4.16331 0
M  V30 2657 C 244.83 -0.435132 3.34078 0
M  V30 2658 O 245.36 -1.4583 3.74295 0
M  V30 2659 N 243.566 -0.444377 2.87182 0
M  V30 2660 H 243.113 0.388723 2.5465 0
M  V30 2661 H 243.071 -1.31213 2.85711 0
M  V30 2662 N 246.843 -1.10192 1.12674 0
M  V30 2663 C 248.068 -1.86523 0.906853 0
M  V30 2664 C 248.493 -1.80221 -0.538711 0
M  V30 2665 O 247.851 -1.17396 -1.38158 0
M  V30 2666 C 247.899 -3.32758 1.3894 0
M  V30 2667 O 247.003 -4.08449 0.5695 0
M  V30 2668 H 246.344 -0.578678 0.325619 0
M  V30 2669 H 248.874 -1.39203 1.49946 0
M  V30 2670 H 248.884 -3.83608 1.38958 0
M  V30 2671 H 247.559 -3.36661 2.44197 0
M  V30 2672 H 246.136 -3.67427 0.636528 0
M  V30 2673 N 248.321 -0.919034 -1.28029 0
M  V30 2674 C 249.737 -0.617972 -1.4715 0
M  V30 2675 C 249.937 0.835242 -1.83374 0
M  V30 2676 O 248.993 1.61388 -1.94191 0
M  V30 2677 C 250.306 -1.56041 -2.57044 0
M  V30 2678 C 251.854 -1.56769 -2.7091 0
M  V30 2679 C 252.329 -2.49688 -3.83953 0
M  V30 2680 N 253.82 -2.47845 -3.91314 0
M  V30 2681 C 254.555 -3.16437 -4.78179 0
M  V30 2682 N 254.051 -3.94376 -5.69596 0
M  V30 2683 N 255.844 -3.05498 -4.71834 0
M  V30 2684 H 247.995 -1.85866 -1.02798 0
M  V30 2685 H 250.258 -0.797506 -0.512531 0
M  V30 2686 H 249.964 -2.59671 -2.372 0
M  V30 2687 H 249.838 -1.29551 -3.54255 0
M  V30 2688 H 252.225 -0.538745 -2.90141 0
M  V30 2689 H 252.306 -1.87305 -1.74214 0
M  V30 2690 H 251.95 -3.52688 -3.65477 0
M  V30 2691 H 251.88 -2.16453 -4.80058 0
M  V30 2692 H 254.371 -1.91234 -3.25941 0
M  V30 2693 H 254.684 -4.43721 -6.32718 0
M  V30 2694 H 253.029 -3.98481 -5.69419 0
M  V30 2695 H 256.22 -2.44108 -3.99411 0
M  V30 2696 H 256.393 -3.59225 -5.39316 0
M  V30 2697 N 249.799 1.42003 -0.683588 0
M  V30 2698 C 251.027 2.05746 -0.218182 0
M  V30 2699 C 251.442 1.51396 1.12804 0
M  V30 2700 O 250.799 0.657303 1.70252 0
M  V30 2701 C 250.85 3.61171 -0.154131 0
M  V30 2702 O 250.571 4.13508 -1.44716 0
M  V30 2703 C 252.072 4.42042 0.333713 0
M  V30 2704 H 249.292 0.662888 -0.10402 0
M  V30 2705 H 251.836 1.81987 -0.9328 0
M  V30 2706 H 249.991 3.84012 0.511231 0
M  V30 2707 H 250.405 5.07453 -1.32632 0
M  V30 2708 H 251.879 5.51028 0.327423 0
M  V30 2709 H 252.356 4.17269 1.37053 0
M  V30 2710 H 252.962 4.24239 -0.300222 0
M  V30 2711 N 251.277 0.427512 1.51691 0
M  V30 2712 C 252.224 -0.388867 2.275 0
M  V30 2713 C 253.194 -1.02532 1.30677 0
M  V30 2714 O 254.379 -1.0461 1.59566 0
M  V30 2715 C 251.519 -1.48954 3.11298 0
M  V30 2716 C 250.632 -0.872194 4.23104 0
M  V30 2717 C 249.767 -1.94709 4.94228 0
M  V30 2718 C 248.806 -1.30766 5.97969 0
M  V30 2719 N 247.943 -2.32349 6.62539 0
M  V30 2720 H 252.783 0.263997 2.96828 0
M  V30 2721 H 250.32 0.142033 1.46413 0
M  V30 2722 H 252.278 -2.13887 3.58201 0
M  V30 2723 H 250.908 -2.11217 2.44105 0
M  V30 2724 H 249.96 -0.111419 3.80237 0
M  V30 2725 H 251.272 -0.365264 4.97461 0
M  V30 2726 H 250.426 -2.67327 5.44629 0
M  V30 2727 H 249.165 -2.48773 4.1948 0
M  V30 2728 H 248.17 -0.566902 5.4687 0
M  V30 2729 H 249.395 -0.774483 6.74669 0
M  V30 2730 H 247.341 -2.85511 5.90609 0
M  V30 2731 H 247.258 -1.8652 7.3263 0
M  V30 2732 H 248.526 -3.04481 7.17574 0
M  V30 2733 N 252.755 -1.56801 0.158532 0
M  V30 2734 C 253.718 -2.16138 -0.762705 0
M  V30 2735 C 254.718 -1.1061 -1.16713 0
M  V30 2736 O 255.908 -1.36191 -1.08617 0
M  V30 2737 C 253.04 -2.73386 -2.03649 0
M  V30 2738 H 254.233 -2.98886 -0.246354 0
M  V30 2739 H 251.786 -1.56035 -0.0909744 0
M  V30 2740 H 252.521 -1.94335 -2.59623 0
M  V30 2741 H 252.306 -3.50601 -1.75559 0
M  V30 2742 H 253.796 -3.19065 -2.6942 0
M  V30 2743 N 254.233 0.115231 -1.57178 0
M  V30 2744 C 255.482 0.820945 -1.84237 0
M  V30 2745 C 255.795 1.80866 -0.744761 0
M  V30 2746 O 257.001 2.56083 -0.901871 0
M  V30 2747 C 255.457 1.51072 -3.26658 0
M  V30 2748 C 255.065 0.563795 -4.44438 0
M  V30 2749 C 256.809 2.20134 -3.62962 0
M  V30 2750 C 254.716 1.25701 -5.77887 0
M  V30 2751 H 253.646 0.310328 -0.687177 0
M  V30 2752 H 256.297 0.0737134 -1.83352 0
M  V30 2753 H 254.679 2.30471 -3.22024 0
M  V30 2754 H 255.853 -0.197247 -4.60378 0
M  V30 2755 H 254.168 -0.0200638 -4.16395 0
M  V30 2756 H 256.765 2.72696 -4.59936 0
M  V30 2757 H 257.108 2.98107 -2.90582 0
M  V30 2758 H 257.641 1.47619 -3.69396 0
M  V30 2759 H 254.38 0.518493 -6.53446 0
M  V30 2760 H 253.9 1.98997 -5.65827 0
M  V30 2761 H 255.579 1.78915 -6.2177 0
M  V30 2762 N 255.711 1.52812 0.385517 0
M  V30 2763 C 256.644 1.72592 1.49289 0
M  V30 2764 C 257.622 0.573819 1.52138 0
M  V30 2765 O 258.806 0.80404 1.70492 0
M  V30 2766 C 255.933 1.78669 2.87741 0
M  V30 2767 C 254.979 3.00455 3.02703 0
M  V30 2768 S 255.812 4.60366 2.73538 0
M  V30 2769 C 256.968 4.69263 4.14177 0
M  V30 2770 H 257.201 2.66248 1.32285 0
M  V30 2771 H 254.734 1.43148 0.578611 0
M  V30 2772 H 256.692 1.82855 3.67524 0
M  V30 2773 H 255.353 0.861 3.02069 0
M  V30 2774 H 254.546 3.01258 4.04054 0
M  V30 2775 H 254.148 2.94278 2.30817 0
M  V30 2776 H 256.44 4.48092 5.08153 0
M  V30 2777 H 257.383 5.71276 4.18388 0
M  V30 2778 H 257.791 3.98072 4.00249 0
M  V30 2779 N 257.189 -0.644168 1.43834 0
M  V30 2780 C 258.136 -1.75671 1.49694 0
M  V30 2781 C 259.106 -1.6246 0.345809 0
M  V30 2782 O 260.291 -1.82573 0.554234 0
M  V30 2783 C 257.431 -3.13867 1.43463 0
M  V30 2784 C 256.544 -3.38147 2.6885 0
M  V30 2785 C 255.679 -4.66241 2.54544 0
M  V30 2786 C 254.718 -4.83657 3.75157 0
M  V30 2787 N 253.855 -6.03016 3.59605 0
M  V30 2788 H 258.695 -1.69998 2.44754 0
M  V30 2789 H 256.232 -0.829458 1.21484 0
M  V30 2790 H 258.19 -3.9377 1.37843 0
M  V30 2791 H 256.82 -3.18588 0.519783 0
M  V30 2792 H 255.872 -2.52276 2.84712 0
M  V30 2793 H 257.184 -3.46899 3.58417 0
M  V30 2794 H 256.338 -5.54285 2.46683 0
M  V30 2795 H 255.077 -4.59826 1.62516 0
M  V30 2796 H 254.082 -3.94046 3.83416 0
M  V30 2797 H 255.307 -4.91896 4.68204 0
M  V30 2798 H 253.253 -5.97715 2.7032 0
M  V30 2799 H 253.17 -6.12766 4.42779 0
M  V30 2800 H 254.438 -6.93657 3.55613 0
M  V30 2801 N 258.668 -1.30515 -0.883378 0
M  V30 2802 C 259.917 -1.18795 -1.63005 0
M  V30 2803 C 260.23 0.255923 -1.93919 0
M  V30 2804 O 261.436 0.494654 -2.66956 0
M  V30 2805 C 259.892 -2.07878 -2.93794 0
M  V30 2806 C 259.5 -3.57184 -2.70414 0
M  V30 2807 C 261.244 -2.04924 -3.71761 0
M  V30 2808 C 259.151 -4.38317 -3.97029 0
M  V30 2809 H 258.081 -0.441031 -0.611562 0
M  V30 2810 H 260.732 -1.55275 -0.977854 0
M  V30 2811 H 259.114 -1.64283 -3.60315 0
M  V30 2812 H 260.288 -4.08937 -2.12384 0
M  V30 2813 H 258.603 -3.61976 -2.0582 0
M  V30 2814 H 261.2 -2.62792 -4.65665 0
M  V30 2815 H 261.543 -1.0331 -4.03277 0
M  V30 2816 H 262.076 -2.46649 -3.12104 0
M  V30 2817 H 258.815 -5.40632 -3.70671 0
M  V30 2818 H 258.335 -3.91326 -4.54559 0
M  V30 2819 H 260.014 -4.49834 -4.65036 0
M  V30 2820 N 260.146 1.09593 -1.13257 0
M  V30 2821 C 261.109 2.14359 -0.811358 0
M  V30 2822 C 262.109 1.59808 0.178377 0
M  V30 2823 O 263.299 1.74132 -0.0484911 0
M  V30 2824 C 260.431 3.40269 -0.207276 0
M  V30 2825 H 261.624 2.44284 -1.73969 0
M  V30 2826 H 259.177 1.25102 -0.936973 0
M  V30 2827 H 259.912 3.15969 0.73036 0
M  V30 2828 H 259.697 3.81154 -0.919992 0
M  V30 2829 H 261.187 4.176 0.000667944 0
M  V30 2830 N 261.624 0.925811 1.2754 0
M  V30 2831 C 262.873 0.561084 1.93739 0
M  V30 2832 C 263.186 -0.901685 1.73577 0
M  V30 2833 O 264.392 -1.37511 2.34101 0
M  V30 2834 C 262.848 0.952668 3.47062 0
M  V30 2835 C 262.456 2.43599 3.75983 0
M  V30 2836 C 264.2 0.659103 4.19352 0
M  V30 2837 C 262.107 2.76707 5.22673 0
M  V30 2838 H 261.037 0.206122 0.725279 0
M  V30 2839 H 263.688 1.12637 1.44863 0
M  V30 2840 H 262.07 0.316053 3.94737 0
M  V30 2841 H 263.244 3.12035 3.39073 0
M  V30 2842 H 261.559 2.70125 3.16893 0
M  V30 2843 H 264.156 0.882985 5.27359 0
M  V30 2844 H 264.499 -0.403607 4.14339 0
M  V30 2845 H 265.032 1.25473 3.77494 0
M  V30 2846 H 261.771 3.8188 5.32774 0
M  V30 2847 H 261.291 2.12919 5.60737 0
M  V30 2848 H 262.97 2.6435 5.90532 0
M  V30 2849 N 263.102 -1.41638 0.69111 0
M  V30 2850 C 264.348 -2.01598 0.220519 0
M  V30 2851 C 264.681 -1.54594 -1.17535 0
M  V30 2852 O 263.956 -0.755177 -1.79241 0
M  V30 2853 C 264.239 -3.59062 0.273243 0
M  V30 2854 C 264.092 -4.16203 1.70573 0
M  V30 2855 C 265.411 -4.38546 -0.369457 0
M  V30 2856 H 262.53 -0.732468 0.0816045 0
M  V30 2857 H 265.172 -1.68445 0.878986 0
M  V30 2858 H 263.322 -3.87435 -0.287411 0
M  V30 2859 H 264.994 -3.98722 2.31989 0
M  V30 2860 H 263.237 -3.71414 2.2413 0
M  V30 2861 H 263.908 -5.25358 1.69419 0
M  V30 2862 H 266.384 -4.1596 0.107977 0
M  V30 2863 H 265.26 -5.48069 -0.302002 0
M  V30 2864 H 265.521 -4.17662 -1.44951 0
M  V30 2865 N 264.58 -0.43555 -1.51462 0
M  V30 2866 C 265.826 0.123979 -2.03022 0
M  V30 2867 C 266.181 1.4054 -1.31401 0
M  V30 2868 O 265.474 1.86948 -0.419634 0
M  V30 2869 C 265.668 0.39942 -3.55161 0
M  V30 2870 C 265.497 -0.853754 -4.41521 0
M  V30 2871 C 264.267 -1.38675 -4.85898 0
M  V30 2872 C 266.465 -1.73939 -4.83994 0
M  V30 2873 N 264.447 -2.59265 -5.56466 0
M  V30 2874 C 265.818 -2.79135 -5.5361 0
M  V30 2875 C 267.873 -1.75402 -4.65981 0
M  V30 2876 C 266.576 -3.85737 -6.07124 0
M  V30 2877 C 268.602 -2.80938 -5.20411 0
M  V30 2878 C 267.964 -3.84854 -5.89972 0
M  V30 2879 H 264.063 0.00624887 -0.781975 0
M  V30 2880 H 266.647 -0.59582 -1.85359 0
M  V30 2881 H 264.818 1.08825 -3.72843 0
M  V30 2882 H 266.55 0.95015 -3.93388 0
M  V30 2883 H 263.305 -0.94094 -4.64159 0
M  V30 2884 H 263.729 -3.2041 -5.96378 0
M  V30 2885 H 268.371 -0.963926 -4.11665 0
M  V30 2886 H 266.089 -4.65586 -6.60496 0
M  V30 2887 H 269.675 -2.8301 -5.08327 0
M  V30 2888 H 268.555 -4.65176 -6.31333 0
M  V30 2889 N 266.058 1.56714 -0.166846 0
M  V30 2890 C 267.021 2.16539 0.751232 0
M  V30 2891 C 268.021 1.11228 1.16125 0
M  V30 2892 O 269.211 1.36765 1.07894 0
M  V30 2893 C 266.343 2.74462 2.02196 0
M  V30 2894 H 267.536 2.99013 0.230499 0
M  V30 2895 H 265.089 1.56081 0.0826982 0
M  V30 2896 H 265.824 1.95709 2.58589 0
M  V30 2897 H 265.609 3.51527 1.73698 0
M  V30 2898 H 267.099 3.20489 2.67725 0
M  V30 2899 N 267.536 -0.106894 1.57237 0
M  V30 2900 C 268.785 -0.811163 1.8467 0
M  V30 2901 C 269.098 -1.80469 0.754342 0
M  V30 2902 O 270.304 -2.55601 0.915439 0
M  V30 2903 C 268.76 -1.49337 3.27454 0
M  V30 2904 C 268.368 -0.540217 4.44731 0
M  V30 2905 C 270.112 -2.18206 3.64124 0
M  V30 2906 C 268.019 -1.22634 5.78545 0
M  V30 2907 H 266.949 -0.306679 0.688813 0
M  V30 2908 H 269.6 -0.0639887 1.83388 0
M  V30 2909 H 267.982 -2.2876 3.23241 0
M  V30 2910 H 269.156 0.221659 4.60267 0
M  V30 2911 H 267.471 0.042146 4.16379 0
M  V30 2912 H 270.068 -2.70253 4.61376 0
M  V30 2913 H 270.411 -2.96562 2.92158 0
M  V30 2914 H 270.944 -1.45658 3.70174 0
M  V30 2915 H 267.683 -0.483832 6.53712 0
M  V30 2916 H 267.203 -1.95993 5.66874 0
M  V30 2917 H 268.882 -1.75615 6.2271 0
M  V30 2918 N 269.014 -1.53014 -0.377408 0
M  V30 2919 C 270.239 -1.72818 -1.14668 0
M  V30 2920 C 270.664 -0.450725 -1.8262 0
M  V30 2921 O 270.022 0.59439 -1.7128 0
M  V30 2922 C 270.07 -2.88627 -2.16164 0
M  V30 2923 O 269.174 -2.56409 -3.22998 0
M  V30 2924 H 268.515 -0.574301 -0.333278 0
M  V30 2925 H 271.045 -1.99853 -0.438152 0
M  V30 2926 H 271.055 -3.14455 -2.59966 0
M  V30 2927 H 269.73 -3.81294 -1.66095 0
M  V30 2928 H 268.307 -2.4136 -2.84253 0
M  V30 2929 N 270.492 0.636531 -1.44174 0
M  V30 2930 C 271.741 1.39213 -1.45954 0
M  V30 2931 C 272.054 1.95374 -0.0939119 0
M  V30 2932 O 273.26 2.71498 0.0107767 0
M  V30 2933 C 271.716 2.52025 -2.56927 0
M  V30 2934 C 271.324 2.024 -3.99673 0
M  V30 2935 C 273.068 3.29269 -2.67922 0
M  V30 2936 C 270.975 3.12521 -5.0208 0
M  V30 2937 H 269.905 0.523132 -0.542999 0
M  V30 2938 H 272.556 0.685349 -1.70221 0
M  V30 2939 H 270.938 3.25253 -2.25891 0
M  V30 2940 H 272.112 1.36073 -4.40251 0
M  V30 2941 H 270.427 1.37987 -3.92872 0
M  V30 2942 H 273.024 4.11352 -3.41605 0
M  V30 2943 H 273.367 3.78397 -1.73555 0
M  V30 2944 H 273.9 2.63129 -2.98342 0
M  V30 2945 H 270.639 2.68343 -5.98057 0
M  V30 2946 H 270.159 3.77507 -4.66099 0
M  V30 2947 H 271.838 3.77385 -5.25538 0
M  V30 2948 N 271.97 1.30982 0.876444 0
M  V30 2949 C 273.218 1.20058 1.62575 0
M  V30 2950 C 273.539 -0.242947 1.93481 0
M  V30 2951 O 272.809 -1.1619 1.57724 0
M  V30 2952 H 271.389 0.44135 0.602677 0
M  V30 2953 H 274.051 1.64222 1.04962 0
M  V30 2954 H 273.147 1.76762 2.57219 0
M  V30 2955 N 273.449 -1.08991 1.13837 0
M  V30 2956 C 274.695 -1.81526 0.90422 0
M  V30 2957 C 275.028 -1.85706 -0.568066 0
M  V30 2958 O 274.303 -1.32855 -1.42056 0
M  V30 2959 C 274.586 -3.27447 1.49835 0
M  V30 2960 C 274.439 -3.31512 3.04006 0
M  V30 2961 C 275.758 -4.24256 1.17025 0
M  V30 2962 H 272.877 -0.659029 0.329923 0
M  V30 2963 H 275.519 -1.27644 1.40737 0
M  V30 2964 H 273.669 -3.73462 1.07044 0
M  V30 2965 H 275.341 -2.93867 3.55584 0
M  V30 2966 H 273.584 -2.70963 3.38765 0
M  V30 2967 H 274.255 -4.34329 3.40679 0
M  V30 2968 H 276.731 -3.86549 1.54009 0
M  V30 2969 H 275.607 -5.24684 1.61237 0
M  V30 2970 H 275.868 -4.42019 0.0846274 0
M  V30 2971 N 274.927 -0.932562 -1.27047 0
M  V30 2972 C 276.152 -0.591474 -1.98787 0
M  V30 2973 C 276.577 0.824601 -1.69062 0
M  V30 2974 O 275.935 1.5541 -0.933677 0
M  V30 2975 C 275.983 -0.829808 -3.50922 0
M  V30 2976 O 275.087 0.102266 -4.12273 0
M  V30 2977 H 274.428 -0.227185 -0.623926 0
M  V30 2978 H 276.958 -1.25314 -1.61733 0
M  V30 2979 H 276.968 -0.747292 -4.01098 0
M  V30 2980 H 275.643 -1.86201 -3.7189 0
M  V30 2981 H 274.22 -0.0305761 -3.72887 0
M  V30 2982 N 276.405 1.4127 -0.698611 0
M  V30 2983 C 277.651 2.01478 -0.231207 0
M  V30 2984 C 277.984 1.55215 1.16713 0
M  V30 2985 O 277.259 0.764672 1.78838 0
M  V30 2986 C 277.542 3.58912 -0.292281 0
M  V30 2987 C 277.395 4.15293 -1.72778 0
M  V30 2988 C 278.714 4.38736 0.346194 0
M  V30 2989 H 275.833 0.732025 -0.0854878 0
M  V30 2990 H 278.475 1.67977 -0.887906 0
M  V30 2991 H 276.625 3.87582 0.26686 0
M  V30 2992 H 278.297 3.97486 -2.341 0
M  V30 2993 H 276.54 3.7022 -2.26096 0
M  V30 2994 H 277.211 5.24452 -1.72202 0
M  V30 2995 H 279.687 4.15897 -0.130035 0
M  V30 2996 H 278.563 5.48221 0.272932 0
M  V30 2997 H 278.824 4.18425 1.42734 0
M  V30 2998 N 277.883 0.443576 1.51229 0
M  V30 2999 C 279.294 -0.0180867 1.86691 0
M  V30 3000 C 279.645 -1.41384 1.36033 0
M  V30 3001 O 278.77 -2.04291 0.713722 0
M  V30 3002 C 279.365 -0.039597 3.38777 0
M  V30 3003 C 277.924 -0.445692 3.73752 0
M  V30 3004 C 277.071 0.357584 2.74985 0
M  V30 3005 H 280.022 0.659138 1.44364 0
M  V30 3006 H 280.043 -0.847761 3.70936 0
M  V30 3007 H 279.555 0.976382 3.75617 0
M  V30 3008 H 277.656 -1.46704 3.42503 0
M  V30 3009 H 277.769 -0.166155 4.78812 0
M  V30 3010 H 276.133 -0.184973 2.54027 0
M  V30 3011 H 276.916 1.37256 3.14668 0
M  V30 3012 N 279.361 -1.56624 0.175154 0
M  V30 3013 C 280.61 -1.96173 -0.468921 0
M  V30 3014 C 280.923 -1.06401 -1.64128 0
M  V30 3015 O 282.129 -1.35648 -2.35185 0
M  V30 3016 C 280.585 -3.48833 -0.885633 0
M  V30 3017 C 280.193 -4.47237 0.261343 0
M  V30 3018 C 281.937 -3.97194 -1.49791 0
M  V30 3019 C 279.844 -5.9114 -0.175214 0
M  V30 3020 H 278.774 -0.732455 -0.178958 0
M  V30 3021 H 281.425 -1.81591 0.263997 0
M  V30 3022 H 279.807 -3.58848 -1.67464 0
M  V30 3023 H 280.981 -4.4894 1.03871 0
M  V30 3024 H 279.296 -4.08956 0.783827 0
M  V30 3025 H 281.893 -5.02167 -1.83665 0
M  V30 3026 H 282.236 -3.40351 -2.39722 0
M  V30 3027 H 282.769 -3.90212 -0.773267 0
M  V30 3028 H 279.508 -6.51865 0.689414 0
M  V30 3029 H 279.028 -5.92735 -0.91786 0
M  V30 3030 H 280.707 -6.44044 -0.617792 0
M  V30 3031 N 280.839 0.0985539 -1.57292 0
M  V30 3032 C 282.25 0.653457 -1.74891 0
M  V30 3033 C 282.601 1.7929 -0.796838 0
M  V30 3034 O 281.726 2.16385 0.0254886 0
M  V30 3035 C 282.321 1.19216 -3.17133 0
M  V30 3036 C 280.88 1.69316 -3.36168 0
M  V30 3037 C 280.027 0.601294 -2.70702 0
M  V30 3038 H 282.978 -0.127497 -1.58187 0
M  V30 3039 H 282.999 2.06154 -3.19814 0
M  V30 3040 H 282.511 0.362635 -3.86402 0
M  V30 3041 H 280.612 2.5468 -2.71972 0
M  V30 3042 H 280.725 1.78853 -4.44464 0
M  V30 3043 H 279.089 1.0399 -2.32504 0
M  V30 3044 H 279.872 -0.217592 -3.4261 0
M  V30 3045 N 282.317 1.53212 0.369288 0
M  V30 3046 C 283.563 1.69466 1.11397 0
M  V30 3047 C 283.896 0.443257 1.89074 0
M  V30 3048 O 283.171 -0.559386 1.86282 0
M  V30 3049 C 283.454 2.9422 2.07621 0
M  V30 3050 C 283.307 4.29508 1.33577 0
M  V30 3051 C 284.626 3.14565 3.07794 0
M  V30 3052 H 281.745 0.616667 0.403597 0
M  V30 3053 H 284.387 1.85845 0.395179 0
M  V30 3054 H 282.537 2.80387 2.68916 0
M  V30 3055 H 284.209 4.55147 0.750955 0
M  V30 3056 H 282.452 4.29088 0.637618 0
M  V30 3057 H 283.123 5.12926 2.03989 0
M  V30 3058 H 285.599 3.2756 2.56601 0
M  V30 3059 H 284.475 4.03297 3.72348 0
M  V30 3060 H 284.736 2.29675 3.77759 0
M  V30 3061 N 283.795 -0.628877 1.44509 0
M  V30 3062 C 285.044 -1.38437 1.4669 0
M  V30 3063 C 285.357 -1.95322 0.104272 0
M  V30 3064 O 286.563 -2.715 0.00362163 0
M  V30 3065 C 285.019 -2.50659 2.5826 0
M  V30 3066 C 284.627 -2.00277 4.0074 0
M  V30 3067 C 286.371 -3.27844 2.69664 0
M  V30 3068 C 284.278 -3.09854 5.0373 0
M  V30 3069 H 283.208 -0.520245 0.545766 0
M  V30 3070 H 285.859 -0.676313 1.70582 0
M  V30 3071 H 284.241 -3.2405 2.27612 0
M  V30 3072 H 285.415 -1.33736 4.40966 0
M  V30 3073 H 283.73 -1.35901 3.93599 0
M  V30 3074 H 286.327 -4.09534 3.43781 0
M  V30 3075 H 286.67 -3.77471 1.75559 0
M  V30 3076 H 287.203 -2.61543 2.99733 0
M  V30 3077 H 283.942 -2.65168 5.99472 0
M  V30 3078 H 283.462 -3.7503 4.68095 0
M  V30 3079 H 285.141 -3.74592 5.27532 0
M  V30 3080 N 285.273 -1.31445 -0.869486 0
M  V30 3081 C 286.521 -1.20918 -1.61936 0
M  V30 3082 C 286.842 0.232683 -1.93607 0
M  V30 3083 O 286.112 1.15352 -1.58338 0
M  V30 3084 H 284.692 -0.44454 -0.600328 0
M  V30 3085 H 287.354 -1.64776 -1.0409 0
M  V30 3086 H 286.45 -1.78124 -2.56278 0
M  V30 3087 N 286.751 1.08385 -1.14413 0
M  V30 3088 C 287.681 2.17321 -0.854044 0
M  V30 3089 C 288.662 1.69024 0.191049 0
M  V30 3090 O 289.847 1.94141 0.0476779 0
M  V30 3091 C 286.977 3.45719 -0.330983 0
M  V30 3092 C 285.931 4.07409 -1.31155 0
M  V30 3093 C 285.257 5.30762 -0.64778 0
M  V30 3094 C 286.557 4.48665 -2.67388 0
M  V30 3095 H 288.251 2.41845 -1.76498 0
M  V30 3096 H 285.797 1.16233 -0.850051 0
M  V30 3097 H 287.75 4.21241 -0.115645 0
M  V30 3098 H 286.474 3.2075 0.615381 0
M  V30 3099 H 285.133 3.33919 -1.51306 0
M  V30 3100 H 284.781 5.02078 0.304398 0
M  V30 3101 H 284.481 5.72992 -1.30207 0
M  V30 3102 H 286.005 6.08998 -0.441972 0
M  V30 3103 H 287.419 5.15364 -2.51143 0
M  V30 3104 H 285.816 5.01814 -3.29093 0
M  V30 3105 H 286.886 3.60543 -3.24248 0
M  V30 3106 N 288.23 0.939286 1.26551 0
M  V30 3107 C 289.646 0.641304 1.46149 0
M  V30 3108 C 289.846 -0.805964 1.84679 0
M  V30 3109 O 288.902 -1.58278 1.96734 0
M  V30 3110 C 290.215 1.6011 2.54529 0
M  V30 3111 C 291.763 1.6106 2.68382 0
M  V30 3112 C 292.238 2.55765 3.79932 0
M  V30 3113 N 293.729 2.5404 3.87322 0
M  V30 3114 C 294.464 3.24004 4.73085 0
M  V30 3115 N 293.96 4.03388 5.63249 0
M  V30 3116 N 295.753 3.12965 4.66914 0
M  V30 3117 H 287.904 1.87478 0.998285 0
M  V30 3118 H 290.167 0.805559 0.499779 0
M  V30 3119 H 289.873 2.63412 2.33039 0
M  V30 3120 H 289.747 1.35171 3.52149 0
M  V30 3121 H 292.134 0.584835 2.89247 0
M  V30 3122 H 292.215 1.90053 1.71212 0
M  V30 3123 H 291.859 3.58458 3.5982 0
M  V30 3124 H 291.789 2.24063 4.76554 0
M  V30 3125 H 294.28 1.96396 3.22858 0
M  V30 3126 H 294.593 4.5373 6.25579 0
M  V30 3127 H 292.938 4.07489 5.63008 0
M  V30 3128 H 296.129 2.50432 3.95476 0
M  V30 3129 H 296.302 3.67759 5.33533 0
M  V30 3130 N 289.708 -1.40897 0.706093 0
M  V30 3131 C 290.985 -1.94868 0.169099 0
M  V30 3132 C 291.365 -1.64485 -1.32318 0
M  V30 3133 O 290.713 -0.95744 -2.07474 0
M  V30 3134 C 290.923 -3.45798 0.471654 0
M  V30 3135 C 292.271 -4.22663 0.405127 0
M  V30 3136 O 293.295 -3.53865 0.407168 0
M  V30 3137 O 292.154 -5.45216 0.374383 0
M  V30 3138 H 289.248 -0.82673 0.0211352 0
M  V30 3139 H 291.794 -1.50558 0.782976 0
M  V30 3140 H 290.566 -3.61235 1.50416 0
M  V30 3141 H 290.189 -3.97225 -0.172666 0
M  V30 3142 N 291.186 -0.45159 -1.50991 0
M  V30 3143 C 292.096 0.358431 -2.31846 0
M  V30 3144 C 293.112 1.01438 -1.41373 0
M  V30 3145 O 294.288 1.00663 -1.74439 0
M  V30 3146 C 291.353 1.43704 -3.15515 0
M  V30 3147 C 290.414 0.799742 -4.21785 0
M  V30 3148 C 289.647 1.82696 -5.01456 0
M  V30 3149 O 289.87 3.05105 -4.81941 0
M  V30 3150 O 288.804 1.40958 -5.85162 0
M  V30 3151 H 292.63 -0.302032 -3.02194 0
M  V30 3152 H 290.215 -0.213825 -1.47862 0
M  V30 3153 H 292.097 2.06227 -3.67489 0
M  V30 3154 H 290.772 2.08133 -2.47916 0
M  V30 3155 H 289.679 0.136084 -3.73852 0
M  V30 3156 H 291.012 0.198718 -4.91799 0
M  V30 3157 N 292.664 1.56529 -0.183458 0
M  V30 3158 C 293.889 2.02064 0.467428 0
M  V30 3159 C 294.314 1.06282 1.55196 0
M  V30 3160 O 293.672 0.0443565 1.81246 0
M  V30 3161 C 293.72 3.46122 1.01153 0
M  V30 3162 O 292.824 3.53437 2.12499 0
M  V30 3163 H 292.165 0.654726 0.110588 0
M  V30 3164 H 294.695 2.02521 -0.290917 0
M  V30 3165 H 294.705 3.85676 1.33108 0
M  V30 3166 H 293.38 4.15331 0.217533 0
M  V30 3167 H 291.957 3.2575 1.81497 0
M  V30 3168 N 294.142 -0.090211 1.57342 0
M  V30 3169 C 295.089 -1.10909 2.02405 0
M  V30 3170 C 296.059 -1.39523 0.901252 0
M  V30 3171 O 297.244 -1.50903 1.1676 0
M  V30 3172 C 294.384 -2.42277 2.45755 0
M  V30 3173 C 293.497 -2.20352 3.71576 0
M  V30 3174 C 292.632 -3.45154 4.03785 0
M  V30 3175 C 291.671 -3.18512 5.22701 0
M  V30 3176 N 290.808 -4.35593 5.50639 0
M  V30 3177 H 295.648 -0.71782 2.89225 0
M  V30 3178 H 293.185 -0.342901 1.43048 0
M  V30 3179 H 295.143 -3.18951 2.68935 0
M  V30 3180 H 293.773 -2.79242 1.61938 0
M  V30 3181 H 292.825 -1.34458 3.55844 0
M  V30 3182 H 294.137 -1.96661 4.58395 0
M  V30 3183 H 293.291 -4.30233 4.27767 0
M  V30 3184 H 292.03 -3.71904 3.15498 0
M  V30 3185 H 291.035 -2.31827 4.98534 0
M  V30 3186 H 292.26 -2.93103 6.12591 0
M  V30 3187 H 290.206 -4.6241 4.6531 0
M  V30 3188 H 290.123 -4.1511 6.31838 0
M  V30 3189 H 291.391 -5.21723 5.7916 0
M  V30 3190 N 295.62 -1.53406 -0.361157 0
M  V30 3191 C 296.866 -1.70054 -1.10496 0
M  V30 3192 C 297.199 -0.453278 -1.88836 0
M  V30 3193 O 296.474 0.5495 -1.86576 0
M  V30 3194 C 296.757 -2.95317 -2.06058 0
M  V30 3195 C 296.61 -4.3021 -1.31298 0
M  V30 3196 C 297.929 -3.16193 -3.06121 0
M  V30 3197 H 295.048 -0.618799 -0.400321 0
M  V30 3198 H 297.69 -1.86052 -0.385318 0
M  V30 3199 H 295.84 -2.81809 -2.67425 0
M  V30 3200 H 297.512 -4.55538 -0.726807 0
M  V30 3201 H 295.755 -4.29421 -0.614853 0
M  V30 3202 H 296.426 -5.14 -2.01265 0
M  V30 3203 H 298.902 -3.28916 -2.5486 0
M  V30 3204 H 297.778 -4.05266 -3.70204 0
M  V30 3205 H 298.039 -2.31676 -3.76535 0
M  V30 3206 N 297.098 0.621204 -1.44841 0
M  V30 3207 C 298.345 1.38055 -1.48145 0
M  V30 3208 C 298.673 1.94143 -0.117867 0
M  V30 3209 O 297.928 1.74713 0.881694 0
M  V30 3210 C 298.227 2.55675 -2.4973 0
M  V30 3211 C 297.893 2.17817 -3.94799 0
M  V30 3212 C 296.555 2.07205 -4.34303 0
M  V30 3213 C 298.907 1.88065 -4.86087 0
M  V30 3214 C 296.235 1.65045 -5.63007 0
M  V30 3215 C 298.587 1.47394 -6.15189 0
M  V30 3216 C 297.251 1.35331 -6.53637 0
M  V30 3217 H 296.521 0.505181 -0.542101 0
M  V30 3218 H 299.168 0.703477 -1.78111 0
M  V30 3219 H 297.473 3.2866 -2.13284 0
M  V30 3220 H 299.17 3.13904 -2.4953 0
M  V30 3221 H 295.76 2.26998 -3.63552 0
M  V30 3222 H 299.944 1.95168 -4.56315 0
M  V30 3223 H 295.2 1.54317 -5.91605 0
M  V30 3224 H 299.374 1.23415 -6.85377 0
M  V30 3225 H 297.001 1.02435 -7.53267 0
M  V30 3226 N 298.576 1.31904 0.862503 0
M  V30 3227 C 299.822 1.22197 1.61851 0
M  V30 3228 C 300.155 -0.217641 1.92977 0
M  V30 3229 O 299.43 -1.15264 1.56666 0
M  V30 3230 C 299.713 2.07378 2.94391 0
M  V30 3231 C 299.566 3.59678 2.70096 0
M  V30 3232 C 300.885 1.92891 3.95577 0
M  V30 3233 H 298.004 0.445255 0.587296 0
M  V30 3234 H 300.646 1.6177 0.99651 0
M  V30 3235 H 298.796 1.73758 3.47477 0
M  V30 3236 H 300.468 4.03472 2.23625 0
M  V30 3237 H 298.711 3.82735 2.04197 0
M  V30 3238 H 299.382 4.14595 3.64438 0
M  V30 3239 H 301.858 2.22327 3.51724 0
M  V30 3240 H 300.734 2.54781 4.86187 0
M  V30 3241 H 300.995 0.894315 4.3296 0
M  V30 3242 N 300.054 -1.07777 1.14986 0
M  V30 3243 C 301.002 -2.16964 0.838406 0
M  V30 3244 C 301.996 -1.68372 -0.186386 0
M  V30 3245 O 303.202 -1.79951 -0.0418465 0
M  V30 3246 H 299.577 -0.708006 0.253439 0
M  V30 3247 H 301.548 -2.40454 1.76704 0
M  V30 3248 C 300.297 -3.4604 0.339335 0
M  V30 3249 H 299.62 -3.83813 1.11927 0
M  V30 3250 H 301.06 -4.23698 0.160021 0
M  V30 3251 C 299.519 -3.23569 -0.938325 0
M  V30 3252 O 300.049 -3.47752 -2.01077 0
M  V30 3253 N 298.255 -2.77079 -0.876117 0
M  V30 3254 H 297.802 -2.576 -0.00322037 0
M  V30 3255 H 297.76 -2.62422 -1.73153 0
M  V30 3256 N 301.532 -0.945985 -1.26051 0
M  V30 3257 C 302.48 -0.450259 -2.282 0
M  V30 3258 C 303.474 0.47497 -1.62605 0
M  V30 3259 O 304.68 0.352653 -1.76512 0
M  V30 3260 H 301.055 -0.127081 -0.741184 0
M  V30 3261 H 303.026 -1.32422 -2.67408 0
M  V30 3262 C 301.775 0.26467 -3.46691 0
M  V30 3263 H 301.098 -0.438123 -3.97392 0
M  V30 3264 H 302.538 0.575678 -4.20074 0
M  V30 3265 C 300.997 1.48416 -3.02447 0
M  V30 3266 O 301.527 2.58227 -3.07704 0
M  V30 3267 N 299.733 1.34243 -2.57735 0
M  V30 3268 H 299.28 0.448994 -2.53657 0
M  V30 3269 H 299.238 2.15957 -2.28495 0
M  V30 3270 N 303.011 1.40521 -0.713556 0
M  V30 3271 C 304.239 2.05237 -0.261775 0
M  V30 3272 C 304.654 1.53755 1.09567 0
M  V30 3273 O 304.011 0.693268 1.6882 0
M  V30 3274 C 304.062 3.60763 -0.230706 0
M  V30 3275 O 303.783 4.10345 -1.53455 0
M  V30 3276 C 305.284 4.42651 0.239874 0
M  V30 3277 H 302.504 0.660533 -0.118057 0
M  V30 3278 H 305.048 1.79967 -0.971192 0
M  V30 3279 H 303.203 3.8501 0.429661 0
M  V30 3280 H 303.617 5.04526 -1.43366 0
M  V30 3281 H 305.091 5.51599 0.210468 0
M  V30 3282 H 305.568 4.20082 1.28171 0
M  V30 3283 H 306.174 4.23507 -0.390142 0
M  V30 3284 N 304.489 0.459591 1.5075 0
M  V30 3285 C 305.717 -0.0973749 2.06671 0
M  V30 3286 C 306.132 -1.34524 1.32472 0
M  V30 3287 O 305.489 -1.7827 0.390634 0
M  V30 3288 C 305.54 -0.39714 3.59312 0
M  V30 3289 O 305.261 0.801214 4.30711 0
M  V30 3290 C 306.762 -1.00234 4.31819 0
M  V30 3291 H 303.982 0.00195854 0.670997 0
M  V30 3292 H 306.526 0.645072 1.94059 0
M  V30 3293 H 304.681 -1.08951 3.71764 0
M  V30 3294 H 305.095 0.538857 5.21725 0
M  V30 3295 H 306.569 -1.16193 5.39632 0
M  V30 3296 H 307.046 -1.98939 3.91561 0
M  V30 3297 H 307.652 -0.348699 4.23868 0
M  V30 3298 N 305.967 -1.56429 0.191757 0
M  V30 3299 C 307.207 -1.99383 -0.450099 0
M  V30 3300 C 307.571 -1.07581 -1.59029 0
M  V30 3301 O 308.772 -1.39758 -2.29611 0
M  V30 3302 C 307.043 -3.45841 -0.901611 0
M  V30 3303 S 308.602 -4.10822 -1.54177 0
M  V30 3304 H 305.42 -0.696253 -0.144057 0
M  V30 3305 H 308.022 -1.93276 0.294036 0
M  V30 3306 H 306.726 -4.10354 -0.0616596 0
M  V30 3307 H 306.257 -3.55757 -1.67929 0
M  V30 3308 H 308.272 -4.07553 -2.83046 0
M  V30 3309 N 307.445 0.0818655 -1.57387 0
M  V30 3310 C 308.691 0.784074 -1.8703 0
M  V30 3311 C 309.024 1.77729 -0.782689 0
M  V30 3312 O 308.299 1.93384 0.208051 0
M  V30 3313 C 308.582 1.50105 -3.27323 0
M  V30 3314 C 308.435 0.524925 -4.46727 0
M  V30 3315 C 309.754 2.44843 -3.65705 0
M  V30 3316 H 306.873 0.283582 -0.680257 0
M  V30 3317 H 309.515 0.0474352 -1.89941 0
M  V30 3318 H 307.665 2.12897 -3.24972 0
M  V30 3319 H 309.337 -0.0970111 -4.61198 0
M  V30 3320 H 307.58 -0.160606 -4.33503 0
M  V30 3321 H 308.251 1.064 -5.41648 0
M  V30 3322 H 310.727 1.92135 -3.69085 0
M  V30 3323 H 309.603 2.92018 -4.64776 0
M  V30 3324 H 309.864 3.29197 -2.95096 0
M  V30 3325 N 308.923 1.53595 0.353017 0
M  V30 3326 C 309.853 1.83902 1.43883 0
M  V30 3327 C 310.834 0.693421 1.55324 0
M  V30 3328 O 312.019 0.944452 1.69687 0
M  V30 3329 C 309.149 2.04016 2.8106 0
M  V30 3330 C 308.103 3.19814 2.84434 0
M  V30 3331 C 307.429 3.25244 4.24406 0
M  V30 3332 C 308.729 4.58133 2.50822 0
M  V30 3333 H 310.423 2.74835 1.1877 0
M  V30 3334 H 307.969 1.32242 0.569917 0
M  V30 3335 H 309.922 2.238 3.57059 0
M  V30 3336 H 308.646 1.09804 3.07588 0
M  V30 3337 H 307.305 2.9987 2.10887 0
M  V30 3338 H 306.953 2.28646 4.48029 0
M  V30 3339 H 306.653 4.03054 4.27576 0
M  V30 3340 H 308.177 3.47228 5.0226 0
M  V30 3341 H 309.591 4.77995 3.16534 0
M  V30 3342 H 307.988 5.38276 2.6529 0
M  V30 3343 H 309.058 4.62387 1.46034 0
M  V30 3344 N 310.401 -0.613514 1.45168 0
M  V30 3345 C 311.349 -1.74572 1.53712 0
M  V30 3346 C 312.343 -1.64426 0.407505 0
M  V30 3347 O 313.549 -1.70291 0.583176 0
M  V30 3348 H 309.924 -0.576641 0.48269 0
M  V30 3349 H 311.895 -1.64492 2.48968 0
M  V30 3350 C 310.644 -3.12943 1.51532 0
M  V30 3351 H 309.967 -3.21407 2.37776 0
M  V30 3352 H 311.407 -3.9201 1.61569 0
M  V30 3353 C 309.866 -3.36053 0.238798 0
M  V30 3354 O 310.396 -3.95837 -0.6838 0
M  V30 3355 N 308.602 -2.9028 0.136359 0
M  V30 3356 H 308.149 -2.41811 0.887999 0
M  V30 3357 H 308.107 -3.06116 -0.716944 0
M  V30 3358 N 311.879 -1.3236 -0.855495 0
M  V30 3359 C 313.156 -1.13491 -1.59309 0
M  V30 3360 C 313.536 0.30503 -2.08885 0
M  V30 3361 O 312.884 1.30151 -1.87811 0
M  V30 3362 C 313.094 -2.16176 -2.73987 0
M  V30 3363 C 314.442 -2.49463 -3.43589 0
M  V30 3364 O 315.466 -2.14715 -2.84211 0
M  V30 3365 O 314.325 -3.09027 -4.50738 0
M  V30 3366 H 311.419 -0.437887 -0.701559 0
M  V30 3367 H 313.965 -1.43887 -0.899696 0
M  V30 3368 H 312.737 -3.1297 -2.34873 0
M  V30 3369 H 312.36 -1.86769 -3.51003 0
M  V30 3370 N 313.357 1.07166 -1.15556 0
M  V30 3371 C 314.768 1.6127 -0.940693 0
M  V30 3372 C 315.119 1.89251 0.517551 0
M  V30 3373 O 314.244 1.65937 1.38903 0
M  V30 3374 C 314.839 2.92993 -1.7012 0
M  V30 3375 C 313.398 3.43832 -1.53156 0
M  V30 3376 C 312.545 2.1786 -1.71558 0
M  V30 3377 H 315.496 0.90229 -1.30554 0
M  V30 3378 H 315.517 3.62007 -1.17181 0
M  V30 3379 H 315.029 2.72596 -2.76248 0
M  V30 3380 H 313.13 3.69307 -0.494294 0
M  V30 3381 H 313.243 4.19747 -2.30975 0
M  V30 3382 H 311.607 2.2765 -1.14225 0
M  V30 3383 H 312.39 1.99956 -2.79056 0
M  V30 3384 N 314.835 0.952656 1.25548 0
M  V30 3385 C 315.783 0.462354 2.27958 0
M  V30 3386 C 316.777 -0.46634 1.62855 0
M  V30 3387 O 317.983 -0.343287 1.76696 0
M  V30 3388 H 314.358 0.13101 0.7405 0
M  V30 3389 H 316.329 1.33839 2.66702 0
M  V30 3390 C 315.078 -0.24628 3.46827 0
M  V30 3391 H 314.401 0.459192 3.97154 0
M  V30 3392 H 315.841 -0.553393 4.20373 0
M  V30 3393 C 314.3 -1.4681 3.0323 0
M  V30 3394 O 314.83 -2.56591 3.09069 0
M  V30 3395 N 313.036 -1.32874 2.58443 0
M  V30 3396 H 312.583 -0.435536 2.53891 0
M  V30 3397 H 312.541 -2.14742 2.29637 0
M  V30 3398 N 316.313 -1.40141 0.720998 0
M  V30 3399 C 317.56 -2.00787 0.262842 0
M  V30 3400 C 317.888 -1.5718 -1.14563 0
M  V30 3401 O 317.143 -0.785391 -1.79249 0
M  V30 3402 C 317.442 -3.56165 0.296892 0
M  V30 3403 C 317.108 -4.19373 1.65641 0
M  V30 3404 C 315.77 -4.36352 2.02855 0
M  V30 3405 C 318.122 -4.54578 2.54968 0
M  V30 3406 C 315.45 -4.8582 3.28931 0
M  V30 3407 C 317.802 -5.05447 3.80402 0
M  V30 3408 C 316.466 -5.20635 4.17726 0
M  V30 3409 H 315.736 -0.734731 0.0961807 0
M  V30 3410 H 318.383 -1.67673 0.925093 0
M  V30 3411 H 316.688 -3.8922 -0.448932 0
M  V30 3412 H 318.385 -4.00929 -0.0755208 0
M  V30 3413 H 314.975 -4.06549 1.35704 0
M  V30 3414 H 319.159 -4.41091 2.27491 0
M  V30 3415 H 314.415 -4.95764 3.57811 0
M  V30 3416 H 318.589 -5.31663 4.49786 0
M  V30 3417 H 316.216 -5.58728 5.15487 0
M  V30 3418 N 317.792 -0.46758 -1.50504 0
M  V30 3419 C 319.038 0.0887532 -2.02606 0
M  V30 3420 C 319.371 1.39686 -1.34913 0
M  V30 3421 O 318.646 1.88644 -0.473694 0
M  V30 3422 C 318.929 0.276206 -3.59039 0
M  V30 3423 C 318.782 -1.05267 -4.37309 0
M  V30 3424 C 320.101 1.03235 -4.27821 0
M  V30 3425 H 317.22 0.0307814 -0.736357 0
M  V30 3426 H 319.862 -0.612485 -1.79857 0
M  V30 3427 H 318.012 0.8735 -3.78553 0
M  V30 3428 H 319.684 -1.68628 -4.29374 0
M  V30 3429 H 317.927 -1.65015 -4.01189 0
M  V30 3430 H 318.598 -0.875197 -5.45018 0
M  V30 3431 H 321.074 0.526111 -4.12761 0
M  V30 3432 H 319.95 1.1323 -5.37094 0
M  V30 3433 H 320.211 2.06806 -3.90748 0
M  V30 3434 N 319.27 1.56325 -0.20005 0
M  V30 3435 C 320.2 2.22318 0.713916 0
M  V30 3436 C 321.181 1.18788 1.21752 0
M  V30 3437 O 322.366 1.47309 1.26545 0
M  V30 3438 C 319.496 2.88639 1.93144 0
M  V30 3439 C 318.45 3.98457 1.56255 0
M  V30 3440 C 317.776 4.51967 2.85709 0
M  V30 3441 C 319.076 5.16612 0.768747 0
M  V30 3442 H 320.77 2.98952 0.163755 0
M  V30 3443 H 318.316 1.43792 0.0773219 0
M  V30 3444 H 320.269 3.33491 2.57608 0
M  V30 3445 H 318.993 2.09419 2.50621 0
M  V30 3446 H 317.652 3.54305 0.941471 0
M  V30 3447 H 317.3 3.69503 3.41287 0
M  V30 3448 H 317 5.26071 2.6177 0
M  V30 3449 H 318.524 4.99523 3.51154 0
M  V30 3450 H 319.938 5.57977 1.3166 0
M  V30 3451 H 318.335 5.96812 0.627286 0
M  V30 3452 H 319.405 4.84358 -0.229168 0
M  V30 3453 N 320.748 -0.0735177 1.57428 0
M  V30 3454 C 321.997 -0.771809 1.86349 0
M  V30 3455 C 322.31 -1.78828 0.792452 0
M  V30 3456 O 323.516 -2.53602 0.96945 0
M  V30 3457 C 321.972 -1.42358 3.30548 0
M  V30 3458 C 321.58 -0.445761 4.45777 0
M  V30 3459 C 323.324 -2.10434 3.6867 0
M  V30 3460 C 321.231 -1.10335 5.81016 0
M  V30 3461 H 320.161 -0.291999 0.695164 0
M  V30 3462 H 322.812 -0.0250749 1.83483 0
M  V30 3463 H 321.194 -2.21852 3.28021 0
M  V30 3464 H 322.368 0.319239 4.59693 0
M  V30 3465 H 320.683 0.130457 4.16196 0
M  V30 3466 H 323.28 -2.60405 4.67004 0
M  V30 3467 H 323.623 -2.90298 2.98383 0
M  V30 3468 H 324.156 -1.37773 3.7318 0
M  V30 3469 H 320.895 -0.345061 6.54591 0
M  V30 3470 H 320.415 -1.83925 5.70904 0
M  V30 3471 H 322.094 -1.62367 6.26295 0
M  V30 3472 N 322.226 -1.5378 -0.344866 0
M  V30 3473 C 323.474 -1.70625 -1.08311 0
M  V30 3474 C 323.795 -0.471447 -1.89215 0
M  V30 3475 O 323.065 0.514616 -1.8902 0
M  V30 3476 H 321.645 -0.629058 -0.402859 0
M  V30 3477 H 324.307 -1.9103 -0.386459 0
M  V30 3478 H 323.403 -2.57656 -1.76124 0
M  V30 3479 N 323.704 0.605807 -1.45491 0
M  V30 3480 C 324.929 1.39625 -1.53361 0
M  V30 3481 C 325.354 1.87351 -0.167645 0
M  V30 3482 O 324.712 1.60243 0.848051 0
M  V30 3483 C 324.76 2.57559 -2.5238 0
M  V30 3484 O 323.864 3.58248 -2.04285 0
M  V30 3485 H 323.205 0.416771 -0.516912 0
M  V30 3486 H 325.735 0.737103 -1.90861 0
M  V30 3487 H 325.745 3.0478 -2.71244 0
M  V30 3488 H 324.42 2.22171 -3.51586 0
M  V30 3489 H 322.997 3.17664 -1.95305 0
M  V30 3490 N 325.182 1.32811 0.848464 0
M  V30 3491 C 326.429 1.23724 1.60308 0
M  V30 3492 C 326.757 -0.1994 1.93475 0
M  V30 3493 O 326.012 -1.15406 1.5805 0
M  V30 3494 C 326.311 2.04831 2.92881 0
M  V30 3495 C 325.977 3.54125 2.79117 0
M  V30 3496 C 324.639 3.94829 2.7507 0
M  V30 3497 C 326.991 4.49036 2.64606 0
M  V30 3498 C 324.319 5.28675 2.544 0
M  V30 3499 C 326.671 5.83033 2.4547 0
M  V30 3500 C 325.335 6.22931 2.39819 0
M  V30 3501 H 324.605 0.452737 0.586609 0
M  V30 3502 H 327.252 1.64301 0.983743 0
M  V30 3503 H 325.557 1.57001 3.58968 0
M  V30 3504 H 327.254 1.95164 3.50303 0
M  V30 3505 H 323.844 3.21801 2.83094 0
M  V30 3506 H 328.028 4.18505 2.66772 0
M  V30 3507 H 323.284 5.58637 2.48465 0
M  V30 3508 H 327.458 6.56186 2.33222 0
M  V30 3509 H 325.085 7.26584 2.23562 0
M  V30 3510 N 326.66 -1.06551 1.16123 0
M  V30 3511 C 327.906 -1.79567 0.94252 0
M  V30 3512 C 328.239 -1.86869 -0.528547 0
M  V30 3513 O 327.514 -1.35838 -1.39206 0
M  V30 3514 C 327.797 -3.24195 1.56747 0
M  V30 3515 C 327.65 -3.24989 3.10969 0
M  V30 3516 C 328.969 -4.21678 1.25998 0
M  V30 3517 H 326.088 -0.651883 0.343828 0
M  V30 3518 H 328.73 -1.2463 1.43413 0
M  V30 3519 H 326.88 -3.71107 1.14942 0
M  V30 3520 H 328.552 -2.86258 3.61737 0
M  V30 3521 H 326.795 -2.63716 3.44436 0
M  V30 3522 H 327.466 -4.27005 3.49815 0
M  V30 3523 H 329.942 -3.83196 1.62174 0
M  V30 3524 H 328.818 -5.21146 1.7233 0
M  V30 3525 H 329.079 -4.4174 0.178367 0
M  V30 3526 N 328.138 -0.959301 -1.25041 0
M  V30 3527 C 329.101 -0.487677 -2.23952 0
M  V30 3528 C 330.101 0.41119 -1.55454 0
M  V30 3529 O 331.291 0.207825 -1.72956 0
M  V30 3530 C 328.423 0.294807 -3.39623 0
M  V30 3531 H 329.616 -1.36198 -2.67189 0
M  V30 3532 H 327.169 -0.743042 -1.37508 0
M  V30 3533 H 327.904 1.18658 -3.01813 0
M  V30 3534 H 327.689 -0.35012 -3.90534 0
M  V30 3535 H 329.179 0.614089 -4.1306 0
M  V30 3536 N 329.616 1.39756 -0.72842 0
M  V30 3537 C 330.863 2.00645 -0.273487 0
M  V30 3538 C 331.191 1.57786 1.13727 0
M  V30 3539 O 330.446 0.794886 1.7883 0
M  V30 3540 C 330.745 3.56002 -0.315776 0
M  V30 3541 C 330.411 4.18489 -1.67863 0
M  V30 3542 C 329.073 4.3527 -2.05166 0
M  V30 3543 C 331.425 4.53219 -2.57375 0
M  V30 3544 C 328.753 4.84069 -3.31503 0
M  V30 3545 C 331.105 5.03423 -3.83077 0
M  V30 3546 C 329.769 5.18413 -4.20481 0
M  V30 3547 H 329.039 0.734211 -0.100076 0
M  V30 3548 H 331.686 1.6718 -0.933972 0
M  V30 3549 H 329.991 3.89452 0.428285 0
M  V30 3550 H 331.688 4.00963 0.0542575 0
M  V30 3551 H 328.278 4.05824 -1.37858 0
M  V30 3552 H 332.462 4.39878 -2.29827 0
M  V30 3553 H 327.718 4.93859 -3.60435 0
M  V30 3554 H 331.892 5.2927 -4.52599 0
M  V30 3555 H 329.519 5.55987 -5.18443 0
M  V30 3556 N 331.094 0.475555 1.50254 0
M  V30 3557 C 332.341 -0.0778919 2.0235 0
M  V30 3558 C 332.669 -1.39319 1.35722 0
M  V30 3559 O 331.924 -1.89888 0.473395 0
M  V30 3560 C 332.223 -0.305114 3.56095 0
M  V30 3561 C 331.889 0.92903 4.41225 0
M  V30 3562 C 330.551 1.26739 4.6421 0
M  V30 3563 C 332.903 1.75054 4.90923 0
M  V30 3564 C 330.231 2.42724 5.34137 0
M  V30 3565 C 332.583 2.9017 5.62125 0
M  V30 3566 C 331.247 3.24416 5.83362 0
M  V30 3567 H 330.517 -0.0285027 0.740452 0
M  V30 3568 H 333.164 0.630543 1.80821 0
M  V30 3569 H 331.469 -1.09584 3.76163 0
M  V30 3570 H 333.166 -0.747377 3.93974 0
M  V30 3571 H 329.756 0.655428 4.23559 0
M  V30 3572 H 333.94 1.50231 4.73016 0
M  V30 3573 H 329.196 2.69525 5.48786 0
M  V30 3574 H 333.37 3.54169 5.99614 0
M  V30 3575 H 330.997 4.14396 6.37323 0
M  V30 3576 N 332.573 -1.56217 0.208337 0
M  V30 3577 C 333.822 -1.97124 -0.427204 0
M  V30 3578 C 334.135 -1.09859 -1.61835 0
M  V30 3579 O 335.341 -1.40606 -2.32255 0
M  V30 3580 C 333.797 -3.50633 -0.811442 0
M  V30 3581 C 333.405 -4.46582 0.35615 0
M  V30 3582 C 335.149 -4.00282 -1.41332 0
M  V30 3583 C 333.056 -5.91379 -0.0497852 0
M  V30 3584 H 331.986 -0.736086 -0.163381 0
M  V30 3585 H 334.637 -1.8099 0.302456 0
M  V30 3586 H 333.019 -3.62319 -1.59815 0
M  V30 3587 H 334.193 -4.46636 1.1337 0
M  V30 3588 H 332.508 -4.07202 0.870396 0
M  V30 3589 H 335.105 -5.0595 -1.72972 0
M  V30 3590 H 335.448 -3.45359 -2.32449 0
M  V30 3591 H 335.981 -3.91764 -0.690323 0
M  V30 3592 H 332.72 -6.50255 0.827529 0
M  V30 3593 H 332.24 -5.94549 -0.791926 0
M  V30 3594 H 333.919 -6.45209 -0.481042 0
M  V30 3595 N 334.051 0.0651679 -1.57465 0
M  V30 3596 C 335.462 0.616213 -1.76238 0
M  V30 3597 C 335.813 1.7756 -0.834689 0
M  V30 3598 O 334.938 2.1639 -0.0204156 0
M  V30 3599 C 335.533 1.12462 -3.1959 0
M  V30 3600 C 334.092 1.62147 -3.39684 0
M  V30 3601 C 333.239 0.543739 -2.71917 0
M  V30 3602 H 336.19 -0.161022 -1.57881 0
M  V30 3603 H 336.211 1.99324 -3.24114 0
M  V30 3604 H 335.723 0.280592 -3.87084 0
M  V30 3605 H 333.824 2.48854 -2.77313 0
M  V30 3606 H 333.937 1.69385 -4.48158 0
M  V30 3607 H 332.301 0.990352 -2.34657 0
M  V30 3608 H 333.084 -0.290216 -3.42071 0
M  V30 3609 N 335.529 1.53961 0.336706 0
M  V30 3610 C 336.459 1.85417 1.41925 0
M  V30 3611 C 337.44 0.709856 1.5458 0
M  V30 3612 O 338.625 0.962396 1.68676 0
M  V30 3613 C 335.755 2.06985 2.78881 0
M  V30 3614 C 334.709 3.22813 2.81026 0
M  V30 3615 C 334.035 3.29727 4.20932 0
M  V30 3616 C 335.335 4.60767 2.45949 0
M  V30 3617 H 337.029 2.76079 1.15848 0
M  V30 3618 H 334.575 1.32839 0.555859 0
M  V30 3619 H 336.528 2.27575 3.54665 0
M  V30 3620 H 335.252 1.13061 3.06406 0
M  V30 3621 H 333.911 3.0209 2.07695 0
M  V30 3622 H 333.559 2.33385 4.45579 0
M  V30 3623 H 333.259 4.07566 4.23277 0
M  V30 3624 H 334.783 3.52536 4.98549 0
M  V30 3625 H 336.197 4.81325 3.11446 0
M  V30 3626 H 334.594 5.4106 2.59566 0
M  V30 3627 H 335.664 4.6391 1.41122 0
M  V30 3628 N 337.007 -0.598083 1.45811 0
M  V30 3629 C 338.235 -1.38322 1.53866 0
M  V30 3630 C 338.65 -1.87992 0.174479 0
M  V30 3631 O 338.007 -1.62756 -0.825627 0
M  V30 3632 C 338.058 -2.58125 2.53089 0
M  V30 3633 O 337.779 -2.10516 3.84206 0
M  V30 3634 C 339.28 -3.50869 2.70935 0
M  V30 3635 H 336.5 -0.423093 0.520801 0
M  V30 3636 H 339.044 -0.728527 1.91083 0
M  V30 3637 H 337.199 -3.19615 2.18917 0
M  V30 3638 H 337.613 -2.88425 4.38077 0
M  V30 3639 H 339.087 -4.31451 3.44317 0
M  V30 3640 H 339.564 -4.01822 1.77301 0
M  V30 3641 H 340.17 -2.95225 3.06141 0
M  V30 3642 N 338.485 -1.33259 -0.841409 0
M  V30 3643 C 339.734 -1.23921 -1.59143 0
M  V30 3644 C 340.047 0.1941 -1.94635 0
M  V30 3645 O 341.253 0.409474 -2.68394 0
M  V30 3646 C 339.709 -2.17119 -2.87032 0
M  V30 3647 C 339.317 -3.65606 -2.58914 0
M  V30 3648 C 341.061 -2.16648 -3.65053 0
M  V30 3649 C 338.968 -4.50726 -3.82884 0
M  V30 3650 H 337.898 -0.460264 -0.597221 0
M  V30 3651 H 340.549 -1.58307 -0.927959 0
M  V30 3652 H 338.931 -1.75663 -3.54906 0
M  V30 3653 H 340.105 -4.15487 -1.99267 0
M  V30 3654 H 338.42 -3.68341 -1.942 0
M  V30 3655 H 341.017 -2.77474 -4.57069 0
M  V30 3656 H 341.36 -1.16088 -3.99787 0
M  V30 3657 H 341.893 -2.56453 -3.041 0
M  V30 3658 H 338.632 -5.52151 -3.53283 0
M  V30 3659 H 338.152 -4.0559 -4.41879 0
M  V30 3660 H 339.831 -4.64401 -4.50489 0
M  V30 3661 N 339.963 1.05934 -1.16686 0
M  V30 3662 C 340.896 2.1295 -0.820225 0
M  V30 3663 C 341.874 1.61242 0.209722 0
M  V30 3664 O 343.058 1.88271 0.0929688 0
M  V30 3665 C 340.185 3.3797 -0.22223 0
M  V30 3666 C 339.231 4.08488 -1.22637 0
M  V30 3667 S 340.064 4.58015 -2.77457 0
M  V30 3668 C 341.22 5.86292 -2.19117 0
M  V30 3669 H 341.453 2.42025 -1.72659 0
M  V30 3670 H 338.986 1.18423 -0.990722 0
M  V30 3671 H 340.944 4.10335 0.116322 0
M  V30 3672 H 339.605 3.07045 0.66196 0
M  V30 3673 H 338.798 4.98291 -0.756455 0
M  V30 3674 H 338.4 3.42154 -1.51019 0
M  V30 3675 H 340.692 6.59246 -1.56209 0
M  V30 3676 H 341.635 6.38019 -3.07144 0
M  V30 3677 H 342.043 5.40497 -1.62858 0
M  V30 3678 N 341.441 0.965919 1.2453 0
M  V30 3679 C 342.687 0.62776 1.92839 0
M  V30 3680 C 343.02 -0.834694 1.75347 0
M  V30 3681 O 342.295 -1.60031 1.10546 0
M  V30 3682 C 342.578 1.00109 3.45905 0
M  V30 3683 C 342.431 2.52011 3.72573 0
M  V30 3684 C 343.75 0.53435 4.36844 0
M  V30 3685 H 340.869 0.229537 0.700344 0
M  V30 3686 H 343.511 1.2046 1.46933 0
M  V30 3687 H 341.661 0.510238 3.85135 0
M  V30 3688 H 343.333 3.08559 3.42912 0
M  V30 3689 H 341.576 2.95287 3.17786 0
M  V30 3690 H 342.247 2.73183 4.79661 0
M  V30 3691 H 344.723 0.955565 4.04979 0
M  V30 3692 H 343.599 0.824152 5.42678 0
M  V30 3693 H 343.86 -0.565589 4.38467 0
M  V30 3694 N 342.919 -1.39368 0.735821 0
M  V30 3695 C 344.168 -1.99733 0.281004 0
M  V30 3696 C 344.481 -1.59055 -1.13846 0
M  V30 3697 O 345.687 -2.12262 -1.69284 0
M  V30 3698 C 344.143 -3.57057 0.451462 0
M  V30 3699 C 343.751 -4.06697 1.87886 0
M  V30 3700 C 345.495 -4.2446 0.0584616 0
M  V30 3701 C 343.402 -5.56598 1.99883 0
M  V30 3702 H 342.332 -0.747163 0.101311 0
M  V30 3703 H 344.983 -1.59357 0.909819 0
M  V30 3704 H 343.365 -3.95234 -0.246263 0
M  V30 3705 H 344.539 -3.79853 2.60861 0
M  V30 3706 H 342.854 -3.5196 2.22515 0
M  V30 3707 H 345.451 -5.34549 0.127099 0
M  V30 3708 H 345.794 -4.04444 -0.986433 0
M  V30 3709 H 346.327 -3.9146 0.707374 0
M  V30 3710 H 343.066 -5.81494 3.02564 0
M  V30 3711 H 342.586 -5.85242 1.31346 0
M  V30 3712 H 344.265 -6.22022 1.78039 0
M  V30 3713 N 344.397 -0.483516 -1.5 0
M  V30 3714 C 345.625 0.0644831 -2.06799 0
M  V30 3715 C 346.04 1.32399 -1.34596 0
M  V30 3716 O 345.397 1.77626 -0.418946 0
M  V30 3717 C 345.448 0.339927 -3.59898 0
M  V30 3718 O 345.169 -0.869635 -4.29382 0
M  V30 3719 C 346.67 0.933515 -4.33359 0
M  V30 3720 H 343.89 -0.0126333 -0.670881 0
M  V30 3721 H 346.434 -0.675864 -1.93009 0
M  V30 3722 H 344.589 1.03022 -3.7345 0
M  V30 3723 H 345.003 -0.62179 -5.20801 0
M  V30 3724 H 346.477 1.07593 -5.41413 0
M  V30 3725 H 346.954 1.92685 -3.94676 0
M  V30 3726 H 347.56 0.281221 -4.24369 0
M  V30 3727 N 345.875 1.56104 -0.216619 0
M  V30 3728 C 347.105 2.02269 0.420802 0
M  V30 3729 C 347.513 1.09575 1.5424 0
M  V30 3730 O 346.856 0.0967308 1.83445 0
M  V30 3731 C 346.918 3.44784 1.01806 0
M  V30 3732 C 346.582 4.56988 0.0325154 0
M  V30 3733 C 347.579 5.14225 -0.766055 0
M  V30 3734 C 345.264 5.02228 -0.0848092 0
M  V30 3735 C 347.258 6.15169 -1.6687 0
M  V30 3736 C 344.945 6.03011 -0.990994 0
M  V30 3737 C 345.943 6.59357 -1.78149 0
M  V30 3738 O 345.631 7.58179 -2.67245 0
M  V30 3739 H 345.363 0.667353 0.107776 0
M  V30 3740 H 347.917 2.02747 -0.329034 0
M  V30 3741 H 346.147 3.41359 1.81689 0
M  V30 3742 H 347.836 3.74626 1.56237 0
M  V30 3743 H 348.602 4.80126 -0.685836 0
M  V30 3744 H 344.481 4.58054 0.520349 0
M  V30 3745 H 348.025 6.59076 -2.28615 0
M  V30 3746 H 343.922 6.36532 -1.07225 0
M  V30 3747 H 344.69 7.75682 -2.61265 0
M  V30 3748 N 347.353 -0.0568162 1.57498 0
M  V30 3749 C 348.6 -0.753104 1.87975 0
M  V30 3750 C 348.928 -1.76815 0.81035 0
M  V30 3751 O 348.183 -1.94756 -0.19199 0
M  V30 3752 C 348.482 -1.48359 3.25153 0
M  V30 3753 C 348.148 -0.60713 4.46794 0
M  V30 3754 C 346.81 -0.365642 4.79809 0
M  V30 3755 C 349.162 -0.000305978 5.212 0
M  V30 3756 C 346.49 0.491905 5.84634 0
M  V30 3757 C 348.842 0.844781 6.26934 0
M  V30 3758 C 347.506 1.096 6.58441 0
M  V30 3759 H 346.776 -0.27558 0.687849 0
M  V30 3760 H 349.423 -0.0135173 1.91495 0
M  V30 3761 H 347.728 -2.29577 3.17492 0
M  V30 3762 H 349.425 -2.02739 3.45974 0
M  V30 3763 H 346.015 -0.805487 4.20963 0
M  V30 3764 H 350.199 -0.173961 4.95995 0
M  V30 3765 H 345.455 0.695131 6.07436 0
M  V30 3766 H 349.629 1.32165 6.83744 0
M  V30 3767 H 347.256 1.76224 7.39492 0
M  V30 3768 N 348.832 -1.54138 -0.328536 0
M  V30 3769 C 349.762 -1.86167 -1.40939 0
M  V30 3770 C 350.743 -0.718044 -1.54202 0
M  V30 3771 O 351.928 -0.971328 -1.68163 0
M  V30 3772 C 349.058 -2.08461 -2.77779 0
M  V30 3773 C 348.012 -3.24299 -2.7931 0
M  V30 3774 C 347.338 -3.31955 -4.19178 0
M  V30 3775 C 348.638 -4.62065 -2.43502 0
M  V30 3776 H 350.332 -2.76689 -1.14383 0
M  V30 3777 H 347.878 -1.33132 -0.548806 0
M  V30 3778 H 349.831 -2.29453 -3.53454 0
M  V30 3779 H 348.555 -1.14684 -3.05802 0
M  V30 3780 H 347.214 -3.03187 -2.0609 0
M  V30 3781 H 346.862 -2.35745 -4.44335 0
M  V30 3782 H 346.562 -4.09805 -4.2111 0
M  V30 3783 H 348.086 -3.55175 -4.96672 0
M  V30 3784 H 349.5 -4.8297 -3.08889 0
M  V30 3785 H 347.897 -5.42429 -2.56693 0
M  V30 3786 H 348.967 -4.64652 -1.38659 0
M  V30 3787 N 350.31 0.590341 -1.46126 0
M  V30 3788 C 351.538 1.37504 -1.54597 0
M  V30 3789 C 351.953 1.87897 -0.184447 0
M  V30 3790 O 351.31 1.63192 0.816984 0
M  V30 3791 C 351.361 2.56779 -2.54454 0
M  V30 3792 O 351.082 2.08476 -3.85317 0
M  V30 3793 C 352.583 3.49427 -2.72792 0
M  V30 3794 H 349.803 0.420325 -0.523037 0
M  V30 3795 H 352.347 0.718383 -1.91467 0
M  V30 3796 H 350.502 3.1845 -2.20609 0
M  V30 3797 H 350.916 2.86097 -4.396 0
M  V30 3798 H 352.39 4.29619 -3.466 0
M  V30 3799 H 352.867 4.00876 -1.79429 0
M  V30 3800 H 353.473 2.93598 -3.07702 0
M  V30 3801 N 351.788 1.33704 0.83433 0
M  V30 3802 C 353.037 1.24763 1.58484 0
M  V30 3803 C 353.35 -0.183775 1.94735 0
M  V30 3804 O 354.556 -0.395234 2.68608 0
M  V30 3805 C 353.012 2.18638 2.85876 0
M  V30 3806 C 352.62 3.66974 2.56971 0
M  V30 3807 C 354.364 2.18581 3.63899 0
M  V30 3808 C 352.271 4.5275 3.80488 0
M  V30 3809 H 351.201 0.463425 0.594772 0
M  V30 3810 H 353.852 1.58797 0.919551 0
M  V30 3811 H 352.234 1.77542 3.5397 0
M  V30 3812 H 353.408 4.16538 1.9706 0
M  V30 3813 H 351.723 3.69366 1.92244 0
M  V30 3814 H 354.32 2.79894 4.55591 0
M  V30 3815 H 354.663 1.18207 3.99165 0
M  V30 3816 H 355.196 2.58062 3.02735 0
M  V30 3817 H 351.935 5.54017 3.5035 0
M  V30 3818 H 351.455 4.07927 4.39722 0
M  V30 3819 H 353.134 4.66784 4.4802 0
M  V30 3820 N 353.266 -1.05314 1.17247 0
M  V30 3821 C 354.496 -1.81707 0.983166 0
M  V30 3822 C 354.904 -1.83222 -0.471822 0
M  V30 3823 O 354.247 -1.25721 -1.3394 0
M  V30 3824 C 354.309 -3.29134 1.44606 0
M  V30 3825 C 353.973 -3.51304 2.92292 0
M  V30 3826 C 354.97 -3.4353 3.90235 0
M  V30 3827 C 352.655 -3.78306 3.30439 0
M  V30 3828 C 354.649 -3.62442 5.24323 0
M  V30 3829 C 352.336 -3.96866 4.64694 0
M  V30 3830 C 353.334 -3.88933 5.61445 0
M  V30 3831 O 353.022 -4.06976 6.93272 0
M  V30 3832 H 352.754 -0.579476 0.348114 0
M  V30 3833 H 355.308 -1.33705 1.55924 0
M  V30 3834 H 353.538 -3.78046 0.813537 0
M  V30 3835 H 355.227 -3.87049 1.22262 0
M  V30 3836 H 355.993 -3.22648 3.62109 0
M  V30 3837 H 351.872 -3.83585 2.55702 0
M  V30 3838 H 355.416 -3.56165 5.99827 0
M  V30 3839 H 351.313 -4.1724 4.92525 0
M  V30 3840 H 352.081 -4.24209 6.99992 0
M  V30 3841 N 354.744 -0.972509 -1.24016 0
M  V30 3842 C 355.99 -0.637978 -1.92504 0
M  V30 3843 C 356.323 0.825383 -1.75787 0
M  V30 3844 O 355.598 1.59442 -1.11393 0
M  V30 3845 C 355.881 -1.01942 -3.45369 0
M  V30 3846 C 355.734 -2.53983 -3.71231 0
M  V30 3847 C 357.053 -0.55751 -4.36555 0
M  V30 3848 H 354.172 -0.233248 -0.699117 0
M  V30 3849 H 356.814 -1.21238 -1.46292 0
M  V30 3850 H 354.964 -0.530656 -3.84859 0
M  V30 3851 H 356.636 -3.10374 -3.41271 0
M  V30 3852 H 354.879 -2.96968 -3.16216 0
M  V30 3853 H 355.55 -2.75723 -4.78206 0
M  V30 3854 H 358.026 -0.977029 -4.04467 0
M  V30 3855 H 356.902 -0.85292 -5.42233 0
M  V30 3856 H 357.163 0.542328 -4.38761 0
M  V30 3857 N 356.222 1.38976 -0.743202 0
M  V30 3858 C 357.152 2.33171 -0.123873 0
M  V30 3859 C 358.133 1.54336 0.71516 0
M  V30 3860 O 359.318 1.82696 0.658467 0
M  V30 3861 C 356.448 3.38474 0.777978 0
M  V30 3862 C 355.402 4.27979 0.0424758 0
M  V30 3863 C 354.728 5.2405 1.06189 0
M  V30 3864 C 356.028 5.10155 -1.1198 0
M  V30 3865 H 357.722 2.85213 -0.910709 0
M  V30 3866 H 355.268 1.37133 -0.439388 0
M  V30 3867 H 357.221 4.03328 1.22084 0
M  V30 3868 H 355.945 2.84891 1.59702 0
M  V30 3869 H 354.604 3.64616 -0.380853 0
M  V30 3870 H 354.252 4.66758 1.87472 0
M  V30 3871 H 353.952 5.84785 0.574485 0
M  V30 3872 H 355.476 5.9178 1.50428 0
M  V30 3873 H 356.89 5.68307 -0.75499 0
M  V30 3874 H 355.287 5.80073 -1.53738 0
M  V30 3875 H 356.357 4.44504 -1.93764 0
M  V30 3876 N 357.7 0.491464 1.49741 0
M  V30 3877 C 359.116 0.146835 1.58923 0
M  V30 3878 C 359.316 -1.34804 1.49767 0
M  V30 3879 O 358.372 -2.12317 1.36667 0
M  V30 3880 C 359.685 0.715157 2.92072 0
M  V30 3881 C 361.233 0.680407 3.05515 0
M  V30 3882 C 361.708 1.22663 4.41269 0
M  V30 3883 N 363.199 1.18691 4.47735 0
M  V30 3884 C 363.934 1.57984 5.51207 0
M  V30 3885 N 363.43 2.04824 6.6183 0
M  V30 3886 N 365.223 1.49459 5.41866 0
M  V30 3887 H 357.374 1.46347 1.53936 0
M  V30 3888 H 359.637 0.606453 0.728642 0
M  V30 3889 H 359.343 1.76317 3.04311 0
M  V30 3890 H 359.217 0.17018 3.76816 0
M  V30 3891 H 361.604 -0.358743 2.92911 0
M  V30 3892 H 361.685 1.26242 2.22478 0
M  V30 3893 H 361.329 2.26451 4.54623 0
M  V30 3894 H 361.259 0.620637 5.2293 0
M  V30 3895 H 363.75 0.843605 3.68364 0
M  V30 3896 H 364.063 2.32901 7.3687 0
M  V30 3897 H 362.408 2.08791 6.62896 0
M  V30 3898 H 365.599 1.12692 4.54333 0
M  V30 3899 H 365.772 1.80406 6.22381 0
M  V30 3900 N 359.178 -1.55987 0.224894 0
M  V30 3901 C 360.594 -1.59066 -0.130426 0
M  V30 3902 C 360.794 -1.24176 -1.5869 0
M  V30 3903 O 359.85 -0.978592 -2.32766 0
M  V30 3904 C 361.163 -3.00042 0.198883 0
M  V30 3905 C 362.711 -3.1268 0.141391 0
M  V30 3906 C 363.186 -4.55839 0.444422 0
M  V30 3907 N 364.677 -4.6152 0.394115 0
M  V30 3908 C 365.412 -5.70231 0.602038 0
M  V30 3909 N 364.908 -6.87291 0.871914 0
M  V30 3910 N 366.701 -5.59555 0.534245 0
M  V30 3911 H 358.852 -1.76941 1.17497 0
M  V30 3912 H 361.115 -0.822604 0.471197 0
M  V30 3913 H 360.821 -3.30234 1.2099 0
M  V30 3914 H 360.695 -3.74075 -0.484535 0
M  V30 3915 H 363.082 -2.82283 -0.860265 0
M  V30 3916 H 363.163 -2.40969 0.858335 0
M  V30 3917 H 362.807 -4.86954 1.44353 0
M  V30 3918 H 362.737 -5.2578 -0.293752 0
M  V30 3919 H 365.228 -3.77405 0.193356 0
M  V30 3920 H 365.541 -7.66058 1.01858 0
M  V30 3921 H 363.886 -6.89028 0.909145 0
M  V30 3922 H 367.077 -4.6698 0.323612 0
M  V30 3923 H 367.25 -6.44211 0.699693 0
M  V30 3924 N 360.656 0.0484629 -1.57525 0
M  V30 3925 C 361.588 1.08222 -2.02041 0
M  V30 3926 C 362.601 1.33621 -0.930012 0
M  V30 3927 O 363.79 1.3145 -1.20761 0
M  V30 3928 C 360.89 2.42818 -2.36416 0
M  V30 3929 C 360.063 2.37049 -3.67596 0
M  V30 3930 C 359.122 3.53937 -3.89378 0
M  V30 3931 O 358.148 3.34308 -4.60681 0
M  V30 3932 N 359.35 4.75126 -3.3352 0
M  V30 3933 H 362.115 0.702946 -2.9134 0
M  V30 3934 H 359.676 0.236745 -1.6016 0
M  V30 3935 H 361.668 3.197 -2.48141 0
M  V30 3936 H 360.238 2.72661 -1.52888 0
M  V30 3937 H 359.458 1.45395 -3.66407 0
M  V30 3938 H 360.746 2.30318 -4.53686 0
M  V30 3939 H 360.144 4.93976 -2.75688 0
M  V30 3940 H 358.701 5.49439 -3.50656 0
M  V30 3941 N 362.134 1.5431 0.320358 0
M  V30 3942 C 363.362 1.76636 1.07738 0
M  V30 3943 C 363.777 0.51649 1.81598 0
M  V30 3944 O 363.134 -0.512942 1.75143 0
M  V30 3945 C 363.185 2.96158 2.07299 0
M  V30 3946 O 362.906 4.16313 1.36438 0
M  V30 3947 C 364.407 3.3072 2.95193 0
M  V30 3948 H 361.627 0.589597 0.320339 0
M  V30 3949 H 364.171 2.01207 0.36551 0
M  V30 3950 H 362.326 2.73851 2.74016 0
M  V30 3951 H 362.74 4.83565 2.03138 0
M  V30 3952 H 364.214 4.17643 3.60941 0
M  V30 3953 H 364.691 2.48026 3.62463 0
M  V30 3954 H 365.297 3.55117 2.34034 0
M  V30 3955 N 363.613 -0.582584 1.46437 0
M  V30 3956 C 364.543 -1.70187 1.59871 0
M  V30 3957 C 365.524 -1.64066 0.449042 0
M  V30 3958 O 366.709 -1.82081 0.6753 0
M  V30 3959 C 363.839 -3.08827 1.58881 0
M  V30 3960 C 362.793 -3.29779 2.72819 0
M  V30 3961 C 362.119 -4.68947 2.5689 0
M  V30 3962 C 363.419 -3.17601 4.1464 0
M  V30 3963 H 365.113 -1.592 2.53566 0
M  V30 3964 H 362.659 -0.764472 1.22032 0
M  V30 3965 H 364.612 -3.86951 1.66873 0
M  V30 3966 H 363.336 -3.20713 0.617306 0
M  V30 3967 H 361.995 -2.54054 2.64296 0
M  V30 3968 H 361.643 -4.77599 1.57823 0
M  V30 3969 H 361.343 -4.83919 3.33312 0
M  V30 3970 H 362.867 -5.4924 2.66773 0
M  V30 3971 H 364.281 -3.8557 4.24274 0
M  V30 3972 H 362.678 -3.44094 4.9165 0
M  V30 3973 H 363.748 -2.14681 4.34788 0
M  V30 3974 N 365.091 -1.34144 -0.827227 0
M  V30 3975 C 366.024 -1.19707 -1.94282 0
M  V30 3976 C 367.002 -0.0897256 -1.62352 0
M  V30 3977 O 368.186 -0.254095 -1.8678 0
M  V30 3978 C 365.313 -0.838646 -3.28153 0
M  V30 3979 C 364.359 -1.95514 -3.79047 0
M  V30 3980 S 365.192 -3.56793 -3.99323 0
M  V30 3981 C 366.348 -3.22983 -5.36127 0
M  V30 3982 H 366.581 -2.1414 -2.06231 0
M  V30 3983 H 364.114 -1.19121 -0.982321 0
M  V30 3984 H 366.072 -0.638637 -4.05502 0
M  V30 3985 H 364.733 0.0872776 -3.13979 0
M  V30 3986 H 363.926 -1.658 -4.75948 0
M  V30 3987 H 363.528 -2.11241 -3.08631 0
M  V30 3988 H 365.82 -2.74531 -6.19386 0
M  V30 3989 H 366.763 -4.19008 -5.70822 0
M  V30 3990 H 367.171 -2.59276 -5.01434 0
M  V30 3991 N 366.569 1.04691 -1.17803 0
M  V30 3992 C 367.499 2.14494 -0.92275 0
M  V30 3993 C 368.48 1.69546 0.137179 0
M  V30 3994 O 369.665 1.94195 -0.0141108 0
M  V30 3995 C 366.795 3.44491 -0.440803 0
M  V30 3996 C 365.749 4.03031 -1.4405 0
M  V30 3997 C 365.075 5.28432 -0.81631 0
M  V30 3998 C 366.375 4.39932 -2.81527 0
M  V30 3999 H 368.069 2.36107 -1.84103 0
M  V30 4000 H 365.615 1.1347 -0.886599 0
M  V30 4001 H 367.568 4.2066 -0.249602 0
M  V30 4002 H 366.292 3.22546 0.513025 0
M  V30 4003 H 364.951 3.28937 -1.61853 0
M  V30 4004 H 364.599 5.02792 0.144511 0
M  V30 4005 H 364.299 5.68559 -1.48371 0
M  V30 4006 H 365.823 6.07284 -0.635496 0
M  V30 4007 H 367.237 5.07113 -2.67412 0
M  V30 4008 H 365.634 4.9109 -3.44892 0
M  V30 4009 H 366.704 3.50045 -3.35554 0
M  V30 4010 N 368.047 0.979072 1.23499 0
M  V30 4011 C 368.977 0.537606 2.27227 0
M  V30 4012 C 369.958 -0.428539 1.64613 0
M  V30 4013 O 371.143 -0.322191 1.91509 0
M  V30 4014 C 368.273 -0.162052 3.46922 0
M  V30 4015 C 367.227 0.721242 4.21879 0
M  V30 4016 C 366.553 -0.110555 5.34586 0
M  V30 4017 C 367.853 2.01141 4.82016 0
M  V30 4018 H 369.547 1.40462 2.64406 0
M  V30 4019 H 367.093 0.67684 1.27102 0
M  V30 4020 H 369.046 -0.482192 4.18632 0
M  V30 4021 H 367.77 -1.06351 3.08799 0
M  V30 4022 H 366.429 1.02482 3.51984 0
M  V30 4023 H 366.077 -1.0125 4.92704 0
M  V30 4024 H 365.777 0.477325 5.85658 0
M  V30 4025 H 367.301 -0.425107 6.09118 0
M  V30 4026 H 368.715 1.75612 5.45741 0
M  V30 4027 H 367.112 2.54695 5.43369 0
M  V30 4028 H 368.182 2.69909 4.02836 0
M  V30 4029 N 369.525 -1.3858 0.750561 0
M  V30 4030 C 370.941 -1.53759 0.427824 0
M  V30 4031 C 371.141 -1.71401 -1.05943 0
M  V30 4032 O 370.197 -1.72331 -1.84549 0
M  V30 4033 C 371.51 -2.74642 1.22443 0
M  V30 4034 C 373.058 -2.88489 1.2142 0
M  V30 4035 C 373.533 -4.12329 1.9937 0
M  V30 4036 N 375.024 -4.194 1.96616 0
M  V30 4037 C 375.759 -5.14209 2.53727 0
M  V30 4038 N 375.255 -6.14709 3.19539 0
M  V30 4039 N 377.048 -5.06537 2.43673 0
M  V30 4040 H 369.199 -1.25377 1.71447 0
M  V30 4041 H 371.462 -0.608844 0.726645 0
M  V30 4042 H 371.168 -2.68 2.27747 0
M  V30 4043 H 371.042 -3.67745 0.839273 0
M  V30 4044 H 373.429 -2.94614 0.169232 0
M  V30 4045 H 373.51 -1.96406 1.63885 0
M  V30 4046 H 373.154 -4.06966 3.03877 0
M  V30 4047 H 373.084 -5.03486 1.54302 0
M  V30 4048 H 375.575 -3.47421 1.48684 0
M  V30 4049 H 375.888 -6.8354 3.60545 0
M  V30 4050 H 374.233 -6.1505 3.23633 0
M  V30 4051 H 377.424 -4.26962 1.91889 0
M  V30 4052 H 377.597 -5.80245 2.88479 0
M  V30 4053 N 371.003 -0.499398 -1.49478 0
M  V30 4054 C 372.251 0.0455996 -2.02049 0
M  V30 4055 C 372.572 1.37633 -1.38138 0
M  V30 4056 O 371.842 1.8842 -0.536166 0
M  V30 4057 H 370.422 0.0198416 -0.746736 0
M  V30 4058 H 373.084 -0.656274 -1.83519 0
M  V30 4059 H 372.18 0.176445 -3.11601 0
M  V30 4060 N 372.481 1.55866 -0.233164 0
M  V30 4061 C 373.431 2.17442 0.685774 0
M  V30 4062 C 374.415 1.12617 1.14918 0
M  V30 4063 O 375.607 1.3857 1.10124 0
M  V30 4064 C 372.736 2.86685 1.88856 0
M  V30 4065 C 371.822 3.98749 1.4443 0
M  V30 4066 N 372.213 5.00744 0.713364 0
M  V30 4067 C 370.511 4.11052 1.73068 0
M  V30 4068 C 371.212 5.79673 0.485205 0
M  V30 4069 N 370.188 5.33454 1.04536 0
M  V30 4070 H 373.99 2.93659 0.119022 0
M  V30 4071 H 371.504 1.62362 -0.0348995 0
M  V30 4072 H 373.501 3.29218 2.55776 0
M  V30 4073 H 372.161 2.11967 2.45967 0
M  V30 4074 H 373.172 5.16613 0.364861 0
M  V30 4075 H 369.849 3.47495 2.31416 0
M  V30 4076 H 371.239 6.71829 -0.097365 0
M  V30 4077 N 373.959 -0.0401083 1.57549 0
M  V30 4078 C 375.187 -0.745196 1.93014 0
M  V30 4079 C 375.602 -1.6948 0.831984 0
M  V30 4080 O 374.959 -1.81482 -0.192463 0
M  V30 4081 C 375.01 -1.51176 3.28372 0
M  V30 4082 O 374.731 -0.600284 4.33968 0
M  V30 4083 C 376.232 -2.315 3.78051 0
M  V30 4084 H 373.452 -0.210088 0.637263 0
M  V30 4085 H 375.996 -0.000924689 2.045 0
M  V30 4086 H 374.151 -2.20801 3.18317 0
M  V30 4087 H 374.565 -1.13669 5.12035 0
M  V30 4088 H 376.039 -2.80697 4.75303 0
M  V30 4089 H 376.516 -3.12436 3.08675 0
M  V30 4090 H 377.122 -1.66971 3.91153 0
M  V30 4091 N 375.437 -1.54477 -0.31217 0
M  V30 4092 C 376.347 -1.87695 -1.4074 0
M  V30 4093 C 377.363 -0.769975 -1.56036 0
M  V30 4094 O 378.539 -1.06537 -1.70915 0
M  V30 4095 C 375.604 -2.10755 -2.75287 0
M  V30 4096 C 374.665 -3.34514 -2.69071 0
M  V30 4097 C 373.898 -3.56465 -3.97201 0
M  V30 4098 O 374.121 -2.81637 -4.96021 0
M  V30 4099 O 373.055 -4.49964 -3.9977 0
M  V30 4100 H 376.881 -2.80849 -1.15574 0
M  V30 4101 H 374.466 -1.40526 -0.507228 0
M  V30 4102 H 376.348 -2.27188 -3.54913 0
M  V30 4103 H 375.023 -1.20788 -3.0032 0
M  V30 4104 H 373.93 -3.23456 -1.87955 0
M  V30 4105 H 375.263 -4.24575 -2.48992 0
M  V30 4106 N 376.915 0.57481 -1.46744 0
M  V30 4107 C 377.825 1.711 -1.60505 0
M  V30 4108 C 378.841 1.67008 -0.488307 0
M  V30 4109 O 380.017 1.86774 -0.753495 0
M  V30 4110 C 377.082 3.07608 -1.59932 0
M  V30 4111 C 376.143 3.22904 -2.82898 0
M  V30 4112 C 375.376 4.529 -2.82343 0
M  V30 4113 O 375.599 5.37278 -1.91542 0
M  V30 4114 O 374.533 4.71611 -3.73987 0
M  V30 4115 H 378.359 1.62436 -2.56609 0
M  V30 4116 H 375.944 0.742779 -1.29627 0
M  V30 4117 H 377.826 3.88877 -1.62336 0
M  V30 4118 H 376.501 3.16692 -0.669898 0
M  V30 4119 H 375.408 2.41099 -2.86046 0
M  V30 4120 H 376.741 3.18715 -3.75076 0
M  V30 4121 N 378.394 1.34581 0.820102 0
M  V30 4122 C 379.304 1.28471 1.96297 0
M  V30 4123 C 380.32 0.191902 1.72939 0
M  V30 4124 O 381.496 0.418879 1.96996 0
M  V30 4125 C 378.561 1.04281 3.30645 0
M  V30 4126 C 377.622 2.22745 3.66992 0
M  V30 4127 C 376.855 1.997 4.9493 0
M  V30 4128 O 377.078 0.956656 5.6232 0
M  V30 4129 O 376.012 2.86723 5.2922 0
M  V30 4130 H 379.838 2.24624 2.04396 0
M  V30 4131 H 377.423 1.14816 0.955913 0
M  V30 4132 H 379.305 0.925841 4.11104 0
M  V30 4133 H 377.98 0.111697 3.23507 0
M  V30 4134 H 376.887 2.40003 2.86966 0
M  V30 4135 H 378.22 3.14257 3.78819 0
M  V30 4136 N 379.872 -1.04064 1.18357 0
M  V30 4137 C 380.802 -2.14001 0.934113 0
M  V30 4138 C 381.783 -1.69616 -0.128186 0
M  V30 4139 O 382.968 -1.94185 0.0244093 0
M  V30 4140 C 380.098 -3.44253 0.459066 0
M  V30 4141 C 379.052 -4.02261 1.46185 0
M  V30 4142 C 378.378 -5.27992 0.844322 0
M  V30 4143 C 379.678 -4.38432 2.83856 0
M  V30 4144 H 381.372 -2.35127 1.85352 0
M  V30 4145 H 378.918 -1.12998 0.892604 0
M  V30 4146 H 380.871 -4.20522 0.271907 0
M  V30 4147 H 379.595 -3.22813 -0.495912 0
M  V30 4148 H 378.254 -3.28074 1.63595 0
M  V30 4149 H 377.902 -5.02862 -0.117845 0
M  V30 4150 H 377.602 -5.67765 1.51384 0
M  V30 4151 H 379.126 -6.06938 0.667693 0
M  V30 4152 H 380.54 -5.05688 2.70098 0
M  V30 4153 H 378.937 -4.89254 3.47491 0
M  V30 4154 H 380.007 -3.4826 3.37406 0
M  V30 4155 N 381.35 -0.985608 -1.22978 0
M  V30 4156 C 382.313 -0.535071 -2.22867 0
M  V30 4157 C 383.313 0.378123 -1.56291 0
M  V30 4158 O 384.503 0.171092 -1.73358 0
M  V30 4159 C 381.635 0.222702 -3.40172 0
M  V30 4160 H 382.828 -1.41835 -2.6424 0
M  V30 4161 H 380.381 -0.772042 -1.35901 0
M  V30 4162 H 381.116 1.12229 -3.04262 0
M  V30 4163 H 380.901 -0.43288 -3.89703 0
M  V30 4164 H 382.391 0.526335 -4.1427 0
M  V30 4165 N 382.828 1.3818 -0.7579 0
M  V30 4166 C 383.776 2.32277 -0.122482 0
M  V30 4167 C 384.77 1.54238 0.700505 0
M  V30 4168 O 385.976 1.69737 0.599119 0
M  V30 4169 H 382.351 0.751712 -0.0208143 0
M  V30 4170 H 384.322 2.83469 -0.932099 0
M  V30 4171 C 383.071 3.39447 0.753076 0
M  V30 4172 H 382.394 3.99591 0.129184 0
M  V30 4173 H 383.834 4.07684 1.16489 0
M  V30 4174 C 382.293 2.78375 1.8976 0
M  V30 4175 O 382.823 2.68025 2.99208 0
M  V30 4176 N 381.029 2.36121 1.69397 0
M  V30 4177 H 380.576 2.4474 0.803762 0
M  V30 4178 H 380.534 1.95602 2.46145 0
M  V30 4179 N 384.306 0.507319 1.49211 0
M  V30 4180 C 385.239 -0.314509 2.26022 0
M  V30 4181 C 386.217 -0.964849 1.30879 0
M  V30 4182 O 387.401 -0.993707 1.6018 0
M  V30 4183 C 384.528 -1.44346 3.06402 0
M  V30 4184 C 383.574 -0.90685 4.16748 0
M  V30 4185 S 384.407 0.207392 5.35098 0
M  V30 4186 C 385.563 -0.924573 6.19033 0
M  V30 4187 H 385.796 0.337416 2.95379 0
M  V30 4188 H 383.329 0.292718 1.516 0
M  V30 4189 H 385.287 -2.09029 3.53295 0
M  V30 4190 H 383.948 -2.06702 2.36502 0
M  V30 4191 H 383.141 -1.75309 4.72528 0
M  V30 4192 H 382.743 -0.33712 3.72478 0
M  V30 4193 H 385.035 -1.82839 6.52362 0
M  V30 4194 H 385.978 -0.405248 7.06939 0
M  V30 4195 H 386.386 -1.19476 5.51712 0
M  V30 4196 N 385.784 -1.5574 0.241426 0
M  V30 4197 C 387.009 -2.0366 -0.392111 0
M  V30 4198 C 387.434 -1.11969 -1.51144 0
M  V30 4199 O 386.792 -0.111594 -1.80956 0
M  V30 4200 C 386.84 -3.49638 -0.882371 0
M  V30 4201 O 385.944 -3.6108 -1.99235 0
M  V30 4202 H 385.285 -0.658379 -0.0862122 0
M  V30 4203 H 387.815 -2.01302 0.365881 0
M  V30 4204 H 387.825 -3.90351 -1.18702 0
M  V30 4205 H 386.5 -4.15852 -0.0632361 0
M  V30 4206 H 385.077 -3.32262 -1.69282 0
M  V30 4207 N 387.262 0.0317525 -1.57568 0
M  V30 4208 C 388.192 1.03274 -2.0942 0
M  V30 4209 C 389.173 1.3788 -0.996143 0
M  V30 4210 O 390.358 1.46811 -1.27122 0
M  V30 4211 C 387.488 2.33448 -2.57137 0
M  V30 4212 C 386.442 2.13091 -3.71182 0
M  V30 4213 C 385.768 3.49001 -4.05095 0
M  V30 4214 C 387.068 1.51928 -4.99715 0
M  V30 4215 H 388.762 0.60112 -2.93303 0
M  V30 4216 H 386.308 0.287705 -1.41097 0
M  V30 4217 H 388.261 3.03802 -2.92032 0
M  V30 4218 H 386.985 2.78665 -1.70333 0
M  V30 4219 H 385.644 1.45171 -3.36632 0
M  V30 4220 H 385.292 3.91862 -3.15362 0
M  V30 4221 H 384.992 3.36207 -4.81911 0
M  V30 4222 H 386.516 4.20721 -4.42522 0
M  V30 4223 H 387.93 2.12196 -5.32584 0
M  V30 4224 H 386.327 1.49716 -5.81124 0
M  V30 4225 H 387.397 0.484811 -4.8247 0
M  V30 4226 N 388.74 1.54641 0.303973 0
M  V30 4227 C 389.688 1.86137 1.39484 0
M  V30 4228 C 390.682 0.734854 1.52631 0
M  V30 4229 O 391.888 0.918803 1.54784 0
M  V30 4230 H 388.263 0.590324 0.465856 0
M  V30 4231 H 390.234 2.77324 1.10154 0
M  V30 4232 C 388.983 2.12274 2.75382 0
M  V30 4233 H 388.306 2.98429 2.66046 0
M  V30 4234 H 389.746 2.38254 3.5073 0
M  V30 4235 C 388.205 0.920365 3.24085 0
M  V30 4236 O 388.735 0.139377 4.01458 0
M  V30 4237 N 386.941 0.726566 2.81371 0
M  V30 4238 H 386.488 1.36332 2.18567 0
M  V30 4239 H 386.446 -0.0763799 3.14307 0
M  V30 4240 N 390.218 -0.567019 1.47046 0
M  V30 4241 C 391.465 -1.32462 1.53167 0
M  V30 4242 C 391.793 -1.93571 0.189841 0
M  V30 4243 O 391.048 -1.77865 -0.816243 0
M  V30 4244 C 391.347 -2.4623 2.59047 0
M  V30 4245 C 391.013 -2.03014 4.02612 0
M  V30 4246 C 389.675 -1.90944 4.41694 0
M  V30 4247 C 392.027 -1.69895 4.92732 0
M  V30 4248 C 389.355 -1.44035 5.68745 0
M  V30 4249 C 391.707 -1.2446 6.20236 0
M  V30 4250 C 390.371 -1.10979 6.5821 0
M  V30 4251 H 389.641 -0.484713 0.560477 0
M  V30 4252 H 392.288 -0.636888 1.80599 0
M  V30 4253 H 390.593 -3.20517 2.25335 0
M  V30 4254 H 392.29 -3.04427 2.61008 0
M  V30 4255 H 388.88 -2.13348 3.71726 0
M  V30 4256 H 393.064 -1.78098 4.63244 0
M  V30 4257 H 388.32 -1.32254 5.96925 0
M  V30 4258 H 392.494 -0.978924 6.89485 0
M  V30 4259 H 390.121 -0.744078 7.5655 0
M  V30 4260 N 391.696 -1.35014 -0.812953 0
M  V30 4261 C 392.626 -1.30069 -1.93919 0
M  V30 4262 C 393.607 -0.176275 -1.69184 0
M  V30 4263 O 394.792 -0.370227 -1.90638 0
M  V30 4264 C 391.922 -1.06547 -3.30552 0
M  V30 4265 C 390.876 -2.15561 -3.69753 0
M  V30 4266 C 390.202 -1.77214 -5.04479 0
M  V30 4267 C 391.502 -3.57476 -3.808 0
M  V30 4268 H 393.196 -2.24303 -1.98314 0
M  V30 4269 H 390.742 -1.07977 -0.952736 0
M  V30 4270 H 392.695 -1.01729 -4.08937 0
M  V30 4271 H 391.419 -0.0875719 -3.26483 0
M  V30 4272 H 390.078 -2.19466 -2.9365 0
M  V30 4273 H 389.726 -0.780589 -4.96906 0
M  V30 4274 H 389.426 -2.50184 -5.31678 0
M  V30 4275 H 390.95 -1.7391 -5.8531 0
M  V30 4276 H 392.364 -3.55929 -4.4943 0
M  V30 4277 H 390.761 -4.29152 -4.19462 0
M  V30 4278 H 391.831 -3.94091 -2.82525 0
M  V30 4279 N 393.175 1.03435 -1.18907 0
M  V30 4280 C 394.123 2.13703 -0.918353 0
M  V30 4281 C 395.117 1.68947 0.123767 0
M  V30 4282 O 396.323 1.79983 -0.0249701 0
M  V30 4283 H 392.698 0.698112 -0.279542 0
M  V30 4284 H 394.669 2.33731 -1.85506 0
M  V30 4285 C 393.418 3.44542 -0.467532 0
M  V30 4286 H 392.741 3.79394 -1.26095 0
M  V30 4287 H 394.181 4.22812 -0.317164 0
M  V30 4288 C 392.64 3.26829 0.817588 0
M  V30 4289 O 393.17 3.54975 1.88031 0
M  V30 4290 N 391.376 2.80139 0.772677 0
M  V30 4291 H 390.923 2.57434 -0.0923883 0
M  V30 4292 H 390.881 2.68668 1.63294 0
M  V30 4293 N 394.653 0.992116 1.22453 0
M  V30 4294 C 395.893 0.675727 1.92907 0
M  V30 4295 C 396.257 -0.777762 1.75542 0
M  V30 4296 O 397.458 -1.20553 2.40251 0
M  V30 4297 C 395.729 1.0696 3.4102 0
M  V30 4298 S 397.288 0.871456 4.30059 0
M  V30 4299 H 394.106 0.247089 0.666684 0
M  V30 4300 H 396.708 1.27423 1.48269 0
M  V30 4301 H 395.412 2.12383 3.51172 0
M  V30 4302 H 394.943 0.462858 3.90668 0
M  V30 4303 H 396.958 -0.238436 4.95627 0
M  V30 4304 N 396.131 -1.37776 0.765217 0
M  V30 4305 C 397.371 -2.01691 0.331669 0
M  V30 4306 C 397.735 -1.59432 -1.06983 0
M  V30 4307 O 398.936 -2.15761 -1.60314 0
M  V30 4308 C 397.207 -3.54385 0.463261 0
M  V30 4309 S 398.766 -4.38652 0.114011 0
M  V30 4310 H 395.584 -0.699387 0.127979 0
M  V30 4311 H 398.186 -1.68084 0.998396 0
M  V30 4312 H 396.89 -3.82629 1.48401 0
M  V30 4313 H 396.421 -3.92783 -0.220246 0
M  V30 4314 H 398.436 -4.84021 -1.09261 0
M  V30 4315 N 397.609 -0.515225 -1.4894 0
M  V30 4316 C 398.849 0.0223983 -2.04388 0
M  V30 4317 C 399.213 1.32961 -1.38511 0
M  V30 4318 O 400.414 1.95236 -1.8476 0
M  V30 4319 C 398.685 0.157056 -3.57055 0
M  V30 4320 S 400.244 0.646875 -4.34006 0
M  V30 4321 H 397.062 -0.00500662 -0.710982 0
M  V30 4322 H 399.664 -0.69243 -1.82827 0
M  V30 4323 H 398.368 -0.799412 -4.02539 0
M  V30 4324 H 397.899 0.896704 -3.83044 0
M  V30 4325 H 399.914 1.91381 -4.57808 0
M  V30 4326 N 399.087 1.5561 -0.249682 0
M  V30 4327 C 400.034 2.21496 0.648694 0
M  V30 4328 C 401.004 1.17977 1.16921 0
M  V30 4329 O 402.189 1.46434 1.22318 0
M  V30 4330 C 399.329 2.92039 1.83868 0
M  V30 4331 C 398.442 4.10219 1.35442 0
M  V30 4332 C 397.577 4.6847 2.50419 0
M  V30 4333 C 396.616 5.78893 1.98869 0
M  V30 4334 N 395.753 6.31315 3.07223 0
M  V30 4335 H 400.593 2.97892 0.0801582 0
M  V30 4336 H 398.13 1.47074 0.0278031 0
M  V30 4337 H 400.088 3.31138 2.53778 0
M  V30 4338 H 398.718 2.18111 2.37965 0
M  V30 4339 H 397.77 3.76413 0.54928 0
M  V30 4340 H 399.082 4.89927 0.936649 0
M  V30 4341 H 398.236 5.10158 3.28366 0
M  V30 4342 H 396.975 3.87984 2.95499 0
M  V30 4343 H 395.98 5.3668 1.19393 0
M  V30 4344 H 397.205 6.61232 1.54755 0
M  V30 4345 H 395.151 5.53733 3.51732 0
M  V30 4346 H 395.068 7.06224 2.69784 0
M  V30 4347 H 396.336 6.77662 3.8522 0
M  V30 4348 N 400.565 -0.0233959 1.57583 0
M  V30 4349 C 401.512 -1.02224 2.06927 0
M  V30 4350 C 402.482 -1.35575 0.959617 0
M  V30 4351 O 403.667 -1.45815 1.23055 0
M  V30 4352 C 400.807 -2.31636 2.5581 0
M  V30 4353 C 399.92 -2.04394 3.80588 0
M  V30 4354 C 399.055 -3.27717 4.18061 0
M  V30 4355 C 398.094 -2.96056 5.3574 0
M  V30 4356 N 397.231 -4.11847 5.68618 0
M  V30 4357 H 402.071 -0.594504 2.9201 0
M  V30 4358 H 399.608 -0.281921 1.44373 0
M  V30 4359 H 401.566 -3.07258 2.82221 0
M  V30 4360 H 400.196 -2.72122 1.73636 0
M  V30 4361 H 399.248 -1.19244 3.61227 0
M  V30 4362 H 400.56 -1.77042 4.66323 0
M  V30 4363 H 399.714 -4.11702 4.4563 0
M  V30 4364 H 398.453 -3.58188 3.30988 0
M  V30 4365 H 397.458 -2.10474 5.07918 0
M  V30 4366 H 398.683 -2.66857 6.24471 0
M  V30 4367 H 396.629 -4.42258 4.84504 0
M  V30 4368 H 396.546 -3.87938 6.48876 0
M  V30 4369 H 397.814 -4.96689 6.00766 0
M  V30 4370 N 402.043 -1.548 -0.295768 0
M  V30 4371 C 402.991 -1.86874 -1.38495 0
M  V30 4372 C 403.985 -0.742938 -1.52239 0
M  V30 4373 O 405.191 -0.926999 -1.54294 0
M  V30 4374 H 401.566 -0.592786 -0.462719 0
M  V30 4375 H 403.537 -2.77904 -1.08682 0
M  V30 4376 C 402.286 -2.13732 -2.74252 0
M  V30 4377 H 401.609 -2.99835 -2.64459 0
M  V30 4378 H 403.049 -2.4011 -3.49461 0
M  V30 4379 C 401.508 -0.937539 -3.23592 0
M  V30 4380 O 402.038 -0.160665 -4.01379 0
M  V30 4381 N 400.244 -0.741478 -2.80981 0
M  V30 4382 H 399.791 -1.37489 -2.1784 0
M  V30 4383 H 399.749 0.0597103 -3.14343 0
M  V30 4384 N 403.521 0.559213 -1.47345 0
M  V30 4385 C 404.769 1.31388 -1.53563 0
M  V30 4386 C 405.09 1.93985 -0.198678 0
M  V30 4387 O 404.36 1.79825 0.777167 0
M  V30 4388 H 402.94 0.487901 -0.565652 0
M  V30 4389 H 405.602 0.65315 -1.8363 0
M  V30 4390 H 404.698 2.10844 -2.30111 0
M  V30 4391 N 404.999 1.35443 0.805782 0
M  V30 4392 C 406.247 1.28507 1.55982 0
M  V30 4393 C 406.568 -0.140046 1.94496 0
M  V30 4394 O 405.838 -1.07666 1.63661 0
M  V30 4395 H 404.418 0.472676 0.578434 0
M  V30 4396 H 407.08 1.69555 0.961098 0
M  V30 4397 H 406.176 1.90148 2.47488 0
M  V30 4398 N 406.477 -1.02803 1.19454 0
M  V30 4399 C 407.387 -2.14575 0.948408 0
M  V30 4400 C 408.403 -1.73757 -0.091871 0
M  V30 4401 O 409.579 -2.01185 0.0929654 0
M  V30 4402 C 406.644 -3.43202 0.491265 0
M  V30 4403 C 405.705 -3.98328 1.60103 0
M  V30 4404 C 404.938 -5.20816 1.16561 0
M  V30 4405 O 405.161 -5.70392 0.0295238 0
M  V30 4406 O 404.095 -5.68801 1.96849 0
M  V30 4407 H 407.921 -2.38202 1.88397 0
M  V30 4408 H 405.506 -1.12989 0.977433 0
M  V30 4409 H 407.388 -4.20687 0.245015 0
M  V30 4410 H 406.063 -3.21018 -0.415851 0
M  V30 4411 H 404.97 -3.22174 1.90144 0
M  V30 4412 H 406.303 -4.24879 2.48473 0
M  V30 4413 N 407.956 -0.998596 -1.21925 0
M  V30 4414 C 408.866 -0.562736 -2.27751 0
M  V30 4415 C 409.882 0.391203 -1.69545 0
M  V30 4416 O 411.058 0.256625 -1.99758 0
M  V30 4417 C 408.123 0.11012 -3.46525 0
M  V30 4418 C 407.184 -0.887495 -4.20026 0
M  V30 4419 C 406.417 -0.246654 -5.3313 0
M  V30 4420 O 406.64 0.958088 -5.62296 0
M  V30 4421 O 405.574 -0.954374 -5.94286 0
M  V30 4422 H 409.4 -1.44329 -2.67213 0
M  V30 4423 H 406.985 -0.767135 -1.28201 0
M  V30 4424 H 408.867 0.486756 -4.18579 0
M  V30 4425 H 407.542 0.965154 -3.08976 0
M  V30 4426 H 406.449 -1.31517 -3.5022 0
M  V30 4427 H 407.782 -1.71191 -4.6147 0
M  V30 4428 N 409.434 1.37368 -0.772513 0
M  V30 4429 C 410.344 2.34053 -0.160081 0
M  V30 4430 C 411.36 1.60216 0.678728 0
M  V30 4431 O 412.536 1.92303 0.59847 0
M  V30 4432 C 409.601 3.3939 0.708182 0
M  V30 4433 C 408.662 4.29048 -0.147172 0
M  V30 4434 C 407.895 5.29354 0.679744 0
M  V30 4435 O 408.118 5.3723 1.91678 0
M  V30 4436 O 407.052 6.01835 0.0885444 0
M  V30 4437 H 410.878 2.88159 -0.959053 0
M  V30 4438 H 408.463 1.39543 -0.533685 0
M  V30 4439 H 410.345 4.03839 1.20384 0
M  V30 4440 H 409.02 2.8761 1.48533 0
M  V30 4441 H 407.927 3.67697 -0.689205 0
M  V30 4442 H 409.26 4.84134 -0.887423 0
M  V30 4443 N 410.912 0.523116 1.48665 0
M  V30 4444 C 411.86 -0.256859 2.31177 0
M  V30 4445 C 412.854 -0.94199 1.40794 0
M  V30 4446 O 414.06 -0.867157 1.57735 0
M  V30 4447 H 410.435 -0.1017 0.745091 0
M  V30 4448 H 412.406 0.458739 2.94853 0
M  V30 4449 C 411.155 -1.29503 3.22683 0
M  V30 4450 H 410.478 -0.777248 3.92172 0
M  V30 4451 H 411.918 -1.81233 3.83315 0
M  V30 4452 C 410.377 -2.32501 2.43813 0
M  V30 4453 O 410.907 -3.3881 2.15803 0
M  V30 4454 N 409.113 -2.05538 2.05432 0
M  V30 4455 H 408.66 -1.19104 2.28412 0
M  V30 4456 H 408.618 -2.74676 1.52973 0
M  V30 4457 N 412.39 -1.55475 0.257931 0
M  V30 4458 C 413.353 -2.20551 -0.623706 0
M  V30 4459 C 414.353 -1.17809 -1.09443 0
M  V30 4460 O 415.543 -1.42823 -0.997362 0
M  V30 4461 C 412.675 -2.85784 -1.8585 0
M  V30 4462 H 413.868 -2.99848 -0.0557743 0
M  V30 4463 H 411.421 -1.56298 0.0084422 0
M  V30 4464 H 412.156 -2.10453 -2.46739 0
M  V30 4465 H 411.941 -3.61057 -1.52907 0
M  V30 4466 H 413.431 -3.35553 -2.48584 0
M  V30 4467 N 413.868 0.0150385 -1.57593 0
M  V30 4468 C 415.279 0.559832 -1.78109 0
M  V30 4469 C 415.63 1.74814 -0.890756 0
M  V30 4470 O 414.755 2.16216 -0.0892482 0
M  V30 4471 C 415.35 1.02238 -3.23006 0
M  V30 4472 C 413.909 1.51258 -3.44671 0
M  V30 4473 C 413.056 0.456955 -2.73509 0
M  V30 4474 H 416.007 -0.211169 -1.57289 0
M  V30 4475 H 416.028 1.88912 -3.30292 0
M  V30 4476 H 415.54 0.157302 -3.87781 0
M  V30 4477 H 413.641 2.39905 -2.8509 0
M  V30 4478 H 413.754 1.55042 -4.5332 0
M  V30 4479 H 412.118 0.915196 -2.37689 0
M  V30 4480 H 412.901 -0.398896 -3.40975 0
M  V30 4481 N 415.346 1.54954 0.287554 0
M  V30 4482 C 416.294 1.87606 1.37502 0
M  V30 4483 C 417.288 0.751001 1.51843 0
M  V30 4484 O 418.494 0.935169 1.53801 0
M  V30 4485 H 414.869 0.595231 0.459569 0
M  V30 4486 H 416.84 2.78477 1.07206 0
M  V30 4487 C 415.589 2.15183 2.73115 0
M  V30 4488 H 414.912 3.01234 2.62866 0
M  V30 4489 H 416.352 2.4196 3.48183 0
M  V30 4490 C 414.811 0.954686 3.2309 0
M  V30 4491 O 415.341 0.181949 4.01288 0
M  V30 4492 N 413.547 0.756368 2.80584 0
M  V30 4493 H 413.094 1.38643 2.17108 0
M  V30 4494 H 413.052 -0.0430391 3.14371 0
M  V30 4495 N 416.824 -0.551391 1.4764 0
M  V30 4496 C 418.235 -1.13349 1.48354 0
M  V30 4497 C 418.586 -1.94709 0.241432 0
M  V30 4498 O 417.711 -2.06306 -0.653205 0
M  V30 4499 C 418.306 -2.0623 2.68802 0
M  V30 4500 C 416.865 -2.597 2.72457 0
M  V30 4501 C 416.012 -1.36201 2.41546 0
M  V30 4502 H 418.963 -0.337698 1.55065 0
M  V30 4503 H 418.984 -2.90196 2.46103 0
M  V30 4504 H 418.496 -1.46987 3.59188 0
M  V30 4505 H 416.597 -3.22724 1.86225 0
M  V30 4506 H 416.71 -3.00296 3.73308 0
M  V30 4507 H 415.074 -1.67068 1.9225 0
M  V30 4508 H 415.857 -0.787425 3.34147 0
M  V30 4509 N 418.302 -1.35869 -0.798587 0
M  V30 4510 C 419.25 -1.29491 -1.93222 0
M  V30 4511 C 420.244 -0.18836 -1.6835 0
M  V30 4512 O 421.45 -0.354822 -1.76468 0
M  V30 4513 H 417.825 -0.402901 -0.63496 0
M  V30 4514 H 419.796 -2.25247 -1.9572 0
M  V30 4515 C 418.545 -1.09184 -3.30112 0
M  V30 4516 H 417.868 -1.93574 -3.49813 0
M  V30 4517 H 419.308 -1.08766 -4.09812 0
M  V30 4518 C 417.767 0.203959 -3.36282 0
M  V30 4519 O 418.297 1.19699 -3.83451 0
M  V30 4520 N 416.503 0.245488 -2.89561 0
M  V30 4521 H 416.05 -0.563223 -2.51367 0
M  V30 4522 H 416.008 1.11219 -2.94071 0
M  V30 4523 N 419.78 1.02168 -1.19998 0
M  V30 4524 C 421.191 1.57135 -1.00825 0
M  V30 4525 C 421.542 1.91276 0.436818 0
M  V30 4526 O 420.667 1.71679 1.3174 0
M  V30 4527 C 421.262 2.85514 -1.82393 0
M  V30 4528 C 419.821 3.37027 -1.67601 0
M  V30 4529 C 418.968 2.10388 -1.80644 0
M  V30 4530 H 421.919 0.846106 -1.34264 0
M  V30 4531 H 421.94 3.56711 -1.32429 0
M  V30 4532 H 421.452 2.60634 -2.87561 0
M  V30 4533 H 419.553 3.66878 -0.650485 0
M  V30 4534 H 419.666 4.09572 -2.4857 0
M  V30 4535 H 418.03 2.22601 -1.23778 0
M  V30 4536 H 418.813 1.8794 -2.87286 0
M  V30 4537 N 421.258 1.00505 1.21394 0
M  V30 4538 C 422.535 0.603277 1.86064 0
M  V30 4539 C 422.915 -0.919095 1.90042 0
M  V30 4540 O 422.263 -1.80607 1.39977 0
M  V30 4541 C 422.473 1.23772 3.26315 0
M  V30 4542 C 423.821 1.34586 4.02705 0
M  V30 4543 O 424.845 1.19304 3.35626 0
M  V30 4544 O 423.704 1.59169 5.22807 0
M  V30 4545 H 420.798 0.206634 0.800769 0
M  V30 4546 H 423.344 1.1017 1.29076 0
M  V30 4547 H 422.116 2.27848 3.18121 0
M  V30 4548 H 421.739 0.725648 3.90922 0
M  V30 4549 N 422.737 -1.36956 0.779787 0
M  V30 4550 C 423.669 -2.28833 0.129639 0
M  V30 4551 C 424.682 -1.4902 -0.655511 0
M  V30 4552 O 425.871 -1.71578 -0.492279 0
M  V30 4553 C 422.971 -3.2833 -0.839792 0
M  V30 4554 C 422.144 -4.3727 -0.10675 0
M  V30 4555 C 421.203 -5.16789 -0.990717 0
M  V30 4556 O 420.229 -5.67406 -0.451516 0
M  V30 4557 N 421.431 -5.32294 -2.3161 0
M  V30 4558 H 424.196 -2.85268 0.918803 0
M  V30 4559 H 421.757 -1.49019 0.632841 0
M  V30 4560 H 423.749 -3.78413 -1.43477 0
M  V30 4561 H 422.319 -2.72605 -1.52988 0
M  V30 4562 H 421.539 -3.88478 0.669216 0
M  V30 4563 H 422.827 -5.07229 0.399464 0
M  V30 4564 H 422.225 -4.92768 -2.77843 0
M  V30 4565 H 420.782 -5.85656 -2.86095 0
M  V30 4566 N 424.215 -0.530993 -1.48385 0
M  V30 4567 C 425.162 0.231223 -2.29639 0
M  V30 4568 C 426.132 0.932864 -1.37429 0
M  V30 4569 O 427.317 0.933692 -1.66394 0
M  V30 4570 C 424.457 1.27155 -3.2082 0
M  V30 4571 C 423.57 0.578655 -4.28107 0
M  V30 4572 C 422.705 1.602 -5.06467 0
M  V30 4573 C 421.744 0.892625 -6.05556 0
M  V30 4574 N 420.881 1.86157 -6.76971 0
M  V30 4575 H 425.721 -0.467848 -2.94305 0
M  V30 4576 H 423.258 -0.242556 -1.45086 0
M  V30 4577 H 425.216 1.88703 -3.72085 0
M  V30 4578 H 423.846 1.939 -2.58075 0
M  V30 4579 H 422.898 -0.150782 -3.80101 0
M  V30 4580 H 424.21 0.0217065 -4.98795 0
M  V30 4581 H 423.364 2.29173 -5.61751 0
M  V30 4582 H 422.103 2.19285 -4.35621 0
M  V30 4583 H 421.108 0.188829 -5.49476 0
M  V30 4584 H 422.333 0.307878 -6.78402 0
M  V30 4585 H 420.279 2.44147 -6.08875 0
M  V30 4586 H 420.196 1.35608 -7.43738 0
M  V30 4587 H 421.464 2.54325 -7.36844 0
M  V30 4588 N 425.693 1.55336 -0.266172 0
M  V30 4589 C 427.104 1.85236 0.233315 0
M  V30 4590 C 427.455 1.18816 1.56132 0
M  V30 4591 O 426.58 0.473307 2.11161 0
M  V30 4592 C 427.175 3.36059 0.430113 0
M  V30 4593 C 425.734 3.66116 0.873842 0
M  V30 4594 C 424.881 2.77274 -0.0380016 0
M  V30 4595 H 427.832 1.51004 -0.488214 0
M  V30 4596 H 427.853 3.58681 1.26998 0
M  V30 4597 H 427.365 3.84373 -0.536588 0
M  V30 4598 H 425.466 3.23295 1.85233 0
M  V30 4599 H 425.579 4.73699 0.717358 0
M  V30 4600 H 423.943 2.50198 0.476759 0
M  V30 4601 H 424.726 3.284 -1.00042 0
M  V30 4602 N 427.171 -0.0066808 1.57599 0
M  V30 4603 C 428.587 -0.36267 1.55425 0
M  V30 4604 C 428.787 -1.75209 0.995187 0
M  V30 4605 O 427.843 -2.44616 0.626058 0
M  V30 4606 C 429.156 -0.244017 2.99708 0
M  V30 4607 C 430.704 -0.319451 3.11366 0
M  V30 4608 C 431.179 -0.229998 4.57422 0
M  V30 4609 N 432.67 -0.288105 4.62303 0
M  V30 4610 C 433.405 -0.242127 5.72889 0
M  V30 4611 N 432.901 -0.147133 6.92644 0
M  V30 4612 N 434.694 -0.293502 5.61333 0
M  V30 4613 H 426.845 0.902314 1.92281 0
M  V30 4614 H 429.108 0.34525 0.882896 0
M  V30 4615 H 428.814 0.711678 3.44424 0
M  V30 4616 H 428.688 -1.02877 3.629 0
M  V30 4617 H 431.075 -1.26559 2.66584 0
M  V30 4618 H 431.156 0.495055 2.50964 0
M  V30 4619 H 430.8 0.712566 5.02877 0
M  V30 4620 H 430.73 -1.0629 5.15761 0
M  V30 4621 H 433.221 -0.363126 3.76151 0
M  V30 4622 H 433.534 -0.117763 7.7271 0
M  V30 4623 H 431.879 -0.112857 6.94908 0
M  V30 4624 H 435.07 -0.365864 4.66668 0
M  V30 4625 H 435.243 -0.254204 6.47501 0
M  V30 4626 N 428.649 -1.55105 -0.279332 0
M  V30 4627 C 430.065 -1.46803 -0.626187 0
M  V30 4628 C 430.265 -0.676939 -1.89789 0
M  V30 4629 O 429.321 -0.19326 -2.51759 0
M  V30 4630 C 430.634 -2.90962 -0.759034 0
M  V30 4631 C 432.182 -3.01138 -0.853504 0
M  V30 4632 C 432.657 -4.46539 -1.01818 0
M  V30 4633 N 434.148 -4.50341 -1.08386 0
M  V30 4634 C 434.883 -5.60053 -1.22996 0
M  V30 4635 N 434.379 -6.79645 -1.34366 0
M  V30 4636 N 436.172 -5.47783 -1.26056 0
M  V30 4637 H 428.323 -2.04996 0.555921 0
M  V30 4638 H 430.586 -0.929325 0.187239 0
M  V30 4639 H 430.292 -3.51544 0.104852 0
M  V30 4640 H 430.166 -3.39619 -1.64131 0
M  V30 4641 H 432.553 -2.40658 -1.70786 0
M  V30 4642 H 432.634 -2.55745 0.0532466 0
M  V30 4643 H 432.278 -5.0762 -0.168504 0
M  V30 4644 H 432.208 -4.89583 -1.93948 0
M  V30 4645 H 434.699 -3.64191 -1.00864 0
M  V30 4646 H 435.012 -7.59012 -1.4533 0
M  V30 4647 H 433.357 -6.82469 -1.31382 0
M  V30 4648 H 436.548 -4.53294 -1.168 0
M  V30 4649 H 436.721 -6.33331 -1.37098 0
M  V30 4650 N 430.127 0.543554 -1.4793 0
M  V30 4651 C 431.074 1.64942 -1.6144 0
M  V30 4652 C 432.044 1.59692 -0.456903 0
M  V30 4653 O 433.229 1.78321 -0.678688 0
M  V30 4654 C 430.369 3.03238 -1.64744 0
M  V30 4655 C 429.482 3.18823 -2.91506 0
M  V30 4656 C 428.617 4.47599 -2.86057 0
M  V30 4657 C 427.656 4.56664 -4.07584 0
M  V30 4658 N 426.793 5.76811 -4.00292 0
M  V30 4659 H 431.633 1.52733 -2.55884 0
M  V30 4660 H 429.17 0.7438 -1.2691 0
M  V30 4661 H 431.128 3.83339 -1.64641 0
M  V30 4662 H 429.758 3.1425 -0.738017 0
M  V30 4663 H 428.81 2.32064 -3.01414 0
M  V30 4664 H 430.122 3.21384 -3.81463 0
M  V30 4665 H 429.276 5.35975 -2.84281 0
M  V30 4666 H 428.015 4.47538 -1.93807 0
M  V30 4667 H 427.02 3.66697 -4.09651 0
M  V30 4668 H 428.245 4.58474 -5.00978 0
M  V30 4669 H 426.191 5.77673 -3.10853 0
M  V30 4670 H 426.108 5.80808 -4.8394 0
M  V30 4671 H 427.376 6.67512 -4.02553 0
M  V30 4672 N 431.605 1.3629 0.791371 0
M  V30 4673 C 432.552 1.30458 1.90393 0
M  V30 4674 C 433.522 0.173632 1.6519 0
M  V30 4675 O 434.707 0.35983 1.87376 0
M  V30 4676 C 431.847 1.09777 3.27174 0
M  V30 4677 C 430.96 2.31929 3.64462 0
M  V30 4678 C 430.095 2.04276 4.90352 0
M  V30 4679 C 429.134 3.224 5.20312 0
M  V30 4680 N 428.271 2.94424 6.37385 0
M  V30 4681 H 433.111 2.25589 1.94714 0
M  V30 4682 H 430.648 1.12122 0.952216 0
M  V30 4683 H 432.606 0.958133 4.06049 0
M  V30 4684 H 431.236 0.183014 3.22281 0
M  V30 4685 H 430.288 2.56703 2.80727 0
M  V30 4686 H 431.6 3.20085 3.82553 0
M  V30 4687 H 430.754 1.87231 5.77087 0
M  V30 4688 H 429.493 1.13428 4.74326 0
M  V30 4689 H 428.498 3.40005 4.32061 0
M  V30 4690 H 429.723 4.14071 5.38258 0
M  V30 4691 H 427.669 2.06185 6.22755 0
M  V30 4692 H 427.586 3.76118 6.55798 0
M  V30 4693 H 428.854 2.80953 7.27108 0
M  V30 4694 N 433.083 -1.0153 1.20538 0
M  V30 4695 C 434.03 -2.10098 0.955383 0
M  V30 4696 C 435 -1.65702 -0.114878 0
M  V30 4697 O 436.185 -1.90776 0.0301118 0
M  V30 4698 C 433.325 -3.41236 0.514969 0
M  V30 4699 C 432.438 -3.99102 1.65353 0
M  V30 4700 C 431.573 -5.18306 1.16329 0
M  V30 4701 C 430.612 -5.68258 2.27485 0
M  V30 4702 N 429.749 -6.78722 1.7967 0
M  V30 4703 H 434.589 -2.30818 1.88486 0
M  V30 4704 H 432.126 -1.13189 0.939499 0
M  V30 4705 H 434.084 -4.16504 0.240935 0
M  V30 4706 H 432.714 -3.20585 -0.377512 0
M  V30 4707 H 431.766 -3.20918 2.04245 0
M  V30 4708 H 433.078 -4.32177 2.49047 0
M  V30 4709 H 432.232 -6.00782 0.845302 0
M  V30 4710 H 430.971 -4.86799 0.296254 0
M  V30 4711 H 429.976 -4.84385 2.60099 0
M  V30 4712 H 431.201 -6.01798 3.14667 0
M  V30 4713 H 429.147 -6.49042 0.95295 0
M  V30 4714 H 429.064 -7.10996 2.56944 0
M  V30 4715 H 430.332 -7.64759 1.50875 0
M  V30 4716 N 434.561 -1.01147 -1.20859 0
M  V30 4717 C 435.471 -0.58686 -2.27141 0
M  V30 4718 C 436.487 0.373198 -1.69951 0
M  V30 4719 O 437.663 0.235423 -2.00019 0
M  V30 4720 C 434.728 0.0733602 -3.46622 0
M  V30 4721 C 433.789 -0.931995 -4.19061 0
M  V30 4722 C 433.022 -0.303186 -5.32838 0
M  V30 4723 O 433.245 0.898395 -5.63281 0
M  V30 4724 O 432.179 -1.01735 -5.9324 0
M  V30 4725 H 436.005 -1.47155 -2.65667 0
M  V30 4726 H 433.59 -0.780689 -1.2738 0
M  V30 4727 H 435.472 0.442333 -4.19072 0
M  V30 4728 H 434.147 0.932329 -3.09983 0
M  V30 4729 H 433.054 -1.35224 -3.48805 0
M  V30 4730 H 434.387 -1.76076 -4.59628 0
M  V30 4731 N 436.039 1.36541 -0.78704 0
M  V30 4732 C 436.986 2.30082 -0.181901 0
M  V30 4733 C 437.956 1.5186 0.672896 0
M  V30 4734 O 439.141 1.80374 0.622072 0
M  V30 4735 C 436.281 3.3835 0.679197 0
M  V30 4736 C 435.394 4.31565 -0.193882 0
M  V30 4737 C 434.529 5.26915 0.673364 0
M  V30 4738 C 433.568 6.11769 -0.201315 0
M  V30 4739 N 432.705 6.99315 0.624777 0
M  V30 4740 H 437.545 2.81248 -0.985064 0
M  V30 4741 H 435.082 1.38437 -0.497342 0
M  V30 4742 H 437.04 3.99767 1.19341 0
M  V30 4743 H 435.67 2.8851 1.44781 0
M  V30 4744 H 434.722 3.71323 -0.826044 0
M  V30 4745 H 436.034 4.91191 -0.867937 0
M  V30 4746 H 435.188 5.9361 1.25348 0
M  V30 4747 H 433.927 4.67737 1.38105 0
M  V30 4748 H 432.932 5.44039 -0.793849 0
M  V30 4749 H 434.157 6.73022 -0.906568 0
M  V30 4750 H 432.103 6.42648 1.3168 0
M  V30 4751 H 432.02 7.56 0.00835237 0
M  V30 4752 H 433.288 7.70382 1.18879 0
M  V30 4753 N 437.518 0.538854 1.48102 0
M  V30 4754 C 438.934 0.19732 1.58376 0
M  V30 4755 C 439.134 -1.29971 1.5398 0
M  V30 4756 O 438.19 -2.07861 1.43352 0
M  V30 4757 C 439.503 0.807716 2.89649 0
M  V30 4758 C 441.051 0.77726 3.03196 0
M  V30 4759 C 441.526 1.36639 4.37143 0
M  V30 4760 N 443.017 1.32875 4.43732 0
M  V30 4761 C 443.752 1.7544 5.45901 0
M  V30 4762 N 443.248 2.25776 6.54979 0
M  V30 4763 N 445.041 1.66623 5.36836 0
M  V30 4764 H 437.192 1.5117 1.49202 0
M  V30 4765 H 439.455 0.629327 0.708979 0
M  V30 4766 H 439.161 1.85909 2.98548 0
M  V30 4767 H 439.035 0.289975 3.76084 0
M  V30 4768 H 441.422 -0.265374 2.93904 0
M  V30 4769 H 441.503 1.33256 2.18349 0
M  V30 4770 H 441.147 2.408 4.47189 0
M  V30 4771 H 441.077 0.786689 5.20691 0
M  V30 4772 H 443.568 0.96037 3.65493 0
M  V30 4773 H 443.881 2.56226 7.29087 0
M  V30 4774 H 442.226 2.29775 6.55918 0
M  V30 4775 H 445.417 1.27089 4.50517 0
M  V30 4776 H 445.59 2.00115 6.16326 0
M  V30 4777 N 438.996 -1.55193 0.274407 0
M  V30 4778 C 440.407 -1.85358 -0.223488 0
M  V30 4779 C 440.758 -1.19642 -1.555 0
M  V30 4780 O 439.883 -0.484498 -2.10907 0
M  V30 4781 C 440.478 -3.36282 -0.412285 0
M  V30 4782 C 439.037 -3.66574 -0.854413 0
M  V30 4783 C 438.184 -2.7725 0.0527056 0
M  V30 4784 H 441.135 -1.50743 0.496215 0
M  V30 4785 H 441.156 -3.59349 -1.25094 0
M  V30 4786 H 440.668 -3.84083 0.556965 0
M  V30 4787 H 438.769 -3.24273 -1.83516 0
M  V30 4788 H 438.882 -4.74073 -0.692226 0
M  V30 4789 H 437.246 -2.50447 -0.463484 0
M  V30 4790 H 438.029 -3.27865 1.01783 0
M  V30 4791 N 440.474 -0.00167713 -1.576 0
M  V30 4792 C 441.89 0.354422 -1.55615 0
M  V30 4793 C 442.09 1.74679 -1.00447 0
M  V30 4794 O 441.146 2.4428 -0.639022 0
M  V30 4795 C 442.459 0.22812 -2.99833 0
M  V30 4796 C 444.007 0.302934 -3.11531 0
M  V30 4797 C 444.482 0.205737 -4.57538 0
M  V30 4798 N 445.973 0.263584 -4.62449 0
M  V30 4799 C 446.708 0.211742 -5.73009 0
M  V30 4800 N 446.204 0.110399 -6.92712 0
M  V30 4801 N 447.997 0.263729 -5.61481 0
M  V30 4802 H 440.148 -0.912498 -1.918 0
M  V30 4803 H 442.411 -0.349928 -0.881053 0
M  V30 4804 H 442.117 -0.729934 -3.44042 0
M  V30 4805 H 441.991 1.00951 -3.6344 0
M  V30 4806 H 444.378 1.25143 -2.67251 0
M  V30 4807 H 444.459 -0.508357 -2.50698 0
M  V30 4808 H 444.103 -0.739225 -5.02492 0
M  V30 4809 H 444.033 1.03554 -5.16318 0
M  V30 4810 H 446.524 0.343173 -3.76339 0
M  V30 4811 H 446.837 0.0767828 -7.72762 0
M  V30 4812 H 445.182 0.0760025 -6.94958 0
M  V30 4813 H 448.373 0.34111 -4.66855 0
M  V30 4814 H 448.546 0.219862 -6.47627 0
M  V30 4815 N 441.952 1.55251 0.271103 0
M  V30 4816 C 443.2 1.75599 1.00047 0
M  V30 4817 C 443.521 0.561188 1.8675 0
M  V30 4818 O 442.791 -0.423846 1.9126 0
M  V30 4819 H 441.371 0.647562 0.372387 0
M  V30 4820 H 444.033 1.92656 0.294876 0
M  V30 4821 H 443.129 2.65766 1.6363 0
M  V30 4822 N 443.43 -0.535701 1.48216 0
M  V30 4823 C 444.658 -1.31671 1.59594 0
M  V30 4824 C 445.073 -1.87083 0.254056 0
M  V30 4825 O 444.43 -1.66112 -0.755854 0
M  V30 4826 C 444.481 -2.47158 2.63809 0
M  V30 4827 O 444.202 -1.94032 3.92789 0
M  V30 4828 C 445.703 -3.39062 2.85573 0
M  V30 4829 H 442.923 -0.400623 0.538277 0
M  V30 4830 H 445.467 -0.646827 1.94001 0
M  V30 4831 H 443.622 -3.10043 2.32276 0
M  V30 4832 H 444.036 -2.69585 4.49916 0
M  V30 4833 H 445.51 -4.16459 3.62306 0
M  V30 4834 H 445.987 -3.93941 1.94184 0
M  V30 4835 H 446.593 -2.81975 3.18387 0
M  V30 4836 N 444.908 -1.36708 -0.784132 0
M  V30 4837 C 445.841 -1.25827 -1.90375 0
M  V30 4838 C 446.819 -0.141331 -1.61985 0
M  V30 4839 O 448.003 -0.313389 -1.85877 0
M  V30 4840 C 445.13 -0.942621 -3.25319 0
M  V30 4841 C 444.176 -2.07474 -3.72635 0
M  V30 4842 S 445.009 -3.69317 -3.8777 0
M  V30 4843 C 446.165 -3.39876 -5.25581 0
M  V30 4844 H 446.398 -2.20593 -1.99314 0
M  V30 4845 H 443.931 -1.22186 -0.943926 0
M  V30 4846 H 445.889 -0.767321 -4.03265 0
M  V30 4847 H 444.55 -0.0126566 -3.14097 0
M  V30 4848 H 443.743 -1.80858 -4.70432 0
M  V30 4849 H 443.345 -2.20953 -3.01754 0
M  V30 4850 H 445.637 -2.94097 -6.10339 0
M  V30 4851 H 446.58 -4.36956 -5.57203 0
M  V30 4852 H 446.988 -2.75098 -4.92931 0
M  V30 4853 N 446.386 1.0089 -1.21074 0
M  V30 4854 C 447.318 2.09737 -0.924291 0
M  V30 4855 C 448.331 1.62546 0.0909809 0
M  V30 4856 O 449.52 1.77942 -0.141021 0
M  V30 4857 C 446.62 3.36922 -0.36559 0
M  V30 4858 C 445.793 4.13216 -1.43426 0
M  V30 4859 C 444.852 5.18696 -0.885496 0
M  V30 4860 O 443.878 5.47176 -1.56801 0
M  V30 4861 N 445.08 5.79718 0.301227 0
M  V30 4862 H 447.845 2.34895 -1.8613 0
M  V30 4863 H 445.406 1.17341 -1.11546 0
M  V30 4864 H 447.398 4.04697 0.0158407 0
M  V30 4865 H 445.968 3.08952 0.476149 0
M  V30 4866 H 445.188 3.40301 -1.9897 0
M  V30 4867 H 446.476 4.60967 -2.15376 0
M  V30 4868 H 445.874 5.58926 0.872849 0
M  V30 4869 H 444.431 6.48804 0.624211 0
M  V30 4870 N 447.864 1.01787 1.20321 0
M  V30 4871 C 448.827 0.593972 2.2137 0
M  V30 4872 C 449.827 -0.336553 1.57239 0
M  V30 4873 O 451.017 -0.125069 1.7375 0
M  V30 4874 C 448.149 -0.132433 3.40643 0
M  V30 4875 H 449.342 1.48791 2.60387 0
M  V30 4876 H 446.895 0.807803 1.33807 0
M  V30 4877 H 447.63 -1.04123 3.0713 0
M  V30 4878 H 447.415 0.53605 3.88418 0
M  V30 4879 H 448.905 -0.416314 4.1552 0
M  V30 4880 N 449.342 -1.36122 0.79427 0
M  V30 4881 C 450.591 -1.98361 0.365464 0
M  V30 4882 C 450.904 -1.6374 -1.06997 0
M  V30 4883 O 452.11 -2.19251 -1.60129 0
M  V30 4884 C 450.566 -3.54821 0.602496 0
M  V30 4885 C 450.174 -3.98362 2.04967 0
M  V30 4886 C 451.918 -4.2383 0.238437 0
M  V30 4887 C 449.825 -5.47619 2.2331 0
M  V30 4888 H 448.755 -0.742193 0.13291 0
M  V30 4889 H 451.406 -1.55354 0.976589 0
M  V30 4890 H 449.788 -3.95922 -0.078409 0
M  V30 4891 H 450.962 -3.68447 2.76737 0
M  V30 4892 H 449.277 -3.42206 2.37243 0
M  V30 4893 H 451.874 -5.33529 0.353705 0
M  V30 4894 H 452.217 -4.08264 -0.814006 0
M  V30 4895 H 452.75 -3.88108 0.872769 0
M  V30 4896 H 449.489 -5.68138 3.26955 0
M  V30 4897 H 449.009 -5.79145 1.5605 0
M  V30 4898 H 450.688 -6.13911 2.0426 0
M  V30 4899 N 450.82 -0.546701 -1.47814 0
M  V30 4900 C 451.768 0.220048 -2.31557 0
M  V30 4901 C 452.762 0.919472 -1.42275 0
M  V30 4902 O 453.968 0.841953 -1.59095 0
M  V30 4903 H 450.343 0.0898334 -0.746615 0
M  V30 4904 H 452.314 -0.505589 -2.94086 0
M  V30 4905 C 451.063 1.24353 -3.24702 0
M  V30 4906 H 450.386 0.714758 -3.93359 0
M  V30 4907 H 451.826 1.75112 -3.8615 0
M  V30 4908 C 450.285 2.28593 -2.47481 0
M  V30 4909 O 450.815 3.35334 -2.21165 0
M  V30 4910 N 449.021 2.02244 -2.08676 0
M  V30 4911 H 448.568 1.15455 -2.30278 0
M  V30 4912 H 448.526 2.72207 -1.57323 0
M  V30 4913 N 452.299 1.55045 -0.282633 0
M  V30 4914 C 453.247 2.24254 0.617478 0
M  V30 4915 C 454.241 1.24215 1.15183 0
M  V30 4916 O 455.447 1.42123 1.10459 0
M  V30 4917 H 451.822 0.719801 0.217693 0
M  V30 4918 H 453.793 2.98398 0.0110076 0
M  V30 4919 C 452.542 2.98281 1.78672 0
M  V30 4920 H 451.865 3.75053 1.38475 0
M  V30 4921 H 453.305 3.50017 2.393 0
M  V30 4922 C 451.764 2.04184 2.67975 0
M  V30 4923 O 452.294 1.59792 3.6855 0
M  V30 4924 N 450.5 1.70526 2.35307 0
M  V30 4925 H 450.047 2.06821 1.53567 0
M  V30 4926 H 450.005 1.07839 2.95327 0
M  V30 4927 N 453.777 0.010035 1.57597 0
M  V30 4928 C 454.687 -0.994226 2.12491 0
M  V30 4929 C 455.703 -1.37013 1.07254 0
M  V30 4930 O 456.879 -1.45542 1.3921 0
M  V30 4931 C 453.944 -2.2642 2.62555 0
M  V30 4932 C 453.005 -1.95049 3.82432 0
M  V30 4933 C 452.238 -3.15991 4.30099 0
M  V30 4934 O 452.461 -4.28015 3.7704 0
M  V30 4935 O 451.395 -2.99403 5.22151 0
M  V30 4936 H 455.221 -0.557549 2.98538 0
M  V30 4937 H 452.806 -0.209413 1.47925 0
M  V30 4938 H 454.688 -3.01009 2.9491 0
M  V30 4939 H 453.363 -2.69306 1.796 0
M  V30 4940 H 452.27 -1.17904 3.55034 0
M  V30 4941 H 453.603 -1.56992 4.66491 0
M  V30 4942 N 455.255 -1.55392 -0.262866 0
M  V30 4943 C 456.202 -1.88966 -1.32516 0
M  V30 4944 C 457.172 -0.742187 -1.48596 0
M  V30 4945 O 458.357 -0.99439 -1.62839 0
M  V30 4946 C 455.497 -2.17592 -2.67858 0
M  V30 4947 C 454.61 -3.45061 -2.59917 0
M  V30 4948 C 453.745 -3.63336 -3.87505 0
M  V30 4949 C 452.784 -4.84462 -3.74116 0
M  V30 4950 N 451.921 -4.99342 -4.93561 0
M  V30 4951 H 456.761 -2.79566 -1.03184 0
M  V30 4952 H 454.298 -1.38404 -0.498285 0
M  V30 4953 H 456.256 -2.3219 -3.46617 0
M  V30 4954 H 454.886 -1.30215 -2.95371 0
M  V30 4955 H 453.938 -3.38881 -1.72812 0
M  V30 4956 H 455.25 -4.3396 -2.45926 0
M  V30 4957 H 454.404 -3.77807 -4.74707 0
M  V30 4958 H 453.143 -2.72641 -4.04374 0
M  V30 4959 H 452.148 -4.69985 -2.85297 0
M  V30 4960 H 453.373 -5.76603 -3.58757 0
M  V30 4961 H 451.319 -4.1158 -5.10821 0
M  V30 4962 H 451.236 -5.82303 -4.82141 0
M  V30 4963 H 452.504 -5.18208 -5.82306 0
M  V30 4964 N 456.733 0.527833 -1.48498 0
M  V30 4965 C 457.68 1.6322 -1.6318 0
M  V30 4966 C 458.65 1.59199 -0.473815 0
M  V30 4967 O 459.835 1.77591 -0.697563 0
M  V30 4968 C 456.975 3.01474 -1.67951 0
M  V30 4969 C 456.088 3.15713 -2.94871 0
M  V30 4970 C 455.223 4.44539 -2.90789 0
M  V30 4971 C 454.262 4.52315 -4.12404 0
M  V30 4972 N 453.399 5.72533 -4.06387 0
M  V30 4973 H 458.239 1.50011 -2.57489 0
M  V30 4974 H 455.776 0.730298 -1.27691 0
M  V30 4975 H 457.734 3.81572 -1.68698 0
M  V30 4976 H 456.364 3.1345 -0.771306 0
M  V30 4977 H 455.416 2.28854 -3.03859 0
M  V30 4978 H 456.728 3.1732 -3.8485 0
M  V30 4979 H 455.882 5.3293 -2.89949 0
M  V30 4980 H 454.621 4.45457 -1.98542 0
M  V30 4981 H 453.626 3.62331 -4.13517 0
M  V30 4982 H 454.851 4.53134 -5.05812 0
M  V30 4983 H 452.797 5.74344 -3.16962 0
M  V30 4984 H 452.714 5.75643 -4.90073 0
M  V30 4985 H 453.982 6.63204 -4.0961 0
M  V30 4986 N 458.211 1.37122 0.776871 0
M  V30 4987 C 459.174 1.32301 1.8716 0
M  V30 4988 C 460.174 0.228099 1.59174 0
M  V30 4989 O 461.364 0.483642 1.67352 0
M  V30 4990 C 458.496 1.054 3.24197 0
M  V30 4991 H 459.689 2.29673 1.92848 0
M  V30 4992 H 457.242 1.22077 0.97606 0
M  V30 4993 H 457.977 0.0853872 3.24188 0
M  V30 4994 H 457.762 1.84648 3.45901 0
M  V30 4995 H 459.252 1.04664 4.04271 0
M  V30 4996 N 459.689 -1.00246 1.21608 0
M  V30 4997 C 460.914 -1.78167 1.06167 0
M  V30 4998 C 461.339 -1.84138 -0.384035 0
M  V30 4999 O 460.697 -1.28683 -1.27712 0
M  V30 5000 C 460.745 -3.19786 1.66642 0
M  V30 5001 O 459.849 -4.02153 0.913613 0
M  V30 5002 H 459.19 -0.549 0.37349 0
M  V30 5003 H 461.72 -1.25994 1.61204 0
M  V30 5004 H 461.73 -3.70451 1.70969 0
M  V30 5005 H 460.405 -3.14754 2.7185 0
M  V30 5006 H 458.982 -3.60711 0.945635 0
M  V30 5007 N 461.167 -1.02423 -1.1978 0
M  V30 5008 C 462.114 -0.601023 -2.22837 0
M  V30 5009 C 463.084 0.382801 -1.61629 0
M  V30 5010 O 464.269 0.280514 -1.88727 0
M  V30 5011 C 461.409 0.0467755 -3.45068 0
M  V30 5012 C 460.522 -0.98253 -4.20678 0
M  V30 5013 C 459.657 -0.304982 -5.30324 0
M  V30 5014 C 458.696 -1.32052 -5.97686 0
M  V30 5015 N 457.833 -0.669105 -6.98904 0
M  V30 5016 H 462.673 -1.48444 -2.58396 0
M  V30 5017 H 460.21 -0.742936 -1.2696 0
M  V30 5018 H 462.168 0.439556 -4.14878 0
M  V30 5019 H 460.798 0.893796 -3.10179 0
M  V30 5020 H 459.85 -1.49341 -3.49859 0
M  V30 5021 H 461.162 -1.75455 -4.66923 0
M  V30 5022 H 460.316 0.142893 -6.06532 0
M  V30 5023 H 459.055 0.499283 -4.85138 0
M  V30 5024 H 458.06 -1.7787 -5.20233 0
M  V30 5025 H 459.285 -2.1262 -6.44957 0
M  V30 5026 H 457.231 0.115152 -6.55899 0
M  V30 5027 H 457.148 -1.37908 -7.43315 0
M  V30 5028 H 458.416 -0.245076 -7.79115 0
M  V30 5029 N 462.645 1.35699 -0.801477 0
M  V30 5030 C 463.891 1.99208 -0.380022 0
M  V30 5031 C 464.224 1.63445 1.04878 0
M  V30 5032 O 463.499 0.895223 1.72673 0
M  V30 5033 C 463.782 3.55755 -0.557708 0
M  V30 5034 C 463.635 4.01332 -2.03107 0
M  V30 5035 C 464.954 4.40096 0.0197968 0
M  V30 5036 H 462.073 0.723667 -0.139552 0
M  V30 5037 H 464.715 1.60928 -1.01006 0
M  V30 5038 H 462.865 3.88494 -0.0213741 0
M  V30 5039 H 464.537 3.79026 -2.62939 0
M  V30 5040 H 462.78 3.52429 -2.52936 0
M  V30 5041 H 463.451 5.10234 -2.1063 0
M  V30 5042 H 465.927 4.13786 -0.438179 0
M  V30 5043 H 464.803 5.48735 -0.134477 0
M  V30 5044 H 465.064 4.2786 1.11303 0
M  V30 5045 N 464.123 0.554532 1.47522 0
M  V30 5046 C 465.053 -0.182974 2.32782 0
M  V30 5047 C 466.034 -0.911377 1.43624 0
M  V30 5048 O 467.219 -0.892366 1.72483 0
M  V30 5049 C 464.349 -1.21513 3.25349 0
M  V30 5050 C 463.303 -0.603355 4.23726 0
M  V30 5051 C 462.629 -1.73995 5.05598 0
M  V30 5052 C 463.929 0.441121 5.20434 0
M  V30 5053 H 465.623 0.52882 2.94693 0
M  V30 5054 H 463.169 0.255759 1.41711 0
M  V30 5055 H 465.122 -1.73922 3.83835 0
M  V30 5056 H 463.846 -1.95683 2.61487 0
M  V30 5057 H 462.505 -0.10059 3.66462 0
M  V30 5058 H 462.153 -2.47063 4.38143 0
M  V30 5059 H 461.853 -1.3364 5.72201 0
M  V30 5060 H 463.377 -2.26735 5.66942 0
M  V30 5061 H 464.791 0.00319931 5.733 0
M  V30 5062 H 463.188 0.763402 5.95224 0
M  V30 5063 H 464.258 1.33799 4.66075 0
M  V30 5064 N 465.601 -1.54893 0.290851 0
M  V30 5065 C 466.849 -1.99538 -0.320756 0
M  V30 5066 C 467.17 -1.18075 -1.55188 0
M  V30 5067 O 466.44 -0.274162 -1.93972 0
M  V30 5068 H 465.02 -0.737052 -0.121507 0
M  V30 5069 H 467.682 -1.90755 0.399832 0
M  V30 5070 H 466.778 -3.06282 -0.599802 0
M  V30 5071 N 467.08 -0.0183926 -1.57589 0
M  V30 5072 C 468.329 0.66185 -1.90532 0
M  V30 5073 C 468.642 1.73904 -0.895366 0
M  V30 5074 O 469.848 2.47518 -1.11566 0
M  V30 5075 C 468.304 1.22844 -3.38286 0
M  V30 5076 C 467.912 0.185103 -4.47617 0
M  V30 5077 C 469.656 1.88581 -3.80312 0
M  V30 5078 C 467.563 0.762723 -5.86461 0
M  V30 5079 H 466.493 0.250972 -0.711006 0
M  V30 5080 H 469.144 -0.0819435 -1.83317 0
M  V30 5081 H 467.526 2.0235 -3.40398 0
M  V30 5082 H 468.7 -0.58671 -4.5705 0
M  V30 5083 H 467.015 -0.372889 -4.14727 0
M  V30 5084 H 469.612 2.32735 -4.81392 0
M  V30 5085 H 469.955 2.72408 -3.14801 0
M  V30 5086 H 470.488 1.15782 -3.80578 0
M  V30 5087 H 467.227 -0.0371713 -6.55489 0
M  V30 5088 H 466.747 1.50327 -5.80656 0
M  V30 5089 H 468.426 1.25576 -6.34697 0
M  V30 5090 N 468.558 1.5553 0.254621 0
M  V30 5091 C 469.804 1.77262 0.985193 0
M  V30 5092 C 470.137 0.582286 1.85265 0
M  V30 5093 O 469.412 -0.419666 1.89919 0
M  V30 5094 C 469.695 3.0881 1.85225 0
M  V30 5095 C 469.548 4.38233 1.0135 0
M  V30 5096 C 470.867 3.3653 2.83612 0
M  V30 5097 H 467.986 0.644906 0.356742 0
M  V30 5098 H 470.628 1.88264 0.256236 0
M  V30 5099 H 468.778 2.99562 2.47376 0
M  V30 5100 H 470.45 4.59463 0.411269 0
M  V30 5101 H 468.693 4.32636 0.317574 0
M  V30 5102 H 469.364 5.26644 1.65379 0
M  V30 5103 H 471.84 3.45691 2.31596 0
M  V30 5104 H 470.716 4.29805 3.41407 0
M  V30 5105 H 470.977 2.57064 3.59681 0
M  V30 5106 N 470.036 -0.519951 1.48776 0
M  V30 5107 C 471.283 -1.27522 1.57303 0
M  V30 5108 C 471.611 -1.92869 0.251328 0
M  V30 5109 O 470.866 -1.80372 -0.759243 0
M  V30 5110 C 471.165 -2.37864 2.6675 0
M  V30 5111 C 470.831 -1.90103 4.08867 0
M  V30 5112 C 469.493 -1.76795 4.47546 0
M  V30 5113 C 471.845 -1.54133 4.97888 0
M  V30 5114 C 469.173 -1.25868 5.73039 0
M  V30 5115 C 471.525 -1.04665 6.23881 0
M  V30 5116 C 470.189 -0.899823 6.61407 0
M  V30 5117 H 469.459 -0.466636 0.575614 0
M  V30 5118 H 472.106 -0.579109 1.82534 0
M  V30 5119 H 470.411 -3.13186 2.35418 0
M  V30 5120 H 472.108 -2.95969 2.70561 0
M  V30 5121 H 468.698 -2.01414 3.78326 0
M  V30 5122 H 472.882 -1.6327 4.68675 0
M  V30 5123 H 468.138 -1.13196 6.0083 0
M  V30 5124 H 472.312 -0.759074 6.92251 0
M  V30 5125 H 469.939 -0.503011 7.58534 0
M  V30 5126 N 471.514 -1.37532 -0.769588 0
M  V30 5127 C 472.761 -1.3286 -1.52822 0
M  V30 5128 C 473.089 0.0862597 -1.94309 0
M  V30 5129 O 472.344 1.05995 -1.6451 0
M  V30 5130 C 472.643 -2.21558 -2.8044 0
M  V30 5131 C 472.309 -3.69796 -2.57996 0
M  V30 5132 C 470.971 -4.10194 -2.51583 0
M  V30 5133 C 473.323 -4.63699 -2.37976 0
M  V30 5134 C 470.651 -5.42608 -2.23144 0
M  V30 5135 C 473.003 -5.96353 -2.1106 0
M  V30 5136 C 471.667 -6.35853 -2.03093 0
M  V30 5137 H 470.937 -0.486168 -0.559215 0
M  V30 5138 H 473.584 -1.69757 -0.886277 0
M  V30 5139 H 471.889 -1.77663 -3.49204 0
M  V30 5140 H 473.586 -2.15256 -3.38328 0
M  V30 5141 H 470.176 -3.37759 -2.63851 0
M  V30 5142 H 474.36 -4.33346 -2.41919 0
M  V30 5143 H 469.616 -5.72173 -2.15472 0
M  V30 5144 H 473.79 -6.68667 -1.94568 0
M  V30 5145 H 471.417 -7.38382 -1.8082 0
M  V30 5146 N 472.992 0.995999 -1.22138 0
M  V30 5147 C 474.238 1.73767 -1.04561 0
M  V30 5148 C 474.571 1.89633 0.418698 0
M  V30 5149 O 473.846 1.43723 1.3105 0
M  V30 5150 C 474.129 3.14505 -1.75382 0
M  V30 5151 C 473.982 3.06306 -3.29388 0
M  V30 5152 C 475.301 4.13615 -1.50369 0
M  V30 5153 H 472.42 0.630728 -0.38125 0
M  V30 5154 H 475.062 1.16057 -1.50435 0
M  V30 5155 H 473.212 3.63775 -1.36383 0
M  V30 5156 H 474.884 2.64681 -3.77812 0
M  V30 5157 H 473.127 2.43186 -3.59226 0
M  V30 5158 H 473.798 4.05884 -3.74116 0
M  V30 5159 H 476.274 3.73089 -1.84239 0
M  V30 5160 H 475.15 5.10212 -2.02421 0
M  V30 5161 H 475.411 4.39949 -0.435611 0
M  V30 5162 N 474.47 1.03057 1.19235 0
M  V30 5163 C 475.717 0.728019 1.88961 0
M  V30 5164 C 476.045 -0.743515 1.79728 0
M  V30 5165 O 475.3 -1.55729 1.1852 0
M  V30 5166 C 475.599 1.1268 3.39172 0
M  V30 5167 C 475.265 2.5969 3.68608 0
M  V30 5168 C 473.927 2.99854 3.76352 0
M  V30 5169 C 476.279 3.54793 3.81801 0
M  V30 5170 C 473.607 4.34031 3.94758 0
M  V30 5171 C 475.959 4.88675 4.0172 0
M  V30 5172 C 474.623 5.28526 4.07697 0
M  V30 5173 H 473.893 0.266401 0.691456 0
M  V30 5174 H 476.54 1.29373 1.41191 0
M  V30 5175 H 474.845 0.479722 3.88852 0
M  V30 5176 H 476.542 0.870203 3.91444 0
M  V30 5177 H 473.132 2.27575 3.63191 0
M  V30 5178 H 477.316 3.24914 3.7516 0
M  V30 5179 H 472.572 4.6444 3.97625 0
M  V30 5180 H 476.746 5.6228 4.1087 0
M  V30 5181 H 474.373 6.32506 4.21712 0
M  V30 5182 N 475.948 -1.35272 0.808662 0
M  V30 5183 C 476.878 -2.32315 0.234981 0
M  V30 5184 C 477.859 -1.57572 -0.64071 0
M  V30 5185 O 479.044 -1.8563 -0.570551 0
M  V30 5186 C 476.174 -3.41801 -0.615601 0
M  V30 5187 C 475.128 -4.27694 0.161767 0
M  V30 5188 C 474.454 -5.28519 -0.810649 0
M  V30 5189 C 475.754 -5.04231 1.36193 0
M  V30 5190 H 477.448 -2.80543 1.04575 0
M  V30 5191 H 474.994 -1.3488 0.504315 0
M  V30 5192 H 476.947 -4.08693 -1.02702 0
M  V30 5193 H 475.671 -2.92186 -1.45928 0
M  V30 5194 H 474.33 -3.62384 0.554382 0
M  V30 5195 H 473.978 -4.75171 -1.64988 0
M  V30 5196 H 473.678 -5.8686 -0.294822 0
M  V30 5197 H 475.202 -5.98283 -1.22023 0
M  V30 5198 H 476.616 -5.64058 1.02528 0
M  V30 5199 H 475.013 -5.72077 1.81239 0
M  V30 5200 H 476.083 -4.34753 2.14751 0
M  V30 5201 N 477.426 -0.562348 -1.47226 0
M  V30 5202 C 478.675 -0.038041 -2.01664 0
M  V30 5203 C 478.988 1.32199 -1.44162 0
M  V30 5204 O 480.194 1.9365 -1.90294 0
M  V30 5205 C 478.65 -0.0174958 -3.59896 0
M  V30 5206 C 478.258 -1.3746 -4.2639 0
M  V30 5207 C 480.002 0.453934 -4.22066 0
M  V30 5208 C 477.909 -1.31289 -5.76643 0
M  V30 5209 H 476.839 -0.0104511 -0.753928 0
M  V30 5210 H 479.49 -0.710966 -1.69167 0
M  V30 5211 H 477.872 0.721182 -3.89378 0
M  V30 5212 H 479.046 -2.1314 -4.08544 0
M  V30 5213 H 477.361 -1.78438 -3.7623 0
M  V30 5214 H 479.958 0.518584 -5.32179 0
M  V30 5215 H 480.301 1.46706 -3.89594 0
M  V30 5216 H 480.834 -0.230044 -3.97134 0
M  V30 5217 H 477.573 -2.30217 -6.13743 0
M  V30 5218 H 477.093 -0.597973 -5.96812 0
M  V30 5219 H 478.772 -1.01713 -6.38955 0
M  V30 5220 N 478.904 1.54736 -0.299062 0
M  V30 5221 C 479.837 2.1962 0.619851 0
M  V30 5222 C 480.815 1.16496 1.13434 0
M  V30 5223 O 481.999 1.4513 1.2029 0
M  V30 5224 C 479.126 2.8385 1.84788 0
M  V30 5225 C 478.172 4.00484 1.46679 0
M  V30 5226 S 479.005 5.32926 0.524389 0
M  V30 5227 C 480.161 6.00638 1.76026 0
M  V30 5228 H 480.394 2.97221 0.0686177 0
M  V30 5229 H 477.927 1.54176 -0.0832085 0
M  V30 5230 H 479.885 3.21483 2.55263 0
M  V30 5231 H 478.546 2.06099 2.37028 0
M  V30 5232 H 477.739 4.44201 2.38121 0
M  V30 5233 H 477.341 3.64398 0.842008 0
M  V30 5234 H 479.633 6.21327 2.70109 0
M  V30 5235 H 480.576 6.94805 1.36569 0
M  V30 5236 H 480.984 5.3026 1.93609 0
M  V30 5237 N 480.382 0.0267497 1.57577 0
M  V30 5238 C 481.628 -0.647596 1.92815 0
M  V30 5239 C 481.983 -1.69872 0.903396 0
M  V30 5240 O 481.276 -1.91429 -0.0808881 0
M  V30 5241 C 481.47 -1.30914 3.3256 0
M  V30 5242 C 481.299 -0.323621 4.48534 0
M  V30 5243 C 480.069 0.0756607 5.05243 0
M  V30 5244 C 482.267 0.42112 5.12573 0
M  V30 5245 N 480.249 1.0566 6.04739 0
M  V30 5246 C 481.62 1.25589 6.07147 0
M  V30 5247 C 483.675 0.482077 4.95561 0
M  V30 5248 C 482.378 2.1461 6.86538 0
M  V30 5249 C 484.404 1.35962 5.75559 0
M  V30 5250 C 483.766 2.18217 6.69747 0
M  V30 5251 H 479.865 -0.209357 0.753454 0
M  V30 5252 H 482.449 0.0933695 1.94476 0
M  V30 5253 H 480.62 -2.02026 3.31723 0
M  V30 5254 H 482.352 -1.94033 3.55153 0
M  V30 5255 H 479.107 -0.298294 4.7266 0
M  V30 5256 H 479.531 1.54324 6.59176 0
M  V30 5257 H 484.173 -0.139609 4.22569 0
M  V30 5258 H 481.891 2.77835 7.58837 0
M  V30 5259 H 485.477 1.41105 5.6443 0
M  V30 5260 H 484.357 2.85022 7.3057 0
M  V30 5261 N 481.861 -1.55662 -0.24637 0
M  V30 5262 C 483.101 -1.79283 -0.981685 0
M  V30 5263 C 483.465 -0.596356 -1.82504 0
M  V30 5264 O 484.666 -0.711342 -2.59217 0
M  V30 5265 C 482.937 -3.07648 -1.819 0
M  V30 5266 S 484.496 -3.52491 -2.61334 0
M  V30 5267 H 481.314 -0.629676 -0.330196 0
M  V30 5268 H 483.916 -1.93901 -0.249498 0
M  V30 5269 H 482.62 -3.92794 -1.18915 0
M  V30 5270 H 482.151 -2.95768 -2.59393 0
M  V30 5271 H 484.166 -3.13866 -3.84321 0
M  V30 5272 N 483.339 0.512053 -1.4905 0
M  V30 5273 C 484.75 1.09376 -1.51307 0
M  V30 5274 C 485.101 1.94 -0.292971 0
M  V30 5275 O 484.226 2.07965 0.598277 0
M  V30 5276 C 484.821 1.99031 -2.74176 0
M  V30 5277 C 483.38 2.52385 -2.79247 0
M  V30 5278 C 482.527 1.29749 -2.45073 0
M  V30 5279 H 485.478 0.296467 -1.55906 0
M  V30 5280 H 485.499 2.83569 -2.53711 0
M  V30 5281 H 485.011 1.37412 -3.62959 0
M  V30 5282 H 483.112 3.17673 -1.94716 0
M  V30 5283 H 483.225 2.90293 -3.81139 0
M  V30 5284 H 481.589 1.61912 -1.96612 0
M  V30 5285 H 482.372 0.698555 -3.36118 0
M  V30 5286 N 484.817 1.37938 0.762283 0
M  V30 5287 C 486.064 1.33668 1.52115 0
M  V30 5288 C 486.392 -0.0759538 1.94352 0
M  V30 5289 O 485.647 -1.05121 1.6507 0
M  V30 5290 C 485.946 2.23042 2.79261 0
M  V30 5291 C 485.612 3.71159 2.56031 0
M  V30 5292 C 484.274 4.11523 2.49404 0
M  V30 5293 C 486.626 4.64955 2.35513 0
M  V30 5294 C 483.954 5.43784 2.20263 0
M  V30 5295 C 486.306 5.97464 2.07894 0
M  V30 5296 C 484.97 6.36922 1.99718 0
M  V30 5297 H 484.24 0.489127 0.556629 0
M  V30 5298 H 486.887 1.70224 0.877262 0
M  V30 5299 H 485.192 1.79512 3.48256 0
M  V30 5300 H 486.889 2.17047 3.37182 0
M  V30 5301 H 483.479 3.39153 2.62056 0
M  V30 5302 H 487.663 4.34623 2.39617 0
M  V30 5303 H 482.919 5.73307 2.12435 0
M  V30 5304 H 487.093 6.6969 1.91019 0
M  V30 5305 H 484.72 7.39331 1.76902 0
M  V30 5306 N 486.295 -0.989507 1.22664 0
M  V30 5307 C 487.542 -1.72953 1.05325 0
M  V30 5308 C 487.87 -1.90104 -0.411168 0
M  V30 5309 O 487.125 -1.44386 -1.32103 0
M  V30 5310 C 487.424 -3.13649 1.71345 0
M  V30 5311 C 487.09 -3.16403 3.21248 0
M  V30 5312 C 485.752 -3.16862 3.62149 0
M  V30 5313 C 488.104 -3.12428 4.17179 0
M  V30 5314 C 485.432 -3.11051 4.97458 0
M  V30 5315 C 487.784 -3.08159 5.52468 0
M  V30 5316 C 486.448 -3.06935 5.92746 0
M  V30 5317 H 485.718 -0.632881 0.385412 0
M  V30 5318 H 488.365 -1.15863 1.52473 0
M  V30 5319 H 486.67 -3.74069 1.16532 0
M  V30 5320 H 488.367 -3.69658 1.55416 0
M  V30 5321 H 484.957 -3.16798 2.88682 0
M  V30 5322 H 489.141 -3.11221 3.86595 0
M  V30 5323 H 484.397 -3.0845 5.27891 0
M  V30 5324 H 488.571 -3.04039 6.26525 0
M  V30 5325 H 486.198 -3.02186 6.97558 0
M  V30 5326 N 487.773 -1.03688 -1.18687 0
M  V30 5327 C 489.022 -0.733235 -1.879 0
M  V30 5328 C 489.335 0.741745 -1.8099 0
M  V30 5329 O 490.541 1.15875 -2.4553 0
M  V30 5330 C 488.997 -1.26127 -3.37076 0
M  V30 5331 C 488.605 -2.76461 -3.52524 0
M  V30 5332 C 490.349 -1.03398 -4.11715 0
M  V30 5333 C 488.256 -3.22642 -4.95637 0
M  V30 5334 H 487.186 -0.270584 -0.703776 0
M  V30 5335 H 489.837 -1.25222 -1.34133 0
M  V30 5336 H 488.219 -0.670165 -3.90288 0
M  V30 5337 H 489.393 -3.41296 -3.09602 0
M  V30 5338 H 487.708 -2.97559 -2.91286 0
M  V30 5339 H 490.305 -1.3542 -5.17267 0
M  V30 5340 H 490.648 0.0289246 -4.1629 0
M  V30 5341 H 491.181 -1.5895 -3.64664 0
M  V30 5342 H 487.92 -4.28296 -4.96228 0
M  V30 5343 H 487.44 -2.62539 -5.39289 0
M  V30 5344 H 489.119 -3.16444 -5.64333 0
M  V30 5345 N 489.251 1.34841 -0.815825 0
M  V30 5346 C 490.479 2.0273 -0.413294 0
M  V30 5347 C 490.894 1.61459 0.978599 0
M  V30 5348 O 490.251 0.816584 1.63212 0
M  V30 5349 C 490.302 3.58058 -0.497676 0
M  V30 5350 O 490.023 3.97832 -1.8347 0
M  V30 5351 C 491.524 4.4321 -0.0891339 0
M  V30 5352 H 488.744 0.649956 -0.166728 0
M  V30 5353 H 491.288 1.72267 -1.10201 0
M  V30 5354 H 489.443 3.87136 0.142886 0
M  V30 5355 H 489.857 4.92501 -1.80396 0
M  V30 5356 H 491.331 5.5164 -0.199274 0
M  V30 5357 H 491.808 4.28432 0.966571 0
M  V30 5358 H 492.414 4.19446 -0.703214 0
M  V30 5359 N 490.729 0.570148 1.46925 0
M  V30 5360 C 491.677 -0.183181 2.31878 0
M  V30 5361 C 492.671 -0.896721 1.43719 0
M  V30 5362 O 493.877 -0.816536 1.60414 0
M  V30 5363 H 490.252 -0.077944 0.74795 0
M  V30 5364 H 492.223 0.552312 2.93244 0
M  V30 5365 C 490.972 -1.19172 3.2664 0
M  V30 5366 H 490.295 -0.652088 3.94446 0
M  V30 5367 H 491.735 -1.68946 3.88887 0
M  V30 5368 C 490.194 -2.24627 2.51086 0
M  V30 5369 O 490.724 -3.31773 2.26472 0
M  V30 5370 N 488.93 -1.98898 2.11867 0
M  V30 5371 H 488.477 -1.11777 2.32086 0
M  V30 5372 H 488.435 -2.6967 1.61634 0
M  V30 5373 N 492.207 -1.54576 0.307264 0
M  V30 5374 C 493.456 -1.99442 -0.300976 0
M  V30 5375 C 493.769 -1.19928 -1.5452 0
M  V30 5376 O 494.975 -1.55092 -2.22842 0
M  V30 5377 C 493.431 -3.55084 -0.586809 0
M  V30 5378 C 493.039 -4.43413 0.639438 0
M  V30 5379 C 494.783 -4.0846 -1.1559 0
M  V30 5380 C 492.69 -5.90499 0.326411 0
M  V30 5381 H 491.62 -0.744986 -0.116238 0
M  V30 5382 H 494.271 -1.787 0.416947 0
M  V30 5383 H 492.653 -3.71749 -1.36449 0
M  V30 5384 H 493.827 -4.38522 1.41545 0
M  V30 5385 H 492.142 -4.00842 1.1276 0
M  V30 5386 H 494.739 -5.15926 -1.40445 0
M  V30 5387 H 495.082 -3.59443 -2.10015 0
M  V30 5388 H 495.615 -3.95362 -0.439778 0
M  V30 5389 H 492.354 -6.43676 1.23939 0
M  V30 5390 H 491.874 -5.98382 -0.412212 0
M  V30 5391 H 493.553 -6.46962 -0.0697393 0
M  V30 5392 N 493.685 -0.035106 -1.57561 0
M  V30 5393 C 494.615 0.942993 -2.13612 0
M  V30 5394 C 495.596 1.33531 -1.05373 0
M  V30 5395 O 496.781 1.41287 -1.33235 0
M  V30 5396 C 493.911 2.22332 -2.66807 0
M  V30 5397 C 492.865 1.97156 -3.79886 0
M  V30 5398 C 492.191 3.31506 -4.19533 0
M  V30 5399 C 493.491 1.30596 -5.05709 0
M  V30 5400 H 495.185 0.476179 -2.95589 0
M  V30 5401 H 492.731 0.227602 -1.4219 0
M  V30 5402 H 494.684 2.91142 -3.04654 0
M  V30 5403 H 493.408 2.7119 -1.81999 0
M  V30 5404 H 492.067 1.30763 -3.42486 0
M  V30 5405 H 491.715 3.78134 -3.31698 0
M  V30 5406 H 491.415 3.15465 -4.95738 0
M  V30 5407 H 492.939 4.01574 -4.59968 0
M  V30 5408 H 494.353 1.89416 -5.41105 0
M  V30 5409 H 492.75 1.24934 -5.86951 0
M  V30 5410 H 493.82 0.279742 -4.84092 0
M  V30 5411 N 495.163 1.55791 0.238111 0
M  V30 5412 C 496.388 1.8244 0.986432 0
M  V30 5413 C 496.813 0.613314 1.7782 0
M  V30 5414 O 496.171 -0.437767 1.75935 0
M  V30 5415 C 496.219 3.06917 1.893 0
M  V30 5416 O 495.323 2.84449 2.98601 0
M  V30 5417 H 494.664 0.601975 0.280218 0
M  V30 5418 H 497.194 2.02987 0.256437 0
M  V30 5419 H 497.204 3.36583 2.30598 0
M  V30 5420 H 495.879 3.947 1.31091 0
M  V30 5421 H 494.456 2.65972 2.61368 0
M  V30 5422 N 496.642 -0.504142 1.49319 0
M  V30 5423 C 497.888 -1.26033 1.58882 0
M  V30 5424 C 498.221 -1.92268 0.273274 0
M  V30 5425 O 497.496 -1.80567 -0.72291 0
M  V30 5426 C 497.779 -2.32976 2.7458 0
M  V30 5427 C 497.632 -1.71263 4.1592 0
M  V30 5428 C 498.951 -3.34561 2.85932 0
M  V30 5429 H 496.07 -0.456863 0.578312 0
M  V30 5430 H 498.712 -0.558965 1.81592 0
M  V30 5431 H 496.862 -2.92796 2.55348 0
M  V30 5432 H 498.534 -1.15294 4.4666 0
M  V30 5433 H 496.777 -1.01686 4.21714 0
M  V30 5434 H 497.448 -2.48816 4.92742 0
M  V30 5435 H 499.924 -2.84727 3.0343 0
M  V30 5436 H 498.8 -4.06754 3.68568 0
M  V30 5437 H 499.061 -3.96695 1.95154 0
M  V30 5438 N 498.12 -1.38341 -0.754957 0
M  V30 5439 C 499.05 -1.38176 -1.88227 0
M  V30 5440 C 500.031 -0.247873 -1.68284 0
M  V30 5441 O 501.216 -0.45075 -1.88896 0
M  V30 5442 C 498.346 -1.20471 -3.25736 0
M  V30 5443 C 497.3 -2.3105 -3.60278 0
M  V30 5444 C 496.626 -1.98452 -4.96509 0
M  V30 5445 C 497.926 -3.73305 -3.65295 0
M  V30 5446 H 499.62 -2.32512 -1.88622 0
M  V30 5447 H 497.166 -1.1192 -0.906082 0
M  V30 5448 H 499.119 -1.18982 -4.04254 0
M  V30 5449 H 497.843 -0.225965 -3.25817 0
M  V30 5450 H 496.502 -2.31723 -2.84078 0
M  V30 5451 H 496.15 -0.990641 -4.93148 0
M  V30 5452 H 495.85 -2.7251 -5.20588 0
M  V30 5453 H 497.374 -1.98578 -5.77407 0
M  V30 5454 H 498.788 -3.7467 -4.3393 0
M  V30 5455 H 497.185 -4.46557 -4.00883 0
M  V30 5456 H 498.255 -4.05719 -2.65556 0
M  V30 5457 N 499.598 0.982988 -1.23187 0
M  V30 5458 C 500.838 1.73903 -1.07412 0
M  V30 5459 C 501.202 1.88146 0.382764 0
M  V30 5460 O 502.403 2.6053 0.661638 0
M  V30 5461 C 500.674 3.10105 -1.77678 0
M  V30 5462 S 502.233 4.01323 -1.77441 0
M  V30 5463 H 499.051 0.598093 -0.384456 0
M  V30 5464 H 501.653 1.17456 -1.56283 0
M  V30 5465 H 500.357 2.97388 -2.82822 0
M  V30 5466 H 499.888 3.71622 -1.29077 0
M  V30 5467 H 501.903 4.89189 -0.831162 0
M  V30 5468 N 501.076 1.04316 1.18135 0
M  V30 5469 C 502.324 0.746542 1.87806 0
M  V30 5470 C 502.645 -0.728082 1.80898 0
M  V30 5471 O 501.915 -1.52554 1.22899 0
M  V30 5472 H 500.495 0.273157 0.695265 0
M  V30 5473 H 503.157 1.32044 1.43354 0
M  V30 5474 H 502.253 1.05362 2.93778 0
M  V30 5475 N 502.554 -1.34406 0.822964 0
M  V30 5476 C 503.501 -2.29519 0.24284 0
M  V30 5477 C 504.471 -1.5359 -0.632397 0
M  V30 5478 O 505.656 -1.8196 -0.57403 0
M  V30 5479 C 502.796 -3.40032 -0.58925 0
M  V30 5480 C 501.909 -4.30899 0.308236 0
M  V30 5481 C 501.044 -5.28515 -0.533425 0
M  V30 5482 C 500.083 -6.1102 0.363444 0
M  V30 5483 N 499.22 -7.00725 -0.439147 0
M  V30 5484 H 504.06 -2.78537 1.05929 0
M  V30 5485 H 501.597 -1.3707 0.533872 0
M  V30 5486 H 503.555 -4.0279 -1.087 0
M  V30 5487 H 502.185 -2.92248 -1.37081 0
M  V30 5488 H 501.237 -3.69002 0.924203 0
M  V30 5489 H 502.549 -4.88717 0.997862 0
M  V30 5490 H 501.703 -5.96725 -1.09565 0
M  V30 5491 H 500.442 -4.71235 -1.25656 0
M  V30 5492 H 499.447 -5.41743 0.937812 0
M  V30 5493 H 500.672 -6.70381 1.08469 0
M  V30 5494 H 498.618 -6.45913 -1.14595 0
M  V30 5495 H 498.535 -7.55756 0.19209 0
M  V30 5496 H 499.803 -7.73263 -0.984124 0
M  V30 5497 N 504.032 -0.577932 -1.46621 0
M  V30 5498 C 504.995 0.147805 -2.28723 0
M  V30 5499 C 505.995 0.823325 -1.38123 0
M  V30 5500 O 507.185 0.676011 -1.60548 0
M  V30 5501 C 504.317 1.21853 -3.18378 0
M  V30 5502 H 505.51 -0.573654 -2.94362 0
M  V30 5503 H 503.063 -0.335703 -1.52652 0
M  V30 5504 H 503.798 1.97173 -2.57475 0
M  V30 5505 H 503.583 0.738714 -3.85078 0
M  V30 5506 H 505.073 1.72768 -3.80186 0
M  V30 5507 N 505.51 1.54411 -0.315457 0
M  V30 5508 C 506.75 2.02329 0.290236 0
M  V30 5509 C 507.114 1.19878 1.49977 0
M  V30 5510 O 508.315 1.57562 2.17779 0
M  V30 5511 C 506.586 3.51912 0.623937 0
M  V30 5512 S 508.145 4.21775 1.21044 0
M  V30 5513 H 504.963 0.705499 0.0882739 0
M  V30 5514 H 507.565 1.90328 -0.446694 0
M  V30 5515 H 506.269 4.09546 -0.264624 0
M  V30 5516 H 505.8 3.67977 1.39128 0
M  V30 5517 H 507.815 4.28757 2.49764 0
M  V30 5518 N 506.988 0.0434614 1.5754 0
M  V30 5519 C 507.936 -0.951465 2.1225 0
M  V30 5520 C 508.93 -1.3274 1.05245 0
M  V30 5521 O 510.136 -1.30795 1.23663 0
M  V30 5522 H 506.511 -0.324667 0.678303 0
M  V30 5523 H 508.482 -0.464855 2.94757 0
M  V30 5524 C 507.231 -2.21972 2.67626 0
M  V30 5525 H 506.554 -1.93923 3.4962 0
M  V30 5526 H 507.994 -2.89765 3.09536 0
M  V30 5527 C 506.453 -2.95919 1.61038 0
M  V30 5528 O 506.983 -3.8857 1.01862 0
M  V30 5529 N 505.189 -2.58511 1.32741 0
M  V30 5530 H 504.736 -1.83244 1.81051 0
M  V30 5531 H 504.694 -3.08296 0.616531 0
M  V30 5532 N 508.466 -1.55915 -0.229846 0
M  V30 5533 C 509.398 -1.88209 -1.30805 0
M  V30 5534 C 510.411 -0.769672 -1.43457 0
M  V30 5535 O 511.6 -1.04792 -1.44502 0
M  V30 5536 C 508.7 -2.06829 -2.68468 0
M  V30 5537 C 507.873 -3.37798 -2.77869 0
M  V30 5538 C 506.932 -3.45952 -3.96489 0
M  V30 5539 O 505.958 -4.19043 -3.85216 0
M  V30 5540 N 507.16 -2.76488 -5.10426 0
M  V30 5541 H 509.925 -2.81286 -1.03431 0
M  V30 5542 H 507.486 -1.5636 -0.41991 0
M  V30 5543 H 509.478 -2.09608 -3.46189 0
M  V30 5544 H 508.048 -1.20416 -2.88477 0
M  V30 5545 H 507.268 -3.4719 -1.86689 0
M  V30 5546 H 508.556 -4.24091 -2.81113 0
M  V30 5547 H 507.954 -2.16868 -5.2248 0
M  V30 5548 H 506.511 -2.84938 -5.8622 0
M  V30 5549 N 509.944 0.496216 -1.49584 0
M  V30 5550 C 510.891 1.59722 -1.66606 0
M  V30 5551 C 511.861 1.58158 -0.507477 0
M  V30 5552 O 513.046 1.76072 -0.735076 0
M  V30 5553 C 510.186 2.97844 -1.74308 0
M  V30 5554 C 509.299 3.09388 -3.01502 0
M  V30 5555 C 508.434 4.38271 -3.00153 0
M  V30 5556 C 507.473 4.43466 -4.21906 0
M  V30 5557 N 506.61 5.63784 -4.1844 0
M  V30 5558 H 511.45 1.44515 -2.60613 0
M  V30 5559 H 508.987 0.703048 -1.29212 0
M  V30 5560 H 510.945 3.77907 -1.76754 0
M  V30 5561 H 509.575 3.11743 -0.837619 0
M  V30 5562 H 508.627 2.22357 -3.08645 0
M  V30 5563 H 509.939 3.09085 -3.91494 0
M  V30 5564 H 509.093 5.2666 -3.01188 0
M  V30 5565 H 507.832 4.41146 -2.07947 0
M  V30 5566 H 506.837 3.53478 -4.21109 0
M  V30 5567 H 508.062 4.42303 -5.1531 0
M  V30 5568 H 506.008 5.67491 -3.29074 0
M  V30 5569 H 505.925 5.65118 -5.02173 0
M  V30 5570 H 507.193 6.54367 -4.23585 0
M  V30 5571 N 511.423 1.38739 0.74761 0
M  V30 5572 C 512.353 1.39173 1.87492 0
M  V30 5573 C 513.334 0.256794 1.6815 0
M  V30 5574 O 514.519 0.460762 1.88655 0
M  V30 5575 C 511.649 1.22197 3.25093 0
M  V30 5576 C 510.603 2.32957 3.59047 0
M  V30 5577 C 509.929 2.01082 4.95449 0
M  V30 5578 C 511.229 3.75237 3.6331 0
M  V30 5579 H 512.923 2.3351 1.87386 0
M  V30 5580 H 510.469 1.12399 0.900134 0
M  V30 5581 H 512.422 1.21124 4.03617 0
M  V30 5582 H 511.146 0.243241 3.25693 0
M  V30 5583 H 509.805 2.33226 2.82845 0
M  V30 5584 H 509.453 1.01678 4.92616 0
M  V30 5585 H 509.153 2.75267 5.19136 0
M  V30 5586 H 510.677 2.01638 5.76346 0
M  V30 5587 H 512.091 3.76966 4.31937 0
M  V30 5588 H 510.488 4.48677 3.98509 0
M  V30 5589 H 511.558 4.07122 2.634 0
M  V30 5590 N 512.901 -0.976442 1.23707 0
M  V30 5591 C 513.834 -2.06793 0.964973 0
M  V30 5592 C 514.812 -1.62304 -0.0981472 0
M  V30 5593 O 515.996 -1.88464 0.0369477 0
M  V30 5594 C 513.123 -3.35636 0.454522 0
M  V30 5595 C 512.169 -3.99069 1.50485 0
M  V30 5596 S 513.002 -4.37814 3.0835 0
M  V30 5597 C 514.158 -5.69805 2.58985 0
M  V30 5598 H 514.391 -2.29556 1.88922 0
M  V30 5599 H 511.924 -1.11317 1.06995 0
M  V30 5600 H 513.882 -4.10162 0.166626 0
M  V30 5601 H 512.543 -3.10876 -0.448871 0
M  V30 5602 H 511.736 -4.91896 1.09792 0
M  V30 5603 H 511.338 -3.30938 1.7423 0
M  V30 5604 H 513.63 -6.46919 2.01252 0
M  V30 5605 H 514.573 -6.15345 3.50366 0
M  V30 5606 H 514.981 -5.27994 1.99705 0
M  V30 5607 N 514.379 -1.04941 -1.1758 0
M  V30 5608 C 515.289 -0.658826 -2.25159 0
M  V30 5609 C 516.305 0.318941 -1.71052 0
M  V30 5610 O 517.481 0.171669 -2.00667 0
M  V30 5611 C 514.546 -0.0369522 -3.4668 0
M  V30 5612 C 513.607 -1.06484 -4.15884 0
M  V30 5613 C 512.84 -0.472551 -5.31604 0
M  V30 5614 O 513.063 0.718736 -5.65854 0
M  V30 5615 O 511.997 -1.20557 -5.89703 0
M  V30 5616 H 515.823 -1.55533 -2.60851 0
M  V30 5617 H 513.408 -0.820819 -1.24832 0
M  V30 5618 H 515.29 0.308784 -4.20267 0
M  V30 5619 H 513.965 0.833238 -3.12792 0
M  V30 5620 H 512.872 -1.46253 -3.44327 0
M  V30 5621 H 514.205 -1.9061 -4.53794 0
M  V30 5622 N 515.857 1.33968 -0.830081 0
M  V30 5623 C 516.804 2.29387 -0.255008 0
M  V30 5624 C 517.774 1.53923 0.624243 0
M  V30 5625 O 518.959 1.82262 0.564372 0
M  V30 5626 C 516.099 3.4034 0.571209 0
M  V30 5627 C 515.212 4.30729 -0.331083 0
M  V30 5628 C 514.347 5.2879 0.505389 0
M  V30 5629 C 513.386 6.10819 -0.395843 0
M  V30 5630 N 512.523 7.00948 0.401979 0
M  V30 5631 H 517.363 2.77972 -1.07404 0
M  V30 5632 H 514.9 1.36785 -0.541133 0
M  V30 5633 H 516.858 4.03361 1.06562 0
M  V30 5634 H 515.488 2.9297 1.35529 0
M  V30 5635 H 514.54 3.68507 -0.943759 0
M  V30 5636 H 515.852 4.88181 -1.02377 0
M  V30 5637 H 515.006 5.97297 1.06399 0
M  V30 5638 H 513.745 4.71894 1.23155 0
M  V30 5639 H 512.75 5.41238 -0.966529 0
M  V30 5640 H 513.975 6.69797 -1.12023 0
M  V30 5641 H 511.921 6.46512 1.11168 0
M  V30 5642 H 511.838 7.55643 -0.232167 0
M  V30 5643 H 513.106 7.73774 0.943102 0
M  V30 5644 N 517.335 0.585699 1.46312 0
M  V30 5645 C 518.265 -0.133556 2.33118 0
M  V30 5646 C 519.246 -0.880707 1.45525 0
M  V30 5647 O 520.431 -0.855579 1.74337 0
M  V30 5648 C 517.561 -1.14585 3.27853 0
M  V30 5649 C 516.515 -0.513341 4.2491 0
M  V30 5650 C 515.841 -1.63231 5.09175 0
M  V30 5651 C 517.141 0.551413 5.19381 0
M  V30 5652 H 518.835 0.59121 2.93505 0
M  V30 5653 H 516.381 0.285761 1.41136 0
M  V30 5654 H 518.334 -1.65741 3.87438 0
M  V30 5655 H 517.058 -1.90093 2.65579 0
M  V30 5656 H 515.717 -0.0228349 3.66593 0
M  V30 5657 H 515.365 -2.37713 4.43285 0
M  V30 5658 H 515.065 -1.21473 5.74907 0
M  V30 5659 H 516.589 -2.14658 5.71624 0
M  V30 5660 H 518.003 0.124804 5.73164 0
M  V30 5661 H 516.4 0.889486 5.93471 0
M  V30 5662 H 517.47 1.43655 4.63132 0
M  V30 5663 N 518.813 -1.54241 0.323641 0
M  V30 5664 C 519.743 -2.27289 -0.534993 0
M  V30 5665 C 520.724 -1.28087 -1.11927 0
M  V30 5666 O 521.909 -1.56899 -1.14439 0
M  V30 5667 C 519.039 -3.03075 -1.69596 0
M  V30 5668 C 517.993 -4.09614 -1.24098 0
M  V30 5669 C 517.319 -4.73242 -2.4889 0
M  V30 5670 C 518.619 -5.21087 -0.355789 0
M  V30 5671 H 520.313 -2.99308 0.0743257 0
M  V30 5672 H 517.859 -1.43952 0.0371874 0
M  V30 5673 H 519.812 -3.52907 -2.30293 0
M  V30 5674 H 518.536 -2.28673 -2.33187 0
M  V30 5675 H 517.195 -3.60666 -0.656945 0
M  V30 5676 H 516.843 -3.95455 -3.10845 0
M  V30 5677 H 516.543 -5.45209 -2.19138 0
M  V30 5678 H 518.067 -5.25848 -3.10348 0
M  V30 5679 H 519.481 -5.66675 -0.869042 0
M  V30 5680 H 517.878 -5.9991 -0.151045 0
M  V30 5681 H 518.948 -4.81005 0.613339 0
M  V30 5682 N 520.291 -0.0518155 -1.57515 0
M  V30 5683 C 521.239 0.940195 -2.12751 0
M  V30 5684 C 522.233 1.3218 -1.05948 0
M  V30 5685 O 523.439 1.30138 -1.24355 0
M  V30 5686 H 519.814 0.321066 -0.680015 0
M  V30 5687 H 521.785 0.449217 -2.94999 0
M  V30 5688 C 520.534 2.2055 -2.68799 0
M  V30 5689 H 519.857 1.92066 -3.50643 0
M  V30 5690 H 521.297 2.88119 -3.11068 0
M  V30 5691 C 519.756 2.95061 -1.62605 0
M  V30 5692 O 520.286 3.88025 -1.03921 0
M  V30 5693 N 518.492 2.57804 -1.34111 0
M  V30 5694 H 518.039 1.82281 -1.8202 0
M  V30 5695 H 517.997 3.07964 -0.632872 0
M  V30 5696 N 521.769 1.56035 0.221574 0
M  V30 5697 C 523.015 1.79312 0.947372 0
M  V30 5698 C 523.348 0.621453 1.83988 0
M  V30 5699 O 522.623 -0.379287 1.90766 0
M  V30 5700 C 522.906 3.1267 1.78633 0
M  V30 5701 C 522.759 4.40284 0.920312 0
M  V30 5702 C 524.078 3.4247 2.7641 0
M  V30 5703 H 521.197 0.652328 0.342982 0
M  V30 5704 H 523.839 1.88765 0.216244 0
M  V30 5705 H 521.989 3.04741 2.40967 0
M  V30 5706 H 523.661 4.60232 0.313718 0
M  V30 5707 H 521.904 4.33212 0.225734 0
M  V30 5708 H 522.575 5.30033 1.54171 0
M  V30 5709 H 525.051 3.50526 2.24211 0
M  V30 5710 H 523.927 4.3695 3.32213 0
M  V30 5711 H 524.188 2.64635 3.54148 0
M  V30 5712 N 523.247 -0.488276 1.49845 0
M  V30 5713 C 524.494 -1.24157 1.59973 0
M  V30 5714 C 524.822 -1.92293 0.292182 0
M  V30 5715 O 524.077 -1.81942 -0.720813 0
M  V30 5716 C 524.376 -2.32152 2.71735 0
M  V30 5717 C 524.042 -1.81387 4.12807 0
M  V30 5718 C 522.704 -1.67262 4.51195 0
M  V30 5719 C 525.056 -1.43537 5.01045 0
M  V30 5720 C 522.384 -1.13685 5.7558 0
M  V30 5721 C 524.736 -0.914081 6.25961 0
M  V30 5722 C 523.4 -0.759327 6.63167 0
M  V30 5723 H 522.67 -0.454322 0.585383 0
M  V30 5724 H 525.317 -0.540261 1.83721 0
M  V30 5725 H 523.622 -3.08122 2.42008 0
M  V30 5726 H 525.319 -2.90164 2.76778 0
M  V30 5727 H 521.909 -1.93344 3.82513 0
M  V30 5728 H 526.093 -1.53292 4.72033 0
M  V30 5729 H 521.349 -1.00426 6.03096 0
M  V30 5730 H 525.523 -0.612066 6.93705 0
M  V30 5731 H 523.15 -0.342002 7.5943 0
M  V30 5732 N 524.725 -1.39134 -0.740242 0
M  V30 5733 C 525.971 -1.36273 -1.50192 0
M  V30 5734 C 526.304 0.0430136 -1.94152 0
M  V30 5735 O 525.579 1.00691 -1.66408 0
M  V30 5736 C 525.862 -2.33041 -2.74525 0
M  V30 5737 C 525.715 -3.82535 -2.36617 0
M  V30 5738 C 527.034 -2.27723 -3.76604 0
M  V30 5739 H 524.153 -0.496323 -0.544823 0
M  V30 5740 H 526.795 -1.70085 -0.846815 0
M  V30 5741 H 524.945 -2.04337 -3.30422 0
M  V30 5742 H 526.617 -4.21967 -1.86391 0
M  V30 5743 H 524.86 -3.99565 -1.68909 0
M  V30 5744 H 525.531 -4.45723 -3.2563 0
M  V30 5745 H 528.007 -2.53091 -3.30279 0
M  V30 5746 H 526.883 -2.97519 -4.61274 0
M  V30 5747 H 527.144 -1.28049 -4.2315 0
M  V30 5748 N 526.204 0.969867 -1.24223 0
M  V30 5749 C 527.45 1.71582 -1.09231 0
M  V30 5750 C 527.805 1.88898 0.365432 0
M  V30 5751 O 527.098 1.43781 1.2664 0
M  V30 5752 C 527.292 3.10883 -1.76314 0
M  V30 5753 C 527.121 3.07155 -3.2846 0
M  V30 5754 C 525.891 3.11757 -3.97663 0
M  V30 5755 C 528.089 2.895 -4.25082 0
M  V30 5756 N 526.071 2.98025 -5.36707 0
M  V30 5757 C 527.442 2.84041 -5.51109 0
M  V30 5758 C 529.497 2.74064 -4.15684 0
M  V30 5759 C 528.2 2.64725 -6.68815 0
M  V30 5760 C 530.226 2.56115 -5.33066 0
M  V30 5761 C 529.588 2.51363 -6.58024 0
M  V30 5762 H 525.687 0.636496 -0.454309 0
M  V30 5763 H 528.271 1.15004 -1.57106 0
M  V30 5764 H 526.442 3.65657 -1.30955 0
M  V30 5765 H 528.174 3.74171 -1.54201 0
M  V30 5766 H 524.929 3.20352 -3.48814 0
M  V30 5767 H 525.353 2.94405 -6.09635 0
M  V30 5768 H 529.995 2.76521 -3.19837 0
M  V30 5769 H 527.713 2.61011 -7.64787 0
M  V30 5770 H 531.299 2.45119 -5.27644 0
M  V30 5771 H 530.179 2.37651 -7.47323 0
M  V30 5772 N 527.682 1.05563 1.17022 0
M  V30 5773 C 528.931 0.763036 1.8671 0
M  V30 5774 C 529.244 -0.712857 1.82147 0
M  V30 5775 O 530.45 -1.11955 2.47343 0
M  V30 5776 C 528.906 1.31474 3.35026 0
M  V30 5777 C 528.514 2.82034 3.48081 0
M  V30 5778 C 530.258 1.09935 4.10018 0
M  V30 5779 C 528.165 3.30486 4.90442 0
M  V30 5780 H 527.095 0.281747 0.699382 0
M  V30 5781 H 529.746 1.2734 1.32124 0
M  V30 5782 H 528.128 0.732171 3.89173 0
M  V30 5783 H 529.302 3.46178 3.04133 0
M  V30 5784 H 527.617 3.02156 2.86515 0
M  V30 5785 H 530.214 1.43632 5.15048 0
M  V30 5786 H 530.557 0.0373072 4.16283 0
M  V30 5787 H 531.09 1.64732 3.62089 0
M  V30 5788 H 527.829 4.36137 4.89352 0
M  V30 5789 H 527.349 2.71086 5.35044 0
M  V30 5790 H 529.028 3.25382 5.59227 0
M  V30 5791 N 529.16 -1.33526 0.837174 0
M  V30 5792 C 530.408 -1.97446 0.431211 0
M  V30 5793 C 530.729 -1.6665 -1.01255 0
M  V30 5794 O 529.999 -0.964559 -1.70508 0
M  V30 5795 H 528.579 -0.73043 0.156463 0
M  V30 5796 H 531.241 -1.62918 1.06976 0
M  V30 5797 H 530.337 -3.07001 0.561877 0
M  V30 5798 N 530.638 -0.59345 -1.46 0
M  V30 5799 C 531.868 -0.0889642 -2.06408 0
M  V30 5800 C 532.276 1.22597 -1.44106 0
M  V30 5801 O 531.619 1.75448 -0.544398 0
M  V30 5802 C 531.681 0.139902 -3.59228 0
M  V30 5803 C 531.345 -1.09107 -4.43784 0
M  V30 5804 C 532.342 -2.00577 -4.79651 0
M  V30 5805 C 530.027 -1.31593 -4.84756 0
M  V30 5806 C 532.021 -3.12873 -5.55328 0
M  V30 5807 C 529.708 -2.44192 -5.60191 0
M  V30 5808 C 530.706 -3.34661 -5.95392 0
M  V30 5809 O 530.394 -4.45302 -6.69299 0
M  V30 5810 H 530.126 -0.0594613 -0.67338 0
M  V30 5811 H 532.68 -0.817 -1.88452 0
M  V30 5812 H 530.91 0.922672 -3.75531 0
M  V30 5813 H 532.599 0.594228 -4.01527 0
M  V30 5814 H 533.365 -1.84425 -4.48567 0
M  V30 5815 H 529.244 -0.620801 -4.56801 0
M  V30 5816 H 532.788 -3.83511 -5.82722 0
M  V30 5817 H 528.685 -2.60303 -5.90688 0
M  V30 5818 H 529.453 -4.43805 -6.87735 0
M  V30 5819 N 532.116 1.54067 -0.331816 0
M  V30 5820 C 533.362 2.01012 0.268667 0
M  V30 5821 C 533.695 1.2195 1.51136 0
M  V30 5822 O 532.97 0.303972 1.9211 0
M  V30 5823 C 533.253 3.55158 0.59456 0
M  V30 5824 C 533.106 4.4494 -0.659409 0
M  V30 5825 C 534.425 4.16939 1.4089 0
M  V30 5826 H 531.544 0.730698 0.0961756 0
M  V30 5827 H 534.186 1.84593 -0.450031 0
M  V30 5828 H 532.336 3.6928 1.20685 0
M  V30 5829 H 534.008 4.42675 -1.29756 0
M  V30 5830 H 532.251 4.1428 -1.28665 0
M  V30 5831 H 532.922 5.50643 -0.386804 0
M  V30 5832 H 535.398 4.06443 0.891272 0
M  V30 5833 H 534.274 5.24889 1.60569 0
M  V30 5834 H 534.535 3.70798 2.40752 0
M  V30 5835 N 533.594 0.0601682 1.57485 0
M  V30 5836 C 534.834 -0.615384 1.94916 0
M  V30 5837 C 535.198 -1.67475 0.938948 0
M  V30 5838 O 536.399 -2.40502 1.20051 0
M  V30 5839 C 534.67 -1.18788 3.37082 0
M  V30 5840 S 536.229 -1.88018 3.96478 0
M  V30 5841 H 533.047 -0.201821 0.681754 0
M  V30 5842 H 535.649 0.131252 1.95059 0
M  V30 5843 H 534.353 -0.404869 4.08398 0
M  V30 5844 H 533.884 -1.97114 3.40455 0
M  V30 5845 H 535.899 -3.16161 3.82435 0
M  V30 5846 N 535.072 -1.5615 -0.213296 0
M  V30 5847 C 536.297 -1.83986 -0.957282 0
M  V30 5848 C 536.722 -0.641526 -1.76822 0
M  V30 5849 O 536.08 0.409722 -1.7661 0
M  V30 5850 C 536.128 -3.09889 -1.84393 0
M  V30 5851 O 535.232 -2.89163 -2.94038 0
M  V30 5852 H 534.573 -0.606357 -0.270605 0
M  V30 5853 H 537.103 -2.03369 -0.224111 0
M  V30 5854 H 537.113 -3.40209 -2.25215 0
M  V30 5855 H 535.788 -3.96735 -1.24795 0
M  V30 5856 H 534.365 -2.70097 -2.57103 0
M  V30 5857 N 536.55 0.480323 -1.50102 0
M  V30 5858 C 537.798 1.23063 -1.60312 0
M  V30 5859 C 538.119 1.92659 -0.301226 0
M  V30 5860 O 537.389 1.83691 0.680753 0
M  V30 5861 H 535.969 0.457231 -0.590719 0
M  V30 5862 H 538.631 0.554893 -1.86834 0
M  V30 5863 H 537.727 1.9835 -2.40964 0
M  V30 5864 N 538.028 1.39524 0.732853 0
M  V30 5865 C 539.277 1.36175 1.48792 0
M  V30 5866 C 539.59 -0.0388195 1.95561 0
M  V30 5867 O 540.796 -0.194899 2.708 0
M  V30 5868 C 539.252 2.39242 2.68871 0
M  V30 5869 C 538.86 3.85024 2.29042 0
M  V30 5870 C 540.604 2.44972 3.46683 0
M  V30 5871 C 538.511 4.79727 3.45856 0
M  V30 5872 H 537.441 0.506267 0.558757 0
M  V30 5873 H 540.092 1.65181 0.799226 0
M  V30 5874 H 538.474 2.0331 3.39825 0
M  V30 5875 H 539.648 4.30008 1.6562 0
M  V30 5876 H 537.963 3.82609 1.64316 0
M  V30 5877 H 540.56 3.12918 4.33574 0
M  V30 5878 H 540.903 1.4749 3.89297 0
M  V30 5879 H 541.436 2.79808 2.82759 0
M  V30 5880 H 538.175 5.78479 3.08289 0
M  V30 5881 H 537.695 4.39421 4.08251 0
M  V30 5882 H 539.374 4.98731 4.12161 0
M  V30 5883 N 539.506 -0.963266 1.24736 0
M  V30 5884 C 540.454 -2.07985 1.04139 0
M  V30 5885 C 541.448 -1.69381 -0.0250556 0
M  V30 5886 O 542.654 -1.79531 0.129863 0
M  V30 5887 H 539.029 -0.680627 0.319768 0
M  V30 5888 H 541 -2.22517 1.98818 0
M  V30 5889 C 539.749 -3.4123 0.667615 0
M  V30 5890 H 539.072 -3.71397 1.48 0
M  V30 5891 H 540.512 -4.20244 0.563136 0
M  V30 5892 C 538.971 -3.3104 -0.625647 0
M  V30 5893 O 539.501 -3.65334 -1.67016 0
M  V30 5894 N 537.707 -2.84168 -0.608033 0
M  V30 5895 H 537.254 -2.56458 0.242323 0
M  V30 5896 H 537.212 -2.77732 -1.47352 0
M  V30 5897 N 540.985 -1.06182 -1.16461 0
M  V30 5898 C 542.396 -0.802426 -1.68576 0
M  V30 5899 C 542.747 0.67412 -1.84255 0
M  V30 5900 O 541.872 1.52303 -1.5373 0
M  V30 5901 C 542.467 -1.45002 -3.06202 0
M  V30 5902 C 541.026 -1.23843 -3.55443 0
M  V30 5903 C 540.173 -1.52724 -2.31454 0
M  V30 5904 H 543.124 -1.22545 -1.00839 0
M  V30 5905 H 543.145 -0.864731 -3.70544 0
M  V30 5906 H 542.657 -2.52466 -2.94759 0
M  V30 5907 H 540.758 -0.183487 -3.72148 0
M  V30 5908 H 540.871 -1.95036 -4.37604 0
M  V30 5909 H 539.235 -0.947726 -2.36411 0
M  V30 5910 H 540.018 -2.61343 -2.22609 0
M  V30 5911 N 542.463 1.3308 -0.844243 0
M  V30 5912 C 543.393 2.3161 -0.296493 0
M  V30 5913 C 544.374 1.59215 0.598707 0
M  V30 5914 O 545.559 1.87077 0.521134 0
M  V30 5915 C 542.689 3.43313 0.524762 0
M  V30 5916 C 541.643 4.27115 -0.275106 0
M  V30 5917 C 540.969 5.30483 0.670236 0
M  V30 5918 C 542.269 5.00443 -1.49514 0
M  V30 5919 H 543.963 2.77672 -1.11976 0
M  V30 5920 H 541.509 1.33496 -0.539899 0
M  V30 5921 H 543.462 4.11273 0.918298 0
M  V30 5922 H 542.186 2.95952 1.3813 0
M  V30 5923 H 540.845 3.60787 -0.650267 0
M  V30 5924 H 540.493 4.79379 1.52332 0
M  V30 5925 H 540.193 5.87435 0.139123 0
M  V30 5926 H 541.717 6.01308 1.06117 0
M  V30 5927 H 543.131 5.61141 -1.17447 0
M  V30 5928 H 541.528 5.67071 -1.96343 0
M  V30 5929 H 542.598 4.28906 -2.26202 0
M  V30 5930 N 543.941 0.601185 1.45683 0
M  V30 5931 C 545.187 0.0940202 2.02582 0
M  V30 5932 C 545.52 -1.26972 1.46941 0
M  V30 5933 O 544.795 -1.83613 0.641612 0
M  V30 5934 C 545.078 0.0481715 3.60068 0
M  V30 5935 C 544.931 1.44212 4.26055 0
M  V30 5936 C 546.25 -0.642975 4.35378 0
M  V30 5937 H 543.369 0.0356404 0.736138 0
M  V30 5938 H 546.011 0.771929 1.73612 0
M  V30 5939 H 544.161 -0.529128 3.8488 0
M  V30 5940 H 545.833 2.06601 4.12449 0
M  V30 5941 H 544.076 2.00465 3.84703 0
M  V30 5942 H 544.747 1.36234 5.34925 0
M  V30 5943 H 547.223 -0.152351 4.15821 0
M  V30 5944 H 546.099 -0.644141 5.45107 0
M  V30 5945 H 546.36 -1.70785 4.0778 0
M  V30 5946 N 545.419 -1.53889 0.339982 0
M  V30 5947 C 546.649 -2.04973 -0.258738 0
M  V30 5948 C 547.057 -1.21485 -1.45045 0
M  V30 5949 O 546.4 -0.2422 -1.82096 0
M  V30 5950 C 546.462 -3.51783 -0.740853 0
M  V30 5951 C 546.126 -4.55802 0.330734 0
M  V30 5952 C 547.123 -5.06512 1.17226 0
M  V30 5953 C 544.808 -4.99966 0.483637 0
M  V30 5954 C 546.802 -5.99963 2.15227 0
M  V30 5955 C 544.489 -5.93229 1.46704 0
M  V30 5956 C 545.487 -6.43115 2.29981 0
M  V30 5957 O 545.175 -7.34545 3.26649 0
M  V30 5958 H 544.907 -0.673807 -0.0544037 0
M  V30 5959 H 547.461 -1.99492 0.489107 0
M  V30 5960 H 545.691 -3.54717 -1.53988 0
M  V30 5961 H 547.38 -3.85857 -1.25973 0
M  V30 5962 H 548.146 -4.73158 1.0652 0
M  V30 5963 H 544.025 -4.6074 -0.15471 0
M  V30 5964 H 547.569 -6.38825 2.80265 0
M  V30 5965 H 543.466 -6.25998 1.57468 0
M  V30 5966 H 544.234 -7.52468 3.22078 0
M  V30 5967 N 546.897 -0.0685191 -1.57451 0
M  V30 5968 C 548.125 0.610462 -1.97689 0
M  V30 5969 C 548.54 1.63346 -0.946758 0
M  V30 5970 O 547.897 1.82377 0.0669868 0
M  V30 5971 C 547.948 1.28196 -3.38006 0
M  V30 5972 O 547.669 0.299906 -4.37072 0
M  V30 5973 C 549.17 2.04907 -3.931 0
M  V30 5974 H 546.39 0.165689 -0.650222 0
M  V30 5975 H 548.934 -0.139953 -2.04021 0
M  V30 5976 H 547.089 1.98348 -3.32771 0
M  V30 5977 H 547.503 0.78126 -5.18649 0
M  V30 5978 H 548.977 2.47287 -4.93511 0
M  V30 5979 H 549.454 2.9043 -3.29465 0
M  V30 5980 H 550.06 1.39629 -4.01726 0
M  V30 5981 N 548.375 1.56261 0.205012 0
M  V30 5982 C 549.305 1.96779 1.257 0
M  V30 5983 C 550.286 0.838309 1.48008 0
M  V30 5984 O 551.471 1.10189 1.59913 0
M  V30 5985 C 548.601 2.29876 2.60335 0
M  V30 5986 C 547.555 3.45469 2.52656 0
M  V30 5987 C 546.881 3.64215 3.91473 0
M  V30 5988 C 548.181 4.79954 2.06014 0
M  V30 5989 H 549.875 2.84904 0.920338 0
M  V30 5990 H 547.421 1.37072 0.441277 0
M  V30 5991 H 549.374 2.56814 3.34102 0
M  V30 5992 H 548.098 1.38622 2.95722 0
M  V30 5993 H 546.757 3.18605 1.81345 0
M  V30 5994 H 546.405 2.70309 4.24196 0
M  V30 5995 H 546.105 4.41973 3.87213 0
M  V30 5996 H 547.629 3.93519 4.66878 0
M  V30 5997 H 549.043 5.05989 2.69533 0
M  V30 5998 H 547.44 5.61111 2.12777 0
M  V30 5999 H 548.51 4.74201 1.01297 0
M  V30 6000 N 549.853 -0.472356 1.50355 0
M  V30 6001 C 551.1 -1.22453 1.61281 0
M  V30 6002 C 551.428 -1.91972 0.31256 0
M  V30 6003 O 550.683 -1.82696 -0.701475 0
M  V30 6004 C 550.982 -2.29257 2.74182 0
M  V30 6005 C 550.648 -1.76999 4.14708 0
M  V30 6006 C 549.31 -1.62467 4.52944 0
M  V30 6007 C 551.662 -1.38215 5.0254 0
M  V30 6008 C 548.99 -1.07574 5.76754 0
M  V30 6009 C 551.342 -0.847638 6.26895 0
M  V30 6010 C 550.006 -0.688946 6.63935 0
M  V30 6011 H 549.276 -0.448087 0.590168 0
M  V30 6012 H 551.923 -0.520744 1.84284 0
M  V30 6013 H 550.228 -3.05538 2.45263 0
M  V30 6014 H 551.925 -2.87212 2.7984 0
M  V30 6015 H 548.515 -1.89276 3.84542 0
M  V30 6016 H 552.699 -1.48276 4.73633 0
M  V30 6017 H 547.955 -0.940237 6.04127 0
M  V30 6018 H 552.129 -0.538455 6.94315 0
M  V30 6019 H 549.756 -0.261435 7.5975 0
M  V30 6020 N 551.331 -1.39911 -0.725443 0
M  V30 6021 C 552.279 -1.39552 -1.86086 0
M  V30 6022 C 553.273 -0.277334 -1.67114 0
M  V30 6023 O 554.479 -0.447865 -1.74339 0
M  V30 6024 H 550.854 -0.435993 -0.612711 0
M  V30 6025 H 552.825 -2.35305 -1.83505 0
M  V30 6026 C 551.574 -1.26529 -3.2386 0
M  V30 6027 H 550.897 -2.11845 -3.3906 0
M  V30 6028 H 552.337 -1.30336 -4.03471 0
M  V30 6029 C 550.796 0.0254168 -3.3689 0
M  V30 6030 O 551.326 0.992048 -3.89257 0
M  V30 6031 N 549.532 0.0916528 -2.90455 0
M  V30 6032 H 549.079 -0.695675 -2.48028 0
M  V30 6033 H 549.037 0.954745 -2.99553 0
M  V30 6034 N 552.809 0.956637 -1.25245 0
M  V30 6035 C 553.756 2.053 -1.05454 0
M  V30 6036 C 554.726 1.66062 0.0356889 0
M  V30 6037 O 555.911 1.90415 -0.121099 0
M  V30 6038 C 553.051 3.38391 -0.677191 0
M  V30 6039 C 552.164 3.90758 -1.84206 0
M  V30 6040 C 551.299 5.12165 -1.40926 0
M  V30 6041 C 550.338 5.56757 -2.54338 0
M  V30 6042 N 549.475 6.69376 -2.11848 0
M  V30 6043 H 554.315 2.21562 -1.99284 0
M  V30 6044 H 551.852 1.08578 -0.992434 0
M  V30 6045 H 553.81 4.1488 -0.43938 0
M  V30 6046 H 552.44 3.22021 0.224127 0
M  V30 6047 H 551.492 3.10808 -2.19323 0
M  V30 6048 H 552.804 4.19802 -2.69383 0
M  V30 6049 H 551.958 5.96065 -1.13098 0
M  V30 6050 H 550.697 4.84832 -0.528175 0
M  V30 6051 H 549.702 4.71423 -2.82913 0
M  V30 6052 H 550.927 5.861 -3.43022 0
M  V30 6053 H 548.873 6.43756 -1.26153 0
M  V30 6054 H 548.79 6.97927 -2.90574 0
M  V30 6055 H 550.058 7.5669 -1.87191 0
M  V30 6056 N 554.287 1.06798 1.15896 0
M  V30 6057 C 555.536 0.782796 1.8589 0
M  V30 6058 C 555.849 -0.693498 1.82893 0
M  V30 6059 O 557.055 -1.09325 2.48516 0
M  V30 6060 C 555.511 1.3502 3.33613 0
M  V30 6061 C 555.119 2.8571 3.45071 0
M  V30 6062 C 556.863 1.14278 4.08829 0
M  V30 6063 C 554.77 3.35669 4.86909 0
M  V30 6064 H 553.7 0.289149 0.696354 0
M  V30 6065 H 556.351 1.28734 1.30766 0
M  V30 6066 H 554.733 0.773407 3.88374 0
M  V30 6067 H 555.907 3.49385 3.00445 0
M  V30 6068 H 554.222 3.05178 2.83294 0
M  V30 6069 H 556.819 1.49087 5.13495 0
M  V30 6070 H 557.162 0.0814575 4.1622 0
M  V30 6071 H 557.695 1.68563 3.60321 0
M  V30 6072 H 554.434 4.41302 4.84698 0
M  V30 6073 H 553.954 2.76745 5.32139 0
M  V30 6074 H 555.633 3.31296 5.55745 0
M  V30 6075 N 555.766 -1.3263 0.851289 0
M  V30 6076 C 556.996 -2.01271 0.466222 0
M  V30 6077 C 557.404 -1.64156 -0.940714 0
M  V30 6078 O 556.747 -0.857109 -1.62479 0
M  V30 6079 C 556.809 -3.55695 0.521672 0
M  V30 6080 C 556.473 -4.16227 1.88691 0
M  V30 6081 C 557.47 -4.34699 2.85189 0
M  V30 6082 C 555.155 -4.52377 2.18313 0
M  V30 6083 C 557.149 -4.88484 4.09465 0
M  V30 6084 C 554.836 -5.05868 3.42843 0
M  V30 6085 C 555.834 -5.23869 4.38235 0
M  V30 6086 O 555.522 -5.76218 5.6056 0
M  V30 6087 H 555.254 -0.651034 0.18202 0
M  V30 6088 H 557.808 -1.7026 1.14894 0
M  V30 6089 H 556.038 -3.86086 -0.217888 0
M  V30 6090 H 557.727 -4.05613 0.152682 0
M  V30 6091 H 558.493 -4.07107 2.63607 0
M  V30 6092 H 554.372 -4.37652 1.44851 0
M  V30 6093 H 557.916 -5.02451 4.83931 0
M  V30 6094 H 553.813 -5.32891 3.64277 0
M  V30 6095 H 554.581 -5.94616 5.62471 0
M  V30 6096 N 557.244 -0.608902 -1.45362 0
M  V30 6097 C 558.66 -0.272659 -1.57254 0
M  V30 6098 C 558.86 1.22477 -1.60005 0
M  V30 6099 O 557.916 2.00785 -1.53106 0
M  V30 6100 C 559.229 -0.944991 -2.85465 0
M  V30 6101 C 560.777 -0.921033 -2.99142 0
M  V30 6102 C 561.252 -1.5734 -4.30126 0
M  V30 6103 N 562.743 -1.53895 -4.36887 0
M  V30 6104 C 563.478 -2.01286 -5.36909 0
M  V30 6105 N 562.974 -2.56768 -6.43461 0
M  V30 6106 N 564.767 -1.92046 -5.28275 0
M  V30 6107 H 556.918 -1.58117 -1.4182 0
M  V30 6108 H 559.181 -0.662437 -0.678146 0
M  V30 6109 H 558.887 -1.99941 -2.89338 0
M  V30 6110 H 558.761 -0.469079 -3.74272 0
M  V30 6111 H 561.148 0.124846 -2.94836 0
M  V30 6112 H 561.229 -1.43522 -2.11743 0
M  V30 6113 H 560.873 -2.61862 -4.35191 0
M  V30 6114 H 560.803 -1.03422 -5.16344 0
M  V30 6115 H 563.294 -1.13366 -3.60495 0
M  V30 6116 H 563.607 -2.9072 -7.16032 0
M  V30 6117 H 561.952 -2.60808 -6.44208 0
M  V30 6118 H 565.143 -1.48439 -4.43941 0
M  V30 6119 H 565.316 -2.29293 -6.06077 0
M  V30 6120 N 558.722 1.53707 -0.348139 0
M  V30 6121 C 560.138 1.596 0.00361134 0
M  V30 6122 C 560.338 1.36394 1.4832 0
M  V30 6123 O 559.394 1.16046 2.24253 0
M  V30 6124 C 560.707 2.97512 -0.436682 0
M  V30 6125 C 562.255 3.10568 -0.389416 0
M  V30 6126 C 562.73 4.50866 -0.805249 0
M  V30 6127 N 564.221 4.56929 -0.759616 0
M  V30 6128 C 564.956 5.63643 -1.05327 0
M  V30 6129 N 564.452 6.78189 -1.41531 0
M  V30 6130 N 566.245 5.5354 -0.977207 0
M  V30 6131 H 558.396 1.67044 -1.31187 0
M  V30 6132 H 560.659 0.782559 -0.535075 0
M  V30 6133 H 560.365 3.19575 -1.46849 0
M  V30 6134 H 560.239 3.76742 0.185744 0
M  V30 6135 H 562.626 2.88226 0.633228 0
M  V30 6136 H 562.707 2.33387 -1.04711 0
M  V30 6137 H 562.351 4.73943 -1.82593 0
M  V30 6138 H 562.281 5.26452 -0.124989 0
M  V30 6139 H 564.772 3.74675 -0.49265 0
M  V30 6140 H 565.085 7.55541 -1.62411 0
M  V30 6141 H 563.43 6.79624 -1.45381 0
M  V30 6142 H 566.621 4.62932 -0.693675 0
M  V30 6143 H 566.794 6.36614 -1.2094 0
M  V30 6144 N 560.2 0.0768682 1.57412 0
M  V30 6145 C 561.163 -0.873949 2.11884 0
M  V30 6146 C 562.163 -1.22301 1.04398 0
M  V30 6147 O 563.353 -1.15545 1.30365 0
M  V30 6148 C 560.485 -2.17575 2.62438 0
M  V30 6149 H 561.678 -0.401278 2.97203 0
M  V30 6150 H 559.231 -0.171904 1.55352 0
M  V30 6151 H 559.966 -2.69368 1.80587 0
M  V30 6152 H 559.751 -1.93534 3.41009 0
M  V30 6153 H 561.241 -2.85631 3.04639 0
M  V30 6154 N 561.678 -1.56367 -0.196722 0
M  V30 6155 C 562.925 -1.80529 -0.917366 0
M  V30 6156 C 563.253 -0.649817 -1.83324 0
M  V30 6157 O 562.508 0.36451 -1.92275 0
M  V30 6158 C 562.807 -3.10663 -1.767 0
M  V30 6159 C 562.473 -4.3962 -1.00225 0
M  V30 6160 C 561.135 -4.74653 -0.791095 0
M  V30 6161 C 563.487 -5.1913 -0.464035 0
M  V30 6162 C 560.815 -5.86692 -0.0302155 0
M  V30 6163 C 563.167 -6.31964 0.283625 0
M  V30 6164 C 561.831 -6.65581 0.505813 0
M  V30 6165 H 561.101 -0.660602 -0.335688 0
M  V30 6166 H 563.748 -1.90615 -0.183844 0
M  V30 6167 H 562.053 -2.95807 -2.56915 0
M  V30 6168 H 563.75 -3.26563 -2.32718 0
M  V30 6169 H 560.34 -4.12127 -1.17684 0
M  V30 6170 H 564.524 -4.9248 -0.614575 0
M  V30 6171 H 559.78 -6.11211 0.151917 0
M  V30 6172 H 563.954 -6.92791 0.708057 0
M  V30 6173 H 561.581 -7.52239 1.0973 0
M  V30 6174 N 563.156 0.464375 -1.50603 0
M  V30 6175 C 564.381 1.24372 -1.65971 0
M  V30 6176 C 564.806 1.84901 -0.345453 0
M  V30 6177 O 564.164 1.67596 0.691457 0
M  V30 6178 C 564.212 2.32331 -2.7578 0
M  V30 6179 O 563.316 3.37146 -2.375 0
M  V30 6180 H 562.657 0.365604 -0.554283 0
M  V30 6181 H 565.187 0.55183 -1.97018 0
M  V30 6182 H 565.197 2.77539 -2.99059 0
M  V30 6183 H 563.872 1.87648 -3.71162 0
M  V30 6184 H 562.449 2.97602 -2.24694 0
M  V30 6185 N 564.634 1.40294 0.718013 0
M  V30 6186 C 565.581 1.40367 1.8321 0
M  V30 6187 C 566.551 0.260952 1.64037 0
M  V30 6188 O 567.736 0.458648 1.85205 0
M  V30 6189 C 564.876 1.26965 3.20895 0
M  V30 6190 C 563.989 2.50922 3.51656 0
M  V30 6191 C 563.124 2.29981 4.78834 0
M  V30 6192 C 562.163 3.49527 5.02491 0
M  V30 6193 N 561.3 3.27796 6.20882 0
M  V30 6194 H 566.14 2.35593 1.82482 0
M  V30 6195 H 563.677 1.17012 0.891444 0
M  V30 6196 H 565.635 1.17202 4.00399 0
M  V30 6197 H 564.265 0.353591 3.20858 0
M  V30 6198 H 563.317 2.71223 2.66725 0
M  V30 6199 H 564.629 3.39913 3.65048 0
M  V30 6200 H 563.783 2.17558 5.66351 0
M  V30 6201 H 562.522 1.38411 4.67647 0
M  V30 6202 H 561.527 3.6243 4.1343 0
M  V30 6203 H 562.752 4.42021 5.15553 0
M  V30 6204 H 560.698 2.38906 6.1095 0
M  V30 6205 H 560.615 4.10351 6.34939 0
M  V30 6206 H 561.883 3.19101 7.11193 0
M  V30 6207 N 566.112 -0.949982 1.2575 0
M  V30 6208 C 567.342 -1.72721 1.13363 0
M  V30 6209 C 567.75 -1.86562 -0.314842 0
M  V30 6210 O 567.093 -1.36621 -1.22803 0
M  V30 6211 C 567.155 -3.15695 1.7198 0
M  V30 6212 C 566.819 -3.25268 3.21014 0
M  V30 6213 C 567.816 -3.09222 4.17945 0
M  V30 6214 C 565.501 -3.4894 3.61312 0
M  V30 6215 C 567.495 -3.16701 5.53154 0
M  V30 6216 C 565.182 -3.56055 4.96657 0
M  V30 6217 C 566.18 -3.3995 5.92387 0
M  V30 6218 O 565.868 -3.46757 7.25269 0
M  V30 6219 H 565.6 -0.547888 0.395973 0
M  V30 6220 H 568.154 -1.20009 1.66694 0
M  V30 6221 H 566.384 -3.69791 1.13101 0
M  V30 6222 H 568.073 -3.75295 1.54624 0
M  V30 6223 H 568.839 -2.90798 3.88151 0
M  V30 6224 H 564.718 -3.60534 2.87291 0
M  V30 6225 H 568.262 -3.04048 6.27854 0
M  V30 6226 H 564.159 -3.73997 5.26115 0
M  V30 6227 H 564.927 -3.63358 7.33426 0
M  V30 6228 N 567.59 -1.07411 -1.15328 0
M  V30 6229 C 568.52 -0.716472 -2.22236 0
M  V30 6230 C 569.501 0.296373 -1.67498 0
M  V30 6231 O 570.686 0.168989 -1.93463 0
M  V30 6232 C 567.816 -0.114142 -3.47112 0
M  V30 6233 C 566.77 -1.05421 -4.14814 0
M  V30 6234 C 566.096 -0.314604 -5.33774 0
M  V30 6235 C 567.396 -2.38808 -4.64508 0
M  V30 6236 H 569.09 -1.61029 -2.52408 0
M  V30 6237 H 566.636 -0.775702 -1.21321 0
M  V30 6238 H 568.589 0.148001 -4.2114 0
M  V30 6239 H 567.313 0.814755 -3.16274 0
M  V30 6240 H 565.972 -1.30128 -3.42728 0
M  V30 6241 H 565.62 0.617772 -4.99192 0
M  V30 6242 H 565.32 -0.941209 -5.80013 0
M  V30 6243 H 566.844 -0.0602747 -6.1057 0
M  V30 6244 H 568.258 -2.18424 -5.3006 0
M  V30 6245 H 566.655 -2.97069 -5.21412 0
M  V30 6246 H 567.725 -3.01067 -3.80114 0
M  V30 6247 N 569.068 1.32177 -0.85831 0
M  V30 6248 C 570.484 1.49873 -0.548656 0
M  V30 6249 C 570.684 1.79278 0.919874 0
M  V30 6250 O 569.74 1.86451 1.70271 0
M  V30 6251 C 571.053 2.64043 -1.4388 0
M  V30 6252 C 572.601 2.77928 -1.43961 0
M  V30 6253 C 573.076 3.95182 -2.31506 0
M  V30 6254 N 574.567 4.0245 -2.29321 0
M  V30 6255 C 575.302 4.9242 -2.93786 0
M  V30 6256 N 574.798 5.87373 -3.67376 0
M  V30 6257 N 576.591 4.85572 -2.83155 0
M  V30 6258 H 568.742 1.11357 -1.80868 0
M  V30 6259 H 571.005 0.549175 -0.772729 0
M  V30 6260 H 570.711 2.49055 -2.48324 0
M  V30 6261 H 570.585 3.59912 -1.12885 0
M  V30 6262 H 572.972 2.92338 -0.402813 0
M  V30 6263 H 573.053 1.82762 -1.78974 0
M  V30 6264 H 572.697 3.81531 -3.35256 0
M  V30 6265 H 572.627 4.89633 -1.93823 0
M  V30 6266 H 575.118 3.34507 -1.75822 0
M  V30 6267 H 575.431 6.52728 -4.13722 0
M  V30 6268 H 573.776 5.87388 -3.71484 0
M  V30 6269 H 576.967 4.10363 -2.25211 0
M  V30 6270 H 577.14 5.55486 -3.33676 0
M  V30 6271 N 570.547 0.616602 1.45037 0
M  V30 6272 C 571.787 0.118453 2.04056 0
M  V30 6273 C 572.151 -1.23104 1.47341 0
M  V30 6274 O 573.352 -1.82044 1.97771 0
M  V30 6275 C 571.623 0.0892842 3.57288 0
M  V30 6276 S 573.182 -0.346361 4.37431 0
M  V30 6277 H 570 0.0539728 0.708948 0
M  V30 6278 H 572.602 0.816731 1.77623 0
M  V30 6279 H 571.306 1.07481 3.96076 0
M  V30 6280 H 570.837 -0.630703 3.88311 0
M  V30 6281 H 572.852 -1.59389 4.69904 0
M  V30 6282 N 572.025 -1.5352 0.356285 0
M  V30 6283 C 573.302 -1.93405 -0.292223 0
M  V30 6284 C 573.682 -1.28901 -1.67176 0
M  V30 6285 O 573.03 -0.444632 -2.24132 0
M  V30 6286 C 573.24 -3.47223 -0.35175 0
M  V30 6287 C 574.588 -4.20389 -0.596534 0
M  V30 6288 O 575.612 -3.53554 -0.433344 0
M  V30 6289 O 574.471 -5.3881 -0.913589 0
M  V30 6290 H 571.565 -0.808666 -0.173172 0
M  V30 6291 H 574.111 -1.64713 0.408391 0
M  V30 6292 H 572.883 -3.86423 0.615841 0
M  V30 6293 H 572.506 -3.8212 -1.09864 0
M  V30 6294 N 573.503 -0.0852151 -1.57369 0
M  V30 6295 C 574.733 0.588605 -1.98038 0
M  V30 6296 C 575.141 1.62869 -0.962817 0
M  V30 6297 O 574.484 1.83611 0.057134 0
M  V30 6298 C 574.546 1.30303 -3.35054 0
M  V30 6299 C 574.21 0.414855 -4.55113 0
M  V30 6300 C 575.207 -0.333011 -5.18832 0
M  V30 6301 C 572.892 0.335804 -5.01176 0
M  V30 6302 C 574.886 -1.14801 -6.26976 0
M  V30 6303 C 572.573 -0.482857 -6.09189 0
M  V30 6304 C 573.571 -1.22342 -6.71953 0
M  V30 6305 O 573.259 -2.02855 -7.77885 0
M  V30 6306 H 572.991 0.163249 -0.655992 0
M  V30 6307 H 575.545 -0.1582 -2.0479 0
M  V30 6308 H 573.775 2.0962 -3.24956 0
M  V30 6309 H 575.464 1.87041 -3.60237 0
M  V30 6310 H 576.23 -0.281611 -4.84182 0
M  V30 6311 H 572.109 0.901869 -4.52092 0
M  V30 6312 H 575.653 -1.72654 -6.75897 0
M  V30 6313 H 571.55 -0.535773 -6.43273 0
M  V30 6314 H 572.318 -1.95432 -7.94826 0
M  V30 6315 N 574.981 1.5647 0.188427 0
M  V30 6316 C 575.928 1.95073 1.23349 0
M  V30 6317 C 576.898 0.812238 1.44886 0
M  V30 6318 O 578.083 1.07095 1.57909 0
M  V30 6319 C 575.223 2.30124 2.57171 0
M  V30 6320 C 574.336 3.57069 2.43157 0
M  V30 6321 C 573.471 3.81411 3.69729 0
M  V30 6322 C 572.51 5.0176 3.50575 0
M  V30 6323 N 571.647 5.22321 4.69175 0
M  V30 6324 H 576.487 2.84171 0.89728 0
M  V30 6325 H 574.024 1.40623 0.431683 0
M  V30 6326 H 575.982 2.48463 3.35145 0
M  V30 6327 H 574.612 1.44159 2.88822 0
M  V30 6328 H 573.664 3.4674 1.56447 0
M  V30 6329 H 574.976 4.452 2.24942 0
M  V30 6330 H 574.13 4.00026 4.56141 0
M  V30 6331 H 572.869 2.91624 3.90905 0
M  V30 6332 H 571.874 4.83061 2.62549 0
M  V30 6333 H 573.099 5.93063 3.30837 0
M  V30 6334 H 571.045 4.35483 4.90602 0
M  V30 6335 H 570.962 6.04643 4.53809 0
M  V30 6336 H 572.23 5.45401 5.56919 0
M  V30 6337 N 576.459 -0.456382 1.50847 0
M  V30 6338 C 577.87 -1.03685 1.55262 0
M  V30 6339 C 578.221 -1.92779 0.364771 0
M  V30 6340 O 577.346 -2.10043 -0.52068 0
M  V30 6341 C 577.941 -1.88718 2.81374 0
M  V30 6342 C 576.5 -2.41847 2.88422 0
M  V30 6343 C 575.647 -1.20564 2.49719 0
M  V30 6344 H 578.598 -0.238399 1.56899 0
M  V30 6345 H 578.619 -2.73957 2.6406 0
M  V30 6346 H 578.131 -1.23847 3.67809 0
M  V30 6347 H 576.232 -3.10228 2.06372 0
M  V30 6348 H 576.345 -2.75947 3.9165 0
M  V30 6349 H 574.709 -1.54504 2.02486 0
M  V30 6350 H 575.492 -0.573326 3.38479 0
M  V30 6351 N 577.937 -1.40673 -0.710563 0
M  V30 6352 C 579.214 -1.29718 -1.46398 0
M  V30 6353 C 579.594 0.082177 -2.1094 0
M  V30 6354 O 578.942 1.09536 -2.00534 0
M  V30 6355 C 579.152 -2.43967 -2.49562 0
M  V30 6356 C 580.5 -2.84436 -3.15248 0
M  V30 6357 O 581.524 -2.43597 -2.59883 0
M  V30 6358 O 580.383 -3.55008 -4.1549 0
M  V30 6359 H 577.477 -0.509697 -0.651258 0
M  V30 6360 H 580.023 -1.52603 -0.742312 0
M  V30 6361 H 578.795 -3.36076 -2.0042 0
M  V30 6362 H 578.418 -2.22879 -3.29258 0
M  V30 6363 N 579.415 0.9433 -1.26252 0
M  V30 6364 C 580.362 2.0417 -1.07625 0
M  V30 6365 C 581.332 1.6609 0.0180738 0
M  V30 6366 O 582.517 1.90276 -0.141289 0
M  V30 6367 C 579.657 3.37653 -0.713043 0
M  V30 6368 C 578.77 3.88783 -1.8834 0
M  V30 6369 C 577.905 5.10642 -1.4635 0
M  V30 6370 C 576.944 5.54028 -2.60229 0
M  V30 6371 N 576.081 6.67092 -2.18936 0
M  V30 6372 H 580.921 2.19436 -2.01623 0
M  V30 6373 H 578.458 1.07519 -1.00389 0
M  V30 6374 H 580.416 4.14391 -0.483358 0
M  V30 6375 H 579.046 3.22241 0.18996 0
M  V30 6376 H 578.098 3.08464 -2.22608 0
M  V30 6377 H 579.41 4.16922 -2.73821 0
M  V30 6378 H 578.564 5.94832 -1.19414 0
M  V30 6379 H 577.303 4.84244 -0.579568 0
M  V30 6380 H 576.308 4.68396 -2.87898 0
M  V30 6381 H 577.533 5.82429 -3.49219 0
M  V30 6382 H 575.479 6.42381 -1.32974 0
M  V30 6383 H 575.396 6.94806 -2.97961 0
M  V30 6384 H 576.664 7.54662 -1.95206 0
M  V30 6385 N 580.893 1.08022 1.14757 0
M  V30 6386 C 581.84 0.706657 2.19716 0
M  V30 6387 C 582.81 -0.30525 1.63271 0
M  V30 6388 O 583.995 -0.19015 1.8985 0
M  V30 6389 C 581.135 0.117914 3.44898 0
M  V30 6390 C 580.248 1.18212 4.15512 0
M  V30 6391 C 579.383 0.557659 5.28265 0
M  V30 6392 C 578.422 1.60418 5.90705 0
M  V30 6393 N 577.559 1.0018 6.94916 0
M  V30 6394 H 582.399 1.60603 2.51019 0
M  V30 6395 H 579.936 0.802664 1.23271 0
M  V30 6396 H 581.894 -0.241112 4.16503 0
M  V30 6397 H 580.524 -0.744788 3.1409 0
M  V30 6398 H 579.576 1.65863 3.42335 0
M  V30 6399 H 580.888 1.97533 4.5802 0
M  V30 6400 H 580.042 0.146654 6.06523 0
M  V30 6401 H 578.781 -0.267249 4.86967 0
M  V30 6402 H 577.786 2.02489 5.11154 0
M  V30 6403 H 579.011 2.43149 6.34078 0
M  V30 6404 H 576.957 0.197917 6.55701 0
M  V30 6405 H 576.874 1.73216 7.35889 0
M  V30 6406 H 578.142 0.616523 7.77058 0
M  V30 6407 N 582.371 -1.3172 0.865308 0
M  V30 6408 C 583.782 -1.79104 0.527126 0
M  V30 6409 C 584.133 -1.7135 -0.955695 0
M  V30 6410 O 583.258 -1.27845 -1.74598 0
M  V30 6411 C 583.853 -3.25207 0.950061 0
M  V30 6412 C 582.412 -3.70504 0.663611 0
M  V30 6413 C 581.559 -2.52605 1.14395 0
M  V30 6414 H 584.51 -1.18868 1.05148 0
M  V30 6415 H 584.531 -3.79535 0.270805 0
M  V30 6416 H 584.043 -3.30818 2.02931 0
M  V30 6417 H 582.144 -3.70398 -0.404474 0
M  V30 6418 H 582.257 -4.62845 1.23737 0
M  V30 6419 H 580.621 -2.4838 0.563859 0
M  V30 6420 H 581.404 -2.60964 2.23053 0
M  V30 6421 N 583.85 -0.624285 -1.44708 0
M  V30 6422 C 585.26 -0.2092 -1.85524 0
M  V30 6423 C 585.611 1.23783 -1.52225 0
M  V30 6424 O 584.736 1.94089 -0.956986 0
M  V30 6425 C 585.332 -0.372897 -3.36742 0
M  V30 6426 C 583.891 -0.012374 -3.76398 0
M  V30 6427 C 583.038 -0.68951 -2.68591 0
M  V30 6428 H 585.989 -0.829894 -1.35272 0
M  V30 6429 H 586.01 0.390134 -3.78495 0
M  V30 6430 H 585.522 -1.42615 -3.60947 0
M  V30 6431 H 583.623 1.03941 -3.57809 0
M  V30 6432 H 583.736 -0.417663 -4.77276 0
M  V30 6433 H 582.1 -0.125484 -2.54391 0
M  V30 6434 H 582.883 -1.74522 -2.9563 0
M  V30 6435 N 585.328 1.53329 -0.364422 0
M  V30 6436 C 586.574 2.01537 0.225969 0
M  V30 6437 C 586.907 1.25128 1.48515 0
M  V30 6438 O 586.182 0.344653 1.91422 0
M  V30 6439 C 586.465 3.56339 0.519092 0
M  V30 6440 C 586.318 4.43441 -0.753639 0
M  V30 6441 C 587.637 4.19833 1.32015 0
M  V30 6442 H 584.756 0.732573 0.0806548 0
M  V30 6443 H 587.398 1.83597 -0.489084 0
M  V30 6444 H 585.548 3.71756 1.12825 0
M  V30 6445 H 587.22 4.39823 -1.39116 0
M  V30 6446 H 585.463 4.11457 -1.37424 0
M  V30 6447 H 586.134 5.49699 -0.503517 0
M  V30 6448 H 588.61 4.08242 0.804859 0
M  V30 6449 H 587.486 5.28177 1.49399 0
M  V30 6450 H 587.747 3.75821 2.32832 0
M  V30 6451 N 586.806 0.0935595 1.57322 0
M  V30 6452 C 588.222 -0.263091 1.57417 0
M  V30 6453 C 588.422 -1.68526 1.1046 0
M  V30 6454 O 587.478 -2.40139 0.780357 0
M  V30 6455 C 588.791 -0.0529201 3.00653 0
M  V30 6456 C 590.339 -0.120788 3.12767 0
M  V30 6457 C 590.814 0.0613707 4.57959 0
M  V30 6458 N 592.305 0.00648534 4.632 0
M  V30 6459 C 593.04 0.122699 5.73269 0
M  V30 6460 N 592.536 0.29366 6.92177 0
M  V30 6461 N 594.329 0.0640787 5.62063 0
M  V30 6462 H 586.48 1.02277 1.86154 0
M  V30 6463 H 588.743 0.4007 0.859153 0
M  V30 6464 H 588.449 0.929279 3.39201 0
M  V30 6465 H 588.323 -0.795899 3.68708 0
M  V30 6466 H 590.71 -1.09349 2.74093 0
M  V30 6467 H 590.791 0.653656 2.47307 0
M  V30 6468 H 590.435 1.03093 4.97327 0
M  V30 6469 H 590.365 -0.732748 5.21477 0
M  V30 6470 H 592.856 -0.123173 3.77699 0
M  V30 6471 H 593.169 0.37389 7.71895 0
M  V30 6472 H 591.514 0.329307 6.94219 0
M  V30 6473 H 594.705 -0.0683396 4.6805 0
M  V30 6474 H 594.878 0.158097 6.47807 0
M  V30 6475 N 588.284 -1.56567 -0.180126 0
M  V30 6476 C 589.216 -1.92275 -1.24751 0
M  V30 6477 C 590.229 -0.814922 -1.40936 0
M  V30 6478 O 591.418 -1.09336 -1.41095 0
M  V30 6479 C 588.518 -2.15265 -2.61752 0
M  V30 6480 C 587.691 -3.46467 -2.66981 0
M  V30 6481 C 586.75 -3.58391 -3.85283 0
M  V30 6482 O 585.776 -4.31086 -3.7169 0
M  V30 6483 N 586.978 -2.92587 -5.01371 0
M  V30 6484 H 589.743 -2.84435 -0.944302 0
M  V30 6485 H 587.304 -1.57617 -0.369952 0
M  V30 6486 H 589.296 -2.20515 -3.39345 0
M  V30 6487 H 587.866 -1.29533 -2.845 0
M  V30 6488 H 587.086 -3.52953 -1.75549 0
M  V30 6489 H 588.374 -4.32819 -2.67479 0
M  V30 6490 H 587.772 -2.3338 -5.15316 0
M  V30 6491 H 586.329 -3.03444 -5.76858 0
M  V30 6492 N 589.762 0.448376 -1.51087 0
M  V30 6493 C 591.011 1.19561 -1.62444 0
M  V30 6494 C 591.324 1.92602 -0.341151 0
M  V30 6495 O 592.53 2.69439 -0.333936 0
M  V30 6496 C 590.986 2.17373 -2.8684 0
M  V30 6497 C 590.594 1.5003 -4.22131 0
M  V30 6498 C 592.338 2.92597 -3.0755 0
M  V30 6499 C 590.245 2.46262 -5.37689 0
M  V30 6500 H 589.175 0.449975 -0.605011 0
M  V30 6501 H 591.826 0.463735 -1.77544 0
M  V30 6502 H 590.208 2.93948 -2.65349 0
M  V30 6503 H 591.382 0.790886 -4.53962 0
M  V30 6504 H 589.697 0.870011 -4.0721 0
M  V30 6505 H 592.294 3.64663 -3.91056 0
M  V30 6506 H 592.637 3.53306 -2.20183 0
M  V30 6507 H 593.17 2.23131 -3.29329 0
M  V30 6508 H 589.909 1.90258 -6.27281 0
M  V30 6509 H 589.429 3.15289 -5.10248 0
M  V30 6510 H 591.108 3.07623 -5.6919 0
M  V30 6511 N 591.24 1.41047 0.703093 0
M  V30 6512 C 592.651 1.35657 1.28274 0
M  V30 6513 C 593.002 0.0360309 1.96167 0
M  V30 6514 O 592.127 -0.865833 1.98324 0
M  V30 6515 C 592.722 2.45707 2.33267 0
M  V30 6516 C 591.281 2.43738 2.86825 0
M  V30 6517 C 590.428 2.25941 1.60767 0
M  V30 6518 H 593.379 1.50672 0.49836 0
M  V30 6519 H 593.4 2.14333 3.14391 0
M  V30 6520 H 592.912 3.41805 1.83824 0
M  V30 6521 H 591.013 1.51375 3.40465 0
M  V30 6522 H 591.126 3.39779 3.37768 0
M  V30 6523 H 589.49 1.73681 1.86298 0
M  V30 6524 H 590.273 3.24054 1.1333 0
M  V30 6525 N 592.718 -0.936591 1.26751 0
M  V30 6526 C 594.134 -1.21095 1.03963 0
M  V30 6527 C 594.334 -2.00156 -0.232372 0
M  V30 6528 O 593.39 -2.3434 -0.940274 0
M  V30 6529 C 594.703 -1.96775 2.27377 0
M  V30 6530 C 596.251 -2.09749 2.32324 0
M  V30 6531 C 596.726 -2.88832 3.55443 0
M  V30 6532 N 598.217 -2.96404 3.55948 0
M  V30 6533 C 598.952 -3.58036 4.47881 0
M  V30 6534 N 598.448 -4.21132 5.50109 0
M  V30 6535 N 600.241 -3.55353 4.35523 0
M  V30 6536 H 592.392 -0.408173 2.08441 0
M  V30 6537 H 594.655 -0.243139 0.91629 0
M  V30 6538 H 594.361 -1.46094 3.19921 0
M  V30 6539 H 594.235 -2.97424 2.31989 0
M  V30 6540 H 596.622 -2.5962 1.40291 0
M  V30 6541 H 596.703 -1.08347 2.31721 0
M  V30 6542 H 596.347 -2.39647 4.47808 0
M  V30 6543 H 596.277 -3.90499 3.53296 0
M  V30 6544 H 598.768 -2.51552 2.82011 0
M  V30 6545 H 599.081 -4.66071 6.16439 0
M  V30 6546 H 597.426 -4.19705 5.53961 0
M  V30 6547 H 600.617 -3.05256 3.54875 0
M  V30 6548 H 600.79 -4.03097 5.07363 0
M  V30 6549 N 594.196 -1.08629 -1.14182 0
M  V30 6550 C 595.442 -0.818556 -1.85546 0
M  V30 6551 C 595.775 0.654076 -1.82854 0
M  V30 6552 O 595.05 1.48099 -1.26083 0
M  V30 6553 C 595.333 -1.34397 -3.3408 0
M  V30 6554 C 595.186 -2.8821 -3.45333 0
M  V30 6555 C 596.505 -0.971069 -4.29253 0
M  V30 6556 H 593.624 -0.298821 -0.673702 0
M  V30 6557 H 596.266 -1.34629 -1.34071 0
M  V30 6558 H 594.416 -0.895064 -3.78049 0
M  V30 6559 H 596.088 -3.41488 -3.10134 0
M  V30 6560 H 594.331 -3.25756 -2.86471 0
M  V30 6561 H 595.002 -3.20047 -4.49749 0
M  V30 6562 H 597.478 -1.35809 -3.93313 0
M  V30 6563 H 596.354 -1.36586 -5.31635 0
M  V30 6564 H 596.615 0.121659 -4.41933 0
M  V30 6565 N 595.674 1.31259 -0.872281 0
M  V30 6566 C 596.637 2.26744 -0.334656 0
M  V30 6567 C 597.637 1.52307 0.515681 0
M  V30 6568 O 598.827 1.71148 0.324656 0
M  V30 6569 C 595.959 3.36841 0.524482 0
M  V30 6570 H 597.152 2.75812 -1.17762 0
M  V30 6571 H 594.705 1.42232 -0.648064 0
M  V30 6572 H 595.44 2.93069 1.38855 0
M  V30 6573 H 595.225 3.92009 -0.0844299 0
M  V30 6574 H 596.715 4.07944 0.892838 0
M  V30 6575 N 597.152 0.631951 1.44375 0
M  V30 6576 C 598.115 -0.0628142 2.29114 0
M  V30 6577 C 599.115 -0.771494 1.41084 0
M  V30 6578 O 600.305 -0.615959 1.62947 0
M  V30 6579 C 597.437 -1.09953 3.22681 0
M  V30 6580 H 598.63 0.682509 2.92031 0
M  V30 6581 H 596.183 0.392128 1.51301 0
M  V30 6582 H 596.918 -1.87481 2.64616 0
M  V30 6583 H 596.703 -0.595286 3.87555 0
M  V30 6584 H 598.193 -1.58538 3.86336 0
M  V30 6585 N 598.631 -1.53133 0.372548 0
M  V30 6586 C 599.859 -2.05774 -0.215515 0
M  V30 6587 C 600.274 -1.24555 -1.41886 0
M  V30 6588 O 599.631 -0.287951 -1.80214 0
M  V30 6589 C 599.682 -3.5645 -0.602161 0
M  V30 6590 O 599.403 -4.34591 0.553359 0
M  V30 6591 C 600.904 -4.25374 -1.24787 0
M  V30 6592 H 598.124 -0.670009 -0.0364529 0
M  V30 6593 H 600.668 -1.97434 0.532934 0
M  V30 6594 H 598.823 -3.64918 -1.30052 0
M  V30 6595 H 599.237 -5.23954 0.239336 0
M  V30 6596 H 600.711 -5.32097 -1.46891 0
M  V30 6597 H 601.188 -3.79531 -2.21026 0
M  V30 6598 H 601.794 -4.21177 -0.590752 0
M  V30 6599 N 600.109 -0.101901 -1.5727 0
M  V30 6600 C 601.072 0.840129 -2.13247 0
M  V30 6601 C 602.072 1.20625 -1.06331 0
M  V30 6602 O 603.262 1.13456 -1.32186 0
M  V30 6603 C 600.394 2.13372 -2.65867 0
M  V30 6604 H 601.587 0.353945 -2.97804 0
M  V30 6605 H 599.14 0.147167 -1.55606 0
M  V30 6606 H 599.875 2.66461 -1.84849 0
M  V30 6607 H 599.66 1.88085 -3.44044 0
M  V30 6608 H 601.15 2.80748 -3.09145 0
M  V30 6609 N 601.587 1.56661 0.17182 0
M  V30 6610 C 602.517 1.99401 1.21498 0
M  V30 6611 C 603.498 0.869516 1.46197 0
M  V30 6612 O 604.683 1.13556 1.57539 0
M  V30 6613 C 601.813 2.35346 2.55401 0
M  V30 6614 C 600.767 3.5075 2.45272 0
M  V30 6615 C 600.093 3.72437 3.8366 0
M  V30 6616 C 601.393 4.84216 1.95787 0
M  V30 6617 H 603.087 2.86792 0.859699 0
M  V30 6618 H 600.633 1.37977 0.412103 0
M  V30 6619 H 602.586 2.63843 3.2858 0
M  V30 6620 H 601.31 1.44864 2.92715 0
M  V30 6621 H 599.969 3.2238 1.74547 0
M  V30 6622 H 599.617 2.79246 4.18367 0
M  V30 6623 H 599.317 4.50087 3.77751 0
M  V30 6624 H 600.841 4.03334 4.58426 0
M  V30 6625 H 602.255 5.11592 2.5874 0
M  V30 6626 H 600.652 5.65498 2.00827 0
M  V30 6627 H 601.722 4.76243 0.912159 0
M  V30 6628 N 603.065 -0.440357 1.51323 0
M  V30 6629 C 604.29 -1.21716 1.67928 0
M  V30 6630 C 604.715 -1.84328 0.374826 0
M  V30 6631 O 604.073 -1.68675 -0.664706 0
M  V30 6632 C 604.121 -2.27914 2.79442 0
M  V30 6633 O 603.225 -3.33325 2.42834 0
M  V30 6634 H 602.566 -0.35674 0.560029 0
M  V30 6635 H 605.096 -0.520417 1.97871 0
M  V30 6636 H 605.106 -2.72746 3.03436 0
M  V30 6637 H 603.781 -1.8172 3.741 0
M  V30 6638 H 602.358 -2.9399 2.294 0
M  V30 6639 N 604.543 -1.41418 -0.695603 0
M  V30 6640 C 605.791 -1.40496 -1.45277 0
M  V30 6641 C 606.112 -0.0149538 -1.94994 0
M  V30 6642 O 605.382 0.9432 -1.71699 0
M  V30 6643 H 603.962 -0.517147 -0.539044 0
M  V30 6644 H 606.624 -1.76656 -0.823321 0
M  V30 6645 H 605.72 -2.09214 -2.31595 0
M  V30 6646 N 606.021 0.929856 -1.27246 0
M  V30 6647 C 607.437 1.20542 -1.04603 0
M  V30 6648 C 607.637 2.00276 0.221754 0
M  V30 6649 O 606.693 2.34835 0.927833 0
M  V30 6650 C 608.006 1.95566 -2.28417 0
M  V30 6651 C 609.554 2.08513 -2.33433 0
M  V30 6652 C 610.029 2.86943 -3.5697 0
M  V30 6653 N 611.52 2.94512 -3.57515 0
M  V30 6654 C 612.255 3.55656 -4.49774 0
M  V30 6655 N 611.751 4.18209 -5.52334 0
M  V30 6656 N 613.544 3.53038 -4.37402 0
M  V30 6657 H 605.695 0.397113 -2.08655 0
M  V30 6658 H 607.958 0.238277 -0.917566 0
M  V30 6659 H 607.664 1.44395 -3.20691 0
M  V30 6660 H 607.538 2.9619 -2.33563 0
M  V30 6661 H 609.925 2.58872 -1.41666 0
M  V30 6662 H 610.006 1.07117 -2.32292 0
M  V30 6663 H 609.65 2.37268 -4.49072 0
M  V30 6664 H 609.58 3.8862 -3.55362 0
M  V30 6665 H 612.071 2.50053 -2.83341 0
M  V30 6666 H 612.384 4.62796 -6.18902 0
M  V30 6667 H 610.729 4.16761 -5.56179 0
M  V30 6668 H 613.92 3.0337 -3.56489 0
M  V30 6669 H 614.093 4.004 -5.09493 0
M  V30 6670 N 607.499 1.09233 1.13605 0
M  V30 6671 C 608.409 0.741939 2.22559 0
M  V30 6672 C 609.425 -0.255236 1.72118 0
M  V30 6673 O 610.601 -0.0970747 2.01166 0
M  V30 6674 C 607.666 0.165595 3.46304 0
M  V30 6675 C 606.727 1.21846 4.11645 0
M  V30 6676 C 605.96 0.669526 5.29484 0
M  V30 6677 O 606.183 -0.508228 5.68131 0
M  V30 6678 O 605.117 1.42361 5.84822 0
M  V30 6679 H 608.943 1.65107 2.54899 0
M  V30 6680 H 606.528 0.866584 1.21699 0
M  V30 6681 H 608.41 -0.152592 4.21124 0
M  V30 6682 H 607.085 -0.716573 3.15669 0
M  V30 6683 H 605.992 1.58931 3.38662 0
M  V30 6684 H 607.325 2.07321 4.46407 0
M  V30 6685 N 608.977 -1.30795 0.87923 0
M  V30 6686 C 609.907 -2.30742 0.357796 0
M  V30 6687 C 610.888 -1.60747 -0.556283 0
M  V30 6688 O 612.073 -1.88393 -0.47135 0
M  V30 6689 C 609.203 -3.44583 -0.433555 0
M  V30 6690 C 608.157 -4.26235 0.388251 0
M  V30 6691 C 607.483 -5.32073 -0.529352 0
M  V30 6692 C 608.783 -4.96303 1.62729 0
M  V30 6693 H 610.477 -2.74605 1.19299 0
M  V30 6694 H 608.023 -1.32017 0.575104 0
M  V30 6695 H 609.976 -4.13563 -0.808934 0
M  V30 6696 H 608.7 -2.99511 -1.30234 0
M  V30 6697 H 607.359 -3.58936 0.745695 0
M  V30 6698 H 607.007 -4.83249 -1.39569 0
M  V30 6699 H 606.707 -5.87598 0.0166741 0
M  V30 6700 H 608.231 -6.0391 -0.901373 0
M  V30 6701 H 609.645 -5.5783 1.32283 0
M  V30 6702 H 608.042 -5.61666 2.11309 0
M  V30 6703 H 609.112 -4.22758 2.37494 0
M  V30 6704 N 610.455 -0.639598 -1.44038 0
M  V30 6705 C 611.403 0.0723409 -2.32487 0
M  V30 6706 C 612.397 0.827129 -1.47834 0
M  V30 6707 O 613.603 0.73907 -1.64127 0
M  V30 6708 H 609.978 0.0421696 -0.750817 0
M  V30 6709 H 611.949 -0.691593 -2.90275 0
M  V30 6710 C 610.698 1.03452 -3.31953 0
M  V30 6711 H 610.021 0.46315 -3.97108 0
M  V30 6712 H 611.461 1.502 -3.96505 0
M  V30 6713 C 609.92 2.12392 -2.61518 0
M  V30 6714 O 610.45 3.2059 -2.42044 0
M  V30 6715 N 608.656 1.88563 -2.21116 0
M  V30 6716 H 608.203 1.00577 -2.37154 0
M  V30 6717 H 608.161 2.61651 -1.74316 0
M  V30 6718 N 611.933 1.52934 -0.380664 0
M  V30 6719 C 613.179 2.01765 0.20458 0
M  V30 6720 C 613.512 1.26696 1.47179 0
M  V30 6721 O 612.787 0.364936 1.91046 0
M  V30 6722 C 613.07 3.56869 0.481269 0
M  V30 6723 C 612.923 4.42617 -0.800629 0
M  V30 6724 C 614.242 4.2121 1.27554 0
M  V30 6725 H 611.361 0.733388 0.0728803 0
M  V30 6726 H 614.003 1.83068 -0.50853 0
M  V30 6727 H 612.153 3.72932 1.08875 0
M  V30 6728 H 613.825 4.38323 -1.43773 0
M  V30 6729 H 612.068 4.09977 -1.4178 0
M  V30 6730 H 612.739 5.49134 -0.561791 0
M  V30 6731 H 615.215 4.09072 0.761514 0
M  V30 6732 H 614.091 5.29732 1.43788 0
M  V30 6733 H 614.352 3.78269 2.28833 0
M  V30 6734 N 613.412 0.11024 1.57214 0
M  V30 6735 C 614.36 -0.860586 2.16094 0
M  V30 6736 C 615.354 -1.28156 1.1078 0
M  V30 6737 O 616.56 -1.25433 1.29099 0
M  V30 6738 H 612.935 -0.295606 0.691463 0
M  V30 6739 H 614.906 -0.33942 2.96463 0
M  V30 6740 C 613.655 -2.10421 2.768 0
M  V30 6741 H 612.978 -1.7892 3.5753 0
M  V30 6742 H 614.418 -2.76375 3.21547 0
M  V30 6743 C 612.877 -2.88823 1.73444 0
M  V30 6744 O 613.407 -3.839 1.18251 0
M  V30 6745 N 611.613 -2.52649 1.43586 0
M  V30 6746 H 611.16 -1.754 1.8866 0
M  V30 6747 H 611.118 -3.05403 0.746735 0
M  V30 6748 N 614.89 -1.56749 -0.16351 0
M  V30 6749 C 616.139 -1.81626 -0.877211 0
M  V30 6750 C 616.452 -0.688791 -1.83071 0
M  V30 6751 O 617.658 -0.822697 -2.58735 0
M  V30 6752 C 616.114 -3.21858 -1.61045 0
M  V30 6753 C 615.722 -4.42494 -0.700195 0
M  V30 6754 C 617.466 -3.56021 -2.31192 0
M  V30 6755 C 615.373 -5.73748 -1.43412 0
M  V30 6756 H 614.303 -0.67731 -0.331312 0
M  V30 6757 H 616.954 -1.83039 -0.13006 0
M  V30 6758 H 615.336 -3.14784 -2.40264 0
M  V30 6759 H 616.51 -4.60766 0.0555849 0
M  V30 6760 H 614.825 -4.1626 -0.10799 0
M  V30 6761 H 617.422 -4.51333 -2.8671 0
M  V30 6762 H 617.765 -2.81277 -3.06902 0
M  V30 6763 H 618.298 -3.64682 -1.58909 0
M  V30 6764 H 615.037 -6.51543 -0.719186 0
M  V30 6765 H 614.557 -5.5944 -2.16302 0
M  V30 6766 H 616.236 -6.15975 -1.9795 0
M  V30 6767 N 616.368 0.432326 -1.51554 0
M  V30 6768 C 617.598 1.2019 -1.68042 0
M  V30 6769 C 618.006 1.85356 -0.379434 0
M  V30 6770 O 617.349 1.71724 0.652427 0
M  V30 6771 C 617.411 2.32387 -2.74292 0
M  V30 6772 C 617.075 1.87548 -4.16743 0
M  V30 6773 C 618.072 1.37611 -5.01357 0
M  V30 6774 C 615.757 1.95087 -4.62868 0
M  V30 6775 C 617.751 0.958069 -6.30159 0
M  V30 6776 C 615.438 1.52894 -5.91664 0
M  V30 6777 C 616.436 1.03336 -6.75137 0
M  V30 6778 O 616.124 0.617435 -8.01525 0
M  V30 6779 H 615.856 0.368132 -0.56697 0
M  V30 6780 H 618.41 0.517875 -1.98764 0
M  V30 6781 H 616.64 3.04082 -2.38895 0
M  V30 6782 H 618.329 2.94235 -2.79608 0
M  V30 6783 H 619.095 1.31178 -4.66923 0
M  V30 6784 H 614.974 2.32606 -3.98015 0
M  V30 6785 H 618.518 0.570562 -6.95263 0
M  V30 6786 H 614.415 1.58999 -6.25611 0
M  V30 6787 H 615.183 0.742835 -8.15122 0
M  V30 6788 N 617.846 1.41785 0.688094 0
M  V30 6789 C 619.262 1.24419 0.999608 0
M  V30 6790 C 619.462 0.138868 2.01021 0
M  V30 6791 O 618.518 -0.494283 2.47615 0
M  V30 6792 C 619.831 2.59625 1.51709 0
M  V30 6793 C 621.379 2.66869 1.63554 0
M  V30 6794 C 621.854 4.0241 2.18702 0
M  V30 6795 N 623.345 4.04295 2.26053 0
M  V30 6796 C 624.08 5.05977 2.69768 0
M  V30 6797 N 623.576 6.18047 3.13033 0
M  V30 6798 N 625.369 4.93336 2.69398 0
M  V30 6799 H 617.52 2.12392 0.0187427 0
M  V30 6800 H 619.783 0.945347 0.0708673 0
M  V30 6801 H 619.489 3.41297 0.849059 0
M  V30 6802 H 619.363 2.82628 2.49803 0
M  V30 6803 H 621.75 1.8555 2.29467 0
M  V30 6804 H 621.831 2.47668 0.639857 0
M  V30 6805 H 621.475 4.8418 1.53402 0
M  V30 6806 H 621.405 4.18955 3.19037 0
M  V30 6807 H 623.896 3.23383 1.9553 0
M  V30 6808 H 624.209 6.91498 3.45038 0
M  V30 6809 H 622.554 6.21572 3.10923 0
M  V30 6810 H 625.745 4.04865 2.34952 0
M  V30 6811 H 625.918 5.72717 3.03148 0
M  V30 6812 N 619.324 -0.923095 1.27737 0
M  V30 6813 C 620.274 -2.01061 1.0751 0
M  V30 6814 C 621.258 -1.609 0.00165451 0
M  V30 6815 O 622.45 -1.75618 0.220724 0
M  V30 6816 C 619.579 -3.35467 0.729162 0
M  V30 6817 C 618.665 -3.82059 1.84098 0
M  V30 6818 N 619.056 -4.01115 3.08124 0
M  V30 6819 C 617.354 -4.11135 1.7287 0
M  V30 6820 C 618.055 -4.39989 3.80506 0
M  V30 6821 N 617.031 -4.47721 3.08297 0
M  V30 6822 H 620.833 -2.13832 2.01626 0
M  V30 6823 H 618.347 -1.11027 1.18519 0
M  V30 6824 H 620.344 -4.13049 0.565355 0
M  V30 6825 H 619.004 -3.24056 -0.204334 0
M  V30 6826 H 620.015 -3.87294 3.43836 0
M  V30 6827 H 616.692 -4.08412 0.866352 0
M  V30 6828 H 618.082 -4.62773 4.87125 0
M  V30 6829 N 620.802 -1.09834 -1.13024 0
M  V30 6830 C 622.03 -0.858902 -1.8823 0
M  V30 6831 C 622.445 0.590164 -1.79339 0
M  V30 6832 O 621.802 1.4065 -1.16292 0
M  V30 6833 C 621.853 -1.29066 -3.37675 0
M  V30 6834 O 621.574 -2.6829 -3.46341 0
M  V30 6835 C 623.075 -1.08421 -4.29837 0
M  V30 6836 H 620.295 -0.308713 -0.595766 0
M  V30 6837 H 622.839 -1.4614 -1.4305 0
M  V30 6838 H 620.994 -0.731961 -3.80422 0
M  V30 6839 H 621.408 -2.86598 -4.39274 0
M  V30 6840 H 622.882 -1.43553 -5.33007 0
M  V30 6841 H 623.359 -0.0223315 -4.39194 0
M  V30 6842 H 623.965 -1.62907 -3.92863 0
M  V30 6843 N 622.28 1.30327 -0.886154 0
M  V30 6844 C 623.228 2.30052 -0.343317 0
M  V30 6845 C 624.222 1.60212 0.550305 0
M  V30 6846 O 625.428 1.74674 0.434609 0
M  V30 6847 H 621.803 0.746306 -0.0923681 0
M  V30 6848 H 623.774 2.73294 -1.19804 0
M  V30 6849 C 622.523 3.45079 0.426107 0
M  V30 6850 H 621.846 3.99003 -0.25227 0
M  V30 6851 H 623.286 4.16931 0.771009 0
M  V30 6852 C 621.745 2.95195 1.62363 0
M  V30 6853 O 622.275 2.95323 2.723 0
M  V30 6854 N 620.481 2.51192 1.4612 0
M  V30 6855 H 620.028 2.51286 0.566832 0
M  V30 6856 H 619.986 2.18173 2.2638 0
M  V30 6857 N 623.758 0.647228 1.43697 0
M  V30 6858 C 624.668 -0.0487997 2.34549 0
M  V30 6859 C 625.684 -0.818586 1.53542 0
M  V30 6860 O 626.86 -0.767195 1.86215 0
M  V30 6861 C 623.925 -1.00734 3.31743 0
M  V30 6862 C 622.986 -0.23515 4.28655 0
M  V30 6863 C 622.219 -1.14803 5.21206 0
M  V30 6864 O 622.442 -2.38717 5.18045 0
M  V30 6865 O 621.376 -0.623667 5.9866 0
M  V30 6866 H 625.202 0.698863 2.9555 0
M  V30 6867 H 622.787 0.407412 1.43738 0
M  V30 6868 H 624.669 -1.55837 3.91526 0
M  V30 6869 H 623.344 -1.73534 2.73254 0
M  V30 6870 H 622.251 0.359319 3.7237 0
M  V30 6871 H 623.584 0.453152 4.9011 0
M  V30 6872 N 625.236 -1.5273 0.388769 0
M  V30 6873 C 626.652 -1.59553 0.0387049 0
M  V30 6874 C 626.852 -1.40278 -1.44652 0
M  V30 6875 O 625.908 -1.21951 -2.21098 0
M  V30 6876 C 627.221 -2.9625 0.515409 0
M  V30 6877 C 628.769 -3.09426 0.471621 0
M  V30 6878 C 629.244 -4.48572 0.924505 0
M  V30 6879 N 630.735 -4.54754 0.880496 0
M  V30 6880 C 631.47 -5.60653 1.20234 0
M  V30 6881 N 630.966 -6.74198 1.59463 0
M  V30 6882 N 632.759 -5.50755 1.12363 0
M  V30 6883 H 624.91 -1.63508 1.35569 0
M  V30 6884 H 627.173 -0.768097 0.555636 0
M  V30 6885 H 626.879 -3.15569 1.5527 0
M  V30 6886 H 626.753 -3.77102 -0.085792 0
M  V30 6887 H 629.14 -2.89804 -0.556588 0
M  V30 6888 H 629.221 -2.30528 1.10862 0
M  V30 6889 H 628.865 -4.68936 1.95094 0
M  V30 6890 H 628.795 -5.25935 0.264524 0
M  V30 6891 H 631.286 -3.73237 0.591815 0
M  V30 6892 H 631.599 -7.5097 1.82385 0
M  V30 6893 H 629.944 -6.75531 1.63349 0
M  V30 6894 H 633.135 -4.6093 0.816169 0
M  V30 6895 H 633.308 -6.33184 1.37777 0
M  V30 6896 N 626.714 -0.118576 -1.57153 0
M  V30 6897 C 627.96 0.540326 -1.95469 0
M  V30 6898 C 628.293 1.66356 -1.00196 0
M  V30 6899 O 627.568 1.94461 -0.039104 0
M  V30 6900 C 627.851 1.07342 -3.43729 0
M  V30 6901 C 627.704 -0.0463732 -4.49776 0
M  V30 6902 C 629.023 1.96442 -3.93826 0
M  V30 6903 H 626.142 0.19494 -0.710751 0
M  V30 6904 H 628.784 -0.19405 -1.89006 0
M  V30 6905 H 626.934 1.69925 -3.49368 0
M  V30 6906 H 628.606 -0.681648 -4.56236 0
M  V30 6907 H 626.849 -0.709574 -4.27957 0
M  V30 6908 H 627.52 0.367856 -5.50773 0
M  V30 6909 H 629.996 1.43731 -3.90488 0
M  V30 6910 H 628.872 2.3066 -4.98084 0
M  V30 6911 H 629.133 2.89077 -3.34495 0
M  V30 6912 N 628.193 1.56834 0.155195 0
M  V30 6913 C 629.156 1.96748 1.17571 0
M  V30 6914 C 630.156 0.853006 1.3631 0
M  V30 6915 O 631.346 1.11978 1.33441 0
M  V30 6916 C 628.478 2.27631 2.53765 0
M  V30 6917 H 629.671 2.88085 0.833498 0
M  V30 6918 H 627.224 1.51141 0.398242 0
M  V30 6919 H 627.959 1.39059 2.92973 0
M  V30 6920 H 627.744 3.0888 2.41527 0
M  V30 6921 H 629.234 2.59377 3.27282 0
M  V30 6922 N 629.671 -0.424282 1.51781 0
M  V30 6923 C 631.087 -0.761768 1.40247 0
M  V30 6924 C 631.287 -1.95324 0.495041 0
M  V30 6925 O 630.343 -2.5246 -0.0448949 0
M  V30 6926 C 631.656 -1.0299 2.82513 0
M  V30 6927 C 633.204 -1.13354 2.91753 0
M  V30 6928 C 633.679 -1.43453 4.34954 0
M  V30 6929 N 635.17 -1.5035 4.3812 0
M  V30 6930 C 635.905 -1.75236 5.45967 0
M  V30 6931 N 635.401 -1.97827 6.63955 0
M  V30 6932 N 637.194 -1.77126 5.33463 0
M  V30 6933 H 629.345 0.360228 2.09323 0
M  V30 6934 H 631.608 0.0988128 0.942836 0
M  V30 6935 H 631.314 -0.226961 3.50967 0
M  V30 6936 H 631.188 -1.95411 3.22637 0
M  V30 6937 H 633.575 -1.92709 2.23489 0
M  V30 6938 H 633.656 -0.188041 2.55108 0
M  V30 6939 H 633.3 -0.646209 5.03772 0
M  V30 6940 H 633.23 -2.3923 4.69123 0
M  V30 6941 H 635.721 -1.34742 3.53062 0
M  V30 6942 H 636.034 -2.16223 7.41935 0
M  V30 6943 H 634.379 -1.95123 6.67047 0
M  V30 6944 H 637.57 -1.59005 4.40267 0
M  V30 6945 H 637.743 -1.96182 6.17589 0
M  V30 6946 N 631.149 -1.42148 -0.680565 0
M  V30 6947 C 632.096 -1.45175 -1.79424 0
M  V30 6948 C 633.066 -0.304352 -1.63288 0
M  V30 6949 O 634.251 -0.507591 -1.83924 0
M  V30 6950 C 631.391 -1.35429 -3.17416 0
M  V30 6951 C 630.504 -2.60158 -3.4488 0
M  V30 6952 C 629.639 -2.42596 -4.72568 0
M  V30 6953 C 628.678 -3.62727 -4.93047 0
M  V30 6954 N 627.815 -3.44143 -6.11973 0
M  V30 6955 H 632.655 -2.40349 -1.76172 0
M  V30 6956 H 630.192 -1.19334 -0.860107 0
M  V30 6957 H 632.15 -1.27777 -3.97151 0
M  V30 6958 H 630.78 -0.438536 -3.19807 0
M  V30 6959 H 629.832 -2.78199 -2.5944 0
M  V30 6960 H 631.144 -3.49473 -3.55908 0
M  V30 6961 H 630.298 -2.32497 -5.60384 0
M  V30 6962 H 629.037 -1.50761 -4.63813 0
M  V30 6963 H 628.042 -3.73264 -4.03676 0
M  V30 6964 H 629.267 -4.55534 -5.03652 0
M  V30 6965 H 627.213 -2.5502 -6.04401 0
M  V30 6966 H 627.13 -4.27041 -6.23836 0
M  V30 6967 H 628.398 -3.37845 -7.02482 0
M  V30 6968 N 632.627 0.916307 -1.28225 0
M  V30 6969 C 633.59 1.99996 -1.11957 0
M  V30 6970 C 634.59 1.60688 -0.0600152 0
M  V30 6971 O 635.78 1.71499 -0.30558 0
M  V30 6972 C 632.912 3.33458 -0.708411 0
M  V30 6973 H 634.105 2.15858 -2.08196 0
M  V30 6974 H 631.658 1.09863 -1.11175 0
M  V30 6975 H 632.393 3.23297 0.254859 0
M  V30 6976 H 632.178 3.63349 -1.47377 0
M  V30 6977 H 633.668 4.13014 -0.617164 0
M  V30 6978 N 634.105 1.10431 1.1244 0
M  V30 6979 C 635.053 0.747974 2.20246 0
M  V30 6980 C 636.047 -0.255848 1.67457 0
M  V30 6981 O 637.253 -0.116221 1.79624 0
M  V30 6982 H 633.628 0.223946 0.71788 0
M  V30 6983 H 635.599 1.6661 2.47556 0
M  V30 6984 C 634.348 0.195957 3.47147 0
M  V30 6985 H 633.671 0.959606 3.88113 0
M  V30 6986 H 635.111 -0.0153154 4.23997 0
M  V30 6987 C 633.57 -1.07132 3.19413 0
M  V30 6988 O 634.1 -2.15284 3.3914 0
M  V30 6989 N 632.306 -0.98994 2.73219 0
M  V30 6990 H 631.853 -0.109736 2.57366 0
M  V30 6991 H 631.811 -1.83856 2.55038 0
M  V30 6992 N 635.583 -1.29855 0.893053 0
M  V30 6993 C 636.86 -1.90694 0.435336 0
M  V30 6994 C 637.24 -1.8111 -1.08454 0
M  V30 6995 O 636.588 -1.23352 -1.92345 0
M  V30 6996 C 636.798 -3.36033 0.942472 0
M  V30 6997 C 638.146 -4.13083 0.982226 0
M  V30 6998 O 639.17 -3.4491 0.889686 0
M  V30 6999 O 638.029 -5.34896 1.12022 0
M  V30 7000 H 635.123 -0.815978 0.134567 0
M  V30 7001 H 637.669 -1.38367 0.982484 0
M  V30 7002 H 636.441 -3.37132 1.9864 0
M  V30 7003 H 636.064 -3.95828 0.374952 0
M  V30 7004 N 637.061 -0.65484 -1.43351 0
M  V30 7005 C 638.472 -0.248506 -1.85039 0
M  V30 7006 C 638.823 1.20526 -1.54816 0
M  V30 7007 O 637.948 1.92016 -0.99794 0
M  V30 7008 C 638.543 -0.444241 -3.35875 0
M  V30 7009 C 637.102 -0.0922108 -3.76287 0
M  V30 7010 C 636.249 -0.746327 -2.67068 0
M  V30 7011 H 639.2 -0.8584 -1.33481 0
M  V30 7012 H 639.221 0.309762 -3.79237 0
M  V30 7013 H 638.733 -1.50239 -3.5784 0
M  V30 7014 H 636.834 0.96328 -3.59933 0
M  V30 7015 H 636.947 -0.518807 -4.76283 0
M  V30 7016 H 635.311 -0.179416 -2.54067 0
M  V30 7017 H 636.094 -1.80754 -2.91861 0
M  V30 7018 N 638.539 1.52521 -0.396863 0
M  V30 7019 C 639.449 2.30403 0.44178 0
M  V30 7020 C 640.465 1.37625 1.06468 0
M  V30 7021 O 641.641 1.70697 1.06886 0
M  V30 7022 C 638.706 3.1013 1.54986 0
M  V30 7023 C 637.767 4.18628 0.951279 0
M  V30 7024 C 637 4.94543 2.00655 0
M  V30 7025 O 637.223 4.70629 3.22281 0
M  V30 7026 O 636.157 5.797 1.61962 0
M  V30 7027 H 639.983 3.03087 -0.192892 0
M  V30 7028 H 637.568 1.48537 -0.16038 0
M  V30 7029 H 639.45 3.59816 2.19341 0
M  V30 7030 H 638.125 2.40251 2.16935 0
M  V30 7031 H 637.032 3.73119 0.270773 0
M  V30 7032 H 638.365 4.90763 0.375887 0
M  V30 7033 N 640.017 0.126909 1.57088 0
M  V30 7034 C 641.428 -0.397201 1.82426 0
M  V30 7035 C 641.779 -1.66084 1.04453 0
M  V30 7036 O 640.904 -2.14534 0.283552 0
M  V30 7037 C 641.499 -0.727411 3.30899 0
M  V30 7038 C 640.058 -1.19612 3.56889 0
M  V30 7039 C 639.205 -0.20885 2.76512 0
M  V30 7040 H 642.156 0.351924 1.54749 0
M  V30 7041 H 642.177 -1.58407 3.45959 0
M  V30 7042 H 641.689 0.19247 3.87622 0
M  V30 7043 H 639.79 -2.13263 3.05532 0
M  V30 7044 H 639.903 -1.13598 4.65438 0
M  V30 7045 H 638.267 -0.697479 2.44964 0
M  V30 7046 H 639.05 0.704267 3.35998 0
M  V30 7047 N 641.495 -1.56914 -0.146875 0
M  V30 7048 C 642.743 -1.82994 -0.85777 0
M  V30 7049 C 643.064 -0.707814 -1.817 0
M  V30 7050 O 642.334 0.270521 -1.94023 0
M  V30 7051 H 640.914 -0.675106 -0.319751 0
M  V30 7052 H 643.576 -1.9439 -0.140849 0
M  V30 7053 H 642.672 -2.77928 -1.41994 0
M  V30 7054 N 642.974 0.416227 -1.52004 0
M  V30 7055 C 644.223 1.16088 -1.64944 0
M  V30 7056 C 644.536 1.91835 -0.381928 0
M  V30 7057 O 645.742 2.6867 -0.391013 0
M  V30 7058 C 644.198 2.1124 -2.91386 0
M  V30 7059 C 643.806 1.41042 -4.25219 0
M  V30 7060 C 645.55 2.86008 -3.13688 0
M  V30 7061 C 643.457 2.34801 -5.42791 0
M  V30 7062 H 642.387 0.437041 -0.61442 0
M  V30 7063 H 645.038 0.425971 -1.78487 0
M  V30 7064 H 643.42 2.88254 -2.71525 0
M  V30 7065 H 644.594 0.694416 -4.55538 0
M  V30 7066 H 642.909 0.78344 -4.08964 0
M  V30 7067 H 645.506 3.56286 -3.98703 0
M  V30 7068 H 645.849 3.48556 -2.27628 0
M  V30 7069 H 646.382 2.16095 -3.33988 0
M  V30 7070 H 643.121 1.7691 -6.31176 0
M  V30 7071 H 642.641 3.04395 -5.16821 0
M  V30 7072 H 644.32 2.9548 -5.75587 0
M  V30 7073 N 644.452 1.42507 0.673017 0
M  V30 7074 C 645.362 1.4853 1.81593 0
M  V30 7075 C 646.378 0.373907 1.69935 0
M  V30 7076 O 647.554 0.625078 1.91454 0
M  V30 7077 C 644.619 1.387 3.17747 0
M  V30 7078 C 643.68 2.60346 3.41348 0
M  V30 7079 C 642.913 2.50975 4.71007 0
M  V30 7080 O 643.136 1.54659 5.49033 0
M  V30 7081 O 642.07 3.41138 4.95892 0
M  V30 7082 H 645.896 2.45001 1.79467 0
M  V30 7083 H 643.481 1.2429 0.82899 0
M  V30 7084 H 645.363 1.35586 3.98992 0
M  V30 7085 H 644.038 0.453555 3.20507 0
M  V30 7086 H 642.945 2.69034 2.59945 0
M  V30 7087 H 644.278 3.52595 3.43421 0
M  V30 7088 N 645.93 -0.909495 1.28709 0
M  V30 7089 C 646.863 -2.01388 1.07323 0
M  V30 7090 C 647.841 -1.62596 -0.0119757 0
M  V30 7091 O 649.025 -1.88003 0.136796 0
M  V30 7092 C 646.152 -3.32755 0.631797 0
M  V30 7093 C 645.198 -3.90532 1.71428 0
M  V30 7094 S 646.031 -4.20853 3.31124 0
M  V30 7095 C 647.187 -5.55276 2.88825 0
M  V30 7096 H 647.42 -2.19219 2.00824 0
M  V30 7097 H 644.953 -1.05489 1.12745 0
M  V30 7098 H 646.911 -4.08702 0.38381 0
M  V30 7099 H 645.572 -3.12818 -0.283451 0
M  V30 7100 H 644.765 -4.85385 1.35712 0
M  V30 7101 H 644.367 -3.21237 1.91528 0
M  V30 7102 H 646.659 -6.35341 2.3526 0
M  V30 7103 H 647.602 -5.95907 3.82492 0
M  V30 7104 H 648.01 -5.16666 2.27412 0
M  V30 7105 N 647.408 -1.11026 -1.11852 0
M  V30 7106 C 648.34 -0.72249 -2.17515 0
M  V30 7107 C 649.353 0.243782 -1.60964 0
M  V30 7108 O 650.542 0.0273252 -1.78479 0
M  V30 7109 C 647.642 -0.0463979 -3.38868 0
M  V30 7110 C 646.815 -1.0384 -4.24895 0
M  V30 7111 C 645.874 -0.392659 -5.24733 0
M  V30 7112 O 644.9 -1.0453 -5.5952 0
M  V30 7113 N 646.102 0.846296 -5.74298 0
M  V30 7114 H 648.867 -1.63161 -2.51393 0
M  V30 7115 H 646.428 -0.999899 -1.27333 0
M  V30 7116 H 648.42 0.397215 -4.02746 0
M  V30 7117 H 646.99 0.765231 -3.03089 0
M  V30 7118 H 646.21 -1.6601 -3.57539 0
M  V30 7119 H 647.498 -1.70968 -4.79215 0
M  V30 7120 H 646.896 1.39578 -5.4821 0
M  V30 7121 H 645.453 1.23296 -6.40032 0
M  V30 7122 N 648.886 1.2938 -0.899927 0
M  V30 7123 C 650.132 1.9584 -0.526742 0
M  V30 7124 C 650.465 1.70774 0.924651 0
M  V30 7125 O 649.74 1.02084 1.65557 0
M  V30 7126 C 650.023 3.50638 -0.820062 0
M  V30 7127 C 649.876 3.85161 -2.32317 0
M  V30 7128 C 651.195 4.3903 -0.30671 0
M  V30 7129 H 648.314 0.711322 -0.192848 0
M  V30 7130 H 650.956 1.52992 -1.12665 0
M  V30 7131 H 649.106 3.87265 -0.309491 0
M  V30 7132 H 650.778 3.58477 -2.9033 0
M  V30 7133 H 649.021 3.32696 -2.78381 0
M  V30 7134 H 649.692 4.93204 -2.47898 0
M  V30 7135 H 652.168 4.09396 -0.743908 0
M  V30 7136 H 651.044 5.46226 -0.541144 0
M  V30 7137 H 651.305 4.34937 0.792588 0
M  V30 7138 N 650.364 0.662433 1.43002 0
M  V30 7139 C 651.274 -0.0239199 2.34588 0
M  V30 7140 C 652.29 -0.802255 1.54402 0
M  V30 7141 O 653.466 -0.747401 1.87018 0
M  V30 7142 C 650.531 -0.972098 3.32793 0
M  V30 7143 C 649.592 -0.189673 4.28881 0
M  V30 7144 C 648.825 -1.09269 5.22395 0
M  V30 7145 O 649.048 -2.33209 5.20547 0
M  V30 7146 O 647.982 -0.560136 5.99288 0
M  V30 7147 H 651.808 0.730171 2.94792 0
M  V30 7148 H 649.393 0.422635 1.43297 0
M  V30 7149 H 651.275 -1.51676 3.93157 0
M  V30 7150 H 649.95 -1.70626 2.75079 0
M  V30 7151 H 648.857 0.398794 3.71968 0
M  V30 7152 H 650.19 0.50511 4.89601 0
M  V30 7153 N 651.842 -1.52309 0.404946 0
M  V30 7154 C 652.79 -2.28452 -0.437321 0
M  V30 7155 C 653.784 -1.32975 -1.04948 0
M  V30 7156 O 654.99 -1.50451 -0.988159 0
M  V30 7157 H 651.365 -0.734824 -0.159805 0
M  V30 7158 H 653.336 -2.97542 0.22615 0
M  V30 7159 C 652.085 -3.11536 -1.54404 0
M  V30 7160 H 651.408 -3.84871 -1.08233 0
M  V30 7161 H 652.848 -3.67926 -2.10729 0
M  V30 7162 C 651.307 -2.24833 -2.50902 0
M  V30 7163 O 651.837 -1.88574 -3.54687 0
M  V30 7164 N 650.043 -1.88685 -2.21012 0
M  V30 7165 H 649.59 -2.18371 -1.36646 0
M  V30 7166 H 649.548 -1.30966 -2.85824 0
M  V30 7167 N 653.32 -0.135238 -1.57019 0
M  V30 7168 C 654.25 0.805235 -2.19176 0
M  V30 7169 C 655.231 1.2656 -1.13651 0
M  V30 7170 O 656.416 1.32528 -1.4195 0
M  V30 7171 C 653.546 2.04914 -2.80406 0
M  V30 7172 C 652.5 1.72598 -3.91655 0
M  V30 7173 C 651.826 3.04154 -4.39766 0
M  V30 7174 C 653.126 0.981709 -5.12991 0
M  V30 7175 H 654.82 0.287232 -2.98019 0
M  V30 7176 H 652.366 0.136714 -1.4335 0
M  V30 7177 H 654.319 2.71178 -3.22553 0
M  V30 7178 H 653.043 2.59067 -1.98877 0
M  V30 7179 H 651.702 1.08717 -3.50109 0
M  V30 7180 H 651.35 3.56274 -3.55075 0
M  V30 7181 H 651.05 2.83299 -5.14796 0
M  V30 7182 H 652.574 3.71509 -4.84576 0
M  V30 7183 H 653.988 1.5462 -5.52056 0
M  V30 7184 H 652.385 0.873533 -5.93708 0
M  V30 7185 H 653.455 -0.0286887 -4.84892 0
M  V30 7186 N 654.798 1.5699 0.138552 0
M  V30 7187 C 655.708 2.02174 1.19008 0
M  V30 7188 C 656.724 0.938622 1.46512 0
M  V30 7189 O 657.9 1.24872 1.58016 0
M  V30 7190 C 654.965 2.40045 2.50159 0
M  V30 7191 C 654.026 3.62346 2.30226 0
M  V30 7192 C 653.259 3.98401 3.55123 0
M  V30 7193 O 653.482 3.35019 4.61647 0
M  V30 7194 O 652.416 4.91606 3.47285 0
M  V30 7195 H 656.242 2.91954 0.836452 0
M  V30 7196 H 653.827 1.45293 0.347907 0
M  V30 7197 H 655.709 2.65225 3.27465 0
M  V30 7198 H 654.384 1.53417 2.85035 0
M  V30 7199 H 653.291 3.42341 1.50843 0
M  V30 7200 H 654.624 4.49617 2.00262 0
M  V30 7201 N 656.276 -0.40816 1.52223 0
M  V30 7202 C 657.206 -1.5042 1.78595 0
M  V30 7203 C 658.187 -1.57723 0.636974 0
M  V30 7204 O 659.372 -1.72982 0.882664 0
M  V30 7205 C 656.502 -2.88232 1.93751 0
M  V30 7206 C 655.456 -2.95779 3.09352 0
M  V30 7207 C 654.782 -4.35855 3.09732 0
M  V30 7208 C 656.082 -2.67175 4.48793 0
M  V30 7209 H 657.776 -1.28601 2.70374 0
M  V30 7210 H 655.322 -0.617221 1.30101 0
M  V30 7211 H 657.275 -3.64895 2.10783 0
M  V30 7212 H 655.999 -3.11347 0.986443 0
M  V30 7213 H 654.658 -2.21561 2.92072 0
M  V30 7214 H 654.306 -4.55981 2.12346 0
M  V30 7215 H 654.006 -4.41829 3.87377 0
M  V30 7216 H 655.53 -5.14451 3.28895 0
M  V30 7217 H 656.944 -3.3356 4.66273 0
M  V30 7218 H 655.341 -2.84523 5.28362 0
M  V30 7219 H 656.411 -1.62609 4.56822 0
M  V30 7220 N 657.755 -1.42862 -0.66545 0
M  V30 7221 C 659.166 -1.3901 -1.24632 0
M  V30 7222 C 659.517 -0.0880285 -1.96002 0
M  V30 7223 O 658.642 0.812947 -2.0055 0
M  V30 7224 C 659.237 -2.51806 -2.2667 0
M  V30 7225 C 657.796 -2.51257 -2.80262 0
M  V30 7226 C 656.943 -2.30124 -1.5472 0
M  V30 7227 H 659.894 -1.5194 -0.458237 0
M  V30 7228 H 659.915 -2.22593 -3.08598 0
M  V30 7229 H 659.427 -3.46558 -1.74697 0
M  V30 7230 H 657.528 -1.60349 -3.36332 0
M  V30 7231 H 657.641 -3.48614 -3.28641 0
M  V30 7232 H 656.005 -1.7856 -1.81627 0
M  V30 7233 H 656.788 -3.26945 -1.04699 0
M  V30 7234 N 659.233 0.902656 -1.29189 0
M  V30 7235 C 660.479 1.65532 -1.17163 0
M  V30 7236 C 660.812 1.92216 0.276879 0
M  V30 7237 O 660.087 1.53048 1.20027 0
M  V30 7238 C 660.37 3.00629 -1.98228 0
M  V30 7239 C 660.223 2.81029 -3.51202 0
M  V30 7240 C 661.542 4.01321 -1.80635 0
M  V30 7241 H 658.661 0.60071 -0.426985 0
M  V30 7242 H 661.303 1.04578 -1.5863 0
M  V30 7243 H 659.453 3.52656 -1.62991 0
M  V30 7244 H 661.125 2.35927 -3.96404 0
M  V30 7245 H 659.368 2.1587 -3.76275 0
M  V30 7246 H 660.039 3.77014 -4.03192 0
M  V30 7247 H 662.515 3.58394 -2.11406 0
M  V30 7248 H 661.391 4.93792 -2.3971 0
M  V30 7249 H 661.652 4.35505 -0.760754 0
M  V30 7250 N 660.711 1.11618 1.11262 0
M  V30 7251 C 661.659 0.771291 2.1944 0
M  V30 7252 C 662.653 -0.238073 1.67719 0
M  V30 7253 O 663.859 -0.0971628 1.79738 0
M  V30 7254 H 660.234 0.231548 0.715465 0
M  V30 7255 H 662.205 1.69226 2.45775 0
M  V30 7256 C 660.954 0.232765 3.4692 0
M  V30 7257 H 660.277 1.00072 3.87073 0
M  V30 7258 H 661.717 0.0296561 4.2399 0
M  V30 7259 C 660.176 -1.03738 3.20531 0
M  V30 7260 O 660.706 -2.11675 3.41404 0
M  V30 7261 N 658.912 -0.960906 2.74253 0
M  V30 7262 H 658.459 -0.0824323 2.57468 0
M  V30 7263 H 658.417 -1.8114 2.56974 0
M  V30 7264 N 662.189 -1.289 0.906776 0
M  V30 7265 C 663.6 -1.77336 0.58384 0
M  V30 7266 C 663.951 -1.74304 -0.900697 0
M  V30 7267 O 663.076 -1.33335 -1.70443 0
M  V30 7268 C 663.671 -3.22019 1.05304 0
M  V30 7269 C 662.23 -3.68205 0.781148 0
M  V30 7270 C 661.377 -2.48837 1.22373 0
M  V30 7271 H 664.328 -1.15462 1.08877 0
M  V30 7272 H 664.349 -3.78481 0.391414 0
M  V30 7273 H 663.861 -3.24194 2.13353 0
M  V30 7274 H 661.962 -3.71497 -0.28643 0
M  V30 7275 H 662.075 -4.58675 1.384 0
M  V30 7276 H 660.439 -2.46461 0.642594 0
M  V30 7277 H 661.222 -2.53736 2.31242 0
M  V30 7278 N 663.667 -0.670007 -1.42649 0
M  V30 7279 C 664.892 -0.196955 -2.06463 0
M  V30 7280 C 665.317 1.1352 -1.49983 0
M  V30 7281 O 664.675 1.705 -0.616397 0
M  V30 7282 C 664.723 -0.137381 -3.60338 0
M  V30 7283 O 663.827 0.895523 -4.02559 0
M  V30 7284 H 663.168 -0.102579 -0.656029 0
M  V30 7285 H 665.698 -0.917669 -1.82866 0
M  V30 7286 H 665.708 0.0403625 -4.0798 0
M  V30 7287 H 664.383 -1.10977 -4.0082 0
M  V30 7288 H 662.96 0.689209 -3.66476 0
M  V30 7289 N 665.145 1.52092 -0.413018 0
M  V30 7290 C 666.093 2.28681 0.425199 0
M  V30 7291 C 667.087 1.3353 1.04241 0
M  V30 7292 O 668.293 1.50973 0.980166 0
M  V30 7293 H 664.668 0.735661 0.155906 0
M  V30 7294 H 666.639 2.97418 -0.241926 0
M  V30 7295 C 665.388 3.1235 1.5275 0
M  V30 7296 H 664.711 3.85439 1.06191 0
M  V30 7297 H 666.151 3.69038 2.08774 0
M  V30 7298 C 664.61 2.26161 2.49706 0
M  V30 7299 O 665.14 1.90452 3.53682 0
M  V30 7300 N 663.346 1.89854 2.20008 0
M  V30 7301 H 662.893 2.19092 1.35486 0
M  V30 7302 H 662.851 1.3248 2.85125 0
M  V30 7303 N 666.623 0.143563 1.56945 0
M  V30 7304 C 667.869 -0.50916 1.96304 0
M  V30 7305 C 668.202 -1.64741 1.0283 0
M  V30 7306 O 667.477 -1.94374 0.0700361 0
M  V30 7307 C 667.76 -1.0186 3.45393 0
M  V30 7308 C 667.613 0.117923 4.49645 0
M  V30 7309 C 668.932 -1.90151 3.96901 0
M  V30 7310 H 666.051 -0.183608 0.713763 0
M  V30 7311 H 668.693 0.224095 1.88674 0
M  V30 7312 H 666.843 -1.64345 3.52027 0
M  V30 7313 H 668.515 0.754145 4.55094 0
M  V30 7314 H 666.758 0.777568 4.26774 0
M  V30 7315 H 667.429 -0.280187 5.51288 0
M  V30 7316 H 669.905 -1.375 3.92725 0
M  V30 7317 H 668.781 -2.22707 5.0169 0
M  V30 7318 H 669.042 -2.83718 3.39052 0
M  V30 7319 N 668.101 -1.57061 -0.130224 0
M  V30 7320 C 669.347 -1.8453 -0.841216 0
M  V30 7321 C 669.68 -0.727666 -1.80052 0
M  V30 7322 O 668.955 0.267419 -1.92653 0
M  V30 7323 C 669.238 -3.22553 -1.60099 0
M  V30 7324 C 669.091 -4.44901 -0.662048 0
M  V30 7325 C 670.41 -3.58003 -2.55973 0
M  V30 7326 H 667.529 -0.671215 -0.304366 0
M  V30 7327 H 670.171 -1.89705 -0.105821 0
M  V30 7328 H 668.321 -3.18272 -2.22789 0
M  V30 7329 H 669.993 -4.61278 -0.0448559 0
M  V30 7330 H 668.236 -4.33791 0.0272253 0
M  V30 7331 H 668.907 -5.3812 -1.23006 0
M  V30 7332 H 671.383 -3.63002 -2.03393 0
M  V30 7333 H 670.259 -4.55576 -3.06172 0
M  V30 7334 H 670.52 -2.84833 -3.38116 0
M  V30 7335 N 669.579 0.400081 -1.52437 0
M  V30 7336 C 670.804 1.17221 -1.71096 0
M  V30 7337 C 671.229 1.83269 -0.423565 0
M  V30 7338 O 670.587 1.70378 0.619751 0
M  V30 7339 C 670.635 2.20425 -2.85386 0
M  V30 7340 O 669.739 3.26769 -2.51586 0
M  V30 7341 H 669.08 0.341766 -0.569291 0
M  V30 7342 H 671.61 0.467772 -1.99181 0
M  V30 7343 H 671.62 2.64605 -3.10561 0
M  V30 7344 H 670.295 1.71737 -3.78786 0
M  V30 7345 H 668.872 2.87804 -2.37114 0
M  V30 7346 N 671.057 1.43213 0.657864 0
M  V30 7347 C 671.967 1.50448 1.80007 0
M  V30 7348 C 672.983 0.39191 1.69529 0
M  V30 7349 O 674.159 0.645349 1.90781 0
M  V30 7350 C 671.224 1.42062 3.16258 0
M  V30 7351 C 670.285 2.63951 3.38568 0
M  V30 7352 C 669.518 2.55956 4.68318 0
M  V30 7353 O 669.741 1.60473 5.47361 0
M  V30 7354 O 668.675 3.46378 4.92245 0
M  V30 7355 H 672.501 2.4689 1.76858 0
M  V30 7356 H 670.086 1.25163 0.81576 0
M  V30 7357 H 671.968 1.3981 3.97531 0
M  V30 7358 H 670.643 0.487524 3.20008 0
M  V30 7359 H 669.55 2.71776 2.57077 0
M  V30 7360 H 670.883 3.56217 3.39662 0
M  V30 7361 N 672.536 -0.895792 1.29666 0
M  V30 7362 C 673.952 -1.17726 1.07763 0
M  V30 7363 C 674.152 -2.00794 -0.168576 0
M  V30 7364 O 673.208 -2.37213 -0.865244 0
M  V30 7365 C 674.521 -1.89441 2.33522 0
M  V30 7366 C 676.069 -2.02251 2.3888 0
M  V30 7367 C 676.544 -2.77378 3.64452 0
M  V30 7368 N 678.035 -2.8493 3.65198 0
M  V30 7369 C 678.77 -3.43606 4.59045 0
M  V30 7370 N 678.266 -4.03417 5.63228 0
M  V30 7371 N 680.059 -3.41317 4.46608 0
M  V30 7372 H 672.21 -0.341652 2.09634 0
M  V30 7373 H 674.473 -0.213865 0.923561 0
M  V30 7374 H 674.179 -1.35842 3.24407 0
M  V30 7375 H 674.053 -2.89893 2.41334 0
M  V30 7376 H 676.44 -2.55025 1.4848 0
M  V30 7377 H 676.521 -1.0092 2.3505 0
M  V30 7378 H 676.165 -2.25279 4.55205 0
M  V30 7379 H 676.095 -3.79062 3.65541 0
M  V30 7380 H 678.586 -2.42453 2.89871 0
M  V30 7381 H 678.899 -4.46224 6.30955 0
M  V30 7382 H 677.244 -4.01868 5.67033 0
M  V30 7383 H 680.435 -2.93812 3.64407 0
M  V30 7384 H 680.608 -3.86751 5.1993 0
M  V30 7385 N 674.014 -1.12206 -1.10668 0
M  V30 7386 C 675.263 -0.870595 -1.81944 0
M  V30 7387 C 675.576 0.605447 -1.85994 0
M  V30 7388 O 676.782 0.973433 -2.53449 0
M  V30 7389 C 675.238 -1.50783 -3.26791 0
M  V30 7390 C 674.846 -3.01849 -3.31046 0
M  V30 7391 C 676.59 -1.33653 -4.02911 0
M  V30 7392 C 674.497 -3.58518 -4.70339 0
M  V30 7393 H 673.427 -0.322043 -0.681765 0
M  V30 7394 H 676.078 -1.34827 -1.24475 0
M  V30 7395 H 674.46 -0.957825 -3.84242 0
M  V30 7396 H 675.634 -3.63321 -2.83433 0
M  V30 7397 H 673.949 -3.18346 -2.68411 0
M  V30 7398 H 676.546 -1.73416 -5.05797 0
M  V30 7399 H 676.889 -0.279949 -4.15358 0
M  V30 7400 H 677.422 -1.85562 -3.51868 0
M  V30 7401 H 674.161 -4.63925 -4.63091 0
M  V30 7402 H 673.681 -3.01819 -5.18329 0
M  V30 7403 H 675.36 -3.57434 -5.39305 0
M  V30 7404 N 675.492 1.28418 -0.913599 0
M  V30 7405 C 676.717 1.99643 -0.561899 0
M  V30 7406 C 677.142 1.67819 0.849608 0
M  V30 7407 O 676.5 0.910503 1.56779 0
M  V30 7408 C 676.548 3.52116 -0.777622 0
M  V30 7409 O 675.652 4.12076 0.163457 0
M  V30 7410 H 674.993 0.627229 -0.217898 0
M  V30 7411 H 677.523 1.63575 -1.229 0
M  V30 7412 H 677.533 4.02163 -0.687666 0
M  V30 7413 H 676.208 3.74613 -1.8066 0
M  V30 7414 H 674.785 3.72892 0.0247827 0
M  V30 7415 N 676.97 0.677563 1.42291 0
M  V30 7416 C 678.195 0.207901 2.06355 0
M  V30 7417 C 678.62 -1.12723 1.50583 0
M  V30 7418 O 677.978 -1.70171 0.62543 0
M  V30 7419 C 678.026 0.156489 3.6026 0
M  V30 7420 O 677.13 -0.874162 4.03029 0
M  V30 7421 H 676.471 0.106056 0.655475 0
M  V30 7422 H 679.001 0.927354 1.82377 0
M  V30 7423 H 679.011 -0.0187258 4.07996 0
M  V30 7424 H 677.686 1.13101 4.00226 0
M  V30 7425 H 676.263 -0.669764 3.66836 0
M  V30 7426 N 678.448 -1.51871 0.421078 0
M  V30 7427 C 679.694 -2.02237 -0.151014 0
M  V30 7428 C 680.027 -1.30554 -1.43768 0
M  V30 7429 O 679.302 -0.41546 -1.90011 0
M  V30 7430 C 679.585 -3.5802 -0.386482 0
M  V30 7431 C 679.438 -4.40339 0.9177 0
M  V30 7432 C 680.757 -4.24444 -1.16342 0
M  V30 7433 H 677.876 -0.735062 -0.0534102 0
M  V30 7434 H 680.518 -1.81656 0.556888 0
M  V30 7435 H 678.668 -3.75688 -0.989494 0
M  V30 7436 H 680.34 -4.34357 1.55344 0
M  V30 7437 H 678.583 -4.06073 1.526 0
M  V30 7438 H 679.254 -5.47451 0.707187 0
M  V30 7439 H 681.73 -4.10948 -0.652788 0
M  V30 7440 H 680.606 -5.33358 -1.29693 0
M  V30 7441 H 680.867 -3.84204 -2.18724 0
M  V30 7442 O 679.965 -0.292728 -1.58825 0
M  V30 7443 H 680.656 0.273626 -1.91758 0
M  V30 END ATOM
M  V30 BEGIN BOND
M  V30 END BOND
M  V30 END CTAB
M  END
$$$$
