448915
  -OEChem-10051720363D

 64 68  0     1  0  0  0  0  0999 V2000
   -2.7890    1.3822   -0.9278 O   0  0  0  0  0  0  0  0  0  0  0  0
    3.2649   -5.8142    0.0010 O   0  0  0  0  0  0  0  0  0  0  0  0
    3.3358    0.6185    0.5173 N   0  0  2  0  0  0  0  0  0  0  0  0
   -6.0749   -0.1140   -0.1617 N   0  0  0  0  0  0  0  0  0  0  0  0
    2.6473   -0.1718   -0.5339 C   0  0  1  0  0  0  0  0  0  0  0  0
    3.5105    0.0221    1.8422 C   0  0  0  0  0  0  0  0  0  0  0  0
    2.8138   -1.6813   -0.3601 C   0  0  0  0  0  0  0  0  0  0  0  0
   -7.3298   -0.1830   -0.9235 C   0  0  0  0  0  0  0  0  0  0  0  0
   -6.2947    0.4599    1.1733 C   0  0  0  0  0  0  0  0  0  0  0  0
   -8.3718   -1.0329   -0.1946 C   0  0  0  0  0  0  0  0  0  0  0  0
   -7.3030   -0.3686    1.9708 C   0  0  0  0  0  0  0  0  0  0  0  0
   -8.6203   -0.5147    1.2174 C   0  0  0  0  0  0  0  0  0  0  0  0
    4.2061   -1.3274    1.7150 C   0  0  0  0  0  0  0  0  0  0  0  0
    3.5300   -2.2246    0.7190 C   0  0  0  0  0  0  0  0  0  0  0  0
    1.1806    0.2471   -0.6403 C   0  0  0  0  0  0  0  0  0  0  0  0
   -5.0741    0.6620   -0.8936 C   0  0  0  0  0  0  0  0  0  0  0  0
    3.4750    2.0024    0.3619 C   0  0  0  0  0  0  0  0  0  0  0  0
    2.2644   -2.5550   -1.3169 C   0  0  0  0  0  0  0  0  0  0  0  0
    3.6803   -3.6153    0.8286 C   0  0  0  0  0  0  0  0  0  0  0  0
   -3.7363    0.6292   -0.1719 C   0  0  0  0  0  0  0  0  0  0  0  0
    0.7164    0.8262   -1.8142 C   0  0  0  0  0  0  0  0  0  0  0  0
    0.3302    0.0442    0.4389 C   0  0  0  0  0  0  0  0  0  0  0  0
    2.4078   -3.9367   -1.1921 C   0  0  0  0  0  0  0  0  0  0  0  0
    3.1143   -4.4670   -0.1180 C   0  0  0  0  0  0  0  0  0  0  0  0
   -1.4835    1.0093   -0.8323 C   0  0  0  0  0  0  0  0  0  0  0  0
    3.1604    2.8939    1.4127 C   0  0  0  0  0  0  0  0  0  0  0  0
    3.9360    2.5621   -0.8511 C   0  0  0  0  0  0  0  0  0  0  0  0
   -0.6215    1.2089   -1.9106 C   0  0  0  0  0  0  0  0  0  0  0  0
   -1.0077    0.4269    0.3423 C   0  0  0  0  0  0  0  0  0  0  0  0
    3.2997    4.2732    1.2583 C   0  0  0  0  0  0  0  0  0  0  0  0
    4.0756    3.9414   -1.0055 C   0  0  0  0  0  0  0  0  0  0  0  0
    3.7573    4.7969    0.0493 C   0  0  0  0  0  0  0  0  0  0  0  0
    3.1461    0.0363   -1.4897 H   0  0  0  0  0  0  0  0  0  0  0  0
    2.5488   -0.0801    2.3543 H   0  0  0  0  0  0  0  0  0  0  0  0
    4.1481    0.6454    2.4822 H   0  0  0  0  0  0  0  0  0  0  0  0
   -7.7344    0.8221   -1.1018 H   0  0  0  0  0  0  0  0  0  0  0  0
   -7.1450   -0.6385   -1.9040 H   0  0  0  0  0  0  0  0  0  0  0  0
   -5.3842    0.4540    1.7778 H   0  0  0  0  0  0  0  0  0  0  0  0
   -6.6417    1.4992    1.1034 H   0  0  0  0  0  0  0  0  0  0  0  0
   -9.3110   -1.0319   -0.7592 H   0  0  0  0  0  0  0  0  0  0  0  0
   -8.0284   -2.0742   -0.1466 H   0  0  0  0  0  0  0  0  0  0  0  0
   -7.4852    0.1037    2.9428 H   0  0  0  0  0  0  0  0  0  0  0  0
   -6.8853   -1.3636    2.1718 H   0  0  0  0  0  0  0  0  0  0  0  0
   -9.1230    0.4589    1.1669 H   0  0  0  0  0  0  0  0  0  0  0  0
   -9.2885   -1.1953    1.7561 H   0  0  0  0  0  0  0  0  0  0  0  0
    5.2439   -1.1807    1.3896 H   0  0  0  0  0  0  0  0  0  0  0  0
    4.2323   -1.8044    2.7020 H   0  0  0  0  0  0  0  0  0  0  0  0
   -4.9306    0.2430   -1.8982 H   0  0  0  0  0  0  0  0  0  0  0  0
   -5.3932    1.7023   -1.0428 H   0  0  0  0  0  0  0  0  0  0  0  0
    1.7208   -2.1627   -2.1731 H   0  0  0  0  0  0  0  0  0  0  0  0
    4.2498   -4.0293    1.6580 H   0  0  0  0  0  0  0  0  0  0  0  0
   -3.7817    1.1042    0.8113 H   0  0  0  0  0  0  0  0  0  0  0  0
   -3.4268   -0.4192   -0.0657 H   0  0  0  0  0  0  0  0  0  0  0  0
    1.3767    0.9872   -2.6615 H   0  0  0  0  0  0  0  0  0  0  0  0
    0.6675   -0.4226    1.3572 H   0  0  0  0  0  0  0  0  0  0  0  0
    1.9714   -4.5922   -1.9408 H   0  0  0  0  0  0  0  0  0  0  0  0
    2.7805    2.5247    2.3626 H   0  0  0  0  0  0  0  0  0  0  0  0
    4.2128    1.9251   -1.6874 H   0  0  0  0  0  0  0  0  0  0  0  0
   -0.9866    1.6618   -2.8282 H   0  0  0  0  0  0  0  0  0  0  0  0
   -1.6384    0.2739    1.2129 H   0  0  0  0  0  0  0  0  0  0  0  0
    3.0474    4.9400    2.0777 H   0  0  0  0  0  0  0  0  0  0  0  0
    4.4360    4.3493   -1.9453 H   0  0  0  0  0  0  0  0  0  0  0  0
    3.8656    5.8709   -0.0710 H   0  0  0  0  0  0  0  0  0  0  0  0
    3.7833   -6.0045    0.8016 H   0  0  0  0  0  0  0  0  0  0  0  0
  1 20  1  0  0  0  0
  1 25  1  0  0  0  0
  2 24  1  0  0  0  0
  2 64  1  0  0  0  0
  3  5  1  0  0  0  0
  3  6  1  0  0  0  0
  3 17  1  0  0  0  0
  4  8  1  0  0  0  0
  4  9  1  0  0  0  0
  4 16  1  0  0  0  0
  5  7  1  0  0  0  0
  5 15  1  0  0  0  0
  5 33  1  0  0  0  0
  6 13  1  0  0  0  0
  6 34  1  0  0  0  0
  6 35  1  0  0  0  0
  7 14  2  0  0  0  0
  7 18  1  0  0  0  0
  8 10  1  0  0  0  0
  8 36  1  0  0  0  0
  8 37  1  0  0  0  0
  9 11  1  0  0  0  0
  9 38  1  0  0  0  0
  9 39  1  0  0  0  0
 10 12  1  0  0  0  0
 10 40  1  0  0  0  0
 10 41  1  0  0  0  0
 11 12  1  0  0  0  0
 11 42  1  0  0  0  0
 11 43  1  0  0  0  0
 12 44  1  0  0  0  0
 12 45  1  0  0  0  0
 13 14  1  0  0  0  0
 13 46  1  0  0  0  0
 13 47  1  0  0  0  0
 14 19  1  0  0  0  0
 15 21  2  0  0  0  0
 15 22  1  0  0  0  0
 16 20  1  0  0  0  0
 16 48  1  0  0  0  0
 16 49  1  0  0  0  0
 17 26  2  0  0  0  0
 17 27  1  0  0  0  0
 18 23  2  0  0  0  0
 18 50  1  0  0  0  0
 19 24  2  0  0  0  0
 19 51  1  0  0  0  0
 20 52  1  0  0  0  0
 20 53  1  0  0  0  0
 21 28  1  0  0  0  0
 21 54  1  0  0  0  0
 22 29  2  0  0  0  0
 22 55  1  0  0  0  0
 23 24  1  0  0  0  0
 23 56  1  0  0  0  0
 25 28  2  0  0  0  0
 25 29  1  0  0  0  0
 26 30  1  0  0  0  0
 26 57  1  0  0  0  0
 27 31  2  0  0  0  0
 27 58  1  0  0  0  0
 28 59  1  0  0  0  0
 29 60  1  0  0  0  0
 30 32  2  0  0  0  0
 30 61  1  0  0  0  0
 31 32  1  0  0  0  0
 31 62  1  0  0  0  0
 32 63  1  0  0  0  0
M  END
> <DATABASE_ID>
DB04471

> <DATABASE_NAME>
drugbank

> <ORIGINAL_SOURCE>
PUBCHEM

> <ORIGINAL_SOURCE_URL>
https://pubchem.ncbi.nlm.nih.gov/rest/pug/compound/inchikey/FMWVCTJKLAVRPB-MUUNZHRXSA-N/SDF?record_type=3d

> <SMILES>
OC1=CC=C2[C@H](N(CCC2=C1)C1=CC=CC=C1)C1=CC=C(OCCN2CCCCC2)C=C1

> <INCHI_IDENTIFIER>
InChI=1S/C28H32N2O2/c31-25-11-14-27-23(21-25)15-18-30(24-7-3-1-4-8-24)28(27)22-9-12-26(13-10-22)32-20-19-29-16-5-2-6-17-29/h1,3-4,7-14,21,28,31H,2,5-6,15-20H2/t28-/m1/s1

> <INCHI_KEY>
FMWVCTJKLAVRPB-MUUNZHRXSA-N

> <FORMULA>
C28H32N2O2

> <MOLECULAR_WEIGHT>
428.5659

> <EXACT_MASS>
428.246378278

> <JCHEM_ACCEPTOR_COUNT>
4

> <JCHEM_AVERAGE_POLARIZABILITY>
49.66477294690766

> <JCHEM_BIOAVAILABILITY>
1

> <JCHEM_DONOR_COUNT>
1

> <JCHEM_FORMAL_CHARGE>
0

> <JCHEM_GHOSE_FILTER>
0

> <JCHEM_IUPAC>
(1R)-2-phenyl-1-{4-[2-(piperidin-1-yl)ethoxy]phenyl}-1,2,3,4-tetrahydroisoquinolin-6-ol

> <ALOGPS_LOGP>
6.04

> <JCHEM_LOGP>
5.701052680438899

> <ALOGPS_LOGS>
-4.54

> <JCHEM_MDDR_LIKE_RULE>
1

> <JCHEM_NUMBER_OF_RINGS>
5

> <JCHEM_PHYSIOLOGICAL_CHARGE>
1

> <JCHEM_PKA_STRONGEST_ACIDIC>
9.62853039271791

> <JCHEM_PKA_STRONGEST_BASIC>
8.771077716481669

> <JCHEM_POLAR_SURFACE_AREA>
35.940000000000005

> <JCHEM_REFRACTIVITY>
131.2968

> <JCHEM_ROTATABLE_BOND_COUNT>
6

> <JCHEM_RULE_OF_FIVE>
0

> <ALOGPS_SOLUBILITY>
1.22e-02 g/l

> <JCHEM_TRADITIONAL_IUPAC>
(1R)-2-phenyl-1-{4-[2-(piperidin-1-yl)ethoxy]phenyl}-3,4-dihydro-1H-isoquinolin-6-ol

> <JCHEM_VEBER_RULE>
1

> <DRUGBANK_ID>
DB04471

> <SECONDARY_ACCESSION_NUMBERS>
EXPT02683

> <DRUG_GROUPS>
experimental

> <GENERIC_NAME>
2-Phenyl-1-[4-(2-Piperidin-1-Yl-Ethoxy)-Phenyl]-1,2,3,4-Tetrahydro-Isoquinolin-6-Ol

$$$$