drugbank_target|P00749 Urokinase-type plasminogen activator (DB00594; DB01725; DB01905; DB01977; DB02287; DB02398; DB02473; DB02526; DB02551; DB02705; DB03046; DB03082; DB03127; DB03136; DB03159; DB03476; DB03729; DB03782; DB03865; DB03876; DB04059; DB04172; DB05254; DB06855; DB06856; DB06857; DB07076; DB07122; DB07129; DB07625; DB07626; DB08072; DB08697)
 OpenBabel12092119423D

  0  0  0     0  0            999 V3000
M  V30 BEGIN CTAB
M  V30 COUNTS 6725 6810 0 0 0
M  V30 BEGIN ATOM
M  V30 1 H -0.908 1.98254 -0.117106 0
M  V30 2 N 0 1.576 0 0
M  V30 3 C 0.933 2.03868 1.02534 0
M  V30 4 C 1.911 0.928543 1.3348 0
M  V30 5 O 3.095 1.19667 1.45644 0
M  V30 6 C 0.222 2.43627 2.35294 0
M  V30 7 C -0.732 3.65373 2.2001 0
M  V30 8 S 0.101 5.13292 1.52614 0
M  V30 9 C 1.257 5.56322 2.86805 0
M  V30 10 H 1.49 2.90518 0.631377 0
M  V30 11 H -0.977 1.52953 0.210867 0
M  V30 12 H 0.981 2.67203 3.11629 0
M  V30 13 H -0.358 1.57376 2.7183 0
M  V30 14 H -1.165 3.90944 3.18086 0
M  V30 15 H -1.563 3.418 1.51819 0
M  V30 16 H 0.729 5.58782 3.83104 0
M  V30 17 H 1.672 6.56266 2.65933 0
M  V30 18 H 2.08 4.83886 2.90714 0
M  V30 19 N 1.4781 -0.272755 1.55222 0
M  V30 20 C 2.8941 -0.619959 1.47067 0
M  V30 21 C 3.0941 -1.895 0.684978 0
M  V30 22 O 2.1501 -2.51675 0.203931 0
M  V30 23 C 3.4631 -0.746693 2.91282 0
M  V30 24 C 5.0111 -0.840731 3.01497 0
M  V30 25 C 5.4861 -0.99924 4.46967 0
M  V30 26 N 6.9771 -1.06476 4.50796 0
M  V30 27 C 7.7121 -1.20621 5.6057 0
M  V30 28 N 7.2081 -1.31483 6.80209 0
M  V30 29 N 9.0011 -1.23733 5.48312 0
M  V30 30 H 1.1521 0.564606 2.04758 0
M  V30 31 H 3.4151 0.191177 0.928523 0
M  V30 32 H 3.1211 0.119753 3.51496 0
M  V30 33 H 2.9951 -1.6269 3.40311 0
M  V30 34 H 5.3821 -1.69764 2.41379 0
M  V30 35 H 5.4631 0.0640874 2.5572 0
M  V30 36 H 5.1071 -0.146984 5.07687 0
M  V30 37 H 5.0371 -1.91871 4.90401 0
M  V30 38 H 7.5281 -0.993196 3.64615 0
M  V30 39 H 7.8411 -1.42111 7.59621 0
M  V30 40 H 6.1861 -1.28487 6.8302 0
M  V30 41 H 9.3771 -1.14877 4.53785 0
M  V30 42 H 9.5501 -1.34412 6.33906 0
M  V30 43 N 2.9562 -1.48159 -0.537278 0
M  V30 44 C 3.9192 -1.61665 -1.62472 0
M  V30 45 C 4.9192 -0.490395 -1.5314 0
M  V30 46 O 6.1092 -0.755998 -1.5694 0
M  V30 47 C 3.2412 -1.57997 -3.02076 0
M  V30 48 H 4.4342 -2.58621 -1.51839 0
M  V30 49 H 1.9872 -1.36647 -0.758771 0
M  V30 50 H 2.7222 -0.624913 -3.18222 0
M  V30 51 H 2.5072 -2.39755 -3.10258 0
M  V30 52 H 3.9972 -1.70627 -3.81151 0
M  V30 53 N 4.4343 0.785586 -1.36625 0
M  V30 54 C 5.3643 1.91259 -1.33949 0
M  V30 55 C 6.3453 1.68795 -0.210325 0
M  V30 56 O 7.5303 1.89854 -0.408561 0
M  V30 57 C 4.6603 3.28339 -1.13186 0
M  V30 58 C 3.6143 3.65335 -2.22967 0
M  V30 59 C 2.9403 5.00806 -1.87342 0
M  V30 60 C 4.2403 3.7352 -3.65075 0
M  V30 61 H 5.9343 1.93755 -2.28253 0
M  V30 62 H 3.4803 0.930788 -1.09874 0
M  V30 63 H 5.4333 4.06804 -1.09948 0
M  V30 64 H 4.1573 3.2624 -0.153332 0
M  V30 65 H 2.8163 2.89169 -2.25337 0
M  V30 66 H 2.4643 4.95233 -0.880545 0
M  V30 67 H 2.1643 5.26529 -2.60846 0
M  V30 68 H 3.6883 5.81687 -1.85667 0
M  V30 69 H 5.1023 4.42168 -3.64911 0
M  V30 70 H 3.4993 4.10731 -4.37516 0
M  V30 71 H 4.5693 2.74527 -3.99703 0
M  V30 72 N 5.9124 1.20967 1.01018 0
M  V30 73 C 6.8424 0.988272 2.11555 0
M  V30 74 C 7.8234 -0.0849778 1.69888 0
M  V30 75 O 9.0084 0.0738202 1.9406 0
M  V30 76 C 6.1384 0.546528 3.42973 0
M  V30 77 C 5.0924 1.56375 3.9841 0
M  V30 78 C 4.4184 0.97842 5.25672 0
M  V30 79 C 5.7184 2.94922 4.31066 0
M  V30 80 H 7.4124 1.91276 2.30334 0
M  V30 81 H 4.9584 0.921073 1.1069 0
M  V30 82 H 6.9114 0.378839 4.19694 0
M  V30 83 H 5.6354 -0.413598 3.23971 0
M  V30 84 H 4.2944 1.71891 3.23804 0
M  V30 85 H 3.9424 0.0101688 5.02999 0
M  V30 86 H 3.6424 1.65784 5.63728 0
M  V30 87 H 5.1664 0.821939 6.05043 0
M  V30 88 H 6.5804 2.8288 4.9865 0
M  V30 89 H 4.9774 3.5983 4.80253 0
M  V30 90 H 6.0474 3.4616 3.39561 0
M  V30 91 N 7.3905 -1.2043 1.01659 0
M  V30 92 C 8.3535 -2.21433 0.591616 0
M  V30 93 C 9.3535 -1.57203 -0.338226 0
M  V30 94 O 10.5435 -1.73737 -0.126918 0
M  V30 95 C 7.6755 -3.40628 -0.136058 0
M  V30 96 H 8.8685 -2.60545 1.48514 0
M  V30 97 H 6.4215 -1.33893 0.806379 0
M  V30 98 H 7.1565 -3.07019 -1.04449 0
M  V30 99 H 6.9415 -3.88475 0.531917 0
M  V30 100 H 8.4315 -4.15475 -0.420735 0
M  V30 101 N 8.8686 -0.792821 -1.36206 0
M  V30 102 C 10.2846 -0.474903 -1.52371 0
M  V30 103 C 10.4846 1.00622 -1.74578 0
M  V30 104 O 9.5406 1.79162 -1.77924 0
M  V30 105 C 10.8536 -1.3083 -2.70747 0
M  V30 106 C 12.4016 -1.30234 -2.84619 0
M  V30 107 C 12.8766 -2.11956 -4.06004 0
M  V30 108 N 14.3676 -2.09419 -4.13156 0
M  V30 109 C 15.1026 -2.69419 -5.06163 0
M  V30 110 N 14.5986 -3.3829 -6.04592 0
M  V30 111 N 16.3916 -2.59134 -4.98804 0
M  V30 112 H 8.5426 -1.75222 -1.20046 0
M  V30 113 H 10.8056 -0.745024 -0.586211 0
M  V30 114 H 10.5116 -2.35881 -2.6087 0
M  V30 115 H 10.3856 -0.95196 -3.6499 0
M  V30 116 H 12.7726 -0.259748 -2.93955 0
M  V30 117 H 12.8536 -1.69847 -1.91274 0
M  V30 118 H 12.4976 -3.16248 -3.97429 0
M  V30 119 H 12.4276 -1.69711 -4.98503 0
M  V30 120 H 14.9186 -1.59297 -3.42685 0
M  V30 121 H 15.2316 -3.81394 -6.7213 0
M  V30 122 H 13.5766 -3.42393 -6.04807 0
M  V30 123 H 16.7676 -2.04927 -4.20859 0
M  V30 124 H 16.9406 -3.06185 -5.711 0
M  V30 125 N 10.3467 1.47872 -0.545128 0
M  V30 126 C 11.2767 2.32661 0.197793 0
M  V30 127 C 12.2577 1.43041 0.920504 0
M  V30 128 O 13.4427 1.71912 0.90333 0
M  V30 129 C 10.5727 3.24569 1.23582 0
M  V30 130 C 9.5267 4.23333 0.630323 0
M  V30 131 C 8.8527 5.0448 1.77211 0
M  V30 132 C 10.1527 5.20704 -0.407974 0
M  V30 133 H 11.8467 2.95024 -0.510045 0
M  V30 134 H 9.3927 1.4187 -0.246731 0
M  V30 135 H 11.3457 3.8272 1.76362 0
M  V30 136 H 10.0697 2.60236 1.97344 0
M  V30 137 H 8.7287 3.6639 0.123922 0
M  V30 138 H 8.3767 4.36561 2.49847 0
M  V30 139 H 8.0767 5.71339 1.37281 0
M  V30 140 H 9.6007 5.65487 2.3034 0
M  V30 141 H 11.0147 5.7329 0.033305 0
M  V30 142 H 9.4117 5.95699 -0.725486 0
M  V30 143 H 10.4817 4.66917 -1.30828 0
M  V30 144 N 11.8248 0.280983 1.55075 0
M  V30 145 C 12.7548 -0.597469 2.25727 0
M  V30 146 C 13.7358 -1.15417 1.24952 0
M  V30 147 O 14.9208 -1.18722 1.53684 0
M  V30 148 C 12.0508 -1.7789 2.98283 0
M  V30 149 C 11.0048 -1.35347 4.06036 0
M  V30 150 C 10.3308 -2.61846 4.66198 0
M  V30 151 C 11.6308 -0.499354 5.19907 0
M  V30 152 H 13.3248 -0.00824265 2.99399 0
M  V30 153 H 10.8708 -0.0025244 1.44 0
M  V30 154 H 12.8238 -2.39937 3.46422 0
M  V30 155 H 11.5478 -2.39405 2.22155 0
M  V30 156 H 10.2068 -0.756156 3.58717 0
M  V30 157 H 9.8548 -3.21632 3.86732 0
M  V30 158 H 9.5548 -2.3409 5.38958 0
M  V30 159 H 11.0788 -3.24732 5.1709 0
M  V30 160 H 12.4928 -1.02498 5.64063 0
M  V30 161 H 10.8898 -0.316424 5.99265 0
M  V30 162 H 11.9598 0.480459 4.82514 0
M  V30 163 N 13.3029 -1.57598 0.00835791 0
M  V30 164 C 14.2329 -2.1198 -0.979113 0
M  V30 165 C 15.2139 -1.03091 -1.35301 0
M  V30 166 O 16.3989 -1.30818 -1.43528 0
M  V30 167 C 13.5289 -2.62995 -2.26828 0
M  V30 168 C 12.4829 -3.76485 -2.03576 0
M  V30 169 C 11.8089 -4.13846 -3.38579 0
M  V30 170 C 13.1089 -5.0342 -1.39161 0
M  V30 171 H 14.8029 -2.94738 -0.526281 0
M  V30 172 H 12.3489 -1.41783 -0.251704 0
M  V30 173 H 14.3019 -2.99669 -2.96271 0
M  V30 174 H 13.0259 -1.7737 -2.7424 0
M  V30 175 H 11.6849 -3.40217 -1.36557 0
M  V30 176 H 11.3329 -3.25232 -3.83709 0
M  V30 177 H 11.0329 -4.90312 -3.23834 0
M  V30 178 H 12.5569 -4.53086 -4.09323 0
M  V30 179 H 13.9709 -5.37812 -1.98573 0
M  V30 180 H 12.3679 -5.84746 -1.34878 0
M  V30 181 H 13.4379 -4.83548 -0.361868 0
M  V30 182 N 14.781 0.264519 -1.55364 0
M  V30 183 C 16.021 1.00254 -1.78125 0
M  V30 184 C 16.385 1.83187 -0.575017 0
M  V30 185 O 17.586 2.60029 -0.681042 0
M  V30 186 C 15.857 1.85478 -3.05504 0
M  V30 187 S 17.416 2.6543 -3.49417 0
M  V30 188 H 14.234 0.337522 -0.625779 0
M  V30 189 H 16.836 0.272111 -1.93597 0
M  V30 190 H 15.54 1.23491 -3.9138 0
M  V30 191 H 15.071 2.62827 -2.92721 0
M  V30 192 H 17.086 3.87958 -3.09359 0
M  V30 193 N 16.2591 1.48442 0.529413 0
M  V30 194 C 17.5051 1.5672 1.28711 0
M  V30 195 C 17.8381 0.2406 1.92704 0
M  V30 196 O 17.1131 -0.753454 1.79313 0
M  V30 197 C 17.3961 2.70587 2.37603 0
M  V30 198 C 17.2491 4.12953 1.78297 0
M  V30 199 C 18.5681 2.80212 3.39366 0
M  V30 200 H 15.6871 0.570474 0.466613 0
M  V30 201 H 18.3291 1.80617 0.589706 0
M  V30 202 H 16.4791 2.50342 2.97088 0
M  V30 203 H 18.1511 4.44639 1.22858 0
M  V30 204 H 16.3941 4.19927 1.0883 0
M  V30 205 H 17.0651 4.88448 2.57144 0
M  V30 206 H 19.5411 2.98553 2.89836 0
M  V30 207 H 18.4171 3.61611 4.12951 0
M  V30 208 H 18.6781 1.88393 3.99951 0
M  V30 209 N 17.7372 -0.778329 1.37039 0
M  V30 210 C 18.6672 -1.90546 1.34962 0
M  V30 211 C 19.6482 -1.68681 0.219274 0
M  V30 212 O 20.8332 -1.89634 0.418624 0
M  V30 213 C 17.9632 -3.27734 1.14925 0
M  V30 214 C 16.9172 -3.64147 2.24902 0
M  V30 215 C 16.2432 -4.99806 1.89996 0
M  V30 216 C 17.5432 -3.71579 3.67051 0
M  V30 217 H 19.2372 -1.92541 2.29277 0
M  V30 218 H 16.7832 -0.924948 1.10366 0
M  V30 219 H 18.7362 -4.06215 1.12104 0
M  V30 220 H 17.4602 -3.26154 0.170631 0
M  V30 221 H 16.1192 -2.8797 2.26868 0
M  V30 222 H 15.7672 -4.94759 0.906796 0
M  V30 223 H 15.4672 -5.25139 2.63634 0
M  V30 224 H 16.9912 -5.80694 1.88749 0
M  V30 225 H 18.4052 -4.40227 3.67251 0
M  V30 226 H 16.8022 -4.08405 4.39688 0
M  V30 227 H 17.8722 -2.72404 4.01154 0
M  V30 228 N 19.2153 -1.21501 -1.00376 0
M  V30 229 C 20.4613 -1.03452 -1.74429 0
M  V30 230 C 20.7943 0.430764 -1.89362 0
M  V30 231 O 20.0693 1.31962 -1.42886 0
M  V30 232 C 20.3523 -1.73375 -3.15615 0
M  V30 233 C 20.2053 -3.27431 -3.08397 0
M  V30 234 C 21.5243 -1.47732 -4.14564 0
M  V30 235 H 18.6433 -0.377226 -0.633143 0
M  V30 236 H 21.2853 -1.49693 -1.17013 0
M  V30 237 H 19.4353 -1.34064 -3.64636 0
M  V30 238 H 21.1073 -3.76119 -2.67081 0
M  V30 239 H 19.3503 -3.5767 -2.45468 0
M  V30 240 H 20.0213 -3.71524 -4.08258 0
M  V30 241 H 22.4973 -1.8186 -3.74254 0
M  V30 242 H 21.3733 -1.99169 -5.11491 0
M  V30 243 H 21.6343 -0.407589 -4.40217 0
M  V30 244 N 20.6934 1.19889 -1.02296 0
M  V30 245 C 21.9394 1.89701 -0.717033 0
M  V30 246 C 22.2724 1.7905 0.751989 0
M  V30 247 O 21.5474 1.17891 1.547 0
M  V30 248 C 21.8304 3.40858 -1.16136 0
M  V30 249 C 21.6834 3.60411 -2.69117 0
M  V30 250 C 23.0024 4.33876 -0.737549 0
M  V30 251 H 20.1214 0.688874 -0.261957 0
M  V30 252 H 22.7634 1.41154 -1.27183 0
M  V30 253 H 20.9134 3.82335 -0.689342 0
M  V30 254 H 22.5854 3.28145 -3.2422 0
M  V30 255 H 20.8284 3.03665 -3.0979 0
M  V30 256 H 21.4994 4.66396 -2.95261 0
M  V30 257 H 23.9754 4.00081 -1.14344 0
M  V30 258 H 22.8514 5.38242 -1.0764 0
M  V30 259 H 23.1124 4.40628 0.360436 0
M  V30 260 N 22.1715 0.800033 1.35784 0
M  V30 261 C 23.3965 0.388511 2.03729 0
M  V30 262 C 23.8215 -0.990481 1.5991 0
M  V30 263 O 23.1795 -1.64013 0.772612 0
M  V30 264 C 23.2275 0.4726 3.5749 0
M  V30 265 O 22.3315 -0.51646 4.09153 0
M  V30 266 H 21.6725 0.163271 0.643614 0
M  V30 267 H 24.2025 1.0841 1.73518 0
M  V30 268 H 24.2125 0.34003 4.06581 0
M  V30 269 H 22.8875 1.47848 3.88734 0
M  V30 270 H 21.4645 -0.344673 3.71304 0
M  V30 271 N 23.6496 -1.47581 0.552962 0
M  V30 272 C 24.9266 -1.95563 -0.0381515 0
M  V30 273 C 25.3066 -1.49552 -1.48988 0
M  V30 274 O 24.6546 -0.732414 -2.16444 0
M  V30 275 C 24.8646 -3.48848 0.102919 0
M  V30 276 C 26.2126 -4.24577 -0.0446082 0
M  V30 277 O 27.2366 -3.56187 0.0302548 0
M  V30 278 O 26.0956 -5.46116 -0.204923 0
M  V30 279 H 23.1896 -0.824321 -0.0665067 0
M  V30 280 H 25.7356 -1.58001 0.619186 0
M  V30 281 H 24.5076 -3.75129 1.11328 0
M  V30 282 H 24.1306 -3.93165 -0.592224 0
M  V30 283 N 25.1277 -0.289203 -1.54924 0
M  V30 284 C 26.3527 0.329299 -2.04769 0
M  V30 285 C 26.7777 1.4763 -1.16564 0
M  V30 286 O 26.1357 1.80527 -0.167186 0
M  V30 287 C 26.1837 0.774438 -3.52186 0
M  V30 288 O 25.2877 1.88038 -3.67036 0
M  V30 289 H 24.6287 0.0659259 -0.660719 0
M  V30 290 H 27.1587 -0.42761 -2.00082 0
M  V30 291 H 27.1687 1.06642 -3.93816 0
M  V30 292 H 25.8437 -0.0646707 -4.1585 0
M  V30 293 H 24.4207 1.58985 -3.3731 0
M  V30 294 N 26.6058 1.57591 -0.0167156 0
M  V30 295 C 27.5528 2.09462 0.969251 0
M  V30 296 C 28.5228 0.99381 1.33089 0
M  V30 297 O 29.7078 1.26726 1.42636 0
M  V30 298 C 26.8478 2.61622 2.25051 0
M  V30 299 C 25.9608 3.85666 1.94642 0
M  V30 300 C 25.0958 4.26266 3.16972 0
M  V30 301 C 24.1348 5.43101 2.82326 0
M  V30 302 N 23.2718 5.78915 3.97243 0
M  V30 303 H 28.1118 2.93428 0.519997 0
M  V30 304 H 25.6488 1.45044 0.245087 0
M  V30 305 H 27.6068 2.89949 2.99976 0
M  V30 306 H 26.2368 1.80505 2.67615 0
M  V30 307 H 25.2888 3.64145 1.10013 0
M  V30 308 H 26.6008 4.70678 1.65117 0
M  V30 309 H 25.7548 4.55963 4.00228 0
M  V30 310 H 24.4938 3.39996 3.49648 0
M  V30 311 H 23.4988 5.1311 1.97479 0
M  V30 312 H 24.7238 6.3106 2.50879 0
M  V30 313 H 22.6698 4.95602 4.29785 0
M  V30 314 H 22.5868 6.58539 3.71299 0
M  V30 315 H 23.8548 6.13212 4.81239 0
M  V30 316 N 28.0839 -0.256276 1.55502 0
M  V30 317 C 29.3319 -0.983672 1.76545 0
M  V30 318 C 29.6529 -1.86206 0.578982 0
M  V30 319 O 28.9229 -1.91656 -0.405577 0
M  V30 320 H 27.5029 -0.366191 0.651086 0
M  V30 321 H 30.1649 -0.276479 1.92929 0
M  V30 322 H 29.2609 -1.61087 2.67315 0
M  V30 323 N 29.562 -1.4872 -0.521534 0
M  V30 324 C 30.787 -1.61101 -1.30618 0
M  V30 325 C 31.212 -0.274611 -1.86085 0
M  V30 326 O 30.57 0.754937 -1.64834 0
M  V30 327 C 30.618 -2.66709 -2.4269 0
M  V30 328 O 29.722 -2.24456 -3.45967 0
M  V30 329 H 29.063 -0.539921 -0.386499 0
M  V30 330 H 31.593 -1.94767 -0.626645 0
M  V30 331 H 31.603 -2.88245 -2.88754 0
M  V30 332 H 30.278 -3.63727 -2.01682 0
M  V30 333 H 28.855 -2.13168 -3.05964 0
M  V30 334 N 31.0401 0.771051 -1.3745 0
M  V30 335 C 31.9881 1.90574 -1.33358 0
M  V30 336 C 32.9821 1.67936 -0.22224 0
M  V30 337 O 34.1881 1.75717 -0.390304 0
M  V30 338 H 30.5631 0.626714 -0.415612 0
M  V30 339 H 32.5341 1.91142 -2.29144 0
M  V30 340 C 31.2831 3.27845 -1.15813 0
M  V30 341 H 30.6061 3.45842 -2.00583 0
M  V30 342 H 32.0461 4.07538 -1.17 0
M  V30 343 C 30.5051 3.36625 0.136165 0
M  V30 344 O 31.0351 3.85785 1.11949 0
M  V30 345 N 29.2411 2.89997 0.187099 0
M  V30 346 H 28.7881 2.50182 -0.613753 0
M  V30 347 H 28.7461 2.96252 1.05272 0
M  V30 348 N 32.5182 1.22032 0.997298 0
M  V30 349 C 33.4282 1.00271 2.12092 0
M  V30 350 C 34.4442 -0.047621 1.73935 0
M  V30 351 O 35.6202 0.144136 2.00884 0
M  V30 352 C 32.6852 0.578449 3.4184 0
M  V30 353 C 31.7462 1.70189 3.94125 0
M  V30 354 C 30.9792 1.29778 5.17681 0
M  V30 355 O 31.2022 0.174676 5.70132 0
M  V30 356 O 30.1362 2.11261 5.63607 0
M  V30 357 H 33.9622 1.94398 2.3333 0
M  V30 358 H 31.5472 1.00587 1.10465 0
M  V30 359 H 33.4292 0.351998 4.19927 0
M  V30 360 H 32.1042 -0.334019 3.21972 0
M  V30 361 H 31.0112 1.98282 3.1723 0
M  V30 362 H 32.3442 2.59206 4.18417 0
M  V30 363 N 33.9963 -1.19345 1.0293 0
M  V30 364 C 34.9263 -2.2481 0.631105 0
M  V30 365 C 35.9073 -1.66245 -0.360104 0
M  V30 366 O 37.0923 -1.92677 -0.242726 0
M  V30 367 C 34.2223 -3.47295 -0.0184607 0
M  V30 368 C 33.1763 -4.18536 0.895073 0
M  V30 369 C 32.5023 -5.34586 0.110592 0
M  V30 370 C 33.8023 -4.73287 2.209 0
M  V30 371 H 35.4963 -2.58372 1.51275 0
M  V30 372 H 33.0423 -1.24194 0.728818 0
M  V30 373 H 34.9953 -4.20268 -0.308675 0
M  V30 374 H 33.7193 -3.12933 -0.934907 0
M  V30 375 H 32.3783 -3.47446 1.16949 0
M  V30 376 H 32.0263 -4.96469 -0.807902 0
M  V30 377 H 31.7263 -5.83183 0.719087 0
M  V30 378 H 33.2503 -6.10355 -0.172871 0
M  V30 379 H 34.6643 -5.38013 1.98028 0
M  V30 380 H 33.0613 -5.32373 2.76946 0
M  V30 381 H 34.1313 -3.91331 2.86336 0
M  V30 382 N 35.4744 -0.807222 -1.35358 0
M  V30 383 C 36.4244 -0.190706 -2.27201 0
M  V30 384 C 37.4084 0.635838 -1.47804 0
M  V30 385 O 38.6004 0.492991 -1.69996 0
M  V30 386 C 35.7294 0.659337 -3.36909 0
M  V30 387 C 34.8154 -0.176971 -4.23731 0
M  V30 388 N 35.2064 -1.24029 -4.90357 0
M  V30 389 C 33.5044 0.0412953 -4.45981 0
M  V30 390 C 34.2054 -1.75092 -5.54723 0
M  V30 391 N 33.1814 -1.05727 -5.33219 0
M  V30 392 H 36.9834 -1.0043 -2.76208 0
M  V30 393 H 34.4974 -0.648445 -1.48892 0
M  V30 394 H 36.4944 1.11706 -4.01656 0
M  V30 395 H 35.1544 1.47127 -2.89454 0
M  V30 396 H 36.1654 -1.62295 -4.91814 0
M  V30 397 H 32.8424 0.82232 -4.09322 0
M  V30 398 H 34.2324 -2.63963 -6.17878 0
M  V30 399 N 36.9525 1.47285 -0.560781 0
M  V30 400 C 37.8845 2.28118 0.222438 0
M  V30 401 C 38.8975 1.37219 0.876056 0
M  V30 402 O 40.0865 1.62011 0.749307 0
M  V30 403 C 37.1865 3.1159 1.33285 0
M  V30 404 C 36.3595 4.30473 0.77534 0
M  V30 405 C 35.4185 4.95513 1.77069 0
M  V30 406 O 34.4445 5.53792 1.31539 0
M  V30 407 N 35.6465 4.90531 3.10418 0
M  V30 408 H 38.4115 2.95976 -0.470958 0
M  V30 409 H 35.9725 1.56955 -0.39709 0
M  V30 410 H 37.9645 3.51967 1.99752 0
M  V30 411 H 36.5345 2.45951 1.92943 0
M  V30 412 H 35.7545 3.94144 -0.0662113 0
M  V30 413 H 37.0425 5.07362 0.382272 0
M  V30 414 H 36.4405 4.44389 3.5005 0
M  V30 415 H 34.9975 5.34917 3.72434 0
M  V30 416 N 38.4306 0.297415 1.54768 0
M  V30 417 C 39.6766 -0.313376 2.00364 0
M  V30 418 C 40.0096 -1.53815 1.18553 0
M  V30 419 O 39.2846 -1.92739 0.261103 0
M  V30 420 C 39.5676 -0.673525 3.53745 0
M  V30 421 C 39.4206 0.560133 4.46299 0
M  V30 422 C 40.7396 -1.50143 4.13697 0
M  V30 423 H 37.8586 -0.112428 0.728374 0
M  V30 424 H 40.5006 0.4088 1.8555 0
M  V30 425 H 38.6506 -1.28881 3.665 0
M  V30 426 H 40.3226 1.19863 4.45455 0
M  V30 427 H 38.5656 1.19405 4.17043 0
M  V30 428 H 39.2366 0.26405 5.51368 0
M  V30 429 H 41.7126 -0.981588 4.04356 0
M  V30 430 H 40.5886 -1.72221 5.21182 0
M  V30 431 H 40.8496 -2.48952 3.65343 0
M  V30 432 N 39.9087 -1.5758 0.0250728 0
M  V30 433 C 41.3197 -1.79476 -0.514323 0
M  V30 434 C 41.6707 -0.934956 -1.72491 0
M  V30 435 O 40.7957 -0.144245 -2.15919 0
M  V30 436 C 41.3907 -3.25503 -0.939842 0
M  V30 437 C 39.9497 -3.48408 -1.42438 0
M  V30 438 C 39.0967 -2.74583 -0.387201 0
M  V30 439 H 42.0477 -1.567 0.25113 0
M  V30 440 H 42.0687 -3.34992 -1.80445 0
M  V30 441 H 41.5807 -3.88056 -0.0585628 0
M  V30 442 H 39.6817 -2.91103 -2.32572 0
M  V30 443 H 39.7947 -4.57119 -1.43455 0
M  V30 444 H 38.1587 -2.39942 -0.854409 0
M  V30 445 H 38.9417 -3.39849 0.485543 0
M  V30 446 N 41.3868 0.248026 -1.55636 0
M  V30 447 C 42.6118 0.998028 -1.81808 0
M  V30 448 C 43.0368 1.78207 -0.601979 0
M  V30 449 O 42.3948 1.75653 0.448961 0
M  V30 450 C 42.4428 1.9125 -3.05705 0
M  V30 451 O 41.5468 3.00406 -2.82542 0
M  V30 452 H 40.8878 0.284045 -0.600179 0
M  V30 453 H 43.4178 0.269357 -2.02819 0
M  V30 454 H 43.4278 2.32737 -3.35108 0
M  V30 455 H 42.1028 1.33602 -3.93857 0
M  V30 456 H 40.6798 2.63056 -2.64303 0
M  V30 457 N 42.8649 1.48995 0.513639 0
M  V30 458 C 43.8129 1.65199 1.63744 0
M  V30 459 C 44.8069 0.51809 1.61283 0
M  V30 460 O 46.0129 0.697335 1.65943 0
M  V30 461 H 42.3879 0.52069 0.542574 0
M  V30 462 H 44.3589 2.59552 1.47226 0
M  V30 463 C 43.1079 1.72409 3.01945 0
M  V30 464 H 42.4309 2.59029 3.04539 0
M  V30 465 H 43.8709 1.87785 3.80148 0
M  V30 466 C 42.3299 0.46618 3.33659 0
M  V30 467 O 42.8599 -0.413744 3.99564 0
M  V30 468 N 41.0659 0.332931 2.88687 0
M  V30 469 H 40.6129 1.04996 2.35231 0
M  V30 470 H 40.5709 -0.507665 3.10274 0
M  V30 471 N 44.343 -0.763751 1.37857 0
M  V30 472 C 45.583 -1.53551 1.34913 0
M  V30 473 C 45.947 -1.91895 -0.0635882 0
M  V30 474 O 47.148 -2.67916 -0.217825 0
M  V30 475 C 45.419 -2.76126 2.26912 0
M  V30 476 S 46.978 -3.66105 2.41893 0
M  V30 477 H 43.796 -0.52559 0.478828 0
M  V30 478 H 46.398 -0.897435 1.73685 0
M  V30 479 H 45.102 -2.4605 3.28463 0
M  V30 480 H 44.633 -3.44887 1.89253 0
M  V30 481 H 46.648 -4.68473 1.63545 0
M  V30 482 N 45.8211 -1.22559 -0.990812 0
M  V30 483 C 47.0981 -0.959875 -1.70428 0
M  V30 484 C 47.4781 0.524455 -2.04481 0
M  V30 485 O 46.8261 1.49302 -1.72977 0
M  V30 486 C 47.0361 -1.85955 -2.95333 0
M  V30 487 C 48.3841 -2.11687 -3.68068 0
M  V30 488 O 49.4081 -1.8342 -3.05345 0
M  V30 489 O 48.2671 -2.59572 -4.80921 0
M  V30 490 H 45.3611 -0.361154 -0.743974 0
M  V30 491 H 47.9071 -1.33554 -1.04697 0
M  V30 492 H 46.6791 -2.86346 -2.66687 0
M  V30 493 H 46.3021 -1.4856 -3.68803 0
M  V30 494 N 47.2992 1.18797 -1.03562 0
M  V30 495 C 48.5392 1.90346 -0.744832 0
M  V30 496 C 48.9032 1.78231 0.713972 0
M  V30 497 O 50.1042 2.44441 1.11813 0
M  V30 498 C 48.3752 3.36942 -1.19184 0
M  V30 499 S 49.9342 4.26638 -1.02593 0
M  V30 500 H 46.7522 0.657343 -0.270963 0
M  V30 501 H 49.3542 1.43579 -1.32685 0
M  V30 502 H 48.0582 3.43287 -2.24905 0
M  V30 503 H 47.5892 3.88745 -0.603397 0
M  V30 504 H 49.6042 4.96164 0.0596033 0
M  V30 505 N 48.7773 0.814389 1.34928 0
M  V30 506 C 49.7073 0.244827 2.32213 0
M  V30 507 C 50.6883 -0.634024 1.57842 0
M  V30 508 O 51.8733 -0.562676 1.8587 0
M  V30 509 C 49.0033 -0.601106 3.42058 0
M  V30 510 C 47.9573 0.179896 4.27622 0
M  V30 511 C 47.2833 -0.788237 5.28858 0
M  V30 512 C 48.5833 1.38329 5.03649 0
M  V30 513 H 50.2773 1.05763 2.80097 0
M  V30 514 H 47.8233 0.510029 1.34665 0
M  V30 515 H 49.7763 -1.00968 4.09125 0
M  V30 516 H 48.5003 -1.44688 2.92802 0
M  V30 517 H 47.1593 0.569739 3.62146 0
M  V30 518 H 46.8073 -1.62973 4.75866 0
M  V30 519 H 46.5073 -0.269942 5.8698 0
M  V30 520 H 48.0313 -1.19485 5.98795 0
M  V30 521 H 49.4453 1.04918 5.63618 0
M  V30 522 H 47.8423 1.83662 5.71304 0
M  V30 523 H 48.9123 2.16592 4.33839 0
M  V30 524 N 50.2554 -1.46986 0.568584 0
M  V30 525 C 51.2034 -2.31858 -0.185649 0
M  V30 526 C 52.1974 -1.43624 -0.898249 0
M  V30 527 O 53.4034 -1.60327 -0.818242 0
M  V30 528 H 49.7784 -0.747866 -0.0787399 0
M  V30 529 H 51.7494 -2.93303 0.549191 0
M  V30 530 C 50.4984 -3.26513 -1.19519 0
M  V30 531 H 49.8214 -3.94377 -0.656285 0
M  V30 532 H 51.2614 -3.88707 -1.6936 0
M  V30 533 C 49.7204 -2.50847 -2.24894 0
M  V30 534 O 50.2504 -2.26119 -3.32014 0
M  V30 535 N 48.4564 -2.11656 -1.99124 0
M  V30 536 H 48.0034 -2.31966 -1.12024 0
M  V30 537 H 47.9614 -1.61347 -2.69842 0
M  V30 538 N 51.7335 -0.305618 -1.54608 0
M  V30 539 C 52.9815 0.301701 -1.99835 0
M  V30 540 C 53.3025 1.54054 -1.19551 0
M  V30 541 O 52.5725 1.93702 -0.292658 0
M  V30 542 H 51.1525 0.114468 -0.738178 0
M  V30 543 H 53.8145 -0.418016 -1.90364 0
M  V30 544 H 52.9105 0.570548 -3.06841 0
M  V30 545 N 53.2116 1.57565 -0.0334293 0
M  V30 546 C 54.4596 1.91598 0.642999 0
M  V30 547 C 54.7806 0.910847 1.7242 0
M  V30 548 O 54.0506 -0.0469931 1.95844 0
M  V30 549 H 52.6306 0.707228 0.240496 0
M  V30 550 H 55.2926 1.94726 -0.0822488 0
M  V30 551 H 54.3886 2.92336 1.09298 0
M  V30 552 N 54.6897 -0.239769 1.55765 0
M  V30 553 C 55.9177 -0.98417 1.81994 0
M  V30 554 C 56.3327 -1.7867 0.610124 0
M  V30 555 O 55.6897 -1.77571 -0.421271 0
M  V30 556 C 55.7407 -1.91635 3.06526 0
M  V30 557 O 55.4617 -1.14629 4.22838 0
M  V30 558 C 56.9627 -2.77616 3.45607 0
M  V30 559 H 54.1827 -0.28928 0.605441 0
M  V30 560 H 56.7267 -0.260499 2.02834 0
M  V30 561 H 54.8817 -2.5942 2.87715 0
M  V30 562 H 55.2957 -1.77745 4.93464 0
M  V30 563 H 56.7697 -3.38759 4.35828 0
M  V30 564 H 57.2467 -3.4909 2.6652 0
M  V30 565 H 57.8527 -2.15271 3.66795 0
M  V30 566 N 56.1678 -1.49265 -0.50573 0
M  V30 567 C 57.4078 -1.60128 -1.27038 0
M  V30 568 C 57.7718 -0.279557 -1.89954 0
M  V30 569 O 58.9728 -0.263329 -2.67507 0
M  V30 570 C 57.2438 -2.72507 -2.31246 0
M  V30 571 S 58.8028 -3.0329 -3.17113 0
M  V30 572 H 55.6208 -0.564863 -0.4318 0
M  V30 573 H 58.2228 -1.86902 -0.573397 0
M  V30 574 H 56.9268 -3.67068 -1.83546 0
M  V30 575 H 56.4578 -2.4771 -3.05619 0
M  V30 576 H 58.4728 -2.44448 -4.31809 0
M  V30 577 N 57.6459 0.756429 -1.3826 0
M  V30 578 C 58.8919 1.51772 -1.34511 0
M  V30 579 C 59.2249 1.94089 0.0656691 0
M  V30 580 O 58.4999 1.65221 1.02626 0
M  V30 581 C 58.7829 2.77226 -2.29821 0
M  V30 582 C 58.6359 2.41065 -3.79747 0
M  V30 583 C 59.9549 3.79236 -2.23312 0
M  V30 584 H 57.0739 0.550578 -0.489931 0
M  V30 585 H 59.7159 0.866607 -1.69086 0
M  V30 586 H 57.8659 3.32784 -2.00467 0
M  V30 587 H 59.5379 1.91303 -4.19763 0
M  V30 588 H 57.7809 1.7356 -3.97567 0
M  V30 589 H 58.4519 3.3081 -4.41892 0
M  V30 590 H 60.9279 3.3321 -2.49219 0
M  V30 591 H 59.8039 4.64714 -2.92116 0
M  V30 592 H 60.0649 4.24615 -1.23102 0
M  V30 593 N 59.124 1.23083 0.984299 0
M  V30 594 C 60.349 1.088 1.76571 0
M  V30 595 C 60.774 -0.356657 1.84688 0
M  V30 596 O 60.132 -1.25788 1.30565 0
M  V30 597 C 60.18 1.71371 3.17277 0
M  V30 598 O 59.284 0.973213 4.00752 0
M  V30 599 H 58.625 0.381599 0.543395 0
M  V30 600 H 61.155 1.63057 1.23587 0
M  V30 601 H 61.165 1.76449 3.67872 0
M  V30 602 H 59.84 2.76493 3.10684 0
M  V30 603 H 58.417 0.999078 3.59267 0
M  V30 604 N 60.6021 -1.18246 1.0419 0
M  V30 605 C 61.5501 -2.23968 0.627792 0
M  V30 606 C 62.5441 -1.65828 -0.346019 0
M  V30 607 O 63.7501 -1.78733 -0.213175 0
M  V30 608 H 60.1251 -0.728939 0.184802 0
M  V30 609 H 62.0961 -2.56202 1.52981 0
M  V30 610 C 60.8451 -3.47699 0.00796591 0
M  V30 611 H 60.1681 -3.92734 0.748347 0
M  V30 612 H 61.6081 -4.23294 -0.24455 0
M  V30 613 C 60.0671 -3.13153 -1.24246 0
M  V30 614 O 60.5971 -3.27003 -2.33307 0
M  V30 615 N 58.8031 -2.67467 -1.13622 0
M  V30 616 H 58.3501 -2.56396 -0.248734 0
M  V30 617 H 58.3081 -2.44724 -1.97377 0
M  V30 618 N 62.0802 -0.821533 -1.34494 0
M  V30 619 C 63.0272 -0.240397 -2.29545 0
M  V30 620 C 63.9972 0.634031 -1.53523 0
M  V30 621 O 65.1822 0.575966 -1.81899 0
M  V30 622 C 62.3222 0.592869 -3.39969 0
M  V30 623 C 61.4352 -0.30365 -4.30932 0
M  V30 624 C 60.5702 0.539049 -5.28458 0
M  V30 625 C 59.6092 -0.356942 -6.11058 0
M  V30 626 N 58.7462 0.446603 -7.00678 0
M  V30 627 H 63.5862 -1.05632 -2.7865 0
M  V30 628 H 61.1232 -0.532413 -1.37127 0
M  V30 629 H 63.0812 1.09129 -4.02675 0
M  V30 630 H 61.7112 1.37392 -2.92102 0
M  V30 631 H 60.7632 -0.920276 -3.691 0
M  V30 632 H 62.0752 -0.992661 -4.88823 0
M  V30 633 H 61.2292 1.102 -5.96608 0
M  V30 634 H 59.9682 1.26157 -4.71101 0
M  V30 635 H 58.9732 -0.932047 -5.41842 0
M  V30 636 H 60.1982 -1.07755 -6.70497 0
M  V30 637 H 58.1442 1.15282 -6.45791 0
M  V30 638 H 58.0612 -0.184048 -7.55776 0
M  V30 639 H 59.3292 0.992352 -7.73158 0
M  V30 640 N 63.5583 1.46682 -0.576371 0
M  V30 641 C 64.7883 2.06498 -0.0648694 0
M  V30 642 C 65.1963 1.42665 1.24271 0
M  V30 643 O 64.5393 0.523886 1.76071 0
M  V30 644 C 64.6013 3.5904 0.181816 0
M  V30 645 C 64.2653 4.45028 -1.0392 0
M  V30 646 C 65.2623 4.81959 -1.94966 0
M  V30 647 C 62.9473 4.86259 -1.25927 0
M  V30 648 C 64.9413 5.58942 -3.06371 0
M  V30 649 C 62.6283 5.63002 -2.37638 0
M  V30 650 C 63.6263 5.99257 -3.2769 0
M  V30 651 O 63.3143 6.7445 -4.37461 0
M  V30 652 H 63.0463 0.674028 -0.0515987 0
M  V30 653 H 65.6003 1.89393 -0.794951 0
M  V30 654 H 63.8303 3.74429 0.966436 0
M  V30 655 H 65.5193 4.00806 0.641047 0
M  V30 656 H 66.2853 4.50689 -1.79177 0
M  V30 657 H 62.1643 4.57494 -0.567448 0
M  V30 658 H 65.7083 5.87158 -3.76684 0
M  V30 659 H 61.6053 5.93686 -2.53392 0
M  V30 660 H 62.3733 6.92867 -4.35749 0
M  V30 661 N 65.0364 0.313813 1.54444 0
M  V30 662 C 66.2834 -0.291675 2.00388 0
M  V30 663 C 66.6114 -1.52904 1.2021 0
M  V30 664 O 65.8664 -1.93833 0.269707 0
M  V30 665 C 66.1654 -0.680386 3.50864 0
M  V30 666 C 65.8314 0.456699 4.48581 0
M  V30 667 C 64.4934 0.768824 4.75018 0
M  V30 668 C 66.8454 1.22098 5.06697 0
M  V30 669 C 64.1734 1.84812 5.56831 0
M  V30 670 C 66.5254 2.29029 5.89685 0
M  V30 671 C 65.1894 2.60834 6.14428 0
M  V30 672 H 64.4594 -0.106732 0.733273 0
M  V30 673 H 67.1064 0.43557 1.86481 0
M  V30 674 H 65.4114 -1.48791 3.62448 0
M  V30 675 H 67.1084 -1.16026 3.83847 0
M  V30 676 H 63.6984 0.203337 4.28117 0
M  V30 677 H 67.8824 0.993096 4.86263 0
M  V30 678 H 63.1384 2.09912 5.74236 0
M  V30 679 H 67.3124 2.887 6.33739 0
M  V30 680 H 64.9394 3.44596 6.77612 0
M  V30 681 N 66.5145 -1.57545 0.0417849 0
M  V30 682 C 67.7395 -1.97035 -0.647455 0
M  V30 683 C 68.1645 -0.918775 -1.64135 0
M  V30 684 O 67.5225 0.119006 -1.80909 0
M  V30 685 C 67.5705 -3.35609 -1.31905 0
M  V30 686 O 66.6745 -3.3287 -2.43457 0
M  V30 687 H 66.0155 -0.64211 -0.169086 0
M  V30 688 H 68.5455 -2.04318 0.107399 0
M  V30 689 H 68.5555 -3.72126 -1.67291 0
M  V30 690 H 67.2305 -4.11685 -0.590586 0
M  V30 691 H 65.8075 -3.08087 -2.10088 0
M  V30 692 N 67.9926 0.231505 -1.5589 0
M  V30 693 C 68.9406 1.30649 -1.92441 0
M  V30 694 C 69.9346 1.49037 -0.805254 0
M  V30 695 O 71.1406 1.50329 -0.990007 0
M  V30 696 H 67.5156 0.437812 -0.611412 0
M  V30 697 H 69.4866 0.970973 -2.82161 0
M  V30 698 C 68.2356 2.65179 -2.24889 0
M  V30 699 H 67.5586 2.51835 -3.10514 0
M  V30 700 H 68.9986 3.39234 -2.54355 0
M  V30 701 C 67.4576 3.19439 -1.07054 0
M  V30 702 O 67.9876 4.00371 -0.326499 0
M  V30 703 N 66.1936 2.77675 -0.85703 0
M  V30 704 H 65.7406 2.11969 -1.46379 0
M  V30 705 H 65.6986 3.14321 -0.0703223 0
M  V30 706 N 69.4707 1.49531 0.497807 0
M  V30 707 C 70.7197 1.58426 1.24837 0
M  V30 708 C 71.0327 0.277643 1.93619 0
M  V30 709 O 72.2387 0.24517 2.70391 0
M  V30 710 C 70.6947 2.79538 2.26686 0
M  V30 711 C 70.3027 4.16971 1.63828 0
M  V30 712 C 72.0467 2.97764 3.0255 0
M  V30 713 C 69.9537 5.29301 2.63807 0
M  V30 714 H 68.8837 0.58989 0.469623 0
M  V30 715 H 71.5347 1.75923 0.521857 0
M  V30 716 H 69.9167 2.55542 3.02514 0
M  V30 717 H 71.0907 4.51116 0.939711 0
M  V30 718 H 69.4057 4.04129 1.00342 0
M  V30 719 H 72.0027 3.78856 3.77323 0
M  V30 720 H 72.3457 2.08448 3.60354 0
M  V30 721 H 72.8787 3.21815 2.33838 0
M  V30 722 H 69.6177 6.20687 2.10779 0
M  V30 723 H 69.1377 4.99606 3.31894 0
M  V30 724 H 70.8167 5.58768 3.2617 0
M  V30 725 N 70.9488 -0.749086 1.3866 0
M  V30 726 C 71.8988 -1.85368 1.32751 0
M  V30 727 C 72.8828 -1.59511 0.210945 0
M  V30 728 O 74.0748 -1.71255 0.447299 0
M  V30 729 C 71.2038 -3.23131 1.15935 0
M  V30 730 C 70.2898 -3.54864 2.32233 0
M  V30 731 N 70.6808 -3.57625 3.57684 0
M  V30 732 C 68.9788 -3.85154 2.24883 0
M  V30 733 C 69.6798 -3.86753 4.34508 0
M  V30 734 N 68.6558 -4.03812 3.63918 0
M  V30 735 H 72.4578 -1.85787 2.27729 0
M  V30 736 H 69.9718 -0.946658 1.31955 0
M  V30 737 H 71.9688 -4.02185 1.09786 0
M  V30 738 H 70.6288 -3.23961 0.218947 0
M  V30 739 H 71.6398 -3.39276 3.91295 0
M  V30 740 H 68.3168 -3.93672 1.39027 0
M  V30 741 H 69.7068 -3.95474 5.43185 0
M  V30 742 N 72.4269 -1.23603 -0.977757 0
M  V30 743 C 73.6729 -1.08136 -1.72274 0
M  V30 744 C 74.0279 0.377453 -1.88661 0
M  V30 745 O 73.3209 1.27552 -1.42972 0
M  V30 746 C 73.5149 -1.7433 -3.11999 0
M  V30 747 C 73.3439 -3.26498 -3.0924 0
M  V30 748 C 72.1139 -3.9567 -3.14282 0
M  V30 749 C 74.3119 -4.2323 -2.92201 0
M  V30 750 N 72.2939 -5.34799 -3.01436 0
M  V30 751 C 73.6649 -5.49289 -2.87544 0
M  V30 752 C 75.7199 -4.13931 -2.76705 0
M  V30 753 C 74.4229 -6.67116 -2.68978 0
M  V30 754 C 76.4489 -5.31424 -2.59504 0
M  V30 755 C 75.8109 -6.5641 -2.55548 0
M  V30 756 H 71.9099 -0.450247 -0.639376 0
M  V30 757 H 74.4939 -1.5637 -1.16002 0
M  V30 758 H 72.6649 -1.28624 -3.66484 0
M  V30 759 H 74.3969 -1.51815 -3.75146 0
M  V30 760 H 71.1519 -3.46767 -3.22567 0
M  V30 761 H 71.5759 -6.07748 -2.98281 0
M  V30 762 H 76.2179 -3.1807 -2.78552 0
M  V30 763 H 73.9359 -7.63109 -2.65876 0
M  V30 764 H 77.5219 -5.26072 -2.48474 0
M  V30 765 H 76.4019 -7.45795 -2.42405 0
M  V30 766 N 73.905 1.17692 -1.04816 0
M  V30 767 C 75.145 1.89545 -0.764979 0
M  V30 768 C 75.509 1.78979 0.695028 0
M  V30 769 O 76.71 2.45613 1.09215 0
M  V30 770 C 74.981 3.35659 -1.22751 0
M  V30 771 S 76.54 4.25526 -1.07112 0
M  V30 772 H 73.358 0.654432 -0.27792 0
M  V30 773 H 75.96 1.42163 -1.34201 0
M  V30 774 H 74.664 3.40882 -2.28533 0
M  V30 775 H 74.195 3.88083 -0.644594 0
M  V30 776 H 76.21 4.962 0.00697508 0
M  V30 777 N 75.3831 0.828654 1.34056 0
M  V30 778 C 76.3311 0.242973 2.31327 0
M  V30 779 C 77.3251 -0.61944 1.57668 0
M  V30 780 O 78.5311 -0.51014 1.7262 0
M  V30 781 H 74.9061 0.059834 0.749616 0
M  V30 782 H 76.8771 1.07809 2.78244 0
M  V30 783 C 75.6261 -0.575733 3.429 0
M  V30 784 H 74.9491 0.0785582 3.99723 0
M  V30 785 H 76.3891 -0.951547 4.13185 0
M  V30 786 C 74.8481 -1.75044 2.87856 0
M  V30 787 O 75.3781 -2.84882 2.83205 0
M  V30 788 N 73.5841 -1.56903 2.44602 0
M  V30 789 H 73.1311 -0.675547 2.48584 0
M  V30 790 H 73.0891 -2.35652 2.08124 0
M  V30 791 N 76.8612 -1.46375 0.584142 0
M  V30 792 C 78.1012 -2.0427 0.0729695 0
M  V30 793 C 78.4652 -1.44563 -1.26355 0
M  V30 794 O 79.6662 -1.93667 -1.86405 0
M  V30 795 C 77.9372 -3.57399 0.00967464 0
M  V30 796 S 79.4962 -4.36551 -0.443714 0
M  V30 797 H 76.3142 -0.709975 0.0381673 0
M  V30 798 H 78.9162 -1.79398 0.776962 0
M  V30 799 H 77.6202 -3.98372 0.986319 0
M  V30 800 H 77.1512 -3.8681 -0.717044 0
M  V30 801 H 79.1662 -4.66237 -1.69816 0
M  V30 802 N 78.3393 -0.321999 -1.54275 0
M  V30 803 C 79.7503 0.166384 -1.85957 0
M  V30 804 C 80.1013 1.51747 -1.24367 0
M  V30 805 O 79.2263 2.09317 -0.549124 0
M  V30 806 C 79.8213 0.308681 -3.37391 0
M  V30 807 C 78.3803 0.741286 -3.69028 0
M  V30 808 C 77.5273 -0.137937 -2.76957 0
M  V30 809 H 80.4783 -0.542335 -1.49146 0
M  V30 810 H 80.4993 1.13984 -3.63026 0
M  V30 811 H 80.0113 -0.674809 -3.82188 0
M  V30 812 H 78.1123 1.73458 -3.29762 0
M  V30 813 H 78.2253 0.546118 -4.75977 0
M  V30 814 H 76.5893 0.386251 -2.51754 0
M  V30 815 H 77.3723 -1.11816 -3.2458 0
M  V30 816 N 79.8174 1.5752 -0.0501392 0
M  V30 817 C 80.7644 2.1147 0.924603 0
M  V30 818 C 81.7344 1.02182 1.30951 0
M  V30 819 O 82.9194 1.29723 1.39916 0
M  V30 820 C 80.0594 2.66337 2.19451 0
M  V30 821 C 79.1724 3.89708 1.86418 0
M  V30 822 C 78.3074 4.32893 3.07859 0
M  V30 823 C 77.3464 5.48967 2.70742 0
M  V30 824 N 76.4834 5.87211 3.84874 0
M  V30 825 H 81.3234 2.94465 0.457639 0
M  V30 826 H 78.8604 1.45531 0.214266 0
M  V30 827 H 80.8184 2.96247 2.93758 0
M  V30 828 H 79.4484 1.86141 2.63726 0
M  V30 829 H 78.5004 3.66396 1.02264 0
M  V30 830 H 79.8124 4.74074 1.55096 0
M  V30 831 H 78.9664 4.6435 3.90466 0
M  V30 832 H 77.7054 3.47336 3.42358 0
M  V30 833 H 76.7104 5.17183 1.86551 0
M  V30 834 H 77.9354 6.3624 2.37436 0
M  V30 835 H 75.8814 5.04607 4.19175 0
M  V30 836 H 75.7984 6.66266 3.57247 0
M  V30 837 H 77.0664 6.23282 4.68123 0
M  V30 838 N 81.2955 -0.223234 1.56011 0
M  V30 839 C 82.2425 -1.27664 1.92277 0
M  V30 840 C 83.2125 -1.46659 0.779763 0
M  V30 841 O 84.3975 -1.60256 1.03551 0
M  V30 842 C 81.5375 -2.62234 2.24338 0
M  V30 843 C 80.6505 -2.51051 3.51564 0
M  V30 844 C 79.7855 -3.78133 3.7308 0
M  V30 845 C 78.8245 -3.61665 4.93827 0
M  V30 846 N 77.9615 -4.80693 5.11741 0
M  V30 847 H 82.8015 -0.960358 2.82101 0
M  V30 848 H 80.3385 -0.462901 1.39627 0
M  V30 849 H 82.2965 -3.40596 2.40936 0
M  V30 850 H 80.9265 -2.91961 1.3769 0
M  V30 851 H 79.9785 -1.64132 3.43169 0
M  V30 852 H 81.2905 -2.34803 4.40079 0
M  V30 853 H 80.4445 -4.64938 3.89766 0
M  V30 854 H 79.1835 -3.97304 2.82844 0
M  V30 855 H 78.1885 -2.73244 4.77093 0
M  V30 856 H 79.4135 -3.43966 5.85546 0
M  V30 857 H 77.3595 -5.00181 4.24446 0
M  V30 858 H 77.2765 -4.67165 5.94384 0
M  V30 859 H 78.5445 -5.6893 5.3286 0
M  V30 860 N 82.7736 -1.49793 -0.48987 0
M  V30 861 C 84.0206 -1.59841 -1.24327 0
M  V30 862 C 84.3486 -0.290135 -1.92324 0
M  V30 863 O 83.6036 0.722749 -1.81865 0
M  V30 864 C 83.9026 -2.71488 -2.32441 0
M  V30 865 C 83.5686 -4.12614 -1.81826 0
M  V30 866 C 82.2306 -4.51017 -1.67742 0
M  V30 867 C 84.5826 -5.00892 -1.4407 0
M  V30 868 C 81.9106 -5.75459 -1.14297 0
M  V30 869 C 84.2626 -6.25863 -0.920742 0
M  V30 870 C 82.9266 -6.63086 -0.766383 0
M  V30 871 H 82.1966 -0.584899 -0.454944 0
M  V30 872 H 84.8436 -1.83663 -0.542215 0
M  V30 873 H 83.1486 -2.4168 -3.0838 0
M  V30 874 H 84.8456 -2.76469 -2.90458 0
M  V30 875 H 81.4356 -3.82307 -1.93751 0
M  V30 876 H 85.6196 -4.7187 -1.53794 0
M  V30 877 H 80.8756 -6.02989 -1.01068 0
M  V30 878 H 85.0496 -6.9364 -0.619448 0
M  V30 879 H 82.6766 -7.59393 -0.350083 0
M  V30 880 N 84.2517 0.741722 -1.39055 0
M  V30 881 C 85.4997 1.49818 -1.35643 0
M  V30 882 C 85.8207 1.94938 0.0491642 0
M  V30 883 O 85.0907 1.68505 0.999141 0
M  V30 884 H 83.6707 0.555755 -0.499144 0
M  V30 885 H 86.3327 0.880957 -1.73854 0
M  V30 886 H 85.4287 2.38348 -2.01486 0
M  V30 887 N 85.7298 1.2412 0.971189 0
M  V30 888 C 86.9778 1.07668 1.71032 0
M  V30 889 C 87.2988 -0.385797 1.91146 0
M  V30 890 O 86.5688 -1.27569 1.4867 0
M  V30 891 H 85.1488 0.395429 0.633755 0
M  V30 892 H 87.8108 1.55984 1.16855 0
M  V30 893 H 86.9068 1.57195 2.69622 0
M  V30 894 N 87.2079 -1.17134 1.05439 0
M  V30 895 C 88.1399 -2.2078 0.615539 0
M  V30 896 C 89.1529 -1.59584 -0.322001 0
M  V30 897 O 90.3419 -1.78133 -0.114344 0
M  V30 898 C 87.4419 -3.38691 -0.118938 0
M  V30 899 C 86.6149 -4.29454 0.829924 0
M  V30 900 C 85.6739 -5.26024 0.136258 0
M  V30 901 O 84.6999 -5.63952 0.77115 0
M  V30 902 N 85.9019 -5.69487 -1.1254 0
M  V30 903 H 88.6669 -2.59052 1.50705 0
M  V30 904 H 86.2279 -1.32058 0.936603 0
M  V30 905 H 88.2199 -4.00329 -0.593179 0
M  V30 906 H 86.7899 -2.98996 -0.91215 0
M  V30 907 H 86.0099 -3.65211 1.48373 0
M  V30 908 H 87.2979 -4.86984 1.47392 0
M  V30 909 H 86.6959 -5.4075 -1.6615 0
M  V30 910 H 85.2529 -6.33257 -1.54366 0
M  V30 911 N 88.686 -0.835752 -1.33615 0
M  V30 912 C 89.636 -0.238856 -2.26745 0
M  V30 913 C 90.62 0.604343 -1.49119 0
M  V30 914 O 91.812 0.456822 -1.71003 0
M  V30 915 C 88.941 0.587725 -3.38232 0
M  V30 916 C 88.027 -0.266811 -4.2326 0
M  V30 917 N 88.418 -1.34403 -4.87616 0
M  V30 918 C 86.716 -0.0533131 -4.45968 0
M  V30 919 C 87.417 -1.86819 -5.50884 0
M  V30 920 N 86.393 -1.17013 -5.30857 0
M  V30 921 H 90.195 -1.06266 -2.74016 0
M  V30 922 H 87.709 -0.679881 -1.47483 0
M  V30 923 H 89.706 1.03161 -4.03935 0
M  V30 924 H 88.366 1.40954 -2.9251 0
M  V30 925 H 89.377 -1.7269 -4.88261 0
M  V30 926 H 86.054 0.735312 -4.10974 0
M  V30 927 H 87.444 -2.7701 -6.1214 0
M  V30 928 N 90.1641 1.46063 -0.591896 0
M  V30 929 C 91.4041 2.04228 -0.0838014 0
M  V30 930 C 91.7681 1.45231 1.25587 0
M  V30 931 O 92.9691 1.94653 1.85375 0
M  V30 932 C 91.2401 3.57389 -0.0286282 0
M  V30 933 S 92.7991 4.3678 0.420557 0
M  V30 934 H 89.6171 0.709762 -0.0419319 0
M  V30 935 H 92.2191 1.78983 -0.786465 0
M  V30 936 H 90.9231 3.97843 -1.00743 0
M  V30 937 H 90.4541 3.87185 0.69652 0
M  V30 938 H 92.4691 4.67131 1.67341 0
M  V30 939 N 91.6422 0.330177 1.54103 0
M  V30 940 C 92.5522 -0.541534 2.28264 0
M  V30 941 C 93.5682 -1.12351 1.32866 0
M  V30 942 O 94.7442 -1.14206 1.65888 0
M  V30 943 C 91.8092 -1.68322 3.03098 0
M  V30 944 C 90.8702 -1.13238 4.14096 0
M  V30 945 C 90.1032 -2.21966 4.85352 0
M  V30 946 O 90.3262 -3.42437 4.56172 0
M  V30 947 O 89.2602 -1.87013 5.7211 0
M  V30 948 H 93.0862 0.060938 3.03639 0
M  V30 949 H 90.6712 0.09565 1.49093 0
M  V30 950 H 92.5532 -2.34777 3.49939 0
M  V30 951 H 91.2282 -2.27176 2.30593 0
M  V30 952 H 90.1352 -0.432736 3.71589 0
M  V30 953 H 91.4682 -0.588898 4.88664 0
M  V30 954 N 93.1203 -1.57491 0.0584922 0
M  V30 955 C 94.3693 -1.92155 -0.613146 0
M  V30 956 C 94.6823 -0.939334 -1.71569 0
M  V30 957 O 95.8883 -1.17829 -2.44599 0
M  V30 958 C 94.3443 -3.41303 -1.14195 0
M  V30 959 C 93.9523 -4.47944 -0.0711265 0
M  V30 960 C 95.6963 -3.84988 -1.78841 0
M  V30 961 C 93.6033 -5.88212 -0.613225 0
M  V30 962 H 92.5333 -0.717162 -0.232796 0
M  V30 963 H 95.1843 -1.83049 0.12857 0
M  V30 964 H 93.5663 -3.45437 -1.93621 0
M  V30 965 H 94.7403 -4.55408 0.702836 0
M  V30 966 H 93.0553 -4.13644 0.478313 0
M  V30 967 H 95.6523 -4.87159 -2.20408 0
M  V30 968 H 95.9953 -3.21632 -2.64308 0
M  V30 969 H 96.5283 -3.83401 -1.06059 0
M  V30 970 H 93.2673 -6.55183 0.203978 0
M  V30 971 H 92.7873 -5.84294 -1.35501 0
M  V30 972 H 94.4663 -6.37687 -1.09383 0
M  V30 973 N 94.5984 0.214957 -1.56127 0
M  V30 974 C 95.8754 0.963093 -1.70247 0
M  V30 975 C 96.2554 2.02166 -0.60764 0
M  V30 976 O 95.6034 2.25244 0.384385 0
M  V30 977 C 95.8134 1.56756 -3.11815 0
M  V30 978 C 97.1614 2.0573 -3.7143 0
M  V30 979 O 98.1854 1.66637 -3.14818 0
M  V30 980 O 97.0444 2.77603 -4.70743 0
M  V30 981 H 94.1384 0.450321 -0.693643 0
M  V30 982 H 96.6844 0.206219 -1.68442 0
M  V30 983 H 95.4564 0.803533 -3.82961 0
M  V30 984 H 95.0794 2.3898 -3.17765 0
M  V30 985 N 96.0765 1.50051 0.48192 0
M  V30 986 C 97.0235 1.68122 1.58125 0
M  V30 987 C 97.9935 0.522545 1.57666 0
M  V30 988 O 99.1785 0.751844 1.75362 0
M  V30 989 C 96.3185 1.77142 2.96167 0
M  V30 990 C 95.4315 3.0444 3.06497 0
M  V30 991 C 94.5665 3.04321 4.35387 0
M  V30 992 C 93.6055 4.26118 4.3942 0
M  V30 993 N 92.7425 4.238 5.59766 0
M  V30 994 H 97.5825 2.6198 1.42022 0
M  V30 995 H 95.1195 1.29877 0.690687 0
M  V30 996 H 97.0775 1.80352 3.76203 0
M  V30 997 H 95.7075 0.867329 3.1093 0
M  V30 998 H 94.7595 3.10752 2.19402 0
M  V30 999 H 96.0715 3.94426 3.05336 0
M  V30 1000 H 95.2255 3.062 5.23762 0
M  V30 1001 H 93.9645 2.12147 4.39141 0
M  V30 1002 H 92.9695 4.24463 3.49444 0
M  V30 1003 H 94.1945 5.19507 4.37366 0
M  V30 1004 H 92.1405 3.34474 5.64326 0
M  V30 1005 H 92.0575 5.07542 5.60301 0
M  V30 1006 H 93.3255 4.2981 6.50295 0
M  V30 1007 N 97.5546 -0.734337 1.39446 0
M  V30 1008 C 98.7796 -1.52866 1.40167 0
M  V30 1009 C 99.2046 -1.881 -0.00171513 0
M  V30 1010 O 98.5626 -1.51957 -0.988879 0
M  V30 1011 C 98.6106 -2.79235 2.28167 0
M  V30 1012 O 97.7146 -3.75185 1.71201 0
M  V30 1013 H 97.0556 -0.461618 0.477289 0
M  V30 1014 H 99.5856 -0.905949 1.8345 0
M  V30 1015 H 99.5956 -3.27963 2.42702 0
M  V30 1016 H 98.2706 -2.52923 3.30156 0
M  V30 1017 H 96.8476 -3.33958 1.65912 0
M  V30 1018 N 99.0327 -1.24633 -0.964593 0
M  V30 1019 C 99.9797 -1.04144 -2.05968 0
M  V30 1020 C 100.95 0.046262 -1.66036 0
M  V30 1021 O 102.135 -0.108972 -1.90489 0
M  V30 1022 C 99.2747 -0.65563 -3.38815 0
M  V30 1023 C 98.3877 -1.81714 -3.91923 0
M  V30 1024 C 97.5227 -1.37662 -5.13052 0
M  V30 1025 C 96.5617 -2.50788 -5.58365 0
M  V30 1026 N 95.6987 -2.07582 -6.70712 0
M  V30 1027 H 100.539 -1.9787 -2.22827 0
M  V30 1028 H 98.0757 -0.9855 -1.09208 0
M  V30 1029 H 100.034 -0.412954 -4.15151 0
M  V30 1030 H 98.6637 0.244627 -3.21872 0
M  V30 1031 H 97.7157 -2.1734 -3.12198 0
M  V30 1032 H 99.0277 -2.66705 -4.21509 0
M  V30 1033 H 98.1817 -1.093 -5.96773 0
M  V30 1034 H 96.9207 -0.497293 -4.85158 0
M  V30 1035 H 95.9257 -2.79906 -4.73215 0
M  V30 1036 H 97.1507 -3.39283 -5.88272 0
M  V30 1037 H 95.0967 -1.22051 -6.44546 0
M  V30 1038 H 95.0137 -2.86125 -6.99763 0
M  V30 1039 H 96.2817 -1.82369 -7.57867 0
M  V30 1040 N 100.511 1.16574 -1.06058 0
M  V30 1041 C 101.739 1.90952 -0.796552 0
M  V30 1042 C 102.154 1.77302 0.648808 0
M  V30 1043 O 101.511 1.11605 1.44397 0
M  V30 1044 C 101.562 3.41736 -1.17894 0
M  V30 1045 O 101.283 3.54975 -2.56758 0
M  V30 1046 C 102.784 4.33169 -0.942308 0
M  V30 1047 H 100.004 0.605594 -0.288959 0
M  V30 1048 H 102.548 1.47777 -1.41358 0
M  V30 1049 H 100.703 3.82623 -0.606491 0
M  V30 1050 H 101.117 4.4846 -2.72 0
M  V30 1051 H 102.591 5.37439 -1.25952 0
M  V30 1052 H 103.068 4.3903 0.122078 0
M  V30 1053 H 103.674 3.98007 -1.49902 0
M  V30 1054 N 101.989 0.842826 1.3317 0
M  V30 1055 C 103.229 0.446574 1.99462 0
M  V30 1056 C 103.593 -0.976818 1.65295 0
M  V30 1057 O 104.794 -1.477 2.24584 0
M  V30 1058 C 103.065 0.665353 3.51152 0
M  V30 1059 S 104.624 0.364911 4.3728 0
M  V30 1060 H 101.442 0.167803 0.690915 0
M  V30 1061 H 104.044 1.09297 1.62094 0
M  V30 1062 H 102.748 1.7006 3.73507 0
M  V30 1063 H 102.279 0.00494568 3.934 0
M  V30 1064 H 104.294 -0.813761 4.89482 0
M  V30 1065 N 103.467 -1.45747 0.599634 0
M  V30 1066 C 104.697 -2.06369 0.0977132 0
M  V30 1067 C 105.105 -1.44624 -1.21985 0
M  V30 1068 O 104.448 -0.551831 -1.75216 0
M  V30 1069 C 104.51 -3.59284 -0.124673 0
M  V30 1070 C 104.174 -4.43318 1.10987 0
M  V30 1071 C 105.171 -4.78796 2.02609 0
M  V30 1072 C 102.856 -4.84194 1.33647 0
M  V30 1073 C 104.85 -5.53997 3.15224 0
M  V30 1074 C 102.537 -5.5915 2.46565 0
M  V30 1075 C 103.535 -5.93968 3.37182 0
M  V30 1076 O 103.223 -6.67405 4.48136 0
M  V30 1077 H 102.955 -0.673122 0.0623153 0
M  V30 1078 H 105.509 -1.88104 0.824981 0
M  V30 1079 H 103.739 -3.75919 -0.906745 0
M  V30 1080 H 105.428 -4.01775 -0.577201 0
M  V30 1081 H 106.194 -4.47781 1.86325 0
M  V30 1082 H 102.073 -4.56534 0.64016 0
M  V30 1083 H 105.617 -5.81091 3.85978 0
M  V30 1084 H 101.514 -5.89579 2.62805 0
M  V30 1085 H 102.282 -6.85847 4.46717 0
M  V30 1086 N 104.945 -0.338344 -1.53925 0
M  V30 1087 C 105.855 0.529421 -2.28548 0
M  V30 1088 C 106.871 1.11645 -1.3346 0
M  V30 1089 O 108.047 1.13325 -1.66492 0
M  V30 1090 C 105.112 1.66713 -3.03987 0
M  V30 1091 C 104.173 1.11041 -4.14691 0
M  V30 1092 C 103.406 2.19389 -4.86522 0
M  V30 1093 O 103.629 3.40013 -4.57982 0
M  V30 1094 O 102.563 1.83976 -5.73094 0
M  V30 1095 H 106.389 -0.0770399 -3.03602 0
M  V30 1096 H 103.974 -0.103555 -1.49041 0
M  V30 1097 H 105.856 2.32918 -3.5118 0
M  V30 1098 H 104.531 2.25949 -2.31794 0
M  V30 1099 H 103.438 0.413024 -3.71813 0
M  V30 1100 H 104.771 0.562975 -4.8897 0
M  V30 1101 N 106.423 1.57458 -0.0668435 0
M  V30 1102 C 107.671 1.92919 0.602214 0
M  V30 1103 C 107.992 0.947215 1.70449 0
M  V30 1104 O 107.262 -0.00544117 1.95899 0
M  V30 1105 H 105.842 0.71217 0.22544 0
M  V30 1106 H 108.504 1.94508 -0.123535 0
M  V30 1107 H 107.6 2.94589 1.03073 0
M  V30 1108 N 107.901 -0.206675 1.56239 0
M  V30 1109 C 108.849 -1.27571 1.94495 0
M  V30 1110 C 109.843 -1.47737 0.828862 0
M  V30 1111 O 111.049 -1.48735 1.0138 0
M  V30 1112 H 107.424 -0.428029 0.6183 0
M  V30 1113 H 109.395 -0.925961 2.8367 0
M  V30 1114 C 108.144 -2.61568 2.29079 0
M  V30 1115 H 107.467 -2.46863 3.14482 0
M  V30 1116 H 108.907 -3.35144 2.5972 0
M  V30 1117 C 107.366 -3.17695 1.12123 0
M  V30 1118 O 107.896 -3.99801 0.390153 0
M  V30 1119 N 106.102 -2.76276 0.901097 0
M  V30 1120 H 105.649 -2.09613 1.49733 0
M  V30 1121 H 105.607 -3.1417 0.120319 0
M  V30 1122 N 109.379 -1.50304 -0.473955 0
M  V30 1123 C 110.627 -1.60832 -1.22382 0
M  V30 1124 C 110.948 -0.30939 -1.9253 0
M  V30 1125 O 110.218 0.67296 -1.83978 0
M  V30 1126 H 108.798 -0.592652 -0.454723 0
M  V30 1127 H 111.46 -1.87068 -0.546968 0
M  V30 1128 H 110.556 -2.41803 -1.97327 0
M  V30 1129 N 110.857 0.726932 -1.39834 0
M  V30 1130 C 111.807 1.83232 -1.35683 0
M  V30 1131 C 112.791 1.59155 -0.236295 0
M  V30 1132 O 113.983 1.70522 -0.474488 0
M  V30 1133 C 111.112 3.21246 -1.21062 0
M  V30 1134 C 110.198 3.51125 -2.37849 0
M  V30 1135 N 110.589 3.51889 -3.63329 0
M  V30 1136 C 108.887 3.81527 -2.30982 0
M  V30 1137 C 109.588 3.79791 -4.40606 0
M  V30 1138 N 108.564 3.97971 -3.70297 0
M  V30 1139 H 112.366 1.8214 -2.30656 0
M  V30 1140 H 109.88 0.925545 -1.33444 0
M  V30 1141 H 111.877 4.00387 -1.16171 0
M  V30 1142 H 110.537 3.23572 -0.270458 0
M  V30 1143 H 111.548 3.33008 -3.96643 0
M  V30 1144 H 108.225 3.91411 -1.45272 0
M  V30 1145 H 109.615 3.86783 -5.49408 0
M  V30 1146 N 112.336 1.25143 0.95797 0
M  V30 1147 C 113.583 1.09692 1.70217 0
M  V30 1148 C 113.911 -0.362654 1.91089 0
M  V30 1149 O 113.166 -1.28386 1.47701 0
M  V30 1150 C 113.465 1.79272 3.09187 0
M  V30 1151 C 113.131 3.29196 3.08125 0
M  V30 1152 C 111.793 3.70096 3.07543 0
M  V30 1153 C 114.145 4.24995 3.0171 0
M  V30 1154 C 111.473 5.05213 2.9829 0
M  V30 1155 C 113.825 5.60132 2.93999 0
M  V30 1156 C 112.489 6.00365 2.9175 0
M  V30 1157 H 111.759 0.401393 0.622868 0
M  V30 1158 H 114.406 1.55372 1.11945 0
M  V30 1159 H 112.711 1.26014 3.70982 0
M  V30 1160 H 114.408 1.64773 3.65583 0
M  V30 1161 H 110.998 2.96651 3.09348 0
M  V30 1162 H 115.182 3.9439 3.01281 0
M  V30 1163 H 110.438 5.35569 2.94916 0
M  V30 1164 H 114.612 6.3406 2.87996 0
M  V30 1165 H 112.239 7.05023 2.84336 0
M  V30 1166 N 113.814 -1.1601 1.06675 0
M  V30 1167 C 115.044 -1.90251 0.805497 0
M  V30 1168 C 115.452 -1.77891 -0.64431 0
M  V30 1169 O 114.795 -1.12383 -1.45313 0
M  V30 1170 C 114.857 -3.41419 1.12576 0
M  V30 1171 C 114.521 -3.77564 2.57477 0
M  V30 1172 C 115.518 -3.79161 3.55715 0
M  V30 1173 C 113.203 -4.08079 2.92877 0
M  V30 1174 C 115.197 -4.10767 4.8739 0
M  V30 1175 C 112.884 -4.39351 4.24751 0
M  V30 1176 C 113.882 -4.40675 5.21818 0
M  V30 1177 O 113.57 -4.71202 6.51325 0
M  V30 1178 H 113.302 -0.610018 0.291297 0
M  V30 1179 H 115.856 -1.47958 1.4247 0
M  V30 1180 H 114.086 -3.84079 0.449503 0
M  V30 1181 H 115.775 -3.9694 0.84814 0
M  V30 1182 H 116.541 -3.55693 3.29708 0
M  V30 1183 H 112.42 -4.06211 2.17976 0
M  V30 1184 H 115.964 -4.11715 5.63148 0
M  V30 1185 H 111.861 -4.62285 4.50514 0
M  V30 1186 H 112.629 -4.88996 6.56373 0
M  V30 1187 N 115.292 -0.849877 -1.32721 0
M  V30 1188 C 116.708 -0.539102 -1.50219 0
M  V30 1189 C 116.908 0.931271 -1.78689 0
M  V30 1190 O 115.964 1.71455 -1.85363 0
M  V30 1191 C 117.277 -1.42196 -2.64954 0
M  V30 1192 C 118.825 -1.42189 -2.78839 0
M  V30 1193 C 119.3 -2.28985 -3.96648 0
M  V30 1194 N 120.791 -2.26754 -4.03902 0
M  V30 1195 C 121.526 -2.90644 -4.94281 0
M  V30 1196 N 121.022 -3.63629 -5.897 0
M  V30 1197 N 122.815 -2.80057 -4.87365 0
M  V30 1198 H 114.966 -1.80156 -1.12506 0
M  V30 1199 H 117.229 -0.769217 -0.554085 0
M  V30 1200 H 116.935 -2.46733 -2.50631 0
M  V30 1201 H 116.809 -1.10591 -3.60624 0
M  V30 1202 H 119.196 -0.38419 -2.92588 0
M  V30 1203 H 119.277 -1.77807 -1.83898 0
M  V30 1204 H 118.921 -3.32819 -3.83658 0
M  V30 1205 H 118.851 -1.90702 -4.90857 0
M  V30 1206 H 121.342 -1.73688 -3.3562 0
M  V30 1207 H 121.655 -4.09558 -6.55349 0
M  V30 1208 H 120 -3.67737 -5.89741 0
M  V30 1209 H 123.191 -2.22593 -4.11789 0
M  V30 1210 H 123.364 -3.30132 -5.57599 0
M  V30 1211 N 116.77 1.45427 -0.607355 0
M  V30 1212 C 118.018 2.01841 -0.102253 0
M  V30 1213 C 118.339 1.47832 1.27164 0
M  V30 1214 O 117.609 0.672497 1.83995 0
M  V30 1215 H 116.189 0.746188 -0.0348101 0
M  V30 1216 H 118.851 1.78229 -0.7887 0
M  V30 1217 H 117.947 3.12057 -0.0518585 0
M  V30 1218 N 118.248 0.346503 1.53744 0
M  V30 1219 C 119.195 -0.508914 2.25119 0
M  V30 1220 C 120.165 -1.09315 1.25058 0
M  V30 1221 O 121.35 -1.12921 1.53797 0
M  V30 1222 C 118.49 -1.65246 3.02965 0
M  V30 1223 C 117.603 -1.09525 4.17886 0
M  V30 1224 C 116.738 -2.20634 4.83212 0
M  V30 1225 C 115.777 -1.62279 5.90196 0
M  V30 1226 N 114.914 -2.67143 6.49291 0
M  V30 1227 H 119.754 0.106283 2.9781 0
M  V30 1228 H 117.291 0.0642227 1.4696 0
M  V30 1229 H 119.249 -2.32574 3.4636 0
M  V30 1230 H 117.879 -2.2386 2.32565 0
M  V30 1231 H 116.931 -0.312818 3.79112 0
M  V30 1232 H 118.243 -0.628444 4.94825 0
M  V30 1233 H 117.397 -2.95821 5.29693 0
M  V30 1234 H 116.136 -2.70659 4.05703 0
M  V30 1235 H 115.141 -0.855989 5.43096 0
M  V30 1236 H 116.366 -1.13102 6.69615 0
M  V30 1237 H 114.312 -3.16417 5.74645 0
M  V30 1238 H 114.229 -2.25093 7.21713 0
M  V30 1239 H 115.497 -3.4209 7.00425 0
M  V30 1240 N 119.726 -1.57421 0.075193 0
M  V30 1241 C 120.689 -2.11791 -0.876203 0
M  V30 1242 C 121.689 -1.04268 -1.22412 0
M  V30 1243 O 122.879 -1.30242 -1.15684 0
M  V30 1244 C 120.011 -2.62207 -2.17854 0
M  V30 1245 H 121.204 -2.9716 -0.40444 0
M  V30 1246 H 118.757 -1.55333 -0.173557 0
M  V30 1247 H 119.492 -1.803 -2.6956 0
M  V30 1248 H 119.277 -3.40802 -1.93897 0
M  V30 1249 H 120.767 -3.04335 -2.85955 0
M  V30 1250 N 121.204 0.198386 -1.56346 0
M  V30 1251 C 122.429 0.939682 -1.84891 0
M  V30 1252 C 122.854 1.76202 -0.658369 0
M  V30 1253 O 122.212 1.76993 0.392851 0
M  V30 1254 C 122.26 1.81428 -3.11635 0
M  V30 1255 O 121.364 2.91265 -2.91956 0
M  V30 1256 H 120.705 0.264807 -0.608912 0
M  V30 1257 H 123.235 0.204695 -2.03573 0
M  V30 1258 H 123.245 2.21958 -3.42343 0
M  V30 1259 H 121.92 1.21004 -3.97908 0
M  V30 1260 H 120.497 2.54514 -2.72538 0
M  V30 1261 N 122.682 1.50554 0.465978 0
M  V30 1262 C 123.91 1.65563 1.24083 0
M  V30 1263 C 124.325 0.341051 1.85694 0
M  V30 1264 O 123.682 -0.677543 1.69457 0
M  V30 1265 C 123.733 2.75051 2.34583 0
M  V30 1266 O 123.454 4.01413 1.75497 0
M  V30 1267 C 124.955 3.01078 3.25372 0
M  V30 1268 H 122.175 0.55638 0.375077 0
M  V30 1269 H 124.719 1.96807 0.555624 0
M  V30 1270 H 122.874 2.46486 2.9887 0
M  V30 1271 H 123.288 4.62002 2.48303 0
M  V30 1272 H 124.762 3.81339 3.99105 0
M  V30 1273 H 125.239 2.12349 3.84453 0
M  V30 1274 H 125.845 3.31194 2.66816 0
M  V30 1275 N 124.16 -0.719506 1.40217 0
M  V30 1276 C 125.437 -1.47221 1.28784 0
M  V30 1277 C 125.817 -2.10883 -0.0956067 0
M  V30 1278 O 125.165 -1.99833 -1.10811 0
M  V30 1279 C 125.375 -2.5111 2.42373 0
M  V30 1280 C 126.723 -3.17053 2.82423 0
M  V30 1281 O 127.747 -2.61429 2.41937 0
M  V30 1282 O 126.606 -4.17742 3.52355 0
M  V30 1283 H 123.7 -0.654491 0.50554 0
M  V30 1284 H 126.246 -0.752014 1.52128 0
M  V30 1285 H 125.018 -2.02556 3.34793 0
M  V30 1286 H 124.641 -3.3067 2.20778 0
M  V30 1287 N 125.638 -1.25649 -0.95132 0
M  V30 1288 C 126.866 -1.13343 -1.73092 0
M  V30 1289 C 127.281 0.312434 -1.86197 0
M  V30 1290 O 126.638 1.21465 -1.36207 0
M  V30 1291 C 126.689 -1.78602 -3.14299 0
M  V30 1292 O 126.41 -3.17537 -3.01831 0
M  V30 1293 C 127.911 -1.72119 -4.08522 0
M  V30 1294 H 125.131 -0.395181 -0.542285 0
M  V30 1295 H 127.675 -1.66076 -1.19328 0
M  V30 1296 H 125.83 -1.29832 -3.64996 0
M  V30 1297 H 126.244 -3.49676 -3.90931 0
M  V30 1298 H 127.718 -2.22435 -5.052 0
M  V30 1299 H 128.195 -0.685635 -4.33815 0
M  V30 1300 H 128.801 -2.20393 -3.63741 0
M  V30 1301 N 127.117 1.15442 -1.07289 0
M  V30 1302 C 128.05 2.19135 -0.636798 0
M  V30 1303 C 129.028 1.58884 0.34562 0
M  V30 1304 O 130.212 1.86805 0.252195 0
M  V30 1305 C 127.339 3.38638 0.0650014 0
M  V30 1306 C 126.385 4.17412 -0.87576 0
M  V30 1307 S 127.218 4.79882 -2.37642 0
M  V30 1308 C 128.374 6.02753 -1.6864 0
M  V30 1309 H 128.607 2.55787 -1.51526 0
M  V30 1310 H 126.14 1.26394 -0.886793 0
M  V30 1311 H 128.098 4.07873 0.463664 0
M  V30 1312 H 126.759 3.00331 0.919801 0
M  V30 1313 H 125.952 5.02909 -0.33143 0
M  V30 1314 H 125.554 3.53722 -1.21478 0
M  V30 1315 H 127.846 6.70113 -0.997753 0
M  V30 1316 H 128.789 6.61754 -2.51967 0
M  V30 1317 H 129.197 5.52355 -1.16465 0
M  V30 1318 N 128.595 0.856903 1.32268 0
M  V30 1319 C 129.843 0.460474 1.96784 0
M  V30 1320 C 130.164 -0.987701 1.68135 0
M  V30 1321 O 129.434 -1.69058 0.989765 0
M  V30 1322 H 128.014 0.167289 0.728027 0
M  V30 1323 H 130.676 1.09383 1.61312 0
M  V30 1324 H 129.772 0.60739 3.06133 0
M  V30 1325 N 130.073 -1.45103 0.615059 0
M  V30 1326 C 131.489 -1.57137 0.279322 0
M  V30 1327 C 131.689 -1.60523 -1.21797 0
M  V30 1328 O 130.745 -1.53956 -2.00134 0
M  V30 1329 C 132.058 -2.85062 0.957083 0
M  V30 1330 C 133.606 -2.98749 0.933706 0
M  V30 1331 C 134.081 -4.29455 1.59162 0
M  V30 1332 N 135.572 -4.36231 1.55746 0
M  V30 1333 C 136.307 -5.36051 2.0356 0
M  V30 1334 N 135.803 -6.42367 2.59494 0
M  V30 1335 N 137.596 -5.27456 1.94284 0
M  V30 1336 H 129.747 -1.41148 1.58717 0
M  V30 1337 H 132.01 -0.675331 0.665306 0
M  V30 1338 H 131.716 -2.88488 2.01166 0
M  V30 1339 H 131.59 -3.7407 0.48494 0
M  V30 1340 H 133.977 -2.94886 -0.112347 0
M  V30 1341 H 134.058 -2.11132 1.44419 0
M  V30 1342 H 133.702 -4.34077 2.63704 0
M  V30 1343 H 133.632 -5.15901 1.0561 0
M  V30 1344 H 136.123 -3.60011 1.14893 0
M  V30 1345 H 136.436 -7.14793 2.93752 0
M  V30 1346 H 134.781 -6.43097 2.63537 0
M  V30 1347 H 137.972 -4.43308 1.5032 0
M  V30 1348 H 138.145 -6.05099 2.3186 0
M  V30 1349 N 131.551 -0.354651 -1.53558 0
M  V30 1350 C 132.962 0.126902 -1.86268 0
M  V30 1351 C 133.313 1.49075 -1.27558 0
M  V30 1352 O 132.438 2.08105 -0.5934 0
M  V30 1353 C 133.033 0.237046 -3.3797 0
M  V30 1354 C 131.592 0.662842 -3.70518 0
M  V30 1355 C 130.739 -0.196652 -2.76602 0
M  V30 1356 H 133.69 -0.573849 -1.47962 0
M  V30 1357 H 133.711 1.06259 -3.65362 0
M  V30 1358 H 133.223 -0.755725 -3.80671 0
M  V30 1359 H 131.324 1.66424 -3.33367 0
M  V30 1360 H 131.437 0.445034 -4.77029 0
M  V30 1361 H 129.801 0.332763 -2.52517 0
M  V30 1362 H 130.584 -1.18676 -3.22135 0
M  V30 1363 N 133.029 1.57378 -0.0835403 0
M  V30 1364 C 134.269 1.95808 0.586381 0
M  V30 1365 C 134.633 0.963706 1.66062 0
M  V30 1366 O 135.834 1.23608 2.38693 0
M  V30 1367 C 134.105 3.38808 1.13771 0
M  V30 1368 S 135.664 3.99225 1.82112 0
M  V30 1369 H 132.482 0.684675 0.191679 0
M  V30 1370 H 135.084 1.94843 -0.160194 0
M  V30 1371 H 133.788 4.08954 0.344197 0
M  V30 1372 H 133.319 3.43344 1.92038 0
M  V30 1373 H 135.334 3.87087 3.10449 0
M  V30 1374 N 134.507 -0.190092 1.56449 0
M  V30 1375 C 135.437 -1.23816 1.97969 0
M  V30 1376 C 136.418 -1.47201 0.852395 0
M  V30 1377 O 137.603 -1.58854 1.1171 0
M  V30 1378 C 134.733 -2.5813 2.3235 0
M  V30 1379 C 133.687 -2.49348 3.47864 0
M  V30 1380 C 133.013 -3.8798 3.67934 0
M  V30 1381 C 134.313 -2.01424 4.81898 0
M  V30 1382 H 136.007 -0.89311 2.85769 0
M  V30 1383 H 133.553 -0.428177 1.37487 0
M  V30 1384 H 135.506 -3.31637 2.59991 0
M  V30 1385 H 134.23 -2.94386 1.41438 0
M  V30 1386 H 132.889 -1.78297 3.20321 0
M  V30 1387 H 132.537 -4.21597 2.74344 0
M  V30 1388 H 132.237 -3.82978 4.45648 0
M  V30 1389 H 133.761 -4.63101 3.97957 0
M  V30 1390 H 135.175 -2.64693 5.08538 0
M  V30 1391 H 133.572 -2.07413 5.63116 0
M  V30 1392 H 134.642 -0.967677 4.75146 0
M  V30 1393 N 135.985 -1.50799 -0.457987 0
M  V30 1394 C 137.396 -1.55152 -1.0385 0
M  V30 1395 C 137.747 -0.362719 -1.92818 0
M  V30 1396 O 136.872 0.522915 -2.09987 0
M  V30 1397 C 137.467 -2.81173 -1.89017 0
M  V30 1398 C 136.026 -2.88164 -2.42154 0
M  V30 1399 C 135.173 -2.49591 -1.20829 0
M  V30 1400 H 138.124 -1.56874 -0.240068 0
M  V30 1401 H 138.145 -2.63769 -2.74238 0
M  V30 1402 H 137.657 -3.67677 -1.24238 0
M  V30 1403 H 135.758 -2.06042 -3.10447 0
M  V30 1404 H 135.871 -3.91356 -2.76364 0
M  V30 1405 H 134.235 -2.02322 -1.54719 0
M  V30 1406 H 135.018 -3.38418 -0.576927 0
M  V30 1407 N 137.463 0.71206 -1.40597 0
M  V30 1408 C 138.709 1.47292 -1.40274 0
M  V30 1409 C 139.064 1.92399 -0.00576812 0
M  V30 1410 O 138.357 1.65507 0.965297 0
M  V30 1411 C 138.551 2.71039 -2.32965 0
M  V30 1412 C 138.38 2.38035 -3.81536 0
M  V30 1413 C 137.15 2.29203 -4.50327 0
M  V30 1414 C 139.348 2.02076 -4.72938 0
M  V30 1415 N 137.33 1.88911 -5.84111 0
M  V30 1416 C 138.701 1.72412 -5.95545 0
M  V30 1417 C 140.756 1.88742 -4.60739 0
M  V30 1418 C 139.459 1.30756 -7.07316 0
M  V30 1419 C 141.485 1.4849 -5.72455 0
M  V30 1420 C 140.847 1.19726 -6.94151 0
M  V30 1421 H 136.946 0.536919 -0.568544 0
M  V30 1422 H 139.53 0.825424 -1.76337 0
M  V30 1423 H 137.701 3.33533 -1.99023 0
M  V30 1424 H 139.433 3.37404 -2.23474 0
M  V30 1425 H 136.188 2.47059 -4.04053 0
M  V30 1426 H 136.612 1.71293 -6.54972 0
M  V30 1427 H 141.254 2.0964 -3.67166 0
M  V30 1428 H 138.972 1.08601 -8.00769 0
M  V30 1429 H 142.558 1.38747 -5.65014 0
M  V30 1430 H 141.438 0.890482 -7.79128 0
M  V30 1431 N 138.941 1.26152 0.944643 0
M  V30 1432 C 139.889 1.07215 2.06417 0
M  V30 1433 C 140.883 9.2007e-05 1.694 0
M  V30 1434 O 142.089 0.1565 1.79318 0
M  V30 1435 H 138.464 0.329837 0.675805 0
M  V30 1436 H 140.435 2.02099 2.19541 0
M  V30 1437 C 139.184 0.718197 3.40202 0
M  V30 1438 H 138.507 1.53497 3.69159 0
M  V30 1439 H 139.947 0.625459 4.19361 0
M  V30 1440 C 138.406 -0.576435 3.31932 0
M  V30 1441 O 138.936 -1.61574 3.67773 0
M  V30 1442 N 137.142 -0.565781 2.85039 0
M  V30 1443 H 136.689 0.280367 2.5607 0
M  V30 1444 H 136.647 -1.43213 2.79888 0
M  V30 1445 N 140.419 -1.14872 1.07899 0
M  V30 1446 C 141.644 -1.90202 0.826926 0
M  V30 1447 C 142.069 -1.77774 -0.614664 0
M  V30 1448 O 141.427 -1.11431 -1.43013 0
M  V30 1449 C 141.475 -3.38352 1.24702 0
M  V30 1450 O 140.579 -4.10497 0.39575 0
M  V30 1451 H 139.92 -0.591968 0.300782 0
M  V30 1452 H 142.45 -1.45437 1.43907 0
M  V30 1453 H 142.46 -3.89156 1.22563 0
M  V30 1454 H 141.135 -3.46715 2.29698 0
M  V30 1455 H 139.712 -3.69796 0.480117 0
M  V30 1456 N 141.898 -0.863906 -1.31812 0
M  V30 1457 C 142.861 -0.320212 -2.26952 0
M  V30 1458 C 143.861 0.525369 -1.51975 0
M  V30 1459 O 145.051 0.335547 -1.70938 0
M  V30 1460 C 142.183 0.545919 -3.365 0
M  V30 1461 H 143.376 -1.16004 -2.76556 0
M  V30 1462 H 140.929 -0.638995 -1.42641 0
M  V30 1463 H 141.664 1.40718 -2.92179 0
M  V30 1464 H 141.449 -0.0594674 -3.92055 0
M  V30 1465 H 142.939 0.918796 -4.07367 0
M  V30 1466 N 143.376 1.44774 -0.622745 0
M  V30 1467 C 144.604 2.06487 -0.130722 0
M  V30 1468 C 145.019 1.46476 1.19123 0
M  V30 1469 O 144.376 0.584502 1.72887 0
M  V30 1470 C 144.427 3.615 -0.000807207 0
M  V30 1471 O 144.148 4.19274 -1.27048 0
M  V30 1472 C 145.649 4.40229 0.520898 0
M  V30 1473 H 142.869 0.666704 -0.0758106 0
M  V30 1474 H 145.413 1.85779 -0.854774 0
M  V30 1475 H 143.568 3.81498 0.673643 0
M  V30 1476 H 143.982 5.12622 -1.1099 0
M  V30 1477 H 145.456 5.49144 0.560838 0
M  V30 1478 H 145.933 4.1108 1.54627 0
M  V30 1479 H 146.539 4.25131 -0.120018 0
M  V30 1480 N 144.854 0.36279 1.53368 0
M  V30 1481 C 146.1 -0.228113 2.01513 0
M  V30 1482 C 146.433 -1.48648 1.2497 0
M  V30 1483 O 145.708 -1.91459 0.342616 0
M  V30 1484 C 145.991 -0.522884 3.56284 0
M  V30 1485 C 145.844 0.74892 4.43521 0
M  V30 1486 C 147.163 -1.32461 4.19693 0
M  V30 1487 H 144.282 -0.0814343 0.732487 0
M  V30 1488 H 146.924 0.48713 1.83649 0
M  V30 1489 H 145.074 -1.1322 3.71636 0
M  V30 1490 H 146.746 1.38648 4.39971 0
M  V30 1491 H 144.989 1.36986 4.11603 0
M  V30 1492 H 145.66 0.497667 5.49752 0
M  V30 1493 H 148.136 -0.809203 4.08156 0
M  V30 1494 H 147.012 -1.49961 5.28018 0
M  V30 1495 H 147.273 -2.33232 3.75573 0
M  V30 1496 N 146.332 -1.57332 0.0918853 0
M  V30 1497 C 147.262 -2.16872 -0.865371 0
M  V30 1498 C 148.243 -1.10118 -1.29646 0
M  V30 1499 O 149.428 -1.38242 -1.36392 0
M  V30 1500 C 146.558 -2.74649 -2.12569 0
M  V30 1501 C 145.512 -3.86747 -1.83333 0
M  V30 1502 C 144.838 -4.31212 -3.16166 0
M  V30 1503 C 146.138 -5.10089 -1.1228 0
M  V30 1504 H 147.832 -2.97114 -0.369307 0
M  V30 1505 H 145.378 -1.42918 -0.176194 0
M  V30 1506 H 147.331 -3.14952 -2.7997 0
M  V30 1507 H 146.055 -1.91657 -2.64452 0
M  V30 1508 H 144.714 -3.46978 -1.18331 0
M  V30 1509 H 144.362 -3.45115 -3.6593 0
M  V30 1510 H 144.062 -5.06788 -2.97388 0
M  V30 1511 H 145.586 -4.74146 -3.84731 0
M  V30 1512 H 147 -5.47582 -1.69785 0
M  V30 1513 H 145.397 -5.91073 -1.03693 0
M  V30 1514 H 146.467 -4.84786 -0.105041 0
M  V30 1515 N 147.81 0.181792 -1.56548 0
M  V30 1516 C 148.742 1.24956 -1.92142 0
M  V30 1517 C 149.755 1.41022 -0.813422 0
M  V30 1518 O 150.944 1.41212 -1.09186 0
M  V30 1519 C 148.044 2.61981 -2.14987 0
M  V30 1520 C 147.217 2.6735 -3.46183 0
M  V30 1521 C 146.276 3.85664 -3.5798 0
M  V30 1522 O 145.302 3.72148 -4.30691 0
M  V30 1523 N 146.504 5.01683 -2.92053 0
M  V30 1524 H 149.269 0.947329 -2.84334 0
M  V30 1525 H 146.83 0.371629 -1.57577 0
M  V30 1526 H 148.822 3.3958 -2.20154 0
M  V30 1527 H 147.392 2.84637 -1.2923 0
M  V30 1528 H 146.612 1.75925 -3.52766 0
M  V30 1529 H 147.9 2.67939 -4.32534 0
M  V30 1530 H 147.298 5.15564 -2.32832 0
M  V30 1531 H 145.855 5.77181 -3.0283 0
M  V30 1532 N 149.288 1.51039 0.449983 0
M  V30 1533 C 150.22 1.67617 1.56324 0
M  V30 1534 C 151.233 0.557083 1.52972 0
M  V30 1535 O 152.422 0.830989 1.57977 0
M  V30 1536 C 149.522 1.66402 2.95235 0
M  V30 1537 C 148.695 2.9469 3.23229 0
M  V30 1538 C 147.754 2.85832 4.41799 0
M  V30 1539 O 146.78 3.59785 4.41071 0
M  V30 1540 N 147.982 2.00821 5.44657 0
M  V30 1541 H 150.747 2.63648 1.42512 0
M  V30 1542 H 148.308 1.48767 0.638737 0
M  V30 1543 H 150.3 1.58062 3.72557 0
M  V30 1544 H 148.87 0.780182 3.02708 0
M  V30 1545 H 148.09 3.16996 2.34323 0
M  V30 1546 H 149.378 3.79636 3.38754 0
M  V30 1547 H 148.776 1.40091 5.48079 0
M  V30 1548 H 147.333 1.98368 6.20881 0
M  V30 1549 N 150.766 -0.704594 1.40972 0
M  V30 1550 C 151.994 -1.49354 1.43182 0
M  V30 1551 C 152.409 -1.88768 0.0345508 0
M  V30 1552 O 151.766 -1.56184 -0.944081 0
M  V30 1553 C 151.817 -2.76187 2.33244 0
M  V30 1554 O 151.538 -2.38436 3.67532 0
M  V30 1555 C 153.039 -3.7 2.44162 0
M  V30 1556 H 150.259 -0.460559 0.487982 0
M  V30 1557 H 152.803 -0.868261 1.85153 0
M  V30 1558 H 150.958 -3.34974 1.94606 0
M  V30 1559 H 151.372 -3.20126 4.15475 0
M  V30 1560 H 152.846 -4.55803 3.11364 0
M  V30 1561 H 153.323 -4.13867 1.47006 0
M  V30 1562 H 153.929 -3.17121 2.83398 0
M  V30 1563 N 152.244 -1.26651 -0.937939 0
M  V30 1564 C 153.474 -1.15006 -1.71631 0
M  V30 1565 C 153.882 0.297026 -1.86854 0
M  V30 1566 O 153.225 1.21493 -1.37786 0
M  V30 1567 C 153.287 -1.74984 -3.14039 0
M  V30 1568 C 152.951 -3.24103 -3.2219 0
M  V30 1569 C 153.948 -4.20877 -3.05219 0
M  V30 1570 C 151.633 -3.64625 -3.45476 0
M  V30 1571 C 153.627 -5.56151 -3.11408 0
M  V30 1572 C 151.314 -5.00032 -3.513 0
M  V30 1573 C 152.312 -5.95604 -3.34282 0
M  V30 1574 O 152 -7.28545 -3.3982 0
M  V30 1575 H 151.732 -0.401183 -0.544085 0
M  V30 1576 H 154.286 -1.67832 -1.18413 0
M  V30 1577 H 152.516 -1.16624 -3.68695 0
M  V30 1578 H 154.205 -1.58199 -3.73802 0
M  V30 1579 H 154.971 -3.90908 -2.87081 0
M  V30 1580 H 150.85 -2.90718 -3.57777 0
M  V30 1581 H 154.394 -6.30727 -2.98043 0
M  V30 1582 H 150.291 -5.29659 -3.68959 0
M  V30 1583 H 151.059 -7.3686 -3.56343 0
M  V30 1584 N 153.722 1.14298 -1.08507 0
M  V30 1585 C 154.672 2.17449 -0.685569 0
M  V30 1586 C 155.656 1.58167 0.295315 0
M  V30 1587 O 156.848 1.76675 0.107172 0
M  V30 1588 C 153.977 3.43161 -0.0975318 0
M  V30 1589 C 153.063 4.09471 -1.10426 0
M  V30 1590 N 153.454 4.51089 -2.28806 0
M  V30 1591 C 151.752 4.35976 -0.940258 0
M  V30 1592 C 152.453 5.02654 -2.9277 0
M  V30 1593 N 151.429 4.96927 -2.20374 0
M  V30 1594 H 155.231 2.47369 -1.587 0
M  V30 1595 H 152.745 1.30992 -0.959936 0
M  V30 1596 H 154.742 4.16388 0.20664 0
M  V30 1597 H 153.402 3.14719 0.798872 0
M  V30 1598 H 154.413 4.44097 -2.66455 0
M  V30 1599 H 151.09 4.17386 -0.0977441 0
M  V30 1600 H 152.48 5.44723 -3.93352 0
M  V30 1601 N 155.201 0.870884 1.31352 0
M  V30 1602 C 156.164 0.332243 2.26779 0
M  V30 1603 C 157.164 -0.517302 1.52252 0
M  V30 1604 O 158.354 -0.326477 1.71113 0
M  V30 1605 C 155.486 -0.528066 3.36785 0
M  V30 1606 H 156.679 1.17469 2.75937 0
M  V30 1607 H 154.232 0.64655 1.423 0
M  V30 1608 H 154.967 -1.39167 2.92922 0
M  V30 1609 H 154.752 0.0802582 3.92018 0
M  V30 1610 H 156.242 -0.897179 4.07849 0
M  V30 1611 N 156.679 -1.44442 0.630414 0
M  V30 1612 C 157.629 -2.27794 -0.0968103 0
M  V30 1613 C 158.613 -1.38624 -0.816834 0
M  V30 1614 O 159.805 -1.62438 -0.70306 0
M  V30 1615 C 156.934 -3.25929 -1.07819 0
M  V30 1616 C 156.02 -4.22588 -0.357826 0
M  V30 1617 N 156.411 -5.0207 0.613169 0
M  V30 1618 C 154.709 -4.41914 -0.602365 0
M  V30 1619 C 155.41 -5.72351 1.03871 0
M  V30 1620 N 154.386 -5.42287 0.377642 0
M  V30 1621 H 158.188 -2.86653 0.648621 0
M  V30 1622 H 155.702 -1.55871 0.455862 0
M  V30 1623 H 157.699 -3.84399 -1.61378 0
M  V30 1624 H 156.359 -2.68631 -1.82393 0
M  V30 1625 H 157.37 -5.08331 0.990947 0
M  V30 1626 H 154.047 -3.95714 -1.33103 0
M  V30 1627 H 155.437 -6.4619 1.84086 0
M  V30 1628 N 158.157 -0.370918 -1.53173 0
M  V30 1629 C 159.573 -0.0200818 -1.59587 0
M  V30 1630 C 159.773 1.46279 -1.38581 0
M  V30 1631 O 158.829 2.22506 -1.19363 0
M  V30 1632 C 160.142 -0.4808 -2.96831 0
M  V30 1633 C 161.69 -0.435477 -3.09956 0
M  V30 1634 C 162.165 -0.872092 -4.4962 0
M  V30 1635 N 163.656 -0.827364 -4.55751 0
M  V30 1636 C 164.391 -1.13683 -5.62018 0
M  V30 1637 N 163.887 -1.51584 -6.76014 0
M  V30 1638 N 165.68 -1.05927 -5.52029 0
M  V30 1639 H 157.831 -1.33652 -1.65079 0
M  V30 1640 H 160.094 -0.546634 -0.774529 0
M  V30 1641 H 159.8 -1.51577 -3.1736 0
M  V30 1642 H 159.674 0.129796 -3.76977 0
M  V30 1643 H 162.061 0.590371 -2.89134 0
M  V30 1644 H 162.142 -1.08164 -2.31806 0
M  V30 1645 H 161.786 -1.89608 -4.71181 0
M  V30 1646 H 161.716 -0.203127 -5.26208 0
M  V30 1647 H 164.207 -0.548216 -3.73902 0
M  V30 1648 H 164.52 -1.73609 -7.53047 0
M  V30 1649 H 162.865 -1.55454 -6.77391 0
M  V30 1650 H 166.056 -0.762321 -4.61851 0
M  V30 1651 H 166.229 -1.30378 -6.34749 0
M  V30 1652 N 159.635 1.57281 -0.100228 0
M  V30 1653 C 160.86 1.99302 0.573881 0
M  V30 1654 C 161.285 0.979059 1.60611 0
M  V30 1655 O 160.643 -0.0517803 1.81226 0
M  V30 1656 C 160.691 3.40274 1.19358 0
M  V30 1657 O 159.795 3.41676 2.30935 0
M  V30 1658 H 159.136 0.647944 0.145138 0
M  V30 1659 H 161.666 2.03779 -0.183156 0
M  V30 1660 H 161.676 3.78078 1.53365 0
M  V30 1661 H 160.351 4.13594 0.437385 0
M  V30 1662 H 158.928 3.15672 1.98509 0
M  V30 1663 N 161.113 -0.173488 1.56642 0
M  V30 1664 C 162.39 -0.917617 1.7274 0
M  V30 1665 C 162.77 -2.00484 0.661027 0
M  V30 1666 O 162.118 -2.26184 -0.32453 0
M  V30 1667 C 162.328 -1.48433 3.15862 0
M  V30 1668 C 163.676 -1.95809 3.76754 0
M  V30 1669 O 164.7 -1.58231 3.19126 0
M  V30 1670 O 163.559 -2.65024 4.77938 0
M  V30 1671 H 160.653 -0.431772 0.705338 0
M  V30 1672 H 163.199 -0.161487 1.6893 0
M  V30 1673 H 161.971 -0.701715 3.84957 0
M  V30 1674 H 161.594 -2.30471 3.23989 0
M  V30 1675 N 162.591 -1.51276 -0.441967 0
M  V30 1676 C 163.554 -1.7167 -1.51862 0
M  V30 1677 C 164.554 -0.586793 -1.49711 0
M  V30 1678 O 165.744 -0.854276 -1.51815 0
M  V30 1679 C 162.876 -1.76889 -2.91416 0
M  V30 1680 H 164.069 -2.67754 -1.35084 0
M  V30 1681 H 161.622 -1.41196 -0.670333 0
M  V30 1682 H 162.357 -0.826026 -3.13604 0
M  V30 1683 H 162.142 -2.59001 -2.94382 0
M  V30 1684 H 163.632 -1.94522 -3.69528 0
M  V30 1685 N 164.069 0.697108 -1.41344 0
M  V30 1686 C 164.999 1.82353 -1.45841 0
M  V30 1687 C 165.98 1.67115 -0.317247 0
M  V30 1688 O 167.165 1.86871 -0.528474 0
M  V30 1689 C 164.295 3.20476 -1.33838 0
M  V30 1690 C 163.249 3.50415 -2.4575 0
M  V30 1691 C 162.575 4.87878 -2.18813 0
M  V30 1692 C 163.875 3.49546 -3.88091 0
M  V30 1693 H 165.569 1.78846 -2.40113 0
M  V30 1694 H 163.115 0.859028 -1.15571 0
M  V30 1695 H 165.068 3.98988 -1.35596 0
M  V30 1696 H 163.792 3.24604 -0.360498 0
M  V30 1697 H 162.451 2.74253 -2.43271 0
M  V30 1698 H 162.099 4.8863 -1.19371 0
M  V30 1699 H 161.799 5.08875 -2.93803 0
M  V30 1700 H 163.323 5.68702 -2.22284 0
M  V30 1701 H 164.737 4.18066 -3.92293 0
M  V30 1702 H 163.134 3.82075 -4.62751 0
M  V30 1703 H 164.204 2.48552 -4.16353 0
M  V30 1704 N 165.547 1.27147 0.931209 0
M  V30 1705 C 166.479 1.05364 2.03546 0
M  V30 1706 C 167.492 0.0108438 1.62796 0
M  V30 1707 O 168.681 0.25202 1.76712 0
M  V30 1708 C 165.781 0.575566 3.33977 0
M  V30 1709 C 164.954 1.68985 4.03439 0
M  V30 1710 C 164.013 1.20813 5.12143 0
M  V30 1711 O 163.039 1.90712 5.363 0
M  V30 1712 N 164.241 0.0618851 5.80467 0
M  V30 1713 H 167.006 2.00454 2.22796 0
M  V30 1714 H 164.567 1.18666 1.10136 0
M  V30 1715 H 166.559 0.237264 4.04004 0
M  V30 1716 H 165.129 -0.282016 3.11325 0
M  V30 1717 H 164.349 2.19861 3.27192 0
M  V30 1718 H 165.637 2.4378 4.46597 0
M  V30 1719 H 165.035 -0.521621 5.6329 0
M  V30 1720 H 163.592 -0.217264 6.51438 0
M  V30 1721 N 167.025 -1.13721 1.09112 0
M  V30 1722 C 167.955 -2.21148 0.749385 0
M  V30 1723 C 168.936 -1.6792 -0.271475 0
M  V30 1724 O 170.121 -1.93693 -0.140251 0
M  V30 1725 C 167.251 -3.46905 0.165659 0
M  V30 1726 C 166.205 -4.13203 1.11567 0
M  V30 1727 C 165.531 -5.33248 0.393809 0
M  V30 1728 C 166.831 -4.60912 2.45678 0
M  V30 1729 H 168.525 -2.4999 1.64758 0
M  V30 1730 H 166.071 -1.20156 0.793626 0
M  V30 1731 H 168.024 -4.21313 -0.085466 0
M  V30 1732 H 166.748 -3.17449 -0.767714 0
M  V30 1733 H 165.407 -3.40758 1.35202 0
M  V30 1734 H 165.055 -5.00054 -0.543599 0
M  V30 1735 H 164.755 -5.78552 1.02721 0
M  V30 1736 H 166.279 -6.10413 0.150908 0
M  V30 1737 H 167.693 -5.26759 2.26269 0
M  V30 1738 H 166.09 -5.16944 3.04776 0
M  V30 1739 H 167.16 -3.75603 3.06677 0
M  V30 1740 N 168.503 -0.877838 -1.30888 0
M  V30 1741 C 169.751 -0.491723 -1.96027 0
M  V30 1742 C 170.072 0.960827 -1.69685 0
M  V30 1743 O 169.342 1.67462 -1.01654 0
M  V30 1744 H 167.922 -0.17885 -0.725273 0
M  V30 1745 H 170.584 -1.11935 -1.59551 0
M  V30 1746 H 169.68 -0.656016 -3.05128 0
M  V30 1747 N 169.982 1.44106 -0.638065 0
M  V30 1748 C 170.912 2.33448 0.0494287 0
M  V30 1749 C 171.893 1.48606 0.827672 0
M  V30 1750 O 173.078 1.77308 0.792173 0
M  V30 1751 C 170.208 3.31771 1.02691 0
M  V30 1752 C 169.162 4.26485 0.359823 0
M  V30 1753 C 168.488 5.14729 1.44769 0
M  V30 1754 C 169.788 5.17056 -0.738296 0
M  V30 1755 H 171.482 2.91183 -0.696636 0
M  V30 1756 H 169.028 1.40014 -0.336456 0
M  V30 1757 H 170.981 3.93161 1.51666 0
M  V30 1758 H 169.705 2.7226 1.80395 0
M  V30 1759 H 168.364 3.66437 -0.10934 0
M  V30 1760 H 168.012 4.51566 2.21578 0
M  V30 1761 H 167.712 5.78913 1.00668 0
M  V30 1762 H 169.236 5.78991 1.93911 0
M  V30 1763 H 170.65 5.72342 -0.331354 0
M  V30 1764 H 169.047 5.89879 -1.10286 0
M  V30 1765 H 170.117 4.57652 -1.60258 0
M  V30 1766 N 171.46 0.379036 1.52974 0
M  V30 1767 C 172.708 -0.206014 2.01047 0
M  V30 1768 C 173.029 -1.48175 1.26765 0
M  V30 1769 O 172.299 -1.92085 0.384743 0
M  V30 1770 H 170.879 -0.0791184 0.742798 0
M  V30 1771 H 173.541 0.508366 1.88153 0
M  V30 1772 H 172.637 -0.423501 3.09213 0
M  V30 1773 N 172.938 -1.57226 0.108567 0
M  V30 1774 C 173.885 -2.14756 -0.845481 0
M  V30 1775 C 174.855 -1.06971 -1.27068 0
M  V30 1776 O 176.04 -1.34827 -1.35005 0
M  V30 1777 C 173.18 -2.74298 -2.09415 0
M  V30 1778 C 172.293 -3.96358 -1.71826 0
M  V30 1779 C 171.428 -4.44021 -2.9158 0
M  V30 1780 C 170.467 -5.58637 -2.50181 0
M  V30 1781 N 169.604 -6.01091 -3.62814 0
M  V30 1782 H 174.444 -2.95961 -0.348035 0
M  V30 1783 H 171.981 -1.46226 -0.160106 0
M  V30 1784 H 173.939 -3.06945 -2.82561 0
M  V30 1785 H 172.569 -1.95801 -2.56636 0
M  V30 1786 H 171.621 -3.69939 -0.885947 0
M  V30 1787 H 172.933 -4.79504 -1.37394 0
M  V30 1788 H 172.087 -4.78522 -3.72963 0
M  V30 1789 H 170.826 -3.59803 -3.29231 0
M  V30 1790 H 169.831 -5.23751 -1.67228 0
M  V30 1791 H 171.056 -6.44613 -2.13659 0
M  V30 1792 H 169.002 -5.19817 -4.00158 0
M  V30 1793 H 168.919 -6.79066 -3.32273 0
M  V30 1794 H 170.187 -6.40227 -4.44668 0
M  V30 1795 N 174.416 0.165178 -1.56732 0
M  V30 1796 C 175.366 1.20917 -1.93295 0
M  V30 1797 C 176.35 1.39488 -0.801985 0
M  V30 1798 O 177.542 1.41356 -1.06525 0
M  V30 1799 C 174.671 2.54718 -2.3016 0
M  V30 1800 C 173.757 2.39815 -3.49785 0
M  V30 1801 N 174.148 1.94637 -4.66851 0
M  V30 1802 C 172.446 2.70623 -3.54513 0
M  V30 1803 C 173.147 1.92344 -5.4898 0
M  V30 1804 N 172.123 2.34978 -4.9019 0
M  V30 1805 H 175.925 0.851675 -2.81289 0
M  V30 1806 H 173.439 0.373399 -1.58049 0
M  V30 1807 H 175.436 3.30165 -2.54552 0
M  V30 1808 H 174.096 2.91265 -1.43508 0
M  V30 1809 H 175.107 1.6488 -4.90953 0
M  V30 1810 H 171.784 3.11167 -2.78354 0
M  V30 1811 H 173.174 1.5906 -6.52801 0
M  V30 1812 N 175.894 1.51508 0.433938 0
M  V30 1813 C 176.842 1.73646 1.54757 0
M  V30 1814 C 177.836 0.602854 1.5831 0
M  V30 1815 O 179.042 0.784318 1.62014 0
M  V30 1816 H 175.417 0.548718 0.51421 0
M  V30 1817 H 177.388 2.66991 1.33261 0
M  V30 1818 C 176.137 1.88172 2.92381 0
M  V30 1819 H 175.46 2.74808 2.90381 0
M  V30 1820 H 176.9 2.07672 3.6966 0
M  V30 1821 C 175.359 0.64239 3.30719 0
M  V30 1822 O 175.889 -0.201362 4.01195 0
M  V30 1823 N 174.095 0.485489 2.86516 0
M  V30 1824 H 173.642 1.17318 2.29334 0
M  V30 1825 H 173.6 -0.342482 3.12529 0
M  V30 1826 N 177.372 -0.689602 1.41712 0
M  V30 1827 C 178.602 -1.47613 1.44548 0
M  V30 1828 C 179.01 -1.89132 0.0509034 0
M  V30 1829 O 178.353 -1.57741 -0.94146 0
M  V30 1830 C 178.415 -2.76596 2.2964 0
M  V30 1831 C 178.079 -2.57245 3.77722 0
M  V30 1832 C 179.076 -2.22804 4.69739 0
M  V30 1833 C 176.761 -2.727 4.2183 0
M  V30 1834 C 178.755 -2.04064 6.03851 0
M  V30 1835 C 176.442 -2.53576 5.56006 0
M  V30 1836 C 177.44 -2.1931 6.46832 0
M  V30 1837 O 177.128 -2.00359 7.78532 0
M  V30 1838 H 176.86 -0.461227 0.494212 0
M  V30 1839 H 179.414 -0.856045 1.86711 0
M  V30 1840 H 177.644 -3.41033 1.82301 0
M  V30 1841 H 179.333 -3.38424 2.24107 0
M  V30 1842 H 180.099 -2.10473 4.36951 0
M  V30 1843 H 175.978 -2.98353 3.51435 0
M  V30 1844 H 179.522 -1.77241 6.74708 0
M  V30 1845 H 175.419 -2.65499 5.88371 0
M  V30 1846 H 176.187 -2.15075 7.89737 0
M  V30 1847 N 178.85 -1.27639 -0.924453 0
M  V30 1848 C 180.09 -1.15407 -1.68703 0
M  V30 1849 C 180.454 0.294581 -1.89727 0
M  V30 1850 O 181.655 0.539385 -2.63333 0
M  V30 1851 C 179.926 -1.9195 -3.0148 0
M  V30 1852 S 181.485 -1.95969 -3.92609 0
M  V30 1853 H 178.303 -0.411937 -0.579507 0
M  V30 1854 H 180.905 -1.61592 -1.10038 0
M  V30 1855 H 179.609 -2.96387 -2.83871 0
M  V30 1856 H 179.14 -1.46272 -3.65196 0
M  V30 1857 H 181.155 -1.05846 -4.84779 0
M  V30 1858 N 180.328 1.1314 -1.09713 0
M  V30 1859 C 181.744 1.36477 -0.827423 0
M  V30 1860 C 181.944 1.93654 0.556817 0
M  V30 1861 O 181 2.15791 1.31112 0
M  V30 1862 C 182.313 2.31334 -1.92106 0
M  V30 1863 C 183.861 2.44943 -1.94864 0
M  V30 1864 C 184.336 3.4311 -3.0338 0
M  V30 1865 N 185.827 3.50662 -3.02639 0
M  V30 1866 C 186.562 4.2651 -3.83246 0
M  V30 1867 N 186.058 5.05485 -4.73768 0
M  V30 1868 N 187.851 4.2184 -3.71493 0
M  V30 1869 H 180.002 0.743807 -1.9895 0
M  V30 1870 H 182.265 0.389823 -0.864143 0
M  V30 1871 H 181.971 1.96483 -2.91698 0
M  V30 1872 H 181.845 3.31381 -1.80184 0
M  V30 1873 H 184.232 2.79079 -0.959099 0
M  V30 1874 H 184.313 1.4481 -2.10864 0
M  V30 1875 H 183.957 3.09704 -4.02549 0
M  V30 1876 H 183.887 4.43055 -2.84622 0
M  V30 1877 H 186.378 2.94315 -2.37039 0
M  V30 1878 H 186.691 5.60675 -5.3185 0
M  V30 1879 H 185.036 5.04708 -4.77802 0
M  V30 1880 H 188.227 3.5922 -3.00131 0
M  V30 1881 H 188.4 4.80697 -4.3455 0
M  V30 1882 N 181.806 0.884767 1.30421 0
M  V30 1883 C 182.754 0.340869 2.30089 0
M  V30 1884 C 183.748 -0.55201 1.60154 0
M  V30 1885 O 184.954 -0.436467 1.74628 0
M  V30 1886 H 181.329 0.0915739 0.746404 0
M  V30 1887 H 183.3 1.19513 2.73421 0
M  V30 1888 C 182.049 -0.429779 3.45034 0
M  V30 1889 H 181.372 0.248024 3.9903 0
M  V30 1890 H 182.812 -0.775445 4.16849 0
M  V30 1891 C 181.271 -1.62677 2.95022 0
M  V30 1892 O 181.801 -2.72614 2.95033 0
M  V30 1893 N 180.007 -1.46387 2.51036 0
M  V30 1894 H 179.554 -0.569506 2.51226 0
M  V30 1895 H 179.512 -2.26612 2.17932 0
M  V30 1896 N 183.284 -1.43765 0.645699 0
M  V30 1897 C 184.695 -1.85193 0.236719 0
M  V30 1898 C 185.046 -1.54045 -1.21509 0
M  V30 1899 O 184.171 -0.985694 -1.92647 0
M  V30 1900 C 184.766 -3.36151 0.422845 0
M  V30 1901 C 183.325 -3.76338 0.0682492 0
M  V30 1902 C 182.472 -2.67538 0.729306 0
M  V30 1903 H 185.423 -1.34025 0.849883 0
M  V30 1904 H 185.444 -3.79032 -0.333904 0
M  V30 1905 H 184.956 -3.5879 1.47958 0
M  V30 1906 H 183.057 -3.59312 -0.986179 0
M  V30 1907 H 183.17 -4.76603 0.488469 0
M  V30 1908 H 181.534 -2.54176 0.163235 0
M  V30 1909 H 182.317 -2.93006 1.78892 0
M  V30 1910 N 184.763 -0.387143 -1.52771 0
M  V30 1911 C 186.04 0.253197 -1.93954 0
M  V30 1912 C 186.42 1.64545 -1.32243 0
M  V30 1913 O 185.768 2.23191 -0.489699 0
M  V30 1914 C 185.978 0.281722 -3.47861 0
M  V30 1915 C 187.326 0.511715 -4.21505 0
M  V30 1916 O 188.35 0.362023 -3.54356 0
M  V30 1917 O 187.209 0.804847 -5.40541 0
M  V30 1918 H 184.303 0.156845 -0.811991 0
M  V30 1919 H 186.849 -0.441494 -1.63856 0
M  V30 1920 H 185.621 -0.693571 -3.85104 0
M  V30 1921 H 185.244 1.02142 -3.84256 0
M  V30 1922 N 186.241 1.57166 -0.116904 0
M  V30 1923 C 187.189 2.16457 0.851418 0
M  V30 1924 C 188.183 1.11323 1.27686 0
M  V30 1925 O 189.389 1.2963 1.24884 0
M  V30 1926 H 185.764 0.69271 0.292672 0
M  V30 1927 H 187.735 2.96605 0.32685 0
M  V30 1928 C 186.484 2.77689 2.09246 0
M  V30 1929 H 185.807 3.58285 1.77402 0
M  V30 1930 H 187.247 3.22716 2.7501 0
M  V30 1931 C 185.706 1.74667 2.88085 0
M  V30 1932 O 186.236 1.19877 3.83396 0
M  V30 1933 N 184.442 1.44656 2.52038 0
M  V30 1934 H 183.989 1.89402 1.74599 0
M  V30 1935 H 183.947 0.759675 3.05084 0
M  V30 1936 N 187.719 -0.156864 1.56817 0
M  V30 1937 C 189.135 -0.50916 1.5126 0
M  V30 1938 C 189.335 -1.83897 0.823658 0
M  V30 1939 O 188.391 -2.49469 0.390055 0
M  V30 1940 C 189.704 -0.52857 2.96018 0
M  V30 1941 C 191.252 -0.614771 3.06903 0
M  V30 1942 C 191.727 -0.664938 4.53147 0
M  V30 1943 N 193.218 -0.727433 4.57452 0
M  V30 1944 C 193.953 -0.787067 5.67973 0
M  V30 1945 N 193.449 -0.806649 6.88088 0
M  V30 1946 N 195.242 -0.827195 5.5598 0
M  V30 1947 H 187.393 0.714935 2.00006 0
M  V30 1948 H 189.656 0.259526 0.911784 0
M  V30 1949 H 189.362 0.380154 3.49639 0
M  V30 1950 H 189.236 -1.36998 3.51442 0
M  V30 1951 H 191.623 -1.51392 2.53307 0
M  V30 1952 H 191.704 0.253597 2.5454 0
M  V30 1953 H 191.348 0.230011 5.07379 0
M  V30 1954 H 191.278 -1.54966 5.03282 0
M  V30 1955 H 193.769 -0.719998 3.70978 0
M  V30 1956 H 194.082 -0.853727 7.6807 0
M  V30 1957 H 192.427 -0.774687 6.90669 0
M  V30 1958 H 195.618 -0.808998 4.61056 0
M  V30 1959 H 195.791 -0.870206 6.4213 0
M  V30 1960 N 189.197 -1.51736 -0.425897 0
M  V30 1961 C 190.613 -1.40166 -0.76326 0
M  V30 1962 C 190.813 -0.492962 -1.95377 0
M  V30 1963 O 189.869 0.0475815 -2.52455 0
M  V30 1964 C 191.182 -2.82403 -1.03291 0
M  V30 1965 C 192.73 -2.91632 -1.13665 0
M  V30 1966 C 193.205 -4.34801 -1.43916 0
M  V30 1967 N 194.696 -4.3796 -1.50816 0
M  V30 1968 C 195.431 -5.4578 -1.75817 0
M  V30 1969 N 194.927 -6.63744 -1.98534 0
M  V30 1970 N 196.72 -5.33274 -1.77694 0
M  V30 1971 H 188.871 -2.09361 0.358 0
M  V30 1972 H 191.134 -0.942941 0.0978094 0
M  V30 1973 H 190.84 -3.50943 -0.230696 0
M  V30 1974 H 190.714 -3.22428 -1.95754 0
M  V30 1975 H 193.101 -2.23284 -1.92947 0
M  V30 1976 H 193.182 -2.55088 -0.190756 0
M  V30 1977 H 192.826 -5.03703 -0.65157 0
M  V30 1978 H 192.756 -4.68868 -2.39729 0
M  V30 1979 H 195.247 -3.52919 -1.35118 0
M  V30 1980 H 195.56 -7.41704 -2.17013 0
M  V30 1981 H 193.905 -6.66839 -1.95832 0
M  V30 1982 H 197.096 -4.40098 -1.59473 0
M  V30 1983 H 197.269 -6.1738 -1.9684 0
M  V30 1984 N 190.675 0.682077 -1.42076 0
M  V30 1985 C 192.091 0.994324 -1.24841 0
M  V30 1986 C 192.291 2.0096 -0.147389 0
M  V30 1987 O 191.347 2.47822 0.483782 0
M  V30 1988 C 192.66 1.50607 -2.60265 0
M  V30 1989 C 194.208 1.62421 -2.6756 0
M  V30 1990 C 194.683 2.16994 -4.03333 0
M  V30 1991 N 196.174 2.24337 -4.0525 0
M  V30 1992 C 196.909 2.67621 -5.07116 0
M  V30 1993 N 196.405 3.1041 -6.19368 0
M  V30 1994 N 198.198 2.67305 -4.94474 0
M  V30 1995 H 190.349 0.00973908 -2.12398 0
M  V30 1996 H 192.612 0.0668593 -0.945639 0
M  V30 1997 H 192.318 0.834583 -3.41654 0
M  V30 1998 H 192.192 2.48602 -2.83684 0
M  V30 1999 H 194.579 2.28678 -1.86521 0
M  V30 2000 H 194.66 0.629352 -2.47937 0
M  V30 2001 H 194.304 1.51349 -4.84826 0
M  V30 2002 H 194.234 3.17258 -4.20304 0
M  V30 2003 H 196.725 1.94158 -3.24209 0
M  V30 2004 H 197.038 3.42103 -6.92954 0
M  V30 2005 H 195.383 3.08286 -6.22884 0
M  V30 2006 H 198.574 2.33233 -4.05857 0
M  V30 2007 H 198.747 3.00718 -5.73997 0
M  V30 2008 N 192.153 1.28127 0.917671 0
M  V30 2009 C 193.564 1.13622 1.48145 0
M  V30 2010 C 193.915 -0.275207 1.9426 0
M  V30 2011 O 193.04 -1.1691 1.82102 0
M  V30 2012 C 193.635 2.05648 2.69248 0
M  V30 2013 C 192.194 1.95219 3.21818 0
M  V30 2014 C 191.341 1.97618 1.94532 0
M  V30 2015 H 194.292 1.40874 0.730772 0
M  V30 2016 H 194.313 1.61818 3.44377 0
M  V30 2017 H 193.825 3.08365 2.35653 0
M  V30 2018 H 191.926 0.955244 3.60147 0
M  V30 2019 H 192.039 2.81976 3.87333 0
M  V30 2020 H 190.403 1.41973 2.11461 0
M  V30 2021 H 191.186 3.02007 1.63238 0
M  V30 2022 N 193.631 -1.12557 1.10312 0
M  V30 2023 C 194.877 -1.84515 0.855901 0
M  V30 2024 C 195.232 -1.82409 -0.611936 0
M  V30 2025 O 194.525 -1.25778 -1.44535 0
M  V30 2026 C 194.719 -3.31462 1.33669 0
M  V30 2027 C 194.548 -3.47879 2.84974 0
M  V30 2028 C 193.318 -3.61589 3.52961 0
M  V30 2029 C 195.516 -3.43152 3.83081 0
M  V30 2030 N 193.498 -3.66359 4.926 0
M  V30 2031 C 194.869 -3.54401 5.08724 0
M  V30 2032 C 196.924 -3.2661 3.75807 0
M  V30 2033 C 195.627 -3.50815 6.2795 0
M  V30 2034 C 197.653 -3.24335 4.94531 0
M  V30 2035 C 197.015 -3.36144 6.19021 0
M  V30 2036 H 193.114 -0.690967 0.366182 0
M  V30 2037 H 195.698 -1.34763 1.40524 0
M  V30 2038 H 193.869 -3.7976 0.814686 0
M  V30 2039 H 195.601 -3.91272 1.03385 0
M  V30 2040 H 192.356 -3.63652 3.03404 0
M  V30 2041 H 192.78 -3.72411 5.65366 0
M  V30 2042 H 197.422 -3.16375 2.80476 0
M  V30 2043 H 195.14 -3.5982 7.23571 0
M  V30 2044 H 198.726 -3.12719 4.9061 0
M  V30 2045 H 197.606 -3.34357 7.09348 0
M  V30 2046 N 195.109 -0.891671 -1.2995 0
M  V30 2047 C 196.349 -0.520296 -1.97667 0
M  V30 2048 C 196.713 0.914797 -1.68806 0
M  V30 2049 O 197.914 1.39263 -2.29911 0
M  V30 2050 C 196.185 -0.795222 -3.48441 0
M  V30 2051 S 197.744 -0.526953 -4.35624 0
M  V30 2052 H 194.562 -0.19333 -0.684211 0
M  V30 2053 H 197.164 -1.15238 -1.57926 0
M  V30 2054 H 195.868 -1.83805 -3.66938 0
M  V30 2055 H 195.399 -0.15095 -3.9311 0
M  V30 2056 H 197.414 0.631533 -4.92165 0
M  V30 2057 N 196.587 1.43421 -0.653314 0
M  V30 2058 C 197.817 2.05864 -0.174238 0
M  V30 2059 C 198.225 1.49052 1.16534 0
M  V30 2060 O 197.568 0.616481 1.73047 0
M  V30 2061 C 197.63 3.59499 -0.00875873 0
M  V30 2062 C 197.294 4.38893 -1.27364 0
M  V30 2063 C 198.291 4.70947 -2.20239 0
M  V30 2064 C 195.976 4.789 -1.51525 0
M  V30 2065 C 197.97 5.41916 -3.35568 0
M  V30 2066 C 195.657 5.49614 -2.67147 0
M  V30 2067 C 196.655 5.81044 -3.58994 0
M  V30 2068 O 196.343 6.50313 -4.72597 0
M  V30 2069 H 196.075 0.670345 -0.0872549 0
M  V30 2070 H 198.629 1.84913 -0.894226 0
M  V30 2071 H 196.859 3.79025 0.7666 0
M  V30 2072 H 198.548 4.0364 0.427687 0
M  V30 2073 H 199.314 4.40558 -2.02815 0
M  V30 2074 H 195.193 4.53843 -0.809158 0
M  V30 2075 H 198.737 5.66365 -4.07279 0
M  V30 2076 H 194.634 5.79419 -2.84505 0
M  V30 2077 H 195.402 6.68795 -4.71864 0
M  V30 2078 N 198.065 0.39524 1.52563 0
M  V30 2079 C 199.311 -0.185318 2.01952 0
M  V30 2080 C 199.644 -1.45964 1.28095 0
M  V30 2081 O 198.919 -1.90689 0.38315 0
M  V30 2082 C 199.202 -0.447193 3.57312 0
M  V30 2083 C 199.055 0.842828 4.41833 0
M  V30 2084 C 200.374 -1.23529 4.22408 0
M  V30 2085 H 197.493 -0.0658788 0.73405 0
M  V30 2086 H 200.135 0.525975 1.82575 0
M  V30 2087 H 198.285 -1.05312 3.73954 0
M  V30 2088 H 199.957 1.4795 4.36931 0
M  V30 2089 H 198.2 1.45686 4.08605 0
M  V30 2090 H 198.871 0.614165 5.48573 0
M  V30 2091 H 201.347 -0.722445 4.0978 0
M  V30 2092 H 200.223 -1.38727 5.3108 0
M  V30 2093 H 200.484 -2.25213 3.80436 0
M  V30 2094 N 199.544 -1.57102 0.125237 0
M  V30 2095 C 200.476 -2.12726 -0.853237 0
M  V30 2096 C 201.489 -1.07145 -1.22571 0
M  V30 2097 O 202.678 -1.34497 -1.17358 0
M  V30 2098 C 199.778 -2.61709 -2.15317 0
M  V30 2099 C 198.951 -3.91456 -1.95143 0
M  V30 2100 C 198.01 -4.25973 -3.08923 0
M  V30 2101 O 197.036 -4.94682 -2.81564 0
M  V30 2102 N 198.238 -3.83795 -4.35524 0
M  V30 2103 H 201.003 -2.97307 -0.377964 0
M  V30 2104 H 198.564 -1.61792 -0.0590011 0
M  V30 2105 H 200.556 -2.81826 -2.90441 0
M  V30 2106 H 199.126 -1.81974 -2.54174 0
M  V30 2107 H 198.346 -3.80185 -1.04177 0
M  V30 2108 H 199.634 -4.76283 -1.78976 0
M  V30 2109 H 199.032 -3.2839 -4.60626 0
M  V30 2110 H 197.589 -4.09008 -5.07499 0
M  V30 2111 N 201.022 0.148545 -1.56898 0
M  V30 2112 C 202.268 0.862694 -1.83536 0
M  V30 2113 C 202.601 1.80889 -0.706604 0
M  V30 2114 O 201.876 1.92328 0.289885 0
M  V30 2115 C 202.159 1.63853 -3.20662 0
M  V30 2116 C 202.012 0.713925 -4.44098 0
M  V30 2117 C 203.331 2.60133 -3.54991 0
M  V30 2118 H 200.45 0.312179 -0.667618 0
M  V30 2119 H 203.092 0.127953 -1.89569 0
M  V30 2120 H 201.242 2.26489 -3.1565 0
M  V30 2121 H 202.914 0.098686 -4.61194 0
M  V30 2122 H 201.157 0.0234019 -4.33794 0
M  V30 2123 H 201.828 1.29278 -5.36648 0
M  V30 2124 H 204.304 2.07616 -3.60603 0
M  V30 2125 H 203.18 3.11468 -4.51972 0
M  V30 2126 H 203.441 3.41417 -2.80868 0
M  V30 2127 N 202.5 1.5196 0.417844 0
M  V30 2128 C 203.748 1.65263 1.16329 0
M  V30 2129 C 204.069 0.380634 1.91249 0
M  V30 2130 O 203.339 -0.604214 1.86349 0
M  V30 2131 H 201.919 0.60912 0.432414 0
M  V30 2132 H 204.581 1.88969 0.477162 0
M  V30 2133 H 203.677 2.4896 1.88217 0
M  V30 2134 N 203.978 -0.674533 1.42435 0
M  V30 2135 C 204.908 -1.80009 1.48724 0
M  V30 2136 C 205.889 -1.6659 0.343793 0
M  V30 2137 O 207.074 -1.86007 0.558137 0
M  V30 2138 C 204.204 -3.18306 1.38919 0
M  V30 2139 C 203.158 -3.46461 2.51294 0
M  V30 2140 C 202.484 -4.84335 2.26547 0
M  V30 2141 C 203.784 -3.43328 3.93603 0
M  V30 2142 H 205.478 -1.75004 2.42928 0
M  V30 2143 H 203.024 -0.840533 1.16923 0
M  V30 2144 H 204.977 -3.9678 1.41927 0
M  V30 2145 H 203.701 -3.2399 0.412094 0
M  V30 2146 H 202.36 -2.70348 2.47604 0
M  V30 2147 H 202.008 -4.86669 1.2713 0
M  V30 2148 H 201.708 -5.04136 3.01861 0
M  V30 2149 H 203.232 -5.65094 2.31304 0
M  V30 2150 H 204.646 -4.11772 3.98894 0
M  V30 2151 H 203.043 -3.74664 4.68771 0
M  V30 2152 H 204.113 -2.41897 4.20255 0
M  V30 2153 N 205.456 -1.28612 -0.910864 0
M  V30 2154 C 206.403 -1.12786 -2.01365 0
M  V30 2155 C 207.373 -0.024201 -1.66082 0
M  V30 2156 O 208.558 -0.189667 -1.89855 0
M  V30 2157 C 205.698 -0.798743 -3.35729 0
M  V30 2158 C 204.811 -1.98173 -3.83864 0
M  V30 2159 C 203.946 -1.59298 -5.06752 0
M  V30 2160 C 202.985 -2.74245 -5.47226 0
M  V30 2161 N 202.122 -2.35842 -6.61304 0
M  V30 2162 H 206.962 -2.07142 -2.14234 0
M  V30 2163 H 204.499 -1.03093 -1.0493 0
M  V30 2164 H 206.457 -0.588662 -4.13026 0
M  V30 2165 H 205.087 0.10789 -3.2262 0
M  V30 2166 H 204.139 -2.30386 -3.02699 0
M  V30 2167 H 205.451 -2.84343 -4.09818 0
M  V30 2168 H 204.605 -1.34513 -5.916 0
M  V30 2169 H 203.344 -0.702618 -4.82612 0
M  V30 2170 H 202.349 -2.99725 -4.60918 0
M  V30 2171 H 203.574 -3.63928 -5.73353 0
M  V30 2172 H 201.52 -1.49279 -6.38789 0
M  V30 2173 H 201.437 -3.15546 -6.86998 0
M  V30 2174 H 202.705 -2.14348 -7.4945 0
M  V30 2175 N 206.934 1.1197 -1.10907 0
M  V30 2176 C 208.345 1.65114 -0.871446 0
M  V30 2177 C 208.696 1.86885 0.597353 0
M  V30 2178 O 207.821 1.59896 1.45816 0
M  V30 2179 C 208.416 2.99944 -1.5754 0
M  V30 2180 C 206.975 3.50018 -1.38435 0
M  V30 2181 C 206.122 2.24941 -1.62164 0
M  V30 2182 H 209.073 0.956851 -1.2661 0
M  V30 2183 H 209.094 3.66651 -1.01721 0
M  V30 2184 H 208.606 2.84067 -2.64438 0
M  V30 2185 H 206.707 3.71071 -0.337214 0
M  V30 2186 H 206.82 4.29165 -2.12965 0
M  V30 2187 H 205.184 2.3229 -1.04467 0
M  V30 2188 H 205.967 2.11612 -2.70324 0
M  V30 2189 N 208.412 0.89855 1.29475 0
M  V30 2190 C 209.342 0.39201 2.30186 0
M  V30 2191 C 210.323 -0.532359 1.61555 0
M  V30 2192 O 211.508 -0.443331 1.89072 0
M  V30 2193 C 208.638 -0.382353 3.45189 0
M  V30 2194 C 207.592 0.451483 4.25612 0
M  V30 2195 C 206.918 -0.450307 5.328 0
M  V30 2196 C 208.218 1.70079 4.93832 0
M  V30 2197 H 209.912 1.23362 2.72804 0
M  V30 2198 H 207.458 0.594638 1.31149 0
M  V30 2199 H 209.411 -0.747451 4.14718 0
M  V30 2200 H 208.135 -1.25774 3.01411 0
M  V30 2201 H 206.794 0.798897 3.57789 0
M  V30 2202 H 206.442 -1.32379 4.85268 0
M  V30 2203 H 206.142 0.103902 5.87508 0
M  V30 2204 H 207.666 -0.811623 6.05182 0
M  V30 2205 H 209.08 1.40549 5.55805 0
M  V30 2206 H 207.477 2.19623 5.58467 0
M  V30 2207 H 208.547 2.43744 4.19186 0
M  V30 2208 N 209.89 -1.43072 0.660911 0
M  V30 2209 C 211.136 -2.0202 0.177708 0
M  V30 2210 C 211.469 -1.52066 -1.20787 0
M  V30 2211 O 210.744 -0.716987 -1.80802 0
M  V30 2212 C 211.027 -3.59561 0.197019 0
M  V30 2213 C 210.88 -4.19727 1.61706 0
M  V30 2214 C 212.199 -4.37664 -0.462396 0
M  V30 2215 H 209.318 -0.734034 0.0660494 0
M  V30 2216 H 211.96 -1.70272 0.843058 0
M  V30 2217 H 210.11 -3.86739 -0.369527 0
M  V30 2218 H 211.782 -4.03553 2.23479 0
M  V30 2219 H 210.025 -3.76084 2.16201 0
M  V30 2220 H 210.696 -5.28834 1.58237 0
M  V30 2221 H 213.172 -4.16095 0.0197215 0
M  V30 2222 H 212.048 -5.47305 -0.418188 0
M  V30 2223 H 212.309 -4.14493 -1.53778 0
M  V30 2224 N 211.368 -0.403325 -1.52352 0
M  V30 2225 C 212.3 0.4603 -2.2453 0
M  V30 2226 C 213.313 1.01505 -1.27282 0
M  V30 2227 O 214.502 0.914982 -1.53266 0
M  V30 2228 C 211.602 1.65208 -2.95905 0
M  V30 2229 C 210.775 1.22224 -4.19976 0
M  V30 2230 C 209.834 2.28028 -4.74226 0
M  V30 2231 O 208.86 1.88857 -5.36956 0
M  V30 2232 N 210.062 3.6012 -4.55295 0
M  V30 2233 H 212.827 -0.158156 -2.99282 0
M  V30 2234 H 210.388 -0.230402 -1.60252 0
M  V30 2235 H 212.38 2.35541 -3.29093 0
M  V30 2236 H 210.95 2.17658 -2.24374 0
M  V30 2237 H 210.17 0.34725 -3.92668 0
M  V30 2238 H 211.458 0.911924 -5.00561 0
M  V30 2239 H 210.856 3.94698 -4.05253 0
M  V30 2240 H 209.413 4.26447 -4.92936 0
M  V30 2241 N 212.846 1.57033 -0.133567 0
M  V30 2242 C 213.756 2.19632 0.824564 0
M  V30 2243 C 214.772 1.17666 1.28182 0
M  V30 2244 O 215.948 1.50193 1.3418 0
M  V30 2245 C 213.013 2.79499 2.05137 0
M  V30 2246 C 212.074 3.96548 1.64464 0
M  V30 2247 C 211.307 4.5355 2.81297 0
M  V30 2248 O 211.53 4.09438 3.97136 0
M  V30 2249 O 210.464 5.44018 2.57542 0
M  V30 2250 H 214.29 3.01991 0.321766 0
M  V30 2251 H 211.875 1.49112 0.0927889 0
M  V30 2252 H 213.757 3.17602 2.7696 0
M  V30 2253 H 212.432 2.00162 2.54395 0
M  V30 2254 H 211.339 3.63186 0.897048 0
M  V30 2255 H 212.672 4.77364 1.19934 0
M  V30 2256 N 214.325 -0.140222 1.56975 0
M  V30 2257 C 215.565 -0.857823 1.85528 0
M  V30 2258 C 215.929 -1.78039 0.718768 0
M  V30 2259 O 217.13 -2.53795 0.885521 0
M  V30 2260 C 215.401 -1.60615 3.19277 0
M  V30 2261 S 216.96 -2.36824 3.69405 0
M  V30 2262 H 213.778 -0.286727 0.650622 0
M  V30 2263 H 216.38 -0.117408 1.95147 0
M  V30 2264 H 215.084 -0.919994 3.99955 0
M  V30 2265 H 214.615 -2.38735 3.12681 0
M  V30 2266 H 216.63 -3.62148 3.3921 0
M  V30 2267 N 215.803 -1.52179 -0.40978 0
M  V30 2268 C 216.736 -1.70196 -1.52015 0
M  V30 2269 C 217.714 -0.549542 -1.53032 0
M  V30 2270 O 218.898 -0.776815 -1.71749 0
M  V30 2271 C 216.025 -1.74069 -2.90547 0
M  V30 2272 C 215.071 -2.95601 -3.07445 0
M  V30 2273 S 215.904 -4.55956 -2.80827 0
M  V30 2274 C 217.06 -4.62614 -4.21591 0
M  V30 2275 H 217.293 -2.64109 -1.36504 0
M  V30 2276 H 214.826 -1.4221 -0.601312 0
M  V30 2277 H 216.784 -1.76985 -3.70387 0
M  V30 2278 H 215.445 -0.812835 -3.034 0
M  V30 2279 H 214.638 -2.94791 -4.08796 0
M  V30 2280 H 214.24 -2.90569 -2.35469 0
M  V30 2281 H 216.532 -4.39951 -5.15218 0
M  V30 2282 H 217.475 -5.64548 -4.27424 0
M  V30 2283 H 217.883 -3.91654 -4.06531 0
M  V30 2284 N 217.281 0.66697 -1.42791 0
M  V30 2285 C 218.527 1.4291 -1.43891 0
M  V30 2286 C 218.86 1.94114 -0.0578972 0
M  V30 2287 O 218.135 1.71414 0.91911 0
M  V30 2288 C 218.418 2.62049 -2.46987 0
M  V30 2289 C 218.271 2.16426 -3.94309 0
M  V30 2290 C 219.59 3.64266 -2.46978 0
M  V30 2291 H 216.709 0.518306 -0.523954 0
M  V30 2292 H 219.351 0.757321 -1.74255 0
M  V30 2293 H 217.501 3.19361 -2.21225 0
M  V30 2294 H 219.173 1.64221 -4.31079 0
M  V30 2295 H 217.416 1.47925 -4.078 0
M  V30 2296 H 218.087 3.02038 -4.62036 0
M  V30 2297 H 220.563 3.16686 -2.69906 0
M  V30 2298 H 219.439 4.45196 -3.21079 0
M  V30 2299 H 219.7 4.15927 -1.49857 0
M  V30 2300 N 218.759 1.29093 0.90403 0
M  V30 2301 C 219.709 1.10482 1.99443 0
M  V30 2302 C 220.693 0.0255401 1.6088 0
M  V30 2303 O 221.885 0.24677 1.75271 0
M  V30 2304 C 219.014 0.778882 3.34348 0
M  V30 2305 C 218.1 1.89749 3.79284 0
M  V30 2306 N 218.491 3.14045 3.96497 0
M  V30 2307 C 216.789 1.78955 4.08523 0
M  V30 2308 C 217.49 3.86996 4.34292 0
M  V30 2309 N 216.466 3.14909 4.43095 0
M  V30 2310 H 220.268 2.04778 2.10815 0
M  V30 2311 H 217.782 1.20155 1.09255 0
M  V30 2312 H 219.779 0.62661 4.12164 0
M  V30 2313 H 218.439 -0.156205 3.24324 0
M  V30 2314 H 219.45 3.49548 3.82148 0
M  V30 2315 H 216.127 0.926886 4.07081 0
M  V30 2316 H 217.517 4.93941 4.55491 0
M  V30 2317 N 220.237 -1.11381 1.11499 0
M  V30 2318 C 221.514 -1.7955 0.775965 0
M  V30 2319 C 221.894 -1.97859 -0.73588 0
M  V30 2320 O 221.242 -1.56376 -1.66609 0
M  V30 2321 C 221.452 -3.13196 1.53977 0
M  V30 2322 C 222.8 -3.88227 1.71944 0
M  V30 2323 O 223.824 -3.22887 1.50407 0
M  V30 2324 O 222.683 -5.05477 2.07738 0
M  V30 2325 H 219.777 -0.777728 0.28119 0
M  V30 2326 H 222.323 -1.18118 1.21845 0
M  V30 2327 H 221.095 -2.95229 2.56818 0
M  V30 2328 H 220.718 -3.82342 1.09088 0
M  V30 2329 N 221.715 -0.905404 -1.28997 0
M  V30 2330 C 222.955 -0.541232 -1.97104 0
M  V30 2331 C 223.319 0.896841 -1.69767 0
M  V30 2332 O 224.52 1.36817 -2.31375 0
M  V30 2333 C 222.791 -0.832134 -3.47578 0
M  V30 2334 S 224.35 -0.573127 -4.35041 0
M  V30 2335 H 221.168 -0.200576 -0.682122 0
M  V30 2336 H 223.77 -1.16906 -1.56694 0
M  V30 2337 H 222.474 -1.87687 -3.64968 0
M  V30 2338 H 222.005 -0.192636 -3.92928 0
M  V30 2339 H 224.02 0.579297 -4.92807 0
M  V30 2340 N 223.193 1.4272 -0.668489 0
M  V30 2341 C 224.156 2.292 0.00448567 0
M  V30 2342 C 225.156 1.43001 0.735339 0
M  V30 2343 O 226.346 1.64461 0.57429 0
M  V30 2344 C 223.478 3.25375 1.01705 0
M  V30 2345 H 224.671 2.90199 -0.756608 0
M  V30 2346 H 222.224 1.50254 -0.430506 0
M  V30 2347 H 222.959 2.69301 1.80686 0
M  V30 2348 H 222.744 3.88944 0.496463 0
M  V30 2349 H 224.234 3.90245 1.48655 0
M  V30 2350 N 224.671 0.411399 1.52136 0
M  V30 2351 C 225.948 -0.222308 1.94333 0
M  V30 2352 C 226.328 -1.6242 1.34844 0
M  V30 2353 O 225.676 -2.22384 0.525145 0
M  V30 2354 C 225.886 -0.226345 3.48265 0
M  V30 2355 C 227.234 -0.444592 4.22266 0
M  V30 2356 O 228.258 -0.305602 3.54887 0
M  V30 2357 O 227.117 -0.718749 5.41753 0
M  V30 2358 H 224.211 -0.143907 0.814383 0
M  V30 2359 H 226.757 0.467506 1.63133 0
M  V30 2360 H 225.529 0.75475 3.83952 0
M  V30 2361 H 225.152 -0.960163 3.85832 0
M  V30 2362 N 226.149 -1.5696 0.141893 0
M  V30 2363 C 227.397 -1.95573 -0.509484 0
M  V30 2364 C 227.718 -1.02746 -1.65736 0
M  V30 2365 O 226.988 -0.0880311 -1.95702 0
M  V30 2366 H 225.568 -0.722115 -0.191205 0
M  V30 2367 H 228.23 -1.93697 0.216196 0
M  V30 2368 H 227.326 -2.99171 -0.889 0
M  V30 2369 N 227.627 0.131896 -1.57047 0
M  V30 2370 C 228.574 1.16236 -1.99393 0
M  V30 2371 C 229.544 1.41863 -0.863943 0
M  V30 2372 O 230.729 1.53946 -1.12718 0
M  V30 2373 C 227.869 2.48708 -2.39245 0
M  V30 2374 C 226.982 2.30127 -3.65603 0
M  V30 2375 C 226.117 3.55738 -3.94492 0
M  V30 2376 C 225.156 3.32259 -5.14073 0
M  V30 2377 N 224.293 4.50039 -5.38896 0
M  V30 2378 H 229.133 0.794251 -2.87221 0
M  V30 2379 H 226.67 0.380707 -1.42088 0
M  V30 2380 H 228.628 3.25969 -2.60384 0
M  V30 2381 H 227.258 2.83437 -1.54478 0
M  V30 2382 H 226.31 1.43845 -3.52154 0
M  V30 2383 H 227.622 2.08746 -4.5302 0
M  V30 2384 H 226.776 4.41423 -4.1621 0
M  V30 2385 H 225.515 3.80138 -3.05526 0
M  V30 2386 H 224.52 2.44963 -4.92212 0
M  V30 2387 H 225.745 3.09242 -6.04604 0
M  V30 2388 H 223.691 4.74584 -4.52886 0
M  V30 2389 H 223.608 4.31716 -6.2061 0
M  V30 2390 H 224.876 5.36895 -5.65123 0
M  V30 2391 N 229.106 1.52395 0.401703 0
M  V30 2392 C 230.053 1.76268 1.48991 0
M  V30 2393 C 231.023 0.605386 1.54675 0
M  V30 2394 O 232.208 0.843742 1.7113 0
M  V30 2395 C 229.348 1.92592 2.86361 0
M  V30 2396 C 228.461 3.20259 2.89928 0
M  V30 2397 C 227.596 3.26972 4.18644 0
M  V30 2398 C 226.635 4.48812 4.16214 0
M  V30 2399 N 225.772 4.52877 5.36514 0
M  V30 2400 H 230.612 2.6914 1.27935 0
M  V30 2401 H 228.149 1.33355 0.620871 0
M  V30 2402 H 230.107 2.0004 3.66115 0
M  V30 2403 H 228.737 1.03093 3.05895 0
M  V30 2404 H 227.789 3.21945 2.02621 0
M  V30 2405 H 229.101 4.10056 2.83999 0
M  V30 2406 H 228.255 3.33533 5.06794 0
M  V30 2407 H 226.994 2.35126 4.27278 0
M  V30 2408 H 225.999 4.4239 3.26453 0
M  V30 2409 H 227.224 5.41961 4.09213 0
M  V30 2410 H 225.17 3.63917 5.45802 0
M  V30 2411 H 225.087 5.36529 5.32609 0
M  V30 2412 H 226.355 4.63676 6.26597 0
M  V30 2413 N 230.584 -0.659388 1.43143 0
M  V30 2414 C 231.995 -1.24041 1.39537 0
M  V30 2415 C 232.346 -1.95963 0.0963364 0
M  V30 2416 O 231.471 -2.00892 -0.804438 0
M  V30 2417 C 232.066 -2.25601 2.52764 0
M  V30 2418 C 230.625 -2.79195 2.52443 0
M  V30 2419 C 229.772 -1.53743 2.30778 0
M  V30 2420 H 232.723 -0.451792 1.52133 0
M  V30 2421 H 232.744 -3.07651 2.23899 0
M  V30 2422 H 232.256 -1.73226 3.47296 0
M  V30 2423 H 230.357 -3.35649 1.61773 0
M  V30 2424 H 230.47 -3.2716 3.50004 0
M  V30 2425 H 228.834 -1.80869 1.79328 0
M  V30 2426 H 229.617 -1.03312 3.27386 0
M  V30 2427 N 232.062 -1.29571 -0.897171 0
M  V30 2428 C 233.287 -1.20705 -1.68656 0
M  V30 2429 C 233.712 0.228582 -1.86706 0
M  V30 2430 O 233.07 1.16494 -1.3892 0
M  V30 2431 C 233.118 -1.9282 -3.04717 0
M  V30 2432 O 232.222 -1.24697 -3.93096 0
M  V30 2433 H 231.563 -0.418126 -0.515816 0
M  V30 2434 H 234.093 -1.71183 -1.12061 0
M  V30 2435 H 234.103 -2.01372 -3.54843 0
M  V30 2436 H 232.778 -2.97239 -2.90899 0
M  V30 2437 H 231.355 -1.2442 -3.51531 0
M  V30 2438 N 233.54 1.10788 -1.12088 0
M  V30 2439 C 234.765 1.87002 -0.896949 0
M  V30 2440 C 235.19 1.79933 0.548261 0
M  V30 2441 O 234.548 1.16662 1.38779 0
M  V30 2442 C 234.596 3.3349 -1.37174 0
M  V30 2443 O 233.7 4.08745 -0.547831 0
M  V30 2444 H 233.041 0.580397 -0.322545 0
M  V30 2445 H 235.571 1.39996 -1.49206 0
M  V30 2446 H 235.581 3.84339 -1.36922 0
M  V30 2447 H 234.256 3.37951 -2.42408 0
M  V30 2448 H 232.833 3.6776 -0.617034 0
M  V30 2449 N 235.018 0.912232 1.28515 0
M  V30 2450 C 236.429 0.591352 1.77087 0
M  V30 2451 C 236.78 -0.8933 1.74684 0
M  V30 2452 O 235.905 -1.69876 1.34056 0
M  V30 2453 C 236.5 1.06668 3.2157 0
M  V30 2454 C 235.059 0.79675 3.67871 0
M  V30 2455 C 234.206 1.23427 2.48316 0
M  V30 2456 H 237.157 1.09365 1.15 0
M  V30 2457 H 237.178 0.407455 3.78312 0
M  V30 2458 H 236.69 2.14726 3.23287 0
M  V30 2459 H 234.791 -0.270679 3.71616 0
M  V30 2460 H 234.904 1.40343 4.58084 0
M  V30 2461 H 233.268 0.653036 2.46186 0
M  V30 2462 H 234.051 2.32316 2.52753 0
M  V30 2463 N 236.496 -1.42363 0.676048 0
M  V30 2464 C 237.907 -1.84649 0.275948 0
M  V30 2465 C 238.258 -1.56588 -1.18214 0
M  V30 2466 O 237.383 -1.02634 -1.90513 0
M  V30 2467 C 237.978 -3.35178 0.494053 0
M  V30 2468 C 236.537 -3.76109 0.148061 0
M  V30 2469 C 235.684 -2.65931 0.785891 0
M  V30 2470 H 238.635 -1.32192 0.878121 0
M  V30 2471 H 238.656 -3.79655 -0.25343 0
M  V30 2472 H 238.168 -3.55571 1.55535 0
M  V30 2473 H 236.269 -3.61323 -0.909742 0
M  V30 2474 H 236.382 -4.7546 0.589454 0
M  V30 2475 H 234.746 -2.53773 0.217113 0
M  V30 2476 H 235.529 -2.89146 1.85067 0
M  V30 2477 N 237.974 -0.419461 -1.51915 0
M  V30 2478 C 238.884 0.407528 -2.31033 0
M  V30 2479 C 239.9 1.04413 -1.3919 0
M  V30 2480 O 241.076 1.0434 -1.72265 0
M  V30 2481 C 238.141 1.50365 -3.12396 0
M  V30 2482 C 237.202 0.889029 -4.19994 0
M  V30 2483 C 236.435 1.93291 -4.97468 0
M  V30 2484 O 236.658 3.15259 -4.75361 0
M  V30 2485 O 235.592 1.53339 -5.8204 0
M  V30 2486 H 239.418 -0.237865 -3.02767 0
M  V30 2487 H 237.003 -0.182413 -1.48282 0
M  V30 2488 H 238.885 2.13975 -3.63032 0
M  V30 2489 H 237.56 2.13345 -2.43445 0
M  V30 2490 H 236.467 0.215353 -3.7348 0
M  V30 2491 H 237.8 0.302991 -4.91267 0
M  V30 2492 N 239.452 1.56882 -0.150215 0
M  V30 2493 C 240.362 2.20494 0.801222 0
M  V30 2494 C 241.378 1.19019 1.26927 0
M  V30 2495 O 242.554 1.51607 1.32579 0
M  V30 2496 C 239.619 2.81659 2.02161 0
M  V30 2497 C 238.68 3.9827 1.60249 0
M  V30 2498 C 237.913 4.56508 2.7647 0
M  V30 2499 O 238.136 4.13627 3.92771 0
M  V30 2500 O 237.07 5.46719 2.51757 0
M  V30 2501 H 240.896 3.02315 0.289717 0
M  V30 2502 H 238.481 1.49202 0.0769684 0
M  V30 2503 H 240.363 3.20522 2.73576 0
M  V30 2504 H 239.038 2.02849 2.52258 0
M  V30 2505 H 237.945 3.64117 0.858477 0
M  V30 2506 H 239.278 4.78609 1.14864 0
M  V30 2507 N 240.93 -0.123565 1.57115 0
M  V30 2508 C 241.86 -1.15309 2.03042 0
M  V30 2509 C 242.841 -1.43454 0.914061 0
M  V30 2510 O 244.026 -1.53973 1.18347 0
M  V30 2511 C 241.156 -2.48043 2.43089 0
M  V30 2512 C 240.11 -2.3437 3.58127 0
M  V30 2513 C 239.436 -3.72026 3.84059 0
M  V30 2514 C 240.736 -1.80804 4.90007 0
M  V30 2515 H 242.43 -0.771102 2.893 0
M  V30 2516 H 239.976 -0.369479 1.39179 0
M  V30 2517 H 241.929 -3.20311 2.73823 0
M  V30 2518 H 240.653 -2.88122 1.53796 0
M  V30 2519 H 239.312 -1.64551 3.27595 0
M  V30 2520 H 238.96 -4.09582 2.91979 0
M  V30 2521 H 238.66 -3.63732 4.6149 0
M  V30 2522 H 240.184 -4.45806 4.1724 0
M  V30 2523 H 241.598 -2.42886 5.19307 0
M  V30 2524 H 239.995 -1.83343 5.71407 0
M  V30 2525 H 241.065 -0.76528 4.78823 0
M  V30 2526 N 242.408 -1.52605 -0.393616 0
M  V30 2527 C 243.355 -1.77055 -1.48054 0
M  V30 2528 C 244.325 -0.61358 -1.54352 0
M  V30 2529 O 245.51 -0.852806 -1.70681 0
M  V30 2530 C 242.65 -1.94108 -2.85335 0
M  V30 2531 C 241.763 -3.21792 -2.88226 0
M  V30 2532 C 240.898 -3.29188 -4.16904 0
M  V30 2533 C 239.937 -4.51013 -4.13828 0
M  V30 2534 N 239.074 -4.55716 -5.34105 0
M  V30 2535 H 243.914 -2.69815 -1.26506 0
M  V30 2536 H 241.451 -1.33683 -0.61379 0
M  V30 2537 H 243.409 -2.01979 -3.65049 0
M  V30 2538 H 242.039 -1.04713 -3.05344 0
M  V30 2539 H 241.091 -3.23015 -2.00911 0
M  V30 2540 H 242.403 -4.11557 -2.8182 0
M  V30 2541 H 241.557 -3.36216 -5.05018 0
M  V30 2542 H 240.296 -2.37389 -4.26026 0
M  V30 2543 H 239.301 -4.44115 -3.24102 0
M  V30 2544 H 240.526 -5.44123 -4.06333 0
M  V30 2545 H 238.472 -3.66807 -5.43865 0
M  V30 2546 H 238.389 -5.39346 -5.29756 0
M  V30 2547 H 239.657 -4.66993 -6.2413 0
M  V30 2548 N 243.887 0.651787 -1.4349 0
M  V30 2549 C 245.134 1.41167 -1.45183 0
M  V30 2550 C 245.462 1.94349 -0.0766601 0
M  V30 2551 O 244.717 1.72804 0.918555 0
M  V30 2552 C 245.016 2.60914 -2.44251 0
M  V30 2553 C 244.682 2.26142 -3.9009 0
M  V30 2554 C 243.344 2.16371 -4.2981 0
M  V30 2555 C 245.696 1.98334 -4.81989 0
M  V30 2556 C 243.024 1.7695 -5.5938 0
M  V30 2557 C 245.376 1.6041 -6.11924 0
M  V30 2558 C 244.04 1.49166 -6.5062 0
M  V30 2559 H 243.31 0.516566 -0.531263 0
M  V30 2560 H 245.957 0.741099 -1.76579 0
M  V30 2561 H 244.262 3.3311 -2.06265 0
M  V30 2562 H 245.959 3.19127 -2.42815 0
M  V30 2563 H 242.549 2.34658 -3.58655 0
M  V30 2564 H 246.733 2.04803 -4.52072 0
M  V30 2565 H 241.989 1.66831 -5.88198 0
M  V30 2566 H 246.163 1.37925 -6.82605 0
M  V30 2567 H 243.79 1.1839 -7.50925 0
M  V30 2568 N 245.365 1.30045 0.890287 0
M  V30 2569 C 246.297 1.11786 2.00091 0
M  V30 2570 C 247.31 0.0626307 1.62679 0
M  V30 2571 O 248.499 0.308112 1.75821 0
M  V30 2572 C 245.599 0.681527 3.31977 0
M  V30 2573 C 244.772 1.81735 3.97858 0
M  V30 2574 C 243.831 1.37045 5.08041 0
M  V30 2575 O 242.857 2.07677 5.29961 0
M  V30 2576 N 244.059 0.246525 5.79976 0
M  V30 2577 H 246.824 2.07441 2.16306 0
M  V30 2578 H 244.385 1.2211 1.06305 0
M  V30 2579 H 246.377 0.365675 4.03045 0
M  V30 2580 H 244.947 -0.182828 3.12065 0
M  V30 2581 H 244.167 2.30159 3.20032 0
M  V30 2582 H 245.455 2.57865 4.38615 0
M  V30 2583 H 244.853 -0.34215 5.64664 0
M  V30 2584 H 243.41 -0.00990438 6.51799 0
M  V30 2585 N 246.843 -1.10192 1.12674 0
M  V30 2586 C 248.083 -1.83825 0.893736 0
M  V30 2587 C 248.447 -1.83341 -0.570082 0
M  V30 2588 O 249.648 -2.52553 -0.920354 0
M  V30 2589 C 247.919 -3.26405 1.45582 0
M  V30 2590 S 249.478 -4.17136 1.36171 0
M  V30 2591 H 246.296 -0.633732 0.322342 0
M  V30 2592 H 248.898 -1.32581 1.43675 0
M  V30 2593 H 247.602 -3.24329 2.51473 0
M  V30 2594 H 247.133 -3.82721 0.910405 0
M  V30 2595 H 249.148 -4.95069 0.334863 0
M  V30 2596 N 248.321 -0.919034 -1.28029 0
M  V30 2597 C 249.569 -0.553838 -1.94363 0
M  V30 2598 C 249.89 0.906357 -1.72656 0
M  V30 2599 O 249.16 1.64143 -1.0693 0
M  V30 2600 H 247.74 -0.201834 -0.719216 0
M  V30 2601 H 250.402 -1.16954 -1.55909 0
M  V30 2602 H 249.498 -0.752758 -3.02886 0
M  V30 2603 N 249.799 1.42003 -0.683588 0
M  V30 2604 C 250.731 2.29183 0.0283068 0
M  V30 2605 C 251.744 1.4415 0.756611 0
M  V30 2606 O 252.933 1.67779 0.609306 0
M  V30 2607 C 250.033 3.21765 1.06398 0
M  V30 2608 C 249.206 4.35496 0.407723 0
M  V30 2609 C 248.265 5.08737 1.34437 0
M  V30 2610 O 247.291 5.62948 0.841318 0
M  V30 2611 N 248.493 5.15075 2.67728 0
M  V30 2612 H 251.258 2.9092 -0.720105 0
M  V30 2613 H 248.819 1.53025 -0.528682 0
M  V30 2614 H 250.811 3.6763 1.69204 0
M  V30 2615 H 249.381 2.61418 1.71404 0
M  V30 2616 H 248.601 3.92165 -0.400012 0
M  V30 2617 H 249.889 5.08776 -0.0490956 0
M  V30 2618 H 249.287 4.72457 3.11129 0
M  V30 2619 H 247.844 5.64556 3.2576 0
M  V30 2620 N 251.277 0.427512 1.51691 0
M  V30 2621 C 252.224 -0.388867 2.275 0
M  V30 2622 C 253.194 -1.02532 1.30677 0
M  V30 2623 O 254.379 -1.0461 1.59566 0
M  V30 2624 C 251.519 -1.48954 3.11298 0
M  V30 2625 C 250.632 -0.872194 4.23104 0
M  V30 2626 C 249.767 -1.94709 4.94228 0
M  V30 2627 C 248.806 -1.30766 5.97969 0
M  V30 2628 N 247.943 -2.32349 6.62539 0
M  V30 2629 H 252.783 0.263997 2.96828 0
M  V30 2630 H 250.32 0.142033 1.46413 0
M  V30 2631 H 252.278 -2.13887 3.58201 0
M  V30 2632 H 250.908 -2.11217 2.44105 0
M  V30 2633 H 249.96 -0.111419 3.80237 0
M  V30 2634 H 251.272 -0.365264 4.97461 0
M  V30 2635 H 250.426 -2.67327 5.44629 0
M  V30 2636 H 249.165 -2.48773 4.1948 0
M  V30 2637 H 248.17 -0.566902 5.4687 0
M  V30 2638 H 249.395 -0.774483 6.74669 0
M  V30 2639 H 247.341 -2.85511 5.90609 0
M  V30 2640 H 247.258 -1.8652 7.3263 0
M  V30 2641 H 248.526 -3.04481 7.17574 0
M  V30 2642 N 252.755 -1.56801 0.158532 0
M  V30 2643 C 253.983 -2.00859 -0.496303 0
M  V30 2644 C 254.398 -1.03871 -1.57659 0
M  V30 2645 O 253.755 -0.0375165 -1.82461 0
M  V30 2646 C 253.806 -3.4479 -1.08638 0
M  V30 2647 O 253.527 -4.38072 -0.0492322 0
M  V30 2648 C 255.028 -4.04185 -1.8207 0
M  V30 2649 H 252.248 -0.65864 -0.128199 0
M  V30 2650 H 254.792 -2.02885 0.256506 0
M  V30 2651 H 252.947 -3.43579 -1.78975 0
M  V30 2652 H 253.361 -5.2227 -0.483102 0
M  V30 2653 H 254.835 -5.06857 -2.18633 0
M  V30 2654 H 255.312 -3.45549 -2.71095 0
M  V30 2655 H 255.918 -4.0906 -1.16405 0
M  V30 2656 N 254.233 0.115231 -1.57178 0
M  V30 2657 C 255.163 1.1423 -2.03651 0
M  V30 2658 C 256.144 1.42967 -0.921655 0
M  V30 2659 O 257.329 1.53343 -1.19162 0
M  V30 2660 C 254.459 2.4675 -2.44401 0
M  V30 2661 C 253.413 2.32467 -3.59365 0
M  V30 2662 C 252.739 3.69984 -3.86026 0
M  V30 2663 C 254.039 1.78203 -4.90959 0
M  V30 2664 H 255.733 0.755749 -2.89705 0
M  V30 2665 H 253.279 0.362093 -1.39373 0
M  V30 2666 H 255.232 3.18854 -2.75517 0
M  V30 2667 H 253.956 2.87302 -1.55322 0
M  V30 2668 H 252.615 1.62811 -3.28463 0
M  V30 2669 H 252.263 4.08028 -2.94147 0
M  V30 2670 H 251.963 3.61279 -4.63412 0
M  V30 2671 H 253.487 4.43587 -4.19599 0
M  V30 2672 H 254.901 2.40128 -5.20587 0
M  V30 2673 H 253.298 1.8031 -5.72371 0
M  V30 2674 H 254.368 0.739876 -4.79222 0
M  V30 2675 N 255.711 1.52812 0.385517 0
M  V30 2676 C 257.127 1.4214 0.725829 0
M  V30 2677 C 257.327 0.544589 1.94001 0
M  V30 2678 O 256.383 0.0193693 2.52493 0
M  V30 2679 C 257.696 2.85042 0.957668 0
M  V30 2680 C 259.244 2.94543 1.05892 0
M  V30 2681 C 259.719 4.38464 1.32337 0
M  V30 2682 N 261.21 4.41804 1.39151 0
M  V30 2683 C 261.945 5.5025 1.61285 0
M  V30 2684 N 261.441 6.68775 1.80866 0
M  V30 2685 N 263.234 5.37798 1.63492 0
M  V30 2686 H 255.385 2.08338 -0.413383 0
M  V30 2687 H 257.648 0.940016 -0.122775 0
M  V30 2688 H 257.354 3.51431 0.137568 0
M  V30 2689 H 257.228 3.27505 1.87137 0
M  V30 2690 H 259.615 2.28321 1.86959 0
M  V30 2691 H 259.696 2.55504 0.123057 0
M  V30 2692 H 259.34 5.05254 0.517793 0
M  V30 2693 H 259.27 4.75059 2.27214 0
M  V30 2694 H 261.761 3.56377 1.25713 0
M  V30 2695 H 262.074 7.47197 1.97271 0
M  V30 2696 H 260.419 6.71797 1.78083 0
M  V30 2697 H 263.61 4.44171 1.47749 0
M  V30 2698 H 263.783 6.22382 1.80402 0
M  V30 2699 N 257.189 -0.644168 1.43834 0
M  V30 2700 C 258.6 -1.22554 1.40845 0
M  V30 2701 C 258.951 -1.9585 0.117115 0
M  V30 2702 O 258.076 -2.01734 -0.783086 0
M  V30 2703 C 258.671 -2.22907 2.55143 0
M  V30 2704 C 257.23 -2.76501 2.5539 0
M  V30 2705 C 256.377 -1.51287 2.32396 0
M  V30 2706 H 259.328 -0.43563 1.52604 0
M  V30 2707 H 259.349 -3.05259 2.2715 0
M  V30 2708 H 258.861 -1.69533 3.49114 0
M  V30 2709 H 256.962 -3.33914 1.65324 0
M  V30 2710 H 257.075 -3.23429 3.53455 0
M  V30 2711 H 255.439 -1.78957 1.81236 0
M  V30 2712 H 256.222 -0.998336 3.28463 0
M  V30 2713 N 258.668 -1.30515 -0.883378 0
M  V30 2714 C 260.084 -1.08881 -1.16692 0
M  V30 2715 C 260.284 0.149409 -2.00945 0
M  V30 2716 O 259.34 0.84257 -2.38027 0
M  V30 2717 C 260.653 -2.35319 -1.87204 0
M  V30 2718 C 262.201 -2.40799 -1.99962 0
M  V30 2719 C 262.676 -3.67083 -2.73887 0
M  V30 2720 N 264.167 -3.679 -2.81432 0
M  V30 2721 C 264.902 -4.62303 -3.3921 0
M  V30 2722 N 264.398 -5.67052 -3.98025 0
M  V30 2723 N 266.191 -4.49845 -3.3704 0
M  V30 2724 H 258.342 -2.09951 -0.321633 0
M  V30 2725 H 260.605 -0.92556 -0.205043 0
M  V30 2726 H 260.311 -3.25689 -1.3274 0
M  V30 2727 H 260.185 -2.44089 -2.87577 0
M  V30 2728 H 262.572 -1.50907 -2.53597 0
M  V30 2729 H 262.653 -2.36003 -0.98673 0
M  V30 2730 H 262.297 -4.57334 -2.20925 0
M  V30 2731 H 262.227 -3.69141 -3.75556 0
M  V30 2732 H 264.718 -2.92171 -2.39676 0
M  V30 2733 H 265.031 -6.35184 -4.40183 0
M  V30 2734 H 263.376 -5.70842 -3.96439 0
M  V30 2735 H 266.567 -3.67194 -2.90321 0
M  V30 2736 H 266.74 -5.23597 -3.81772 0
M  V30 2737 N 260.146 1.09593 -1.13257 0
M  V30 2738 C 261.393 1.81734 -0.893257 0
M  V30 2739 C 261.721 1.8563 0.580656 0
M  V30 2740 O 260.976 1.31906 1.44566 0
M  V30 2741 C 261.275 3.27802 -1.42411 0
M  V30 2742 C 260.941 3.44041 -2.91456 0
M  V30 2743 C 259.603 3.48181 -3.3215 0
M  V30 2744 C 261.955 3.48719 -3.87356 0
M  V30 2745 C 259.283 3.54575 -4.67433 0
M  V30 2746 C 261.635 3.56648 -5.2248 0
M  V30 2747 C 260.299 3.59055 -5.62704 0
M  V30 2748 H 259.569 0.665011 -0.326866 0
M  V30 2749 H 262.216 1.2912 -1.41422 0
M  V30 2750 H 260.521 3.83042 -0.823795 0
M  V30 2751 H 262.218 3.82149 -1.21503 0
M  V30 2752 H 258.808 3.41502 -2.58987 0
M  V30 2753 H 262.992 3.44763 -3.57004 0
M  V30 2754 H 258.248 3.54725 -4.97976 0
M  V30 2755 H 262.422 3.59212 -5.96607 0
M  V30 2756 H 260.049 3.63763 -6.67518 0
M  V30 2757 N 261.624 0.925811 1.2754 0
M  V30 2758 C 262.571 0.422045 2.26908 0
M  V30 2759 C 263.541 -0.510029 1.58076 0
M  V30 2760 O 264.726 -0.429599 1.85901 0
M  V30 2761 C 261.866 -0.320837 3.43605 0
M  V30 2762 C 260.979 0.64513 4.27156 0
M  V30 2763 C 260.114 -0.117405 5.3107 0
M  V30 2764 C 259.153 0.841391 6.0629 0
M  V30 2765 N 258.29 0.111604 7.02011 0
M  V30 2766 H 263.13 1.27441 2.69375 0
M  V30 2767 H 260.667 0.639697 1.32462 0
M  V30 2768 H 262.625 -0.76785 4.10073 0
M  V30 2769 H 261.255 -1.13745 3.02096 0
M  V30 2770 H 260.307 1.21067 3.6062 0
M  V30 2771 H 261.619 1.37797 4.79389 0
M  V30 2772 H 260.773 -0.624422 6.03478 0
M  V30 2773 H 259.512 -0.883219 4.79636 0
M  V30 2774 H 258.517 1.35967 5.32722 0
M  V30 2775 H 259.742 1.60696 6.59813 0
M  V30 2776 H 257.688 -0.635999 6.5291 0
M  V30 2777 H 257.605 0.784044 7.51923 0
M  V30 2778 H 258.873 -0.374823 7.78598 0
M  V30 2779 N 263.102 -1.41638 0.69111 0
M  V30 2780 C 264.351 -2.00526 0.217318 0
M  V30 2781 C 264.664 -1.55353 -1.18848 0
M  V30 2782 O 265.87 -2.06769 -1.75951 0
M  V30 2783 C 264.326 -3.58313 0.337639 0
M  V30 2784 C 263.934 -4.12469 1.74852 0
M  V30 2785 C 265.678 -4.24431 -0.0766066 0
M  V30 2786 C 263.585 -5.62675 1.82074 0
M  V30 2787 H 262.515 -0.750008 0.0774893 0
M  V30 2788 H 265.166 -1.6217 0.858661 0
M  V30 2789 H 263.548 -3.9425 -0.371879 0
M  V30 2790 H 264.722 -3.8796 2.48644 0
M  V30 2791 H 263.037 -3.58861 2.11205 0
M  V30 2792 H 265.634 -5.34683 -0.0430284 0
M  V30 2793 H 265.977 -4.01101 -1.1146 0
M  V30 2794 H 266.51 -3.93512 0.582476 0
M  V30 2795 H 263.249 -5.90826 2.83911 0
M  V30 2796 H 262.769 -5.89124 1.12661 0
M  V30 2797 H 264.448 -6.27371 1.58159 0
M  V30 2798 N 264.58 -0.43555 -1.51462 0
M  V30 2799 C 265.829 0.133007 -2.01261 0
M  V30 2800 C 266.142 1.43942 -1.32439 0
M  V30 2801 O 267.348 2.09081 -1.73198 0
M  V30 2802 C 265.804 0.287581 -3.58749 0
M  V30 2803 C 265.412 -1.00829 -4.36506 0
M  V30 2804 C 267.156 0.810004 -4.167 0
M  V30 2805 C 265.063 -0.819454 -5.85695 0
M  V30 2806 H 263.993 0.0534822 -0.752101 0
M  V30 2807 H 266.644 -0.565038 -1.74584 0
M  V30 2808 H 265.026 1.04859 -3.81865 0
M  V30 2809 H 266.2 -1.77749 -4.25138 0
M  V30 2810 H 264.515 -1.45911 -3.89999 0
M  V30 2811 H 267.112 0.967743 -5.2587 0
M  V30 2812 H 267.455 1.79196 -3.75758 0
M  V30 2813 H 267.988 0.107357 -3.97655 0
M  V30 2814 H 264.727 -1.77374 -6.31046 0
M  V30 2815 H 264.247 -0.0900208 -5.99732 0
M  V30 2816 H 265.926 -0.471949 -6.45276 0
M  V30 2817 N 266.058 1.56714 -0.166846 0
M  V30 2818 C 267.306 1.96358 0.478305 0
M  V30 2819 C 267.627 1.0537 1.6408 0
M  V30 2820 O 266.897 0.119154 1.95537 0
M  V30 2821 H 265.477 0.725065 0.179692 0
M  V30 2822 H 268.139 1.93329 -0.246985 0
M  V30 2823 H 267.235 3.00547 0.841292 0
M  V30 2824 N 267.536 -0.106894 1.57237 0
M  V30 2825 C 268.784 -0.810921 1.85117 0
M  V30 2826 C 269.105 -1.7984 0.753827 0
M  V30 2827 O 268.375 -1.94649 -0.221056 0
M  V30 2828 H 266.955 -0.302466 0.683025 0
M  V30 2829 H 269.617 -0.0913324 1.94686 0
M  V30 2830 H 268.713 -1.34875 2.81452 0
M  V30 2831 N 269.014 -1.53014 -0.377408 0
M  V30 2832 C 269.924 -1.81557 -1.48574 0
M  V30 2833 C 270.94 -0.703102 -1.59162 0
M  V30 2834 O 272.116 -0.99192 -1.75279 0
M  V30 2835 C 269.181 -1.9889 -2.83978 0
M  V30 2836 C 268.242 -3.22801 -2.83016 0
M  V30 2837 C 267.475 -3.39298 -4.11962 0
M  V30 2838 O 267.698 -2.60345 -5.0752 0
M  V30 2839 O 266.632 -4.32604 -4.18494 0
M  V30 2840 H 270.458 -2.75695 -1.27382 0
M  V30 2841 H 268.043 -1.38248 -0.566373 0
M  V30 2842 H 269.925 -2.11931 -3.6423 0
M  V30 2843 H 268.6 -1.07942 -3.05172 0
M  V30 2844 H 267.507 -3.15193 -2.01505 0
M  V30 2845 H 268.84 -4.13632 -2.66775 0
M  V30 2846 N 270.492 0.636531 -1.44174 0
M  V30 2847 C 271.739 1.39619 -1.46672 0
M  V30 2848 C 272.067 1.94257 -0.0972691 0
M  V30 2849 O 271.322 1.73768 0.900175 0
M  V30 2850 C 271.621 2.58309 -2.47005 0
M  V30 2851 C 271.287 2.21992 -3.92467 0
M  V30 2852 C 269.949 2.118 -4.32081 0
M  V30 2853 C 272.301 1.9321 -4.84065 0
M  V30 2854 C 269.629 1.71007 -5.61225 0
M  V30 2855 C 271.981 1.53911 -6.13591 0
M  V30 2856 C 270.645 1.42257 -6.52165 0
M  V30 2857 H 269.915 0.510902 -0.536712 0
M  V30 2858 H 272.562 0.722328 -1.77355 0
M  V30 2859 H 270.867 3.30903 -2.09786 0
M  V30 2860 H 272.564 3.16533 -2.46186 0
M  V30 2861 H 269.154 2.30841 -3.61124 0
M  V30 2862 H 273.338 1.99997 -4.54219 0
M  V30 2863 H 268.594 1.60583 -5.89935 0
M  V30 2864 H 272.768 1.30677 -6.8403 0
M  V30 2865 H 270.395 1.10419 -7.52138 0
M  V30 2866 N 271.97 1.30982 0.876444 0
M  V30 2867 C 273.198 1.23242 1.6619 0
M  V30 2868 C 273.613 -0.203345 1.87702 0
M  V30 2869 O 272.97 -1.13317 1.43057 0
M  V30 2870 C 273.021 1.96623 3.03351 0
M  V30 2871 O 272.742 3.34594 2.82804 0
M  V30 2872 C 274.243 1.95644 3.97792 0
M  V30 2873 H 271.463 0.426126 0.518322 0
M  V30 2874 H 274.007 1.7275 1.09442 0
M  V30 2875 H 272.162 1.50892 3.56806 0
M  V30 2876 H 272.576 3.71873 3.69879 0
M  V30 2877 H 274.05 2.51511 4.91372 0
M  V30 2878 H 274.527 0.937395 4.2908 0
M  V30 2879 H 275.133 2.41225 3.50272 0
M  V30 2880 N 273.449 -1.08991 1.13837 0
M  V30 2881 C 274.677 -1.85011 0.926202 0
M  V30 2882 C 275.092 -1.8135 -0.525127 0
M  V30 2883 O 274.449 -1.21287 -1.36366 0
M  V30 2884 C 274.5 -3.32802 1.41155 0
M  V30 2885 O 274.221 -3.36444 2.80601 0
M  V30 2886 C 275.722 -4.25649 1.23847 0
M  V30 2887 H 272.942 -0.584249 0.32999 0
M  V30 2888 H 275.486 -1.37688 1.51202 0
M  V30 2889 H 273.641 -3.77536 0.868631 0
M  V30 2890 H 274.055 -4.28657 3.02248 0
M  V30 2891 H 275.529 -5.27485 1.62675 0
M  V30 2892 H 276.006 -4.38828 0.18065 0
M  V30 2893 H 276.612 -3.86735 1.76964 0
M  V30 2894 N 274.927 -0.932562 -1.27047 0
M  V30 2895 C 276.176 -0.571351 -1.93439 0
M  V30 2896 C 276.489 0.892467 -1.74053 0
M  V30 2897 O 277.695 1.36267 -2.34826 0
M  V30 2898 C 276.151 -0.97106 -3.46552 0
M  V30 2899 C 275.759 -2.4559 -3.74686 0
M  V30 2900 C 277.503 -0.681333 -4.18997 0
M  V30 2901 C 275.41 -2.79475 -5.21198 0
M  V30 2902 H 274.34 -0.209966 -0.724176 0
M  V30 2903 H 276.991 -1.13403 -1.44263 0
M  V30 2904 H 275.373 -0.336983 -3.94564 0
M  V30 2905 H 276.547 -3.13829 -3.37414 0
M  V30 2906 H 274.862 -2.71802 -3.15456 0
M  V30 2907 H 277.459 -0.910939 -5.26883 0
M  V30 2908 H 277.802 0.381628 -4.14547 0
M  V30 2909 H 278.335 -1.27473 -3.76823 0
M  V30 2910 H 275.074 -3.847 -5.30741 0
M  V30 2911 H 274.594 -2.1589 -5.596 0
M  V30 2912 H 276.273 -2.67478 -5.89122 0
M  V30 2913 N 276.405 1.4127 -0.698611 0
M  V30 2914 C 277.315 2.34573 -0.0357891 0
M  V30 2915 C 278.331 1.56393 0.762701 0
M  V30 2916 O 279.507 1.8886 0.699564 0
M  V30 2917 C 276.572 3.35159 0.887089 0
M  V30 2918 C 275.633 4.29225 0.0804634 0
M  V30 2919 C 274.866 5.25006 0.959387 0
M  V30 2920 O 275.089 5.26314 2.19886 0
M  V30 2921 O 274.023 6.00519 0.407439 0
M  V30 2922 H 277.849 2.92838 -0.804957 0
M  V30 2923 H 275.434 1.42175 -0.458966 0
M  V30 2924 H 277.316 3.9689 1.41621 0
M  V30 2925 H 275.991 2.79333 1.6357 0
M  V30 2926 H 274.898 3.70833 -0.493328 0
M  V30 2927 H 276.231 4.88157 -0.629547 0
M  V30 2928 N 277.883 0.443576 1.51229 0
M  V30 2929 C 278.831 -0.37904 2.29491 0
M  V30 2930 C 279.825 -1.0153 1.35603 0
M  V30 2931 O 281.031 -0.94955 1.52917 0
M  V30 2932 H 277.406 -0.141053 0.738653 0
M  V30 2933 H 279.377 0.301799 2.9687 0
M  V30 2934 C 278.126 -1.46426 3.15364 0
M  V30 2935 H 277.449 -0.984037 3.87501 0
M  V30 2936 H 278.889 -2.01297 3.7317 0
M  V30 2937 C 277.348 -2.45099 2.31146 0
M  V30 2938 O 277.878 -3.49773 1.9754 0
M  V30 2939 N 276.084 -2.16139 1.94249 0
M  V30 2940 H 275.631 -1.31044 2.21777 0
M  V30 2941 H 275.589 -2.82398 1.38198 0
M  V30 2942 N 279.361 -1.56624 0.175154 0
M  V30 2943 C 280.293 -2.15333 -0.785128 0
M  V30 2944 C 281.306 -1.1099 -1.19101 0
M  V30 2945 O 282.495 -1.38162 -1.13019 0
M  V30 2946 C 279.595 -2.68427 -2.06882 0
M  V30 2947 C 278.768 -3.97466 -1.8259 0
M  V30 2948 C 277.827 -4.35585 -2.95215 0
M  V30 2949 O 276.853 -5.03389 -2.65684 0
M  V30 2950 N 278.055 -3.97457 -4.23094 0
M  V30 2951 H 280.82 -2.98359 -0.283187 0
M  V30 2952 H 278.381 -1.61898 -0.00749817 0
M  V30 2953 H 280.373 -2.90924 -2.81328 0
M  V30 2954 H 278.943 -1.89968 -2.48256 0
M  V30 2955 H 278.163 -3.83307 -0.920287 0
M  V30 2956 H 279.451 -4.81736 -1.63733 0
M  V30 2957 H 278.849 -3.42878 -4.49945 0
M  V30 2958 H 277.406 -4.24947 -4.9423 0
M  V30 2959 N 280.839 0.0985539 -1.57292 0
M  V30 2960 C 282.25 0.653457 -1.74891 0
M  V30 2961 C 282.601 1.7929 -0.796838 0
M  V30 2962 O 281.726 2.16385 0.0254886 0
M  V30 2963 C 282.321 1.19216 -3.17133 0
M  V30 2964 C 280.88 1.69316 -3.36168 0
M  V30 2965 C 280.027 0.601294 -2.70702 0
M  V30 2966 H 282.978 -0.127497 -1.58187 0
M  V30 2967 H 282.999 2.06154 -3.19814 0
M  V30 2968 H 282.511 0.362635 -3.86402 0
M  V30 2969 H 280.612 2.5468 -2.71972 0
M  V30 2970 H 280.725 1.78853 -4.44464 0
M  V30 2971 H 279.089 1.0399 -2.32504 0
M  V30 2972 H 279.872 -0.217592 -3.4261 0
M  V30 2973 N 282.317 1.53212 0.369288 0
M  V30 2974 C 283.563 1.70413 1.11046 0
M  V30 2975 C 283.918 0.448509 1.87099 0
M  V30 2976 O 283.211 -0.558382 1.83283 0
M  V30 2977 C 283.405 2.89101 2.10132 0
M  V30 2978 C 283.234 4.26084 1.43814 0
M  V30 2979 C 282.004 4.90994 1.19384 0
M  V30 2980 C 284.202 5.06754 0.877802 0
M  V30 2981 N 282.184 6.11911 0.49377 0
M  V30 2982 C 283.555 6.1924 0.306891 0
M  V30 2983 C 285.61 4.91814 0.776129 0
M  V30 2984 C 284.313 7.1842 -0.355774 0
M  V30 2985 C 286.339 5.91263 0.127252 0
M  V30 2986 C 285.701 7.03069 -0.432801 0
M  V30 2987 H 281.8 0.676872 0.391623 0
M  V30 2988 H 284.384 1.90603 0.397334 0
M  V30 2989 H 282.555 2.70456 2.78761 0
M  V30 2990 H 284.287 2.95142 2.76899 0
M  V30 2991 H 281.042 4.50074 1.47413 0
M  V30 2992 H 281.466 6.76813 0.159207 0
M  V30 2993 H 286.108 4.05564 1.19489 0
M  V30 2994 H 283.826 8.04264 -0.786499 0
M  V30 2995 H 287.412 5.81779 0.0495613 0
M  V30 2996 H 286.292 7.78702 -0.926958 0
M  V30 2997 N 283.795 -0.628877 1.44509 0
M  V30 2998 C 285.042 -1.38839 1.47411 0
M  V30 2999 C 285.37 -1.94202 0.10757 0
M  V30 3000 O 284.625 -1.74243 -0.890947 0
M  V30 3001 C 284.924 -2.56995 2.48371 0
M  V30 3002 C 284.59 -2.19908 3.93639 0
M  V30 3003 C 283.252 -2.09506 4.33198 0
M  V30 3004 C 285.604 -1.9064 4.85083 0
M  V30 3005 C 282.932 -1.68028 5.62124 0
M  V30 3006 C 285.284 -1.50655 6.14399 0
M  V30 3007 C 283.948 -1.38796 6.5291 0
M  V30 3008 H 283.218 -0.508048 0.539414 0
M  V30 3009 H 285.865 -0.712913 1.77735 0
M  V30 3010 H 284.17 -3.29786 2.11538 0
M  V30 3011 H 285.867 -3.15223 2.47861 0
M  V30 3012 H 282.457 -2.28922 3.62343 0
M  V30 3013 H 286.641 -1.97585 4.55273 0
M  V30 3014 H 281.897 -1.57452 5.90778 0
M  V30 3015 H 286.071 -1.27048 6.84713 0
M  V30 3016 H 283.698 -1.06429 7.52713 0
M  V30 3017 N 285.273 -1.31445 -0.869486 0
M  V30 3018 C 286.236 -1.19094 -1.9583 0
M  V30 3019 C 287.236 -0.117906 -1.60367 0
M  V30 3020 O 288.426 -0.367208 -1.70286 0
M  V30 3021 C 285.558 -0.828165 -3.30688 0
M  V30 3022 H 286.751 -2.15842 -2.08212 0
M  V30 3023 H 284.304 -1.15063 -1.05784 0
M  V30 3024 H 285.039 0.138142 -3.24006 0
M  V30 3025 H 284.824 -1.6038 -3.578 0
M  V30 3026 H 286.314 -0.765658 -4.10521 0
M  V30 3027 N 286.751 1.08385 -1.14413 0
M  V30 3028 C 287.714 2.13486 -0.834048 0
M  V30 3029 C 288.714 1.59988 0.161418 0
M  V30 3030 O 289.904 1.74071 -0.0669575 0
M  V30 3031 C 287.036 3.4003 -0.243354 0
M  V30 3032 H 288.229 2.42425 -1.7655 0
M  V30 3033 H 285.782 1.24101 -0.950189 0
M  V30 3034 H 286.517 3.16726 0.696807 0
M  V30 3035 H 286.302 3.80157 -0.960367 0
M  V30 3036 H 287.792 4.17577 -0.0436242 0
M  V30 3037 N 288.23 0.939286 1.26551 0
M  V30 3038 C 289.479 0.581601 1.93133 0
M  V30 3039 C 289.792 -0.883224 1.74524 0
M  V30 3040 O 290.998 -1.3502 2.35546 0
M  V30 3041 C 289.454 0.989425 3.46032 0
M  V30 3042 C 289.062 2.47573 3.73379 0
M  V30 3043 C 290.806 0.703544 4.18629 0
M  V30 3044 C 288.713 2.82235 5.19709 0
M  V30 3045 H 287.643 0.213803 0.723052 0
M  V30 3046 H 290.294 1.14167 1.4366 0
M  V30 3047 H 288.676 0.357902 3.94379 0
M  V30 3048 H 289.85 3.15614 3.35744 0
M  V30 3049 H 288.165 2.73471 3.1401 0
M  V30 3050 H 290.762 0.938869 5.26393 0
M  V30 3051 H 291.105 -0.359639 4.14744 0
M  V30 3052 H 291.638 1.2947 3.76141 0
M  V30 3053 H 288.377 3.87509 5.28694 0
M  V30 3054 H 287.897 2.18854 5.58447 0
M  V30 3055 H 289.576 2.70599 5.87695 0
M  V30 3056 N 289.708 -1.40897 0.706093 0
M  V30 3057 C 290.938 -2.05075 0.250523 0
M  V30 3058 C 291.346 -1.53275 -1.10921 0
M  V30 3059 O 290.689 -0.680281 -1.7064 0
M  V30 3060 C 290.751 -3.59219 0.142178 0
M  V30 3061 C 290.415 -4.33864 1.43566 0
M  V30 3062 C 291.412 -4.62448 2.37566 0
M  V30 3063 C 289.097 -4.72946 1.69195 0
M  V30 3064 C 291.091 -5.29088 3.5545 0
M  V30 3065 C 288.778 -5.3932 2.87362 0
M  V30 3066 C 289.776 -5.6732 3.80312 0
M  V30 3067 O 289.464 -6.32325 4.96408 0
M  V30 3068 H 289.196 -0.666645 0.112074 0
M  V30 3069 H 291.75 -1.81467 0.962239 0
M  V30 3070 H 289.98 -3.81609 -0.6254 0
M  V30 3071 H 291.669 -4.0495 -0.277584 0
M  V30 3072 H 292.435 -4.32727 2.19027 0
M  V30 3073 H 288.314 -4.50527 0.977042 0
M  V30 3074 H 291.858 -5.50859 4.28018 0
M  V30 3075 H 287.755 -5.68461 3.05814 0
M  V30 3076 H 288.523 -6.50821 4.9636 0
M  V30 3077 N 291.186 -0.45159 -1.50991 0
M  V30 3078 C 292.602 -0.104647 -1.59257 0
M  V30 3079 C 292.802 1.38728 -1.4614 0
M  V30 3080 O 291.858 2.15866 -1.30989 0
M  V30 3081 C 293.171 -0.637468 -2.93865 0
M  V30 3082 C 294.719 -0.599166 -3.07212 0
M  V30 3083 C 295.194 -1.1092 -4.44366 0
M  V30 3084 N 296.685 -1.06778 -4.50725 0
M  V30 3085 C 297.42 -1.43314 -5.55201 0
M  V30 3086 N 296.916 -1.87204 -6.67028 0
M  V30 3087 N 298.709 -1.3504 -5.45638 0
M  V30 3088 H 290.86 -1.42214 -1.57762 0
M  V30 3089 H 293.123 -0.586921 -0.744465 0
M  V30 3090 H 292.829 -1.68187 -3.08879 0
M  V30 3091 H 292.703 -0.0702139 -3.77135 0
M  V30 3092 H 295.09 0.436277 -2.91857 0
M  V30 3093 H 295.171 -1.20299 -2.25747 0
M  V30 3094 H 294.815 -2.14318 -4.60467 0
M  V30 3095 H 294.745 -0.481773 -5.24392 0
M  V30 3096 H 297.236 -0.745643 -3.70471 0
M  V30 3097 H 297.549 -2.13282 -7.42786 0
M  V30 3098 H 295.894 -1.91142 -6.68199 0
M  V30 3099 H 299.085 -1.00607 -4.57161 0
M  V30 3100 H 299.258 -1.63841 -6.26945 0
M  V30 3101 N 292.664 1.56529 -0.183458 0
M  V30 3102 C 294.08 1.58664 0.172554 0
M  V30 3103 C 294.28 1.19925 1.61926 0
M  V30 3104 O 293.336 0.916534 2.35278 0
M  V30 3105 C 294.649 3.00463 -0.119262 0
M  V30 3106 C 296.197 3.12945 -0.0584396 0
M  V30 3107 C 296.672 4.56857 -0.323408 0
M  V30 3108 N 298.163 4.62403 -0.271612 0
M  V30 3109 C 298.898 5.71626 -0.450639 0
M  V30 3110 N 298.394 6.89362 -0.689384 0
M  V30 3111 N 300.187 5.60775 -0.385701 0
M  V30 3112 H 292.338 1.79994 -1.12765 0
M  V30 3113 H 294.601 0.834808 -0.449222 0
M  V30 3114 H 294.307 3.33326 -1.12192 0
M  V30 3115 H 294.181 3.72659 0.583544 0
M  V30 3116 H 296.568 2.79902 0.934805 0
M  V30 3117 H 296.649 2.4316 -0.794144 0
M  V30 3118 H 296.293 4.9061 -1.31392 0
M  V30 3119 H 296.223 5.24816 0.43305 0
M  V30 3120 H 298.714 3.77785 -0.0932256 0
M  V30 3121 H 299.027 7.68489 -0.815113 0
M  V30 3122 H 297.372 6.91196 -0.726142 0
M  V30 3123 H 300.563 4.67674 -0.199687 0
M  V30 3124 H 300.736 6.4584 -0.528646 0
M  V30 3125 N 294.142 -0.090211 1.57342 0
M  V30 3126 C 295.092 -1.11557 1.98844 0
M  V30 3127 C 296.076 -1.35503 0.867624 0
M  V30 3128 O 297.268 -1.36113 1.13148 0
M  V30 3129 C 294.397 -2.43446 2.42051 0
M  V30 3130 C 293.483 -2.22853 3.60828 0
M  V30 3131 N 293.874 -1.72141 4.75606 0
M  V30 3132 C 292.172 -2.53401 3.67021 0
M  V30 3133 C 292.873 -1.65932 5.57531 0
M  V30 3134 N 291.849 -2.11323 5.00843 0
M  V30 3135 H 295.651 -0.716499 2.85032 0
M  V30 3136 H 293.165 -0.297567 1.59651 0
M  V30 3137 H 295.162 -3.17644 2.70014 0
M  V30 3138 H 293.822 -2.84087 1.57241 0
M  V30 3139 H 294.833 -1.41268 4.98261 0
M  V30 3140 H 291.51 -2.97532 2.92884 0
M  V30 3141 H 292.9 -1.27733 6.59647 0
M  V30 3142 N 295.62 -1.53406 -0.361157 0
M  V30 3143 C 297.036 -1.43277 -0.703124 0
M  V30 3144 C 297.236 -0.575384 -1.9311 0
M  V30 3145 O 296.292 -0.0595362 -2.5243 0
M  V30 3146 C 297.605 -2.8653 -0.9122 0
M  V30 3147 C 299.153 -2.96191 -1.01193 0
M  V30 3148 C 299.628 -4.40514 -1.25345 0
M  V30 3149 N 301.119 -4.43962 -1.32105 0
M  V30 3150 C 301.854 -5.52746 -1.5251 0
M  V30 3151 N 301.35 -6.71567 -1.70203 0
M  V30 3152 N 303.143 -5.40331 -1.54916 0
M  V30 3153 H 295.294 -2.07654 0.446475 0
M  V30 3154 H 297.557 -0.937944 0.137715 0
M  V30 3155 H 297.263 -3.51605 -0.0816414 0
M  V30 3156 H 297.137 -3.30441 -1.81903 0
M  V30 3157 H 299.524 -2.31266 -1.83303 0
M  V30 3158 H 299.605 -2.55667 -0.0823929 0
M  V30 3159 H 299.249 -5.06014 -0.437346 0
M  V30 3160 H 299.179 -4.78614 -2.19627 0
M  V30 3161 H 301.67 -3.58332 -1.20028 0
M  V30 3162 H 301.983 -7.50241 -1.85359 0
M  V30 3163 H 300.328 -6.74545 -1.67373 0
M  V30 3164 H 303.519 -4.46465 -1.40663 0
M  V30 3165 H 303.692 -6.25173 -1.70477 0
M  V30 3166 N 297.098 0.621204 -1.44841 0
M  V30 3167 C 298.346 1.37783 -1.47852 0
M  V30 3168 C 298.667 1.94653 -0.116224 0
M  V30 3169 O 297.937 1.76367 0.852737 0
M  V30 3170 H 296.517 0.511453 -0.544449 0
M  V30 3171 H 299.179 0.730446 -1.80694 0
M  V30 3172 H 298.275 2.20414 -2.20961 0
M  V30 3173 N 298.576 1.31904 0.862503 0
M  V30 3174 C 299.824 1.21776 1.61292 0
M  V30 3175 C 300.145 -0.222413 1.93727 0
M  V30 3176 O 299.415 -1.1451 1.58947 0
M  V30 3177 H 297.995 0.447717 0.597962 0
M  V30 3178 H 300.657 1.65326 1.03215 0
M  V30 3179 H 299.753 1.7948 2.5533 0
M  V30 3180 N 300.054 -1.07777 1.14986 0
M  V30 3181 C 301.279 -1.84558 0.946213 0
M  V30 3182 C 301.704 -1.81323 -0.500362 0
M  V30 3183 O 301.062 -1.20301 -1.35637 0
M  V30 3184 C 301.11 -3.29736 1.45968 0
M  V30 3185 O 300.214 -4.07149 0.65601 0
M  V30 3186 H 299.555 -0.571641 0.33782 0
M  V30 3187 H 302.085 -1.35991 1.52865 0
M  V30 3188 H 302.095 -3.80574 1.47063 0
M  V30 3189 H 300.77 -3.31406 2.51283 0
M  V30 3190 H 299.347 -3.65994 0.714322 0
M  V30 3191 N 301.532 -0.945985 -1.26051 0
M  V30 3192 C 302.778 -0.597002 -1.93814 0
M  V30 3193 C 303.111 0.862484 -1.73997 0
M  V30 3194 O 302.386 1.61769 -1.07986 0
M  V30 3195 C 302.669 -0.945937 -3.47454 0
M  V30 3196 C 302.522 -2.46052 -3.76535 0
M  V30 3197 C 303.841 -0.464785 -4.37639 0
M  V30 3198 H 300.96 -0.218366 -0.703907 0
M  V30 3199 H 303.602 -1.18107 -1.48831 0
M  V30 3200 H 301.752 -0.448902 -3.85898 0
M  V30 3201 H 303.424 -3.03065 -3.47778 0
M  V30 3202 H 301.667 -2.90194 -3.22444 0
M  V30 3203 H 302.338 -2.65517 -4.83947 0
M  V30 3204 H 304.814 -0.891016 -4.06448 0
M  V30 3205 H 303.69 -0.737712 -5.4392 0
M  V30 3206 H 303.951 0.635274 -4.37512 0
M  V30 3207 N 303.011 1.40521 -0.713556 0
M  V30 3208 C 304.239 2.05237 -0.261775 0
M  V30 3209 C 304.654 1.53755 1.09567 0
M  V30 3210 O 304.011 0.693268 1.6882 0
M  V30 3211 C 304.062 3.60763 -0.230706 0
M  V30 3212 O 303.783 4.10345 -1.53455 0
M  V30 3213 C 305.284 4.42651 0.239874 0
M  V30 3214 H 302.504 0.660533 -0.118057 0
M  V30 3215 H 305.048 1.79967 -0.971192 0
M  V30 3216 H 303.203 3.8501 0.429661 0
M  V30 3217 H 303.617 5.04526 -1.43366 0
M  V30 3218 H 305.091 5.51599 0.210468 0
M  V30 3219 H 305.568 4.20082 1.28171 0
M  V30 3220 H 306.174 4.23507 -0.390142 0
M  V30 3221 N 304.489 0.459591 1.5075 0
M  V30 3222 C 305.719 -0.0972338 2.06371 0
M  V30 3223 C 306.127 -1.35074 1.32483 0
M  V30 3224 O 305.47 -1.79637 0.384226 0
M  V30 3225 C 305.532 -0.462759 3.56509 0
M  V30 3226 C 305.196 0.687084 4.51805 0
M  V30 3227 C 306.193 1.56578 4.95761 0
M  V30 3228 C 303.878 0.874144 4.94635 0
M  V30 3229 C 305.872 2.61604 5.81242 0
M  V30 3230 C 303.559 1.92765 5.79901 0
M  V30 3231 C 304.557 2.79697 6.23104 0
M  V30 3232 O 304.245 3.83235 7.06673 0
M  V30 3233 H 303.977 -0.00140687 0.675999 0
M  V30 3234 H 306.531 0.644011 1.95043 0
M  V30 3235 H 304.761 -1.25703 3.65699 0
M  V30 3236 H 306.45 -0.953323 3.94546 0
M  V30 3237 H 307.216 1.4329 4.6335 0
M  V30 3238 H 303.095 0.207006 4.60535 0
M  V30 3239 H 306.639 3.29489 6.14884 0
M  V30 3240 H 302.536 2.06064 6.11725 0
M  V30 3241 H 303.304 3.80084 7.24899 0
M  V30 3242 N 305.967 -1.56429 0.191757 0
M  V30 3243 C 307.213 -1.97777 -0.448554 0
M  V30 3244 C 307.546 -1.07847 -1.61501 0
M  V30 3245 O 306.821 -0.129774 -1.94067 0
M  V30 3246 C 307.104 -3.48362 -0.911906 0
M  V30 3247 C 306.957 -4.4907 0.256136 0
M  V30 3248 C 308.276 -4.02561 -1.77857 0
M  V30 3249 H 305.395 -0.719071 -0.161572 0
M  V30 3250 H 308.037 -1.87896 0.282007 0
M  V30 3251 H 306.187 -3.56914 -1.53442 0
M  V30 3252 H 307.859 -4.5256 0.893733 0
M  V30 3253 H 306.102 -4.24181 0.908436 0
M  V30 3254 H 306.773 -5.51889 -0.11053 0
M  V30 3255 H 309.249 -3.96767 -1.25359 0
M  V30 3256 H 308.125 -5.08301 -2.07174 0
M  V30 3257 H 308.386 -3.47616 -2.73158 0
M  V30 3258 N 307.445 0.0818655 -1.57387 0
M  V30 3259 C 308.685 0.788375 -1.88584 0
M  V30 3260 C 309.049 1.75248 -0.784351 0
M  V30 3261 O 310.25 2.50334 -0.979105 0
M  V30 3262 C 308.521 1.48654 -3.25018 0
M  V30 3263 S 310.08 2.22951 -3.7794 0
M  V30 3264 H 306.898 0.262383 -0.660815 0
M  V30 3265 H 309.5 0.0448995 -1.95448 0
M  V30 3266 H 308.204 0.770919 -4.03094 0
M  V30 3267 H 307.735 2.26965 -3.21326 0
M  V30 3268 H 309.75 3.49309 -3.52417 0
M  V30 3269 N 308.923 1.53595 0.353017 0
M  V30 3270 C 310.171 1.70049 1.09215 0
M  V30 3271 C 310.492 0.461406 1.89463 0
M  V30 3272 O 309.762 -0.524633 1.88744 0
M  V30 3273 H 308.342 0.626912 0.40619 0
M  V30 3274 H 311.004 1.90822 0.396585 0
M  V30 3275 H 310.1 2.56718 1.77488 0
M  V30 3276 N 310.401 -0.613514 1.45168 0
M  V30 3277 C 311.649 -1.36997 1.48581 0
M  V30 3278 C 311.97 -1.94589 0.126545 0
M  V30 3279 O 311.24 -1.76816 -0.843372 0
M  V30 3280 H 309.82 -0.508558 0.547154 0
M  V30 3281 H 312.482 -0.720853 1.81079 0
M  V30 3282 H 311.578 -2.1924 2.22127 0
M  V30 3283 N 311.879 -1.3236 -0.855495 0
M  V30 3284 C 313.104 -1.2601 -1.64731 0
M  V30 3285 C 313.529 0.169068 -1.87339 0
M  V30 3286 O 312.887 1.12016 -1.42556 0
M  V30 3287 C 312.935 -2.02417 -2.98429 0
M  V30 3288 O 312.039 -1.3714 -3.8893 0
M  V30 3289 H 311.38 -0.434325 -0.502253 0
M  V30 3290 H 313.91 -1.74661 -1.06558 0
M  V30 3291 H 313.92 -2.12559 -3.48257 0
M  V30 3292 H 312.595 -3.06343 -2.81295 0
M  V30 3293 H 311.172 -1.3554 -3.47395 0
M  V30 3294 N 313.357 1.07166 -1.15556 0
M  V30 3295 C 314.287 2.16403 -0.877046 0
M  V30 3296 C 315.268 1.69217 0.173111 0
M  V30 3297 O 316.453 1.94181 0.027084 0
M  V30 3298 C 313.583 3.45349 -0.367632 0
M  V30 3299 C 312.537 4.05995 -1.35468 0
M  V30 3300 C 311.863 5.30045 -0.704038 0
M  V30 3301 C 313.163 4.45804 -2.72132 0
M  V30 3302 H 314.857 2.39959 -1.79053 0
M  V30 3303 H 312.403 1.15325 -0.862331 0
M  V30 3304 H 314.356 4.21095 -0.160317 0
M  V30 3305 H 313.08 3.21385 0.581326 0
M  V30 3306 H 311.739 3.32296 -1.54839 0
M  V30 3307 H 311.387 5.02373 0.251128 0
M  V30 3308 H 311.087 5.71579 -1.36277 0
M  V30 3309 H 312.611 6.08495 -0.50654 0
M  V30 3310 H 314.025 5.12671 -2.56595 0
M  V30 3311 H 312.422 4.98296 -3.34397 0
M  V30 3312 H 313.492 3.57083 -3.28054 0
M  V30 3313 N 314.835 0.952656 1.25548 0
M  V30 3314 C 316.084 0.602053 1.92505 0
M  V30 3315 C 316.397 -0.864663 1.75451 0
M  V30 3316 O 317.603 -1.32514 2.36965 0
M  V30 3317 C 316.059 1.02607 3.44963 0
M  V30 3318 C 315.667 2.51519 3.70732 0
M  V30 3319 C 317.411 0.747905 4.1786 0
M  V30 3320 C 315.318 2.87732 5.16686 0
M  V30 3321 H 314.248 0.22146 0.720744 0
M  V30 3322 H 316.899 1.15684 1.42441 0
M  V30 3323 H 315.281 0.399712 3.93978 0
M  V30 3324 H 316.455 3.19157 3.32378 0
M  V30 3325 H 314.77 2.76786 3.11092 0
M  V30 3326 H 317.367 0.994647 5.25367 0
M  V30 3327 H 317.71 -0.315629 4.15102 0
M  V30 3328 H 318.243 1.33452 3.74747 0
M  V30 3329 H 314.982 3.93095 5.24554 0
M  V30 3330 H 314.502 2.24765 5.56094 0
M  V30 3331 H 316.181 2.76817 5.84792 0
M  V30 3332 N 316.313 -1.40141 0.720998 0
M  V30 3333 C 317.538 -2.05618 0.271258 0
M  V30 3334 C 317.963 -1.53978 -1.08039 0
M  V30 3335 O 317.321 -0.677463 -1.68167 0
M  V30 3336 C 317.369 -3.59609 0.267197 0
M  V30 3337 O 316.473 -4.05526 -0.749814 0
M  V30 3338 H 315.814 -0.651904 0.126162 0
M  V30 3339 H 318.344 -1.79439 0.982997 0
M  V30 3340 H 318.354 -4.0786 0.106744 0
M  V30 3341 H 317.029 -3.96559 1.25354 0
M  V30 3342 H 315.606 -3.68722 -0.556644 0
M  V30 3343 N 317.792 -0.46758 -1.50504 0
M  V30 3344 C 319.203 -0.0116166 -1.86696 0
M  V30 3345 C 319.554 1.39202 -1.38265 0
M  V30 3346 O 318.679 2.0313 -0.746132 0
M  V30 3347 C 319.274 -0.0143044 -3.38797 0
M  V30 3348 C 317.833 0.386175 -3.74414 0
M  V30 3349 C 316.98 -0.401287 -2.74381 0
M  V30 3350 H 319.931 -0.682022 -1.43297 0
M  V30 3351 H 319.952 0.788641 -3.72237 0
M  V30 3352 H 319.464 -1.03602 -3.74016 0
M  V30 3353 H 317.565 1.41237 -3.44794 0
M  V30 3354 H 317.678 0.0899596 -4.79016 0
M  V30 3355 H 316.042 0.144536 -2.5429 0
M  V30 3356 H 316.825 -1.42244 -3.12444 0
M  V30 3357 N 319.27 1.56325 -0.20005 0
M  V30 3358 C 320.51 1.99619 0.439519 0
M  V30 3359 C 320.874 1.08423 1.58456 0
M  V30 3360 O 322.075 1.40973 2.28867 0
M  V30 3361 C 320.346 3.46314 0.883258 0
M  V30 3362 S 321.905 4.11634 1.51997 0
M  V30 3363 H 318.723 0.697007 0.140363 0
M  V30 3364 H 321.325 1.93118 -0.304282 0
M  V30 3365 H 320.029 4.10381 0.0398967 0
M  V30 3366 H 319.56 3.56643 1.6604 0
M  V30 3367 H 321.575 4.09049 2.8088 0
M  V30 3368 N 320.748 -0.0735177 1.57428 0
M  V30 3369 C 321.994 -0.768909 1.88307 0
M  V30 3370 C 322.349 -1.75273 0.793535 0
M  V30 3371 O 321.642 -1.90527 -0.202466 0
M  V30 3372 C 321.836 -1.51799 3.23561 0
M  V30 3373 C 321.665 -0.608217 4.45568 0
M  V30 3374 C 320.435 -0.245808 5.04702 0
M  V30 3375 C 322.633 0.0942904 5.14214 0
M  V30 3376 N 320.615 0.66987 6.10234 0
M  V30 3377 C 321.986 0.867222 6.13905 0
M  V30 3378 C 324.041 0.165943 4.97623 0
M  V30 3379 C 322.744 1.70515 6.98797 0
M  V30 3380 C 324.77 0.990837 5.83041 0
M  V30 3381 C 324.132 1.75182 6.82269 0
M  V30 3382 H 320.231 -0.25685 0.738615 0
M  V30 3383 H 322.815 -0.030499 1.94676 0
M  V30 3384 H 320.986 -2.22713 3.18203 0
M  V30 3385 H 322.718 -2.16226 3.42094 0
M  V30 3386 H 319.473 -0.598284 4.69806 0
M  V30 3387 H 319.897 1.1209 6.67656 0
M  V30 3388 H 324.539 -0.408064 4.20826 0
M  V30 3389 H 322.257 2.29013 7.7497 0
M  V30 3390 H 325.843 1.04923 5.72261 0
M  V30 3391 H 324.723 2.37983 7.47217 0
M  V30 3392 N 322.226 -1.5378 -0.344866 0
M  V30 3393 C 323.472 -1.71216 -1.08687 0
M  V30 3394 C 323.805 -0.473281 -1.88345 0
M  V30 3395 O 323.08 0.52968 -1.87149 0
M  V30 3396 C 323.363 -2.97486 -2.02914 0
M  V30 3397 C 323.216 -4.31579 -1.26727 0
M  V30 3398 C 324.535 -3.19422 -3.0275 0
M  V30 3399 H 321.654 -0.62301 -0.393735 0
M  V30 3400 H 324.296 -1.8645 -0.365563 0
M  V30 3401 H 322.446 -2.84629 -2.64421 0
M  V30 3402 H 324.118 -4.56284 -0.67845 0
M  V30 3403 H 322.361 -4.30049 -0.569273 0
M  V30 3404 H 323.032 -5.16106 -1.95803 0
M  V30 3405 H 325.508 -3.316 -2.51357 0
M  V30 3406 H 324.384 -4.09169 -3.65885 0
M  V30 3407 H 324.645 -2.35656 -3.74057 0
M  V30 3408 N 323.704 0.605807 -1.45491 0
M  V30 3409 C 324.953 1.36086 -1.48874 0
M  V30 3410 C 325.266 1.95131 -0.135333 0
M  V30 3411 O 326.472 2.7146 -0.0468144 0
M  V30 3412 C 324.928 2.46518 -2.62215 0
M  V30 3413 C 324.536 1.93877 -4.03876 0
M  V30 3414 C 326.28 3.23512 -2.74846 0
M  V30 3415 C 324.187 3.01801 -5.08596 0
M  V30 3416 H 323.117 0.511497 -0.553974 0
M  V30 3417 H 325.768 0.649089 -1.71636 0
M  V30 3418 H 324.15 3.20388 -2.32739 0
M  V30 3419 H 325.324 1.26704 -4.43038 0
M  V30 3420 H 323.639 1.29622 -3.95711 0
M  V30 3421 H 326.236 4.04013 -3.50253 0
M  V30 3422 H 326.579 3.74631 -1.81542 0
M  V30 3423 H 327.112 2.56742 -3.03856 0
M  V30 3424 H 323.851 2.55597 -6.03614 0
M  V30 3425 H 323.371 3.67535 -4.74002 0
M  V30 3426 H 325.05 3.66152 -5.33424 0
M  V30 3427 N 325.182 1.32811 0.848464 0
M  V30 3428 C 326.407 1.26882 1.6406 0
M  V30 3429 C 326.832 -0.15913 1.87426 0
M  V30 3430 O 326.19 -1.11258 1.43148 0
M  V30 3431 C 326.238 2.03997 2.97351 0
M  V30 3432 O 325.342 1.39201 3.88197 0
M  V30 3433 H 324.683 0.436982 0.499943 0
M  V30 3434 H 327.213 1.75224 1.0563 0
M  V30 3435 H 327.223 2.14403 3.47124 0
M  V30 3436 H 325.898 3.0783 2.79666 0
M  V30 3437 H 324.475 1.37381 3.46671 0
M  V30 3438 N 326.66 -1.06551 1.16123 0
M  V30 3439 C 327.623 -2.12132 0.867906 0
M  V30 3440 C 328.623 -1.60224 -0.135944 0
M  V30 3441 O 329.813 -1.73943 0.0946422 0
M  V30 3442 C 326.945 -3.396 0.297419 0
M  V30 3443 H 328.138 -2.39586 1.80385 0
M  V30 3444 H 325.691 -1.22574 0.969812 0
M  V30 3445 H 326.426 -3.17794 -0.64633 0
M  V30 3446 H 326.211 -3.78581 1.02073 0
M  V30 3447 H 327.701 -4.17455 0.110052 0
M  V30 3448 N 328.138 -0.959301 -1.25041 0
M  V30 3449 C 329.366 -0.633949 -1.96948 0
M  V30 3450 C 329.781 0.794916 -1.7125 0
M  V30 3451 O 329.138 1.53231 -0.991287 0
M  V30 3452 C 329.189 -0.888805 -3.50403 0
M  V30 3453 O 328.91 -2.26149 -3.75218 0
M  V30 3454 C 330.411 -0.576482 -4.39536 0
M  V30 3455 H 327.631 -0.237263 -0.627652 0
M  V30 3456 H 330.175 -1.28495 -1.59089 0
M  V30 3457 H 328.33 -0.284145 -3.86357 0
M  V30 3458 H 328.744 -2.33514 -4.6965 0
M  V30 3459 H 330.218 -0.805314 -5.46094 0
M  V30 3460 H 330.695 0.489075 -4.36468 0
M  V30 3461 H 331.301 -1.16067 -4.09156 0
M  V30 3462 N 329.616 1.39756 -0.72842 0
M  V30 3463 C 330.566 2.2792 -0.0603424 0
M  V30 3464 C 331.55 1.43922 0.719399 0
M  V30 3465 O 332.742 1.66895 0.589489 0
M  V30 3466 C 329.871 3.32582 0.851104 0
M  V30 3467 C 328.957 4.24049 0.0658641 0
M  V30 3468 N 329.348 4.96653 -0.957578 0
M  V30 3469 C 327.646 4.45013 0.296509 0
M  V30 3470 C 328.347 5.63836 -1.43052 0
M  V30 3471 N 327.323 5.38397 -0.750315 0
M  V30 3472 H 331.125 2.81504 -0.84455 0
M  V30 3473 H 328.639 1.5236 -0.562155 0
M  V30 3474 H 330.636 3.94603 1.34514 0
M  V30 3475 H 329.296 2.80558 1.63454 0
M  V30 3476 H 330.307 5.00297 -1.33877 0
M  V30 3477 H 326.984 4.03943 1.05527 0
M  V30 3478 H 328.374 6.31974 -2.28163 0
M  V30 3479 N 331.094 0.475555 1.50254 0
M  V30 3480 C 332.334 -0.0765802 2.04256 0
M  V30 3481 C 332.698 -1.36587 1.34937 0
M  V30 3482 O 333.899 -2.00066 1.79519 0
M  V30 3483 C 332.17 -0.251668 3.56513 0
M  V30 3484 S 333.729 -0.761716 4.32138 0
M  V30 3485 H 330.547 -0.0138456 0.710865 0
M  V30 3486 H 333.149 0.643714 1.84598 0
M  V30 3487 H 331.853 0.692404 4.04517 0
M  V30 3488 H 331.384 -0.997946 3.80532 0
M  V30 3489 H 333.399 -2.03451 4.52573 0
M  V30 3490 N 332.573 -1.56217 0.208337 0
M  V30 3491 C 333.82 -1.97949 -0.42692 0
M  V30 3492 C 334.148 -1.09562 -1.60706 0
M  V30 3493 O 333.403 -0.137616 -1.95216 0
M  V30 3494 C 333.702 -3.45441 -0.916797 0
M  V30 3495 C 333.368 -4.50646 0.151391 0
M  V30 3496 C 332.03 -4.79139 0.444867 0
M  V30 3497 C 334.382 -5.13811 0.874492 0
M  V30 3498 C 331.71 -5.68084 1.46619 0
M  V30 3499 C 334.062 -6.03861 1.88506 0
M  V30 3500 C 332.726 -6.30704 2.18559 0
M  V30 3501 H 331.996 -0.724345 -0.156221 0
M  V30 3502 H 334.643 -1.89006 0.308084 0
M  V30 3503 H 332.948 -3.51521 -1.73032 0
M  V30 3504 H 334.645 -3.75094 -1.41794 0
M  V30 3505 H 331.235 -4.28511 -0.0875068 0
M  V30 3506 H 335.419 -4.91879 0.660996 0
M  V30 3507 H 330.675 -5.87151 1.7048 0
M  V30 3508 H 334.849 -6.51861 2.45051 0
M  V30 3509 H 332.476 -6.99424 2.97843 0
M  V30 3510 N 334.051 0.0651679 -1.57465 0
M  V30 3511 C 335.3 0.761916 -1.86756 0
M  V30 3512 C 335.613 1.78406 -0.801925 0
M  V30 3513 O 336.819 2.53084 -0.982885 0
M  V30 3514 C 335.275 1.40603 -3.31299 0
M  V30 3515 C 334.883 0.422115 -4.46007 0
M  V30 3516 C 336.627 2.08476 -3.69781 0
M  V30 3517 C 334.534 1.07252 -5.81593 0
M  V30 3518 H 333.464 0.288308 -0.696702 0
M  V30 3519 H 336.115 0.015344 -1.83494 0
M  V30 3520 H 334.497 2.20109 -3.29193 0
M  V30 3521 H 335.671 -0.343613 -4.59517 0
M  V30 3522 H 333.986 -0.152527 -4.16121 0
M  V30 3523 H 336.583 2.57925 -4.68379 0
M  V30 3524 H 336.926 2.88712 -2.99919 0
M  V30 3525 H 337.459 1.35792 -3.73905 0
M  V30 3526 H 334.198 0.310342 -6.54765 0
M  V30 3527 H 333.718 1.80895 -5.71872 0
M  V30 3528 H 335.397 1.59043 -6.27148 0
M  V30 3529 N 335.529 1.53961 0.336706 0
M  V30 3530 C 336.806 1.62171 1.09361 0
M  V30 3531 C 337.186 0.447263 2.06307 0
M  V30 3532 O 336.534 -0.559802 2.21537 0
M  V30 3533 C 336.744 2.98565 1.80721 0
M  V30 3534 C 338.092 3.54157 2.34218 0
M  V30 3535 O 339.116 3.00784 1.90807 0
M  V30 3536 O 337.975 4.47528 3.13657 0
M  V30 3537 H 335.069 0.6562 0.503319 0
M  V30 3538 H 337.615 1.66307 0.33765 0
M  V30 3539 H 336.387 3.75482 1.10132 0
M  V30 3540 H 336.01 2.9805 2.63158 0
M  V30 3541 N 337.007 -0.598083 1.45811 0
M  V30 3542 C 338.237 -1.38121 1.53643 0
M  V30 3543 C 338.645 -1.88425 0.171081 0
M  V30 3544 O 337.988 -1.63409 -0.839237 0
M  V30 3545 C 338.05 -2.61432 2.46766 0
M  V30 3546 C 337.714 -2.32702 3.93318 0
M  V30 3547 C 338.711 -1.92479 4.82957 0
M  V30 3548 C 336.396 -2.45321 4.38318 0
M  V30 3549 C 338.39 -1.65248 6.15607 0
M  V30 3550 C 336.077 -2.17703 5.71007 0
M  V30 3551 C 337.075 -1.7773 6.5947 0
M  V30 3552 O 336.763 -1.50441 7.89698 0
M  V30 3553 H 336.495 -0.428863 0.522544 0
M  V30 3554 H 339.049 -0.73557 1.91777 0
M  V30 3555 H 337.279 -3.28749 2.0362 0
M  V30 3556 H 338.968 -3.23487 2.45175 0
M  V30 3557 H 339.734 -1.82258 4.49452 0
M  V30 3558 H 335.613 -2.75399 3.69697 0
M  V30 3559 H 339.157 -1.33973 6.84614 0
M  V30 3560 H 335.054 -2.27544 6.04065 0
M  V30 3561 H 335.822 -1.64415 8.01817 0
M  V30 3562 N 338.485 -1.33259 -0.841409 0
M  V30 3563 C 339.896 -1.22066 -1.41269 0
M  V30 3564 C 340.247 0.161479 -1.95534 0
M  V30 3565 O 339.372 1.06094 -1.88608 0
M  V30 3566 C 339.967 -2.20996 -2.568 0
M  V30 3567 C 338.526 -2.13649 -3.09888 0
M  V30 3568 C 337.673 -2.08623 -1.82679 0
M  V30 3569 H 340.624 -1.44895 -0.647395 0
M  V30 3570 H 340.645 -1.81621 -3.34356 0
M  V30 3571 H 340.157 -3.2158 -2.17274 0
M  V30 3572 H 338.258 -1.16359 -3.53965 0
M  V30 3573 H 338.371 -3.04079 -3.70234 0
M  V30 3574 H 336.735 -1.54061 -2.02824 0
M  V30 3575 H 337.518 -3.1101 -1.45353 0
M  V30 3576 N 339.963 1.05934 -1.16686 0
M  V30 3577 C 340.91 2.13499 -0.876748 0
M  V30 3578 C 341.88 1.65162 0.176299 0
M  V30 3579 O 343.065 1.90757 0.0407143 0
M  V30 3580 C 340.205 3.42912 -0.387967 0
M  V30 3581 C 339.318 4.04964 -1.50426 0
M  V30 3582 C 338.453 5.22266 -0.970125 0
M  V30 3583 C 337.492 5.76309 -2.06238 0
M  V30 3584 N 336.629 6.84922 -1.54356 0
M  V30 3585 H 341.469 2.37654 -1.7979 0
M  V30 3586 H 339.006 1.16598 -0.896843 0
M  V30 3587 H 340.964 4.17111 -0.086186 0
M  V30 3588 H 339.594 3.18963 0.496235 0
M  V30 3589 H 338.646 3.28277 -1.92193 0
M  V30 3590 H 339.958 4.41122 -2.32836 0
M  V30 3591 H 339.112 6.03506 -0.621743 0
M  V30 3592 H 337.851 4.87564 -0.115377 0
M  V30 3593 H 336.856 4.93704 -2.41942 0
M  V30 3594 H 338.081 6.13062 -2.92115 0
M  V30 3595 H 336.027 6.52131 -0.711406 0
M  V30 3596 H 335.944 7.20043 -2.30379 0
M  V30 3597 H 337.212 7.69832 -1.22387 0
M  V30 3598 N 341.441 0.965919 1.2453 0
M  V30 3599 C 342.388 0.49402 2.25451 0
M  V30 3600 C 343.358 -0.45948 1.59618 0
M  V30 3601 O 344.543 -0.370238 1.87173 0
M  V30 3602 C 341.683 -0.211359 3.44452 0
M  V30 3603 C 340.796 0.7807 4.24887 0
M  V30 3604 C 339.931 0.0516105 5.31175 0
M  V30 3605 C 338.97 1.03385 6.03306 0
M  V30 3606 N 338.107 0.334887 7.01301 0
M  V30 3607 H 342.947 1.35946 2.65184 0
M  V30 3608 H 340.484 0.681515 1.3036 0
M  V30 3609 H 342.442 -0.637 4.12308 0
M  V30 3610 H 341.072 -1.04077 3.05562 0
M  V30 3611 H 340.124 1.32479 3.56586 0
M  V30 3612 H 341.436 1.52978 4.74762 0
M  V30 3613 H 340.59 -0.432114 6.05159 0
M  V30 3614 H 339.329 -0.730179 4.82203 0
M  V30 3615 H 338.334 1.52847 5.28127 0
M  V30 3616 H 339.559 1.81606 6.54367 0
M  V30 3617 H 337.505 -0.427959 6.54603 0
M  V30 3618 H 337.422 1.02287 7.49048 0
M  V30 3619 H 338.69 -0.126928 7.79397 0
M  V30 3620 N 342.919 -1.39368 0.735821 0
M  V30 3621 C 343.829 -2.34395 0.0979693 0
M  V30 3622 C 344.845 -1.58361 -0.720968 0
M  V30 3623 O 346.021 -1.90648 -0.649245 0
M  V30 3624 C 343.086 -3.37393 -0.797916 0
M  V30 3625 C 342.147 -4.29287 0.0333662 0
M  V30 3626 C 341.38 -5.27365 -0.819854 0
M  V30 3627 O 341.603 -5.31959 -2.05855 0
M  V30 3628 O 340.537 -6.01389 -0.248079 0
M  V30 3629 H 344.363 -2.90601 0.882315 0
M  V30 3630 H 341.948 -1.40909 0.4965 0
M  V30 3631 H 343.83 -4.00505 -1.31048 0
M  V30 3632 H 342.505 -2.83571 -1.56106 0
M  V30 3633 H 341.412 -3.69395 0.591475 0
M  V30 3634 H 342.745 -4.86317 0.758752 0
M  V30 3635 N 344.397 -0.483516 -1.5 0
M  V30 3636 C 345.674 0.129337 -1.95172 0
M  V30 3637 C 346.054 1.55802 -1.4244 0
M  V30 3638 O 345.402 2.19625 -0.630649 0
M  V30 3639 C 345.612 0.0599251 -3.48949 0
M  V30 3640 C 346.96 0.242617 -4.23906 0
M  V30 3641 O 347.984 0.135933 -3.55941 0
M  V30 3642 O 346.843 0.459454 -5.44565 0
M  V30 3643 H 343.937 0.104887 -0.820322 0
M  V30 3644 H 346.483 -0.544807 -1.60717 0
M  V30 3645 H 345.255 -0.937079 -3.79914 0
M  V30 3646 H 344.878 0.774984 -3.89974 0
M  V30 3647 N 345.875 1.56104 -0.216619 0
M  V30 3648 C 347.105 2.02269 0.420802 0
M  V30 3649 C 347.513 1.09575 1.5424 0
M  V30 3650 O 346.856 0.0967308 1.83445 0
M  V30 3651 C 346.918 3.44784 1.01806 0
M  V30 3652 C 346.582 4.56988 0.0325154 0
M  V30 3653 C 347.579 5.14225 -0.766055 0
M  V30 3654 C 345.264 5.02228 -0.0848092 0
M  V30 3655 C 347.258 6.15169 -1.6687 0
M  V30 3656 C 344.945 6.03011 -0.990994 0
M  V30 3657 C 345.943 6.59357 -1.78149 0
M  V30 3658 O 345.631 7.58179 -2.67245 0
M  V30 3659 H 345.363 0.667353 0.107776 0
M  V30 3660 H 347.917 2.02747 -0.329034 0
M  V30 3661 H 346.147 3.41359 1.81689 0
M  V30 3662 H 347.836 3.74626 1.56237 0
M  V30 3663 H 348.602 4.80126 -0.685836 0
M  V30 3664 H 344.481 4.58054 0.520349 0
M  V30 3665 H 348.025 6.59076 -2.28615 0
M  V30 3666 H 343.922 6.36532 -1.07225 0
M  V30 3667 H 344.69 7.75682 -2.61265 0
M  V30 3668 N 347.353 -0.0568162 1.57498 0
M  V30 3669 C 348.602 -0.752001 1.87157 0
M  V30 3670 C 348.915 -1.77978 0.811375 0
M  V30 3671 O 350.121 -2.52559 0.996293 0
M  V30 3672 C 348.577 -1.38844 3.3204 0
M  V30 3673 C 348.185 -0.398456 4.46225 0
M  V30 3674 C 349.929 -2.06512 3.70882 0
M  V30 3675 C 347.836 -1.04166 5.82154 0
M  V30 3676 H 346.766 -0.28461 0.698222 0
M  V30 3677 H 349.417 -0.00561272 1.83499 0
M  V30 3678 H 347.799 -2.1836 3.30356 0
M  V30 3679 H 348.973 0.367977 4.59328 0
M  V30 3680 H 347.288 0.174592 4.16034 0
M  V30 3681 H 349.885 -2.55437 4.6974 0
M  V30 3682 H 350.228 -2.87117 3.01445 0
M  V30 3683 H 350.761 -1.33808 3.7462 0
M  V30 3684 H 347.5 -0.275614 6.5492 0
M  V30 3685 H 347.02 -1.7786 5.72823 0
M  V30 3686 H 348.699 -1.55715 6.27982 0
M  V30 3687 N 348.832 -1.54138 -0.328536 0
M  V30 3688 C 350.078 -1.7236 -1.06865 0
M  V30 3689 C 350.411 -0.493231 -1.87832 0
M  V30 3690 O 349.686 0.5098 -1.877 0
M  V30 3691 C 349.969 -2.99621 -1.99747 0
M  V30 3692 C 349.822 -4.32899 -1.22143 0
M  V30 3693 C 351.141 -3.22615 -2.99345 0
M  V30 3694 H 348.26 -0.627151 -0.387105 0
M  V30 3695 H 350.902 -1.86827 -0.345767 0
M  V30 3696 H 349.052 -2.87418 -2.61387 0
M  V30 3697 H 350.724 -4.56978 -0.630017 0
M  V30 3698 H 348.967 -4.30628 -0.523628 0
M  V30 3699 H 349.638 -5.18154 -1.90318 0
M  V30 3700 H 352.114 -3.34248 -2.47826 0
M  V30 3701 H 350.99 -4.13027 -3.61524 0
M  V30 3702 H 351.251 -2.3961 -3.71536 0
M  V30 3703 N 350.31 0.590341 -1.46126 0
M  V30 3704 C 351.54 1.37304 -1.54373 0
M  V30 3705 C 351.948 1.88332 -0.181071 0
M  V30 3706 O 351.291 1.63852 0.830559 0
M  V30 3707 C 351.353 2.6012 -2.48149 0
M  V30 3708 C 351.017 2.30613 -3.94546 0
M  V30 3709 C 352.014 1.89915 -4.83971 0
M  V30 3710 C 349.699 2.42993 -4.39613 0
M  V30 3711 C 351.693 1.61981 -6.16475 0
M  V30 3712 C 349.38 2.14672 -5.72153 0
M  V30 3713 C 350.378 1.7423 -6.60404 0
M  V30 3714 O 350.066 1.46251 -7.90485 0
M  V30 3715 H 349.798 0.426086 -0.524811 0
M  V30 3716 H 352.352 0.72539 -1.92165 0
M  V30 3717 H 350.582 3.27664 -2.05361 0
M  V30 3718 H 352.271 3.22182 -2.46887 0
M  V30 3719 H 353.037 1.79872 -4.50412 0
M  V30 3720 H 348.916 2.73435 -3.71153 0
M  V30 3721 H 352.46 1.30341 -6.85315 0
M  V30 3722 H 348.357 2.24337 -6.05263 0
M  V30 3723 H 349.125 1.6016 -8.02677 0
M  V30 3724 N 351.788 1.33704 0.83433 0
M  V30 3725 C 352.718 1.26967 1.95963 0
M  V30 3726 C 353.699 0.149337 1.69443 0
M  V30 3727 O 354.884 0.339852 1.91203 0
M  V30 3728 C 352.014 1.01275 3.32206 0
M  V30 3729 C 350.968 2.09652 3.73136 0
M  V30 3730 C 350.294 1.69166 5.07235 0
M  V30 3731 C 351.594 3.51372 3.86439 0
M  V30 3732 H 353.288 2.2112 2.01857 0
M  V30 3733 H 350.834 1.06447 0.969793 0
M  V30 3734 H 352.787 0.952106 4.10503 0
M  V30 3735 H 351.511 0.0356203 3.26581 0
M  V30 3736 H 350.17 2.14766 2.97104 0
M  V30 3737 H 349.818 0.701437 4.98085 0
M  V30 3738 H 349.518 2.41694 5.35591 0
M  V30 3739 H 351.042 1.64576 5.88003 0
M  V30 3740 H 352.456 3.48734 4.55036 0
M  V30 3741 H 350.853 4.22425 4.26236 0
M  V30 3742 H 351.923 3.89546 2.88759 0
M  V30 3743 N 353.266 -1.05314 1.17247 0
M  V30 3744 C 354.514 -1.77941 0.958194 0
M  V30 3745 C 354.835 -1.88089 -0.514556 0
M  V30 3746 O 354.105 -1.39676 -1.37359 0
M  V30 3747 H 352.685 -0.659116 0.351533 0
M  V30 3748 H 355.347 -1.27166 1.47699 0
M  V30 3749 H 354.443 -2.79663 1.38546 0
M  V30 3750 N 354.744 -0.972509 -1.24016 0
M  V30 3751 C 356.16 -0.679827 -1.44397 0
M  V30 3752 C 356.36 0.756716 -1.86751 0
M  V30 3753 O 355.416 1.53007 -2.00861 0
M  V30 3754 C 356.729 -1.66803 -2.50195 0
M  V30 3755 C 358.277 -1.68119 -2.64017 0
M  V30 3756 C 358.752 -2.65748 -3.73017 0
M  V30 3757 N 360.243 -2.64219 -3.8045 0
M  V30 3758 C 360.978 -3.36433 -4.64328 0
M  V30 3759 N 360.474 -4.1818 -5.52356 0
M  V30 3760 N 362.267 -3.25235 -4.58453 0
M  V30 3761 H 354.418 -1.90059 -0.948228 0
M  V30 3762 H 356.681 -0.818527 -0.478245 0
M  V30 3763 H 356.387 -2.69498 -2.25973 0
M  V30 3764 H 356.261 -1.4446 -3.48441 0
M  V30 3765 H 358.648 -0.661319 -2.87594 0
M  V30 3766 H 358.729 -1.94525 -1.66113 0
M  V30 3767 H 358.373 -3.67872 -3.50189 0
M  V30 3768 H 358.303 -2.36619 -4.70446 0
M  V30 3769 H 360.794 -2.04887 -3.17537 0
M  V30 3770 H 361.107 -4.70157 -6.13329 0
M  V30 3771 H 359.452 -4.22273 -5.52006 0
M  V30 3772 H 362.643 -2.60829 -3.88698 0
M  V30 3773 H 362.816 -3.81776 -5.23594 0
M  V30 3774 N 356.222 1.38976 -0.743202 0
M  V30 3775 C 357.447 2.05161 -0.303936 0
M  V30 3776 C 357.872 1.55677 1.05576 0
M  V30 3777 O 357.23 0.704131 1.67068 0
M  V30 3778 C 357.278 3.59138 -0.324373 0
M  V30 3779 O 356.382 4.06668 0.685204 0
M  V30 3780 H 355.723 0.649815 -0.136518 0
M  V30 3781 H 358.253 1.77852 -1.01142 0
M  V30 3782 H 358.263 4.07639 -0.171618 0
M  V30 3783 H 356.938 3.94515 -1.31647 0
M  V30 3784 H 355.515 3.69561 0.497913 0
M  V30 3785 N 357.7 0.491464 1.49741 0
M  V30 3786 C 359.116 0.146835 1.58923 0
M  V30 3787 C 359.316 -1.34804 1.49767 0
M  V30 3788 O 358.372 -2.12317 1.36667 0
M  V30 3789 C 359.685 0.715157 2.92072 0
M  V30 3790 C 361.233 0.680407 3.05515 0
M  V30 3791 C 361.708 1.22663 4.41269 0
M  V30 3792 N 363.199 1.18691 4.47735 0
M  V30 3793 C 363.934 1.57984 5.51207 0
M  V30 3794 N 363.43 2.04824 6.6183 0
M  V30 3795 N 365.223 1.49459 5.41866 0
M  V30 3796 H 357.374 1.46347 1.53936 0
M  V30 3797 H 359.637 0.606453 0.728642 0
M  V30 3798 H 359.343 1.76317 3.04311 0
M  V30 3799 H 359.217 0.17018 3.76816 0
M  V30 3800 H 361.604 -0.358743 2.92911 0
M  V30 3801 H 361.685 1.26242 2.22478 0
M  V30 3802 H 361.329 2.26451 4.54623 0
M  V30 3803 H 361.259 0.620637 5.2293 0
M  V30 3804 H 363.75 0.843605 3.68364 0
M  V30 3805 H 364.063 2.32901 7.3687 0
M  V30 3806 H 362.408 2.08791 6.62896 0
M  V30 3807 H 365.599 1.12692 4.54333 0
M  V30 3808 H 365.772 1.80406 6.22381 0
M  V30 3809 N 359.178 -1.55987 0.224894 0
M  V30 3810 C 360.108 -2.23426 -0.678457 0
M  V30 3811 C 361.089 -1.20709 -1.19847 0
M  V30 3812 O 362.274 -1.49304 -1.24186 0
M  V30 3813 C 359.404 -2.91676 -1.88527 0
M  V30 3814 C 358.358 -4.00893 -1.49896 0
M  V30 3815 C 357.684 -4.56455 -2.78483 0
M  V30 3816 C 358.984 -5.17769 -0.686461 0
M  V30 3817 H 360.678 -2.99175 -0.116173 0
M  V30 3818 H 358.224 -1.43897 -0.054436 0
M  V30 3819 H 360.177 -3.37547 -2.5227 0
M  V30 3820 H 358.901 -2.1338 -2.47258 0
M  V30 3821 H 357.56 -3.55758 -0.884985 0
M  V30 3822 H 357.208 -3.74886 -3.35365 0
M  V30 3823 H 356.908 -5.30169 -2.53368 0
M  V30 3824 H 358.432 -5.05047 -3.43162 0
M  V30 3825 H 359.846 -5.60001 -1.22767 0
M  V30 3826 H 358.243 -5.97735 -0.532259 0
M  V30 3827 H 359.313 -4.83932 0.306196 0
M  V30 3828 N 360.656 0.0484629 -1.57525 0
M  V30 3829 C 361.604 1.07359 -2.06341 0
M  V30 3830 C 362.598 1.3865 -0.973269 0
M  V30 3831 O 363.804 1.37783 -1.15827 0
M  V30 3832 H 360.179 0.363662 -0.65822 0
M  V30 3833 H 362.15 0.635916 -2.91545 0
M  V30 3834 C 360.899 2.37198 -2.54229 0
M  V30 3835 H 360.222 2.13977 -3.37719 0
M  V30 3836 H 361.662 3.07319 -2.92115 0
M  V30 3837 C 360.121 3.04805 -1.43511 0
M  V30 3838 O 360.651 3.93848 -0.79034 0
M  V30 3839 N 358.857 2.65811 -1.17444 0
M  V30 3840 H 358.404 1.93488 -1.70059 0
M  V30 3841 H 358.362 3.11366 -0.435737 0
M  V30 3842 N 362.134 1.5431 0.320358 0
M  V30 3843 C 363.359 1.76954 1.08175 0
M  V30 3844 C 363.784 0.518193 1.80821 0
M  V30 3845 O 363.142 -0.530411 1.73368 0
M  V30 3846 C 363.19 2.96451 2.05303 0
M  V30 3847 O 362.294 2.68221 3.13259 0
M  V30 3848 H 361.635 0.586275 0.311733 0
M  V30 3849 H 364.165 2.01342 0.363676 0
M  V30 3850 H 364.175 3.23887 2.48116 0
M  V30 3851 H 362.85 3.87196 1.51829 0
M  V30 3852 H 361.427 2.51744 2.75099 0
M  V30 3853 N 363.613 -0.582584 1.46437 0
M  V30 3854 C 364.561 -1.71272 1.5738 0
M  V30 3855 C 365.555 -1.63524 0.44229 0
M  V30 3856 O 366.761 -1.69016 0.619166 0
M  V30 3857 H 363.136 -0.566273 0.494813 0
M  V30 3858 H 365.107 -1.59174 2.52401 0
M  V30 3859 C 363.856 -3.09658 1.58136 0
M  V30 3860 H 363.179 -3.16291 2.44541 0
M  V30 3861 H 364.619 -3.88494 1.69847 0
M  V30 3862 C 363.078 -3.3547 0.310026 0
M  V30 3863 O 363.608 -3.97199 -0.599683 0
M  V30 3864 N 361.814 -2.89925 0.197901 0
M  V30 3865 H 361.361 -2.39873 0.93909 0
M  V30 3866 H 361.319 -3.07568 -0.65185 0
M  V30 3867 N 365.091 -1.34144 -0.827227 0
M  V30 3868 C 366.319 -1.29325 -1.61501 0
M  V30 3869 C 366.734 0.13354 -1.88327 0
M  V30 3870 O 366.091 1.0793 -1.47164 0
M  V30 3871 C 366.142 -2.07746 -2.95844 0
M  V30 3872 O 365.863 -3.4486 -2.70191 0
M  V30 3873 C 367.364 -2.10273 -3.90256 0
M  V30 3874 H 364.584 -0.445069 -0.50215 0
M  V30 3875 H 367.128 -1.76693 -1.02955 0
M  V30 3876 H 365.283 -1.6403 -3.5096 0
M  V30 3877 H 365.697 -3.85345 -3.55822 0
M  V30 3878 H 367.171 -2.69575 -4.81698 0
M  V30 3879 H 367.648 -1.096 -4.25305 0
M  V30 3880 H 368.254 -2.54059 -3.41078 0
M  V30 3881 N 366.569 1.04691 -1.17803 0
M  V30 3882 C 367.501 2.12571 -0.857097 0
M  V30 3883 C 368.514 1.62174 0.142647 0
M  V30 3884 O 369.703 1.78301 -0.0843387 0
M  V30 3885 C 366.803 3.37915 -0.258216 0
M  V30 3886 C 365.976 4.1757 -1.30207 0
M  V30 3887 C 365.035 5.2125 -0.720029 0
M  V30 3888 O 364.061 5.51888 -1.39314 0
M  V30 3889 N 365.263 5.78466 0.485507 0
M  V30 3890 H 368.028 2.40698 -1.78562 0
M  V30 3891 H 365.589 1.20831 -1.07757 0
M  V30 3892 H 367.581 4.04442 0.144584 0
M  V30 3893 H 366.151 3.07281 0.574199 0
M  V30 3894 H 365.371 3.46458 -1.88043 0
M  V30 3895 H 366.659 4.67586 -2.00601 0
M  V30 3896 H 366.057 5.55866 1.05022 0
M  V30 3897 H 364.614 6.4649 0.830307 0
M  V30 3898 N 368.047 0.979072 1.23499 0
M  V30 3899 C 369.295 0.645941 1.91499 0
M  V30 3900 C 369.616 -0.822948 1.76784 0
M  V30 3901 O 368.886 -1.58854 1.14639 0
M  V30 3902 H 367.466 0.235919 0.708767 0
M  V30 3903 H 370.128 1.2426 1.50152 0
M  V30 3904 H 369.224 0.896411 2.9895 0
M  V30 3905 N 369.525 -1.3858 0.750561 0
M  V30 3906 C 370.435 -2.34278 0.122825 0
M  V30 3907 C 371.451 -1.59116 -0.704131 0
M  V30 3908 O 372.627 -1.91326 -0.628987 0
M  V30 3909 C 369.692 -3.38221 -0.762086 0
M  V30 3910 C 368.753 -4.29227 0.078896 0
M  V30 3911 C 367.986 -5.28205 -0.763874 0
M  V30 3912 O 368.209 -5.34112 -2.00201 0
M  V30 3913 O 367.143 -6.01618 -0.18428 0
M  V30 3914 H 370.969 -2.89649 0.913088 0
M  V30 3915 H 368.554 -1.40374 0.511417 0
M  V30 3916 H 370.436 -4.01872 -1.26793 0
M  V30 3917 H 369.111 -2.85211 -1.5309 0
M  V30 3918 H 368.018 -3.68747 0.630621 0
M  V30 3919 H 369.351 -4.85484 0.810289 0
M  V30 3920 N 371.003 -0.499398 -1.49478 0
M  V30 3921 C 371.936 0.326491 -2.25852 0
M  V30 3922 C 372.914 0.971776 -1.30366 0
M  V30 3923 O 374.098 1.00219 -1.59651 0
M  V30 3924 C 371.225 1.45969 -3.05632 0
M  V30 3925 C 370.271 0.928938 -4.16261 0
M  V30 3926 S 371.104 -0.179012 -5.35201 0
M  V30 3927 C 372.26 0.957389 -6.18534 0
M  V30 3928 H 372.493 -0.321746 -2.95554 0
M  V30 3929 H 370.026 -0.284674 -1.51753 0
M  V30 3930 H 371.984 2.109 -3.52181 0
M  V30 3931 H 370.645 2.07953 -2.35402 0
M  V30 3932 H 369.838 1.77813 -4.71592 0
M  V30 3933 H 369.44 0.356869 -3.72293 0
M  V30 3934 H 371.732 1.86296 -6.51383 0
M  V30 3935 H 372.675 0.442733 -7.06715 0
M  V30 3936 H 373.083 1.224 -5.5107 0
M  V30 3937 N 372.481 1.55866 -0.233164 0
M  V30 3938 C 373.428 2.20796 0.67215 0
M  V30 3939 C 374.398 1.16731 1.18166 0
M  V30 3940 O 375.583 1.45129 1.23864 0
M  V30 3941 C 372.723 2.90072 1.86955 0
M  V30 3942 C 371.836 4.08759 1.39786 0
M  V30 3943 C 370.971 4.65787 2.55374 0
M  V30 3944 C 370.01 5.76752 2.04998 0
M  V30 3945 N 369.147 6.28021 3.13901 0
M  V30 3946 H 373.987 2.9779 0.111749 0
M  V30 3947 H 371.524 1.47036 0.0434007 0
M  V30 3948 H 373.482 3.28428 2.57276 0
M  V30 3949 H 372.112 2.15575 2.40265 0
M  V30 3950 H 371.164 3.7581 0.589173 0
M  V30 3951 H 372.476 4.88906 0.98856 0
M  V30 3952 H 371.63 5.06646 3.33758 0
M  V30 3953 H 370.369 3.84828 2.99598 0
M  V30 3954 H 369.374 5.35383 1.25079 0
M  V30 3955 H 370.599 6.59553 1.61759 0
M  V30 3956 H 368.545 5.49971 3.57586 0
M  V30 3957 H 368.462 7.03323 2.7726 0
M  V30 3958 H 369.73 6.73538 3.92386 0
M  V30 3959 N 373.959 -0.0401083 1.57549 0
M  V30 3960 C 375.206 -0.733125 1.88763 0
M  V30 3961 C 375.534 -1.75946 0.829058 0
M  V30 3962 O 374.789 -1.94949 -0.171323 0
M  V30 3963 C 375.088 -1.44902 3.26708 0
M  V30 3964 C 374.754 -0.559707 4.47413 0
M  V30 3965 C 373.416 -0.314731 4.8017 0
M  V30 3966 C 375.768 0.0549743 5.21171 0
M  V30 3967 C 373.096 0.553886 5.8408 0
M  V30 3968 C 375.448 0.911229 6.26003 0
M  V30 3969 C 374.112 1.16577 6.57241 0
M  V30 3970 H 373.382 -0.268269 0.690733 0
M  V30 3971 H 376.029 0.00679408 1.91499 0
M  V30 3972 H 374.334 -2.26197 3.1991 0
M  V30 3973 H 376.031 -1.99058 3.48105 0
M  V30 3974 H 372.621 -0.760793 4.21794 0
M  V30 3975 H 376.805 -0.121344 4.96152 0
M  V30 3976 H 372.061 0.759518 6.06664 0
M  V30 3977 H 376.235 1.3941 6.82303 0
M  V30 3978 H 373.862 1.84058 7.37582 0
M  V30 3979 N 375.437 -1.54477 -0.31217 0
M  V30 3980 C 376.347 -1.87695 -1.4074 0
M  V30 3981 C 377.363 -0.769975 -1.56036 0
M  V30 3982 O 378.539 -1.06537 -1.70915 0
M  V30 3983 C 375.604 -2.10755 -2.75287 0
M  V30 3984 C 374.665 -3.34514 -2.69071 0
M  V30 3985 C 373.898 -3.56465 -3.97201 0
M  V30 3986 O 374.121 -2.81637 -4.96021 0
M  V30 3987 O 373.055 -4.49964 -3.9977 0
M  V30 3988 H 376.881 -2.80849 -1.15574 0
M  V30 3989 H 374.466 -1.40526 -0.507228 0
M  V30 3990 H 376.348 -2.27188 -3.54913 0
M  V30 3991 H 375.023 -1.20788 -3.0032 0
M  V30 3992 H 373.93 -3.23456 -1.87955 0
M  V30 3993 H 375.263 -4.24575 -2.48992 0
M  V30 3994 N 376.915 0.57481 -1.46744 0
M  V30 3995 C 378.161 1.3347 -1.52688 0
M  V30 3996 C 378.494 1.93353 -0.181229 0
M  V30 3997 O 377.769 1.76912 0.808237 0
M  V30 3998 C 378.052 2.45811 -2.63152 0
M  V30 3999 C 377.905 1.90912 -4.07275 0
M  V30 4000 C 379.224 3.47822 -2.69644 0
M  V30 4001 H 376.343 0.483935 -0.555856 0
M  V30 4002 H 378.985 0.644968 -1.78718 0
M  V30 4003 H 377.135 3.04646 -2.41088 0
M  V30 4004 H 378.807 1.36473 -4.4065 0
M  V30 4005 H 377.05 1.21691 -4.16382 0
M  V30 4006 H 377.721 2.72042 -4.80309 0
M  V30 4007 H 380.197 2.9888 -2.895 0
M  V30 4008 H 379.073 4.23876 -3.48742 0
M  V30 4009 H 379.334 4.05555 -1.76005 0
M  V30 4010 N 378.394 1.34581 0.820102 0
M  V30 4011 C 379.304 1.28471 1.96297 0
M  V30 4012 C 380.32 0.191902 1.72939 0
M  V30 4013 O 381.496 0.418879 1.96996 0
M  V30 4014 C 378.561 1.04281 3.30645 0
M  V30 4015 C 377.622 2.22745 3.66992 0
M  V30 4016 C 376.855 1.997 4.9493 0
M  V30 4017 O 377.078 0.956656 5.6232 0
M  V30 4018 O 376.012 2.86723 5.2922 0
M  V30 4019 H 379.838 2.24624 2.04396 0
M  V30 4020 H 377.423 1.14816 0.955913 0
M  V30 4021 H 379.305 0.925841 4.11104 0
M  V30 4022 H 377.98 0.111697 3.23507 0
M  V30 4023 H 376.887 2.40003 2.86966 0
M  V30 4024 H 378.22 3.14257 3.78819 0
M  V30 4025 N 379.872 -1.04064 1.18357 0
M  V30 4026 C 380.82 -2.14187 0.907007 0
M  V30 4027 C 381.814 -1.68879 -0.132725 0
M  V30 4028 O 383.02 -1.79993 0.0154248 0
M  V30 4029 H 379.395 -0.699585 0.275835 0
M  V30 4030 H 381.366 -2.34711 1.84264 0
M  V30 4031 C 380.115 -3.44785 0.449254 0
M  V30 4032 H 379.438 -3.80058 1.24081 0
M  V30 4033 H 380.878 -4.22974 0.294737 0
M  V30 4034 C 379.337 -3.26391 -0.834909 0
M  V30 4035 O 379.867 -3.53973 -1.89911 0
M  V30 4036 N 378.073 -2.79726 -0.787523 0
M  V30 4037 H 377.62 -2.5748 0.0787347 0
M  V30 4038 H 377.578 -2.67798 -1.64716 0
M  V30 4039 N 381.35 -0.985608 -1.22978 0
M  V30 4040 C 382.28 -0.549649 -2.26939 0
M  V30 4041 C 383.261 0.419803 -1.64838 0
M  V30 4042 O 384.446 0.31203 -1.91677 0
M  V30 4043 C 381.576 0.143652 -3.47003 0
M  V30 4044 C 380.53 -0.743606 -4.21491 0
M  V30 4045 C 379.856 0.0822027 -5.34637 0
M  V30 4046 C 381.156 -2.03694 -4.80943 0
M  V30 4047 H 382.85 -1.41862 -2.63658 0
M  V30 4048 H 380.396 -0.683571 -1.26741 0
M  V30 4049 H 382.349 0.459985 -4.18882 0
M  V30 4050 H 381.073 1.04711 -3.09359 0
M  V30 4051 H 379.732 -1.04347 -3.51436 0
M  V30 4052 H 379.38 0.986359 -4.93234 0
M  V30 4053 H 379.08 -0.508377 -5.85397 0
M  V30 4054 H 380.604 0.392797 -6.09335 0
M  V30 4055 H 382.018 -1.78504 -5.44802 0
M  V30 4056 H 380.415 -2.57573 -5.42011 0
M  V30 4057 H 381.485 -2.72042 -4.01399 0
M  V30 4058 N 382.828 1.3818 -0.7579 0
M  V30 4059 C 384.077 1.99261 -0.312744 0
M  V30 4060 C 384.39 1.60846 1.11301 0
M  V30 4061 O 385.596 2.14929 1.65885 0
M  V30 4062 C 384.052 3.56294 -0.50821 0
M  V30 4063 C 383.66 4.03657 -1.94333 0
M  V30 4064 C 385.404 4.24313 -0.125982 0
M  V30 4065 C 383.311 5.53347 -2.08712 0
M  V30 4066 H 382.241 0.745456 -0.113185 0
M  V30 4067 H 384.892 1.57889 -0.935056 0
M  V30 4068 H 383.274 3.95575 0.183353 0
M  V30 4069 H 384.448 3.75655 -2.66871 0
M  V30 4070 H 382.763 3.48376 -2.28086 0
M  V30 4071 H 385.36 5.34279 -0.212125 0
M  V30 4072 H 385.703 4.05962 0.921964 0
M  V30 4073 H 386.236 3.90285 -0.769563 0
M  V30 4074 H 382.975 5.76607 -3.11777 0
M  V30 4075 H 382.495 5.83078 -1.4064 0
M  V30 4076 H 384.174 6.19111 -1.87912 0
M  V30 4077 N 384.306 0.507319 1.49211 0
M  V30 4078 C 385.236 -0.256939 2.32082 0
M  V30 4079 C 386.217 -0.956609 1.40652 0
M  V30 4080 O 387.402 -0.946788 1.69557 0
M  V30 4081 C 384.532 -1.31802 3.21318 0
M  V30 4082 C 383.486 -0.737855 4.21592 0
M  V30 4083 C 382.812 -1.89992 4.99807 0
M  V30 4084 C 384.112 0.275325 5.21574 0
M  V30 4085 H 385.806 0.434798 2.96226 0
M  V30 4086 H 383.352 0.210546 1.42452 0
M  V30 4087 H 385.305 -1.86045 3.78107 0
M  V30 4088 H 384.029 -2.03903 2.5513 0
M  V30 4089 H 382.688 -0.217126 3.65956 0
M  V30 4090 H 382.336 -2.60877 4.30061 0
M  V30 4091 H 382.036 -1.51777 5.6766 0
M  V30 4092 H 383.56 -2.44657 5.59442 0
M  V30 4093 H 384.974 -0.179193 5.7302 0
M  V30 4094 H 383.371 0.573649 5.97352 0
M  V30 4095 H 384.441 1.18903 4.70096 0
M  V30 4096 N 385.784 -1.5574 0.241426 0
M  V30 4097 C 386.734 -2.17803 -0.674233 0
M  V30 4098 C 387.718 -1.13225 -1.14319 0
M  V30 4099 O 388.91 -1.39153 -1.09387 0
M  V30 4100 C 386.039 -2.87682 -1.87333 0
M  V30 4101 C 385.125 -3.99509 -1.42313 0
M  V30 4102 N 385.516 -5.01115 -0.686798 0
M  V30 4103 C 383.814 -4.11964 -1.70885 0
M  V30 4104 C 384.515 -5.79922 -0.454456 0
M  V30 4105 N 383.491 -5.34001 -1.01705 0
M  V30 4106 H 387.293 -2.93718 -0.103447 0
M  V30 4107 H 384.807 -1.62342 0.0435095 0
M  V30 4108 H 386.804 -3.3057 -2.54026 0
M  V30 4109 H 385.464 -2.13269 -2.4484 0
M  V30 4110 H 386.475 -5.16799 -0.337459 0
M  V30 4111 H 383.152 -3.48718 -2.2957 0
M  V30 4112 H 384.542 -6.71768 0.132992 0
M  V30 4113 N 387.262 0.0317525 -1.57568 0
M  V30 4114 C 388.209 1.0332 -2.06382 0
M  V30 4115 C 389.179 1.36082 -0.952414 0
M  V30 4116 O 390.364 1.46466 -1.2228 0
M  V30 4117 C 387.504 2.32989 -2.54578 0
M  V30 4118 C 386.617 2.0641 -3.79498 0
M  V30 4119 C 385.752 3.2993 -4.16317 0
M  V30 4120 C 384.791 2.98893 -5.34162 0
M  V30 4121 N 383.928 4.14857 -5.66426 0
M  V30 4122 H 388.768 0.609982 -2.9169 0
M  V30 4123 H 386.305 0.289573 -1.44222 0
M  V30 4124 H 388.263 3.0875 -2.80587 0
M  V30 4125 H 386.893 2.73039 -1.7219 0
M  V30 4126 H 385.945 1.21158 -3.6059 0
M  V30 4127 H 387.257 1.79513 -4.65378 0
M  V30 4128 H 386.411 4.1406 -4.4344 0
M  V30 4129 H 385.15 3.59938 -3.29083 0
M  V30 4130 H 384.155 2.13164 -5.06795 0
M  V30 4131 H 385.38 2.70165 -6.23047 0
M  V30 4132 H 383.326 4.44821 -4.82151 0
M  V30 4133 H 383.243 3.91374 -6.4681 0
M  V30 4134 H 384.511 4.99868 -5.98124 0
M  V30 4135 N 388.74 1.54641 0.303973 0
M  V30 4136 C 390.017 1.64455 1.05896 0
M  V30 4137 C 390.397 0.490923 2.05312 0
M  V30 4138 O 389.745 -0.512685 2.22674 0
M  V30 4139 C 389.955 3.02331 1.74347 0
M  V30 4140 C 391.303 3.59045 2.26653 0
M  V30 4141 O 392.327 3.04764 1.84384 0
M  V30 4142 O 391.186 4.54081 3.04093 0
M  V30 4143 H 388.28 0.666729 0.489287 0
M  V30 4144 H 390.826 1.66986 0.302298 0
M  V30 4145 H 389.598 3.77734 1.02142 0
M  V30 4146 H 389.221 3.03565 2.56777 0
M  V30 4147 N 390.218 -0.567019 1.47046 0
M  V30 4148 C 391.448 -1.34831 1.56538 0
M  V30 4149 C 391.856 -1.8802 0.21101 0
M  V30 4150 O 391.199 -1.65152 -0.804387 0
M  V30 4151 C 391.261 -2.56139 2.52256 0
M  V30 4152 C 390.925 -2.24307 3.98165 0
M  V30 4153 C 391.922 -1.82192 4.86931 0
M  V30 4154 C 389.607 -2.35968 4.43423 0
M  V30 4155 C 391.601 -1.52153 6.18973 0
M  V30 4156 C 389.288 -2.05542 5.75496 0
M  V30 4157 C 390.286 -1.63701 6.63092 0
M  V30 4158 O 389.974 -1.33657 7.92711 0
M  V30 4159 H 389.706 -0.417683 0.531523 0
M  V30 4160 H 392.26 -0.694726 1.93294 0
M  V30 4161 H 390.49 -3.24356 2.10548 0
M  V30 4162 H 392.179 -3.18214 2.51982 0
M  V30 4163 H 392.945 -1.72684 4.53217 0
M  V30 4164 H 388.824 -2.67495 3.75456 0
M  V30 4165 H 392.368 -1.19421 6.87302 0
M  V30 4166 H 388.265 -2.14679 6.08755 0
M  V30 4167 H 389.033 -1.4737 8.05124 0
M  V30 4168 N 391.696 -1.35014 -0.812953 0
M  V30 4169 C 392.921 -1.31187 -1.60639 0
M  V30 4170 C 393.346 0.109382 -1.87782 0
M  V30 4171 O 392.704 1.07424 -1.46047 0
M  V30 4172 C 392.752 -2.11809 -2.91838 0
M  V30 4173 O 391.856 -1.49444 -3.8437 0
M  V30 4174 H 391.197 -0.450084 -0.488181 0
M  V30 4175 H 393.727 -1.77963 -1.00947 0
M  V30 4176 H 393.737 -2.23531 -3.41318 0
M  V30 4177 H 392.412 -3.15137 -2.71407 0
M  V30 4178 H 390.989 -1.46524 -3.42907 0
M  V30 4179 N 393.175 1.03435 -1.18907 0
M  V30 4180 C 394.138 2.09756 -0.923844 0
M  V30 4181 C 395.138 1.60528 0.093416 0
M  V30 4182 O 396.328 1.73631 -0.140727 0
M  V30 4183 C 393.46 3.38692 -0.387354 0
M  V30 4184 H 394.653 2.34719 -1.86674 0
M  V30 4185 H 392.206 1.19959 -1.00197 0
M  V30 4186 H 392.941 3.19396 0.561845 0
M  V30 4187 H 392.726 3.75742 -1.12074 0
M  V30 4188 H 394.216 4.17016 -0.220694 0
M  V30 4189 N 394.653 0.992116 1.22453 0
M  V30 4190 C 395.93 0.583508 1.86694 0
M  V30 4191 C 396.31 -0.9392 1.89056 0
M  V30 4192 O 395.658 -1.82081 1.38053 0
M  V30 4193 C 395.868 1.20304 3.2761 0
M  V30 4194 C 397.216 1.30308 4.0411 0
M  V30 4195 O 398.24 1.15737 3.36873 0
M  V30 4196 O 397.099 1.53615 5.24466 0
M  V30 4197 H 394.193 0.198129 0.802916 0
M  V30 4198 H 396.739 1.08794 1.30238 0
M  V30 4199 H 395.511 2.24461 3.2052 0
M  V30 4200 H 395.134 0.684144 3.9167 0
M  V30 4201 N 396.131 -1.37776 0.765217 0
M  V30 4202 C 397.359 -2.04124 0.337767 0
M  V30 4203 C 397.774 -1.57715 -1.03785 0
M  V30 4204 O 397.131 -0.755447 -1.6613 0
M  V30 4205 C 397.182 -3.59658 0.364442 0
M  V30 4206 O 396.903 -4.04367 1.68579 0
M  V30 4207 C 398.404 -4.43236 -0.0754221 0
M  V30 4208 H 395.624 -0.655696 0.142491 0
M  V30 4209 H 398.168 -1.76238 1.03732 0
M  V30 4210 H 396.323 -3.86339 -0.286471 0
M  V30 4211 H 396.737 -4.98857 1.61993 0
M  V30 4212 H 398.211 -5.52 -0.00560067 0
M  V30 4213 H 398.688 -4.2455 -1.12491 0
M  V30 4214 H 399.294 -4.21767 0.547055 0
M  V30 4215 N 397.609 -0.515225 -1.4894 0
M  V30 4216 C 398.539 0.244628 -2.32215 0
M  V30 4217 C 399.52 0.949136 -1.41157 0
M  V30 4218 O 400.705 0.937783 -1.70057 0
M  V30 4219 C 397.835 1.30096 -3.22013 0
M  V30 4220 C 396.789 0.715486 -4.21977 0
M  V30 4221 C 396.115 1.87339 -5.00808 0
M  V30 4222 C 397.415 -0.302982 -5.2142 0
M  V30 4223 H 399.109 -0.450501 -2.95991 0
M  V30 4224 H 396.655 -0.218098 -1.42339 0
M  V30 4225 H 398.608 1.84037 -3.79089 0
M  V30 4226 H 397.332 2.02547 -2.56207 0
M  V30 4227 H 395.991 0.197715 -3.66066 0
M  V30 4228 H 395.639 2.58592 -4.31438 0
M  V30 4229 H 395.339 1.48764 -5.68457 0
M  V30 4230 H 396.863 2.41686 -5.60732 0
M  V30 4231 H 398.277 0.148802 -5.73107 0
M  V30 4232 H 396.674 -0.60532 -5.97039 0
M  V30 4233 H 397.744 -1.21395 -4.69459 0
M  V30 4234 N 399.087 1.5561 -0.249682 0
M  V30 4235 C 400.05 2.20217 0.635394 0
M  V30 4236 C 401.05 1.17227 1.10066 0
M  V30 4237 O 402.24 1.42292 1.00492 0
M  V30 4238 C 399.372 2.84794 1.87363 0
M  V30 4239 H 400.565 2.99814 0.0716752 0
M  V30 4240 H 398.118 1.563 -0.000153234 0
M  V30 4241 H 398.853 2.09142 2.47851 0
M  V30 4242 H 398.638 3.60241 1.5482 0
M  V30 4243 H 400.128 3.3423 2.5036 0
M  V30 4244 N 400.565 -0.0233959 1.57583 0
M  V30 4245 C 401.515 -1.03023 2.03397 0
M  V30 4246 C 402.499 -1.31701 0.924315 0
M  V30 4247 O 403.691 -1.31191 1.18819 0
M  V30 4248 C 400.82 -2.32961 2.52159 0
M  V30 4249 C 399.906 -2.07349 3.69956 0
M  V30 4250 N 400.297 -1.51814 4.82479 0
M  V30 4251 C 398.595 -2.37606 3.77438 0
M  V30 4252 C 399.296 -1.42136 5.64068 0
M  V30 4253 N 398.272 -1.89891 5.09355 0
M  V30 4254 H 402.074 -0.594962 2.87815 0
M  V30 4255 H 399.588 -0.229586 1.60769 0
M  V30 4256 H 401.585 -3.05906 2.83244 0
M  V30 4257 H 400.245 -2.77162 1.69149 0
M  V30 4258 H 401.256 -1.20008 5.03804 0
M  V30 4259 H 397.933 -2.84842 3.05239 0
M  V30 4260 H 399.323 -0.996405 6.64471 0
M  V30 4261 N 402.043 -1.548 -0.295768 0
M  V30 4262 C 402.993 -1.82497 -1.3667 0
M  V30 4263 C 403.977 -0.682434 -1.45711 0
M  V30 4264 O 405.169 -0.943207 -1.49775 0
M  V30 4265 C 402.298 -2.08036 -2.73086 0
M  V30 4266 C 401.384 -3.28488 -2.68247 0
M  V30 4267 N 401.775 -4.48924 -2.33025 0
M  V30 4268 C 400.073 -3.3062 -2.99343 0
M  V30 4269 C 400.774 -5.30956 -2.37613 0
M  V30 4270 N 399.75 -4.68805 -2.75178 0
M  V30 4271 H 403.552 -2.73175 -1.0841 0
M  V30 4272 H 401.066 -1.5437 -0.504361 0
M  V30 4273 H 403.063 -2.26027 -3.5031 0
M  V30 4274 H 401.723 -1.18629 -3.02254 0
M  V30 4275 H 402.734 -4.75432 -2.05389 0
M  V30 4276 H 399.411 -2.51336 -3.33371 0
M  V30 4277 H 400.801 -6.37199 -2.13135 0
M  V30 4278 N 403.521 0.559213 -1.47345 0
M  V30 4279 C 404.469 1.68747 -1.60085 0
M  V30 4280 C 405.463 1.628 -0.46825 0
M  V30 4281 O 406.669 1.68009 -0.645977 0
M  V30 4282 H 403.044 0.558329 -0.503759 0
M  V30 4283 H 405.015 1.55138 -2.54902 0
M  V30 4284 C 403.764 3.07103 -1.63042 0
M  V30 4285 H 403.087 3.12361 -2.49541 0
M  V30 4286 H 404.527 3.85743 -1.76006 0
M  V30 4287 C 402.986 3.34935 -0.363357 0
M  V30 4288 O 403.516 3.98102 0.536416 0
M  V30 4289 N 401.722 2.89574 -0.244 0
M  V30 4290 H 401.269 2.38348 -0.977133 0
M  V30 4291 H 401.227 3.08566 0.602836 0
M  V30 4292 N 404.999 1.35443 0.805782 0
M  V30 4293 C 406.276 1.19325 1.54987 0
M  V30 4294 C 406.656 -0.227294 2.09873 0
M  V30 4295 O 406.004 -1.2309 1.92512 0
M  V30 4296 C 406.214 2.26196 2.65775 0
M  V30 4297 C 407.562 2.62043 3.34094 0
M  V30 4298 O 408.586 2.25115 2.76046 0
M  V30 4299 O 407.445 3.25542 4.38958 0
M  V30 4300 H 404.539 0.463623 0.684823 0
M  V30 4301 H 407.085 1.47127 0.845674 0
M  V30 4302 H 405.857 3.21471 2.23096 0
M  V30 4303 H 405.48 1.99667 3.43829 0
M  V30 4304 N 406.477 -1.02803 1.19454 0
M  V30 4305 C 407.726 -1.7562 0.991996 0
M  V30 4306 C 408.039 -1.89672 -0.477901 0
M  V30 4307 O 409.245 -2.59468 -0.799287 0
M  V30 4308 C 407.701 -3.15812 1.72601 0
M  V30 4309 C 407.309 -3.0981 3.23607 0
M  V30 4310 C 409.053 -3.92918 1.60674 0
M  V30 4311 C 406.96 -4.44939 3.89594 0
M  V30 4312 H 405.89 -0.658352 0.367543 0
M  V30 4313 H 408.541 -1.15044 1.42959 0
M  V30 4314 H 406.923 -3.7686 1.21624 0
M  V30 4315 H 408.097 -2.58138 3.81709 0
M  V30 4316 H 406.412 -2.46201 3.35819 0
M  V30 4317 H 409.009 -4.9287 2.07323 0
M  V30 4318 H 409.352 -4.12502 0.561025 0
M  V30 4319 H 409.885 -3.38472 2.09001 0
M  V30 4320 H 406.624 -4.30559 4.94267 0
M  V30 4321 H 406.144 -4.96664 3.36281 0
M  V30 4322 H 407.823 -5.1382 3.93189 0
M  V30 4323 N 407.956 -0.998596 -1.21925 0
M  V30 4324 C 408.919 -0.558679 -2.22287 0
M  V30 4325 C 409.919 0.361525 -1.56683 0
M  V30 4326 O 411.109 0.152695 -1.73529 0
M  V30 4327 C 408.241 0.18661 -3.40389 0
M  V30 4328 H 409.434 -1.4463 -2.62721 0
M  V30 4329 H 406.987 -0.786413 -1.35075 0
M  V30 4330 H 407.722 1.08996 -3.05435 0
M  V30 4331 H 407.507 -0.474188 -3.89222 0
M  V30 4332 H 408.997 0.482367 -4.14805 0
M  V30 4333 N 409.434 1.37368 -0.772513 0
M  V30 4334 C 410.364 2.32856 -0.173304 0
M  V30 4335 C 411.345 1.55818 0.682262 0
M  V30 4336 O 412.53 1.84052 0.619566 0
M  V30 4337 C 409.66 3.40048 0.706007 0
M  V30 4338 C 408.614 4.27973 -0.0483144 0
M  V30 4339 C 407.94 5.26184 0.950491 0
M  V30 4340 C 409.24 5.07665 -1.22776 0
M  V30 4341 H 410.934 2.83217 -0.971002 0
M  V30 4342 H 408.48 1.3617 -0.468377 0
M  V30 4343 H 410.433 4.05827 1.13501 0
M  V30 4344 H 409.157 2.88214 1.53623 0
M  V30 4345 H 407.816 3.63726 -0.458107 0
M  V30 4346 H 407.464 4.7063 1.77529 0
M  V30 4347 H 407.164 5.85872 0.450314 0
M  V30 4348 H 408.688 5.94838 1.37842 0
M  V30 4349 H 410.102 5.66578 -0.875366 0
M  V30 4350 H 408.499 5.76681 -1.66007 0
M  V30 4351 H 409.569 4.40294 -2.03149 0
M  V30 4352 N 410.912 0.523116 1.48665 0
M  V30 4353 C 411.842 -0.23231 2.32342 0
M  V30 4354 C 412.823 -0.941637 1.41659 0
M  V30 4355 O 414.008 -0.928751 1.70552 0
M  V30 4356 C 411.138 -1.28387 3.22698 0
M  V30 4357 C 410.092 -0.693098 4.22351 0
M  V30 4358 C 409.418 -1.8468 5.01794 0
M  V30 4359 C 410.718 0.33063 5.21252 0
M  V30 4360 H 412.412 0.466192 2.95748 0
M  V30 4361 H 409.958 0.225643 1.42221 0
M  V30 4362 H 411.911 -1.82024 3.80059 0
M  V30 4363 H 410.635 -2.01186 2.57278 0
M  V30 4364 H 409.294 -0.178299 3.66166 0
M  V30 4365 H 408.942 -2.56301 4.32804 0
M  V30 4366 H 408.642 -1.45747 5.69238 0
M  V30 4367 H 410.166 -2.38709 5.62006 0
M  V30 4368 H 411.58 -0.118407 5.73178 0
M  V30 4369 H 409.977 0.636974 5.9671 0
M  V30 4370 H 411.047 1.23883 4.68808 0
M  V30 4371 N 412.39 -1.55475 0.257931 0
M  V30 4372 C 413.337 -2.21837 -0.636939 0
M  V30 4373 C 414.307 -1.18596 -1.16294 0
M  V30 4374 O 415.492 -1.47081 -1.21539 0
M  V30 4375 C 412.632 -2.9301 -1.82317 0
M  V30 4376 C 411.745 -4.10931 -1.33265 0
M  V30 4377 C 410.88 -4.69791 -2.47931 0
M  V30 4378 C 409.919 -5.7994 -1.95796 0
M  V30 4379 N 409.056 -6.32935 -3.0387 0
M  V30 4380 H 413.896 -2.9793 -0.0643591 0
M  V30 4381 H 411.433 -1.47086 -0.0200031 0
M  V30 4382 H 413.391 -3.3248 -2.52018 0
M  V30 4383 H 412.021 -2.1937 -2.36805 0
M  V30 4384 H 411.073 -3.76699 -0.52931 0
M  V30 4385 H 412.385 -4.90417 -0.910654 0
M  V30 4386 H 411.539 -5.11892 -3.25656 0
M  V30 4387 H 410.278 -3.89545 -2.93438 0
M  V30 4388 H 409.283 -5.37305 -1.16546 0
M  V30 4389 H 410.508 -6.62043 -1.51246 0
M  V30 4390 H 408.454 -5.55591 -3.48791 0
M  V30 4391 H 408.371 -7.07645 -2.66035 0
M  V30 4392 H 409.639 -6.79695 -3.81621 0
M  V30 4393 N 413.868 0.0150385 -1.57593 0
M  V30 4394 C 415.117 0.702115 -1.89085 0
M  V30 4395 C 415.43 1.75764 -0.858277 0
M  V30 4396 O 416.636 2.49829 -1.0629 0
M  V30 4397 C 415.092 1.29992 -3.35604 0
M  V30 4398 C 414.7 0.280007 -4.47124 0
M  V30 4399 C 416.444 1.96606 -3.76227 0
M  V30 4400 C 414.351 0.886949 -5.84711 0
M  V30 4401 H 413.281 0.265997 -0.705522 0
M  V30 4402 H 415.932 -0.0430408 -1.8345 0
M  V30 4403 H 414.314 2.09525 -3.36029 0
M  V30 4404 H 415.488 -0.489631 -4.58191 0
M  V30 4405 H 413.803 -0.284835 -4.15425 0
M  V30 4406 H 416.4 2.42893 -4.76347 0
M  V30 4407 H 416.743 2.79024 -3.08952 0
M  V30 4408 H 417.276 1.23828 -3.78036 0
M  V30 4409 H 414.015 0.101876 -6.55421 0
M  V30 4410 H 413.535 1.6261 -5.77337 0
M  V30 4411 H 415.214 1.39011 -6.3189 0
M  V30 4412 N 415.346 1.54954 0.287554 0
M  V30 4413 C 416.762 1.46469 0.633964 0
M  V30 4414 C 416.962 0.666865 1.90145 0
M  V30 4415 O 416.018 0.179906 2.51858 0
M  V30 4416 C 417.331 2.90556 0.774454 0
M  V30 4417 C 418.879 3.00681 0.869462 0
M  V30 4418 C 419.354 4.45993 1.04184 0
M  V30 4419 N 420.845 4.4976 1.10772 0
M  V30 4420 C 421.58 5.59393 1.25964 0
M  V30 4421 N 421.076 6.78923 1.37968 0
M  V30 4422 N 422.869 5.47107 1.28959 0
M  V30 4423 H 415.02 2.05288 -0.545041 0
M  V30 4424 H 417.283 0.930305 -0.182308 0
M  V30 4425 H 416.989 3.51594 -0.086207 0
M  V30 4426 H 416.863 3.38743 1.6593 0
M  V30 4427 H 419.25 2.39749 1.7206 0
M  V30 4428 H 419.331 2.55769 -0.0396831 0
M  V30 4429 H 418.975 5.07524 0.195422 0
M  V30 4430 H 418.905 4.88548 1.96542 0
M  V30 4431 H 421.396 3.63651 1.02794 0
M  V30 4432 H 421.709 7.58231 1.49353 0
M  V30 4433 H 420.054 6.81763 1.34999 0
M  V30 4434 H 423.245 4.52668 1.19202 0
M  V30 4435 H 423.418 6.32595 1.40455 0
M  V30 4436 N 416.824 -0.551391 1.4764 0
M  V30 4437 C 418.049 -1.33837 1.58437 0
M  V30 4438 C 418.474 -1.866 0.237063 0
M  V30 4439 O 417.832 -1.6328 -0.787994 0
M  V30 4440 C 417.88 -2.48014 2.61766 0
M  V30 4441 O 416.984 -3.50419 2.1744 0
M  V30 4442 H 416.325 -0.397299 0.532024 0
M  V30 4443 H 418.855 -0.665759 1.93465 0
M  V30 4444 H 418.865 -2.94503 2.82369 0
M  V30 4445 H 417.54 -2.08969 3.5959 0
M  V30 4446 H 416.117 -3.10196 2.06961 0
M  V30 4447 N 418.302 -1.35869 -0.798587 0
M  V30 4448 C 419.249 -1.29446 -1.91082 0
M  V30 4449 C 420.219 -0.16487 -1.6528 0
M  V30 4450 O 421.404 -0.349888 -1.87564 0
M  V30 4451 C 418.544 -1.0804 -3.27752 0
M  V30 4452 C 417.657 -2.29993 -3.65687 0
M  V30 4453 C 416.792 -2.01673 -4.91428 0
M  V30 4454 C 415.831 -3.19636 -5.22015 0
M  V30 4455 N 414.968 -2.91039 -6.38937 0
M  V30 4456 H 419.808 -2.24553 -1.95907 0
M  V30 4457 H 417.345 -1.11615 -0.958148 0
M  V30 4458 H 419.303 -0.936586 -4.06551 0
M  V30 4459 H 417.933 -0.16592 -3.22373 0
M  V30 4460 H 416.985 -2.55211 -2.82085 0
M  V30 4461 H 418.297 -3.18052 -3.84245 0
M  V30 4462 H 417.451 -1.84168 -5.78072 0
M  V30 4463 H 416.19 -1.10911 -4.74921 0
M  V30 4464 H 415.195 -3.37709 -4.33858 0
M  V30 4465 H 416.42 -4.11211 -5.40447 0
M  V30 4466 H 414.366 -2.0288 -6.2384 0
M  V30 4467 H 414.283 -3.72635 -6.57784 0
M  V30 4468 H 415.551 -2.77093 -7.28587 0
M  V30 4469 N 419.78 1.02168 -1.19998 0
M  V30 4470 C 420.69 2.14069 -0.959774 0
M  V30 4471 C 421.706 1.73804 0.082655 0
M  V30 4472 O 422.882 2.01133 -0.103633 0
M  V30 4473 C 419.947 3.42936 -0.509459 0
M  V30 4474 C 419.008 3.97474 -1.62213 0
M  V30 4475 C 418.241 5.2019 -1.19321 0
M  V30 4476 O 418.464 5.70369 -0.0597726 0
M  V30 4477 O 417.398 5.67749 -1.99863 0
M  V30 4478 H 421.224 2.37199 -1.89658 0
M  V30 4479 H 418.809 1.12469 -0.983411 0
M  V30 4480 H 420.691 4.20551 -0.267322 0
M  V30 4481 H 419.366 3.21234 0.398821 0
M  V30 4482 H 418.273 3.21161 -1.9185 0
M  V30 4483 H 419.606 4.23555 -2.50723 0
M  V30 4484 N 421.258 1.00505 1.21394 0
M  V30 4485 C 422.506 0.686415 1.90086 0
M  V30 4486 C 422.827 -0.785264 1.7849 0
M  V30 4487 O 422.097 -1.56387 1.17983 0
M  V30 4488 H 420.677 0.2509 0.703604 0
M  V30 4489 H 423.339 1.27417 1.47482 0
M  V30 4490 H 422.435 0.959621 2.96981 0
M  V30 4491 N 422.737 -1.36956 0.779787 0
M  V30 4492 C 424.153 -1.52817 0.460342 0
M  V30 4493 C 424.353 -1.7361 -1.02283 0
M  V30 4494 O 423.409 -1.76207 -1.80852 0
M  V30 4495 C 424.722 -2.71983 1.28241 0
M  V30 4496 C 426.27 -2.85849 1.27512 0
M  V30 4497 C 426.745 -4.08008 2.08072 0
M  V30 4498 N 428.236 -4.15135 2.05467 0
M  V30 4499 C 428.971 -5.08711 2.64577 0
M  V30 4500 N 428.467 -6.07792 3.32506 0
M  V30 4501 N 430.26 -5.01254 2.54363 0
M  V30 4502 H 422.411 -1.21713 1.74068 0
M  V30 4503 H 424.674 -0.593294 0.739396 0
M  V30 4504 H 424.38 -2.63109 2.33381 0
M  V30 4505 H 424.254 -3.65882 0.917088 0
M  V30 4506 H 426.641 -2.94189 0.231686 0
M  V30 4507 H 426.722 -1.92886 1.68014 0
M  V30 4508 H 426.366 -4.00429 3.12441 0
M  V30 4509 H 426.296 -5.001 1.64947 0
M  V30 4510 H 428.787 -3.44189 1.5602 0
M  V30 4511 H 429.1 -6.75739 3.74963 0
M  V30 4512 H 427.445 -6.08047 3.36606 0
M  V30 4513 H 430.636 -4.22795 2.00902 0
M  V30 4514 H 430.809 -5.73995 3.00722 0
M  V30 4515 N 424.215 -0.530993 -1.48385 0
M  V30 4516 C 425.455 0.000718982 -2.044 0
M  V30 4517 C 425.819 1.31485 -1.39913 0
M  V30 4518 O 427.02 1.93265 -1.86821 0
M  V30 4519 C 425.291 0.119177 -3.57201 0
M  V30 4520 S 426.85 0.600806 -4.34667 0
M  V30 4521 H 423.668 -0.0125473 -0.710889 0
M  V30 4522 H 426.27 -0.711783 -1.82082 0
M  V30 4523 H 424.974 -0.842061 -4.01668 0
M  V30 4524 H 424.505 0.856026 -3.83974 0
M  V30 4525 H 426.52 1.86514 -4.59812 0
M  V30 4526 N 425.693 1.55336 -0.266172 0
M  V30 4527 C 426.656 2.20878 0.612001 0
M  V30 4528 C 427.656 1.18388 1.08816 0
M  V30 4529 O 428.846 1.4335 0.989774 0
M  V30 4530 C 425.978 2.86765 1.84332 0
M  V30 4531 H 427.171 2.99873 0.0398718 0
M  V30 4532 H 424.724 1.56291 -0.0167309 0
M  V30 4533 H 425.459 2.11759 2.45619 0
M  V30 4534 H 425.244 3.61862 1.5099 0
M  V30 4535 H 426.734 3.36867 2.46801 0
M  V30 4536 N 427.171 -0.0066808 1.57599 0
M  V30 4537 C 428.103 -1.02827 2.04839 0
M  V30 4538 C 429.116 -1.31108 0.965113 0
M  V30 4539 O 430.305 -1.28202 1.24203 0
M  V30 4540 C 427.405 -2.36464 2.42771 0
M  V30 4541 C 426.578 -2.27219 3.73751 0
M  V30 4542 C 425.637 -3.43489 3.98625 0
M  V30 4543 O 424.663 -3.21976 4.69382 0
M  V30 4544 N 425.865 -4.66116 3.46 0
M  V30 4545 H 428.63 -0.625455 2.93101 0
M  V30 4546 H 426.191 -0.194198 1.60731 0
M  V30 4547 H 428.183 -3.13008 2.56531 0
M  V30 4548 H 426.753 -2.68512 1.60063 0
M  V30 4549 H 425.973 -1.35629 3.70133 0
M  V30 4550 H 427.261 -2.18208 4.59633 0
M  V30 4551 H 426.659 -4.86493 2.88688 0
M  V30 4552 H 425.216 -5.39949 3.65101 0
M  V30 4553 N 428.649 -1.55105 -0.279332 0
M  V30 4554 C 430.06 -1.66186 -0.850832 0
M  V30 4555 C 430.411 -0.584707 -1.87285 0
M  V30 4556 O 429.536 0.274919 -2.14647 0
M  V30 4557 C 430.131 -3.01264 -1.55001 0
M  V30 4558 C 428.69 -3.14394 -2.06963 0
M  V30 4559 C 427.837 -2.61959 -0.909536 0
M  V30 4560 H 430.788 -1.58602 -0.0558235 0
M  V30 4561 H 430.809 -2.93899 -2.41669 0
M  V30 4562 H 430.321 -3.7964 -0.805931 0
M  V30 4563 H 428.422 -2.4078 -2.84352 0
M  V30 4564 H 428.535 -4.20867 -2.28928 0
M  V30 4565 H 426.899 -2.18957 -1.30116 0
M  V30 4566 H 427.682 -3.42833 -0.179062 0
M  V30 4567 N 430.127 0.543554 -1.4793 0
M  V30 4568 C 431.352 1.32995 -1.59145 0
M  V30 4569 C 431.777 1.86472 -0.246956 0
M  V30 4570 O 431.135 1.63696 0.779324 0
M  V30 4571 C 431.183 2.46623 -2.63077 0
M  V30 4572 O 430.287 3.49261 -2.19295 0
M  V30 4573 H 429.628 0.394472 -0.534124 0
M  V30 4574 H 432.158 0.655489 -1.93816 0
M  V30 4575 H 432.168 2.93001 -2.83926 0
M  V30 4576 H 430.843 2.07059 -3.60693 0
M  V30 4577 H 429.42 3.09094 -2.08603 0
M  V30 4578 N 431.605 1.3629 0.791371 0
M  V30 4579 C 433.021 1.16661 1.08914 0
M  V30 4580 C 433.221 -0.0106266 2.01497 0
M  V30 4581 O 432.277 -0.676596 2.43266 0
M  V30 4582 C 433.59 2.47656 1.70549 0
M  V30 4583 C 435.138 2.54002 1.82899 0
M  V30 4584 C 435.613 3.85078 2.47949 0
M  V30 4585 N 437.104 3.86413 2.5542 0
M  V30 4586 C 437.839 4.84572 3.06557 0
M  V30 4587 N 437.335 5.93124 3.58016 0
M  V30 4588 N 439.128 4.71994 3.05251 0
M  V30 4589 H 431.279 2.11668 0.176238 0
M  V30 4590 H 433.542 0.937486 0.140796 0
M  V30 4591 H 433.248 3.34059 1.09989 0
M  V30 4592 H 433.122 2.63319 2.70079 0
M  V30 4593 H 435.509 1.68018 2.42598 0
M  V30 4594 H 435.59 2.42239 0.821808 0
M  V30 4595 H 435.234 4.71467 1.88895 0
M  V30 4596 H 435.164 3.94135 3.49235 0
M  V30 4597 H 437.655 3.07988 2.18979 0
M  V30 4598 H 437.968 6.63999 3.95381 0
M  V30 4599 H 436.313 5.96796 3.56173 0
M  V30 4600 H 439.504 3.86321 2.64336 0
M  V30 4601 H 439.677 5.48653 3.44796 0
M  V30 4602 N 433.083 -1.0153 1.20538 0
M  V30 4603 C 434.311 -1.78746 1.04199 0
M  V30 4604 C 434.726 -1.84323 -0.408733 0
M  V30 4605 O 434.083 -1.29714 -1.28377 0
M  V30 4606 C 434.134 -3.23152 1.62035 0
M  V30 4607 O 433.855 -3.17918 3.0143 0
M  V30 4608 C 435.356 -4.16911 1.50666 0
M  V30 4609 H 432.576 -0.56208 0.366479 0
M  V30 4610 H 435.12 -1.27794 1.59653 0
M  V30 4611 H 433.275 -3.71248 1.10697 0
M  V30 4612 H 433.689 -4.08567 3.28897 0
M  V30 4613 H 435.163 -5.16072 1.95892 0
M  V30 4614 H 435.64 -4.36791 0.459363 0
M  V30 4615 H 436.246 -3.74698 2.01201 0
M  V30 4616 N 434.561 -1.01147 -1.20859 0
M  V30 4617 C 435.81 -0.693214 -1.89413 0
M  V30 4618 C 436.123 0.779969 -1.79376 0
M  V30 4619 O 437.329 1.21057 -2.43017 0
M  V30 4620 C 435.785 -1.18949 -3.39675 0
M  V30 4621 C 435.393 -2.68921 -3.58309 0
M  V30 4622 C 437.137 -0.94642 -4.13815 0
M  V30 4623 C 435.044 -3.12056 -5.0237 0
M  V30 4624 H 433.974 -0.255595 -0.709357 0
M  V30 4625 H 436.625 -1.22349 -1.36759 0
M  V30 4626 H 435.007 -0.587228 -3.91622 0
M  V30 4627 H 436.181 -3.34652 -3.16772 0
M  V30 4628 H 434.496 -2.91314 -2.97532 0
M  V30 4629 H 437.093 -1.24417 -5.20023 0
M  V30 4630 H 437.436 0.117219 -4.16135 0
M  V30 4631 H 437.969 -1.5118 -3.67953 0
M  V30 4632 H 434.708 -4.17674 -5.05202 0
M  V30 4633 H 434.228 -2.51041 -5.44737 0
M  V30 4634 H 435.907 -3.04403 -5.70918 0
M  V30 4635 N 436.039 1.36541 -0.78704 0
M  V30 4636 C 436.971 2.28761 -0.141773 0
M  V30 4637 C 437.984 1.49365 0.647599 0
M  V30 4638 O 439.173 1.71836 0.483173 0
M  V30 4639 C 436.273 3.28771 0.822368 0
M  V30 4640 C 435.446 4.3732 0.0835594 0
M  V30 4641 C 434.505 5.17307 0.963296 0
M  V30 4642 O 433.531 5.67638 0.421419 0
M  V30 4643 N 434.733 5.33515 2.28784 0
M  V30 4644 H 437.498 2.84777 -0.933919 0
M  V30 4645 H 435.059 1.48682 -0.640735 0
M  V30 4646 H 437.051 3.79169 1.41468 0
M  V30 4647 H 435.621 2.73412 1.5154 0
M  V30 4648 H 434.841 3.88118 -0.689809 0
M  V30 4649 H 436.129 5.0701 -0.426358 0
M  V30 4650 H 435.527 4.94234 2.75226 0
M  V30 4651 H 434.084 5.87165 2.82985 0
M  V30 4652 N 437.518 0.538854 1.48102 0
M  V30 4653 C 438.746 0.0123136 2.06896 0
M  V30 4654 C 439.161 -1.27312 1.39417 0
M  V30 4655 O 438.518 -1.75949 0.484582 0
M  V30 4656 C 438.569 -0.206118 3.60912 0
M  V30 4657 O 438.29 1.0284 4.25859 0
M  V30 4658 C 439.791 -0.772033 4.36526 0
M  V30 4659 H 437.011 0.0375239 0.66995 0
M  V30 4660 H 439.555 0.747032 1.90367 0
M  V30 4661 H 437.71 -0.89091 3.77017 0
M  V30 4662 H 438.124 0.814654 5.18135 0
M  V30 4663 H 439.598 -0.874251 5.45033 0
M  V30 4664 H 440.075 -1.77904 4.01555 0
M  V30 4665 H 440.681 -0.123526 4.25121 0
M  V30 4666 N 438.996 -1.55193 0.274407 0
M  V30 4667 C 440.245 -1.98758 -0.343213 0
M  V30 4668 C 440.558 -1.16624 -1.5703 0
M  V30 4669 O 441.764 -1.5033 -2.26082 0
M  V30 4670 C 440.22 -3.53759 -0.661996 0
M  V30 4671 C 439.828 -4.4467 0.54524 0
M  V30 4672 C 441.572 -4.05916 -1.24228 0
M  V30 4673 C 439.479 -5.91058 0.201084 0
M  V30 4674 H 438.409 -0.742353 -0.132014 0
M  V30 4675 H 441.06 -1.79545 0.378948 0
M  V30 4676 H 439.442 -3.68772 -1.44304 0
M  V30 4677 H 440.616 -4.41426 1.32212 0
M  V30 4678 H 438.931 -4.03143 1.04232 0
M  V30 4679 H 441.528 -5.12831 -1.51357 0
M  V30 4680 H 441.871 -3.54908 -2.17592 0
M  V30 4681 H 442.404 -3.9434 -0.523542 0
M  V30 4682 H 439.143 -6.46161 1.10258 0
M  V30 4683 H 438.663 -5.97373 -0.539045 0
M  V30 4684 H 440.342 -6.46669 -0.206954 0
M  V30 4685 N 440.474 -0.00167713 -1.576 0
M  V30 4686 C 441.714 0.687302 -1.92498 0
M  V30 4687 C 442.078 1.70844 -0.876144 0
M  V30 4688 O 443.279 2.44792 -1.11043 0
M  V30 4689 C 441.55 1.31217 -3.32441 0
M  V30 4690 S 443.109 2.02604 -3.89226 0
M  V30 4691 H 439.927 0.226985 -0.673794 0
M  V30 4692 H 442.529 -0.0587666 -1.95412 0
M  V30 4693 H 441.233 0.556164 -4.06614 0
M  V30 4694 H 440.764 2.09613 -3.32905 0
M  V30 4695 H 442.779 3.30137 -3.70438 0
M  V30 4696 N 441.952 1.55251 0.271103 0
M  V30 4697 C 442.882 1.9127 1.33933 0
M  V30 4698 C 443.863 0.77478 1.5143 0
M  V30 4699 O 445.048 1.03307 1.64442 0
M  V30 4700 C 442.178 2.18627 2.69851 0
M  V30 4701 C 441.132 3.34442 2.67081 0
M  V30 4702 C 440.458 3.47284 4.06569 0
M  V30 4703 C 441.758 4.70784 2.26185 0
M  V30 4704 H 443.452 2.80744 1.04035 0
M  V30 4705 H 440.998 1.35077 0.499017 0
M  V30 4706 H 442.951 2.42413 3.44694 0
M  V30 4707 H 441.675 1.25955 3.01335 0
M  V30 4708 H 440.334 3.10627 1.94695 0
M  V30 4709 H 439.982 2.52074 4.35279 0
M  V30 4710 H 439.682 4.25152 4.0561 0
M  V30 4711 H 441.206 3.73363 4.83148 0
M  V30 4712 H 442.62 4.94102 2.90751 0
M  V30 4713 H 441.017 5.51582 2.36384 0
M  V30 4714 H 442.087 4.69478 1.21319 0
M  V30 4715 N 443.43 -0.535701 1.48216 0
M  V30 4716 C 444.841 -1.11769 1.49548 0
M  V30 4717 C 445.192 -1.94442 0.26207 0
M  V30 4718 O 444.317 -2.06987 -0.631287 0
M  V30 4719 C 444.912 -2.03367 2.70975 0
M  V30 4720 C 443.471 -2.56795 2.75196 0
M  V30 4721 C 442.618 -1.33631 2.42977 0
M  V30 4722 H 445.569 -0.321232 1.55415 0
M  V30 4723 H 445.59 -2.87569 2.49167 0
M  V30 4724 H 445.102 -1.43169 3.60727 0
M  V30 4725 H 443.203 -3.20731 1.89638 0
M  V30 4726 H 443.316 -2.9632 3.76472 0
M  V30 4727 H 441.68 -1.6502 1.94012 0
M  V30 4728 H 442.463 -0.75194 3.34964 0
M  V30 4729 N 444.908 -1.36708 -0.784132 0
M  V30 4730 C 446.133 -1.34565 -1.5782 0
M  V30 4731 C 446.558 0.0695257 -1.87971 0
M  V30 4732 O 445.916 1.04302 -1.48293 0
M  V30 4733 C 445.964 -2.17952 -2.87279 0
M  V30 4734 O 445.068 -1.57563 -3.81114 0
M  V30 4735 H 444.409 -0.460337 -0.478524 0
M  V30 4736 H 446.939 -1.80064 -0.971495 0
M  V30 4737 H 446.949 -2.30721 -3.365 0
M  V30 4738 H 445.624 -3.20823 -2.64661 0
M  V30 4739 H 444.201 -1.53764 -3.39722 0
M  V30 4740 N 446.386 1.0089 -1.21074 0
M  V30 4741 C 447.319 2.09279 -0.909806 0
M  V30 4742 C 448.297 1.61986 0.141145 0
M  V30 4743 O 449.481 1.88495 0.0130332 0
M  V30 4744 C 446.608 3.36723 -0.365374 0
M  V30 4745 C 445.654 4.02919 -1.39852 0
M  V30 4746 S 446.487 4.45835 -2.96633 0
M  V30 4747 C 447.643 5.76471 -2.43786 0
M  V30 4748 H 447.876 2.34484 -1.82769 0
M  V30 4749 H 445.409 1.14115 -1.04006 0
M  V30 4750 H 447.367 4.10459 -0.0578203 0
M  V30 4751 H 446.028 3.09577 0.531136 0
M  V30 4752 H 445.221 4.94634 -0.967117 0
M  V30 4753 H 444.823 3.35441 -1.65395 0
M  V30 4754 H 447.115 6.52027 -1.84029 0
M  V30 4755 H 448.058 6.24418 -3.33928 0
M  V30 4756 H 448.466 5.33104 -1.85636 0
M  V30 4757 N 447.864 1.01787 1.20321 0
M  V30 4758 C 449.094 0.72614 1.93419 0
M  V30 4759 C 449.502 -0.717317 1.75075 0
M  V30 4760 O 448.845 -1.49836 1.06278 0
M  V30 4761 C 448.907 0.983621 3.45782 0
M  V30 4762 C 448.571 2.41645 3.87888 0
M  V30 4763 C 449.568 3.39732 3.93545 0
M  V30 4764 C 447.253 2.75752 4.19841 0
M  V30 4765 C 449.247 4.69988 4.30569 0
M  V30 4766 C 446.934 4.06221 4.56539 0
M  V30 4767 C 447.932 5.0315 4.61876 0
M  V30 4768 O 447.62 6.31284 4.97731 0
M  V30 4769 H 447.352 0.265824 0.621541 0
M  V30 4770 H 449.906 1.3623 1.53722 0
M  V30 4771 H 448.136 0.290301 3.85609 0
M  V30 4772 H 449.825 0.683279 4.00108 0
M  V30 4773 H 450.591 3.14718 3.69022 0
M  V30 4774 H 446.47 2.00993 4.14877 0
M  V30 4775 H 450.014 5.45642 4.3465 0
M  V30 4776 H 445.911 4.31013 4.80518 0
M  V30 4777 H 446.679 6.35591 5.15719 0
M  V30 4778 N 449.342 -1.36122 0.79427 0
M  V30 4779 C 450.29 -2.31871 0.184023 0
M  V30 4780 C 451.284 -1.56041 -0.659365 0
M  V30 4781 O 452.49 -1.71266 -0.553906 0
M  V30 4782 H 448.865 -0.750896 0.0407373 0
M  V30 4783 H 450.836 -2.80898 1.00693 0
M  V30 4784 C 449.585 -3.41324 -0.662813 0
M  V30 4785 H 448.908 -3.99793 -0.0231944 0
M  V30 4786 H 450.348 -4.10629 -1.05639 0
M  V30 4787 C 448.807 -2.83308 -1.82313 0
M  V30 4788 O 449.337 -2.75863 -2.91997 0
M  V30 4789 N 447.543 -2.40529 -1.63077 0
M  V30 4790 H 447.09 -2.46785 -0.738591 0
M  V30 4791 H 447.048 -2.02059 -2.40872 0
M  V30 4792 N 450.82 -0.546701 -1.47814 0
M  V30 4793 C 452.097 0.0464413 -1.95545 0
M  V30 4794 C 452.477 1.4962 -1.48919 0
M  V30 4795 O 451.825 2.16752 -0.723232 0
M  V30 4796 C 452.035 -0.0881298 -3.48889 0
M  V30 4797 C 453.383 0.0626059 -4.24554 0
M  V30 4798 O 454.407 -0.0151555 -3.56197 0
M  V30 4799 O 453.266 0.228071 -5.46024 0
M  V30 4800 H 450.36 0.0700004 -0.824032 0
M  V30 4801 H 452.906 -0.612482 -1.58262 0
M  V30 4802 H 451.678 -1.09737 -3.75597 0
M  V30 4803 H 451.301 0.608886 -3.9291 0
M  V30 4804 N 452.299 1.55045 -0.282633 0
M  V30 4805 C 453.71 1.85473 0.213655 0
M  V30 4806 C 454.061 1.20465 1.54863 0
M  V30 4807 O 453.186 0.495676 2.10647 0
M  V30 4808 C 453.781 3.36496 0.394445 0
M  V30 4809 C 452.34 3.67022 0.834961 0
M  V30 4810 C 451.487 2.77218 -0.0674081 0
M  V30 4811 H 454.438 1.50478 -0.504202 0
M  V30 4812 H 454.459 3.60007 1.23186 0
M  V30 4813 H 453.971 3.83782 -0.577326 0
M  V30 4814 H 452.072 3.25241 1.81794 0
M  V30 4815 H 452.185 4.74433 0.667075 0
M  V30 4816 H 450.549 2.5069 0.450196 0
M  V30 4817 H 451.332 3.2732 -1.0352 0
M  V30 4818 N 453.777 0.010035 1.57597 0
M  V30 4819 C 454.709 -1.00649 2.05918 0
M  V30 4820 C 455.722 -1.30077 0.978964 0
M  V30 4821 O 456.911 -1.26878 1.25556 0
M  V30 4822 C 454.011 -2.33876 2.45265 0
M  V30 4823 C 453.184 -2.23242 3.7614 0
M  V30 4824 C 452.243 -3.39242 4.02245 0
M  V30 4825 O 451.269 -3.1698 4.72771 0
M  V30 4826 N 452.471 -4.6242 3.50924 0
M  V30 4827 H 455.236 -0.594333 2.93748 0
M  V30 4828 H 452.797 -0.17714 1.60928 0
M  V30 4829 H 454.789 -3.1027 2.59836 0
M  V30 4830 H 453.359 -2.66799 1.62902 0
M  V30 4831 H 452.579 -1.31696 3.71551 0
M  V30 4832 H 453.867 -2.13321 4.61922 0
M  V30 4833 H 453.265 -4.83404 2.93832 0
M  V30 4834 H 451.822 -5.36046 3.70807 0
M  V30 4835 N 455.255 -1.55392 -0.262866 0
M  V30 4836 C 456.502 -1.76476 -0.993109 0
M  V30 4837 C 456.83 -0.571479 -1.85915 0
M  V30 4838 O 456.085 0.445733 -1.90556 0
M  V30 4839 C 456.384 -3.02889 -1.89718 0
M  V30 4840 C 456.05 -4.34974 -1.18781 0
M  V30 4841 C 454.712 -4.7087 -0.991699 0
M  V30 4842 C 457.064 -5.16695 -0.683798 0
M  V30 4843 C 454.392 -5.86036 -0.279024 0
M  V30 4844 C 456.744 -6.32598 0.0153327 0
M  V30 4845 C 455.408 -6.67127 0.223062 0
M  V30 4846 H 454.678 -0.64577 -0.363404 0
M  V30 4847 H 457.325 -1.89664 -0.264525 0
M  V30 4848 H 455.63 -2.84644 -2.6923 0
M  V30 4849 H 457.327 -3.16399 -2.46359 0
M  V30 4850 H 453.917 -4.06765 -1.35058 0
M  V30 4851 H 458.101 -4.8943 -0.8229 0
M  V30 4852 H 453.357 -6.11306 -0.107456 0
M  V30 4853 H 457.531 -6.95171 0.413584 0
M  V30 4854 H 455.158 -7.56216 0.777265 0
M  V30 4855 N 456.733 0.527833 -1.48498 0
M  V30 4856 C 457.981 1.28101 -1.56316 0
M  V30 4857 C 458.302 1.9352 -0.239781 0
M  V30 4858 O 457.572 1.81433 0.738849 0
M  V30 4859 H 456.152 0.475793 -0.575873 0
M  V30 4860 H 458.814 0.614052 -1.84974 0
M  V30 4861 H 457.91 2.05916 -2.34532 0
M  V30 4862 N 458.211 1.37122 0.776871 0
M  V30 4863 C 459.439 1.3523 1.5659 0
M  V30 4864 C 459.854 -0.0635518 1.88693 0
M  V30 4865 O 459.211 -1.02394 1.51069 0
M  V30 4866 C 459.262 2.18583 2.8793 0
M  V30 4867 O 458.983 3.5465 2.57206 0
M  V30 4868 C 460.484 2.24612 3.82183 0
M  V30 4869 H 457.704 0.4634 0.485285 0
M  V30 4870 H 460.248 1.80392 0.963266 0
M  V30 4871 H 458.403 1.76943 3.4463 0
M  V30 4872 H 458.817 3.98286 3.41275 0
M  V30 4873 H 460.291 2.87267 4.71361 0
M  V30 4874 H 460.768 1.25309 4.20944 0
M  V30 4875 H 461.374 2.66543 3.31414 0
M  V30 4876 N 459.689 -1.00246 1.21608 0
M  V30 4877 C 460.914 -1.78167 1.06167 0
M  V30 4878 C 461.339 -1.84138 -0.384035 0
M  V30 4879 O 460.697 -1.28683 -1.27712 0
M  V30 4880 C 460.745 -3.19786 1.66642 0
M  V30 4881 O 459.849 -4.02153 0.913613 0
M  V30 4882 H 459.19 -0.549 0.37349 0
M  V30 4883 H 461.72 -1.25994 1.61204 0
M  V30 4884 H 461.73 -3.70451 1.70969 0
M  V30 4885 H 460.405 -3.14754 2.7185 0
M  V30 4886 H 458.982 -3.60711 0.945635 0
M  V30 4887 N 461.167 -1.02423 -1.1978 0
M  V30 4888 C 462.407 -0.726635 -1.91048 0
M  V30 4889 C 462.771 0.730947 -1.77542 0
M  V30 4890 O 463.972 1.14141 -2.43362 0
M  V30 4891 C 462.243 -1.15964 -3.38064 0
M  V30 4892 S 463.802 -0.985172 -4.27598 0
M  V30 4893 H 460.62 -0.264679 -0.659899 0
M  V30 4894 H 463.222 -1.31309 -1.44838 0
M  V30 4895 H 461.926 -2.21619 -3.45417 0
M  V30 4896 H 461.457 -0.566274 -3.89303 0
M  V30 4897 H 463.472 0.106946 -4.96085 0
M  V30 4898 N 462.645 1.35699 -0.801477 0
M  V30 4899 C 463.555 2.33661 -0.209691 0
M  V30 4900 C 464.571 1.6162 0.644591 0
M  V30 4901 O 465.747 1.93529 0.557545 0
M  V30 4902 C 462.812 3.40816 0.636033 0
M  V30 4903 C 461.873 4.28639 -0.238147 0
M  V30 4904 C 461.106 5.30676 0.567307 0
M  V30 4905 O 461.329 5.41174 1.8024 0
M  V30 4906 O 460.263 6.01887 -0.0391336 0
M  V30 4907 H 464.089 2.8606 -1.01996 0
M  V30 4908 H 461.674 1.38379 -0.563164 0
M  V30 4909 H 463.556 4.06301 1.11791 0
M  V30 4910 H 462.231 2.90696 1.42399 0
M  V30 4911 H 461.138 3.66152 -0.767044 0
M  V30 4912 H 462.471 4.82143 -0.989915 0
M  V30 4913 N 464.123 0.554532 1.47522 0
M  V30 4914 C 465.372 0.0273458 2.01681 0
M  V30 4915 C 465.685 -1.32962 1.43459 0
M  V30 4916 O 466.891 -1.94657 1.89265 0
M  V30 4917 C 465.347 -0.00159057 3.599 0
M  V30 4918 C 464.955 1.35197 4.27113 0
M  V30 4919 C 466.699 -0.476311 4.21819 0
M  V30 4920 C 464.606 1.28229 5.77331 0
M  V30 4921 H 463.536 0.00645269 0.753972 0
M  V30 4922 H 466.187 0.701985 1.69542 0
M  V30 4923 H 464.569 -0.741821 3.8899 0
M  V30 4924 H 465.743 2.1097 4.09668 0
M  V30 4925 H 464.058 1.76441 3.77171 0
M  V30 4926 H 466.655 -0.5468 5.31897 0
M  V30 4927 H 466.998 -1.4877 3.8881 0
M  V30 4928 H 467.531 0.20898 3.97251 0
M  V30 4929 H 464.27 2.26959 6.14955 0
M  V30 4930 H 463.79 0.566314 5.97121 0
M  V30 4931 H 465.469 0.983226 6.39485 0
M  V30 4932 N 465.601 -1.54893 0.290851 0
M  V30 4933 C 466.829 -2.04343 -0.324288 0
M  V30 4934 C 467.244 -1.16859 -1.48289 0
M  V30 4935 O 466.601 -0.192018 -1.81487 0
M  V30 4936 C 466.652 -3.52756 -0.79026 0
M  V30 4937 O 466.373 -4.36913 0.322213 0
M  V30 4938 C 467.874 -4.18161 -1.4716 0
M  V30 4939 H 465.094 -0.667135 -0.0719173 0
M  V30 4940 H 467.638 -1.99981 0.427529 0
M  V30 4941 H 465.793 -3.57511 -1.49213 0
M  V30 4942 H 466.207 -5.24486 -0.0387372 0
M  V30 4943 H 467.681 -5.23562 -1.7489 0
M  V30 4944 H 468.158 -3.67282 -2.40834 0
M  V30 4945 H 468.764 -4.17454 -0.813178 0
M  V30 4946 N 467.08 -0.0183926 -1.57589 0
M  V30 4947 C 468.328 0.661253 -1.90976 0
M  V30 4948 C 468.649 1.73281 -0.894353 0
M  V30 4949 O 467.919 1.9579 0.0656788 0
M  V30 4950 H 466.499 0.247233 -0.704901 0
M  V30 4951 H 469.161 -0.0636639 -1.94796 0
M  V30 4952 H 468.257 1.12083 -2.9128 0
M  V30 4953 N 468.558 1.5553 0.254621 0
M  V30 4954 C 469.805 1.77 0.983736 0
M  V30 4955 C 470.133 0.58133 1.85609 0
M  V30 4956 O 469.388 -0.435621 1.9079 0
M  V30 4957 C 469.687 3.03891 1.88109 0
M  V30 4958 C 469.353 4.35597 1.16472 0
M  V30 4959 C 468.015 4.7139 0.966714 0
M  V30 4960 C 470.367 5.1705 0.656387 0
M  V30 4961 C 467.695 5.86176 0.247942 0
M  V30 4962 C 470.047 6.32581 -0.0488807 0
M  V30 4963 C 468.711 6.67 -0.258438 0
M  V30 4964 H 467.981 0.647688 0.359974 0
M  V30 4965 H 470.628 1.89802 0.254463 0
M  V30 4966 H 468.933 2.86068 2.67717 0
M  V30 4967 H 470.63 3.17701 2.44677 0
M  V30 4968 H 467.22 4.07475 1.32899 0
M  V30 4969 H 471.404 4.8986 0.796933 0
M  V30 4970 H 466.66 6.11354 0.075035 0
M  V30 4971 H 470.834 6.94942 -0.450444 0
M  V30 4972 H 468.461 7.55793 -0.817358 0
M  V30 4973 N 470.036 -0.519951 1.48776 0
M  V30 4974 C 471.284 -1.2727 1.56993 0
M  V30 4975 C 471.605 -1.9339 0.25004 0
M  V30 4976 O 470.875 -1.81822 -0.729216 0
M  V30 4977 H 469.455 -0.472732 0.578389 0
M  V30 4978 H 472.117 -0.604234 1.85297 0
M  V30 4979 H 471.213 -2.04669 2.3562 0
M  V30 4980 N 471.514 -1.37532 -0.769588 0
M  V30 4981 C 472.461 -1.3347 -1.88293 0
M  V30 4982 C 473.431 -0.199891 -1.64893 0
M  V30 4983 O 474.616 -0.389594 -1.8678 0
M  V30 4984 C 471.756 -1.14968 -3.25387 0
M  V30 4985 C 470.869 -2.37698 -3.60727 0
M  V30 4986 C 470.004 -2.12051 -4.8704 0
M  V30 4987 C 469.043 -3.30636 -5.15117 0
M  V30 4988 N 468.18 -3.04527 -6.3262 0
M  V30 4989 H 473.02 -2.28658 -1.911 0
M  V30 4990 H 470.557 -1.13622 -0.934257 0
M  V30 4991 H 472.515 -1.02261 -4.04473 0
M  V30 4992 H 471.145 -0.234263 -3.21949 0
M  V30 4993 H 470.197 -2.61137 -2.76608 0
M  V30 4994 H 471.509 -3.26131 -3.77413 0
M  V30 4995 H 470.663 -1.96388 -5.74035 0
M  V30 4996 H 469.402 -1.20959 -4.72462 0
M  V30 4997 H 468.407 -3.46836 -4.26597 0
M  V30 4998 H 469.632 -4.22582 -5.31603 0
M  V30 4999 H 467.578 -2.16067 -6.19396 0
M  V30 5000 H 467.495 -3.86503 -6.49732 0
M  V30 5001 H 468.763 -2.92485 -7.22546 0
M  V30 5002 N 472.992 0.995999 -1.22138 0
M  V30 5003 C 473.902 2.11985 -1.00496 0
M  V30 5004 C 474.918 1.7394 0.0457701 0
M  V30 5005 O 476.094 2.00868 -0.146273 0
M  V30 5006 C 473.159 3.41779 -0.582086 0
M  V30 5007 C 472.22 3.93943 -1.70608 0
M  V30 5008 C 471.453 5.17542 -1.30328 0
M  V30 5009 O 471.676 5.70114 -0.180743 0
M  V30 5010 O 470.61 5.63382 -2.11861 0
M  V30 5011 H 474.436 2.33123 -1.94647 0
M  V30 5012 H 472.021 1.10358 -1.00705 0
M  V30 5013 H 473.903 4.1989 -0.356467 0
M  V30 5014 H 472.578 3.22007 0.330592 0
M  V30 5015 H 471.485 3.17019 -1.98619 0
M  V30 5016 H 472.818 4.18141 -2.59651 0
M  V30 5017 N 474.47 1.03057 1.19235 0
M  V30 5018 C 475.418 0.606391 2.24557 0
M  V30 5019 C 476.412 -0.361826 1.65491 0
M  V30 5020 O 477.618 -0.23022 1.78522 0
M  V30 5021 H 473.993 0.177838 0.730669 0
M  V30 5022 H 475.964 1.50529 2.5765 0
M  V30 5023 C 474.713 -0.0252127 3.47691 0
M  V30 5024 H 474.036 0.710838 3.9343 0
M  V30 5025 H 475.476 -0.284931 4.23042 0
M  V30 5026 C 473.935 -1.27229 3.11953 0
M  V30 5027 O 474.465 -2.36416 3.24762 0
M  V30 5028 N 472.671 -1.16169 2.6637 0
M  V30 5029 H 472.218 -0.273189 2.56147 0
M  V30 5030 H 472.176 -1.99703 2.42829 0
M  V30 5031 N 475.948 -1.35272 0.808662 0
M  V30 5032 C 477.173 -2.03477 0.401475 0
M  V30 5033 C 477.598 -1.60537 -0.980279 0
M  V30 5034 O 476.956 -0.78304 -1.63518 0
M  V30 5035 C 477.004 -3.57181 0.495354 0
M  V30 5036 O 476.108 -4.09474 -0.490397 0
M  V30 5037 H 475.449 -0.642561 0.167366 0
M  V30 5038 H 477.979 -1.72824 1.09512 0
M  V30 5039 H 477.989 -4.06356 0.365912 0
M  V30 5040 H 476.664 -3.87784 1.5032 0
M  V30 5041 H 475.241 -3.71516 -0.321023 0
M  V30 5042 N 477.426 -0.562348 -1.47226 0
M  V30 5043 C 478.654 -0.0452275 -2.06851 0
M  V30 5044 C 479.069 1.25078 -1.41424 0
M  V30 5045 O 478.426 1.75156 -0.512513 0
M  V30 5046 C 478.477 0.148674 -3.61194 0
M  V30 5047 O 478.198 -1.09602 -4.24169 0
M  V30 5048 C 479.699 0.702488 -4.37699 0
M  V30 5049 H 476.919 -0.0481775 -0.669268 0
M  V30 5050 H 479.463 -0.777223 -1.89155 0
M  V30 5051 H 477.618 0.830817 -3.78386 0
M  V30 5052 H 478.032 -0.896982 -5.16773 0
M  V30 5053 H 479.506 0.78743 -5.46355 0
M  V30 5054 H 479.983 1.71493 -4.04335 0
M  V30 5055 H 480.589 0.0558772 -4.25263 0
M  V30 5056 N 478.904 1.54736 -0.299062 0
M  V30 5057 C 480.181 1.92187 0.363802 0
M  V30 5058 C 480.561 1.22607 1.71845 0
M  V30 5059 O 479.909 0.361141 2.25628 0
M  V30 5060 C 480.119 3.45678 0.480377 0
M  V30 5061 C 481.467 4.17885 0.752147 0
M  V30 5062 O 482.491 3.51702 0.564264 0
M  V30 5063 O 481.35 5.35048 1.11294 0
M  V30 5064 H 478.444 0.801681 0.203066 0
M  V30 5065 H 480.99 1.66115 -0.346978 0
M  V30 5066 H 479.762 3.88443 -0.471999 0
M  V30 5067 H 479.385 3.77779 1.2397 0
M  V30 5068 N 480.382 0.0267497 1.57577 0
M  V30 5069 C 481.612 -0.6617 1.95717 0
M  V30 5070 C 482.02 -1.66331 0.901706 0
M  V30 5071 O 481.363 -1.83273 -0.125241 0
M  V30 5072 C 481.425 -1.42649 3.29987 0
M  V30 5073 C 481.089 -0.583482 4.5326 0
M  V30 5074 C 482.086 0.140221 5.19711 0
M  V30 5075 C 479.771 -0.521581 4.99585 0
M  V30 5076 C 481.765 0.914523 6.30805 0
M  V30 5077 C 479.452 0.256428 6.10562 0
M  V30 5078 C 480.45 0.973189 6.76031 0
M  V30 5079 O 480.138 1.73845 7.84878 0
M  V30 5080 H 479.87 -0.187483 0.649481 0
M  V30 5081 H 482.424 0.0820847 2.05236 0
M  V30 5082 H 480.654 -2.21536 3.16952 0
M  V30 5083 H 482.343 -2.00282 3.53047 0
M  V30 5084 H 483.109 0.101716 4.84893 0
M  V30 5085 H 478.988 -1.06904 4.48433 0
M  V30 5086 H 482.532 1.4745 6.81839 0
M  V30 5087 H 478.429 0.296657 6.44818 0
M  V30 5088 H 479.197 1.65797 8.01532 0
M  V30 5089 N 481.861 -1.55662 -0.24637 0
M  V30 5090 C 482.791 -1.93377 -1.30873 0
M  V30 5091 C 483.772 -0.798773 -1.50179 0
M  V30 5092 O 484.957 -1.0591 -1.62778 0
M  V30 5093 C 482.087 -2.22893 -2.66338 0
M  V30 5094 C 481.041 -3.38649 -2.61727 0
M  V30 5095 C 480.367 -3.53708 -4.00992 0
M  V30 5096 C 481.667 -4.74323 -2.18666 0
M  V30 5097 H 483.361 -2.82363 -0.995552 0
M  V30 5098 H 480.907 -1.35854 -0.477464 0
M  V30 5099 H 482.86 -2.47866 -3.40794 0
M  V30 5100 H 481.584 -1.30733 -2.99293 0
M  V30 5101 H 480.243 -3.13685 -1.89729 0
M  V30 5102 H 479.891 -2.58967 -4.31214 0
M  V30 5103 H 479.591 -4.31551 -3.98795 0
M  V30 5104 H 481.115 -3.81003 -4.77147 0
M  V30 5105 H 482.529 -4.98665 -2.82854 0
M  V30 5106 H 480.926 -5.55273 -2.27579 0
M  V30 5107 H 481.996 -4.71349 -1.13834 0
M  V30 5108 N 483.339 0.512053 -1.4905 0
M  V30 5109 C 484.569 1.28928 -1.61434 0
M  V30 5110 C 484.977 1.87107 -0.280647 0
M  V30 5111 O 484.32 1.68024 0.742537 0
M  V30 5112 C 484.382 2.466 -2.61588 0
M  V30 5113 C 484.046 2.09375 -4.06216 0
M  V30 5114 C 485.043 1.63994 -4.93358 0
M  V30 5115 C 482.728 2.19348 -4.51876 0
M  V30 5116 C 484.722 1.29076 -6.24194 0
M  V30 5117 C 482.409 1.84041 -5.82728 0
M  V30 5118 C 483.407 1.38978 -6.68711 0
M  V30 5119 O 483.095 1.04144 -7.97126 0
M  V30 5120 H 482.827 0.397668 -0.546659 0
M  V30 5121 H 485.381 0.622507 -1.9574 0
M  V30 5122 H 483.611 3.16318 -2.22441 0
M  V30 5123 H 485.3 3.08642 -2.63619 0
M  V30 5124 H 486.066 1.55744 -4.59313 0
M  V30 5125 H 481.945 2.53376 -3.85125 0
M  V30 5126 H 485.489 0.938303 -6.91261 0
M  V30 5127 H 481.386 1.91938 -6.16304 0
M  V30 5128 H 482.154 1.17387 -8.10039 0
M  V30 5129 N 484.817 1.37938 0.762283 0
M  V30 5130 C 486.228 1.30094 1.33912 0
M  V30 5131 C 486.579 -0.0472026 1.96143 0
M  V30 5132 O 485.704 -0.94917 1.94473 0
M  V30 5133 C 486.299 2.35592 2.43478 0
M  V30 5134 C 484.858 2.31353 2.96905 0
M  V30 5135 C 484.005 2.18919 1.70205 0
M  V30 5136 H 486.956 1.48423 0.561816 0
M  V30 5137 H 486.977 2.00806 3.23199 0
M  V30 5138 H 486.489 3.33701 1.98155 0
M  V30 5139 H 484.59 1.36799 3.46579 0
M  V30 5140 H 484.703 3.25147 3.51875 0
M  V30 5141 H 483.067 1.65624 1.93496 0
M  V30 5142 H 483.85 3.18956 1.26973 0
M  V30 5143 N 486.295 -0.989507 1.22664 0
M  V30 5144 C 487.205 -2.11449 1.01619 0
M  V30 5145 C 488.221 -1.73962 -0.036545 0
M  V30 5146 O 489.397 -2.00788 0.156924 0
M  V30 5147 C 486.462 -3.41465 0.600204 0
M  V30 5148 C 485.523 -3.93033 1.72695 0
M  V30 5149 C 484.756 -5.16844 1.33071 0
M  V30 5150 O 484.979 -5.7001 0.210975 0
M  V30 5151 O 483.913 -5.6225 2.14845 0
M  V30 5152 H 487.739 -2.32088 1.9588 0
M  V30 5153 H 485.324 -1.09823 1.01289 0
M  V30 5154 H 487.206 -4.19695 0.37873 0
M  V30 5155 H 485.881 -3.22178 -0.313511 0
M  V30 5156 H 484.788 -3.15961 2.00298 0
M  V30 5157 H 486.121 -4.16758 2.61865 0
M  V30 5158 N 487.773 -1.03688 -1.18687 0
M  V30 5159 C 488.705 -0.582696 -2.21669 0
M  V30 5160 C 489.718 0.345656 -1.59088 0
M  V30 5161 O 490.907 0.140776 -1.77944 0
M  V30 5162 C 488.007 0.169204 -3.38477 0
M  V30 5163 C 487.18 -0.766079 -4.30639 0
M  V30 5164 C 486.239 -0.0581541 -5.26168 0
M  V30 5165 O 485.265 -0.687346 -5.65035 0
M  V30 5166 N 486.467 1.20981 -5.67753 0
M  V30 5167 H 489.232 -1.46843 -2.61261 0
M  V30 5168 H 486.793 -0.916896 -1.33434 0
M  V30 5169 H 488.785 0.652543 -3.99405 0
M  V30 5170 H 487.355 0.956435 -2.97609 0
M  V30 5171 H 486.575 -1.42935 -3.67373 0
M  V30 5172 H 487.863 -1.40146 -4.89118 0
M  V30 5173 H 487.261 1.74159 -5.38224 0
M  V30 5174 H 485.818 1.6375 -6.30896 0
M  V30 5175 N 489.251 1.34841 -0.815825 0
M  V30 5176 C 490.181 2.32187 -0.247298 0
M  V30 5177 C 491.162 1.5791 0.632344 0
M  V30 5178 O 492.347 1.8593 0.560698 0
M  V30 5179 C 489.477 3.42122 0.597466 0
M  V30 5180 C 488.431 4.27602 -0.184446 0
M  V30 5181 C 487.757 5.28942 0.782609 0
M  V30 5182 C 489.057 5.03502 -1.38865 0
M  V30 5183 H 490.751 2.79985 -1.06061 0
M  V30 5184 H 488.297 1.34611 -0.511461 0
M  V30 5185 H 490.25 4.09232 1.00533 0
M  V30 5186 H 488.974 2.92956 1.44376 0
M  V30 5187 H 487.633 3.62085 -0.573592 0
M  V30 5188 H 487.281 4.7604 1.62466 0
M  V30 5189 H 486.981 5.87008 0.263695 0
M  V30 5190 H 488.505 5.98922 1.18848 0
M  V30 5191 H 489.919 5.63506 -1.05518 0
M  V30 5192 H 488.316 5.71108 -1.8427 0
M  V30 5193 H 489.386 4.33608 -2.17054 0
M  V30 5194 N 490.729 0.570148 1.46925 0
M  V30 5195 C 491.676 -0.170257 2.30171 0
M  V30 5196 C 492.646 -0.896099 1.39855 0
M  V30 5197 O 493.831 -0.889248 1.68811 0
M  V30 5198 C 490.971 -1.18605 3.24079 0
M  V30 5199 C 490.084 -0.464947 4.29491 0
M  V30 5200 C 489.219 -1.46716 5.10537 0
M  V30 5201 C 488.258 -0.731758 6.0771 0
M  V30 5202 N 487.395 -1.68142 6.81669 0
M  V30 5203 H 492.235 0.545713 2.92961 0
M  V30 5204 H 489.772 0.280938 1.44392 0
M  V30 5205 H 491.73 -1.78771 3.76957 0
M  V30 5206 H 490.36 -1.86989 2.63125 0
M  V30 5207 H 489.412 0.251506 3.79568 0
M  V30 5208 H 490.724 0.110548 4.98677 0
M  V30 5209 H 489.878 -2.14199 5.6763 0
M  V30 5210 H 488.617 -2.07658 4.41282 0
M  V30 5211 H 487.622 -0.0430787 5.49783 0
M  V30 5212 H 488.847 -0.127904 6.7898 0
M  V30 5213 H 486.793 -2.27918 6.15134 0
M  V30 5214 H 486.71 -1.15841 7.47072 0
M  V30 5215 H 487.978 -2.347 7.43328 0
M  V30 5216 N 492.207 -1.54576 0.307264 0
M  V30 5217 C 493.14 -2.19946 -0.608195 0
M  V30 5218 C 494.118 -1.17096 -1.12815 0
M  V30 5219 O 495.302 -1.45766 -1.19518 0
M  V30 5220 C 492.429 -2.84826 -1.8328 0
M  V30 5221 C 491.475 -4.01256 -1.44554 0
M  V30 5222 S 492.308 -5.33197 -0.49612 0
M  V30 5223 C 493.464 -6.01563 -1.72838 0
M  V30 5224 H 493.697 -2.97253 -0.0528544 0
M  V30 5225 H 491.23 -1.54129 0.0913837 0
M  V30 5226 H 493.188 -3.22832 -2.53554 0
M  V30 5227 H 491.849 -2.07353 -2.35931 0
M  V30 5228 H 491.042 -4.45457 -2.35762 0
M  V30 5229 H 490.644 -3.6484 -0.822671 0
M  V30 5230 H 492.936 -6.22751 -2.6681 0
M  V30 5231 H 493.879 -6.9552 -1.32882 0
M  V30 5232 H 494.287 -5.31279 -1.90795 0
M  V30 5233 N 493.685 -0.035106 -1.57561 0
M  V30 5234 C 494.913 0.652258 -1.9635 0
M  V30 5235 C 495.328 1.65317 -0.911897 0
M  V30 5236 O 494.685 1.82194 0.105657 0
M  V30 5237 C 494.736 1.35337 -3.35211 0
M  V30 5238 O 494.457 0.392548 -4.36338 0
M  V30 5239 C 495.958 2.13199 -3.88666 0
M  V30 5240 H 493.178 0.179444 -0.646561 0
M  V30 5241 H 495.722 -0.0966459 -2.04271 0
M  V30 5242 H 493.877 2.05362 -3.28489 0
M  V30 5243 H 494.291 0.891097 -5.16875 0
M  V30 5244 H 495.765 2.577 -4.88154 0
M  V30 5245 H 496.242 2.97353 -3.23231 0
M  V30 5246 H 496.848 1.48118 -3.98674 0
M  V30 5247 N 495.163 1.55791 0.238111 0
M  V30 5248 C 496.409 1.78297 0.966337 0
M  V30 5249 C 496.742 0.601903 1.84637 0
M  V30 5250 O 496.017 -0.399499 1.90353 0
M  V30 5251 C 496.3 3.10758 1.81939 0
M  V30 5252 C 496.153 4.39283 0.966958 0
M  V30 5253 C 497.472 3.39519 2.80027 0
M  V30 5254 H 494.591 0.648654 0.349882 0
M  V30 5255 H 497.233 1.88525 0.236253 0
M  V30 5256 H 495.383 3.02168 2.44185 0
M  V30 5257 H 497.055 4.59873 0.362514 0
M  V30 5258 H 495.298 4.32948 0.271669 0
M  V30 5259 H 495.969 5.28368 1.59784 0
M  V30 5260 H 498.445 3.48128 2.27917 0
M  V30 5261 H 497.321 4.33402 3.36829 0
M  V30 5262 H 497.582 2.60864 3.56934 0
M  V30 5263 N 496.642 -0.504142 1.49319 0
M  V30 5264 C 497.888 -1.26033 1.58882 0
M  V30 5265 C 498.221 -1.92268 0.273274 0
M  V30 5266 O 497.496 -1.80567 -0.72291 0
M  V30 5267 C 497.779 -2.32976 2.7458 0
M  V30 5268 C 497.632 -1.71263 4.1592 0
M  V30 5269 C 498.951 -3.34561 2.85932 0
M  V30 5270 H 496.07 -0.456863 0.578312 0
M  V30 5271 H 498.712 -0.558965 1.81592 0
M  V30 5272 H 496.862 -2.92796 2.55348 0
M  V30 5273 H 498.534 -1.15294 4.4666 0
M  V30 5274 H 496.777 -1.01686 4.21714 0
M  V30 5275 H 497.448 -2.48816 4.92742 0
M  V30 5276 H 499.924 -2.84727 3.0343 0
M  V30 5277 H 498.8 -4.06754 3.68568 0
M  V30 5278 H 499.061 -3.96695 1.95154 0
M  V30 5279 N 498.12 -1.38341 -0.754957 0
M  V30 5280 C 499.067 -1.3546 -1.86867 0
M  V30 5281 C 500.037 -0.217369 -1.64672 0
M  V30 5282 O 501.222 -0.409383 -1.86356 0
M  V30 5283 C 498.362 -1.18413 -3.24149 0
M  V30 5284 C 497.475 -2.41511 -3.58185 0
M  V30 5285 C 496.61 -2.17205 -4.84763 0
M  V30 5286 C 495.649 -3.36081 -5.11582 0
M  V30 5287 N 494.786 -3.11219 -6.29354 0
M  V30 5288 H 499.626 -2.30672 -1.88664 0
M  V30 5289 H 497.163 -1.14607 -0.922154 0
M  V30 5290 H 499.121 -1.06545 -4.03366 0
M  V30 5291 H 497.751 -0.268397 -3.21682 0
M  V30 5292 H 496.803 -2.64056 -2.73822 0
M  V30 5293 H 498.115 -3.30115 -3.73932 0
M  V30 5294 H 497.269 -2.02465 -5.7192 0
M  V30 5295 H 496.008 -1.25964 -4.71152 0
M  V30 5296 H 495.013 -3.51341 -4.22894 0
M  V30 5297 H 496.238 -4.28196 -5.27091 0
M  V30 5298 H 494.184 -2.22624 -6.17069 0
M  V30 5299 H 494.101 -3.93373 -6.45596 0
M  V30 5300 H 495.369 -3.00132 -7.19403 0
M  V30 5301 N 499.598 0.982988 -1.23187 0
M  V30 5302 C 500.528 2.09301 -1.03515 0
M  V30 5303 C 501.509 1.70035 0.0471136 0
M  V30 5304 O 502.694 1.93847 -0.117029 0
M  V30 5305 C 499.824 3.4167 -0.622791 0
M  V30 5306 C 498.778 3.94828 -1.65211 0
M  V30 5307 C 498.104 5.23362 -1.09527 0
M  V30 5308 C 499.404 4.2439 -3.04451 0
M  V30 5309 H 501.098 2.26016 -1.96359 0
M  V30 5310 H 498.644 1.08611 -0.945501 0
M  V30 5311 H 500.597 4.18746 -0.472233 0
M  V30 5312 H 499.321 3.24811 0.341329 0
M  V30 5313 H 497.98 3.19895 -1.79061 0
M  V30 5314 H 497.628 5.02852 -0.122211 0
M  V30 5315 H 497.328 5.59895 -1.783 0
M  V30 5316 H 498.852 6.03062 -0.956511 0
M  V30 5317 H 500.266 4.92225 -2.93917 0
M  V30 5318 H 498.663 4.72118 -3.70438 0
M  V30 5319 H 499.733 3.31765 -3.53638 0
M  V30 5320 N 501.076 1.04316 1.18135 0
M  V30 5321 C 502.325 0.74319 1.87509 0
M  V30 5322 C 502.638 -0.732136 1.81381 0
M  V30 5323 O 503.844 -1.14572 2.46141 0
M  V30 5324 C 502.3 1.27913 3.36402 0
M  V30 5325 C 501.908 2.78326 3.51053 0
M  V30 5326 C 503.652 1.0558 4.11161 0
M  V30 5327 C 501.559 3.25266 4.93919 0
M  V30 5328 H 500.489 0.274313 0.702331 0
M  V30 5329 H 503.14 1.25931 1.33467 0
M  V30 5330 H 501.522 0.690853 3.89927 0
M  V30 5331 H 502.696 3.42933 3.07788 0
M  V30 5332 H 501.011 2.991 2.89704 0
M  V30 5333 H 503.608 1.38161 5.16542 0
M  V30 5334 H 503.951 -0.00684729 4.16299 0
M  V30 5335 H 504.484 1.60882 3.63816 0
M  V30 5336 H 501.223 4.30922 4.9395 0
M  V30 5337 H 500.743 2.65396 5.3789 0
M  V30 5338 H 502.422 3.19433 5.62647 0
M  V30 5339 N 502.554 -1.34406 0.822964 0
M  V30 5340 C 503.779 -2.0304 0.423034 0
M  V30 5341 C 504.204 -1.61568 -0.963196 0
M  V30 5342 O 503.562 -0.800339 -1.62678 0
M  V30 5343 C 503.61 -3.56636 0.53321 0
M  V30 5344 O 502.714 -4.09971 -0.446939 0
M  V30 5345 H 502.055 -0.64075 0.174171 0
M  V30 5346 H 504.585 -1.71653 1.11339 0
M  V30 5347 H 504.595 -4.05945 0.408991 0
M  V30 5348 H 503.27 -3.86168 1.54425 0
M  V30 5349 H 501.847 -3.71835 -0.281601 0
M  V30 5350 N 504.032 -0.577932 -1.46621 0
M  V30 5351 C 504.982 0.178869 -2.27297 0
M  V30 5352 C 505.966 0.866279 -1.35589 0
M  V30 5353 O 507.158 0.761163 -1.59798 0
M  V30 5354 C 504.287 1.19499 -3.2183 0
M  V30 5355 C 503.373 0.50994 -4.21023 0
M  V30 5356 N 503.764 -0.43177 -5.03954 0
M  V30 5357 C 502.062 0.761287 -4.39455 0
M  V30 5358 C 502.763 -0.831693 -5.75724 0
M  V30 5359 N 501.739 -0.181897 -5.43296 0
M  V30 5360 H 505.541 -0.544859 -2.88805 0
M  V30 5361 H 503.055 -0.399373 -1.57413 0
M  V30 5362 H 505.052 1.75131 -3.78332 0
M  V30 5363 H 503.712 1.91959 -2.61881 0
M  V30 5364 H 504.723 -0.807045 -5.11573 0
M  V30 5365 H 501.4 1.47282 -3.90659 0
M  V30 5366 H 502.79 -1.6067 -6.52407 0
M  V30 5367 N 505.51 1.54411 -0.315457 0
M  V30 5368 C 506.926 1.59556 0.037464 0
M  V30 5369 C 507.126 1.33217 1.5118 0
M  V30 5370 O 506.182 1.11264 2.26664 0
M  V30 5371 C 507.495 2.98372 -0.373477 0
M  V30 5372 C 509.043 3.11324 -0.323452 0
M  V30 5373 C 509.518 4.52472 -0.709433 0
M  V30 5374 N 511.009 4.58437 -0.662524 0
M  V30 5375 C 511.744 5.65751 -0.933474 0
M  V30 5376 N 511.24 6.81039 -1.27114 0
M  V30 5377 N 513.033 5.55489 -0.859573 0
M  V30 5378 H 505.184 1.6979 -1.27614 0
M  V30 5379 H 507.447 0.793732 -0.518356 0
M  V30 5380 H 507.153 3.22618 -1.40037 0
M  V30 5381 H 507.027 3.76264 0.265615 0
M  V30 5382 H 509.414 2.86818 0.694223 0
M  V30 5383 H 509.495 2.35555 -0.997367 0
M  V30 5384 H 509.139 4.7771 -1.72498 0
M  V30 5385 H 509.069 5.26598 -0.0132923 0
M  V30 5386 H 511.56 3.75636 -0.413065 0
M  V30 5387 H 511.873 7.58816 -1.46348 0
M  V30 5388 H 510.218 6.82555 -1.30932 0
M  V30 5389 H 513.409 4.64299 -0.595324 0
M  V30 5390 H 513.582 6.39036 -1.0741 0
M  V30 5391 N 506.988 0.0434614 1.5754 0
M  V30 5392 C 507.898 -0.94893 2.14552 0
M  V30 5393 C 508.914 -1.34707 1.10136 0
M  V30 5394 O 510.09 -1.42557 1.42266 0
M  V30 5395 C 507.155 -2.208 2.67298 0
M  V30 5396 C 506.216 -1.86893 3.86484 0
M  V30 5397 C 505.449 -3.06797 4.36705 0
M  V30 5398 O 505.672 -4.19921 3.86034 0
M  V30 5399 O 504.606 -2.8826 5.28384 0
M  V30 5400 H 508.432 -0.494099 2.99654 0
M  V30 5401 H 506.017 -0.177989 1.48336 0
M  V30 5402 H 507.899 -2.94686 3.01228 0
M  V30 5403 H 506.574 -2.65436 1.85272 0
M  V30 5404 H 505.481 -1.10347 3.57455 0
M  V30 5405 H 506.814 -1.47062 4.69716 0
M  V30 5406 N 508.466 -1.55915 -0.229846 0
M  V30 5407 C 509.706 -1.80314 -0.962614 0
M  V30 5408 C 510.07 -0.61568 -1.81861 0
M  V30 5409 O 511.271 -0.738795 -2.58448 0
M  V30 5410 C 509.542 -3.0956 -1.78627 0
M  V30 5411 S 511.101 -3.55243 -2.57581 0
M  V30 5412 H 507.919 -0.633142 -0.323499 0
M  V30 5413 H 510.521 -1.94155 -0.228919 0
M  V30 5414 H 509.225 -3.94033 -1.14742 0
M  V30 5415 H 508.756 -2.98503 -2.56241 0
M  V30 5416 H 510.771 -3.17924 -3.80971 0
M  V30 5417 N 509.944 0.496216 -1.49584 0
M  V30 5418 C 510.876 1.61404 -1.62731 0
M  V30 5419 C 511.889 1.54613 -0.50978 0
M  V30 5420 O 513.078 1.60458 -0.782017 0
M  V30 5421 C 510.178 3.00212 -1.57245 0
M  V30 5422 C 509.351 3.32138 -2.84611 0
M  V30 5423 C 508.41 4.5038 -2.72112 0
M  V30 5424 O 507.436 4.51926 -3.46051 0
M  V30 5425 N 508.638 5.50575 -1.83977 0
M  V30 5426 H 511.403 1.50552 -2.59141 0
M  V30 5427 H 508.964 0.684182 -1.46733 0
M  V30 5428 H 510.956 3.77241 -1.4653 0
M  V30 5429 H 509.526 3.04964 -0.686729 0
M  V30 5430 H 508.746 2.4396 -3.09641 0
M  V30 5431 H 510.034 3.50268 -3.69039 0
M  V30 5432 H 509.432 5.52128 -1.23171 0
M  V30 5433 H 507.989 6.26687 -1.79182 0
M  V30 5434 N 511.423 1.38739 0.74761 0
M  V30 5435 C 512.355 1.32341 1.87132 0
M  V30 5436 C 513.368 0.234502 1.61102 0
M  V30 5437 O 514.557 0.492516 1.71571 0
M  V30 5438 C 511.657 1.02915 3.22896 0
M  V30 5439 C 510.83 2.22834 3.76383 0
M  V30 5440 C 509.889 1.90059 4.90677 0
M  V30 5441 O 508.915 2.62615 5.04997 0
M  V30 5442 N 510.117 0.859141 5.74107 0
M  V30 5443 H 512.882 2.29175 1.93129 0
M  V30 5444 H 510.443 1.32678 0.927805 0
M  V30 5445 H 512.435 0.79031 3.96908 0
M  V30 5446 H 511.005 0.148572 3.12247 0
M  V30 5447 H 510.225 2.62747 2.93867 0
M  V30 5448 H 511.513 3.02851 4.08851 0
M  V30 5449 H 510.911 0.257564 5.65113 0
M  V30 5450 H 509.468 0.680189 6.48241 0
M  V30 5451 N 512.901 -0.976442 1.23707 0
M  V30 5452 C 514.312 -1.53284 1.06587 0
M  V30 5453 C 514.663 -1.92765 -0.365526 0
M  V30 5454 O 513.788 -1.7645 -1.25277 0
M  V30 5455 C 514.383 -2.78548 1.92864 0
M  V30 5456 C 512.942 -3.30574 1.79994 0
M  V30 5457 C 512.089 -2.03538 1.88328 0
M  V30 5458 H 515.04 -0.795692 1.37311 0
M  V30 5459 H 515.061 -3.5155 1.45577 0
M  V30 5460 H 514.573 -2.49782 2.97037 0
M  V30 5461 H 512.674 -3.64211 0.786202 0
M  V30 5462 H 512.787 -4.00065 2.636 0
M  V30 5463 H 511.151 -2.17853 1.31954 0
M  V30 5464 H 511.934 -1.77149 2.94063 0
M  V30 5465 N 514.379 -1.04941 -1.1758 0
M  V30 5466 C 515.329 -0.618378 -2.19454 0
M  V30 5467 C 516.313 0.343813 -1.57184 0
M  V30 5468 O 517.505 0.16145 -1.76262 0
M  V30 5469 C 514.634 0.00803847 -3.43299 0
M  V30 5470 C 513.72 -0.977827 -4.12673 0
M  V30 5471 N 514.111 -2.14826 -4.57912 0
M  V30 5472 C 512.409 -0.805748 -4.38661 0
M  V30 5473 C 513.11 -2.77174 -5.11419 0
M  V30 5474 N 512.086 -2.04989 -5.03468 0
M  V30 5475 H 515.888 -1.51018 -2.52132 0
M  V30 5476 H 513.402 -0.919201 -1.33882 0
M  V30 5477 H 515.399 0.334584 -4.15555 0
M  V30 5478 H 514.059 0.895272 -3.12114 0
M  V30 5479 H 515.07 -2.52673 -4.52081 0
M  V30 5480 H 511.747 0.0306506 -4.17489 0
M  V30 5481 H 513.137 -3.76416 -5.56562 0
M  V30 5482 N 515.857 1.33968 -0.830081 0
M  V30 5483 C 517.087 2.01987 -0.434142 0
M  V30 5484 C 517.495 1.62639 0.96671 0
M  V30 5485 O 516.838 0.831151 1.63822 0
M  V30 5486 C 516.9 3.5648 -0.465018 0
M  V30 5487 C 516.564 4.19176 -1.82045 0
M  V30 5488 C 517.561 4.39181 -2.78237 0
M  V30 5489 C 515.246 4.55792 -2.11089 0
M  V30 5490 C 517.24 4.94937 -4.01642 0
M  V30 5491 C 514.927 5.11258 -3.34752 0
M  V30 5492 C 515.925 5.30775 -4.29845 0
M  V30 5493 O 515.613 5.85064 -5.51322 0
M  V30 5494 H 515.345 0.653847 -0.171639 0
M  V30 5495 H 517.899 1.72066 -1.12171 0
M  V30 5496 H 516.129 3.8569 0.279284 0
M  V30 5497 H 517.818 4.05804 -0.0881334 0
M  V30 5498 H 518.584 4.11249 -2.57097 0
M  V30 5499 H 514.463 4.39901 -1.3787 0
M  V30 5500 H 518.007 5.10086 -4.75876 0
M  V30 5501 H 513.904 5.38619 -3.55753 0
M  V30 5502 H 514.672 6.03489 -5.5294 0
M  V30 5503 N 517.335 0.585699 1.46312 0
M  V30 5504 C 518.565 0.0780166 2.06453 0
M  V30 5505 C 518.973 -1.2336 1.43454 0
M  V30 5506 O 518.316 -1.75734 0.535086 0
M  V30 5507 C 518.378 -0.158951 3.59148 0
M  V30 5508 C 518.042 1.06752 4.44357 0
M  V30 5509 C 519.039 1.98031 4.80708 0
M  V30 5510 C 516.724 1.2902 4.85447 0
M  V30 5511 C 518.718 3.09924 5.5698 0
M  V30 5512 C 516.405 2.41218 5.61478 0
M  V30 5513 C 517.403 3.31499 5.97158 0
M  V30 5514 O 517.091 4.41747 6.71651 0
M  V30 5515 H 516.823 0.0558894 0.673686 0
M  V30 5516 H 519.377 0.806994 1.88883 0
M  V30 5517 H 517.607 -0.942575 3.75037 0
M  V30 5518 H 519.296 -0.615513 4.01206 0
M  V30 5519 H 520.062 1.82043 4.49539 0
M  V30 5520 H 515.941 0.596567 4.57124 0
M  V30 5521 H 519.485 3.80415 5.84748 0
M  V30 5522 H 515.382 2.57167 5.9206 0
M  V30 5523 H 516.15 4.40152 6.90079 0
M  V30 5524 N 518.813 -1.54241 0.323641 0
M  V30 5525 C 520.061 -2.00174 -0.278359 0
M  V30 5526 C 520.382 -1.2134 -1.52648 0
M  V30 5527 O 519.652 -0.315244 -1.93347 0
M  V30 5528 H 518.232 -0.739463 -0.105845 0
M  V30 5529 H 520.894 -1.89864 0.440204 0
M  V30 5530 H 519.99 -3.07486 -0.5347 0
M  V30 5531 N 520.291 -0.0518155 -1.57515 0
M  V30 5532 C 521.516 0.634896 -1.97443 0
M  V30 5533 C 521.941 1.63546 -0.929207 0
M  V30 5534 O 521.299 1.80981 0.107484 0
M  V30 5535 C 521.347 1.29765 -3.36442 0
M  V30 5536 O 520.451 2.41333 -3.34413 0
M  V30 5537 H 519.792 0.164994 -0.643174 0
M  V30 5538 H 522.322 -0.120407 -2.04245 0
M  V30 5539 H 522.332 1.64918 -3.73184 0
M  V30 5540 H 521.007 0.564361 -4.12053 0
M  V30 5541 H 519.584 2.08122 -3.09418 0
M  V30 5542 N 521.769 1.56035 0.221574 0
M  V30 5543 C 522.679 1.95581 1.29558 0
M  V30 5544 C 523.695 0.859639 1.51282 0
M  V30 5545 O 524.871 1.16321 1.64413 0
M  V30 5546 C 521.936 2.26447 2.62531 0
M  V30 5547 C 520.997 3.49632 2.4911 0
M  V30 5548 C 520.23 3.79017 3.75742 0
M  V30 5549 O 520.453 3.10077 4.78757 0
M  V30 5550 O 519.387 4.72507 3.72855 0
M  V30 5551 H 523.213 2.8711 0.990035 0
M  V30 5552 H 520.798 1.43244 0.424434 0
M  V30 5553 H 522.68 2.47494 3.41064 0
M  V30 5554 H 521.355 1.38092 2.92766 0
M  V30 5555 H 520.262 3.33864 1.68777 0
M  V30 5556 H 521.595 4.3837 2.23814 0
M  V30 5557 N 523.247 -0.488276 1.49845 0
M  V30 5558 C 524.493 -1.24341 1.6021 0
M  V30 5559 C 524.826 -1.91967 0.293651 0
M  V30 5560 O 524.101 -1.81323 -0.703718 0
M  V30 5561 C 524.384 -2.3005 2.77036 0
M  V30 5562 C 524.237 -1.66842 4.17713 0
M  V30 5563 C 525.556 -3.31509 2.89464 0
M  V30 5564 H 522.675 -0.450704 0.583125 0
M  V30 5565 H 525.317 -0.539673 1.82174 0
M  V30 5566 H 523.467 -2.90071 2.58439 0
M  V30 5567 H 525.139 -1.1055 4.47858 0
M  V30 5568 H 523.382 -0.972079 4.22768 0
M  V30 5569 H 524.053 -2.43576 4.95353 0
M  V30 5570 H 526.529 -2.81493 3.06433 0
M  V30 5571 H 525.405 -4.02822 3.72861 0
M  V30 5572 H 525.666 -3.94603 1.99351 0
M  V30 5573 N 524.725 -1.39134 -0.740242 0
M  V30 5574 C 525.953 -1.39334 -1.5295 0
M  V30 5575 C 526.368 0.0135008 -1.88795 0
M  V30 5576 O 525.725 0.983524 -1.5373 0
M  V30 5577 C 525.776 -2.2614 -2.82034 0
M  V30 5578 O 525.497 -3.61345 -2.47712 0
M  V30 5579 C 526.998 -2.34666 -3.76094 0
M  V30 5580 H 524.218 -0.476103 -0.472828 0
M  V30 5581 H 526.762 -1.82883 -0.9151 0
M  V30 5582 H 524.917 -1.86018 -3.39818 0
M  V30 5583 H 525.331 -4.07194 -3.30595 0
M  V30 5584 H 526.805 -2.99663 -4.63579 0
M  V30 5585 H 527.282 -1.36426 -4.17474 0
M  V30 5586 H 527.888 -2.75236 -3.2423 0
M  V30 5587 N 526.204 0.969867 -1.24223 0
M  V30 5588 C 527.432 1.74756 -1.10761 0
M  V30 5589 C 527.847 1.85713 0.340041 0
M  V30 5590 O 527.204 1.34389 1.23474 0
M  V30 5591 C 527.255 3.16915 -1.73917 0
M  V30 5592 O 526.976 3.06511 -3.13021 0
M  V30 5593 C 528.477 4.11032 -1.66036 0
M  V30 5594 H 525.697 0.548092 -0.387087 0
M  V30 5595 H 528.241 1.2178 -1.64286 0
M  V30 5596 H 526.396 3.66884 -1.244 0
M  V30 5597 H 526.81 3.96079 -3.43834 0
M  V30 5598 H 528.284 5.08446 -2.14911 0
M  V30 5599 H 528.761 4.34785 -0.621159 0
M  V30 5600 H 529.367 3.66972 -2.14969 0
M  V30 5601 N 527.682 1.05563 1.17022 0
M  V30 5602 C 528.629 0.659893 2.21165 0
M  V30 5603 C 529.599 -0.339813 1.62587 0
M  V30 5604 O 530.784 -0.230378 1.89404 0
M  V30 5605 C 527.924 0.0447297 3.45071 0
M  V30 5606 C 527.037 1.09372 4.17926 0
M  V30 5607 C 526.172 0.445481 5.29329 0
M  V30 5608 C 525.211 1.47852 5.93975 0
M  V30 5609 N 524.348 0.854172 6.96885 0
M  V30 5610 H 529.188 1.55243 2.54369 0
M  V30 5611 H 526.725 0.776336 1.24946 0
M  V30 5612 H 528.683 -0.329404 4.15898 0
M  V30 5613 H 527.313 -0.811244 3.1244 0
M  V30 5614 H 526.365 1.58564 3.45777 0
M  V30 5615 H 527.677 1.87773 4.62107 0
M  V30 5616 H 526.831 0.0179688 6.06697 0
M  V30 5617 H 525.57 -0.370481 4.86291 0
M  V30 5618 H 524.575 1.91601 5.15334 0
M  V30 5619 H 525.8 2.29645 6.39093 0
M  V30 5620 H 523.746 0.0587882 6.55974 0
M  V30 5621 H 523.663 1.57567 7.39397 0
M  V30 5622 H 524.931 0.451559 7.78191 0
M  V30 5623 N 529.16 -1.33526 0.837174 0
M  V30 5624 C 530.093 -2.27192 0.214233 0
M  V30 5625 C 531.071 -1.49575 -0.637657 0
M  V30 5626 O 532.255 -1.78753 -0.598291 0
M  V30 5627 C 529.382 -3.31401 -0.699367 0
M  V30 5628 C 528.428 -4.26431 0.0768429 0
M  V30 5629 S 529.261 -5.15954 1.4336 0
M  V30 5630 C 530.417 -6.23692 0.525251 0
M  V30 5631 H 530.65 -2.79679 1.00831 0
M  V30 5632 H 528.183 -1.4079 0.633834 0
M  V30 5633 H 530.141 -3.91924 -1.22088 0
M  V30 5634 H 528.802 -2.77732 -1.46709 0
M  V30 5635 H 527.995 -5.00193 -0.618268 0
M  V30 5636 H 527.597 -3.70235 0.529364 0
M  V30 5637 H 529.889 -6.76931 -0.277575 0
M  V30 5638 H 530.832 -6.97283 1.23299 0
M  V30 5639 H 531.24 -5.64398 0.107351 0
M  V30 5640 N 530.638 -0.59345 -1.46 0
M  V30 5641 C 531.568 0.121192 -2.33185 0
M  V30 5642 C 532.549 0.872977 -1.4599 0
M  V30 5643 O 533.734 0.846321 -1.74789 0
M  V30 5644 C 530.864 1.12844 -3.28456 0
M  V30 5645 C 529.818 0.4908 -4.25177 0
M  V30 5646 C 529.144 1.60529 -5.10034 0
M  V30 5647 C 530.444 -0.578949 -5.19081 0
M  V30 5648 H 532.138 -0.606767 -2.93187 0
M  V30 5649 H 529.684 -0.293242 -1.40983 0
M  V30 5650 H 531.637 1.63684 -3.88311 0
M  V30 5651 H 530.361 1.88681 -2.66584 0
M  V30 5652 H 529.02 0.00339328 -3.666 0
M  V30 5653 H 528.668 2.35359 -4.44539 0
M  V30 5654 H 528.368 1.18422 -5.75543 0
M  V30 5655 H 529.892 2.11623 -5.72755 0
M  V30 5656 H 531.306 -0.155199 -5.7309 0
M  V30 5657 H 529.703 -0.920947 -5.92991 0
M  V30 5658 H 530.773 -1.46109 -4.62364 0
M  V30 5659 N 532.116 1.54067 -0.331816 0
M  V30 5660 C 533.356 2.02625 0.26876 0
M  V30 5661 C 533.72 1.21462 1.48697 0
M  V30 5662 O 534.921 1.59863 2.16096 0
M  V30 5663 C 533.192 3.52554 0.586577 0
M  V30 5664 S 534.751 4.23035 1.16563 0
M  V30 5665 H 531.569 0.706395 0.0807862 0
M  V30 5666 H 534.171 1.89844 -0.466856 0
M  V30 5667 H 532.875 4.09242 -0.308046 0
M  V30 5668 H 532.406 3.69432 1.35217 0
M  V30 5669 H 534.421 4.31382 2.45203 0
M  V30 5670 N 533.594 0.0601682 1.57485 0
M  V30 5671 C 534.557 -0.896373 2.10945 0
M  V30 5672 C 535.557 -1.23402 1.03095 0
M  V30 5673 O 536.747 -1.16921 1.29132 0
M  V30 5674 C 533.879 -2.20346 2.60116 0
M  V30 5675 H 535.072 -0.432778 2.96761 0
M  V30 5676 H 532.625 -0.188372 1.55161 0
M  V30 5677 H 533.36 -2.71268 1.7772 0
M  V30 5678 H 533.145 -1.9714 3.38937 0
M  V30 5679 H 534.635 -2.88846 3.01592 0
M  V30 5680 N 535.072 -1.5615 -0.213296 0
M  V30 5681 C 536.035 -1.92249 -1.24792 0
M  V30 5682 C 537.035 -0.801828 -1.39382 0
M  V30 5683 O 538.225 -1.06948 -1.37506 0
M  V30 5684 C 535.357 -2.18056 -2.62039 0
M  V30 5685 H 536.55 -2.84793 -0.939845 0
M  V30 5686 H 534.103 -1.49559 -0.454062 0
M  V30 5687 H 534.838 -1.2809 -2.97932 0
M  V30 5688 H 534.623 -2.99703 -2.52825 0
M  V30 5689 H 536.113 -2.47051 -3.36683 0
M  V30 5690 N 536.55 0.480323 -1.50102 0
M  V30 5691 C 537.827 1.24159 -1.51142 0
M  V30 5692 C 538.207 2.09605 -0.250818 0
M  V30 5693 O 537.555 2.15274 0.766118 0
M  V30 5694 C 537.765 2.08057 -2.80202 0
M  V30 5695 C 539.113 2.66556 -3.30504 0
M  V30 5696 O 540.137 2.18308 -2.81461 0
M  V30 5697 O 538.996 3.54442 -4.15973 0
M  V30 5698 H 536.09 0.562928 -0.605839 0
M  V30 5699 H 538.636 0.492899 -1.62384 0
M  V30 5700 H 537.408 1.45032 -3.6343 0
M  V30 5701 H 537.031 2.90079 -2.71919 0
M  V30 5702 N 538.028 1.39524 0.732853 0
M  V30 5703 C 539.439 1.32905 1.31122 0
M  V30 5704 C 539.79 -0.00558708 1.96199 0
M  V30 5705 O 538.915 -0.907706 1.96443 0
M  V30 5706 C 539.51 2.40704 2.38426 0
M  V30 5707 C 538.069 2.37599 2.91931 0
M  V30 5708 C 537.216 2.2248 1.65523 0
M  V30 5709 H 540.167 1.49581 0.530207 0
M  V30 5710 H 540.188 2.07616 3.18867 0
M  V30 5711 H 539.7 3.37829 1.91033 0
M  V30 5712 H 537.801 1.44119 3.43599 0
M  V30 5713 H 537.914 3.32538 3.44899 0
M  V30 5714 H 536.278 1.69691 1.8994 0
M  V30 5715 H 537.061 3.21577 1.20178 0
M  V30 5716 N 539.506 -0.963266 1.24736 0
M  V30 5717 C 540.438 -2.06162 1.0015 0
M  V30 5718 C 541.451 -1.62771 -0.0305905 0
M  V30 5719 O 542.64 -1.77296 0.206966 0
M  V30 5720 C 539.74 -3.35333 0.490385 0
M  V30 5721 C 538.913 -4.07609 1.58663 0
M  V30 5722 C 537.972 -5.15052 1.0774 0
M  V30 5723 O 536.998 -5.4098 1.77002 0
M  V30 5724 N 538.2 -5.80436 -0.0858605 0
M  V30 5725 H 540.965 -2.27825 1.94719 0
M  V30 5726 H 538.526 -1.13121 1.15825 0
M  V30 5727 H 540.518 -4.04477 0.134371 0
M  V30 5728 H 539.088 -3.10507 -0.361155 0
M  V30 5729 H 538.308 -3.32681 2.11463 0
M  V30 5730 H 539.596 -4.52656 2.32336 0
M  V30 5731 H 538.994 -5.6178 -0.664806 0
M  V30 5732 H 537.551 -6.50674 -0.382981 0
M  V30 5733 N 540.985 -1.06182 -1.16461 0
M  V30 5734 C 542.231 -0.788825 -1.87481 0
M  V30 5735 C 542.586 0.677298 -1.80085 0
M  V30 5736 O 541.879 1.48976 -1.20486 0
M  V30 5737 C 542.073 -1.21633 -3.36066 0
M  V30 5738 C 541.902 -2.72247 -3.57927 0
M  V30 5739 C 540.672 -3.39696 -3.74079 0
M  V30 5740 C 542.87 -3.70461 -3.56739 0
M  V30 5741 N 540.852 -4.79072 -3.83879 0
M  V30 5742 C 542.223 -4.95616 -3.72511 0
M  V30 5743 C 544.278 -3.63788 -3.39945 0
M  V30 5744 C 542.981 -6.14895 -3.73225 0
M  V30 5745 C 545.007 -4.82517 -3.41953 0
M  V30 5746 C 544.369 -6.065 -3.58242 0
M  V30 5747 H 540.468 -0.341034 -0.703719 0
M  V30 5748 H 543.052 -1.35575 -1.39741 0
M  V30 5749 H 541.223 -0.67725 -3.8245 0
M  V30 5750 H 542.955 -0.892119 -3.94745 0
M  V30 5751 H 539.71 -2.90097 -3.74354 0
M  V30 5752 H 540.134 -5.51573 -3.92551 0
M  V30 5753 H 544.776 -2.68888 -3.26281 0
M  V30 5754 H 542.494 -7.10129 -3.85672 0
M  V30 5755 H 546.08 -4.79017 -3.30203 0
M  V30 5756 H 544.96 -6.96833 -3.59712 0
M  V30 5757 N 542.463 1.3308 -0.844243 0
M  V30 5758 C 543.41 2.29104 -0.279323 0
M  V30 5759 C 544.38 1.54577 0.607882 0
M  V30 5760 O 545.565 1.8285 0.545009 0
M  V30 5761 C 542.705 3.40927 0.53508 0
M  V30 5762 C 541.818 4.30354 -0.376749 0
M  V30 5763 C 540.953 5.29297 0.449276 0
M  V30 5764 C 539.992 6.10365 -0.460606 0
M  V30 5765 N 539.129 7.01335 0.327612 0
M  V30 5766 H 543.969 2.76817 -1.10346 0
M  V30 5767 H 541.506 1.36203 -0.555611 0
M  V30 5768 H 543.464 4.04469 1.02278 0
M  V30 5769 H 542.094 2.94391 1.32414 0
M  V30 5770 H 541.146 3.67485 -0.982791 0
M  V30 5771 H 542.458 4.87067 -1.07549 0
M  V30 5772 H 541.612 5.98392 1.00058 0
M  V30 5773 H 540.351 4.73174 1.18143 0
M  V30 5774 H 539.356 5.40182 -1.02388 0
M  V30 5775 H 540.581 6.68571 -1.1912 0
M  V30 5776 H 538.527 6.47655 1.04305 0
M  V30 5777 H 538.444 7.55355 -0.3123 0
M  V30 5778 H 539.712 7.74731 0.86098 0
M  V30 5779 N 543.941 0.601185 1.45683 0
M  V30 5780 C 545.169 0.100054 2.06658 0
M  V30 5781 C 545.584 -1.21285 1.44691 0
M  V30 5782 O 544.941 -1.73735 0.558772 0
M  V30 5783 C 544.992 -0.0528579 3.61461 0
M  V30 5784 O 544.713 1.20809 4.21114 0
M  V30 5785 C 546.214 -0.586193 4.39407 0
M  V30 5786 H 543.434 0.065905 0.667756 0
M  V30 5787 H 545.978 0.827101 1.87028 0
M  V30 5788 H 544.133 -0.730203 3.80456 0
M  V30 5789 H 544.547 1.03368 5.14213 0
M  V30 5790 H 546.021 -0.642297 5.4825 0
M  V30 5791 H 546.498 -1.60713 4.0874 0
M  V30 5792 H 547.104 0.0568935 4.25262 0
M  V30 5793 N 545.419 -1.53889 0.339982 0
M  V30 5794 C 546.696 -1.93084 -0.312719 0
M  V30 5795 C 547.076 -1.2712 -1.68534 0
M  V30 5796 O 546.424 -0.420835 -2.24591 0
M  V30 5797 C 546.634 -3.4683 -0.388558 0
M  V30 5798 C 547.982 -4.19732 -0.641088 0
M  V30 5799 O 549.006 -3.53075 -0.470818 0
M  V30 5800 O 547.865 -5.3781 -0.970685 0
M  V30 5801 H 544.959 -0.806784 -0.18174 0
M  V30 5802 H 547.505 -1.65137 0.390898 0
M  V30 5803 H 546.277 -3.87055 0.574821 0
M  V30 5804 H 545.9 -3.80933 -1.1391 0
M  V30 5805 N 546.897 -0.0685191 -1.57451 0
M  V30 5806 C 548.122 0.613919 -1.98106 0
M  V30 5807 C 548.547 1.62551 -0.946501 0
M  V30 5808 O 547.905 1.81085 0.0882824 0
M  V30 5809 C 547.953 1.26189 -3.378 0
M  V30 5810 O 547.057 2.37773 -3.36954 0
M  V30 5811 H 546.398 0.158163 -0.644888 0
M  V30 5812 H 548.928 -0.142063 -2.04106 0
M  V30 5813 H 548.938 1.60951 -3.74912 0
M  V30 5814 H 547.613 0.520625 -4.12629 0
M  V30 5815 H 546.19 2.04829 -3.11608 0
M  V30 5816 N 548.375 1.56261 0.205012 0
M  V30 5817 C 549.615 1.81823 0.933806 0
M  V30 5818 C 549.979 0.644534 1.80858 0
M  V30 5819 O 551.18 0.779819 2.5724 0
M  V30 5820 C 549.451 3.12362 1.7368 0
M  V30 5821 S 551.01 3.59296 2.51897 0
M  V30 5822 H 547.828 0.638209 0.313386 0
M  V30 5823 H 550.43 1.94495 0.198001 0
M  V30 5824 H 549.134 3.95809 1.08459 0
M  V30 5825 H 548.665 3.02542 2.5146 0
M  V30 5826 H 550.68 3.23945 3.75864 0
M  V30 5827 N 549.853 -0.472356 1.50355 0
M  V30 5828 C 550.785 -1.58795 1.65278 0
M  V30 5829 C 551.798 -1.53782 0.534313 0
M  V30 5830 O 552.987 -1.59193 0.807446 0
M  V30 5831 C 550.087 -2.97672 1.62001 0
M  V30 5832 C 549.26 -3.27568 2.89859 0
M  V30 5833 C 548.319 -4.45993 2.79242 0
M  V30 5834 O 547.345 -4.46364 3.53197 0
M  V30 5835 N 548.547 -5.47578 1.92713 0
M  V30 5836 H 551.312 -1.46411 2.61503 0
M  V30 5837 H 548.873 -0.660751 1.47803 0
M  V30 5838 H 550.865 -3.74862 1.52513 0
M  V30 5839 H 549.435 -3.03832 0.735159 0
M  V30 5840 H 548.655 -2.39003 3.13483 0
M  V30 5841 H 549.943 -3.44352 3.74565 0
M  V30 5842 H 549.341 -5.50099 1.31939 0
M  V30 5843 H 547.898 -6.23757 1.8913 0
M  V30 5844 N 551.331 -1.39911 -0.725443 0
M  V30 5845 C 552.579 -1.37382 -1.48224 0
M  V30 5846 C 552.9 0.0264107 -1.94982 0
M  V30 5847 O 552.17 0.979408 -1.6966 0
M  V30 5848 H 550.75 -0.505596 -0.549892 0
M  V30 5849 H 553.412 -1.7487 -0.860608 0
M  V30 5850 H 552.508 -2.04254 -2.3598 0
M  V30 5851 N 552.809 0.956637 -1.25245 0
M  V30 5852 C 554.086 1.67716 -1.00651 0
M  V30 5853 C 554.466 2.0585 0.467866 0
M  V30 5854 O 553.814 1.77029 1.44475 0
M  V30 5855 C 554.024 2.90093 -1.94028 0
M  V30 5856 C 555.372 3.6209 -2.21756 0
M  V30 5857 O 556.396 3.00171 -1.9177 0
M  V30 5858 O 555.255 4.7358 -2.72735 0
M  V30 5859 H 552.349 0.733731 -0.381533 0
M  V30 5860 H 554.895 1.00974 -1.3639 0
M  V30 5861 H 553.667 2.58689 -2.93591 0
M  V30 5862 H 553.29 3.64566 -1.58674 0
M  V30 5863 N 554.287 1.06798 1.15896 0
M  V30 5864 C 555.512 0.808739 1.90982 0
M  V30 5865 C 555.937 -0.6316 1.77179 0
M  V30 5866 O 555.295 -1.4407 1.10061 0
M  V30 5867 C 555.343 1.21468 3.39526 0
M  V30 5868 O 554.447 0.356562 4.10856 0
M  V30 5869 H 553.788 0.29512 0.594811 0
M  V30 5870 H 556.318 1.42513 1.46804 0
M  V30 5871 H 556.328 1.18844 3.90308 0
M  V30 5872 H 555.003 2.26379 3.48891 0
M  V30 5873 H 553.58 0.444808 3.70238 0
M  V30 5874 N 555.766 -1.3263 0.851289 0
M  V30 5875 C 557.014 -1.96978 0.452128 0
M  V30 5876 C 557.335 -1.67715 -0.99482 0
M  V30 5877 O 556.605 -0.98259 -1.69476 0
M  V30 5878 H 555.185 -0.72873 0.164202 0
M  V30 5879 H 557.847 -1.61774 1.08698 0
M  V30 5880 H 556.943 -3.06387 0.594407 0
M  V30 5881 N 557.244 -0.608902 -1.45362 0
M  V30 5882 C 558.492 -0.104401 -2.0183 0
M  V30 5883 C 558.813 1.27007 -1.47967 0
M  V30 5884 O 558.083 1.83924 -0.674455 0
M  V30 5885 H 556.663 -0.0356042 -0.746151 0
M  V30 5886 H 559.325 -0.790596 -1.78145 0
M  V30 5887 H 558.421 -0.0551793 -3.12051 0
M  V30 5888 N 558.722 1.53707 -0.348139 0
M  V30 5889 C 560.133 1.86213 0.134797 0
M  V30 5890 C 560.484 1.26925 1.49614 0
M  V30 5891 O 559.609 0.584573 2.08355 0
M  V30 5892 C 560.204 3.37866 0.251371 0
M  V30 5893 C 558.763 3.70233 0.678543 0
M  V30 5894 C 557.91 2.76683 -0.184925 0
M  V30 5895 H 560.861 1.48204 -0.567571 0
M  V30 5896 H 560.882 3.64908 1.07806 0
M  V30 5897 H 560.394 3.80988 -0.739581 0
M  V30 5898 H 558.495 3.32659 1.67835 0
M  V30 5899 H 558.608 4.76836 0.465251 0
M  V30 5900 H 556.972 2.52374 0.343465 0
M  V30 5901 H 557.755 3.22635 -1.1731 0
M  V30 5902 N 560.2 0.0768682 1.57412 0
M  V30 5903 C 561.13 -0.886026 2.16037 0
M  V30 5904 C 562.111 -1.30691 1.08876 0
M  V30 5905 O 563.296 -1.37705 1.36934 0
M  V30 5906 C 560.426 -2.1518 2.72608 0
M  V30 5907 C 559.38 -1.87015 3.8498 0
M  V30 5908 C 558.706 -3.20266 4.28175 0
M  V30 5909 C 560.006 -1.17143 5.08994 0
M  V30 5910 H 561.7 -0.397642 2.96748 0
M  V30 5911 H 559.246 -0.189823 1.42743 0
M  V30 5912 H 561.199 -2.82962 3.12266 0
M  V30 5913 H 559.923 -2.66269 1.89125 0
M  V30 5914 H 558.582 -1.21636 3.45833 0
M  V30 5915 H 558.23 -3.69207 3.41607 0
M  V30 5916 H 557.93 -3.0221 5.03927 0
M  V30 5917 H 559.454 -3.89237 4.70454 0
M  V30 5918 H 560.868 -1.75003 5.45937 0
M  V30 5919 H 559.265 -1.09328 5.90057 0
M  V30 5920 H 560.335 -0.151295 4.84664 0
M  V30 5921 N 561.678 -1.56367 -0.196722 0
M  V30 5922 C 562.924 -1.80796 -0.918725 0
M  V30 5923 C 563.257 -0.650645 -1.82976 0
M  V30 5924 O 562.532 0.348889 -1.91345 0
M  V30 5925 C 562.815 -3.15472 -1.73636 0
M  V30 5926 C 562.668 -4.41693 -0.85015 0
M  V30 5927 C 563.987 -3.46824 -2.70927 0
M  V30 5928 H 561.106 -0.657702 -0.332561 0
M  V30 5929 H 563.748 -1.89086 -0.186186 0
M  V30 5930 H 561.898 -3.08536 -2.36088 0
M  V30 5931 H 563.57 -4.60673 -0.240459 0
M  V30 5932 H 561.813 -4.33517 -0.156785 0
M  V30 5933 H 562.484 -5.32419 -1.45719 0
M  V30 5934 H 564.96 -3.54049 -2.18607 0
M  V30 5935 H 563.836 -4.4218 -3.25219 0
M  V30 5936 H 564.097 -2.70236 -3.49893 0
M  V30 5937 N 563.156 0.464375 -1.50603 0
M  V30 5938 C 564.396 1.22573 -1.6357 0
M  V30 5939 C 564.76 1.89111 -0.331834 0
M  V30 5940 O 565.961 2.66679 -0.336999 0
M  V30 5941 C 564.232 2.23643 -2.7878 0
M  V30 5942 S 565.791 3.08628 -3.1192 0
M  V30 5943 H 562.609 0.416058 -0.576556 0
M  V30 5944 H 565.211 0.521637 -1.88412 0
M  V30 5945 H 563.915 1.73354 -3.7199 0
M  V30 5946 H 563.446 2.98672 -2.56044 0
M  V30 5947 H 565.461 4.24904 -2.56264 0
M  V30 5948 N 564.634 1.40294 0.718013 0
M  V30 5949 C 565.859 1.41941 1.5122 0
M  V30 5950 C 566.284 0.0202371 1.88089 0
M  V30 5951 O 565.642 -0.971078 1.53101 0
M  V30 5952 C 565.69 2.3141 2.76554 0
M  V30 5953 O 564.794 1.75567 3.73162 0
M  V30 5954 H 564.135 0.482644 0.456016 0
M  V30 5955 H 566.665 1.84494 0.884478 0
M  V30 5956 H 566.675 2.46513 3.25108 0
M  V30 5957 H 565.35 3.33085 2.49053 0
M  V30 5958 H 563.927 1.69798 3.31999 0
M  V30 5959 N 566.112 -0.949982 1.2575 0
M  V30 5960 C 567.042 -2.06483 1.09028 0
M  V30 5961 C 568.023 -1.701 -0.00201532 0
M  V30 5962 O 569.208 -1.93469 0.168383 0
M  V30 5963 C 566.338 -3.39899 0.71316 0
M  V30 5964 C 565.292 -3.90309 1.75621 0
M  V30 5965 C 564.618 -5.20274 1.23365 0
M  V30 5966 C 565.918 -4.16169 3.15596 0
M  V30 5967 H 567.612 -2.20731 2.02283 0
M  V30 5968 H 565.158 -1.06066 0.973964 0
M  V30 5969 H 567.111 -4.17346 0.58309 0
M  V30 5970 H 565.835 -3.25602 -0.255091 0
M  V30 5971 H 564.494 -3.15035 1.8748 0
M  V30 5972 H 564.142 -5.02351 0.255491 0
M  V30 5973 H 563.842 -5.54971 1.93082 0
M  V30 5974 H 565.366 -6.00314 1.11607 0
M  V30 5975 H 566.78 -4.84259 3.06864 0
M  V30 5976 H 565.177 -4.62131 3.82825 0
M  V30 5977 H 566.247 -3.22273 3.6231 0
M  V30 5978 N 567.59 -1.07411 -1.15328 0
M  V30 5979 C 568.522 -0.652924 -2.19703 0
M  V30 5980 C 569.535 0.294869 -1.60107 0
M  V30 5981 O 570.724 0.0840932 -1.78302 0
M  V30 5982 C 567.824 0.061434 -3.38844 0
M  V30 5983 C 566.997 -0.902696 -4.27984 0
M  V30 5984 C 566.056 -0.225521 -5.25717 0
M  V30 5985 O 565.082 -0.86676 -5.62562 0
M  V30 5986 N 566.284 1.02858 -5.71315 0
M  V30 5987 H 569.049 -1.55081 -2.56457 0
M  V30 5988 H 566.61 -0.958883 -1.30449 0
M  V30 5989 H 568.602 0.525145 -4.01278 0
M  V30 5990 H 567.172 0.861269 -3.00501 0
M  V30 5991 H 566.392 -1.54551 -3.6264 0
M  V30 5992 H 567.68 -1.55636 -4.84412 0
M  V30 5993 H 567.078 1.56948 -5.43492 0
M  V30 5994 H 565.635 1.43596 -6.35786 0
M  V30 5995 N 569.068 1.32177 -0.85831 0
M  V30 5996 C 570.316 1.96735 -0.462568 0
M  V30 5997 C 570.637 1.6824 0.985911 0
M  V30 5998 O 569.907 0.991564 1.68952 0
M  V30 5999 H 568.487 0.727849 -0.168064 0
M  V30 6000 H 571.149 1.61195 -1.09554 0
M  V30 6001 H 570.245 3.06068 -0.610647 0
M  V30 6002 N 570.547 0.616602 1.45037 0
M  V30 6003 C 571.963 0.280994 1.57107 0
M  V30 6004 C 572.163 -1.21627 1.60653 0
M  V30 6005 O 571.219 -1.9997 1.54169 0
M  V30 6006 C 572.532 0.960116 2.8496 0
M  V30 6007 C 574.08 0.936884 2.98649 0
M  V30 6008 C 574.555 1.59619 4.29285 0
M  V30 6009 N 576.046 1.5621 4.36065 0
M  V30 6010 C 576.781 2.04131 5.35834 0
M  V30 6011 N 576.277 2.60177 6.4209 0
M  V30 6012 N 578.07 1.94845 5.27249 0
M  V30 6013 H 570.221 1.58867 1.40979 0
M  V30 6014 H 572.484 0.666024 0.674623 0
M  V30 6015 H 572.19 2.01473 2.88273 0
M  V30 6016 H 572.064 0.488921 3.74018 0
M  V30 6017 H 574.451 -0.109209 2.94898 0
M  V30 6018 H 574.532 1.44643 2.10979 0
M  V30 6019 H 574.176 2.64166 4.33796 0
M  V30 6020 H 574.106 1.06159 5.15789 0
M  V30 6021 H 576.597 1.15276 3.59889 0
M  V30 6022 H 576.91 2.94513 7.1448 0
M  V30 6023 H 575.255 2.64221 6.42816 0
M  V30 6024 H 578.446 1.50792 4.43147 0
M  V30 6025 H 578.619 2.32504 6.04852 0
M  V30 6026 N 572.025 -1.5352 0.356285 0
M  V30 6027 C 572.958 -2.2177 -0.537913 0
M  V30 6028 C 573.936 -1.20626 -1.09033 0
M  V30 6029 O 575.12 -1.49494 -1.1482 0
M  V30 6030 C 572.247 -2.90513 -1.74126 0
M  V30 6031 C 571.293 -4.05652 -1.31715 0
M  V30 6032 S 572.126 -5.34505 -0.326236 0
M  V30 6033 C 573.282 -6.06757 -1.53612 0
M  V30 6034 H 573.515 -2.97271 0.0417411 0
M  V30 6035 H 571.048 -1.53761 0.140372 0
M  V30 6036 H 573.006 -3.30735 -2.43155 0
M  V30 6037 H 571.667 -2.14754 -2.29215 0
M  V30 6038 H 570.86 -4.52733 -2.21471 0
M  V30 6039 H 570.462 -3.67272 -0.706183 0
M  V30 6040 H 572.754 -6.30924 -2.46863 0
M  V30 6041 H 573.697 -6.99395 -1.10687 0
M  V30 6042 H 574.105 -5.3708 -1.73796 0
M  V30 6043 N 573.503 -0.0852151 -1.57369 0
M  V30 6044 C 574.731 0.58946 -1.98325 0
M  V30 6045 C 575.146 1.62333 -0.96403 0
M  V30 6046 O 574.503 1.82438 0.0476395 0
M  V30 6047 C 574.554 1.24604 -3.39347 0
M  V30 6048 O 574.275 0.253532 -4.37366 0
M  V30 6049 C 575.776 2.00726 -3.95252 0
M  V30 6050 H 572.996 0.158783 -0.651942 0
M  V30 6051 H 575.54 -0.161584 -2.03861 0
M  V30 6052 H 573.695 1.94808 -3.34856 0
M  V30 6053 H 574.109 0.726207 -5.19448 0
M  V30 6054 H 575.583 2.42039 -4.96106 0
M  V30 6055 H 576.06 2.86919 -3.32527 0
M  V30 6056 H 576.666 1.3536 -4.03185 0
M  V30 6057 N 574.981 1.5647 0.188427 0
M  V30 6058 C 575.911 1.98101 1.23606 0
M  V30 6059 C 576.892 0.853961 1.47111 0
M  V30 6060 O 578.077 1.11879 1.58735 0
M  V30 6061 C 575.207 2.32624 2.57882 0
M  V30 6062 C 574.161 3.48129 2.48978 0
M  V30 6063 C 573.487 3.68347 3.87588 0
M  V30 6064 C 574.787 4.82112 2.00911 0
M  V30 6065 H 576.481 2.85864 0.890068 0
M  V30 6066 H 574.027 1.37532 0.426714 0
M  V30 6067 H 575.98 2.60343 3.3136 0
M  V30 6068 H 574.704 1.41751 2.94235 0
M  V30 6069 H 573.363 3.20511 1.77956 0
M  V30 6070 H 573.011 2.74793 4.21305 0
M  V30 6071 H 572.711 4.46055 3.82503 0
M  V30 6072 H 574.235 3.98449 4.62678 0
M  V30 6073 H 575.649 5.08819 2.64151 0
M  V30 6074 H 574.046 5.63337 2.06814 0
M  V30 6075 H 575.116 4.75249 0.96262 0
M  V30 6076 N 576.459 -0.456382 1.50847 0
M  V30 6077 C 577.687 -1.23026 1.66349 0
M  V30 6078 C 578.102 -1.85473 0.352868 0
M  V30 6079 O 577.459 -1.69885 -0.666739 0
M  V30 6080 C 577.51 -2.32827 2.76539 0
M  V30 6081 O 577.231 -1.72938 4.02522 0
M  V30 6082 C 578.732 -3.23448 3.03144 0
M  V30 6083 H 575.952 -0.371527 0.558756 0
M  V30 6084 H 578.496 -0.543082 1.97157 0
M  V30 6085 H 576.651 -2.97294 2.48384 0
M  V30 6086 H 577.065 -2.45357 4.63573 0
M  V30 6087 H 578.539 -3.96669 3.83872 0
M  V30 6088 H 579.016 -3.83094 2.14793 0
M  V30 6089 H 579.622 -2.64702 3.32886 0
M  V30 6090 N 577.937 -1.40673 -0.710563 0
M  V30 6091 C 579.185 -1.38947 -1.46759 0
M  V30 6092 C 579.506 0.00572879 -1.94999 0
M  V30 6093 O 578.776 0.961358 -1.70689 0
M  V30 6094 H 577.356 -0.5114 -0.544499 0
M  V30 6095 H 580.018 -1.75773 -0.842012 0
M  V30 6096 H 579.114 -2.06745 -2.33801 0
M  V30 6097 N 579.415 0.9433 -1.26252 0
M  V30 6098 C 580.664 1.68369 -1.11062 0
M  V30 6099 C 580.977 1.92514 0.346104 0
M  V30 6100 O 582.183 2.64358 0.618646 0
M  V30 6101 C 580.639 3.03171 -1.93946 0
M  V30 6102 C 580.247 2.86782 -3.4418 0
M  V30 6103 C 581.991 3.80916 -1.87359 0
M  V30 6104 C 579.898 4.17044 -4.19319 0
M  V30 6105 H 578.828 0.631469 -0.412023 0
M  V30 6106 H 581.479 1.04922 -1.50544 0
M  V30 6107 H 579.861 3.67587 -1.47296 0
M  V30 6108 H 581.035 2.31229 -3.98585 0
M  V30 6109 H 579.35 2.22482 -3.51981 0
M  V30 6110 H 581.947 4.77417 -2.40784 0
M  V30 6111 H 582.29 4.07658 -0.843857 0
M  V30 6112 H 582.823 3.2327 -2.31821 0
M  V30 6113 H 579.562 3.95487 -5.22753 0
M  V30 6114 H 579.082 4.72319 -3.69696 0
M  V30 6115 H 580.761 4.85513 -4.27651 0
M  V30 6116 N 580.893 1.08022 1.14757 0
M  V30 6117 C 582.139 0.808705 1.85978 0
M  V30 6118 C 582.472 -0.663764 1.82504 0
M  V30 6119 O 581.747 -1.48765 1.25296 0
M  V30 6120 C 582.03 1.32623 3.34788 0
M  V30 6121 C 581.883 2.86375 3.46856 0
M  V30 6122 C 583.202 0.948291 4.29762 0
M  V30 6123 H 580.321 0.295244 0.675278 0
M  V30 6124 H 582.963 1.33917 1.34783 0
M  V30 6125 H 581.113 0.875002 3.78518 0
M  V30 6126 H 582.785 3.39839 3.11941 0
M  V30 6127 H 581.028 3.24232 2.88194 0
M  V30 6128 H 581.699 3.17658 4.51439 0
M  V30 6129 H 584.175 1.33722 3.94028 0
M  V30 6130 H 583.051 1.33765 5.32352 0
M  V30 6131 H 583.312 -0.145094 4.41862 0
M  V30 6132 N 582.371 -1.3172 0.865308 0
M  V30 6133 C 583.596 -2.01591 0.487415 0
M  V30 6134 C 584.021 -1.6455 -0.911307 0
M  V30 6135 O 583.379 -0.851689 -1.6005 0
M  V30 6136 C 583.427 -3.54759 0.646401 0
M  V30 6137 O 582.531 -4.11185 -0.316284 0
M  V30 6138 H 581.872 -0.634884 0.194468 0
M  V30 6139 H 584.402 -1.68024 1.16744 0
M  V30 6140 H 584.412 -4.04438 0.537932 0
M  V30 6141 H 583.087 -3.8106 1.66632 0
M  V30 6142 H 581.664 -3.72543 -0.163162 0
M  V30 6143 N 583.85 -0.624285 -1.44708 0
M  V30 6144 C 585.096 -0.13473 -2.02953 0
M  V30 6145 C 585.451 1.22724 -1.48178 0
M  V30 6146 O 584.744 1.80109 -0.653542 0
M  V30 6147 C 584.938 -0.0546353 -3.57358 0
M  V30 6148 C 584.767 -1.40729 -4.27113 0
M  V30 6149 C 583.537 -1.99231 -4.64365 0
M  V30 6150 C 585.735 -2.33968 -4.58 0
M  V30 6151 N 583.716 -3.27803 -5.19055 0
M  V30 6152 C 585.088 -3.47149 -5.137 0
M  V30 6153 C 587.143 -2.33132 -4.39948 0
M  V30 6154 C 585.846 -4.59682 -5.53249 0
M  V30 6155 C 587.872 -3.44724 -4.8054 0
M  V30 6156 C 587.234 -4.56629 -5.36348 0
M  V30 6157 H 583.332 -0.0930617 -0.776443 0
M  V30 6158 H 585.917 -0.826286 -1.76297 0
M  V30 6159 H 584.088 0.606183 -3.8364 0
M  V30 6160 H 585.82 0.443116 -4.02267 0
M  V30 6161 H 582.575 -1.52251 -4.4846 0
M  V30 6162 H 582.999 -3.93519 -5.50883 0
M  V30 6163 H 587.641 -1.47868 -3.961 0
M  V30 6164 H 585.359 -5.4566 -5.96054 0
M  V30 6165 H 588.945 -3.45245 -4.68291 0
M  V30 6166 H 587.825 -5.41551 -5.67179 0
M  V30 6167 N 585.328 1.53329 -0.364422 0
M  V30 6168 C 586.576 2.00842 0.225189 0
M  V30 6169 C 586.897 1.25345 1.49378 0
M  V30 6170 O 586.167 0.366396 1.92443 0
M  V30 6171 H 584.747 0.742009 0.0862027 0
M  V30 6172 H 587.409 1.8863 -0.490389 0
M  V30 6173 H 586.505 3.08795 0.452987 0
M  V30 6174 N 586.806 0.0935595 1.57322 0
M  V30 6175 C 588.222 -0.263091 1.57417 0
M  V30 6176 C 588.422 -1.68526 1.1046 0
M  V30 6177 O 587.478 -2.40139 0.780357 0
M  V30 6178 C 588.791 -0.0529201 3.00653 0
M  V30 6179 C 590.339 -0.120788 3.12767 0
M  V30 6180 C 590.814 0.0613707 4.57959 0
M  V30 6181 N 592.305 0.00648534 4.632 0
M  V30 6182 C 593.04 0.122699 5.73269 0
M  V30 6183 N 592.536 0.29366 6.92177 0
M  V30 6184 N 594.329 0.0640787 5.62063 0
M  V30 6185 H 586.48 1.02277 1.86154 0
M  V30 6186 H 588.743 0.4007 0.859153 0
M  V30 6187 H 588.449 0.929279 3.39201 0
M  V30 6188 H 588.323 -0.795899 3.68708 0
M  V30 6189 H 590.71 -1.09349 2.74093 0
M  V30 6190 H 590.791 0.653656 2.47307 0
M  V30 6191 H 590.435 1.03093 4.97327 0
M  V30 6192 H 590.365 -0.732748 5.21477 0
M  V30 6193 H 592.856 -0.123173 3.77699 0
M  V30 6194 H 593.169 0.37389 7.71895 0
M  V30 6195 H 591.514 0.329307 6.94219 0
M  V30 6196 H 594.705 -0.0683396 4.6805 0
M  V30 6197 H 594.878 0.158097 6.47807 0
M  V30 6198 N 588.284 -1.56567 -0.180126 0
M  V30 6199 C 589.532 -1.81133 -0.896392 0
M  V30 6200 C 589.853 -0.669114 -1.83161 0
M  V30 6201 O 589.123 0.311616 -1.93406 0
M  V30 6202 H 587.703 -0.668172 -0.333999 0
M  V30 6203 H 590.365 -1.94048 -0.182051 0
M  V30 6204 H 589.461 -2.74854 -1.47857 0
M  V30 6205 N 589.762 0.448376 -1.51087 0
M  V30 6206 C 591.002 1.20832 -1.64861 0
M  V30 6207 C 591.366 1.88748 -0.351873 0
M  V30 6208 O 592.567 2.66307 -0.365265 0
M  V30 6209 C 590.838 2.20674 -2.81137 0
M  V30 6210 S 592.397 3.05303 -3.15176 0
M  V30 6211 H 589.215 0.40992 -0.580936 0
M  V30 6212 H 591.817 0.501624 -1.88955 0
M  V30 6213 H 590.521 1.69399 -3.73808 0
M  V30 6214 H 590.052 2.9594 -2.59198 0
M  V30 6215 H 592.067 4.22162 -2.60756 0
M  V30 6216 N 591.24 1.41047 0.703093 0
M  V30 6217 C 592.203 1.42036 1.79884 0
M  V30 6218 C 593.203 0.312153 1.57741 0
M  V30 6219 O 594.393 0.571672 1.64553 0
M  V30 6220 C 591.525 1.22437 3.18154 0
M  V30 6221 H 592.718 2.39572 1.80403 0
M  V30 6222 H 590.271 1.27079 0.909977 0
M  V30 6223 H 591.006 0.257112 3.23279 0
M  V30 6224 H 590.791 2.02723 3.35627 0
M  V30 6225 H 592.281 1.25946 3.98155 0
M  V30 6226 N 592.718 -0.936591 1.26751 0
M  V30 6227 C 593.648 -2.05315 1.11212 0
M  V30 6228 C 594.629 -1.70092 0.0160262 0
M  V30 6229 O 595.814 -1.93279 0.188894 0
M  V30 6230 C 592.944 -3.39123 0.749171 0
M  V30 6231 C 591.898 -3.88425 1.79751 0
M  V30 6232 C 591.224 -5.18936 1.28876 0
M  V30 6233 C 592.524 -4.12798 3.19992 0
M  V30 6234 H 594.218 -2.18573 2.04613 0
M  V30 6235 H 591.764 -1.05027 0.985159 0
M  V30 6236 H 593.717 -4.16704 0.627323 0
M  V30 6237 H 592.441 -3.25855 -0.220543 0
M  V30 6238 H 591.1 -3.13028 1.90811 0
M  V30 6239 H 590.748 -5.02051 0.308757 0
M  V30 6240 H 590.448 -5.52892 1.98958 0
M  V30 6241 H 591.972 -5.99096 1.17967 0
M  V30 6242 H 593.386 -4.80977 3.11983 0
M  V30 6243 H 591.783 -4.58044 3.87705 0
M  V30 6244 H 592.853 -3.18412 3.65707 0
M  V30 6245 N 594.196 -1.08629 -1.14182 0
M  V30 6246 C 595.143 -0.718299 -2.19338 0
M  V30 6247 C 596.113 0.296587 -1.63431 0
M  V30 6248 O 597.298 0.180079 -1.89948 0
M  V30 6249 C 594.438 -0.136203 -3.44831 0
M  V30 6250 C 593.551 -1.20414 -4.14879 0
M  V30 6251 C 592.686 -0.585666 -5.27962 0
M  V30 6252 C 591.725 -1.63548 -5.89846 0
M  V30 6253 N 590.862 -1.03864 -6.94375 0
M  V30 6254 H 595.702 -1.61932 -2.50164 0
M  V30 6255 H 593.239 -0.80919 -1.22844 0
M  V30 6256 H 595.197 0.219021 -4.16625 0
M  V30 6257 H 593.827 0.728121 -3.14481 0
M  V30 6258 H 592.879 -1.67676 -3.41451 0
M  V30 6259 H 594.191 -1.99959 -4.56966 0
M  V30 6260 H 593.345 -0.178818 -6.06436 0
M  V30 6261 H 592.084 0.24142 -4.87102 0
M  V30 6262 H 591.089 -2.05197 -5.10073 0
M  V30 6263 H 592.314 -2.46509 -6.3278 0
M  V30 6264 H 590.26 -0.232687 -6.55587 0
M  V30 6265 H 590.177 -1.77116 -7.3496 0
M  V30 6266 H 591.445 -0.657724 -7.7672 0
M  V30 6267 N 595.674 1.31259 -0.872281 0
M  V30 6268 C 596.951 1.91362 -0.404943 0
M  V30 6269 C 597.331 1.79362 1.11321 0
M  V30 6270 O 596.679 1.20277 1.94283 0
M  V30 6271 C 596.889 3.3749 -0.888893 0
M  V30 6272 C 598.237 4.14593 -0.916384 0
M  V30 6273 O 599.261 3.46282 -0.834701 0
M  V30 6274 O 598.12 5.3661 -1.03498 0
M  V30 6275 H 595.214 0.818016 -0.121569 0
M  V30 6276 H 597.76 1.39912 -0.960346 0
M  V30 6277 H 596.532 3.40249 -1.93251 0
M  V30 6278 H 596.155 3.96375 -0.311932 0
M  V30 6279 N 597.152 0.631951 1.44375 0
M  V30 6280 C 598.099 -0.0724807 2.30686 0
M  V30 6281 C 599.069 -0.835975 1.43529 0
M  V30 6282 O 600.254 -0.816849 1.7243 0
M  V30 6283 C 597.394 -1.04753 3.28817 0
M  V30 6284 C 596.507 -0.282367 4.31076 0
M  V30 6285 C 595.642 -1.2493 5.163 0
M  V30 6286 C 594.681 -0.473349 6.10267 0
M  V30 6287 N 593.818 -1.39079 6.88187 0
M  V30 6288 H 598.658 0.669477 2.90383 0
M  V30 6289 H 596.195 0.341927 1.43071 0
M  V30 6290 H 598.153 -1.62623 3.842 0
M  V30 6291 H 596.783 -1.75661 2.70819 0
M  V30 6292 H 595.835 0.412268 3.78159 0
M  V30 6293 H 597.147 0.321955 4.9776 0
M  V30 6294 H 596.301 -1.89931 5.76204 0
M  V30 6295 H 595.04 -1.88755 4.49692 0
M  V30 6296 H 594.045 0.190142 5.49471 0
M  V30 6297 H 595.27 0.16019 6.78911 0
M  V30 6298 H 593.216 -2.01623 6.24247 0
M  V30 6299 H 593.133 -0.840513 7.51313 0
M  V30 6300 H 594.401 -2.02961 7.52613 0
M  V30 6301 N 598.631 -1.53133 0.372548 0
M  V30 6302 C 600.042 -1.86404 -0.105155 0
M  V30 6303 C 600.393 -1.29289 -1.47576 0
M  V30 6304 O 599.518 -0.617646 -2.07398 0
M  V30 6305 C 600.113 -3.38223 -0.197588 0
M  V30 6306 C 598.672 -3.71266 -0.619556 0
M  V30 6307 C 597.819 -2.76353 0.228919 0
M  V30 6308 H 600.77 -1.47282 0.591077 0
M  V30 6309 H 600.791 -3.66577 -1.01987 0
M  V30 6310 H 600.303 -3.79763 0.800099 0
M  V30 6311 H 598.404 -3.35287 -1.62522 0
M  V30 6312 H 598.517 -4.77515 -0.389332 0
M  V30 6313 H 596.881 -2.52888 -0.303271 0
M  V30 6314 H 597.664 -3.20728 1.22428 0
M  V30 6315 N 600.109 -0.101901 -1.5727 0
M  V30 6316 C 601.357 0.559091 -1.94213 0
M  V30 6317 C 601.678 1.68297 -0.984948 0
M  V30 6318 O 600.948 1.95863 -0.0381975 0
M  V30 6319 H 599.528 0.20952 -0.717015 0
M  V30 6320 H 602.19 -0.166831 -1.94185 0
M  V30 6321 H 601.286 0.96485 -2.96811 0
M  V30 6322 N 601.587 1.56661 0.17182 0
M  V30 6323 C 602.833 1.82235 0.889845 0
M  V30 6324 C 603.166 0.679673 1.81918 0
M  V30 6325 O 602.441 -0.318404 1.91876 0
M  V30 6326 C 602.724 3.18195 1.68595 0
M  V30 6327 C 602.577 4.42989 0.779773 0
M  V30 6328 C 603.896 3.5109 2.65375 0
M  V30 6329 H 601.015 0.66291 0.322056 0
M  V30 6330 H 603.657 1.89358 0.15608 0
M  V30 6331 H 601.807 3.12253 2.3115 0
M  V30 6332 H 603.479 4.60997 0.16714 0
M  V30 6333 H 601.722 4.33711 0.0877964 0
M  V30 6334 H 602.393 5.3467 1.3723 0
M  V30 6335 H 604.869 3.57482 2.12946 0
M  V30 6336 H 603.745 4.47298 3.18144 0
M  V30 6337 H 604.006 2.75768 3.45549 0
M  V30 6338 N 603.065 -0.440357 1.51323 0
M  V30 6339 C 604.295 -1.21079 1.67402 0
M  V30 6340 C 604.703 -1.85555 0.369599 0
M  V30 6341 O 604.046 -1.71375 -0.661525 0
M  V30 6342 C 604.108 -2.33839 2.73056 0
M  V30 6343 C 603.772 -1.89755 4.15743 0
M  V30 6344 C 604.769 -1.40268 5.0062 0
M  V30 6345 C 602.454 -1.97539 4.61826 0
M  V30 6346 C 604.448 -0.991474 6.29642 0
M  V30 6347 C 602.135 -1.56029 5.90845 0
M  V30 6348 C 603.133 -1.06915 6.7458 0
M  V30 6349 O 602.821 -0.659933 8.01187 0
M  V30 6350 H 602.553 -0.371133 0.56501 0
M  V30 6351 H 605.107 -0.528409 1.98487 0
M  V30 6352 H 603.337 -3.05345 2.37279 0
M  V30 6353 H 605.026 -2.95713 2.78044 0
M  V30 6354 H 605.792 -1.33652 4.66221 0
M  V30 6355 H 601.671 -2.34713 3.96776 0
M  V30 6356 H 605.215 -0.607425 6.9495 0
M  V30 6357 H 601.112 -1.62315 6.24759 0
M  V30 6358 H 601.88 -0.786052 8.14717 0
M  V30 6359 N 604.543 -1.41418 -0.695603 0
M  V30 6360 C 605.771 -1.4413 -1.48439 0
M  V30 6361 C 606.186 -0.0465698 -1.88743 0
M  V30 6362 O 605.543 0.934117 -1.56782 0
M  V30 6363 C 605.594 -2.34998 -2.74696 0
M  V30 6364 O 605.315 -3.69043 -2.36091 0
M  V30 6365 C 606.816 -2.46513 -3.68438 0
M  V30 6366 H 604.036 -0.490905 -0.457442 0
M  V30 6367 H 606.58 -1.85702 -0.856454 0
M  V30 6368 H 604.735 -1.96735 -3.33728 0
M  V30 6369 H 605.149 -4.17505 -3.17474 0
M  V30 6370 H 606.623 -3.1426 -4.53811 0
M  V30 6371 H 607.1 -1.49638 -4.12922 0
M  V30 6372 H 607.706 -2.85412 -3.1531 0
M  V30 6373 N 606.021 0.929856 -1.27246 0
M  V30 6374 C 607.437 1.20542 -1.04603 0
M  V30 6375 C 607.637 2.00276 0.221754 0
M  V30 6376 O 606.693 2.34835 0.927833 0
M  V30 6377 C 608.006 1.95566 -2.28417 0
M  V30 6378 C 609.554 2.08513 -2.33433 0
M  V30 6379 C 610.029 2.86943 -3.5697 0
M  V30 6380 N 611.52 2.94512 -3.57515 0
M  V30 6381 C 612.255 3.55656 -4.49774 0
M  V30 6382 N 611.751 4.18209 -5.52334 0
M  V30 6383 N 613.544 3.53038 -4.37402 0
M  V30 6384 H 605.695 0.397113 -2.08655 0
M  V30 6385 H 607.958 0.238277 -0.917566 0
M  V30 6386 H 607.664 1.44395 -3.20691 0
M  V30 6387 H 607.538 2.9619 -2.33563 0
M  V30 6388 H 609.925 2.58872 -1.41666 0
M  V30 6389 H 610.006 1.07117 -2.32292 0
M  V30 6390 H 609.65 2.37268 -4.49072 0
M  V30 6391 H 609.58 3.8862 -3.55362 0
M  V30 6392 H 612.071 2.50053 -2.83341 0
M  V30 6393 H 612.384 4.62796 -6.18902 0
M  V30 6394 H 610.729 4.16761 -5.56179 0
M  V30 6395 H 613.92 3.0337 -3.56489 0
M  V30 6396 H 614.093 4.004 -5.09493 0
M  V30 6397 N 607.499 1.09233 1.13605 0
M  V30 6398 C 608.745 0.828385 1.8511 0
M  V30 6399 C 609.078 -0.64437 1.83198 0
M  V30 6400 O 608.353 -1.47428 1.26867 0
M  V30 6401 C 608.636 1.36167 3.33363 0
M  V30 6402 C 608.489 2.90038 3.438 0
M  V30 6403 C 609.808 0.993819 4.28732 0
M  V30 6404 H 606.927 0.30239 0.672108 0
M  V30 6405 H 609.569 1.35339 1.33355 0
M  V30 6406 H 607.719 0.9151 3.77569 0
M  V30 6407 H 609.391 3.43128 3.08319 0
M  V30 6408 H 607.634 3.27271 2.84739 0
M  V30 6409 H 608.305 3.22428 4.48045 0
M  V30 6410 H 610.781 1.37893 3.92587 0
M  V30 6411 H 609.657 1.39403 5.30903 0
M  V30 6412 H 609.918 -0.0982206 4.41991 0
M  V30 6413 N 608.977 -1.30795 0.87923 0
M  V30 6414 C 610.202 -2.01063 0.508769 0
M  V30 6415 C 610.627 -1.65508 -0.893803 0
M  V30 6416 O 609.985 -0.868616 -1.59138 0
M  V30 6417 C 610.033 -3.54054 0.683991 0
M  V30 6418 O 609.137 -4.11498 -0.272654 0
M  V30 6419 H 608.478 -0.632786 0.201191 0
M  V30 6420 H 611.008 -1.66776 1.18519 0
M  V30 6421 H 611.018 -4.03845 0.580798 0
M  V30 6422 H 609.693 -3.79271 1.70665 0
M  V30 6423 H 608.27 -3.72695 -0.12364 0
M  V30 6424 N 610.455 -0.639598 -1.44038 0
M  V30 6425 C 611.405 0.0823038 -2.27851 0
M  V30 6426 C 612.389 0.807991 -1.39141 0
M  V30 6427 O 613.581 0.692702 -1.62882 0
M  V30 6428 C 610.71 1.05742 -3.26609 0
M  V30 6429 C 609.796 0.330911 -4.22807 0
M  V30 6430 N 610.187 -0.645126 -5.01669 0
M  V30 6431 C 608.485 0.574214 -4.42288 0
M  V30 6432 C 609.186 -1.07513 -5.71678 0
M  V30 6433 N 608.162 -0.412164 -5.42035 0
M  V30 6434 H 611.964 -0.666861 -2.86234 0
M  V30 6435 H 609.478 -0.465777 -1.55577 0
M  V30 6436 H 611.475 1.58927 -3.85419 0
M  V30 6437 H 610.135 1.80679 -2.69787 0
M  V30 6438 H 611.146 -1.02329 -5.0769 0
M  V30 6439 H 607.823 1.30581 -3.96554 0
M  V30 6440 H 609.213 -1.88196 -6.45005 0
M  V30 6441 N 611.933 1.52934 -0.380664 0
M  V30 6442 C 613.18 2.01467 0.204278 0
M  V30 6443 C 613.508 1.26744 1.47533 0
M  V30 6444 O 612.763 0.353723 1.92477 0
M  V30 6445 C 613.062 3.5349 0.527199 0
M  V30 6446 C 612.728 4.46171 -0.651295 0
M  V30 6447 C 611.39 4.71227 -0.974619 0
M  V30 6448 C 613.742 5.00909 -1.44012 0
M  V30 6449 C 611.07 5.4827 -2.08847 0
M  V30 6450 C 613.422 5.7917 -2.5445 0
M  V30 6451 C 612.086 6.02507 -2.87301 0
M  V30 6452 H 611.356 0.73722 0.0747504 0
M  V30 6453 H 614.003 1.84411 -0.516234 0
M  V30 6454 H 612.308 3.68574 1.32892 0
M  V30 6455 H 614.005 3.88529 0.992283 0
M  V30 6456 H 610.595 4.26829 -0.389276 0
M  V30 6457 H 614.779 4.81485 -1.20357 0
M  V30 6458 H 610.035 5.64567 -2.34679 0
M  V30 6459 H 614.209 6.20588 -3.1598 0
M  V30 6460 H 611.836 6.61989 -3.7373 0
M  V30 6461 N 613.412 0.11024 1.57214 0
M  V30 6462 C 614.342 -0.840002 2.17867 0
M  V30 6463 C 615.323 -1.28352 1.11624 0
M  V30 6464 O 616.508 -1.3477 1.39824 0
M  V30 6465 C 613.638 -2.09349 2.77111 0
M  V30 6466 C 612.592 -1.78807 3.8886 0
M  V30 6467 C 611.918 -3.11112 4.34872 0
M  V30 6468 C 613.218 -1.0632 5.11364 0
M  V30 6469 H 614.912 -0.334608 2.97524 0
M  V30 6470 H 612.458 -0.159502 1.43114 0
M  V30 6471 H 614.411 -2.76275 3.18198 0
M  V30 6472 H 613.135 -2.62198 1.9473 0
M  V30 6473 H 611.794 -1.14273 3.48335 0
M  V30 6474 H 611.442 -3.61877 3.49362 0
M  V30 6475 H 611.142 -2.91453 5.10224 0
M  V30 6476 H 612.666 -3.79171 4.78604 0
M  V30 6477 H 614.08 -1.63383 5.49526 0
M  V30 6478 H 612.477 -0.967876 5.92243 0
M  V30 6479 H 613.547 -0.0484569 4.84876 0
M  V30 6480 N 614.89 -1.56749 -0.16351 0
M  V30 6481 C 616.301 -1.72039 -0.725216 0
M  V30 6482 C 616.652 -0.72202 -1.82432 0
M  V30 6483 O 615.777 0.114942 -2.16095 0
M  V30 6484 C 616.372 -3.11932 -1.32227 0
M  V30 6485 C 614.931 -3.28879 -1.83072 0
M  V30 6486 C 614.078 -2.67984 -0.712716 0
M  V30 6487 H 617.029 -1.58579 0.0619772 0
M  V30 6488 H 617.05 -3.11015 -2.19202 0
M  V30 6489 H 616.562 -3.84572 -0.522103 0
M  V30 6490 H 614.663 -2.61209 -2.65708 0
M  V30 6491 H 614.776 -4.36688 -1.97079 0
M  V30 6492 H 613.14 -2.28005 -1.13515 0
M  V30 6493 H 613.923 -3.43216 0.0757361 0
M  V30 6494 N 616.368 0.432326 -1.51554 0
M  V30 6495 C 617.614 1.17997 -1.65675 0
M  V30 6496 C 617.969 1.88794 -0.37076 0
M  V30 6497 O 617.262 1.80817 0.633692 0
M  V30 6498 C 617.456 2.21907 -2.80164 0
M  V30 6499 C 617.285 1.6131 -4.19773 0
M  V30 6500 C 616.055 1.39585 -4.85638 0
M  V30 6501 C 618.253 1.08659 -5.0269 0
M  V30 6502 N 616.235 0.746374 -6.09346 0
M  V30 6503 C 617.606 0.562685 -6.17441 0
M  V30 6504 C 619.661 0.978831 -4.88184 0
M  V30 6505 C 618.364 -0.0584015 -7.19276 0
M  V30 6506 C 620.39 0.371631 -5.90231 0
M  V30 6507 C 619.752 -0.141711 -7.04257 0
M  V30 6508 H 615.851 0.419277 -0.660099 0
M  V30 6509 H 618.435 0.475809 -1.88797 0
M  V30 6510 H 616.606 2.89706 -2.58698 0
M  V30 6511 H 618.338 2.88867 -2.8344 0
M  V30 6512 H 615.093 1.65897 -4.43593 0
M  V30 6513 H 615.517 0.438934 -6.75576 0
M  V30 6514 H 620.159 1.36157 -4.00276 0
M  V30 6515 H 617.877 -0.453262 -8.06828 0
M  V30 6516 H 621.463 0.290086 -5.81076 0
M  V30 6517 H 620.343 -0.60417 -7.81869 0
M  V30 6518 N 617.846 1.41785 0.688094 0
M  V30 6519 C 619.095 1.4084 1.44385 0
M  V30 6520 C 619.408 0.0234166 1.95586 0
M  V30 6521 O 620.614 -0.108647 2.71283 0
M  V30 6522 C 619.07 2.47675 2.61123 0
M  V30 6523 C 618.678 3.92116 2.16677 0
M  V30 6524 C 620.422 2.55877 3.38714 0
M  V30 6525 C 618.329 4.90487 3.30419 0
M  V30 6526 H 617.259 0.523787 0.542368 0
M  V30 6527 H 619.91 1.6764 0.74627 0
M  V30 6528 H 618.292 2.14018 3.33185 0
M  V30 6529 H 619.466 4.35059 1.51856 0
M  V30 6530 H 617.781 3.87642 1.5206 0
M  V30 6531 H 620.378 3.26553 4.234 0
M  V30 6532 H 620.721 1.59801 3.84408 0
M  V30 6533 H 621.254 2.88662 2.73714 0
M  V30 6534 H 617.993 5.87994 2.89729 0
M  V30 6535 H 617.513 4.52187 3.94065 0
M  V30 6536 H 619.192 5.11591 3.96085 0
M  V30 6537 N 619.324 -0.923095 1.27737 0
M  V30 6538 C 620.74 -1.19985 1.05241 0
M  V30 6539 C 620.94 -2.00391 -0.21113 0
M  V30 6540 O 619.996 -2.35324 -0.915366 0
M  V30 6541 C 621.309 -1.94352 2.29451 0
M  V30 6542 C 622.857 -2.07273 2.34536 0
M  V30 6543 C 623.332 -2.85046 3.58487 0
M  V30 6544 N 624.823 -2.92612 3.59072 0
M  V30 6545 C 625.558 -3.53266 4.51654 0
M  V30 6546 N 625.054 -4.15274 5.54545 0
M  V30 6547 N 626.847 -3.50714 4.39268 0
M  V30 6548 H 618.998 -0.386042 2.08862 0
M  V30 6549 H 621.261 -0.233407 0.918817 0
M  V30 6550 H 620.967 -1.42692 3.21453 0
M  V30 6551 H 620.841 -2.94947 2.3513 0
M  V30 6552 H 623.228 -2.58117 1.43037 0
M  V30 6553 H 623.309 -1.05884 2.32857 0
M  V30 6554 H 622.953 -2.34884 4.50324 0
M  V30 6555 H 622.883 -3.8673 3.57418 0
M  V30 6556 H 625.374 -2.48547 2.84663 0
M  V30 6557 H 625.687 -4.59507 6.21348 0
M  V30 6558 H 624.032 -4.13806 5.58382 0
M  V30 6559 H 627.223 -3.01475 3.58093 0
M  V30 6560 H 627.396 -3.97693 5.1161 0
M  V30 6561 N 620.802 -1.09834 -1.13024 0
M  V30 6562 C 622.027 -0.85909 -1.88771 0
M  V30 6563 C 622.452 0.584402 -1.78791 0
M  V30 6564 O 621.81 1.41101 -1.13842 0
M  V30 6565 C 621.858 -1.30427 -3.36186 0
M  V30 6566 O 620.962 -0.465368 -4.09766 0
M  V30 6567 H 620.303 -0.310786 -0.586778 0
M  V30 6568 H 622.833 -1.46355 -1.42973 0
M  V30 6569 H 622.843 -1.2915 -3.8702 0
M  V30 6570 H 621.518 -2.3555 -3.42767 0
M  V30 6571 H 620.095 -0.542814 -3.68928 0
M  V30 6572 N 622.28 1.30327 -0.886154 0
M  V30 6573 C 623.23 2.25668 -0.325248 0
M  V30 6574 C 624.214 1.51318 0.546972 0
M  V30 6575 O 625.406 1.72623 0.391203 0
M  V30 6576 C 622.535 3.40229 0.458167 0
M  V30 6577 C 621.621 4.21933 -0.428208 0
M  V30 6578 N 622.012 4.82129 -1.52921 0
M  V30 6579 C 620.31 4.45439 -0.223535 0
M  V30 6580 C 621.011 5.43351 -2.07714 0
M  V30 6581 N 619.987 5.26002 -1.37195 0
M  V30 6582 H 623.789 2.69759 -1.1665 0
M  V30 6583 H 621.303 1.4478 -0.735691 0
M  V30 6584 H 623.3 4.07579 0.876648 0
M  V30 6585 H 621.96 2.97678 1.29684 0
M  V30 6586 H 622.971 4.81312 -1.91205 0
M  V30 6587 H 619.648 4.13481 0.577875 0
M  V30 6588 H 621.038 6.01118 -3.00178 0
M  V30 6589 N 623.758 0.647228 1.43697 0
M  V30 6590 C 624.986 0.16575 2.06235 0
M  V30 6591 C 625.401 -1.1662 1.48476 0
M  V30 6592 O 624.758 -1.7187 0.613762 0
M  V30 6593 C 624.809 0.0621651 3.61447 0
M  V30 6594 O 624.53 1.34146 4.17057 0
M  V30 6595 C 626.031 -0.446102 4.4105 0
M  V30 6596 H 623.251 0.0871158 0.665321 0
M  V30 6597 H 625.795 0.886183 1.84301 0
M  V30 6598 H 623.95 -0.608794 3.82587 0
M  V30 6599 H 624.364 1.19675 5.10664 0
M  V30 6600 H 625.838 -0.46755 5.50016 0
M  V30 6601 H 626.315 -1.47627 4.13646 0
M  V30 6602 H 626.921 0.192159 4.24866 0
M  V30 6603 N 625.236 -1.5273 0.388769 0
M  V30 6604 C 626.183 -2.26437 -0.446639 0
M  V30 6605 C 627.153 -1.28025 -1.05824 0
M  V30 6606 O 628.338 -1.56852 -1.08637 0
M  V30 6607 C 625.478 -3.07407 -1.56828 0
M  V30 6608 C 624.591 -4.20747 -0.979589 0
M  V30 6609 C 623.726 -4.89113 -2.07224 0
M  V30 6610 C 622.765 -5.94447 -1.45942 0
M  V30 6611 N 621.902 -6.56411 -2.49135 0
M  V30 6612 H 626.742 -2.97404 0.18837 0
M  V30 6613 H 624.279 -1.46727 0.104725 0
M  V30 6614 H 626.237 -3.52642 -2.22934 0
M  V30 6615 H 624.867 -2.3865 -2.17361 0
M  V30 6616 H 623.919 -3.7983 -0.208151 0
M  V30 6617 H 625.231 -4.9637 -0.491747 0
M  V30 6618 H 624.385 -5.3765 -2.81101 0
M  V30 6619 H 623.124 -4.13013 -2.59368 0
M  V30 6620 H 622.129 -5.4525 -0.705894 0
M  V30 6621 H 623.354 -6.7248 -0.945932 0
M  V30 6622 H 621.3 -5.83152 -3.00449 0
M  V30 6623 H 621.217 -7.27645 -2.05105 0
M  V30 6624 H 622.485 -7.09592 -3.22644 0
M  V30 6625 N 626.714 -0.118576 -1.57153 0
M  V30 6626 C 627.624 0.845484 -2.18835 0
M  V30 6627 C 628.64 1.29299 -1.16438 0
M  V30 6628 O 629.816 1.35607 -1.48905 0
M  V30 6629 C 626.881 2.07795 -2.77529 0
M  V30 6630 C 625.942 1.6824 -3.9496 0
M  V30 6631 C 625.175 2.85612 -4.50845 0
M  V30 6632 O 625.398 4.01025 -4.05629 0
M  V30 6633 O 624.332 2.62721 -5.41536 0
M  V30 6634 H 628.158 0.350568 -3.0167 0
M  V30 6635 H 625.743 0.107013 -1.49016 0
M  V30 6636 H 627.625 2.79978 -3.14945 0
M  V30 6637 H 626.3 2.56294 -1.97725 0
M  V30 6638 H 625.207 0.931663 -3.62313 0
M  V30 6639 H 626.54 1.24484 -4.76198 0
M  V30 6640 N 628.193 1.56834 0.155195 0
M  V30 6641 C 629.103 2.009 1.21146 0
M  V30 6642 C 630.119 0.923029 1.475 0
M  V30 6643 O 631.295 1.23189 1.59331 0
M  V30 6644 C 628.36 2.37378 2.52691 0
M  V30 6645 C 627.421 3.59883 2.34057 0
M  V30 6646 C 626.654 3.94612 3.59329 0
M  V30 6647 O 626.877 3.30104 4.65175 0
M  V30 6648 O 625.811 4.87895 3.52479 0
M  V30 6649 H 629.637 2.9105 0.867371 0
M  V30 6650 H 627.222 1.44916 0.363298 0
M  V30 6651 H 629.104 2.61737 3.3026 0
M  V30 6652 H 627.779 1.50385 2.86646 0
M  V30 6653 H 626.686 3.40722 1.54465 0
M  V30 6654 H 628.019 4.47468 2.0502 0
M  V30 6655 N 629.671 -0.424282 1.51781 0
M  V30 6656 C 630.619 -1.53649 1.74628 0
M  V30 6657 C 631.613 -1.57923 0.612922 0
M  V30 6658 O 632.819 -1.61511 0.794618 0
M  V30 6659 H 629.194 -0.510706 0.551981 0
M  V30 6660 H 631.165 -1.31558 2.67834 0
M  V30 6661 C 629.914 -2.91177 1.9003 0
M  V30 6662 H 629.237 -2.88625 2.76651 0
M  V30 6663 H 630.677 -3.6833 2.10021 0
M  V30 6664 C 629.136 -3.30303 0.663435 0
M  V30 6665 O 629.666 -4.01315 -0.175812 0
M  V30 6666 N 627.872 -2.86201 0.503723 0
M  V30 6667 H 627.419 -2.28583 1.18776 0
M  V30 6668 H 627.377 -3.12741 -0.322575 0
M  V30 6669 N 631.149 -1.42148 -0.680565 0
M  V30 6670 C 632.397 -1.42029 -1.43779 0
M  V30 6671 C 632.718 -0.0356347 -1.94967 0
M  V30 6672 O 631.988 0.924936 -1.7269 0
M  V30 6673 H 630.568 -0.522835 -0.533529 0
M  V30 6674 H 633.23 -1.7752 -0.804538 0
M  V30 6675 H 632.326 -2.11658 -2.29363 0
M  V30 6676 N 632.627 0.916307 -1.28225 0
M  V30 6677 C 633.557 2.0352 -1.14464 0
M  V30 6678 C 634.538 1.70045 -0.0430844 0
M  V30 6679 O 635.723 1.92954 -0.219619 0
M  V30 6680 C 632.853 3.37889 -0.803027 0
M  V30 6681 C 631.807 3.85516 -1.85908 0
M  V30 6682 C 631.133 5.1682 -1.37116 0
M  V30 6683 C 632.433 4.07655 -3.26519 0
M  V30 6684 H 634.127 2.1529 -2.08064 0
M  V30 6685 H 631.673 1.03446 -1.00174 0
M  V30 6686 H 633.626 4.15654 -0.693537 0
M  V30 6687 H 632.35 3.26164 0.168674 0
M  V30 6688 H 631.009 3.09953 -1.95767 0
M  V30 6689 H 630.657 5.01497 -0.38859 0
M  V30 6690 H 630.357 5.49657 -2.07728 0
M  V30 6691 H 631.881 5.97143 -1.27484 0
M  V30 6692 H 633.295 4.75953 -3.19596 0
M  V30 6693 H 631.692 4.51818 -3.94943 0
M  V30 6694 H 632.762 3.12553 -3.70727 0
M  V30 6695 N 634.105 1.10431 1.1244 0
M  V30 6696 C 635.068 0.756542 2.16354 0
M  V30 6697 C 636.068 -0.21899 1.59302 0
M  V30 6698 O 637.258 0.00415969 1.742 0
M  V30 6699 C 634.39 0.120612 3.40687 0
M  V30 6700 H 635.583 1.67696 2.48632 0
M  V30 6701 H 633.136 0.904832 1.27446 0
M  V30 6702 H 633.871 -0.810536 3.14008 0
M  V30 6703 H 633.656 0.822693 3.83372 0
M  V30 6704 H 635.146 -0.106945 4.17463 0
M  V30 6705 N 635.583 -1.29855 0.893053 0
M  V30 6706 C 636.513 -2.3035 0.382249 0
M  V30 6707 C 637.494 -1.61328 -0.539203 0
M  V30 6708 O 638.679 -1.88882 -0.451342 0
M  V30 6709 C 635.809 -3.45024 -0.396983 0
M  V30 6710 C 634.763 -4.258 0.433437 0
M  V30 6711 C 634.089 -5.32605 -0.472889 0
M  V30 6712 C 635.389 -4.94549 1.67984 0
M  V30 6713 H 637.083 -2.73325 1.22205 0
M  V30 6714 H 634.629 -1.314 0.589073 0
M  V30 6715 H 636.582 -4.14398 -0.765024 0
M  V30 6716 H 635.306 -3.00875 -1.2705 0
M  V30 6717 H 633.965 -3.58125 0.783723 0
M  V30 6718 H 633.613 -4.84702 -1.34435 0
M  V30 6719 H 633.313 -5.87547 0.0789958 0
M  V30 6720 H 634.837 -6.04832 -0.837269 0
M  V30 6721 H 636.251 -5.56395 1.38192 0
M  V30 6722 H 634.648 -5.59393 2.17254 0
M  V30 6723 H 635.718 -4.20215 2.41965 0
M  V30 6724 O 637.1 -0.794376 -1.40613 0
M  V30 6725 H 637.791 -0.366277 -1.90205 0
M  V30 END ATOM
M  V30 BEGIN BOND
M  V30 END BOND
M  V30 END CTAB
M  END
$$$$
