drugbank_target|Q08257 Quinone oxidoreductase (DB00266; DB03461; DB14009; DB14011)
 OpenBabel12092119493D

  0  0  0     0  0            999 V3000
M  V30 BEGIN CTAB
M  V30 COUNTS 5016 5061 0 0 0
M  V30 BEGIN ATOM
M  V30 1 H -0.908 1.98254 -0.117106 0
M  V30 2 N 0 1.576 0 0
M  V30 3 C 0.933 2.03868 1.02534 0
M  V30 4 C 1.911 0.928543 1.3348 0
M  V30 5 O 3.095 1.19667 1.45644 0
M  V30 6 C 0.222 2.43627 2.35294 0
M  V30 7 C -0.732 3.65373 2.2001 0
M  V30 8 S 0.101 5.13292 1.52614 0
M  V30 9 C 1.257 5.56322 2.86805 0
M  V30 10 H 1.49 2.90518 0.631377 0
M  V30 11 H -0.977 1.52953 0.210867 0
M  V30 12 H 0.981 2.67203 3.11629 0
M  V30 13 H -0.358 1.57376 2.7183 0
M  V30 14 H -1.165 3.90944 3.18086 0
M  V30 15 H -1.563 3.418 1.51819 0
M  V30 16 H 0.729 5.58782 3.83104 0
M  V30 17 H 1.672 6.56266 2.65933 0
M  V30 18 H 2.08 4.83886 2.90714 0
M  V30 19 N 1.4781 -0.272755 1.55222 0
M  V30 20 C 2.4411 -1.32041 1.87344 0
M  V30 21 C 3.4411 -1.42342 0.74803 0
M  V30 22 O 4.6311 -1.41488 1.0162 0
M  V30 23 C 1.7631 -2.70173 2.07893 0
M  V30 24 H 2.9561 -1.04789 2.80997 0
M  V30 25 H 0.5091 -0.51083 1.47717 0
M  V30 26 H 1.2441 -3.02605 1.16622 0
M  V30 27 H 1.0291 -2.64082 2.89833 0
M  V30 28 H 2.5191 -3.45869 2.34017 0
M  V30 29 N 2.9562 -1.48159 -0.537278 0
M  V30 30 C 4.1842 -1.59454 -1.31841 0
M  V30 31 C 4.5992 -0.252065 -1.8711 0
M  V30 32 O 3.9562 0.757621 -1.66031 0
M  V30 33 C 4.0072 -2.63546 -2.47439 0
M  V30 34 O 3.7282 -3.92583 -1.94449 0
M  V30 35 C 5.2292 -2.85212 -3.39366 0
M  V30 36 H 2.4492 -0.53785 -0.401196 0
M  V30 37 H 4.9932 -1.93932 -0.648891 0
M  V30 38 H 3.1482 -2.31946 -3.1029 0
M  V30 39 H 3.5622 -4.49629 -2.70063 0
M  V30 40 H 5.0362 -3.61863 -4.16844 0
M  V30 41 H 5.5132 -1.93765 -3.94147 0
M  V30 42 H 6.1192 -3.18086 -2.82314 0
M  V30 43 N 4.4343 0.785586 -1.36625 0
M  V30 44 C 5.6823 1.54057 -1.30808 0
M  V30 45 C 6.0033 1.94683 0.111157 0
M  V30 46 O 5.2733 1.65241 1.05224 0
M  V30 47 H 3.8533 0.571354 -0.481211 0
M  V30 48 H 6.5153 0.935821 -1.70963 0
M  V30 49 H 5.6113 2.44637 -1.93801 0
M  V30 50 N 5.9124 1.20967 1.01018 0
M  V30 51 C 6.8444 0.922059 2.09835 0
M  V30 52 C 7.8574 -0.0927106 1.62536 0
M  V30 53 O 9.0464 0.139127 1.77957 0
M  V30 54 C 6.1464 0.362004 3.36961 0
M  V30 55 C 5.3194 1.42986 4.13369 0
M  V30 56 C 4.3784 0.879976 5.1879 0
M  V30 57 O 3.4044 1.56219 5.47343 0
M  V30 58 N 4.6064 -0.307396 5.79686 0
M  V30 59 H 7.3714 1.8588 2.35093 0
M  V30 60 H 4.9324 1.11422 1.1746 0
M  V30 61 H 6.9244 -0.0201474 4.04695 0
M  V30 62 H 5.4944 -0.479437 3.08902 0
M  V30 63 H 4.7144 1.98608 3.40512 0
M  V30 64 H 6.0024 2.14885 4.61196 0
M  V30 65 H 5.4004 -0.878796 5.58832 0
M  V30 66 H 3.9574 -0.631115 6.48737 0
M  V30 67 N 7.3905 -1.2043 1.01659 0
M  V30 68 C 8.3375 -2.23215 0.586822 0
M  V30 69 C 9.3075 -1.61382 -0.393085 0
M  V30 70 O 10.4925 -1.88544 -0.292525 0
M  V30 71 C 7.6325 -3.45032 -0.0687464 0
M  V30 72 C 6.7455 -4.21296 0.955724 0
M  V30 73 C 5.8805 -5.30507 0.271208 0
M  V30 74 C 4.9195 -5.98515 1.28244 0
M  V30 75 N 4.0565 -6.99316 0.62459 0
M  V30 76 H 8.8965 -2.59336 1.46796 0
M  V30 77 H 6.4335 -1.27431 0.734836 0
M  V30 78 H 8.3915 -4.1459 -0.465965 0
M  V30 79 H 7.0215 -3.09604 -0.913529 0
M  V30 80 H 6.0735 -3.50803 1.4711 0
M  V30 81 H 7.3855 -4.6803 1.72479 0
M  V30 82 H 6.5395 -6.06428 -0.18151 0
M  V30 83 H 5.2785 -4.8481 -0.530163 0
M  V30 84 H 4.2835 -5.21355 1.74554 0
M  V30 85 H 5.5085 -6.46298 2.08509 0
M  V30 86 H 3.4545 -6.55812 -0.156914 0
M  V30 87 H 3.3715 -7.44178 1.33172 0
M  V30 88 H 4.6395 -7.79255 0.195462 0
M  V30 89 N 8.8686 -0.792821 -1.36206 0
M  V30 90 C 9.7986 -0.207853 -2.32573 0
M  V30 91 C 10.7796 0.659055 -1.56813 0
M  V30 92 O 11.9646 0.592176 -1.84951 0
M  V30 93 C 9.0946 0.655449 -3.41059 0
M  V30 94 C 8.0486 -0.111842 -4.27854 0
M  V30 95 C 7.3746 0.872274 -5.27537 0
M  V30 96 C 8.6746 -1.30299 -5.05786 0
M  V30 97 H 10.3686 -1.01294 -2.81744 0
M  V30 98 H 7.9146 -0.48854 -1.3546 0
M  V30 99 H 9.8676 1.07464 -4.07467 0
M  V30 100 H 8.5916 1.49328 -2.90463 0
M  V30 101 H 7.2506 -0.512053 -3.63006 0
M  V30 102 H 6.8986 1.70523 -4.73214 0
M  V30 103 H 6.5986 0.363291 -5.86476 0
M  V30 104 H 8.1226 1.28996 -5.96818 0
M  V30 105 H 9.5366 -0.959379 -5.65216 0
M  V30 106 H 7.9336 -1.7455 -5.74154 0
M  V30 107 H 9.0036 -2.09663 -4.37229 0
M  V30 108 N 10.3467 1.47872 -0.545128 0
M  V30 109 C 11.2797 2.2675 0.256885 0
M  V30 110 C 12.2577 1.33293 0.931228 0
M  V30 111 O 13.4417 1.62657 0.95262 0
M  V30 112 C 10.5687 3.09976 1.36501 0
M  V30 113 C 9.6147 4.1892 0.800496 0
M  V30 114 S 10.4477 5.34397 -0.343505 0
M  V30 115 C 11.6037 6.21186 0.766733 0
M  V30 116 H 11.8367 2.94425 -0.412479 0
M  V30 117 H 9.3697 1.50806 -0.331204 0
M  V30 118 H 11.3277 3.585 1.9997 0
M  V30 119 H 9.9887 2.41686 2.00616 0
M  V30 120 H 9.1817 4.76836 1.63227 0
M  V30 121 H 8.7837 3.73215 0.242217 0
M  V30 122 H 11.0757 6.56804 1.66178 0
M  V30 123 H 12.0187 7.07742 0.225204 0
M  V30 124 H 12.4267 5.54574 1.05396 0
M  V30 125 N 11.8248 0.280983 1.55075 0
M  V30 126 C 13.2408 -0.0729964 1.59433 0
M  V30 127 C 13.4408 -1.5411 1.29817 0
M  V30 128 O 12.4968 -2.29086 1.06187 0
M  V30 129 C 13.8098 0.306921 2.9913 0
M  V30 130 C 15.3578 0.254023 3.11968 0
M  V30 131 C 15.8328 0.608467 4.5394 0
M  V30 132 N 17.3238 0.560241 4.59799 0
M  V30 133 C 18.0588 0.80722 5.6769 0
M  V30 134 N 17.5548 1.11912 6.83701 0
M  V30 135 N 19.3478 0.735623 5.57266 0
M  V30 136 H 11.4988 1.238 1.7259 0
M  V30 137 H 13.7618 0.500547 0.805082 0
M  V30 138 H 13.4678 1.32816 3.25657 0
M  V30 139 H 13.3418 -0.349363 3.75579 0
M  V30 140 H 15.7288 -0.75794 2.852 0
M  V30 141 H 15.8098 0.944649 2.37718 0
M  V30 142 H 15.4538 1.61814 4.81434 0
M  V30 143 H 15.3838 -0.104013 5.26497 0
M  V30 144 H 17.8748 0.329288 3.76463 0
M  V30 145 H 18.1878 1.29409 7.61888 0
M  V30 146 H 16.5328 1.15695 6.85303 0
M  V30 147 H 19.7238 0.491752 4.6551 0
M  V30 148 H 19.8968 0.931482 6.4127 0
M  V30 149 N 13.3029 -1.57598 0.00835791 0
M  V30 150 C 14.2659 -2.07884 -0.965242 0
M  V30 151 C 15.2659 -0.989825 -1.26725 0
M  V30 152 O 16.4559 -1.25218 -1.21104 0
M  V30 153 C 13.5879 -2.52731 -2.28779 0
M  V30 154 H 14.7809 -2.95178 -0.530112 0
M  V30 155 H 12.3339 -1.54458 -0.239283 0
M  V30 156 H 13.0689 -1.68705 -2.76964 0
M  V30 157 H 12.8539 -3.32272 -2.08177 0
M  V30 158 H 14.3439 -2.91933 -2.98605 0
M  V30 159 N 14.781 0.264519 -1.55364 0
M  V30 160 C 16.027 0.99646 -1.76631 0
M  V30 161 C 16.36 1.85632 -0.570478 0
M  V30 162 O 15.635 1.89647 0.43175 0
M  V30 163 C 15.918 1.87187 -3.07625 0
M  V30 164 C 15.771 1.04138 -4.37579 0
M  V30 165 C 17.09 2.85749 -3.34717 0
M  V30 166 H 14.209 0.360841 -0.642622 0
M  V30 167 H 16.851 0.268218 -1.88097 0
M  V30 168 H 15.001 2.49279 -2.9798 0
M  V30 169 H 16.673 0.440517 -4.59192 0
M  V30 170 H 14.916 0.345115 -4.32425 0
M  V30 171 H 15.587 1.68729 -5.2558 0
M  V30 172 H 18.063 2.33793 -3.4421 0
M  V30 173 H 16.939 3.44136 -4.27623 0
M  V30 174 H 17.2 3.61311 -2.54768 0
M  V30 175 N 16.2591 1.48442 0.529413 0
M  V30 176 C 17.6751 1.34575 0.858004 0
M  V30 177 C 17.8751 0.3572 1.98309 0
M  V30 178 O 16.9311 -0.221379 2.51528 0
M  V30 179 C 18.2441 2.74617 1.22499 0
M  V30 180 C 19.7921 2.83109 1.33484 0
M  V30 181 C 20.2671 4.23854 1.73526 0
M  V30 182 N 21.7581 4.2653 1.80628 0
M  V30 183 C 22.4931 5.32372 2.12997 0
M  V30 184 N 21.9891 6.48491 2.43786 0
M  V30 185 N 23.7821 5.19766 2.14008 0
M  V30 186 H 15.9331 2.1133 -0.212925 0
M  V30 187 H 18.1961 0.947439 -0.0326199 0
M  V30 188 H 17.9021 3.4852 0.471905 0
M  V30 189 H 17.7761 3.08177 2.17501 0
M  V30 190 H 20.1631 2.09462 2.0787 0
M  V30 191 H 20.2441 2.53168 0.366027 0
M  V30 192 H 19.8881 4.98018 0.997013 0
M  V30 193 H 19.8181 4.5124 2.71459 0
M  V30 194 H 22.3091 3.42772 1.59108 0
M  V30 195 H 22.6221 7.24993 2.67592 0
M  V30 196 H 20.9671 6.51765 2.41304 0
M  V30 197 H 24.1581 4.28066 1.89412 0
M  V30 198 H 24.3311 6.02354 2.38902 0
M  V30 199 N 17.7372 -0.778329 1.37039 0
M  V30 200 C 18.9832 -1.53892 1.32079 0
M  V30 201 C 19.3162 -1.9396 -0.0965386 0
M  V30 202 O 18.5912 -1.63568 -1.05242 0
M  V30 203 C 18.8742 -2.80847 2.25382 0
M  V30 204 C 18.7272 -2.47076 3.75864 0
M  V30 205 C 20.0462 -3.82741 2.1725 0
M  V30 206 H 17.1652 -0.558303 0.48111 0
M  V30 207 H 19.8072 -0.893397 1.67685 0
M  V30 208 H 17.9572 -3.35931 1.95148 0
M  V30 209 H 19.6292 -1.97957 4.16666 0
M  V30 210 H 17.8722 -1.79863 3.94755 0
M  V30 211 H 18.5432 -3.37798 4.36574 0
M  V30 212 H 21.0192 -3.37133 2.43887 0
M  V30 213 H 19.8952 -4.69303 2.84686 0
M  V30 214 H 20.1562 -4.2652 1.16331 0
M  V30 215 N 19.2153 -1.21501 -1.00376 0
M  V30 216 C 20.4623 -1.03299 -1.74171 0
M  V30 217 C 20.7903 0.433326 -1.89612 0
M  V30 218 O 20.0453 1.33779 -1.42834 0
M  V30 219 C 20.3443 -1.67673 -3.15627 0
M  V30 220 C 20.0103 -3.17533 -3.2013 0
M  V30 221 C 18.6723 -3.58427 -3.21067 0
M  V30 222 C 21.0243 -4.13504 -3.17275 0
M  V30 223 C 18.3523 -4.93794 -3.16835 0
M  V30 224 C 20.7043 -5.48834 -3.14585 0
M  V30 225 C 19.3683 -5.89123 -3.13831 0
M  V30 226 H 18.6383 -0.377999 -0.637336 0
M  V30 227 H 21.2853 -1.51111 -1.17634 0
M  V30 228 H 19.5903 -1.12158 -3.75404 0
M  V30 229 H 21.2873 -1.51091 -3.71446 0
M  V30 230 H 17.8773 -2.84965 -3.20145 0
M  V30 231 H 22.0613 -3.82936 -3.15711 0
M  V30 232 H 17.3173 -5.24255 -3.1459 0
M  V30 233 H 21.4913 -6.22934 -3.1133 0
M  V30 234 H 19.1183 -6.93984 -3.10307 0
M  V30 235 N 20.6934 1.19889 -1.02296 0
M  V30 236 C 21.6034 2.26571 -0.608508 0
M  V30 237 C 22.6194 1.70299 0.356964 0
M  V30 238 O 23.7954 2.00235 0.216326 0
M  V30 239 C 20.8604 3.46677 0.0402814 0
M  V30 240 C 19.9214 4.18153 -0.97194 0
M  V30 241 C 19.1544 5.32525 -0.354016 0
M  V30 242 O 19.3774 5.64112 0.844604 0
M  V30 243 O 18.3114 5.92242 -1.07391 0
M  V30 244 H 22.1374 2.64251 -1.49684 0
M  V30 245 H 19.7224 1.26629 -0.792809 0
M  V30 246 H 21.6044 4.19475 0.402324 0
M  V30 247 H 20.2794 3.10858 0.902707 0
M  V30 248 H 19.1864 3.47499 -1.38546 0
M  V30 249 H 20.5194 4.57927 -1.80454 0
M  V30 250 N 22.1715 0.800033 1.35784 0
M  V30 251 C 23.4185 0.377342 1.98953 0
M  V30 252 C 23.7465 -1.05378 1.6348 0
M  V30 253 O 23.0015 -1.74459 0.886707 0
M  V30 254 C 23.3005 0.500276 3.53881 0
M  V30 255 C 22.9665 1.89375 4.09204 0
M  V30 256 C 21.6285 2.27499 4.24025 0
M  V30 257 C 23.9805 2.8057 4.39238 0
M  V30 258 C 21.3085 3.562 4.66195 0
M  V30 259 C 23.6605 4.0871 4.82844 0
M  V30 260 C 22.3245 4.46843 4.95871 0
M  V30 261 H 21.5945 0.138079 0.728021 0
M  V30 262 H 24.2415 1.01955 1.62103 0
M  V30 263 H 22.5465 -0.225405 3.91151 0
M  V30 264 H 24.2435 0.154097 4.00704 0
M  V30 265 H 20.8335 1.58753 3.98115 0
M  V30 266 H 25.0175 2.52367 4.27346 0
M  V30 267 H 20.2735 3.85602 4.74469 0
M  V30 268 H 24.4475 4.79481 5.05046 0
M  V30 269 H 22.0745 5.46623 5.28306 0
M  V30 270 N 23.6496 -1.47581 0.552962 0
M  V30 271 C 24.8976 -2.02082 0.0272703 0
M  V30 272 C 25.2186 -1.4301 -1.32563 0
M  V30 273 O 24.4886 -0.603745 -1.86365 0
M  V30 274 H 23.0686 -0.746966 0.00709182 0
M  V30 275 H 25.7306 -1.81033 0.722008 0
M  V30 276 H 24.8266 -3.12034 -0.0639951 0
M  V30 277 N 25.1277 -0.289203 -1.54924 0
M  V30 278 C 26.3757 0.322879 -1.99504 0
M  V30 279 C 26.6967 1.55313 -1.1791 0
M  V30 280 O 25.9667 1.94001 -0.272097 0
M  V30 281 H 24.5467 0.122291 -0.736922 0
M  V30 282 H 27.2087 -0.397802 -1.90797 0
M  V30 283 H 26.3047 0.603061 -3.06218 0
M  V30 284 N 26.6058 1.57591 -0.0167156 0
M  V30 285 C 28.0168 1.79201 0.523834 0
M  V30 286 C 28.3678 0.925796 1.72984 0
M  V30 287 O 27.4928 0.132792 2.15992 0
M  V30 288 C 28.0878 3.25 0.957091 0
M  V30 289 C 26.6468 3.47648 1.44283 0
M  V30 290 C 25.7938 2.74374 0.401757 0
M  V30 291 H 28.7448 1.56831 -0.242816 0
M  V30 292 H 28.7658 3.34031 1.82219 0
M  V30 293 H 28.2778 3.88019 0.0791415 0
M  V30 294 H 26.3788 2.89866 2.34113 0
M  V30 295 H 26.4918 4.56352 1.45877 0
M  V30 296 H 24.8558 2.39485 0.867121 0
M  V30 297 H 25.6388 3.40102 -0.467513 0
M  V30 298 N 28.0839 -0.256276 1.55502 0
M  V30 299 C 28.9939 -1.33882 1.92647 0
M  V30 300 C 30.0099 -1.53159 0.825727 0
M  V30 301 O 31.1859 -1.66963 1.12629 0
M  V30 302 C 28.2509 -2.6751 2.20543 0
M  V30 303 C 27.3119 -2.56836 3.43997 0
M  V30 304 C 26.5449 -3.84092 3.70553 0
M  V30 305 O 26.7679 -4.85545 2.99336 0
M  V30 306 O 25.7019 -3.83288 4.64084 0
M  V30 307 H 29.5279 -1.05374 2.84833 0
M  V30 308 H 27.1129 -0.456237 1.42263 0
M  V30 309 H 28.9949 -3.46492 2.39835 0
M  V30 310 H 27.6699 -2.9577 1.31536 0
M  V30 311 H 26.5769 -1.76172 3.30021 0
M  V30 312 H 27.9099 -2.33523 4.33275 0
M  V30 313 N 29.562 -1.4872 -0.521534 0
M  V30 314 C 30.808 -1.574 -1.27879 0
M  V30 315 C 31.141 -0.250817 -1.92573 0
M  V30 316 O 30.416 0.743934 -1.79711 0
M  V30 317 C 30.699 -2.71843 -2.36164 0
M  V30 318 C 30.552 -4.13893 -1.76105 0
M  V30 319 C 31.871 -2.82008 -3.37875 0
M  V30 320 H 28.99 -0.572941 -0.463581 0
M  V30 321 H 31.632 -1.80927 -0.580119 0
M  V30 322 H 29.782 -2.51914 -2.95756 0
M  V30 323 H 31.454 -4.45284 -1.20499 0
M  V30 324 H 29.697 -4.20498 -1.06601 0
M  V30 325 H 30.368 -4.89804 -2.5455 0
M  V30 326 H 32.844 -3.00086 -2.88249 0
M  V30 327 H 31.72 -3.63796 -4.11028 0
M  V30 328 H 31.981 -1.90511 -3.98946 0
M  V30 329 N 31.0401 0.771051 -1.3745 0
M  V30 330 C 31.9701 1.89827 -1.3597 0
M  V30 331 C 32.9511 1.68562 -0.228216 0
M  V30 332 O 34.1361 1.8941 -0.428675 0
M  V30 333 C 31.2661 3.2712 -1.16662 0
M  V30 334 C 30.2201 3.6295 -2.2683 0
M  V30 335 C 29.5461 4.98791 -1.92644 0
M  V30 336 C 30.8461 3.69627 -3.69017 0
M  V30 337 H 32.5401 1.91323 -2.30295 0
M  V30 338 H 30.0861 0.919082 -1.10855 0
M  V30 339 H 32.0391 4.05615 -1.14256 0
M  V30 340 H 30.7631 3.26059 -0.187926 0
M  V30 341 H 29.4221 2.86763 -2.28392 0
M  V30 342 H 29.0701 4.94271 -0.933021 0
M  V30 343 H 28.7701 5.23733 -2.66416 0
M  V30 344 H 30.2941 5.79685 -1.91826 0
M  V30 345 H 31.7081 4.38273 -3.69581 0
M  V30 346 H 30.1051 4.06067 -4.41848 0
M  V30 347 H 31.1751 2.70273 -4.02592 0
M  V30 348 N 32.5182 1.22032 0.997298 0
M  V30 349 C 33.4652 0.986467 2.08656 0
M  V30 350 C 34.4352 -0.0902671 1.65855 0
M  V30 351 O 35.6202 0.0584294 1.90711 0
M  V30 352 C 32.7602 0.565569 3.40434 0
M  V30 353 C 31.8732 1.71259 3.96604 0
M  V30 354 C 31.0082 1.24011 5.16522 0
M  V30 355 C 30.0472 2.35896 5.64818 0
M  V30 356 N 29.1842 1.89726 6.7598 0
M  V30 357 H 34.0242 1.91892 2.27994 0
M  V30 358 H 31.5612 0.956199 1.11782 0
M  V30 359 H 33.5192 0.302738 4.161 0
M  V30 360 H 32.1492 -0.329879 3.2111 0
M  V30 361 H 31.2012 2.08986 3.17851 0
M  V30 362 H 32.5132 2.55436 4.28432 0
M  V30 363 H 31.6672 0.934395 5.99461 0
M  V30 364 H 30.4062 0.368487 4.86306 0
M  V30 365 H 29.4112 2.67261 4.8047 0
M  V30 366 H 30.6362 3.23567 5.97061 0
M  V30 367 H 28.5822 1.0492 6.47555 0
M  V30 368 H 28.4992 2.67471 7.07103 0
M  V30 369 H 29.7672 1.62211 7.62435 0
M  V30 370 N 33.9963 -1.19345 1.0293 0
M  V30 371 C 34.9263 -2.2481 0.631105 0
M  V30 372 C 35.9073 -1.66245 -0.360104 0
M  V30 373 O 37.0923 -1.92677 -0.242726 0
M  V30 374 C 34.2223 -3.47295 -0.0184607 0
M  V30 375 C 33.1763 -4.18536 0.895073 0
M  V30 376 C 32.5023 -5.34586 0.110592 0
M  V30 377 C 33.8023 -4.73287 2.209 0
M  V30 378 H 35.4963 -2.58372 1.51275 0
M  V30 379 H 33.0423 -1.24194 0.728818 0
M  V30 380 H 34.9953 -4.20268 -0.308675 0
M  V30 381 H 33.7193 -3.12933 -0.934907 0
M  V30 382 H 32.3783 -3.47446 1.16949 0
M  V30 383 H 32.0263 -4.96469 -0.807902 0
M  V30 384 H 31.7263 -5.83183 0.719087 0
M  V30 385 H 33.2503 -6.10355 -0.172871 0
M  V30 386 H 34.6643 -5.38013 1.98028 0
M  V30 387 H 33.0613 -5.32373 2.76946 0
M  V30 388 H 34.1313 -3.91331 2.86336 0
M  V30 389 N 35.4744 -0.807222 -1.35358 0
M  V30 390 C 36.8904 -0.491038 -1.51858 0
M  V30 391 C 37.0904 0.987648 -1.75635 0
M  V30 392 O 36.1464 1.77265 -1.79815 0
M  V30 393 C 37.4594 -1.33695 -2.69344 0
M  V30 394 C 39.0074 -1.33246 -2.83222 0
M  V30 395 C 39.4824 -2.1625 -4.03733 0
M  V30 396 N 40.9734 -2.1379 -4.10911 0
M  V30 397 C 41.7084 -2.74772 -5.03277 0
M  V30 398 N 41.2044 -3.44684 -6.0097 0
M  V30 399 N 42.9974 -2.6441 -4.96028 0
M  V30 400 H 35.1484 -1.76485 -1.18181 0
M  V30 401 H 37.4114 -0.751199 -0.578276 0
M  V30 402 H 37.1174 -2.38634 -2.58354 0
M  V30 403 H 36.9914 -0.990618 -3.6396 0
M  V30 404 H 39.3784 -0.290911 -2.93663 0
M  V30 405 H 39.4594 -1.71866 -1.89461 0
M  V30 406 H 39.1034 -3.20445 -3.94052 0
M  V30 407 H 39.0334 -1.74989 -4.96675 0
M  V30 408 H 41.5244 -1.62923 -3.40976 0
M  V30 409 H 41.8374 -3.88501 -6.68047 0
M  V30 410 H 40.1824 -3.48788 -6.01142 0
M  V30 411 H 43.3734 -2.0938 -4.18662 0
M  V30 412 H 43.5464 -3.12225 -5.6782 0
M  V30 413 N 36.9525 1.47285 -0.560781 0
M  V30 414 C 38.1775 2.07359 -0.0410566 0
M  V30 415 C 38.6025 1.41017 1.24483 0
M  V30 416 O 37.9605 0.486368 1.74654 0
M  V30 417 C 38.0085 3.6035 0.134123 0
M  V30 418 O 37.1125 3.94681 1.19587 0
M  V30 419 H 36.4535 0.661887 -0.0529291 0
M  V30 420 H 38.9835 1.89252 -0.777482 0
M  V30 421 H 38.9935 4.0652 0.347207 0
M  V30 422 H 37.6685 4.08034 -0.805047 0
M  V30 423 H 36.2455 3.60251 0.962987 0
M  V30 424 N 38.4306 0.297415 1.54768 0
M  V30 425 C 39.7076 -0.365847 1.92148 0
M  V30 426 C 40.0876 -1.71975 1.22424 0
M  V30 427 O 39.4356 -2.25666 0.358739 0
M  V30 428 C 39.6456 -0.484056 3.45627 0
M  V30 429 C 40.9936 -0.756594 4.17805 0
M  V30 430 O 42.0176 -0.568007 3.51642 0
M  V30 431 O 40.8766 -1.11863 5.34929 0
M  V30 432 H 37.9706 -0.203919 0.801465 0
M  V30 433 H 40.5166 0.34521 1.66152 0
M  V30 434 H 39.2886 0.467865 3.88493 0
M  V30 435 H 38.9116 -1.24372 3.77647 0
M  V30 436 N 39.9087 -1.5758 0.0250728 0
M  V30 437 C 41.1577 -1.90811 -0.653767 0
M  V30 438 C 41.4707 -0.90273 -1.73523 0
M  V30 439 O 42.6767 -1.12614 -2.47043 0
M  V30 440 C 41.1327 -3.38804 -1.21409 0
M  V30 441 C 40.7407 -4.47692 -0.166126 0
M  V30 442 C 42.4847 -3.81108 -1.86967 0
M  V30 443 C 40.3917 -5.86779 -0.737856 0
M  V30 444 H 39.3217 -0.712063 -0.247956 0
M  V30 445 H 41.9727 -1.83281 0.0897137 0
M  V30 446 H 40.3547 -3.41252 -2.00905 0
M  V30 447 H 41.5287 -4.56797 0.606079 0
M  V30 448 H 39.8437 -4.14565 0.390466 0
M  V30 449 H 42.4407 -4.82375 -2.30692 0
M  V30 450 H 42.7837 -3.15953 -2.71071 0
M  V30 451 H 43.3167 -3.81065 -1.14167 0
M  V30 452 H 40.0557 -6.55468 0.0649577 0
M  V30 453 H 39.5757 -5.81288 -1.47864 0
M  V30 454 H 41.2547 -6.35223 -1.22884 0
M  V30 455 N 41.3868 0.248026 -1.55636 0
M  V30 456 C 42.3498 1.29044 -1.89421 0
M  V30 457 C 43.3498 1.41134 -0.770581 0
M  V30 458 O 44.5398 1.39854 -1.03858 0
M  V30 459 C 41.6718 2.66831 -2.12165 0
M  V30 460 H 42.8648 1.00305 -2.82629 0
M  V30 461 H 40.4178 0.487265 -1.48511 0
M  V30 462 H 41.1528 3.00711 -1.21422 0
M  V30 463 H 40.9378 2.59438 -2.93997 0
M  V30 464 H 42.4278 3.42103 -2.3949 0
M  V30 465 N 42.8649 1.48995 0.513639 0
M  V30 466 C 44.1109 1.58076 1.27042 0
M  V30 467 C 44.4439 0.261026 1.92438 0
M  V30 468 O 43.7189 -0.734393 1.80103 0
M  V30 469 C 44.0019 2.73091 2.34719 0
M  V30 470 C 43.8549 4.14821 1.73907 0
M  V30 471 C 45.1739 2.83796 3.36375 0
M  V30 472 H 42.2929 0.575391 0.460536 0
M  V30 473 H 44.9349 1.81232 0.570516 0
M  V30 474 H 43.0849 2.53479 2.94416 0
M  V30 475 H 44.7569 4.45917 1.18135 0
M  V30 476 H 42.9999 4.21058 1.0437 0
M  V30 477 H 43.6709 4.91147 2.51949 0
M  V30 478 H 46.1469 3.01611 2.86653 0
M  V30 479 H 45.0229 3.65971 4.09093 0
M  V30 480 H 45.2839 1.92624 3.9793 0
M  V30 481 N 44.343 -0.763751 1.37857 0
M  V30 482 C 45.754 -1.3405 1.29952 0
M  V30 483 C 46.105 -1.96138 -0.0492898 0
M  V30 484 O 45.23 -1.94372 -0.951239 0
M  V30 485 C 45.825 -2.43729 2.35333 0
M  V30 486 C 44.384 -2.97151 2.31037 0
M  V30 487 C 43.531 -1.70438 2.18738 0
M  V30 488 H 46.482 -0.563396 1.48363 0
M  V30 489 H 46.503 -3.23412 2.00462 0
M  V30 490 H 46.015 -1.9851 3.33489 0
M  V30 491 H 44.116 -3.46724 1.3643 0
M  V30 492 H 44.229 -3.52221 3.24772 0
M  V30 493 H 42.593 -1.93673 1.65418 0
M  V30 494 H 43.376 -1.27312 3.18821 0
M  V30 495 N 45.8211 -1.22559 -0.990812 0
M  V30 496 C 47.0701 -1.04553 -1.72486 0
M  V30 497 C 47.3831 0.419349 -1.91052 0
M  V30 498 O 48.5891 0.719121 -2.61803 0
M  V30 499 C 47.0451 -1.82231 -3.10355 0
M  V30 500 C 46.6531 -3.32981 -2.99713 0
M  V30 501 C 48.3971 -1.7268 -3.87791 0
M  V30 502 C 46.3041 -4.03091 -4.32748 0
M  V30 503 H 45.2341 -0.387614 -0.646739 0
M  V30 504 H 47.8851 -1.46429 -1.10593 0
M  V30 505 H 46.2671 -1.33155 -3.72942 0
M  V30 506 H 47.4411 -3.89466 -2.46278 0
M  V30 507 H 45.7561 -3.43231 -2.35758 0
M  V30 508 H 48.3531 -2.22381 -4.86262 0
M  V30 509 H 48.6961 -0.687607 -4.10582 0
M  V30 510 H 49.2291 -2.1931 -3.31885 0
M  V30 511 H 45.9681 -5.07273 -4.15156 0
M  V30 512 H 45.4881 -3.51394 -4.86089 0
M  V30 513 H 47.1671 -4.08804 -5.01486 0
M  V30 514 N 47.2992 1.18797 -1.03562 0
M  V30 515 C 48.7102 1.70322 -0.764676 0
M  V30 516 C 49.0612 1.82708 0.714996 0
M  V30 517 O 48.1862 1.50299 1.55689 0
M  V30 518 C 48.7812 3.09356 -1.38145 0
M  V30 519 C 47.3402 3.58114 -1.15895 0
M  V30 520 C 46.4872 2.34798 -1.4753 0
M  V30 521 H 49.4382 1.03543 -1.20268 0
M  V30 522 H 49.4592 3.72378 -0.781977 0
M  V30 523 H 48.9712 3.00309 -2.45837 0
M  V30 524 H 47.0722 3.72464 -0.100544 0
M  V30 525 H 47.1852 4.4184 -1.8524 0
M  V30 526 H 45.5492 2.38464 -0.894829 0
M  V30 527 H 46.3322 2.28375 -2.56319 0
M  V30 528 N 48.7773 0.814389 1.34928 0
M  V30 529 C 49.7243 0.22822 2.29669 0
M  V30 530 C 50.6943 -0.642164 1.53184 0
M  V30 531 O 51.8793 -0.585605 1.81591 0
M  V30 532 C 49.0193 -0.61089 3.3965 0
M  V30 533 C 48.1323 0.280792 4.31086 0
M  V30 534 C 47.2673 -0.567067 5.28165 0
M  V30 535 C 46.3063 0.324531 6.11239 0
M  V30 536 N 45.4433 -0.483756 7.00431 0
M  V30 537 H 50.2833 1.04153 2.79206 0
M  V30 538 H 47.8203 0.525133 1.37407 0
M  V30 539 H 49.7783 -1.11263 4.0209 0
M  V30 540 H 48.4083 -1.38939 2.91369 0
M  V30 541 H 47.4603 0.900688 3.69583 0
M  V30 542 H 48.7723 0.966723 4.89342 0
M  V30 543 H 47.9263 -1.13363 5.96015 0
M  V30 544 H 46.6653 -1.28654 4.70425 0
M  V30 545 H 45.6703 0.903298 5.42329 0
M  V30 546 H 46.8953 1.04198 6.71059 0
M  V30 547 H 44.8413 -1.18706 6.45171 0
M  V30 548 H 44.7583 0.143965 7.55863 0
M  V30 549 H 46.0263 -1.03334 7.7262 0
M  V30 550 N 50.2554 -1.46986 0.568584 0
M  V30 551 C 51.5324 -1.95592 -0.0174074 0
M  V30 552 C 51.9124 -1.51124 -1.47393 0
M  V30 553 O 51.2604 -0.755329 -2.15655 0
M  V30 554 C 51.4704 -3.48719 0.139913 0
M  V30 555 C 52.8184 -4.246 0.000426376 0
M  V30 556 O 53.8424 -3.56135 0.0680316 0
M  V30 557 O 52.7014 -5.46302 -0.146988 0
M  V30 558 H 49.7954 -0.82498 -0.0577599 0
M  V30 559 H 52.3414 -1.57335 0.635909 0
M  V30 560 H 51.1134 -3.73927 1.15301 0
M  V30 561 H 50.7364 -3.93771 -0.550491 0
M  V30 562 N 51.7335 -0.305618 -1.54608 0
M  V30 563 C 52.6835 0.583595 -2.20405 0
M  V30 564 C 53.6675 1.09539 -1.17856 0
M  V30 565 O 54.8595 1.0354 -1.43557 0
M  V30 566 C 51.9885 1.75277 -2.95183 0
M  V30 567 C 51.0745 1.25672 -4.05052 0
M  V30 568 N 51.4655 0.478998 -5.03527 0
M  V30 569 C 49.7635 1.53704 -4.18678 0
M  V30 570 C 50.4645 0.214269 -5.81305 0
M  V30 571 N 49.4405 0.795374 -5.3775 0
M  V30 572 H 53.2425 -0.0180946 -2.93894 0
M  V30 573 H 50.7565 -0.110601 -1.62023 0
M  V30 574 H 52.7535 2.4014 -3.40791 0
M  V30 575 H 51.4135 2.35812 -2.23211 0
M  V30 576 H 52.4245 0.123473 -5.17753 0
M  V30 577 H 49.1015 2.14954 -3.57912 0
M  V30 578 H 50.4915 -0.410656 -6.70644 0
M  V30 579 N 53.2116 1.57565 -0.0334293 0
M  V30 580 C 54.1436 2.0739 0.975811 0
M  V30 581 C 55.1566 0.998166 1.2861 0
M  V30 582 O 56.3456 1.27426 1.25 0
M  V30 583 C 53.4456 2.4871 2.30209 0
M  V30 584 C 52.6186 3.79413 2.17634 0
M  V30 585 C 51.6776 4.07237 3.33233 0
M  V30 586 O 50.7036 4.77425 3.09927 0
M  V30 587 N 51.9056 3.5775 4.5716 0
M  V30 588 H 54.6706 2.94598 0.55066 0
M  V30 589 H 52.2316 1.61173 0.15323 0
M  V30 590 H 54.2236 2.64413 3.06378 0
M  V30 591 H 52.7936 1.66845 2.64351 0
M  V30 592 H 52.0136 3.73465 1.26165 0
M  V30 593 H 53.3016 4.65038 2.0644 0
M  V30 594 H 52.6996 3.00976 4.78989 0
M  V30 595 H 51.2566 3.78724 5.30482 0
M  V30 596 N 54.6897 -0.239769 1.55765 0
M  V30 597 C 55.9357 -0.968234 1.78194 0
M  V30 598 C 56.2687 -1.84701 0.599938 0
M  V30 599 O 55.5437 -1.9031 -0.401524 0
M  V30 600 C 55.8267 -1.8227 3.10564 0
M  V30 601 C 55.6797 -0.971633 4.3918 0
M  V30 602 C 56.9987 -2.80388 3.39221 0
M  V30 603 H 54.1177 -0.350572 0.648281 0
M  V30 604 H 56.7597 -0.238259 1.885 0
M  V30 605 H 54.9097 -2.44507 3.01908 0
M  V30 606 H 56.5817 -0.367408 4.59835 0
M  V30 607 H 54.8247 -0.276276 4.32919 0
M  V30 608 H 55.4957 -1.60346 5.28198 0
M  V30 609 H 57.9717 -2.28287 3.47885 0
M  V30 610 H 56.8477 -3.3729 4.33044 0
M  V30 611 H 57.1087 -3.57212 2.60484 0
M  V30 612 N 56.1678 -1.49265 -0.50573 0
M  V30 613 C 57.0978 -1.68495 -1.61653 0
M  V30 614 C 58.0788 -0.53366 -1.61512 0
M  V30 615 O 59.2638 -0.76897 -1.78327 0
M  V30 616 C 56.3938 -1.74709 -3.00157 0
M  V30 617 C 55.3478 -2.89581 -3.15162 0
M  V30 618 C 54.6738 -2.80903 -4.5497 0
M  V30 619 C 55.9738 -4.30578 -2.95634 0
M  V30 620 H 57.6678 -2.61493 -1.45814 0
M  V30 621 H 55.2138 -1.25838 -0.70005 0
M  V30 622 H 57.1668 -1.86748 -3.77761 0
M  V30 623 H 55.8908 -0.783067 -3.17074 0
M  V30 624 H 54.5498 -2.77136 -2.39982 0
M  V30 625 H 54.1978 -1.82419 -4.68756 0
M  V30 626 H 53.8978 -3.57999 -4.65951 0
M  V30 627 H 55.4218 -2.94944 -5.34641 0
M  V30 628 H 56.8358 -4.4373 -3.63011 0
M  V30 629 H 55.2328 -5.0886 -3.18091 0
M  V30 630 H 56.3028 -4.45352 -1.91806 0
M  V30 631 N 57.6459 0.756429 -1.3826 0
M  V30 632 C 58.8949 1.51082 -1.3363 0
M  V30 633 C 59.2079 1.95467 0.0720068 0
M  V30 634 O 60.4139 2.7043 0.240834 0
M  V30 635 C 58.8699 2.72893 -2.34644 0
M  V30 636 C 58.4779 2.35544 -3.81081 0
M  V30 637 C 60.2219 3.50791 -2.39052 0
M  V30 638 C 58.1289 3.53948 -4.73787 0
M  V30 639 H 57.0589 0.56727 -0.49671 0
M  V30 640 H 59.7099 0.827147 -1.638 0
M  V30 641 H 58.0919 3.43227 -1.97513 0
M  V30 642 H 59.2659 1.72894 -4.27135 0
M  V30 643 H 57.5809 1.70786 -3.79764 0
M  V30 644 H 60.1779 4.38823 -3.05513 0
M  V30 645 H 60.5209 3.91745 -1.40861 0
M  V30 646 H 61.0539 2.87467 -2.74968 0
M  V30 647 H 57.7929 3.18064 -5.73163 0
M  V30 648 H 57.3129 4.15651 -4.32428 0
M  V30 649 H 58.9919 4.20566 -4.91663 0
M  V30 650 N 59.124 1.23083 0.984299 0
M  V30 651 C 60.071 1.00854 2.07598 0
M  V30 652 C 61.041 -0.0726709 1.65941 0
M  V30 653 O 62.226 0.0786535 1.90638 0
M  V30 654 C 59.366 0.601645 3.39815 0
M  V30 655 C 58.479 1.75456 3.94765 0
M  V30 656 C 57.614 1.29482 5.15177 0
M  V30 657 C 56.653 2.41873 5.62284 0
M  V30 658 N 55.79 1.96885 6.73929 0
M  V30 659 H 60.63 1.943 2.25946 0
M  V30 660 H 58.167 0.968001 1.10762 0
M  V30 661 H 60.125 0.346854 4.15756 0
M  V30 662 H 58.755 -0.295803 3.21442 0
M  V30 663 H 57.807 2.12346 3.15616 0
M  V30 664 H 59.119 2.59965 4.25699 0
M  V30 665 H 58.273 0.997923 5.98437 0
M  V30 666 H 57.012 0.420046 4.85888 0
M  V30 667 H 56.017 2.72342 4.77608 0
M  V30 668 H 57.242 3.29881 5.93595 0
M  V30 669 H 55.188 1.11782 6.46406 0
M  V30 670 H 55.105 2.74956 7.04227 0
M  V30 671 H 56.373 1.70289 7.60672 0
M  V30 672 N 60.6021 -1.18246 1.0419 0
M  V30 673 C 61.8481 -1.88536 0.747122 0
M  V30 674 C 62.1811 -1.80223 -0.723409 0
M  V30 675 O 61.4561 -1.20337 -1.52804 0
M  V30 676 C 61.7391 -3.38968 1.21544 0
M  V30 677 C 61.5921 -3.56084 2.74816 0
M  V30 678 C 62.9111 -4.32648 0.806482 0
M  V30 679 H 60.0301 -0.684619 0.272883 0
M  V30 680 H 62.6721 -1.39113 1.29413 0
M  V30 681 H 60.8221 -3.8119 0.750081 0
M  V30 682 H 62.4941 -3.22946 3.29399 0
M  V30 683 H 60.7371 -2.98699 3.14582 0
M  V30 684 H 61.4081 -4.61639 3.02644 0
M  V30 685 H 63.8841 -3.98211 1.20695 0
M  V30 686 H 62.7601 -5.36462 1.1619 0
M  V30 687 H 63.0211 -4.41146 -0.29029 0
M  V30 688 N 62.0802 -0.821533 -1.34494 0
M  V30 689 C 63.0302 -0.214793 -2.26986 0
M  V30 690 C 64.0142 0.620125 -1.4847 0
M  V30 691 O 65.2062 0.474933 -1.70509 0
M  V30 692 C 62.3352 0.623566 -3.37589 0
M  V30 693 C 61.4212 -0.221904 -4.23519 0
M  V30 694 N 61.8122 -1.29223 -4.89014 0
M  V30 695 C 60.1102 -0.00600922 -4.46 0
M  V30 696 C 60.8112 -1.80965 -5.52835 0
M  V30 697 N 59.7872 -1.11376 -5.32068 0
M  V30 698 H 63.5892 -1.03354 -2.75128 0
M  V30 699 H 61.1032 -0.6642 -1.48196 0
M  V30 700 H 63.1002 1.0744 -4.02818 0
M  V30 701 H 61.7602 1.44049 -2.90998 0
M  V30 702 H 62.7712 -1.67502 -4.90065 0
M  V30 703 H 59.4482 0.77886 -4.10171 0
M  V30 704 H 60.8382 -2.70502 -6.15043 0
M  V30 705 N 63.5583 1.46682 -0.576371 0
M  V30 706 C 64.5213 2.28707 0.150239 0
M  V30 707 C 65.5213 1.38035 0.824794 0
M  V30 708 O 66.7113 1.60476 0.677719 0
M  V30 709 C 63.8433 3.18248 1.22192 0
M  V30 710 H 65.0363 2.94423 -0.570521 0
M  V30 711 H 62.5893 1.52688 -0.334078 0
M  V30 712 H 63.3243 2.57265 1.97447 0
M  V30 713 H 63.1093 3.85 0.742812 0
M  V30 714 H 64.5993 3.80001 1.73172 0
M  V30 715 N 65.0364 0.313813 1.54444 0
M  V30 716 C 66.2764 -0.292389 2.02298 0
M  V30 717 C 66.6404 -1.50105 1.19719 0
M  V30 718 O 67.8414 -2.17947 1.5733 0
M  V30 719 C 66.1124 -0.627682 3.51845 0
M  V30 720 S 67.6714 -1.21493 4.21646 0
M  V30 721 H 64.4894 -0.0890247 0.705405 0
M  V30 722 H 67.0914 0.444668 1.90376 0
M  V30 723 H 65.7954 0.260265 4.09574 0
M  V30 724 H 65.3264 -1.39519 3.67829 0
M  V30 725 H 67.3414 -2.5022 4.28491 0
M  V30 726 N 66.5145 -1.57545 0.0417849 0
M  V30 727 C 67.7625 -1.91937 -0.632829 0
M  V30 728 C 68.0835 -0.919978 -1.71934 0
M  V30 729 O 67.3535 0.0366064 -1.95866 0
M  V30 730 H 65.9335 -0.708493 -0.236742 0
M  V30 731 H 68.5955 -1.9468 0.0925745 0
M  V30 732 H 67.6915 -2.92912 -1.07746 0
M  V30 733 N 67.9926 0.231505 -1.5589 0
M  V30 734 C 69.2386 0.95877 -1.78705 0
M  V30 735 C 69.5716 1.8438 -0.609725 0
M  V30 736 O 68.8466 1.90521 0.391426 0
M  V30 737 C 69.1296 1.8062 -3.11526 0
M  V30 738 C 68.9826 0.948328 -4.39689 0
M  V30 739 C 70.3016 2.78585 -3.40703 0
M  V30 740 H 67.4206 0.347129 -0.650131 0
M  V30 741 H 70.0626 0.228259 -1.88624 0
M  V30 742 H 68.2126 2.42902 -3.03201 0
M  V30 743 H 69.8846 0.343016 -4.60023 0
M  V30 744 H 68.1276 0.253314 -4.3306 0
M  V30 745 H 68.7986 1.57543 -5.29041 0
M  V30 746 H 71.2746 2.26439 -3.49091 0
M  V30 747 H 70.1506 3.34988 -4.34826 0
M  V30 748 H 70.4116 3.55825 -2.62375 0
M  V30 749 N 69.4707 1.49531 0.497807 0
M  V30 750 C 70.4187 1.66926 1.61983 0
M  V30 751 C 71.4127 0.535167 1.60724 0
M  V30 752 O 72.6187 0.714896 1.65195 0
M  V30 753 H 68.9937 0.526415 0.537021 0
M  V30 754 H 70.9647 2.61098 1.44465 0
M  V30 755 C 69.7137 1.75602 3.00099 0
M  V30 756 H 69.0367 2.62244 3.01775 0
M  V30 757 H 70.4767 1.91807 3.78135 0
M  V30 758 C 68.9357 0.501543 3.33146 0
M  V30 759 O 69.4657 -0.371342 3.9998 0
M  V30 760 N 67.6717 0.363531 2.88317 0
M  V30 761 H 67.2187 1.07485 2.34104 0
M  V30 762 H 67.1767 -0.474728 3.10795 0
M  V30 763 N 70.9488 -0.749086 1.3866 0
M  V30 764 C 72.3598 -1.32664 1.31366 0
M  V30 765 C 72.7108 -1.96179 -0.028484 0
M  V30 766 O 71.8358 -1.9537 -0.93057 0
M  V30 767 C 72.4308 -2.41219 2.37905 0
M  V30 768 C 70.9898 -2.94684 2.34176 0
M  V30 769 C 70.1368 -1.68108 2.20533 0
M  V30 770 H 73.0878 -0.547628 1.48952 0
M  V30 771 H 73.1088 -3.21268 2.0388 0
M  V30 772 H 72.6208 -1.94962 3.35576 0
M  V30 773 H 70.7218 -3.45258 1.401 0
M  V30 774 H 70.8348 -3.48757 3.2849 0
M  V30 775 H 69.1988 -1.91907 1.67463 0
M  V30 776 H 69.9818 -1.23923 3.20153 0
M  V30 777 N 72.4269 -1.23603 -0.977757 0
M  V30 778 C 73.6729 -1.07129 -1.72195 0
M  V30 779 C 74.0059 0.390501 -1.90233 0
M  V30 780 O 73.2809 1.28902 -1.45653 0
M  V30 781 C 73.5639 -1.80031 -3.11867 0
M  V30 782 C 73.4169 -3.33899 -3.01383 0
M  V30 783 C 74.7359 -1.56492 -4.11337 0
M  V30 784 H 71.8549 -0.390571 -0.624999 0
M  V30 785 H 74.4969 -1.52142 -1.13811 0
M  V30 786 H 72.6469 -1.41768 -3.6171 0
M  V30 787 H 74.3189 -3.81699 -2.59043 0
M  V30 788 H 72.5619 -3.62796 -2.37827 0
M  V30 789 H 73.2329 -3.801 -4.00285 0
M  V30 790 H 75.7089 -1.89757 -3.70313 0
M  V30 791 H 74.5849 -2.09973 -5.07151 0
M  V30 792 H 74.8459 -0.500874 -4.39254 0
M  V30 793 N 73.905 1.17692 -1.04816 0
M  V30 794 C 74.815 2.25229 -0.65643 0
M  V30 795 C 75.831 1.71018 0.320761 0
M  V30 796 O 77.007 2.00649 0.173805 0
M  V30 797 C 74.072 3.46684 -0.0332629 0
M  V30 798 C 73.133 4.15997 -1.06042 0
M  V30 799 C 72.366 5.31654 -0.466893 0
M  V30 800 O 72.589 5.65777 0.724758 0
M  V30 801 O 71.523 5.89831 -1.1993 0
M  V30 802 H 75.349 2.61016 -1.55255 0
M  V30 803 H 72.934 1.24919 -0.81949 0
M  V30 804 H 74.816 4.20234 0.313256 0
M  V30 805 H 73.491 3.12703 0.836566 0
M  V30 806 H 72.398 3.44482 -1.45886 0
M  V30 807 H 73.731 4.53996 -1.90127 0
M  V30 808 N 75.3831 0.828654 1.34056 0
M  V30 809 C 76.6111 0.43262 2.02326 0
M  V30 810 C 77.0261 -0.963147 1.62385 0
M  V30 811 O 76.3831 -1.62425 0.832121 0
M  V30 812 C 76.4341 0.53182 3.57567 0
M  V30 813 O 76.1551 1.87258 3.96063 0
M  V30 814 C 77.6561 0.131422 4.43105 0
M  V30 815 H 74.8761 0.172923 0.648335 0
M  V30 816 H 77.4201 1.1184 1.71208 0
M  V30 817 H 75.5751 -0.105938 3.87255 0
M  V30 818 H 75.9891 1.85087 4.90758 0
M  V30 819 H 77.4631 0.251904 5.51425 0
M  V30 820 H 77.9401 -0.925645 4.29335 0
M  V30 821 H 78.5461 0.743207 4.18756 0
M  V30 822 N 76.8612 -1.46375 0.584142 0
M  V30 823 C 78.0912 -2.06461 0.0758195 0
M  V30 824 C 78.4992 -1.43322 -1.23512 0
M  V30 825 O 77.8422 -0.533216 -1.75791 0
M  V30 826 C 77.9042 -3.59131 -0.162773 0
M  V30 827 C 77.5682 -4.4447 1.06279 0
M  V30 828 C 78.5652 -4.80918 1.97519 0
M  V30 829 C 76.2502 -4.85584 1.28504 0
M  V30 830 C 78.2442 -5.57309 3.09331 0
M  V30 831 C 75.9312 -5.61734 2.4062 0
M  V30 832 C 76.9292 -5.9751 3.30863 0
M  V30 833 O 76.6172 -6.72121 4.41032 0
M  V30 834 H 76.3492 -0.673745 0.0551725 0
M  V30 835 H 78.9032 -1.88969 0.804984 0
M  V30 836 H 77.1332 -3.74936 -0.946565 0
M  V30 837 H 78.8222 -4.0114 -0.619782 0
M  V30 838 H 79.5882 -4.49732 1.81565 0
M  V30 839 H 75.4672 -4.57187 0.591702 0
M  V30 840 H 79.0112 -5.85152 3.79793 0
M  V30 841 H 74.9082 -5.92334 2.56537 0
M  V30 842 H 75.6762 -6.90547 4.39417 0
M  V30 843 N 78.3393 -0.321999 -1.54275 0
M  V30 844 C 79.5883 0.281931 -1.9972 0
M  V30 845 C 79.9013 1.53369 -1.21397 0
M  V30 846 O 81.1073 2.21352 -1.57211 0
M  V30 847 C 79.5633 0.5529 -3.55628 0
M  V30 848 C 79.1713 -0.681721 -4.42783 0
M  V30 849 C 80.9153 1.11687 -4.09544 0
M  V30 850 C 78.8223 -0.382742 -5.9016 0
M  V30 851 H 77.7523 0.109124 -0.746062 0
M  V30 852 H 80.4033 -0.43398 -1.78294 0
M  V30 853 H 78.7853 1.32896 -3.73035 0
M  V30 854 H 79.9593 -1.45723 -4.37151 0
M  V30 855 H 78.2743 -1.1658 -3.99748 0
M  V30 856 H 80.8713 1.35515 -5.17242 0
M  V30 857 H 81.2143 2.06575 -3.61431 0
M  V30 858 H 81.7473 0.402032 -3.95763 0
M  V30 859 H 78.4863 -1.30076 -6.42464 0
M  V30 860 H 78.0063 0.355094 -5.98748 0
M  V30 861 H 79.6853 0.00800157 -6.47 0
M  V30 862 N 79.8174 1.5752 -0.0501392 0
M  V30 863 C 81.2334 1.56631 0.306402 0
M  V30 864 C 81.4334 1.0577 1.71508 0
M  V30 865 O 80.4894 0.713837 2.422 0
M  V30 866 C 81.8024 3.00393 0.135811 0
M  V30 867 C 83.3504 3.12315 0.206993 0
M  V30 868 C 83.8254 4.57954 0.064944 0
M  V30 869 N 85.3164 4.63041 0.121254 0
M  V30 870 C 86.0514 5.73389 0.0354381 0
M  V30 871 N 85.5474 6.92724 -0.102666 0
M  V30 872 N 87.3404 5.62026 0.090946 0
M  V30 873 H 79.4914 1.88903 -0.971046 0
M  V30 874 H 81.7544 0.869876 -0.376855 0
M  V30 875 H 81.4604 3.41635 -0.835384 0
M  V30 876 H 81.3344 3.66373 0.897275 0
M  V30 877 H 83.7214 2.70973 1.16866 0
M  V30 878 H 83.8024 2.49016 -0.585208 0
M  V30 879 H 83.4464 4.99981 -0.893394 0
M  V30 880 H 83.3764 5.19258 0.876277 0
M  V30 881 H 85.8674 3.77216 0.227284 0
M  V30 882 H 86.1804 7.72633 -0.160882 0
M  V30 883 H 84.5254 6.94864 -0.137737 0
M  V30 884 H 87.7164 4.67684 0.197388 0
M  V30 885 H 87.8894 6.47997 0.0206089 0
M  V30 886 N 81.2955 -0.223234 1.56011 0
M  V30 887 C 82.5205 -0.968978 1.83373 0
M  V30 888 C 82.9455 -1.77227 0.630254 0
M  V30 889 O 82.3035 -1.76345 -0.420959 0
M  V30 890 C 82.3515 -1.86363 3.08709 0
M  V30 891 O 81.4555 -2.95873 2.87285 0
M  V30 892 H 80.7965 -0.274461 0.604622 0
M  V30 893 H 83.3265 -0.237056 2.03222 0
M  V30 894 H 83.3365 -2.27376 3.38768 0
M  V30 895 H 82.0115 -1.27319 3.95933 0
M  V30 896 H 80.5885 -2.58818 2.68454 0
M  V30 897 N 82.7736 -1.49793 -0.48987 0
M  V30 898 C 84.0216 -1.59525 -1.24081 0
M  V30 899 C 84.3426 -0.288953 -1.92847 0
M  V30 900 O 83.6126 0.692436 -1.83254 0
M  V30 901 H 82.1926 -0.587796 -0.460983 0
M  V30 902 H 84.8546 -1.86477 -0.566778 0
M  V30 903 H 83.9506 -2.39696 -1.99881 0
M  V30 904 N 84.2517 0.741722 -1.39055 0
M  V30 905 C 85.4797 1.53098 -1.39171 0
M  V30 906 C 85.8947 1.88794 0.0155099 0
M  V30 907 O 85.2517 1.53626 0.985159 0
M  V30 908 C 85.3027 2.82274 -2.2584 0
M  V30 909 O 85.0237 2.48097 -3.61081 0
M  V30 910 C 86.5247 3.76343 -2.34266 0
M  V30 911 H 83.7447 0.473335 -0.4756 0
M  V30 912 H 86.2887 0.917045 -1.82785 0
M  V30 913 H 84.4437 3.40015 -1.85656 0
M  V30 914 H 84.8577 3.31029 -4.06842 0
M  V30 915 H 86.3317 4.63898 -2.9917 0
M  V30 916 H 86.8087 4.17619 -1.35982 0
M  V30 917 H 87.4147 3.24523 -2.74891 0
M  V30 918 N 85.7298 1.2412 0.971189 0
M  V30 919 C 86.9598 1.10415 1.7462 0
M  V30 920 C 87.3678 -0.346462 1.86001 0
M  V30 921 O 86.7108 -1.25104 1.34517 0
M  V30 922 C 86.7728 1.66596 3.18568 0
M  V30 923 C 86.4368 3.15446 3.3067 0
M  V30 924 C 87.4338 4.12636 3.16271 0
M  V30 925 C 85.1188 3.55337 3.55022 0
M  V30 926 C 87.1128 5.47699 3.26044 0
M  V30 927 C 84.7998 4.90542 3.64434 0
M  V30 928 C 85.7978 5.86532 3.49956 0
M  V30 929 O 85.4858 7.19279 3.59017 0
M  V30 930 H 85.2178 0.386616 0.55453 0
M  V30 931 H 87.7718 1.64633 1.22821 0
M  V30 932 H 86.0018 1.06808 3.71657 0
M  V30 933 H 87.6908 1.48232 3.77865 0
M  V30 934 H 88.4568 3.8316 2.97344 0
M  V30 935 H 84.3358 2.8113 3.65359 0
M  V30 936 H 87.8798 6.22603 3.14661 0
M  V30 937 H 83.7768 5.19691 3.82873 0
M  V30 938 H 84.5448 7.27153 3.75754 0
M  V30 939 N 87.2079 -1.17134 1.05439 0
M  V30 940 C 88.4329 -1.91913 0.786396 0
M  V30 941 C 88.8579 -1.7643 -0.652234 0
M  V30 942 O 88.2159 -1.08372 -1.45345 0
M  V30 943 C 88.2639 -3.40921 1.17497 0
M  V30 944 O 87.3679 -4.11244 0.308589 0
M  V30 945 H 86.7089 -0.598215 0.288158 0
M  V30 946 H 89.2389 -1.48457 1.4079 0
M  V30 947 H 89.2489 -3.91668 1.14281 0
M  V30 948 H 87.9239 -3.5151 2.22292 0
M  V30 949 H 86.5009 -3.70731 0.40157 0
M  V30 950 N 88.686 -0.835752 -1.33615 0
M  V30 951 C 90.102 -0.523139 -1.50783 0
M  V30 952 C 90.302 0.950171 -1.77691 0
M  V30 953 O 89.358 1.73411 -1.83534 0
M  V30 954 C 90.671 -1.39378 -2.66448 0
M  V30 955 C 92.219 -1.39223 -2.80332 0
M  V30 956 C 92.694 -2.24765 -3.99055 0
M  V30 957 N 94.185 -2.22458 -4.06284 0
M  V30 958 C 94.92 -2.85386 -4.97336 0
M  V30 959 N 94.416 -3.57354 -5.93523 0
M  V30 960 N 96.209 -2.74872 -4.90308 0
M  V30 961 H 88.36 -1.78952 -1.14411 0
M  V30 962 H 90.623 -0.763297 -0.562212 0
M  V30 963 H 90.329 -2.44061 -2.53234 0
M  V30 964 H 90.203 -1.0676 -3.61776 0
M  V30 965 H 92.59 -0.353136 -2.92979 0
M  V30 966 H 92.671 -1.75846 -1.85773 0
M  V30 967 H 92.315 -3.28732 -3.87167 0
M  V30 968 H 92.245 -1.85485 -4.92852 0
M  V30 969 H 94.736 -1.70119 -3.37443 0
M  V30 970 H 95.049 -4.02584 -6.59656 0
M  V30 971 H 93.394 -3.61461 -5.93608 0
M  V30 972 H 96.585 -2.18213 -4.14126 0
M  V30 973 H 96.758 -3.24199 -5.61069 0
M  V30 974 N 90.1641 1.46063 -0.591896 0
M  V30 975 C 91.1111 2.30399 0.136069 0
M  V30 976 C 92.0811 1.41169 0.875238 0
M  V30 977 O 93.2661 1.70112 0.86409 0
M  V30 978 C 90.4061 3.25804 1.13781 0
M  V30 979 C 89.5191 4.30134 0.401137 0
M  V30 980 C 88.6541 5.12659 1.39121 0
M  V30 981 C 87.6931 6.0873 0.641462 0
M  V30 982 N 86.8301 6.8409 1.58004 0
M  V30 983 H 91.6701 2.92118 -0.589144 0
M  V30 984 H 89.2071 1.43959 -0.302342 0
M  V30 985 H 91.1651 3.79569 1.73156 0
M  V30 986 H 89.7951 2.65872 1.83062 0
M  V30 987 H 88.8471 3.79152 -0.307826 0
M  V30 988 H 90.1591 4.98458 -0.184565 0
M  V30 989 H 89.3131 5.70747 2.05749 0
M  V30 990 H 88.0521 4.44316 2.01084 0
M  V30 991 H 87.0571 5.49786 -0.0385419 0
M  V30 992 H 88.2821 6.79095 0.0270945 0
M  V30 993 H 86.2281 6.18449 2.18761 0
M  V30 994 H 86.1451 7.48709 1.04738 0
M  V30 995 H 87.4131 7.4673 2.23639 0
M  V30 996 N 91.6422 0.330177 1.54103 0
M  V30 997 C 93.0532 -0.15652 1.86043 0
M  V30 998 C 93.4042 -1.51086 1.2517 0
M  V30 999 O 92.5292 -2.09023 0.560217 0
M  V30 1000 C 93.1242 -0.290784 3.3755 0
M  V30 1001 C 91.6832 -0.721705 3.69416 0
M  V30 1002 C 90.8302 0.152622 2.7688 0
M  V30 1003 H 93.7812 0.550237 1.48856 0
M  V30 1004 H 93.8022 -1.12058 3.63625 0
M  V30 1005 H 93.3142 0.695068 3.81825 0
M  V30 1006 H 91.4152 -1.71706 3.30678 0
M  V30 1007 H 91.5282 -0.520869 4.7626 0
M  V30 1008 H 89.8922 -0.372894 2.51956 0
M  V30 1009 H 90.6752 1.13536 3.23982 0
M  V30 1010 N 93.1203 -1.57491 0.0584922 0
M  V30 1011 C 94.0503 -2.14988 -0.911178 0
M  V30 1012 C 95.0313 -1.07343 -1.31952 0
M  V30 1013 O 96.2163 -1.35318 -1.39294 0
M  V30 1014 C 93.3463 -2.70078 -2.18347 0
M  V30 1015 C 92.3003 -3.82771 -1.91495 0
M  V30 1016 C 91.6263 -4.24408 -3.25241 0
M  V30 1017 C 92.9263 -5.07592 -1.23075 0
M  V30 1018 H 94.6203 -2.96263 -0.432246 0
M  V30 1019 H 92.1663 -1.42512 -0.206469 0
M  V30 1020 H 94.1193 -3.08943 -2.86587 0
M  V30 1021 H 92.8433 -1.86005 -2.68458 0
M  V30 1022 H 91.5023 -3.44389 -1.25664 0
M  V30 1023 H 91.1503 -3.37275 -3.73168 0
M  V30 1024 H 90.8503 -5.00366 -3.08071 0
M  V30 1025 H 92.3743 -4.65879 -3.94701 0
M  V30 1026 H 93.7883 -5.43857 -1.81362 0
M  V30 1027 H 92.1853 -5.88741 -1.16207 0
M  V30 1028 H 93.2553 -4.84454 -0.207847 0
M  V30 1029 N 94.5984 0.214957 -1.56127 0
M  V30 1030 C 95.5284 1.2695 -1.95974 0
M  V30 1031 C 96.5094 1.48539 -0.828868 0
M  V30 1032 O 97.6944 1.60611 -1.09168 0
M  V30 1033 C 94.8244 2.61794 -2.28214 0
M  V30 1034 C 93.7784 2.54851 -3.43853 0
M  V30 1035 C 93.1044 3.93785 -3.61715 0
M  V30 1036 C 94.4044 2.09065 -4.78632 0
M  V30 1037 H 96.0984 0.93846 -2.84312 0
M  V30 1038 H 93.6444 0.449996 -1.36788 0
M  V30 1039 H 95.5974 3.35731 -2.54682 0
M  V30 1040 H 94.3214 2.96599 -1.36736 0
M  V30 1041 H 92.9804 1.8337 -3.17444 0
M  V30 1042 H 92.6284 4.25908 -2.67602 0
M  V30 1043 H 92.3284 3.90019 -4.39498 0
M  V30 1044 H 93.8524 4.69374 -3.90539 0
M  V30 1045 H 95.2664 2.7275 -5.04262 0
M  V30 1046 H 93.6634 2.16346 -5.59745 0
M  V30 1047 H 94.7334 1.04315 -4.73547 0
M  V30 1048 N 96.0765 1.50051 0.48192 0
M  V30 1049 C 97.4875 1.5348 1.06305 0
M  V30 1050 C 97.8385 0.331997 1.93371 0
M  V30 1051 O 96.9635 -0.556256 2.09129 0
M  V30 1052 C 97.5585 2.7813 1.93466 0
M  V30 1053 C 96.1175 2.84275 2.46707 0
M  V30 1054 C 95.2645 2.47637 1.24785 0
M  V30 1055 H 98.2155 1.56472 0.264995 0
M  V30 1056 H 98.2365 2.59372 2.78399 0
M  V30 1057 H 97.7485 3.65654 1.30072 0
M  V30 1058 H 95.8495 2.01077 3.13686 0
M  V30 1059 H 95.9625 3.8691 2.82555 0
M  V30 1060 H 94.3265 1.99835 1.57918 0
M  V30 1061 H 95.1095 3.37457 0.630694 0
M  V30 1062 N 97.5546 -0.734337 1.39446 0
M  V30 1063 C 98.7846 -1.52137 1.39778 0
M  V30 1064 C 99.1926 -1.89198 -0.00929312 0
M  V30 1065 O 98.5356 -1.54666 -0.991168 0
M  V30 1066 C 98.5976 -2.83762 2.20724 0
M  V30 1067 C 98.2616 -2.69131 3.69347 0
M  V30 1068 C 99.2586 -2.37635 4.62413 0
M  V30 1069 C 96.9436 -2.85982 4.1294 0
M  V30 1070 C 98.9376 -2.23172 5.97054 0
M  V30 1071 C 96.6246 -2.71137 5.47657 0
M  V30 1072 C 97.6226 -2.39777 6.39528 0
M  V30 1073 O 97.3106 -2.25026 7.71763 0
M  V30 1074 H 97.0426 -0.476717 0.479288 0
M  V30 1075 H 99.5966 -0.915012 1.83893 0
M  V30 1076 H 97.8266 -3.4666 1.71359 0
M  V30 1077 H 99.5156 -3.45383 2.13226 0
M  V30 1078 H 100.282 -2.24267 4.30034 0
M  V30 1079 H 96.1606 -3.09383 3.41765 0
M  V30 1080 H 99.7046 -1.98617 6.68728 0
M  V30 1081 H 95.6016 -2.84083 5.79626 0
M  V30 1082 H 96.3696 -2.40091 7.82495 0
M  V30 1083 N 99.0327 -1.24633 -0.964593 0
M  V30 1084 C 100.261 -1.11501 -1.74285 0
M  V30 1085 C 100.676 0.332165 -1.85855 0
M  V30 1086 O 100.033 1.22903 -1.34911 0
M  V30 1087 C 100.084 -1.75258 -3.16175 0
M  V30 1088 O 99.8047 -3.14318 -3.05182 0
M  V30 1089 C 101.306 -1.67776 -4.10324 0
M  V30 1090 H 98.5257 -0.389407 -0.546446 0
M  V30 1091 H 101.07 -1.64801 -1.21083 0
M  V30 1092 H 99.2247 -1.25954 -3.66353 0
M  V30 1093 H 99.6387 -3.4551 -3.94618 0
M  V30 1094 H 101.113 -2.17064 -5.0753 0
M  V30 1095 H 101.59 -0.639584 -4.34518 0
M  V30 1096 H 102.196 -2.16522 -3.66058 0
M  V30 1097 N 100.511 1.16574 -1.06058 0
M  V30 1098 C 101.922 1.68662 -0.800632 0
M  V30 1099 C 102.273 1.84184 0.67608 0
M  V30 1100 O 101.398 1.53568 1.52466 0
M  V30 1101 C 101.993 3.06356 -1.44676 0
M  V30 1102 C 100.552 3.55575 -1.23465 0
M  V30 1103 C 99.6988 2.31616 -1.52477 0
M  V30 1104 H 102.65 1.00969 -1.22438 0
M  V30 1105 H 102.671 3.70636 -0.860788 0
M  V30 1106 H 102.183 2.95027 -2.52152 0
M  V30 1107 H 100.284 3.72167 -0.179527 0
M  V30 1108 H 100.397 4.37812 -1.94571 0
M  V30 1109 H 98.7608 2.36512 -0.945209 0
M  V30 1110 H 99.5438 2.22887 -2.61106 0
M  V30 1111 N 101.989 0.842826 1.3317 0
M  V30 1112 C 103.237 0.439577 1.97262 0
M  V30 1113 C 103.558 -1.00548 1.67078 0
M  V30 1114 O 102.828 -1.70098 0.971779 0
M  V30 1115 H 101.408 0.159558 0.72976 0
M  V30 1116 H 104.07 1.07665 1.62463 0
M  V30 1117 H 103.166 0.574886 3.0676 0
M  V30 1118 N 103.467 -1.45747 0.599634 0
M  V30 1119 C 104.692 -2.07178 0.0960198 0
M  V30 1120 C 105.117 -1.44268 -1.207 0
M  V30 1121 O 104.475 -0.532503 -1.73303 0
M  V30 1122 C 104.523 -3.60579 -0.0385348 0
M  V30 1123 O 103.627 -3.97713 -1.0908 0
M  V30 1124 H 102.968 -0.660251 0.0704593 0
M  V30 1125 H 105.498 -1.87124 0.827385 0
M  V30 1126 H 105.508 -4.07298 -0.239304 0
M  V30 1127 H 104.183 -4.05756 0.912947 0
M  V30 1128 H 102.76 -3.62678 -0.867135 0
M  V30 1129 N 104.945 -0.338344 -1.53925 0
M  V30 1130 C 106.222 0.314774 -1.93051 0
M  V30 1131 C 106.602 1.68669 -1.26941 0
M  V30 1132 O 105.95 2.24636 -0.418445 0
M  V30 1133 C 106.16 0.392249 -3.46789 0
M  V30 1134 C 107.508 0.645554 -4.19664 0
M  V30 1135 O 108.532 0.474575 -3.53024 0
M  V30 1136 O 107.391 0.976408 -5.37707 0
M  V30 1137 H 104.485 0.182598 -0.80659 0
M  V30 1138 H 107.031 -0.389141 -1.65178 0
M  V30 1139 H 105.803 -0.570702 -3.87116 0
M  V30 1140 H 105.426 1.14316 -3.80812 0
M  V30 1141 N 106.423 1.57458 -0.0668435 0
M  V30 1142 C 107.669 1.93587 0.6043 0
M  V30 1143 C 108.002 0.946722 1.69561 0
M  V30 1144 O 107.277 -0.0248516 1.94484 0
M  V30 1145 C 107.56 3.40014 1.18585 0
M  V30 1146 C 107.413 4.49685 0.101529 0
M  V30 1147 C 108.732 3.87154 2.09284 0
M  V30 1148 H 105.851 0.703958 0.218202 0
M  V30 1149 H 108.493 1.89542 -0.131804 0
M  V30 1150 H 106.643 3.43592 1.81319 0
M  V30 1151 H 108.315 4.5823 -0.531279 0
M  V30 1152 H 106.558 4.30059 -0.568487 0
M  V30 1153 H 107.229 5.49266 0.54874 0
M  V30 1154 H 109.705 3.85551 1.56491 0
M  V30 1155 H 108.581 4.90231 2.46911 0
M  V30 1156 H 108.842 3.2481 2.99918 0
M  V30 1157 N 107.901 -0.206675 1.56239 0
M  V30 1158 C 108.864 -1.23976 1.92776 0
M  V30 1159 C 109.864 -1.39041 0.807729 0
M  V30 1160 O 111.054 -1.37051 1.0753 0
M  V30 1161 C 108.186 -2.61112 2.19165 0
M  V30 1162 H 109.379 -0.927764 2.85189 0
M  V30 1163 H 106.932 -0.447718 1.4975 0
M  V30 1164 H 107.667 -2.97386 1.29352 0
M  V30 1165 H 107.452 -2.51552 3.00772 0
M  V30 1166 H 108.942 -3.35633 2.48476 0
M  V30 1167 N 109.379 -1.50304 -0.473955 0
M  V30 1168 C 110.627 -1.60832 -1.22382 0
M  V30 1169 C 110.948 -0.30939 -1.9253 0
M  V30 1170 O 110.218 0.67296 -1.83978 0
M  V30 1171 H 108.798 -0.592652 -0.454723 0
M  V30 1172 H 111.46 -1.87068 -0.546968 0
M  V30 1173 H 110.556 -2.41803 -1.97327 0
M  V30 1174 N 110.857 0.726932 -1.39834 0
M  V30 1175 C 112.103 1.48884 -1.377 0
M  V30 1176 C 112.436 1.94185 0.0244852 0
M  V30 1177 O 111.711 1.67361 0.990986 0
M  V30 1178 C 111.994 2.72288 -2.3565 0
M  V30 1179 C 111.847 2.32956 -3.84775 0
M  V30 1180 C 113.166 3.74414 -2.31306 0
M  V30 1181 H 110.285 0.540062 -0.5015 0
M  V30 1182 H 112.927 0.830547 -1.70886 0
M  V30 1183 H 111.077 3.28457 -2.07481 0
M  V30 1184 H 112.749 1.82356 -4.23726 0
M  V30 1185 H 110.992 1.65088 -4.01159 0
M  V30 1186 H 111.663 3.21362 -4.4881 0
M  V30 1187 H 114.139 3.27849 -2.56231 0
M  V30 1188 H 113.015 4.58414 -3.01907 0
M  V30 1189 H 113.276 4.21909 -1.32081 0
M  V30 1190 N 112.336 1.25143 0.95797 0
M  V30 1191 C 113.585 1.0909 1.69654 0
M  V30 1192 C 113.898 -0.368548 1.92097 0
M  V30 1193 O 115.104 -0.649455 2.63618 0
M  V30 1194 C 113.56 1.90395 3.05414 0
M  V30 1195 C 113.168 3.4081 2.90779 0
M  V30 1196 C 114.912 1.82901 3.83076 0
M  V30 1197 C 112.819 4.14423 4.21909 0
M  V30 1198 H 111.749 0.404625 0.636235 0
M  V30 1199 H 114.4 1.4931 1.06672 0
M  V30 1200 H 112.782 1.42996 3.69281 0
M  V30 1201 H 113.956 3.95859 2.35865 0
M  V30 1202 H 112.271 3.49361 2.26575 0
M  V30 1203 H 114.868 2.35196 4.80195 0
M  V30 1204 H 115.211 0.796224 4.08615 0
M  V30 1205 H 115.744 2.28033 3.25954 0
M  V30 1206 H 112.483 5.18102 4.01561 0
M  V30 1207 H 112.003 3.64159 4.76601 0
M  V30 1208 H 113.682 4.21956 4.90471 0
M  V30 1209 N 113.814 -1.1601 1.06675 0
M  V30 1210 C 114.724 -2.24156 0.692179 0
M  V30 1211 C 115.74 -1.71507 -0.293513 0
M  V30 1212 O 116.916 -2.009 -0.141861 0
M  V30 1213 C 113.981 -3.46587 0.0884131 0
M  V30 1214 C 113.042 -4.14257 1.12646 0
M  V30 1215 C 112.275 -5.30844 0.551416 0
M  V30 1216 O 112.498 -5.66858 -0.634656 0
M  V30 1217 O 111.432 -5.87848 1.29298 0
M  V30 1218 H 115.258 -2.58513 1.59388 0
M  V30 1219 H 112.843 -1.23599 0.83926 0
M  V30 1220 H 114.725 -4.20679 -0.246361 0
M  V30 1221 H 113.4 -3.13994 -0.786712 0
M  V30 1222 H 112.307 -3.42118 1.51348 0
M  V30 1223 H 113.64 -4.50914 1.97325 0
M  V30 1224 N 115.292 -0.849877 -1.32721 0
M  V30 1225 C 116.255 -0.296122 -2.27279 0
M  V30 1226 C 117.255 0.541458 -1.5141 0
M  V30 1227 O 118.445 0.353658 -1.70572 0
M  V30 1228 C 115.577 0.581579 -3.35902 0
M  V30 1229 H 116.77 -1.13064 -2.77771 0
M  V30 1230 H 114.323 -0.62383 -1.43311 0
M  V30 1231 H 115.058 1.43809 -2.9067 0
M  V30 1232 H 114.843 -0.0178814 -3.92096 0
M  V30 1233 H 116.333 0.961951 -4.0637 0
M  V30 1234 N 116.77 1.45427 -0.607355 0
M  V30 1235 C 118.016 2.0254 -0.102607 0
M  V30 1236 C 118.349 1.47478 1.26348 0
M  V30 1237 O 117.624 0.64939 1.83339 0
M  V30 1238 C 117.907 3.60044 -0.0634347 0
M  V30 1239 C 117.76 4.2544 -1.46017 0
M  V30 1240 C 119.079 4.35646 0.624514 0
M  V30 1241 H 116.198 0.73598 -0.0387607 0
M  V30 1242 H 118.84 1.73284 -0.779282 0
M  V30 1243 H 116.99 3.85101 0.512808 0
M  V30 1244 H 118.662 4.11569 -2.08347 0
M  V30 1245 H 116.905 3.83849 -2.02094 0
M  V30 1246 H 117.576 5.34342 -1.385 0
M  V30 1247 H 120.052 4.15882 0.134723 0
M  V30 1248 H 118.928 5.45376 0.621028 0
M  V30 1249 H 119.189 4.08501 1.69055 0
M  V30 1250 N 118.248 0.346503 1.53744 0
M  V30 1251 C 119.496 -0.248612 2.00565 0
M  V30 1252 C 119.817 -1.5083 1.23593 0
M  V30 1253 O 119.087 -1.92858 0.343912 0
M  V30 1254 H 117.667 -0.0948564 0.740953 0
M  V30 1255 H 120.329 0.468341 1.89189 0
M  V30 1256 H 119.425 -0.488994 3.08245 0
M  V30 1257 N 119.726 -1.57421 0.075193 0
M  V30 1258 C 121.003 -1.85029 -0.634329 0
M  V30 1259 C 121.383 -0.968305 -1.87582 0
M  V30 1260 O 120.731 -0.0354749 -2.28472 0
M  V30 1261 C 120.941 -3.35286 -0.968742 0
M  V30 1262 C 122.289 -4.02875 -1.34077 0
M  V30 1263 O 123.313 -3.40051 -1.06037 0
M  V30 1264 O 122.172 -5.13691 -1.86506 0
M  V30 1265 H 119.266 -0.7645 -0.315387 0
M  V30 1266 H 121.812 -1.69366 0.106382 0
M  V30 1267 H 120.584 -3.91203 -0.0871376 0
M  V30 1268 H 120.207 -3.56223 -1.7661 0
M  V30 1269 N 121.204 0.198386 -1.56346 0
M  V30 1270 C 122.152 1.26538 -1.95169 0
M  V30 1271 C 123.146 1.47295 -0.836685 0
M  V30 1272 O 124.352 1.48195 -1.02167 0
M  V30 1273 H 120.727 0.424744 -0.620561 0
M  V30 1274 H 122.698 0.910904 -2.84157 0
M  V30 1275 C 121.447 2.6035 -2.30463 0
M  V30 1276 H 120.77 2.45192 -3.15786 0
M  V30 1277 H 122.21 3.33762 -2.61494 0
M  V30 1278 C 120.669 3.17096 -1.13806 0
M  V30 1279 O 121.199 3.99588 -0.41135 0
M  V30 1280 N 119.405 2.75795 -0.915736 0
M  V30 1281 H 118.952 2.08816 -1.50843 0
M  V30 1282 H 118.91 3.14101 -0.136979 0
M  V30 1283 N 122.682 1.50554 0.465978 0
M  V30 1284 C 123.645 1.69233 1.54574 0
M  V30 1285 C 124.645 0.562901 1.50626 0
M  V30 1286 O 125.835 0.830016 1.53155 0
M  V30 1287 C 122.967 1.7223 2.94193 0
M  V30 1288 H 124.16 2.65571 1.39327 0
M  V30 1289 H 121.713 1.40111 0.692711 0
M  V30 1290 H 122.448 0.77603 3.14878 0
M  V30 1291 H 122.233 2.54285 2.98466 0
M  V30 1292 H 123.723 1.88618 3.72576 0
M  V30 1293 N 124.16 -0.719506 1.40217 0
M  V30 1294 C 125.385 -1.51371 1.4178 0
M  V30 1295 C 125.81 -1.88091 0.0182355 0
M  V30 1296 O 125.168 -1.52997 -0.972707 0
M  V30 1297 C 125.216 -2.768 2.31115 0
M  V30 1298 O 124.32 -3.73349 1.7517 0
M  V30 1299 H 123.661 -0.456529 0.482159 0
M  V30 1300 H 126.191 -0.88644 1.844 0
M  V30 1301 H 126.201 -3.25371 2.46167 0
M  V30 1302 H 124.876 -2.49407 3.3282 0
M  V30 1303 H 123.453 -3.32179 1.69444 0
M  V30 1304 N 125.638 -1.25649 -0.95132 0
M  V30 1305 C 126.601 -1.06399 -2.03007 0
M  V30 1306 C 127.601 -0.0156794 -1.60792 0
M  V30 1307 O 128.791 -0.25817 -1.72276 0
M  V30 1308 C 125.923 -0.616184 -3.35285 0
M  V30 1309 H 127.116 -2.02164 -2.21517 0
M  V30 1310 H 124.669 -1.08103 -1.12887 0
M  V30 1311 H 125.404 0.343917 -3.22471 0
M  V30 1312 H 125.189 -1.37301 -3.67275 0
M  V30 1313 H 126.679 -0.503032 -4.14559 0
M  V30 1314 N 127.117 1.15442 -1.07289 0
M  V30 1315 C 128.364 1.86213 -0.795668 0
M  V30 1316 C 128.692 1.82291 0.678238 0
M  V30 1317 O 127.947 1.24057 1.51355 0
M  V30 1318 C 128.246 3.3489 -1.24834 0
M  V30 1319 C 127.912 3.59007 -2.72809 0
M  V30 1320 C 126.574 3.65298 -3.13227 0
M  V30 1321 C 128.926 3.68762 -3.68326 0
M  V30 1322 C 126.254 3.78854 -4.4798 0
M  V30 1323 C 128.606 3.83842 -5.0284 0
M  V30 1324 C 127.27 3.88378 -5.4288 0
M  V30 1325 H 126.54 0.681403 -0.291155 0
M  V30 1326 H 129.187 1.36435 -1.34379 0
M  V30 1327 H 127.492 3.8687 -0.619595 0
M  V30 1328 H 129.189 3.88052 -1.01076 0
M  V30 1329 H 125.779 3.5475 -2.40521 0
M  V30 1330 H 129.963 3.63202 -3.38227 0
M  V30 1331 H 125.219 3.80623 -4.78472 0
M  V30 1332 H 129.393 3.90332 -5.76727 0
M  V30 1333 H 127.02 3.98635 -6.47298 0
M  V30 1334 N 128.595 0.856903 1.32268 0
M  V30 1335 C 129.542 0.301172 2.28827 0
M  V30 1336 C 130.512 -0.593104 1.5515 0
M  V30 1337 O 131.697 -0.527537 1.83362 0
M  V30 1338 C 128.837 -0.502523 3.41422 0
M  V30 1339 C 127.95 0.417797 4.29975 0
M  V30 1340 C 127.085 -0.398749 5.29701 0
M  V30 1341 C 126.124 0.518827 6.09897 0
M  V30 1342 N 125.261 -0.260674 7.01616 0
M  V30 1343 H 130.101 1.12983 2.75751 0
M  V30 1344 H 127.638 0.568582 1.35667 0
M  V30 1345 H 129.596 -0.984141 4.05426 0
M  V30 1346 H 128.226 -1.29599 2.95642 0
M  V30 1347 H 127.278 1.01781 3.66531 0
M  V30 1348 H 128.59 1.12191 4.86019 0
M  V30 1349 H 127.744 -0.943435 5.9932 0
M  V30 1350 H 126.483 -1.13622 4.7428 0
M  V30 1351 H 125.488 1.07538 5.39181 0
M  V30 1352 H 126.713 1.25495 6.67404 0
M  V30 1353 H 124.659 -0.981198 6.4862 0
M  V30 1354 H 124.576 0.384364 7.55022 0
M  V30 1355 H 125.844 -0.787014 7.75517 0
M  V30 1356 N 130.073 -1.45103 0.615059 0
M  V30 1357 C 131.02 -2.30586 -0.0993978 0
M  V30 1358 C 131.99 -1.42544 -0.852669 0
M  V30 1359 O 133.175 -1.71465 -0.836917 0
M  V30 1360 C 130.315 -3.27572 -1.08583 0
M  V30 1361 C 129.428 -4.30717 -0.332656 0
M  V30 1362 C 128.563 -5.14807 -1.30947 0
M  V30 1363 C 127.602 -6.09673 -0.544538 0
M  V30 1364 N 126.739 -6.86517 -1.47101 0
M  V30 1365 H 131.579 -2.91144 0.635542 0
M  V30 1366 H 129.116 -1.4346 0.325206 0
M  V30 1367 H 131.074 -3.82276 -1.67095 0
M  V30 1368 H 129.704 -2.68751 -1.78809 0
M  V30 1369 H 128.756 -3.78615 0.368107 0
M  V30 1370 H 130.068 -4.98102 0.263842 0
M  V30 1371 H 129.222 -5.73948 -1.96643 0
M  V30 1372 H 127.961 -4.47458 -1.9399 0
M  V30 1373 H 126.966 -5.49656 0.126003 0
M  V30 1374 H 128.191 -6.79052 0.080947 0
M  V30 1375 H 126.137 -6.21851 -2.08895 0
M  V30 1376 H 126.054 -7.50281 -0.928137 0
M  V30 1377 H 127.322 -7.50194 -2.11731 0
M  V30 1378 N 131.551 -0.354651 -1.53558 0
M  V30 1379 C 132.799 0.237972 -2.00694 0
M  V30 1380 C 133.12 1.50173 -1.24391 0
M  V30 1381 O 132.39 1.92673 -0.354135 0
M  V30 1382 H 130.97 0.0909256 -0.741446 0
M  V30 1383 H 133.632 -0.478368 -1.88938 0
M  V30 1384 H 132.728 0.47264 -3.085 0
M  V30 1385 N 133.029 1.57378 -0.0835403 0
M  V30 1386 C 134.306 1.85363 0.624507 0
M  V30 1387 C 134.686 0.978239 1.87066 0
M  V30 1388 O 134.034 0.0475908 2.2845 0
M  V30 1389 C 134.244 3.35795 0.950947 0
M  V30 1390 C 135.592 4.03581 1.31939 0
M  V30 1391 O 136.616 3.40609 1.04232 0
M  V30 1392 O 135.475 5.14672 1.83779 0
M  V30 1393 H 132.569 0.766162 0.311329 0
M  V30 1394 H 135.115 1.69307 -0.115362 0
M  V30 1395 H 133.887 3.91244 0.0663899 0
M  V30 1396 H 133.51 3.57154 1.74719 0
M  V30 1397 N 134.507 -0.190092 1.56449 0
M  V30 1398 C 135.923 -0.54113 1.50146 0
M  V30 1399 C 136.123 -1.85603 0.784465 0
M  V30 1400 O 135.179 -2.5024 0.337051 0
M  V30 1401 C 136.492 -0.591241 2.9483 0
M  V30 1402 C 138.04 -0.679732 3.0553 0
M  V30 1403 C 138.515 -0.760908 4.51635 0
M  V30 1404 N 140.006 -0.824302 4.55806 0
M  V30 1405 C 140.741 -0.907365 5.66175 0
M  V30 1406 N 140.237 -0.952422 6.86222 0
M  V30 1407 N 142.03 -0.94494 5.541 0
M  V30 1408 H 134.181 0.67235 2.01478 0
M  V30 1409 H 136.444 0.240127 0.917084 0
M  V30 1410 H 136.15 0.305905 3.50367 0
M  V30 1411 H 136.024 -1.44422 3.48457 0
M  V30 1412 H 138.411 -1.56731 2.50039 0
M  V30 1413 H 138.492 0.199549 2.5502 0
M  V30 1414 H 138.136 0.122336 5.07753 0
M  V30 1415 H 138.066 -1.65606 4.99882 0
M  V30 1416 H 140.557 -0.798526 3.69367 0
M  V30 1417 H 140.87 -1.01645 7.66086 0
M  V30 1418 H 139.215 -0.921014 6.8887 0
M  V30 1419 H 142.406 -0.906612 4.59236 0
M  V30 1420 H 142.579 -1.00622 6.4014 0
M  V30 1421 N 135.985 -1.50799 -0.457987 0
M  V30 1422 C 137.231 -1.62683 -1.21088 0
M  V30 1423 C 137.564 -0.332268 -1.91336 0
M  V30 1424 O 136.839 0.667043 -1.82704 0
M  V30 1425 C 137.122 -2.81615 -2.24422 0
M  V30 1426 C 136.975 -4.20989 -1.58392 0
M  V30 1427 C 138.294 -2.96085 -3.2561 0
M  V30 1428 H 135.413 -0.592087 -0.438864 0
M  V30 1429 H 138.055 -1.83225 -0.50286 0
M  V30 1430 H 136.205 -2.64231 -2.84806 0
M  V30 1431 H 137.877 -4.49994 -1.01504 0
M  V30 1432 H 136.12 -4.24641 -0.886704 0
M  V30 1433 H 136.791 -5.0016 -2.33547 0
M  V30 1434 H 139.267 -3.12042 -2.75262 0
M  V30 1435 H 138.143 -3.80902 -3.95228 0
M  V30 1436 H 138.404 -2.0726 -3.90507 0
M  V30 1437 N 137.463 0.71206 -1.40597 0
M  V30 1438 C 138.71 1.47197 -1.39065 0
M  V30 1439 C 139.038 1.94499 0.00583891 0
M  V30 1440 O 138.293 1.68752 0.99102 0
M  V30 1441 C 138.592 2.71039 -2.32965 0
M  V30 1442 C 138.258 2.42484 -3.80148 0
M  V30 1443 C 136.92 2.34406 -4.20247 0
M  V30 1444 C 139.272 2.18598 -4.73143 0
M  V30 1445 C 136.6 2.00516 -5.51371 0
M  V30 1446 C 138.952 1.8622 -6.0457 0
M  V30 1447 C 137.616 1.76626 -6.43708 0
M  V30 1448 H 136.886 0.538634 -0.508876 0
M  V30 1449 H 139.533 0.815325 -1.73276 0
M  V30 1450 H 137.838 3.41558 -1.91951 0
M  V30 1451 H 139.535 3.29138 -2.29061 0
M  V30 1452 H 136.125 2.49659 -3.4838 0
M  V30 1453 H 140.309 2.23793 -4.42979 0
M  V30 1454 H 135.565 1.91628 -5.80593 0
M  V30 1455 H 139.739 1.66752 -6.76141 0
M  V30 1456 H 137.366 1.50133 -7.45228 0
M  V30 1457 N 138.941 1.26152 0.944643 0
M  V30 1458 C 140.169 1.14259 1.72489 0
M  V30 1459 C 140.584 -0.302555 1.8636 0
M  V30 1460 O 139.941 -1.20741 1.36849 0
M  V30 1461 C 139.992 1.80266 3.13347 0
M  V30 1462 O 139.713 3.19133 3.00143 0
M  V30 1463 C 141.214 1.74283 4.07603 0
M  V30 1464 H 138.434 0.398051 0.540181 0
M  V30 1465 H 140.978 1.66706 1.18446 0
M  V30 1466 H 139.133 1.31766 3.64303 0
M  V30 1467 H 139.547 3.51744 3.89071 0
M  V30 1468 H 141.021 2.25111 5.04013 0
M  V30 1469 H 141.498 0.708631 4.33446 0
M  V30 1470 H 142.104 2.22319 3.62567 0
M  V30 1471 N 140.419 -1.14872 1.07899 0
M  V30 1472 C 141.644 -1.90202 0.826926 0
M  V30 1473 C 142.069 -1.77774 -0.614664 0
M  V30 1474 O 141.427 -1.11431 -1.43013 0
M  V30 1475 C 141.475 -3.38352 1.24702 0
M  V30 1476 O 140.579 -4.10497 0.39575 0
M  V30 1477 H 139.92 -0.591968 0.300782 0
M  V30 1478 H 142.45 -1.45437 1.43907 0
M  V30 1479 H 142.46 -3.89156 1.22563 0
M  V30 1480 H 141.135 -3.46715 2.29698 0
M  V30 1481 H 139.712 -3.69796 0.480117 0
M  V30 1482 N 141.898 -0.863906 -1.31812 0
M  V30 1483 C 143.123 -0.48527 -2.01643 0
M  V30 1484 C 143.548 0.913058 -1.64453 0
M  V30 1485 O 142.906 1.6014 -0.849985 0
M  V30 1486 C 142.954 -0.642625 -3.54828 0
M  V30 1487 O 142.058 0.320659 -4.11151 0
M  V30 1488 H 141.399 -0.193793 -0.635091 0
M  V30 1489 H 143.929 -1.16565 -1.68148 0
M  V30 1490 H 143.939 -0.533628 -4.04495 0
M  V30 1491 H 142.614 -1.66227 -3.81237 0
M  V30 1492 H 141.191 0.167126 -3.72525 0
M  V30 1493 N 143.376 1.44774 -0.622745 0
M  V30 1494 C 144.604 2.06487 -0.130722 0
M  V30 1495 C 145.019 1.46476 1.19123 0
M  V30 1496 O 144.376 0.584502 1.72887 0
M  V30 1497 C 144.427 3.615 -0.000807207 0
M  V30 1498 O 144.148 4.19274 -1.27048 0
M  V30 1499 C 145.649 4.40229 0.520898 0
M  V30 1500 H 142.869 0.666704 -0.0758106 0
M  V30 1501 H 145.413 1.85779 -0.854774 0
M  V30 1502 H 143.568 3.81498 0.673643 0
M  V30 1503 H 143.982 5.12622 -1.1099 0
M  V30 1504 H 145.456 5.49144 0.560838 0
M  V30 1505 H 145.933 4.1108 1.54627 0
M  V30 1506 H 146.539 4.25131 -0.120018 0
M  V30 1507 N 144.854 0.36279 1.53368 0
M  V30 1508 C 146.103 -0.22888 2.00397 0
M  V30 1509 C 146.416 -1.50096 1.25421 0
M  V30 1510 O 147.622 -2.17106 1.63025 0
M  V30 1511 C 146.078 -0.458417 3.56969 0
M  V30 1512 C 145.686 0.798877 4.4082 0
M  V30 1513 C 147.43 -1.00789 4.12361 0
M  V30 1514 C 145.337 0.539078 5.88938 0
M  V30 1515 H 144.267 -0.089305 0.748693 0
M  V30 1516 H 146.918 0.481099 1.77081 0
M  V30 1517 H 145.3 -1.22959 3.76427 0
M  V30 1518 H 146.474 1.57262 4.33134 0
M  V30 1519 H 144.789 1.27137 3.96516 0
M  V30 1520 H 147.386 -1.21754 5.20653 0
M  V30 1521 H 147.729 -1.9692 3.66781 0
M  V30 1522 H 148.262 -0.296961 3.9669 0
M  V30 1523 H 145.001 1.47064 6.3879 0
M  V30 1524 H 144.521 -0.196222 5.99479 0
M  V30 1525 H 146.2 0.163542 6.46793 0
M  V30 1526 N 146.332 -1.57332 0.0918853 0
M  V30 1527 C 147.557 -1.98995 -0.584442 0
M  V30 1528 C 147.982 -0.970528 -1.61128 0
M  V30 1529 O 147.34 0.0613904 -1.81196 0
M  V30 1530 C 147.388 -3.39636 -1.21161 0
M  V30 1531 O 146.492 -3.40447 -2.32744 0
M  V30 1532 H 145.833 -0.647165 -0.148572 0
M  V30 1533 H 148.363 -2.03873 0.172347 0
M  V30 1534 H 148.373 -3.7726 -1.55367 0
M  V30 1535 H 147.048 -4.13356 -0.459313 0
M  V30 1536 H 145.625 -3.14614 -2.0018 0
M  V30 1537 N 147.81 0.181792 -1.56548 0
M  V30 1538 C 149.058 0.89832 -1.81038 0
M  V30 1539 C 149.379 1.83232 -0.667164 0
M  V30 1540 O 148.649 1.93372 0.313673 0
M  V30 1541 H 147.229 0.33471 -0.667816 0
M  V30 1542 H 149.891 0.184116 -1.94028 0
M  V30 1543 H 148.987 1.4815 -2.74696 0
M  V30 1544 N 149.288 1.51039 0.449983 0
M  V30 1545 C 150.536 1.62759 1.19808 0
M  V30 1546 C 150.857 0.339981 1.92013 0
M  V30 1547 O 150.127 -0.643606 1.85026 0
M  V30 1548 H 148.707 0.599811 0.445237 0
M  V30 1549 H 151.369 1.87914 0.517138 0
M  V30 1550 H 150.465 2.44911 1.93455 0
M  V30 1551 N 150.766 -0.704594 1.40972 0
M  V30 1552 C 151.996 -1.49138 1.42974 0
M  V30 1553 C 152.404 -1.89175 0.0308406 0
M  V30 1554 O 151.747 -1.56734 -0.958138 0
M  V30 1555 C 151.809 -2.79016 2.26694 0
M  V30 1556 C 151.473 -2.61236 3.74973 0
M  V30 1557 C 152.47 -2.27773 4.67349 0
M  V30 1558 C 150.155 -2.77158 4.18914 0
M  V30 1559 C 152.149 -2.10457 6.01653 0
M  V30 1560 C 149.836 -2.59459 5.53285 0
M  V30 1561 C 150.834 -2.26158 6.4447 0
M  V30 1562 O 150.522 -2.08605 7.76363 0
M  V30 1563 H 150.254 -0.466443 0.489292 0
M  V30 1564 H 152.808 -0.8758 1.85793 0
M  V30 1565 H 151.038 -3.42947 1.78673 0
M  V30 1566 H 152.727 -3.40782 2.20504 0
M  V30 1567 H 153.493 -2.15095 4.34694 0
M  V30 1568 H 149.372 -3.02064 3.48251 0
M  V30 1569 H 152.916 -1.84387 6.72791 0
M  V30 1570 H 148.813 -2.71725 5.85522 0
M  V30 1571 H 149.581 -2.23439 7.87412 0
M  V30 1572 N 152.244 -1.26651 -0.937939 0
M  V30 1573 C 153.207 -1.08546 -2.01867 0
M  V30 1574 C 154.207 -0.0327327 -1.60767 0
M  V30 1575 O 155.397 -0.276427 -1.71993 0
M  V30 1576 C 152.529 -0.651711 -3.34613 0
M  V30 1577 H 153.722 -2.04502 -2.1936 0
M  V30 1578 H 151.275 -1.09294 -1.11734 0
M  V30 1579 H 152.01 0.309696 -3.22818 0
M  V30 1580 H 151.795 -1.41189 -3.65798 0
M  V30 1581 H 153.285 -0.546973 -4.14002 0
M  V30 1582 N 153.722 1.14298 -1.08507 0
M  V30 1583 C 154.632 2.23027 -0.727753 0
M  V30 1584 C 155.648 1.71952 0.26619 0
M  V30 1585 O 156.824 2.011 0.109882 0
M  V30 1586 C 153.889 3.46403 -0.143541 0
M  V30 1587 C 152.95 4.12413 -1.19223 0
M  V30 1588 C 152.183 5.29899 -0.635798 0
M  V30 1589 O 152.406 5.67796 0.544393 0
M  V30 1590 O 151.34 5.85717 -1.38634 0
M  V30 1591 H 155.166 2.55945 -1.63481 0
M  V30 1592 H 152.751 1.22248 -0.858817 0
M  V30 1593 H 154.633 4.21018 0.179404 0
M  V30 1594 H 153.308 3.15206 0.736659 0
M  V30 1595 H 152.215 3.39667 -1.56772 0
M  V30 1596 H 153.548 4.47718 -2.04474 0
M  V30 1597 N 155.201 0.870884 1.31352 0
M  V30 1598 C 156.431 0.496049 2.00557 0
M  V30 1599 C 156.839 -0.916241 1.65534 0
M  V30 1600 O 156.182 -1.61188 0.881134 0
M  V30 1601 C 156.244 0.574418 3.54881 0
M  V30 1602 C 155.908 1.94849 4.1338 0
M  V30 1603 C 156.905 2.91611 4.30417 0
M  V30 1604 C 154.59 2.25005 4.49086 0
M  V30 1605 C 156.584 4.16672 4.82352 0
M  V30 1606 C 154.271 3.50315 5.00722 0
M  V30 1607 C 155.269 4.45964 5.17306 0
M  V30 1608 O 154.957 5.69052 5.67833 0
M  V30 1609 H 154.689 0.191664 0.64826 0
M  V30 1610 H 157.243 1.17409 1.68536 0
M  V30 1611 H 155.473 -0.160549 3.86367 0
M  V30 1612 H 157.162 0.212879 4.05341 0
M  V30 1613 H 157.928 2.69622 4.03149 0
M  V30 1614 H 153.807 1.51332 4.35453 0
M  V30 1615 H 157.351 4.91336 4.95211 0
M  V30 1616 H 153.248 3.72147 5.27424 0
M  V30 1617 H 154.016 5.71236 5.86201 0
M  V30 1618 N 156.679 -1.44442 0.630414 0
M  V30 1619 C 157.642 -2.29107 -0.0652523 0
M  V30 1620 C 158.642 -1.41002 -0.772995 0
M  V30 1621 O 159.832 -1.62881 -0.617692 0
M  V30 1622 C 156.964 -3.22564 -1.10296 0
M  V30 1623 H 158.157 -2.92103 0.679401 0
M  V30 1624 H 155.71 -1.51343 0.390517 0
M  V30 1625 H 156.445 -2.64416 -1.87762 0
M  V30 1626 H 156.23 -3.87491 -0.59941 0
M  V30 1627 H 157.72 -3.86167 -1.5895 0
M  V30 1628 N 158.157 -0.370918 -1.53173 0
M  V30 1629 C 159.087 0.464847 -2.28826 0
M  V30 1630 C 160.068 1.07936 -1.31468 0
M  V30 1631 O 161.253 1.0956 -1.60344 0
M  V30 1632 C 158.383 1.60196 -3.08147 0
M  V30 1633 C 157.337 1.11443 -4.13237 0
M  V30 1634 C 156.663 2.3422 -4.80672 0
M  V30 1635 C 157.963 0.195384 -5.21934 0
M  V30 1636 H 159.657 -0.166329 -2.98938 0
M  V30 1637 H 157.203 -0.0814359 -1.4377 0
M  V30 1638 H 159.156 2.19332 -3.59822 0
M  V30 1639 H 157.88 2.26045 -2.35735 0
M  V30 1640 H 156.539 0.545727 -3.62515 0
M  V30 1641 H 156.187 2.98537 -4.04827 0
M  V30 1642 H 155.887 2.02269 -5.51689 0
M  V30 1643 H 157.411 2.94032 -5.35143 0
M  V30 1644 H 158.825 0.694375 -5.69079 0
M  V30 1645 H 157.222 -0.0335027 -6.00091 0
M  V30 1646 H 158.292 -0.760961 -4.78892 0
M  V30 1647 N 159.635 1.57281 -0.100228 0
M  V30 1648 C 160.598 2.13158 0.842398 0
M  V30 1649 C 161.598 1.06202 1.20738 0
M  V30 1650 O 162.788 1.32066 1.13597 0
M  V30 1651 C 159.92 2.65639 2.13655 0
M  V30 1652 H 161.113 2.97766 0.357114 0
M  V30 1653 H 158.666 1.5559 0.148823 0
M  V30 1654 H 159.401 1.84566 2.66657 0
M  V30 1655 H 159.186 3.43844 1.88451 0
M  V30 1656 H 160.676 3.08846 2.81077 0
M  V30 1657 N 161.113 -0.173488 1.56642 0
M  V30 1658 C 162.076 -1.19859 1.95362 0
M  V30 1659 C 163.076 -1.37296 0.83704 0
M  V30 1660 O 164.266 -1.34739 1.10413 0
M  V30 1661 C 161.398 -2.56405 2.24654 0
M  V30 1662 H 162.591 -0.867062 2.87092 0
M  V30 1663 H 160.144 -0.415853 1.50666 0
M  V30 1664 H 160.879 -2.94576 1.35631 0
M  V30 1665 H 160.664 -2.45115 3.06041 0
M  V30 1666 H 162.154 -3.30287 2.5554 0
M  V30 1667 N 162.591 -1.51276 -0.441967 0
M  V30 1668 C 163.868 -1.54252 -1.20273 0
M  V30 1669 C 164.248 -0.30408 -2.08898 0
M  V30 1670 O 163.596 0.711084 -2.17154 0
M  V30 1671 C 163.806 -2.85406 -2.00859 0
M  V30 1672 C 165.154 -3.37181 -2.58059 0
M  V30 1673 O 166.178 -2.86925 -2.11074 0
M  V30 1674 O 165.037 -4.24858 -3.43741 0
M  V30 1675 H 162.131 -0.619969 -0.547328 0
M  V30 1676 H 164.677 -1.63586 -0.451413 0
M  V30 1677 H 163.449 -3.67003 -1.35736 0
M  V30 1678 H 163.072 -2.79213 -2.83065 0
M  V30 1679 N 164.069 0.697108 -1.41344 0
M  V30 1680 C 165.019 1.80313 -1.39539 0
M  V30 1681 C 166.003 1.58618 -0.270001 0
M  V30 1682 O 167.195 1.69477 -0.510551 0
M  V30 1683 C 164.324 3.18606 -1.27848 0
M  V30 1684 C 163.41 3.46001 -2.45244 0
M  V30 1685 N 163.801 3.44103 -3.70711 0
M  V30 1686 C 162.099 3.76542 -2.39023 0
M  V30 1687 C 162.8 3.7036 -4.48563 0
M  V30 1688 N 161.776 3.90027 -3.78655 0
M  V30 1689 H 165.578 1.77207 -2.34468 0
M  V30 1690 H 163.092 0.897031 -1.35378 0
M  V30 1691 H 165.089 3.97833 -1.24637 0
M  V30 1692 H 163.749 3.22925 -0.339032 0
M  V30 1693 H 164.76 3.2452 -4.03618 0
M  V30 1694 H 161.437 3.88241 -1.53542 0
M  V30 1695 H 162.827 3.75042 -5.57488 0
M  V30 1696 N 165.547 1.27147 0.931209 0
M  V30 1697 C 166.775 1.16082 1.71267 0
M  V30 1698 C 167.19 -0.282772 1.8667 0
M  V30 1699 O 166.547 -1.19283 1.38122 0
M  V30 1700 C 166.598 1.8358 3.11417 0
M  V30 1701 O 166.319 3.22299 2.96741 0
M  V30 1702 C 167.82 1.78597 4.05732 0
M  V30 1703 H 165.04 0.403758 0.535929 0
M  V30 1704 H 167.584 1.67953 1.16671 0
M  V30 1705 H 165.739 1.35623 3.62885 0
M  V30 1706 H 166.153 3.55851 3.85319 0
M  V30 1707 H 167.627 2.30444 5.01597 0
M  V30 1708 H 168.104 0.754564 4.3267 0
M  V30 1709 H 168.71 2.26152 3.60188 0
M  V30 1710 N 167.025 -1.13721 1.09112 0
M  V30 1711 C 168.271 -1.85198 0.826414 0
M  V30 1712 C 168.604 -1.83129 -0.646319 0
M  V30 1713 O 167.879 -1.2671 -1.47563 0
M  V30 1714 C 168.162 -3.33507 1.35812 0
M  V30 1715 C 168.015 -3.44108 2.89672 0
M  V30 1716 C 169.334 -4.28838 0.989256 0
M  V30 1717 H 166.453 -0.67243 0.301675 0
M  V30 1718 H 169.095 -1.33499 1.35197 0
M  V30 1719 H 167.245 -3.77666 0.911082 0
M  V30 1720 H 168.917 -3.08684 3.428 0
M  V30 1721 H 167.16 -2.85087 3.26967 0
M  V30 1722 H 167.831 -4.48388 3.21951 0
M  V30 1723 H 170.307 -3.92734 1.37475 0
M  V30 1724 H 169.183 -5.31051 1.38838 0
M  V30 1725 H 169.444 -4.4198 -0.102924 0
M  V30 1726 N 168.503 -0.877838 -1.30888 0
M  V30 1727 C 169.733 -0.506678 -2.00291 0
M  V30 1728 C 170.141 0.907449 -1.66018 0
M  V30 1729 O 169.484 1.60719 -0.88967 0
M  V30 1730 C 169.546 -0.59323 -3.54572 0
M  V30 1731 C 169.21 -1.97038 -4.12341 0
M  V30 1732 C 170.207 -2.93889 -4.28865 0
M  V30 1733 C 167.892 -2.27383 -4.47886 0
M  V30 1734 C 169.886 -4.19224 -4.80136 0
M  V30 1735 C 167.573 -3.52965 -4.98857 0
M  V30 1736 C 168.571 -4.48701 -5.14934 0
M  V30 1737 O 168.259 -5.72056 -5.64808 0
M  V30 1738 H 167.991 -0.1951 -0.647234 0
M  V30 1739 H 170.545 -1.18301 -1.6791 0
M  V30 1740 H 168.775 0.140057 -3.86446 0
M  V30 1741 H 170.464 -0.234372 -4.05223 0
M  V30 1742 H 171.23 -2.71756 -4.01714 0
M  V30 1743 H 167.109 -1.53639 -4.34645 0
M  V30 1744 H 170.653 -4.93956 -4.92599 0
M  V30 1745 H 166.55 -3.74939 -5.25443 0
M  V30 1746 H 167.318 -5.74337 -5.83163 0
M  V30 1747 N 169.982 1.44106 -0.638065 0
M  V30 1748 C 170.929 2.30715 0.062701 0
M  V30 1749 C 171.899 1.43882 0.829883 0
M  V30 1750 O 173.084 1.72775 0.809532 0
M  V30 1751 C 170.224 3.29258 1.03358 0
M  V30 1752 C 169.337 4.31192 0.26409 0
M  V30 1753 C 168.472 5.16825 1.22741 0
M  V30 1754 C 167.511 6.10462 0.447475 0
M  V30 1755 N 166.648 6.8877 1.36161 0
M  V30 1756 H 171.488 2.90096 -0.681781 0
M  V30 1757 H 169.025 1.42925 -0.347988 0
M  V30 1758 H 170.983 3.84886 1.60992 0
M  V30 1759 H 169.613 2.71562 1.74511 0
M  V30 1760 H 168.665 3.77981 -0.428295 0
M  V30 1761 H 169.977 4.97619 -0.343052 0
M  V30 1762 H 169.131 5.77004 1.87487 0
M  V30 1763 H 167.87 4.50488 1.86847 0
M  V30 1764 H 166.875 5.49386 -0.213433 0
M  V30 1765 H 168.1 6.78837 -0.188968 0
M  V30 1766 H 166.046 6.25096 1.98975 0
M  V30 1767 H 165.963 7.51663 0.808656 0
M  V30 1768 H 167.231 7.53467 1.99769 0
M  V30 1769 N 171.46 0.379036 1.52974 0
M  V30 1770 C 172.39 -0.452706 2.29069 0
M  V30 1771 C 173.371 -1.07237 1.32039 0
M  V30 1772 O 174.556 -1.08708 1.60923 0
M  V30 1773 C 171.686 -1.5856 3.08992 0
M  V30 1774 C 170.64 -1.0925 4.13822 0
M  V30 1775 C 169.966 -2.31668 4.81907 0
M  V30 1776 C 171.266 -0.167702 5.22031 0
M  V30 1777 H 172.96 0.182181 2.98845 0
M  V30 1778 H 170.506 0.0890592 1.43724 0
M  V30 1779 H 172.459 -2.1742 3.6098 0
M  V30 1780 H 171.183 -2.24792 2.36931 0
M  V30 1781 H 169.842 -0.526494 3.628 0
M  V30 1782 H 169.49 -2.96386 4.06404 0
M  V30 1783 H 169.19 -1.9934 5.52754 0
M  V30 1784 H 170.714 -2.91189 5.36695 0
M  V30 1785 H 172.128 -0.664186 5.6944 0
M  V30 1786 H 170.525 0.0653265 6.00064 0
M  V30 1787 H 171.595 0.786347 4.78482 0
M  V30 1788 N 172.938 -1.57226 0.108567 0
M  V30 1789 C 174.349 -1.8195 -0.418464 0
M  V30 1790 C 174.7 -1.02508 -1.67292 0
M  V30 1791 O 173.825 -0.258496 -2.14851 0
M  V30 1792 C 174.42 -3.30028 -0.765979 0
M  V30 1793 C 172.979 -3.55469 -1.23769 0
M  V30 1794 C 172.126 -2.7625 -0.241106 0
M  V30 1795 H 175.077 -1.55149 0.33384 0
M  V30 1796 H 175.098 -3.44086 -1.62434 0
M  V30 1797 H 174.61 -3.87821 0.147219 0
M  V30 1798 H 172.711 -3.03022 -2.16814 0
M  V30 1799 H 172.824 -4.6408 -1.19022 0
M  V30 1800 H 171.188 -2.44133 -0.72602 0
M  V30 1801 H 171.971 -3.36797 0.665007 0
M  V30 1802 N 174.416 0.165178 -1.56732 0
M  V30 1803 C 175.326 1.22423 -2.00125 0
M  V30 1804 C 176.342 1.48084 -0.913619 0
M  V30 1805 O 177.518 1.60112 -1.22172 0
M  V30 1806 C 174.583 2.54197 -2.35764 0
M  V30 1807 C 173.644 2.36343 -3.58386 0
M  V30 1808 C 172.877 3.61834 -3.92316 0
M  V30 1809 O 173.1 4.67267 -3.27135 0
M  V30 1810 O 172.034 3.55579 -4.85641 0
M  V30 1811 H 175.86 0.885886 -2.90492 0
M  V30 1812 H 173.445 0.372518 -1.44681 0
M  V30 1813 H 175.327 3.3192 -2.59629 0
M  V30 1814 H 174.002 2.87598 -1.48557 0
M  V30 1815 H 172.909 1.56632 -3.39731 0
M  V30 1816 H 174.242 2.07865 -4.46154 0
M  V30 1817 N 175.894 1.51508 0.433938 0
M  V30 1818 C 176.841 1.73068 1.52696 0
M  V30 1819 C 177.811 0.572441 1.55924 0
M  V30 1820 O 178.996 0.807253 1.72882 0
M  V30 1821 C 176.136 1.86474 2.90381 0
M  V30 1822 C 175.249 3.14037 2.96656 0
M  V30 1823 C 174.384 3.18019 4.25485 0
M  V30 1824 C 173.423 4.39882 4.2564 0
M  V30 1825 N 172.56 4.41394 5.45999 0
M  V30 1826 H 177.4 2.66366 1.33615 0
M  V30 1827 H 174.937 1.32008 0.649018 0
M  V30 1828 H 176.895 1.92229 3.70275 0
M  V30 1829 H 175.525 0.965809 3.08013 0
M  V30 1830 H 174.577 3.17575 2.09404 0
M  V30 1831 H 175.889 4.0394 2.92633 0
M  V30 1832 H 175.043 3.22708 5.13755 0
M  V30 1833 H 173.782 2.2601 4.3217 0
M  V30 1834 H 172.787 4.35366 3.35763 0
M  V30 1835 H 174.012 5.33159 4.20617 0
M  V30 1836 H 171.958 3.52258 5.53399 0
M  V30 1837 H 171.875 5.25111 5.4387 0
M  V30 1838 H 173.143 4.50281 6.36292 0
M  V30 1839 N 177.372 -0.689602 1.41712 0
M  V30 1840 C 178.302 -1.81577 1.46806 0
M  V30 1841 C 179.283 -1.66945 0.326105 0
M  V30 1842 O 180.468 -1.86588 0.538377 0
M  V30 1843 C 177.598 -3.19762 1.35535 0
M  V30 1844 C 176.552 -3.49107 2.47605 0
M  V30 1845 C 175.878 -4.86711 2.21397 0
M  V30 1846 C 177.178 -3.47483 3.89939 0
M  V30 1847 H 178.872 -1.7757 2.41058 0
M  V30 1848 H 176.418 -0.852887 1.16025 0
M  V30 1849 H 178.371 -3.98263 1.3771 0
M  V30 1850 H 177.095 -3.24409 0.377708 0
M  V30 1851 H 175.754 -2.72959 2.44722 0
M  V30 1852 H 175.402 -4.8799 1.21961 0
M  V30 1853 H 175.102 -5.0731 2.96497 0
M  V30 1854 H 176.626 -5.67515 2.25297 0
M  V30 1855 H 178.04 -4.1598 3.94505 0
M  V30 1856 H 176.437 -3.79615 4.64771 0
M  V30 1857 H 177.507 -2.46341 4.17665 0
M  V30 1858 N 178.85 -1.27639 -0.924453 0
M  V30 1859 C 180.127 -1.04887 -1.651 0
M  V30 1860 C 180.507 0.415327 -2.06974 0
M  V30 1861 O 179.855 1.39923 -1.80648 0
M  V30 1862 C 180.065 -2.01348 -2.85061 0
M  V30 1863 C 181.413 -2.30899 -3.56329 0
M  V30 1864 O 182.437 -1.99348 -2.95193 0
M  V30 1865 O 181.296 -2.84699 -4.66485 0
M  V30 1866 H 178.39 -0.400083 -0.723784 0
M  V30 1867 H 180.936 -1.38916 -0.974703 0
M  V30 1868 H 179.708 -3.0008 -2.51133 0
M  V30 1869 H 179.331 -1.679 -3.6041 0
M  V30 1870 N 180.328 1.1314 -1.09713 0
M  V30 1871 C 181.575 1.84484 -0.834987 0
M  V30 1872 C 181.903 1.83689 0.639418 0
M  V30 1873 O 181.158 1.2724 1.4869 0
M  V30 1874 C 181.457 3.32167 -1.3191 0
M  V30 1875 C 181.123 3.53139 -2.80363 0
M  V30 1876 C 179.785 3.58571 -3.20905 0
M  V30 1877 C 182.137 3.60866 -3.76065 0
M  V30 1878 C 179.465 3.69267 -4.55916 0
M  V30 1879 C 181.817 3.73089 -5.10869 0
M  V30 1880 C 180.481 3.76775 -5.50996 0
M  V30 1881 H 179.751 0.675073 -0.305544 0
M  V30 1882 H 182.398 1.33554 -1.37243 0
M  V30 1883 H 180.703 3.85469 -0.701517 0
M  V30 1884 H 182.4 3.85821 -1.09284 0
M  V30 1885 H 178.99 3.49569 -2.47991 0
M  V30 1886 H 183.174 3.55946 -3.45855 0
M  V30 1887 H 178.43 3.70388 -4.86438 0
M  V30 1888 H 182.604 3.78011 -5.84877 0
M  V30 1889 H 180.231 3.84815 -6.55608 0
M  V30 1890 N 181.806 0.884767 1.30421 0
M  V30 1891 C 182.753 0.349642 2.28136 0
M  V30 1892 C 183.723 -0.560061 1.56373 0
M  V30 1893 O 184.908 -0.488524 1.8444 0
M  V30 1894 C 182.048 -0.42999 3.42411 0
M  V30 1895 C 181.161 0.508907 4.28992 0
M  V30 1896 C 180.296 -0.286301 5.30428 0
M  V30 1897 C 179.335 0.648079 6.08659 0
M  V30 1898 N 178.472 -0.111792 7.02011 0
M  V30 1899 H 183.312 1.18807 2.73293 0
M  V30 1900 H 180.849 0.597231 1.3443 0
M  V30 1901 H 182.807 -0.897923 4.07423 0
M  V30 1902 H 181.437 -1.23299 2.98324 0
M  V30 1903 H 180.489 1.09533 3.64289 0
M  V30 1904 H 181.801 1.22475 4.8353 0
M  V30 1905 H 180.955 -0.816098 6.01186 0
M  V30 1906 H 179.694 -1.03536 4.76583 0
M  V30 1907 H 178.699 1.18951 5.36778 0
M  V30 1908 H 179.924 1.39623 6.64592 0
M  V30 1909 H 177.87 -0.843395 6.50556 0
M  V30 1910 H 177.787 0.544429 7.54037 0
M  V30 1911 H 179.055 -0.622339 7.77012 0
M  V30 1912 N 183.284 -1.43765 0.645699 0
M  V30 1913 C 184.216 -2.29027 -0.0890605 0
M  V30 1914 C 185.229 -1.42093 -0.794563 0
M  V30 1915 O 186.418 -1.66104 -0.653575 0
M  V30 1916 C 183.518 -3.18831 -1.14891 0
M  V30 1917 C 182.691 -4.34261 -0.523043 0
M  V30 1918 C 181.75 -5.04994 -1.47878 0
M  V30 1919 O 180.776 -5.6052 -0.990277 0
M  V30 1920 N 181.978 -5.07795 -2.81291 0
M  V30 1921 H 184.743 -2.92727 0.64272 0
M  V30 1922 H 182.304 -1.54373 0.487924 0
M  V30 1923 H 184.296 -3.63015 -1.78892 0
M  V30 1924 H 182.866 -2.56782 -1.78275 0
M  V30 1925 H 182.086 -3.93088 0.295896 0
M  V30 1926 H 183.374 -5.08728 -0.0858147 0
M  V30 1927 H 182.772 -4.64042 -3.23546 0
M  V30 1928 H 181.329 -5.55721 -3.40614 0
M  V30 1929 N 184.763 -0.387143 -1.52771 0
M  V30 1930 C 186.011 0.195349 -2.01154 0
M  V30 1931 C 186.332 1.475 -1.27549 0
M  V30 1932 O 185.602 1.91878 -0.394924 0
M  V30 1933 H 184.182 0.075178 -0.743207 0
M  V30 1934 H 186.844 -0.518337 -1.87881 0
M  V30 1935 H 185.94 0.407096 -3.09434 0
M  V30 1936 N 186.241 1.57166 -0.116904 0
M  V30 1937 C 187.204 2.14039 0.819742 0
M  V30 1938 C 188.204 1.07477 1.19605 0
M  V30 1939 O 189.394 1.33263 1.1219 0
M  V30 1940 C 186.526 2.67891 2.10826 0
M  V30 1941 H 187.719 2.98128 0.325511 0
M  V30 1942 H 185.272 1.55739 0.132312 0
M  V30 1943 H 186.007 1.87384 2.64685 0
M  V30 1944 H 185.792 3.45823 1.84793 0
M  V30 1945 H 187.282 3.11809 2.77785 0
M  V30 1946 N 187.719 -0.156864 1.56817 0
M  V30 1947 C 188.682 -1.17781 1.96622 0
M  V30 1948 C 189.682 -1.36401 0.851555 0
M  V30 1949 O 190.872 -1.33561 1.11836 0
M  V30 1950 C 188.004 -2.54008 2.27361 0
M  V30 1951 H 189.197 -0.836564 2.87996 0
M  V30 1952 H 186.75 -0.39985 1.51099 0
M  V30 1953 H 187.485 -2.9312 1.38748 0
M  V30 1954 H 187.27 -2.41856 3.08623 0
M  V30 1955 H 188.76 -3.27558 2.59029 0
M  V30 1956 N 189.197 -1.51736 -0.425897 0
M  V30 1957 C 190.446 -1.64201 -1.17136 0
M  V30 1958 C 190.759 -0.369705 -1.92074 0
M  V30 1959 O 191.965 -0.373898 -2.68913 0
M  V30 1960 C 190.421 -2.90035 -2.13091 0
M  V30 1961 C 190.029 -4.24312 -1.43747 0
M  V30 1962 C 191.773 -3.1186 -2.87999 0
M  V30 1963 C 189.68 -5.41285 -2.38253 0
M  V30 1964 H 188.61 -0.611624 -0.440944 0
M  V30 1965 H 191.261 -1.78212 -0.437328 0
M  V30 1966 H 189.643 -2.69684 -2.89977 0
M  V30 1967 H 190.817 -4.55086 -0.723408 0
M  V30 1968 H 189.132 -4.08456 -0.809465 0
M  V30 1969 H 191.729 -3.96427 -3.58817 0
M  V30 1970 H 192.072 -2.25403 -3.49999 0
M  V30 1971 H 192.605 -3.32605 -2.18217 0
M  V30 1972 H 189.344 -6.30037 -1.80925 0
M  V30 1973 H 188.864 -5.14872 -3.0768 0
M  V30 1974 H 190.543 -5.73694 -2.99139 0
M  V30 1975 N 190.675 0.682077 -1.42076 0
M  V30 1976 C 191.923 1.4393 -1.41876 0
M  V30 1977 C 192.244 1.94971 -0.0335599 0
M  V30 1978 O 191.514 1.72591 0.926773 0
M  V30 1979 H 190.094 0.534085 -0.522267 0
M  V30 1980 H 192.756 0.806427 -1.77434 0
M  V30 1981 H 191.852 2.29588 -2.11414 0
M  V30 1982 N 192.153 1.28127 0.917671 0
M  V30 1983 C 193.402 1.14432 1.66097 0
M  V30 1984 C 193.715 -0.307247 1.93172 0
M  V30 1985 O 194.921 -0.565259 2.65551 0
M  V30 1986 C 193.377 2.00015 2.99202 0
M  V30 1987 C 192.985 3.49889 2.79789 0
M  V30 1988 C 194.729 1.94996 3.77064 0
M  V30 1989 C 192.636 4.27636 4.08511 0
M  V30 1990 H 191.566 0.424662 0.62304 0
M  V30 1991 H 194.217 1.52628 1.01868 0
M  V30 1992 H 192.599 1.54672 3.64544 0
M  V30 1993 H 193.773 4.03162 2.23152 0
M  V30 1994 H 192.088 3.56392 2.15345 0
M  V30 1995 H 194.685 2.50354 4.72469 0
M  V30 1996 H 195.028 0.925819 4.05875 0
M  V30 1997 H 195.561 2.38287 3.18534 0
M  V30 1998 H 192.3 5.30615 3.84874 0
M  V30 1999 H 191.82 3.79137 4.64774 0
M  V30 2000 H 193.499 4.37346 4.76799 0
M  V30 2001 N 193.631 -1.12557 1.10312 0
M  V30 2002 C 195.042 -1.65574 0.862678 0
M  V30 2003 C 195.393 -1.86566 -0.607256 0
M  V30 2004 O 194.518 -1.59121 -1.46662 0
M  V30 2005 C 195.113 -3.00776 1.55947 0
M  V30 2006 C 193.672 -3.50748 1.36576 0
M  V30 2007 C 192.819 -2.25797 1.60968 0
M  V30 2008 H 195.77 -0.963552 1.26101 0
M  V30 2009 H 195.791 -3.67185 0.997753 0
M  V30 2010 H 195.303 -2.85465 2.62928 0
M  V30 2011 H 193.404 -3.71245 0.317531 0
M  V30 2012 H 193.517 -4.30289 2.10686 0
M  V30 2013 H 191.881 -2.32841 1.03234 0
M  V30 2014 H 192.664 -2.13043 2.69198 0
M  V30 2015 N 195.109 -0.891671 -1.2995 0
M  V30 2016 C 196.339 -0.527893 -1.99742 0
M  V30 2017 C 196.747 0.88979 -1.66971 0
M  V30 2018 O 196.09 1.59766 -0.906667 0
M  V30 2019 C 196.152 -0.630804 -3.53922 0
M  V30 2020 C 195.816 -2.01401 -4.10228 0
M  V30 2021 C 196.813 -2.98422 -4.25724 0
M  V30 2022 C 194.498 -2.32121 -4.45449 0
M  V30 2023 C 196.492 -4.24293 -4.75662 0
M  V30 2024 C 194.179 -3.58237 -4.95086 0
M  V30 2025 C 195.177 -4.54137 -5.10146 0
M  V30 2026 O 194.865 -5.78014 -5.58708 0
M  V30 2027 H 194.597 -0.201953 -0.645129 0
M  V30 2028 H 197.151 -1.20076 -1.66646 0
M  V30 2029 H 195.381 0.0990616 -3.86573 0
M  V30 2030 H 197.07 -0.277338 -4.04951 0
M  V30 2031 H 197.836 -2.76001 -3.98809 0
M  V30 2032 H 193.715 -1.5824 -4.32991 0
M  V30 2033 H 197.259 -4.99153 -4.87332 0
M  V30 2034 H 193.156 -3.80491 -5.21437 0
M  V30 2035 H 193.924 -5.8049 -5.77039 0
M  V30 2036 N 196.587 1.43421 -0.653314 0
M  V30 2037 C 197.834 2.01812 -0.166745 0
M  V30 2038 C 198.162 1.51535 1.21931 0
M  V30 2039 O 197.417 0.698975 1.82792 0
M  V30 2040 C 197.716 3.57176 -0.126623 0
M  V30 2041 C 197.382 4.26798 -1.45444 0
M  V30 2042 C 196.044 4.45534 -1.81805 0
M  V30 2043 C 198.396 4.66225 -2.32989 0
M  V30 2044 C 195.724 5.00961 -3.05377 0
M  V30 2045 C 198.076 5.23021 -3.55853 0
M  V30 2046 C 196.74 5.39973 -3.9241 0
M  V30 2047 H 196.01 0.738484 -0.0610162 0
M  V30 2048 H 198.657 1.71896 -0.84404 0
M  V30 2049 H 196.962 3.86634 0.634123 0
M  V30 2050 H 198.659 4.00112 0.266723 0
M  V30 2051 H 195.249 4.12561 -1.16153 0
M  V30 2052 H 199.433 4.51443 -2.06187 0
M  V30 2053 H 194.689 5.12271 -3.3375 0
M  V30 2054 H 198.863 5.52518 -4.23907 0
M  V30 2055 H 196.49 5.82687 -4.88242 0
M  V30 2056 N 198.065 0.39524 1.52563 0
M  V30 2057 C 199.293 -0.184943 2.06072 0
M  V30 2058 C 199.708 -1.40021 1.26647 0
M  V30 2059 O 199.065 -1.79767 0.314672 0
M  V30 2060 C 199.116 -0.549179 3.57304 0
M  V30 2061 O 198.837 0.617813 4.33722 0
M  V30 2062 C 200.338 -1.18459 4.2718 0
M  V30 2063 H 197.558 -0.0265025 0.670476 0
M  V30 2064 H 200.102 0.562184 1.96621 0
M  V30 2065 H 198.257 -1.2462 3.66809 0
M  V30 2066 H 198.671 0.317091 5.23541 0
M  V30 2067 H 200.145 -1.38976 5.34219 0
M  V30 2068 H 200.622 -2.15368 3.82771 0
M  V30 2069 H 201.228 -0.528163 4.22008 0
M  V30 2070 N 199.544 -1.57102 0.125237 0
M  V30 2071 C 200.507 -2.14471 -0.80838 0
M  V30 2072 C 201.507 -1.0811 -1.19033 0
M  V30 2073 O 202.697 -1.33856 -1.11482 0
M  V30 2074 C 199.829 -2.69005 -2.09402 0
M  V30 2075 H 201.022 -2.98297 -0.309696 0
M  V30 2076 H 198.575 -1.55807 -0.124051 0
M  V30 2077 H 199.31 -1.88785 -2.63687 0
M  V30 2078 H 199.095 -3.46799 -1.82957 0
M  V30 2079 H 200.585 -3.13278 -2.76128 0
M  V30 2080 N 201.022 0.148545 -1.56898 0
M  V30 2081 C 202.252 0.875118 -1.8715 0
M  V30 2082 C 202.66 1.75322 -0.711262 0
M  V30 2083 O 202.003 1.80745 0.328151 0
M  V30 2084 C 202.065 1.7844 -3.12089 0
M  V30 2085 C 201.729 1.08361 -4.43967 0
M  V30 2086 C 202.726 0.438247 -5.1805 0
M  V30 2087 C 200.411 1.07358 -4.90693 0
M  V30 2088 C 202.405 -0.20779 -6.37061 0
M  V30 2089 C 200.092 0.42373 -6.09629 0
M  V30 2090 C 201.09 -0.215829 -6.82659 0
M  V30 2091 O 200.778 -0.855378 -7.99336 0
M  V30 2092 H 200.51 0.258504 -0.624621 0
M  V30 2093 H 203.064 0.14652 -2.04877 0
M  V30 2094 H 201.294 2.55389 -2.90367 0
M  V30 2095 H 202.983 2.38279 -3.286 0
M  V30 2096 H 203.749 0.437817 -4.8302 0
M  V30 2097 H 199.628 1.5608 -4.33774 0
M  V30 2098 H 203.172 -0.70758 -6.94002 0
M  V30 2099 H 199.069 0.421822 -6.4412 0
M  V30 2100 H 199.837 -0.756892 -8.14993 0
M  V30 2101 N 202.5 1.5196 0.417844 0
M  V30 2102 C 203.916 1.40569 0.755816 0
M  V30 2103 C 204.116 0.503316 1.95113 0
M  V30 2104 O 203.172 -0.0341925 2.52477 0
M  V30 2105 C 204.485 2.82947 1.01791 0
M  V30 2106 C 206.033 2.92231 1.12116 0
M  V30 2107 C 206.508 4.35559 1.41608 0
M  V30 2108 N 207.999 4.38753 1.48491 0
M  V30 2109 C 208.734 5.46705 1.7292 0
M  V30 2110 N 208.23 6.64788 1.95011 0
M  V30 2111 N 210.023 5.34209 1.74863 0
M  V30 2112 H 202.174 2.09168 -0.369098 0
M  V30 2113 H 204.437 0.942409 -0.102809 0
M  V30 2114 H 204.143 3.5106 0.212081 0
M  V30 2115 H 204.017 3.23462 1.94042 0
M  V30 2116 H 206.404 2.24304 1.9176 0
M  V30 2117 H 206.485 2.55185 0.177225 0
M  V30 2118 H 206.129 5.04042 0.624848 0
M  V30 2119 H 206.059 4.70133 2.37239 0
M  V30 2120 H 208.55 3.5363 1.33244 0
M  V30 2121 H 208.863 7.42845 2.13076 0
M  V30 2122 H 207.208 6.67869 1.92293 0
M  V30 2123 H 210.399 4.40937 1.57137 0
M  V30 2124 H 210.572 6.18415 1.93563 0
M  V30 2125 N 203.978 -0.674533 1.42435 0
M  V30 2126 C 204.941 -1.76986 1.45632 0
M  V30 2127 C 205.941 -1.5708 0.343871 0
M  V30 2128 O 207.131 -1.63367 0.604709 0
M  V30 2129 C 204.263 -3.15623 1.28822 0
M  V30 2130 H 205.456 -1.75539 2.43158 0
M  V30 2131 H 203.009 -0.884189 1.28887 0
M  V30 2132 H 203.744 -3.22696 0.322193 0
M  V30 2133 H 203.529 -3.31475 2.09444 0
M  V30 2134 H 205.019 -3.95537 1.33942 0
M  V30 2135 N 205.456 -1.28612 -0.910864 0
M  V30 2136 C 206.386 -1.15326 -2.03032 0
M  V30 2137 C 207.367 -0.0502924 -1.70026 0
M  V30 2138 O 208.552 -0.227797 -1.92859 0
M  V30 2139 C 205.682 -0.817343 -3.37545 0
M  V30 2140 C 204.636 -1.8754 -3.84724 0
M  V30 2141 C 203.962 -1.39305 -5.16235 0
M  V30 2142 C 205.262 -3.28244 -4.06267 0
M  V30 2143 H 206.956 -2.08975 -2.14406 0
M  V30 2144 H 204.502 -1.00612 -1.03021 0
M  V30 2145 H 206.455 -0.711151 -4.15356 0
M  V30 2146 H 205.179 0.154846 -3.26233 0
M  V30 2147 H 203.838 -1.97079 -3.09121 0
M  V30 2148 H 203.486 -0.409846 -5.01328 0
M  V30 2149 H 203.186 -2.10057 -5.48771 0
M  V30 2150 H 204.71 -1.30014 -5.96598 0
M  V30 2151 H 206.124 -3.21611 -4.74594 0
M  V30 2152 H 204.521 -3.96855 -4.5014 0
M  V30 2153 H 205.591 -3.72048 -3.10979 0
M  V30 2154 N 206.934 1.1197 -1.10907 0
M  V30 2155 C 208.183 1.82947 -0.849302 0
M  V30 2156 C 208.496 1.85275 0.627112 0
M  V30 2157 O 209.702 2.52296 1.00295 0
M  V30 2158 C 208.158 3.28529 -1.46959 0
M  V30 2159 C 207.766 3.34546 -2.97965 0
M  V30 2160 C 209.51 4.04443 -1.28942 0
M  V30 2161 C 207.417 4.74491 -3.53004 0
M  V30 2162 H 206.347 0.685477 -0.314065 0
M  V30 2163 H 208.998 1.2604 -1.33365 0
M  V30 2164 H 207.38 3.85333 -0.912917 0
M  V30 2165 H 208.554 2.87654 -3.59989 0
M  V30 2166 H 206.869 2.72108 -3.15192 0
M  V30 2167 H 209.466 5.07787 -1.67502 0
M  V30 2168 H 209.809 4.15656 -0.231456 0
M  V30 2169 H 210.342 3.5401 -1.81443 0
M  V30 2170 H 207.081 4.68474 -4.58489 0
M  V30 2171 H 206.601 5.21816 -2.9575 0
M  V30 2172 H 208.28 5.4344 -3.51115 0
M  V30 2173 N 208.412 0.89855 1.29475 0
M  V30 2174 C 209.362 0.346767 2.25348 0
M  V30 2175 C 210.346 -0.532509 1.51833 0
M  V30 2176 O 211.538 -0.374714 1.72988 0
M  V30 2177 C 208.667 -0.425681 3.40651 0
M  V30 2178 C 207.753 0.46845 4.21505 0
M  V30 2179 N 208.144 1.57514 4.80648 0
M  V30 2180 C 206.442 0.26603 4.45206 0
M  V30 2181 C 207.143 2.12889 5.41344 0
M  V30 2182 N 206.119 1.42208 5.24669 0
M  V30 2183 H 209.921 1.19219 2.68634 0
M  V30 2184 H 207.435 0.749473 1.44072 0
M  V30 2185 H 209.432 -0.837716 4.08397 0
M  V30 2186 H 208.092 -1.26838 2.98902 0
M  V30 2187 H 209.103 1.95789 4.79465 0
M  V30 2188 H 205.78 -0.538394 4.14014 0
M  V30 2189 H 207.17 3.05901 5.98226 0
M  V30 2190 N 209.89 -1.43072 0.660911 0
M  V30 2191 C 211.115 -2.06584 0.183805 0
M  V30 2192 C 211.54 -1.49257 -1.14472 0
M  V30 2193 O 210.898 -0.605528 -1.70889 0
M  V30 2194 C 210.946 -3.60418 0.114434 0
M  V30 2195 O 210.05 -4.01981 -0.921137 0
M  V30 2196 H 209.391 -0.656669 0.0983994 0
M  V30 2197 H 211.921 -1.83447 0.906006 0
M  V30 2198 H 211.931 -4.07946 -0.0663394 0
M  V30 2199 H 210.606 -4.01519 1.08422 0
M  V30 2200 H 209.183 -3.66029 -0.71253 0
M  V30 2201 N 211.368 -0.403325 -1.52352 0
M  V30 2202 C 212.331 0.413051 -2.25447 0
M  V30 2203 C 213.331 0.978513 -1.276 0
M  V30 2204 O 214.521 0.858305 -1.51587 0
M  V30 2205 C 211.653 1.58087 -3.02029 0
M  V30 2206 H 212.846 -0.227094 -2.99039 0
M  V30 2207 H 210.399 -0.155722 -1.55522 0
M  V30 2208 H 211.134 2.25804 -2.32772 0
M  V30 2209 H 210.919 1.18195 -3.73861 0
M  V30 2210 H 212.409 2.1585 -3.57489 0
M  V30 2211 N 212.846 1.57033 -0.133567 0
M  V30 2212 C 214.086 1.97575 0.523789 0
M  V30 2213 C 214.45 1.01605 1.62912 0
M  V30 2214 O 215.651 1.3114 2.3464 0
M  V30 2215 C 213.922 3.42256 1.02935 0
M  V30 2216 S 215.481 4.04817 1.69319 0
M  V30 2217 H 212.299 0.690427 0.169799 0
M  V30 2218 H 214.901 1.94234 -0.222101 0
M  V30 2219 H 213.605 4.09842 0.213917 0
M  V30 2220 H 213.136 3.4928 1.81017 0
M  V30 2221 H 215.151 3.96767 2.97977 0
M  V30 2222 N 214.325 -0.140222 1.56975 0
M  V30 2223 C 215.571 -0.852949 1.83991 0
M  V30 2224 C 215.904 -1.80512 0.716187 0
M  V30 2225 O 215.179 -1.92479 -0.279681 0
M  V30 2226 C 215.462 -1.6215 3.21527 0
M  V30 2227 C 215.315 -0.690363 4.4447 0
M  V30 2228 C 216.634 -2.58247 3.56366 0
M  V30 2229 H 213.753 -0.308634 0.669264 0
M  V30 2230 H 216.395 -0.117898 1.89634 0
M  V30 2231 H 214.545 -2.24812 3.16847 0
M  V30 2232 H 216.217 -0.0742264 4.6124 0
M  V30 2233 H 214.46 -0.000396433 4.338 0
M  V30 2234 H 215.131 -1.2643 5.37326 0
M  V30 2235 H 217.607 -2.05701 3.61699 0
M  V30 2236 H 216.483 -3.09067 4.53617 0
M  V30 2237 H 216.744 -3.39923 2.82674 0
M  V30 2238 N 215.803 -1.52179 -0.40978 0
M  V30 2239 C 216.75 -1.75475 -1.49924 0
M  V30 2240 C 217.72 -0.597175 -1.54994 0
M  V30 2241 O 218.905 -0.834655 -1.71575 0
M  V30 2242 C 216.045 -1.9107 -2.87378 0
M  V30 2243 C 215.158 -3.18717 -2.91622 0
M  V30 2244 C 214.293 -3.24747 -4.20372 0
M  V30 2245 C 213.332 -4.46598 -4.18588 0
M  V30 2246 N 212.469 -4.50025 -5.38908 0
M  V30 2247 H 217.309 -2.68458 -1.29361 0
M  V30 2248 H 214.846 -1.33024 -0.627934 0
M  V30 2249 H 216.804 -1.98096 -3.6717 0
M  V30 2250 H 215.434 -1.01469 -3.06437 0
M  V30 2251 H 214.486 -3.20866 -2.04326 0
M  V30 2252 H 215.798 -4.08544 -2.86169 0
M  V30 2253 H 214.952 -3.30841 -5.08556 0
M  V30 2254 H 213.691 -2.32857 -4.28519 0
M  V30 2255 H 212.696 -4.40652 -3.28794 0
M  V30 2256 H 213.921 -5.39783 -4.12081 0
M  V30 2257 H 211.867 -3.61017 -5.47725 0
M  V30 2258 H 211.784 -5.33697 -5.35447 0
M  V30 2259 H 213.052 -4.60347 -6.29048 0
M  V30 2260 N 217.281 0.66697 -1.42791 0
M  V30 2261 C 218.244 1.76211 -1.46568 0
M  V30 2262 C 219.244 1.56896 -0.352196 0
M  V30 2263 O 220.434 1.63044 -0.613364 0
M  V30 2264 C 217.566 3.14935 -1.30494 0
M  V30 2265 H 218.759 1.74247 -2.44086 0
M  V30 2266 H 216.312 0.877342 -1.29354 0
M  V30 2267 H 217.047 3.2252 -0.339301 0
M  V30 2268 H 216.832 3.30359 -2.11199 0
M  V30 2269 H 218.322 3.94821 -1.36038 0
M  V30 2270 N 218.759 1.29093 0.90403 0
M  V30 2271 C 220.007 1.16583 1.65085 0
M  V30 2272 C 220.328 -0.283933 1.92922 0
M  V30 2273 O 219.598 -1.19509 1.55224 0
M  V30 2274 H 218.178 0.428467 0.611903 0
M  V30 2275 H 220.84 1.61959 1.08422 0
M  V30 2276 H 219.936 1.71266 2.6091 0
M  V30 2277 N 220.237 -1.11381 1.11499 0
M  V30 2278 C 221.147 -2.21019 0.786628 0
M  V30 2279 C 222.163 -1.72597 -0.220507 0
M  V30 2280 O 223.339 -2.01321 -0.0565251 0
M  V30 2281 C 220.404 -3.459 0.235333 0
M  V30 2282 C 219.465 -4.09107 1.30115 0
M  V30 2283 C 218.698 -5.28027 0.776068 0
M  V30 2284 O 218.921 -5.6904 -0.393661 0
M  V30 2285 O 217.855 -5.81835 1.54114 0
M  V30 2286 H 221.681 -2.51521 1.70209 0
M  V30 2287 H 219.266 -1.19928 0.890928 0
M  V30 2288 H 221.148 -4.21346 -0.067715 0
M  V30 2289 H 219.823 -3.17049 -0.652828 0
M  V30 2290 H 218.73 -3.35391 1.65722 0
M  V30 2291 H 220.063 -4.42139 2.16273 0
M  V30 2292 N 221.715 -0.905404 -1.28997 0
M  V30 2293 C 222.94 -0.549175 -1.99997 0
M  V30 2294 C 223.365 0.860276 -1.67275 0
M  V30 2295 O 222.723 1.57355 -0.900502 0
M  V30 2296 C 222.771 -0.755185 -3.52604 0
M  V30 2297 O 221.875 0.189692 -4.11964 0
M  V30 2298 H 221.216 -0.213899 -0.628604 0
M  V30 2299 H 223.746 -1.21856 -1.64354 0
M  V30 2300 H 223.756 -0.662045 -4.02593 0
M  V30 2301 H 222.431 -1.78271 -3.75755 0
M  V30 2302 H 221.008 0.0485257 -3.72868 0
M  V30 2303 N 223.193 1.4272 -0.668489 0
M  V30 2304 C 224.439 2.01923 -0.188419 0
M  V30 2305 C 224.772 1.52704 1.19979 0
M  V30 2306 O 224.047 0.726566 1.8042 0
M  V30 2307 C 224.33 3.59451 -0.216085 0
M  V30 2308 C 224.183 4.18864 -1.6393 0
M  V30 2309 C 225.502 4.37903 0.439179 0
M  V30 2310 H 222.621 0.733674 -0.0699412 0
M  V30 2311 H 225.263 1.69822 -0.852076 0
M  V30 2312 H 223.413 3.86929 0.349012 0
M  V30 2313 H 225.085 4.02362 -2.25616 0
M  V30 2314 H 223.328 3.74933 -2.18193 0
M  V30 2315 H 223.999 5.27987 -1.61039 0
M  V30 2316 H 226.475 4.16079 -0.0417878 0
M  V30 2317 H 225.351 5.47519 0.389157 0
M  V30 2318 H 225.612 4.15303 1.51577 0
M  V30 2319 N 224.671 0.411399 1.52136 0
M  V30 2320 C 225.601 -0.404015 2.29978 0
M  V30 2321 C 226.582 -1.04412 1.34284 0
M  V30 2322 O 227.767 -1.0527 1.63192 0
M  V30 2323 C 224.897 -1.5197 3.12286 0
M  V30 2324 C 223.851 -1.00448 4.16046 0
M  V30 2325 C 223.177 -2.21393 4.86712 0
M  V30 2326 C 224.477 -0.0569336 5.22269 0
M  V30 2327 H 226.171 0.245529 2.98392 0
M  V30 2328 H 223.717 0.119525 1.43503 0
M  V30 2329 H 225.67 -2.09715 3.6551 0
M  V30 2330 H 224.394 -2.19716 2.41646 0
M  V30 2331 H 223.053 -0.449421 3.63835 0
M  V30 2332 H 222.701 -2.87699 4.12599 0
M  V30 2333 H 222.401 -1.87571 5.56858 0
M  V30 2334 H 223.925 -2.7974 5.4275 0
M  V30 2335 H 225.339 -0.54325 5.7072 0
M  V30 2336 H 223.736 0.192594 5.99791 0
M  V30 2337 H 224.806 0.887663 4.76706 0
M  V30 2338 N 226.149 -1.5696 0.141893 0
M  V30 2339 C 227.395 -1.9625 -0.511248 0
M  V30 2340 C 227.728 -1.02654 -1.64851 0
M  V30 2341 O 227.003 -0.0679676 -1.94381 0
M  V30 2342 C 227.286 -3.45285 -1.02227 0
M  V30 2343 C 227.139 -4.49658 0.113138 0
M  V30 2344 C 228.458 -3.96698 -1.90574 0
M  V30 2345 H 225.577 -0.713567 -0.184367 0
M  V30 2346 H 228.219 -1.88698 0.222087 0
M  V30 2347 H 226.369 -3.51852 -1.64719 0
M  V30 2348 H 228.041 -4.55174 0.749302 0
M  V30 2349 H 226.284 -4.26857 0.773026 0
M  V30 2350 H 226.955 -5.51258 -0.286053 0
M  V30 2351 H 229.431 -3.92578 -1.37918 0
M  V30 2352 H 228.307 -5.01453 -2.2324 0
M  V30 2353 H 228.568 -3.3875 -2.84079 0
M  V30 2354 N 227.627 0.131896 -1.57047 0
M  V30 2355 C 228.577 1.1679 -1.95816 0
M  V30 2356 C 229.561 1.37756 -0.831393 0
M  V30 2357 O 230.753 1.39065 -1.09499 0
M  V30 2358 C 227.882 2.49778 -2.35512 0
M  V30 2359 C 226.968 2.32342 -3.54793 0
M  V30 2360 N 227.359 1.8469 -4.70875 0
M  V30 2361 C 225.657 2.63043 -3.60173 0
M  V30 2362 C 226.358 1.80656 -5.52936 0
M  V30 2363 N 225.334 2.24528 -4.95064 0
M  V30 2364 H 229.136 0.791818 -2.83033 0
M  V30 2365 H 226.65 0.339791 -1.58805 0
M  V30 2366 H 228.647 3.24692 -2.61498 0
M  V30 2367 H 227.307 2.88156 -1.49654 0
M  V30 2368 H 228.318 1.54429 -4.9434 0
M  V30 2369 H 224.995 3.05193 -2.84892 0
M  V30 2370 H 226.385 1.45178 -6.56028 0
M  V30 2371 N 229.106 1.52395 0.401703 0
M  V30 2372 C 230.354 1.66488 1.14569 0
M  V30 2373 C 230.675 0.400897 1.90835 0
M  V30 2374 O 229.945 -0.584415 1.8698 0
M  V30 2375 H 228.525 0.613672 0.425929 0
M  V30 2376 H 231.187 1.89464 0.457093 0
M  V30 2377 H 230.283 2.50942 1.85566 0
M  V30 2378 N 230.584 -0.659388 1.43143 0
M  V30 2379 C 231.547 -1.75432 1.47501 0
M  V30 2380 C 232.547 -1.56707 0.360512 0
M  V30 2381 O 233.737 -1.62717 0.622002 0
M  V30 2382 C 230.869 -3.14239 1.32162 0
M  V30 2383 H 232.062 -1.7295 2.45006 0
M  V30 2384 H 229.615 -0.870469 1.29817 0
M  V30 2385 H 230.35 -3.22336 0.356401 0
M  V30 2386 H 230.135 -3.29235 2.12948 0
M  V30 2387 H 231.625 -3.94094 1.3813 0
M  V30 2388 N 232.062 -1.29571 -0.897171 0
M  V30 2389 C 233.287 -1.20705 -1.68656 0
M  V30 2390 C 233.712 0.228582 -1.86706 0
M  V30 2391 O 233.07 1.16494 -1.3892 0
M  V30 2392 C 233.118 -1.9282 -3.04717 0
M  V30 2393 O 232.222 -1.24697 -3.93096 0
M  V30 2394 H 231.563 -0.418126 -0.515816 0
M  V30 2395 H 234.093 -1.71183 -1.12061 0
M  V30 2396 H 234.103 -2.01372 -3.54843 0
M  V30 2397 H 232.778 -2.97239 -2.90899 0
M  V30 2398 H 231.355 -1.2442 -3.51531 0
M  V30 2399 N 233.54 1.10788 -1.12088 0
M  V30 2400 C 234.788 1.8231 -0.872205 0
M  V30 2401 C 235.109 1.85419 0.603709 0
M  V30 2402 O 234.379 1.32963 1.43867 0
M  V30 2403 H 232.959 0.675137 -0.319686 0
M  V30 2404 H 235.621 1.34068 -1.41463 0
M  V30 2405 H 234.717 2.85955 -1.25045 0
M  V30 2406 N 235.018 0.912232 1.28515 0
M  V30 2407 C 236.266 0.543523 1.94654 0
M  V30 2408 C 236.587 -0.9155 1.72173 0
M  V30 2409 O 235.857 -1.64708 1.06058 0
M  V30 2410 H 234.437 0.198017 0.720277 0
M  V30 2411 H 237.099 1.16126 1.56527 0
M  V30 2412 H 236.195 0.736684 3.03281 0
M  V30 2413 N 236.496 -1.42363 0.676048 0
M  V30 2414 C 237.742 -2.0182 0.199125 0
M  V30 2415 C 238.075 -1.53339 -1.19168 0
M  V30 2416 O 237.35 -0.736124 -1.80032 0
M  V30 2417 C 237.633 -3.59331 0.235144 0
M  V30 2418 C 237.486 -4.17989 1.66149 0
M  V30 2419 C 238.805 -4.3813 -0.41595 0
M  V30 2420 H 235.924 -0.733293 0.0738311 0
M  V30 2421 H 238.566 -1.69368 0.86107 0
M  V30 2422 H 236.716 -3.87109 -0.328487 0
M  V30 2423 H 238.388 -4.0116 2.27747 0
M  V30 2424 H 236.631 -3.7377 2.20178 0
M  V30 2425 H 237.302 -5.27126 1.63837 0
M  V30 2426 H 239.778 -4.16051 0.0638529 0
M  V30 2427 H 238.654 -5.47717 -0.360115 0
M  V30 2428 H 238.915 -4.16101 -1.49373 0
M  V30 2429 N 237.974 -0.419461 -1.51915 0
M  V30 2430 C 239.222 0.152637 -2.01523 0
M  V30 2431 C 239.543 1.44762 -1.30649 0
M  V30 2432 O 238.813 1.90997 -0.435535 0
M  V30 2433 H 237.393 0.0593966 -0.744635 0
M  V30 2434 H 240.055 -0.558073 -1.86739 0
M  V30 2435 H 239.151 0.341369 -3.10227 0
M  V30 2436 N 239.452 1.56882 -0.150215 0
M  V30 2437 C 240.382 2.19935 0.784284 0
M  V30 2438 C 241.363 1.14854 1.25469 0
M  V30 2439 O 242.548 1.43209 1.31168 0
M  V30 2440 C 239.678 2.82349 2.02229 0
M  V30 2441 C 238.632 3.93285 1.68853 0
M  V30 2442 C 237.958 4.42649 2.99944 0
M  V30 2443 C 239.258 5.13904 0.932714 0
M  V30 2444 H 240.952 2.9828 0.258781 0
M  V30 2445 H 238.498 1.43473 0.123029 0
M  V30 2446 H 240.451 3.25126 2.68088 0
M  V30 2447 H 239.175 2.0134 2.57157 0
M  V30 2448 H 237.834 3.5113 1.05371 0
M  V30 2449 H 237.482 3.58458 3.52869 0
M  V30 2450 H 237.182 5.17476 2.78374 0
M  V30 2451 H 238.706 4.88099 3.66868 0
M  V30 2452 H 240.12 5.53506 1.49345 0
M  V30 2453 H 238.517 5.94515 0.81684 0
M  V30 2454 H 239.587 4.84842 -0.0749568 0
M  V30 2455 N 240.93 -0.123565 1.57115 0
M  V30 2456 C 241.893 -1.13583 1.99076 0
M  V30 2457 C 242.893 -1.34564 0.880296 0
M  V30 2458 O 244.083 -1.31158 1.14644 0
M  V30 2459 C 241.215 -2.49128 2.32698 0
M  V30 2460 H 242.408 -0.775287 2.89706 0
M  V30 2461 H 239.961 -0.36771 1.51913 0
M  V30 2462 H 240.696 -2.90111 1.44934 0
M  V30 2463 H 240.481 -2.35255 3.13684 0
M  V30 2464 H 241.971 -3.2199 2.65918 0
M  V30 2465 N 242.408 -1.52605 -0.393616 0
M  V30 2466 C 243.371 -1.76415 -1.46323 0
M  V30 2467 C 244.371 -0.634126 -1.47768 0
M  V30 2468 O 245.561 -0.902142 -1.4902 0
M  V30 2469 C 242.693 -1.8607 -2.85641 0
M  V30 2470 H 243.886 -2.71916 -1.26498 0
M  V30 2471 H 241.439 -1.43257 -0.625073 0
M  V30 2472 H 242.174 -0.925378 -3.10817 0
M  V30 2473 H 241.959 -2.68235 -2.85993 0
M  V30 2474 H 243.449 -2.06179 -3.63153 0
M  V30 2475 N 243.887 0.651787 -1.4349 0
M  V30 2476 C 245.127 1.42345 -1.46688 0
M  V30 2477 C 245.491 1.91793 -0.0891023 0
M  V30 2478 O 246.692 2.688 0.00423594 0
M  V30 2479 C 244.963 2.57221 -2.48137 0
M  V30 2480 S 246.522 3.45725 -2.70221 0
M  V30 2481 H 243.34 0.485878 -0.51908 0
M  V30 2482 H 245.942 0.756578 -1.80267 0
M  V30 2483 H 244.646 2.1917 -3.46976 0
M  V30 2484 H 244.177 3.28757 -2.16061 0
M  V30 2485 H 246.192 4.53996 -2.00255 0
M  V30 2486 N 245.365 1.30045 0.890287 0
M  V30 2487 C 246.297 1.11786 2.00091 0
M  V30 2488 C 247.31 0.0626307 1.62679 0
M  V30 2489 O 248.499 0.308112 1.75821 0
M  V30 2490 C 245.599 0.681527 3.31977 0
M  V30 2491 C 244.772 1.81735 3.97858 0
M  V30 2492 C 243.831 1.37045 5.08041 0
M  V30 2493 O 242.857 2.07677 5.29961 0
M  V30 2494 N 244.059 0.246525 5.79976 0
M  V30 2495 H 246.824 2.07441 2.16306 0
M  V30 2496 H 244.385 1.2211 1.06305 0
M  V30 2497 H 246.377 0.365675 4.03045 0
M  V30 2498 H 244.947 -0.182828 3.12065 0
M  V30 2499 H 244.167 2.30159 3.20032 0
M  V30 2500 H 245.455 2.57865 4.38615 0
M  V30 2501 H 244.853 -0.34215 5.64664 0
M  V30 2502 H 243.41 -0.00990438 6.51799 0
M  V30 2503 N 246.843 -1.10192 1.12674 0
M  V30 2504 C 248.092 -1.81573 0.8783 0
M  V30 2505 C 248.405 -1.86249 -0.597557 0
M  V30 2506 O 249.611 -2.5386 -0.962681 0
M  V30 2507 C 248.067 -3.26149 1.52167 0
M  V30 2508 C 247.675 -3.29763 3.03249 0
M  V30 2509 C 249.419 -4.0234 1.3536 0
M  V30 2510 C 247.326 -4.68815 3.60508 0
M  V30 2511 H 246.256 -0.680394 0.324931 0
M  V30 2512 H 248.907 -1.23902 1.35353 0
M  V30 2513 H 247.289 -3.83832 0.974104 0
M  V30 2514 H 248.463 -2.8189 3.6452 0
M  V30 2515 H 246.778 -2.67059 3.19481 0
M  V30 2516 H 249.375 -5.05058 1.75559 0
M  V30 2517 H 249.718 -4.15235 0.297554 0
M  V30 2518 H 250.251 -3.51079 1.87052 0
M  V30 2519 H 246.99 -4.61121 4.65884 0
M  V30 2520 H 246.51 -5.17045 3.04014 0
M  V30 2521 H 248.189 -5.37785 3.59717 0
M  V30 2522 N 248.321 -0.919034 -1.28029 0
M  V30 2523 C 249.284 -0.416182 -2.2539 0
M  V30 2524 C 250.284 0.460438 -1.54067 0
M  V30 2525 O 251.474 0.262744 -1.72207 0
M  V30 2526 C 248.606 0.402707 -3.38513 0
M  V30 2527 H 249.799 -1.27629 -2.71387 0
M  V30 2528 H 247.352 -0.698919 -1.39803 0
M  V30 2529 H 248.087 1.282 -2.97885 0
M  V30 2530 H 247.872 -0.225698 -3.9145 0
M  V30 2531 H 249.362 0.745191 -4.10897 0
M  V30 2532 N 249.799 1.42003 -0.683588 0
M  V30 2533 C 251.215 1.55625 -0.353976 0
M  V30 2534 C 251.415 1.66151 1.14 0
M  V30 2535 O 250.471 1.63329 1.92561 0
M  V30 2536 C 251.784 2.80171 -1.092 0
M  V30 2537 C 253.332 2.93954 -1.07518 0
M  V30 2538 C 253.807 4.21372 -1.79471 0
M  V30 2539 N 255.298 4.28303 -1.76381 0
M  V30 2540 C 256.033 5.25729 -2.28904 0
M  V30 2541 N 255.529 6.29254 -2.89846 0
M  V30 2542 N 257.322 5.17586 -2.19228 0
M  V30 2543 H 249.473 1.33415 -1.6527 0
M  V30 2544 H 251.736 0.64282 -0.696769 0
M  V30 2545 H 251.442 2.78561 -2.14701 0
M  V30 2546 H 251.316 3.7133 -0.662862 0
M  V30 2547 H 253.703 2.95086 -0.028475 0
M  V30 2548 H 253.784 2.04002 -1.54328 0
M  V30 2549 H 253.428 4.21001 -2.84114 0
M  V30 2550 H 253.358 5.10275 -1.30104 0
M  V30 2551 H 255.849 3.54119 -1.31939 0
M  V30 2552 H 256.162 6.99964 -3.27522 0
M  V30 2553 H 254.507 6.29791 -2.93919 0
M  V30 2554 H 257.698 4.35631 -1.71299 0
M  V30 2555 H 257.871 5.93348 -2.60466 0
M  V30 2556 N 251.277 0.427512 1.51691 0
M  V30 2557 C 252.24 -0.377132 2.26076 0
M  V30 2558 C 253.24 -0.958089 1.29141 0
M  V30 2559 O 254.43 -0.83408 1.52934 0
M  V30 2560 C 251.562 -1.53262 3.04506 0
M  V30 2561 H 252.755 0.27464 2.9864 0
M  V30 2562 H 250.308 0.180445 1.55255 0
M  V30 2563 H 251.043 -2.22072 2.36335 0
M  V30 2564 H 250.828 -1.12232 3.75694 0
M  V30 2565 H 252.318 -2.10135 3.60878 0
M  V30 2566 N 252.755 -1.56801 0.158532 0
M  V30 2567 C 253.985 -2.00568 -0.495583 0
M  V30 2568 C 254.393 -1.03774 -1.58201 0
M  V30 2569 O 253.736 -0.0285797 -1.83678 0
M  V30 2570 C 253.798 -3.40768 -1.14532 0
M  V30 2571 C 253.462 -4.56553 -0.202101 0
M  V30 2572 C 254.459 -5.16714 0.574675 0
M  V30 2573 C 252.144 -5.02197 -0.101648 0
M  V30 2574 C 254.138 -6.20939 1.43924 0
M  V30 2575 C 251.825 -6.06274 0.766508 0
M  V30 2576 C 252.823 -6.65515 1.53555 0
M  V30 2577 O 252.511 -7.67575 2.38922 0
M  V30 2578 H 252.243 -0.662893 -0.13247 0
M  V30 2579 H 254.797 -2.03829 0.253559 0
M  V30 2580 H 253.027 -3.34381 -1.94233 0
M  V30 2581 H 254.716 -3.6857 -1.70033 0
M  V30 2582 H 255.482 -4.82341 0.507167 0
M  V30 2583 H 251.361 -4.55807 -0.689994 0
M  V30 2584 H 254.905 -6.67107 2.03996 0
M  V30 2585 H 250.802 -6.40073 0.835266 0
M  V30 2586 H 251.57 -7.84844 2.32296 0
M  V30 2587 N 254.233 0.115231 -1.57178 0
M  V30 2588 C 255.481 0.820727 -1.84685 0
M  V30 2589 C 255.802 1.80237 -0.744279 0
M  V30 2590 O 255.072 1.94529 0.231375 0
M  V30 2591 H 253.652 0.306084 -0.681411 0
M  V30 2592 H 256.314 0.101656 -1.94635 0
M  V30 2593 H 255.41 1.36366 -2.80733 0
M  V30 2594 N 255.711 1.52812 0.385517 0
M  V30 2595 C 256.641 1.80808 1.47752 0
M  V30 2596 C 257.622 0.660318 1.5676 0
M  V30 2597 O 258.807 0.908246 1.71652 0
M  V30 2598 C 255.937 1.98008 2.85324 0
M  V30 2599 C 254.891 3.13709 2.91154 0
M  V30 2600 C 254.217 3.16169 4.31209 0
M  V30 2601 C 255.517 4.52709 2.60483 0
M  V30 2602 H 257.211 2.72253 1.24573 0
M  V30 2603 H 254.757 1.31003 0.597839 0
M  V30 2604 H 256.71 2.16176 3.61726 0
M  V30 2605 H 255.434 1.03255 3.09848 0
M  V30 2606 H 254.093 2.95329 2.17201 0
M  V30 2607 H 253.741 2.19092 4.52778 0
M  V30 2608 H 253.441 3.93894 4.36029 0
M  V30 2609 H 254.965 3.36496 5.09512 0
M  V30 2610 H 256.379 4.71173 3.26602 0
M  V30 2611 H 254.776 5.32528 2.76648 0
M  V30 2612 H 255.846 4.59186 1.55809 0
M  V30 2613 N 257.189 -0.644168 1.43834 0
M  V30 2614 C 258.136 -1.75671 1.49694 0
M  V30 2615 C 259.106 -1.6246 0.345809 0
M  V30 2616 O 260.291 -1.82573 0.554234 0
M  V30 2617 C 257.431 -3.13867 1.43463 0
M  V30 2618 C 256.544 -3.38147 2.6885 0
M  V30 2619 C 255.679 -4.66241 2.54544 0
M  V30 2620 C 254.718 -4.83657 3.75157 0
M  V30 2621 N 253.855 -6.03016 3.59605 0
M  V30 2622 H 258.695 -1.69998 2.44754 0
M  V30 2623 H 256.232 -0.829458 1.21484 0
M  V30 2624 H 258.19 -3.9377 1.37843 0
M  V30 2625 H 256.82 -3.18588 0.519783 0
M  V30 2626 H 255.872 -2.52276 2.84712 0
M  V30 2627 H 257.184 -3.46899 3.58417 0
M  V30 2628 H 256.338 -5.54285 2.46683 0
M  V30 2629 H 255.077 -4.59826 1.62516 0
M  V30 2630 H 254.082 -3.94046 3.83416 0
M  V30 2631 H 255.307 -4.91896 4.68204 0
M  V30 2632 H 253.253 -5.97715 2.7032 0
M  V30 2633 H 253.17 -6.12766 4.42779 0
M  V30 2634 H 254.438 -6.93657 3.55613 0
M  V30 2635 N 258.668 -1.30515 -0.883378 0
M  V30 2636 C 259.917 -1.18795 -1.63005 0
M  V30 2637 C 260.23 0.255923 -1.93919 0
M  V30 2638 O 261.436 0.494654 -2.66956 0
M  V30 2639 C 259.892 -2.07878 -2.93794 0
M  V30 2640 C 259.5 -3.57184 -2.70414 0
M  V30 2641 C 261.244 -2.04924 -3.71761 0
M  V30 2642 C 259.151 -4.38317 -3.97029 0
M  V30 2643 H 258.081 -0.441031 -0.611562 0
M  V30 2644 H 260.732 -1.55275 -0.977854 0
M  V30 2645 H 259.114 -1.64283 -3.60315 0
M  V30 2646 H 260.288 -4.08937 -2.12384 0
M  V30 2647 H 258.603 -3.61976 -2.0582 0
M  V30 2648 H 261.2 -2.62792 -4.65665 0
M  V30 2649 H 261.543 -1.0331 -4.03277 0
M  V30 2650 H 262.076 -2.46649 -3.12104 0
M  V30 2651 H 258.815 -5.40632 -3.70671 0
M  V30 2652 H 258.335 -3.91326 -4.54559 0
M  V30 2653 H 260.014 -4.49834 -4.65036 0
M  V30 2654 N 260.146 1.09593 -1.13257 0
M  V30 2655 C 261.076 2.18214 -0.830946 0
M  V30 2656 C 262.057 1.68812 0.208966 0
M  V30 2657 O 263.242 1.9408 0.0682666 0
M  V30 2658 C 260.372 3.46051 -0.294296 0
M  V30 2659 C 259.326 4.08778 -1.26826 0
M  V30 2660 C 258.652 5.31419 -0.591449 0
M  V30 2661 C 259.952 4.51476 -2.62615 0
M  V30 2662 H 261.646 2.43703 -1.73923 0
M  V30 2663 H 259.192 1.17128 -0.837675 0
M  V30 2664 H 261.145 4.2134 -0.0709606 0
M  V30 2665 H 259.869 3.20079 0.649366 0
M  V30 2666 H 258.528 3.35505 -1.47756 0
M  V30 2667 H 258.176 5.01727 0.357633 0
M  V30 2668 H 257.876 5.74341 -1.24123 0
M  V30 2669 H 259.4 6.09433 -0.377355 0
M  V30 2670 H 260.814 5.17999 -2.45663 0
M  V30 2671 H 259.211 5.05277 -3.23752 0
M  V30 2672 H 260.281 3.63962 -3.20406 0
M  V30 2673 N 261.624 0.925811 1.2754 0
M  V30 2674 C 262.872 0.564138 1.94067 0
M  V30 2675 C 263.193 -0.897188 1.73134 0
M  V30 2676 O 262.463 -1.63573 1.07799 0
M  V30 2677 H 261.043 0.205645 0.718136 0
M  V30 2678 H 263.705 1.1778 1.55287 0
M  V30 2679 H 262.801 0.76881 3.02483 0
M  V30 2680 N 263.102 -1.41638 0.69111 0
M  V30 2681 C 264.33 -2.05628 0.22909 0
M  V30 2682 C 264.745 -1.51992 -1.11999 0
M  V30 2683 O 264.102 -0.666322 -1.69901 0
M  V30 2684 C 264.153 -3.61084 0.173283 0
M  V30 2685 O 263.874 -4.12735 1.46907 0
M  V30 2686 C 265.375 -4.42213 -0.310266 0
M  V30 2687 H 262.595 -0.662327 0.107534 0
M  V30 2688 H 265.139 -1.81489 0.942438 0
M  V30 2689 H 263.294 -3.84278 -0.490858 0
M  V30 2690 H 263.708 -5.06743 1.35322 0
M  V30 2691 H 265.182 -5.51194 -0.298196 0
M  V30 2692 H 265.659 -4.1799 -1.34838 0
M  V30 2693 H 266.265 -4.24074 0.322716 0
M  V30 2694 N 264.58 -0.43555 -1.51462 0
M  V30 2695 C 265.543 0.365137 -2.26273 0
M  V30 2696 C 266.543 0.951227 -1.29647 0
M  V30 2697 O 267.733 0.825958 -1.53374 0
M  V30 2698 C 264.865 1.51645 -3.05314 0
M  V30 2699 H 266.058 -0.290474 -2.9849 0
M  V30 2700 H 263.611 -0.188676 -1.55157 0
M  V30 2701 H 264.346 2.20816 -2.3751 0
M  V30 2702 H 264.131 1.10238 -3.76284 0
M  V30 2703 H 265.621 2.08218 -3.61987 0
M  V30 2704 N 266.058 1.56714 -0.166846 0
M  V30 2705 C 267.306 1.96358 0.478305 0
M  V30 2706 C 267.627 1.0537 1.6408 0
M  V30 2707 O 266.897 0.119154 1.95537 0
M  V30 2708 H 265.477 0.725065 0.179692 0
M  V30 2709 H 268.139 1.93329 -0.246985 0
M  V30 2710 H 267.235 3.00547 0.841292 0
M  V30 2711 N 267.536 -0.106894 1.57237 0
M  V30 2712 C 268.764 -0.826389 1.8968 0
M  V30 2713 C 269.179 -1.72856 0.759353 0
M  V30 2714 O 268.536 -1.80503 -0.269263 0
M  V30 2715 C 268.587 -1.64967 3.21665 0
M  V30 2716 O 268.308 -0.783804 4.31031 0
M  V30 2717 C 269.809 -2.47326 3.67892 0
M  V30 2718 H 267.029 -0.236927 0.627779 0
M  V30 2719 H 269.573 -0.0876593 2.04312 0
M  V30 2720 H 267.728 -2.34103 3.08666 0
M  V30 2721 H 268.142 -1.35284 5.06753 0
M  V30 2722 H 269.616 -3.00604 4.6297 0
M  V30 2723 H 270.093 -3.25247 2.95146 0
M  V30 2724 H 270.699 -1.83411 3.83719 0
M  V30 2725 N 269.014 -1.53014 -0.377408 0
M  V30 2726 C 269.924 -1.81557 -1.48574 0
M  V30 2727 C 270.94 -0.703102 -1.59162 0
M  V30 2728 O 272.116 -0.99192 -1.75279 0
M  V30 2729 C 269.181 -1.9889 -2.83978 0
M  V30 2730 C 268.242 -3.22801 -2.83016 0
M  V30 2731 C 267.475 -3.39298 -4.11962 0
M  V30 2732 O 267.698 -2.60345 -5.0752 0
M  V30 2733 O 266.632 -4.32604 -4.18494 0
M  V30 2734 H 270.458 -2.75695 -1.27382 0
M  V30 2735 H 268.043 -1.38248 -0.566373 0
M  V30 2736 H 269.925 -2.11931 -3.6423 0
M  V30 2737 H 268.6 -1.07942 -3.05172 0
M  V30 2738 H 267.507 -3.15193 -2.01505 0
M  V30 2739 H 268.84 -4.13632 -2.66775 0
M  V30 2740 N 270.492 0.636531 -1.44174 0
M  V30 2741 C 271.402 1.77754 -1.53103 0
M  V30 2742 C 272.418 1.68928 -0.417034 0
M  V30 2743 O 273.594 1.89801 -0.6736 0
M  V30 2744 C 270.659 3.14115 -1.46741 0
M  V30 2745 C 269.72 3.34612 -2.68948 0
M  V30 2746 C 268.953 4.64467 -2.6288 0
M  V30 2747 O 269.176 5.44919 -1.68581 0
M  V30 2748 O 268.11 4.87049 -3.53648 0
M  V30 2749 H 271.936 1.73174 -2.49489 0
M  V30 2750 H 269.521 0.79709 -1.2636 0
M  V30 2751 H 271.403 3.95412 -1.45696 0
M  V30 2752 H 270.078 3.19249 -0.534975 0
M  V30 2753 H 268.985 2.53014 -2.75562 0
M  V30 2754 H 270.318 3.34336 -3.61221 0
M  V30 2755 N 271.97 1.30982 0.876444 0
M  V30 2756 C 273.218 1.20058 1.62575 0
M  V30 2757 C 273.539 -0.242947 1.93481 0
M  V30 2758 O 272.809 -1.1619 1.57724 0
M  V30 2759 H 271.389 0.44135 0.602677 0
M  V30 2760 H 274.051 1.64222 1.04962 0
M  V30 2761 H 273.147 1.76762 2.57219 0
M  V30 2762 N 273.449 -1.08991 1.13837 0
M  V30 2763 C 274.381 -2.15606 0.777612 0
M  V30 2764 C 275.394 -1.61533 -0.202739 0
M  V30 2765 O 276.583 -1.78491 0.0181055 0
M  V30 2766 C 273.683 -3.3864 0.132623 0
M  V30 2767 C 272.856 -4.22115 1.1462 0
M  V30 2768 C 271.915 -5.23564 0.526074 0
M  V30 2769 O 270.941 -5.56678 1.18735 0
M  V30 2770 N 272.143 -5.76266 -0.699866 0
M  V30 2771 H 274.908 -2.47159 1.69506 0
M  V30 2772 H 272.469 -1.24747 1.03198 0
M  V30 2773 H 274.461 -4.03626 -0.29459 0
M  V30 2774 H 273.031 -3.04938 -0.687849 0
M  V30 2775 H 272.251 -3.53199 1.75055 0
M  V30 2776 H 273.539 -4.74709 1.83109 0
M  V30 2777 H 272.937 -5.51585 -1.25581 0
M  V30 2778 H 271.494 -6.42963 -1.06968 0
M  V30 2779 N 274.927 -0.932562 -1.27047 0
M  V30 2780 C 275.874 -0.434072 -2.26681 0
M  V30 2781 C 276.844 0.501639 -1.58344 0
M  V30 2782 O 278.029 0.419734 -1.86126 0
M  V30 2783 C 275.169 0.30261 -3.43771 0
M  V30 2784 C 274.282 -0.667774 -4.26808 0
M  V30 2785 C 273.417 0.0892393 -5.31125 0
M  V30 2786 C 272.456 -0.873532 -6.05835 0
M  V30 2787 N 271.593 -0.148832 -7.01942 0
M  V30 2788 H 276.433 -1.28868 -2.68695 0
M  V30 2789 H 273.97 -0.646713 -1.32121 0
M  V30 2790 H 275.928 0.746092 -4.10474 0
M  V30 2791 H 274.558 1.12142 -3.02695 0
M  V30 2792 H 273.61 -1.22978 -3.59973 0
M  V30 2793 H 274.922 -1.40337 -4.78651 0
M  V30 2794 H 274.076 0.592409 -6.03801 0
M  V30 2795 H 272.815 0.85777 -4.80097 0
M  V30 2796 H 271.82 -1.38791 -5.31994 0
M  V30 2797 H 273.045 -1.64193 -6.58952 0
M  V30 2798 H 270.991 0.601365 -6.53238 0
M  V30 2799 H 270.908 -0.82391 -7.51497 0
M  V30 2800 H 272.176 0.333527 -7.78786 0
M  V30 2801 N 276.405 1.4127 -0.698611 0
M  V30 2802 C 277.654 2.00408 -0.227949 0
M  V30 2803 C 277.967 1.55981 1.18023 0
M  V30 2804 O 279.173 2.07699 1.74852 0
M  V30 2805 C 277.629 3.58129 -0.356636 0
M  V30 2806 C 277.237 4.11536 -1.77037 0
M  V30 2807 C 278.981 4.24466 0.0540969 0
M  V30 2808 C 276.888 5.61701 -1.85055 0
M  V30 2809 H 275.818 0.749586 -0.0814657 0
M  V30 2810 H 278.469 1.61713 -0.867249 0
M  V30 2811 H 276.851 3.94442 0.350965 0
M  V30 2812 H 278.025 3.86636 -2.50698 0
M  V30 2813 H 276.34 3.57736 -2.13105 0
M  V30 2814 H 278.937 5.34698 0.0146723 0
M  V30 2815 H 279.28 4.01687 1.09332 0
M  V30 2816 H 279.813 3.93198 -0.603337 0
M  V30 2817 H 276.552 5.89312 -2.8704 0
M  V30 2818 H 276.072 5.88519 -1.15783 0
M  V30 2819 H 277.751 6.26524 -1.61484 0
M  V30 2820 N 277.883 0.443576 1.51229 0
M  V30 2821 C 279.129 -0.120975 2.02439 0
M  V30 2822 C 279.462 -1.41815 1.32674 0
M  V30 2823 O 278.737 -1.89373 0.443622 0
M  V30 2824 C 279.02 -0.333291 3.58554 0
M  V30 2825 C 278.873 0.982968 4.38928 0
M  V30 2826 C 280.192 -1.10028 4.26124 0
M  V30 2827 H 277.311 -0.0424923 0.735774 0
M  V30 2828 H 279.953 0.583794 1.80809 0
M  V30 2829 H 278.103 -0.933614 3.77115 0
M  V30 2830 H 279.775 1.61775 4.32003 0
M  V30 2831 H 278.018 1.58611 4.03763 0
M  V30 2832 H 278.689 0.788379 5.46341 0
M  V30 2833 H 281.165 -0.591711 4.11871 0
M  V30 2834 H 280.041 -1.21761 5.35225 0
M  V30 2835 H 280.302 -2.12996 3.87408 0
M  V30 2836 N 279.361 -1.56624 0.175154 0
M  V30 2837 C 280.291 -2.21155 -0.749195 0
M  V30 2838 C 281.272 -1.16836 -1.23626 0
M  V30 2839 O 282.457 -1.45277 -1.28873 0
M  V30 2840 C 279.587 -2.8553 -1.97711 0
M  V30 2841 C 278.541 -3.95921 -1.62575 0
M  V30 2842 C 277.867 -4.47365 -2.92864 0
M  V30 2843 C 279.167 -5.15323 -0.850838 0
M  V30 2844 H 280.861 -2.98653 -0.211295 0
M  V30 2845 H 278.407 -1.43651 -0.100188 0
M  V30 2846 H 280.36 -3.2935 -2.62881 0
M  V30 2847 H 279.084 -2.05406 -2.53921 0
M  V30 2848 H 277.743 -3.52762 -0.997719 0
M  V30 2849 H 277.391 -3.64027 -3.47122 0
M  V30 2850 H 277.091 -5.21839 -2.70106 0
M  V30 2851 H 278.615 -4.93873 -3.59056 0
M  V30 2852 H 280.029 -5.55812 -1.40521 0
M  V30 2853 H 278.426 -5.95739 -0.722154 0
M  V30 2854 H 279.496 -4.84661 0.152082 0
M  V30 2855 N 280.839 0.0985539 -1.57292 0
M  V30 2856 C 281.771 1.14595 -1.98496 0
M  V30 2857 C 282.784 1.36512 -0.887031 0
M  V30 2858 O 283.973 1.35225 -1.16518 0
M  V30 2859 C 281.073 2.50216 -2.28572 0
M  V30 2860 C 280.246 2.48624 -3.59868 0
M  V30 2861 C 279.305 3.66146 -3.7792 0
M  V30 2862 O 278.331 3.48795 -4.49812 0
M  V30 2863 N 279.533 4.85496 -3.18235 0
M  V30 2864 H 282.298 0.795277 -2.88956 0
M  V30 2865 H 279.859 0.287579 -1.59325 0
M  V30 2866 H 281.851 3.27432 -2.37845 0
M  V30 2867 H 280.421 2.77387 -1.44136 0
M  V30 2868 H 279.641 1.56978 -3.61596 0
M  V30 2869 H 280.929 2.44635 -4.46129 0
M  V30 2870 H 280.327 5.02497 -2.59833 0
M  V30 2871 H 278.884 5.60317 -3.32999 0
M  V30 2872 N 282.317 1.53212 0.369288 0
M  V30 2873 C 283.265 1.80054 1.47253 0
M  V30 2874 C 284.259 0.669456 1.55611 0
M  V30 2875 O 285.465 0.852328 1.58541 0
M  V30 2876 H 281.84 0.570034 0.490475 0
M  V30 2877 H 283.811 2.72403 1.21817 0
M  V30 2878 C 282.56 2.00403 2.84137 0
M  V30 2879 H 281.883 2.86876 2.78464 0
M  V30 2880 H 283.323 2.23164 3.60519 0
M  V30 2881 C 281.782 0.782081 3.27697 0
M  V30 2882 O 282.312 -0.0310205 4.01688 0
M  V30 2883 N 280.518 0.606573 2.84199 0
M  V30 2884 H 280.065 1.26939 2.24152 0
M  V30 2885 H 280.023 -0.20962 3.137 0
M  V30 2886 N 283.795 -0.628877 1.44509 0
M  V30 2887 C 285.043 -1.38565 1.4712 0
M  V30 2888 C 285.364 -1.94712 0.105899 0
M  V30 2889 O 284.634 -1.75912 -0.862079 0
M  V30 2890 H 283.214 -0.514333 0.541729 0
M  V30 2891 H 285.876 -0.740018 1.80305 0
M  V30 2892 H 284.972 -2.21583 2.19789 0
M  V30 2893 N 285.273 -1.31445 -0.869486 0
M  V30 2894 C 286.236 -1.19094 -1.9583 0
M  V30 2895 C 287.236 -0.117906 -1.60367 0
M  V30 2896 O 288.426 -0.367208 -1.70286 0
M  V30 2897 C 285.558 -0.828165 -3.30688 0
M  V30 2898 H 286.751 -2.15842 -2.08212 0
M  V30 2899 H 284.304 -1.15063 -1.05784 0
M  V30 2900 H 285.039 0.138142 -3.24006 0
M  V30 2901 H 284.824 -1.6038 -3.578 0
M  V30 2902 H 286.314 -0.765658 -4.10521 0
M  V30 2903 N 286.751 1.08385 -1.14413 0
M  V30 2904 C 287.701 2.13509 -0.79987 0
M  V30 2905 C 288.685 1.5951 0.211059 0
M  V30 2906 O 289.877 1.76995 0.0133694 0
M  V30 2907 C 287.006 3.42162 -0.279297 0
M  V30 2908 C 286.092 4.03042 -1.31976 0
M  V30 2909 N 286.483 4.38327 -2.52395 0
M  V30 2910 C 284.781 4.30379 -1.17004 0
M  V30 2911 C 285.482 4.86428 -3.19003 0
M  V30 2912 N 284.458 4.84547 -2.46405 0
M  V30 2913 H 288.26 2.38609 -1.7159 0
M  V30 2914 H 285.774 1.2572 -1.02802 0
M  V30 2915 H 287.771 4.16898 -0.0143688 0
M  V30 2916 H 286.431 3.18511 0.630923 0
M  V30 2917 H 287.442 4.29349 -2.89621 0
M  V30 2918 H 284.119 4.16281 -0.318854 0
M  V30 2919 H 285.509 5.23107 -4.21674 0
M  V30 2920 N 288.23 0.939286 1.26551 0
M  V30 2921 C 289.14 0.453432 2.30176 0
M  V30 2922 C 290.156 -0.471649 1.67486 0
M  V30 2923 O 291.332 -0.35164 1.98306 0
M  V30 2924 C 288.397 -0.275326 3.45605 0
M  V30 2925 C 287.458 0.686084 4.23782 0
M  V30 2926 C 286.691 -0.00798994 5.33699 0
M  V30 2927 O 286.914 -1.22528 5.57085 0
M  V30 2928 O 285.848 0.669746 5.98162 0
M  V30 2929 H 289.674 1.31416 2.73795 0
M  V30 2930 H 287.259 0.705095 1.31715 0
M  V30 2931 H 289.141 -0.685911 4.1578 0
M  V30 2932 H 287.816 -1.11147 3.0402 0
M  V30 2933 H 286.723 1.14658 3.56096 0
M  V30 2934 H 288.056 1.48979 4.69112 0
M  V30 2935 N 289.708 -1.40897 0.706093 0
M  V30 2936 C 290.954 -2.01352 0.241889 0
M  V30 2937 C 291.287 -1.55832 -1.15888 0
M  V30 2938 O 290.562 -0.774145 -1.7843 0
M  V30 2939 C 290.845 -3.58752 0.311311 0
M  V30 2940 C 290.698 -4.1437 1.74978 0
M  V30 2941 C 292.017 -4.38914 -0.322922 0
M  V30 2942 H 289.136 -0.731562 0.0893687 0
M  V30 2943 H 291.778 -1.67504 0.896802 0
M  V30 2944 H 289.928 -3.87718 -0.246302 0
M  V30 2945 H 291.6 -3.96239 2.36205 0
M  V30 2946 H 289.843 -3.69016 2.28057 0
M  V30 2947 H 290.514 -5.23532 1.74981 0
M  V30 2948 H 292.99 -4.15822 0.152089 0
M  V30 2949 H 291.866 -5.48358 -0.243855 0
M  V30 2950 H 292.127 -4.19176 -1.40513 0
M  V30 2951 N 291.186 -0.45159 -1.50991 0
M  V30 2952 C 292.433 0.110074 -2.02201 0
M  V30 2953 C 292.761 1.4146 -1.33489 0
M  V30 2954 O 292.016 1.90617 -0.443125 0
M  V30 2955 C 292.315 0.361728 -3.55565 0
M  V30 2956 C 291.981 -0.858717 -4.42648 0
M  V30 2957 C 290.643 -1.19338 -4.66167 0
M  V30 2958 C 292.995 -1.67221 -4.93646 0
M  V30 2959 C 290.323 -2.34195 -5.37931 0
M  V30 2960 C 292.675 -2.8119 -5.6667 0
M  V30 2961 C 291.339 -3.15094 -5.88449 0
M  V30 2962 H 290.609 0.040279 -0.739904 0
M  V30 2963 H 293.256 -0.601696 -1.81802 0
M  V30 2964 H 291.561 1.15554 -3.74372 0
M  V30 2965 H 293.258 0.80996 -3.92735 0
M  V30 2966 H 289.848 -0.58796 -4.24548 0
M  V30 2967 H 294.032 -1.42686 -4.75347 0
M  V30 2968 H 289.288 -2.6076 -5.53005 0
M  V30 2969 H 293.462 -3.44585 -6.05173 0
M  V30 2970 H 291.089 -4.04204 -6.43835 0
M  V30 2971 N 292.664 1.56529 -0.183458 0
M  V30 2972 C 293.612 2.19873 0.758845 0
M  V30 2973 C 294.606 1.16638 1.22849 0
M  V30 2974 O 295.812 1.3481 1.19274 0
M  V30 2975 H 292.187 0.7045 0.263029 0
M  V30 2976 H 294.158 2.97724 0.200755 0
M  V30 2977 C 292.907 2.86314 1.9728 0
M  V30 2978 H 292.23 3.65487 1.62047 0
M  V30 2979 H 293.67 3.3409 2.61075 0
M  V30 2980 C 292.129 1.86729 2.80418 0
M  V30 2981 O 292.659 1.36031 3.77966 0
M  V30 2982 N 290.865 1.55216 2.45675 0
M  V30 2983 H 290.412 1.96636 1.66409 0
M  V30 2984 H 290.37 0.888388 3.01588 0
M  V30 2985 N 294.142 -0.090211 1.57342 0
M  V30 2986 C 295.092 -1.11557 1.98844 0
M  V30 2987 C 296.076 -1.35503 0.867624 0
M  V30 2988 O 297.268 -1.36113 1.13148 0
M  V30 2989 C 294.397 -2.43446 2.42051 0
M  V30 2990 C 293.483 -2.22853 3.60828 0
M  V30 2991 N 293.874 -1.72141 4.75606 0
M  V30 2992 C 292.172 -2.53401 3.67021 0
M  V30 2993 C 292.873 -1.65932 5.57531 0
M  V30 2994 N 291.849 -2.11323 5.00843 0
M  V30 2995 H 295.651 -0.716499 2.85032 0
M  V30 2996 H 293.165 -0.297567 1.59651 0
M  V30 2997 H 295.162 -3.17644 2.70014 0
M  V30 2998 H 293.822 -2.84087 1.57241 0
M  V30 2999 H 294.833 -1.41268 4.98261 0
M  V30 3000 H 291.51 -2.97532 2.92884 0
M  V30 3001 H 292.9 -1.27733 6.59647 0
M  V30 3002 N 295.62 -1.53406 -0.361157 0
M  V30 3003 C 297.036 -1.43277 -0.703124 0
M  V30 3004 C 297.236 -0.575384 -1.9311 0
M  V30 3005 O 296.292 -0.0595362 -2.5243 0
M  V30 3006 C 297.605 -2.8653 -0.9122 0
M  V30 3007 C 299.153 -2.96191 -1.01193 0
M  V30 3008 C 299.628 -4.40514 -1.25345 0
M  V30 3009 N 301.119 -4.43962 -1.32105 0
M  V30 3010 C 301.854 -5.52746 -1.5251 0
M  V30 3011 N 301.35 -6.71567 -1.70203 0
M  V30 3012 N 303.143 -5.40331 -1.54916 0
M  V30 3013 H 295.294 -2.07654 0.446475 0
M  V30 3014 H 297.557 -0.937944 0.137715 0
M  V30 3015 H 297.263 -3.51605 -0.0816414 0
M  V30 3016 H 297.137 -3.30441 -1.81903 0
M  V30 3017 H 299.524 -2.31266 -1.83303 0
M  V30 3018 H 299.605 -2.55667 -0.0823929 0
M  V30 3019 H 299.249 -5.06014 -0.437346 0
M  V30 3020 H 299.179 -4.78614 -2.19627 0
M  V30 3021 H 301.67 -3.58332 -1.20028 0
M  V30 3022 H 301.983 -7.50241 -1.85359 0
M  V30 3023 H 300.328 -6.74545 -1.67373 0
M  V30 3024 H 303.519 -4.46465 -1.40663 0
M  V30 3025 H 303.692 -6.25173 -1.70477 0
M  V30 3026 N 297.098 0.621204 -1.44841 0
M  V30 3027 C 298.008 1.7612 -1.5498 0
M  V30 3028 C 299.024 1.68477 -0.434927 0
M  V30 3029 O 300.2 1.89076 -0.693693 0
M  V30 3030 C 297.265 3.1254 -1.50065 0
M  V30 3031 C 296.326 3.31741 -2.72482 0
M  V30 3032 C 295.559 4.61653 -2.67792 0
M  V30 3033 O 295.782 5.431 -1.74352 0
M  V30 3034 O 294.716 4.83271 -3.58794 0
M  V30 3035 H 298.542 1.70518 -2.51311 0
M  V30 3036 H 296.127 0.783643 -1.27198 0
M  V30 3037 H 298.009 3.93844 -1.49882 0
M  V30 3038 H 296.684 3.18663 -0.568806 0
M  V30 3039 H 295.591 2.50077 -2.7823 0
M  V30 3040 H 296.924 3.30486 -3.64746 0
M  V30 3041 N 298.576 1.31904 0.862503 0
M  V30 3042 C 299.822 1.22197 1.61851 0
M  V30 3043 C 300.155 -0.217641 1.92977 0
M  V30 3044 O 299.43 -1.15264 1.56666 0
M  V30 3045 C 299.713 2.07378 2.94391 0
M  V30 3046 C 299.566 3.59678 2.70096 0
M  V30 3047 C 300.885 1.92891 3.95577 0
M  V30 3048 H 298.004 0.445255 0.587296 0
M  V30 3049 H 300.646 1.6177 0.99651 0
M  V30 3050 H 298.796 1.73758 3.47477 0
M  V30 3051 H 300.468 4.03472 2.23625 0
M  V30 3052 H 298.711 3.82735 2.04197 0
M  V30 3053 H 299.382 4.14595 3.64438 0
M  V30 3054 H 301.858 2.22327 3.51724 0
M  V30 3055 H 300.734 2.54781 4.86187 0
M  V30 3056 H 300.995 0.894315 4.3296 0
M  V30 3057 N 300.054 -1.07777 1.14986 0
M  V30 3058 C 301.002 -2.16964 0.838406 0
M  V30 3059 C 301.996 -1.68372 -0.186386 0
M  V30 3060 O 303.202 -1.79951 -0.0418465 0
M  V30 3061 H 299.577 -0.708006 0.253439 0
M  V30 3062 H 301.548 -2.40454 1.76704 0
M  V30 3063 C 300.297 -3.4604 0.339335 0
M  V30 3064 H 299.62 -3.83813 1.11927 0
M  V30 3065 H 301.06 -4.23698 0.160021 0
M  V30 3066 C 299.519 -3.23569 -0.938325 0
M  V30 3067 O 300.049 -3.47752 -2.01077 0
M  V30 3068 N 298.255 -2.77079 -0.876117 0
M  V30 3069 H 297.802 -2.576 -0.00322037 0
M  V30 3070 H 297.76 -2.62422 -1.73153 0
M  V30 3071 N 301.532 -0.945985 -1.26051 0
M  V30 3072 C 302.762 -0.612136 -1.97323 0
M  V30 3073 C 303.17 0.818171 -1.70595 0
M  V30 3074 O 302.513 1.55777 -0.973613 0
M  V30 3075 C 302.575 -0.780347 -3.50929 0
M  V30 3076 C 302.239 -2.18619 -4.01317 0
M  V30 3077 C 303.236 -3.16209 -4.12683 0
M  V30 3078 C 300.921 -2.50805 -4.35203 0
M  V30 3079 C 302.915 -4.44085 -4.57238 0
M  V30 3080 C 300.602 -3.78912 -4.79446 0
M  V30 3081 C 301.6 -4.75365 -4.90425 0
M  V30 3082 O 301.288 -6.01191 -5.3369 0
M  V30 3083 H 301.02 -0.229134 -0.635982 0
M  V30 3084 H 303.574 -1.27036 -1.61404 0
M  V30 3085 H 301.804 -0.0649864 -3.86645 0
M  V30 3086 H 303.493 -0.448842 -4.03411 0
M  V30 3087 H 304.259 -2.92668 -3.86744 0
M  V30 3088 H 300.138 -1.76463 -4.2589 0
M  V30 3089 H 303.682 -5.19373 -4.65723 0
M  V30 3090 H 299.579 -4.02265 -5.0483 0
M  V30 3091 H 300.347 -6.04442 -5.51899 0
M  V30 3092 N 303.011 1.40521 -0.713556 0
M  V30 3093 C 304.26 2.00155 -0.249192 0
M  V30 3094 C 304.573 1.57224 1.16362 0
M  V30 3095 O 305.779 2.09542 1.72639 0
M  V30 3096 C 304.235 3.5773 -0.3946 0
M  V30 3097 C 303.843 4.09635 -1.81392 0
M  V30 3098 C 305.587 4.24499 0.00907364 0
M  V30 3099 C 303.494 5.59707 -1.91003 0
M  V30 3100 H 302.424 0.74868 -0.0894114 0
M  V30 3101 H 305.075 1.60784 -0.884352 0
M  V30 3102 H 303.457 3.94792 0.30911 0
M  V30 3103 H 304.631 3.83955 -2.54785 0
M  V30 3104 H 302.946 3.55456 -2.16888 0
M  V30 3105 H 305.543 5.34683 -0.0420404 0
M  V30 3106 H 305.886 4.02824 1.05065 0
M  V30 3107 H 306.419 3.92536 -0.645007 0
M  V30 3108 H 303.158 5.86234 -2.93275 0
M  V30 3109 H 302.678 5.87258 -1.22019 0
M  V30 3110 H 304.357 6.24776 -1.6812 0
M  V30 3111 N 304.489 0.459591 1.5075 0
M  V30 3112 C 305.766 -0.160371 1.94941 0
M  V30 3113 C 306.146 -1.58048 1.39943 0
M  V30 3114 O 305.494 -2.206 0.595629 0
M  V30 3115 C 305.704 -0.115432 3.48809 0
M  V30 3116 C 307.052 -0.310026 4.23467 0
M  V30 3117 O 308.076 -0.192543 3.55679 0
M  V30 3118 O 306.935 -0.546031 5.43765 0
M  V30 3119 H 304.029 -0.117925 0.818549 0
M  V30 3120 H 306.575 0.519169 1.61563 0
M  V30 3121 H 305.347 0.87652 3.81357 0
M  V30 3122 H 304.97 -0.836928 3.88692 0
M  V30 3123 N 305.967 -1.56429 0.191757 0
M  V30 3124 C 306.914 -2.18936 -0.730454 0
M  V30 3125 C 307.884 -1.13557 -1.21219 0
M  V30 3126 O 309.069 -1.41794 -1.27668 0
M  V30 3127 C 306.209 -2.85013 -1.9458 0
M  V30 3128 C 305.322 -4.04909 -1.50574 0
M  V30 3129 C 304.457 -4.58853 -2.67634 0
M  V30 3130 C 303.496 -5.71114 -2.20217 0
M  V30 3131 N 302.633 -6.19478 -3.30442 0
M  V30 3132 H 307.473 -2.97389 -0.190664 0
M  V30 3133 H 305.01 -1.46869 -0.0823694 0
M  V30 3134 H 306.968 -3.21492 -2.65893 0
M  V30 3135 H 305.598 -2.09129 -2.45896 0
M  V30 3136 H 304.65 -3.74115 -0.688605 0
M  V30 3137 H 305.962 -4.86113 -1.11784 0
M  V30 3138 H 305.116 -4.97619 -3.47074 0
M  V30 3139 H 303.855 -3.76749 -3.09696 0
M  V30 3140 H 302.86 -5.31879 -1.3923 0
M  V30 3141 H 304.085 -6.55033 -1.79189 0
M  V30 3142 H 302.031 -5.40297 -3.72041 0
M  V30 3143 H 301.948 -6.95725 -2.9581 0
M  V30 3144 H 303.216 -6.62898 -4.10106 0
M  V30 3145 N 307.445 0.0818655 -1.57387 0
M  V30 3146 C 308.694 0.781681 -1.85937 0
M  V30 3147 C 309.007 1.79246 -0.782957 0
M  V30 3148 O 310.213 2.54112 -0.955987 0
M  V30 3149 C 308.669 1.44109 -3.29789 0
M  V30 3150 C 308.277 0.469396 -4.45534 0
M  V30 3151 C 310.021 2.12386 -3.67549 0
M  V30 3152 C 307.928 1.13415 -5.80423 0
M  V30 3153 H 306.858 0.295682 -0.693605 0
M  V30 3154 H 309.509 0.0348051 -1.83467 0
M  V30 3155 H 307.891 2.23588 -3.2684 0
M  V30 3156 H 309.065 -0.294856 -4.59856 0
M  V30 3157 H 307.38 -0.108383 -4.16259 0
M  V30 3158 H 309.977 2.62878 -4.65617 0
M  V30 3159 H 310.32 2.91877 -2.96839 0
M  V30 3160 H 310.853 1.39751 -3.72444 0
M  V30 3161 H 307.592 0.379771 -6.54399 0
M  V30 3162 H 307.112 1.8695 -5.69921 0
M  V30 3163 H 308.791 1.65686 -6.25426 0
M  V30 3164 N 308.923 1.53595 0.353017 0
M  V30 3165 C 309.87 1.80919 1.43308 0
M  V30 3166 C 310.84 0.654288 1.5267 0
M  V30 3167 O 312.025 0.897759 1.6836 0
M  V30 3168 C 309.165 2.01605 2.80089 0
M  V30 3169 C 308.278 3.29321 2.79593 0
M  V30 3170 C 307.413 3.40125 4.0803 0
M  V30 3171 C 306.452 4.61826 4.01725 0
M  V30 3172 N 305.589 4.69716 5.21834 0
M  V30 3173 H 310.429 2.73074 1.19308 0
M  V30 3174 H 307.966 1.35263 0.578131 0
M  V30 3175 H 309.924 2.11586 3.59565 0
M  V30 3176 H 308.554 1.12772 3.0246 0
M  V30 3177 H 307.606 3.28229 1.92276 0
M  V30 3178 H 308.918 4.18884 2.70809 0
M  V30 3179 H 308.072 3.49488 4.95927 0
M  V30 3180 H 306.811 2.48601 4.19582 0
M  V30 3181 H 305.816 4.52552 3.12213 0
M  V30 3182 H 307.041 5.54705 3.91764 0
M  V30 3183 H 304.987 3.81097 5.33948 0
M  V30 3184 H 304.904 5.53202 5.1527 0
M  V30 3185 H 306.172 4.83376 6.11529 0
M  V30 3186 N 310.401 -0.613514 1.45168 0
M  V30 3187 C 311.348 -1.72456 1.53387 0
M  V30 3188 C 312.318 -1.6169 0.380191 0
M  V30 3189 O 313.503 -1.81356 0.592836 0
M  V30 3190 C 310.643 -3.10753 1.50088 0
M  V30 3191 C 309.756 -3.32368 2.75963 0
M  V30 3192 C 308.891 -4.60737 2.64376 0
M  V30 3193 C 307.93 -4.7559 3.85332 0
M  V30 3194 N 307.067 -5.95253 3.72315 0
M  V30 3195 H 311.907 -1.64768 2.48305 0
M  V30 3196 H 309.444 -0.803503 1.23216 0
M  V30 3197 H 311.402 -3.90758 1.46164 0
M  V30 3198 H 310.032 -3.17413 0.587243 0
M  V30 3199 H 309.084 -2.4618 2.89999 0
M  V30 3200 H 310.396 -3.39218 3.65695 0
M  V30 3201 H 309.55 -5.48928 2.58385 0
M  V30 3202 H 308.289 -4.56275 1.72233 0
M  V30 3203 H 307.294 -3.85824 3.91688 0
M  V30 3204 H 308.519 -4.81854 4.78533 0
M  V30 3205 H 306.465 -5.91847 2.82937 0
M  V30 3206 H 306.382 -6.03236 4.55677 0
M  V30 3207 H 307.65 -6.85958 3.70246 0
M  V30 3208 N 311.879 -1.3236 -0.855495 0
M  V30 3209 C 313.109 -1.25688 -1.6397 0
M  V30 3210 C 313.517 0.177592 -1.88365 0
M  V30 3211 O 312.86 1.12485 -1.45234 0
M  V30 3212 C 312.922 -1.94602 -3.02275 0
M  V30 3213 C 312.586 -3.43937 -3.00926 0
M  V30 3214 C 313.583 -4.39435 -2.77835 0
M  V30 3215 C 311.268 -3.85858 -3.21588 0
M  V30 3216 C 313.262 -5.74829 -2.75409 0
M  V30 3217 C 310.949 -5.21361 -3.18789 0
M  V30 3218 C 311.947 -6.15658 -2.95727 0
M  V30 3219 O 311.635 -7.48681 -2.928 0
M  V30 3220 H 311.367 -0.434972 -0.51747 0
M  V30 3221 H 313.921 -1.75023 -1.075 0
M  V30 3222 H 312.151 -1.39836 -3.60531 0
M  V30 3223 H 313.84 -1.81651 -3.62985 0
M  V30 3224 H 314.606 -4.08374 -2.6164 0
M  V30 3225 H 310.485 -3.12883 -3.38564 0
M  V30 3226 H 314.029 -6.48404 -2.57328 0
M  V30 3227 H 309.926 -5.52052 -3.34528 0
M  V30 3228 H 310.694 -7.5803 -3.0876 0
M  V30 3229 N 313.357 1.07166 -1.15556 0
M  V30 3230 C 314.603 1.80065 -0.932984 0
M  V30 3231 C 314.936 1.86586 0.53845 0
M  V30 3232 O 314.211 1.35098 1.39924 0
M  V30 3233 C 314.494 3.25022 -1.55025 0
M  V30 3234 C 314.347 3.26634 -3.09242 0
M  V30 3235 C 315.666 4.22341 -1.2376 0
M  V30 3236 H 312.785 0.653697 -0.340366 0
M  V30 3237 H 315.427 1.25389 -1.4275 0
M  V30 3238 H 313.577 3.71712 -1.12972 0
M  V30 3239 H 315.249 2.88173 -3.60214 0
M  V30 3240 H 313.492 2.65539 -3.43033 0
M  V30 3241 H 314.163 4.28854 -3.47546 0
M  V30 3242 H 316.639 3.8405 -1.60139 0
M  V30 3243 H 315.515 5.22053 -1.69564 0
M  V30 3244 H 315.776 4.41828 -0.154938 0
M  V30 3245 N 314.835 0.952656 1.25548 0
M  V30 3246 C 316.083 0.605176 1.92826 0
M  V30 3247 C 316.404 -0.860261 1.74999 0
M  V30 3248 O 315.674 -1.6125 1.11244 0
M  V30 3249 H 314.254 0.220832 0.713612 0
M  V30 3250 H 316.916 1.21047 1.52754 0
M  V30 3251 H 316.012 0.832798 3.00784 0
M  V30 3252 N 316.313 -1.40141 0.720998 0
M  V30 3253 C 317.223 -2.34486 0.0731031 0
M  V30 3254 C 318.239 -1.57587 -0.737723 0
M  V30 3255 O 319.415 -1.89949 -0.669429 0
M  V30 3256 C 316.48 -3.36528 -0.833656 0
M  V30 3257 C 315.541 -4.29298 -0.0121673 0
M  V30 3258 C 314.774 -5.26466 -0.875742 0
M  V30 3259 O 314.997 -5.29745 -2.11485 0
M  V30 3260 O 313.931 -6.01092 -0.31185 0
M  V30 3261 H 317.757 -2.9152 0.851444 0
M  V30 3262 H 315.342 -1.41427 0.481527 0
M  V30 3263 H 317.224 -3.99093 -1.35289 0
M  V30 3264 H 315.899 -2.81899 -1.59105 0
M  V30 3265 H 314.806 -3.70001 0.552262 0
M  V30 3266 H 316.139 -4.87094 0.707129 0
M  V30 3267 N 317.792 -0.46758 -1.50504 0
M  V30 3268 C 318.739 0.328413 -2.28452 0
M  V30 3269 C 319.709 0.990313 -1.33349 0
M  V30 3270 O 320.894 1.00343 -1.62284 0
M  V30 3271 C 318.034 1.40648 -3.15138 0
M  V30 3272 C 317.147 0.759709 -4.25267 0
M  V30 3273 C 316.282 1.81537 -4.99217 0
M  V30 3274 C 315.321 1.14866 -6.01226 0
M  V30 3275 N 314.458 2.14702 -6.68467 0
M  V30 3276 H 319.298 -0.342603 -2.96024 0
M  V30 3277 H 316.835 -0.180801 -1.45985 0
M  V30 3278 H 318.793 2.04315 -3.63746 0
M  V30 3279 H 317.423 2.04671 -2.49619 0
M  V30 3280 H 316.475 0.0105671 -3.80399 0
M  V30 3281 H 317.787 0.233243 -4.98254 0
M  V30 3282 H 316.941 2.52793 -5.51526 0
M  V30 3283 H 315.68 2.37564 -4.25928 0
M  V30 3284 H 314.685 0.42171 -5.4818 0
M  V30 3285 H 315.91 0.595334 -6.76485 0
M  V30 3286 H 313.856 2.69752 -5.97972 0
M  V30 3287 H 313.773 1.6703 -7.37317 0
M  V30 3288 H 315.041 2.85348 -7.25394 0
M  V30 3289 N 319.27 1.56325 -0.20005 0
M  V30 3290 C 320.518 1.97329 0.436547 0
M  V30 3291 C 320.839 1.08826 1.61808 0
M  V30 3292 O 320.109 0.160604 1.95241 0
M  V30 3293 H 318.689 0.728714 0.164272 0
M  V30 3294 H 321.351 1.92761 -0.287937 0
M  V30 3295 H 320.447 3.02264 0.777353 0
M  V30 3296 N 320.748 -0.0735177 1.57428 0
M  V30 3297 C 321.997 -0.771809 1.86349 0
M  V30 3298 C 322.31 -1.78828 0.792452 0
M  V30 3299 O 323.516 -2.53602 0.96945 0
M  V30 3300 C 321.972 -1.42358 3.30548 0
M  V30 3301 C 321.58 -0.445761 4.45777 0
M  V30 3302 C 323.324 -2.10434 3.6867 0
M  V30 3303 C 321.231 -1.10335 5.81016 0
M  V30 3304 H 320.161 -0.291999 0.695164 0
M  V30 3305 H 322.812 -0.0250749 1.83483 0
M  V30 3306 H 321.194 -2.21852 3.28021 0
M  V30 3307 H 322.368 0.319239 4.59693 0
M  V30 3308 H 320.683 0.130457 4.16196 0
M  V30 3309 H 323.28 -2.60405 4.67004 0
M  V30 3310 H 323.623 -2.90298 2.98383 0
M  V30 3311 H 324.156 -1.37773 3.7318 0
M  V30 3312 H 320.895 -0.345061 6.54591 0
M  V30 3313 H 320.415 -1.83925 5.70904 0
M  V30 3314 H 322.094 -1.62367 6.26295 0
M  V30 3315 N 322.226 -1.5378 -0.344866 0
M  V30 3316 C 323.503 -1.61589 -1.10219 0
M  V30 3317 C 323.883 -0.436316 -2.06542 0
M  V30 3318 O 323.231 0.571543 -2.21237 0
M  V30 3319 C 323.441 -2.97602 -1.82301 0
M  V30 3320 C 324.789 -3.5291 -2.36093 0
M  V30 3321 O 325.813 -2.99768 -1.924 0
M  V30 3322 O 324.672 -4.45859 -3.16026 0
M  V30 3323 H 321.766 -0.653522 -0.506792 0
M  V30 3324 H 324.312 -1.66126 -0.346465 0
M  V30 3325 H 323.084 -3.74893 -1.12121 0
M  V30 3326 H 322.707 -2.9665 -2.64735 0
M  V30 3327 N 323.704 0.605807 -1.45491 0
M  V30 3328 C 324.953 1.36086 -1.48874 0
M  V30 3329 C 325.266 1.95131 -0.135333 0
M  V30 3330 O 326.472 2.7146 -0.0468144 0
M  V30 3331 C 324.928 2.46518 -2.62215 0
M  V30 3332 C 324.536 1.93877 -4.03876 0
M  V30 3333 C 326.28 3.23512 -2.74846 0
M  V30 3334 C 324.187 3.01801 -5.08596 0
M  V30 3335 H 323.117 0.511497 -0.553974 0
M  V30 3336 H 325.768 0.649089 -1.71636 0
M  V30 3337 H 324.15 3.20388 -2.32739 0
M  V30 3338 H 325.324 1.26704 -4.43038 0
M  V30 3339 H 323.639 1.29622 -3.95711 0
M  V30 3340 H 326.236 4.04013 -3.50253 0
M  V30 3341 H 326.579 3.74631 -1.81542 0
M  V30 3342 H 327.112 2.56742 -3.03856 0
M  V30 3343 H 323.851 2.55597 -6.03614 0
M  V30 3344 H 323.371 3.67535 -4.74002 0
M  V30 3345 H 325.05 3.66152 -5.33424 0
M  V30 3346 N 325.182 1.32811 0.848464 0
M  V30 3347 C 326.431 1.23075 1.59798 0
M  V30 3348 C 326.744 -0.204419 1.94529 0
M  V30 3349 O 327.95 -0.423701 2.68173 0
M  V30 3350 C 326.406 2.15594 2.88179 0
M  V30 3351 C 326.014 3.64228 2.60849 0
M  V30 3352 C 327.758 2.14709 3.66197 0
M  V30 3353 C 325.665 4.48689 3.85269 0
M  V30 3354 H 324.595 0.457091 0.599653 0
M  V30 3355 H 327.246 1.57813 0.936342 0
M  V30 3356 H 325.628 1.73778 3.55833 0
M  V30 3357 H 326.802 4.14424 2.01467 0
M  V30 3358 H 325.117 3.67306 1.96151 0
M  V30 3359 H 327.714 2.75046 4.58534 0
M  V30 3360 H 328.057 1.13966 4.00397 0
M  V30 3361 H 328.59 2.54837 3.05455 0
M  V30 3362 H 325.329 5.5027 3.56207 0
M  V30 3363 H 324.849 4.03241 4.44024 0
M  V30 3364 H 326.528 4.62006 4.52946 0
M  V30 3365 N 326.66 -1.06551 1.16123 0
M  V30 3366 C 327.909 -1.78687 0.935622 0
M  V30 3367 C 328.222 -1.88056 -0.538001 0
M  V30 3368 O 329.428 -2.56794 -0.88143 0
M  V30 3369 C 327.884 -3.21143 1.62466 0
M  V30 3370 C 327.492 -3.19949 3.13587 0
M  V30 3371 C 329.236 -3.9783 1.48092 0
M  V30 3372 C 327.143 -4.57108 3.75241 0
M  V30 3373 H 326.073 -0.669712 0.346412 0
M  V30 3374 H 328.724 -1.19534 1.39226 0
M  V30 3375 H 327.106 -3.80539 1.09572 0
M  V30 3376 H 328.28 -2.70151 3.73303 0
M  V30 3377 H 326.595 -2.5676 3.27816 0
M  V30 3378 H 329.192 -4.99217 1.91538 0
M  V30 3379 H 329.535 -4.14078 0.429507 0
M  V30 3380 H 330.068 -3.4495 1.98127 0
M  V30 3381 H 326.807 -4.46065 4.80319 0
M  V30 3382 H 326.327 -5.07111 3.20309 0
M  V30 3383 H 328.006 -5.26069 3.76644 0
M  V30 3384 N 328.138 -0.959301 -1.25041 0
M  V30 3385 C 329.048 -0.489994 -2.29426 0
M  V30 3386 C 330.064 0.444944 -1.68215 0
M  V30 3387 O 331.24 0.320046 -1.98841 0
M  V30 3388 C 328.305 0.220309 -3.45999 0
M  V30 3389 C 327.366 -0.753418 -4.22637 0
M  V30 3390 C 326.599 -0.076918 -5.33645 0
M  V30 3391 O 326.822 1.13649 -5.58963 0
M  V30 3392 O 325.756 -0.764824 -5.97021 0
M  V30 3393 H 329.582 -1.35755 -2.71669 0
M  V30 3394 H 327.167 -0.725961 -1.30576 0
M  V30 3395 H 329.049 0.619677 -4.16819 0
M  V30 3396 H 327.724 1.06296 -3.0575 0
M  V30 3397 H 326.631 -1.20308 -3.54227 0
M  V30 3398 H 327.964 -1.56423 -4.66683 0
M  V30 3399 N 329.616 1.39756 -0.72842 0
M  V30 3400 C 330.549 2.28176 -0.0330172 0
M  V30 3401 C 331.527 1.44035 0.754501 0
M  V30 3402 O 332.711 1.73434 0.738445 0
M  V30 3403 C 329.838 3.24795 0.960504 0
M  V30 3404 C 328.884 4.25693 0.262264 0
M  V30 3405 S 329.717 5.25714 -1.01906 0
M  V30 3406 C 330.873 6.25894 -0.0279717 0
M  V30 3407 H 331.106 2.86807 -0.78287 0
M  V30 3408 H 328.639 1.45382 -0.519951 0
M  V30 3409 H 330.597 3.80983 1.52846 0
M  V30 3410 H 329.258 2.65196 1.68315 0
M  V30 3411 H 328.451 4.93699 1.01379 0
M  V30 3412 H 328.053 3.7327 -0.233482 0
M  V30 3413 H 330.345 6.72585 0.814621 0
M  V30 3414 H 331.288 7.04876 -0.67499 0
M  V30 3415 H 331.696 5.63466 0.341489 0
M  V30 3416 N 331.094 0.475555 1.50254 0
M  V30 3417 C 332.024 -0.30611 2.31485 0
M  V30 3418 C 333.005 -0.986228 1.38591 0
M  V30 3419 O 334.19 -0.982541 1.67511 0
M  V30 3420 C 331.32 -1.38588 3.1845 0
M  V30 3421 C 330.274 -0.827115 4.19932 0
M  V30 3422 C 329.6 -2.00551 4.95665 0
M  V30 3423 C 330.9 0.16463 5.2204 0
M  V30 3424 H 332.594 0.371866 2.97082 0
M  V30 3425 H 330.14 0.180282 1.42867 0
M  V30 3426 H 332.093 -1.94023 3.74076 0
M  V30 3427 H 330.817 -2.09269 2.50747 0
M  V30 3428 H 329.476 -0.294702 3.65414 0
M  V30 3429 H 329.124 -2.6994 4.2443 0
M  V30 3430 H 328.824 -1.63784 5.64313 0
M  V30 3431 H 330.348 -2.56468 5.54127 0
M  V30 3432 H 331.762 -0.300699 5.72511 0
M  V30 3433 H 330.159 0.446813 5.98434 0
M  V30 3434 H 331.229 1.08905 4.72512 0
M  V30 3435 N 332.573 -1.56217 0.208337 0
M  V30 3436 C 333.536 -2.18455 -0.693557 0
M  V30 3437 C 334.536 -1.14268 -1.13135 0
M  V30 3438 O 335.726 -1.39577 -1.0423 0
M  V30 3439 C 332.858 -2.79727 -1.94848 0
M  V30 3440 H 334.051 -2.99519 -0.15114 0
M  V30 3441 H 331.604 -1.56245 -0.041287 0
M  V30 3442 H 332.339 -2.02497 -2.53309 0
M  V30 3443 H 332.124 -3.56009 -1.64316 0
M  V30 3444 H 333.614 -3.27475 -2.59133 0
M  V30 3445 N 334.051 0.0651679 -1.57465 0
M  V30 3446 C 334.999 1.09542 -2.05191 0
M  V30 3447 C 335.993 1.39675 -0.958509 0
M  V30 3448 O 337.199 1.39003 -1.14359 0
M  V30 3449 H 333.574 0.370623 -0.654326 0
M  V30 3450 H 335.545 0.666802 -2.90854 0
M  V30 3451 C 334.294 2.39881 -2.51699 0
M  V30 3452 H 333.617 2.17547 -3.3543 0
M  V30 3453 H 335.057 3.104 -2.88839 0
M  V30 3454 C 333.516 3.0631 -1.40271 0
M  V30 3455 O 334.046 3.94664 -0.748523 0
M  V30 3456 N 332.252 2.67041 -1.14618 0
M  V30 3457 H 331.799 1.95281 -1.67997 0
M  V30 3458 H 331.757 3.1181 -0.402688 0
M  V30 3459 N 335.529 1.53961 0.336706 0
M  V30 3460 C 336.775 1.7179 1.07777 0
M  V30 3461 C 337.108 0.483263 1.88091 0
M  V30 3462 O 336.383 -0.519747 1.87427 0
M  V30 3463 C 336.666 2.98558 2.01334 0
M  V30 3464 C 336.519 4.32245 1.24437 0
M  V30 3465 C 337.838 3.21023 3.01052 0
M  V30 3466 H 334.957 0.625089 0.390426 0
M  V30 3467 H 337.599 1.86641 0.35567 0
M  V30 3468 H 335.749 2.86028 2.62908 0
M  V30 3469 H 337.421 4.56637 0.654243 0
M  V30 3470 H 335.664 4.30344 0.546458 0
M  V30 3471 H 336.335 5.17137 1.93063 0
M  V30 3472 H 338.811 3.32929 2.49595 0
M  V30 3473 H 337.687 4.11104 3.6371 0
M  V30 3474 H 337.948 2.37637 3.72802 0
M  V30 3475 N 337.007 -0.598083 1.45811 0
M  V30 3476 C 337.955 -1.72932 1.55555 0
M  V30 3477 C 338.949 -1.63984 0.424921 0
M  V30 3478 O 340.155 -1.69663 0.601205 0
M  V30 3479 H 336.53 -0.571489 0.488779 0
M  V30 3480 H 338.501 -1.61842 2.50699 0
M  V30 3481 C 337.25 -3.11318 1.54843 0
M  V30 3482 H 336.573 -3.18867 2.41172 0
M  V30 3483 H 338.013 -3.90274 1.65717 0
M  V30 3484 C 336.472 -3.3578 0.274427 0
M  V30 3485 O 337.002 -3.9654 -0.641778 0
M  V30 3486 N 335.208 -2.90119 0.167139 0
M  V30 3487 H 334.755 -2.40855 0.913596 0
M  V30 3488 H 334.713 -3.0686 -0.684435 0
M  V30 3489 N 338.485 -1.33259 -0.841409 0
M  V30 3490 C 339.415 -1.25926 -1.96634 0
M  V30 3491 C 340.396 -0.140349 -1.6952 0
M  V30 3492 O 341.581 -0.329707 -1.91381 0
M  V30 3493 C 338.711 -0.99512 -3.32738 0
M  V30 3494 C 337.665 -2.0767 -3.74242 0
M  V30 3495 C 336.991 -1.66474 -5.08125 0
M  V30 3496 C 338.291 -3.49318 -3.88297 0
M  V30 3497 H 339.985 -2.20046 -2.03027 0
M  V30 3498 H 337.531 -1.05931 -0.975425 0
M  V30 3499 H 339.484 -0.930323 -4.11002 0
M  V30 3500 H 338.208 -0.0183004 -3.26595 0
M  V30 3501 H 336.867 -2.13187 -2.98239 0
M  V30 3502 H 336.515 -0.675012 -4.9845 0
M  V30 3503 H 336.215 -2.3885 -5.36865 0
M  V30 3504 H 337.739 -1.61455 -5.88867 0
M  V30 3505 H 339.153 -3.46316 -4.56879 0
M  V30 3506 H 337.55 -4.20158 -4.28471 0
M  V30 3507 H 338.62 -3.8801 -2.9082 0
M  V30 3508 N 339.963 1.05934 -1.16686 0
M  V30 3509 C 341.188 1.83029 -0.975455 0
M  V30 3510 C 341.613 1.82096 0.471452 0
M  V30 3511 O 340.971 1.22443 1.33706 0
M  V30 3512 C 341.019 3.27372 -1.51195 0
M  V30 3513 O 340.123 4.06054 -0.720701 0
M  V30 3514 H 339.464 0.566194 -0.346872 0
M  V30 3515 H 341.994 1.33541 -1.55009 0
M  V30 3516 H 342.004 3.78186 -1.53099 0
M  V30 3517 H 340.679 3.27366 -2.56523 0
M  V30 3518 H 339.256 3.64812 -0.772458 0
M  V30 3519 N 341.441 0.965919 1.2453 0
M  V30 3520 C 342.388 0.49402 2.25451 0
M  V30 3521 C 343.358 -0.45948 1.59618 0
M  V30 3522 O 344.543 -0.370238 1.87173 0
M  V30 3523 C 341.683 -0.211359 3.44452 0
M  V30 3524 C 340.796 0.7807 4.24887 0
M  V30 3525 C 339.931 0.0516105 5.31175 0
M  V30 3526 C 338.97 1.03385 6.03306 0
M  V30 3527 N 338.107 0.334887 7.01301 0
M  V30 3528 H 342.947 1.35946 2.65184 0
M  V30 3529 H 340.484 0.681515 1.3036 0
M  V30 3530 H 342.442 -0.637 4.12308 0
M  V30 3531 H 341.072 -1.04077 3.05562 0
M  V30 3532 H 340.124 1.32479 3.56586 0
M  V30 3533 H 341.436 1.52978 4.74762 0
M  V30 3534 H 340.59 -0.432114 6.05159 0
M  V30 3535 H 339.329 -0.730179 4.82203 0
M  V30 3536 H 338.334 1.52847 5.28127 0
M  V30 3537 H 339.559 1.81606 6.54367 0
M  V30 3538 H 337.505 -0.427959 6.54603 0
M  V30 3539 H 337.422 1.02287 7.49048 0
M  V30 3540 H 338.69 -0.126928 7.79397 0
M  V30 3541 N 342.919 -1.39368 0.735821 0
M  V30 3542 C 344.196 -1.94465 0.210395 0
M  V30 3543 C 344.576 -1.67254 -1.28799 0
M  V30 3544 O 343.924 -1.00123 -2.05396 0
M  V30 3545 C 344.134 -3.4472 0.544897 0
M  V30 3546 C 345.482 -4.21708 0.494689 0
M  V30 3547 O 346.506 -3.52922 0.482136 0
M  V30 3548 O 345.365 -5.44299 0.489947 0
M  V30 3549 H 342.459 -0.826096 0.0386666 0
M  V30 3550 H 345.005 -1.48863 0.814735 0
M  V30 3551 H 343.777 -3.57963 1.58045 0
M  V30 3552 H 343.4 -3.97502 -0.08837 0
M  V30 3553 N 344.397 -0.483516 -1.5 0
M  V30 3554 C 345.327 0.293829 -2.31644 0
M  V30 3555 C 346.308 0.978864 -1.39112 0
M  V30 3556 O 347.493 0.973644 -1.68029 0
M  V30 3557 C 344.623 1.36897 -3.19181 0
M  V30 3558 C 343.577 0.804833 -4.20365 0
M  V30 3559 C 342.903 1.9792 -4.96721 0
M  V30 3560 C 344.203 -0.192313 -5.21946 0
M  V30 3561 H 345.897 -0.387616 -2.9688 0
M  V30 3562 H 343.443 -0.187856 -1.42769 0
M  V30 3563 H 345.396 1.92037 -3.751 0
M  V30 3564 H 344.12 2.07936 -2.51853 0
M  V30 3565 H 342.779 0.275319 -3.65565 0
M  V30 3566 H 342.427 2.67686 -4.25856 0
M  V30 3567 H 342.127 1.60789 -5.65173 0
M  V30 3568 H 343.651 2.53526 -5.55479 0
M  V30 3569 H 345.065 0.270333 -5.72662 0
M  V30 3570 H 343.462 -0.478543 -5.98189 0
M  V30 3571 H 344.532 -1.11409 -4.71928 0
M  V30 3572 N 345.875 1.56104 -0.216619 0
M  V30 3573 C 347.1 2.0301 0.424462 0
M  V30 3574 C 347.525 1.0955 1.52907 0
M  V30 3575 O 346.883 0.0827914 1.81111 0
M  V30 3576 C 346.931 3.4819 0.937883 0
M  V30 3577 O 346.035 3.57865 2.04955 0
M  V30 3578 H 345.376 0.656925 0.0966755 0
M  V30 3579 H 347.906 2.01859 -0.33381 0
M  V30 3580 H 347.916 3.88413 1.24897 0
M  V30 3581 H 346.591 4.15699 0.129387 0
M  V30 3582 H 345.168 3.29527 1.74546 0
M  V30 3583 N 347.353 -0.0568162 1.57498 0
M  V30 3584 C 348.283 -1.06593 2.0775 0
M  V30 3585 C 349.264 -1.39448 0.974082 0
M  V30 3586 O 350.449 -1.48815 1.24771 0
M  V30 3587 C 347.579 -2.37509 2.5339 0
M  V30 3588 C 346.533 -2.1897 3.67745 0
M  V30 3589 C 345.859 -3.55402 3.99492 0
M  V30 3590 C 347.159 -1.59859 4.97235 0
M  V30 3591 H 348.853 -0.647706 2.9231 0
M  V30 3592 H 346.399 -0.310116 1.40621 0
M  V30 3593 H 348.352 -3.08409 2.87162 0
M  V30 3594 H 347.076 -2.8134 1.65878 0
M  V30 3595 H 345.735 -1.50508 3.3428 0
M  V30 3596 H 345.383 -3.9683 3.09088 0
M  V30 3597 H 345.083 -3.43831 4.76502 0
M  V30 3598 H 346.607 -4.27708 4.35773 0
M  V30 3599 H 348.021 -2.20642 5.29141 0
M  V30 3600 H 346.418 -1.58942 5.78669 0
M  V30 3601 H 347.488 -0.561506 4.81638 0
M  V30 3602 N 348.832 -1.54138 -0.328536 0
M  V30 3603 C 349.762 -1.86167 -1.40939 0
M  V30 3604 C 350.743 -0.718044 -1.54202 0
M  V30 3605 O 351.928 -0.971328 -1.68163 0
M  V30 3606 C 349.058 -2.08461 -2.77779 0
M  V30 3607 C 348.012 -3.24299 -2.7931 0
M  V30 3608 C 347.338 -3.31955 -4.19178 0
M  V30 3609 C 348.638 -4.62065 -2.43502 0
M  V30 3610 H 350.332 -2.76689 -1.14383 0
M  V30 3611 H 347.878 -1.33132 -0.548806 0
M  V30 3612 H 349.831 -2.29453 -3.53454 0
M  V30 3613 H 348.555 -1.14684 -3.05802 0
M  V30 3614 H 347.214 -3.03187 -2.0609 0
M  V30 3615 H 346.862 -2.35745 -4.44335 0
M  V30 3616 H 346.562 -4.09805 -4.2111 0
M  V30 3617 H 348.086 -3.55175 -4.96672 0
M  V30 3618 H 349.5 -4.8297 -3.08889 0
M  V30 3619 H 347.897 -5.42429 -2.56693 0
M  V30 3620 H 348.967 -4.64652 -1.38659 0
M  V30 3621 N 350.31 0.590341 -1.46126 0
M  V30 3622 C 351.535 1.37991 -1.54833 0
M  V30 3623 C 351.96 1.87163 -0.187506 0
M  V30 3624 O 351.318 1.61133 0.831008 0
M  V30 3625 C 351.366 2.54867 -2.55098 0
M  V30 3626 O 350.47 3.56061 -2.08073 0
M  V30 3627 H 349.811 0.411265 -0.521303 0
M  V30 3628 H 352.341 0.716819 -1.91632 0
M  V30 3629 H 352.351 3.01886 -2.74461 0
M  V30 3630 H 351.026 2.18429 -3.53923 0
M  V30 3631 H 349.603 3.15574 -1.98664 0
M  V30 3632 N 351.788 1.33704 0.83433 0
M  V30 3633 C 352.738 1.20899 1.93306 0
M  V30 3634 C 353.722 0.110783 1.60518 0
M  V30 3635 O 354.914 0.339331 1.73717 0
M  V30 3636 C 352.043 0.955018 3.29749 0
M  V30 3637 C 351.129 2.09587 3.68692 0
M  V30 3638 N 351.52 3.34621 3.79292 0
M  V30 3639 C 349.818 2.00358 3.98463 0
M  V30 3640 C 350.519 4.09472 4.13167 0
M  V30 3641 N 349.495 3.37954 4.25779 0
M  V30 3642 H 353.297 2.15665 1.99664 0
M  V30 3643 H 350.811 1.25777 1.02732 0
M  V30 3644 H 352.808 0.844208 4.08263 0
M  V30 3645 H 351.468 0.0159317 3.24696 0
M  V30 3646 H 352.479 3.69313 3.63082 0
M  V30 3647 H 349.156 1.14137 4.01596 0
M  V30 3648 H 350.546 5.17391 4.28668 0
M  V30 3649 N 353.266 -1.05314 1.17247 0
M  V30 3650 C 354.514 -1.77941 0.958194 0
M  V30 3651 C 354.835 -1.88089 -0.514556 0
M  V30 3652 O 354.105 -1.39676 -1.37359 0
M  V30 3653 H 352.685 -0.659116 0.351533 0
M  V30 3654 H 355.347 -1.27166 1.47699 0
M  V30 3655 H 354.443 -2.79663 1.38546 0
M  V30 3656 N 354.744 -0.972509 -1.24016 0
M  V30 3657 C 355.992 -0.635776 -1.91839 0
M  V30 3658 C 356.313 0.832312 -1.76345 0
M  V30 3659 O 355.583 1.5946 -1.13795 0
M  V30 3660 H 354.163 -0.232157 -0.710009 0
M  V30 3661 H 356.825 -1.23462 -1.50809 0
M  V30 3662 H 355.921 -0.880545 -2.99421 0
M  V30 3663 N 356.222 1.38976 -0.743202 0
M  V30 3664 C 357.638 1.53984 -0.419664 0
M  V30 3665 C 357.838 1.70837 1.0685 0
M  V30 3666 O 356.894 1.7135 1.8546 0
M  V30 3667 C 358.207 2.75287 -1.20985 0
M  V30 3668 C 359.755 2.89129 -1.19889 0
M  V30 3669 C 360.23 4.13381 -1.97181 0
M  V30 3670 N 361.721 4.20437 -1.94389 0
M  V30 3671 C 362.456 5.15547 -2.50996 0
M  V30 3672 N 361.952 6.16395 -3.16274 0
M  V30 3673 N 363.745 5.07822 -2.40984 0
M  V30 3674 H 355.896 1.26285 -1.7078 0
M  V30 3675 H 358.159 0.612689 -0.723406 0
M  V30 3676 H 357.865 2.69204 -2.26323 0
M  V30 3677 H 357.739 3.68184 -0.819759 0
M  V30 3678 H 360.126 2.947 -0.153606 0
M  V30 3679 H 360.207 1.97272 -1.62841 0
M  V30 3680 H 359.851 4.08572 -3.01714 0
M  V30 3681 H 359.781 5.04298 -1.51629 0
M  V30 3682 H 362.272 3.48205 -1.46839 0
M  V30 3683 H 362.585 6.85443 -3.56915 0
M  V30 3684 H 360.93 6.16758 -3.20367 0
M  V30 3685 H 364.121 4.27973 -1.89622 0
M  V30 3686 H 364.294 5.81767 -2.85397 0
M  V30 3687 N 357.7 0.491464 1.49741 0
M  V30 3688 C 358.946 -0.0565092 2.02721 0
M  V30 3689 C 359.279 -1.37522 1.37118 0
M  V30 3690 O 358.554 -1.87866 0.503645 0
M  V30 3691 C 358.837 -0.219051 3.59433 0
M  V30 3692 C 358.69 1.12211 4.35579 0
M  V30 3693 C 360.009 -0.964157 4.29409 0
M  V30 3694 H 357.128 -0.0190627 0.736753 0
M  V30 3695 H 359.77 0.641021 1.7886 0
M  V30 3696 H 357.92 -0.813165 3.79895 0
M  V30 3697 H 359.592 1.75437 4.26637 0
M  V30 3698 H 357.835 1.71377 3.98513 0
M  V30 3699 H 358.506 0.961794 5.43556 0
M  V30 3700 H 360.982 -0.460378 4.13545 0
M  V30 3701 H 359.858 -1.04671 5.38828 0
M  V30 3702 H 360.119 -2.00563 3.93988 0
M  V30 3703 N 359.178 -1.55987 0.224894 0
M  V30 3704 C 360.427 -1.97566 -0.406273 0
M  V30 3705 C 360.74 -1.11569 -1.6066 0
M  V30 3706 O 361.946 -1.43062 -2.3075 0
M  V30 3707 C 360.402 -3.51474 -0.774207 0
M  V30 3708 C 360.01 -4.46179 0.403496 0
M  V30 3709 C 361.754 -4.01758 -1.37079 0
M  V30 3710 C 359.661 -5.91399 0.0129412 0
M  V30 3711 H 358.591 -0.737777 -0.155565 0
M  V30 3712 H 361.242 -1.80659 0.321635 0
M  V30 3713 H 359.624 -3.63994 -1.55963 0
M  V30 3714 H 360.798 -4.45409 1.18101 0
M  V30 3715 H 359.113 -4.06255 0.913536 0
M  V30 3716 H 361.71 -5.07756 -1.67596 0
M  V30 3717 H 362.053 -3.47805 -2.28773 0
M  V30 3718 H 362.586 -3.92475 -0.648733 0
M  V30 3719 H 359.325 -6.49341 0.896451 0
M  V30 3720 H 358.845 -5.95356 -0.728821 0
M  V30 3721 H 360.524 -6.45683 -0.412582 0
M  V30 3722 N 360.656 0.0484629 -1.57525 0
M  V30 3723 C 361.902 0.744226 -1.88651 0
M  V30 3724 C 362.235 1.76029 -0.820212 0
M  V30 3725 O 361.51 1.93782 0.166985 0
M  V30 3726 C 361.793 1.43128 -3.30434 0
M  V30 3727 C 361.646 0.43005 -4.47739 0
M  V30 3728 C 362.965 2.37031 -3.70816 0
M  V30 3729 H 360.084 0.269089 -0.68612 0
M  V30 3730 H 362.726 0.00713532 -1.89999 0
M  V30 3731 H 360.876 2.05956 -3.29415 0
M  V30 3732 H 362.548 -0.194816 -4.60888 0
M  V30 3733 H 360.791 -0.252522 -4.33064 0
M  V30 3734 H 361.462 0.948874 -5.43783 0
M  V30 3735 H 363.938 1.84263 -3.73077 0
M  V30 3736 H 362.814 2.82094 -4.70865 0
M  V30 3737 H 363.075 3.22864 -3.02012 0
M  V30 3738 N 362.134 1.5431 0.320358 0
M  V30 3739 C 363.38 1.72924 1.05949 0
M  V30 3740 C 363.713 0.503185 1.87568 0
M  V30 3741 O 362.988 -0.499839 1.87968 0
M  V30 3742 C 363.271 3.00676 1.98156 0
M  V30 3743 C 363.124 4.3354 1.19845 0
M  V30 3744 C 364.443 3.24198 2.9763 0
M  V30 3745 H 361.562 0.629195 0.383774 0
M  V30 3746 H 364.204 1.87008 0.335854 0
M  V30 3747 H 362.354 2.888 2.59859 0
M  V30 3748 H 364.026 4.57305 0.605773 0
M  V30 3749 H 362.269 4.309 0.500784 0
M  V30 3750 H 362.94 5.19156 1.87567 0
M  V30 3751 H 365.416 3.35557 2.4605 0
M  V30 3752 H 364.292 4.14938 3.59329 0
M  V30 3753 H 364.553 2.41577 3.7026 0
M  V30 3754 N 363.613 -0.582584 1.46437 0
M  V30 3755 C 364.861 -1.33814 1.51453 0
M  V30 3756 C 365.182 -1.94277 0.167792 0
M  V30 3757 O 364.452 -1.78566 -0.805677 0
M  V30 3758 H 363.032 -0.496838 0.557818 0
M  V30 3759 H 365.694 -0.682281 1.82568 0
M  V30 3760 H 364.79 -2.14479 2.26728 0
M  V30 3761 N 365.091 -1.34144 -0.827227 0
M  V30 3762 C 366.316 -1.29476 -1.62021 0
M  V30 3763 C 366.741 0.129292 -1.87655 0
M  V30 3764 O 366.099 1.08967 -1.449 0
M  V30 3765 C 366.147 -2.08702 -2.94068 0
M  V30 3766 O 365.251 -1.45359 -3.85933 0
M  V30 3767 H 364.592 -0.444881 -0.492927 0
M  V30 3768 H 367.122 -1.76882 -1.02829 0
M  V30 3769 H 367.132 -2.19898 -3.43669 0
M  V30 3770 H 365.807 -3.12241 -2.74734 0
M  V30 3771 H 364.384 -1.42879 -3.44442 0
M  V30 3772 N 366.569 1.04691 -1.17803 0
M  V30 3773 C 367.985 1.29963 -0.926379 0
M  V30 3774 C 368.185 1.97251 0.411635 0
M  V30 3775 O 367.241 2.24922 1.14744 0
M  V30 3776 C 368.554 2.16447 -2.08737 0
M  V30 3777 C 370.102 2.29814 -2.12496 0
M  V30 3778 C 370.577 3.19661 -3.27995 0
M  V30 3779 N 372.068 3.27247 -3.27816 0
M  V30 3780 C 372.803 3.96906 -4.13827 0
M  V30 3781 N 372.299 4.6895 -5.09959 0
M  V30 3782 N 374.092 3.93122 -4.01761 0
M  V30 3783 H 366.243 0.594182 -2.0392 0
M  V30 3784 H 368.506 0.324649 -0.890678 0
M  V30 3785 H 368.212 1.74304 -3.05469 0
M  V30 3786 H 368.086 3.17103 -2.04268 0
M  V30 3787 H 370.473 2.71196 -1.16347 0
M  V30 3788 H 370.554 1.2877 -2.21025 0
M  V30 3789 H 370.198 2.78991 -4.24413 0
M  V30 3790 H 370.128 4.20722 -3.16703 0
M  V30 3791 H 372.619 2.75921 -2.58217 0
M  V30 3792 H 372.932 5.19679 -5.71974 0
M  V30 3793 H 371.277 4.67875 -5.13924 0
M  V30 3794 H 374.468 3.35967 -3.2595 0
M  V30 3795 H 374.641 4.47139 -4.6901 0
M  V30 3796 N 368.047 0.979072 1.23499 0
M  V30 3797 C 369.295 0.645941 1.91499 0
M  V30 3798 C 369.616 -0.822948 1.76784 0
M  V30 3799 O 368.886 -1.58854 1.14639 0
M  V30 3800 H 367.466 0.235919 0.708767 0
M  V30 3801 H 370.128 1.2426 1.50152 0
M  V30 3802 H 369.224 0.896411 2.9895 0
M  V30 3803 N 369.525 -1.3858 0.750561 0
M  V30 3804 C 370.753 -2.04471 0.316098 0
M  V30 3805 C 371.168 -1.56606 -1.05452 0
M  V30 3806 O 370.525 -0.737784 -1.66922 0
M  V30 3807 C 370.576 -3.60025 0.326275 0
M  V30 3808 O 370.297 -4.06133 1.6428 0
M  V30 3809 C 371.798 -4.43131 -0.122429 0
M  V30 3810 H 369.018 -0.65717 0.135528 0
M  V30 3811 H 371.562 -1.77329 1.01857 0
M  V30 3812 H 369.717 -3.86014 -0.327431 0
M  V30 3813 H 370.131 -5.00547 1.56693 0
M  V30 3814 H 371.605 -5.51963 -0.0641473 0
M  V30 3815 H 372.082 -4.23333 -1.16988 0
M  V30 3816 H 372.688 -4.22323 0.50229 0
M  V30 3817 N 371.003 -0.499398 -1.49478 0
M  V30 3818 C 372.252 0.0475259 -2.01644 0
M  V30 3819 C 372.565 1.38195 -1.38425 0
M  V30 3820 O 373.771 2.01547 -1.8191 0
M  V30 3821 C 372.227 0.135164 -3.59646 0
M  V30 3822 C 371.835 -1.19252 -4.31837 0
M  V30 3823 C 373.579 0.632538 -4.19761 0
M  V30 3824 C 371.486 -1.06713 -5.81693 0
M  V30 3825 H 370.416 0.0215349 -0.753692 0
M  V30 3826 H 373.067 -0.638577 -1.7203 0
M  V30 3827 H 371.449 0.885681 -3.85969 0
M  V30 3828 H 372.623 -1.9562 -4.17216 0
M  V30 3829 H 370.938 -1.62321 -3.83459 0
M  V30 3830 H 373.535 0.743833 -5.29501 0
M  V30 3831 H 373.878 1.63098 -3.83021 0
M  V30 3832 H 374.411 -0.0613987 -3.97753 0
M  V30 3833 H 371.15 -2.03979 -6.22955 0
M  V30 3834 H 370.67 -0.344307 -5.98811 0
M  V30 3835 H 372.349 -0.745208 -6.42694 0
M  V30 3836 N 372.481 1.55866 -0.233164 0
M  V30 3837 C 373.391 2.24431 0.683217 0
M  V30 3838 C 374.407 1.2558 1.2044 0
M  V30 3839 O 375.583 1.58422 1.24356 0
M  V30 3840 C 372.648 2.91979 1.86947 0
M  V30 3841 C 371.709 4.06204 1.38912 0
M  V30 3842 C 370.942 4.70522 2.51883 0
M  V30 3843 O 371.165 4.33865 3.70293 0
M  V30 3844 O 370.099 5.59296 2.22423 0
M  V30 3845 H 373.925 3.03426 0.129059 0
M  V30 3846 H 371.51 1.494 -0.0022283 0
M  V30 3847 H 373.392 3.34573 2.56201 0
M  V30 3848 H 372.067 2.15935 2.41151 0
M  V30 3849 H 370.974 3.68155 0.664259 0
M  V30 3850 H 372.307 4.84025 0.893328 0
M  V30 3851 N 373.959 -0.0401083 1.57549 0
M  V30 3852 C 375.208 -0.732108 1.87944 0
M  V30 3853 C 375.521 -1.77107 0.830206 0
M  V30 3854 O 376.727 -2.51488 1.02302 0
M  V30 3855 C 375.183 -1.35315 3.33494 0
M  V30 3856 C 374.791 -0.351105 4.46622 0
M  V30 3857 C 376.535 -2.02566 3.73051 0
M  V30 3858 C 374.442 -0.979859 5.83226 0
M  V30 3859 H 373.372 -0.277188 0.701201 0
M  V30 3860 H 376.023 0.0138501 1.83495 0
M  V30 3861 H 374.405 -2.14844 3.32653 0
M  V30 3862 H 375.579 0.416674 4.58912 0
M  V30 3863 H 373.894 0.218708 4.15825 0
M  V30 3864 H 376.491 -2.50441 4.72423 0
M  V30 3865 H 376.834 -2.83904 3.04474 0
M  V30 3866 H 377.367 -1.29827 3.76018 0
M  V30 3867 H 374.106 -0.206135 6.55176 0
M  V30 3868 H 373.626 -1.71774 5.74677 0
M  V30 3869 H 375.305 -1.49046 6.29599 0
M  V30 3870 N 375.437 -1.54477 -0.31217 0
M  V30 3871 C 376.385 -1.85395 -1.40469 0
M  V30 3872 C 377.379 -0.726749 -1.53019 0
M  V30 3873 O 378.585 -0.910582 -1.55269 0
M  V30 3874 H 374.96 -0.587845 -0.46898 0
M  V30 3875 H 376.931 -2.76736 -1.11623 0
M  V30 3876 C 375.68 -2.10811 -2.76503 0
M  V30 3877 H 375.003 -2.97014 -2.67625 0
M  V30 3878 H 376.443 -2.3639 -3.51988 0
M  V30 3879 C 374.902 -0.903165 -3.24568 0
M  V30 3880 O 375.432 -0.118085 -4.01526 0
M  V30 3881 N 373.638 -0.711634 -2.81752 0
M  V30 3882 H 373.185 -1.35171 -2.19286 0
M  V30 3883 H 373.143 0.0930473 -3.14262 0
M  V30 3884 N 376.915 0.57481 -1.46744 0
M  V30 3885 C 378.326 1.15695 -1.46532 0
M  V30 3886 C 378.677 1.95068 -0.210425 0
M  V30 3887 O 377.802 2.05241 0.685944 0
M  V30 3888 C 378.397 2.1048 -2.65487 0
M  V30 3889 C 376.956 2.64002 -2.68291 0
M  V30 3890 C 376.103 1.40026 -2.39349 0
M  V30 3891 H 379.054 0.362325 -1.54509 0
M  V30 3892 H 379.075 2.94074 -2.41455 0
M  V30 3893 H 378.587 1.52683 -3.56805 0
M  V30 3894 H 376.688 3.25646 -1.81067 0
M  V30 3895 H 376.801 3.06197 -3.68483 0
M  V30 3896 H 375.165 1.70106 -1.89568 0
M  V30 3897 H 375.948 0.840485 -3.32852 0
M  V30 3898 N 378.394 1.34581 0.820102 0
M  V30 3899 C 379.81 1.14325 1.11364 0
M  V30 3900 C 380.01 -0.0533648 2.01429 0
M  V30 3901 O 379.066 -0.728044 2.41776 0
M  V30 3902 C 380.379 2.43983 1.75764 0
M  V30 3903 C 381.927 2.50065 1.88246 0
M  V30 3904 C 382.402 3.79732 2.56061 0
M  V30 3905 N 383.893 3.80908 2.63558 0
M  V30 3906 C 384.628 4.77961 3.16766 0
M  V30 3907 N 384.124 5.85397 3.70517 0
M  V30 3908 N 385.917 4.65413 3.15194 0
M  V30 3909 H 378.068 2.11246 0.221096 0
M  V30 3910 H 380.331 0.934289 0.160649 0
M  V30 3911 H 380.037 3.31651 1.1705 0
M  V30 3912 H 379.911 2.57531 2.75604 0
M  V30 3913 H 382.298 1.62834 2.46108 0
M  V30 3914 H 382.379 2.40442 0.873006 0
M  V30 3915 H 382.023 4.67354 1.98853 0
M  V30 3916 H 381.953 3.86639 3.57516 0
M  V30 3917 H 384.444 3.03274 2.25463 0
M  V30 3918 H 384.757 6.55463 4.09376 0
M  V30 3919 H 383.102 5.89107 3.68752 0
M  V30 3920 H 386.293 3.80627 2.72471 0
M  V30 3921 H 386.466 5.41216 3.56356 0
M  V30 3922 N 379.872 -1.04064 1.18357 0
M  V30 3923 C 381.149 -1.74252 0.888581 0
M  V30 3924 C 381.529 -2.02138 -0.60856 0
M  V30 3925 O 380.877 -1.66656 -1.56327 0
M  V30 3926 C 381.087 -3.0277 1.73584 0
M  V30 3927 C 382.435 -3.76506 1.96286 0
M  V30 3928 O 383.459 -3.12668 1.70637 0
M  V30 3929 O 382.318 -4.91243 2.39464 0
M  V30 3930 H 379.412 -0.758271 0.330082 0
M  V30 3931 H 381.958 -1.1013 1.2911 0
M  V30 3932 H 380.73 -2.78299 2.75073 0
M  V30 3933 H 380.353 -3.74631 1.33183 0
M  V30 3934 N 381.35 -0.985608 -1.22978 0
M  V30 3935 C 382.578 -0.675582 -1.95559 0
M  V30 3936 C 382.993 0.758413 -1.72897 0
M  V30 3937 O 382.35 1.51094 -1.02357 0
M  V30 3938 C 382.401 -0.96293 -3.48439 0
M  V30 3939 O 382.122 -2.34057 -3.70336 0
M  V30 3940 C 383.623 -0.669585 -4.38214 0
M  V30 3941 H 380.843 -0.250523 -0.622478 0
M  V30 3942 H 383.387 -1.3184 -1.56328 0
M  V30 3943 H 381.542 -0.366033 -3.85667 0
M  V30 3944 H 381.956 -2.43424 -4.64591 0
M  V30 3945 H 383.43 -0.920967 -5.44263 0
M  V30 3946 H 383.907 0.396383 -4.37408 0
M  V30 3947 H 384.513 -1.2472 -4.06602 0
M  V30 3948 N 382.828 1.3818 -0.7579 0
M  V30 3949 C 383.761 2.28055 -0.0814093 0
M  V30 3950 C 384.739 1.45603 0.723779 0
M  V30 3951 O 385.923 1.74961 0.701491 0
M  V30 3952 C 383.05 3.2676 0.891394 0
M  V30 3953 C 382.096 4.26153 0.171909 0
M  V30 3954 S 382.929 5.23434 -1.13035 0
M  V30 3955 C 384.085 6.25694 -0.160727 0
M  V30 3956 H 384.318 2.85082 -0.84353 0
M  V30 3957 H 381.851 1.44246 -0.550671 0
M  V30 3958 H 383.809 3.8414 1.44731 0
M  V30 3959 H 382.47 2.68706 1.62652 0
M  V30 3960 H 381.663 4.95738 0.908843 0
M  V30 3961 H 381.265 3.72691 -0.312606 0
M  V30 3962 H 383.557 6.74161 0.671773 0
M  V30 3963 H 384.5 7.03285 -0.824353 0
M  V30 3964 H 384.908 5.64064 0.221892 0
M  V30 3965 N 384.306 0.507319 1.49211 0
M  V30 3966 C 385.269 -0.256763 2.27757 0
M  V30 3967 C 386.269 -0.888287 1.34038 0
M  V30 3968 O 387.459 -0.751841 1.5714 0
M  V30 3969 C 384.591 -1.36905 3.12202 0
M  V30 3970 H 385.784 0.432557 2.96764 0
M  V30 3971 H 383.337 0.262488 1.5408 0
M  V30 3972 H 384.072 -2.09233 2.47775 0
M  V30 3973 H 383.857 -0.921599 3.81115 0
M  V30 3974 H 385.347 -1.9071 3.7151 0
M  V30 3975 N 385.784 -1.5574 0.241426 0
M  V30 3976 C 386.731 -2.21149 -0.660432 0
M  V30 3977 C 387.701 -1.17356 -1.17545 0
M  V30 3978 O 388.886 -1.45784 -1.23093 0
M  V30 3979 C 386.026 -2.91059 -1.85414 0
M  V30 3980 C 385.139 -4.09495 -1.37616 0
M  V30 3981 C 384.274 -4.67135 -2.529 0
M  V30 3982 C 383.313 -5.77831 -2.01936 0
M  V30 3983 N 382.45 -6.29677 -3.10566 0
M  V30 3984 H 387.29 -2.97845 -0.095955 0
M  V30 3985 H 384.827 -1.47057 -0.0356024 0
M  V30 3986 H 386.785 -3.29788 -2.5553 0
M  V30 3987 H 385.415 -2.16846 -2.39118 0
M  V30 3988 H 384.467 -3.76117 -0.569235 0
M  V30 3989 H 385.779 -4.89423 -0.962618 0
M  V30 3990 H 384.933 -5.08409 -3.31067 0
M  V30 3991 H 383.672 -3.86411 -2.97553 0
M  V30 3992 H 382.677 -5.36039 -1.22238 0
M  V30 3993 H 383.902 -6.60402 -1.58259 0
M  V30 3994 H 381.848 -5.5186 -3.54664 0
M  V30 3995 H 381.765 -7.04783 -2.73526 0
M  V30 3996 H 383.033 -6.75609 -3.88809 0
M  V30 3997 N 387.262 0.0317525 -1.57568 0
M  V30 3998 C 388.172 1.05021 -2.0978 0
M  V30 3999 C 389.188 1.39809 -1.03583 0
M  V30 4000 O 390.364 1.49182 -1.35302 0
M  V30 4001 C 387.429 2.33301 -2.56459 0
M  V30 4002 C 386.49 2.0512 -3.77127 0
M  V30 4003 C 385.723 3.27283 -4.2157 0
M  V30 4004 O 385.946 4.37861 -3.65559 0
M  V30 4005 O 384.88 3.13141 -5.14029 0
M  V30 4006 H 388.706 0.636505 -2.96955 0
M  V30 4007 H 386.291 0.248559 -1.47318 0
M  V30 4008 H 388.173 3.08722 -2.86825 0
M  V30 4009 H 386.848 2.73973 -1.72397 0
M  V30 4010 H 385.755 1.27276 -3.51784 0
M  V30 4011 H 387.088 1.69305 -4.62165 0
M  V30 4012 N 388.74 1.54641 0.303973 0
M  V30 4013 C 389.965 1.78092 1.06292 0
M  V30 4014 C 390.39 0.537342 1.80262 0
M  V30 4015 O 389.748 -0.511993 1.7392 0
M  V30 4016 C 389.796 2.98612 2.02147 0
M  V30 4017 O 388.9 2.71528 3.10397 0
M  V30 4018 H 388.241 0.589548 0.305497 0
M  V30 4019 H 390.771 2.01716 0.3423 0
M  V30 4020 H 390.781 3.265 2.44667 0
M  V30 4021 H 389.456 3.88785 1.47714 0
M  V30 4022 H 388.033 2.54648 2.72413 0
M  V30 4023 N 390.218 -0.567019 1.47046 0
M  V30 4024 C 391.443 -1.3551 1.57009 0
M  V30 4025 C 391.868 -1.86841 0.217259 0
M  V30 4026 O 391.226 -1.62435 -0.805268 0
M  V30 4027 C 391.274 -2.50777 2.5912 0
M  V30 4028 O 390.378 -3.52706 2.13711 0
M  V30 4029 H 389.719 -0.402919 0.52778 0
M  V30 4030 H 392.249 -0.686241 1.92748 0
M  V30 4031 H 392.259 -2.97481 2.79229 0
M  V30 4032 H 390.934 -2.12771 3.57353 0
M  V30 4033 H 389.511 -3.12374 2.03659 0
M  V30 4034 N 391.696 -1.35014 -0.812953 0
M  V30 4035 C 392.945 -1.27269 -1.56479 0
M  V30 4036 C 393.258 0.152771 -1.95002 0
M  V30 4037 O 394.464 0.352451 -2.69203 0
M  V30 4038 C 392.92 -2.23159 -2.82362 0
M  V30 4039 C 392.528 -3.71016 -2.511 0
M  V30 4040 C 394.272 -2.24342 -3.60376 0
M  V30 4041 C 392.179 -4.58746 -3.73237 0
M  V30 4042 H 391.109 -0.472829 -0.587324 0
M  V30 4043 H 393.76 -1.6024 -0.894171 0
M  V30 4044 H 392.142 -1.83151 -3.51101 0
M  V30 4045 H 393.316 -4.1962 -1.90409 0
M  V30 4046 H 391.631 -3.72378 -1.86343 0
M  V30 4047 H 394.228 -2.87107 -4.51081 0
M  V30 4048 H 394.571 -1.24542 -3.97234 0
M  V30 4049 H 395.104 -2.62846 -2.98591 0
M  V30 4050 H 391.843 -5.59521 -3.41492 0
M  V30 4051 H 391.363 -4.14871 -4.33176 0
M  V30 4052 H 393.042 -4.73852 -4.40537 0
M  V30 4053 N 393.175 1.03435 -1.18907 0
M  V30 4054 C 394.424 1.76143 -0.982669 0
M  V30 4055 C 394.737 1.89416 0.487953 0
M  V30 4056 O 395.943 2.59041 0.813036 0
M  V30 4057 C 394.399 3.16722 -1.70924 0
M  V30 4058 C 394.007 3.11522 -3.21959 0
M  V30 4059 C 395.751 3.93764 -1.58588 0
M  V30 4060 C 393.658 4.46999 -3.87228 0
M  V30 4061 H 392.588 0.660292 -0.364047 0
M  V30 4062 H 395.239 1.158 -1.42347 0
M  V30 4063 H 393.621 3.775 -1.19623 0
M  V30 4064 H 394.795 2.60158 -3.80335 0
M  V30 4065 H 393.11 2.47978 -3.34508 0
M  V30 4066 H 395.707 4.93963 -2.04707 0
M  V30 4067 H 396.05 4.12794 -0.539142 0
M  V30 4068 H 396.583 3.39576 -2.07203 0
M  V30 4069 H 393.322 4.33174 -4.91976 0
M  V30 4070 H 392.842 4.98441 -3.33642 0
M  V30 4071 H 394.521 5.15898 -3.90459 0
M  V30 4072 N 394.653 0.992116 1.22453 0
M  V30 4073 C 395.901 0.666215 1.90804 0
M  V30 4074 C 396.222 -0.804152 1.77647 0
M  V30 4075 O 395.492 -1.57629 1.16318 0
M  V30 4076 H 394.072 0.243423 0.706225 0
M  V30 4077 H 396.734 1.25845 1.48825 0
M  V30 4078 H 395.83 0.928069 2.97982 0
M  V30 4079 N 396.131 -1.37776 0.765217 0
M  V30 4080 C 397.377 -2.00145 0.327072 0
M  V30 4081 C 397.71 -1.60607 -1.09175 0
M  V30 4082 O 396.985 -0.849127 -1.74986 0
M  V30 4083 C 397.268 -3.57109 0.46319 0
M  V30 4084 C 397.121 -4.06576 1.92395 0
M  V30 4085 C 398.44 -4.39888 -0.136473 0
M  V30 4086 H 395.559 -0.727113 0.120316 0
M  V30 4087 H 398.201 -1.63549 0.967039 0
M  V30 4088 H 396.351 -3.88414 -0.0816358 0
M  V30 4089 H 398.023 -3.85864 2.52798 0
M  V30 4090 H 396.266 -3.59011 2.43503 0
M  V30 4091 H 396.937 -5.15639 1.97028 0
M  V30 4092 H 399.413 -4.14803 0.328317 0
M  V30 4093 H 398.289 -5.48899 -0.0110582 0
M  V30 4094 H 398.55 -4.24758 -1.22608 0
M  V30 4095 N 397.609 -0.515225 -1.4894 0
M  V30 4096 C 398.837 0.0206034 -2.0689 0
M  V30 4097 C 399.252 1.29514 -1.37374 0
M  V30 4098 O 398.609 1.76698 -0.456529 0
M  V30 4099 C 398.66 0.26351 -3.60538 0
M  V30 4100 O 398.381 -0.960517 -4.27441 0
M  V30 4101 C 399.882 0.841383 -4.35242 0
M  V30 4102 H 397.102 -0.0268608 -0.670462 0
M  V30 4103 H 399.646 -0.716651 -1.91532 0
M  V30 4104 H 397.801 0.950777 -3.75552 0
M  V30 4105 H 398.215 -0.73212 -5.19365 0
M  V30 4106 H 399.689 0.96085 -5.43573 0
M  V30 4107 H 400.166 1.8427 -3.98674 0
M  V30 4108 H 400.772 0.191143 -4.2487 0
M  V30 4109 N 399.087 1.5561 -0.249682 0
M  V30 4110 C 400.017 2.24477 0.642826 0
M  V30 4111 C 400.998 1.22601 1.17911 0
M  V30 4112 O 402.183 1.5126 1.21795 0
M  V30 4113 C 399.313 2.94638 1.83863 0
M  V30 4114 C 398.267 4.03227 1.435 0
M  V30 4115 C 397.593 4.60828 2.71186 0
M  V30 4116 C 398.893 5.18796 0.604002 0
M  V30 4117 H 400.587 2.99321 0.0685625 0
M  V30 4118 H 398.133 1.43965 0.0315363 0
M  V30 4119 H 400.086 3.41517 2.46868 0
M  V30 4120 H 398.81 2.17287 2.43832 0
M  V30 4121 H 397.469 3.57121 0.828275 0
M  V30 4122 H 397.117 3.80174 3.29358 0
M  V30 4123 H 396.817 5.34132 2.44901 0
M  V30 4124 H 398.341 5.10442 3.35084 0
M  V30 4125 H 399.755 5.61883 1.13842 0
M  V30 4126 H 398.152 5.98506 0.437097 0
M  V30 4127 H 399.222 4.83384 -0.383147 0
M  V30 4128 N 400.565 -0.0233959 1.57583 0
M  V30 4129 C 401.812 -0.713063 1.8953 0
M  V30 4130 C 402.14 -1.75056 0.847673 0
M  V30 4131 O 401.395 -1.95119 -0.150636 0
M  V30 4132 C 401.694 -1.41428 3.28227 0
M  V30 4133 C 401.36 -0.512222 4.47981 0
M  V30 4134 C 400.022 -0.263785 4.80476 0
M  V30 4135 C 402.374 0.110248 5.21083 0
M  V30 4136 C 399.702 0.615804 5.83459 0
M  V30 4137 C 402.054 0.977573 6.25001 0
M  V30 4138 C 400.718 1.23542 6.55968 0
M  V30 4139 H 399.988 -0.260928 0.69354 0
M  V30 4140 H 402.635 0.0271047 1.91481 0
M  V30 4141 H 400.94 -2.22791 3.22291 0
M  V30 4142 H 402.637 -1.95355 3.50196 0
M  V30 4143 H 399.227 -0.716013 4.22577 0
M  V30 4144 H 403.411 -0.0687137 4.96252 0
M  V30 4145 H 398.667 0.82382 6.05824 0
M  V30 4146 H 402.841 1.46638 6.80786 0
M  V30 4147 H 400.468 1.91871 7.35588 0
M  V30 4148 N 402.043 -1.548 -0.295768 0
M  V30 4149 C 403.268 -1.78653 -1.05346 0
M  V30 4150 C 403.693 -0.546894 -1.79974 0
M  V30 4151 O 403.051 0.502763 -1.7419 0
M  V30 4152 C 403.099 -2.99679 -2.00561 0
M  V30 4153 O 402.203 -2.7317 -3.08953 0
M  V30 4154 H 401.544 -0.59116 -0.302367 0
M  V30 4155 H 404.074 -2.01895 -0.331598 0
M  V30 4156 H 404.084 -3.27793 -2.42932 0
M  V30 4157 H 402.759 -3.89562 -1.4565 0
M  V30 4158 H 401.336 -2.56089 -2.71059 0
M  V30 4159 N 403.521 0.559213 -1.47345 0
M  V30 4160 C 404.746 1.34676 -1.57725 0
M  V30 4161 C 405.171 1.86723 -0.227164 0
M  V30 4162 O 404.529 1.6286 0.796642 0
M  V30 4163 C 404.577 2.49399 -2.60447 0
M  V30 4164 O 403.681 3.51567 -2.15578 0
M  V30 4165 H 403.022 0.400115 -0.52991 0
M  V30 4166 H 405.552 0.676009 -1.93109 0
M  V30 4167 H 405.562 2.95996 -2.80803 0
M  V30 4168 H 404.237 2.10873 -3.58477 0
M  V30 4169 H 402.814 3.11289 -2.05313 0
M  V30 4170 N 404.999 1.35443 0.805782 0
M  V30 4171 C 406.227 1.31878 1.59423 0
M  V30 4172 C 406.642 -0.103562 1.88516 0
M  V30 4173 O 405.999 -1.05575 1.48863 0
M  V30 4174 C 406.05 2.12426 2.92502 0
M  V30 4175 O 405.771 3.49115 2.6467 0
M  V30 4176 C 407.272 2.16455 3.86862 0
M  V30 4177 H 404.492 0.453002 0.495005 0
M  V30 4178 H 407.036 1.78309 1.00131 0
M  V30 4179 H 405.191 1.69593 3.48306 0
M  V30 4180 H 405.605 3.90957 3.49647 0
M  V30 4181 H 407.079 2.77204 4.77349 0
M  V30 4182 H 407.556 1.16352 4.23508 0
M  V30 4183 H 408.162 2.59453 3.36993 0
M  V30 4184 N 406.477 -1.02803 1.19454 0
M  V30 4185 C 407.424 -2.11099 0.933046 0
M  V30 4186 C 408.394 -1.65571 -0.132447 0
M  V30 4187 O 409.579 -1.90797 0.00987576 0
M  V30 4188 C 406.719 -3.41763 0.478747 0
M  V30 4189 C 405.832 -4.00833 1.6111 0
M  V30 4190 C 404.967 -5.19511 1.10825 0
M  V30 4191 C 404.006 -5.70639 2.21445 0
M  V30 4192 N 403.143 -6.80589 1.72461 0
M  V30 4193 H 407.983 -2.32804 1.86028 0
M  V30 4194 H 405.52 -1.14179 0.927441 0
M  V30 4195 H 407.478 -4.16736 0.196745 0
M  V30 4196 H 406.108 -3.20166 -0.411493 0
M  V30 4197 H 405.16 -3.23066 2.00829 0
M  V30 4198 H 406.472 -4.34794 2.4445 0
M  V30 4199 H 405.626 -6.01645 0.781533 0
M  V30 4200 H 404.365 -4.87086 0.244606 0
M  V30 4201 H 403.37 -4.87116 2.54947 0
M  V30 4202 H 404.595 -6.05102 3.08267 0
M  V30 4203 H 402.541 -6.50016 0.884056 0
M  V30 4204 H 402.458 -7.13681 2.49389 0
M  V30 4205 H 403.726 -7.66317 1.42755 0
M  V30 4206 N 407.956 -0.998596 -1.21925 0
M  V30 4207 C 408.866 -0.562736 -2.27751 0
M  V30 4208 C 409.882 0.391203 -1.69545 0
M  V30 4209 O 411.058 0.256625 -1.99758 0
M  V30 4210 C 408.123 0.11012 -3.46525 0
M  V30 4211 C 407.184 -0.887495 -4.20026 0
M  V30 4212 C 406.417 -0.246654 -5.3313 0
M  V30 4213 O 406.64 0.958088 -5.62296 0
M  V30 4214 O 405.574 -0.954374 -5.94286 0
M  V30 4215 H 409.4 -1.44329 -2.67213 0
M  V30 4216 H 406.985 -0.767135 -1.28201 0
M  V30 4217 H 408.867 0.486756 -4.18579 0
M  V30 4218 H 407.542 0.965154 -3.08976 0
M  V30 4219 H 406.449 -1.31517 -3.5022 0
M  V30 4220 H 407.782 -1.71191 -4.6147 0
M  V30 4221 N 409.434 1.37368 -0.772513 0
M  V30 4222 C 410.344 2.34053 -0.160081 0
M  V30 4223 C 411.36 1.60216 0.678728 0
M  V30 4224 O 412.536 1.92303 0.59847 0
M  V30 4225 C 409.601 3.3939 0.708182 0
M  V30 4226 C 408.662 4.29048 -0.147172 0
M  V30 4227 C 407.895 5.29354 0.679744 0
M  V30 4228 O 408.118 5.3723 1.91678 0
M  V30 4229 O 407.052 6.01835 0.0885444 0
M  V30 4230 H 410.878 2.88159 -0.959053 0
M  V30 4231 H 408.463 1.39543 -0.533685 0
M  V30 4232 H 410.345 4.03839 1.20384 0
M  V30 4233 H 409.02 2.8761 1.48533 0
M  V30 4234 H 407.927 3.67697 -0.689205 0
M  V30 4235 H 409.26 4.84134 -0.887423 0
M  V30 4236 N 410.912 0.523116 1.48665 0
M  V30 4237 C 412.159 -0.0134763 2.02496 0
M  V30 4238 C 412.487 -1.3493 1.40086 0
M  V30 4239 O 411.742 -1.88286 0.533567 0
M  V30 4240 C 412.041 -0.191671 3.56886 0
M  V30 4241 C 411.707 1.06893 4.38046 0
M  V30 4242 C 410.369 1.41443 4.59943 0
M  V30 4243 C 412.721 1.90584 4.85106 0
M  V30 4244 C 410.049 2.59594 5.26144 0
M  V30 4245 C 412.401 3.07907 5.52609 0
M  V30 4246 C 411.065 3.42811 5.72745 0
M  V30 4247 H 410.335 -0.00493133 0.740984 0
M  V30 4248 H 412.982 0.687751 1.78724 0
M  V30 4249 H 411.287 -0.97561 3.79459 0
M  V30 4250 H 412.984 -0.621659 3.96152 0
M  V30 4251 H 409.574 0.789848 4.21259 0
M  V30 4252 H 413.758 1.65203 4.67997 0
M  V30 4253 H 409.014 2.86847 5.39934 0
M  V30 4254 H 413.188 3.73066 5.88043 0
M  V30 4255 H 410.815 4.34462 6.23816 0
M  V30 4256 N 412.39 -1.55475 0.257931 0
M  V30 4257 C 413.322 -2.19192 -0.669881 0
M  V30 4258 C 414.335 -1.17148 -1.1305 0
M  V30 4259 O 415.524 -1.43959 -1.05537 0
M  V30 4260 C 412.624 -2.79016 -1.92363 0
M  V30 4261 C 411.797 -4.06586 -1.61265 0
M  V30 4262 C 410.856 -4.50622 -2.7171 0
M  V30 4263 O 409.882 -5.16765 -2.38627 0
M  V30 4264 N 411.084 -4.19325 -4.01431 0
M  V30 4265 H 413.849 -2.99441 -0.124635 0
M  V30 4266 H 411.41 -1.6171 0.0783311 0
M  V30 4267 H 413.402 -3.05427 -2.65511 0
M  V30 4268 H 411.972 -2.0286 -2.37837 0
M  V30 4269 H 411.192 -3.87646 -0.715811 0
M  V30 4270 H 412.48 -4.89737 -1.37967 0
M  V30 4271 H 411.878 -3.66247 -4.31138 0
M  V30 4272 H 410.435 -4.50547 -4.7101 0
M  V30 4273 N 413.868 0.0150385 -1.57593 0
M  V30 4274 C 414.8 1.03912 -2.04291 0
M  V30 4275 C 415.813 1.31618 -0.958146 0
M  V30 4276 O 417.002 1.28859 -1.23522 0
M  V30 4277 C 414.102 2.37749 -2.41514 0
M  V30 4278 C 413.275 2.29198 -3.72541 0
M  V30 4279 C 412.334 3.45598 -3.96797 0
M  V30 4280 O 411.36 3.24461 -4.67668 0
M  V30 4281 N 412.562 4.67945 -3.43523 0
M  V30 4282 H 415.327 0.64099 -2.92765 0
M  V30 4283 H 412.888 0.20272 -1.60626 0
M  V30 4284 H 414.88 3.14364 -2.54867 0
M  V30 4285 H 413.45 2.69357 -1.58637 0
M  V30 4286 H 412.67 1.3759 -3.69408 0
M  V30 4287 H 413.958 2.20642 -4.5847 0
M  V30 4288 H 413.356 4.88017 -2.86104 0
M  V30 4289 H 411.913 5.41878 -3.62232 0
M  V30 4290 N 415.346 1.54954 0.287554 0
M  V30 4291 C 416.576 1.78622 1.03816 0
M  V30 4292 C 416.984 0.552451 1.80955 0
M  V30 4293 O 416.327 -0.487665 1.77109 0
M  V30 4294 C 416.389 2.94975 2.055 0
M  V30 4295 C 416.053 4.32565 1.47433 0
M  V30 4296 C 417.05 5.12096 0.897436 0
M  V30 4297 C 414.735 4.79195 1.50591 0
M  V30 4298 C 416.729 6.36383 0.359851 0
M  V30 4299 C 414.416 6.03441 0.964459 0
M  V30 4300 C 415.414 6.81872 0.392413 0
M  V30 4301 O 415.102 8.03777 -0.140788 0
M  V30 4302 H 414.834 0.599144 0.313053 0
M  V30 4303 H 417.388 2.02761 0.328225 0
M  V30 4304 H 415.618 2.66493 2.80211 0
M  V30 4305 H 417.307 3.06097 2.6657 0
M  V30 4306 H 418.073 4.77209 0.865841 0
M  V30 4307 H 413.952 4.18167 1.94055 0
M  V30 4308 H 417.496 6.97545 -0.0872951 0
M  V30 4309 H 413.393 6.37813 0.993246 0
M  V30 4310 H 414.161 8.18495 -0.0287617 0
M  V30 4311 N 416.824 -0.551391 1.4764 0
M  V30 4312 C 417.787 -1.64007 1.60107 0
M  V30 4313 C 418.787 -1.53601 0.47576 0
M  V30 4314 O 419.977 -1.57655 0.740988 0
M  V30 4315 C 417.109 -3.03569 1.55108 0
M  V30 4316 H 418.302 -1.543 2.57161 0
M  V30 4317 H 415.855 -0.771776 1.35917 0
M  V30 4318 H 416.59 -3.18804 0.594519 0
M  V30 4319 H 416.375 -3.12532 2.36783 0
M  V30 4320 H 417.865 -3.82762 1.66982 0
M  V30 4321 N 418.302 -1.35869 -0.798587 0
M  V30 4322 C 419.265 -1.29307 -1.89242 0
M  V30 4323 C 420.265 -0.202747 -1.59517 0
M  V30 4324 O 421.455 -0.456957 -1.681 0
M  V30 4325 C 418.587 -1.00229 -3.25833 0
M  V30 4326 H 419.78 -2.26576 -1.96478 0
M  V30 4327 H 417.333 -1.20509 -0.995358 0
M  V30 4328 H 418.068 -0.033801 -3.24282 0
M  V30 4329 H 417.853 -1.79121 -3.48795 0
M  V30 4330 H 419.343 -0.98219 -4.05885 0
M  V30 4331 N 419.78 1.02168 -1.19998 0
M  V30 4332 C 420.743 2.08765 -0.94604 0
M  V30 4333 C 421.743 1.60618 0.0763846 0
M  V30 4334 O 422.933 1.73472 -0.159135 0
M  V30 4335 C 420.065 3.38262 -0.423255 0
M  V30 4336 H 421.258 2.32726 -1.89153 0
M  V30 4337 H 418.811 1.1889 -1.01464 0
M  V30 4338 H 419.546 3.19974 0.527938 0
M  V30 4339 H 419.331 3.74532 -1.16053 0
M  V30 4340 H 420.821 4.16759 -0.264911 0
M  V30 4341 N 421.258 1.00505 1.21394 0
M  V30 4342 C 422.188 0.585684 2.26035 0
M  V30 4343 C 423.169 -0.393525 1.65485 0
M  V30 4344 O 424.354 -0.281497 1.92149 0
M  V30 4345 C 421.484 -0.0884283 3.47187 0
M  V30 4346 C 420.438 0.810567 4.20254 0
M  V30 4347 C 419.764 0.00286382 5.347 0
M  V30 4348 C 421.064 2.1132 4.77641 0
M  V30 4349 H 422.758 1.46039 2.61368 0
M  V30 4350 H 420.304 0.703648 1.25638 0
M  V30 4351 H 422.257 -0.393286 4.19561 0
M  V30 4352 H 420.981 -0.997766 3.10986 0
M  V30 4353 H 419.64 1.09925 3.49731 0
M  V30 4354 H 419.288 -0.907765 4.94741 0
M  V30 4355 H 418.988 0.601444 5.84514 0
M  V30 4356 H 420.512 -0.295808 6.09883 0
M  V30 4357 H 421.926 1.87148 5.41893 0
M  V30 4358 H 420.323 2.66164 5.37845 0
M  V30 4359 H 421.393 2.78393 3.9702 0
M  V30 4360 N 422.737 -1.36956 0.779787 0
M  V30 4361 C 423.669 -2.28833 0.129639 0
M  V30 4362 C 424.682 -1.4902 -0.655511 0
M  V30 4363 O 425.871 -1.71578 -0.492279 0
M  V30 4364 C 422.971 -3.2833 -0.839792 0
M  V30 4365 C 422.144 -4.3727 -0.10675 0
M  V30 4366 C 421.203 -5.16789 -0.990717 0
M  V30 4367 O 420.229 -5.67406 -0.451516 0
M  V30 4368 N 421.431 -5.32294 -2.3161 0
M  V30 4369 H 424.196 -2.85268 0.918803 0
M  V30 4370 H 421.757 -1.49019 0.632841 0
M  V30 4371 H 423.749 -3.78413 -1.43477 0
M  V30 4372 H 422.319 -2.72605 -1.52988 0
M  V30 4373 H 421.539 -3.88478 0.669216 0
M  V30 4374 H 422.827 -5.07229 0.399464 0
M  V30 4375 H 422.225 -4.92768 -2.77843 0
M  V30 4376 H 420.782 -5.85656 -2.86095 0
M  V30 4377 N 424.215 -0.530993 -1.48385 0
M  V30 4378 C 425.178 0.220497 -2.28137 0
M  V30 4379 C 426.178 0.866851 -1.35434 0
M  V30 4380 O 427.368 0.726746 -1.58316 0
M  V30 4381 C 424.5 1.31921 -3.1434 0
M  V30 4382 H 425.693 -0.479714 -2.96038 0
M  V30 4383 H 423.246 -0.286968 -1.53643 0
M  V30 4384 H 423.981 2.05264 -2.51072 0
M  V30 4385 H 423.766 0.86085 -3.82533 0
M  V30 4386 H 425.256 1.84776 -3.74497 0
M  V30 4387 N 425.693 1.55336 -0.266172 0
M  V30 4388 C 426.941 1.99003 0.35246 0
M  V30 4389 C 427.262 1.15591 1.57047 0
M  V30 4390 O 426.532 0.243268 1.94384 0
M  V30 4391 H 425.112 0.735025 0.133217 0
M  V30 4392 H 427.774 1.91367 -0.369434 0
M  V30 4393 H 426.87 3.05289 0.648453 0
M  V30 4394 N 427.171 -0.0066808 1.57599 0
M  V30 4395 C 428.104 -1.03397 2.03431 0
M  V30 4396 C 429.082 -1.33872 0.922877 0
M  V30 4397 O 430.266 -1.4615 1.19048 0
M  V30 4398 C 427.393 -2.36325 2.42628 0
M  V30 4399 C 426.439 -2.21557 3.64438 0
M  V30 4400 S 427.272 -1.54789 5.12641 0
M  V30 4401 C 428.428 -2.8916 5.55101 0
M  V30 4402 H 428.661 -0.643687 2.90248 0
M  V30 4403 H 426.194 -0.217349 1.52863 0
M  V30 4404 H 428.152 -3.12759 2.65879 0
M  V30 4405 H 426.813 -2.72495 1.56222 0
M  V30 4406 H 426.006 -3.1974 3.89592 0
M  V30 4407 H 425.608 -1.53267 3.41153 0
M  V30 4408 H 427.9 -3.8547 5.57153 0
M  V30 4409 H 428.843 -2.68713 6.55133 0
M  V30 4410 H 429.251 -2.92762 4.82649 0
M  V30 4411 N 428.649 -1.55105 -0.279332 0
M  V30 4412 C 429.559 -1.90638 -1.36727 0
M  V30 4413 C 430.575 -0.802899 -1.54368 0
M  V30 4414 O 431.751 -1.10138 -1.68616 0
M  V30 4415 C 428.816 -2.16547 -2.70755 0
M  V30 4416 C 427.877 -3.40146 -2.61915 0
M  V30 4417 C 427.11 -3.6481 -3.8955 0
M  V30 4418 O 427.333 -2.92095 -4.89935 0
M  V30 4419 O 426.267 -4.58343 -3.90135 0
M  V30 4420 H 430.093 -2.83237 -1.09591 0
M  V30 4421 H 427.678 -1.4157 -0.477306 0
M  V30 4422 H 429.56 -2.34665 -3.50014 0
M  V30 4423 H 428.235 -1.27131 -2.9769 0
M  V30 4424 H 427.142 -3.2737 -1.81052 0
M  V30 4425 H 428.475 -4.29761 -2.3993 0
M  V30 4426 N 430.127 0.543554 -1.4793 0
M  V30 4427 C 431.376 1.29649 -1.54512 0
M  V30 4428 C 431.689 1.94382 -0.217973 0
M  V30 4429 O 432.895 2.71017 -0.161908 0
M  V30 4430 C 431.351 2.35175 -2.72435 0
M  V30 4431 C 430.959 1.76572 -4.11736 0
M  V30 4432 C 432.703 3.11564 -2.8832 0
M  V30 4433 C 430.61 2.79958 -5.20939 0
M  V30 4434 H 429.54 0.487541 -0.57517 0
M  V30 4435 H 432.191 0.575708 -1.74235 0
M  V30 4436 H 430.573 3.10229 -2.46118 0
M  V30 4437 H 431.747 1.07799 -4.48013 0
M  V30 4438 H 430.062 1.12722 -4.00852 0
M  V30 4439 H 432.659 3.88794 -3.67074 0
M  V30 4440 H 433.002 3.66594 -1.97268 0
M  V30 4441 H 433.535 2.43623 -3.14472 0
M  V30 4442 H 430.274 2.29766 -6.13912 0
M  V30 4443 H 429.794 3.47101 -4.89164 0
M  V30 4444 H 431.473 3.43198 -5.48474 0
M  V30 4445 N 431.605 1.3629 0.791371 0
M  V30 4446 C 432.853 1.30154 1.5461 0
M  V30 4447 C 433.174 -0.119409 1.94634 0
M  V30 4448 O 432.444 -1.05924 1.64794 0
M  V30 4449 H 431.024 0.478784 0.573389 0
M  V30 4450 H 433.686 1.70565 0.94306 0
M  V30 4451 H 432.782 1.92762 2.45457 0
M  V30 4452 N 433.083 -1.0153 1.20538 0
M  V30 4453 C 434.329 -1.75517 1.02787 0
M  V30 4454 C 434.684 -1.87411 -0.435289 0
M  V30 4455 O 433.977 -1.38982 -1.31889 0
M  V30 4456 C 434.171 -3.17213 1.64654 0
M  V30 4457 C 434 -3.19134 3.16834 0
M  V30 4458 C 432.77 -3.26301 3.85818 0
M  V30 4459 C 434.968 -3.05077 4.14044 0
M  V30 4460 N 432.95 -3.17739 5.25276 0
M  V30 4461 C 434.321 -3.04299 5.40187 0
M  V30 4462 C 436.376 -2.89303 4.05226 0
M  V30 4463 C 435.079 -2.89365 6.58529 0
M  V30 4464 C 437.105 -2.75723 5.23193 0
M  V30 4465 C 436.467 -2.75612 6.48242 0
M  V30 4466 H 432.566 -0.652919 0.430373 0
M  V30 4467 H 435.15 -1.20755 1.52729 0
M  V30 4468 H 433.321 -3.70266 1.17294 0
M  V30 4469 H 435.053 -3.79637 1.40208 0
M  V30 4470 H 431.808 -3.33078 3.36684 0
M  V30 4471 H 432.232 -3.16829 5.98288 0
M  V30 4472 H 436.874 -2.88201 3.09354 0
M  V30 4473 H 434.592 -2.89216 7.54573 0
M  V30 4474 H 438.178 -2.64533 5.18183 0
M  V30 4475 H 437.058 -2.65224 7.37988 0
M  V30 4476 N 434.561 -1.01147 -1.20859 0
M  V30 4477 C 435.491 -0.597663 -2.25722 0
M  V30 4478 C 436.472 0.384744 -1.65692 0
M  V30 4479 O 437.657 0.271303 -1.92296 0
M  V30 4480 C 434.787 0.0700149 -3.47229 0
M  V30 4481 C 433.741 -0.832843 -4.19819 0
M  V30 4482 C 433.067 -0.0312202 -5.34691 0
M  V30 4483 C 434.367 -2.1385 -4.76514 0
M  V30 4484 H 436.061 -1.47423 -2.60589 0
M  V30 4485 H 433.607 -0.710301 -1.25263 0
M  V30 4486 H 435.56 0.37103 -4.19763 0
M  V30 4487 H 434.284 0.981259 -3.11511 0
M  V30 4488 H 432.943 -1.11778 -3.49144 0
M  V30 4489 H 432.591 0.881515 -4.95215 0
M  V30 4490 H 432.291 -0.632434 -5.84187 0
M  V30 4491 H 433.815 0.26346 -6.10031 0
M  V30 4492 H 435.229 -1.9002 -5.40893 0
M  V30 4493 H 433.626 -2.69012 -5.36426 0
M  V30 4494 H 434.696 -2.80495 -3.95538 0
M  V30 4495 N 436.039 1.36541 -0.78704 0
M  V30 4496 C 436.986 2.30082 -0.181901 0
M  V30 4497 C 437.956 1.5186 0.672896 0
M  V30 4498 O 439.141 1.80374 0.622072 0
M  V30 4499 C 436.281 3.3835 0.679197 0
M  V30 4500 C 435.394 4.31565 -0.193882 0
M  V30 4501 C 434.529 5.26915 0.673364 0
M  V30 4502 C 433.568 6.11769 -0.201315 0
M  V30 4503 N 432.705 6.99315 0.624777 0
M  V30 4504 H 437.545 2.81248 -0.985064 0
M  V30 4505 H 435.082 1.38437 -0.497342 0
M  V30 4506 H 437.04 3.99767 1.19341 0
M  V30 4507 H 435.67 2.8851 1.44781 0
M  V30 4508 H 434.722 3.71323 -0.826044 0
M  V30 4509 H 436.034 4.91191 -0.867937 0
M  V30 4510 H 435.188 5.9361 1.25348 0
M  V30 4511 H 433.927 4.67737 1.38105 0
M  V30 4512 H 432.932 5.44039 -0.793849 0
M  V30 4513 H 434.157 6.73022 -0.906568 0
M  V30 4514 H 432.103 6.42648 1.3168 0
M  V30 4515 H 432.02 7.56 0.00835237 0
M  V30 4516 H 433.288 7.70382 1.18879 0
M  V30 4517 N 437.518 0.538854 1.48102 0
M  V30 4518 C 438.929 0.100679 1.86428 0
M  V30 4519 C 439.28 -1.32447 1.44749 0
M  V30 4520 O 438.405 -1.99339 0.842199 0
M  V30 4521 C 439 0.175933 3.38343 0
M  V30 4522 C 437.559 -0.207098 3.7583 0
M  V30 4523 C 436.706 0.531741 2.72154 0
M  V30 4524 H 439.657 0.749614 1.3988 0
M  V30 4525 H 439.678 -0.610144 3.75576 0
M  V30 4526 H 439.19 1.21328 3.68648 0
M  V30 4527 H 437.291 -1.24626 3.5114 0
M  V30 4528 H 437.404 0.138687 4.78899 0
M  V30 4529 H 435.768 -0.0230462 2.5469 0
M  V30 4530 H 436.551 1.56989 3.05302 0
M  V30 4531 N 438.996 -1.55193 0.274407 0
M  V30 4532 C 440.242 -1.99877 -0.343086 0
M  V30 4533 C 440.575 -1.16256 -1.55558 0
M  V30 4534 O 439.85 -0.232462 -1.93106 0
M  V30 4535 C 440.133 -3.52706 -0.725965 0
M  V30 4536 C 439.986 -4.47081 0.493818 0
M  V30 4537 C 441.305 -4.11422 -1.56268 0
M  V30 4538 H 438.424 -0.726625 -0.123229 0
M  V30 4539 H 441.066 -1.86136 0.38121 0
M  V30 4540 H 439.216 -3.64546 -1.34307 0
M  V30 4541 H 440.888 -4.47186 1.13237 0
M  V30 4542 H 439.131 -4.1877 1.13201 0
M  V30 4543 H 439.802 -5.51699 0.18217 0
M  V30 4544 H 442.278 -4.02855 -1.04151 0
M  V30 4545 H 441.154 -5.18568 -1.79939 0
M  V30 4546 H 441.415 -3.61607 -2.54348 0
M  V30 4547 N 440.474 -0.00167713 -1.576 0
M  V30 4548 C 441.723 0.682021 -1.89819 0
M  V30 4549 C 442.036 1.74844 -0.876871 0
M  V30 4550 O 443.242 2.48688 -1.08934 0
M  V30 4551 C 441.698 1.26425 -3.36964 0
M  V30 4552 C 441.306 0.232568 -4.47396 0
M  V30 4553 C 443.05 1.92604 -3.78291 0
M  V30 4554 C 440.957 0.824882 -5.85619 0
M  V30 4555 H 439.887 0.258499 -0.708304 0
M  V30 4556 H 442.538 -0.0624957 -1.83394 0
M  V30 4557 H 440.92 2.05949 -3.38232 0
M  V30 4558 H 442.094 -0.5382 -4.57646 0
M  V30 4559 H 440.409 -0.32888 -4.15099 0
M  V30 4560 H 443.006 2.37827 -4.78897 0
M  V30 4561 H 443.349 2.75732 -3.11894 0
M  V30 4562 H 443.882 1.19812 -3.79328 0
M  V30 4563 H 440.621 0.0323542 -6.55492 0
M  V30 4564 H 440.141 1.56477 -5.79029 0
M  V30 4565 H 441.82 1.32301 -6.33329 0
M  V30 4566 N 441.952 1.55251 0.271103 0
M  V30 4567 C 443.2 1.75599 1.00047 0
M  V30 4568 C 443.521 0.561188 1.8675 0
M  V30 4569 O 442.791 -0.423846 1.9126 0
M  V30 4570 H 441.371 0.647562 0.372387 0
M  V30 4571 H 444.033 1.92656 0.294876 0
M  V30 4572 H 443.129 2.65766 1.6363 0
M  V30 4573 N 443.43 -0.535701 1.48216 0
M  V30 4574 C 444.655 -1.32149 1.59848 0
M  V30 4575 C 445.08 -1.86338 0.256842 0
M  V30 4576 O 444.438 -1.64107 -0.770632 0
M  V30 4577 C 444.486 -2.45224 2.64381 0
M  V30 4578 O 443.59 -3.48093 2.21144 0
M  V30 4579 H 442.931 -0.391634 0.536208 0
M  V30 4580 H 445.461 -0.645202 1.94161 0
M  V30 4581 H 445.471 -2.91491 2.85476 0
M  V30 4582 H 444.146 -2.05143 3.61786 0
M  V30 4583 H 442.723 -3.07984 2.10239 0
M  V30 4584 N 444.908 -1.36708 -0.784132 0
M  V30 4585 C 445.84 -1.27333 -1.90575 0
M  V30 4586 C 446.853 -0.191706 -1.61667 0
M  V30 4587 O 448.042 -0.446854 -1.72816 0
M  V30 4588 C 445.142 -0.943177 -3.25511 0
M  V30 4589 C 444.315 -2.12776 -3.82158 0
M  V30 4590 C 443.374 -1.76983 -4.95544 0
M  V30 4591 O 442.4 -2.49134 -5.11782 0
M  V30 4592 N 443.602 -0.706624 -5.76183 0
M  V30 4593 H 446.367 -2.23974 -1.99138 0
M  V30 4594 H 443.928 -1.30171 -0.962656 0
M  V30 4595 H 445.92 -0.684799 -3.98864 0
M  V30 4596 H 444.49 -0.0657333 -3.12531 0
M  V30 4597 H 443.71 -2.54863 -3.0073 0
M  V30 4598 H 444.998 -2.91904 -4.16737 0
M  V30 4599 H 444.396 -0.107643 -5.65598 0
M  V30 4600 H 442.953 -0.50808 -6.49817 0
M  V30 4601 N 446.386 1.0089 -1.21074 0
M  V30 4602 C 447.616 1.77933 -1.04993 0
M  V30 4603 C 448.024 1.84847 0.403495 0
M  V30 4604 O 447.367 1.30606 1.29181 0
M  V30 4605 C 447.429 3.23541 -1.56722 0
M  V30 4606 C 447.093 3.40214 -3.05129 0
M  V30 4607 C 448.09 3.2881 -4.02716 0
M  V30 4608 C 445.775 3.65781 -3.44252 0
M  V30 4609 C 447.769 3.42732 -5.37414 0
M  V30 4610 C 445.456 3.79346 -4.79103 0
M  V30 4611 C 446.454 3.67827 -5.75493 0
M  V30 4612 O 446.142 3.80965 -7.07899 0
M  V30 4613 H 445.874 0.566157 -0.369381 0
M  V30 4614 H 448.428 1.27826 -1.60779 0
M  V30 4615 H 446.658 3.74766 -0.953285 0
M  V30 4616 H 448.347 3.82245 -1.36543 0
M  V30 4617 H 449.113 3.08986 -3.73835 0
M  V30 4618 H 444.992 3.73831 -2.69762 0
M  V30 4619 H 448.536 3.33658 -6.12632 0
M  V30 4620 H 444.433 3.98672 -5.07672 0
M  V30 4621 H 445.201 3.97937 -7.15254 0
M  V30 4622 N 447.864 1.01787 1.20321 0
M  V30 4623 C 449.275 0.739307 1.71438 0
M  V30 4624 C 449.626 -0.742041 1.81627 0
M  V30 4625 O 448.751 -1.57903 1.47971 0
M  V30 4626 C 449.346 1.33538 3.11373 0
M  V30 4627 C 447.905 1.10566 3.59795 0
M  V30 4628 C 447.052 1.44028 2.36962 0
M  V30 4629 H 450.003 1.18718 1.05317 0
M  V30 4630 H 450.024 0.726611 3.73498 0
M  V30 4631 H 449.536 2.41352 3.03926 0
M  V30 4632 H 447.637 0.0452405 3.72573 0
M  V30 4633 H 447.75 1.78661 4.44542 0
M  V30 4634 H 446.114 0.85933 2.39766 0
M  V30 4635 H 446.897 2.52901 2.32155 0
M  V30 4636 N 449.342 -1.36122 0.79427 0
M  V30 4637 C 450.272 -2.32551 0.210328 0
M  V30 4638 C 451.253 -1.56884 -0.657386 0
M  V30 4639 O 452.438 -1.85014 -0.590207 0
M  V30 4640 C 449.568 -3.41128 -0.651819 0
M  V30 4641 C 448.522 -4.27842 0.116395 0
M  V30 4642 C 447.848 -5.2763 -0.86666 0
M  V30 4643 C 449.148 -5.05647 1.30837 0
M  V30 4644 H 450.842 -2.81636 1.01594 0
M  V30 4645 H 448.388 -1.35407 0.489981 0
M  V30 4646 H 450.341 -4.07581 -1.07031 0
M  V30 4647 H 449.065 -2.90622 -1.49019 0
M  V30 4648 H 447.724 -3.62952 0.515915 0
M  V30 4649 H 447.372 -4.73395 -1.70019 0
M  V30 4650 H 447.072 -5.86514 -0.35705 0
M  V30 4651 H 448.596 -5.96955 -1.28361 0
M  V30 4652 H 450.01 -5.65113 0.965393 0
M  V30 4653 H 448.407 -5.73967 1.75161 0
M  V30 4654 H 449.477 -4.37006 2.10128 0
M  V30 4655 N 450.82 -0.546701 -1.47814 0
M  V30 4656 C 451.73 0.21026 -2.33656 0
M  V30 4657 C 452.746 0.922413 -1.47538 0
M  V30 4658 O 453.922 0.893652 -1.80488 0
M  V30 4659 C 450.987 1.23348 -3.24016 0
M  V30 4660 C 450.048 0.529883 -4.26017 0
M  V30 4661 C 449.281 1.50435 -5.12059 0
M  V30 4662 O 449.504 2.73837 -5.00369 0
M  V30 4663 O 448.438 1.03459 -5.92942 0
M  V30 4664 H 452.264 -0.493605 -2.99662 0
M  V30 4665 H 449.849 -0.307427 -1.46203 0
M  V30 4666 H 451.731 1.82438 -3.79861 0
M  V30 4667 H 450.406 1.91945 -2.60651 0
M  V30 4668 H 449.313 -0.101948 -3.73961 0
M  V30 4669 H 450.646 -0.11445 -4.92067 0
M  V30 4670 N 452.299 1.55045 -0.282633 0
M  V30 4671 C 453.246 2.22822 0.601566 0
M  V30 4672 C 454.216 1.20431 1.14392 0
M  V30 4673 O 455.401 1.48996 1.19184 0
M  V30 4674 C 452.541 2.95873 1.77632 0
M  V30 4675 C 451.654 4.12999 1.26711 0
M  V30 4676 C 450.789 4.73676 2.40426 0
M  V30 4677 C 449.828 5.82981 1.86545 0
M  V30 4678 N 448.965 6.3769 2.93762 0
M  V30 4679 H 453.805 2.97995 0.0169528 0
M  V30 4680 H 451.342 1.471 -0.00339964 0
M  V30 4681 H 453.3 3.36447 2.46697 0
M  V30 4682 H 451.93 2.2311 2.33285 0
M  V30 4683 H 450.982 3.77494 0.469314 0
M  V30 4684 H 452.294 4.91803 0.832518 0
M  V30 4685 H 451.448 5.17008 3.17471 0
M  V30 4686 H 450.187 3.94164 2.87203 0
M  V30 4687 H 449.192 5.39092 1.07983 0
M  V30 4688 H 450.417 6.64366 1.40694 0
M  V30 4689 H 448.363 5.61069 3.39908 0
M  V30 4690 H 448.28 7.11788 2.54744 0
M  V30 4691 H 449.548 6.8568 3.7076 0
M  V30 4692 N 453.777 0.010035 1.57597 0
M  V30 4693 C 455.023 -0.673697 1.91283 0
M  V30 4694 C 455.356 -1.72863 0.884979 0
M  V30 4695 O 454.631 -1.94268 -0.0949487 0
M  V30 4696 C 454.914 -1.30766 3.35518 0
M  V30 4697 C 454.767 -0.263578 4.49027 0
M  V30 4698 C 456.086 -2.23105 3.79358 0
M  V30 4699 H 453.205 -0.243439 0.695634 0
M  V30 4700 H 455.847 0.0633864 1.89894 0
M  V30 4701 H 453.997 -1.93588 3.36832 0
M  V30 4702 H 455.669 0.365738 4.59848 0
M  V30 4703 H 453.912 0.413077 4.31829 0
M  V30 4704 H 454.583 -0.746398 5.4693 0
M  V30 4705 H 457.059 -1.70289 3.79659 0
M  V30 4706 H 455.935 -2.64424 4.81011 0
M  V30 4707 H 456.196 -3.11433 3.13787 0
M  V30 4708 N 455.255 -1.55392 -0.262866 0
M  V30 4709 C 456.218 -1.88181 -1.30846 0
M  V30 4710 C 457.218 -0.757079 -1.41862 0
M  V30 4711 O 458.408 -1.02519 -1.40838 0
M  V30 4712 C 455.54 -2.09609 -2.68844 0
M  V30 4713 H 456.733 -2.81659 -1.02997 0
M  V30 4714 H 454.286 -1.48039 -0.501414 0
M  V30 4715 H 455.021 -1.18547 -3.01856 0
M  V30 4716 H 454.806 -2.91508 -2.62231 0
M  V30 4717 H 456.296 -2.36215 -3.44372 0
M  V30 4718 N 456.733 0.527833 -1.48498 0
M  V30 4719 C 457.643 1.65907 -1.65867 0
M  V30 4720 C 458.659 1.6537 -0.541192 0
M  V30 4721 O 459.835 1.84282 -0.812534 0
M  V30 4722 C 456.9 3.02364 -1.69637 0
M  V30 4723 C 455.961 3.1374 -2.93028 0
M  V30 4724 C 455.194 4.43688 -2.96609 0
M  V30 4725 O 455.417 5.30913 -2.08538 0
M  V30 4726 O 454.351 4.59475 -3.88802 0
M  V30 4727 H 458.177 1.5419 -2.61647 0
M  V30 4728 H 455.762 0.701163 -1.31924 0
M  V30 4729 H 457.644 3.83515 -1.74625 0
M  V30 4730 H 456.319 3.14401 -0.770312 0
M  V30 4731 H 455.226 2.31877 -2.93571 0
M  V30 4732 H 456.559 3.06621 -3.85026 0
M  V30 4733 N 458.211 1.37122 0.776871 0
M  V30 4734 C 459.174 1.32301 1.8716 0
M  V30 4735 C 460.174 0.228099 1.59174 0
M  V30 4736 O 461.364 0.483642 1.67352 0
M  V30 4737 C 458.496 1.054 3.24197 0
M  V30 4738 H 459.689 2.29673 1.92848 0
M  V30 4739 H 457.242 1.22077 0.97606 0
M  V30 4740 H 457.977 0.0853872 3.24188 0
M  V30 4741 H 457.762 1.84648 3.45901 0
M  V30 4742 H 459.252 1.04664 4.04271 0
M  V30 4743 N 459.689 -1.00246 1.21608 0
M  V30 4744 C 460.639 -2.07492 0.945051 0
M  V30 4745 C 461.623 -1.60585 -0.100675 0
M  V30 4746 O 462.815 -1.76667 0.10859 0
M  V30 4747 C 459.944 -3.39425 0.514342 0
M  V30 4748 C 459.03 -3.92993 1.59428 0
M  V30 4749 N 459.421 -4.19898 2.81991 0
M  V30 4750 C 457.719 -4.21297 1.46374 0
M  V30 4751 C 458.42 -4.63297 3.51754 0
M  V30 4752 N 457.396 -4.66421 2.79199 0
M  V30 4753 H 461.198 -2.26222 1.87619 0
M  V30 4754 H 458.712 -1.18339 1.11219 0
M  V30 4755 H 460.709 -4.15808 0.301527 0
M  V30 4756 H 459.369 -3.22101 -0.410008 0
M  V30 4757 H 460.38 -4.08377 3.1851 0
M  V30 4758 H 457.057 -4.13095 0.604863 0
M  V30 4759 H 458.447 -4.92816 4.56708 0
M  V30 4760 N 461.167 -1.02423 -1.1978 0
M  V30 4761 C 462.077 -0.610919 -2.26506 0
M  V30 4762 C 463.093 0.355152 -1.70337 0
M  V30 4763 O 464.269 0.214195 -2.00258 0
M  V30 4764 C 461.334 0.0365921 -3.46681 0
M  V30 4765 C 460.395 -0.976389 -4.18049 0
M  V30 4766 C 459.628 -0.359683 -5.32487 0
M  V30 4767 O 459.851 0.838601 -5.64202 0
M  V30 4768 O 458.785 -1.08022 -5.92127 0
M  V30 4769 H 462.611 -1.49965 -2.64091 0
M  V30 4770 H 460.196 -0.794156 -1.26545 0
M  V30 4771 H 462.078 0.39786 -4.19518 0
M  V30 4772 H 460.753 0.899398 -3.10954 0
M  V30 4773 H 459.66 -1.38916 -3.47352 0
M  V30 4774 H 460.993 -1.80941 -4.57735 0
M  V30 4775 N 462.645 1.35699 -0.801477 0
M  V30 4776 C 463.593 2.3177 -0.196317 0
M  V30 4777 C 464.587 1.56388 0.651081 0
M  V30 4778 O 465.793 1.71557 0.544815 0
M  V30 4779 H 462.168 0.750669 -0.0447189 0
M  V30 4780 H 464.139 2.8036 -1.02181 0
M  V30 4781 C 462.888 3.41671 0.644702 0
M  V30 4782 H 462.211 3.998 0.0019921 0
M  V30 4783 H 463.651 4.11184 1.0346 0
M  V30 4784 C 462.11 2.84271 1.80808 0
M  V30 4785 O 462.64 2.77408 2.9053 0
M  V30 4786 N 460.846 2.41391 1.61799 0
M  V30 4787 H 460.393 2.47173 0.725493 0
M  V30 4788 H 460.351 2.03334 2.39797 0
M  V30 4789 N 464.123 0.554532 1.47522 0
M  V30 4790 C 465.372 0.0273458 2.01681 0
M  V30 4791 C 465.685 -1.32962 1.43459 0
M  V30 4792 O 466.891 -1.94657 1.89265 0
M  V30 4793 C 465.347 -0.00159057 3.599 0
M  V30 4794 C 464.955 1.35197 4.27113 0
M  V30 4795 C 466.699 -0.476311 4.21819 0
M  V30 4796 C 464.606 1.28229 5.77331 0
M  V30 4797 H 463.536 0.00645269 0.753972 0
M  V30 4798 H 466.187 0.701985 1.69542 0
M  V30 4799 H 464.569 -0.741821 3.8899 0
M  V30 4800 H 465.743 2.1097 4.09668 0
M  V30 4801 H 464.058 1.76441 3.77171 0
M  V30 4802 H 466.655 -0.5468 5.31897 0
M  V30 4803 H 466.998 -1.4877 3.8881 0
M  V30 4804 H 467.531 0.20898 3.97251 0
M  V30 4805 H 464.27 2.26959 6.14955 0
M  V30 4806 H 463.79 0.566314 5.97121 0
M  V30 4807 H 465.469 0.983226 6.39485 0
M  V30 4808 N 465.601 -1.54893 0.290851 0
M  V30 4809 C 466.85 -1.99111 -0.322113 0
M  V30 4810 C 467.163 -1.18283 -1.55784 0
M  V30 4811 O 468.369 -1.5272 -2.24475 0
M  V30 4812 C 466.825 -3.54442 -0.624438 0
M  V30 4813 C 466.433 -4.44066 0.592373 0
M  V30 4814 C 468.177 -4.07211 -1.19916 0
M  V30 4815 C 466.084 -5.90812 0.263762 0
M  V30 4816 H 465.014 -0.743712 -0.124133 0
M  V30 4817 H 467.665 -1.79132 0.39797 0
M  V30 4818 H 466.047 -3.70281 -1.40384 0
M  V30 4819 H 467.221 -4.39999 1.36886 0
M  V30 4820 H 465.536 -4.02015 1.08502 0
M  V30 4821 H 468.133 -5.14407 -1.45909 0
M  V30 4822 H 468.476 -3.57196 -2.13815 0
M  V30 4823 H 469.009 -3.94873 -0.481687 0
M  V30 4824 H 465.748 -6.44955 1.17105 0
M  V30 4825 H 465.268 -5.97911 -0.475655 0
M  V30 4826 H 466.947 -6.46852 -0.138354 0
M  V30 4827 N 467.08 -0.0183926 -1.57589 0
M  V30 4828 C 468.03 0.975944 -2.06057 0
M  V30 4829 C 469.014 1.29204 -0.958908 0
M  V30 4830 O 470.206 1.27995 -1.22255 0
M  V30 4831 C 467.335 2.26194 -2.58247 0
M  V30 4832 C 466.421 1.97467 -3.75323 0
M  V30 4833 N 466.812 1.38968 -4.86335 0
M  V30 4834 C 465.11 2.27515 -3.83605 0
M  V30 4835 C 465.811 1.27131 -5.67638 0
M  V30 4836 N 464.787 1.76319 -5.14211 0
M  V30 4837 H 468.589 0.518444 -2.89291 0
M  V30 4838 H 466.103 0.18688 -1.61321 0
M  V30 4839 H 468.1 2.98289 -2.91255 0
M  V30 4840 H 466.76 2.7258 -1.76438 0
M  V30 4841 H 467.771 1.06608 -5.06809 0
M  V30 4842 H 464.448 2.76649 -3.12684 0
M  V30 4843 H 465.838 0.819882 -6.66879 0
M  V30 4844 N 468.558 1.5553 0.254621 0
M  V30 4845 C 469.806 1.7665 0.981793 0
M  V30 4846 C 470.127 0.580963 1.86145 0
M  V30 4847 O 469.397 -0.403537 1.91699 0
M  V30 4848 H 467.977 0.651475 0.365498 0
M  V30 4849 H 470.639 1.92958 0.274426 0
M  V30 4850 H 469.735 2.67486 1.60802 0
M  V30 4851 N 470.036 -0.519951 1.48776 0
M  V30 4852 C 471.261 -1.30447 1.6124 0
M  V30 4853 C 471.686 -1.86055 0.276591 0
M  V30 4854 O 471.044 -1.64915 -0.753183 0
M  V30 4855 C 471.092 -2.42406 2.66967 0
M  V30 4856 O 470.196 -3.45728 2.24824 0
M  V30 4857 H 469.537 -0.385924 0.540332 0
M  V30 4858 H 472.067 -0.624572 1.94834 0
M  V30 4859 H 472.077 -2.88447 2.88552 0
M  V30 4860 H 470.752 -2.01294 3.63941 0
M  V30 4861 H 469.329 -3.05737 2.13494 0
M  V30 4862 N 471.514 -1.37532 -0.769588 0
M  V30 4863 C 472.762 -1.32597 -1.5252 0
M  V30 4864 C 473.083 0.0884294 -1.94799 0
M  V30 4865 O 472.353 1.03289 -1.66458 0
M  V30 4866 H 470.933 -0.487846 -0.565699 0
M  V30 4867 H 473.595 -1.72044 -0.915806 0
M  V30 4868 H 472.691 -1.96643 -2.42359 0
M  V30 4869 N 472.992 0.995999 -1.22138 0
M  V30 4870 C 473.955 2.06711 -0.990109 0
M  V30 4871 C 474.955 1.60744 0.0422978 0
M  V30 4872 O 476.145 1.73095 -0.195895 0
M  V30 4873 C 473.277 3.37288 -0.49491 0
M  V30 4874 H 474.47 2.28661 -1.94047 0
M  V30 4875 H 472.023 1.16711 -1.03963 0
M  V30 4876 H 472.758 3.21022 0.459948 0
M  V30 4877 H 472.543 3.71986 -1.23971 0
M  V30 4878 H 474.033 4.16103 -0.353253 0
M  V30 4879 N 474.47 1.03057 1.19235 0
M  V30 4880 C 475.698 0.747697 1.92917 0
M  V30 4881 C 476.113 -0.69372 1.75593 0
M  V30 4882 O 475.47 -1.47191 1.07894 0
M  V30 4883 C 475.521 1.09159 3.44625 0
M  V30 4884 O 475.242 2.47641 3.61394 0
M  V30 4885 C 476.743 0.831763 4.35427 0
M  V30 4886 H 473.963 0.273453 0.612751 0
M  V30 4887 H 476.507 1.37552 1.51327 0
M  V30 4888 H 474.662 0.508919 3.84043 0
M  V30 4889 H 475.076 2.60499 4.55237 0
M  V30 4890 H 476.55 1.12233 5.4047 0
M  V30 4891 H 477.027 -0.233769 4.38577 0
M  V30 4892 H 477.633 1.39725 4.01693 0
M  V30 4893 N 475.948 -1.35272 0.808662 0
M  V30 4894 C 477.196 -1.98316 0.389233 0
M  V30 4895 C 477.517 -1.64465 -1.04767 0
M  V30 4896 O 476.787 -0.928175 -1.72516 0
M  V30 4897 H 475.367 -0.733585 0.140935 0
M  V30 4898 H 478.029 -1.6515 1.03496 0
M  V30 4899 H 477.125 -3.08123 0.496631 0
M  V30 4900 N 477.426 -0.562348 -1.47226 0
M  V30 4901 C 478.373 0.182461 -2.30078 0
M  V30 4902 C 479.343 0.903503 -1.39377 0
M  V30 4903 O 480.528 0.898188 -1.68337 0
M  V30 4904 C 477.668 1.20322 -3.23445 0
M  V30 4905 C 476.781 0.487717 -4.29238 0
M  V30 4906 C 475.916 1.49422 -5.09752 0
M  V30 4907 C 474.955 0.763976 -6.07314 0
M  V30 4908 N 474.092 1.71755 -6.80768 0
M  V30 4909 H 478.932 -0.530169 -2.93246 0
M  V30 4910 H 476.469 -0.273276 -1.44539 0
M  V30 4911 H 478.427 1.80768 -3.76004 0
M  V30 4912 H 477.057 1.88382 -2.6213 0
M  V30 4913 H 476.109 -0.231374 -3.79696 0
M  V30 4914 H 477.421 -0.0841003 -4.98729 0
M  V30 4915 H 476.575 2.17206 -5.66486 0
M  V30 4916 H 475.314 2.09995 -4.40174 0
M  V30 4917 H 474.319 0.0722344 -5.49753 0
M  V30 4918 H 475.544 0.16391 -6.78902 0
M  V30 4919 H 473.49 2.31177 -6.13916 0
M  V30 4920 H 473.407 1.19802 -7.46447 0
M  V30 4921 H 474.675 2.38638 -7.42073 0
M  V30 4922 N 478.904 1.54736 -0.299062 0
M  V30 4923 C 479.837 2.1962 0.619851 0
M  V30 4924 C 480.815 1.16496 1.13434 0
M  V30 4925 O 481.999 1.4513 1.2029 0
M  V30 4926 C 479.126 2.8385 1.84788 0
M  V30 4927 C 478.172 4.00484 1.46679 0
M  V30 4928 S 479.005 5.32926 0.524389 0
M  V30 4929 C 480.161 6.00638 1.76026 0
M  V30 4930 H 480.394 2.97221 0.0686177 0
M  V30 4931 H 477.927 1.54176 -0.0832085 0
M  V30 4932 H 479.885 3.21483 2.55263 0
M  V30 4933 H 478.546 2.06099 2.37028 0
M  V30 4934 H 477.739 4.44201 2.38121 0
M  V30 4935 H 477.341 3.64398 0.842008 0
M  V30 4936 H 479.633 6.21327 2.70109 0
M  V30 4937 H 480.576 6.94805 1.36569 0
M  V30 4938 H 480.984 5.3026 1.93609 0
M  V30 4939 N 480.382 0.0267497 1.57577 0
M  V30 4940 C 481.631 -0.651736 1.9088 0
M  V30 4941 C 481.944 -1.73427 0.904576 0
M  V30 4942 O 483.15 -2.46923 1.12877 0
M  V30 4943 C 481.606 -1.21048 3.38933 0
M  V30 4944 C 481.214 -0.161362 4.47709 0
M  V30 4945 C 482.958 -1.86562 3.81307 0
M  V30 4946 C 480.865 -0.731611 5.86857 0
M  V30 4947 H 479.795 -0.247198 0.712326 0
M  V30 4948 H 482.446 0.0916641 1.83271 0
M  V30 4949 H 480.828 -2.00542 3.41466 0
M  V30 4950 H 482.002 0.61094 4.56732 0
M  V30 4951 H 480.317 0.394877 4.14523 0
M  V30 4952 H 482.914 -2.30178 4.8262 0
M  V30 4953 H 483.257 -2.70735 3.16241 0
M  V30 4954 H 483.79 -1.13762 3.81186 0
M  V30 4955 H 480.529 0.0719329 6.55461 0
M  V30 4956 H 480.049 -1.47245 5.81445 0
M  V30 4957 H 481.728 -1.22208 6.35354 0
M  V30 4958 N 481.861 -1.55662 -0.24637 0
M  V30 4959 C 482.791 -1.93377 -1.30873 0
M  V30 4960 C 483.772 -0.798773 -1.50179 0
M  V30 4961 O 484.957 -1.0591 -1.62778 0
M  V30 4962 C 482.087 -2.22893 -2.66338 0
M  V30 4963 C 481.041 -3.38649 -2.61727 0
M  V30 4964 C 480.367 -3.53708 -4.00992 0
M  V30 4965 C 481.667 -4.74323 -2.18666 0
M  V30 4966 H 483.361 -2.82363 -0.995552 0
M  V30 4967 H 480.907 -1.35854 -0.477464 0
M  V30 4968 H 482.86 -2.47866 -3.40794 0
M  V30 4969 H 481.584 -1.30733 -2.99293 0
M  V30 4970 H 480.243 -3.13685 -1.89729 0
M  V30 4971 H 479.891 -2.58967 -4.31214 0
M  V30 4972 H 479.591 -4.31551 -3.98795 0
M  V30 4973 H 481.115 -3.81003 -4.77147 0
M  V30 4974 H 482.529 -4.98665 -2.82854 0
M  V30 4975 H 480.926 -5.55273 -2.27579 0
M  V30 4976 H 481.996 -4.71349 -1.13834 0
M  V30 4977 N 483.339 0.512053 -1.4905 0
M  V30 4978 C 484.269 1.62365 -1.67809 0
M  V30 4979 C 485.25 1.61737 -0.526809 0
M  V30 4980 O 486.435 1.78651 -0.761404 0
M  V30 4981 C 483.565 3.00895 -1.73435 0
M  V30 4982 C 482.519 3.16387 -2.88242 0
M  V30 4983 C 481.845 4.56157 -2.78971 0
M  V30 4984 C 483.145 2.97457 -4.29321 0
M  V30 4985 H 484.839 1.46921 -2.60873 0
M  V30 4986 H 482.385 0.705379 -1.2554 0
M  V30 4987 H 484.338 3.78549 -1.85145 0
M  V30 4988 H 483.062 3.17403 -0.769619 0
M  V30 4989 H 481.721 2.41155 -2.76116 0
M  V30 4990 H 481.369 4.69525 -1.8043 0
M  V30 4991 H 481.069 4.67465 -3.5602 0
M  V30 4992 H 482.593 5.35886 -2.92675 0
M  V30 4993 H 484.007 3.64888 -4.42187 0
M  V30 4994 H 482.404 3.20245 -5.07507 0
M  V30 4995 H 483.474 1.93692 -4.44535 0
M  V30 4996 N 484.817 1.37938 0.762283 0
M  V30 4997 C 485.747 1.37176 1.88958 0
M  V30 4998 C 486.728 0.238945 1.68413 0
M  V30 4999 O 487.913 0.440726 1.89133 0
M  V30 5000 C 485.043 1.18742 3.2637 0
M  V30 5001 C 483.997 2.29136 3.61498 0
M  V30 5002 C 483.323 1.95816 4.97554 0
M  V30 5003 C 484.623 3.71363 3.6727 0
M  V30 5004 H 486.317 2.31509 1.89853 0
M  V30 5005 H 483.863 1.11438 0.912005 0
M  V30 5006 H 485.816 1.16837 4.04879 0
M  V30 5007 H 484.54 0.208683 3.25933 0
M  V30 5008 H 483.199 2.30213 2.85303 0
M  V30 5009 H 482.847 0.964475 4.93667 0
M  V30 5010 H 482.547 2.69745 5.22026 0
M  V30 5011 H 484.071 1.95513 5.78452 0
M  V30 5012 H 485.485 3.72364 4.35911 0
M  V30 5013 H 483.882 4.44425 4.03245 0
M  V30 5014 H 484.952 4.04305 2.67704 0
M  V30 5015 O 486.334 -0.902626 1.33921 0
M  V30 5016 H 487.025 -1.53762 1.178 0
M  V30 END ATOM
M  V30 BEGIN BOND
M  V30 END BOND
M  V30 END CTAB
M  END
$$$$
