drugbank_drug|DB06511 Fc232 | OPG 22-201
 OpenBabel12092119133D

  0  0  0     0  0            999 V3000
M  V30 BEGIN CTAB
M  V30 COUNTS 3636 3689 0 0 0
M  V30 BEGIN ATOM
M  V30 1 H -0.908 1.98254 -0.117106 0
M  V30 2 N 0 1.576 0 0
M  V30 3 C 0.91 2.11853 1.00774 0
M  V30 4 C 1.926 1.06379 1.37693 0
M  V30 5 O 3.102 1.3828 1.46426 0
M  V30 6 C 0.167 2.61108 2.28087 0
M  V30 7 C -0.772 3.81183 1.9748 0
M  V30 8 C -1.539 4.28079 3.18723 0
M  V30 9 O -1.316 3.74307 4.30407 0
M  V30 10 O -2.382 5.20234 3.02721 0
M  V30 11 H 1.444 2.98177 0.576547 0
M  V30 12 H -0.971 1.47789 0.218828 0
M  V30 13 H 0.911 2.92987 3.0288 0
M  V30 14 H -0.414 1.77881 2.70444 0
M  V30 15 H -1.507 3.54277 1.20162 0
M  V30 16 H -0.174 4.65482 1.5996 0
M  V30 17 N 1.4781 -0.272755 1.55222 0
M  V30 18 C 2.8891 -0.84378 1.66545 0
M  V30 19 C 3.2401 -1.87035 0.592641 0
M  V30 20 O 2.3651 -2.14761 -0.265818 0
M  V30 21 C 2.9601 -1.53723 3.01918 0
M  V30 22 C 1.5191 -2.05628 3.15268 0
M  V30 23 C 0.6661 -0.898424 2.62343 0
M  V30 24 H 3.6171 -0.0490998 1.58624 0
M  V30 25 H 3.6381 -2.40421 2.94921 0
M  V30 26 H 3.1501 -0.78983 3.79978 0
M  V30 27 H 1.2511 -2.83329 2.41983 0
M  V30 28 H 1.3641 -2.27142 4.21833 0
M  V30 29 H -0.2719 -1.29186 2.19506 0
M  V30 30 H 0.5111 -0.164528 3.42906 0
M  V30 31 N 2.9562 -1.48159 -0.537278 0
M  V30 32 C 3.9032 -1.62138 -1.64256 0
M  V30 33 C 4.8732 -0.463668 -1.59497 0
M  V30 34 O 6.0582 -0.686241 -1.78032 0
M  V30 35 C 3.1982 -1.66028 -3.02537 0
M  V30 36 C 2.3112 -2.92855 -3.17585 0
M  V30 37 C 1.4462 -2.87952 -4.46382 0
M  V30 38 C 0.4852 -4.09516 -4.54932 0
M  V30 39 N -0.3778 -4.02733 -5.75109 0
M  V30 40 H 4.4622 -2.56529 -1.51647 0
M  V30 41 H 1.9992 -1.27224 -0.738414 0
M  V30 42 H 3.9572 -1.66265 -3.82638 0
M  V30 43 H 2.5872 -0.751331 -3.13934 0
M  V30 44 H 1.6392 -3.02395 -2.30784 0
M  V30 45 H 2.9512 -3.82822 -3.19764 0
M  V30 46 H 2.1052 -2.8655 -5.34765 0
M  V30 47 H 0.8442 -1.95702 -4.46712 0
M  V30 48 H -0.1508 -4.11201 -3.64957 0
M  V30 49 H 1.0742 -5.02917 -4.56346 0
M  V30 50 H -0.9798 -3.13299 -5.76351 0
M  V30 51 H -1.0628 -4.86397 -5.78752 0
M  V30 52 H 0.2052 -4.05379 -6.65799 0
M  V30 53 N 4.4343 0.785586 -1.36625 0
M  V30 54 C 5.6593 1.57963 -1.34397 0
M  V30 55 C 6.0843 1.87964 0.071526 0
M  V30 56 O 5.4423 1.48182 1.0446 0
M  V30 57 C 5.4903 2.87511 -2.17646 0
M  V30 58 O 4.5943 3.81281 -1.57158 0
M  V30 59 H 3.9353 0.479014 -0.459828 0
M  V30 60 H 6.4653 0.973411 -1.79961 0
M  V30 61 H 6.4753 3.36745 -2.30362 0
M  V30 62 H 5.1503 2.65002 -3.20541 0
M  V30 63 H 3.7273 3.39885 -1.53403 0
M  V30 64 N 5.9124 1.20967 1.01018 0
M  V30 65 C 7.1374 1.0503 1.78839 0
M  V30 66 C 7.5624 -0.395752 1.8389 0
M  V30 67 O 6.9204 -1.28529 1.27867 0
M  V30 68 C 6.9684 1.64602 3.2084 0
M  V30 69 O 6.0724 0.887988 4.02726 0
M  V30 70 H 5.4134 0.369987 0.551367 0
M  V30 71 H 7.9434 1.60399 1.27018 0
M  V30 72 H 7.9534 1.68607 3.71532 0
M  V30 73 H 6.6284 2.69841 3.16479 0
M  V30 74 H 5.2054 0.922648 3.61305 0
M  V30 75 N 7.3905 -1.2043 1.01659 0
M  V30 76 C 8.6675 -1.8548 0.621004 0
M  V30 77 C 9.0475 -1.9091 -0.900919 0
M  V30 78 O 8.3955 -1.41694 -1.79263 0
M  V30 79 C 8.6055 -3.25119 1.2688 0
M  V30 80 C 9.9535 -4.01403 1.38423 0
M  V30 81 O 10.9775 -3.34473 1.22501 0
M  V30 82 O 9.8365 -5.21265 1.64151 0
M  V30 83 H 6.9305 -0.798761 0.214266 0
M  V30 84 H 9.4765 -1.28019 1.11396 0
M  V30 85 H 8.2485 -3.15932 2.30873 0
M  V30 86 H 7.8715 -3.90212 0.762917 0
M  V30 87 N 8.8686 -0.792821 -1.36206 0
M  V30 88 C 9.8156 -0.191653 -2.30003 0
M  V30 89 C 10.7856 0.666453 -1.52143 0
M  V30 90 O 11.9706 0.61442 -1.80636 0
M  V30 91 C 9.1106 0.664848 -3.38635 0
M  V30 92 C 8.2236 -0.212175 -4.31479 0
M  V30 93 C 7.3586 0.651022 -5.27196 0
M  V30 94 C 6.3976 -0.227247 -6.11678 0
M  V30 95 N 5.5346 0.595127 -6.99573 0
M  V30 96 H 10.3746 -0.996978 -2.80828 0
M  V30 97 H 7.9116 -0.503206 -1.38225 0
M  V30 98 H 9.8696 1.17645 -4.00269 0
M  V30 99 H 8.4996 1.43557 -2.89122 0
M  V30 100 H 7.5516 -0.841777 -3.70969 0
M  V30 101 H 8.8636 -0.888751 -4.90818 0
M  V30 102 H 8.0176 1.2283 -5.94136 0
M  V30 103 H 6.7566 1.36121 -4.68319 0
M  V30 104 H 5.7616 -0.816904 -5.43697 0
M  V30 105 H 6.9866 -0.93509 -6.72631 0
M  V30 106 H 4.9326 1.28955 -6.432 0
M  V30 107 H 4.8496 -0.0236952 -7.55996 0
M  V30 108 H 6.1176 1.15613 -7.70879 0
M  V30 109 N 10.3467 1.47872 -0.545128 0
M  V30 110 C 11.5747 2.06889 -0.021084 0
M  V30 111 C 11.9897 1.39955 1.2672 0
M  V30 112 O 11.3467 0.492036 1.75742 0
M  V30 113 C 11.3977 3.60996 0.190817 0
M  V30 114 O 11.1187 4.25419 -1.04644 0
M  V30 115 C 12.6197 4.36849 0.753521 0
M  V30 116 H 9.8397 0.669785 -0.0403635 0
M  V30 117 H 12.3837 1.90049 -0.755095 0
M  V30 118 H 10.5387 3.77391 0.87492 0
M  V30 119 H 10.9527 5.17785 -0.836611 0
M  V30 120 H 12.4267 5.45399 0.851139 0
M  V30 121 H 12.9037 4.02306 1.762 0
M  V30 122 H 13.5097 4.25169 0.105503 0
M  V30 123 N 11.8248 0.280983 1.55075 0
M  V30 124 C 12.7748 -0.618585 2.19448 0
M  V30 125 C 13.7588 -1.11401 1.16098 0
M  V30 126 O 14.9508 -1.0581 1.41891 0
M  V30 127 C 12.0798 -1.79951 2.92357 0
M  V30 128 C 11.1658 -1.321 4.03002 0
M  V30 129 N 11.5568 -0.559044 5.02701 0
M  V30 130 C 9.8548 -1.60346 4.16179 0
M  V30 131 C 10.5558 -0.306722 5.80891 0
M  V30 132 N 9.5318 -0.880825 5.36416 0
M  V30 133 H 13.3338 -0.0286638 2.93886 0
M  V30 134 H 10.8478 0.0848104 1.62178 0
M  V30 135 H 12.8448 -2.45531 3.36927 0
M  V30 136 H 11.5048 -2.39333 2.19431 0
M  V30 137 H 12.5158 -0.205827 5.17491 0
M  V30 138 H 9.1928 -2.20621 3.54447 0
M  V30 139 H 10.5828 0.30391 6.71212 0
M  V30 140 N 13.3029 -1.57598 0.00835791 0
M  V30 141 C 14.5309 -1.95214 -0.68549 0
M  V30 142 C 14.9459 -0.883706 -1.66841 0
M  V30 143 O 14.3029 0.136565 -1.81988 0
M  V30 144 C 14.3539 -3.32865 -1.41007 0
M  V30 145 O 14.0749 -4.35609 -0.466552 0
M  V30 146 C 15.5759 -3.84991 -2.19765 0
M  V30 147 H 12.7959 -0.643422 -0.190392 0
M  V30 148 H 15.3399 -2.04406 0.0619607 0
M  V30 149 H 13.4949 -3.24956 -2.10908 0
M  V30 150 H 13.9089 -5.15288 -0.978699 0
M  V30 151 H 15.3829 -4.8371 -2.65948 0
M  V30 152 H 15.8599 -3.18137 -3.02796 0
M  V30 153 H 16.4659 -3.96103 -1.54864 0
M  V30 154 N 14.781 0.264519 -1.55364 0
M  V30 155 C 16.021 1.00254 -1.78125 0
M  V30 156 C 16.385 1.83187 -0.575017 0
M  V30 157 O 17.586 2.60029 -0.681042 0
M  V30 158 C 15.857 1.85478 -3.05504 0
M  V30 159 S 17.416 2.6543 -3.49417 0
M  V30 160 H 14.234 0.337522 -0.625779 0
M  V30 161 H 16.836 0.272111 -1.93597 0
M  V30 162 H 15.54 1.23491 -3.9138 0
M  V30 163 H 15.071 2.62827 -2.92721 0
M  V30 164 H 17.086 3.87958 -3.09359 0
M  V30 165 N 16.2591 1.48442 0.529413 0
M  V30 166 C 17.6701 1.5002 1.11134 0
M  V30 167 C 18.0211 0.27031 1.94329 0
M  V30 168 O 17.1461 -0.622507 2.07253 0
M  V30 169 C 17.7411 2.71834 2.02217 0
M  V30 170 C 16.3001 2.76283 2.55627 0
M  V30 171 C 15.4471 2.43542 1.326 0
M  V30 172 H 18.3981 1.5555 0.314641 0
M  V30 173 H 18.4191 2.50384 2.8651 0
M  V30 174 H 17.9311 3.61331 1.41639 0
M  V30 175 H 16.0321 1.90995 3.19924 0
M  V30 176 H 16.1451 3.77725 2.94721 0
M  V30 177 H 14.5091 1.94709 1.64196 0
M  V30 178 H 15.2921 3.3528 0.737734 0
M  V30 179 N 17.7372 -0.778329 1.37039 0
M  V30 180 C 19.1482 -1.35421 1.28523 0
M  V30 181 C 19.4992 -1.96075 -0.0700901 0
M  V30 182 O 18.6242 -1.93352 -0.971801 0
M  V30 183 C 19.2192 -2.46211 2.32735 0
M  V30 184 C 17.7782 -2.99585 2.27873 0
M  V30 185 C 16.9252 -1.72748 2.16918 0
M  V30 186 H 19.8762 -0.5791 1.47757 0
M  V30 187 H 19.8972 -3.2552 1.9702 0
M  V30 188 H 19.4092 -2.02036 3.31365 0
M  V30 189 H 17.5102 -3.48152 1.32745 0
M  V30 190 H 17.6232 -3.55646 3.21018 0
M  V30 191 H 15.9872 -1.95416 1.63354 0
M  V30 192 H 16.7702 -1.30686 3.17452 0
M  V30 193 N 19.2153 -1.21501 -1.00376 0
M  V30 194 C 20.4553 -1.04444 -1.75701 0
M  V30 195 C 20.8193 0.414644 -1.87469 0
M  V30 196 O 22.0203 0.705763 -2.59369 0
M  V30 197 C 20.2913 -1.72389 -3.13077 0
M  V30 198 S 21.8503 -1.70604 -4.04277 0
M  V30 199 H 18.6683 -0.374249 -0.604532 0
M  V30 200 H 21.2703 -1.54267 -1.20091 0
M  V30 201 H 19.9743 -2.77734 -3.02146 0
M  V30 202 H 19.5053 -1.22751 -3.73759 0
M  V30 203 H 21.5203 -0.748012 -4.9053 0
M  V30 204 N 20.6934 1.19889 -1.02296 0
M  V30 205 C 22.1044 1.71124 -0.746568 0
M  V30 206 C 22.4554 1.81939 0.734335 0
M  V30 207 O 21.5804 1.48639 1.57275 0
M  V30 208 C 22.1754 3.10804 -1.34857 0
M  V30 209 C 20.7344 3.59323 -1.1209 0
M  V30 210 C 19.8814 2.3635 -1.45031 0
M  V30 211 H 22.8324 1.04813 -1.19163 0
M  V30 212 H 22.8534 3.73186 -0.742437 0
M  V30 213 H 22.3654 3.029 -2.42638 0
M  V30 214 H 20.4664 3.7255 -0.0610337 0
M  V30 215 H 20.5794 4.4378 -1.80544 0
M  V30 216 H 18.9434 2.39399 -0.869487 0
M  V30 217 H 19.7264 2.31081 -2.53883 0
M  V30 218 N 22.1715 0.800033 1.35784 0
M  V30 219 C 23.1345 0.211565 2.28221 0
M  V30 220 C 24.1345 -0.59728 1.49296 0
M  V30 221 O 25.3245 -0.416721 1.69142 0
M  V30 222 C 22.4565 -0.705846 3.33513 0
M  V30 223 H 23.6495 1.02677 2.81776 0
M  V30 224 H 21.2025 0.570211 1.45528 0
M  V30 225 H 21.9375 -1.54498 2.85133 0
M  V30 226 H 21.7225 -0.127655 3.91892 0
M  V30 227 H 23.2125 -1.11211 4.02519 0
M  V30 228 N 23.6496 -1.47581 0.552962 0
M  V30 229 C 25.0606 -1.86324 0.118463 0
M  V30 230 C 25.4116 -1.46006 -1.3106 0
M  V30 231 O 24.5366 -0.861182 -1.98526 0
M  V30 232 C 25.1316 -3.3816 0.20821 0
M  V30 233 C 23.6906 -3.7601 -0.171226 0
M  V30 234 C 22.8376 -2.71634 0.557686 0
M  V30 235 H 25.7886 -1.39159 0.762928 0
M  V30 236 H 25.8096 -3.76141 -0.574278 0
M  V30 237 H 25.3216 -3.67473 1.24841 0
M  V30 238 H 23.4226 -3.52313 -1.21269 0
M  V30 239 H 23.5356 -4.78745 0.184379 0
M  V30 240 H 21.8996 -2.547 0.00125792 0
M  V30 241 H 22.6826 -3.0379 1.59896 0
M  V30 242 N 25.1277 -0.289203 -1.54924 0
M  V30 243 C 26.0377 0.601863 -2.26748 0
M  V30 244 C 27.0537 1.15834 -1.2984 0
M  V30 245 O 28.2297 1.18564 -1.62802 0
M  V30 246 C 25.2947 1.76299 -2.98529 0
M  V30 247 C 24.3557 1.24178 -4.10948 0
M  V30 248 C 23.5887 2.34757 -4.79296 0
M  V30 249 O 23.8117 3.54411 -4.46933 0
M  V30 250 O 22.7457 2.02115 -5.66951 0
M  V30 251 H 26.5717 0.0195879 -3.03694 0
M  V30 252 H 24.1567 -0.0560868 -1.49295 0
M  V30 253 H 26.0387 2.43973 -3.43592 0
M  V30 254 H 24.7137 2.33209 -2.24488 0
M  V30 255 H 23.6207 0.531104 -3.70311 0
M  V30 256 H 24.9537 0.718252 -4.86931 0
M  V30 257 N 26.6058 1.57591 -0.0167156 0
M  V30 258 C 27.8528 1.91283 0.664597 0
M  V30 259 C 28.1808 0.891949 1.72842 0
M  V30 260 O 27.4358 -0.100931 1.9544 0
M  V30 261 C 27.7348 3.3172 1.33029 0
M  V30 262 C 27.4008 4.4914 0.398047 0
M  V30 263 C 26.0628 4.80992 0.141421 0
M  V30 264 C 28.4148 5.20634 -0.242825 0
M  V30 265 C 25.7428 5.81703 -0.764092 0
M  V30 266 C 28.0948 6.22311 -1.13632 0
M  V30 267 C 26.7588 6.52611 -1.40196 0
M  V30 268 H 26.0288 0.699956 0.243193 0
M  V30 269 H 28.6758 1.9135 -0.0758267 0
M  V30 270 H 26.9808 3.27856 2.14517 0
M  V30 271 H 28.6778 3.55055 1.86379 0
M  V30 272 H 25.2678 4.24262 0.608238 0
M  V30 273 H 29.4518 4.96267 -0.0576019 0
M  V30 274 H 24.7078 6.03532 -0.977732 0
M  V30 275 H 28.8818 6.76834 -1.63917 0
M  V30 276 H 26.5088 7.30467 -2.10529 0
M  V30 277 N 28.0839 -0.256276 1.55502 0
M  V30 278 C 28.9939 -1.33882 1.92647 0
M  V30 279 C 30.0099 -1.53159 0.825727 0
M  V30 280 O 31.1859 -1.66963 1.12629 0
M  V30 281 C 28.2509 -2.6751 2.20543 0
M  V30 282 C 27.3119 -2.56836 3.43997 0
M  V30 283 C 26.5449 -3.84092 3.70553 0
M  V30 284 O 26.7679 -4.85545 2.99336 0
M  V30 285 O 25.7019 -3.83288 4.64084 0
M  V30 286 H 29.5279 -1.05374 2.84833 0
M  V30 287 H 27.1129 -0.456237 1.42263 0
M  V30 288 H 28.9949 -3.46492 2.39835 0
M  V30 289 H 27.6699 -2.9577 1.31536 0
M  V30 290 H 26.5769 -1.76172 3.30021 0
M  V30 291 H 27.9099 -2.33523 4.33275 0
M  V30 292 N 29.562 -1.4872 -0.521534 0
M  V30 293 C 30.81 -1.56857 -1.27437 0
M  V30 294 C 31.131 -0.247982 -1.93417 0
M  V30 295 O 30.401 0.731151 -1.81744 0
M  V30 296 H 28.981 -0.577885 -0.473347 0
M  V30 297 H 31.643 -1.85233 -0.606205 0
M  V30 298 H 30.739 -2.35402 -2.0492 0
M  V30 299 N 31.0401 0.771051 -1.3745 0
M  V30 300 C 32.0031 1.86598 -1.33093 0
M  V30 301 C 33.0031 1.59076 -0.234845 0
M  V30 302 O 34.1931 1.67145 -0.490732 0
M  V30 303 C 31.3251 3.23747 -1.06773 0
M  V30 304 H 32.5181 1.91873 -2.30488 0
M  V30 305 H 30.0711 0.970876 -1.2249 0
M  V30 306 H 30.8061 3.24148 -0.099129 0
M  V30 307 H 30.5911 3.45115 -1.86112 0
M  V30 308 H 32.0811 4.03824 -1.06377 0
M  V30 309 N 32.5182 1.22032 0.997298 0
M  V30 310 C 33.9292 1.0397 1.55071 0
M  V30 311 C 34.2802 -0.398192 1.92117 0
M  V30 312 O 33.4052 -1.28254 1.74298 0
M  V30 313 C 34.0002 1.88109 2.81781 0
M  V30 314 C 32.5592 1.74357 3.33581 0
M  V30 315 C 31.7062 1.84846 2.06706 0
M  V30 316 H 34.6572 1.35941 0.818883 0
M  V30 317 H 34.6782 1.39589 3.53971 0
M  V30 318 H 34.1902 2.92754 2.54787 0
M  V30 319 H 32.2912 0.72427 3.65493 0
M  V30 320 H 32.4042 2.56772 4.04481 0
M  V30 321 H 30.7682 1.28238 2.20062 0
M  V30 322 H 31.5512 2.91014 1.82114 0
M  V30 323 N 33.9963 -1.19345 1.0293 0
M  V30 324 C 35.2213 -1.93538 0.745511 0
M  V30 325 C 35.6463 -1.75007 -0.689511 0
M  V30 326 O 35.0043 -1.05265 -1.47611 0
M  V30 327 C 35.0523 -3.43336 1.10239 0
M  V30 328 O 34.1563 -4.11806 0.221289 0
M  V30 329 H 33.4973 -0.604193 0.275404 0
M  V30 330 H 36.0273 -1.5141 1.37609 0
M  V30 331 H 36.0373 -3.94004 1.05947 0
M  V30 332 H 34.7123 -3.56146 2.14786 0
M  V30 333 H 33.2893 -3.715 0.322842 0
M  V30 334 N 35.4744 -0.807222 -1.35358 0
M  V30 335 C 36.7204 -0.388463 -1.99045 0
M  V30 336 C 37.0534 1.04184 -1.63888 0
M  V30 337 O 36.3284 1.72292 -0.902535 0
M  V30 338 C 36.6114 -0.572783 -3.55515 0
M  V30 339 C 36.4644 -2.04807 -4.00468 0
M  V30 340 C 37.7834 0.00114064 -4.401 0
M  V30 341 H 34.9024 -0.142619 -0.723069 0
M  V30 342 H 37.5444 -1.01687 -1.60498 0
M  V30 343 H 35.6944 -0.0378425 -3.88482 0
M  V30 344 H 37.3664 -2.64544 -3.77908 0
M  V30 345 H 35.6094 -2.54427 -3.51353 0
M  V30 346 H 36.2804 -2.12792 -5.09337 0
M  V30 347 H 38.7564 -0.455716 -4.13597 0
M  V30 348 H 37.6324 -0.157737 -5.48673 0
M  V30 349 H 37.8934 1.09488 -4.28328 0
M  V30 350 N 36.9525 1.47285 -0.560781 0
M  V30 351 C 38.1995 2.02464 -0.038062 0
M  V30 352 C 38.5275 1.43474 1.31322 0
M  V30 353 O 37.7825 0.581311 1.86867 0
M  V30 354 C 38.0815 3.57258 0.100784 0
M  V30 355 C 37.7475 4.35184 -1.18007 0
M  V30 356 C 36.4095 4.56194 -1.53103 0
M  V30 357 C 38.7615 4.80098 -2.02867 0
M  V30 358 C 36.0895 5.19367 -2.729 0
M  V30 359 C 38.4415 5.44593 -3.21871 0
M  V30 360 C 37.1055 5.63835 -3.57276 0
M  V30 361 H 36.3755 0.740869 -0.0139279 0
M  V30 362 H 39.0225 1.76916 -0.733012 0
M  V30 363 H 37.3275 3.81819 0.878724 0
M  V30 364 H 39.0245 3.97606 0.520639 0
M  V30 365 H 35.6145 4.19113 -0.8968 0
M  V30 366 H 39.7985 4.63642 -1.7706 0
M  V30 367 H 35.0545 5.32459 -3.00496 0
M  V30 368 H 39.2285 5.78358 -3.87911 0
M  V30 369 H 36.8555 6.12557 -4.50197 0
M  V30 370 N 38.4306 0.297415 1.54768 0
M  V30 371 C 39.3606 -0.573494 2.26348 0
M  V30 372 C 40.3416 -1.14085 1.26169 0
M  V30 373 O 41.5266 -1.17086 1.54934 0
M  V30 374 C 38.6566 -1.74716 3.00153 0
M  V30 375 C 37.6106 -1.31032 4.07449 0
M  V30 376 C 36.9366 -2.56887 4.68949 0
M  V30 377 C 38.2366 -0.444183 5.20408 0
M  V30 378 H 39.9306 0.0235131 2.99391 0
M  V30 379 H 37.4766 0.0127488 1.43994 0
M  V30 380 H 39.4296 -2.3625 3.48947 0
M  V30 381 H 38.1536 -2.37035 2.24682 0
M  V30 382 H 36.8126 -0.718066 3.59499 0
M  V30 383 H 36.4606 -3.17512 3.90122 0
M  V30 384 H 36.1606 -2.2836 5.41411 0
M  V30 385 H 37.6846 -3.19229 5.20505 0
M  V30 386 H 39.0986 -0.9651 5.65118 0
M  V30 387 H 37.4956 -0.252846 5.99567 0
M  V30 388 H 38.5656 0.531609 4.81977 0
M  V30 389 N 39.9087 -1.5758 0.0250728 0
M  V30 390 C 41.1557 -1.91633 -0.654444 0
M  V30 391 C 41.4837 -0.901103 -1.72367 0
M  V30 392 O 40.7387 0.0905647 -1.9549 0
M  V30 393 C 41.0377 -3.32421 -1.31268 0
M  V30 394 C 40.7037 -4.49344 -0.374223 0
M  V30 395 C 39.3657 -4.8106 -0.115911 0
M  V30 396 C 41.7177 -5.20498 0.270432 0
M  V30 397 C 39.0457 -5.8129 0.79493 0
M  V30 398 C 41.3977 -6.21699 1.1693 0
M  V30 399 C 40.0617 -6.51859 1.43655 0
M  V30 400 H 39.3317 -0.701236 -0.239478 0
M  V30 401 H 41.9787 -1.91307 0.0859734 0
M  V30 402 H 40.2837 -3.28989 -2.12775 0
M  V30 403 H 41.9807 -3.56038 -1.84494 0
M  V30 404 H 38.5707 -4.24579 -0.58573 0
M  V30 405 H 42.7547 -4.96229 0.0839194 0
M  V30 406 H 38.0107 -6.03005 1.00973 0
M  V30 407 H 42.1847 -6.75955 1.67504 0
M  V30 408 H 39.8117 -7.2934 2.144 0
M  V30 409 N 41.3868 0.248026 -1.55636 0
M  V30 410 C 42.7978 0.817177 -1.67866 0
M  V30 411 C 43.1488 1.86069 -0.622322 0
M  V30 412 O 42.2738 2.15157 0.231618 0
M  V30 413 C 42.8688 1.489 -3.04326 0
M  V30 414 C 41.4278 2.00587 -3.185 0
M  V30 415 C 40.5748 0.856573 -2.63739 0
M  V30 416 H 43.5258 0.0238579 -1.58682 0
M  V30 417 H 43.5468 2.35698 -2.98708 0
M  V30 418 H 43.0588 0.729279 -3.81186 0
M  V30 419 H 41.1598 2.79443 -2.4646 0
M  V30 420 H 41.2728 2.20402 -4.25393 0
M  V30 421 H 39.6368 1.25678 -2.21534 0
M  V30 422 H 40.4198 0.109953 -3.43124 0
M  V30 423 N 42.8649 1.48995 0.513639 0
M  V30 424 C 44.2759 1.5119 1.09537 0
M  V30 425 C 44.6269 0.290906 1.94031 0
M  V30 426 O 43.7519 -0.60049 2.07902 0
M  V30 427 C 44.3469 2.73964 1.99322 0
M  V30 428 C 42.9059 2.78978 2.52682 0
M  V30 429 C 42.0529 2.44934 1.30009 0
M  V30 430 H 45.0039 1.55875 0.298125 0
M  V30 431 H 45.0249 2.53409 2.83838 0
M  V30 432 H 44.5369 3.62813 1.37799 0
M  V30 433 H 42.6379 1.94378 3.1788 0
M  V30 434 H 42.7509 3.8083 2.90698 0
M  V30 435 H 41.1149 1.9644 1.62122 0
M  V30 436 H 41.8979 3.36043 0.702131 0
M  V30 437 N 44.343 -0.763751 1.37857 0
M  V30 438 C 45.29 -1.87726 1.34267 0
M  V30 439 C 46.26 -1.64807 0.206879 0
M  V30 440 O 47.445 -1.86613 0.397508 0
M  V30 441 C 44.585 -3.24896 1.16346 0
M  V30 442 C 43.698 -3.59716 2.39225 0
M  V30 443 C 42.833 -4.86137 2.14114 0
M  V30 444 C 41.872 -5.13711 3.32817 0
M  V30 445 N 41.009 -6.31323 3.07206 0
M  V30 446 H 45.849 -1.90129 2.29466 0
M  V30 447 H 43.386 -0.929433 1.14017 0
M  V30 448 H 45.344 -4.04036 1.03975 0
M  V30 449 H 43.974 -3.21847 0.247909 0
M  V30 450 H 43.026 -2.75498 2.62307 0
M  V30 451 H 44.338 -3.76027 3.27728 0
M  V30 452 H 43.492 -5.73198 1.9882 0
M  V30 453 H 42.231 -4.71945 1.22961 0
M  V30 454 H 41.236 -4.25123 3.48641 0
M  V30 455 H 42.461 -5.29807 4.24832 0
M  V30 456 H 40.407 -6.18474 2.1869 0
M  V30 457 H 40.324 -6.48087 3.89254 0
M  V30 458 H 41.592 -7.213 2.95546 0
M  V30 459 N 45.8211 -1.22559 -0.990812 0
M  V30 460 C 47.2321 -1.04791 -1.54518 0
M  V30 461 C 47.5831 0.387998 -1.92325 0
M  V30 462 O 46.7081 1.27328 -1.74976 0
M  V30 463 C 47.3031 -1.896 -2.80779 0
M  V30 464 C 45.8621 -1.76124 -3.32652 0
M  V30 465 C 45.0091 -1.8594 -2.05722 0
M  V30 466 H 47.9601 -1.36374 -0.811662 0
M  V30 467 H 47.9811 -1.41464 -3.53225 0
M  V30 468 H 47.4931 -2.94101 -2.53231 0
M  V30 469 H 45.5941 -0.743643 -3.65104 0
M  V30 470 H 45.7071 -2.58913 -4.03114 0
M  V30 471 H 44.0711 -1.29403 -2.19379 0
M  V30 472 H 44.8541 -2.91976 -1.80568 0
M  V30 473 N 47.2992 1.18797 -1.03562 0
M  V30 474 C 48.2462 2.22253 -0.622259 0
M  V30 475 C 49.2162 1.61987 0.36736 0
M  V30 476 O 50.4012 1.88986 0.262492 0
M  V30 477 C 47.5412 3.45097 0.0138462 0
M  V30 478 C 46.6542 4.19722 -1.02263 0
M  V30 479 C 45.7892 5.30009 -0.355573 0
M  V30 480 C 44.8282 5.96399 -1.37749 0
M  V30 481 N 43.9652 6.98234 -0.735766 0
M  V30 482 H 48.8052 2.56968 -1.50903 0
M  V30 483 H 46.3422 1.26245 -0.755017 0
M  V30 484 H 48.3002 4.15279 0.399948 0
M  V30 485 H 46.9302 3.11018 0.864158 0
M  V30 486 H 45.9822 3.48418 -1.52673 0
M  V30 487 H 47.2942 4.65227 -1.79903 0
M  V30 488 H 46.4482 6.0664 0.0850095 0
M  V30 489 H 45.1872 4.85592 0.452967 0
M  V30 490 H 44.1922 5.18512 -1.82826 0
M  V30 491 H 45.4172 6.42899 -2.18764 0
M  V30 492 H 43.3632 6.55979 0.0525597 0
M  V30 493 H 43.2802 7.41965 -1.44995 0
M  V30 494 H 44.5482 7.78845 -0.31941 0
M  V30 495 N 48.7773 0.814389 1.34928 0
M  V30 496 C 50.0543 0.321363 1.92942 0
M  V30 497 C 50.4343 -1.19014 1.74353 0
M  V30 498 O 49.7823 -1.99328 1.11716 0
M  V30 499 C 49.9923 0.741323 3.41036 0
M  V30 500 C 51.3403 0.735266 4.18185 0
M  V30 501 O 52.3643 0.68336 3.49584 0
M  V30 502 O 51.2233 0.800703 5.40602 0
M  V30 503 H 48.3173 0.0858893 0.822528 0
M  V30 504 H 50.8633 0.898609 1.43955 0
M  V30 505 H 49.6353 1.78276 3.4833 0
M  V30 506 H 49.2583 0.139307 3.97356 0
M  V30 507 N 50.2554 -1.46986 0.568584 0
M  V30 508 C 51.4834 -2.0683 0.0539956 0
M  V30 509 C 51.8984 -1.41953 -1.24478 0
M  V30 510 O 51.2554 -0.519933 -1.74937 0
M  V30 511 C 51.3064 -3.61254 -0.133362 0
M  V30 512 O 51.0274 -4.237 1.11399 0
M  V30 513 C 52.5284 -4.37992 -0.683927 0
M  V30 514 H 49.7484 -0.669058 0.0510141 0
M  V30 515 H 52.2924 -1.88824 0.785234 0
M  V30 516 H 50.4474 -3.78735 -0.81477 0
M  V30 517 H 50.8614 -5.16388 0.91888 0
M  V30 518 H 52.3354 -5.46684 -0.764263 0
M  V30 519 H 52.8124 -4.05058 -1.69778 0
M  V30 520 H 53.4184 -4.25283 -0.0378494 0
M  V30 521 N 51.7335 -0.305618 -1.54608 0
M  V30 522 C 52.6635 0.561482 -2.26649 0
M  V30 523 C 53.6445 1.13415 -1.26772 0
M  V30 524 O 54.8295 1.16262 -1.55553 0
M  V30 525 C 51.9595 1.73122 -3.01075 0
M  V30 526 C 50.9135 1.2887 -4.08138 0
M  V30 527 C 50.2395 2.54396 -4.70305 0
M  V30 528 C 51.5395 0.416578 -5.20636 0
M  V30 529 H 53.2335 -0.0393902 -2.99374 0
M  V30 530 H 50.7795 -0.020385 -1.43986 0
M  V30 531 H 52.7325 2.34396 -3.50195 0
M  V30 532 H 51.4565 2.3584 -2.25936 0
M  V30 533 H 50.1155 0.698991 -3.59875 0
M  V30 534 H 49.7635 3.15439 -3.918 0
M  V30 535 H 49.4635 2.25486 -5.42614 0
M  V30 536 H 50.9875 3.16464 -5.2219 0
M  V30 537 H 52.4015 0.935116 -5.65622 0
M  V30 538 H 50.7985 0.221046 -5.99693 0
M  V30 539 H 51.8685 -0.557162 -4.81688 0
M  V30 540 N 53.2116 1.57565 -0.0334293 0
M  V30 541 C 54.1446 2.05997 0.981866 0
M  V30 542 C 55.1226 0.956647 1.3148 0
M  V30 543 O 56.3066 1.22729 1.43073 0
M  V30 544 C 53.4336 2.48564 2.30074 0
M  V30 545 C 52.4796 3.69958 2.12211 0
M  V30 546 S 53.3126 5.16414 1.41692 0
M  V30 547 C 54.4686 5.6228 2.7494 0
M  V30 548 H 54.7016 2.91792 0.569612 0
M  V30 549 H 52.2346 1.53366 0.178376 0
M  V30 550 H 54.1926 2.73753 3.05892 0
M  V30 551 H 52.8536 1.63106 2.68431 0
M  V30 552 H 52.0466 3.97603 3.09722 0
M  V30 553 H 51.6486 3.44943 1.44535 0
M  V30 554 H 53.9406 5.66783 3.71165 0
M  V30 555 H 54.8836 6.61759 2.51953 0
M  V30 556 H 55.2916 4.89944 2.80384 0
M  V30 557 N 54.6897 -0.239769 1.55765 0
M  V30 558 C 55.9387 -0.964754 1.77131 0
M  V30 559 C 56.2517 -1.86213 0.59868 0
M  V30 560 O 57.4577 -2.6244 0.695522 0
M  V30 561 C 55.9137 -1.76552 3.1362 0
M  V30 562 C 55.5217 -0.915185 4.38553 0
M  V30 563 C 57.2657 -2.48281 3.44321 0
M  V30 564 C 55.1727 -1.71225 5.66071 0
M  V30 565 H 54.1027 -0.363953 0.660344 0
M  V30 566 H 56.7537 -0.219181 1.82186 0
M  V30 567 H 55.1357 -2.55331 3.02691 0
M  V30 568 H 56.3097 -0.169217 4.60489 0
M  V30 569 H 54.6247 -0.310889 4.15238 0
M  V30 570 H 57.2217 -3.08382 4.36812 0
M  V30 571 H 57.5647 -3.20256 2.65973 0
M  V30 572 H 58.0977 -1.76507 3.56497 0
M  V30 573 H 54.8367 -1.03612 6.4726 0
M  V30 574 H 54.3567 -2.43331 5.48224 0
M  V30 575 H 56.0357 -2.27758 6.05587 0
M  V30 576 N 56.1678 -1.49265 -0.50573 0
M  V30 577 C 57.3928 -1.62478 -1.28902 0
M  V30 578 C 57.8178 -0.294332 -1.85783 0
M  V30 579 O 57.1758 0.737412 -1.65626 0
M  V30 580 C 57.2238 -2.69268 -2.39848 0
M  V30 581 O 56.3278 -2.28113 -3.43567 0
M  V30 582 H 55.6688 -0.54399 -0.380751 0
M  V30 583 H 58.1988 -1.95421 -0.605952 0
M  V30 584 H 58.2088 -2.91291 -2.85681 0
M  V30 585 H 56.8838 -3.65846 -1.97812 0
M  V30 586 H 55.4608 -2.16401 -3.03685 0
M  V30 587 N 57.6459 0.756429 -1.3826 0
M  V30 588 C 59.0619 1.0591 -1.19395 0
M  V30 589 C 59.2619 2.01459 -0.0406567 0
M  V30 590 O 58.3179 2.44909 0.614467 0
M  V30 591 C 59.6309 1.64191 -2.51916 0
M  V30 592 C 61.1789 1.76376 -2.58574 0
M  V30 593 C 61.6539 2.38069 -3.91264 0
M  V30 594 N 63.1449 2.45503 -3.92788 0
M  V30 595 C 63.8799 2.94126 -4.92217 0
M  V30 596 N 63.3759 3.42805 -6.02043 0
M  V30 597 N 65.1689 2.9314 -4.7961 0
M  V30 598 H 57.3199 0.122313 -2.12048 0
M  V30 599 H 59.5829 0.116892 -0.940766 0
M  V30 600 H 59.2889 1.01451 -3.3675 0
M  V30 601 H 59.1629 2.6329 -2.70108 0
M  V30 602 H 61.5499 2.38244 -1.74137 0
M  V30 603 H 61.6309 0.759894 -2.44252 0
M  V30 604 H 61.2749 1.76835 -4.76121 0
M  V30 605 H 61.2049 3.39091 -4.02895 0
M  V30 606 H 63.6959 2.1107 -3.13461 0
M  V30 607 H 64.0089 3.78354 -6.73846 0
M  V30 608 H 62.3539 3.4087 -6.05667 0
M  V30 609 H 65.5449 2.54419 -3.92923 0
M  V30 610 H 65.7179 3.30721 -5.5725 0
M  V30 611 N 59.124 1.23083 0.984299 0
M  V30 612 C 60.352 1.08714 1.76037 0
M  V30 613 C 60.767 -0.361691 1.85303 0
M  V30 614 O 60.124 -1.25034 1.32939 0
M  V30 615 C 60.175 1.70206 3.18923 0
M  V30 616 O 59.896 3.09423 3.10144 0
M  V30 617 C 61.397 1.61227 4.12941 0
M  V30 618 H 58.617 0.380664 0.552572 0
M  V30 619 H 61.161 1.62853 1.23689 0
M  V30 620 H 59.316 1.20109 3.6831 0
M  V30 621 H 59.73 3.39188 4.00065 0
M  V30 622 H 61.204 2.08962 5.10919 0
M  V30 623 H 61.681 0.570375 4.35481 0
M  V30 624 H 62.287 2.10671 3.69456 0
M  V30 625 N 60.6021 -1.18246 1.0419 0
M  V30 626 C 62.0131 -1.69914 0.773698 0
M  V30 627 C 62.3641 -1.83085 -0.705297 0
M  V30 628 O 61.4891 -1.51123 -1.5489 0
M  V30 629 C 62.0841 -3.08619 1.39784 0
M  V30 630 C 60.6431 -3.57494 1.17792 0
M  V30 631 C 59.7901 -2.34013 1.48773 0
M  V30 632 H 62.7411 -1.02904 1.20816 0
M  V30 633 H 62.7621 -3.71958 0.801714 0
M  V30 634 H 62.2741 -2.99001 2.47426 0
M  V30 635 H 60.3751 -3.72406 0.120295 0
M  V30 636 H 60.4881 -4.40852 1.87581 0
M  V30 637 H 58.8521 -2.37986 0.907463 0
M  V30 638 H 59.6351 -2.27013 2.57527 0
M  V30 639 N 62.0802 -0.821533 -1.34494 0
M  V30 640 C 62.9902 -0.244355 -2.33324 0
M  V30 641 C 64.0062 0.620527 -1.62559 0
M  V30 642 O 65.1822 0.528754 -1.94335 0
M  V30 643 C 62.2472 0.585368 -3.41723 0
M  V30 644 C 61.3082 -0.301752 -4.28238 0
M  V30 645 C 60.5412 0.488466 -5.3146 0
M  V30 646 O 60.7642 1.72186 -5.4379 0
M  V30 647 O 59.6982 -0.12848 -6.01763 0
M  V30 648 H 63.5242 -1.06231 -2.84515 0
M  V30 649 H 61.1092 -0.583645 -1.37528 0
M  V30 650 H 62.9912 1.05747 -4.07916 0
M  V30 651 H 61.6662 1.38068 -2.92778 0
M  V30 652 H 60.5732 -0.821315 -3.64973 0
M  V30 653 H 61.9062 -1.06138 -4.8062 0
M  V30 654 N 63.5583 1.46682 -0.576371 0
M  V30 655 C 64.8043 2.02712 -0.0596221 0
M  V30 656 C 65.1373 1.44765 1.29448 0
M  V30 657 O 64.4123 0.610355 1.84675 0
M  V30 658 C 64.6953 3.60098 0.0129503 0
M  V30 659 C 64.5483 4.28441 -1.3696 0
M  V30 660 C 65.8673 4.34224 0.71678 0
M  V30 661 H 62.9863 0.736637 -0.0231407 0
M  V30 662 H 65.6283 1.74898 -0.742351 0
M  V30 663 H 63.7783 3.83926 0.594378 0
M  V30 664 H 65.4503 4.15896 -1.9957 0
M  V30 665 H 63.6933 3.8805 -1.93907 0
M  V30 666 H 64.3643 5.3716 -1.27135 0
M  V30 667 H 66.8403 4.15503 0.222908 0
M  V30 668 H 65.7163 5.43936 0.73657 0
M  V30 669 H 65.9773 4.04823 1.77682 0
M  V30 670 N 65.0364 0.313813 1.54444 0
M  V30 671 C 66.2644 -0.293918 2.04802 0
M  V30 672 C 66.6794 -1.46537 1.19047 0
M  V30 673 O 66.0364 -1.81182 0.218939 0
M  V30 674 C 66.0874 -0.737806 3.53891 0
M  V30 675 O 65.8084 0.387038 4.36387 0
M  V30 676 C 67.3094 -1.40936 4.203 0
M  V30 677 H 64.5294 -0.0620057 0.668129 0
M  V30 678 H 67.0734 0.457169 1.99324 0
M  V30 679 H 65.2284 -1.43889 3.59687 0
M  V30 680 H 65.6424 0.0391274 5.24485 0
M  V30 681 H 67.1164 -1.67099 5.26101 0
M  V30 682 H 67.5934 -2.35355 3.70816 0
M  V30 683 H 68.1994 -0.751117 4.18615 0
M  V30 684 N 66.5145 -1.57545 0.0417849 0
M  V30 685 C 67.7545 -1.94185 -0.63809 0
M  V30 686 C 68.1185 -0.919339 -1.68559 0
M  V30 687 O 69.3195 -1.17236 -2.41886 0
M  V30 688 C 67.5905 -3.35672 -1.22714 0
M  V30 689 S 69.1495 -3.94256 -1.92633 0
M  V30 690 H 65.9675 -0.679353 -0.209764 0
M  V30 691 H 68.5695 -1.95199 0.108479 0
M  V30 692 H 67.2735 -4.07898 -0.452503 0
M  V30 693 H 66.8045 -3.38132 -2.01073 0
M  V30 694 H 68.8195 -3.7872 -3.20602 0
M  V30 695 N 67.9926 0.231505 -1.5589 0
M  V30 696 C 69.2386 0.95877 -1.78705 0
M  V30 697 C 69.5716 1.8438 -0.609725 0
M  V30 698 O 68.8466 1.90521 0.391426 0
M  V30 699 C 69.1296 1.8062 -3.11526 0
M  V30 700 C 68.9826 0.948328 -4.39689 0
M  V30 701 C 70.3016 2.78585 -3.40703 0
M  V30 702 H 67.4206 0.347129 -0.650131 0
M  V30 703 H 70.0626 0.228259 -1.88624 0
M  V30 704 H 68.2126 2.42902 -3.03201 0
M  V30 705 H 69.8846 0.343016 -4.60023 0
M  V30 706 H 68.1276 0.253314 -4.3306 0
M  V30 707 H 68.7986 1.57543 -5.29041 0
M  V30 708 H 71.2746 2.26439 -3.49091 0
M  V30 709 H 70.1506 3.34988 -4.34826 0
M  V30 710 H 70.4116 3.55825 -2.62375 0
M  V30 711 N 69.4707 1.49531 0.497807 0
M  V30 712 C 70.7167 1.59415 1.25358 0
M  V30 713 C 71.0497 0.281422 1.9215 0
M  V30 714 O 70.3247 -0.715249 1.80871 0
M  V30 715 C 70.6077 2.75566 2.3181 0
M  V30 716 C 70.4607 4.16642 1.69498 0
M  V30 717 C 71.7797 2.87347 3.33346 0
M  V30 718 H 68.8987 0.580244 0.454408 0
M  V30 719 H 71.5407 1.81827 0.551262 0
M  V30 720 H 69.6907 2.56587 2.91711 0
M  V30 721 H 71.3627 4.47145 1.13399 0
M  V30 722 H 69.6057 4.22141 0.998978 0
M  V30 723 H 70.2767 4.93792 2.46725 0
M  V30 724 H 72.7527 3.04634 2.83438 0
M  V30 725 H 71.6287 3.70289 4.05188 0
M  V30 726 H 71.8897 1.96834 3.95865 0
M  V30 727 N 70.9488 -0.749086 1.3866 0
M  V30 728 C 72.1948 -1.51056 1.35314 0
M  V30 729 C 72.5278 -1.94121 -0.0553751 0
M  V30 730 O 71.8028 -1.65763 -1.01749 0
M  V30 731 C 72.0858 -2.76003 2.31288 0
M  V30 732 C 71.9388 -2.39047 3.8102 0
M  V30 733 C 73.2578 -3.78046 2.2532 0
M  V30 734 H 70.3768 -0.547972 0.492844 0
M  V30 735 H 73.0188 -0.857628 1.69543 0
M  V30 736 H 71.1688 -3.31716 2.02229 0
M  V30 737 H 72.8408 -1.89074 4.20771 0
M  V30 738 H 71.0838 -1.71449 3.98482 0
M  V30 739 H 71.7548 -3.28462 4.4364 0
M  V30 740 H 74.2308 -3.31884 2.50983 0
M  V30 741 H 73.1068 -4.63159 2.94576 0
M  V30 742 H 73.3678 -4.23957 1.25352 0
M  V30 743 N 72.4269 -1.23603 -0.977757 0
M  V30 744 C 73.7039 -0.977897 -1.69401 0
M  V30 745 C 74.0839 0.502738 -2.05026 0
M  V30 746 O 73.4319 1.47459 -1.74551 0
M  V30 747 C 73.6419 -1.89077 -2.93345 0
M  V30 748 C 74.9899 -2.15579 -3.65802 0
M  V30 749 O 76.0139 -1.86648 -3.03383 0
M  V30 750 O 74.8729 -2.64658 -4.78141 0
M  V30 751 H 71.9669 -0.369025 -0.740101 0
M  V30 752 H 74.5129 -1.34657 -1.03274 0
M  V30 753 H 73.2849 -2.89158 -2.63634 0
M  V30 754 H 72.9079 -1.52463 -3.67207 0
M  V30 755 N 73.905 1.17692 -1.04816 0
M  V30 756 C 75.151 1.88137 -0.75711 0
M  V30 757 C 75.484 1.80604 0.713841 0
M  V30 758 O 74.759 1.21146 1.52164 0
M  V30 759 C 75.042 3.38318 -1.2334 0
M  V30 760 C 74.895 3.54622 -2.76701 0
M  V30 761 C 76.214 4.32214 -0.829415 0
M  V30 762 H 73.333 0.683163 -0.27651 0
M  V30 763 H 75.975 1.38424 -1.30149 0
M  V30 764 H 74.125 3.80787 -0.770286 0
M  V30 765 H 75.797 3.21194 -3.31107 0
M  V30 766 H 74.04 2.97026 -3.16161 0
M  V30 767 H 74.711 4.60028 -3.05088 0
M  V30 768 H 77.187 3.97565 -1.22805 0
M  V30 769 H 76.063 5.35838 -1.19033 0
M  V30 770 H 76.324 4.41294 0.266891 0
M  V30 771 N 75.3831 0.828654 1.34056 0
M  V30 772 C 76.6081 0.431637 2.02859 0
M  V30 773 C 77.0331 -0.956339 1.61975 0
M  V30 774 O 76.3911 -1.62338 0.807228 0
M  V30 775 C 76.4391 0.548323 3.56407 0
M  V30 776 O 75.5431 -0.429556 4.10157 0
M  V30 777 H 74.8841 0.176886 0.640006 0
M  V30 778 H 77.4141 1.12066 1.71179 0
M  V30 779 H 77.4241 0.426196 4.05768 0
M  V30 780 H 76.0991 1.5606 3.8551 0
M  V30 781 H 74.6761 -0.265836 3.71951 0
M  V30 782 N 76.8612 -1.46375 0.584142 0
M  V30 783 C 77.8112 -2.27371 -0.169232 0
M  V30 784 C 78.7952 -1.35955 -0.860523 0
M  V30 785 O 79.9872 -1.60119 -0.754382 0
M  V30 786 C 77.1162 -3.22334 -1.18134 0
M  V30 787 C 76.2022 -4.21235 -0.492088 0
M  V30 788 N 76.5932 -5.03766 0.453129 0
M  V30 789 C 74.8912 -4.39773 -0.742652 0
M  V30 790 C 75.5922 -5.75366 0.85609 0
M  V30 791 N 74.5682 -5.43214 0.204926 0
M  V30 792 H 78.3702 -2.88572 0.557097 0
M  V30 793 H 75.8842 -1.57242 0.406042 0
M  V30 794 H 77.8812 -3.79071 -1.73525 0
M  V30 795 H 76.5412 -2.62693 -1.90847 0
M  V30 796 H 77.5522 -5.11227 0.828723 0
M  V30 797 H 74.2292 -3.91279 -1.45625 0
M  V30 798 H 75.6192 -6.5172 1.63434 0
M  V30 799 N 78.3393 -0.321999 -1.54275 0
M  V30 800 C 79.2493 0.553631 -2.27974 0
M  V30 801 C 80.2653 1.13054 -1.32268 0
M  V30 802 O 81.4413 1.15084 -1.6528 0
M  V30 803 C 78.5063 1.69927 -3.02201 0
M  V30 804 C 77.5673 1.15433 -4.1349 0
M  V30 805 C 76.8003 2.24537 -4.84168 0
M  V30 806 O 77.0233 3.44852 -4.5435 0
M  V30 807 O 75.9573 1.90044 -5.7111 0
M  V30 808 H 79.7833 -0.0448345 -3.03667 0
M  V30 809 H 77.3683 -0.0877418 -1.49142 0
M  V30 810 H 79.2503 2.3663 -3.48689 0
M  V30 811 H 77.9253 2.28395 -2.29385 0
M  V30 812 H 76.8323 0.452436 -3.71354 0
M  V30 813 H 78.1653 0.614805 -4.88345 0
M  V30 814 N 79.8174 1.5752 -0.0501392 0
M  V30 815 C 81.0944 1.83996 0.663685 0
M  V30 816 C 81.4744 0.938339 1.89099 0
M  V30 817 O 80.8224 -0.00087759 2.285 0
M  V30 818 C 81.0324 3.33702 1.02196 0
M  V30 819 C 82.3804 4.00691 1.40469 0
M  V30 820 O 83.4044 3.38321 1.11433 0
M  V30 821 O 82.2634 5.10658 1.94654 0
M  V30 822 H 79.3574 0.759385 0.32751 0
M  V30 823 H 81.9034 1.69514 -0.0794238 0
M  V30 824 H 80.6754 3.91015 0.149364 0
M  V30 825 H 80.2984 3.53368 1.82255 0
M  V30 826 N 81.2955 -0.223234 1.56011 0
M  V30 827 C 82.7065 -0.790368 1.69145 0
M  V30 828 C 83.0575 -1.85055 0.651845 0
M  V30 829 O 82.1825 -2.15498 -0.197359 0
M  V30 830 C 82.7775 -1.4404 3.06656 0
M  V30 831 C 81.3365 -1.95494 3.2165 0
M  V30 832 C 80.4835 -0.814506 2.65068 0
M  V30 833 H 83.4345 0.00139011 1.587 0
M  V30 834 H 83.4555 -2.30916 3.0242 0
M  V30 835 H 82.9675 -0.668543 3.82298 0
M  V30 836 H 81.0685 -2.75487 2.50874 0
M  V30 837 H 81.1815 -2.13607 4.28846 0
M  V30 838 H 79.5455 -1.22137 2.23505 0
M  V30 839 H 80.3285 -0.0553515 3.43255 0
M  V30 840 N 82.7736 -1.49793 -0.48987 0
M  V30 841 C 83.6836 -1.70036 -1.61632 0
M  V30 842 C 84.6996 -0.583102 -1.63939 0
M  V30 843 O 85.8756 -0.859169 -1.82154 0
M  V30 844 C 82.9406 -1.77277 -2.97949 0
M  V30 845 C 82.0016 -3.00918 -3.06181 0
M  V30 846 C 81.2346 -3.07804 -4.35996 0
M  V30 847 O 81.4576 -2.21982 -5.25433 0
M  V30 848 O 80.3916 -4.00369 -4.49431 0
M  V30 849 H 84.2176 -2.65486 -1.47482 0
M  V30 850 H 81.8026 -1.33666 -0.667362 0
M  V30 851 H 83.6846 -1.84329 -3.78947 0
M  V30 852 H 82.3596 -0.850076 -3.12339 0
M  V30 853 H 81.2666 -2.99377 -2.2433 0
M  V30 854 H 82.5996 -3.92704 -2.96723 0
M  V30 855 N 84.2517 0.741722 -1.39055 0
M  V30 856 C 85.4977 1.50336 -1.36113 0
M  V30 857 C 85.8307 1.94148 0.0450796 0
M  V30 858 O 85.1057 1.66301 1.00868 0
M  V30 859 C 85.3887 2.74773 -2.32749 0
M  V30 860 C 85.2417 2.37023 -3.82283 0
M  V30 861 C 86.5607 3.76846 -2.27322 0
M  V30 862 H 83.6797 0.545351 -0.495743 0
M  V30 863 H 86.3217 0.848624 -1.69995 0
M  V30 864 H 84.4717 3.30639 -2.03986 0
M  V30 865 H 86.1437 1.8684 -4.21768 0
M  V30 866 H 84.3867 1.69334 -3.99385 0
M  V30 867 H 85.0577 3.26104 -4.45376 0
M  V30 868 H 87.5337 3.30548 -2.5274 0
M  V30 869 H 86.4097 4.6159 -2.97028 0
M  V30 870 H 86.6707 4.23286 -1.27599 0
M  V30 871 N 85.7298 1.2412 0.971189 0
M  V30 872 C 86.6768 1.0305 2.06517 0
M  V30 873 C 87.6468 -0.0550666 1.66009 0
M  V30 874 O 88.8318 0.0988688 1.90544 0
M  V30 875 C 85.9718 0.637653 3.39158 0
M  V30 876 C 85.0848 1.79633 3.92882 0
M  V30 877 C 84.2198 1.34939 5.13775 0
M  V30 878 C 83.2588 2.47823 5.59687 0
M  V30 879 N 82.3958 2.04022 6.71803 0
M  V30 880 H 87.2358 1.96685 2.23873 0
M  V30 881 H 84.7728 0.979694 1.09729 0
M  V30 882 H 86.7308 0.390931 4.15364 0
M  V30 883 H 85.3608 -0.261693 3.21737 0
M  V30 884 H 84.4128 2.15681 3.13346 0
M  V30 885 H 85.7248 2.64466 4.22918 0
M  V30 886 H 84.8788 1.06134 5.97345 0
M  V30 887 H 83.6178 0.471557 4.85415 0
M  V30 888 H 82.6228 2.77392 4.74693 0
M  V30 889 H 83.8478 3.36158 5.90063 0
M  V30 890 H 81.7938 1.18632 6.45184 0
M  V30 891 H 81.7108 2.82409 7.01271 0
M  V30 892 H 82.9788 1.78347 7.58823 0
M  V30 893 N 87.2079 -1.17134 1.05439 0
M  V30 894 C 88.4549 -1.87456 0.765942 0
M  V30 895 C 88.7829 -1.81189 -0.707153 0
M  V30 896 O 88.0379 -1.21633 -1.5331 0
M  V30 897 C 88.3369 -3.36833 1.19491 0
M  V30 898 C 88.0029 -3.63301 2.67063 0
M  V30 899 C 86.6649 -3.70234 3.07376 0
M  V30 900 C 89.0169 -3.74575 3.62413 0
M  V30 901 C 86.3449 -3.85933 4.41896 0
M  V30 902 C 88.6969 -3.91793 4.9667 0
M  V30 903 C 87.3609 -3.96966 5.36633 0
M  V30 904 H 86.6309 -0.685948 0.280278 0
M  V30 905 H 89.2779 -1.38556 1.32192 0
M  V30 906 H 87.5829 -3.87807 0.557969 0
M  V30 907 H 89.2799 -3.89611 0.948893 0
M  V30 908 H 85.8699 -3.58532 2.34846 0
M  V30 909 H 90.0539 -3.68537 3.32406 0
M  V30 910 H 85.3099 -3.88187 4.72357 0
M  V30 911 H 89.4839 -3.99458 5.70444 0
M  V30 912 H 87.1109 -4.08883 6.40874 0
M  V30 913 N 88.686 -0.835752 -1.33615 0
M  V30 914 C 89.634 -0.255238 -2.31195 0
M  V30 915 C 90.628 0.61107 -1.57995 0
M  V30 916 O 91.834 0.500979 -1.72888 0
M  V30 917 H 88.209 -0.0638085 -0.749288 0
M  V30 918 H 90.18 -1.09283 -2.77669 0
M  V30 919 C 88.929 0.55754 -3.43201 0
M  V30 920 H 88.252 -0.0997553 -3.99676 0
M  V30 921 H 89.692 0.929622 -4.13683 0
M  V30 922 C 88.151 1.73515 -2.88781 0
M  V30 923 O 88.681 2.83376 -2.84712 0
M  V30 924 N 86.887 1.55603 -2.4543 0
M  V30 925 H 86.434 0.662354 -2.48939 0
M  V30 926 H 86.392 2.34545 -2.09371 0
M  V30 927 N 90.1641 1.46063 -0.591896 0
M  V30 928 C 91.4101 2.03203 -0.0894879 0
M  V30 929 C 91.7651 1.45407 1.25994 0
M  V30 930 O 91.0581 0.61326 1.8152 0
M  V30 931 C 91.2521 3.57391 0.0249813 0
M  V30 932 C 91.0811 4.30142 -1.3118 0
M  V30 933 C 89.8511 4.68688 -1.88838 0
M  V30 934 C 92.0491 4.63098 -2.23708 0
M  V30 935 N 90.0311 5.26228 -3.1616 0
M  V30 936 C 91.4021 5.21305 -3.3562 0
M  V30 937 C 93.4571 4.45031 -2.23274 0
M  V30 938 C 92.1601 5.63351 -4.47245 0
M  V30 939 C 94.1861 4.881 -3.33935 0
M  V30 940 C 93.5481 5.46386 -4.44569 0
M  V30 941 H 89.6471 0.778323 -0.0757431 0
M  V30 942 H 92.2311 1.78094 -0.78681 0
M  V30 943 H 90.4021 3.82195 0.69149 0
M  V30 944 H 92.1341 4.0118 0.532613 0
M  V30 945 H 88.8891 4.5174 -1.42223 0
M  V30 946 H 89.3131 5.59512 -3.8115 0
M  V30 947 H 93.9551 3.99295 -1.39008 0
M  V30 948 H 91.6731 6.08061 -5.32247 0
M  V30 949 H 95.2591 4.75866 -3.34728 0
M  V30 950 H 94.1391 5.79102 -5.28782 0
M  V30 951 N 91.6422 0.330177 1.54103 0
M  V30 952 C 92.8722 -0.271784 2.04805 0
M  V30 953 C 93.2802 -1.45816 1.20559 0
M  V30 954 O 92.6232 -1.82247 0.2306 0
M  V30 955 C 92.6852 -0.763238 3.51305 0
M  V30 956 C 92.3492 0.301705 4.56003 0
M  V30 957 C 93.3462 1.13999 5.07248 0
M  V30 958 C 91.0312 0.451793 5.00264 0
M  V30 959 C 93.0252 2.11402 6.01322 0
M  V30 960 C 90.7122 1.42924 5.94151 0
M  V30 961 C 91.7102 2.25882 6.44567 0
M  V30 962 O 91.3982 3.21965 7.3661 0
M  V30 963 H 91.1302 -0.058693 0.673447 0
M  V30 964 H 93.6842 0.476395 1.99799 0
M  V30 965 H 91.9142 -1.56244 3.5373 0
M  V30 966 H 93.6032 -1.28427 3.85047 0
M  V30 967 H 94.3692 1.03505 4.73827 0
M  V30 968 H 90.2482 -0.184044 4.60632 0
M  V30 969 H 93.7922 2.76192 6.40596 0
M  V30 970 H 89.6892 1.53479 6.26988 0
M  V30 971 H 90.4572 3.17281 7.54503 0
M  V30 972 N 93.1203 -1.57491 0.0584922 0
M  V30 973 C 94.3663 -1.93264 -0.614558 0
M  V30 974 C 94.6993 -0.937717 -1.7006 0
M  V30 975 O 93.9743 0.0351652 -1.94468 0
M  V30 976 C 94.2573 -3.3938 -1.20386 0
M  V30 977 C 94.1103 -4.49625 -0.125375 0
M  V30 978 C 95.4293 -3.86039 -2.11334 0
M  V30 979 H 92.5483 -0.702791 -0.221933 0
M  V30 980 H 95.1903 -1.8961 0.12175 0
M  V30 981 H 93.3403 -3.42626 -1.83139 0
M  V30 982 H 95.0123 -4.58506 0.506971 0
M  V30 983 H 93.2553 -4.30354 0.545672 0
M  V30 984 H 93.9263 -5.48967 -0.577861 0
M  V30 985 H 96.4023 -3.84716 -1.58534 0
M  V30 986 H 95.2783 -4.88914 -2.49507 0
M  V30 987 H 95.5393 -3.23215 -3.01636 0
M  V30 988 N 94.5984 0.214957 -1.56127 0
M  V30 989 C 95.8754 0.963093 -1.70247 0
M  V30 990 C 96.2554 2.02166 -0.60764 0
M  V30 991 O 95.6034 2.25244 0.384385 0
M  V30 992 C 95.8134 1.56756 -3.11815 0
M  V30 993 C 97.1614 2.0573 -3.7143 0
M  V30 994 O 98.1854 1.66637 -3.14818 0
M  V30 995 O 97.0444 2.77603 -4.70743 0
M  V30 996 H 94.1384 0.450321 -0.693643 0
M  V30 997 H 96.6844 0.206219 -1.68442 0
M  V30 998 H 95.4564 0.803533 -3.82961 0
M  V30 999 H 95.0794 2.3898 -3.17765 0
M  V30 1000 N 96.0765 1.50051 0.48192 0
M  V30 1001 C 97.3245 1.60181 1.23234 0
M  V30 1002 C 97.6455 0.299176 1.92691 0
M  V30 1003 O 96.9155 -0.682708 1.83619 0
M  V30 1004 H 95.4955 0.590232 0.457859 0
M  V30 1005 H 98.1575 1.86775 0.556881 0
M  V30 1006 H 97.2535 2.40753 1.98607 0
M  V30 1007 N 97.5546 -0.734337 1.39446 0
M  V30 1008 C 98.8006 -1.49613 1.36908 0
M  V30 1009 C 99.1336 -1.94169 -0.0347829 0
M  V30 1010 O 98.4086 -1.66833 -0.999847 0
M  V30 1011 C 98.6916 -2.73534 2.34203 0
M  V30 1012 C 98.5446 -2.34993 3.83534 0
M  V30 1013 C 99.8636 -3.75635 2.29317 0
M  V30 1014 H 96.9826 -0.542714 0.498629 0
M  V30 1015 H 99.6246 -0.839597 1.70443 0
M  V30 1016 H 97.7746 -3.29553 2.05736 0
M  V30 1017 H 99.4466 -1.84601 4.22753 0
M  V30 1018 H 97.6896 -1.67213 4.00278 0
M  V30 1019 H 98.3606 -3.23738 4.47099 0
M  V30 1020 H 100.837 -3.29203 2.54489 0
M  V30 1021 H 99.7126 -4.60008 2.99472 0
M  V30 1022 H 99.9736 -4.22603 1.29842 0
M  V30 1023 N 99.0327 -1.24633 -0.964593 0
M  V30 1024 C 99.9427 -1.05859 -2.09359 0
M  V30 1025 C 100.959 0.00148855 -1.74 0
M  V30 1026 O 102.135 -0.197346 -2.00431 0
M  V30 1027 C 99.1997 -0.668879 -3.40187 0
M  V30 1028 C 98.2607 -1.80578 -3.89474 0
M  V30 1029 C 97.4937 -1.43457 -5.14058 0
M  V30 1030 O 97.7167 -0.325775 -5.69469 0
M  V30 1031 O 96.6507 -2.2613 -5.57807 0
M  V30 1032 H 100.477 -2.00516 -2.28094 0
M  V30 1033 H 98.0617 -1.03481 -1.0776 0
M  V30 1034 H 99.9437 -0.463211 -4.18846 0
M  V30 1035 H 98.6187 0.248536 -3.22744 0
M  V30 1036 H 97.5257 -2.06623 -3.11862 0
M  V30 1037 H 98.8587 -2.70208 -4.11398 0
M  V30 1038 N 100.511 1.16574 -1.06058 0
M  V30 1039 C 101.757 1.87324 -0.777022 0
M  V30 1040 C 102.09 1.81351 0.694645 0
M  V30 1041 O 101.365 1.22753 1.50871 0
M  V30 1042 C 101.648 3.36991 -1.26922 0
M  V30 1043 C 101.501 3.51667 -2.80447 0
M  V30 1044 C 102.82 4.3131 -0.87521 0
M  V30 1045 H 99.9388 0.680191 -0.28374 0
M  V30 1046 H 102.581 1.37036 -1.3161 0
M  V30 1047 H 100.731 3.79949 -0.81063 0
M  V30 1048 H 102.403 3.17664 -3.34495 0
M  V30 1049 H 100.646 2.93656 -3.19294 0
M  V30 1050 H 101.317 4.56766 -3.0995 0
M  V30 1051 H 103.793 3.9624 -1.27014 0
M  V30 1052 H 102.669 5.34545 -1.2471 0
M  V30 1053 H 102.93 4.41552 0.220071 0
M  V30 1054 N 101.989 0.842826 1.3317 0
M  V30 1055 C 102.939 0.250877 2.26616 0
M  V30 1056 C 103.923 -0.596427 1.49437 0
M  V30 1057 O 105.115 -0.447747 1.71243 0
M  V30 1058 C 102.244 -0.569779 3.38539 0
M  V30 1059 C 101.33 0.289254 4.23112 0
M  V30 1060 N 101.721 1.36987 4.86897 0
M  V30 1061 C 100.019 0.0769631 4.45934 0
M  V30 1062 C 100.72 1.89737 5.49886 0
M  V30 1063 N 99.6959 1.19827 5.30229 0
M  V30 1064 H 103.498 1.07718 2.73448 0
M  V30 1065 H 101.012 0.687693 1.47121 0
M  V30 1066 H 103.009 -1.01018 4.04476 0
M  V30 1067 H 101.669 -1.39401 2.93253 0
M  V30 1068 H 102.68 1.75277 4.87338 0
M  V30 1069 H 99.3569 -0.713507 4.11358 0
M  V30 1070 H 100.747 2.80253 6.10662 0
M  V30 1071 N 103.467 -1.45747 0.599634 0
M  V30 1072 C 104.415 -2.322 -0.136426 0
M  V30 1073 C 105.409 -1.45497 -0.867583 0
M  V30 1074 O 106.615 -1.62027 -0.78405 0
M  V30 1075 H 102.99 -0.749368 -0.0628588 0
M  V30 1076 H 104.961 -2.92072 0.611281 0
M  V30 1077 C 103.71 -3.28974 -1.12567 0
M  V30 1078 H 103.033 -3.9568 -0.572484 0
M  V30 1079 H 104.473 -3.92212 -1.61077 0
M  V30 1080 C 102.932 -2.55561 -2.19523 0
M  V30 1081 O 103.462 -2.33111 -3.27143 0
M  V30 1082 N 101.668 -2.15832 -1.94589 0
M  V30 1083 H 101.215 -2.3429 -1.07078 0
M  V30 1084 H 101.173 -1.67034 -2.66359 0
M  V30 1085 N 104.945 -0.338344 -1.53925 0
M  V30 1086 C 105.908 0.508299 -2.23493 0
M  V30 1087 C 106.908 1.03175 -1.23335 0
M  V30 1088 O 108.098 0.921826 -1.47811 0
M  V30 1089 C 105.23 1.70754 -2.95052 0
M  V30 1090 H 106.423 -0.100058 -2.99733 0
M  V30 1091 H 103.976 -0.0896198 -1.56043 0
M  V30 1092 H 104.711 2.35474 -2.22986 0
M  V30 1093 H 104.496 1.33946 -3.68512 0
M  V30 1094 H 105.986 2.30818 -3.48013 0
M  V30 1095 N 106.423 1.57458 -0.0668435 0
M  V30 1096 C 107.37 2.12439 0.902122 0
M  V30 1097 C 108.34 1.03565 1.2986 0
M  V30 1098 O 109.525 1.312 1.38532 0
M  V30 1099 C 106.665 2.6865 2.16614 0
M  V30 1100 C 105.778 3.91663 1.82274 0
M  V30 1101 C 104.913 4.36134 3.0325 0
M  V30 1102 C 103.952 5.51808 2.64904 0
M  V30 1103 N 103.089 5.9126 3.78624 0
M  V30 1104 H 107.929 2.94934 0.426382 0
M  V30 1105 H 105.466 1.4575 0.198819 0
M  V30 1106 H 107.424 2.99346 2.90599 0
M  V30 1107 H 106.054 1.88928 2.61737 0
M  V30 1108 H 105.106 3.6746 0.983719 0
M  V30 1109 H 106.418 4.75693 1.50059 0
M  V30 1110 H 105.572 4.68465 3.85519 0
M  V30 1111 H 104.311 3.50948 3.38655 0
M  V30 1112 H 103.316 5.19133 1.81055 0
M  V30 1113 H 104.541 6.38722 2.30675 0
M  V30 1114 H 102.487 5.09024 4.138 0
M  V30 1115 H 102.404 6.70018 3.5016 0
M  V30 1116 H 103.672 6.28212 4.61486 0
M  V30 1117 N 107.901 -0.206675 1.56239 0
M  V30 1118 C 109.129 -0.945345 1.8404 0
M  V30 1119 C 109.544 -1.77336 0.647885 0
M  V30 1120 O 108.901 -1.78425 -0.383511 0
M  V30 1121 C 108.952 -1.8509 3.10522 0
M  V30 1122 O 108.673 -1.05634 4.25174 0
M  V30 1123 C 110.174 -2.70222 3.51418 0
M  V30 1124 H 107.394 -0.276372 0.61144 0
M  V30 1125 H 109.938 -0.217417 2.03341 0
M  V30 1126 H 108.093 -2.53259 2.93153 0
M  V30 1127 H 108.507 -1.67238 4.97124 0
M  V30 1128 H 109.981 -3.29438 4.42916 0
M  V30 1129 H 110.458 -3.43358 2.73864 0
M  V30 1130 H 111.064 -2.07443 3.71278 0
M  V30 1131 N 109.379 -1.50304 -0.473955 0
M  V30 1132 C 110.326 -1.68959 -1.57231 0
M  V30 1133 C 111.296 -0.530899 -1.57387 0
M  V30 1134 O 112.481 -0.761133 -1.74961 0
M  V30 1135 C 109.621 -1.7871 -2.95223 0
M  V30 1136 C 108.734 -3.06061 -3.04878 0
M  V30 1137 C 107.869 -3.06626 -4.33767 0
M  V30 1138 C 106.908 -4.28443 -4.37154 0
M  V30 1139 N 106.045 -4.26763 -5.5751 0
M  V30 1140 H 110.885 -2.6273 -1.40631 0
M  V30 1141 H 108.422 -1.30241 -0.683789 0
M  V30 1142 H 110.38 -1.82344 -3.75242 0
M  V30 1143 H 109.01 -0.883806 -3.10465 0
M  V30 1144 H 108.062 -3.11911 -2.17751 0
M  V30 1145 H 109.374 -3.96039 -3.0324 0
M  V30 1146 H 108.528 -3.08973 -5.22131 0
M  V30 1147 H 107.267 -2.14473 -4.3801 0
M  V30 1148 H 106.272 -4.2631 -3.47188 0
M  V30 1149 H 107.497 -5.2182 -4.34605 0
M  V30 1150 H 105.443 -3.37462 -5.62544 0
M  V30 1151 H 105.36 -5.10507 -5.57601 0
M  V30 1152 H 106.628 -4.33253 -6.48006 0
M  V30 1153 N 110.857 0.726932 -1.39834 0
M  V30 1154 C 112.268 1.30558 -1.3346 0
M  V30 1155 C 112.619 1.962 -0.00273003 0
M  V30 1156 O 111.744 1.96826 0.899371 0
M  V30 1157 C 112.339 2.37404 -2.41713 0
M  V30 1158 C 110.898 2.90921 -2.38835 0
M  V30 1159 C 110.045 1.64578 -2.2318 0
M  V30 1160 H 112.996 0.523862 -1.49804 0
M  V30 1161 H 113.017 3.17984 -2.08966 0
M  V30 1162 H 112.529 1.89599 -3.38635 0
M  V30 1163 H 110.63 3.42985 -1.45575 0
M  V30 1164 H 110.743 3.43487 -3.33997 0
M  V30 1165 H 109.107 1.89219 -1.70494 0
M  V30 1166 H 109.89 1.18814 -3.22084 0
M  V30 1167 N 112.336 1.25143 0.95797 0
M  V30 1168 C 113.752 1.01892 1.22842 0
M  V30 1169 C 113.952 -0.266311 1.99732 0
M  V30 1170 O 113.008 -0.979913 2.3271 0
M  V30 1171 C 114.321 2.24004 2.00606 0
M  V30 1172 C 115.869 2.28731 2.13662 0
M  V30 1173 C 116.344 3.5049 2.94823 0
M  V30 1174 N 117.835 3.50866 3.02403 0
M  V30 1175 C 118.57 4.4174 3.65586 0
M  V30 1176 N 118.066 5.42882 4.30408 0
M  V30 1177 N 119.859 4.29429 3.62694 0
M  V30 1178 H 112.01 2.07718 0.443493 0
M  V30 1179 H 114.273 0.912031 0.258657 0
M  V30 1180 H 113.979 3.17395 1.51503 0
M  V30 1181 H 113.853 2.26907 3.01319 0
M  V30 1182 H 116.24 1.35865 2.61963 0
M  V30 1183 H 116.321 2.29848 1.12265 0
M  V30 1184 H 115.965 4.43676 2.47213 0
M  V30 1185 H 115.895 3.46617 3.96439 0
M  V30 1186 H 118.386 2.777 2.56302 0
M  V30 1187 H 118.699 6.0844 4.76467 0
M  V30 1188 H 117.044 5.46758 4.29047 0
M  V30 1189 H 120.235 3.49643 3.11236 0
M  V30 1190 H 120.408 5.00448 4.1165 0
M  V30 1191 N 113.814 -1.1601 1.06675 0
M  V30 1192 C 114.724 -2.24156 0.692179 0
M  V30 1193 C 115.74 -1.71507 -0.293513 0
M  V30 1194 O 116.916 -2.009 -0.141861 0
M  V30 1195 C 113.981 -3.46587 0.0884131 0
M  V30 1196 C 113.042 -4.14257 1.12646 0
M  V30 1197 C 112.275 -5.30844 0.551416 0
M  V30 1198 O 112.498 -5.66858 -0.634656 0
M  V30 1199 O 111.432 -5.87848 1.29298 0
M  V30 1200 H 115.258 -2.58513 1.59388 0
M  V30 1201 H 112.843 -1.23599 0.83926 0
M  V30 1202 H 114.725 -4.20679 -0.246361 0
M  V30 1203 H 113.4 -3.13994 -0.786712 0
M  V30 1204 H 112.307 -3.42118 1.51348 0
M  V30 1205 H 113.64 -4.50914 1.97325 0
M  V30 1206 N 115.292 -0.849877 -1.32721 0
M  V30 1207 C 116.202 -0.293791 -2.32753 0
M  V30 1208 C 117.218 0.585906 -1.63839 0
M  V30 1209 O 118.394 0.487413 -1.95413 0
M  V30 1210 C 115.459 0.512752 -3.42887 0
M  V30 1211 C 114.52 -0.39252 -4.27502 0
M  V30 1212 C 113.753 0.375625 -5.32377 0
M  V30 1213 O 113.976 1.60613 -5.4732 0
M  V30 1214 O 112.91 -0.256094 -6.01355 0
M  V30 1215 H 116.736 -1.12242 -2.82197 0
M  V30 1216 H 114.321 -0.612685 -1.36259 0
M  V30 1217 H 116.203 0.970704 -4.10067 0
M  V30 1218 H 114.878 1.31826 -2.95641 0
M  V30 1219 H 113.785 -0.898547 -3.63149 0
M  V30 1220 H 115.118 -1.16309 -4.7826 0
M  V30 1221 N 116.77 1.45427 -0.607355 0
M  V30 1222 C 117.702 2.2871 0.149752 0
M  V30 1223 C 118.715 1.39937 0.831958 0
M  V30 1224 O 119.904 1.64313 0.697385 0
M  V30 1225 C 117.004 3.15673 1.23304 0
M  V30 1226 C 116.177 4.32722 0.637996 0
M  V30 1227 C 115.236 5.00895 1.61215 0
M  V30 1228 O 114.262 5.57697 1.13854 0
M  V30 1229 N 115.464 5.00159 2.94655 0
M  V30 1230 H 118.229 2.94328 -0.564882 0
M  V30 1231 H 115.79 1.55612 -0.446823 0
M  V30 1232 H 117.782 3.58144 1.88454 0
M  V30 1233 H 116.352 2.51965 1.8502 0
M  V30 1234 H 115.572 3.93734 -0.191572 0
M  V30 1235 H 116.86 5.08321 0.220665 0
M  V30 1236 H 116.258 4.553 3.35735 0
M  V30 1237 H 114.815 5.46495 3.55228 0
M  V30 1238 N 118.248 0.346503 1.53744 0
M  V30 1239 C 119.478 -0.250047 2.05081 0
M  V30 1240 C 119.886 -1.44529 1.22098 0
M  V30 1241 O 119.229 -1.81992 0.249917 0
M  V30 1242 C 119.291 -0.725934 3.52094 0
M  V30 1243 C 118.955 0.350053 4.55657 0
M  V30 1244 C 119.952 1.19372 5.0601 0
M  V30 1245 C 117.637 0.504827 4.99757 0
M  V30 1246 C 119.631 2.17768 5.99046 0
M  V30 1247 C 117.318 1.49218 5.92602 0
M  V30 1248 C 118.316 2.32706 6.42135 0
M  V30 1249 O 118.004 3.2976 7.33153 0
M  V30 1250 H 117.736 -0.0515469 0.674032 0
M  V30 1251 H 120.29 0.497559 1.99282 0
M  V30 1252 H 118.52 -1.52483 3.55367 0
M  V30 1253 H 120.209 -1.24336 3.86388 0
M  V30 1254 H 120.975 1.08525 4.72702 0
M  V30 1255 H 116.854 -0.135178 4.60802 0
M  V30 1256 H 120.398 2.82971 6.37631 0
M  V30 1257 H 116.295 1.6012 6.25325 0
M  V30 1258 H 117.063 3.25265 7.51096 0
M  V30 1259 N 119.726 -1.57421 0.075193 0
M  V30 1260 C 120.674 -2.14124 -0.908508 0
M  V30 1261 C 121.668 -1.07898 -1.30592 0
M  V30 1262 O 122.874 -1.26273 -1.28277 0
M  V30 1263 H 119.249 -0.684707 -0.310935 0
M  V30 1264 H 121.22 -2.95634 -0.405374 0
M  V30 1265 C 119.969 -2.72044 -2.16535 0
M  V30 1266 H 119.292 -3.53456 -1.86839 0
M  V30 1267 H 120.732 -3.15311 -2.83469 0
M  V30 1268 C 119.191 -1.66968 -2.92615 0
M  V30 1269 O 119.721 -1.0967 -3.86439 0
M  V30 1270 N 117.927 -1.37923 -2.55784 0
M  V30 1271 H 117.474 -1.84706 -1.79559 0
M  V30 1272 H 117.432 -0.67852 -3.06991 0
M  V30 1273 N 121.204 0.198386 -1.56346 0
M  V30 1274 C 122.429 0.939682 -1.84891 0
M  V30 1275 C 122.854 1.76202 -0.658369 0
M  V30 1276 O 122.212 1.76993 0.392851 0
M  V30 1277 C 122.26 1.81428 -3.11635 0
M  V30 1278 O 121.364 2.91265 -2.91956 0
M  V30 1279 H 120.705 0.264807 -0.608912 0
M  V30 1280 H 123.235 0.204695 -2.03573 0
M  V30 1281 H 123.245 2.21958 -3.42343 0
M  V30 1282 H 121.92 1.21004 -3.97908 0
M  V30 1283 H 120.497 2.54514 -2.72538 0
M  V30 1284 N 122.682 1.50554 0.465978 0
M  V30 1285 C 123.91 1.65563 1.24083 0
M  V30 1286 C 124.325 0.341051 1.85694 0
M  V30 1287 O 123.682 -0.677543 1.69457 0
M  V30 1288 C 123.733 2.75051 2.34583 0
M  V30 1289 O 123.454 4.01413 1.75497 0
M  V30 1290 C 124.955 3.01078 3.25372 0
M  V30 1291 H 122.175 0.55638 0.375077 0
M  V30 1292 H 124.719 1.96807 0.555624 0
M  V30 1293 H 122.874 2.46486 2.9887 0
M  V30 1294 H 123.288 4.62002 2.48303 0
M  V30 1295 H 124.762 3.81339 3.99105 0
M  V30 1296 H 125.239 2.12349 3.84453 0
M  V30 1297 H 125.845 3.31194 2.66816 0
M  V30 1298 N 124.16 -0.719506 1.40217 0
M  V30 1299 C 125.39 -1.50646 1.41384 0
M  V30 1300 C 125.798 -1.89197 0.0107743 0
M  V30 1301 O 125.141 -1.55709 -0.974708 0
M  V30 1302 C 125.203 -2.81405 2.23722 0
M  V30 1303 C 124.867 -2.65199 3.72181 0
M  V30 1304 C 125.864 -2.32717 4.64907 0
M  V30 1305 C 123.549 -2.81586 4.1595 0
M  V30 1306 C 125.543 -2.16827 5.99387 0
M  V30 1307 C 123.23 -2.65313 5.50502 0
M  V30 1308 C 124.228 -2.32981 6.42035 0
M  V30 1309 O 123.916 -2.16827 7.74107 0
M  V30 1310 H 123.648 -0.471606 0.484318 0
M  V30 1311 H 126.202 -0.895456 1.84853 0
M  V30 1312 H 124.432 -3.44823 1.75026 0
M  V30 1313 H 126.121 -3.43102 2.16878 0
M  V30 1314 H 126.887 -2.19694 4.32388 0
M  V30 1315 H 122.766 -3.0574 3.45027 0
M  V30 1316 H 126.31 -1.91513 6.70797 0
M  V30 1317 H 122.207 -2.7792 5.82607 0
M  V30 1318 H 122.975 -2.31778 7.84998 0
M  V30 1319 N 125.638 -1.25649 -0.95132 0
M  V30 1320 C 127.054 -1.02542 -1.223 0
M  V30 1321 C 127.254 0.255715 -1.99871 0
M  V30 1322 O 126.31 0.967558 -2.33226 0
M  V30 1323 C 127.623 -2.25065 -1.99415 0
M  V30 1324 C 129.171 -2.29861 -2.12446 0
M  V30 1325 C 129.646 -3.52048 -2.92961 0
M  V30 1326 N 131.137 -3.52465 -3.00538 0
M  V30 1327 C 131.872 -4.43672 -3.63239 0
M  V30 1328 N 131.368 -5.45157 -4.27523 0
M  V30 1329 N 133.161 -4.31346 -3.60412 0
M  V30 1330 H 125.312 -2.07951 -0.432471 0
M  V30 1331 H 127.575 -0.91339 -0.253816 0
M  V30 1332 H 127.281 -3.18194 -1.49817 0
M  V30 1333 H 127.155 -2.28502 -3.00111 0
M  V30 1334 H 129.542 -1.37252 -2.61239 0
M  V30 1335 H 129.623 -2.3044 -1.11044 0
M  V30 1336 H 129.267 -4.44981 -2.44856 0
M  V30 1337 H 129.197 -3.48715 -3.94596 0
M  V30 1338 H 131.688 -2.79056 -2.54826 0
M  V30 1339 H 132.001 -6.10958 -4.73234 0
M  V30 1340 H 130.346 -5.49025 -4.26141 0
M  V30 1341 H 133.537 -3.51288 -3.09377 0
M  V30 1342 H 133.71 -5.02624 -4.0899 0
M  V30 1343 N 127.117 1.15442 -1.07289 0
M  V30 1344 C 128.363 1.86489 -0.796846 0
M  V30 1345 C 128.696 1.82078 0.675371 0
M  V30 1346 O 127.971 1.24346 1.4956 0
M  V30 1347 C 128.254 3.35626 -1.30489 0
M  V30 1348 C 128.107 3.48673 -2.84161 0
M  V30 1349 C 129.426 4.30357 -0.920907 0
M  V30 1350 H 126.545 0.677144 -0.290939 0
M  V30 1351 H 129.187 1.35633 -1.33056 0
M  V30 1352 H 127.337 3.79068 -0.850883 0
M  V30 1353 H 129.009 3.14099 -3.37846 0
M  V30 1354 H 127.252 2.90253 -3.22391 0
M  V30 1355 H 127.923 4.53453 -3.14777 0
M  V30 1356 H 130.399 3.94871 -1.3121 0
M  V30 1357 H 129.275 5.33193 -1.30372 0
M  V30 1358 H 129.536 4.4176 0.173226 0
M  V30 1359 N 128.595 0.856903 1.32268 0
M  V30 1360 C 129.841 0.462069 1.97466 0
M  V30 1361 C 130.174 -0.980298 1.67642 0
M  V30 1362 O 129.449 -1.68824 0.965858 0
M  V30 1363 C 129.732 0.704336 3.53145 0
M  V30 1364 C 129.585 2.19529 3.9259 0
M  V30 1365 C 130.904 0.1622 4.39801 0
M  V30 1366 H 128.023 0.169357 0.717278 0
M  V30 1367 H 130.665 1.07574 1.56614 0
M  V30 1368 H 128.815 0.181999 3.88073 0
M  V30 1369 H 130.487 2.78387 3.67829 0
M  V30 1370 H 128.73 2.67292 3.41668 0
M  V30 1371 H 129.401 2.31549 5.01088 0
M  V30 1372 H 131.877 0.608905 4.11621 0
M  V30 1373 H 130.753 0.361265 5.4771 0
M  V30 1374 H 131.014 -0.935158 4.32096 0
M  V30 1375 N 130.073 -1.45103 0.615059 0
M  V30 1376 C 131.298 -2.07064 0.117988 0
M  V30 1377 C 131.723 -1.4554 -1.19163 0
M  V30 1378 O 131.081 -0.550855 -1.72729 0
M  V30 1379 C 131.129 -3.606 -0.000288387 0
M  V30 1380 O 130.233 -3.98847 -1.04856 0
M  V30 1381 H 129.574 -0.659467 0.0774581 0
M  V30 1382 H 132.104 -1.86236 0.847186 0
M  V30 1383 H 132.114 -4.07529 -0.196091 0
M  V30 1384 H 130.789 -4.04765 0.955932 0
M  V30 1385 H 129.366 -3.63577 -0.828619 0
M  V30 1386 N 131.551 -0.354651 -1.53558 0
M  V30 1387 C 132.797 0.238797 -2.01389 0
M  V30 1388 C 133.13 1.49309 -1.2418 0
M  V30 1389 O 132.405 1.91638 -0.332457 0
M  V30 1390 C 132.688 0.541771 -3.56001 0
M  V30 1391 C 132.541 -0.725388 -4.43912 0
M  V30 1392 C 133.86 1.34685 -4.18984 0
M  V30 1393 H 130.979 0.0853177 -0.732045 0
M  V30 1394 H 133.621 -0.477384 -1.83905 0
M  V30 1395 H 131.771 1.15189 -3.71031 0
M  V30 1396 H 133.443 -1.36313 -4.407 0
M  V30 1397 H 131.686 -1.34801 -4.12324 0
M  V30 1398 H 132.357 -0.468505 -5.50008 0
M  V30 1399 H 134.833 0.830837 -4.07721 0
M  V30 1400 H 133.709 1.52759 -5.27215 0
M  V30 1401 H 133.97 2.35221 -3.74331 0
M  V30 1402 N 133.029 1.57378 -0.0835403 0
M  V30 1403 C 133.959 2.1641 0.87686 0
M  V30 1404 C 134.94 1.09429 1.30228 0
M  V30 1405 O 136.125 1.37516 1.37124 0
M  V30 1406 C 133.255 2.73517 2.14022 0
M  V30 1407 C 132.209 3.85769 1.85381 0
M  V30 1408 C 131.535 4.29529 3.18448 0
M  V30 1409 C 132.835 5.09486 1.14984 0
M  V30 1410 H 134.529 2.96914 0.385059 0
M  V30 1411 H 132.075 1.42823 0.18377 0
M  V30 1412 H 134.028 3.13463 2.81636 0
M  V30 1413 H 132.752 1.90252 2.65465 0
M  V30 1414 H 131.411 3.46345 1.20169 0
M  V30 1415 H 131.059 3.43169 3.67755 0
M  V30 1416 H 130.759 5.05204 3.00071 0
M  V30 1417 H 132.283 4.72099 3.8724 0
M  V30 1418 H 133.697 5.46674 1.72687 0
M  V30 1419 H 132.094 5.90515 1.06826 0
M  V30 1420 H 133.164 4.84724 0.130749 0
M  V30 1421 N 134.507 -0.190092 1.56449 0
M  V30 1422 C 135.735 -0.925772 1.85033 0
M  V30 1423 C 136.15 -1.76638 0.666658 0
M  V30 1424 O 135.507 -1.78822 -0.364565 0
M  V30 1425 C 135.558 -1.81786 3.12468 0
M  V30 1426 O 135.279 -1.01118 4.26271 0
M  V30 1427 C 136.78 -2.6648 3.54265 0
M  V30 1428 H 134 -0.269872 0.614337 0
M  V30 1429 H 136.544 -0.195837 2.0356 0
M  V30 1430 H 134.699 -2.50136 2.95822 0
M  V30 1431 H 135.113 -1.61956 4.98869 0
M  V30 1432 H 136.587 -3.24722 4.46385 0
M  V30 1433 H 137.064 -3.40434 2.77491 0
M  V30 1434 H 137.67 -2.03493 3.73458 0
M  V30 1435 N 135.985 -1.50799 -0.457987 0
M  V30 1436 C 137.231 -1.62683 -1.21088 0
M  V30 1437 C 137.564 -0.332268 -1.91336 0
M  V30 1438 O 136.839 0.667043 -1.82704 0
M  V30 1439 C 137.122 -2.81615 -2.24422 0
M  V30 1440 C 136.975 -4.20989 -1.58392 0
M  V30 1441 C 138.294 -2.96085 -3.2561 0
M  V30 1442 H 135.413 -0.592087 -0.438864 0
M  V30 1443 H 138.055 -1.83225 -0.50286 0
M  V30 1444 H 136.205 -2.64231 -2.84806 0
M  V30 1445 H 137.877 -4.49994 -1.01504 0
M  V30 1446 H 136.12 -4.24641 -0.886704 0
M  V30 1447 H 136.791 -5.0016 -2.33547 0
M  V30 1448 H 139.267 -3.12042 -2.75262 0
M  V30 1449 H 138.143 -3.80902 -3.95228 0
M  V30 1450 H 138.404 -2.0726 -3.90507 0
M  V30 1451 N 137.463 0.71206 -1.40597 0
M  V30 1452 C 138.393 1.83889 -1.43899 0
M  V30 1453 C 139.374 1.67442 -0.299504 0
M  V30 1454 O 140.559 1.87421 -0.508624 0
M  V30 1455 C 137.689 3.21877 -1.30431 0
M  V30 1456 C 136.643 3.53002 -2.42019 0
M  V30 1457 C 135.969 4.90172 -2.13626 0
M  V30 1458 C 137.269 3.53643 -3.84362 0
M  V30 1459 H 138.963 1.81383 -2.38203 0
M  V30 1460 H 136.509 0.871237 -1.14654 0
M  V30 1461 H 138.462 4.00404 -1.31357 0
M  V30 1462 H 137.186 3.24968 -0.326049 0
M  V30 1463 H 135.845 2.76818 -2.40349 0
M  V30 1464 H 135.493 4.89869 -1.14182 0
M  V30 1465 H 135.193 5.11962 -2.88389 0
M  V30 1466 H 136.717 5.71028 -2.1624 0
M  V30 1467 H 138.131 4.22203 -3.87837 0
M  V30 1468 H 136.528 3.86961 -4.58673 0
M  V30 1469 H 137.598 2.52954 -4.13693 0
M  V30 1470 N 138.941 1.26152 0.944643 0
M  V30 1471 C 139.891 1.04081 2.02857 0
M  V30 1472 C 140.875 -0.0256555 1.6088 0
M  V30 1473 O 142.067 0.190884 1.75968 0
M  V30 1474 C 139.196 0.672118 3.36656 0
M  V30 1475 C 138.282 1.77586 3.85128 0
M  V30 1476 N 138.673 3.01272 4.06287 0
M  V30 1477 C 136.971 1.65867 4.1401 0
M  V30 1478 C 137.672 3.72983 4.46384 0
M  V30 1479 N 136.648 3.00653 4.52889 0
M  V30 1480 H 140.45 1.97968 2.17223 0
M  V30 1481 H 137.964 1.16618 1.13022 0
M  V30 1482 H 139.961 0.495166 4.13949 0
M  V30 1483 H 138.621 -0.259307 3.23663 0
M  V30 1484 H 139.632 3.37213 3.93075 0
M  V30 1485 H 136.309 0.796907 4.09824 0
M  V30 1486 H 137.699 4.792 4.70975 0
M  V30 1487 N 140.419 -1.14872 1.07899 0
M  V30 1488 C 141.351 -2.19425 0.662231 0
M  V30 1489 C 142.364 -1.60231 -0.288079 0
M  V30 1490 O 143.553 -1.78336 -0.076534 0
M  V30 1491 C 140.653 -3.38867 -0.0470695 0
M  V30 1492 C 139.826 -4.27597 0.920831 0
M  V30 1493 C 138.885 -5.25616 0.247805 0
M  V30 1494 O 137.911 -5.62189 0.890599 0
M  V30 1495 N 139.113 -5.71746 -1.00435 0
M  V30 1496 H 141.878 -2.55797 1.56166 0
M  V30 1497 H 139.439 -1.30042 0.964404 0
M  V30 1498 H 141.431 -4.01497 -0.50813 0
M  V30 1499 H 140.001 -3.00864 -0.848523 0
M  V30 1500 H 139.221 -3.61982 1.56087 0
M  V30 1501 H 140.509 -4.83748 1.57688 0
M  V30 1502 H 139.907 -5.44153 -1.54642 0
M  V30 1503 H 138.464 -6.36389 -1.40899 0
M  V30 1504 N 141.898 -0.863906 -1.31812 0
M  V30 1505 C 143.175 -0.39275 -1.91616 0
M  V30 1506 C 143.555 1.12461 -1.7865 0
M  V30 1507 O 142.903 1.95045 -1.19037 0
M  V30 1508 C 143.113 -0.867385 -3.38049 0
M  V30 1509 C 144.461 -0.889966 -4.15168 0
M  V30 1510 O 145.485 -0.812635 -3.46806 0
M  V30 1511 O 144.344 -1.00079 -5.37258 0
M  V30 1512 H 141.438 -0.116358 -0.818773 0
M  V30 1513 H 143.984 -0.951418 -1.40521 0
M  V30 1514 H 142.756 -1.91081 -3.41473 0
M  V30 1515 H 142.379 -0.286687 -3.96565 0
M  V30 1516 N 143.376 1.44774 -0.622745 0
M  V30 1517 C 144.622 2.02968 -0.13257 0
M  V30 1518 C 144.977 1.48047 1.22881 0
M  V30 1519 O 144.27 0.651625 1.80179 0
M  V30 1520 C 144.464 3.57364 -0.0508323 0
M  V30 1521 C 144.293 4.27262 -1.40275 0
M  V30 1522 C 143.063 4.64577 -1.98737 0
M  V30 1523 C 145.261 4.58248 -2.3348 0
M  V30 1524 N 143.243 5.19404 -3.27251 0
M  V30 1525 C 144.614 5.14069 -3.46603 0
M  V30 1526 C 146.669 4.40195 -2.32664 0
M  V30 1527 C 145.372 5.53738 -4.59093 0
M  V30 1528 C 147.398 4.80907 -3.44213 0
M  V30 1529 C 146.76 5.36834 -4.56058 0
M  V30 1530 H 142.859 0.776541 -0.0922354 0
M  V30 1531 H 145.443 1.76385 -0.82441 0
M  V30 1532 H 143.614 3.83576 0.610265 0
M  V30 1533 H 145.346 4.02219 0.447397 0
M  V30 1534 H 142.101 4.48622 -1.51774 0
M  V30 1535 H 142.525 5.51301 -3.92933 0
M  V30 1536 H 147.167 3.96257 -1.47446 0
M  V30 1537 H 144.885 5.96635 -5.45025 0
M  V30 1538 H 148.471 4.68659 -3.44747 0
M  V30 1539 H 147.351 5.67755 -5.40947 0
M  V30 1540 N 144.854 0.36279 1.53368 0
M  V30 1541 C 145.784 -0.476976 2.28576 0
M  V30 1542 C 146.765 -1.08631 1.30894 0
M  V30 1543 O 147.95 -1.10409 1.59761 0
M  V30 1544 C 145.08 -1.61828 3.07293 0
M  V30 1545 C 144.034 -1.13633 4.1264 0
M  V30 1546 C 143.36 -2.36766 4.79423 0
M  V30 1547 C 144.66 -0.223061 5.21823 0
M  V30 1548 H 146.354 0.150474 2.99022 0
M  V30 1549 H 143.9 0.0738103 1.43811 0
M  V30 1550 H 145.853 -2.21237 3.58653 0
M  V30 1551 H 144.577 -2.27292 2.34533 0
M  V30 1552 H 143.236 -0.564945 3.62221 0
M  V30 1553 H 142.884 -3.0068 4.03238 0
M  V30 1554 H 142.584 -2.05192 5.50609 0
M  V30 1555 H 144.108 -2.96865 5.33576 0
M  V30 1556 H 145.522 -0.724545 5.68703 0
M  V30 1557 H 143.919 0.001678 6.001 0
M  V30 1558 H 144.989 0.735553 4.79289 0
M  V30 1559 N 146.332 -1.57332 0.0918853 0
M  V30 1560 C 147.28 -2.15075 -0.885747 0
M  V30 1561 C 148.274 -1.09277 -1.29441 0
M  V30 1562 O 149.48 -1.27627 -1.26931 0
M  V30 1563 H 145.855 -0.687966 -0.303656 0
M  V30 1564 H 147.826 -2.96047 -0.373995 0
M  V30 1565 C 146.575 -2.74325 -2.13638 0
M  V30 1566 H 145.898 -3.55418 -1.8308 0
M  V30 1567 H 147.338 -3.183 -2.80109 0
M  V30 1568 C 145.797 -1.70062 -2.90827 0
M  V30 1569 O 146.327 -1.13763 -3.85254 0
M  V30 1570 N 144.533 -1.40628 -2.54307 0
M  V30 1571 H 144.08 -1.866 -1.7759 0
M  V30 1572 H 144.038 -0.711043 -3.06254 0
M  V30 1573 N 147.81 0.181792 -1.56548 0
M  V30 1574 C 149.058 0.89832 -1.81038 0
M  V30 1575 C 149.379 1.83232 -0.667164 0
M  V30 1576 O 148.649 1.93372 0.313673 0
M  V30 1577 H 147.229 0.33471 -0.667816 0
M  V30 1578 H 149.891 0.184116 -1.94028 0
M  V30 1579 H 148.987 1.4815 -2.74696 0
M  V30 1580 N 149.288 1.51039 0.449983 0
M  V30 1581 C 150.235 1.71439 1.54523 0
M  V30 1582 C 151.205 0.555871 1.56522 0
M  V30 1583 O 152.39 0.788871 1.73728 0
M  V30 1584 C 149.53 1.83384 2.92343 0
M  V30 1585 C 148.643 3.10873 2.9997 0
M  V30 1586 C 147.778 3.13488 4.28834 0
M  V30 1587 C 146.817 4.35343 4.30282 0
M  V30 1588 N 145.954 4.35579 5.5065 0
M  V30 1589 H 150.794 2.64934 1.36433 0
M  V30 1590 H 148.331 1.31312 0.662982 0
M  V30 1591 H 150.289 1.88291 3.72293 0
M  V30 1592 H 148.919 0.933086 3.0902 0
M  V30 1593 H 147.971 3.15336 2.12761 0
M  V30 1594 H 149.283 4.00814 2.96901 0
M  V30 1595 H 148.437 3.17241 5.17149 0
M  V30 1596 H 147.176 2.21414 4.34543 0
M  V30 1597 H 146.181 4.3178 3.40362 0
M  V30 1598 H 147.406 5.28668 4.26248 0
M  V30 1599 H 145.352 3.46369 5.57104 0
M  V30 1600 H 145.269 5.19313 5.49409 0
M  V30 1601 H 146.537 4.43507 6.41032 0
M  V30 1602 N 150.766 -0.704594 1.40972 0
M  V30 1603 C 151.676 -1.84856 1.44448 0
M  V30 1604 C 152.692 -1.70726 0.335961 0
M  V30 1605 O 153.868 -1.92799 0.582276 0
M  V30 1606 C 150.933 -3.20758 1.31587 0
M  V30 1607 C 149.994 -3.47063 2.52677 0
M  V30 1608 C 149.227 -4.76481 2.4042 0
M  V30 1609 O 149.45 -5.52341 1.42391 0
M  V30 1610 O 148.384 -5.03367 3.30007 0
M  V30 1611 H 152.21 -1.8488 2.40942 0
M  V30 1612 H 149.795 -0.85647 1.22413 0
M  V30 1613 H 151.677 -4.01913 1.26665 0
M  V30 1614 H 150.352 -3.21438 0.382049 0
M  V30 1615 H 149.259 -2.65873 2.63177 0
M  V30 1616 H 150.592 -3.5119 3.44858 0
M  V30 1617 N 152.244 -1.26651 -0.937939 0
M  V30 1618 C 153.474 -1.15006 -1.71631 0
M  V30 1619 C 153.882 0.297026 -1.86854 0
M  V30 1620 O 153.225 1.21493 -1.37786 0
M  V30 1621 C 153.287 -1.74984 -3.14039 0
M  V30 1622 C 152.951 -3.24103 -3.2219 0
M  V30 1623 C 153.948 -4.20877 -3.05219 0
M  V30 1624 C 151.633 -3.64625 -3.45476 0
M  V30 1625 C 153.627 -5.56151 -3.11408 0
M  V30 1626 C 151.314 -5.00032 -3.513 0
M  V30 1627 C 152.312 -5.95604 -3.34282 0
M  V30 1628 O 152 -7.28545 -3.3982 0
M  V30 1629 H 151.732 -0.401183 -0.544085 0
M  V30 1630 H 154.286 -1.67832 -1.18413 0
M  V30 1631 H 152.516 -1.16624 -3.68695 0
M  V30 1632 H 154.205 -1.58199 -3.73802 0
M  V30 1633 H 154.971 -3.90908 -2.87081 0
M  V30 1634 H 150.85 -2.90718 -3.57777 0
M  V30 1635 H 154.394 -6.30727 -2.98043 0
M  V30 1636 H 150.291 -5.29659 -3.68959 0
M  V30 1637 H 151.059 -7.3686 -3.56343 0
M  V30 1638 N 153.722 1.14298 -1.08507 0
M  V30 1639 C 154.669 2.19414 -0.715965 0
M  V30 1640 C 155.639 1.63399 0.298326 0
M  V30 1641 O 156.824 1.89929 0.182101 0
M  V30 1642 C 153.964 3.44845 -0.132534 0
M  V30 1643 C 153.077 4.15007 -1.19973 0
M  V30 1644 C 152.212 5.28024 -0.580048 0
M  V30 1645 C 151.251 5.9002 -1.62921 0
M  V30 1646 N 150.388 6.94485 -1.03125 0
M  V30 1647 H 155.228 2.50336 -1.61666 0
M  V30 1648 H 152.765 1.2293 -0.807882 0
M  V30 1649 H 154.723 4.16601 0.223454 0
M  V30 1650 H 153.353 3.14403 0.731467 0
M  V30 1651 H 152.405 3.41629 -1.67313 0
M  V30 1652 H 153.717 4.57178 -1.99473 0
M  V30 1653 H 152.871 6.06455 -0.172364 0
M  V30 1654 H 151.61 4.87076 0.246603 0
M  V30 1655 H 150.615 5.10291 -2.04654 0
M  V30 1656 H 151.84 6.33042 -2.45835 0
M  V30 1657 H 149.786 6.55612 -0.225711 0
M  V30 1658 H 149.703 7.35148 -1.76334 0
M  V30 1659 H 150.971 7.7679 -0.649458 0
M  V30 1660 N 155.201 0.870884 1.31352 0
M  V30 1661 C 156.441 0.488783 1.9847 0
M  V30 1662 C 156.805 -0.941536 1.67329 0
M  V30 1663 O 158.006 -1.42903 2.27667 0
M  V30 1664 C 156.277 0.739688 3.49662 0
M  V30 1665 S 157.836 0.457582 4.36408 0
M  V30 1666 H 154.654 0.18242 0.6872 0
M  V30 1667 H 157.256 1.12711 1.59739 0
M  V30 1668 H 155.96 1.77944 3.69816 0
M  V30 1669 H 155.491 0.0883905 3.93301 0
M  V30 1670 H 157.506 -0.709752 4.91098 0
M  V30 1671 N 156.679 -1.44442 0.630414 0
M  V30 1672 C 157.626 -2.30678 -0.0749355 0
M  V30 1673 C 158.596 -1.4344 -0.837502 0
M  V30 1674 O 159.781 -1.72343 -0.818684 0
M  V30 1675 C 156.921 -3.28706 -1.05103 0
M  V30 1676 C 156.034 -4.31046 -0.286954 0
M  V30 1677 C 155.169 -5.16167 -1.2548 0
M  V30 1678 C 154.208 -6.10216 -0.479843 0
M  V30 1679 N 153.345 -6.88039 -1.39811 0
M  V30 1680 H 158.185 -2.90454 0.666386 0
M  V30 1681 H 155.722 -1.43107 0.340404 0
M  V30 1682 H 157.68 -3.84027 -1.63031 0
M  V30 1683 H 156.31 -2.70632 -1.75949 0
M  V30 1684 H 155.362 -3.78203 0.408243 0
M  V30 1685 H 156.674 -4.97794 0.316657 0
M  V30 1686 H 155.828 -5.76002 -1.90544 0
M  V30 1687 H 154.567 -4.49491 -1.89233 0
M  V30 1688 H 153.572 -5.49491 0.184295 0
M  V30 1689 H 154.797 -6.78928 0.152965 0
M  V30 1690 H 152.743 -6.24032 -2.02287 0
M  V30 1691 H 152.66 -7.51223 -0.848508 0
M  V30 1692 H 153.928 -7.52397 -2.03762 0
M  V30 1693 N 158.157 -0.370918 -1.53173 0
M  V30 1694 C 159.403 0.217423 -2.01631 0
M  V30 1695 C 159.736 1.47983 -1.25756 0
M  V30 1696 O 159.011 1.91274 -0.352764 0
M  V30 1697 C 159.294 0.503982 -3.56556 0
M  V30 1698 C 159.147 -0.77243 -4.43118 0
M  V30 1699 C 160.466 1.30234 -4.20389 0
M  V30 1700 H 157.585 0.0775486 -0.732909 0
M  V30 1701 H 160.227 -0.496863 -1.83388 0
M  V30 1702 H 158.377 1.11248 -3.72231 0
M  V30 1703 H 160.049 -1.4098 -4.39229 0
M  V30 1704 H 158.292 -1.39167 -4.10871 0
M  V30 1705 H 158.963 -0.526815 -5.4948 0
M  V30 1706 H 161.439 0.787546 -4.08579 0
M  V30 1707 H 160.315 1.47158 -5.28806 0
M  V30 1708 H 160.576 2.31237 -3.76805 0
M  V30 1709 N 159.635 1.57281 -0.100228 0
M  V30 1710 C 160.86 1.99302 0.573881 0
M  V30 1711 C 161.285 0.979059 1.60611 0
M  V30 1712 O 160.643 -0.0517803 1.81226 0
M  V30 1713 C 160.691 3.40274 1.19358 0
M  V30 1714 O 159.795 3.41676 2.30935 0
M  V30 1715 H 159.136 0.647944 0.145138 0
M  V30 1716 H 161.666 2.03779 -0.183156 0
M  V30 1717 H 161.676 3.78078 1.53365 0
M  V30 1718 H 160.351 4.13594 0.437385 0
M  V30 1719 H 158.928 3.15672 1.98509 0
M  V30 1720 N 161.113 -0.173488 1.56642 0
M  V30 1721 C 162.061 -1.23417 1.97157 0
M  V30 1722 C 163.055 -1.45946 0.860013 0
M  V30 1723 O 164.261 -1.46551 1.04512 0
M  V30 1724 H 160.636 -0.414818 0.62724 0
M  V30 1725 H 162.607 -0.865582 2.8557 0
M  V30 1726 C 161.356 -2.5665 2.34576 0
M  V30 1727 H 160.679 -2.40137 3.19647 0
M  V30 1728 H 162.119 -3.2956 2.6677 0
M  V30 1729 C 160.578 -3.15245 1.18836 0
M  V30 1730 O 161.108 -3.98883 0.474869 0
M  V30 1731 N 159.314 -2.74303 0.959497 0
M  V30 1732 H 158.861 -2.0639 1.54146 0
M  V30 1733 H 158.819 -3.13844 0.186932 0
M  V30 1734 N 162.591 -1.51276 -0.441967 0
M  V30 1735 C 163.538 -1.72256 -1.53612 0
M  V30 1736 C 164.508 -0.564164 -1.56225 0
M  V30 1737 O 165.693 -0.798074 -1.73307 0
M  V30 1738 C 162.833 -1.84932 -2.91366 0
M  V30 1739 C 161.946 -3.12459 -2.98317 0
M  V30 1740 C 161.081 -3.15758 -4.27166 0
M  V30 1741 C 160.12 -4.37619 -4.27967 0
M  V30 1742 N 159.257 -4.38493 -5.48333 0
M  V30 1743 H 164.097 -2.65654 -1.35026 0
M  V30 1744 H 161.634 -1.31662 -0.656009 0
M  V30 1745 H 163.592 -1.90263 -3.7129 0
M  V30 1746 H 162.222 -0.949461 -3.08521 0
M  V30 1747 H 161.274 -3.1646 -2.11086 0
M  V30 1748 H 162.586 -4.02382 -2.94771 0
M  V30 1749 H 161.74 -3.19979 -5.15459 0
M  V30 1750 H 160.479 -2.23715 -4.33362 0
M  V30 1751 H 159.484 -4.33579 -3.38067 0
M  V30 1752 H 160.709 -5.30921 -4.23438 0
M  V30 1753 H 158.655 -3.49318 -5.55259 0
M  V30 1754 H 158.572 -5.22219 -5.46647 0
M  V30 1755 H 159.84 -4.469 -6.38671 0
M  V30 1756 N 164.069 0.697108 -1.41344 0
M  V30 1757 C 165.032 1.79281 -1.42797 0
M  V30 1758 C 166.032 1.57607 -0.318837 0
M  V30 1759 O 167.222 1.64309 -0.578642 0
M  V30 1760 C 164.354 3.17632 -1.23785 0
M  V30 1761 H 165.547 1.79385 -2.40335 0
M  V30 1762 H 163.1 0.904582 -1.27464 0
M  V30 1763 H 163.835 3.23167 -0.270814 0
M  V30 1764 H 163.62 3.34765 -2.04144 0
M  V30 1765 H 165.11 3.97617 -1.27633 0
M  V30 1766 N 165.547 1.27147 0.931209 0
M  V30 1767 C 166.477 1.12081 2.04842 0
M  V30 1768 C 167.458 0.0232364 1.70084 0
M  V30 1769 O 168.643 0.197085 1.93197 0
M  V30 1770 C 165.773 0.76354 3.38803 0
M  V30 1771 C 164.727 1.81396 3.87659 0
M  V30 1772 C 164.053 1.31075 5.18385 0
M  V30 1773 C 165.353 3.21739 4.11438 0
M  V30 1774 H 167.047 2.05537 2.17703 0
M  V30 1775 H 164.593 0.989603 1.04608 0
M  V30 1776 H 166.546 0.644982 4.16435 0
M  V30 1777 H 165.27 -0.206727 3.25945 0
M  V30 1778 H 163.929 1.92136 3.12217 0
M  V30 1779 H 163.577 0.330037 5.01916 0
M  V30 1780 H 163.277 2.013 5.52044 0
M  V30 1781 H 164.801 1.20506 5.98591 0
M  V30 1782 H 166.215 3.14019 4.79651 0
M  V30 1783 H 164.612 3.89644 4.56397 0
M  V30 1784 H 165.682 3.67054 3.16859 0
M  V30 1785 N 167.025 -1.13721 1.09112 0
M  V30 1786 C 168.436 -1.6648 0.845068 0
M  V30 1787 C 168.787 -1.85911 -0.62701 0
M  V30 1788 O 167.912 -1.57556 -1.48341 0
M  V30 1789 C 168.507 -3.02413 1.52748 0
M  V30 1790 C 167.066 -3.52176 1.32849 0
M  V30 1791 C 166.213 -2.27492 1.58564 0
M  V30 1792 H 169.164 -0.976872 1.25072 0
M  V30 1793 H 169.185 -3.68223 0.958752 0
M  V30 1794 H 168.697 -2.88238 2.59885 0
M  V30 1795 H 166.798 -3.7156 0.278137 0
M  V30 1796 H 166.911 -4.32499 2.0611 0
M  V30 1797 H 165.275 -2.33923 1.00758 0
M  V30 1798 H 166.058 -2.15886 2.66924 0
M  V30 1799 N 168.503 -0.877838 -1.30888 0
M  V30 1800 C 169.731 -0.507414 -2.00581 0
M  V30 1801 C 170.146 0.902216 -1.65848 0
M  V30 1802 O 169.503 1.59225 -0.891831 0
M  V30 1803 C 169.554 -0.664162 -3.55347 0
M  V30 1804 O 169.275 -2.01829 -3.8884 0
M  V30 1805 C 170.776 -0.295787 -4.42312 0
M  V30 1806 H 167.996 -0.196866 -0.641471 0
M  V30 1807 H 170.54 -1.18117 -1.66939 0
M  V30 1808 H 168.695 -0.0378619 -3.87381 0
M  V30 1809 H 169.109 -2.03174 -4.8355 0
M  V30 1810 H 170.583 -0.456388 -5.5011 0
M  V30 1811 H 171.06 0.765663 -4.32475 0
M  V30 1812 H 171.666 -0.898113 -4.15709 0
M  V30 1813 N 169.982 1.44106 -0.638065 0
M  V30 1814 C 171.393 1.85316 -0.226894 0
M  V30 1815 C 171.744 1.53399 1.22324 0
M  V30 1816 O 170.869 0.975463 1.93167 0
M  V30 1817 C 171.464 3.3637 -0.405013 0
M  V30 1818 C 170.023 3.76369 -0.0482902 0
M  V30 1819 C 169.17 2.67921 -0.715108 0
M  V30 1820 H 172.121 1.34474 -0.842764 0
M  V30 1821 H 172.142 3.7885 0.354 0
M  V30 1822 H 171.654 3.59569 -1.46053 0
M  V30 1823 H 169.755 3.58784 1.00522 0
M  V30 1824 H 169.868 4.76856 -0.463187 0
M  V30 1825 H 168.232 2.54259 -0.149753 0
M  V30 1826 H 169.015 2.93951 -1.77335 0
M  V30 1827 N 171.46 0.379036 1.52974 0
M  V30 1828 C 172.709 -0.207612 2.00629 0
M  V30 1829 C 173.022 -1.48758 1.27006 0
M  V30 1830 O 174.228 -2.15365 1.65318 0
M  V30 1831 C 172.684 -0.42053 3.57435 0
M  V30 1832 C 172.292 0.845587 4.39948 0
M  V30 1833 C 174.036 -0.964102 4.13407 0
M  V30 1834 C 171.943 0.601513 5.88333 0
M  V30 1835 H 170.873 -0.0813591 0.749598 0
M  V30 1836 H 173.524 0.499853 1.76561 0
M  V30 1837 H 171.906 -1.18959 3.7771 0
M  V30 1838 H 173.08 1.61848 4.31442 0
M  V30 1839 H 171.395 1.31336 3.95145 0
M  V30 1840 H 173.992 -1.16225 5.21916 0
M  V30 1841 H 174.335 -1.93019 3.68849 0
M  V30 1842 H 174.868 -0.25487 3.96983 0
M  V30 1843 H 171.607 1.53831 6.37194 0
M  V30 1844 H 171.127 -0.132628 5.99653 0
M  V30 1845 H 172.806 0.232134 6.46583 0
M  V30 1846 N 172.938 -1.57226 0.108567 0
M  V30 1847 C 173.848 -2.18292 -0.859401 0
M  V30 1848 C 174.864 -1.15612 -1.30038 0
M  V30 1849 O 176.04 -1.48039 -1.36552 0
M  V30 1850 C 173.105 -2.762 -2.09558 0
M  V30 1851 C 172.166 -3.93881 -1.70752 0
M  V30 1852 C 171.399 -4.49018 -2.88477 0
M  V30 1853 O 171.622 -4.03068 -4.036 0
M  V30 1854 O 170.556 -5.39852 -2.66164 0
M  V30 1855 H 174.382 -3.01441 -0.369769 0
M  V30 1856 H 171.967 -1.48945 -0.1165 0
M  V30 1857 H 173.849 -3.13156 -2.81978 0
M  V30 1858 H 172.524 -1.96089 -2.57548 0
M  V30 1859 H 171.431 -3.61713 -0.954714 0
M  V30 1860 H 172.764 -4.75396 -1.27513 0
M  V30 1861 N 174.416 0.165178 -1.56732 0
M  V30 1862 C 175.363 1.2044 -1.96883 0
M  V30 1863 C 176.333 1.43664 -0.833657 0
M  V30 1864 O 177.518 1.56302 -1.09427 0
M  V30 1865 C 174.658 2.53727 -2.33916 0
M  V30 1866 C 173.771 2.3783 -3.6064 0
M  V30 1867 C 172.906 3.64026 -3.86857 0
M  V30 1868 C 171.945 3.43088 -5.06909 0
M  V30 1869 N 171.082 4.61369 -5.29229 0
M  V30 1870 H 175.922 0.854996 -2.85471 0
M  V30 1871 H 173.459 0.41076 -1.41249 0
M  V30 1872 H 175.417 3.31419 -2.53411 0
M  V30 1873 H 174.047 2.8665 -1.48431 0
M  V30 1874 H 173.099 1.51282 -3.49024 0
M  V30 1875 H 174.411 2.18308 -4.4849 0
M  V30 1876 H 173.565 4.50152 -4.06753 0
M  V30 1877 H 172.304 3.86533 -2.97394 0
M  V30 1878 H 171.309 2.55349 -4.86906 0
M  V30 1879 H 172.534 3.21997 -5.97909 0
M  V30 1880 H 170.48 4.84084 -4.42718 0
M  V30 1881 H 170.397 4.44783 -6.11313 0
M  V30 1882 H 171.665 5.48761 -5.53608 0
M  V30 1883 N 175.894 1.51508 0.433938 0
M  V30 1884 C 177.122 1.68157 1.20543 0
M  V30 1885 C 177.537 0.380362 1.84929 0
M  V30 1886 O 176.894 -0.641446 1.70856 0
M  V30 1887 C 176.945 2.79965 2.28696 0
M  V30 1888 O 176.666 4.05045 1.66943 0
M  V30 1889 C 178.167 3.07912 3.18912 0
M  V30 1890 H 175.387 0.56421 0.363191 0
M  V30 1891 H 177.931 1.97941 0.513754 0
M  V30 1892 H 176.086 2.5277 2.93574 0
M  V30 1893 H 176.5 4.67165 2.38448 0
M  V30 1894 H 177.974 3.89719 3.90926 0
M  V30 1895 H 178.451 2.20456 3.79863 0
M  V30 1896 H 179.057 3.36779 2.59731 0
M  V30 1897 N 177.372 -0.689602 1.41712 0
M  V30 1898 C 178.621 -1.44534 1.40686 0
M  V30 1899 C 178.934 -1.95588 0.0213352 0
M  V30 1900 O 180.14 -2.71271 -0.111534 0
M  V30 1901 C 178.596 -2.61387 2.47396 0
M  V30 1902 C 178.204 -2.17094 3.91885 0
M  V30 1903 C 179.948 -3.38986 2.55517 0
M  V30 1904 C 177.855 -3.3094 4.90135 0
M  V30 1905 H 176.785 -0.542925 0.52321 0
M  V30 1906 H 179.436 -0.748054 1.6756 0
M  V30 1907 H 177.818 -3.33412 2.13664 0
M  V30 1908 H 178.992 -1.52318 4.34897 0
M  V30 1909 H 177.307 -1.52473 3.8748 0
M  V30 1910 H 179.904 -4.23747 3.26102 0
M  V30 1911 H 180.247 -3.84578 1.59391 0
M  V30 1912 H 180.78 -2.74021 2.8837 0
M  V30 1913 H 177.519 -2.90355 5.87685 0
M  V30 1914 H 177.039 -3.94546 4.51767 0
M  V30 1915 H 178.718 -3.9663 5.11169 0
M  V30 1916 N 178.85 -1.27639 -0.924453 0
M  V30 1917 C 180.075 -1.17101 -1.71179 0
M  V30 1918 C 180.5 0.268134 -1.86179 0
M  V30 1919 O 179.858 1.19415 -1.36418 0
M  V30 1920 C 179.906 -1.86313 -3.08739 0
M  V30 1921 O 179.01 -1.16331 -3.95652 0
M  V30 1922 H 178.351 -0.407091 -0.524569 0
M  V30 1923 H 180.881 -1.68767 -1.15666 0
M  V30 1924 H 180.891 -1.938 -3.59034 0
M  V30 1925 H 179.566 -2.91001 -2.97138 0
M  V30 1926 H 178.143 -1.16935 -3.54091 0
M  V30 1927 N 180.328 1.1314 -1.09713 0
M  V30 1928 C 181.275 2.18642 -0.739196 0
M  V30 1929 C 182.245 1.63706 0.280978 0
M  V30 1930 O 183.43 1.90111 0.161946 0
M  V30 1931 C 180.57 3.44685 -0.169102 0
M  V30 1932 C 179.683 4.13711 -1.24367 0
M  V30 1933 C 178.818 5.27379 -0.636019 0
M  V30 1934 C 177.857 5.88259 -1.69169 0
M  V30 1935 N 176.994 6.93352 -1.10485 0
M  V30 1936 H 181.834 2.48607 -1.64312 0
M  V30 1937 H 179.371 1.22066 -0.820875 0
M  V30 1938 H 181.329 4.16815 0.179256 0
M  V30 1939 H 179.959 3.15161 0.698079 0
M  V30 1940 H 179.011 3.39835 -1.70927 0
M  V30 1941 H 180.323 4.55037 -2.04311 0
M  V30 1942 H 179.477 6.06238 -0.236677 0
M  V30 1943 H 178.216 4.8731 0.194928 0
M  V30 1944 H 177.221 5.08092 -2.10055 0
M  V30 1945 H 178.446 6.30399 -2.52536 0
M  V30 1946 H 176.392 6.55335 -0.295234 0
M  V30 1947 H 176.309 7.33236 -1.84121 0
M  V30 1948 H 177.577 7.76057 -0.73181 0
M  V30 1949 N 181.806 0.884767 1.30421 0
M  V30 1950 C 182.769 0.356277 2.26414 0
M  V30 1951 C 183.769 -0.501124 1.52792 0
M  V30 1952 O 184.959 -0.30831 1.7145 0
M  V30 1953 C 182.091 -0.492316 3.37326 0
M  V30 1954 H 183.284 1.20389 2.74675 0
M  V30 1955 H 180.837 0.661607 1.41607 0
M  V30 1956 H 181.572 -1.36052 2.94381 0
M  V30 1957 H 181.357 0.121832 3.91911 0
M  V30 1958 H 182.847 -0.853871 4.08777 0
M  V30 1959 N 183.284 -1.43765 0.645699 0
M  V30 1960 C 184.231 -2.30745 -0.0504648 0
M  V30 1961 C 185.201 -1.4432 -0.822241 0
M  V30 1962 O 186.386 -1.73202 -0.800358 0
M  V30 1963 C 183.526 -3.29802 -1.0161 0
M  V30 1964 C 182.639 -4.31326 -0.241219 0
M  V30 1965 C 181.774 -5.17469 -1.19998 0
M  V30 1966 C 180.813 -6.10691 -0.415094 0
M  V30 1967 N 179.95 -6.89483 -1.32506 0
M  V30 1968 H 184.79 -2.8973 0.697155 0
M  V30 1969 H 182.327 -1.42738 0.355563 0
M  V30 1970 H 184.285 -3.85734 -1.58949 0
M  V30 1971 H 182.915 -2.72483 -1.73069 0
M  V30 1972 H 181.967 -3.77749 0.448334 0
M  V30 1973 H 183.279 -4.9743 0.369437 0
M  V30 1974 H 182.433 -5.7799 -1.84424 0
M  V30 1975 H 181.172 -4.51473 -1.84455 0
M  V30 1976 H 180.177 -5.49265 0.242565 0
M  V30 1977 H 181.402 -6.78727 0.224966 0
M  V30 1978 H 179.348 -6.26142 -1.95657 0
M  V30 1979 H 179.265 -7.52081 -0.768783 0
M  V30 1980 H 180.533 -7.54516 -1.9577 0
M  V30 1981 N 184.763 -0.387143 -1.52771 0
M  V30 1982 C 186.011 0.195349 -2.01154 0
M  V30 1983 C 186.332 1.475 -1.27549 0
M  V30 1984 O 185.602 1.91878 -0.394924 0
M  V30 1985 H 184.182 0.075178 -0.743207 0
M  V30 1986 H 186.844 -0.518337 -1.87881 0
M  V30 1987 H 185.94 0.407096 -3.09434 0
M  V30 1988 N 186.241 1.57166 -0.116904 0
M  V30 1989 C 187.173 2.12271 0.864507 0
M  V30 1990 C 188.186 1.06494 1.23138 0
M  V30 1991 O 189.375 1.33873 1.18069 0
M  V30 1992 C 186.475 2.60564 2.16702 0
M  V30 1993 C 185.648 3.90416 1.97216 0
M  V30 1994 C 184.707 4.24329 3.11178 0
M  V30 1995 O 183.733 4.93182 2.84184 0
M  V30 1996 N 184.935 3.8148 4.37554 0
M  V30 1997 H 187.7 2.97102 0.393726 0
M  V30 1998 H 185.261 1.61759 0.0675805 0
M  V30 1999 H 187.253 2.80282 2.91932 0
M  V30 2000 H 185.823 1.80623 2.55135 0
M  V30 2001 H 185.043 3.79627 1.06192 0
M  V30 2002 H 186.331 4.75327 1.81499 0
M  V30 2003 H 185.729 3.25943 4.62361 0
M  V30 2004 H 184.286 4.06311 5.09661 0
M  V30 2005 N 187.719 -0.156864 1.56817 0
M  V30 2006 C 189.135 -0.50916 1.5126 0
M  V30 2007 C 189.335 -1.83897 0.823658 0
M  V30 2008 O 188.391 -2.49469 0.390055 0
M  V30 2009 C 189.704 -0.52857 2.96018 0
M  V30 2010 C 191.252 -0.614771 3.06903 0
M  V30 2011 C 191.727 -0.664938 4.53147 0
M  V30 2012 N 193.218 -0.727433 4.57452 0
M  V30 2013 C 193.953 -0.787067 5.67973 0
M  V30 2014 N 193.449 -0.806649 6.88088 0
M  V30 2015 N 195.242 -0.827195 5.5598 0
M  V30 2016 H 187.393 0.714935 2.00006 0
M  V30 2017 H 189.656 0.259526 0.911784 0
M  V30 2018 H 189.362 0.380154 3.49639 0
M  V30 2019 H 189.236 -1.36998 3.51442 0
M  V30 2020 H 191.623 -1.51392 2.53307 0
M  V30 2021 H 191.704 0.253597 2.5454 0
M  V30 2022 H 191.348 0.230011 5.07379 0
M  V30 2023 H 191.278 -1.54966 5.03282 0
M  V30 2024 H 193.769 -0.719998 3.70978 0
M  V30 2025 H 194.082 -0.853727 7.6807 0
M  V30 2026 H 192.427 -0.774687 6.90669 0
M  V30 2027 H 195.618 -0.808998 4.61056 0
M  V30 2028 H 195.791 -0.870206 6.4213 0
M  V30 2029 N 189.197 -1.51736 -0.425897 0
M  V30 2030 C 190.107 -1.76738 -1.54275 0
M  V30 2031 C 191.123 -0.65211 -1.61318 0
M  V30 2032 O 192.299 -0.935654 -1.78346 0
M  V30 2033 C 189.364 -1.89755 -2.90162 0
M  V30 2034 C 188.425 -3.13633 -2.93143 0
M  V30 2035 C 187.658 -3.2602 -4.22548 0
M  V30 2036 O 187.881 -2.44067 -5.15546 0
M  V30 2037 O 186.815 -4.19071 -4.32046 0
M  V30 2038 H 190.641 -2.71502 -1.36089 0
M  V30 2039 H 188.226 -1.36376 -0.610069 0
M  V30 2040 H 190.108 -2.00236 -3.70788 0
M  V30 2041 H 188.783 -0.981785 -3.08452 0
M  V30 2042 H 187.69 -3.08622 -2.11431 0
M  V30 2043 H 189.023 -4.04936 -2.798 0
M  V30 2044 N 190.675 0.682077 -1.42076 0
M  V30 2045 C 192.086 1.26246 -1.37546 0
M  V30 2046 C 192.437 1.96092 -0.0651481 0
M  V30 2047 O 191.562 1.99587 0.836297 0
M  V30 2048 C 192.157 2.29594 -2.49143 0
M  V30 2049 C 190.716 2.83175 -2.47969 0
M  V30 2050 C 189.863 1.57395 -2.28303 0
M  V30 2051 H 192.814 0.475937 -1.51395 0
M  V30 2052 H 192.835 3.11175 -2.18976 0
M  V30 2053 H 192.347 1.78729 -3.44496 0
M  V30 2054 H 190.448 3.3818 -1.56413 0
M  V30 2055 H 190.561 3.32687 -3.44755 0
M  V30 2056 H 188.925 1.83699 -1.76428 0
M  V30 2057 H 189.708 1.08507 -3.25701 0
M  V30 2058 N 192.153 1.28127 0.917671 0
M  V30 2059 C 193.085 1.07517 2.02417 0
M  V30 2060 C 194.098 0.0281099 1.62776 0
M  V30 2061 O 195.287 0.270748 1.76435 0
M  V30 2062 C 192.387 0.610957 3.33347 0
M  V30 2063 C 191.56 1.73255 4.01624 0
M  V30 2064 C 190.619 1.26238 5.10833 0
M  V30 2065 O 189.645 1.96389 5.34247 0
M  V30 2066 N 190.847 0.123448 5.80369 0
M  V30 2067 H 193.612 2.02806 2.20658 0
M  V30 2068 H 191.173 1.19827 1.08871 0
M  V30 2069 H 193.165 0.280101 4.0373 0
M  V30 2070 H 191.735 -0.24898 3.11607 0
M  V30 2071 H 190.955 2.23319 3.24842 0
M  V30 2072 H 192.243 2.48503 4.43986 0
M  V30 2073 H 191.641 -0.461847 5.63812 0
M  V30 2074 H 190.198 -0.148158 6.51632 0
M  V30 2075 N 193.631 -1.12557 1.10312 0
M  V30 2076 C 194.877 -1.84311 0.846011 0
M  V30 2077 C 195.21 -1.83805 -0.626859 0
M  V30 2078 O 194.485 -1.28268 -1.46211 0
M  V30 2079 C 194.768 -3.32048 1.39341 0
M  V30 2080 C 194.621 -3.41016 2.93305 0
M  V30 2081 C 195.94 -4.27764 1.03468 0
M  V30 2082 H 193.059 -0.669192 0.30879 0
M  V30 2083 H 195.701 -1.32057 1.36605 0
M  V30 2084 H 193.851 -3.76678 0.951087 0
M  V30 2085 H 195.523 -3.05031 3.46055 0
M  V30 2086 H 193.766 -2.81603 3.29973 0
M  V30 2087 H 194.437 -4.44948 3.26689 0
M  V30 2088 H 196.913 -3.91253 1.41633 0
M  V30 2089 H 195.789 -5.29549 1.44463 0
M  V30 2090 H 196.05 -4.42064 -0.0560404 0
M  V30 2091 N 195.109 -0.891671 -1.2995 0
M  V30 2092 C 196.339 -0.527893 -1.99742 0
M  V30 2093 C 196.747 0.88979 -1.66971 0
M  V30 2094 O 196.09 1.59766 -0.906667 0
M  V30 2095 C 196.152 -0.630804 -3.53922 0
M  V30 2096 C 195.816 -2.01401 -4.10228 0
M  V30 2097 C 196.813 -2.98422 -4.25724 0
M  V30 2098 C 194.498 -2.32121 -4.45449 0
M  V30 2099 C 196.492 -4.24293 -4.75662 0
M  V30 2100 C 194.179 -3.58237 -4.95086 0
M  V30 2101 C 195.177 -4.54137 -5.10146 0
M  V30 2102 O 194.865 -5.78014 -5.58708 0
M  V30 2103 H 194.597 -0.201953 -0.645129 0
M  V30 2104 H 197.151 -1.20076 -1.66646 0
M  V30 2105 H 195.381 0.0990616 -3.86573 0
M  V30 2106 H 197.07 -0.277338 -4.04951 0
M  V30 2107 H 197.836 -2.76001 -3.98809 0
M  V30 2108 H 193.715 -1.5824 -4.32991 0
M  V30 2109 H 197.259 -4.99153 -4.87332 0
M  V30 2110 H 193.156 -3.80491 -5.21437 0
M  V30 2111 H 193.924 -5.8049 -5.77039 0
M  V30 2112 N 196.587 1.43421 -0.653314 0
M  V30 2113 C 197.815 2.06163 -0.174491 0
M  V30 2114 C 198.23 1.48969 1.1599 0
M  V30 2115 O 197.587 0.621042 1.71608 0
M  V30 2116 C 197.638 3.61417 -0.0774865 0
M  V30 2117 O 197.359 4.16485 -1.35912 0
M  V30 2118 C 198.86 4.41235 0.427402 0
M  V30 2119 H 196.08 0.664946 -0.0899353 0
M  V30 2120 H 198.624 1.83924 -0.893988 0
M  V30 2121 H 196.779 3.82841 0.59257 0
M  V30 2122 H 197.193 5.10153 -1.21839 0
M  V30 2123 H 198.667 5.5021 0.44423 0
M  V30 2124 H 199.144 4.14268 1.45873 0
M  V30 2125 H 199.75 4.2478 -0.210167 0
M  V30 2126 N 198.065 0.39524 1.52563 0
M  V30 2127 C 198.995 -0.428384 2.29537 0
M  V30 2128 C 199.976 -1.05831 1.33169 0
M  V30 2129 O 201.161 -1.06995 1.62067 0
M  V30 2130 C 198.291 -1.55274 3.10656 0
M  V30 2131 C 197.245 -1.04855 4.14957 0
M  V30 2132 C 196.571 -2.26543 4.84337 0
M  V30 2133 C 197.871 -0.112324 5.22179 0
M  V30 2134 H 199.565 0.213867 2.98635 0
M  V30 2135 H 197.111 0.104298 1.43622 0
M  V30 2136 H 199.064 -2.1358 3.63265 0
M  V30 2137 H 197.788 -2.22266 2.39302 0
M  V30 2138 H 196.447 -0.487985 3.63338 0
M  V30 2139 H 196.095 -2.92059 4.09525 0
M  V30 2140 H 195.795 -1.93466 5.54837 0
M  V30 2141 H 197.319 -2.85481 5.39753 0
M  V30 2142 H 198.733 -0.603752 5.70112 0
M  V30 2143 H 197.13 0.128968 5.99961 0
M  V30 2144 H 198.2 0.837052 4.77621 0
M  V30 2145 N 199.544 -1.57102 0.125237 0
M  V30 2146 C 200.955 -1.82384 -0.399142 0
M  V30 2147 C 201.306 -1.04276 -1.66195 0
M  V30 2148 O 200.431 -0.281269 -2.14564 0
M  V30 2149 C 201.026 -3.30821 -0.730932 0
M  V30 2150 C 199.585 -3.56762 -1.19992 0
M  V30 2151 C 198.732 -2.7649 -0.211792 0
M  V30 2152 H 201.683 -1.54786 0.350277 0
M  V30 2153 H 201.704 -3.4579 -1.58775 0
M  V30 2154 H 201.216 -3.87643 0.188345 0
M  V30 2155 H 199.317 -3.05305 -2.13588 0
M  V30 2156 H 199.43 -4.65317 -1.14093 0
M  V30 2157 H 197.794 -2.4489 -0.700085 0
M  V30 2158 H 198.577 -3.36073 0.700691 0
M  V30 2159 N 201.022 0.148545 -1.56898 0
M  V30 2160 C 202.433 0.708766 -1.72723 0
M  V30 2161 C 202.784 1.81734 -0.739395 0
M  V30 2162 O 201.909 2.16194 0.0943169 0
M  V30 2163 C 202.504 1.29245 -3.13179 0
M  V30 2164 C 201.063 1.79925 -3.30611 0
M  V30 2165 C 200.21 0.687111 -2.68652 0
M  V30 2166 H 203.161 -0.0771063 -1.58513 0
M  V30 2167 H 203.182 2.16224 -3.13093 0
M  V30 2168 H 202.694 0.485382 -3.85053 0
M  V30 2169 H 200.795 2.63203 -2.63732 0
M  V30 2170 H 200.908 1.92903 -4.38549 0
M  V30 2171 H 199.272 1.11335 -2.29078 0
M  V30 2172 H 200.055 -0.108483 -3.43129 0
M  V30 2173 N 202.5 1.5196 0.417844 0
M  V30 2174 C 203.725 1.69717 1.1921 0
M  V30 2175 C 204.15 0.402148 1.83751 0
M  V30 2176 O 203.508 -0.639593 1.69643 0
M  V30 2177 C 203.556 2.82794 2.2374 0
M  V30 2178 O 202.66 2.47756 3.29683 0
M  V30 2179 H 202.001 0.565263 0.348387 0
M  V30 2180 H 204.531 1.98621 0.490985 0
M  V30 2181 H 204.541 3.07452 2.68212 0
M  V30 2182 H 203.216 3.76756 1.76146 0
M  V30 2183 H 201.793 2.33739 2.90552 0
M  V30 2184 N 203.978 -0.674533 1.42435 0
M  V30 2185 C 205.394 -0.98769 1.25367 0
M  V30 2186 C 205.594 -2.00879 0.158044 0
M  V30 2187 O 204.65 -2.48075 -0.470633 0
M  V30 2188 C 205.963 -1.49224 2.6106 0
M  V30 2189 C 207.511 -1.61 2.68417 0
M  V30 2190 C 207.986 -2.14852 4.04478 0
M  V30 2191 N 209.477 -2.22185 4.06434 0
M  V30 2192 C 210.212 -2.64928 5.08528 0
M  V30 2193 N 209.708 -3.07121 6.21006 0
M  V30 2194 N 211.501 -2.64679 4.95885 0
M  V30 2195 H 203.652 0.00152503 2.124 0
M  V30 2196 H 205.915 -0.0618434 0.945981 0
M  V30 2197 H 205.621 -0.816453 3.42092 0
M  V30 2198 H 205.495 -2.47094 2.84999 0
M  V30 2199 H 207.882 -2.27686 1.87732 0
M  V30 2200 H 207.963 -0.616195 2.48267 0
M  V30 2201 H 207.607 -1.48775 4.85622 0
M  V30 2202 H 207.537 -3.15024 4.2198 0
M  V30 2203 H 210.028 -1.92435 3.25234 0
M  V30 2204 H 210.341 -3.38423 6.94759 0
M  V30 2205 H 208.686 -3.04978 6.24511 0
M  V30 2206 H 211.877 -2.31078 4.07088 0
M  V30 2207 H 212.05 -2.9767 5.75584 0
M  V30 2208 N 205.456 -1.28612 -0.910864 0
M  V30 2209 C 206.733 -1.06632 -1.63979 0
M  V30 2210 C 207.113 0.393351 -2.07403 0
M  V30 2211 O 206.461 1.37999 -1.82122 0
M  V30 2212 C 206.671 -2.0436 -2.8291 0
M  V30 2213 C 208.019 -2.34666 -3.5386 0
M  V30 2214 O 209.043 -2.02467 -2.93062 0
M  V30 2215 O 207.902 -2.89631 -4.63439 0
M  V30 2216 H 204.996 -0.407737 -0.7195 0
M  V30 2217 H 207.542 -1.39942 -0.959914 0
M  V30 2218 H 206.314 -3.02727 -2.47936 0
M  V30 2219 H 205.937 -1.71714 -3.58609 0
M  V30 2220 N 206.934 1.1197 -1.10907 0
M  V30 2221 C 207.844 2.21433 -0.774896 0
M  V30 2222 C 208.86 1.72478 0.229657 0
M  V30 2223 O 210.036 2.01288 0.0672008 0
M  V30 2224 C 207.101 3.4602 -0.216986 0
M  V30 2225 C 206.162 4.09791 -1.27944 0
M  V30 2226 C 205.395 5.28431 -0.748055 0
M  V30 2227 O 205.618 5.68823 0.423833 0
M  V30 2228 O 204.552 5.82644 -1.51027 0
M  V30 2229 H 208.378 2.5242 -1.68873 0
M  V30 2230 H 205.963 1.20399 -0.884555 0
M  V30 2231 H 207.845 4.21304 0.090059 0
M  V30 2232 H 206.52 3.16698 0.669633 0
M  V30 2233 H 205.427 3.36265 -1.63941 0
M  V30 2234 H 206.76 4.4328 -2.13925 0
M  V30 2235 N 208.412 0.89855 1.29475 0
M  V30 2236 C 209.342 0.39201 2.30186 0
M  V30 2237 C 210.323 -0.532359 1.61555 0
M  V30 2238 O 211.508 -0.443331 1.89072 0
M  V30 2239 C 208.638 -0.382353 3.45189 0
M  V30 2240 C 207.592 0.451483 4.25612 0
M  V30 2241 C 206.918 -0.450307 5.328 0
M  V30 2242 C 208.218 1.70079 4.93832 0
M  V30 2243 H 209.912 1.23362 2.72804 0
M  V30 2244 H 207.458 0.594638 1.31149 0
M  V30 2245 H 209.411 -0.747451 4.14718 0
M  V30 2246 H 208.135 -1.25774 3.01411 0
M  V30 2247 H 206.794 0.798897 3.57789 0
M  V30 2248 H 206.442 -1.32379 4.85268 0
M  V30 2249 H 206.142 0.103902 5.87508 0
M  V30 2250 H 207.666 -0.811623 6.05182 0
M  V30 2251 H 209.08 1.40549 5.55805 0
M  V30 2252 H 207.477 2.19623 5.58467 0
M  V30 2253 H 208.547 2.43744 4.19186 0
M  V30 2254 N 209.89 -1.43072 0.660911 0
M  V30 2255 C 211.118 -2.06067 0.185422 0
M  V30 2256 C 211.533 -1.49582 -1.15198 0
M  V30 2257 O 210.89 -0.630134 -1.71276 0
M  V30 2258 C 210.941 -3.61371 0.0966523 0
M  V30 2259 O 210.662 -4.15758 1.38119 0
M  V30 2260 C 212.163 -4.41455 -0.403996 0
M  V30 2261 H 209.383 -0.664459 0.0934604 0
M  V30 2262 H 211.927 -1.83447 0.90373 0
M  V30 2263 H 210.082 -3.8315 -0.572259 0
M  V30 2264 H 210.496 -5.09499 1.24542 0
M  V30 2265 H 211.97 -5.50437 -0.415045 0
M  V30 2266 H 212.447 -4.15036 -1.43674 0
M  V30 2267 H 213.053 -4.24663 0.232691 0
M  V30 2268 N 211.368 -0.403325 -1.52352 0
M  V30 2269 C 212.315 0.425011 -2.26853 0
M  V30 2270 C 213.285 1.04598 -1.29029 0
M  V30 2271 O 214.47 1.07135 -1.57882 0
M  V30 2272 C 211.61 1.53888 -3.08889 0
M  V30 2273 C 210.723 0.939396 -4.21663 0
M  V30 2274 C 209.858 2.02547 -4.91068 0
M  V30 2275 C 208.897 1.40263 -5.95813 0
M  V30 2276 N 208.034 2.4286 -6.58759 0
M  V30 2277 H 212.874 -0.21674 -2.97211 0
M  V30 2278 H 210.411 -0.118722 -1.4662 0
M  V30 2279 H 212.369 2.19558 -3.54753 0
M  V30 2280 H 210.999 2.15074 -2.40714 0
M  V30 2281 H 210.051 0.171898 -3.80011 0
M  V30 2282 H 211.363 0.44436 -4.96817 0
M  V30 2283 H 210.517 2.75958 -5.40308 0
M  V30 2284 H 209.256 2.55415 -4.15469 0
M  V30 2285 H 208.261 0.653833 -5.45898 0
M  V30 2286 H 209.486 0.881719 -6.73352 0
M  V30 2287 H 207.432 2.94871 -5.85992 0
M  V30 2288 H 207.349 1.98152 -7.2957 0
M  V30 2289 H 208.617 3.15858 -7.12639 0
M  V30 2290 N 212.846 1.57033 -0.133567 0
M  V30 2291 C 213.794 2.17348 0.828412 0
M  V30 2292 C 214.788 1.12671 1.26498 0
M  V30 2293 O 215.994 1.30947 1.23502 0
M  V30 2294 H 212.369 0.695775 0.285309 0
M  V30 2295 H 214.34 2.96935 0.295372 0
M  V30 2296 C 213.089 2.79893 2.06289 0
M  V30 2297 H 212.412 3.60147 1.73592 0
M  V30 2298 H 213.852 3.25615 2.71572 0
M  V30 2299 C 212.311 1.77713 2.86216 0
M  V30 2300 O 212.841 1.23937 3.82103 0
M  V30 2301 N 211.047 1.47321 2.50489 0
M  V30 2302 H 210.594 1.91243 1.7258 0
M  V30 2303 H 210.552 0.79199 3.04261 0
M  V30 2304 N 214.325 -0.140222 1.56975 0
M  V30 2305 C 215.257 -1.19818 1.95388 0
M  V30 2306 C 216.27 -1.38816 0.850525 0
M  V30 2307 O 217.459 -1.38267 1.12891 0
M  V30 2308 C 214.559 -2.56189 2.21857 0
M  V30 2309 C 213.732 -2.58077 3.5315 0
M  V30 2310 C 212.791 -3.76037 3.6808 0
M  V30 2311 O 211.817 -3.60598 4.40406 0
M  V30 2312 N 213.019 -4.93763 3.05251 0
M  V30 2313 H 215.784 -0.871609 2.86746 0
M  V30 2314 H 213.345 -0.32972 1.58507 0
M  V30 2315 H 215.337 -3.33623 2.2908 0
M  V30 2316 H 213.907 -2.81111 1.36731 0
M  V30 2317 H 213.127 -1.6651 3.57307 0
M  V30 2318 H 214.415 -2.56377 4.39486 0
M  V30 2319 H 213.813 -5.09209 2.46419 0
M  V30 2320 H 212.37 -5.68949 3.18026 0
M  V30 2321 N 215.803 -1.52179 -0.40978 0
M  V30 2322 C 217.049 -1.66453 -1.15851 0
M  V30 2323 C 217.382 -0.392972 -1.90182 0
M  V30 2324 O 216.657 0.608579 -1.84734 0
M  V30 2325 C 216.94 -2.88612 -2.15349 0
M  V30 2326 C 216.793 -4.25815 -1.44918 0
M  V30 2327 C 218.112 -3.06294 -3.16026 0
M  V30 2328 H 215.231 -0.60575 -0.419805 0
M  V30 2329 H 217.873 -1.84732 -0.444314 0
M  V30 2330 H 216.023 -2.73158 -2.76255 0
M  V30 2331 H 217.695 -4.52995 -0.871365 0
M  V30 2332 H 215.938 -4.27247 -0.751159 0
M  V30 2333 H 216.609 -5.07337 -2.17516 0
M  V30 2334 H 219.085 -3.20641 -2.65195 0
M  V30 2335 H 217.961 -3.93283 -3.8291 0
M  V30 2336 H 218.222 -2.19579 -3.83715 0
M  V30 2337 N 217.281 0.66697 -1.42791 0
M  V30 2338 C 218.506 1.46004 -1.47301 0
M  V30 2339 C 218.931 1.87894 -0.0880317 0
M  V30 2340 O 218.289 1.56502 0.915253 0
M  V30 2341 C 218.337 2.68031 -2.41229 0
M  V30 2342 O 217.441 3.6659 -1.88906 0
M  V30 2343 H 216.782 0.43832 -0.49877 0
M  V30 2344 H 219.312 0.817391 -1.87563 0
M  V30 2345 H 219.322 3.1601 -2.58073 0
M  V30 2346 H 217.997 2.36883 -3.41847 0
M  V30 2347 H 216.574 3.25661 -1.81656 0
M  V30 2348 N 218.759 1.29093 0.90403 0
M  V30 2349 C 219.689 1.16401 2.02418 0
M  V30 2350 C 220.67 0.0593085 1.69997 0
M  V30 2351 O 221.855 0.238021 1.92736 0
M  V30 2352 C 218.985 0.835233 3.37107 0
M  V30 2353 C 217.939 1.89578 3.83724 0
M  V30 2354 C 217.265 1.42041 5.15489 0
M  V30 2355 C 218.565 3.30394 4.04521 0
M  V30 2356 H 220.259 2.10109 2.13295 0
M  V30 2357 H 217.805 1.01157 1.02486 0
M  V30 2358 H 219.758 0.733169 4.14973 0
M  V30 2359 H 218.482 -0.137543 3.2631 0
M  V30 2360 H 217.141 1.98715 3.08071 0
M  V30 2361 H 216.789 0.436426 5.01103 0
M  V30 2362 H 216.489 2.12964 5.4765 0
M  V30 2363 H 218.013 1.33176 5.959 0
M  V30 2364 H 219.427 3.24123 4.72882 0
M  V30 2365 H 217.824 3.99237 4.48029 0
M  V30 2366 H 218.894 3.73692 3.09002 0
M  V30 2367 N 220.237 -1.11381 1.11499 0
M  V30 2368 C 221.465 -1.86934 0.88675 0
M  V30 2369 C 221.88 -1.80195 -0.563476 0
M  V30 2370 O 221.237 -1.18367 -1.38908 0
M  V30 2371 C 221.288 -3.35722 1.34064 0
M  V30 2372 O 221.009 -3.4232 2.73401 0
M  V30 2373 C 222.51 -4.2818 1.14791 0
M  V30 2374 H 219.73 -0.591117 0.317523 0
M  V30 2375 H 222.274 -1.40865 1.48248 0
M  V30 2376 H 220.429 -3.79294 0.788355 0
M  V30 2377 H 220.843 -4.34971 2.93087 0
M  V30 2378 H 222.317 -5.30817 1.5145 0
M  V30 2379 H 222.794 -4.39113 0.0875279 0
M  V30 2380 H 223.4 -3.90402 1.68721 0
M  V30 2381 N 221.715 -0.905404 -1.28997 0
M  V30 2382 C 222.955 -0.541232 -1.97104 0
M  V30 2383 C 223.319 0.896841 -1.69767 0
M  V30 2384 O 224.52 1.36817 -2.31375 0
M  V30 2385 C 222.791 -0.832134 -3.47578 0
M  V30 2386 S 224.35 -0.573127 -4.35041 0
M  V30 2387 H 221.168 -0.200576 -0.682122 0
M  V30 2388 H 223.77 -1.16906 -1.56694 0
M  V30 2389 H 222.474 -1.87687 -3.64968 0
M  V30 2390 H 222.005 -0.192636 -3.92928 0
M  V30 2391 H 224.02 0.579297 -4.92807 0
M  V30 2392 N 223.193 1.4272 -0.668489 0
M  V30 2393 C 224.123 2.335 -0.000100175 0
M  V30 2394 C 225.104 1.50328 0.795964 0
M  V30 2395 O 226.289 1.78949 0.754385 0
M  V30 2396 C 223.419 3.33874 0.956302 0
M  V30 2397 C 222.373 4.27152 0.269278 0
M  V30 2398 C 221.699 5.17684 1.33818 0
M  V30 2399 C 222.999 5.15373 -0.847805 0
M  V30 2400 H 224.693 2.89639 -0.758244 0
M  V30 2401 H 222.239 1.39269 -0.366079 0
M  V30 2402 H 224.192 3.9629 1.43292 0
M  V30 2403 H 222.916 2.76025 1.74579 0
M  V30 2404 H 221.575 3.66123 -0.187042 0
M  V30 2405 H 221.223 4.56165 2.1195 0
M  V30 2406 H 220.923 5.80918 0.883659 0
M  V30 2407 H 222.447 5.82974 1.81586 0
M  V30 2408 H 223.861 5.7151 -0.452681 0
M  V30 2409 H 222.258 5.87407 -1.22773 0
M  V30 2410 H 223.328 4.5415 -1.69929 0
M  V30 2411 N 224.671 0.411399 1.52136 0
M  V30 2412 C 225.917 -0.163888 2.02137 0
M  V30 2413 C 226.25 -1.44597 1.29636 0
M  V30 2414 O 225.525 -1.90272 0.403353 0
M  V30 2415 C 225.808 -0.40927 3.57767 0
M  V30 2416 C 225.661 0.889643 4.40914 0
M  V30 2417 C 226.98 -1.19042 4.23694 0
M  V30 2418 H 224.099 -0.0580896 0.734707 0
M  V30 2419 H 226.741 0.54531 1.82007 0
M  V30 2420 H 224.891 -1.0134 3.7505 0
M  V30 2421 H 226.563 1.52575 4.35337 0
M  V30 2422 H 224.806 1.50011 4.07037 0
M  V30 2423 H 225.477 0.672314 5.4789 0
M  V30 2424 H 227.953 -0.678942 4.10524 0
M  V30 2425 H 226.829 -1.33086 5.32522 0
M  V30 2426 H 227.09 -2.21166 3.82803 0
M  V30 2427 N 226.149 -1.5696 0.141893 0
M  V30 2428 C 227.096 -2.16501 -0.799737 0
M  V30 2429 C 228.066 -1.09643 -1.24771 0
M  V30 2430 O 229.251 -1.3766 -1.32115 0
M  V30 2431 C 226.391 -2.78679 -2.03549 0
M  V30 2432 C 225.504 -3.99914 -1.6338 0
M  V30 2433 C 224.639 -4.50106 -2.82096 0
M  V30 2434 C 223.678 -5.63819 -2.38275 0
M  V30 2435 N 222.815 -6.08651 -3.49983 0
M  V30 2436 H 227.655 -2.96632 -0.285179 0
M  V30 2437 H 225.192 -1.46533 -0.129053 0
M  V30 2438 H 227.15 -3.1287 -2.75986 0
M  V30 2439 H 225.78 -2.012 -2.52425 0
M  V30 2440 H 224.832 -3.71735 -0.807279 0
M  V30 2441 H 226.144 -4.82311 -1.27192 0
M  V30 2442 H 225.298 -4.86325 -3.62729 0
M  V30 2443 H 224.037 -3.66706 -3.21525 0
M  V30 2444 H 223.042 -5.2718 -1.56081 0
M  V30 2445 H 224.267 -6.49 -1.99938 0
M  V30 2446 H 222.213 -5.28188 -3.89042 0
M  V30 2447 H 222.13 -6.85961 -3.17794 0
M  V30 2448 H 223.398 -6.49515 -4.30988 0
M  V30 2449 N 227.627 0.131896 -1.57047 0
M  V30 2450 C 228.875 0.840269 -1.83804 0
M  V30 2451 C 229.196 1.81017 -0.72512 0
M  V30 2452 O 228.466 1.94272 0.251995 0
M  V30 2453 H 227.046 0.313294 -0.678127 0
M  V30 2454 H 229.708 0.122294 -1.94516 0
M  V30 2455 H 228.804 1.39335 -2.79271 0
M  V30 2456 N 229.106 1.52395 0.401703 0
M  V30 2457 C 230.353 1.66817 1.14796 0
M  V30 2458 C 230.681 0.401772 1.90305 0
M  V30 2459 O 229.936 -0.615487 1.85769 0
M  V30 2460 C 230.235 2.84578 2.16217 0
M  V30 2461 C 229.901 4.22513 1.5746 0
M  V30 2462 C 228.563 4.60029 1.41161 0
M  V30 2463 C 230.915 5.0844 1.14622 0
M  V30 2464 C 228.243 5.81144 0.80552 0
M  V30 2465 C 230.595 6.30167 0.55428 0
M  V30 2466 C 229.259 6.66426 0.378482 0
M  V30 2467 H 228.529 0.610428 0.420069 0
M  V30 2468 H 231.176 1.86512 0.434212 0
M  V30 2469 H 229.481 2.59248 2.93764 0
M  V30 2470 H 231.178 2.92933 2.73845 0
M  V30 2471 H 227.768 3.92953 1.71132 0
M  V30 2472 H 231.952 4.80034 1.26021 0
M  V30 2473 H 227.208 6.07855 0.657399 0
M  V30 2474 H 231.382 6.96071 0.213983 0
M  V30 2475 H 229.009 7.60143 -0.0932606 0
M  V30 2476 N 230.584 -0.659388 1.43143 0
M  V30 2477 C 231.814 -1.44513 1.47646 0
M  V30 2478 C 232.222 -1.88981 0.0910095 0
M  V30 2479 O 231.565 -1.59702 -0.907789 0
M  V30 2480 C 231.627 -2.71663 2.35456 0
M  V30 2481 C 231.291 -2.49175 3.83094 0
M  V30 2482 C 232.288 -2.1279 4.74359 0
M  V30 2483 C 229.973 -2.63691 4.27519 0
M  V30 2484 C 231.967 -1.9121 6.08044 0
M  V30 2485 C 229.654 -2.41726 5.61259 0
M  V30 2486 C 230.652 -2.0554 6.51339 0
M  V30 2487 O 230.34 -1.838 7.82606 0
M  V30 2488 H 230.072 -0.45064 0.503884 0
M  V30 2489 H 232.626 -0.816248 1.88485 0
M  V30 2490 H 230.856 -3.37089 1.89493 0
M  V30 2491 H 232.545 -3.33595 2.31235 0
M  V30 2492 H 233.311 -2.01157 4.41317 0
M  V30 2493 H 229.19 -2.90832 3.57684 0
M  V30 2494 H 232.734 -1.62889 6.78316 0
M  V30 2495 H 228.631 -2.52959 5.9387 0
M  V30 2496 H 229.399 -1.98275 7.94122 0
M  V30 2497 N 232.062 -1.29571 -0.897171 0
M  V30 2498 C 233.473 -1.15964 -1.46319 0
M  V30 2499 C 233.824 0.244267 -1.94674 0
M  V30 2500 O 232.949 1.13998 -1.83939 0
M  V30 2501 C 233.544 -2.09906 -2.65942 0
M  V30 2502 C 232.103 -2.00314 -3.18671 0
M  V30 2503 C 231.25 -2.00687 -1.91363 0
M  V30 2504 H 234.201 -1.42019 -0.708268 0
M  V30 2505 H 234.222 -1.67276 -3.41759 0
M  V30 2506 H 233.734 -3.12075 -2.30718 0
M  V30 2507 H 231.835 -1.01242 -3.58582 0
M  V30 2508 H 231.948 -2.88102 -3.82798 0
M  V30 2509 H 230.312 -1.45319 -2.09175 0
M  V30 2510 H 231.095 -3.04566 -1.58413 0
M  V30 2511 N 233.54 1.10788 -1.12088 0
M  V30 2512 C 234.765 1.87002 -0.896949 0
M  V30 2513 C 235.19 1.79933 0.548261 0
M  V30 2514 O 234.548 1.16662 1.38779 0
M  V30 2515 C 234.596 3.3349 -1.37174 0
M  V30 2516 O 233.7 4.08745 -0.547831 0
M  V30 2517 H 233.041 0.580397 -0.322545 0
M  V30 2518 H 235.571 1.39996 -1.49206 0
M  V30 2519 H 235.581 3.84339 -1.36922 0
M  V30 2520 H 234.256 3.37951 -2.42408 0
M  V30 2521 H 232.833 3.6776 -0.617034 0
M  V30 2522 N 235.018 0.912232 1.28515 0
M  V30 2523 C 236.295 0.463597 1.90027 0
M  V30 2524 C 236.675 -1.05753 1.82701 0
M  V30 2525 O 236.023 -1.90492 1.26194 0
M  V30 2526 C 236.233 0.992253 3.34597 0
M  V30 2527 C 237.581 1.04344 4.11579 0
M  V30 2528 O 238.605 0.94079 3.43551 0
M  V30 2529 O 237.464 1.1995 5.33174 0
M  V30 2530 H 234.558 0.146666 0.813891 0
M  V30 2531 H 237.104 1.00292 1.36893 0
M  V30 2532 H 235.876 2.03623 3.34146 0
M  V30 2533 H 235.499 0.433672 3.95228 0
M  V30 2534 N 236.496 -1.42363 0.676048 0
M  V30 2535 C 237.745 -2.00745 0.196037 0
M  V30 2536 C 238.058 -1.54083 -1.20489 0
M  V30 2537 O 239.264 -2.04891 -1.78134 0
M  V30 2538 C 237.72 -3.58651 0.299616 0
M  V30 2539 C 237.328 -4.143 1.70468 0
M  V30 2540 C 239.072 -4.24326 -0.121619 0
M  V30 2541 C 236.979 -5.64574 1.76096 0
M  V30 2542 H 235.909 -0.750787 0.0695301 0
M  V30 2543 H 238.56 -1.63072 0.841412 0
M  V30 2544 H 236.942 -3.93833 -0.413673 0
M  V30 2545 H 238.116 -3.90575 2.44515 0
M  V30 2546 H 236.431 -3.61081 2.07387 0
M  V30 2547 H 239.028 -5.34607 -0.0997362 0
M  V30 2548 H 239.371 -3.99897 -1.15708 0
M  V30 2549 H 239.904 -3.94108 0.540706 0
M  V30 2550 H 236.643 -5.93804 2.77628 0
M  V30 2551 H 236.163 -5.90286 1.06406 0
M  V30 2552 H 237.842 -6.29013 1.51496 0
M  V30 2553 N 237.974 -0.419461 -1.51915 0
M  V30 2554 C 238.937 0.389116 -2.25873 0
M  V30 2555 C 239.937 0.964924 -1.28631 0
M  V30 2556 O 241.127 0.842179 -1.52489 0
M  V30 2557 C 238.259 1.54874 -3.03689 0
M  V30 2558 H 239.452 -0.258799 -2.98781 0
M  V30 2559 H 237.005 -0.172209 -1.55348 0
M  V30 2560 H 237.74 2.23323 -2.35154 0
M  V30 2561 H 237.525 1.14223 -3.75094 0
M  V30 2562 H 239.015 2.12046 -3.59759 0
M  V30 2563 N 239.452 1.56882 -0.150215 0
M  V30 2564 C 240.698 1.96518 0.500834 0
M  V30 2565 C 241.031 1.03527 1.64304 0
M  V30 2566 O 240.306 0.0782751 1.94342 0
M  V30 2567 C 240.589 3.45822 1.00395 0
M  V30 2568 C 240.442 4.49591 -0.136983 0
M  V30 2569 C 241.761 3.97704 1.88467 0
M  V30 2570 H 238.88 0.714535 0.18058 0
M  V30 2571 H 241.522 1.88577 -0.232091 0
M  V30 2572 H 239.672 3.5272 1.62851 0
M  V30 2573 H 241.344 4.5477 -0.77343 0
M  V30 2574 H 239.587 4.26441 -0.795652 0
M  V30 2575 H 240.258 5.51402 0.256815 0
M  V30 2576 H 242.734 3.93304 1.35834 0
M  V30 2577 H 241.61 5.0263 2.20578 0
M  V30 2578 H 241.871 3.40252 2.82279 0
M  V30 2579 N 240.93 -0.123565 1.57115 0
M  V30 2580 C 241.84 -1.17074 2.033 0
M  V30 2581 C 242.856 -1.4561 0.952559 0
M  V30 2582 O 244.032 -1.56817 1.26374 0
M  V30 2583 C 241.097 -2.47857 2.42421 0
M  V30 2584 C 240.158 -2.26758 3.64526 0
M  V30 2585 C 239.391 -3.51305 4.01771 0
M  V30 2586 O 239.614 -4.5843 3.39409 0
M  V30 2587 O 238.548 -3.42578 4.94898 0
M  V30 2588 H 242.374 -0.808555 2.92739 0
M  V30 2589 H 239.959 -0.334027 1.45618 0
M  V30 2590 H 241.841 -3.2492 2.68338 0
M  V30 2591 H 240.516 -2.83558 1.5613 0
M  V30 2592 H 239.423 -1.47569 3.43765 0
M  V30 2593 H 240.756 -1.95963 4.51508 0
M  V30 2594 N 242.408 -1.52605 -0.393616 0
M  V30 2595 C 243.654 -1.68624 -1.13743 0
M  V30 2596 C 244.009 -0.418687 -1.87789 0
M  V30 2597 O 243.302 0.58747 -1.82371 0
M  V30 2598 C 243.496 -2.85721 -2.14705 0
M  V30 2599 C 243.325 -4.23742 -1.50575 0
M  V30 2600 C 242.095 -4.89033 -1.2718 0
M  V30 2601 C 244.293 -5.05293 -0.958311 0
M  V30 2602 N 242.275 -6.11048 -0.591058 0
M  V30 2603 C 243.646 -6.18673 -0.405367 0
M  V30 2604 C 245.701 -4.90517 -0.854274 0
M  V30 2605 C 244.404 -7.18895 0.241434 0
M  V30 2606 C 246.43 -5.90986 -0.221301 0
M  V30 2607 C 245.792 -7.03669 0.320894 0
M  V30 2608 H 241.891 -0.670556 -0.402342 0
M  V30 2609 H 244.475 -1.89946 -0.427607 0
M  V30 2610 H 242.646 -2.65987 -2.83029 0
M  V30 2611 H 244.378 -2.90699 -2.8156 0
M  V30 2612 H 241.133 -4.47672 -1.54554 0
M  V30 2613 H 241.557 -6.76474 -0.266862 0
M  V30 2614 H 246.199 -4.03612 -1.25926 0
M  V30 2615 H 243.917 -8.05413 0.658448 0
M  V30 2616 H 247.503 -5.81626 -0.142111 0
M  V30 2617 H 246.383 -7.80078 0.802956 0
M  V30 2618 N 243.887 0.651787 -1.4349 0
M  V30 2619 C 244.797 1.79368 -1.5121 0
M  V30 2620 C 245.813 1.69361 -0.399093 0
M  V30 2621 O 246.989 1.90505 -0.653431 0
M  V30 2622 C 244.054 3.15653 -1.43401 0
M  V30 2623 C 243.115 3.37446 -2.65384 0
M  V30 2624 C 242.348 4.67229 -2.57939 0
M  V30 2625 O 242.571 5.46676 -1.62792 0
M  V30 2626 O 241.505 4.90773 -3.48462 0
M  V30 2627 H 245.331 1.7581 -2.47638 0
M  V30 2628 H 242.916 0.810447 -1.25507 0
M  V30 2629 H 244.798 3.96935 -1.41494 0
M  V30 2630 H 243.473 3.19798 -0.501085 0
M  V30 2631 H 242.38 2.55923 -2.72863 0
M  V30 2632 H 243.713 3.38148 -3.57654 0
M  V30 2633 N 245.365 1.30045 0.890287 0
M  V30 2634 C 246.59 1.21598 1.68014 0
M  V30 2635 C 247.015 -0.218678 1.86825 0
M  V30 2636 O 246.373 -1.15756 1.39536 0
M  V30 2637 C 246.421 1.94434 3.03691 0
M  V30 2638 O 245.525 1.2678 3.92429 0
M  V30 2639 H 244.866 0.420856 0.513592 0
M  V30 2640 H 247.396 1.71775 1.11151 0
M  V30 2641 H 247.406 2.03251 3.5377 0
M  V30 2642 H 246.081 2.98777 2.89318 0
M  V30 2643 H 244.658 1.26282 3.50866 0
M  V30 2644 N 246.843 -1.10192 1.12674 0
M  V30 2645 C 247.791 -2.18694 0.792196 0
M  V30 2646 C 248.785 -1.67938 -0.222058 0
M  V30 2647 O 249.991 -1.79822 -0.0800074 0
M  V30 2648 H 246.366 -0.713223 0.238364 0
M  V30 2649 H 248.337 -2.44149 1.71564 0
M  V30 2650 C 247.086 -3.46682 0.265859 0
M  V30 2651 H 246.409 -3.86101 1.03761 0
M  V30 2652 H 247.849 -4.23942 0.0701128 0
M  V30 2653 C 246.308 -3.21506 -1.00675 0
M  V30 2654 O 246.838 -3.43408 -2.08408 0
M  V30 2655 N 245.044 -2.75158 -0.934692 0
M  V30 2656 H 244.591 -2.57535 -0.0578604 0
M  V30 2657 H 244.549 -2.58691 -1.7868 0
M  V30 2658 N 248.321 -0.919034 -1.28029 0
M  V30 2659 C 249.569 -0.553838 -1.94363 0
M  V30 2660 C 249.89 0.906357 -1.72656 0
M  V30 2661 O 249.16 1.64143 -1.0693 0
M  V30 2662 H 247.74 -0.201834 -0.719216 0
M  V30 2663 H 250.402 -1.16954 -1.55909 0
M  V30 2664 H 249.498 -0.752758 -3.02886 0
M  V30 2665 N 249.799 1.42003 -0.683588 0
M  V30 2666 C 250.731 2.29183 0.0283068 0
M  V30 2667 C 251.744 1.4415 0.756611 0
M  V30 2668 O 252.933 1.67779 0.609306 0
M  V30 2669 C 250.033 3.21765 1.06398 0
M  V30 2670 C 249.206 4.35496 0.407723 0
M  V30 2671 C 248.265 5.08737 1.34437 0
M  V30 2672 O 247.291 5.62948 0.841318 0
M  V30 2673 N 248.493 5.15075 2.67728 0
M  V30 2674 H 251.258 2.9092 -0.720105 0
M  V30 2675 H 248.819 1.53025 -0.528682 0
M  V30 2676 H 250.811 3.6763 1.69204 0
M  V30 2677 H 249.381 2.61418 1.71404 0
M  V30 2678 H 248.601 3.92165 -0.400012 0
M  V30 2679 H 249.889 5.08776 -0.0490956 0
M  V30 2680 H 249.287 4.72457 3.11129 0
M  V30 2681 H 247.844 5.64556 3.2576 0
M  V30 2682 N 251.277 0.427512 1.51691 0
M  V30 2683 C 252.688 -0.0378867 1.86662 0
M  V30 2684 C 253.039 -1.42819 1.34525 0
M  V30 2685 O 252.164 -2.05037 0.692014 0
M  V30 2686 C 252.759 -0.0755266 3.38716 0
M  V30 2687 C 251.318 -0.485309 3.73258 0
M  V30 2688 C 250.465 0.328399 2.75349 0
M  V30 2689 H 253.416 0.64379 1.45055 0
M  V30 2690 H 253.437 -0.887056 3.70016 0
M  V30 2691 H 252.949 0.936487 3.76632 0
M  V30 2692 H 251.05 -1.50329 3.40928 0
M  V30 2693 H 251.163 -0.21693 4.78609 0
M  V30 2694 H 249.527 -0.211905 2.53817 0
M  V30 2695 H 250.31 1.3391 3.16106 0
M  V30 2696 N 252.755 -1.56801 0.158532 0
M  V30 2697 C 253.665 -2.20916 -0.789518 0
M  V30 2698 C 254.681 -1.1969 -1.26294 0
M  V30 2699 O 255.857 -1.52308 -1.31773 0
M  V30 2700 C 252.922 -2.82727 -2.00665 0
M  V30 2701 C 251.983 -3.99114 -1.58134 0
M  V30 2702 C 251.216 -4.57968 -2.74045 0
M  V30 2703 O 251.439 -4.15704 -3.90572 0
M  V30 2704 O 250.373 -5.48047 -2.48855 0
M  V30 2705 H 254.199 -3.02464 -0.273681 0
M  V30 2706 H 251.784 -1.4924 -0.0690548 0
M  V30 2707 H 253.666 -3.21968 -2.71872 0
M  V30 2708 H 252.341 -2.04184 -2.51179 0
M  V30 2709 H 251.248 -3.64567 -0.839155 0
M  V30 2710 H 252.581 -4.79212 -1.12325 0
M  V30 2711 N 254.233 0.115231 -1.57178 0
M  V30 2712 C 255.181 1.16014 -2.01602 0
M  V30 2713 C 256.175 1.42653 -0.913587 0
M  V30 2714 O 257.381 1.42571 -1.09879 0
M  V30 2715 H 253.756 0.391252 -0.642204 0
M  V30 2716 H 255.727 0.758998 -2.88586 0
M  V30 2717 C 254.476 2.47767 -2.4394 0
M  V30 2718 H 253.799 2.28108 -3.28339 0
M  V30 2719 H 255.239 3.19432 -2.78818 0
M  V30 2720 C 253.698 3.10617 -1.30455 0
M  V30 2721 O 254.228 3.96846 -0.622585 0
M  V30 2722 N 252.434 2.70553 -1.06064 0
M  V30 2723 H 251.981 2.00527 -1.61699 0
M  V30 2724 H 251.939 3.12934 -0.303284 0
M  V30 2725 N 255.711 1.52812 0.385517 0
M  V30 2726 C 256.659 1.78482 1.49155 0
M  V30 2727 C 257.653 0.652914 1.56312 0
M  V30 2728 O 258.859 0.835464 1.59436 0
M  V30 2729 H 255.234 0.5648 0.496493 0
M  V30 2730 H 257.205 2.71095 1.24699 0
M  V30 2731 C 255.954 1.97378 2.86247 0
M  V30 2732 H 255.277 2.83907 2.81491 0
M  V30 2733 H 256.717 2.19327 3.62866 0
M  V30 2734 C 255.176 0.74728 3.28508 0
M  V30 2735 O 255.706 -0.0736232 4.01633 0
M  V30 2736 N 253.912 0.576396 2.84826 0
M  V30 2737 H 253.459 1.24555 2.25486 0
M  V30 2738 H 253.417 -0.24288 3.1346 0
M  V30 2739 N 257.189 -0.644168 1.43834 0
M  V30 2740 C 258.419 -1.42939 1.49171 0
M  V30 2741 C 258.827 -1.88874 0.111048 0
M  V30 2742 O 258.17 -1.60656 -0.8908 0
M  V30 2743 C 258.232 -2.69151 2.38324 0
M  V30 2744 C 257.896 -2.45097 3.85715 0
M  V30 2745 C 258.893 -2.07747 4.76589 0
M  V30 2746 C 256.578 -2.59141 4.30292 0
M  V30 2747 C 258.572 -1.8475 6.10038 0
M  V30 2748 C 256.259 -2.35759 5.63792 0
M  V30 2749 C 257.257 -1.9862 6.53482 0
M  V30 2750 O 256.945 -1.75489 7.84512 0
M  V30 2751 H 256.677 -0.445271 0.508635 0
M  V30 2752 H 259.231 -0.79621 1.8934 0
M  V30 2753 H 257.461 -3.3506 1.93058 0
M  V30 2754 H 259.15 -3.31123 2.3476 0
M  V30 2755 H 259.916 -1.96465 4.43426 0
M  V30 2756 H 255.795 -2.87022 3.60749 0
M  V30 2757 H 259.339 -1.55686 6.80006 0
M  V30 2758 H 255.236 -2.46646 5.9652 0
M  V30 2759 H 256.004 -1.89841 7.9618 0
M  V30 2760 N 258.668 -1.30515 -0.883378 0
M  V30 2761 C 259.615 -1.17032 -1.98927 0
M  V30 2762 C 260.585 -0.0594241 -1.65994 0
M  V30 2763 O 261.77 -0.229895 -1.8941 0
M  V30 2764 C 258.91 -0.869777 -3.33959 0
M  V30 2765 C 258.023 -2.06271 -3.79574 0
M  V30 2766 C 257.158 -1.70011 -5.03259 0
M  V30 2767 C 256.197 -2.8579 -5.41286 0
M  V30 2768 N 255.334 -2.49816 -6.56153 0
M  V30 2769 H 260.174 -2.1164 -2.09792 0
M  V30 2770 H 257.711 -1.05296 -1.02719 0
M  V30 2771 H 259.669 -0.676138 -4.11685 0
M  V30 2772 H 258.299 0.0394332 -3.22776 0
M  V30 2773 H 257.351 -2.36755 -2.97744 0
M  V30 2774 H 258.663 -2.92971 -4.03694 0
M  V30 2775 H 257.817 -1.47032 -5.88614 0
M  V30 2776 H 256.556 -0.804829 -4.81013 0
M  V30 2777 H 255.561 -3.09434 -4.54456 0
M  V30 2778 H 256.786 -3.76008 -5.65504 0
M  V30 2779 H 254.732 -1.62795 -6.35479 0
M  V30 2780 H 254.649 -3.30048 -6.8015 0
M  V30 2781 H 255.917 -2.30197 -7.44735 0
M  V30 2782 N 260.146 1.09593 -1.13257 0
M  V30 2783 C 261.374 1.855 -0.916378 0
M  V30 2784 C 261.789 1.81069 0.534738 0
M  V30 2785 O 261.146 1.20562 1.37007 0
M  V30 2786 C 261.197 3.33546 -1.39388 0
M  V30 2787 O 260.918 3.37927 -2.78813 0
M  V30 2788 C 262.419 4.26299 -1.21588 0
M  V30 2789 H 259.639 0.585991 -0.326887 0
M  V30 2790 H 262.183 1.38488 -1.5047 0
M  V30 2791 H 260.338 3.77992 -0.848597 0
M  V30 2792 H 260.752 4.30254 -2.9997 0
M  V30 2793 H 262.226 5.28341 -1.59876 0
M  V30 2794 H 262.703 4.38918 -0.157376 0
M  V30 2795 H 263.309 3.87668 -1.7491 0
M  V30 2796 N 261.624 0.925811 1.2754 0
M  V30 2797 C 262.852 0.581509 1.9856 0
M  V30 2798 C 263.267 -0.840041 1.69082 0
M  V30 2799 O 262.624 -1.55805 0.950312 0
M  V30 2800 C 262.675 0.795589 3.52637 0
M  V30 2801 O 262.396 2.16121 3.81082 0
M  V30 2802 C 263.897 0.459744 4.4091 0
M  V30 2803 H 261.117 0.220538 0.633722 0
M  V30 2804 H 263.661 1.24232 1.6244 0
M  V30 2805 H 261.816 0.18161 3.86974 0
M  V30 2806 H 262.23 2.2098 4.75676 0
M  V30 2807 H 263.704 0.660244 5.48037 0
M  V30 2808 H 264.181 -0.604625 4.35018 0
M  V30 2809 H 264.787 1.05178 4.12089 0
M  V30 2810 N 263.102 -1.41638 0.69111 0
M  V30 2811 C 264.513 -1.84346 0.295517 0
M  V30 2812 C 264.864 -1.57833 -1.16547 0
M  V30 2813 O 263.989 -1.04648 -1.89414 0
M  V30 2814 C 264.584 -3.34636 0.529575 0
M  V30 2815 C 263.143 -3.7593 0.187944 0
M  V30 2816 C 262.29 -2.65082 0.814052 0
M  V30 2817 H 265.241 -1.31253 0.892092 0
M  V30 2818 H 265.262 -3.79903 -0.213148 0
M  V30 2819 H 264.774 -3.53901 1.59297 0
M  V30 2820 H 262.875 -3.62268 -0.871367 0
M  V30 2821 H 262.988 -4.74808 0.63985 0
M  V30 2822 H 261.352 -2.53528 0.244017 0
M  V30 2823 H 262.135 -2.87167 1.88123 0
M  V30 2824 N 264.58 -0.43555 -1.51462 0
M  V30 2825 C 265.991 0.0279871 -1.86679 0
M  V30 2826 C 266.342 1.42104 -1.35281 0
M  V30 2827 O 265.467 2.04667 -0.702878 0
M  V30 2828 C 266.062 0.0575626 -3.38751 0
M  V30 2829 C 264.621 0.465507 -3.7351 0
M  V30 2830 C 263.768 -0.342996 -2.75171 0
M  V30 2831 H 266.719 -0.651473 -1.44712 0
M  V30 2832 H 266.74 0.867421 -3.70481 0
M  V30 2833 H 266.252 -0.956448 -3.7613 0
M  V30 2834 H 264.353 1.48519 -3.41721 0
M  V30 2835 H 264.466 0.191546 -4.78717 0
M  V30 2836 H 262.83 0.198442 -2.53926 0
M  V30 2837 H 263.613 -1.35585 -3.15391 0
M  V30 2838 N 266.058 1.56714 -0.166846 0
M  V30 2839 C 267.304 1.97039 0.479962 0
M  V30 2840 C 267.637 1.05264 1.63197 0
M  V30 2841 O 266.912 0.0988833 1.94248 0
M  V30 2842 C 267.195 3.46867 0.967212 0
M  V30 2843 C 267.048 4.49421 -0.18466 0
M  V30 2844 C 268.367 3.9968 1.84238 0
M  V30 2845 H 265.486 0.71641 0.172992 0
M  V30 2846 H 268.128 1.8832 -0.252079 0
M  V30 2847 H 266.278 3.54428 1.59101 0
M  V30 2848 H 267.95 4.53924 -0.821621 0
M  V30 2849 H 266.193 4.25573 -0.840837 0
M  V30 2850 H 266.864 5.51644 0.198317 0
M  V30 2851 H 269.34 3.94723 1.31655 0
M  V30 2852 H 268.216 5.04941 2.15234 0
M  V30 2853 H 268.477 3.43226 2.78654 0
M  V30 2854 N 267.536 -0.106894 1.57237 0
M  V30 2855 C 268.466 -1.13148 2.04254 0
M  V30 2856 C 269.447 -1.42476 0.929224 0
M  V30 2857 O 270.632 -1.52709 1.19973 0
M  V30 2858 C 267.762 -2.4545 2.45706 0
M  V30 2859 C 266.716 -2.30558 3.60592 0
M  V30 2860 C 266.042 -3.67931 3.87983 0
M  V30 2861 C 267.342 -1.75597 4.91897 0
M  V30 2862 H 269.036 -0.740374 2.90101 0
M  V30 2863 H 266.582 -0.354696 1.39563 0
M  V30 2864 H 268.535 -3.17389 2.77205 0
M  V30 2865 H 267.259 -2.86475 1.56843 0
M  V30 2866 H 265.918 -1.61067 3.29322 0
M  V30 2867 H 265.566 -4.06462 2.96306 0
M  V30 2868 H 265.266 -3.58817 4.65322 0
M  V30 2869 H 266.79 -4.41356 4.21945 0
M  V30 2870 H 268.204 -2.37364 5.21854 0
M  V30 2871 H 266.601 -1.77272 5.73319 0
M  V30 2872 H 267.671 -0.714451 4.79608 0
M  V30 2873 N 269.014 -1.53014 -0.377408 0
M  V30 2874 C 270.291 -1.59215 -1.13622 0
M  V30 2875 C 270.671 -0.392407 -2.07421 0
M  V30 2876 O 270.019 0.618342 -2.19975 0
M  V30 2877 C 270.229 -2.93669 -1.88573 0
M  V30 2878 C 271.577 -3.47822 -2.43526 0
M  V30 2879 O 272.601 -2.9562 -1.98715 0
M  V30 2880 O 271.46 -4.39055 -3.25412 0
M  V30 2881 H 268.554 -0.642625 -0.52054 0
M  V30 2882 H 271.1 -1.65353 -0.381625 0
M  V30 2883 H 269.872 -3.7243 -1.20048 0
M  V30 2884 H 269.495 -2.90968 -2.70968 0
M  V30 2885 N 270.492 0.636531 -1.44174 0
M  V30 2886 C 271.717 1.42847 -1.50364 0
M  V30 2887 C 272.142 1.87665 -0.127867 0
M  V30 2888 O 271.5 1.58408 0.88185 0
M  V30 2889 C 271.548 2.62854 -2.4686 0
M  V30 2890 O 270.652 3.62501 -1.9664 0
M  V30 2891 H 269.993 0.427642 -0.507955 0
M  V30 2892 H 272.523 0.777422 -1.89255 0
M  V30 2893 H 272.533 3.10465 -2.64718 0
M  V30 2894 H 271.208 2.29578 -3.46795 0
M  V30 2895 H 269.785 3.21735 -1.88523 0
M  V30 2896 N 271.97 1.30982 0.876444 0
M  V30 2897 C 273.247 1.10942 1.61094 0
M  V30 2898 C 273.627 -0.338223 2.08373 0
M  V30 2899 O 272.975 -1.33122 1.85717 0
M  V30 2900 C 273.185 2.11789 2.77392 0
M  V30 2901 C 274.533 2.43965 3.47514 0
M  V30 2902 O 275.557 2.10166 2.87591 0
M  V30 2903 O 274.416 3.01817 4.55597 0
M  V30 2904 H 271.51 0.42667 0.708436 0
M  V30 2905 H 274.056 1.42438 0.922474 0
M  V30 2906 H 272.828 3.09194 2.39823 0
M  V30 2907 H 272.451 1.81161 3.5393 0
M  V30 2908 N 273.449 -1.08991 1.13837 0
M  V30 2909 C 274.697 -1.80899 0.901098 0
M  V30 2910 C 275.018 -1.86356 -0.574134 0
M  V30 2911 O 274.288 -1.35235 -1.41733 0
M  V30 2912 H 272.868 -0.669966 0.330386 0
M  V30 2913 H 275.53 -1.318 1.43578 0
M  V30 2914 H 274.626 -2.83929 1.29578 0
M  V30 2915 N 274.927 -0.932562 -1.27047 0
M  V30 2916 C 276.152 -0.591474 -1.98787 0
M  V30 2917 C 276.577 0.824601 -1.69062 0
M  V30 2918 O 275.935 1.5541 -0.933677 0
M  V30 2919 C 275.983 -0.829808 -3.50922 0
M  V30 2920 O 275.087 0.102266 -4.12273 0
M  V30 2921 H 274.428 -0.227185 -0.623926 0
M  V30 2922 H 276.958 -1.25314 -1.61733 0
M  V30 2923 H 276.968 -0.747292 -4.01098 0
M  V30 2924 H 275.643 -1.86201 -3.7189 0
M  V30 2925 H 274.22 -0.0305761 -3.72887 0
M  V30 2926 N 276.405 1.4127 -0.698611 0
M  V30 2927 C 277.652 2.0118 -0.230865 0
M  V30 2928 C 277.98 1.55338 1.17049 0
M  V30 2929 O 277.235 0.756775 1.80475 0
M  V30 2930 C 277.534 3.56592 -0.240192 0
M  V30 2931 C 277.2 4.21955 -1.58948 0
M  V30 2932 C 275.862 4.39524 -1.95887 0
M  V30 2933 C 278.214 4.58576 -2.47704 0
M  V30 2934 C 275.542 4.90992 -3.2116 0
M  V30 2935 C 277.894 5.11435 -3.72313 0
M  V30 2936 C 276.558 5.27215 -4.0939 0
M  V30 2937 H 275.828 0.736169 -0.0844796 0
M  V30 2938 H 278.475 1.69124 -0.8983 0
M  V30 2939 H 276.78 3.88456 0.510797 0
M  V30 2940 H 278.477 4.00758 0.139296 0
M  V30 2941 H 275.067 4.08657 -1.29219 0
M  V30 2942 H 279.251 4.44654 -2.20445 0
M  V30 2943 H 274.507 5.01393 -3.49878 0
M  V30 2944 H 278.681 5.38752 -4.4127 0
M  V30 2945 H 276.308 5.66859 -5.06533 0
M  V30 2946 N 277.883 0.443576 1.51229 0
M  V30 2947 C 279.13 -0.120796 2.02139 0
M  V30 2948 C 279.458 -1.42166 1.32736 0
M  V30 2949 O 278.713 -1.90849 0.43301 0
M  V30 2950 C 279.012 -0.380579 3.55368 0
M  V30 2951 C 278.678 0.83523 4.43097 0
M  V30 2952 C 277.34 1.16864 4.66794 0
M  V30 2953 C 279.692 1.64601 4.94526 0
M  V30 2954 C 277.02 2.31339 5.39165 0
M  V30 2955 C 279.372 2.78181 5.68153 0
M  V30 2956 C 278.036 3.11969 5.90112 0
M  V30 2957 H 277.306 -0.0442023 0.73968 0
M  V30 2958 H 279.953 0.592046 1.82118 0
M  V30 2959 H 278.258 -1.17538 3.73754 0
M  V30 2960 H 279.955 -0.830777 3.923 0
M  V30 2961 H 276.545 0.565437 4.24854 0
M  V30 2962 H 280.729 1.40163 4.76097 0
M  V30 2963 H 275.985 2.57823 5.5438 0
M  V30 2964 H 280.159 3.41371 6.06992 0
M  V30 2965 H 277.786 4.00784 6.45969 0
M  V30 2966 N 279.361 -1.56624 0.175154 0
M  V30 2967 C 280.291 -2.21155 -0.749195 0
M  V30 2968 C 281.272 -1.16836 -1.23626 0
M  V30 2969 O 282.457 -1.45277 -1.28873 0
M  V30 2970 C 279.587 -2.8553 -1.97711 0
M  V30 2971 C 278.541 -3.95921 -1.62575 0
M  V30 2972 C 277.867 -4.47365 -2.92864 0
M  V30 2973 C 279.167 -5.15323 -0.850838 0
M  V30 2974 H 280.861 -2.98653 -0.211295 0
M  V30 2975 H 278.407 -1.43651 -0.100188 0
M  V30 2976 H 280.36 -3.2935 -2.62881 0
M  V30 2977 H 279.084 -2.05406 -2.53921 0
M  V30 2978 H 277.743 -3.52762 -0.997719 0
M  V30 2979 H 277.391 -3.64027 -3.47122 0
M  V30 2980 H 277.091 -5.21839 -2.70106 0
M  V30 2981 H 278.615 -4.93873 -3.59056 0
M  V30 2982 H 280.029 -5.55812 -1.40521 0
M  V30 2983 H 278.426 -5.95739 -0.722154 0
M  V30 2984 H 279.496 -4.84661 0.152082 0
M  V30 2985 N 280.839 0.0985539 -1.57292 0
M  V30 2986 C 282.069 0.815135 -1.8984 0
M  V30 2987 C 282.477 1.7297 -0.766679 0
M  V30 2988 O 281.82 1.81698 0.270483 0
M  V30 2989 C 281.882 1.6842 -3.17608 0
M  V30 2990 C 281.546 0.94182 -4.4719 0
M  V30 2991 C 282.543 0.273212 -5.19182 0
M  V30 2992 C 280.228 0.916927 -4.9386 0
M  V30 2993 C 282.222 -0.410361 -6.36078 0
M  V30 2994 C 279.909 0.229567 -6.10669 0
M  V30 2995 C 280.907 -0.432902 -6.81627 0
M  V30 2996 O 280.595 -1.10925 -7.9621 0
M  V30 2997 H 280.327 0.238501 -0.632529 0
M  V30 2998 H 282.881 0.0812659 -2.05239 0
M  V30 2999 H 281.111 2.46022 -2.98345 0
M  V30 3000 H 282.8 2.27704 -3.36015 0
M  V30 3001 H 283.566 0.283927 -4.84168 0
M  V30 3002 H 279.445 1.42201 -4.3852 0
M  V30 3003 H 282.989 -0.928013 -6.914 0
M  V30 3004 H 278.886 0.216686 -6.45136 0
M  V30 3005 H 279.654 -1.01579 -8.12172 0
M  V30 3006 N 282.317 1.53212 0.369288 0
M  V30 3007 C 283.542 1.73423 1.1375 0
M  V30 3008 C 283.967 0.460404 1.82378 0
M  V30 3009 O 283.325 -0.585298 1.71592 0
M  V30 3010 C 283.373 2.89769 2.1463 0
M  V30 3011 O 282.477 2.58119 3.21634 0
M  V30 3012 H 281.818 0.576061 0.330227 0
M  V30 3013 H 284.348 2.00083 0.427547 0
M  V30 3014 H 284.358 3.15829 2.58294 0
M  V30 3015 H 283.033 3.8217 1.64071 0
M  V30 3016 H 281.61 2.42864 2.82969 0
M  V30 3017 N 283.795 -0.628877 1.44509 0
M  V30 3018 C 284.742 -1.74074 1.51549 0
M  V30 3019 C 285.712 -1.62084 0.363021 0
M  V30 3020 O 286.897 -1.81975 0.573567 0
M  V30 3021 C 284.037 -3.12328 1.46784 0
M  V30 3022 C 283.15 -3.35277 2.72422 0
M  V30 3023 C 282.285 -4.63515 2.59475 0
M  V30 3024 C 281.324 -4.7965 3.80266 0
M  V30 3025 N 280.461 -5.99168 3.65981 0
M  V30 3026 H 285.301 -1.67392 2.46544 0
M  V30 3027 H 282.838 -0.816527 1.22357 0
M  V30 3028 H 284.796 -3.92286 1.42012 0
M  V30 3029 H 283.426 -3.18018 0.553544 0
M  V30 3030 H 282.478 -2.49242 2.87372 0
M  V30 3031 H 283.79 -3.43078 3.62076 0
M  V30 3032 H 282.944 -5.51638 2.52548 0
M  V30 3033 H 281.683 -4.58076 1.67384 0
M  V30 3034 H 280.688 -3.89957 3.87574 0
M  V30 3035 H 281.913 -4.86902 4.73395 0
M  V30 3036 H 279.859 -5.94814 2.76644 0
M  V30 3037 H 279.776 -6.08035 4.49254 0
M  V30 3038 H 281.044 -6.89846 3.6295 0
M  V30 3039 N 285.273 -1.31445 -0.869486 0
M  V30 3040 C 286.203 -1.21727 -1.99261 0
M  V30 3041 C 287.184 -0.104359 -1.6978 0
M  V30 3042 O 288.369 -0.289038 -1.92037 0
M  V30 3043 C 285.499 -0.924317 -3.34774 0
M  V30 3044 C 284.453 -1.99685 -3.78563 0
M  V30 3045 C 283.779 -1.55658 -5.11541 0
M  V30 3046 C 285.079 -3.41003 -3.95619 0
M  V30 3047 H 286.773 -2.1569 -2.07649 0
M  V30 3048 H 284.319 -1.03839 -0.997675 0
M  V30 3049 H 286.272 -0.842934 -4.12883 0
M  V30 3050 H 284.996 0.0509793 -3.2656 0
M  V30 3051 H 283.655 -2.06813 -3.02694 0
M  V30 3052 H 283.303 -0.569132 -4.9977 0
M  V30 3053 H 283.003 -2.27409 -5.41811 0
M  V30 3054 H 284.527 -1.48928 -5.92159 0
M  V30 3055 H 285.941 -3.36547 -4.64122 0
M  V30 3056 H 284.338 -4.10975 -4.37286 0
M  V30 3057 H 285.408 -3.81754 -2.98985 0
M  V30 3058 N 286.751 1.08385 -1.14413 0
M  V30 3059 C 287.979 1.84517 -0.936001 0
M  V30 3060 C 288.394 1.81626 0.515503 0
M  V30 3061 O 287.751 1.22008 1.35721 0
M  V30 3062 C 287.802 3.32049 -1.42918 0
M  V30 3063 O 287.523 3.34951 -2.82381 0
M  V30 3064 C 289.024 4.24986 -1.26103 0
M  V30 3065 H 286.244 0.582491 -0.333084 0
M  V30 3066 H 288.788 1.36885 -1.5193 0
M  V30 3067 H 286.943 3.7707 -0.888641 0
M  V30 3068 H 287.357 4.27048 -3.04517 0
M  V30 3069 H 288.831 5.26615 -1.6547 0
M  V30 3070 H 289.308 4.38726 -0.20392 0
M  V30 3071 H 289.914 3.85791 -1.79012 0
M  V30 3072 N 288.23 0.939286 1.26551 0
M  V30 3073 C 289.476 0.586715 1.94128 0
M  V30 3074 C 289.809 -0.8717 1.73537 0
M  V30 3075 O 289.084 -1.62339 1.07127 0
M  V30 3076 C 289.367 0.927497 3.4795 0
M  V30 3077 C 289.22 2.44052 3.77834 0
M  V30 3078 C 290.539 0.441569 4.37879 0
M  V30 3079 H 287.658 0.21463 0.705055 0
M  V30 3080 H 290.3 1.17316 1.49455 0
M  V30 3081 H 288.45 0.428431 3.8613 0
M  V30 3082 H 290.122 3.01216 3.4938 0
M  V30 3083 H 288.365 2.8848 3.23978 0
M  V30 3084 H 289.036 2.62947 4.85348 0
M  V30 3085 H 291.512 0.869448 4.06915 0
M  V30 3086 H 290.388 0.708856 5.44304 0
M  V30 3087 H 290.649 -0.658467 4.37169 0
M  V30 3088 N 289.708 -1.40897 0.706093 0
M  V30 3089 C 290.985 -1.94868 0.169099 0
M  V30 3090 C 291.365 -1.64485 -1.32318 0
M  V30 3091 O 290.713 -0.95744 -2.07474 0
M  V30 3092 C 290.923 -3.45798 0.471654 0
M  V30 3093 C 292.271 -4.22663 0.405127 0
M  V30 3094 O 293.295 -3.53865 0.407168 0
M  V30 3095 O 292.154 -5.45216 0.374383 0
M  V30 3096 H 289.248 -0.82673 0.0211352 0
M  V30 3097 H 291.794 -1.50558 0.782976 0
M  V30 3098 H 290.566 -3.61235 1.50416 0
M  V30 3099 H 290.189 -3.97225 -0.172666 0
M  V30 3100 N 291.186 -0.45159 -1.50991 0
M  V30 3101 C 292.133 0.352625 -2.2809 0
M  V30 3102 C 293.103 1.0044 -1.32291 0
M  V30 3103 O 294.288 1.02058 -1.6121 0
M  V30 3104 C 291.428 1.43983 -3.13629 0
M  V30 3105 C 290.541 0.804772 -4.24438 0
M  V30 3106 C 289.676 1.86822 -4.97263 0
M  V30 3107 C 288.715 1.21236 -5.99973 0
M  V30 3108 N 287.852 2.2178 -6.66152 0
M  V30 3109 H 292.692 -0.311186 -2.96371 0
M  V30 3110 H 290.229 -0.165308 -1.46168 0
M  V30 3111 H 292.187 2.08161 -3.61559 0
M  V30 3112 H 290.817 2.07307 -2.47434 0
M  V30 3113 H 289.869 0.0509129 -3.80366 0
M  V30 3114 H 291.181 0.286076 -4.97979 0
M  V30 3115 H 290.335 2.58628 -5.48813 0
M  V30 3116 H 289.074 2.42068 -4.23385 0
M  V30 3117 H 288.079 0.479828 -5.47702 0
M  V30 3118 H 289.304 0.667051 -6.75816 0
M  V30 3119 H 287.25 2.76079 -5.95077 0
M  V30 3120 H 287.167 1.74841 -7.35504 0
M  V30 3121 H 288.435 2.93026 -7.22327 0
M  V30 3122 N 292.664 1.56529 -0.183458 0
M  V30 3123 C 293.889 2.02064 0.467428 0
M  V30 3124 C 294.314 1.06282 1.55196 0
M  V30 3125 O 293.672 0.0443565 1.81246 0
M  V30 3126 C 293.72 3.46122 1.01153 0
M  V30 3127 O 292.824 3.53437 2.12499 0
M  V30 3128 H 292.165 0.654726 0.110588 0
M  V30 3129 H 294.695 2.02521 -0.290917 0
M  V30 3130 H 294.705 3.85676 1.33108 0
M  V30 3131 H 293.38 4.15331 0.217533 0
M  V30 3132 H 291.957 3.2575 1.81497 0
M  V30 3133 N 294.142 -0.090211 1.57342 0
M  V30 3134 C 295.558 -0.444547 1.53284 0
M  V30 3135 C 295.758 -1.80238 0.900914 0
M  V30 3136 O 294.814 -2.4759 0.495513 0
M  V30 3137 C 296.127 -0.402543 2.97993 0
M  V30 3138 C 297.675 -0.48405 3.09234 0
M  V30 3139 C 298.15 -0.472144 4.5556 0
M  V30 3140 N 299.641 -0.532757 4.60126 0
M  V30 3141 C 300.376 -0.545462 5.708 0
M  V30 3142 N 299.872 -0.514082 6.9089 0
M  V30 3143 N 301.665 -0.59064 5.58988 0
M  V30 3144 H 293.816 0.799121 1.96794 0
M  V30 3145 H 296.079 0.297965 0.899956 0
M  V30 3146 H 295.785 0.528106 3.47712 0
M  V30 3147 H 295.659 -1.21969 3.56936 0
M  V30 3148 H 298.046 -1.40512 2.595 0
M  V30 3149 H 298.127 0.361328 2.53235 0
M  V30 3150 H 297.771 0.445 5.05947 0
M  V30 3151 H 297.701 -1.3348 5.09402 0
M  V30 3152 H 300.192 -0.562006 3.73698 0
M  V30 3153 H 300.505 -0.527195 7.71 0
M  V30 3154 H 298.85 -0.481054 6.93333 0
M  V30 3155 H 302.041 -0.61272 4.64073 0
M  V30 3156 H 302.214 -0.597073 6.45243 0
M  V30 3157 N 295.62 -1.53406 -0.361157 0
M  V30 3158 C 296.866 -1.70999 -1.1014 0
M  V30 3159 C 297.221 -0.458425 -1.86859 0
M  V30 3160 O 296.514 0.548654 -1.83577 0
M  V30 3161 C 296.708 -2.90211 -2.08596 0
M  V30 3162 C 296.537 -4.26841 -1.41553 0
M  V30 3163 C 295.307 -4.91621 -1.16778 0
M  V30 3164 C 297.505 -5.07212 -0.850915 0
M  V30 3165 N 295.487 -6.12164 -0.461312 0
M  V30 3166 C 296.858 -6.19394 -0.274046 0
M  V30 3167 C 298.913 -4.92218 -0.750036 0
M  V30 3168 C 297.616 -7.18221 0.393868 0
M  V30 3169 C 299.642 -5.91322 -0.095894 0
M  V30 3170 C 299.004 -7.0283 0.470081 0
M  V30 3171 H 295.103 -0.678939 -0.388028 0
M  V30 3172 H 297.687 -1.90811 -0.38722 0
M  V30 3173 H 295.858 -2.71931 -2.77323 0
M  V30 3174 H 297.59 -2.96606 -2.7533 0
M  V30 3175 H 294.345 -4.50849 -1.45024 0
M  V30 3176 H 294.769 -6.76888 -0.123312 0
M  V30 3177 H 299.411 -4.06192 -1.17337 0
M  V30 3178 H 297.129 -8.03835 0.82914 0
M  V30 3179 H 300.715 -5.81797 -0.0187075 0
M  V30 3180 H 299.595 -7.782 0.968241 0
M  V30 3181 N 297.098 0.621204 -1.44841 0
M  V30 3182 C 298.03 1.74615 -1.48466 0
M  V30 3183 C 299.043 1.58377 -0.37691 0
M  V30 3184 O 300.232 1.66508 -0.643215 0
M  V30 3185 C 297.332 3.12459 -1.31236 0
M  V30 3186 C 296.505 3.55064 -2.55438 0
M  V30 3187 C 295.564 4.71821 -2.32963 0
M  V30 3188 O 294.59 4.79628 -3.06505 0
M  V30 3189 N 295.792 5.64186 -1.36654 0
M  V30 3190 H 298.557 1.71973 -2.45449 0
M  V30 3191 H 296.118 0.806077 -1.40407 0
M  V30 3192 H 298.11 3.88302 -1.14032 0
M  V30 3193 H 296.68 3.09686 -0.4258 0
M  V30 3194 H 295.9 2.69324 -2.87851 0
M  V30 3195 H 297.188 3.80284 -3.38026 0
M  V30 3196 H 296.586 5.6058 -0.759344 0
M  V30 3197 H 295.143 6.39618 -1.25425 0
M  V30 3198 N 298.576 1.31904 0.862503 0
M  V30 3199 C 299.508 1.16005 1.97675 0
M  V30 3200 C 300.521 0.0971234 1.6251 0
M  V30 3201 O 301.71 0.345337 1.75128 0
M  V30 3202 C 298.81 0.751791 3.30456 0
M  V30 3203 C 297.983 1.90133 3.93914 0
M  V30 3204 C 297.042 1.4779 5.05019 0
M  V30 3205 O 296.068 2.18872 5.25437 0
M  V30 3206 N 297.27 0.369491 5.79323 0
M  V30 3207 H 300.035 2.11982 2.11857 0
M  V30 3208 H 297.596 1.24337 1.03691 0
M  V30 3209 H 299.588 0.451084 4.02178 0
M  V30 3210 H 298.158 -0.116593 3.12382 0
M  V30 3211 H 297.378 2.36896 3.15078 0
M  V30 3212 H 298.666 2.67111 4.33047 0
M  V30 3213 H 298.064 -0.222299 5.65263 0
M  V30 3214 H 296.621 0.128354 6.51674 0
M  V30 3215 N 300.054 -1.07777 1.14986 0
M  V30 3216 C 301.302 -1.79934 0.920235 0
M  V30 3217 C 301.623 -1.86955 -0.554336 0
M  V30 3218 O 300.893 -1.36731 -1.40291 0
M  V30 3219 H 299.473 -0.666424 0.337473 0
M  V30 3220 H 302.135 -1.3027 1.44968 0
M  V30 3221 H 301.231 -2.82539 1.32583 0
M  V30 3222 N 301.532 -0.945985 -1.26051 0
M  V30 3223 C 302.48 -0.450259 -2.282 0
M  V30 3224 C 303.474 0.47497 -1.62605 0
M  V30 3225 O 304.68 0.352653 -1.76512 0
M  V30 3226 H 301.055 -0.127081 -0.741184 0
M  V30 3227 H 303.026 -1.32422 -2.67408 0
M  V30 3228 C 301.775 0.26467 -3.46691 0
M  V30 3229 H 301.098 -0.438123 -3.97392 0
M  V30 3230 H 302.538 0.575678 -4.20074 0
M  V30 3231 C 300.997 1.48416 -3.02447 0
M  V30 3232 O 301.527 2.58227 -3.07704 0
M  V30 3233 N 299.733 1.34243 -2.57735 0
M  V30 3234 H 299.28 0.448994 -2.53657 0
M  V30 3235 H 299.238 2.15957 -2.28495 0
M  V30 3236 N 303.011 1.40521 -0.713556 0
M  V30 3237 C 304.257 2.01221 -0.252564 0
M  V30 3238 C 304.59 1.56444 1.1506 0
M  V30 3239 O 303.865 0.783597 1.78017 0
M  V30 3240 C 304.148 3.58582 -0.330332 0
M  V30 3241 C 304.001 4.13437 -1.77173 0
M  V30 3242 C 305.32 4.39079 0.299641 0
M  V30 3243 H 302.439 0.731077 -0.0932471 0
M  V30 3244 H 305.081 1.67026 -0.905673 0
M  V30 3245 H 303.231 3.87844 0.225737 0
M  V30 3246 H 304.903 3.9498 -2.38303 0
M  V30 3247 H 303.146 3.67801 -2.3001 0
M  V30 3248 H 303.817 5.22597 -1.77755 0
M  V30 3249 H 306.293 4.15735 -0.174139 0
M  V30 3250 H 305.169 5.4848 0.214771 0
M  V30 3251 H 305.43 4.19915 1.38288 0
M  V30 3252 N 304.489 0.459591 1.5075 0
M  V30 3253 C 305.736 -0.0993495 2.02256 0
M  V30 3254 C 306.064 -1.40751 1.34237 0
M  V30 3255 O 305.319 -1.90379 0.453228 0
M  V30 3256 C 305.618 -0.342866 3.55752 0
M  V30 3257 C 305.284 0.88218 4.42186 0
M  V30 3258 C 303.946 1.21808 4.65528 0
M  V30 3259 C 306.298 1.69837 4.92752 0
M  V30 3260 C 303.626 2.37045 5.36681 0
M  V30 3261 C 305.978 2.84192 5.65171 0
M  V30 3262 C 304.642 3.1821 5.8677 0
M  V30 3263 H 303.912 -0.0363545 0.740108 0
M  V30 3264 H 306.559 0.611329 1.8148 0
M  V30 3265 H 304.864 -1.13567 3.7498 0
M  V30 3266 H 306.561 -0.789121 3.93159 0
M  V30 3267 H 303.151 0.610467 4.2423 0
M  V30 3268 H 307.335 1.45205 4.74583 0
M  V30 3269 H 302.591 2.63689 5.51614 0
M  V30 3270 H 306.765 3.4779 6.03337 0
M  V30 3271 H 304.392 4.07613 6.41682 0
M  V30 3272 N 305.967 -1.56429 0.191757 0
M  V30 3273 C 307.192 -2.02309 -0.456706 0
M  V30 3274 C 307.617 -1.07103 -1.5463 0
M  V30 3275 O 306.975 -0.0539677 -1.8122 0
M  V30 3276 C 307.023 -3.46654 -0.993159 0
M  V30 3277 O 306.127 -3.54559 -2.10622 0
M  V30 3278 H 305.468 -0.655303 -0.107114 0
M  V30 3279 H 307.998 -2.02364 0.301653 0
M  V30 3280 H 308.008 -3.86377 -1.31061 0
M  V30 3281 H 306.683 -4.1544 -0.195504 0
M  V30 3282 H 305.26 -3.26708 -1.79767 0
M  V30 3283 N 307.445 0.0818655 -1.57387 0
M  V30 3284 C 308.685 0.788375 -1.88584 0
M  V30 3285 C 309.049 1.75248 -0.784351 0
M  V30 3286 O 310.25 2.50334 -0.979105 0
M  V30 3287 C 308.521 1.48654 -3.25018 0
M  V30 3288 S 310.08 2.22951 -3.7794 0
M  V30 3289 H 306.898 0.262383 -0.660815 0
M  V30 3290 H 309.5 0.0448995 -1.95448 0
M  V30 3291 H 308.204 0.770919 -4.03094 0
M  V30 3292 H 307.735 2.26965 -3.21326 0
M  V30 3293 H 309.75 3.49309 -3.52417 0
M  V30 3294 N 308.923 1.53595 0.353017 0
M  V30 3295 C 310.148 1.7462 1.11904 0
M  V30 3296 C 310.573 0.479721 1.8188 0
M  V30 3297 O 309.931 -0.567066 1.72204 0
M  V30 3298 C 309.979 2.92029 2.11545 0
M  V30 3299 O 309.083 2.61516 3.18878 0
M  V30 3300 H 308.424 0.579531 0.324099 0
M  V30 3301 H 310.954 2.00525 0.406301 0
M  V30 3302 H 310.964 3.18551 2.5493 0
M  V30 3303 H 309.639 3.83888 1.60008 0
M  V30 3304 H 308.216 2.45852 2.80377 0
M  V30 3305 N 310.401 -0.613514 1.45168 0
M  V30 3306 C 311.647 -1.37471 1.49096 0
M  V30 3307 C 311.98 -1.93765 0.129901 0
M  V30 3308 O 311.255 -1.74707 -0.854858 0
M  V30 3309 C 311.538 -2.52701 2.56542 0
M  V30 3310 C 311.391 -2.01643 4.0207 0
M  V30 3311 C 312.71 -3.54849 2.60327 0
M  V30 3312 H 309.829 -0.498502 0.54283 0
M  V30 3313 H 312.471 -0.692125 1.76945 0
M  V30 3314 H 310.621 -3.10931 2.32926 0
M  V30 3315 H 312.293 -1.48108 4.36877 0
M  V30 3316 H 310.536 -1.32688 4.13009 0
M  V30 3317 H 311.207 -2.84681 4.72928 0
M  V30 3318 H 313.683 -3.0645 2.81474 0
M  V30 3319 H 312.559 -4.32973 3.37381 0
M  V30 3320 H 312.82 -4.10079 1.6519 0
M  V30 3321 N 311.879 -1.3236 -0.855495 0
M  V30 3322 C 312.812 -1.15559 -1.96777 0
M  V30 3323 C 313.79 -0.0552681 -1.62506 0
M  V30 3324 O 314.974 -0.214419 -1.87277 0
M  V30 3325 C 312.101 -0.768851 -3.29858 0
M  V30 3326 C 311.147 -1.87429 -3.83109 0
M  V30 3327 S 311.98 -3.48243 -4.06801 0
M  V30 3328 C 313.136 -3.11539 -5.42858 0
M  V30 3329 H 313.369 -2.09717 -2.10727 0
M  V30 3330 H 310.902 -1.17011 -1.00737 0
M  V30 3331 H 312.86 -0.55248 -4.06765 0
M  V30 3332 H 311.521 0.153857 -3.13723 0
M  V30 3333 H 310.714 -1.55667 -4.79358 0
M  V30 3334 H 310.316 -2.04647 -3.13042 0
M  V30 3335 H 312.608 -2.61331 -6.2507 0
M  V30 3336 H 313.551 -4.06806 -5.79582 0
M  V30 3337 H 313.959 -2.48582 -5.06821 0
M  V30 3338 N 313.357 1.07166 -1.15556 0
M  V30 3339 C 314.307 2.12649 -0.82247 0
M  V30 3340 C 315.291 1.59725 0.194129 0
M  V30 3341 O 316.483 1.76999 -0.00540402 0
M  V30 3342 C 313.612 3.41847 -0.315572 0
M  V30 3343 C 312.698 4.0162 -1.36244 0
M  V30 3344 N 313.089 4.35625 -2.5703 0
M  V30 3345 C 311.387 4.29114 -1.21562 0
M  V30 3346 C 312.088 4.83017 -3.24144 0
M  V30 3347 N 311.064 4.81906 -2.51531 0
M  V30 3348 H 314.866 2.36776 -1.74111 0
M  V30 3349 H 312.38 1.24622 -1.0413 0
M  V30 3350 H 314.377 4.16859 -0.0585855 0
M  V30 3351 H 313.037 3.19163 0.597105 0
M  V30 3352 H 314.048 4.26253 -2.94158 0
M  V30 3353 H 310.725 4.15919 -0.362988 0
M  V30 3354 H 312.115 5.18605 -4.27198 0
M  V30 3355 N 314.835 0.952656 1.25548 0
M  V30 3356 C 315.745 0.47782 2.29682 0
M  V30 3357 C 316.761 -0.453859 1.67977 0
M  V30 3358 O 317.937 -0.330587 1.98668 0
M  V30 3359 C 315.002 -0.238655 3.45878 0
M  V30 3360 C 314.063 0.730994 4.23031 0
M  V30 3361 C 313.296 0.0486165 5.33678 0
M  V30 3362 O 313.519 -1.16612 5.58353 0
M  V30 3363 O 312.453 0.733152 5.97418 0
M  V30 3364 H 316.279 1.34312 2.72386 0
M  V30 3365 H 313.864 0.719026 1.30959 0
M  V30 3366 H 315.746 -0.641774 4.16484 0
M  V30 3367 H 314.421 -1.07916 3.05181 0
M  V30 3368 H 313.328 1.18428 3.5486 0
M  V30 3369 H 314.661 1.53946 4.67506 0
M  V30 3370 N 316.313 -1.40141 0.720998 0
M  V30 3371 C 317.276 -2.29058 0.0805834 0
M  V30 3372 C 318.276 -1.45632 -0.681758 0
M  V30 3373 O 319.466 -1.6648 -0.512856 0
M  V30 3374 C 316.598 -3.28925 -0.895593 0
M  V30 3375 H 317.791 -2.87191 0.863793 0
M  V30 3376 H 315.344 -1.48553 0.485975 0
M  V30 3377 H 316.079 -2.75822 -1.70566 0
M  V30 3378 H 315.864 -3.90519 -0.351766 0
M  V30 3379 H 317.354 -3.95494 -1.34069 0
M  V30 3380 N 317.792 -0.46758 -1.50504 0
M  V30 3381 C 318.722 0.318381 -2.31319 0
M  V30 3382 C 319.703 0.993564 -1.38066 0
M  V30 3383 O 320.888 0.991411 -1.66987 0
M  V30 3384 C 318.018 1.40275 -3.17711 0
M  V30 3385 C 316.972 0.849373 -4.19487 0
M  V30 3386 C 316.298 2.03177 -4.94594 0
M  V30 3387 C 317.598 -0.136942 -5.2212 0
M  V30 3388 H 319.292 -0.356106 -2.97275 0
M  V30 3389 H 316.838 -0.172703 -1.42961 0
M  V30 3390 H 318.791 1.96004 -3.73042 0
M  V30 3391 H 317.515 2.10596 -2.49634 0
M  V30 3392 H 316.174 0.314076 -3.65252 0
M  V30 3393 H 315.822 2.72187 -4.22993 0
M  V30 3394 H 315.522 1.66774 -5.63436 0
M  V30 3395 H 317.046 2.59403 -5.52759 0
M  V30 3396 H 318.46 0.331056 -5.72343 0
M  V30 3397 H 316.857 -0.41507 -5.98663 0
M  V30 3398 H 317.927 -1.06398 -4.73083 0
M  V30 3399 N 319.27 1.56325 -0.20005 0
M  V30 3400 C 320.22 2.15939 0.731743 0
M  V30 3401 C 321.204 1.10154 1.17281 0
M  V30 3402 O 322.396 1.36203 1.13038 0
M  V30 3403 C 319.525 2.82614 1.94895 0
M  V30 3404 C 318.611 3.95596 1.52855 0
M  V30 3405 N 319.002 4.99118 0.819418 0
M  V30 3406 C 317.3 4.07288 1.81748 0
M  V30 3407 C 318.001 5.78513 0.608053 0
M  V30 3408 N 316.977 5.31117 1.15828 0
M  V30 3409 H 320.779 2.9334 0.181285 0
M  V30 3410 H 318.293 1.624 -0.000452172 0
M  V30 3411 H 320.29 3.23718 2.62702 0
M  V30 3412 H 318.95 2.06702 2.50408 0
M  V30 3413 H 319.961 5.15723 0.47436 0
M  V30 3414 H 316.638 3.42509 2.38734 0
M  V30 3415 H 318.028 6.71885 0.0451619 0
M  V30 3416 N 320.748 -0.0735177 1.57428 0
M  V30 3417 C 321.696 -1.10628 2.04607 0
M  V30 3418 C 322.69 -1.40181 0.951088 0
M  V30 3419 O 323.896 -1.39608 1.1362 0
M  V30 3420 H 320.271 -0.374088 0.652351 0
M  V30 3421 H 322.242 -0.682218 2.90497 0
M  V30 3422 C 320.991 -2.41212 2.50423 0
M  V30 3423 H 320.314 -2.19322 3.34272 0
M  V30 3424 H 321.754 -3.11927 2.87189 0
M  V30 3425 C 320.213 -3.0705 1.38644 0
M  V30 3426 O 320.743 -3.95056 0.727582 0
M  V30 3427 N 318.949 -2.67645 1.132 0
M  V30 3428 H 318.496 -1.96169 1.66959 0
M  V30 3429 H 318.454 -3.1202 0.386147 0
M  V30 3430 N 322.226 -1.5378 -0.344866 0
M  V30 3431 C 323.176 -1.78057 -1.42407 0
M  V30 3432 C 324.16 -0.635732 -1.47808 0
M  V30 3433 O 325.352 -0.89508 -1.527 0
M  V30 3434 C 322.481 -1.99242 -2.79566 0
M  V30 3435 C 321.567 -3.19787 -2.78562 0
M  V30 3436 N 321.958 -4.41284 -2.47189 0
M  V30 3437 C 320.256 -3.2093 -3.0971 0
M  V30 3438 C 320.957 -5.23128 -2.54385 0
M  V30 3439 N 319.933 -4.59813 -2.89953 0
M  V30 3440 H 323.735 -2.69588 -1.17046 0
M  V30 3441 H 321.249 -1.52687 -0.553217 0
M  V30 3442 H 323.246 -2.14768 -3.57324 0
M  V30 3443 H 321.906 -1.08953 -3.05875 0
M  V30 3444 H 322.917 -4.68657 -2.20411 0
M  V30 3445 H 319.594 -2.40603 -3.41199 0
M  V30 3446 H 320.984 -6.30096 -2.333 0
M  V30 3447 N 323.704 0.605807 -1.45491 0
M  V30 3448 C 324.934 1.38934 -1.52908 0
M  V30 3449 C 325.342 1.88513 -0.161086 0
M  V30 3450 O 324.685 1.62962 0.847891 0
M  V30 3451 C 324.747 2.62737 -2.45376 0
M  V30 3452 C 324.411 2.34785 -3.92078 0
M  V30 3453 C 325.408 1.95038 -4.8193 0
M  V30 3454 C 323.093 2.47642 -4.37011 0
M  V30 3455 C 325.087 1.68511 -6.14722 0
M  V30 3456 C 322.774 2.20728 -5.69844 0
M  V30 3457 C 323.772 1.81225 -6.58519 0
M  V30 3458 O 323.46 1.54627 -7.88889 0
M  V30 3459 H 323.192 0.431629 -0.520262 0
M  V30 3460 H 325.746 0.74573 -1.91384 0
M  V30 3461 H 323.976 3.29824 -2.01874 0
M  V30 3462 H 325.665 3.24783 -2.43456 0
M  V30 3463 H 326.431 1.84639 -4.48479 0
M  V30 3464 H 322.31 2.77356 -3.68232 0
M  V30 3465 H 325.854 1.37602 -6.83894 0
M  V30 3466 H 321.751 2.30744 -6.02849 0
M  V30 3467 H 322.519 1.68665 -8.00933 0
M  V30 3468 N 325.182 1.32811 0.848464 0
M  V30 3469 C 326.41 1.26739 1.63538 0
M  V30 3470 C 326.825 -0.163484 1.88091 0
M  V30 3471 O 326.182 -1.10258 1.45429 0
M  V30 3472 C 326.233 2.03013 2.99112 0
M  V30 3473 O 325.954 3.40518 2.75643 0
M  V30 3474 C 327.455 2.04038 3.93552 0
M  V30 3475 H 324.675 0.437024 0.509167 0
M  V30 3476 H 327.219 1.75033 1.05753 0
M  V30 3477 H 325.374 1.58426 3.53525 0
M  V30 3478 H 325.788 3.79635 3.61908 0
M  V30 3479 H 327.262 2.61877 4.85926 0
M  V30 3480 H 327.739 1.0282 4.26995 0
M  V30 3481 H 328.345 2.486 3.45077 0
M  V30 3482 N 326.66 -1.06551 1.16123 0
M  V30 3483 C 327.592 -2.13908 0.823171 0
M  V30 3484 C 328.605 -1.61926 -0.16843 0
M  V30 3485 O 329.794 -1.78412 0.055962 0
M  V30 3486 C 326.894 -3.38283 0.204424 0
M  V30 3487 C 326.067 -4.19589 1.23548 0
M  V30 3488 C 325.126 -5.2233 0.637011 0
M  V30 3489 O 324.152 -5.54034 1.30516 0
M  V30 3490 N 325.354 -5.77621 -0.577474 0
M  V30 3491 H 328.119 -2.43508 1.74711 0
M  V30 3492 H 325.68 -1.2253 1.05821 0
M  V30 3493 H 327.672 -4.0416 -0.208909 0
M  V30 3494 H 326.242 -3.06329 -0.623012 0
M  V30 3495 H 325.462 -3.49406 1.82507 0
M  V30 3496 H 326.75 -4.70718 1.93137 0
M  V30 3497 H 326.148 -5.54125 -1.13853 0
M  V30 3498 H 324.705 -6.45087 -0.933053 0
M  V30 3499 N 328.138 -0.959301 -1.25041 0
M  V30 3500 C 329.085 -0.482057 -2.2571 0
M  V30 3501 C 330.055 0.467939 -1.59372 0
M  V30 3502 O 331.24 0.380159 -1.86974 0
M  V30 3503 C 328.38 0.229623 -3.44335 0
M  V30 3504 C 327.493 -0.758156 -4.25295 0
M  V30 3505 C 326.628 -0.0234403 -5.31195 0
M  V30 3506 C 325.667 -1.00184 -6.03846 0
M  V30 3507 N 324.804 -0.29769 -7.01469 0
M  V30 3508 H 329.644 -1.34538 -2.65901 0
M  V30 3509 H 327.181 -0.674592 -1.3072 0
M  V30 3510 H 329.139 0.658856 -4.11965 0
M  V30 3511 H 327.769 1.05696 -3.05005 0
M  V30 3512 H 326.821 -1.30586 -3.57284 0
M  V30 3513 H 328.133 -1.50458 -4.75567 0
M  V30 3514 H 327.287 0.464201 -6.04922 0
M  V30 3515 H 326.026 0.755741 -4.81809 0
M  V30 3516 H 325.031 -1.50044 -5.2893 0
M  V30 3517 H 326.256 -1.78133 -6.55321 0
M  V30 3518 H 324.202 0.462668 -6.54366 0
M  V30 3519 H 324.119 -0.983128 -7.4958 0
M  V30 3520 H 325.387 0.16826 -7.79318 0
M  V30 3521 N 329.616 1.39756 -0.72842 0
M  V30 3522 C 330.841 2.05472 -0.282159 0
M  V30 3523 C 331.266 1.54549 1.07221 0
M  V30 3524 O 330.624 0.686372 1.67805 0
M  V30 3525 C 330.672 3.59462 -0.286264 0
M  V30 3526 O 329.776 4.05918 0.728298 0
M  V30 3527 H 329.117 0.651226 -0.129618 0
M  V30 3528 H 331.647 1.78915 -0.992499 0
M  V30 3529 H 331.657 4.07798 -0.128373 0
M  V30 3530 H 330.332 3.95889 -1.27456 0
M  V30 3531 H 328.909 3.69012 0.537081 0
M  V30 3532 N 331.094 0.475555 1.50254 0
M  V30 3533 C 332.024 -0.30611 2.31485 0
M  V30 3534 C 333.005 -0.986228 1.38591 0
M  V30 3535 O 334.19 -0.982541 1.67511 0
M  V30 3536 C 331.32 -1.38588 3.1845 0
M  V30 3537 C 330.274 -0.827115 4.19932 0
M  V30 3538 C 329.6 -2.00551 4.95665 0
M  V30 3539 C 330.9 0.16463 5.2204 0
M  V30 3540 H 332.594 0.371866 2.97082 0
M  V30 3541 H 330.14 0.180282 1.42867 0
M  V30 3542 H 332.093 -1.94023 3.74076 0
M  V30 3543 H 330.817 -2.09269 2.50747 0
M  V30 3544 H 329.476 -0.294702 3.65414 0
M  V30 3545 H 329.124 -2.6994 4.2443 0
M  V30 3546 H 328.824 -1.63784 5.64313 0
M  V30 3547 H 330.348 -2.56468 5.54127 0
M  V30 3548 H 331.762 -0.300699 5.72511 0
M  V30 3549 H 330.159 0.446813 5.98434 0
M  V30 3550 H 331.229 1.08905 4.72512 0
M  V30 3551 N 332.573 -1.56217 0.208337 0
M  V30 3552 C 333.798 -2.02782 -0.435222 0
M  V30 3553 C 334.223 -1.08738 -1.53485 0
M  V30 3554 O 333.581 -0.0731855 -1.81152 0
M  V30 3555 C 333.629 -3.47687 -0.956335 0
M  V30 3556 O 332.733 -3.56773 -2.06849 0
M  V30 3557 H 332.074 -0.656403 -0.100158 0
M  V30 3558 H 334.604 -2.02033 0.3231 0
M  V30 3559 H 334.614 -3.87745 -1.26955 0
M  V30 3560 H 333.289 -4.15624 -0.15143 0
M  V30 3561 H 331.866 -3.28597 -1.76292 0
M  V30 3562 N 334.051 0.0651679 -1.57465 0
M  V30 3563 C 334.981 1.07693 -2.07182 0
M  V30 3564 C 335.962 1.39962 -0.966673 0
M  V30 3565 O 337.147 1.49475 -1.2398 0
M  V30 3566 C 334.277 2.3885 -2.52127 0
M  V30 3567 C 333.231 2.20917 -3.66579 0
M  V30 3568 C 332.557 3.57515 -3.97601 0
M  V30 3569 C 333.857 1.62493 -4.9638 0
M  V30 3570 H 335.551 0.663199 -2.91962 0
M  V30 3571 H 333.097 0.317569 -1.40455 0
M  V30 3572 H 335.05 3.09928 -2.85522 0
M  V30 3573 H 333.774 2.82215 -1.64384 0
M  V30 3574 H 332.433 1.52279 -3.33477 0
M  V30 3575 H 332.081 3.98463 -3.06979 0
M  V30 3576 H 331.781 3.46353 -4.74672 0
M  V30 3577 H 333.305 4.30013 -4.33499 0
M  V30 3578 H 334.719 2.23445 -5.27963 0
M  V30 3579 H 333.116 1.62009 -5.77818 0
M  V30 3580 H 334.186 0.587041 -4.81333 0
M  V30 3581 N 335.529 1.53961 0.336706 0
M  V30 3582 C 336.754 1.75797 1.10046 0
M  V30 3583 C 337.179 0.498985 1.81361 0
M  V30 3584 O 336.537 -0.548769 1.72795 0
M  V30 3585 C 336.585 2.94257 2.08436 0
M  V30 3586 O 335.689 2.64883 3.16087 0
M  V30 3587 H 335.03 0.582936 0.317934 0
M  V30 3588 H 337.56 2.00945 0.38501 0
M  V30 3589 H 337.57 3.21237 2.51537 0
M  V30 3590 H 336.245 3.85564 1.55927 0
M  V30 3591 H 334.822 2.48812 2.77753 0
M  V30 3592 N 337.007 -0.598083 1.45811 0
M  V30 3593 C 338.418 -1.18011 1.44673 0
M  V30 3594 C 338.769 -1.95378 0.179364 0
M  V30 3595 O 337.894 -2.04124 -0.718509 0
M  V30 3596 C 338.489 -2.14677 2.62105 0
M  V30 3597 C 337.048 -2.68236 2.64057 0
M  V30 3598 C 336.195 -1.43816 2.37091 0
M  V30 3599 H 339.146 -0.38686 1.53913 0
M  V30 3600 H 339.167 -2.97878 2.36746 0
M  V30 3601 H 338.679 -1.5834 3.5433 0
M  V30 3602 H 336.78 -3.28486 1.75864 0
M  V30 3603 H 336.893 -3.12021 3.63566 0
M  V30 3604 H 335.257 -1.731 1.86838 0
M  V30 3605 H 336.04 -0.893333 3.31473 0
M  V30 3606 N 338.485 -1.33259 -0.841409 0
M  V30 3607 C 339.733 -1.24326 -1.59334 0
M  V30 3608 C 340.054 0.191564 -1.94057 0
M  V30 3609 O 339.324 1.11967 -1.60749 0
M  V30 3610 H 337.904 -0.457174 -0.590763 0
M  V30 3611 H 340.566 -1.66947 -1.00571 0
M  V30 3612 H 339.662 -1.8352 -2.52442 0
M  V30 3613 N 339.963 1.05934 -1.16686 0
M  V30 3614 C 340.91 2.13499 -0.876748 0
M  V30 3615 C 341.88 1.65162 0.176299 0
M  V30 3616 O 343.065 1.90757 0.0407143 0
M  V30 3617 C 340.205 3.42912 -0.387967 0
M  V30 3618 C 339.318 4.04964 -1.50426 0
M  V30 3619 C 338.453 5.22266 -0.970125 0
M  V30 3620 C 337.492 5.76309 -2.06238 0
M  V30 3621 N 336.629 6.84922 -1.54356 0
M  V30 3622 H 341.469 2.37654 -1.7979 0
M  V30 3623 H 339.006 1.16598 -0.896843 0
M  V30 3624 H 340.964 4.17111 -0.086186 0
M  V30 3625 H 339.594 3.18963 0.496235 0
M  V30 3626 H 338.646 3.28277 -1.92193 0
M  V30 3627 H 339.958 4.41122 -2.32836 0
M  V30 3628 H 339.112 6.03506 -0.621743 0
M  V30 3629 H 337.851 4.87564 -0.115377 0
M  V30 3630 H 336.856 4.93704 -2.41942 0
M  V30 3631 H 338.081 6.13062 -2.92115 0
M  V30 3632 H 336.027 6.52131 -0.711406 0
M  V30 3633 H 335.944 7.20043 -2.30379 0
M  V30 3634 H 337.212 7.69832 -1.22387 0
M  V30 3635 O 341.48 1.09547 1.18667 0
M  V30 3636 H 342.171 0.792406 1.7675 0
M  V30 END ATOM
M  V30 BEGIN BOND
M  V30 END BOND
M  V30 END CTAB
M  END
$$$$
